data_POSCAR
  _audit_creation_date              2014-09-24
  _audit_creation_method            'ToBaCCo'
  _symmetry_space_group_name_H-M    'P1'
  _symmetry_Int_Tables_number       1
  _symmetry_cell_setting            triclinic
  loop_
  _symmetry_equiv_pos_as_xyz
 x,y,z
_cell_length_a 76.6074
_cell_length_b 76.4513
_cell_length_c 76.4607
_cell_angle_alpha 89.982000
_cell_angle_beta 89.996200
_cell_angle_gamma 89.975700
loop_
  _atom_site_label
  _atom_site_type_symbol
  _atom_site_fract_x
  _atom_site_fract_y
  _atom_site_fract_z
N1 N 0.35655 1.34466 0.30808
 N2 N 0.34540 1.35766 0.30925
 C3 C 0.34838 1.36900 0.29609
 C4 C 0.36211 1.36272 0.28596
 C5 C 0.36689 1.34716 0.29408
 H6 H 0.34087 1.38076 0.29392
 H7 H 0.37730 1.33839 0.29038
 Cu8 Cu 0.32770 1.35787 0.32756
 Cu9 Cu 0.35728 1.32570 0.32514
 Cu10 Cu 0.32588 1.32637 0.35787
 N11 N 0.30983 1.35806 0.34566
 N12 N 0.30897 1.34536 0.35720
 C13 C 0.29512 1.34798 0.36768
 C14 C 0.28677 1.36328 0.36255
 C15 C 0.29661 1.36931 0.34850
 H16 H 0.29160 1.33938 0.37832
 H17 H 0.29416 1.38077 0.34062
 N18 N 0.34413 1.30822 0.35633
 N19 N 0.35588 1.30778 0.34371
 C20 C 0.36641 1.29389 0.34625
 C21 C 0.36113 1.28525 0.36125
 C22 C 0.34697 1.29471 0.36728
 H23 H 0.37739 1.29053 0.33804
 H24 H 0.33926 1.29190 0.37878
 H25 H 0.33114 1.32641 0.33146
 H26 H 0.34616 1.33928 0.34565
 N27 N 0.35631 0.84429 0.80844
 N28 N 0.34475 0.85696 0.80923
 C29 C 0.34747 0.86805 0.79582
 C30 C 0.36150 0.86202 0.78612
 C31 C 0.36675 0.84686 0.79453
 H32 H 0.33974 0.87959 0.79324
 H33 H 0.37760 0.83851 0.79106
 Cu34 Cu 0.32726 0.85780 0.82766
 Cu35 Cu 0.35735 0.82576 0.82580
 Cu36 Cu 0.32609 0.82639 0.85844
 N37 N 0.30928 0.85729 0.84556
 N38 N 0.30886 0.84494 0.85751
 C39 C 0.29510 0.84759 0.86810
 C40 C 0.28639 0.86246 0.86253
 C41 C 0.29577 0.86824 0.84816
 H42 H 0.29187 0.83942 0.87917
 H43 H 0.29286 0.87944 0.84006
 N44 N 0.34461 0.80857 0.85721
 N45 N 0.35633 0.80814 0.84458
 C46 C 0.36688 0.79427 0.84709
 C47 C 0.36163 0.78561 0.86208
 C48 C 0.34747 0.79507 0.86815
 H49 H 0.37775 0.79083 0.83875
 H50 H 0.33968 0.79214 0.87956
 H51 H 0.33101 0.82644 0.83186
 H52 H 0.34595 0.83964 0.84598
 N53 N 0.85662 1.34447 0.80757
 N54 N 0.84533 1.35735 0.80863
 C55 C 0.84832 1.36872 0.79549
 C56 C 0.86220 1.36256 0.78549
 C57 C 0.86704 1.34705 0.79366
 H58 H 0.84078 1.38045 0.79329
 H59 H 0.87763 1.33843 0.79010
 Cu60 Cu 0.82770 1.35762 0.82698
 Cu61 Cu 0.85757 1.32568 0.82481
 Cu62 Cu 0.82652 1.32669 0.85787
 N63 N 0.80994 1.35784 0.84510
 N64 N 0.80953 1.34557 0.85713
 C65 C 0.79590 1.34838 0.86781
 C66 C 0.78722 1.36326 0.86224
 C67 C 0.79655 1.36894 0.84778
 H68 H 0.79262 1.34022 0.87889
 H69 H 0.79361 1.38010 0.83962
 N70 N 0.84478 1.30855 0.85635
 N71 N 0.85636 1.30795 0.84357
 C72 C 0.86682 1.29399 0.84604
 C73 C 0.86166 1.28545 0.86115
 C74 C 0.84765 1.29506 0.86732
 H75 H 0.87762 1.29048 0.83767
 H76 H 0.84001 1.29231 0.87888
 H77 H 0.83157 1.32629 0.83143
 H78 H 0.84662 1.33954 0.84520
 N79 N 0.85707 0.84515 0.30860
 N80 N 0.84419 0.85647 0.30802
 C81 C 0.84665 0.86726 0.29431
 C82 C 0.86201 0.86253 0.28582
 C83 C 0.86822 0.84839 0.29540
 H84 H 0.83804 0.87796 0.29102
 H85 H 0.87981 0.84073 0.29289
 Cu86 Cu 0.82568 0.85636 0.32554
 Cu87 Cu 0.85814 0.82675 0.32608
 Cu88 Cu 0.82589 0.82658 0.35791
 N89 N 0.80820 0.85655 0.34405
 N90 N 0.80827 0.84475 0.35655
 C91 C 0.79480 0.84776 0.36743
 C92 C 0.78580 0.86231 0.36151
 C93 C 0.79474 0.86758 0.34666
 H94 H 0.79194 0.84006 0.37894
 H95 H 0.79157 0.87852 0.33828
 N96 N 0.84487 0.80916 0.35711
 N97 N 0.85699 0.80909 0.34484
 C98 C 0.86773 0.79540 0.34756
 C99 C 0.86221 0.78652 0.36231
 C100 C 0.84769 0.79562 0.36803
 H101 H 0.87886 0.79219 0.33949
 H102 H 0.83961 0.79241 0.37916
 H103 H 0.83177 0.82552 0.33159
 H104 H 0.84515 0.84057 0.34532
 N105 N 0.64319 0.65522 0.30907
 N106 N 0.65513 0.64288 0.30950
 C107 C 0.65239 0.63178 0.29613
 C108 C 0.63802 0.63750 0.28675
 C109 C 0.63252 0.65244 0.29538
 H110 H 0.66039 0.62050 0.29325
 H111 H 0.62141 0.66053 0.29214
 Cu112 Cu 0.67304 0.64256 0.32757
 Cu113 Cu 0.64228 0.67384 0.32631
 Cu114 Cu 0.67463 0.67437 0.35783
 N115 N 0.69127 0.64320 0.34528
 N116 N 0.69195 0.65584 0.35691
 C117 C 0.70573 0.65320 0.36750
 C118 C 0.71410 0.63802 0.36228
 C119 C 0.70453 0.63202 0.34817
 H120 H 0.70917 0.66150 0.37840
 H121 H 0.70718 0.62049 0.34045
 N122 N 0.65596 0.69204 0.35670
 N123 N 0.64349 0.69169 0.34481
 C124 C 0.63260 0.70524 0.34759
 C125 C 0.63849 0.71461 0.36190
 C126 C 0.65337 0.70587 0.36730
 H127 H 0.62132 0.70822 0.33965
 H128 H 0.66156 0.70921 0.37831
 H129 H 0.66870 0.67364 0.33161
 H130 H 0.65455 0.66024 0.34642
 N131 N 0.64122 0.15332 0.81094
 N132 N 0.65508 0.14341 0.80896
 C133 C 0.65343 0.13404 0.79415
 C134 C 0.63746 0.13806 0.78649
 C135 C 0.63010 0.15040 0.79765
 H136 H 0.66293 0.12459 0.78970
 H137 H 0.61767 0.15696 0.79632
 Cu138 Cu 0.67310 0.14269 0.82686
 Cu139 Cu 0.63859 0.16899 0.83089
 Cu140 Cu 0.67730 0.17715 0.85326
 N141 N 0.69155 0.14367 0.84420
 N142 N 0.69313 0.15724 0.85461
 C143 C 0.70702 0.15488 0.86509
 C144 C 0.71454 0.13883 0.86115
 C145 C 0.70433 0.13213 0.84775
 H146 H 0.71119 0.16416 0.87490
 H147 H 0.70613 0.11989 0.84093
 N148 N 0.65655 0.19237 0.85498
 N149 N 0.64173 0.18899 0.84687
 C150 C 0.63005 0.20153 0.85086
 C151 C 0.63785 0.21342 0.86211
 C152 C 0.65467 0.20711 0.86443
 H153 H 0.61693 0.20202 0.84570
 H154 H 0.66480 0.21268 0.87252
 H155 H 0.66460 0.17333 0.82926
 H156 H 0.65762 0.16026 0.84860
 N157 N 1.14333 0.65518 0.80891
 N158 N 1.15504 0.64265 0.80964
 C159 C 1.15237 0.63154 0.79623
 C160 C 1.13824 0.63746 0.78658
 C161 C 1.13285 0.65252 0.79506
 H162 H 1.16026 0.62014 0.79355
 H163 H 1.12197 0.66082 0.79159
 Cu164 Cu 1.17281 0.64215 0.82784
 Cu165 Cu 1.14243 0.67388 0.82603
 Cu166 Cu 1.17480 0.67439 0.85770
 N167 N 1.19112 0.64302 0.84542
 N168 N 1.19200 0.65580 0.85685
 C169 C 1.20594 0.65333 0.86725
 C170 C 1.21427 0.63811 0.86209
 C171 C 1.20449 0.63192 0.84818
 H172 H 1.20953 0.66182 0.87796
 H173 H 1.20702 0.62032 0.84052
 N174 N 1.15614 0.69213 0.85646
 N175 N 1.14369 0.69179 0.84453
 C176 C 1.13273 0.70527 0.84736
 C177 C 1.13858 0.71463 0.86169
 C178 C 1.15345 0.70590 0.86712
 H179 H 1.12138 0.70816 0.83949
 H180 H 1.16152 0.70916 0.87824
 H181 H 1.16882 0.67364 0.83143
 H182 H 1.15450 0.66075 0.84635
 N183 N 1.14329 0.15502 0.30892
 N184 N 1.15577 0.14324 0.30878
 C185 C 1.15320 0.13231 0.29522
 C186 C 1.13827 0.13752 0.28642
 C187 C 1.13233 0.15199 0.29553
 H188 H 1.16145 0.12128 0.29209
 H189 H 1.12102 0.15991 0.29253
 Cu190 Cu 1.17407 0.14333 0.32639
 Cu191 Cu 1.14229 0.17356 0.32621
 Cu192 Cu 1.17454 0.17376 0.35803
 N193 N 1.19174 0.14331 0.34461
 N194 N 1.19198 0.15543 0.35678
 C195 C 1.20556 0.15259 0.36754
 C196 C 1.21430 0.13780 0.36188
 C197 C 1.20512 0.13222 0.34732
 H198 H 1.20867 0.16057 0.37878
 H199 H 1.20809 0.12104 0.33919
 N200 N 1.15569 0.19129 0.35708
 N201 N 1.14351 0.19131 0.34488
 C202 C 1.13272 0.20495 0.34765
 C203 C 1.13832 0.21391 0.36234
 C204 C 1.15291 0.20486 0.36797
 H205 H 1.12147 0.20803 0.33971
 H206 H 1.16104 0.20807 0.37907
 H207 H 1.16867 0.17438 0.33173
 H208 H 1.15495 0.15993 0.34577
 N209 N 0.64371 1.34453 0.69141
 N210 N 0.65586 1.35665 0.69108
 C211 C 0.65318 1.36784 0.70442
 C212 C 0.63866 1.36232 0.71370
 C213 C 0.63301 1.34746 0.70504
 H214 H 0.66126 1.37906 0.70728
 H215 H 0.62178 1.33952 0.70824
 Cu216 Cu 0.67399 1.35652 0.67325
 Cu217 Cu 0.64241 1.32613 0.67393
 Cu218 Cu 0.67423 1.32607 0.64162
 N219 N 0.69167 1.35645 0.65497
 N220 N 0.69158 1.34457 0.64256
 C221 C 0.70497 1.34756 0.63158
 C222 C 0.71401 1.36212 0.63741
 C223 C 0.70518 1.36741 0.65231
 H224 H 0.70800 1.33958 0.62031
 H225 H 0.70821 1.37855 0.66045
 N226 N 0.65552 1.30838 0.64291
 N227 N 0.64331 1.30851 0.65509
 C228 C 0.63242 1.29496 0.65235
 C229 C 0.63804 1.28582 0.63778
 C230 C 0.65275 1.29469 0.63217
 H231 H 0.62133 1.29180 0.66049
 H232 H 0.66071 1.29151 0.62095
 H233 H 0.66864 1.32546 0.66793
 H234 H 0.65468 1.33984 0.65408
 N235 N 0.64319 0.84508 1.19101
 N236 N 0.65598 0.85653 1.19144
 C237 C 0.65365 0.86718 1.20528
 C238 C 0.63849 0.86226 1.21384
 C239 C 0.63222 0.84816 1.20439
 H240 H 0.66212 0.87796 1.20866
 H241 H 0.62061 0.84059 1.20712
 Cu242 Cu 0.67396 0.85679 1.17342
 Cu243 Cu 0.64183 0.82684 1.17340
 Cu244 Cu 0.67427 0.82614 1.14190
 N245 N 0.69220 0.85608 1.15570
 N246 N 0.69205 0.84425 1.14323
 C247 C 0.70556 0.84709 1.13237
 C248 C 0.71480 0.86146 1.13836
 C249 C 0.70596 0.86676 1.15326
 H250 H 0.70845 0.83924 1.12097
 H251 H 0.70907 0.87784 1.16145
 N252 N 0.65518 0.80888 1.14269
 N253 N 0.64268 0.80931 1.15455
 C254 C 0.63156 0.79598 1.15159
 C255 C 0.63738 0.78664 1.13722
 C256 C 0.65238 0.79523 1.13192
 H257 H 0.62022 0.79311 1.15947
 H258 H 0.66056 0.79187 1.12091
 H259 H 0.66825 0.82591 1.16823
 H260 H 0.65473 0.84038 1.15393
 N261 N 1.14328 1.34470 1.19100
 N262 N 1.15606 1.35620 1.19139
 C263 C 1.15375 1.36683 1.20522
 C264 C 1.13864 1.36188 1.21384
 C265 C 1.13232 1.34781 1.20438
 H266 H 1.16219 1.37765 1.20856
 H267 H 1.12063 1.34036 1.20702
 Cu268 Cu 1.17394 1.35666 1.17326
 Cu269 Cu 1.14193 1.32654 1.17336
 Cu270 Cu 1.17434 1.32586 1.14185
 N271 N 1.19227 1.35575 1.15561
 N272 N 1.19211 1.34388 1.14316
 C273 C 1.20560 1.34674 1.13227
 C274 C 1.21486 1.36108 1.13828
 C275 C 1.20601 1.36641 1.15316
 H276 H 1.20837 1.33901 1.12077
 H277 H 1.20911 1.37754 1.16130
 N278 N 1.15527 1.30863 1.14265
 N279 N 1.14279 1.30904 1.15452
 C280 C 1.13167 1.29574 1.15154
 C281 C 1.13747 1.28642 1.13715
 C282 C 1.15247 1.29501 1.13186
 H283 H 1.12030 1.29288 1.15940
 H284 H 1.16061 1.29170 1.12080
 H285 H 1.16840 1.32588 1.16820
 H286 H 1.15475 1.34022 1.15380
 N287 N 1.14342 0.84396 0.69144
 N288 N 1.15499 0.85661 0.69065
 C289 C 1.15215 0.86783 0.70393
 C290 C 1.13809 0.86183 0.71361
 C291 C 1.13291 0.84660 0.70529
 H292 H 1.15987 0.87936 0.70653
 H293 H 1.12212 0.83822 0.70887
 Cu294 Cu 1.17282 0.85694 0.67254
 Cu295 Cu 1.14249 0.82533 0.67415
 Cu296 Cu 1.17381 0.82606 0.64137
 N297 N 1.19054 0.85704 0.65432
 N298 N 1.19097 0.84479 0.64229
 C299 C 1.20466 0.84761 0.63163
 C300 C 1.21330 0.86250 0.63722
 C301 C 1.20394 0.86814 0.65167
 H302 H 1.20799 0.83948 0.62056
 H303 H 1.20686 0.87929 0.65984
 N304 N 1.15532 0.80817 0.64270
 N305 N 1.14364 0.80767 0.65538
 C306 C 1.13306 0.79384 0.65283
 C307 C 1.13823 0.78528 0.63776
 C308 C 1.15237 0.79475 0.63168
 H309 H 1.12219 0.79039 0.66115
 H310 H 1.16007 0.79192 0.62018
 H311 H 1.16874 0.82559 0.66787
 H312 H 1.15398 0.83912 0.65401
 N313 N 0.35678 0.65567 0.69142
 N314 N 0.34500 0.64321 0.69077
 C315 C 0.34762 0.63213 0.70421
 C316 C 0.36179 0.63798 0.71382
 C317 C 0.36725 0.65299 0.70528
 H318 H 0.33970 0.62075 0.70691
 H319 H 0.37817 0.66125 0.70873
 Cu320 Cu 0.32744 0.64266 0.67239
 Cu321 Cu 0.35779 0.67438 0.67422
 Cu322 Cu 0.32442 0.67568 0.64372
 N323 N 0.30951 0.64306 0.65438
 N324 N 0.30845 0.65601 0.64314
 C325 C 0.29477 0.65332 0.63246
 C326 C 0.28677 0.63778 0.63723
 C327 C 0.29652 0.63165 0.65122
 H328 H 0.29099 0.66207 0.62202
 H329 H 0.29414 0.61995 0.65878
 N330 N 0.34375 0.69266 0.64392
 N331 N 0.35635 0.69229 0.65568
 C332 C 0.36739 0.70564 0.65259
 C333 C 0.36156 0.71476 0.63810
 C334 C 0.34658 0.70612 0.63290
 H335 H 0.37898 0.70840 0.66016
 H336 H 0.33825 0.70953 0.62200
 H337 H 0.33153 0.67420 0.67000
 H338 H 0.34504 0.66167 0.65397
 N339 N 0.35653 0.15568 1.19106
 N340 N 0.34485 0.14311 1.19043
 C341 C 0.34776 0.13190 1.20370
 C342 C 0.36193 0.13785 1.21325
 C343 C 0.36715 0.15300 1.20481
 H344 H 0.33998 0.12041 1.20636
 H345 H 0.37797 0.16138 1.20827
 Cu346 Cu 0.32663 0.14296 1.17270
 Cu347 Cu 0.35730 0.17437 1.17386
 Cu348 Cu 0.32601 0.17374 1.14126
 N349 N 0.30932 0.14271 1.15408
 N350 N 0.30895 0.15497 1.14205
 C351 C 0.29535 0.15214 1.13129
 C352 C 0.28674 0.13720 1.13682
 C353 C 0.29604 0.13155 1.15129
 H354 H 0.29202 0.16033 1.12026
 H355 H 0.29313 0.12034 1.15939
 N356 N 0.34435 0.19173 1.14263
 N357 N 0.35606 0.19218 1.15528
 C358 C 0.36665 0.20600 1.15272
 C359 C 0.36145 0.21460 1.13768
 C360 C 0.34728 0.20517 1.13162
 H361 H 0.37761 0.20936 1.16096
 H362 H 0.33960 0.20799 1.12010
 H363 H 0.33092 0.17422 1.16782
 H364 H 0.34553 0.16032 1.15403
 N365 N 0.85747 0.65451 1.19079
 N366 N 0.84488 0.64284 1.19108
 C367 C 0.84739 0.63205 1.20479
 C368 C 0.86238 0.63722 1.21350
 C369 C 0.86842 0.65153 1.20421
 H370 H 0.83906 0.62112 1.20804
 H371 H 0.87981 0.65935 1.20708
 Cu372 Cu 0.82685 0.64271 1.17316
 Cu373 Cu 0.85851 0.67302 1.17341
 Cu374 Cu 0.82341 0.67613 1.14498
 N375 N 0.80855 0.64333 1.15552
 N376 N 0.80729 0.65648 1.14453
 C377 C 0.79350 0.65391 1.13396
 C378 C 0.78566 0.63822 1.13848
 C379 C 0.79561 0.63188 1.15224
 H380 H 0.78964 0.66275 1.12362
 H381 H 0.79343 0.61996 1.15951
 N382 N 0.84337 0.69241 1.14441
 N383 N 0.85690 0.69097 1.15499
 C384 C 0.86840 0.70376 1.15128
 C385 C 0.86184 0.71377 1.13769
 C386 C 0.84593 0.70614 1.13367
 H387 H 0.88053 0.70583 1.15818
 H388 H 0.83696 0.71016 1.12353
 H389 H 0.83199 0.67406 1.17070
 H390 H 0.84386 0.66112 1.15370
 N391 N 0.85705 0.15499 0.69062
 N392 N 0.84499 0.14278 0.69038
 C393 C 0.84782 0.13169 0.70376
 C394 C 0.86239 0.13731 0.71291
 C395 C 0.86785 0.15220 0.70420
 H396 H 0.83975 0.12049 0.70668
 H397 H 0.87889 0.16038 0.70748
 Cu398 Cu 0.82661 0.14253 0.67280
 Cu399 Cu 0.85794 0.17354 0.67334
 Cu400 Cu 0.82564 0.17416 0.64200
 N401 N 0.80873 0.14326 0.65474
 N402 N 0.80831 0.15570 0.64289
 C403 C 0.79460 0.15307 0.63221
 C404 C 0.78602 0.13806 0.63757
 C405 C 0.79537 0.13223 0.65195
 H406 H 0.79119 0.16143 0.62131
 H407 H 0.79264 0.12089 0.65989
 N408 N 0.84430 0.19184 0.64303
 N409 N 0.85682 0.19139 0.65485
 C410 C 0.86773 0.20493 0.65210
 C411 C 0.86177 0.21442 0.63789
 C412 C 0.84684 0.20576 0.63251
 H413 H 0.87904 0.20785 0.66002
 H414 H 0.83856 0.20925 0.62160
 H415 H 0.83145 0.17373 0.66834
 H416 H 0.84524 0.15990 0.65383
 N417 N 1.34576 0.35738 0.69053
 N418 N 1.35761 0.34496 0.69051
 C419 C 1.36863 0.34760 0.70399
 C420 C 1.36343 0.36251 0.71288
 C421 C 1.34886 0.36837 0.70391
 H422 H 1.37968 0.33937 0.70703
 H423 H 1.34088 0.37961 0.70706
 Cu424 Cu 1.35721 0.32650 0.67294
 Cu425 Cu 1.32694 0.35811 0.67349
 Cu426 Cu 1.32548 0.32463 0.64277
 N427 N 1.35685 0.30822 0.65517
 N428 N 1.34396 0.30715 0.64391
 C429 C 1.34648 0.29318 0.63351
 C430 C 1.36199 0.28504 0.63830
 C431 C 1.36821 0.29510 0.65212
 H432 H 1.33789 0.28963 0.62288
 H433 H 1.37997 0.29294 0.65959
 N434 N 1.30807 0.34367 0.64376
 N435 N 1.30881 0.35656 0.65523
 C436 C 1.29549 0.36766 0.65221
 C437 C 1.28589 0.36150 0.63818
 C438 C 1.29422 0.34623 0.63321
 H439 H 1.29286 0.37931 0.65976
 H440 H 1.29064 0.33777 0.62249
 H441 H 1.32597 0.33154 0.66868
 H442 H 1.33961 0.34480 0.65355
 N443 N 1.34526 0.85676 1.19117
 N444 N 1.35833 0.84573 1.18982
 C445 C 1.36958 0.84858 1.20307
 C446 C 1.36320 0.86214 1.21339
 C447 C 1.34766 0.86693 1.20532
 H448 H 1.38136 0.84110 1.20513
 H449 H 1.33881 0.87723 1.20917
 Cu450 Cu 1.35933 0.82836 1.17114
 Cu451 Cu 1.32640 0.85747 1.17424
 Cu452 Cu 1.32588 0.82501 1.14269
 N453 N 1.35798 0.80952 1.15402
 N454 N 1.34465 0.80795 1.14336
 C455 C 1.34687 0.79368 1.13332
 C456 C 1.36261 0.78581 1.13779
 C457 C 1.36926 0.79634 1.15103
 H458 H 1.33782 0.78966 1.12326
 H459 H 1.38125 0.79447 1.15821
 N460 N 1.30803 0.84355 1.14402
 N461 N 1.30837 0.85606 1.15590
 C462 C 1.29494 0.86706 1.15302
 C463 C 1.28562 0.86119 1.13866
 C464 C 1.29430 0.84624 1.13333
 H465 H 1.29211 0.87851 1.16081
 H466 H 1.29109 0.83815 1.12220
 H467 H 1.32763 0.83097 1.16897
 H468 H 1.33923 0.84585 1.15347
 N469 N 0.84592 0.35770 1.19059
 N470 N 0.85652 0.34427 1.19187
 C471 C 0.86716 0.34669 1.20568
 C472 C 0.86306 0.36258 1.21354
 C473 C 0.84946 0.36915 1.20346
 H474 H 0.87724 0.33759 1.20953
 H475 H 0.84226 0.38113 1.20551
 Cu476 Cu 0.85577 0.32503 1.17517
 Cu477 Cu 0.82755 0.35881 1.17312
 Cu478 Cu 0.82371 0.32323 1.14527
 N479 N 0.85597 0.30797 1.15627
 N480 N 0.84337 0.30729 1.14466
 C481 C 0.84638 0.29396 1.13359
 C482 C 0.86183 0.28586 1.13842
 C483 C 0.86754 0.29516 1.15290
 H484 H 0.83790 0.29050 1.12283
 H485 H 0.87907 0.29259 1.16063
 N486 N 0.80785 0.34349 1.14446
 N487 N 0.80959 0.35723 1.15473
 C488 C 0.79688 0.36881 1.15099
 C489 C 0.78663 0.36208 1.13767
 C490 C 0.79402 0.34599 1.13386
 H491 H 0.79497 0.38106 1.15776
 H492 H 0.78974 0.33681 1.12402
 H493 H 0.82483 0.33237 1.17092
 H494 H 0.83945 0.34289 1.15448
 N495 N 0.84481 0.85717 0.69107
 N496 N 0.85724 0.84533 0.69049
 C497 C 0.86843 0.84816 0.70378
 C498 C 0.86260 0.86247 0.71325
 C499 C 0.84756 0.86784 0.70477
 H500 H 0.87977 0.84024 0.70658
 H501 H 0.83932 0.87880 0.70818
 Cu502 Cu 0.85709 0.82710 0.67272
 Cu503 Cu 0.82607 0.85800 0.67394
 Cu504 Cu 0.82565 0.82555 0.64222
 N505 N 0.85695 0.80908 0.65473
 N506 N 0.84436 0.80835 0.64307
 C507 C 0.84703 0.79453 0.63251
 C508 C 0.86217 0.78614 0.63776
 C509 C 0.86814 0.79578 0.65188
 H510 H 0.83867 0.79101 0.62167
 H511 H 0.87962 0.79313 0.65966
 N512 N 0.80788 0.84420 0.64353
 N513 N 0.80817 0.85666 0.65547
 C514 C 0.79471 0.86763 0.65262
 C515 C 0.78545 0.86179 0.63822
 C516 C 0.79418 0.84689 0.63283
 H517 H 0.79179 0.87899 0.66049
 H518 H 0.79096 0.83880 0.62170
 H519 H 0.82581 0.83152 0.66848
 H520 H 0.83930 0.84561 0.65388
 N521 N 0.65582 0.64344 0.69143
 N522 N 0.64315 0.65501 0.69064
 C523 C 0.63198 0.65215 0.70392
 C524 C 0.63799 0.63803 0.71356
 C525 C 0.65318 0.63285 0.70523
 H526 H 0.62049 0.65992 0.70651
 H527 H 0.66156 0.62200 0.70876
 Cu528 Cu 0.64282 0.67298 0.67259
 Cu529 Cu 0.67443 0.64267 0.67417
 Cu530 Cu 0.67385 0.67431 0.64169
 N531 N 0.64277 0.69084 0.65442
 N532 N 0.65512 0.69143 0.64251
 C533 C 0.65227 0.70511 0.63182
 C534 C 0.63728 0.71363 0.63732
 C535 C 0.63161 0.70418 0.65172
 H536 H 0.66042 0.70847 0.62076
 H537 H 0.62040 0.70696 0.65982
 N538 N 0.69178 0.65589 0.64304
 N539 N 0.69214 0.64399 0.65554
 C540 C 0.70588 0.63333 0.65286
 C541 C 0.71455 0.63872 0.63794
 C542 C 0.70522 0.65305 0.63205
 H543 H 0.70912 0.62221 0.66095
 H544 H 0.70806 0.66086 0.62063
 H545 H 0.67401 0.66894 0.66809
 H546 H 0.66065 0.65424 0.65401
 N547 N 0.65557 1.14309 1.19147
 N548 N 0.64420 1.15597 1.19199
 C549 C 0.63361 1.15367 1.20585
 C550 C 0.63846 1.13839 1.21447
 C551 C 0.65249 1.13209 1.20484
 H552 H 0.62296 1.16233 1.20918
 H553 H 0.66017 1.12051 1.20740
 Cu554 Cu 0.64431 1.17401 1.17399
 Cu555 Cu 0.67382 1.14172 1.17378
 Cu556 Cu 0.67376 1.17386 1.14169
 N557 N 0.64405 1.19192 1.15588
 N558 N 0.65559 1.19158 1.14314
 C559 C 0.65252 1.20497 1.13216
 C560 C 0.63828 1.21429 1.13831
 C561 C 0.63326 1.20561 1.15342
 H562 H 0.66020 1.20776 1.12063
 H563 H 0.62238 1.20888 1.16182
 N564 N 0.69109 1.15482 1.14249
 N565 N 0.69121 1.14268 1.15477
 C566 C 0.70474 1.13180 1.15191
 C567 C 0.71352 1.13728 1.13708
 C568 C 0.70447 1.15189 1.13144
 H569 H 0.70789 1.12060 1.15994
 H570 H 0.70758 1.15995 1.12026
 H571 H 0.67500 1.16807 1.16809
 H572 H 0.66013 1.15446 1.15445
 N573 N 0.15469 0.64268 1.19085
 N574 N 0.14315 0.65539 1.19121
 C575 C 0.13236 0.65289 1.20490
 C576 C 0.13728 0.63768 1.21358
 C577 C 0.15154 0.63158 1.20414
 H578 H 0.12158 0.66140 1.20808
 H579 H 0.15943 0.62020 1.20692
 Cu580 Cu 0.14329 0.67378 1.17353
 Cu581 Cu 0.17337 0.64187 1.17365
 Cu582 Cu 0.17431 0.67498 1.14257
 N583 N 0.14338 0.69179 1.15545
 N584 N 0.15599 0.69256 1.14384
 C585 C 0.15332 0.70637 1.13326
 C586 C 0.13801 0.71471 1.13829
 C587 C 0.13206 0.70495 1.15245
 H588 H 0.16172 0.70973 1.12242
 H589 H 0.12051 0.70734 1.16018
 N590 N 0.19166 0.65593 1.14338
 N591 N 0.19132 0.64336 1.15522
 C592 C 0.20481 0.63242 1.15233
 C593 C 0.21401 0.63829 1.13790
 C594 C 0.20528 0.65321 1.13257
 H595 H 0.20762 0.62089 1.15999
 H596 H 0.20871 0.66155 1.12169
 H597 H 0.17437 0.66840 1.16880
 H598 H 0.16023 0.65509 1.15409
 N599 N 0.15405 1.14257 0.69012
 N600 N 0.14306 1.15572 0.69108
 C601 C 0.13242 1.15326 0.70487
 C602 C 0.13693 1.13764 0.71305
 C603 C 0.15074 1.13124 0.70316
 H604 H 0.12210 1.16216 0.70853
 H605 H 0.15822 1.11947 0.70543
 Cu606 Cu 0.14353 1.17467 0.67406
 Cu607 Cu 0.17261 1.14172 0.67284
 Cu608 Cu 0.17670 1.17762 0.64542
 N609 N 0.14369 1.19216 0.65549
 N610 N 0.15686 1.19348 0.64459
 C611 C 0.15416 1.20714 0.63382
 C612 C 0.13826 1.21485 0.63804
 C613 C 0.13199 1.20481 0.65187
 H614 H 0.16314 1.21096 0.62361
 H615 H 0.12004 1.20676 0.65910
 N616 N 0.19257 1.15734 0.64457
 N617 N 0.19072 1.14347 0.65466
 C618 C 0.20333 1.13182 0.65076
 C619 C 0.21364 1.13865 0.63754
 C620 C 0.20637 1.15486 0.63395
 H621 H 0.20507 1.11942 0.65731
 H622 H 0.21066 1.16411 0.62417
 H623 H 0.17477 1.16837 0.67097
 H624 H 0.16108 1.15765 0.65384
 N625 N 1.34509 0.64356 0.30888
 N626 N 1.35776 0.65513 0.30971
 C627 C 1.36890 0.65236 0.29637
 C628 C 1.36287 0.63832 0.28662
 C629 C 1.34771 0.63309 0.29499
 H630 H 1.38036 0.66016 0.29375
 H631 H 1.33925 0.62238 0.29137
 Cu632 Cu 1.35781 0.67294 0.32792
 Cu633 Cu 1.32615 0.64287 0.32586
 Cu634 Cu 1.32618 0.67493 0.35802
 N635 N 1.35786 0.69103 0.34588
 N636 N 1.34502 0.69206 0.35722
 C637 C 1.34756 0.70601 0.36763
 C638 C 1.36300 0.71420 0.36273
 C639 C 1.36916 0.70420 0.34885
 H640 H 1.33890 0.70964 0.37818
 H641 H 1.38076 0.70652 0.34117
 N642 N 1.30830 0.65640 0.35664
 N643 N 1.30815 0.64436 0.34427
 C644 C 1.29437 0.63372 0.34683
 C645 C 1.28550 0.63923 0.36159
 C646 C 1.29471 0.65364 0.36747
 H647 H 1.29120 0.62256 0.33877
 H648 H 1.29165 0.66157 0.37875
 H649 H 1.32646 0.66914 0.33167
 H650 H 1.33941 0.65452 0.34624
 N651 N 1.34529 1.14271 0.80851
 N652 N 1.35667 1.15555 0.80806
 C653 C 1.36739 1.15321 0.79431
 C654 C 1.36247 1.13805 0.78574
 C655 C 1.34841 1.13170 0.79517
 H656 H 1.37813 1.16173 0.79092
 H657 H 1.34089 1.12006 0.79246
 Cu658 Cu 1.35624 1.17377 0.82576
 Cu659 Cu 1.32699 1.14136 0.82604
 Cu660 Cu 1.32633 1.17404 0.85758
 N661 N 1.35627 1.19188 0.84362
 N662 N 1.34453 1.19177 0.85613
 C663 C 1.34741 1.20538 0.86691
 C664 C 1.36173 1.21460 0.86079
 C665 C 1.36702 1.20563 0.84596
 H666 H 1.33960 1.20833 0.87829
 H667 H 1.37804 1.20871 0.83770
 N668 N 1.30906 1.15490 0.85674
 N669 N 1.30945 1.14235 0.84489
 C670 C 1.29624 1.13115 0.84799
 C671 C 1.28702 1.13696 0.86242
 C672 C 1.29554 1.15204 0.86762
 H673 H 1.29339 1.11972 0.84019
 H674 H 1.29226 1.16021 0.87867
 H675 H 1.32548 1.16782 0.83130
 H676 H 1.34023 1.15451 0.84539
 N677 N 0.84525 0.64237 0.80902
 N678 N 0.85726 0.65462 0.80912
 C679 C 0.86809 0.65209 0.79546
 C680 C 0.86264 0.63737 0.78642
 C681 C 0.84808 0.63156 0.79544
 H682 H 0.87920 0.66025 0.79242
 H683 H 0.83996 0.62045 0.79224
 Cu684 Cu 0.85757 0.67272 0.82705
 Cu685 Cu 0.82665 0.64159 0.82623
 Cu686 Cu 0.82587 0.67461 0.85738
 N687 N 0.85690 0.69117 0.84459
 N688 N 0.84430 0.69202 0.85622
 C689 C 0.84686 0.70602 0.86655
 C690 C 0.86195 0.71443 0.86117
 C691 C 0.86795 0.70463 0.84717
 H692 H 0.83853 0.70961 0.87739
 H693 H 0.87942 0.70721 0.83935
 N694 N 0.80834 0.65571 0.85644
 N695 N 0.80881 0.64303 0.84475
 C696 C 0.79544 0.63200 0.84775
 C697 C 0.78603 0.63805 0.86196
 C698 C 0.79460 0.65312 0.86712
 H699 H 0.79264 0.62048 0.84006
 H700 H 0.79123 0.66140 0.87806
 H701 H 0.82629 0.66815 0.83120
 H702 H 0.83966 0.65434 0.84616
 N703 N 0.84491 1.14242 0.30903
 N704 N 0.85669 1.15489 0.30893
 C705 C 0.86769 1.15223 0.29545
 C706 C 0.86248 1.13729 0.28662
 C707 C 0.84796 1.13142 0.29566
 H708 H 0.87874 1.16047 0.29239
 H709 H 0.84001 1.12014 0.29265
 Cu710 Cu 0.85647 1.17333 0.32645
 Cu711 Cu 0.82637 1.14152 0.32628
 Cu712 Cu 0.82560 1.17443 0.35756
 N713 N 0.85631 1.19137 0.34439
 N714 N 0.84399 1.19191 0.35634
 C715 C 0.84678 1.20567 0.36693
 C716 C 0.86177 1.21418 0.36143
 C717 C 0.86749 1.20469 0.34711
 H718 H 0.83867 1.20903 0.37800
 H719 H 0.87884 1.20741 0.33916
 N720 N 0.80811 1.15548 0.35659
 N721 N 0.80856 1.14284 0.34484
 C722 C 0.79516 1.13183 0.34779
 C723 C 0.78578 1.13782 0.36204
 C724 C 0.79435 1.15287 0.36725
 H725 H 0.79230 1.12038 0.34001
 H726 H 0.79095 1.16116 0.37816
 H727 H 0.82540 1.16800 0.33143
 H728 H 0.83958 1.15452 0.34593
 N729 N 0.65583 0.35635 0.30805
 N730 N 0.64267 0.34543 0.30947
 C731 C 0.63141 0.34833 0.29625
 C732 C 0.63790 0.36176 0.28583
 C733 C 0.65351 0.36643 0.29381
 H734 H 0.61956 0.34095 0.29423
 H735 H 0.66242 0.37666 0.28988
 Cu736 Cu 0.64160 0.32812 0.32819
 Cu737 Cu 0.67467 0.35711 0.32507
 Cu738 Cu 0.67577 0.32367 0.35548
 N739 N 0.64242 0.30977 0.34591
 N740 N 0.65588 0.30797 0.35639
 C741 C 0.65340 0.29397 0.36674
 C742 C 0.63740 0.28645 0.36263
 C743 C 0.63083 0.29696 0.34930
 H744 H 0.66266 0.28971 0.37651
 H745 H 0.61874 0.29526 0.34224
 N746 N 0.69298 0.34281 0.35517
 N747 N 0.69263 0.35549 0.34347
 C748 C 0.70585 0.36662 0.34671
 C749 C 0.71493 0.36075 0.36121
 C750 C 0.70635 0.34563 0.36626
 H751 H 0.70847 0.37836 0.33929
 H752 H 0.70965 0.33727 0.37718
 H753 H 0.67331 0.33082 0.32909
 H754 H 0.66211 0.34494 0.34566
 N755 N 0.65584 0.85697 0.80879
 N756 N 0.64318 0.84538 0.80955
 C757 C 0.63203 0.84825 0.79624
 C758 C 0.63807 0.86235 0.78660
 C759 C 0.65321 0.86754 0.79497
 H760 H 0.62054 0.84051 0.79356
 H761 H 0.66158 0.87837 0.79146
 Cu762 Cu 0.64302 0.82737 0.82753
 Cu763 Cu 0.67455 0.85775 0.82598
 Cu764 Cu 0.67402 0.82612 0.85847
 N765 N 0.64285 0.80958 0.84575
 N766 N 0.65520 0.80905 0.85767
 C767 C 0.65241 0.79533 0.86833
 C768 C 0.63748 0.78674 0.86283
 C769 C 0.63175 0.79619 0.84846
 H770 H 0.66057 0.79199 0.87937
 H771 H 0.62052 0.79332 0.84040
 N772 N 0.69198 0.84453 0.85709
 N773 N 0.69231 0.85643 0.84459
 C774 C 0.70605 0.86709 0.84723
 C775 C 0.71477 0.86170 0.86214
 C776 C 0.70545 0.84737 0.86804
 H777 H 0.70929 0.87820 0.83910
 H778 H 0.70835 0.83952 0.87943
 H779 H 0.67431 0.83138 0.83192
 H780 H 0.66089 0.84609 0.84601
 N781 N 0.15543 0.35658 0.80875
 N782 N 0.14268 0.34514 0.80968
 C783 C 0.13146 0.34801 0.79640
 C784 C 0.13757 0.36199 0.78661
 C785 C 0.15283 0.36707 0.79487
 H786 H 0.11994 0.34030 0.79378
 H787 H 0.16135 0.37771 0.79116
 Cu788 Cu 0.14253 0.32708 0.82765
 Cu789 Cu 0.17436 0.35719 0.82570
 Cu790 Cu 0.17446 0.32504 0.85766
 N791 N 0.14266 0.30913 0.84576
 N792 N 0.15561 0.30797 0.85694
 C793 C 0.15310 0.29400 0.86734
 C794 C 0.13755 0.28592 0.86260
 C795 C 0.13130 0.29601 0.84882
 H796 H 0.16183 0.29031 0.87780
 H797 H 0.11962 0.29373 0.84123
 N798 N 0.19233 0.34352 0.85628
 N799 N 0.19239 0.35568 0.84403
 C800 C 0.20606 0.36642 0.84670
 C801 C 0.21500 0.36083 0.86141
 C802 C 0.20590 0.34628 0.86713
 H803 H 0.20907 0.37773 0.83878
 H804 H 0.20896 0.33827 0.87837
 H805 H 0.17388 0.33084 0.83131
 H806 H 0.16096 0.34540 0.84604
 N807 N 0.15536 0.85663 0.30897
 N808 N 0.14395 0.84381 0.30853
 C809 C 0.13329 0.84619 0.29471
 C810 C 0.13822 0.86137 0.28614
 C811 C 0.15227 0.86766 0.29563
 H812 H 0.12250 0.83775 0.29132
 H813 H 0.15979 0.87932 0.29298
 Cu814 Cu 0.14394 0.82556 0.32635
 Cu815 Cu 0.17346 0.85801 0.32667
 Cu816 Cu 0.17381 0.82575 0.35846
 N817 N 0.14429 0.80752 0.34438
 N818 N 0.15575 0.80795 0.35715
 C819 C 0.15270 0.79458 0.36817
 C820 C 0.13861 0.78498 0.36192
 C821 C 0.13369 0.79366 0.34671
 H822 H 0.16036 0.79205 0.37975
 H823 H 0.12295 0.79042 0.33817
 N824 N 0.19108 0.84482 0.35761
 N825 N 0.19081 0.85721 0.34560
 C826 C 0.20414 0.86830 0.34852
 C827 C 0.21333 0.86258 0.36302
 C828 C 0.20465 0.84766 0.36843
 H829 H 0.20711 0.87957 0.34053
 H830 H 0.20788 0.83957 0.37956
 H831 H 0.17443 0.83151 0.33201
 H832 H 0.15949 0.84508 0.34595
 O833 O 0.98296 0.93740 0.91250
 O834 O 0.98299 0.91702 0.89209
 C835 C 0.97687 0.93114 0.89837
 C836 C 0.96215 0.94007 0.88950
 C837 C 0.95501 0.93313 0.87407
 H838 H 0.96076 0.92159 0.86820
 O839 O 1.01735 1.06301 0.91217
 O840 O 1.01731 1.08345 0.89182
 C841 C 1.02331 1.06924 0.89798
 C842 C 1.03789 1.06027 0.88898
 C843 C 1.04476 1.06706 0.87337
 H844 H 1.03840 1.07813 0.86727
 O845 O 0.91324 0.98331 0.93706
 O846 O 0.89277 0.98332 0.91679
 C847 C 0.89907 0.97727 0.93093
 C848 C 0.89018 0.96259 0.93993
 C849 C 0.87455 0.95574 0.93321
 H850 H 0.86842 0.96206 0.92214
 O851 O 1.08720 1.01714 0.93650
 O852 O 1.10770 1.01705 0.91626
 C853 C 1.10144 1.02309 0.93040
 C854 C 1.11048 1.03758 0.93953
 C855 C 1.12600 1.04465 0.93275
 H856 H 1.13153 1.03917 0.92093
 O857 O 0.93760 0.91274 0.98259
 O858 O 0.91732 0.89229 0.98249
 C859 C 0.93145 0.89857 0.97649
 C860 C 0.94046 0.88968 0.96182
 C861 C 0.93367 0.87414 0.95480
 H862 H 0.92244 0.86810 0.96092
 O863 O 1.06343 1.08674 0.98262
 O864 O 1.08378 1.10713 0.98271
 C865 C 1.06966 1.10093 0.97661
 C866 C 1.06070 1.10991 0.96196
 C867 C 1.06745 1.12553 0.95502
 H868 H 1.07889 1.13148 0.96084
 O869 O 0.93693 1.01746 0.91289
 O870 O 0.91650 1.01748 0.89258
 C871 C 0.93068 1.02350 0.89874
 C872 C 0.93973 1.03803 0.88967
 C873 C 0.93287 1.04509 0.87416
 H874 H 0.92104 1.03960 0.86870
 O875 O 1.06319 0.98324 0.91233
 O876 O 1.08366 0.98315 0.89205
 C877 C 1.06944 0.97719 0.89818
 C878 C 1.06040 0.96269 0.88911
 C879 C 1.06733 0.95560 0.87366
 H880 H 1.07896 0.96125 0.86791
 O881 O 1.01736 0.91372 0.93635
 O882 O 1.01748 0.89334 0.91596
 C883 C 1.02348 0.89958 0.93015
 C884 C 1.03801 0.89057 0.93926
 C885 C 1.04515 0.87508 0.93239
 H886 H 1.03975 0.86963 0.92051
 O887 O 0.98348 1.08693 0.93644
 O888 O 0.98347 1.10740 0.91611
 C889 C 0.97747 1.10115 0.93028
 C890 C 0.96289 1.11013 0.93929
 C891 C 0.95595 1.12571 0.93246
 H892 H 0.96207 1.13170 0.92118
 O893 O 0.91325 1.06336 0.98293
 O894 O 0.89299 1.08387 0.98299
 C895 C 0.89905 1.06960 0.97700
 C896 C 0.88991 1.06057 0.96251
 C897 C 0.87424 1.06731 0.95576
 H898 H 0.86822 1.07845 0.96209
 O899 O 1.08687 0.93704 0.98313
 O900 O 1.10717 0.91659 0.98304
 C901 C 1.10099 0.93081 0.97704
 C902 C 1.10996 0.93981 0.96239
 C903 C 1.12564 0.93312 0.95560
 H904 H 1.13174 0.92204 0.96195
 O905 O 0.98328 1.06303 0.91248
 O906 O 0.98322 1.08347 0.89212
 C907 C 0.97720 1.06929 0.89834
 C908 C 0.96255 1.06033 0.88942
 C909 C 0.95565 1.06705 0.87378
 H910 H 0.96188 1.07820 0.86768
 O911 O 1.01709 0.93737 0.91205
 O912 O 1.01714 0.91702 0.89162
 C913 C 1.02309 0.93123 0.89782
 C914 C 1.03759 0.94033 0.88880
 C915 C 1.04458 0.93359 0.87319
 H916 H 1.03884 0.92208 0.86726
 O917 O 1.08682 0.98292 0.93650
 O918 O 1.10733 0.98282 0.91627
 C919 C 1.10096 0.97677 0.93038
 C920 C 1.10984 0.96211 0.93947
 C921 C 1.12533 0.95498 0.93267
 H922 H 1.13081 0.96043 0.92082
 O923 O 0.91300 1.01754 0.93675
 O924 O 0.89253 1.01755 0.91648
 C925 C 0.89883 1.02362 0.93059
 C926 C 0.88991 1.03824 0.93967
 C927 C 0.87443 1.04541 0.93287
 H928 H 0.86893 1.03999 0.92102
 O929 O 0.93737 1.08707 0.98254
 O930 O 0.91715 1.10760 0.98253
 C931 C 0.93121 1.10124 0.97642
 C932 C 0.94019 1.11012 0.96173
 C933 C 0.93333 1.12560 0.95457
 H934 H 0.92156 1.13118 0.96009
 O935 O 1.06287 0.91323 0.98316
 O936 O 1.08315 0.89274 0.98308
 C937 C 1.06903 0.89906 0.97705
 C938 C 1.06010 0.89022 0.96231
 C939 C 1.06687 0.87461 0.95539
 H940 H 1.07795 0.86848 0.96169
 O941 O 1.06349 1.01741 0.91239
 O942 O 1.08396 1.01736 0.89212
 C943 C 1.06981 1.02347 0.89827
 C944 C 1.06084 1.03810 0.88925
 C945 C 1.06778 1.04533 0.87384
 H946 H 1.07971 1.03998 0.86848
 O947 O 0.93677 0.98331 0.91270
 O948 O 0.91634 0.98329 0.89239
 C949 C 0.93054 0.97728 0.89853
 C950 C 0.93958 0.96273 0.88946
 C951 C 0.93279 0.95571 0.87389
 H952 H 0.92121 0.96139 0.86805
 O953 O 1.01764 1.08670 0.93629
 O954 O 1.01764 1.10718 0.91596
 C955 C 1.02373 1.10085 0.93008
 C956 C 1.03839 1.10973 0.93907
 C957 C 1.04552 1.12517 0.93217
 H958 H 1.03990 1.13101 0.92055
 O959 O 0.98324 0.91318 0.93612
 O960 O 0.98334 0.89277 0.91575
 C961 C 0.97729 0.89896 0.92993
 C962 C 0.96279 0.88988 0.93899
 C963 C 0.95567 0.87443 0.93205
 H964 H 0.96113 0.86894 0.92020
 O965 O 1.08729 1.06273 0.98283
 O966 O 1.10767 1.08309 0.98294
 C967 C 1.10150 1.06891 0.97690
 C968 C 1.11056 1.05990 0.96236
 C969 C 1.12621 1.06663 0.95555
 H970 H 1.13222 1.07780 0.96181
 O971 O 0.91364 0.93663 0.98268
 O972 O 0.89333 0.91621 0.98259
 C973 C 0.89951 0.93042 0.97660
 C974 C 0.89049 0.93956 0.96209
 C975 C 0.87502 0.93271 0.95497
 H976 H 0.86959 0.92080 0.96036
 Cu977 Cu 1.00016 0.92747 0.92629
 Cu978 Cu 1.00027 0.90300 0.90181
 Cu979 Cu 1.00044 1.07287 0.92638
 Cu980 Cu 1.00040 1.09745 0.90197
 Cu981 Cu 0.92703 1.00040 0.92689
 Cu982 Cu 0.90247 1.00040 0.90254
 Cu983 Cu 1.07311 1.00020 0.92646
 Cu984 Cu 1.09772 1.00008 0.90216
 C985 C 0.95441 0.95494 0.89702
 H986 H 0.95960 0.96014 0.90912
 C987 C 0.94035 0.94084 0.86621
 C988 C 1.04585 1.04563 0.89666
 H989 H 1.04069 1.04043 0.90877
 C990 C 1.05983 1.05984 0.86574
 C991 C 0.89792 0.95455 0.95451
 H992 H 0.91009 0.95964 0.95963
 C993 C 0.86693 0.94067 0.94049
 C994 C 1.10294 1.04522 0.95441
 H995 H 1.09077 1.04009 0.95949
 C996 C 1.13402 1.05921 0.94064
 C997 C 0.95516 0.89732 0.95396
 H998 H 0.96034 0.90943 0.95917
 C999 C 0.94107 0.86645 0.93983
 C1000 C 1.04603 1.10223 0.95401
 H1001 H 1.04087 1.09009 0.95916
 C1002 C 1.06002 1.13312 0.94006
 C1003 C 0.95463 1.04567 0.89713
 H1004 H 0.95977 1.04053 0.90929
 C1005 C 0.94072 1.05963 0.86606
 C1006 C 1.04545 0.95504 0.89651
 H1007 H 1.04028 0.96017 0.90865
 C1008 C 1.05952 0.94107 0.86564
 C1009 C 1.04556 0.89799 0.95427
 H1010 H 1.04042 0.91016 0.95940
 C1011 C 1.05965 0.86700 0.94030
 C1012 C 0.95504 1.10254 0.95405
 H1013 H 0.96018 1.09041 0.95925
 C1014 C 0.94107 1.13350 0.93989
 C1015 C 0.89749 1.04588 0.95454
 H1016 H 0.90966 1.04071 0.95958
 C1017 C 0.86643 1.05997 0.94081
 C1018 C 1.10229 0.95445 0.95437
 H1019 H 1.09011 0.95959 0.95943
 C1020 C 1.13339 0.94046 0.94061
 O1021 O 1.01670 0.93695 1.08766
 O1022 O 1.01661 0.91656 1.10807
 C1023 C 1.02266 0.93073 1.10187
 C1024 C 1.03728 0.93966 1.11083
 C1025 C 1.04422 0.93278 1.12638
 H1026 H 1.03806 0.92155 1.13239
 O1027 O 0.98335 1.06253 1.08711
 O1028 O 0.98339 1.08289 1.10754
 C1029 C 0.97735 1.06871 1.10131
 C1030 C 0.96269 1.05976 1.11026
 C1031 C 0.95590 1.06644 1.12596
 H1032 H 0.96237 1.07737 1.13220
 O1033 O 0.91294 1.01704 1.06265
 O1034 O 0.89244 1.01706 1.08290
 C1035 C 0.89875 1.02309 1.06877
 C1036 C 0.88992 1.03780 1.05980
 C1037 C 0.87431 1.04473 1.06651
 H1038 H 0.86811 1.03840 1.07754
 O1039 O 1.08714 0.98253 1.06350
 O1040 O 1.10755 0.98251 1.08383
 C1041 C 1.10133 0.97650 1.06966
 C1042 C 1.11032 0.96197 1.06056
 C1043 C 1.12582 0.95484 1.06736
 H1044 H 1.13135 0.96030 1.07918
 O1045 O 1.06304 0.91306 1.01739
 O1046 O 1.08330 0.89257 1.01731
 C1047 C 1.06919 0.89884 1.02340
 C1048 C 1.06020 0.88990 1.03806
 C1049 C 1.06695 0.87430 1.04507
 H1050 H 1.07843 0.86834 1.03930
 O1051 O 0.93761 1.08734 1.01676
 O1052 O 0.91742 1.10791 1.01675
 C1053 C 0.93155 1.10159 1.02276
 C1054 C 0.94058 1.11047 1.03741
 C1055 C 0.93392 1.12613 1.04432
 H1056 H 0.92293 1.13236 1.03796
 O1057 O 0.93674 0.98301 1.08691
 O1058 O 0.91629 0.98310 1.10721
 C1059 C 0.93049 0.97706 1.10110
 C1060 C 0.93946 0.96251 1.11020
 C1061 C 0.93266 0.95570 1.12584
 H1062 H 0.92153 0.96202 1.13184
 O1063 O 1.06311 1.01648 1.08754
 O1064 O 1.08347 1.01645 1.10794
 C1065 C 1.06929 1.02246 1.10175
 C1066 C 1.06030 1.03705 1.11075
 C1067 C 1.06711 1.04399 1.12632
 H1068 H 1.07828 1.03776 1.13237
 O1069 O 0.98297 0.91286 1.06343
 O1070 O 0.98288 0.89243 1.08379
 C1071 C 0.97696 0.89864 1.06957
 C1072 C 0.96256 0.88958 1.06037
 C1073 C 0.95543 0.87408 1.06719
 H1074 H 0.96080 0.86858 1.07908
 O1075 O 1.01741 1.08652 1.06308
 O1076 O 1.01742 1.10694 1.08344
 C1077 C 1.02344 1.10070 1.06927
 C1078 C 1.03797 1.10973 1.06019
 C1079 C 1.04503 1.12526 1.06702
 H1080 H 1.03953 1.13078 1.07884
 O1081 O 0.91352 0.93637 1.01691
 O1082 O 0.89321 0.91594 1.01684
 C1083 C 0.89938 0.93010 1.02295
 C1084 C 0.89038 0.93912 1.03757
 C1085 C 0.87497 0.93219 1.04478
 H1086 H 0.86952 0.92031 1.03934
 O1087 O 1.08701 1.06273 1.01703
 O1088 O 1.10740 1.08308 1.01711
 C1089 C 1.10113 1.06892 1.02314
 C1090 C 1.11001 1.05993 1.03785
 C1091 C 1.12563 1.06665 1.04475
 H1092 H 1.13173 1.07777 1.03848
 O1093 O 1.01750 1.06280 1.08729
 O1094 O 1.01752 1.08321 1.10766
 C1095 C 1.02354 1.06903 1.10147
 C1096 C 1.03808 1.05996 1.11053
 C1097 C 1.04524 1.06688 1.12598
 H1098 H 1.03983 1.07875 1.13145
 O1099 O 0.98257 0.93687 1.08727
 O1100 O 0.98245 0.91648 1.10767
 C1101 C 0.97641 0.93063 1.10138
 C1102 C 0.96175 0.93966 1.11024
 C1103 C 0.95453 0.93281 1.12569
 H1104 H 0.95995 0.92095 1.13120
 O1105 O 1.08684 1.01676 1.06349
 O1106 O 1.10723 1.01677 1.08383
 C1107 C 1.10095 1.02287 1.06971
 C1108 C 1.10985 1.03756 1.06070
 C1109 C 1.12530 1.04469 1.06759
 H1110 H 1.13078 1.03920 1.07942
 O1111 O 0.91316 0.98282 1.06265
 O1112 O 0.89268 0.98286 1.08291
 C1113 C 0.89900 0.97677 1.06880
 C1114 C 0.89015 0.96204 1.05985
 C1115 C 0.87461 0.95509 1.06666
 H1116 H 0.86855 0.96135 1.07781
 O1117 O 1.06317 1.08673 1.01677
 O1118 O 1.08354 1.10711 1.01687
 C1119 C 1.06934 1.10091 1.02282
 C1120 C 1.06029 1.10990 1.03738
 C1121 C 1.06698 1.12556 1.04423
 H1122 H 1.07812 1.13163 1.03798
 O1123 O 0.93765 0.91265 1.01678
 O1124 O 0.91737 0.89218 1.01667
 C1125 C 0.93149 0.89842 1.02274
 C1126 C 0.94044 0.88942 1.03737
 C1127 C 0.93366 0.87379 1.04423
 H1128 H 0.92254 0.86774 1.03795
 O1129 O 1.06316 0.98237 1.08737
 O1130 O 1.08353 0.98232 1.10774
 C1131 C 1.06935 0.97633 1.10155
 C1132 C 1.06022 0.96184 1.11062
 C1133 C 1.06704 0.95471 1.12612
 H1134 H 1.07886 0.96014 1.13166
 O1135 O 0.93672 1.01717 1.08667
 O1136 O 0.91624 1.01728 1.10695
 C1137 C 0.93044 1.02328 1.10078
 C1138 C 0.93952 1.03781 1.10983
 C1139 C 0.93264 1.04500 1.12528
 H1140 H 0.92063 1.03975 1.13059
 O1141 O 0.98323 1.08669 1.06333
 O1142 O 0.98324 1.10707 1.08373
 C1143 C 0.97718 1.10087 1.06956
 C1144 C 0.96265 1.10996 1.06049
 C1145 C 0.95552 1.12542 1.06745
 H1146 H 0.96086 1.13073 1.07942
 O1147 O 1.01708 0.91321 1.06363
 O1148 O 1.01703 0.89277 1.08399
 C1149 C 1.02316 0.89907 1.06988
 C1150 C 1.03786 0.89016 1.06094
 C1151 C 1.04501 0.87475 1.06791
 H1152 H 1.03939 0.86896 1.07956
 O1153 O 1.08704 0.93692 1.01729
 O1154 O 1.10734 0.91646 1.01718
 C1155 C 1.10122 0.93066 1.02323
 C1156 C 1.11032 0.93964 1.03776
 C1157 C 1.12596 0.93287 1.04454
 H1158 H 1.13195 0.92169 1.03826
 O1159 O 0.91356 1.06357 1.01709
 O1160 O 0.89334 1.08411 1.01713
 C1161 C 0.89947 1.06990 1.02318
 C1162 C 0.89041 1.06088 1.03773
 C1163 C 0.87497 1.06783 1.04484
 H1164 H 0.86962 1.07978 1.03946
 Cu1165 Cu 0.99982 0.92702 1.07346
 Cu1166 Cu 0.99972 0.90251 1.09793
 Cu1167 Cu 1.00037 1.07259 1.07316
 Cu1168 Cu 1.00039 1.09706 1.09761
 Cu1169 Cu 0.92762 0.92665 0.99975
 Cu1170 Cu 0.90328 0.90210 0.99963
 Cu1171 Cu 1.07291 0.92711 1.00027
 Cu1172 Cu 1.09726 0.90252 1.00014
 Cu1173 Cu 0.92748 1.07328 0.99982
 Cu1174 Cu 0.90321 1.09794 0.99985
 Cu1175 Cu 1.07318 1.07269 0.99979
 Cu1176 Cu 1.09765 1.09714 0.99992
 Cu1177 Cu 0.92694 1.00001 1.07269
 Cu1178 Cu 0.90234 1.00007 1.09701
 Cu1179 Cu 1.07303 0.99952 1.07341
 Cu1180 Cu 1.09750 0.99950 1.09786
 C1181 C 1.04525 0.95431 1.10317
 H1182 H 1.04011 0.95952 1.09104
 C1183 C 1.05919 0.94011 1.13408
 C1184 C 0.95458 1.04527 1.10246
 H1185 H 0.95967 1.04012 1.09028
 C1186 C 0.94073 1.05932 1.13351
 C1187 C 0.89773 1.04583 1.04527
 H1188 H 0.90987 1.04065 1.04015
 C1189 C 0.86678 1.05987 1.05927
 C1190 C 1.10275 0.95434 1.04570
 H1191 H 1.09058 0.95949 1.04065
 C1192 C 1.13377 0.94024 1.05947
 C1193 C 1.04550 0.89759 1.04596
 H1194 H 1.04032 0.90970 1.04075
 C1195 C 1.05951 0.86675 1.06004
 C1196 C 0.95511 1.10263 1.04544
 H1197 H 0.96021 1.09047 1.04027
 C1198 C 0.94111 1.13364 1.05949
 C1199 C 0.95415 0.95455 1.10265
 H1200 H 0.95936 0.95965 1.09050
 C1201 C 0.93996 0.94071 1.13364
 C1202 C 1.04564 1.04498 1.10309
 H1203 H 1.04046 1.03981 1.09097
 C1204 C 1.05982 1.05902 1.13400
 C1205 C 0.95503 0.89708 1.04539
 H1206 H 0.96018 0.90926 1.04031
 C1207 C 0.94093 0.86608 1.05925
 C1208 C 1.04565 1.10221 1.04531
 H1209 H 1.04058 1.09000 1.04022
 C1210 C 1.05958 1.13330 1.05917
 C1211 C 0.89781 0.95410 1.04517
 H1212 H 0.90989 0.95929 1.03996
 C1213 C 0.86697 0.94004 1.05938
 C1214 C 1.10234 1.04525 1.04580
 H1215 H 1.09019 1.04012 1.04067
 C1216 C 1.13333 1.05927 1.05974
 O1217 O 0.98323 0.43708 0.41242
 O1218 O 0.98338 0.41672 0.39200
 C1219 C 0.97727 0.43086 0.39823
 C1220 C 0.96257 0.43976 0.38933
 C1221 C 0.95574 0.43304 0.37367
 H1222 H 0.96216 0.42206 0.36747
 O1223 O 1.01709 0.56307 0.41269
 O1224 O 1.01695 0.58343 0.39226
 C1225 C 1.02306 0.56928 0.39848
 C1226 C 1.03773 0.56038 0.38950
 C1227 C 1.04458 0.56723 0.37389
 H1228 H 1.03822 0.57831 0.36781
 O1229 O 0.91295 0.48260 0.43712
 O1230 O 0.89255 0.48265 0.41677
 C1231 C 0.89876 0.47661 0.43095
 C1232 C 0.88981 0.46196 0.43995
 C1233 C 0.87420 0.45505 0.43321
 H1234 H 0.86807 0.46137 0.42214
 O1235 O 1.08757 0.51688 0.43644
 O1236 O 1.10789 0.51687 0.41601
 C1237 C 1.10176 0.52284 0.43025
 C1238 C 1.11082 0.53734 0.43933
 C1239 C 1.12638 0.54428 0.43254
 H1240 H 1.13236 0.53817 0.42126
 O1241 O 0.93754 0.41249 0.48256
 O1242 O 0.91740 0.39189 0.48265
 C1243 C 0.93146 0.39825 0.47655
 C1244 C 0.94043 0.38939 0.46186
 C1245 C 0.93365 0.37384 0.45484
 H1246 H 0.92247 0.36776 0.46100
 O1247 O 1.06359 0.58664 0.48241
 O1248 O 1.08383 0.60714 0.48247
 C1249 C 1.06973 0.60086 0.47638
 C1250 C 1.06066 0.60984 0.46178
 C1251 C 1.06752 0.62529 0.45458
 H1252 H 1.07941 0.63072 0.45997
 O1253 O 0.93708 0.51653 0.41303
 O1254 O 0.91674 0.51656 0.39262
 C1255 C 0.93093 0.52255 0.39883
 C1256 C 0.93995 0.53715 0.38983
 C1257 C 0.93322 0.54399 0.37417
 H1258 H 0.92213 0.53769 0.36808
 O1259 O 1.06329 0.48319 0.41226
 O1260 O 1.08355 0.48322 0.39177
 C1261 C 1.06938 0.47724 0.39800
 C1262 C 1.06030 0.46271 0.38900
 C1263 C 1.06703 0.45574 0.37339
 H1264 H 1.07849 0.46153 0.36745
 O1265 O 1.01724 0.41329 0.43664
 O1266 O 1.01736 0.39285 0.41629
 C1267 C 1.02329 0.39910 0.43050
 C1268 C 1.03785 0.39013 0.43958
 C1269 C 1.04465 0.37442 0.43294
 H1270 H 1.03833 0.36826 0.42188
 O1271 O 0.98302 0.58707 0.43677
 O1272 O 0.98298 0.60745 0.41636
 C1273 C 0.97700 0.60127 0.43056
 C1274 C 0.96243 0.61031 0.43955
 C1275 C 0.95554 0.62591 0.43273
 H1276 H 0.96172 0.63192 0.42150
 O1277 O 0.91304 0.56314 0.48275
 O1278 O 0.89265 0.58352 0.48274
 C1279 C 0.89885 0.56931 0.47674
 C1280 C 0.88986 0.56021 0.46218
 C1281 C 0.87429 0.56696 0.45517
 H1282 H 0.86837 0.57848 0.46090
 O1283 O 1.08764 0.43717 0.48272
 O1284 O 1.10797 0.41674 0.48275
 C1285 C 1.10180 0.43093 0.47670
 C1286 C 1.11071 0.43988 0.46200
 C1287 C 1.12636 0.43319 0.45514
 H1288 H 1.13256 0.42220 0.46156
 O1289 O 0.98290 0.56294 0.41301
 O1290 O 0.98278 0.58331 0.39259
 C1291 C 0.97677 0.56915 0.39887
 C1292 C 0.96217 0.56007 0.38995
 C1293 C 0.95502 0.56693 0.37448
 H1294 H 0.96040 0.57881 0.36899
 O1295 O 1.01737 0.43700 0.41245
 O1296 O 1.01751 0.41658 0.39208
 C1297 C 1.02348 0.43077 0.39831
 C1298 C 1.03804 0.43981 0.38933
 C1299 C 1.04515 0.43287 0.37388
 H1300 H 1.03955 0.42120 0.36813
 O1301 O 1.08721 0.48271 0.43618
 O1302 O 1.10751 0.48268 0.41573
 C1303 C 1.10130 0.47660 0.42989
 C1304 C 1.11029 0.46198 0.43892
 C1305 C 1.12573 0.45483 0.43201
 H1306 H 1.13105 0.46021 0.42005
 O1307 O 0.91305 0.51685 0.43680
 O1308 O 0.89268 0.51688 0.41642
 C1309 C 0.89895 0.52298 0.43054
 C1310 C 0.89006 0.53771 0.43945
 C1311 C 0.87466 0.54484 0.43248
 H1312 H 0.86887 0.53912 0.42089
 O1313 O 0.93684 0.58716 0.48259
 O1314 O 0.91651 0.60758 0.48256
 C1315 C 0.93064 0.60132 0.47651
 C1316 C 0.93966 0.61028 0.46191
 C1317 C 0.93281 0.62577 0.45475
 H1318 H 0.92101 0.63132 0.46021
 O1319 O 1.06355 0.41347 0.48256
 O1320 O 1.08384 0.39301 0.48255
 C1321 C 1.06974 0.39931 0.47647
 C1322 C 1.06071 0.39035 0.46186
 C1323 C 1.06755 0.37484 0.45476
 H1324 H 1.07941 0.36938 0.46019
 O1325 O 1.06358 0.51738 0.41263
 O1326 O 1.08387 0.51745 0.39216
 C1327 C 1.06978 0.52354 0.39850
 C1328 C 1.06075 0.53824 0.38964
 C1329 C 1.06764 0.54554 0.37425
 H1330 H 1.07957 0.54023 0.36883
 O1331 O 0.93663 0.48236 0.41295
 O1332 O 0.91626 0.48237 0.39258
 C1333 C 0.93040 0.47630 0.39879
 C1334 C 0.93945 0.46176 0.38975
 C1335 C 0.93257 0.45460 0.37429
 H1336 H 0.92061 0.45992 0.36894
 O1337 O 1.01713 0.58685 0.43681
 O1338 O 1.01707 0.60724 0.41640
 C1339 C 1.02313 0.60103 0.43058
 C1340 C 1.03776 0.61000 0.43955
 C1341 C 1.04458 0.62565 0.43278
 H1342 H 1.03823 0.63173 0.42170
 O1343 O 0.98314 0.41297 0.43616
 O1344 O 0.98327 0.39257 0.41577
 C1345 C 0.97717 0.39878 0.42992
 C1346 C 0.96265 0.38971 0.43895
 C1347 C 0.95554 0.37427 0.43198
 H1348 H 0.96096 0.36883 0.42009
 O1349 O 1.08756 0.56277 0.48237
 O1350 O 1.10783 0.58324 0.48243
 C1351 C 1.10169 0.56905 0.47636
 C1352 C 1.11073 0.56005 0.46178
 C1353 C 1.12619 0.56694 0.45468
 H1354 H 1.13171 0.57874 0.46020
 O1355 O 0.91341 0.43618 0.48260
 O1356 O 0.89324 0.41562 0.48265
 C1357 C 0.89930 0.42986 0.47660
 C1358 C 0.89018 0.43891 0.46209
 C1359 C 0.87475 0.43198 0.45494
 H1360 H 0.86940 0.42002 0.46031
 Cu1361 Cu 1.00022 0.42715 0.42645
 Cu1362 Cu 1.00041 0.40264 0.40199
 Cu1363 Cu 1.00004 0.57293 0.42685
 Cu1364 Cu 0.99994 0.59739 0.40235
 Cu1365 Cu 0.92696 0.49956 0.42703
 Cu1366 Cu 0.90251 0.49962 0.40257
 Cu1367 Cu 1.07337 0.50004 0.42642
 Cu1368 Cu 1.09774 0.50005 0.40186
 C1369 C 0.95448 0.45427 0.39713
 H1370 H 0.95957 0.45940 0.40930
 C1371 C 0.94061 0.44022 0.36611
 C1372 C 1.04576 0.54573 0.39712
 H1373 H 1.04063 0.54046 0.40923
 C1374 C 1.05966 0.56005 0.36620
 C1375 C 0.89752 0.45396 0.45455
 H1376 H 0.90963 0.45913 0.45972
 C1377 C 0.86660 0.43995 0.44048
 C1378 C 1.10324 0.54517 0.45409
 H1379 H 1.09112 0.54001 0.45925
 C1380 C 1.13413 0.55917 0.44001
 C1381 C 0.95507 0.39709 0.45395
 H1382 H 0.96026 0.40919 0.45918
 C1383 C 0.94099 0.36623 0.43981
 C1384 C 1.04574 0.60234 0.45420
 H1385 H 1.04064 0.59019 0.45939
 C1386 C 1.05960 0.63335 0.44004
 C1387 C 0.95457 0.54514 0.39749
 H1388 H 0.95971 0.54006 0.40968
 C1389 C 0.94052 0.55900 0.36645
 C1390 C 1.04565 0.45479 0.39673
 H1391 H 1.04052 0.45995 0.40888
 C1392 C 1.05963 0.44074 0.36585
 C1393 C 1.04582 0.39787 0.45420
 H1394 H 1.04075 0.41007 0.45928
 C1395 C 1.05964 0.36673 0.44027
 C1396 C 0.95455 0.60273 0.45428
 H1397 H 0.95968 0.59060 0.45950
 C1398 C 0.94064 0.63371 0.44012
 C1399 C 0.89751 0.54544 0.45436
 H1400 H 0.90962 0.54028 0.45955
 C1401 C 0.86671 0.55944 0.44024
 C1402 C 1.10292 0.45442 0.45394
 H1403 H 1.09078 0.45955 0.45907
 C1404 C 1.13393 0.44042 0.44000
 O1405 O 1.01747 0.43714 0.58739
 O1406 O 1.01748 0.41672 0.60778
 C1407 C 1.02349 0.43091 0.60157
 C1408 C 1.03803 0.43992 0.61058
 C1409 C 1.04514 0.43297 0.62601
 H1410 H 1.03947 0.42135 0.63180
 O1411 O 0.98296 0.56259 0.58671
 O1412 O 0.98291 0.58300 0.60708
 C1413 C 0.97689 0.56881 0.60086
 C1414 C 0.96224 0.55984 0.60979
 C1415 C 0.95535 0.56662 0.62540
 H1416 H 0.96162 0.57774 0.63148
 O1417 O 0.91278 0.51684 0.56246
 O1418 O 0.89235 0.51679 0.58278
 C1419 C 0.89859 0.52285 0.56864
 C1420 C 0.88967 0.53751 0.55969
 C1421 C 0.87407 0.54439 0.56647
 H1422 H 0.86798 0.53808 0.57757
 O1423 O 1.08714 0.48287 0.56340
 O1424 O 1.10753 0.48290 0.58375
 C1425 C 1.10129 0.47680 0.56961
 C1426 C 1.11026 0.46218 0.56058
 C1427 C 1.12572 0.45503 0.56745
 H1428 H 1.13123 0.46050 0.57928
 O1429 O 1.06348 0.41330 0.51678
 O1430 O 1.08374 0.39281 0.51678
 C1431 C 1.06960 0.39908 0.52281
 C1432 C 1.06058 0.39013 0.53745
 C1433 C 1.06730 0.37448 0.54434
 H1434 H 1.07840 0.36839 0.53807
 O1435 O 0.93709 0.58716 0.51676
 O1436 O 0.91679 0.60762 0.51678
 C1437 C 0.93095 0.60138 0.52278
 C1438 C 0.94003 0.61035 0.53736
 C1439 C 0.93332 0.62596 0.54437
 H1440 H 0.92184 0.63192 0.53862
 O1441 O 0.93662 0.48272 0.58652
 O1442 O 0.91622 0.48266 0.60686
 C1443 C 0.93040 0.47666 0.60068
 C1444 C 0.93949 0.46214 0.60973
 C1445 C 0.93259 0.45500 0.62519
 H1446 H 0.92065 0.46036 0.63054
 O1447 O 1.06339 0.51728 0.58714
 O1448 O 1.08374 0.51737 0.60753
 C1449 C 1.06960 0.52340 0.60127
 C1450 C 1.06054 0.53800 0.61022
 C1451 C 1.06733 0.54513 0.62572
 H1452 H 1.07916 0.53970 0.63124
 O1453 O 0.98349 0.41314 0.56334
 O1454 O 0.98348 0.39273 0.58372
 C1455 C 0.97748 0.39894 0.56954
 C1456 C 0.96299 0.38989 0.56045
 C1457 C 0.95584 0.37444 0.56740
 H1458 H 0.96124 0.36897 0.57928
 O1459 O 1.01710 0.58653 0.56279
 O1460 O 1.01709 0.60699 0.58311
 C1461 C 1.02313 0.60072 0.56895
 C1462 C 1.03776 0.60966 0.55991
 C1463 C 1.04479 0.62522 0.56671
 H1464 H 1.03908 0.63112 0.57825
 O1465 O 0.91345 0.43616 0.51678
 O1466 O 0.89326 0.41561 0.51687
 C1467 C 0.89936 0.42985 0.52286
 C1468 C 0.89030 0.43891 0.53739
 C1469 C 0.87487 0.43199 0.54453
 H1470 H 0.86947 0.42008 0.53913
 O1471 O 1.08755 0.56262 0.51654
 O1472 O 1.10784 0.58307 0.51659
 C1473 C 1.10169 0.56885 0.52259
 C1474 C 1.11068 0.55985 0.53722
 C1475 C 1.12633 0.56658 0.54404
 H1476 H 1.13243 0.57764 0.53768
 O1477 O 1.01708 0.56293 0.58709
 O1478 O 1.01701 0.58336 0.60744
 C1479 C 1.02306 0.56918 0.60128
 C1480 C 1.03766 0.56024 0.61030
 C1481 C 1.04445 0.56701 0.62597
 H1482 H 1.03816 0.57814 0.63203
 O1483 O 0.98332 0.43729 0.58707
 O1484 O 0.98332 0.41692 0.60749
 C1485 C 0.97725 0.43108 0.60123
 C1486 C 0.96252 0.44001 0.61011
 C1487 C 0.95562 0.43328 0.62575
 H1488 H 0.96194 0.42223 0.63191
 O1489 O 1.08726 0.51710 0.56321
 O1490 O 1.10766 0.51715 0.58356
 C1491 C 1.10143 0.52315 0.56937
 C1492 C 1.11045 0.53766 0.56021
 C1493 C 1.12593 0.54480 0.56705
 H1494 H 1.13135 0.53939 0.57895
 O1495 O 0.91295 0.48267 0.56238
 O1496 O 0.89250 0.48263 0.58269
 C1497 C 0.89879 0.47661 0.56854
 C1498 C 0.88995 0.46192 0.55955
 C1499 C 0.87436 0.45501 0.56629
 H1500 H 0.86822 0.46132 0.57736
 O1501 O 1.06339 0.58634 0.51668
 O1502 O 1.08366 0.60681 0.51676
 C1503 C 1.06954 0.60050 0.52280
 C1504 C 1.06054 0.60942 0.53747
 C1505 C 1.06747 0.62486 0.54462
 H1506 H 1.07904 0.63068 0.53892
 O1507 O 0.93781 0.41270 0.51676
 O1508 O 0.91766 0.39211 0.51684
 C1509 C 0.93175 0.39848 0.52285
 C1510 C 0.94077 0.38963 0.53753
 C1511 C 0.93397 0.37408 0.54453
 H1512 H 0.92279 0.36801 0.53837
 O1513 O 1.06334 0.48315 0.58747
 O1514 O 1.08369 0.48320 0.60787
 C1515 C 1.06950 0.47720 0.60171
 C1516 C 1.06043 0.46270 0.61078
 C1517 C 1.06719 0.45569 0.62638
 H1518 H 1.07871 0.46141 0.63227
 O1519 O 0.93658 0.51691 0.58646
 O1520 O 0.91618 0.51691 0.60681
 C1521 C 0.93033 0.52297 0.60061
 C1522 C 0.93935 0.53758 0.60960
 C1523 C 0.93246 0.54477 0.62505
 H1524 H 0.92059 0.53935 0.63051
 O1525 O 0.98295 0.58678 0.56302
 O1526 O 0.98295 0.60721 0.58337
 C1527 C 0.97692 0.60097 0.56922
 C1528 C 0.96238 0.61001 0.56019
 C1529 C 0.95532 0.62548 0.56714
 H1530 H 0.96101 0.63125 0.57875
 O1531 O 1.01763 0.41347 0.56321
 O1532 O 1.01765 0.39302 0.58356
 C1533 C 1.02370 0.39930 0.56941
 C1534 C 1.03830 0.39033 0.56034
 C1535 C 1.04543 0.37485 0.56722
 H1536 H 1.03998 0.36940 0.57908
 O1537 O 1.08739 0.43721 0.51692
 O1538 O 1.10770 0.41676 0.51695
 C1539 C 1.10150 0.43094 0.52300
 C1540 C 1.11042 0.43988 0.53770
 C1541 C 1.12599 0.43308 0.54461
 H1542 H 1.13203 0.42191 0.53836
 O1543 O 0.91306 0.56335 0.51692
 O1544 O 0.89271 0.58376 0.51695
 C1545 C 0.89892 0.56959 0.52298
 C1546 C 0.88992 0.56051 0.53753
 C1547 C 0.87447 0.56739 0.54469
 H1548 H 0.86904 0.57930 0.53929
 Cu1549 Cu 1.00048 0.42731 0.57322
 Cu1550 Cu 1.00048 0.40281 0.59768
 Cu1551 Cu 1.00003 0.57266 0.57286
 Cu1552 Cu 0.99998 0.59719 0.59729
 Cu1553 Cu 0.92757 0.42645 0.49966
 Cu1554 Cu 0.90339 0.40172 0.49977
 Cu1555 Cu 1.07349 0.42734 0.49974
 Cu1556 Cu 1.09784 0.40277 0.49977
 Cu1557 Cu 0.92705 0.57315 0.49975
 Cu1558 Cu 0.90263 0.59766 0.49976
 Cu1559 Cu 1.07348 0.57254 0.49947
 Cu1560 Cu 1.09779 0.59713 0.49958
 Cu1561 Cu 0.92678 0.49979 0.57243
 Cu1562 Cu 0.90225 0.49974 0.59682
 Cu1563 Cu 1.07324 0.50008 0.57326
 Cu1564 Cu 1.09770 0.50015 0.59770
 C1565 C 1.04570 0.45486 0.60313
 H1566 H 1.04054 0.46004 0.59100
 C1567 C 1.05971 0.44074 0.63396
 C1568 C 0.95429 0.54517 0.60213
 H1569 H 0.95943 0.53999 0.58999
 C1570 C 0.94033 0.55933 0.63308
 C1571 C 0.89736 0.54552 0.54509
 H1572 H 0.90951 0.54041 0.53993
 C1573 C 0.86643 0.55946 0.55921
 C1574 C 1.10278 0.45456 0.54564
 H1575 H 1.09067 0.45975 0.54049
 C1576 C 1.13371 0.44043 0.55959
 C1577 C 1.04594 0.39783 0.54541
 H1578 H 1.04081 0.41000 0.54028
 C1579 C 1.05996 0.36678 0.55935
 C1580 C 0.95471 0.60261 0.54523
 H1581 H 0.95984 0.59047 0.54004
 C1582 C 0.94080 0.63351 0.55935
 C1583 C 0.95451 0.45460 0.60235
 H1584 H 0.95965 0.45978 0.59021
 C1585 C 0.94054 0.44056 0.63336
 C1586 C 1.04566 0.54560 0.60266
 H1587 H 1.04060 0.54044 0.59049
 C1588 C 1.05939 0.55966 0.63375
 C1589 C 0.95541 0.39732 0.54545
 H1590 H 0.96057 0.40945 0.54027
 C1591 C 0.94126 0.36646 0.55958
 C1592 C 1.04561 0.60198 0.54516
 H1593 H 1.04042 0.58986 0.53998
 C1594 C 1.05971 0.63282 0.55922
 C1595 C 0.89769 0.45392 0.54496
 H1596 H 0.90982 0.45907 0.53981
 C1597 C 0.86679 0.43991 0.55904
 C1598 C 1.10299 0.54524 0.54525
 H1599 H 1.09083 0.54011 0.54016
 C1600 C 1.13401 0.55930 0.55910
 O1601 O 0.48268 0.93693 0.41242
 O1602 O 0.48274 0.91642 0.39215
 C1603 C 0.47667 0.93062 0.39828
 C1604 C 0.46216 0.93966 0.38919
 C1605 C 0.45504 0.93274 0.37374
 H1606 H 0.46043 0.92079 0.36839
 O1607 O 0.51716 1.06312 0.41239
 O1608 O 0.51709 1.08360 0.39206
 C1609 C 0.52309 1.06936 0.39818
 C1610 C 0.53761 1.06036 0.38910
 C1611 C 0.54446 1.06719 0.37350
 H1612 H 0.53816 1.07835 0.36748
 O1613 O 0.41335 0.98282 0.43607
 O1614 O 0.39292 0.98289 0.41575
 C1615 C 0.39920 0.97677 0.42986
 C1616 C 0.39026 0.96216 0.43890
 C1617 C 0.37480 0.95502 0.43204
 H1618 H 0.36933 0.96044 0.42017
 O1619 O 0.58677 1.01716 0.43646
 O1620 O 0.60722 1.01716 0.41617
 C1621 C 0.60096 1.02318 0.43033
 C1622 C 0.60994 1.03772 0.43947
 C1623 C 0.62544 1.04484 0.43269
 H1624 H 0.63097 1.03939 0.42087
 O1625 O 0.43687 0.91329 0.48292
 O1626 O 0.41659 0.89284 0.48294
 C1627 C 0.43074 0.89907 0.47693
 C1628 C 0.43979 0.89005 0.46237
 C1629 C 0.43304 0.87443 0.45548
 H1630 H 0.42179 0.86846 0.46162
 O1631 O 0.56306 1.08699 0.48278
 O1632 O 0.58344 1.10734 0.48289
 C1633 C 0.56931 1.10118 0.47678
 C1634 C 0.56041 1.11021 0.46210
 C1635 C 0.56715 1.12589 0.45531
 H1636 H 0.57819 1.13198 0.46169
 O1637 O 0.43699 1.01735 0.41242
 O1638 O 0.41661 1.01746 0.39206
 C1639 C 0.43072 1.02352 0.39833
 C1640 C 0.43967 1.03824 0.38947
 C1641 C 0.43281 1.04539 0.37401
 H1642 H 0.42103 1.03988 0.36847
 O1643 O 0.56278 0.98322 0.41232
 O1644 O 0.58316 0.98316 0.39195
 C1645 C 0.56894 0.97721 0.39812
 C1646 C 0.55983 0.96269 0.38909
 C1647 C 0.56656 0.95568 0.37349
 H1648 H 0.57809 0.96140 0.36760
 O1649 O 0.51693 0.91342 0.43658
 O1650 O 0.51703 0.89286 0.41636
 C1651 C 0.52306 0.89924 0.43046
 C1652 C 0.53772 0.89041 0.43953
 C1653 C 0.54493 0.87493 0.43271
 H1654 H 0.53948 0.86935 0.42090
 O1655 O 0.48330 1.08703 0.43675
 O1656 O 0.48326 1.10753 0.41646
 C1657 C 0.47726 1.10124 0.43063
 C1658 C 0.46265 1.11019 0.43966
 C1659 C 0.45574 1.12580 0.43288
 H1660 H 0.46191 1.13186 0.42167
 O1661 O 0.41307 1.06291 0.48284
 O1662 O 0.39273 1.08332 0.48275
 C1663 C 0.39890 1.06909 0.47679
 C1664 C 0.38988 1.06000 0.46225
 C1665 C 0.37425 1.06674 0.45531
 H1666 H 0.36834 1.07825 0.46107
 O1667 O 0.58695 0.93744 0.48291
 O1668 O 0.60730 0.91704 0.48296
 C1669 C 0.60110 0.93120 0.47688
 C1670 C 0.61004 0.94012 0.46219
 C1671 C 0.62568 0.93336 0.45537
 H1672 H 0.63175 0.92226 0.46170
 O1673 O 0.48309 1.06334 0.41255
 O1674 O 0.48302 1.08382 0.39224
 C1675 C 0.47700 1.06963 0.39842
 C1676 C 0.46237 1.06067 0.38945
 C1677 C 0.45550 1.06744 0.37382
 H1678 H 0.46170 1.07863 0.36778
 O1679 O 0.51678 0.93717 0.41249
 O1680 O 0.51688 0.91665 0.39223
 C1681 C 0.52286 0.93089 0.39836
 C1682 C 0.53741 0.93991 0.38932
 C1683 C 0.54451 0.93296 0.37387
 H1684 H 0.53883 0.92135 0.36809
 O1685 O 0.58675 0.98297 0.43621
 O1686 O 0.60719 0.98291 0.41591
 C1687 C 0.60091 0.97688 0.43006
 C1688 C 0.60986 0.96230 0.43918
 C1689 C 0.62535 0.95517 0.43238
 H1690 H 0.63083 0.96059 0.42052
 O1691 O 0.41325 1.01702 0.43645
 O1692 O 0.39283 1.01710 0.41612
 C1693 C 0.39906 1.02307 0.43031
 C1694 C 0.39007 1.03760 0.43943
 C1695 C 0.37461 1.04470 0.43254
 H1696 H 0.36880 1.03905 0.42093
 O1697 O 0.43695 1.08692 0.48273
 O1698 O 0.41663 1.10736 0.48263
 C1699 C 0.43077 1.10109 0.47661
 C1700 C 0.43983 1.11006 0.46200
 C1701 C 0.43297 1.12555 0.45486
 H1702 H 0.42116 1.13108 0.46031
 O1703 O 0.56284 0.91371 0.48294
 O1704 O 0.58318 0.89329 0.48297
 C1705 C 0.56903 0.89951 0.47693
 C1706 C 0.56006 0.89048 0.46233
 C1707 C 0.56687 0.87485 0.45550
 H1708 H 0.57804 0.86885 0.46177
 O1709 O 0.56321 1.01737 0.41225
 O1710 O 0.58361 1.01738 0.39190
 C1711 C 0.56948 1.02346 0.39812
 C1712 C 0.56047 1.03809 0.38916
 C1713 C 0.56738 1.04536 0.37377
 H1714 H 0.57927 1.03999 0.36832
 O1715 O 0.43718 0.98318 0.41209
 O1716 O 0.41680 0.98324 0.39172
 C1717 C 0.43099 0.97722 0.39788
 C1718 C 0.44000 0.96263 0.38887
 C1719 C 0.43329 0.95575 0.37322
 H1720 H 0.42222 0.96206 0.36710
 O1721 O 0.51749 1.08707 0.43630
 O1722 O 0.51746 1.10757 0.41601
 C1723 C 0.52358 1.10124 0.43010
 C1724 C 0.53823 1.11012 0.43914
 C1725 C 0.54541 1.12559 0.43230
 H1726 H 0.54002 1.13105 0.42041
 O1727 O 0.48276 0.91326 0.43663
 O1728 O 0.48284 0.89271 0.41641
 C1729 C 0.47677 0.89902 0.43053
 C1730 C 0.46222 0.89006 0.43964
 C1731 C 0.45515 0.87453 0.43284
 H1732 H 0.46070 0.86894 0.42108
 O1733 O 0.58678 1.06282 0.48292
 O1734 O 0.60718 1.08316 0.48301
 C1735 C 0.60097 1.06900 0.47695
 C1736 C 0.60999 1.06000 0.46236
 C1737 C 0.62563 1.06676 0.45556
 H1738 H 0.63166 1.07791 0.46184
 O1739 O 0.41305 0.93730 0.48267
 O1740 O 0.39274 0.91687 0.48265
 C1741 C 0.39895 0.93104 0.47659
 C1742 C 0.39005 0.93995 0.46187
 C1743 C 0.37445 0.93319 0.45501
 H1744 H 0.36836 0.92209 0.46133
 Cu1745 Cu 0.49976 0.92725 0.42656
 Cu1746 Cu 0.49988 0.90259 0.40227
 Cu1747 Cu 0.50028 1.07310 0.42654
 Cu1748 Cu 0.50019 1.09770 0.40217
 Cu1749 Cu 0.42724 1.00007 0.42629
 Cu1750 Cu 0.40274 1.00018 0.40187
 Cu1751 Cu 0.57283 1.00018 0.42634
 Cu1752 Cu 0.59735 1.00013 0.40195
 C1753 C 0.45461 0.95467 0.39658
 H1754 H 0.45976 0.95984 0.40871
 C1755 C 0.44060 0.94068 0.36559
 C1756 C 0.54554 1.04564 0.39667
 H1757 H 0.54040 1.04039 0.40877
 C1758 C 0.55948 1.05994 0.36579
 C1759 C 0.39773 0.95457 0.45386
 H1760 H 0.40985 0.95975 0.45899
 C1761 C 0.36676 0.94050 0.43999
 C1762 C 0.60237 1.04535 0.45437
 H1763 H 0.59020 1.04021 0.45943
 C1764 C 0.63341 1.05941 0.44061
 C1765 C 0.45452 0.89765 0.45449
 H1766 H 0.45965 0.90982 0.45959
 C1767 C 0.44051 0.86660 0.44062
 C1768 C 0.54581 1.10257 0.45406
 H1769 H 0.54063 1.09040 0.45914
 C1770 C 0.55988 1.13365 0.44028
 C1771 C 0.45449 1.04594 0.39706
 H1772 H 0.45959 1.04077 0.40922
 C1773 C 0.44060 1.06002 0.36605
 C1774 C 0.54509 0.95485 0.39675
 H1775 H 0.53995 0.96005 0.40888
 C1776 C 0.55906 0.94076 0.36589
 C1777 C 0.54536 0.89805 0.45438
 H1778 H 0.54017 0.91021 0.45944
 C1779 C 0.55955 0.86703 0.44056
 C1780 C 0.45473 1.10253 0.45436
 H1781 H 0.45984 1.09036 0.45951
 C1782 C 0.44079 1.13353 0.44025
 C1783 C 0.39753 1.04527 0.45436
 H1784 H 0.40967 1.04012 0.45950
 C1785 C 0.36664 1.05925 0.44039
 C1786 C 0.60236 0.95473 0.45413
 H1787 H 0.59020 0.95988 0.45921
 C1788 C 0.63340 0.94066 0.44035
 O1789 O 0.51699 0.93717 0.58755
 O1790 O 0.51690 0.91665 0.60783
 C1791 C 0.52296 0.93085 0.60171
 C1792 C 0.53749 0.93980 0.61081
 C1793 C 0.54453 0.93280 0.62626
 H1794 H 0.53881 0.92120 0.63202
 O1795 O 0.48304 1.06289 0.58745
 O1796 O 0.48292 1.08337 0.60776
 C1797 C 0.47699 1.06911 0.60161
 C1798 C 0.46246 1.06004 0.61062
 C1799 C 0.45556 1.06675 0.62628
 H1800 H 0.46138 1.07819 0.63227
 O1801 O 0.41269 1.01732 0.56321
 O1802 O 0.39231 1.01736 0.58356
 C1803 C 0.39857 1.02342 0.56943
 C1804 C 0.38967 1.03809 0.56041
 C1805 C 0.37421 1.04528 0.56725
 H1806 H 0.36868 1.03983 0.57909
 O1807 O 0.58651 0.98310 0.56393
 O1808 O 0.60696 0.98305 0.58422
 C1809 C 0.60069 0.97703 0.57006
 C1810 C 0.60966 0.96247 0.56092
 C1811 C 0.62513 0.95529 0.56775
 H1812 H 0.63062 0.96069 0.57962
 O1813 O 0.56301 0.91354 0.51712
 O1814 O 0.58333 0.89311 0.51713
 C1815 C 0.56918 0.89934 0.52315
 C1816 C 0.56016 0.89035 0.53774
 C1817 C 0.56687 0.87468 0.54460
 H1818 H 0.57804 0.86863 0.53839
 O1819 O 0.43700 1.08694 0.51696
 O1820 O 0.41671 1.10741 0.51688
 C1821 C 0.43083 1.10115 0.52296
 C1822 C 0.43982 1.11009 0.53761
 C1823 C 0.43304 1.12567 0.54461
 H1824 H 0.42157 1.13162 0.53883
 O1825 O 0.43650 0.98302 0.58706
 O1826 O 0.41616 0.98303 0.60747
 C1827 C 0.43031 0.97698 0.60124
 C1828 C 0.43937 0.96242 0.61026
 C1829 C 0.43254 0.95535 0.62578
 H1830 H 0.42073 0.96083 0.63128
 O1831 O 0.56278 1.01725 0.58811
 O1832 O 0.58317 1.01723 0.60846
 C1833 C 0.56899 1.02324 0.60230
 C1834 C 0.55995 1.03782 0.61131
 C1835 C 0.56669 1.04487 0.62688
 H1836 H 0.57819 1.03914 0.63282
 O1837 O 0.48294 0.91344 0.56329
 O1838 O 0.48287 0.89291 0.58355
 C1839 C 0.47690 0.89922 0.56940
 C1840 C 0.46231 0.89028 0.56032
 C1841 C 0.45532 0.87467 0.56705
 H1842 H 0.46108 0.86870 0.57854
 O1843 O 0.51704 1.08679 0.56336
 O1844 O 0.51695 1.10734 0.58359
 C1845 C 0.52305 1.10100 0.56949
 C1846 C 0.53765 1.10993 0.56044
 C1847 C 0.54480 1.12540 0.56730
 H1848 H 0.53934 1.13091 0.57914
 O1849 O 0.41267 0.93730 0.51684
 O1850 O 0.39234 0.91688 0.51681
 C1851 C 0.39849 0.93109 0.52282
 C1852 C 0.38946 0.94011 0.53738
 C1853 C 0.37384 0.93336 0.54424
 H1854 H 0.36782 0.92218 0.53801
 O1855 O 0.58674 1.06290 0.51714
 O1856 O 0.60715 1.08322 0.51718
 C1857 C 0.60090 1.06907 0.52322
 C1858 C 0.60982 1.06009 0.53792
 C1859 C 0.62549 1.06678 0.54473
 H1860 H 0.63161 1.07783 0.53836
 O1861 O 0.51710 1.06328 0.58769
 O1862 O 0.51699 1.08380 0.60795
 C1863 C 0.52307 1.06960 0.60184
 C1864 C 0.53760 1.06065 0.61095
 C1865 C 0.54465 1.06763 0.62640
 H1866 H 0.53895 1.07925 0.63216
 O1867 O 0.48288 0.93734 0.58731
 O1868 O 0.48279 0.91685 0.60761
 C1869 C 0.47681 0.93108 0.60145
 C1870 C 0.46220 0.94009 0.61043
 C1871 C 0.45533 0.93337 0.62609
 H1872 H 0.46156 0.92221 0.63217
 O1873 O 0.58645 1.01732 0.56394
 O1874 O 0.60690 1.01732 0.58423
 C1875 C 0.60062 1.02337 0.57009
 C1876 C 0.60960 1.03792 0.56094
 C1877 C 0.62509 1.04503 0.56776
 H1878 H 0.63053 1.03961 0.57965
 O1879 O 0.41268 0.98310 0.56307
 O1880 O 0.39230 0.98310 0.58343
 C1881 C 0.39852 0.97706 0.56926
 C1882 C 0.38955 0.96248 0.56019
 C1883 C 0.37408 0.95536 0.56704
 H1884 H 0.36859 0.96084 0.57887
 O1885 O 0.56278 1.08683 0.51698
 O1886 O 0.58318 1.10717 0.51707
 C1887 C 0.56898 1.10099 0.52304
 C1888 C 0.55998 1.10998 0.53763
 C1889 C 0.56672 1.12562 0.54448
 H1890 H 0.57785 1.13168 0.53822
 O1891 O 0.43682 0.91364 0.51713
 O1892 O 0.41651 0.89320 0.51714
 C1893 C 0.43060 0.89950 0.52324
 C1894 C 0.43953 0.89058 0.53792
 C1895 C 0.43258 0.87515 0.54504
 H1896 H 0.42097 0.86938 0.53937
 O1897 O 0.56275 0.98315 0.58800
 O1898 O 0.58315 0.98307 0.60835
 C1899 C 0.56896 0.97710 0.60217
 C1900 C 0.55991 0.96253 0.61114
 C1901 C 0.56665 0.95546 0.62670
 H1902 H 0.57818 0.96114 0.63262
 O1903 O 0.43665 1.01720 0.58706
 O1904 O 0.41629 1.01724 0.60746
 C1905 C 0.43047 1.02324 0.60125
 C1906 C 0.43954 1.03777 0.61031
 C1907 C 0.43267 1.04488 0.62579
 H1908 H 0.42102 1.03931 0.63158
 O1909 O 0.48286 1.08677 0.56345
 O1910 O 0.48275 1.10729 0.58371
 C1911 C 0.47673 1.10094 0.56959
 C1912 C 0.46210 1.10982 0.56054
 C1913 C 0.45493 1.12523 0.56748
 H1914 H 0.46049 1.13100 0.57916
 O1915 O 0.51710 0.91354 0.56335
 O1916 O 0.51703 0.89300 0.58361
 C1917 C 0.52313 0.89934 0.56951
 C1918 C 0.53775 0.89040 0.56048
 C1919 C 0.54483 0.87488 0.56732
 H1920 H 0.53931 0.86934 0.57911
 O1921 O 0.58679 0.93760 0.51715
 O1922 O 0.60713 0.91718 0.51716
 C1923 C 0.60092 0.93136 0.52322
 C1924 C 0.60985 0.94028 0.53792
 C1925 C 0.62544 0.93347 0.54479
 H1926 H 0.63150 0.92234 0.53848
 O1927 O 0.41293 1.06316 0.51702
 O1928 O 0.39261 1.08359 0.51690
 C1929 C 0.39876 1.06941 0.52299
 C1930 C 0.38970 1.06046 0.53760
 C1931 C 0.37407 1.06726 0.54443
 H1932 H 0.36806 1.07844 0.53816
 Cu1933 Cu 0.49998 0.92743 0.57334
 Cu1934 Cu 0.49987 0.90279 0.59767
 Cu1935 Cu 0.50002 1.07288 0.57345
 Cu1936 Cu 0.49988 1.09754 0.59776
 Cu1937 Cu 0.42689 0.92743 0.49989
 Cu1938 Cu 0.40252 0.90289 0.49988
 Cu1939 Cu 0.57287 0.92763 0.50003
 Cu1940 Cu 0.59728 0.90311 0.50005
 Cu1941 Cu 0.42704 1.07294 0.49990
 Cu1942 Cu 0.40266 1.09747 0.49977
 Cu1943 Cu 0.57279 1.07285 0.49994
 Cu1944 Cu 0.59728 1.09726 0.50005
 Cu1945 Cu 0.42667 1.00016 0.57304
 Cu1946 Cu 0.40222 1.00018 0.59751
 Cu1947 Cu 0.57257 1.00021 0.57396
 Cu1948 Cu 0.59711 1.00016 0.59833
 C1949 C 0.54519 0.95475 0.60343
 H1950 H 0.54006 0.95999 0.59131
 C1951 C 0.55911 0.94053 0.63425
 C1952 C 0.45451 1.04539 0.60289
 H1953 H 0.45963 1.04027 0.59071
 C1954 C 0.44060 1.05934 0.63383
 C1955 C 0.39725 1.04573 0.54554
 H1956 H 0.40938 1.04053 0.54044
 C1957 C 0.36626 1.05988 0.55937
 C1958 C 0.60218 0.95491 0.54595
 H1959 H 0.59005 0.96009 0.54084
 C1960 C 0.63314 0.94073 0.55982
 C1961 C 0.54547 0.89799 0.54564
 H1962 H 0.54037 0.91018 0.54055
 C1963 C 0.55942 0.86690 0.55950
 C1964 C 0.45451 1.10239 0.54554
 H1965 H 0.45970 1.09028 0.54036
 C1966 C 0.44044 1.13321 0.55960
 C1967 C 0.45427 0.95477 0.60276
 H1968 H 0.45938 0.95992 0.59060
 C1969 C 0.44040 0.94079 0.63383
 C1970 C 0.54526 1.04567 0.60359
 H1971 H 0.54013 1.04046 0.59147
 C1972 C 0.55921 1.05986 0.63441
 C1973 C 0.45445 0.89801 0.54561
 H1974 H 0.45963 0.91015 0.54047
 C1975 C 0.44037 0.86713 0.55959
 C1976 C 0.54532 1.10235 0.54557
 H1977 H 0.54019 1.09016 0.54049
 C1978 C 0.55938 1.13337 0.55945
 C1979 C 0.39708 0.95481 0.54531
 H1980 H 0.40923 0.95994 0.54021
 C1981 C 0.36609 0.94077 0.55919
 C1982 C 0.60211 1.04550 0.54598
 H1983 H 0.58995 1.04037 0.54090
 C1984 C 0.63319 1.05950 0.55978
 O1985 O 0.48325 0.43722 0.91286
 O1986 O 0.48327 0.41683 0.89247
 C1987 C 0.47716 0.43096 0.89874
 C1988 C 0.46240 0.43986 0.88988
 C1989 C 0.45546 0.43305 0.87431
 H1990 H 0.46170 0.42190 0.86823
 O1991 O 0.51737 0.56298 0.91253
 O1992 O 0.51729 0.58344 0.89219
 C1993 C 0.52335 0.56926 0.89837
 C1994 C 0.53791 0.56031 0.88933
 C1995 C 0.54495 0.56728 0.87387
 H1996 H 0.53919 0.57885 0.86806
 O1997 O 0.41281 0.48312 0.93707
 O1998 O 0.39242 0.48320 0.91672
 C1999 C 0.39862 0.47715 0.93089
 C2000 C 0.38964 0.46254 0.93987
 C2001 C 0.37403 0.45569 0.93311
 H2002 H 0.36794 0.46200 0.92200
 O2003 O 0.58708 0.51725 0.93645
 O2004 O 0.60751 0.51735 0.91613
 C2005 C 0.60122 0.52337 0.93029
 C2006 C 0.61014 0.53796 0.93940
 C2007 C 0.62561 0.54514 0.93260
 H2008 H 0.63116 0.53970 0.92077
 O2009 O 0.43723 0.41289 0.98236
 O2010 O 0.41705 0.39234 0.98231
 C2011 C 0.43114 0.39868 0.97627
 C2012 C 0.44028 0.38977 0.96167
 C2013 C 0.43347 0.37432 0.95441
 H2014 H 0.42162 0.36879 0.95978
 O2015 O 0.56312 0.58677 0.98305
 O2016 O 0.58341 0.60723 0.98314
 C2017 C 0.56929 0.60099 0.97706
 C2018 C 0.56031 0.60997 0.96243
 C2019 C 0.56702 0.62563 0.95556
 H2020 H 0.57814 0.63172 0.96181
 O2021 O 0.43679 0.51712 0.91300
 O2022 O 0.41646 0.51717 0.89259
 C2023 C 0.43062 0.52317 0.89882
 C2024 C 0.43970 0.53772 0.88981
 C2025 C 0.43286 0.54486 0.87432
 H2026 H 0.42103 0.53941 0.86883
 O2027 O 0.56344 0.48299 0.91244
 O2028 O 0.58383 0.48303 0.89208
 C2029 C 0.56967 0.47698 0.89827
 C2030 C 0.56063 0.46245 0.88924
 C2031 C 0.56747 0.45537 0.87373
 H2032 H 0.57926 0.46086 0.86819
 O2033 O 0.51779 0.41358 0.93659
 O2034 O 0.51788 0.39316 0.91623
 C2035 C 0.52393 0.39945 0.93037
 C2036 C 0.53858 0.39052 0.93940
 C2037 C 0.54570 0.37501 0.93257
 H2038 H 0.54021 0.36946 0.92077
 O2039 O 0.48328 0.58673 0.93673
 O2040 O 0.48324 0.60719 0.91639
 C2041 C 0.47724 0.60093 0.93056
 C2042 C 0.46266 0.60991 0.93957
 C2043 C 0.45578 0.62552 0.93275
 H2044 H 0.46194 0.63153 0.92152
 O2045 O 0.41294 0.56331 0.98325
 O2046 O 0.39262 0.58376 0.98321
 C2047 C 0.39875 0.56951 0.97725
 C2048 C 0.38971 0.56042 0.96272
 C2049 C 0.37413 0.56720 0.95573
 H2050 H 0.36821 0.57871 0.96149
 O2051 O 0.58760 0.43739 0.98299
 O2052 O 0.60797 0.41701 0.98301
 C2053 C 0.60177 0.43119 0.97696
 C2054 C 0.61071 0.44017 0.96229
 C2055 C 0.62634 0.43344 0.95540
 H2056 H 0.63244 0.42234 0.96170
 O2057 O 0.48324 0.56275 0.91280
 O2058 O 0.48318 0.58319 0.89245
 C2059 C 0.47717 0.56899 0.89865
 C2060 C 0.46254 0.56002 0.88968
 C2061 C 0.45568 0.56678 0.87403
 H2062 H 0.46192 0.57793 0.86797
 O2063 O 0.51738 0.43723 0.91236
 O2064 O 0.51741 0.41683 0.89198
 C2065 C 0.52337 0.43104 0.89816
 C2066 C 0.53789 0.44007 0.88914
 C2067 C 0.54479 0.43330 0.87354
 H2068 H 0.53866 0.42205 0.86753
 O2069 O 0.58726 0.48302 0.93642
 O2070 O 0.60770 0.48308 0.91611
 C2071 C 0.60145 0.47700 0.93026
 C2072 C 0.61047 0.46244 0.93936
 C2073 C 0.62592 0.45531 0.93247
 H2074 H 0.63133 0.46076 0.92058
 O2075 O 0.41303 0.51730 0.93706
 O2076 O 0.39267 0.51738 0.91667
 C2077 C 0.39891 0.52341 0.93084
 C2078 C 0.38996 0.53804 0.93986
 C2079 C 0.37456 0.54521 0.93291
 H2080 H 0.36881 0.53960 0.92124
 O2081 O 0.43711 0.58696 0.98286
 O2082 O 0.41684 0.60744 0.98276
 C2083 C 0.43093 0.60109 0.97669
 C2084 C 0.43993 0.60993 0.96199
 C2085 C 0.43309 0.62542 0.95481
 H2086 H 0.42132 0.63101 0.96029
 O2087 O 0.56361 0.41354 0.98299
 O2088 O 0.58394 0.39312 0.98303
 C2089 C 0.56981 0.39935 0.97696
 C2090 C 0.56087 0.39040 0.96227
 C2091 C 0.56764 0.37476 0.95539
 H2092 H 0.57878 0.36869 0.96162
 O2093 O 0.56335 0.51710 0.91233
 O2094 O 0.58373 0.51718 0.89196
 C2095 C 0.56952 0.52312 0.89813
 C2096 C 0.56041 0.53763 0.88910
 C2097 C 0.56712 0.54467 0.87350
 H2098 H 0.57866 0.53898 0.86759
 O2099 O 0.43671 0.48291 0.91315
 O2100 O 0.41635 0.48290 0.89276
 C2101 C 0.43048 0.47681 0.89901
 C2102 C 0.43950 0.46216 0.89006
 C2103 C 0.43261 0.45498 0.87461
 H2104 H 0.42078 0.46044 0.86912
 O2105 O 0.51743 0.58666 0.93668
 O2106 O 0.51738 0.60714 0.91637
 C2107 C 0.52346 0.60085 0.93050
 C2108 C 0.53803 0.60982 0.93956
 C2109 C 0.54513 0.62531 0.93269
 H2110 H 0.53968 0.63079 0.92084
 O2111 O 0.48364 0.41307 0.93661
 O2112 O 0.48374 0.39265 0.91625
 C2113 C 0.47772 0.39882 0.93044
 C2114 C 0.46319 0.38975 0.93944
 C2115 C 0.45639 0.37413 0.93259
 H2116 H 0.46268 0.36811 0.92143
 O2117 O 0.58705 0.56284 0.98302
 O2118 O 0.60736 0.58327 0.98311
 C2119 C 0.60119 0.56910 0.97701
 C2120 C 0.61019 0.56020 0.96234
 C2121 C 0.62578 0.56703 0.95550
 H2122 H 0.63180 0.57818 0.96179
 O2123 O 0.41312 0.43666 0.98251
 O2124 O 0.39290 0.41614 0.98245
 C2125 C 0.39899 0.43040 0.97648
 C2126 C 0.38990 0.43953 0.96203
 C2127 C 0.37443 0.43268 0.95490
 H2128 H 0.36900 0.42077 0.96030
 Cu2129 Cu 0.50051 0.42732 0.92664
 Cu2130 Cu 0.50058 0.40282 0.90219
 Cu2131 Cu 0.50034 0.57272 0.92672
 Cu2132 Cu 0.50025 0.59730 0.90232
 Cu2133 Cu 0.42689 0.50010 0.92710
 Cu2134 Cu 0.40243 0.50016 0.90264
 Cu2135 Cu 0.57324 0.50009 0.92646
 Cu2136 Cu 0.59776 0.50017 0.90205
 C2137 C 0.45444 0.45454 0.89754
 H2138 H 0.45960 0.45975 0.90965
 C2139 C 0.44046 0.44038 0.86661
 C2140 C 0.54566 0.54541 0.89677
 H2141 H 0.54055 0.54021 0.90891
 C2142 C 0.55955 0.55957 0.86592
 C2143 C 0.39732 0.45453 0.95448
 H2144 H 0.40946 0.45964 0.95964
 C2145 C 0.36637 0.44063 0.94039
 C2146 C 0.60259 0.54554 0.95432
 H2147 H 0.59045 0.54035 0.95940
 C2148 C 0.63356 0.55972 0.94051
 C2149 C 0.45520 0.39733 0.95412
 H2150 H 0.46027 0.40948 0.95934
 C2151 C 0.44139 0.36638 0.93981
 C2152 C 0.54567 0.60230 0.95447
 H2153 H 0.54055 0.59013 0.95958
 C2154 C 0.55966 0.63335 0.94057
 C2155 C 0.45459 0.54535 0.89734
 H2156 H 0.45967 0.54020 0.90951
 C2157 C 0.44073 0.55942 0.86629
 C2158 C 0.54576 0.45478 0.89676
 H2159 H 0.54064 0.45993 0.90892
 C2160 C 0.55966 0.44076 0.86577
 C2161 C 0.54622 0.39806 0.95430
 H2162 H 0.54108 0.41024 0.95940
 C2163 C 0.56027 0.36701 0.94042
 C2164 C 0.45476 0.60232 0.95431
 H2165 H 0.45986 0.59016 0.95949
 C2166 C 0.44089 0.63332 0.94015
 C2167 C 0.39736 0.54567 0.95485
 H2168 H 0.40944 0.54047 0.96005
 C2169 C 0.36657 0.55974 0.94076
 C2170 C 0.60303 0.45483 0.95432
 H2171 H 0.59090 0.45999 0.95947
 C2172 C 0.63401 0.44077 0.94036
 O2173 O 0.51721 0.43685 1.08725
 O2174 O 0.51719 0.41632 1.10752
 C2175 C 0.52326 0.43052 1.10137
 C2176 C 0.53784 0.43944 1.11042
 C2177 C 0.54495 0.43238 1.12581
 H2178 H 0.53934 0.42068 1.13148
 O2179 O 0.48246 0.56285 1.08707
 O2180 O 0.48240 0.58321 1.10750
 C2181 C 0.47633 0.56908 1.10120
 C2182 C 0.46168 0.56007 1.11010
 C2183 C 0.45456 0.56693 1.12558
 H2184 H 0.46004 0.57876 1.13107
 O2185 O 0.41285 0.51696 1.06298
 O2186 O 0.39239 0.51687 1.08328
 C2187 C 0.39869 0.52301 1.06919
 C2188 C 0.38985 0.53780 1.06031
 C2189 C 0.37427 0.54474 1.06709
 H2190 H 0.36817 0.53844 1.07820
 O2191 O 0.58701 0.48290 1.06383
 O2192 O 0.60733 0.48291 1.08425
 C2193 C 0.60117 0.47688 1.07005
 C2194 C 0.61024 0.46237 1.06095
 C2195 C 0.62571 0.45523 1.06782
 H2196 H 0.63115 0.46063 1.07972
 O2197 O 0.56368 0.41348 1.01723
 O2198 O 0.58402 0.39307 1.01728
 C2199 C 0.56987 0.39931 1.02332
 C2200 C 0.56079 0.39031 1.03790
 C2201 C 0.56765 0.37482 1.04505
 H2202 H 0.57951 0.36935 1.03965
 O2203 O 0.43717 0.58748 1.01705
 O2204 O 0.41694 0.60801 1.01697
 C2205 C 0.43110 0.60177 1.02298
 C2206 C 0.44022 0.61079 1.03749
 C2207 C 0.43354 0.62644 1.04445
 H2208 H 0.42210 0.63245 1.03867
 O2209 O 0.43649 0.48246 1.08677
 O2210 O 0.41606 0.48235 1.10709
 C2211 C 0.43022 0.47632 1.10087
 C2212 C 0.43926 0.46172 1.10986
 C2213 C 0.43238 0.45458 1.12533
 H2214 H 0.42048 0.45998 1.13072
 O2215 O 0.56297 0.51708 1.08761
 O2216 O 0.58326 0.51715 1.10806
 C2217 C 0.56911 0.52315 1.10179
 C2218 C 0.55999 0.53768 1.11077
 C2219 C 0.56682 0.54484 1.12624
 H2220 H 0.57870 0.53945 1.13170
 O2221 O 0.48317 0.41306 1.06306
 O2222 O 0.48312 0.39254 1.08334
 C2223 C 0.47717 0.39881 1.06915
 C2224 C 0.46273 0.38978 1.05997
 C2225 C 0.45574 0.37418 1.06672
 H2226 H 0.46135 0.36834 1.07835
 O2227 O 0.51703 0.58653 1.06350
 O2228 O 0.51702 0.60692 1.08389
 C2229 C 0.52314 0.60065 1.06977
 C2230 C 0.53783 0.60957 1.06081
 C2231 C 0.54495 0.62504 1.06770
 H2232 H 0.53948 0.63053 1.07954
 O2233 O 0.41313 0.43651 1.01668
 O2234 O 0.39290 0.41600 1.01667
 C2235 C 0.39903 0.43020 1.02273
 C2236 C 0.38999 0.43922 1.03733
 C2237 C 0.37458 0.43228 1.04450
 H2238 H 0.36915 0.42040 1.03907
 O2239 O 0.58700 0.56274 1.01724
 O2240 O 0.60731 0.58317 1.01729
 C2241 C 0.60113 0.56897 1.02330
 C2242 C 0.61009 0.56000 1.03795
 C2243 C 0.62570 0.56677 1.04481
 H2244 H 0.63173 0.57793 1.03855
 O2245 O 0.51659 0.56278 1.08764
 O2246 O 0.51653 0.58314 1.10805
 C2247 C 0.52253 0.56894 1.10188
 C2248 C 0.53707 0.55991 1.11093
 C2249 C 0.54391 0.56667 1.12658
 H2250 H 0.53764 0.57781 1.13266
 O2251 O 0.48303 0.43692 1.08714
 O2252 O 0.48300 0.41643 1.10744
 C2253 C 0.47696 0.43063 1.10126
 C2254 C 0.46225 0.43955 1.11018
 C2255 C 0.45538 0.43283 1.12584
 H2256 H 0.46172 0.42177 1.13199
 O2257 O 0.58690 0.51707 1.06376
 O2258 O 0.60725 0.51714 1.08416
 C2259 C 0.60104 0.52315 1.06996
 C2260 C 0.61001 0.53771 1.06085
 C2261 C 0.62549 0.54482 1.06766
 H2262 H 0.63102 0.53934 1.07948
 O2263 O 0.41283 0.48276 1.06261
 O2264 O 0.39236 0.48268 1.08289
 C2265 C 0.39863 0.47672 1.06870
 C2266 C 0.38972 0.46213 1.05962
 C2267 C 0.37416 0.45519 1.06638
 H2268 H 0.36807 0.46144 1.07752
 O2269 O 0.56300 0.58662 1.01725
 O2270 O 0.58330 0.60706 1.01732
 C2271 C 0.56915 0.60079 1.02333
 C2272 C 0.56015 0.60973 1.03797
 C2273 C 0.56685 0.62538 1.04485
 H2274 H 0.57794 0.63149 1.03857
 O2275 O 0.43736 0.41294 1.01660
 O2276 O 0.41717 0.39239 1.01656
 C2277 C 0.43125 0.39873 1.02264
 C2278 C 0.44022 0.38982 1.03730
 C2279 C 0.43331 0.37435 1.04439
 H2280 H 0.42182 0.36847 1.03860
 O2281 O 0.56306 0.48293 1.08773
 O2282 O 0.58333 0.48295 1.10820
 C2283 C 0.56920 0.47692 1.10195
 C2284 C 0.56016 0.46230 1.11087
 C2285 C 0.56687 0.45523 1.12646
 H2286 H 0.57831 0.46098 1.13247
 O2287 O 0.43662 0.51665 1.08702
 O2288 O 0.41620 0.51658 1.10735
 C2289 C 0.43039 0.52263 1.10121
 C2290 C 0.43936 0.53724 1.11023
 C2291 C 0.43262 0.54412 1.12587
 H2292 H 0.42147 0.53789 1.13194
 O2293 O 0.48287 0.58703 1.06337
 O2294 O 0.48286 0.60742 1.08377
 C2295 C 0.47690 0.60125 1.06955
 C2296 C 0.46247 0.61038 1.06043
 C2297 C 0.45541 0.62585 1.06736
 H2298 H 0.46098 0.63157 1.07906
 O2299 O 0.51724 0.41323 1.06305
 O2300 O 0.51719 0.39267 1.08329
 C2301 C 0.52324 0.39900 1.06916
 C2302 C 0.53787 0.39008 1.06013
 C2303 C 0.54471 0.37443 1.06685
 H2304 H 0.53842 0.36830 1.07795
 O2305 O 0.58749 0.43749 1.01719
 O2306 O 0.60787 0.41711 1.01720
 C2307 C 0.60165 0.43128 1.02323
 C2308 C 0.61056 0.44023 1.03791
 C2309 C 0.62617 0.43348 1.04479
 H2310 H 0.63230 0.42240 1.03847
 O2311 O 0.41327 0.56352 1.01745
 O2312 O 0.39299 0.58399 1.01742
 C2313 C 0.39917 0.56982 1.02352
 C2314 C 0.39015 0.56080 1.03812
 C2315 C 0.37469 0.56770 1.04525
 H2316 H 0.36925 0.57957 1.03979
 Cu2317 Cu 0.50015 0.42709 1.07312
 Cu2318 Cu 0.50011 0.40244 1.09744
 Cu2319 Cu 0.49974 0.57276 1.07335
 Cu2320 Cu 0.49970 0.59721 1.09784
 Cu2321 Cu 0.42723 0.42681 0.99952
 Cu2322 Cu 0.40300 0.40214 0.99949
 Cu2323 Cu 0.57356 0.42752 1.00009
 Cu2324 Cu 0.59798 0.40303 1.00013
 Cu2325 Cu 0.42715 0.57326 1.00017
 Cu2326 Cu 0.40283 0.59785 1.00009
 Cu2327 Cu 0.57301 0.57269 1.00013
 Cu2328 Cu 0.59738 0.59722 1.00023
 Cu2329 Cu 0.42675 0.49971 1.07282
 Cu2330 Cu 0.40219 0.49960 1.09719
 Cu2331 Cu 0.57295 0.49998 1.07368
 Cu2332 Cu 0.59733 0.50005 1.09822
 C2333 C 0.54549 0.45446 1.10311
 H2334 H 0.54035 0.45972 1.09100
 C2335 C 0.55943 0.44020 1.13390
 C2336 C 0.45402 0.54518 1.10257
 H2337 H 0.45916 0.54007 1.09040
 C2338 C 0.44001 0.55908 1.13360
 C2339 C 0.39756 0.54579 1.04570
 H2340 H 0.40966 0.54062 1.04052
 C2341 C 0.36662 0.55979 1.05978
 C2342 C 0.60283 0.45482 1.04595
 H2343 H 0.59068 0.45996 1.04083
 C2344 C 0.63379 0.44074 1.05987
 C2345 C 0.54586 0.39780 1.04551
 H2346 H 0.54075 0.40997 1.04036
 C2347 C 0.55973 0.36677 1.05956
 C2348 C 0.45487 0.60303 1.04541
 H2349 H 0.45998 0.59088 1.04024
 C2350 C 0.44099 0.63394 1.05945
 C2351 C 0.45423 0.45414 1.10243
 H2352 H 0.45934 0.45929 1.09027
 C2353 C 0.44033 0.44013 1.13348
 C2354 C 0.54505 0.54525 1.10328
 H2355 H 0.53995 0.54008 1.09112
 C2356 C 0.55890 0.55935 1.13430
 C2357 C 0.45501 0.39737 1.04512
 H2358 H 0.46017 0.40952 1.03998
 C2359 C 0.44095 0.36649 1.05910
 C2360 C 0.54550 0.60205 1.04591
 H2361 H 0.54037 0.58988 1.04078
 C2362 C 0.55950 0.63308 1.05984
 C2363 C 0.39740 0.45420 1.04495
 H2364 H 0.40951 0.45938 1.03979
 C2365 C 0.36655 0.44014 1.05908
 C2366 C 0.60247 0.54533 1.04594
 H2367 H 0.59031 0.54019 1.04086
 C2368 C 0.63346 0.55941 1.05978
 C2369 C 1.11516 1.11423 1.24066
 C2370 C 1.10531 1.12519 1.25165
 C2371 C 1.11284 1.13276 1.26645
 C2372 C 1.13036 1.12947 1.27071
 C2373 C 1.14023 1.11847 1.25980
 C2374 C 1.13274 1.11100 1.24491
 C2375 C 1.10707 1.10617 1.22491
 C2376 C 1.11150 1.08905 1.21982
 C2377 C 1.10389 1.08147 1.20504
 C2378 C 1.09149 1.09072 1.19518
 C2379 C 1.08694 1.10776 1.20027
 C2380 C 1.09473 1.11545 1.21490
 C2381 C 1.08335 1.08259 1.17960
 C2382 C 1.06517 1.08290 1.17736
 C2383 C 1.05751 1.07505 1.16273
 C2384 C 1.06789 1.06696 1.14987
 C2385 C 1.08614 1.06680 1.15215
 C2386 C 1.09375 1.07441 1.16691
 H2387 H 1.09166 1.12772 1.24899
 H2388 H 1.10480 1.14098 1.27469
 H2389 H 1.15383 1.11583 1.26261
 H2390 H 1.14081 1.10287 1.23660
 H2391 H 1.12065 1.08138 1.22742
 H2392 H 1.10746 1.06824 1.20147
 H2393 H 1.07757 1.11524 1.19274
 H2394 H 1.09123 1.12876 1.21825
 H2395 H 1.05687 1.08898 1.18708
 H2396 H 1.04342 1.07516 1.16160
 H2397 H 1.09462 1.06106 1.14239
 H2398 H 1.10783 1.07419 1.16826
 C2399 C 1.11534 0.61415 0.74070
 C2400 C 1.12622 0.60426 0.75170
 C2401 C 1.13380 0.61185 0.76651
 C2402 C 1.13050 0.62945 0.77072
 C2403 C 1.11960 0.63932 0.75968
 C2404 C 1.11218 0.63178 0.74479
 C2405 C 1.10719 0.60608 0.72508
 C2406 C 1.10735 0.61479 0.70891
 C2407 C 1.09966 0.60716 0.69419
 C2408 C 1.09137 0.59076 0.69536
 C2409 C 1.09120 0.58212 0.71162
 C2410 C 1.09910 0.58965 0.72627
 C2411 C 1.08290 0.58275 0.67973
 C2412 C 1.08311 0.56452 0.67721
 C2413 C 1.07522 0.55703 0.66253
 C2414 C 1.06715 0.56757 0.64980
 C2415 C 1.06689 0.58580 0.65236
 C2416 C 1.07454 0.59326 0.66717
 H2417 H 1.12899 0.59069 0.74876
 H2418 H 1.14206 0.60385 0.77474
 H2419 H 1.11689 0.65293 0.76244
 H2420 H 1.10373 0.63966 0.73661
 H2421 H 1.11366 0.62740 0.70760
 H2422 H 1.10042 0.61404 0.68183
 H2423 H 1.08471 0.56964 0.71314
 H2424 H 1.09858 0.58278 0.73865
 H2425 H 1.08958 0.55598 0.68646
 H2426 H 1.07543 0.54294 0.66119
 H2427 H 1.06101 0.59440 0.64278
 H2428 H 1.07380 0.60731 0.66879
 C2429 C 0.61488 1.11545 0.74096
 C2430 C 0.60516 1.12671 0.75174
 C2431 C 0.61267 1.13439 0.76650
 C2432 C 0.63010 1.13079 0.77119
 C2433 C 0.63985 1.11954 0.76032
 C2434 C 0.63238 1.11209 0.74538
 C2435 C 0.60676 1.10724 0.72524
 C2436 C 0.61129 1.09017 0.72010
 C2437 C 0.60370 1.08252 0.70533
 C2438 C 0.59117 1.09164 0.69542
 C2439 C 0.58653 1.10865 0.70066
 C2440 C 0.59428 1.11638 0.71529
 C2441 C 0.58294 1.08345 0.67976
 C2442 C 0.57860 1.09361 0.66503
 C2443 C 0.57071 1.08597 0.65043
 C2444 C 0.56719 1.06795 0.65010
 C2445 C 0.57163 1.05772 0.66467
 C2446 C 0.57931 1.06539 0.67939
 H2447 H 0.59156 1.12938 0.74899
 H2448 H 0.60452 1.14280 0.77440
 H2449 H 0.65337 1.11657 0.76308
 H2450 H 0.64042 1.10382 0.73718
 H2451 H 0.62059 1.08258 0.72759
 H2452 H 0.60779 1.06950 0.70159
 H2453 H 0.57673 1.11599 0.69356
 H2454 H 0.59057 1.12960 0.71869
 H2455 H 0.58155 1.10745 0.66463
 H2456 H 0.56765 1.09409 0.63922
 H2457 H 0.56894 1.04382 0.66476
 H2458 H 0.58217 1.05719 0.69057
 C2459 C 0.61513 0.61402 1.24098
 C2460 C 0.62606 0.60418 1.25198
 C2461 C 0.63358 0.61182 1.26679
 C2462 C 0.63019 0.62940 1.27099
 C2463 C 0.61921 0.63919 1.25998
 C2464 C 0.61184 0.63161 1.24509
 C2465 C 0.60699 0.60593 1.22537
 C2466 C 0.60709 0.61463 1.20919
 C2467 C 0.59933 0.60700 1.19450
 C2468 C 0.59105 0.59061 1.19571
 C2469 C 0.59094 0.58197 1.21198
 C2470 C 0.59891 0.58950 1.22660
 C2471 C 0.58257 0.58256 1.18012
 C2472 C 0.58282 0.56433 1.17762
 C2473 C 0.57492 0.55680 1.16297
 C2474 C 0.56675 0.56730 1.15027
 C2475 C 0.56650 0.58553 1.15276
 C2476 C 0.57418 0.59304 1.16754
 H2477 H 0.62893 0.59063 1.24902
 H2478 H 0.64191 0.60388 1.27502
 H2479 H 0.61644 0.65279 1.26275
 H2480 H 0.60337 0.63946 1.23689
 H2481 H 0.61340 0.62724 1.20785
 H2482 H 0.60005 0.61387 1.18214
 H2483 H 0.58446 0.56949 1.21353
 H2484 H 0.59844 0.58263 1.23898
 H2485 H 0.58935 0.55583 1.18686
 H2486 H 0.57519 0.54271 1.16165
 H2487 H 0.56061 0.59410 1.14316
 H2488 H 0.57343 0.60709 1.16912
 C2489 C 0.88484 0.88580 1.24087
 C2490 C 0.89391 0.87305 1.25039
 C2491 C 0.88635 0.86526 1.26508
 C2492 C 0.86958 0.87029 1.27087
 C2493 C 0.86062 0.88327 1.26127
 C2494 C 0.86810 0.89078 1.24636
 C2495 C 0.89291 0.89393 1.22526
 C2496 C 0.88387 0.89452 1.20932
 C2497 C 0.89161 0.90197 1.19453
 C2498 C 0.90843 0.90936 1.19544
 C2499 C 0.91738 0.90882 1.21152
 C2500 C 0.90977 0.90104 1.22620
 C2501 C 0.91658 0.91757 1.17971
 C2502 C 0.93474 0.91681 1.17702
 C2503 C 0.94233 0.92454 1.16230
 C2504 C 0.93195 0.93294 1.14965
 C2505 C 0.91378 0.93360 1.15230
 C2506 C 0.90624 0.92622 1.16720
 H2507 H 0.90682 0.86894 1.24630
 H2508 H 0.89389 0.85548 1.27195
 H2509 H 0.84770 0.88756 1.26501
 H2510 H 0.86088 0.90066 1.23923
 H2511 H 0.87095 0.88888 1.20823
 H2512 H 0.88446 0.90170 1.18232
 H2513 H 0.93019 0.91463 1.21288
 H2514 H 0.91694 0.90082 1.23841
 H2515 H 0.94315 0.91005 1.18616
 H2516 H 0.95637 0.92398 1.16090
 H2517 H 0.90526 0.93962 1.14275
 H2518 H 0.89227 0.92741 1.16892
 C2519 C 0.88485 0.38582 0.74041
 C2520 C 0.87233 0.39490 0.75023
 C2521 C 0.86474 0.38722 0.76499
 C2522 C 0.86974 0.37032 0.77052
 C2523 C 0.88250 0.36139 0.76064
 C2524 C 0.88980 0.36897 0.74570
 C2525 C 0.89286 0.39394 0.72476
 C2526 C 0.89348 0.38486 0.70883
 C2527 C 0.90105 0.39255 0.69406
 C2528 C 0.90852 0.40936 0.69499
 C2529 C 0.90793 0.41835 0.71106
 C2530 C 0.90006 0.41078 0.72572
 C2531 C 0.91693 0.41742 0.67933
 C2532 C 0.91626 0.43561 0.67654
 C2533 C 0.92415 0.44313 0.66186
 C2534 C 0.93267 0.43265 0.64937
 C2535 C 0.93328 0.41447 0.65213
 C2536 C 0.92569 0.40699 0.66697
 H2537 H 0.86826 0.40791 0.74635
 H2538 H 0.85516 0.39476 0.77213
 H2539 H 0.88681 0.34840 0.76419
 H2540 H 0.89954 0.36176 0.73838
 H2541 H 0.88786 0.37191 0.70774
 H2542 H 0.90084 0.38536 0.68187
 H2543 H 0.91382 0.43114 0.71244
 H2544 H 0.89992 0.41793 0.73794
 H2545 H 0.90944 0.44409 0.68558
 H2546 H 0.92360 0.45720 0.66037
 H2547 H 0.93941 0.40589 0.64270
 H2548 H 0.92681 0.39300 0.66876
 C2549 C 0.38466 0.88581 0.74064
 C2550 C 0.37385 0.89562 0.75177
 C2551 C 0.36624 0.88787 0.76647
 C2552 C 0.36942 0.87019 0.77044
 C2553 C 0.38030 0.86042 0.75932
 C2554 C 0.38777 0.86813 0.74453
 C2555 C 0.39274 0.89401 0.72505
 C2556 C 0.39242 0.88546 0.70881
 C2557 C 0.40006 0.89318 0.69411
 C2558 C 0.40844 0.90952 0.69537
 C2559 C 0.40877 0.91801 0.71170
 C2560 C 0.40092 0.91039 0.72634
 C2561 C 0.41684 0.91761 0.67975
 C2562 C 0.41666 0.93585 0.67730
 C2563 C 0.42450 0.94338 0.66260
 C2564 C 0.43254 0.93287 0.64983
 C2565 C 0.43270 0.91463 0.65228
 C2566 C 0.42509 0.90713 0.66709
 H2567 H 0.37112 0.90924 0.74898
 H2568 H 0.35804 0.89582 0.77482
 H2569 H 0.38296 0.84677 0.76193
 H2570 H 0.39616 0.86031 0.73624
 H2571 H 0.38601 0.87291 0.70743
 H2572 H 0.39918 0.88640 0.68171
 H2573 H 0.41535 0.93044 0.71328
 H2574 H 0.40154 0.91714 0.73878
 H2575 H 0.41026 0.94435 0.68663
 H2576 H 0.42430 0.95748 0.66130
 H2577 H 0.43847 0.90605 0.64262
 H2578 H 0.42577 0.89307 0.66863
 C2579 C 0.38460 0.38580 1.24070
 C2580 C 0.37214 0.39493 1.25055
 C2581 C 0.36458 0.38729 1.26535
 C2582 C 0.36955 0.37039 1.27088
 C2583 C 0.38220 0.36138 1.26094
 C2584 C 0.38948 0.36893 1.24597
 C2585 C 0.39262 0.39388 1.22503
 C2586 C 0.39326 0.38474 1.20913
 C2587 C 0.40089 0.39234 1.19436
 C2588 C 0.40840 0.40914 1.19525
 C2589 C 0.40780 0.41819 1.21127
 C2590 C 0.39985 0.41071 1.22594
 C2591 C 0.41683 0.41714 1.17956
 C2592 C 0.41618 0.43531 1.17673
 C2593 C 0.42406 0.44278 1.16202
 C2594 C 0.43251 0.43226 1.14953
 C2595 C 0.43310 0.41408 1.15233
 C2596 C 0.42555 0.40666 1.16721
 H2597 H 0.36809 0.40794 1.24666
 H2598 H 0.35504 0.39487 1.27250
 H2599 H 0.38647 0.34837 1.26447
 H2600 H 0.39916 0.36167 1.23861
 H2601 H 0.38762 0.37179 1.20808
 H2602 H 0.40069 0.38511 1.18220
 H2603 H 0.41371 0.43097 1.21262
 H2604 H 0.39969 0.41792 1.23813
 H2605 H 0.40939 0.44383 1.18575
 H2606 H 0.42353 0.45685 1.16051
 H2607 H 0.43918 0.40547 1.14289
 H2608 H 0.42666 0.39266 1.16903
 C2609 C 0.88500 1.11394 0.75885
 C2610 C 0.87413 1.10412 0.74781
 C2611 C 0.86672 1.11173 0.73294
 C2612 C 0.87019 1.12928 0.72869
 C2613 C 0.88112 1.13908 0.73972
 C2614 C 0.88837 1.13152 0.75470
 C2615 C 0.89297 1.10583 0.77454
 C2616 C 0.89271 1.11454 0.79070
 C2617 C 0.90038 1.10694 0.80546
 C2618 C 0.90872 1.09055 0.80434
 C2619 C 0.90895 1.08189 0.78809
 C2620 C 0.90107 1.08940 0.77340
 C2621 C 0.91716 1.08258 0.82001
 C2622 C 0.91696 1.06435 0.82259
 C2623 C 0.92481 1.05691 0.83733
 C2624 C 0.93288 1.06749 0.85002
 C2625 C 0.93310 1.08570 0.84742
 C2626 C 0.92547 1.09313 0.83257
 H2627 H 0.87124 1.09058 0.75075
 H2628 H 0.85847 1.10376 0.72466
 H2629 H 0.88399 1.15266 0.73690
 H2630 H 0.89686 1.13932 0.76292
 H2631 H 0.88637 1.12714 0.79197
 H2632 H 0.89956 1.11383 0.81780
 H2633 H 0.91548 1.06942 0.78661
 H2634 H 0.90164 1.08253 0.76103
 H2635 H 0.91054 1.05580 0.81334
 H2636 H 0.92457 1.04282 0.83873
 H2637 H 0.93893 1.09433 0.85700
 H2638 H 0.92620 1.10717 0.83091
 C2639 C 0.88550 0.61386 0.25923
 C2640 C 0.89540 0.62477 0.24829
 C2641 C 0.88788 0.63240 0.23349
 C2642 C 0.87032 0.62917 0.22924
 C2643 C 0.86044 0.61819 0.24017
 C2644 C 0.86792 0.61069 0.25507
 C2645 C 0.89354 0.60577 0.27488
 C2646 C 0.88489 0.60607 0.29106
 C2647 C 0.89262 0.59862 0.30586
 C2648 C 0.90907 0.59046 0.30476
 C2649 C 0.91763 0.59010 0.28847
 C2650 C 0.90999 0.59775 0.27374
 C2651 C 0.91720 0.58229 0.32047
 C2652 C 0.93540 0.58266 0.32295
 C2653 C 0.94297 0.57493 0.33768
 C2654 C 0.93254 0.56682 0.35047
 C2655 C 0.91434 0.56651 0.34801
 C2656 C 0.90680 0.57400 0.33317
 H2657 H 0.90893 0.62756 0.25131
 H2658 H 0.89592 0.64067 0.22531
 H2659 H 0.84686 0.61550 0.23733
 H2660 H 0.86002 0.60224 0.26323
 H2661 H 0.87227 0.61235 0.29233
 H2662 H 0.88578 0.59950 0.31822
 H2663 H 0.93013 0.58366 0.28700
 H2664 H 0.91683 0.59716 0.26135
 H2665 H 0.94383 0.58912 0.31361
 H2666 H 0.95704 0.57525 0.33899
 H2667 H 0.90582 0.56067 0.35767
 H2668 H 0.89278 0.57317 0.33161
 C2669 C 0.38470 1.11456 0.25916
 C2670 C 0.37396 1.10464 0.24806
 C2671 C 0.36647 1.11224 0.23322
 C2672 C 0.36970 1.12986 0.22909
 C2673 C 0.38042 1.13977 0.24024
 C2674 C 0.38777 1.13221 0.25517
 C2675 C 0.39280 1.10646 0.27478
 C2676 C 0.39243 1.11505 0.29099
 C2677 C 0.40015 1.10743 0.30570
 C2678 C 0.40865 1.09114 0.30447
 C2679 C 0.40900 1.08259 0.28817
 C2680 C 0.40107 1.09012 0.27353
 C2681 C 0.41708 1.08312 0.32010
 C2682 C 0.41698 1.06489 0.32255
 C2683 C 0.42482 1.05739 0.33726
 C2684 C 0.43277 1.06794 0.35005
 C2685 C 0.43286 1.08618 0.34760
 C2686 C 0.42525 1.09365 0.33277
 H2687 H 0.37123 1.09105 0.25096
 H2688 H 0.35833 1.10421 0.22490
 H2689 H 0.38305 1.15341 0.23755
 H2690 H 0.39608 1.14011 0.26347
 H2691 H 0.38593 1.12757 0.29235
 H2692 H 0.39925 1.11422 0.31809
 H2693 H 0.41564 1.07019 0.28661
 H2694 H 0.40169 1.08332 0.26111
 H2695 H 0.41062 1.05636 0.31322
 H2696 H 0.42467 1.04329 0.33856
 H2697 H 0.43856 1.09477 0.35728
 H2698 H 0.42586 1.10771 0.33123
 C2699 C 0.38473 0.61439 0.75953
 C2700 C 0.37384 0.60458 0.74849
 C2701 C 0.36625 0.61227 0.73374
 C2702 C 0.36956 0.62988 0.72962
 C2703 C 0.38050 0.63967 0.74067
 C2704 C 0.38793 0.63202 0.75551
 C2705 C 0.39284 0.60623 0.77514
 C2706 C 0.39265 0.61487 0.79134
 C2707 C 0.40033 0.60718 0.80605
 C2708 C 0.40862 0.59078 0.80483
 C2709 C 0.40881 0.58220 0.78854
 C2710 C 0.40092 0.58980 0.77390
 C2711 C 0.41705 0.58270 0.82045
 C2712 C 0.41683 0.56446 0.82292
 C2713 C 0.42473 0.55691 0.83758
 C2714 C 0.43287 0.56739 0.85031
 C2715 C 0.43309 0.58563 0.84782
 C2716 C 0.42541 0.59315 0.83305
 H2717 H 0.37105 0.59099 0.75137
 H2718 H 0.35799 0.60432 0.72547
 H2719 H 0.38323 0.65328 0.73796
 H2720 H 0.39641 0.63984 0.76372
 H2721 H 0.38631 0.62747 0.79269
 H2722 H 0.39955 0.61402 0.81842
 H2723 H 0.41530 0.56972 0.78699
 H2724 H 0.40144 0.58297 0.76150
 H2725 H 0.41033 0.55598 0.81366
 H2726 H 0.42448 0.54281 0.83888
 H2727 H 0.43897 0.59419 0.85743
 H2728 H 0.42613 0.60721 0.83149
 C2729 C 1.11494 0.88538 0.75925
 C2730 C 1.11267 0.86748 0.75573
 C2731 C 1.12015 0.85987 0.74091
 C2732 C 1.13022 0.86993 0.72933
 C2733 C 1.13263 0.88780 0.73287
 C2734 C 1.12501 0.89546 0.74761
 C2735 C 1.10678 0.89352 0.77492
 C2736 C 1.11558 0.90659 0.78437
 C2737 C 1.10783 0.91440 0.79895
 C2738 C 1.09114 0.90921 0.80458
 C2739 C 1.08237 0.89606 0.79521
 C2740 C 1.09007 0.88835 0.78054
 C2741 C 1.08297 0.91746 0.82020
 C2742 C 1.06491 0.92082 0.82069
 C2743 C 1.05727 0.92848 0.83544
 C2744 C 1.06755 0.93311 0.84991
 C2745 C 1.08558 0.92985 0.84942
 C2746 C 1.09319 0.92204 0.83478
 H2747 H 1.10528 0.85925 0.76457
 H2748 H 1.11824 0.84602 0.73869
 H2749 H 1.14013 0.89598 0.72409
 H2750 H 1.12676 0.90935 0.74973
 H2751 H 1.12857 0.91070 0.78059
 H2752 H 1.11487 0.92464 0.80571
 H2753 H 1.06961 0.89157 0.79931
 H2754 H 1.08283 0.87845 0.77348
 H2755 H 1.05669 0.91776 0.80959
 H2756 H 1.04336 0.93101 0.83545
 H2757 H 1.09375 0.93305 0.86053
 H2758 H 1.10706 0.91933 0.83501
 C2759 C 1.11543 0.38579 0.25927
 C2760 C 1.13332 0.38792 0.25572
 C2761 C 1.14085 0.38023 0.24094
 C2762 C 1.13070 0.37011 0.22947
 C2763 C 1.11283 0.36799 0.23299
 C2764 C 1.10527 0.37580 0.24766
 C2765 C 1.10739 0.39384 0.27506
 C2766 C 1.09437 0.38492 0.28448
 C2767 C 1.08664 0.39254 0.29917
 C2768 C 1.09180 0.40922 0.30491
 C2769 C 1.10496 0.41806 0.29562
 C2770 C 1.11261 0.41049 0.28084
 C2771 C 1.08348 0.41736 0.32050
 C2772 C 1.08007 0.43545 0.32100
 C2773 C 1.07232 0.44306 0.33571
 C2774 C 1.06763 0.43272 0.35014
 C2775 C 1.07092 0.41466 0.34964
 C2776 C 1.07882 0.40708 0.33503
 H2777 H 1.14161 0.39522 0.26455
 H2778 H 1.15469 0.38198 0.23867
 H2779 H 1.10460 0.36053 0.22425
 H2780 H 1.09141 0.37413 0.24981
 H2781 H 1.09023 0.37196 0.28059
 H2782 H 1.07646 0.38540 0.30591
 H2783 H 1.10948 0.43078 0.29986
 H2784 H 1.12248 0.41780 0.27382
 H2785 H 1.08320 0.44371 0.30993
 H2786 H 1.06976 0.45699 0.33572
 H2787 H 1.06767 0.40645 0.36072
 H2788 H 1.08155 0.39319 0.33525
 C2789 C 0.61519 0.88597 0.25933
 C2790 C 0.63309 0.88813 0.25580
 C2791 C 0.64065 0.88050 0.24101
 C2792 C 0.63052 0.87042 0.22948
 C2793 C 0.61266 0.86823 0.23299
 C2794 C 0.60507 0.87599 0.24768
 C2795 C 0.60710 0.89401 0.27510
 C2796 C 0.59403 0.88509 0.28444
 C2797 C 0.58624 0.89268 0.29911
 C2798 C 0.59139 0.90934 0.30493
 C2799 C 0.60460 0.91819 0.29571
 C2800 C 0.61231 0.91065 0.28094
 C2801 C 0.58301 0.91744 0.32052
 C2802 C 0.57964 0.93554 0.32107
 C2803 C 0.57183 0.94312 0.33577
 C2804 C 0.56704 0.93275 0.35015
 C2805 C 0.57028 0.91469 0.34959
 C2806 C 0.57824 0.90713 0.33500
 H2807 H 0.64134 0.89550 0.26462
 H2808 H 0.65449 0.88227 0.23876
 H2809 H 0.60444 0.86078 0.22423
 H2810 H 0.59119 0.87436 0.24975
 H2811 H 0.58989 0.87215 0.28049
 H2812 H 0.57602 0.88553 0.30579
 H2813 H 0.60911 0.93090 0.30000
 H2814 H 0.62221 0.91797 0.27398
 H2815 H 0.58285 0.94383 0.31005
 H2816 H 0.56933 0.95706 0.33582
 H2817 H 0.56696 0.90645 0.36063
 H2818 H 0.58094 0.89323 0.33519
 C2819 C 0.61547 0.38580 0.75936
 C2820 C 0.61274 0.36804 0.75548
 C2821 C 0.62026 0.36048 0.74066
 C2822 C 0.63083 0.37043 0.72944
 C2823 C 0.63375 0.38813 0.73337
 C2824 C 0.62606 0.39577 0.74810
 C2825 C 0.60722 0.39389 0.77503
 C2826 C 0.61609 0.40671 0.78478
 C2827 C 0.60820 0.41451 0.79931
 C2828 C 0.59139 0.40944 0.80456
 C2829 C 0.58258 0.39650 0.79501
 C2830 C 0.59037 0.38886 0.78036
 C2831 C 0.58311 0.41751 0.82006
 C2832 C 0.57523 0.40698 0.83285
 C2833 C 0.56763 0.41452 0.84763
 C2834 C 0.56751 0.43280 0.84984
 C2835 C 0.57524 0.44332 0.83688
 C2836 C 0.58308 0.43575 0.82221
 H2837 H 0.60495 0.35987 0.76401
 H2838 H 0.61798 0.34674 0.73817
 H2839 H 0.64172 0.39620 0.72490
 H2840 H 0.62818 0.40957 0.75049
 H2841 H 0.62926 0.41055 0.78136
 H2842 H 0.61534 0.42429 0.80664
 H2843 H 0.56953 0.39250 0.79873
 H2844 H 0.58305 0.37920 0.77307
 H2845 H 0.57527 0.39287 0.83158
 H2846 H 0.56216 0.40597 0.85749
 H2847 H 0.57510 0.45744 0.83798
 H2848 H 0.58891 0.44414 0.81242
 C2849 C 1.24064 1.11392 1.11461
 C2850 C 1.24477 1.13148 1.11115
 C2851 C 1.25978 1.13904 1.11828
 C2852 C 1.27087 1.12922 1.12917
 C2853 C 1.26661 1.11171 1.13278
 C2854 C 1.25169 1.10412 1.12551
 C2855 C 1.22492 1.10580 1.10675
 C2856 C 1.22599 1.08930 1.09878
 C2857 C 1.21127 1.08175 1.09106
 C2858 C 1.19506 1.09043 1.09133
 C2859 C 1.19401 1.10688 1.09954
 C2860 C 1.20880 1.11453 1.10705
 C2861 C 1.17934 1.08240 1.08307
 C2862 C 1.16671 1.09289 1.07480
 C2863 C 1.15186 1.08541 1.06729
 C2864 C 1.14931 1.06719 1.06758
 C2865 C 1.16203 1.05667 1.07569
 C2866 C 1.17678 1.06418 1.08341
 H2867 H 1.23650 1.13930 1.10272
 H2868 H 1.26258 1.15260 1.11537
 H2869 H 1.27489 1.10377 1.14105
 H2870 H 1.24870 1.09061 1.12854
 H2871 H 1.23833 1.08239 1.09822
 H2872 H 1.21271 1.06922 1.08464
 H2873 H 1.18171 1.11380 1.10039
 H2874 H 1.20758 1.12716 1.11335
 H2875 H 1.16831 1.10693 1.07401
 H2876 H 1.14224 1.09401 1.06148
 H2877 H 1.16066 1.04258 1.07602
 H2878 H 1.18607 1.05566 1.08986
 C2879 C 1.24117 0.61414 0.61426
 C2880 C 1.25196 0.60448 0.62555
 C2881 C 1.26673 0.61216 0.63304
 C2882 C 1.27110 0.62963 0.62930
 C2883 C 1.26032 0.63925 0.61793
 C2884 C 1.24549 0.63160 0.61054
 C2885 C 1.22549 0.60602 0.60633
 C2886 C 1.20950 0.61498 0.60610
 C2887 C 1.19472 0.60735 0.59854
 C2888 C 1.19566 0.59064 0.59082
 C2889 C 1.21175 0.58173 0.59108
 C2890 C 1.22645 0.58928 0.59884
 C2891 C 1.17996 0.58258 0.58254
 C2892 C 1.17725 0.56438 0.58319
 C2893 C 1.16255 0.55683 0.57540
 C2894 C 1.15000 0.56727 0.56693
 C2895 C 1.15270 0.58547 0.56632
 C2896 C 1.16751 0.59299 0.57390
 H2897 H 1.24886 0.59103 0.62876
 H2898 H 1.27476 0.60431 0.64164
 H2899 H 1.26321 0.65274 0.61479
 H2900 H 1.23751 0.63928 0.60172
 H2901 H 1.20836 0.62781 0.61201
 H2902 H 1.18253 0.61448 0.59899
 H2903 H 1.21312 0.56901 0.58502
 H2904 H 1.23869 0.58217 0.59868
 H2905 H 1.18637 0.55592 0.58991
 H2906 H 1.16111 0.54276 0.57597
 H2907 H 1.14324 0.59403 0.56021
 H2908 H 1.16922 0.60701 0.57285
 C2909 C 0.74025 1.11450 0.61496
 C2910 C 0.75100 1.10492 0.62633
 C2911 C 0.76581 1.11259 0.63372
 C2912 C 0.77028 1.12999 0.62977
 C2913 C 0.75953 1.13957 0.61834
 C2914 C 0.74463 1.13192 0.61107
 C2915 C 0.72460 1.10632 0.60704
 C2916 C 0.70860 1.11526 0.60672
 C2917 C 0.69387 1.10758 0.59913
 C2918 C 0.69485 1.09086 0.59145
 C2919 C 0.71096 1.08197 0.59179
 C2920 C 0.72562 1.08956 0.59960
 C2921 C 0.67919 1.08277 0.58313
 C2922 C 0.67646 1.06458 0.58383
 C2923 C 0.66175 1.05702 0.57608
 C2924 C 0.64920 1.06746 0.56759
 C2925 C 0.65191 1.08565 0.56693
 C2926 C 0.66675 1.09317 0.57445
 H2927 H 0.74788 1.09152 0.62965
 H2928 H 0.77385 1.10477 0.64234
 H2929 H 0.76251 1.15302 0.61506
 H2930 H 0.73666 1.13953 0.60217
 H2931 H 0.70743 1.12811 0.61258
 H2932 H 0.68166 1.11470 0.59952
 H2933 H 0.71237 1.06923 0.58577
 H2934 H 0.73787 1.08248 0.59951
 H2935 H 0.68558 1.05613 0.59058
 H2936 H 0.66028 1.04296 0.57671
 H2937 H 0.64245 1.09421 0.56083
 H2938 H 0.66847 1.10718 0.57335
 C2939 C 0.74030 0.61448 1.11509
 C2940 C 0.74410 0.63221 1.11216
 C2941 C 0.75886 0.63988 1.11967
 C2942 C 0.77007 0.63004 1.13041
 C2943 C 0.76622 0.61229 1.13335
 C2944 C 0.75153 0.60458 1.12572
 C2945 C 0.72469 0.60632 1.10703
 C2946 C 0.72590 0.58993 1.09884
 C2947 C 0.71125 0.58234 1.09103
 C2948 C 0.69497 0.59088 1.09140
 C2949 C 0.69378 0.60724 1.09977
 C2950 C 0.70849 0.61491 1.10740
 C2951 C 0.67932 0.58277 1.08312
 C2952 C 0.66663 0.59321 1.07488
 C2953 C 0.65182 0.58565 1.06735
 C2954 C 0.64940 0.56741 1.06760
 C2955 C 0.66219 0.55695 1.07567
 C2956 C 0.67688 0.56454 1.08342
 H2957 H 0.73575 0.64009 1.10388
 H2958 H 0.76135 0.65358 1.11716
 H2959 H 0.77462 0.60426 1.14142
 H2960 H 0.74883 0.59092 1.12831
 H2961 H 0.73829 0.58313 1.09820
 H2962 H 0.71277 0.56990 1.08446
 H2963 H 0.68141 0.61405 1.10068
 H2964 H 0.70714 0.62746 1.11384
 H2965 H 0.66814 0.60727 1.07412
 H2966 H 0.64215 0.59420 1.06155
 H2967 H 0.66091 0.54286 1.07596
 H2968 H 0.68622 0.55608 1.08986
 C2969 C 1.24069 0.88592 0.88536
 C2970 C 1.25128 0.89552 0.87384
 C2971 C 1.26606 0.88786 0.86634
 C2972 C 1.27062 0.87050 0.87033
 C2973 C 1.26003 0.86093 0.88189
 C2974 C 1.24518 0.86854 0.88927
 C2975 C 1.22504 0.89403 0.89334
 C2976 C 1.20908 0.88503 0.89366
 C2977 C 1.19431 0.89265 0.90124
 C2978 C 1.19522 0.90936 0.90894
 C2979 C 1.21129 0.91831 0.90861
 C2980 C 1.22599 0.91077 0.90081
 C2981 C 1.17952 0.91738 0.91727
 C2982 C 1.17673 0.93557 0.91664
 C2983 C 1.16199 0.94305 0.92441
 C2984 C 1.14946 0.93256 0.93283
 C2985 C 1.15224 0.91437 0.93343
 C2986 C 1.16711 0.90691 0.92590
 H2987 H 1.24802 0.90889 0.87049
 H2988 H 1.27398 0.89565 0.85758
 H2989 H 1.26309 0.84750 0.88517
 H2990 H 1.23731 0.86090 0.89822
 H2991 H 1.20797 0.87217 0.88780
 H2992 H 1.18213 0.88549 0.90083
 H2993 H 1.21265 0.93105 0.91464
 H2994 H 1.23821 0.91790 0.90091
 H2995 H 1.18582 0.94407 0.90992
 H2996 H 1.16049 0.95712 0.92384
 H2997 H 1.14280 0.90576 0.93950
 H2998 H 1.16889 0.89291 0.92695
 C2999 C 1.24139 0.38622 0.38471
 C3000 C 1.25094 0.39512 0.37184
 C3001 C 1.26578 0.38751 0.36440
 C3002 C 1.27165 0.37089 0.36988
 C3003 C 1.26200 0.36210 0.38292
 C3004 C 1.24699 0.36961 0.39010
 C3005 C 1.22568 0.39426 0.39261
 C3006 C 1.20998 0.38487 0.39364
 C3007 C 1.19517 0.39242 0.40120
 C3008 C 1.19581 0.40944 0.40826
 C3009 C 1.21165 0.41875 0.40725
 C3010 C 1.22635 0.41131 0.39937
 C3011 C 1.18007 0.41741 0.41660
 C3012 C 1.17702 0.43554 0.41561
 C3013 C 1.16229 0.44300 0.42341
 C3014 C 1.14997 0.43253 0.43216
 C3015 C 1.15297 0.41439 0.43308
 C3016 C 1.16788 0.40697 0.42558
 H3017 H 1.24679 0.40792 0.36740
 H3018 H 1.27270 0.39489 0.35454
 H3019 H 1.26578 0.34929 0.38756
 H3020 H 1.23987 0.36255 0.40010
 H3021 H 1.20912 0.37175 0.38835
 H3022 H 1.18317 0.38496 0.40130
 H3023 H 1.21283 0.43171 0.41280
 H3024 H 1.23839 0.41872 0.39889
 H3025 H 1.18589 0.44403 0.40860
 H3026 H 1.16064 0.45704 0.42260
 H3027 H 1.14368 0.40578 0.43937
 H3028 H 1.16983 0.39302 0.42694
 C3029 C 0.74025 0.88586 0.38466
 C3030 C 0.74457 0.86837 0.38824
 C3031 C 0.75937 0.86076 0.38075
 C3032 C 0.77008 0.87042 0.36937
 C3033 C 0.76564 0.88787 0.36563
 C3034 C 0.75093 0.89554 0.37329
 C3035 C 0.72468 0.89398 0.39282
 C3036 C 0.72579 0.91056 0.40062
 C3037 C 0.71115 0.91813 0.40850
 C3038 C 0.69498 0.90937 0.40857
 C3039 C 0.69391 0.89281 0.40060
 C3040 C 0.70862 0.88515 0.39295
 C3041 C 0.67934 0.91744 0.41694
 C3042 C 0.66684 0.90699 0.42546
 C3043 C 0.65202 0.91450 0.43302
 C3044 C 0.64940 0.93271 0.43256
 C3045 C 0.66203 0.94319 0.42428
 C3046 C 0.67671 0.93565 0.41645
 H3047 H 0.73660 0.86065 0.39704
 H3048 H 0.76231 0.84724 0.38376
 H3049 H 0.77363 0.89568 0.35695
 H3050 H 0.74778 0.90900 0.37017
 H3051 H 0.73810 0.91753 0.40092
 H3052 H 0.71260 0.93073 0.41478
 H3053 H 0.68164 0.88581 0.40002
 H3054 H 0.70738 0.87241 0.38687
 H3055 H 0.66851 0.89296 0.42639
 H3056 H 0.64249 0.90592 0.43899
 H3057 H 0.66063 0.95727 0.42386
 H3058 H 0.68588 0.94413 0.40981
 C3059 C 0.74122 0.38645 0.88478
 C3060 C 0.75182 0.39612 0.87332
 C3061 C 0.76671 0.38857 0.86593
 C3062 C 0.77138 0.37124 0.86995
 C3063 C 0.76076 0.36160 0.88145
 C3064 C 0.74580 0.36911 0.88872
 C3065 C 0.72552 0.39447 0.89277
 C3066 C 0.70962 0.38537 0.89317
 C3067 C 0.69484 0.39291 0.90081
 C3068 C 0.69569 0.40964 0.90847
 C3069 C 0.71171 0.41867 0.90808
 C3070 C 0.72641 0.41122 0.90021
 C3071 C 0.67999 0.41764 0.91681
 C3072 C 0.67718 0.43581 0.91612
 C3073 C 0.66248 0.44332 0.92396
 C3074 C 0.65000 0.43284 0.93248
 C3075 C 0.65278 0.41465 0.93309
 C3076 C 0.66762 0.40718 0.92551
 H3077 H 0.74849 0.40947 0.86995
 H3078 H 0.77463 0.39642 0.85722
 H3079 H 0.76389 0.34820 0.88475
 H3080 H 0.73795 0.36142 0.89765
 H3081 H 0.70855 0.37250 0.88733
 H3082 H 0.68270 0.38568 0.90048
 H3083 H 0.71303 0.43142 0.91410
 H3084 H 0.73859 0.41842 0.90026
 H3085 H 0.68622 0.44430 0.90932
 H3086 H 0.66098 0.45738 0.92336
 H3087 H 0.64336 0.40605 0.93920
 H3088 H 0.66940 0.39318 0.92659
 C3089 C 0.75999 0.88534 1.11483
 C3090 C 0.75588 0.88853 1.13245
 C3091 C 0.74118 0.88083 1.14009
 C3092 C 0.73038 0.86965 1.13030
 C3093 C 0.73456 0.86644 1.11268
 C3094 C 0.74915 0.87427 1.10501
 C3095 C 0.77560 0.89343 1.10672
 C3096 C 0.77452 0.90130 1.09016
 C3097 C 0.78924 0.90891 1.08250
 C3098 C 0.80547 0.90862 1.09113
 C3099 C 0.80652 0.90060 1.10768
 C3100 C 0.79173 0.89320 1.11542
 C3101 C 0.82119 0.91672 1.08296
 C3102 C 0.83385 0.92508 1.09332
 C3103 C 0.84864 0.93257 1.08570
 C3104 C 0.85109 0.93216 1.06746
 C3105 C 0.83835 0.92395 1.05708
 C3106 C 0.82368 0.91621 1.06473
 H3107 H 0.76394 0.89716 1.14027
 H3108 H 0.73840 0.88354 1.15370
 H3109 H 0.72645 0.85803 1.10471
 H3110 H 0.75209 0.87152 1.09144
 H3111 H 0.76218 0.90181 1.08324
 H3112 H 0.78782 0.91526 1.06993
 H3113 H 0.81883 0.89978 1.11459
 H3114 H 0.79297 0.88699 1.12810
 H3115 H 0.83229 0.92599 1.10736
 H3116 H 0.85825 0.93850 1.09421
 H3117 H 0.83962 0.92359 1.04298
 H3118 H 0.81438 0.90967 1.05632
 C3119 C 0.75962 0.38543 0.61415
 C3120 C 0.75540 0.38879 0.63171
 C3121 C 0.74051 0.38134 0.63925
 C3122 C 0.72968 0.37021 0.62943
 C3123 C 0.73398 0.36682 0.61188
 C3124 C 0.74874 0.37441 0.60431
 C3125 C 0.77528 0.39342 0.60605
 C3126 C 0.77423 0.40129 0.58949
 C3127 C 0.78895 0.40895 0.58189
 C3128 C 0.80516 0.40867 0.59056
 C3129 C 0.80618 0.40062 0.60710
 C3130 C 0.79139 0.39318 0.61479
 C3131 C 0.82089 0.41675 0.58243
 C3132 C 0.83352 0.42510 0.59284
 C3133 C 0.84838 0.43250 0.58527
 C3134 C 0.85089 0.43205 0.56705
 C3135 C 0.83819 0.42383 0.55662
 C3136 C 0.82346 0.41617 0.56422
 H3137 H 0.76350 0.39735 0.63954
 H3138 H 0.73763 0.38417 0.65281
 H3139 H 0.72586 0.35845 0.60390
 H3140 H 0.75179 0.37149 0.59079
 H3141 H 0.76192 0.40177 0.58254
 H3142 H 0.78755 0.41533 0.56932
 H3143 H 0.81848 0.39982 0.61403
 H3144 H 0.79262 0.38694 0.62746
 H3145 H 0.83191 0.42606 0.60687
 H3146 H 0.85799 0.43839 0.59380
 H3147 H 0.83955 0.42339 0.54254
 H3148 H 0.81420 0.40960 0.55579
 C3149 C 0.25923 0.88587 0.61464
 C3150 C 0.24827 0.89567 0.62563
 C3151 C 0.23343 0.88806 0.63307
 C3152 C 0.22915 0.87054 0.62953
 C3153 C 0.24013 0.86076 0.61851
 C3154 C 0.25506 0.86832 0.61122
 C3155 C 0.27487 0.89399 0.60662
 C3156 C 0.29101 0.88528 0.60677
 C3157 C 0.30574 0.89300 0.59924
 C3158 C 0.30462 0.90949 0.59110
 C3159 C 0.28839 0.91814 0.59094
 C3160 C 0.27373 0.91052 0.59869
 C3161 C 0.32025 0.91756 0.58274
 C3162 C 0.32276 0.93579 0.58303
 C3163 C 0.33742 0.94332 0.57518
 C3164 C 0.35013 0.93282 0.56704
 C3165 C 0.34762 0.91459 0.56677
 C3166 C 0.33282 0.90709 0.57436
 H3167 H 0.25128 0.90919 0.62859
 H3168 H 0.22522 0.89601 0.64141
 H3169 H 0.23729 0.84721 0.61560
 H3170 H 0.26322 0.86051 0.60267
 H3171 H 0.29228 0.87260 0.61298
 H3172 H 0.31807 0.88611 0.60002
 H3173 H 0.28691 0.93070 0.58457
 H3174 H 0.26138 0.91741 0.59820
 H3175 H 0.31351 0.94429 0.58953
 H3176 H 0.33874 0.95742 0.57546
 H3177 H 0.35721 0.90601 0.56091
 H3178 H 0.33122 0.89305 0.57355
 C3179 C 0.25990 0.38512 1.11465
 C3180 C 0.24904 0.37406 1.10484
 C3181 C 0.23449 0.36619 1.11254
 C3182 C 0.23040 0.36932 1.13019
 C3183 C 0.24121 0.38052 1.13996
 C3184 C 0.25586 0.38826 1.13229
 C3185 C 0.27548 0.39321 1.10651
 C3186 C 0.29165 0.39293 1.11514
 C3187 C 0.30640 0.40038 1.10737
 C3188 C 0.30526 0.40850 1.09088
 C3189 C 0.28899 0.40885 1.08233
 C3190 C 0.27431 0.40118 1.09000
 C3191 C 0.32092 0.41666 1.08269
 C3192 C 0.32334 0.41623 1.06445
 C3193 C 0.33796 0.42403 1.05678
 C3194 C 0.35071 0.43222 1.06717
 C3195 C 0.34833 0.43255 1.08542
 C3196 C 0.33359 0.42500 1.09305
 H3197 H 0.25198 0.37127 1.09127
 H3198 H 0.22635 0.35781 1.10458
 H3199 H 0.23846 0.38318 1.15359
 H3200 H 0.26399 0.39680 1.14013
 H3201 H 0.29296 0.38665 1.12778
 H3202 H 0.31874 0.39955 1.11422
 H3203 H 0.28751 0.41529 1.06981
 H3204 H 0.26194 0.40174 1.08316
 H3205 H 0.31403 0.40970 1.05605
 H3206 H 0.33920 0.42372 1.04268
 H3207 H 0.35796 0.43847 1.09391
 H3208 H 0.33209 0.42585 1.10710
 C3209 C 0.75962 1.11507 0.88517
 C3210 C 0.74886 1.10532 0.87395
 C3211 C 0.73428 1.11303 0.86610
 C3212 C 0.73007 1.13064 0.86940
 C3213 C 0.74082 1.14034 0.88071
 C3214 C 0.75545 1.13265 0.88847
 C3215 C 0.77518 1.10695 0.89336
 C3216 C 0.79124 1.11579 0.89354
 C3217 C 0.80597 1.10806 0.90110
 C3218 C 0.80491 1.09142 0.90894
 C3219 C 0.78876 1.08265 0.90878
 C3220 C 0.77410 1.09028 0.90101
 C3221 C 0.82055 1.08331 0.91731
 C3222 C 0.82314 1.06509 0.91684
 C3223 C 0.83779 1.05751 0.92470
 C3224 C 0.85043 1.06796 0.93302
 C3225 C 0.84781 1.08617 0.93350
 C3226 C 0.83303 1.09371 0.92588
 H3227 H 0.75186 1.09178 0.87106
 H3228 H 0.72631 1.10509 0.85755
 H3229 H 0.73806 1.15392 0.88355
 H3230 H 0.76340 1.14042 0.89723
 H3231 H 0.79248 1.12857 0.88755
 H3232 H 0.81823 1.11507 0.90056
 H3233 H 0.78731 1.06996 0.91491
 H3234 H 0.76180 1.08329 0.90125
 H3235 H 0.81398 1.05662 0.91019
 H3236 H 0.83916 1.04343 0.92427
 H3237 H 0.85732 1.09473 0.93952
 H3238 H 0.83139 1.10774 0.92683
 C3239 C 0.75982 0.61447 0.38518
 C3240 C 0.75630 0.63238 0.38747
 C3241 C 0.74141 0.63997 0.38013
 C3242 C 0.72979 0.62989 0.37015
 C3243 C 0.73331 0.61202 0.36774
 C3244 C 0.74812 0.60437 0.37522
 C3245 C 0.77556 0.60638 0.39324
 C3246 C 0.78496 0.59328 0.38442
 C3247 C 0.79965 0.58560 0.39211
 C3248 C 0.80541 0.59093 0.40874
 C3249 C 0.79607 0.60410 0.41751
 C3250 C 0.78130 0.61168 0.40989
 C3251 C 0.82111 0.58280 0.41687
 C3252 C 0.82177 0.57960 0.43499
 C3253 C 0.83657 0.57204 0.44259
 C3254 C 0.85095 0.56735 0.43223
 C3255 C 0.85030 0.57043 0.41414
 C3256 C 0.83560 0.57815 0.40655
 H3257 H 0.76520 0.64065 0.39472
 H3258 H 0.73919 0.65382 0.38202
 H3259 H 0.72449 0.60385 0.36028
 H3260 H 0.75024 0.59049 0.37341
 H3261 H 0.78108 0.58904 0.37149
 H3262 H 0.80638 0.57532 0.38507
 H3263 H 0.80024 0.60870 0.43023
 H3264 H 0.77427 0.62159 0.41715
 H3265 H 0.81074 0.58271 0.44328
 H3266 H 0.83669 0.56962 0.45655
 H3267 H 0.86132 0.56716 0.40589
 H3268 H 0.83571 0.58072 0.39263
 C3269 C 0.25987 1.11437 0.38508
 C3270 C 0.25580 1.13205 0.38813
 C3271 C 0.24100 1.13962 0.38061
 C3272 C 0.22999 1.12974 0.36975
 C3273 C 0.23409 1.11213 0.36655
 C3274 C 0.24881 1.10450 0.37419
 C3275 C 0.27554 1.10627 0.39326
 C3276 C 0.28556 1.09391 0.38407
 C3277 C 0.30021 1.08622 0.39178
 C3278 C 0.30533 1.09078 0.40886
 C3279 C 0.29535 1.10321 0.41802
 C3280 C 0.28062 1.11082 0.41033
 C3281 C 0.32104 1.08265 0.41702
 C3282 C 0.32135 1.07862 0.43499
 C3283 C 0.33616 1.07107 0.44261
 C3284 C 0.35088 1.06719 0.43240
 C3285 C 0.35058 1.07109 0.41446
 C3286 C 0.33589 1.07883 0.40688
 H3287 H 0.26418 1.14014 0.39615
 H3288 H 0.23835 1.15330 0.38311
 H3289 H 0.22576 1.10413 0.35839
 H3290 H 0.25136 1.09078 0.37178
 H3291 H 0.28219 1.09029 0.37080
 H3292 H 0.30743 1.07655 0.38440
 H3293 H 0.29900 1.10724 0.43108
 H3294 H 0.27311 1.12016 0.41786
 H3295 H 0.31005 1.08105 0.44314
 H3296 H 0.33604 1.06800 0.45644
 H3297 H 0.36187 1.06842 0.40636
 H3298 H 0.33628 1.08206 0.39310
 C3299 C 0.25999 0.61484 0.88521
 C3300 C 0.25619 0.63265 0.88778
 C3301 C 0.24137 0.64019 0.88026
 C3302 C 0.23006 0.63013 0.86990
 C3303 C 0.23389 0.61237 0.86718
 C3304 C 0.24865 0.60479 0.87480
 C3305 C 0.27567 0.60679 0.89339
 C3306 C 0.28546 0.59413 0.88438
 C3307 C 0.30011 0.58645 0.89212
 C3308 C 0.30543 0.59134 0.90904
 C3309 C 0.29571 0.60412 0.91800
 C3310 C 0.28098 0.61170 0.91029
 C3311 C 0.32109 0.58320 0.91725
 C3312 C 0.32145 0.57948 0.93528
 C3313 C 0.33622 0.57191 0.94296
 C3314 C 0.35084 0.56770 0.93273
 C3315 C 0.35049 0.57131 0.91473
 C3316 C 0.33583 0.57905 0.90709
 H3317 H 0.26480 0.64087 0.89543
 H3318 H 0.23894 0.65397 0.88240
 H3319 H 0.22534 0.60421 0.85941
 H3320 H 0.25100 0.59098 0.87278
 H3321 H 0.28191 0.59024 0.87123
 H3322 H 0.30716 0.57654 0.88489
 H3323 H 0.29956 0.60841 0.93092
 H3324 H 0.27365 0.62130 0.91768
 H3325 H 0.31022 0.58218 0.94344
 H3326 H 0.33612 0.56908 0.95684
 H3327 H 0.36170 0.56841 0.90661
 H3328 H 0.33617 0.58204 0.89326
 C3329 C 1.11428 1.24056 1.11418
 C3330 C 1.13185 1.24466 1.11098
 C3331 C 1.13936 1.25959 1.11837
 C3332 C 1.12949 1.27062 1.12927
 C3333 C 1.11195 1.26638 1.13261
 C3334 C 1.10440 1.25155 1.12506
 C3335 C 1.10622 1.22489 1.10613
 C3336 C 1.08980 1.22604 1.09806
 C3337 C 1.08222 1.21131 1.09035
 C3338 C 1.09080 1.19503 1.09074
 C3339 C 1.10719 1.19391 1.09900
 C3340 C 1.11487 1.20871 1.10648
 C3341 C 1.08274 1.17932 1.08250
 C3342 C 1.09319 1.16666 1.07423
 C3343 C 1.08571 1.15179 1.06674
 C3344 C 1.06751 1.14929 1.06700
 C3345 C 1.05703 1.16207 1.07506
 C3346 C 1.06455 1.17681 1.08282
 H3347 H 1.13973 1.23645 1.10255
 H3348 H 1.15295 1.26236 1.11567
 H3349 H 1.10395 1.27458 1.14091
 H3350 H 1.09087 1.24857 1.12787
 H3351 H 1.08296 1.23842 1.09743
 H3352 H 1.06975 1.21278 1.08386
 H3353 H 1.11403 1.18155 1.09991
 H3354 H 1.12745 1.20744 1.11282
 H3355 H 1.10721 1.16827 1.07343
 H3356 H 1.09428 1.14214 1.06095
 H3357 H 1.04296 1.16075 1.07533
 H3358 H 1.05607 1.18613 1.08926
 C3359 C 1.11481 0.73963 0.61453
 C3360 C 1.11252 0.74327 0.63241
 C3361 C 1.12010 0.75809 0.63994
 C3362 C 1.13026 0.76954 0.62980
 C3363 C 1.13267 0.76586 0.61197
 C3364 C 1.12497 0.75113 0.60440
 C3365 C 1.10666 0.72391 0.60648
 C3366 C 1.11549 0.71440 0.59347
 C3367 C 1.10782 0.69969 0.58582
 C3368 C 1.09115 0.69404 0.59104
 C3369 C 1.08234 0.70351 0.60411
 C3370 C 1.08997 0.71829 0.61169
 C3371 C 1.08302 0.67835 0.58288
 C3372 C 1.06496 0.67779 0.57952
 C3373 C 1.05738 0.66302 0.57185
 C3374 C 1.06770 0.64857 0.56720
 C3375 C 1.08573 0.64912 0.57048
 C3376 C 1.09329 0.66379 0.57830
 H3377 H 1.10506 0.73454 0.64068
 H3378 H 1.11819 0.76042 0.65377
 H3379 H 1.14024 0.77453 0.60374
 H3380 H 1.12676 0.74891 0.59054
 H3381 H 1.12844 0.71820 0.58928
 H3382 H 1.11492 0.69286 0.57566
 H3383 H 1.06960 0.69940 0.60865
 H3384 H 1.08270 0.72542 0.62151
 H3385 H 1.05671 0.68886 0.58260
 H3386 H 1.04347 0.66298 0.56931
 H3387 H 1.09394 0.63804 0.56728
 H3388 H 1.10716 0.66360 0.58102
 C3389 C 0.61451 1.24025 0.61460
 C3390 C 0.60477 1.25118 0.62566
 C3391 C 0.61244 1.26590 0.63327
 C3392 C 0.62997 1.27010 0.62983
 C3393 C 0.63968 1.25920 0.61866
 C3394 C 0.63205 1.24436 0.61121
 C3395 C 0.60637 1.22463 0.60658
 C3396 C 0.61500 1.20844 0.60683
 C3397 C 0.60728 1.19369 0.59932
 C3398 C 0.59086 1.19487 0.59112
 C3399 C 0.58229 1.21116 0.59085
 C3400 C 0.58991 1.22584 0.59860
 C3401 C 0.58274 1.17921 0.58287
 C3402 C 0.56454 1.17676 0.58323
 C3403 C 0.55696 1.16208 0.57544
 C3404 C 0.56738 1.14930 0.56731
 C3405 C 0.58558 1.15170 0.56705
 C3406 C 0.59314 1.16652 0.57457
 H3407 H 0.59124 1.24822 0.62856
 H3408 H 0.60453 1.27410 0.64167
 H3409 H 0.65322 1.26201 0.61578
 H3410 H 0.63979 1.23622 0.60259
 H3411 H 0.62761 1.20713 0.61312
 H3412 H 0.61411 1.18132 0.60015
 H3413 H 0.56980 1.21267 0.58441
 H3414 H 0.58307 1.23823 0.59809
 H3415 H 0.55612 1.18609 0.58973
 H3416 H 0.54289 1.16082 0.57574
 H3417 H 0.59411 1.14202 0.56124
 H3418 H 0.60716 1.16806 0.57376
 C3419 C 0.61416 0.74074 1.11430
 C3420 C 0.63173 0.74487 1.11105
 C3421 C 0.63924 0.75981 1.11842
 C3422 C 0.62939 0.77083 1.12935
 C3423 C 0.61185 0.76658 1.13272
 C3424 C 0.60430 0.75174 1.12519
 C3425 C 0.60612 0.72501 1.10634
 C3426 C 0.58964 0.72605 1.09837
 C3427 C 0.58206 0.71126 1.09078
 C3428 C 0.59071 0.69501 1.09116
 C3429 C 0.60716 0.69400 1.09931
 C3430 C 0.61483 0.70886 1.10668
 C3431 C 0.58265 0.67922 1.08303
 C3432 C 0.59310 0.66654 1.07479
 C3433 C 0.58562 0.65163 1.06735
 C3434 C 0.56743 0.64910 1.06766
 C3435 C 0.55695 0.66188 1.07572
 C3436 C 0.56447 0.67667 1.08341
 H3437 H 0.63960 0.73665 1.10263
 H3438 H 0.65281 0.76259 1.11568
 H3439 H 0.60386 0.77479 1.14102
 H3440 H 0.59078 0.74874 1.12804
 H3441 H 0.58274 0.73841 1.09774
 H3442 H 0.56954 0.71265 1.08437
 H3443 H 0.61406 0.68167 1.10023
 H3444 H 0.62747 0.70767 1.11294
 H3445 H 0.60711 0.66816 1.07394
 H3446 H 0.59419 0.64198 1.06155
 H3447 H 0.54289 0.66053 1.07603
 H3448 H 0.55599 0.68599 1.08984
 C3449 C 0.88515 1.23984 0.88453
 C3450 C 0.88756 1.24354 0.86667
 C3451 C 0.87994 1.25833 0.85910
 C3452 C 0.86962 1.26970 0.86916
 C3453 C 0.86712 1.26598 0.88698
 C3454 C 0.87486 1.25128 0.89459
 C3455 C 0.89339 1.22417 0.89265
 C3456 C 0.88462 1.21463 0.90571
 C3457 C 0.89248 1.20008 0.91352
 C3458 C 0.90918 1.19463 0.90829
 C3459 C 0.91788 1.20398 0.89512
 C3460 C 0.91013 1.21865 0.88745
 C3461 C 0.91748 1.17913 0.91644
 C3462 C 0.92532 1.16627 0.90596
 C3463 C 0.93297 1.15152 0.91356
 C3464 C 0.93318 1.14940 0.93185
 C3465 C 0.92549 1.16244 0.94232
 C3466 C 0.91762 1.17708 0.93469
 H3467 H 0.89518 1.23490 0.85845
 H3468 H 0.88196 1.26069 0.84529
 H3469 H 0.85944 1.27459 0.89517
 H3470 H 0.87303 1.24905 0.90845
 H3471 H 0.87156 1.21825 0.90975
 H3472 H 0.88537 1.19288 0.92343
 H3473 H 0.93083 1.20011 0.89095
 H3474 H 0.91738 1.22581 0.87763
 H3475 H 0.92523 1.16747 0.89185
 H3476 H 0.93841 1.14162 0.90504
 H3477 H 0.92571 1.16143 0.95644
 H3478 H 0.91185 1.18695 0.94305
 C3479 C 0.88531 0.74056 0.38530
 C3480 C 0.88808 0.74461 0.36757
 C3481 C 0.88064 0.75955 0.36015
 C3482 C 0.87010 0.77071 0.37021
 C3483 C 0.86724 0.76666 0.38790
 C3484 C 0.87483 0.75181 0.39539
 C3485 C 0.89344 0.72477 0.39327
 C3486 C 0.88451 0.71504 0.40608
 C3487 C 0.89230 0.70040 0.41378
 C3488 C 0.90907 0.69505 0.40868
 C3489 C 0.91792 0.70457 0.39573
 C3490 C 0.91024 0.71934 0.38820
 C3491 C 0.91730 0.67950 0.41677
 C3492 C 0.92516 0.66668 0.40626
 C3493 C 0.93271 0.65187 0.41383
 C3494 C 0.93281 0.64966 0.43211
 C3495 C 0.92510 0.66266 0.44261
 C3496 C 0.91732 0.67736 0.43500
 H3497 H 0.89583 0.73611 0.35933
 H3498 H 0.88295 0.76219 0.34644
 H3499 H 0.85940 0.77513 0.39608
 H3500 H 0.87272 0.74933 0.40916
 H3501 H 0.87140 0.71858 0.41001
 H3502 H 0.88510 0.69308 0.42353
 H3503 H 0.93092 0.70076 0.39167
 H3504 H 0.91762 0.72665 0.37859
 H3505 H 0.92514 0.66796 0.39216
 H3506 H 0.93817 0.64199 0.40529
 H3507 H 0.92521 0.66157 0.45672
 H3508 H 0.91153 0.68720 0.44338
 C3509 C 0.38481 1.23981 0.38479
 C3510 C 0.37439 1.25119 0.39479
 C3511 C 0.36659 1.26583 0.38712
 C3512 C 0.36917 1.26957 0.36932
 C3513 C 0.37963 1.25826 0.35932
 C3514 C 0.38730 1.24353 0.36694
 C3515 C 0.39310 1.22420 0.39296
 C3516 C 0.40988 1.21874 0.38783
 C3517 C 0.41766 1.20409 0.39550
 C3518 C 0.40894 1.19469 0.40863
 C3519 C 0.39221 1.20010 0.41382
 C3520 C 0.38433 1.21462 0.40600
 C3521 C 0.41724 1.17919 0.41678
 C3522 C 0.41728 1.17709 0.43503
 C3523 C 0.42513 1.16244 0.44267
 C3524 C 0.43290 1.14945 0.43221
 C3525 C 0.43278 1.15161 0.41393
 C3526 C 0.42515 1.16637 0.40632
 H3527 H 0.37248 1.24896 0.40864
 H3528 H 0.35881 1.27440 0.39527
 H3529 H 0.38171 1.26064 0.34553
 H3530 H 0.39501 1.23492 0.35877
 H3531 H 0.41714 1.22594 0.37804
 H3532 H 0.43063 1.20026 0.39137
 H3533 H 0.38509 1.19288 0.42371
 H3534 H 0.37125 1.21820 0.41000
 H3535 H 0.41145 1.18693 0.44339
 H3536 H 0.42526 1.16139 0.45679
 H3537 H 0.43828 1.14174 0.40541
 H3538 H 0.42511 1.16759 0.39221
 C3539 C 0.38488 0.73970 0.88508
 C3540 C 0.38734 0.74355 0.86726
 C3541 C 0.37980 0.75844 0.85981
 C3542 C 0.36951 0.76976 0.86996
 C3543 C 0.36691 0.76586 0.88772
 C3544 C 0.37458 0.75106 0.89522
 C3545 C 0.39313 0.72398 0.89308
 C3546 C 0.38437 0.71435 0.90608
 C3547 C 0.39226 0.69979 0.91382
 C3548 C 0.40899 0.69441 0.90857
 C3549 C 0.41767 0.70385 0.89545
 C3550 C 0.40988 0.71853 0.88786
 C3551 C 0.41733 0.67894 0.91670
 C3552 C 0.42516 0.66608 0.90622
 C3553 C 0.43281 0.65133 0.91382
 C3554 C 0.43303 0.64923 0.93211
 C3555 C 0.42537 0.66227 0.94258
 C3556 C 0.41750 0.67691 0.93495
 H3557 H 0.39495 0.73496 0.85898
 H3558 H 0.38188 0.76094 0.84603
 H3559 H 0.35924 0.77442 0.89597
 H3560 H 0.37269 0.74871 0.90905
 H3561 H 0.37130 0.71792 0.91014
 H3562 H 0.38518 0.69253 0.92370
 H3563 H 0.43063 0.70003 0.89127
 H3564 H 0.41712 0.72577 0.87809
 H3565 H 0.42504 0.66727 0.89210
 H3566 H 0.43825 0.64142 0.90530
 H3567 H 0.42559 0.66127 0.95670
 H3568 H 0.41174 0.68678 0.94331
 C3569 C 1.11511 0.76027 0.88491
 C3570 C 1.10535 0.74934 0.87387
 C3571 C 1.11300 0.73462 0.86622
 C3572 C 1.13055 0.73041 0.86960
 C3573 C 1.14032 0.74138 0.88063
 C3574 C 1.13270 0.75621 0.88813
 C3575 C 1.10695 0.77583 0.89305
 C3576 C 1.11555 0.79203 0.89287
 C3577 C 1.10780 0.80675 0.90044
 C3578 C 1.09135 0.80555 0.90858
 C3579 C 1.08282 0.78925 0.90880
 C3580 C 1.09048 0.77459 0.90102
 C3581 C 1.08318 0.82121 0.91683
 C3582 C 1.06499 0.82368 0.91634
 C3583 C 1.05734 0.83836 0.92413
 C3584 C 1.06770 0.85109 0.93240
 C3585 C 1.08591 0.84865 0.93278
 C3586 C 1.09352 0.83386 0.92524
 H3587 H 1.09182 0.75231 0.87102
 H3588 H 1.10507 0.72646 0.85783
 H3589 H 1.15391 0.73864 0.88336
 H3590 H 1.14050 0.76439 0.89665
 H3591 H 1.12816 0.79338 0.88659
 H3592 H 1.11462 0.81913 0.89966
 H3593 H 1.07031 0.78772 0.91521
 H3594 H 1.08366 0.76219 0.90149
 H3595 H 1.05661 0.81439 0.90974
 H3596 H 1.04328 0.83965 0.92372
 H3597 H 1.09439 0.85829 0.93871
 H3598 H 1.10754 0.83231 0.92612
 C3599 C 1.11502 0.25957 0.38561
 C3600 C 1.12618 0.24880 0.39543
 C3601 C 1.13386 0.23406 0.38784
 C3602 C 1.13038 0.22967 0.37033
 C3603 C 1.11917 0.24045 0.36053
 C3604 C 1.11165 0.25530 0.36807
 C3605 C 1.10689 0.27520 0.39365
 C3606 C 1.10700 0.29132 0.38487
 C3607 C 1.09944 0.30610 0.39251
 C3608 C 1.09133 0.30503 0.40901
 C3609 C 1.09117 0.28880 0.41771
 C3610 C 1.09896 0.27409 0.41016
 C3611 C 1.08306 0.32074 0.41707
 C3612 C 1.08345 0.32330 0.43529
 C3613 C 1.07565 0.33802 0.44283
 C3614 C 1.06747 0.35073 0.43233
 C3615 C 1.06714 0.34818 0.41411
 C3616 C 1.07470 0.33334 0.40661
 H3617 H 1.12910 0.25191 0.40893
 H3618 H 1.14235 0.22600 0.39580
 H3619 H 1.11631 0.23753 0.34699
 H3620 H 1.10300 0.26333 0.36025
 H3621 H 1.11322 0.29255 0.37220
 H3622 H 1.10018 0.31841 0.38555
 H3623 H 1.08478 0.28735 0.43026
 H3624 H 1.09851 0.26174 0.41710
 H3625 H 1.08997 0.31404 0.44378
 H3626 H 1.07599 0.33939 0.45691
 H3627 H 1.06125 0.35778 0.40553
 H3628 H 1.07387 0.33172 0.39257
 C3629 C 0.61504 0.76025 0.38517
 C3630 C 0.63264 0.75619 0.38837
 C3631 C 0.64025 0.74136 0.38086
 C3632 C 0.63048 0.73039 0.36983
 C3633 C 0.61291 0.73457 0.36652
 C3634 C 0.60525 0.74929 0.37419
 C3635 C 0.60688 0.77583 0.39331
 C3636 C 0.59044 0.77457 0.40135
 C3637 C 0.58278 0.78923 0.40914
 C3638 C 0.59128 0.80555 0.40887
 C3639 C 0.60768 0.80677 0.40064
 C3640 C 0.61544 0.79205 0.39307
 C3641 C 0.58310 0.82119 0.41716
 C3642 C 0.59345 0.83392 0.42545
 C3643 C 0.58584 0.84871 0.43300
 C3644 C 0.56762 0.85108 0.43274
 C3645 C 0.55725 0.83824 0.42465
 C3646 C 0.56489 0.82358 0.41685
 H3647 H 0.64043 0.76436 0.39691
 H3648 H 0.65383 0.73860 0.38362
 H3649 H 0.60495 0.72636 0.35820
 H3650 H 0.59170 0.75220 0.37140
 H3651 H 0.58365 0.76216 0.40187
 H3652 H 0.57031 0.78767 0.41560
 H3653 H 0.61446 0.81917 0.39980
 H3654 H 0.62802 0.79341 0.38674
 H3655 H 0.60748 0.83243 0.42623
 H3656 H 0.59433 0.85841 0.43881
 H3657 H 0.54317 0.83946 0.42439
 H3658 H 0.55649 0.81422 0.41038
 C3659 C 0.61473 0.25951 0.88515
 C3660 C 0.60452 0.24782 0.87536
 C3661 C 0.61202 0.23296 0.86780
 C3662 C 0.62992 0.22937 0.86994
 C3663 C 0.64012 0.24115 0.87970
 C3664 C 0.63262 0.25605 0.88718
 C3665 C 0.60671 0.27522 0.89327
 C3666 C 0.61513 0.29151 0.89243
 C3667 C 0.60755 0.30632 0.90003
 C3668 C 0.59144 0.30516 0.90882
 C3669 C 0.58307 0.28879 0.90968
 C3670 C 0.59058 0.27403 0.90193
 C3671 C 0.58343 0.32092 0.91706
 C3672 C 0.56522 0.32332 0.91702
 C3673 C 0.55771 0.33810 0.92475
 C3674 C 0.56821 0.35099 0.93258
 C3675 C 0.58643 0.34861 0.93258
 C3676 C 0.59392 0.33374 0.92502
 H3677 H 0.59074 0.25027 0.87338
 H3678 H 0.60369 0.22431 0.86037
 H3679 H 0.65394 0.23896 0.88160
 H3680 H 0.64079 0.26476 0.89479
 H3681 H 0.62745 0.29286 0.88561
 H3682 H 0.61422 0.31874 0.89876
 H3683 H 0.57082 0.28730 0.91657
 H3684 H 0.58389 0.26159 0.90296
 H3685 H 0.55672 0.31388 0.91080
 H3686 H 0.54364 0.33936 0.92465
 H3687 H 0.59500 0.35836 0.93820
 H3688 H 0.60797 0.33227 0.92552
 C3689 C 0.88549 0.75915 1.11408
 C3690 C 0.86771 0.75553 1.11145
 C3691 C 0.86005 0.74074 1.11899
 C3692 C 0.86998 0.72934 1.12946
 C3693 C 0.88778 0.73303 1.13209
 C3694 C 0.89545 0.74773 1.12443
 C3695 C 0.89365 0.77479 1.10605
 C3696 C 0.90994 0.77351 1.09773
 C3697 C 0.91762 0.78822 1.09008
 C3698 C 0.90928 0.80460 1.09077
 C3699 C 0.89302 0.80586 1.09926
 C3700 C 0.88525 0.79110 1.10672
 C3701 C 0.91744 0.82027 1.08260
 C3702 C 0.90707 0.83306 1.07443
 C3703 C 0.91467 0.84786 1.06692
 C3704 C 0.93289 0.85016 1.06710
 C3705 C 0.94329 0.83729 1.07513
 C3706 C 0.93566 0.82260 1.08287
 H3707 H 0.85977 0.76404 1.10338
 H3708 H 0.84631 0.73839 1.11673
 H3709 H 0.89589 0.72452 1.13995
 H3710 H 0.90916 0.75031 1.12679
 H3711 H 0.91661 0.76104 1.09687
 H3712 H 0.92998 0.78667 1.08339
 H3713 H 0.88637 0.81831 1.10038
 H3714 H 0.87280 0.79249 1.11329
 H3715 H 0.89303 0.83161 1.07371
 H3716 H 0.90619 0.85762 1.06118
 H3717 H 0.95737 0.83849 1.07536
 H3718 H 0.94405 0.81317 1.08927
 C3719 C 0.88528 0.26019 0.61489
 C3720 C 0.86748 0.25652 0.61226
 C3721 C 0.85984 0.24166 0.61969
 C3722 C 0.86978 0.23022 0.63006
 C3723 C 0.88753 0.23393 0.63279
 C3724 C 0.89521 0.24868 0.62524
 C3725 C 0.89349 0.27589 0.60682
 C3726 C 0.90645 0.28536 0.61580
 C3727 C 0.91430 0.29997 0.60812
 C3728 C 0.90925 0.30554 0.59137
 C3729 C 0.89623 0.29622 0.58243
 C3730 C 0.88851 0.28151 0.59002
 C3731 C 0.91749 0.32106 0.58324
 C3732 C 0.90715 0.33398 0.57531
 C3733 C 0.91486 0.34867 0.56769
 C3734 C 0.93312 0.35068 0.56759
 C3735 C 0.94346 0.33764 0.57544
 C3736 C 0.93571 0.32305 0.58329
 H3737 H 0.85936 0.26523 0.60461
 H3738 H 0.84609 0.23928 0.61748
 H3739 H 0.89562 0.22525 0.64049
 H3740 H 0.90902 0.25088 0.62726
 H3741 H 0.91038 0.28163 0.62888
 H3742 H 0.92414 0.30710 0.61537
 H3743 H 0.89224 0.30016 0.56943
 H3744 H 0.87883 0.27436 0.58259
 H3745 H 0.89305 0.33285 0.57530
 H3746 H 0.90644 0.35861 0.56215
 H3747 H 0.95756 0.33859 0.57534
 H3748 H 0.94397 0.31316 0.58916
 C3749 C 0.38508 0.76026 0.61466
 C3750 C 0.37443 0.74906 0.60470
 C3751 C 0.36667 0.73437 0.61233
 C3752 C 0.36958 0.73041 0.63003
 C3753 C 0.38026 0.74153 0.63998
 C3754 C 0.38785 0.75632 0.63241
 C3755 C 0.39326 0.77597 0.60657
 C3756 C 0.41010 0.78137 0.61152
 C3757 C 0.41775 0.79613 0.60393
 C3758 C 0.40882 0.80581 0.59109
 C3759 C 0.39198 0.80040 0.58615
 C3760 C 0.38428 0.78572 0.59384
 C3761 C 0.41697 0.82150 0.58295
 C3762 C 0.40677 0.83618 0.57863
 C3763 C 0.41437 0.85089 0.57091
 C3764 C 0.43237 0.85135 0.56750
 C3765 C 0.44263 0.83679 0.57188
 C3766 C 0.43501 0.82198 0.57943
 H3767 H 0.37227 0.75148 0.59092
 H3768 H 0.35866 0.72595 0.60427
 H3769 H 0.38252 0.73898 0.65372
 H3770 H 0.39568 0.76481 0.64057
 H3771 H 0.41748 0.77409 0.62115
 H3772 H 0.43061 0.80006 0.60828
 H3773 H 0.38477 0.80740 0.57619
 H3774 H 0.37119 0.78214 0.58990
 H3775 H 0.39293 0.83645 0.58146
 H3776 H 0.40621 0.86207 0.56790
 H3777 H 0.45652 0.83677 0.56922
 H3778 H 0.44321 0.81081 0.58229
 C3779 C 0.38507 0.26017 1.11445
 C3780 C 0.37499 0.24865 1.10428
 C3781 C 0.36722 0.23393 1.11183
 C3782 C 0.36948 0.23031 1.12970
 C3783 C 0.37955 0.24179 1.13988
 C3784 C 0.38719 0.25658 1.13237
 C3785 C 0.39333 0.27584 1.10642
 C3786 C 0.41000 0.28142 1.11174
 C3787 C 0.41775 0.29613 1.10415
 C3788 C 0.40908 0.30558 1.09098
 C3789 C 0.39242 0.29999 1.08566
 C3790 C 0.38463 0.28535 1.09332
 C3791 C 0.41733 0.32119 1.08281
 C3792 C 0.40716 0.33578 1.07814
 C3793 C 0.41483 0.35038 1.07029
 C3794 C 0.43287 0.35081 1.06710
 C3795 C 0.44310 0.33634 1.07184
 C3796 C 0.43541 0.32164 1.07953
 H3797 H 0.37332 0.25082 1.09039
 H3798 H 0.35971 0.22524 1.10358
 H3799 H 0.38133 0.23950 1.15373
 H3800 H 0.39457 0.26535 1.14067
 H3801 H 0.41717 0.27430 1.12165
 H3802 H 0.43048 0.30020 1.10875
 H3803 H 0.38543 0.30682 1.07542
 H3804 H 0.37168 0.28160 1.08907
 H3805 H 0.39328 0.33605 1.08078
 H3806 H 0.40669 0.36150 1.06700
 H3807 H 0.45702 0.33632 1.06936
 H3808 H 0.44359 0.31053 1.08268
 C3809 C 1.11416 1.11497 0.75830
 C3810 C 1.10913 1.13171 0.75276
 C3811 C 1.11652 1.13913 0.73778
 C3812 C 1.12937 1.13011 0.72812
 C3813 C 1.13450 1.11336 0.73396
 C3814 C 1.12687 1.10586 0.74877
 C3815 C 1.10615 1.10694 0.77397
 C3816 C 1.09935 1.08992 0.77320
 C3817 C 1.09180 1.08229 0.78798
 C3818 C 1.09115 1.09140 0.80397
 C3819 C 1.09817 1.10841 0.80469
 C3820 C 1.10541 1.11616 0.78980
 C3821 C 1.08307 1.08326 0.81975
 C3822 C 1.07422 1.09359 0.83212
 C3823 C 1.06680 1.08604 0.84699
 C3824 C 1.06766 1.06786 0.84977
 C3825 C 1.07629 1.05749 0.83728
 C3826 C 1.08406 1.06510 0.82259
 H3827 H 1.09929 1.13896 0.75989
 H3828 H 1.11218 1.15205 0.73403
 H3829 H 1.14426 1.10580 0.72710
 H3830 H 1.13106 1.09298 0.75293
 H3831 H 1.09965 1.08263 0.76105
 H3832 H 1.08626 1.06933 0.78675
 H3833 H 1.09835 1.11571 0.81682
 H3834 H 1.11075 1.12925 0.79074
 H3835 H 1.07287 1.10757 0.83030
 H3836 H 1.06056 1.09457 0.85640
 H3837 H 1.07699 1.04343 0.83876
 H3838 H 1.09100 1.05670 0.81358
 C3839 C 1.11439 0.61521 0.25891
 C3840 C 1.10928 0.63187 0.25321
 C3841 C 1.11665 0.63921 0.23817
 C3842 C 1.12965 0.63021 0.22866
 C3843 C 1.13486 0.61356 0.23467
 C3844 C 1.12719 0.60611 0.24950
 C3845 C 1.10628 0.60721 0.27455
 C3846 C 1.09932 0.59026 0.27369
 C3847 C 1.09160 0.58265 0.28840
 C3848 C 1.09098 0.59169 0.30444
 C3849 C 1.09820 0.60862 0.30526
 C3850 C 1.10559 0.61636 0.29043
 C3851 C 1.08282 0.58353 0.32018
 C3852 C 1.07407 0.59386 0.33263
 C3853 C 1.06667 0.58628 0.34751
 C3854 C 1.06743 0.56809 0.35021
 C3855 C 1.07594 0.55772 0.33763
 C3856 C 1.08369 0.56534 0.32293
 H3857 H 1.09934 0.63910 0.26024
 H3858 H 1.11223 0.65205 0.23425
 H3859 H 1.14464 0.60598 0.22785
 H3860 H 1.13138 0.59325 0.25372
 H3861 H 1.09960 0.58302 0.26152
 H3862 H 1.08591 0.56977 0.28709
 H3863 H 1.09839 0.61585 0.31743
 H3864 H 1.11109 0.62937 0.29145
 H3865 H 1.07281 0.60784 0.33088
 H3866 H 1.06054 0.59480 0.35701
 H3867 H 1.07658 0.54365 0.33906
 H3868 H 1.09053 0.55693 0.31385
 C3869 C 0.61519 1.11562 0.25941
 C3870 C 0.61033 1.13243 0.25395
 C3871 C 0.61790 1.13992 0.23908
 C3872 C 0.63080 1.13088 0.22950
 C3873 C 0.63579 1.11407 0.23530
 C3874 C 0.62794 1.10650 0.24996
 C3875 C 0.60690 1.10752 0.27489
 C3876 C 0.59966 1.09071 0.27378
 C3877 C 0.59176 1.08305 0.28836
 C3878 C 0.59126 1.09189 0.30451
 C3879 C 0.59872 1.10870 0.30557
 C3880 C 0.60629 1.11649 0.29087
 C3881 C 0.58297 1.08366 0.32012
 C3882 C 0.57428 1.09395 0.33264
 C3883 C 0.56674 1.08629 0.34740
 C3884 C 0.56734 1.06806 0.34990
 C3885 C 0.57579 1.05774 0.33725
 C3886 C 0.58367 1.06544 0.32268
 H3887 H 0.60045 1.13968 0.26104
 H3888 H 0.61370 1.15289 0.23536
 H3889 H 0.64555 1.10649 0.22847
 H3890 H 0.63194 1.09353 0.25402
 H3891 H 0.59986 1.08361 0.26152
 H3892 H 0.58587 1.07027 0.28689
 H3893 H 0.59899 1.11577 0.31782
 H3894 H 0.61199 1.12939 0.29206
 H3895 H 0.57318 1.10797 0.33104
 H3896 H 0.56066 1.09476 0.35696
 H3897 H 0.57629 1.04365 0.33854
 H3898 H 0.59050 1.05708 0.31354
 C3899 C 0.61473 0.61493 0.75935
 C3900 C 0.60457 0.62483 0.74764
 C3901 C 0.61212 0.63248 0.73286
 C3902 C 0.62998 0.63019 0.72933
 C3903 C 0.64013 0.62025 0.74095
 C3904 C 0.63261 0.61276 0.75582
 C3905 C 0.60669 0.60682 0.77509
 C3906 C 0.61197 0.59016 0.78083
 C3907 C 0.60429 0.58250 0.79554
 C3908 C 0.59108 0.59127 0.80482
 C3909 C 0.58581 0.60792 0.79907
 C3910 C 0.59358 0.61564 0.78446
 C3911 C 0.58287 0.58312 0.82044
 C3912 C 0.57821 0.59338 0.83498
 C3913 C 0.57050 0.58574 0.84965
 C3914 C 0.56742 0.56764 0.85020
 C3915 C 0.57212 0.55734 0.83576
 C3916 C 0.57966 0.56501 0.82099
 H3917 H 0.59068 0.62644 0.74975
 H3918 H 0.60390 0.63992 0.72407
 H3919 H 0.65397 0.61848 0.73875
 H3920 H 0.64088 0.60546 0.76468
 H3921 H 0.62190 0.58290 0.77384
 H3922 H 0.60882 0.56976 0.79972
 H3923 H 0.57549 0.61494 0.80575
 H3924 H 0.58941 0.62860 0.78059
 H3925 H 0.58077 0.60731 0.83515
 H3926 H 0.56724 0.59393 0.86074
 H3927 H 0.56972 0.54337 0.83583
 H3928 H 0.58276 0.55677 0.80990
 C3929 C 0.88589 0.88554 0.75906
 C3930 C 0.86806 0.88794 0.75539
 C3931 C 0.86053 0.88047 0.74053
 C3932 C 0.87060 0.87028 0.72905
 C3933 C 0.88836 0.86767 0.73278
 C3934 C 0.89594 0.87529 0.74756
 C3935 C 0.89394 0.89372 0.77478
 C3936 C 0.90688 0.88488 0.78436
 C3937 C 0.91447 0.89259 0.79908
 C3938 C 0.90920 0.90930 0.80471
 C3939 C 0.89621 0.91812 0.79516
 C3940 C 0.88873 0.91046 0.78035
 C3941 C 0.91720 0.91745 0.82048
 C3942 C 0.92042 0.93557 0.82111
 C3943 C 0.92787 0.94319 0.83597
 C3944 C 0.93245 0.93285 0.85043
 C3945 C 0.92931 0.91476 0.84982
 C3946 C 0.92169 0.90717 0.83506
 H3947 H 0.85983 0.89542 0.76414
 H3948 H 0.84673 0.88247 0.73820
 H3949 H 0.89650 0.86000 0.72412
 H3950 H 0.90977 0.87338 0.74981
 H3951 H 0.91104 0.87187 0.78061
 H3952 H 0.92459 0.88551 0.80597
 H3953 H 0.89165 0.93089 0.79923
 H3954 H 0.87895 0.91775 0.77318
 H3955 H 0.91742 0.94385 0.81002
 H3956 H 0.93031 0.95715 0.83607
 H3957 H 0.93249 0.90654 0.86091
 H3958 H 0.91908 0.89325 0.83520
 C3959 C 0.88613 0.38549 0.25856
 C3960 C 0.89074 0.36852 0.25337
 C3961 C 0.88332 0.36103 0.23844
 C3962 C 0.87080 0.37022 0.22848
 C3963 C 0.86619 0.38725 0.23390
 C3964 C 0.87386 0.39480 0.24866
 C3965 C 0.89415 0.39350 0.27425
 C3966 C 0.90134 0.41036 0.27340
 C3967 C 0.90906 0.41789 0.28815
 C3968 C 0.90947 0.40886 0.30420
 C3969 C 0.90204 0.39203 0.30502
 C3970 C 0.89462 0.38438 0.29017
 C3971 C 0.91756 0.41695 0.31999
 C3972 C 0.92622 0.40655 0.33246
 C3973 C 0.93357 0.41407 0.34738
 C3974 C 0.93282 0.43225 0.35011
 C3975 C 0.92434 0.44268 0.33756
 C3976 C 0.91668 0.43512 0.32279
 H3977 H 0.90029 0.36112 0.26075
 H3978 H 0.88734 0.34793 0.23496
 H3979 H 0.85679 0.39498 0.22673
 H3980 H 0.87003 0.40789 0.25249
 H3981 H 0.90124 0.41759 0.26122
 H3982 H 0.91492 0.43070 0.28687
 H3983 H 0.90171 0.38481 0.31719
 H3984 H 0.88893 0.37145 0.29120
 H3985 H 0.92746 0.39257 0.33068
 H3986 H 0.93965 0.40553 0.35689
 H3987 H 0.92367 0.45674 0.33906
 H3988 H 0.90988 0.44355 0.31369
 C3989 C 0.38614 0.88465 0.25870
 C3990 C 0.36930 0.88950 0.25344
 C3991 C 0.36177 0.88214 0.23850
 C3992 C 0.37079 0.86949 0.22856
 C3993 C 0.38763 0.86448 0.23414
 C3994 C 0.39525 0.87210 0.24892
 C3995 C 0.39420 0.89275 0.27432
 C3996 C 0.41102 0.89994 0.27338
 C3997 C 0.41855 0.90783 0.28804
 C3998 C 0.40953 0.90847 0.30408
 C3999 C 0.39273 0.90104 0.30499
 C4000 C 0.38508 0.89346 0.29022
 C4001 C 0.41755 0.91692 0.31972
 C4002 C 0.40712 0.92576 0.33202
 C4003 C 0.41456 0.93341 0.34683
 C4004 C 0.43271 0.93281 0.34960
 C4005 C 0.44319 0.92428 0.33712
 C4006 C 0.43570 0.91627 0.32251
 H4007 H 0.36204 0.89922 0.26076
 H4008 H 0.34878 0.88639 0.23498
 H4009 H 0.39519 0.85488 0.22704
 H4010 H 0.40823 0.86807 0.25283
 H4011 H 0.41820 0.89978 0.26118
 H4012 H 0.43133 0.91370 0.28669
 H4013 H 0.38551 0.90087 0.31716
 H4014 H 0.37211 0.88792 0.29127
 H4015 H 0.39316 0.92690 0.33020
 H4016 H 0.40598 0.93958 0.35623
 H4017 H 0.45723 0.92381 0.33859
 H4018 H 0.44418 0.90940 0.31352
 C4019 C 0.38645 0.38547 0.75889
 C4020 C 0.37559 0.39540 0.74793
 C4021 C 0.36814 0.38794 0.73302
 C4022 C 0.37149 0.37040 0.72865
 C4023 C 0.38246 0.36047 0.73958
 C4024 C 0.38976 0.36790 0.75462
 C4025 C 0.39438 0.39350 0.77465
 C4026 C 0.39408 0.38474 0.79078
 C4027 C 0.40143 0.39243 0.80565
 C4028 C 0.40946 0.40897 0.80467
 C4029 C 0.40979 0.41766 0.78845
 C4030 C 0.40222 0.41007 0.77365
 C4031 C 0.41746 0.41708 0.82049
 C4032 C 0.41692 0.43530 0.82307
 C4033 C 0.42453 0.44286 0.83786
 C4034 C 0.43264 0.43240 0.85064
 C4035 C 0.43303 0.41418 0.84813
 C4036 C 0.42571 0.40665 0.83319
 H4037 H 0.37269 0.40892 0.75102
 H4038 H 0.35989 0.39600 0.72484
 H4039 H 0.38525 0.34691 0.73666
 H4040 H 0.39819 0.35998 0.76280
 H4041 H 0.38787 0.37207 0.79197
 H4042 H 0.40057 0.38550 0.81796
 H4043 H 0.41613 0.43024 0.78708
 H4044 H 0.40274 0.41705 0.76133
 H4045 H 0.41043 0.44375 0.81375
 H4046 H 0.42414 0.45695 0.83920
 H4047 H 0.43882 0.40562 0.85780
 H4048 H 0.42665 0.39262 0.83158
 C4049 C 1.11457 0.88457 1.24053
 C4050 C 1.11227 0.86669 1.24423
 C4051 C 1.11988 0.85917 1.25906
 C4052 C 1.13011 0.86930 1.27044
 C4053 C 1.13247 0.88714 1.26674
 C4054 C 1.12473 0.89470 1.25202
 C4055 C 1.10642 0.89265 1.22480
 C4056 C 1.11524 0.90571 1.21530
 C4057 C 1.10746 0.91353 1.20071
 C4058 C 1.09079 0.90830 1.19518
 C4059 C 1.08207 0.89508 1.20444
 C4060 C 1.08974 0.88741 1.21915
 C4061 C 1.08258 0.91650 1.17967
 C4062 C 1.07473 0.90608 1.16678
 C4063 C 1.06717 0.91373 1.15203
 C4064 C 1.06707 0.93202 1.14994
 C4065 C 1.07481 0.94245 1.16296
 C4066 C 1.08258 0.93475 1.17762
 H4067 H 1.10480 0.85840 1.23552
 H4068 H 1.11795 0.84535 1.26143
 H4069 H 1.14005 0.89537 1.27538
 H4070 H 1.12651 0.90857 1.24978
 H4071 H 1.12827 0.90976 1.21899
 H4072 H 1.11459 0.92346 1.19357
 H4073 H 1.06916 0.89089 1.20047
 H4074 H 1.08247 0.87756 1.22624
 H4075 H 1.07475 0.89196 1.16796
 H4076 H 1.06172 0.90526 1.14210
 H4077 H 1.07473 0.95657 1.16193
 H4078 H 1.08838 0.94308 1.18749
 C4079 C 1.11451 0.38489 0.74058
 C4080 C 1.10432 0.37497 0.75224
 C4081 C 1.11182 0.36741 0.76710
 C4082 C 1.12964 0.36974 0.77074
 C4083 C 1.13983 0.37965 0.75912
 C4084 C 1.13237 0.38708 0.74419
 C4085 C 1.10654 0.39305 0.72482
 C4086 C 1.11186 0.40972 0.71918
 C4087 C 1.10431 0.41745 0.70445
 C4088 C 1.09116 0.40875 0.69502
 C4089 C 1.08585 0.39207 0.70065
 C4090 C 1.09350 0.38428 0.71531
 C4091 C 1.08306 0.41701 0.67938
 C4092 C 1.07846 0.40682 0.66478
 C4093 C 1.07079 0.41454 0.65011
 C4094 C 1.06768 0.43264 0.64964
 C4095 C 1.07234 0.44288 0.66413
 C4096 C 1.07985 0.43513 0.67890
 H4097 H 1.09045 0.37330 0.75005
 H4098 H 1.10357 0.36000 0.77589
 H4099 H 1.15365 0.38150 0.76140
 H4100 H 1.14068 0.39437 0.73536
 H4101 H 1.12174 0.41693 0.72628
 H4102 H 1.10890 0.43020 0.70035
 H4103 H 1.07561 0.38508 0.69385
 H4104 H 1.08930 0.37130 0.71910
 H4105 H 1.08101 0.39290 0.66455
 H4106 H 1.06755 0.40640 0.63899
 H4107 H 1.06992 0.45684 0.66414
 H4108 H 1.08291 0.44331 0.69004
 C4109 C 0.61457 0.88531 0.74084
 C4110 C 0.60452 0.87536 0.75259
 C4111 C 0.61218 0.86783 0.76737
 C4112 C 0.63002 0.87020 0.77084
 C4113 C 0.64009 0.88014 0.75914
 C4114 C 0.63248 0.88753 0.74427
 C4115 C 0.60641 0.89337 0.72513
 C4116 C 0.61165 0.91003 0.71938
 C4117 C 0.60400 0.91764 0.70464
 C4118 C 0.59082 0.90886 0.69535
 C4119 C 0.58555 0.89221 0.70112
 C4120 C 0.59330 0.88453 0.71578
 C4121 C 0.58260 0.91701 0.67971
 C4122 C 0.57796 0.90675 0.66517
 C4123 C 0.57019 0.91438 0.65051
 C4124 C 0.56702 0.93246 0.64998
 C4125 C 0.57171 0.94277 0.66441
 C4126 C 0.57933 0.93512 0.67916
 H4127 H 0.59066 0.87358 0.75050
 H4128 H 0.60403 0.86039 0.77622
 H4129 H 0.65393 0.88198 0.76130
 H4130 H 0.64069 0.89476 0.73530
 H4131 H 0.62155 0.91730 0.72639
 H4132 H 0.60854 0.93038 0.70045
 H4133 H 0.57528 0.88517 0.69442
 H4134 H 0.58910 0.87159 0.71970
 H4135 H 0.58060 0.89284 0.66497
 H4136 H 0.56694 0.90620 0.63941
 H4137 H 0.56926 0.95673 0.66436
 H4138 H 0.58245 0.94337 0.69024
 C4139 C 0.61480 0.38454 1.24061
 C4140 C 0.60543 0.37261 1.25099
 C4141 C 0.61310 0.36487 1.26568
 C4142 C 0.63029 0.36914 1.27070
 C4143 C 0.63963 0.38111 1.26026
 C4144 C 0.63205 0.38857 1.24540
 C4145 C 0.60665 0.39274 1.22488
 C4146 C 0.61082 0.40999 1.21998
 C4147 C 0.60322 0.41763 1.20520
 C4148 C 0.59102 0.40836 1.19506
 C4149 C 0.58682 0.39113 1.19999
 C4150 C 0.59462 0.38339 1.21459
 C4151 C 0.58278 0.41657 1.17941
 C4152 C 0.57874 0.40646 1.16456
 C4153 C 0.57099 0.41413 1.14990
 C4154 C 0.56731 0.43211 1.14963
 C4155 C 0.57137 0.44228 1.16434
 C4156 C 0.57889 0.43458 1.17913
 H4157 H 0.59200 0.36942 1.24798
 H4158 H 0.60526 0.35589 1.27327
 H4159 H 0.65297 0.38459 1.26324
 H4160 H 0.63986 0.39735 1.23752
 H4161 H 0.61985 0.41771 1.22763
 H4162 H 0.60708 0.43078 1.20165
 H4163 H 0.57736 0.38361 1.19265
 H4164 H 0.59131 0.36999 1.21770
 H4165 H 0.58182 0.39265 1.16410
 H4166 H 0.56816 0.40605 1.13861
 H4167 H 0.56849 0.45615 1.16448
 H4168 H 0.58144 0.44272 1.19041
 C4169 C 0.88597 1.11420 1.24097
 C4170 C 0.87442 1.10449 1.25142
 C4171 C 0.86676 1.11201 1.26619
 C4172 C 0.87057 1.12937 1.27091
 C4173 C 0.88216 1.13907 1.26045
 C4174 C 0.88971 1.13158 1.24558
 C4175 C 0.89408 1.10617 1.22531
 C4176 C 0.89446 1.11522 1.20934
 C4177 C 0.90192 1.10755 1.19452
 C4178 C 0.90942 1.09074 1.19538
 C4179 C 0.90910 1.08178 1.21147
 C4180 C 0.90141 1.08936 1.22622
 C4181 C 0.91754 1.08264 1.17960
 C4182 C 0.91665 1.06447 1.17679
 C4183 C 0.92434 1.05690 1.16203
 C4184 C 0.93293 1.06730 1.14952
 C4185 C 0.93371 1.08548 1.15229
 C4186 C 0.92626 1.09301 1.16717
 H4187 H 0.87116 1.09113 1.24804
 H4188 H 0.85796 1.10412 1.27397
 H4189 H 0.88529 1.15250 1.26361
 H4190 H 0.89866 1.13933 1.23781
 H4191 H 0.88867 1.12810 1.20824
 H4192 H 0.90155 1.11474 1.18232
 H4193 H 0.91501 1.06898 1.21279
 H4194 H 0.90143 1.08218 1.23844
 H4195 H 0.90982 1.05605 1.18588
 H4196 H 0.92361 1.04284 1.16050
 H4197 H 0.93989 1.09401 1.14284
 H4198 H 0.92745 1.10701 1.16893
 C4199 C 0.88594 0.61424 0.74065
 C4200 C 0.87484 0.60440 0.75145
 C4201 C 0.86721 0.61195 0.76624
 C4202 C 0.87067 0.62945 0.77065
 C4203 C 0.88188 0.63927 0.75990
 C4204 C 0.88936 0.63176 0.74499
 C4205 C 0.89393 0.60620 0.72493
 C4206 C 0.89375 0.61502 0.70882
 C4207 C 0.90115 0.60736 0.69397
 C4208 C 0.90915 0.59080 0.69493
 C4209 C 0.90935 0.58204 0.71112
 C4210 C 0.90171 0.58960 0.72591
 C4211 C 0.91722 0.58270 0.67913
 C4212 C 0.91666 0.56449 0.67654
 C4213 C 0.92433 0.55690 0.66178
 C4214 C 0.93251 0.56734 0.64904
 C4215 C 0.93295 0.58557 0.65158
 C4216 C 0.92555 0.59312 0.66647
 H4217 H 0.87191 0.59090 0.74834
 H4218 H 0.85877 0.60396 0.77430
 H4219 H 0.88477 0.65280 0.76287
 H4220 H 0.89801 0.63958 0.73696
 H4221 H 0.88757 0.62772 0.70765
 H4222 H 0.90037 0.61434 0.68167
 H4223 H 0.91563 0.56943 0.71249
 H4224 H 0.90214 0.58258 0.73821
 H4225 H 0.91012 0.55604 0.68581
 H4226 H 0.92391 0.54282 0.66043
 H4227 H 0.93883 0.59411 0.64194
 H4228 H 0.92650 0.60715 0.66809
 C4229 C 0.38611 1.11495 0.74027
 C4230 C 0.38801 1.13292 0.74362
 C4231 C 0.38038 1.14044 0.75844
 C4232 C 0.37055 1.13016 0.77005
 C4233 C 0.36847 1.11224 0.76656
 C4234 C 0.37626 1.10470 0.75187
 C4235 C 0.39434 1.10689 0.72470
 C4236 C 0.40376 1.09119 0.72623
 C4237 C 0.41151 1.08356 0.71153
 C4238 C 0.40972 1.09133 0.69498
 C4239 C 0.40022 1.10698 0.69343
 C4240 C 0.39273 1.11476 0.70818
 C4241 C 0.41765 1.08308 0.67934
 C4242 C 0.40769 1.08043 0.66415
 C4243 C 0.41510 1.07245 0.64946
 C4244 C 0.43270 1.06732 0.64958
 C4245 C 0.44274 1.07017 0.66467
 C4246 C 0.43522 1.07780 0.67950
 H4247 H 0.39555 1.14112 0.73488
 H4248 H 0.38201 1.15432 0.76067
 H4249 H 0.36100 1.10398 0.77527
 H4250 H 0.37439 1.09087 0.74945
 H4251 H 0.40527 1.08491 0.73885
 H4252 H 0.41869 1.07145 0.71303
 H4253 H 0.39875 1.11327 0.68083
 H4254 H 0.38542 1.12680 0.70666
 H4255 H 0.39411 1.08435 0.66372
 H4256 H 0.40718 1.07050 0.63789
 H4257 H 0.45635 1.06633 0.66501
 H4258 H 0.44318 1.07982 0.69103
 C4259 C 0.38604 0.61550 1.24060
 C4260 C 0.36843 0.61244 1.24465
 C4261 C 0.36092 0.61983 1.25958
 C4262 C 0.37083 0.63059 1.27071
 C4263 C 0.38842 0.63379 1.26654
 C4264 C 0.39597 0.62625 1.25169
 C4265 C 0.39406 0.60734 1.22494
 C4266 C 0.41039 0.59910 1.22610
 C4267 C 0.41780 0.59108 1.21144
 C4268 C 0.40914 0.59130 1.19520
 C4269 C 0.39285 0.59975 1.19406
 C4270 C 0.38534 0.60757 1.20878
 C4271 C 0.41708 0.58279 1.17956
 C4272 C 0.40654 0.57451 1.16698
 C4273 C 0.41395 0.56683 1.15215
 C4274 C 0.43214 0.56696 1.14961
 C4275 C 0.44270 0.57502 1.16232
 C4276 C 0.43526 0.58293 1.17701
 H4277 H 0.36052 0.60409 1.23640
 H4278 H 0.34732 0.61718 1.26230
 H4279 H 0.39646 0.64193 1.27485
 H4280 H 0.40954 0.62894 1.24878
 H4281 H 0.41729 0.59855 1.23846
 H4282 H 0.43020 0.58446 1.21294
 H4283 H 0.38595 0.60054 1.18172
 H4284 H 0.37281 0.61402 1.20749
 H4285 H 0.39252 0.57385 1.16859
 H4286 H 0.40534 0.56104 1.14253
 H4287 H 0.45676 0.57521 1.16096
 H4288 H 0.44381 0.58938 1.18626
 C4289 C 1.11452 1.24067 0.88535
 C4290 C 1.13168 1.24562 0.88958
 C4291 C 1.13919 1.26056 0.88222
 C4292 C 1.12990 1.27088 0.87010
 C4293 C 1.11277 1.26577 0.86572
 C4294 C 1.10515 1.25101 0.87338
 C4295 C 1.10647 1.22484 0.89344
 C4296 C 1.09458 1.21447 0.88400
 C4297 C 1.08689 1.19977 0.89166
 C4298 C 1.09110 1.19481 0.90887
 C4299 C 1.10312 1.20506 0.91825
 C4300 C 1.11059 1.21993 0.91070
 C4301 C 1.08307 1.17898 0.91694
 C4302 C 1.07916 1.17851 0.93493
 C4303 C 1.07179 1.16357 0.94248
 C4304 C 1.06789 1.14893 0.93216
 C4305 C 1.07163 1.14938 0.91420
 C4306 C 1.07925 1.16417 0.90669
 H4307 H 1.13949 1.23781 0.89842
 H4308 H 1.15247 1.26367 0.88586
 H4309 H 1.10495 1.27334 0.85670
 H4310 H 1.09176 1.24790 0.87009
 H4311 H 1.09131 1.21758 0.87059
 H4312 H 1.07749 1.19239 0.88410
 H4313 H 1.10693 1.20153 0.93142
 H4314 H 1.11950 1.22765 0.91850
 H4315 H 1.08154 1.18976 0.94318
 H4316 H 1.06885 1.16356 0.95634
 H4317 H 1.06893 1.13814 0.90602
 H4318 H 1.08237 1.16387 0.89289
 C4319 C 1.11522 0.74006 0.38465
 C4320 C 1.12820 0.74931 0.39365
 C4321 C 1.13607 0.76397 0.38609
 C4322 C 1.13091 0.76996 0.36942
 C4323 C 1.11775 0.76061 0.36051
 C4324 C 1.11014 0.74575 0.36798
 C4325 C 1.10694 0.72455 0.39273
 C4326 C 1.10591 0.70871 0.38355
 C4327 C 1.09836 0.69398 0.39133
 C4328 C 1.09134 0.69487 0.40834
 C4329 C 1.09227 0.71087 0.41740
 C4330 C 1.10013 0.72549 0.40975
 C4331 C 1.08302 0.67923 0.41654
 C4332 C 1.08395 0.67644 0.43471
 C4333 C 1.07610 0.66181 0.44236
 C4334 C 1.06741 0.64933 0.43201
 C4335 C 1.06655 0.65210 0.41383
 C4336 C 1.07405 0.66692 0.40625
 H4337 H 1.13240 0.74507 0.40650
 H4338 H 1.14596 0.77069 0.39360
 H4339 H 1.11332 0.76451 0.34768
 H4340 H 1.10009 0.73884 0.36080
 H4341 H 1.11122 0.70765 0.37047
 H4342 H 1.09824 0.68186 0.38402
 H4343 H 1.08666 0.71225 0.43032
 H4344 H 1.10061 0.73764 0.41700
 H4345 H 1.09094 0.68543 0.44310
 H4346 H 1.07681 0.66035 0.45642
 H4347 H 1.06027 0.64272 0.40531
 H4348 H 1.07270 0.66872 0.39228
 C4349 C 0.61421 1.24134 0.38531
 C4350 C 0.60504 1.25133 0.37296
 C4351 C 0.61270 1.26609 0.36536
 C4352 C 0.62968 1.27144 0.37015
 C4353 C 0.63874 1.26135 0.38267
 C4354 C 0.63113 1.24645 0.39004
 C4355 C 0.60616 1.22561 0.39325
 C4356 C 0.61541 1.20978 0.39398
 C4357 C 0.60782 1.19491 0.40143
 C4358 C 0.59092 1.19561 0.40865
 C4359 C 0.58175 1.21157 0.40797
 C4360 C 0.58923 1.22635 0.40022
 C4361 C 0.58293 1.17982 0.41691
 C4362 C 0.56481 1.17692 0.41609
 C4363 C 0.55733 1.16221 0.42393
 C4364 C 0.56779 1.14973 0.43251
 C4365 C 0.58592 1.15259 0.43327
 C4366 C 0.59335 1.16750 0.42575
 H4367 H 0.59199 1.24756 0.36900
 H4368 H 0.60511 1.27330 0.35587
 H4369 H 0.65180 1.26472 0.38681
 H4370 H 0.63842 1.23903 0.39965
 H4371 H 0.62844 1.20885 0.38855
 H4372 H 0.61518 1.18281 0.40130
 H4373 H 0.56888 1.21279 0.41367
 H4374 H 0.58192 1.23848 0.40001
 H4375 H 0.55634 1.18591 0.40919
 H4376 H 0.54330 1.16068 0.42330
 H4377 H 0.59450 1.14321 0.43946
 H4378 H 0.60730 1.16937 0.42699
 C4379 C 0.61403 0.74081 0.88547
 C4380 C 0.60425 0.75190 0.87459
 C4381 C 0.61190 0.76674 0.86714
 C4382 C 0.62944 0.77090 0.87058
 C4383 C 0.63920 0.75980 0.88151
 C4384 C 0.63160 0.74486 0.88879
 C4385 C 0.60594 0.72507 0.89338
 C4386 C 0.61464 0.70891 0.89304
 C4387 C 0.60704 0.69409 0.90057
 C4388 C 0.59065 0.69515 0.90885
 C4389 C 0.58199 0.71139 0.90916
 C4390 C 0.58950 0.72615 0.90142
 C4391 C 0.58267 0.67942 0.91715
 C4392 C 0.56449 0.67685 0.91686
 C4393 C 0.55702 0.66209 0.92464
 C4394 C 0.56755 0.64936 0.93272
 C4395 C 0.58573 0.65190 0.93296
 C4396 C 0.59317 0.66678 0.92541
 H4397 H 0.59074 0.74897 0.87165
 H4398 H 0.60399 0.77503 0.85884
 H4399 H 0.65278 0.76251 0.88431
 H4400 H 0.63941 0.73656 0.89720
 H4401 H 0.62724 0.70769 0.88673
 H4402 H 0.61393 0.68176 0.89971
 H4403 H 0.56951 0.71283 0.91566
 H4404 H 0.58261 0.73851 0.90203
 H4405 H 0.55597 0.68613 0.91041
 H4406 H 0.54296 0.66072 0.92436
 H4407 H 0.59432 0.64227 0.93875
 H4408 H 0.60719 0.66840 0.92618
 C4409 C 0.88588 1.24065 1.11489
 C4410 C 0.86848 1.24499 1.11106
 C4411 C 0.86072 1.25973 1.11858
 C4412 C 0.87015 1.27037 1.13023
 C4413 C 0.88758 1.26601 1.13403
 C4414 C 0.89538 1.25134 1.12639
 C4415 C 0.89408 1.22500 1.10691
 C4416 C 0.91086 1.22599 1.09959
 C4417 C 0.91849 1.21129 1.09184
 C4418 C 0.90962 1.19517 1.09144
 C4419 C 0.89287 1.19420 1.09900
 C4420 C 0.88515 1.20897 1.10651
 C4421 C 0.91774 1.17949 1.08313
 C4422 C 0.90740 1.16709 1.07434
 C4423 C 0.91495 1.15229 1.06675
 C4424 C 0.93312 1.14958 1.06743
 C4425 C 0.94348 1.16209 1.07604
 C4426 C 0.93589 1.17676 1.08389
 H4427 H 0.86092 1.23708 1.10208
 H4428 H 0.84727 1.26262 1.11538
 H4429 H 0.89530 1.27395 1.14283
 H4430 H 0.90878 1.24822 1.12967
 H4431 H 0.91795 1.23825 1.09955
 H4432 H 0.93125 1.21269 1.08592
 H4433 H 0.88576 1.18197 1.09933
 H4434 H 0.87228 1.20780 1.11227
 H4435 H 0.89342 1.16883 1.07319
 H4436 H 0.90644 1.14285 1.06055
 H4437 H 0.95752 1.16063 1.07667
 H4438 H 0.94429 1.18584 1.09074
 C4439 C 0.88558 0.74031 0.61474
 C4440 C 0.89561 0.75190 0.62489
 C4441 C 0.88799 0.76669 0.63248
 C4442 C 0.87020 0.77033 0.62996
 C4443 C 0.86014 0.75877 0.61985
 C4444 C 0.86772 0.74390 0.61239
 C4445 C 0.89370 0.72460 0.60658
 C4446 C 0.88854 0.71897 0.58985
 C4447 C 0.89616 0.70423 0.58219
 C4448 C 0.90923 0.69478 0.59100
 C4449 C 0.91441 0.70043 0.60772
 C4450 C 0.90671 0.71510 0.61543
 C4451 C 0.91740 0.67909 0.58284
 C4452 C 0.92197 0.66451 0.59310
 C4453 C 0.92971 0.64982 0.58548
 C4454 C 0.93290 0.64927 0.56740
 C4455 C 0.92830 0.66375 0.55709
 C4456 C 0.92071 0.67854 0.56474
 H4457 H 0.90945 0.74973 0.62675
 H4458 H 0.89613 0.77541 0.64007
 H4459 H 0.84633 0.76103 0.61791
 H4460 H 0.85951 0.73509 0.60497
 H4461 H 0.87872 0.72608 0.58256
 H4462 H 0.89167 0.70013 0.56940
 H4463 H 0.92457 0.69361 0.61482
 H4464 H 0.91084 0.71890 0.62843
 H4465 H 0.91932 0.66431 0.60700
 H4466 H 0.93292 0.63872 0.59368
 H4467 H 0.93081 0.66372 0.54315
 H4468 H 0.91767 0.68964 0.55649
 C4469 C 0.38517 1.23996 0.61523
 C4470 C 0.39449 1.25017 0.62738
 C4471 C 0.38683 1.26487 0.63514
 C4472 C 0.36972 1.27006 0.63072
 C4473 C 0.36049 1.25984 0.61848
 C4474 C 0.36803 1.24496 0.61102
 C4475 C 0.39328 1.22423 0.60697
 C4476 C 0.38919 1.21950 0.58965
 C4477 C 0.39677 1.20476 0.58192
 C4478 C 0.40884 1.19446 0.59119
 C4479 C 0.41297 1.19921 0.60848
 C4480 C 0.40517 1.21377 0.61632
 C4481 C 0.41700 1.17876 0.58298
 C4482 C 0.42090 1.16389 0.59311
 C4483 C 0.42869 1.14923 0.58553
 C4484 C 0.43250 1.14894 0.56758
 C4485 C 0.42852 1.16365 0.55735
 C4486 C 0.42098 1.17847 0.56499
 H4487 H 0.40785 1.24699 0.63072
 H4488 H 0.39461 1.27232 0.64429
 H4489 H 0.34722 1.26298 0.61484
 H4490 H 0.36025 1.23724 0.60209
 H4491 H 0.38024 1.22726 0.58193
 H4492 H 0.39299 1.20136 0.56871
 H4493 H 0.42237 1.19177 0.61599
 H4494 H 0.40837 1.21669 0.62979
 H4495 H 0.41772 1.16343 0.60689
 H4496 H 0.43147 1.13795 0.59364
 H4497 H 0.43153 1.16376 0.54351
 H4498 H 0.41851 1.18976 0.55681
 C4499 C 0.38565 0.74060 1.11499
 C4500 C 0.39501 0.75090 1.12699
 C4501 C 0.38737 0.76562 1.13469
 C4502 C 0.37021 0.77070 1.13037
 C4503 C 0.36089 0.76035 1.11832
 C4504 C 0.36845 0.74548 1.11086
 C4505 C 0.39377 0.72488 1.10680
 C4506 C 0.38982 0.72021 1.08944
 C4507 C 0.39740 0.70545 1.08178
 C4508 C 0.40935 0.69509 1.09115
 C4509 C 0.41334 0.69980 1.10849
 C4510 C 0.40556 0.71440 1.11624
 C4511 C 0.41755 0.67943 1.08295
 C4512 C 0.42123 0.66445 1.09300
 C4513 C 0.42902 0.64980 1.08538
 C4514 C 0.43307 0.64966 1.06748
 C4515 C 0.42934 0.66450 1.05735
 C4516 C 0.42180 0.67928 1.06502
 H4517 H 0.40841 0.74778 1.13025
 H4518 H 0.39521 0.77314 1.14372
 H4519 H 0.34759 0.76342 1.11474
 H4520 H 0.36067 0.73768 1.10200
 H4521 H 0.38097 0.72803 1.08167
 H4522 H 0.39374 0.70207 1.06853
 H4523 H 0.42262 0.69229 1.11608
 H4524 H 0.40868 0.71735 1.12973
 H4525 H 0.41785 0.66389 1.10673
 H4526 H 0.43160 0.63841 1.09341
 H4527 H 0.43253 0.66472 1.04354
 H4528 H 0.41952 0.69068 1.05693
 C4529 C 0.88558 0.76014 0.88418
 C4530 C 0.86775 0.75652 0.88670
 C4531 C 0.86011 0.74171 0.87923
 C4532 C 0.87005 0.73023 0.86892
 C4533 C 0.88783 0.73388 0.86625
 C4534 C 0.89552 0.74860 0.87388
 C4535 C 0.89375 0.77582 0.89233
 C4536 C 0.90678 0.78530 0.88346
 C4537 C 0.91459 0.79988 0.89125
 C4538 C 0.90941 0.80542 0.90796
 C4539 C 0.89627 0.79613 0.91675
 C4540 C 0.88860 0.78144 0.90908
 C4541 C 0.91757 0.82093 0.91619
 C4542 C 0.90716 0.83380 0.92408
 C4543 C 0.91478 0.84853 0.93171
 C4544 C 0.93303 0.85061 0.93186
 C4545 C 0.94345 0.83759 0.92409
 C4546 C 0.93579 0.82297 0.91624
 H4547 H 0.85961 0.76525 0.89430
 H4548 H 0.84633 0.73942 0.88135
 H4549 H 0.89591 0.72519 0.85855
 H4550 H 0.90936 0.75076 0.87194
 H4551 H 0.91077 0.78162 0.87039
 H4552 H 0.92448 0.80703 0.88408
 H4553 H 0.89213 0.80007 0.92971
 H4554 H 0.87880 0.77434 0.91640
 H4555 H 0.89307 0.83263 0.92405
 H4556 H 0.90630 0.85843 0.93720
 H4557 H 0.95755 0.83860 0.92424
 H4558 H 0.94411 0.81309 0.91043
 C4559 C 0.88548 0.25983 0.38445
 C4560 C 0.89536 0.24840 0.37396
 C4561 C 0.88765 0.23367 0.36636
 C4562 C 0.86993 0.22991 0.36925
 C4563 C 0.86006 0.24127 0.37977
 C4564 C 0.86772 0.25608 0.38721
 C4565 C 0.89368 0.27551 0.39256
 C4566 C 0.88874 0.28103 0.40941
 C4567 C 0.89647 0.29571 0.41704
 C4568 C 0.90944 0.30510 0.40810
 C4569 C 0.91442 0.29965 0.39130
 C4570 C 0.90655 0.28509 0.38356
 C4571 C 0.91759 0.32065 0.41625
 C4572 C 0.93579 0.32277 0.41617
 C4573 C 0.94343 0.33743 0.42400
 C4574 C 0.93298 0.35038 0.43184
 C4575 C 0.91474 0.34823 0.43177
 C4576 C 0.90715 0.33347 0.42418
 H4577 H 0.90915 0.25066 0.37184
 H4578 H 0.89567 0.22509 0.35848
 H4579 H 0.84633 0.23888 0.38205
 H4580 H 0.85963 0.26473 0.39495
 H4581 H 0.87907 0.27386 0.41683
 H4582 H 0.89251 0.29958 0.43008
 H4583 H 0.92419 0.30687 0.38404
 H4584 H 0.91035 0.28150 0.37041
 H4585 H 0.94413 0.31295 0.41029
 H4586 H 0.95752 0.33851 0.42407
 H4587 H 0.90625 0.35809 0.43732
 H4588 H 0.89307 0.33223 0.42421
 C4589 C 0.38605 0.75950 0.38537
 C4590 C 0.39530 0.74932 0.37317
 C4591 C 0.38765 0.73455 0.36555
 C4592 C 0.37064 0.72928 0.37017
 C4593 C 0.36146 0.73947 0.38248
 C4594 C 0.36898 0.75443 0.38979
 C4595 C 0.39416 0.77528 0.39351
 C4596 C 0.39012 0.78003 0.41084
 C4597 C 0.39758 0.79487 0.41845
 C4598 C 0.40951 0.80511 0.40905
 C4599 C 0.41373 0.80039 0.39184
 C4600 C 0.40602 0.78574 0.38408
 C4601 C 0.41746 0.82073 0.41720
 C4602 C 0.43561 0.82312 0.41693
 C4603 C 0.44312 0.83781 0.42479
 C4604 C 0.43259 0.85062 0.43278
 C4605 C 0.41437 0.84818 0.43291
 C4606 C 0.40692 0.83332 0.42535
 H4607 H 0.40860 0.75254 0.36968
 H4608 H 0.39539 0.72710 0.35636
 H4609 H 0.34827 0.73624 0.38632
 H4610 H 0.36124 0.76214 0.39878
 H4611 H 0.38136 0.77218 0.41868
 H4612 H 0.39427 0.79818 0.43182
 H4613 H 0.42278 0.80825 0.38429
 H4614 H 0.40918 0.78280 0.37060
 H4615 H 0.44400 0.81347 0.41086
 H4616 H 0.45720 0.83903 0.42473
 H4617 H 0.40578 0.85790 0.43856
 H4618 H 0.39286 0.83182 0.42557
 C4619 C 0.38556 0.26006 0.88395
 C4620 C 0.38858 0.25595 0.86630
 C4621 C 0.38087 0.24118 0.85875
 C4622 C 0.36983 0.23034 0.86867
 C4623 C 0.36665 0.23463 0.88627
 C4624 C 0.37451 0.24927 0.89384
 C4625 C 0.39392 0.27554 0.89208
 C4626 C 0.40194 0.27421 0.90855
 C4627 C 0.40984 0.28879 0.91623
 C4628 C 0.40969 0.30512 0.90773
 C4629 C 0.40153 0.30642 0.89128
 C4630 C 0.39384 0.29178 0.88351
 C4631 C 0.41798 0.32072 0.91599
 C4632 C 0.42633 0.33346 0.90569
 C4633 C 0.43389 0.34819 0.91339
 C4634 C 0.43355 0.35050 0.93165
 C4635 C 0.42537 0.33767 0.94197
 C4636 C 0.41758 0.32305 0.93424
 H4637 H 0.39710 0.26404 0.85839
 H4638 H 0.38344 0.23837 0.84512
 H4639 H 0.35826 0.22656 0.89430
 H4640 H 0.37178 0.25227 0.90741
 H4641 H 0.40234 0.26179 0.91537
 H4642 H 0.41627 0.28717 0.92873
 H4643 H 0.40081 0.31882 0.88449
 H4644 H 0.38751 0.29321 0.87092
 H4645 H 0.42714 0.33203 0.89163
 H4646 H 0.43979 0.35789 0.90494
 H4647 H 0.42502 0.33886 0.95607
 H4648 H 0.41104 0.31370 0.94261
 C4649 C 1.11463 0.75965 1.11521
 C4650 C 1.13170 0.75457 1.11075
 C4651 C 1.13931 0.73971 1.11819
 C4652 C 1.13025 0.72964 1.13068
 C4653 C 1.11325 0.73493 1.13536
 C4654 C 1.10550 0.74957 1.12760
 C4655 C 1.10642 0.77535 1.10699
 C4656 C 1.09465 0.78584 1.11644
 C4657 C 1.08688 0.80046 1.10869
 C4658 C 1.09090 0.80523 1.09138
 C4659 C 1.10278 0.79483 1.08197
 C4660 C 1.11031 0.78002 1.08961
 C4661 C 1.08281 0.82102 1.08326
 C4662 C 1.07877 0.82139 1.06528
 C4663 C 1.07128 0.83627 1.05771
 C4664 C 1.06740 0.85096 1.06799
 C4665 C 1.07129 0.85062 1.08591
 C4666 C 1.07904 0.83589 1.09343
 H4667 H 1.13936 0.76221 1.10162
 H4668 H 1.15251 0.73648 1.11435
 H4669 H 1.10559 0.72756 1.14468
 H4670 H 1.09220 0.75278 1.13113
 H4671 H 1.09152 0.78291 1.12992
 H4672 H 1.07758 0.80794 1.11629
 H4673 H 1.10644 0.79820 1.06872
 H4674 H 1.11909 0.77217 1.08178
 H4675 H 1.08115 0.81012 1.05706
 H4676 H 1.06826 0.83621 1.04387
 H4677 H 1.06863 0.86191 1.09405
 H4678 H 1.08230 0.83630 1.10720
 C4679 C 1.11476 0.25964 0.61497
 C4680 C 1.10563 0.24964 0.62732
 C4681 C 1.11339 0.23496 0.63501
 C4682 C 1.13041 0.22969 0.63030
 C4683 C 1.13942 0.23975 0.61771
 C4684 C 1.13173 0.25461 0.61029
 C4685 C 1.10660 0.27530 0.60698
 C4686 C 1.11560 0.29128 0.60650
 C4687 C 1.10791 0.30608 0.59898
 C4688 C 1.09116 0.30515 0.59143
 C4689 C 1.08223 0.28906 0.59190
 C4690 C 1.08980 0.27436 0.59971
 C4691 C 1.08312 0.32084 0.58303
 C4692 C 1.06496 0.32357 0.58361
 C4693 C 1.05745 0.33823 0.57568
 C4694 C 1.06790 0.35079 0.56724
 C4695 C 1.08606 0.34808 0.56671
 C4696 C 1.09353 0.33324 0.57432
 H4697 H 1.09254 0.25332 0.63121
 H4698 H 1.10583 0.22773 0.64451
 H4699 H 1.15252 0.23643 0.61366
 H4700 H 1.13900 0.26208 0.60070
 H4701 H 1.12849 0.29238 0.61220
 H4702 H 1.11505 0.31828 0.59930
 H4703 H 1.06948 0.28770 0.58596
 H4704 H 1.08267 0.26213 0.59976
 H4705 H 1.05648 0.31451 0.59039
 H4706 H 1.04340 0.33967 0.57613
 H4707 H 1.09463 0.35755 0.56062
 H4708 H 1.10751 0.33149 0.57326
 C4709 C 0.61396 0.75961 0.61468
 C4710 C 0.63150 0.75546 0.61135
 C4711 C 0.63903 0.74051 0.61867
 C4712 C 0.62923 0.72946 0.62960
 C4713 C 0.61168 0.73367 0.63300
 C4714 C 0.60410 0.74854 0.62553
 C4715 C 0.60589 0.77531 0.60669
 C4716 C 0.58947 0.77420 0.59863
 C4717 C 0.58189 0.78894 0.59094
 C4718 C 0.59049 0.80520 0.59128
 C4719 C 0.60687 0.80630 0.59957
 C4720 C 0.61455 0.79149 0.60704
 C4721 C 0.58247 0.82089 0.58296
 C4722 C 0.59296 0.83352 0.57470
 C4723 C 0.58551 0.84838 0.56715
 C4724 C 0.56731 0.85089 0.56734
 C4725 C 0.55679 0.83813 0.57537
 C4726 C 0.56428 0.82340 0.58318
 H4727 H 0.63932 0.76365 0.60286
 H4728 H 0.65261 0.73774 0.61589
 H4729 H 0.60372 0.72540 0.64127
 H4730 H 0.59057 0.75150 0.62834
 H4731 H 0.58261 0.76183 0.59800
 H4732 H 0.56940 0.78751 0.58450
 H4733 H 0.61368 0.81867 0.60052
 H4734 H 0.62714 0.79274 0.61338
 H4735 H 0.60698 0.83191 0.57395
 H4736 H 0.59410 0.85803 0.56138
 H4737 H 0.54272 0.83945 0.57559
 H4738 H 0.55577 0.81409 0.58958
 C4739 C 0.61456 0.25974 1.11499
 C4740 C 0.62543 0.24879 1.10507
 C4741 C 0.63321 0.23410 1.11266
 C4742 C 0.63015 0.22997 1.13032
 C4743 C 0.61925 0.24094 1.14024
 C4744 C 0.61160 0.25573 1.13268
 C4745 C 0.60637 0.27533 1.10689
 C4746 C 0.60668 0.29154 1.11548
 C4747 C 0.59924 0.30631 1.10771
 C4748 C 0.59108 0.30516 1.09124
 C4749 C 0.59067 0.28884 1.08274
 C4750 C 0.59833 0.27413 1.09042
 C4751 C 0.58296 0.32087 1.08306
 C4752 C 0.58337 0.32331 1.06481
 C4753 C 0.57566 0.33802 1.05718
 C4754 C 0.56756 0.35083 1.06760
 C4755 C 0.56723 0.34842 1.08584
 C4756 C 0.57469 0.33359 1.09344
 H4757 H 0.62806 0.25170 1.09146
 H4758 H 0.64147 0.22593 1.10461
 H4759 H 0.61676 0.23822 1.15391
 H4760 H 0.60318 0.26390 1.14060
 H4761 H 0.61300 0.29286 1.12809
 H4762 H 0.60014 0.31869 1.11451
 H4763 H 0.58422 0.28735 1.07023
 H4764 H 0.59773 0.26172 1.08361
 H4765 H 0.58983 0.31395 1.05639
 H4766 H 0.57597 0.33930 1.04308
 H4767 H 0.56139 0.35810 1.09435
 H4768 H 0.57385 0.33206 1.10749
 C4769 C 1.24136 1.11368 0.88561
 C4770 C 1.24550 1.13128 0.88882
 C4771 C 1.26039 1.13879 0.88140
 C4772 C 1.27135 1.12891 0.87044
 C4773 C 1.26714 1.11132 0.86717
 C4774 C 1.25234 1.10377 0.87474
 C4775 C 1.22569 1.10566 0.89363
 C4776 C 1.22675 1.08919 0.90168
 C4777 C 1.21202 1.08164 0.90938
 C4778 C 1.19580 1.09030 0.90904
 C4779 C 1.19477 1.10676 0.90080
 C4780 C 1.20957 1.11440 0.89331
 C4781 C 1.18009 1.08228 0.91730
 C4782 C 1.16749 1.09280 0.92558
 C4783 C 1.15264 1.08534 0.93314
 C4784 C 1.15006 1.06712 0.93287
 C4785 C 1.16279 1.05657 0.92481
 C4786 C 1.17753 1.06406 0.91703
 H4787 H 1.23733 1.13918 0.89726
 H4788 H 1.26317 1.15240 0.88411
 H4789 H 1.27534 1.10329 0.85890
 H4790 H 1.24935 1.09021 0.87194
 H4791 H 1.23909 1.08229 0.90230
 H4792 H 1.21344 1.06912 0.91584
 H4793 H 1.18247 1.11368 0.89992
 H4794 H 1.20837 1.12704 0.88701
 H4795 H 1.16912 1.10684 0.92636
 H4796 H 1.14306 1.09396 0.93897
 H4797 H 1.16144 1.04248 0.92457
 H4798 H 1.18681 1.05553 0.91061
 C4799 C 1.24012 0.61556 0.38498
 C4800 C 1.24392 0.61299 0.36716
 C4801 C 1.25865 0.62064 0.35958
 C4802 C 1.26984 0.63120 0.36959
 C4803 C 1.26601 0.63389 0.38735
 C4804 C 1.25138 0.62609 0.39498
 C4805 C 1.22456 0.60721 0.39312
 C4806 C 1.21496 0.61596 0.40615
 C4807 C 1.20046 0.60802 0.41390
 C4808 C 1.19512 0.59127 0.40865
 C4809 C 1.20459 0.58255 0.39557
 C4810 C 1.21921 0.59038 0.38797
 C4811 C 1.17965 0.58291 0.41671
 C4812 C 1.16689 0.57503 0.40619
 C4813 C 1.15217 0.56732 0.41374
 C4814 C 1.15000 0.56710 0.43202
 C4815 C 1.16295 0.57484 0.44253
 C4816 C 1.17755 0.58278 0.43495
 H4817 H 1.23539 0.60522 0.35897
 H4818 H 1.26113 0.61847 0.34582
 H4819 H 1.27449 0.64176 0.39548
 H4820 H 1.24908 0.62807 0.40880
 H4821 H 1.21849 0.62905 0.41020
 H4822 H 1.19322 0.61510 0.42380
 H4823 H 1.20083 0.56954 0.39143
 H4824 H 1.22648 0.58311 0.37824
 H4825 H 1.16813 0.57514 0.39208
 H4826 H 1.14234 0.56184 0.40518
 H4827 H 1.16190 0.57463 0.45665
 H4828 H 1.18734 0.58860 0.44334
 C4829 C 0.74034 1.11439 0.38548
 C4830 C 0.75135 1.10449 0.37464
 C4831 C 0.76604 1.11212 0.36694
 C4832 C 0.77011 1.12977 0.37007
 C4833 C 0.75912 1.13964 0.38100
 C4834 C 0.74434 1.13205 0.38856
 C4835 C 0.72473 1.10631 0.39356
 C4836 C 0.70856 1.11494 0.39317
 C4837 C 0.69381 1.10724 0.40068
 C4838 C 0.69495 1.09084 0.40898
 C4839 C 0.71121 1.08228 0.40940
 C4840 C 0.72591 1.08989 0.40169
 C4841 C 0.67928 1.08274 0.41723
 C4842 C 0.67684 1.06451 0.41696
 C4843 C 0.66216 1.05693 0.42476
 C4844 C 0.64938 1.06740 0.43281
 C4845 C 0.65182 1.08565 0.43306
 C4846 C 0.66661 1.09319 0.42549
 H4847 H 0.74847 1.09088 0.37196
 H4848 H 0.77428 1.10409 0.35872
 H4849 H 0.76182 1.15328 0.38362
 H4850 H 0.73615 1.13992 0.39700
 H4851 H 0.70728 1.12753 0.38679
 H4852 H 0.68146 1.11407 0.39974
 H4853 H 0.71270 1.06980 0.41593
 H4854 H 0.73829 1.08306 0.40235
 H4855 H 0.68616 1.05604 0.41052
 H4856 H 0.66089 1.04283 0.42452
 H4857 H 0.64218 1.09420 0.43888
 H4858 H 0.66815 1.10724 0.42623
 C4859 C 0.74047 0.61476 0.88530
 C4860 C 0.75145 0.60484 0.87445
 C4861 C 0.76617 0.61242 0.86679
 C4862 C 0.77031 0.63006 0.86995
 C4863 C 0.75930 0.63997 0.88082
 C4864 C 0.74449 0.63241 0.88835
 C4865 C 0.72488 0.60668 0.89344
 C4866 C 0.70873 0.61533 0.89314
 C4867 C 0.69400 0.60766 0.90072
 C4868 C 0.69514 0.59124 0.90900
 C4869 C 0.71140 0.58266 0.90933
 C4870 C 0.72607 0.59025 0.90155
 C4871 C 0.67948 0.58313 0.91725
 C4872 C 0.67702 0.56489 0.91691
 C4873 C 0.66233 0.55730 0.92465
 C4874 C 0.64953 0.56775 0.93273
 C4875 C 0.65198 0.58599 0.93302
 C4876 C 0.66679 0.59355 0.92551
 H4877 H 0.74854 0.59124 0.87175
 H4878 H 0.77439 0.60438 0.85856
 H4879 H 0.76201 0.65361 0.88341
 H4880 H 0.73629 0.64031 0.89677
 H4881 H 0.70743 0.62792 0.88675
 H4882 H 0.68166 0.61451 0.89984
 H4883 H 0.71291 0.57017 0.91584
 H4884 H 0.73844 0.58340 0.90213
 H4885 H 0.68636 0.55644 0.91046
 H4886 H 0.66106 0.54321 0.92436
 H4887 H 0.64232 0.59453 0.93884
 H4888 H 0.66833 0.60760 0.92629
 C4889 C 1.24033 0.88487 1.11505
 C4890 C 1.24437 0.86724 1.11185
 C4891 C 1.25909 0.85956 1.11946
 C4892 C 1.26999 0.86932 1.13059
 C4893 C 1.26584 0.88693 1.13388
 C4894 C 1.25122 0.89464 1.12613
 C4895 C 1.22482 0.89306 1.10685
 C4896 C 1.22609 0.90955 1.09888
 C4897 C 1.21149 0.91721 1.09101
 C4898 C 1.19523 0.90865 1.09114
 C4899 C 1.19400 0.89219 1.09932
 C4900 C 1.20866 0.88443 1.10697
 C4901 C 1.17963 0.91680 1.08280
 C4902 C 1.16698 0.90640 1.07447
 C4903 C 1.15218 0.91398 1.06696
 C4904 C 1.14973 0.93222 1.06727
 C4905 C 1.16250 0.94265 1.07539
 C4906 C 1.17717 0.93504 1.08317
 H4907 H 1.23624 0.85945 1.10327
 H4908 H 1.26182 0.84595 1.11674
 H4909 H 1.27398 0.89487 1.14227
 H4910 H 1.24828 0.90821 1.12894
 H4911 H 1.23846 0.91640 1.09847
 H4912 H 1.21305 0.92974 1.08459
 H4913 H 1.18165 0.88535 1.10006
 H4914 H 1.20729 0.87181 1.11325
 H4915 H 1.16852 0.89235 1.07365
 H4916 H 1.14253 0.90544 1.06113
 H4917 H 1.16122 0.95675 1.07571
 H4918 H 1.18646 0.94347 1.08969
 C4919 C 1.24059 0.38516 0.61464
 C4920 C 1.25172 0.39505 0.62536
 C4921 C 1.26638 0.38736 0.63305
 C4922 C 1.27030 0.36964 0.63006
 C4923 C 1.25924 0.35981 0.61918
 C4924 C 1.24450 0.36747 0.61161
 C4925 C 1.22500 0.39331 0.60658
 C4926 C 1.20881 0.38472 0.60695
 C4927 C 1.19408 0.39246 0.59943
 C4928 C 1.19526 0.40887 0.59113
 C4929 C 1.21154 0.41739 0.59075
 C4930 C 1.22621 0.40974 0.59847
 C4931 C 1.17961 0.41702 0.58288
 C4932 C 1.17717 0.43526 0.58320
 C4933 C 1.16246 0.44286 0.57548
 C4934 C 1.14967 0.43242 0.56742
 C4935 C 1.15211 0.41418 0.56713
 C4936 C 1.16693 0.40661 0.57462
 H4937 H 1.24896 0.40870 0.62796
 H4938 H 1.27472 0.39540 0.64116
 H4939 H 1.26184 0.34614 0.61660
 H4940 H 1.23625 0.35963 0.60320
 H4941 H 1.20748 0.37214 0.61334
 H4942 H 1.18172 0.38566 0.60033
 H4943 H 1.21306 0.42987 0.58424
 H4944 H 1.23860 0.41653 0.59784
 H4945 H 1.18653 0.44370 0.58962
 H4946 H 1.16119 0.45696 0.57576
 H4947 H 1.14246 0.40563 0.56132
 H4948 H 1.16848 0.39255 0.57382
 C4949 C 0.74000 0.88531 0.61486
 C4950 C 0.75091 0.89512 0.62587
 C4951 C 0.76562 0.88747 0.63352
 C4952 C 0.76980 0.86987 0.63020
 C4953 C 0.75890 0.86009 0.61911
 C4954 C 0.74410 0.86770 0.61160
 C4955 C 0.72441 0.89344 0.60677
 C4956 C 0.70827 0.88477 0.60695
 C4957 C 0.69354 0.89253 0.59943
 C4958 C 0.69467 0.90904 0.59133
 C4959 C 0.71092 0.91763 0.59112
 C4960 C 0.72559 0.90996 0.59884
 C4961 C 0.67901 0.91721 0.58311
 C4962 C 0.67653 0.93544 0.58357
 C4963 C 0.66184 0.94308 0.57584
 C4964 C 0.64909 0.93268 0.56765
 C4965 C 0.65156 0.91444 0.56724
 C4966 C 0.66637 0.90684 0.57473
 H4967 H 0.74796 0.90868 0.62870
 H4968 H 0.77379 0.89544 0.64186
 H4969 H 0.76168 0.84649 0.61634
 H4970 H 0.73597 0.85989 0.60304
 H4971 H 0.70698 0.87211 0.61318
 H4972 H 0.68121 0.88566 0.60022
 H4973 H 0.71242 0.93018 0.58475
 H4974 H 0.73795 0.91682 0.59836
 H4975 H 0.68582 0.94385 0.59011
 H4976 H 0.66054 0.95717 0.57622
 H4977 H 0.64194 0.90593 0.56135
 H4978 H 0.66794 0.89280 0.57383
 C4979 C 0.74112 0.38571 1.11434
 C4980 C 0.74479 0.36791 1.11167
 C4981 C 0.75960 0.36026 1.11914
 C4982 C 0.77101 0.37022 1.12955
 C4983 C 0.76730 0.38804 1.13220
 C4984 C 0.75255 0.39571 1.12464
 C4985 C 0.72542 0.39383 1.10641
 C4986 C 0.72652 0.41020 1.09815
 C4987 C 0.71176 0.41777 1.09051
 C4988 C 0.69549 0.40924 1.09113
 C4989 C 0.69442 0.39291 1.09957
 C4990 C 0.70922 0.38526 1.10704
 C4991 C 0.67974 0.41733 1.08304
 C4992 C 0.66700 0.40690 1.07489
 C4993 C 0.65215 0.41447 1.06744
 C4994 C 0.64972 0.43271 1.06771
 C4995 C 0.66252 0.44316 1.07575
 C4996 C 0.67727 0.43556 1.08341
 H4997 H 0.73629 0.35995 1.10362
 H4998 H 0.76196 0.34650 1.11684
 H4999 H 0.77581 0.39617 1.14001
 H5000 H 0.74996 0.40943 1.12703
 H5001 H 0.73889 0.41702 1.09734
 H5002 H 0.71319 0.43020 1.08388
 H5003 H 0.68207 0.38611 1.10066
 H5004 H 0.70796 0.37275 1.11358
 H5005 H 0.66852 0.39284 1.07414
 H5006 H 0.64245 0.40594 1.06167
 H5007 H 0.66121 0.45725 1.07608
 H5008 H 0.68663 0.44400 1.08981
 C5009 C 0.75936 1.11440 1.11394
 C5010 C 0.75512 1.11100 1.13148
 C5011 C 0.74017 1.11835 1.13897
 C5012 C 0.72928 1.12939 1.12911
 C5013 C 0.73361 1.13286 1.11159
 C5014 C 0.74846 1.12537 1.10406
 C5015 C 0.77507 1.10645 1.10592
 C5016 C 0.77407 1.09855 1.08938
 C5017 C 0.78884 1.09096 1.08181
 C5018 C 0.80503 1.09128 1.09052
 C5019 C 0.80599 1.09935 1.10705
 C5020 C 0.79115 1.10673 1.11471
 C5021 C 0.82078 1.08316 1.08246
 C5022 C 0.83336 1.07478 1.09291
 C5023 C 0.84822 1.06731 1.08542
 C5024 C 0.85082 1.06775 1.06720
 C5025 C 0.83816 1.07598 1.05671
 C5026 C 0.82341 1.08368 1.06425
 H5027 H 0.76325 1.10249 1.13935
 H5028 H 0.73729 1.11551 1.15253
 H5029 H 0.72546 1.14121 1.10359
 H5030 H 0.75154 1.12832 1.09055
 H5031 H 0.76175 1.09798 1.08244
 H5032 H 0.78748 1.08460 1.06924
 H5033 H 0.81827 1.10019 1.11401
 H5034 H 0.79230 1.11294 1.12740
 H5035 H 0.83168 1.07384 1.10694
 H5036 H 0.85778 1.06137 1.09399
 H5037 H 0.83958 1.07639 1.04263
 H5038 H 0.81415 1.09020 1.05577
 C5039 C 0.76003 0.61536 0.61453
 C5040 C 0.74915 0.62639 0.60470
 C5041 C 0.73446 0.63410 0.61233
 C5042 C 0.73026 0.63077 0.62991
 C5043 C 0.74117 0.61974 0.63975
 C5044 C 0.75596 0.61218 0.63216
 C5045 C 0.77555 0.60715 0.60640
 C5046 C 0.79172 0.60728 0.61502
 C5047 C 0.80639 0.59963 0.60729
 C5048 C 0.80516 0.59142 0.59085
 C5049 C 0.78889 0.59126 0.58229
 C5050 C 0.77429 0.59912 0.58993
 C5051 C 0.82074 0.58306 0.58269
 C5052 C 0.82320 0.58344 0.56446
 C5053 C 0.83782 0.57557 0.55684
 C5054 C 0.85053 0.56734 0.56725
 C5055 C 0.84808 0.56699 0.58549
 C5056 C 0.83334 0.57462 0.59309
 H5057 H 0.75211 0.62922 0.59114
 H5058 H 0.72632 0.64248 0.60436
 H5059 H 0.73841 0.61704 0.65336
 H5060 H 0.76409 0.60366 0.64002
 H5061 H 0.79308 0.61359 0.62764
 H5062 H 0.81874 0.60038 0.61411
 H5063 H 0.78733 0.58481 0.56979
 H5064 H 0.76191 0.59868 0.58310
 H5065 H 0.81394 0.59002 0.55603
 H5066 H 0.83910 0.57590 0.54274
 H5067 H 0.85768 0.56104 0.59401
 H5068 H 0.83179 0.57378 0.60713
 C5069 C 0.25906 1.11508 0.61399
 C5070 C 0.25542 1.13290 0.61142
 C5071 C 0.24062 1.14052 0.61893
 C5072 C 0.22920 1.13051 0.62930
 C5073 C 0.23289 1.11266 0.63184
 C5074 C 0.24763 1.10504 0.62425
 C5075 C 0.27471 1.10694 0.60598
 C5076 C 0.27350 1.09060 0.59769
 C5077 C 0.28822 1.08290 0.59010
 C5078 C 0.30455 1.09131 0.59075
 C5079 C 0.30573 1.10763 0.59921
 C5080 C 0.29096 1.11540 0.60663
 C5081 C 0.32025 1.08318 0.58257
 C5082 C 0.33301 1.09363 0.57449
 C5083 C 0.34786 1.08610 0.56700
 C5084 C 0.35026 1.06785 0.56714
 C5085 C 0.33739 1.05736 0.57504
 C5086 C 0.32264 1.06493 0.58273
 H5087 H 0.26393 1.14091 0.60343
 H5088 H 0.23826 1.15429 0.61671
 H5089 H 0.22437 1.10448 0.63962
 H5090 H 0.25022 1.09130 0.62658
 H5091 H 0.26108 1.08390 0.59682
 H5092 H 0.28670 1.07050 0.58346
 H5093 H 0.31812 1.11434 0.60032
 H5094 H 0.29230 1.12791 0.61313
 H5095 H 0.33151 1.10769 0.57382
 H5096 H 0.35756 1.09466 0.56131
 H5097 H 0.33865 1.04326 0.57522
 H5098 H 0.31321 1.05644 0.58900
 C5099 C 0.25949 0.61493 1.11451
 C5100 C 0.24880 0.62623 1.10476
 C5101 C 0.23409 0.63389 1.11238
 C5102 C 0.22966 0.63026 1.12985
 C5103 C 0.24032 0.61885 1.13955
 C5104 C 0.25514 0.61134 1.13198
 C5105 C 0.27512 0.60686 1.10645
 C5106 C 0.29117 0.60689 1.11529
 C5107 C 0.30594 0.59935 1.10763
 C5108 C 0.30492 0.59136 1.09107
 C5109 C 0.28876 0.59131 1.08230
 C5110 C 0.27406 0.59908 1.08986
 C5111 C 0.32061 0.58311 1.08300
 C5112 C 0.32325 0.58364 1.06480
 C5113 C 0.33798 0.57590 1.05726
 C5114 C 0.35063 0.56763 1.06773
 C5115 C 0.34800 0.56716 1.08595
 C5116 C 0.33314 0.57464 1.09345
 H5117 H 0.25195 0.62928 1.09129
 H5118 H 0.22608 0.64249 1.10450
 H5119 H 0.23733 0.61584 1.15305
 H5120 H 0.26309 0.60254 1.13972
 H5121 H 0.29236 0.61301 1.12801
 H5122 H 0.31820 0.60001 1.11464
 H5123 H 0.28734 0.58503 1.06970
 H5124 H 0.26177 0.59873 1.08288
 H5125 H 0.31404 0.59024 1.05633
 H5126 H 0.33937 0.57633 1.04318
 H5127 H 0.35754 0.56120 1.09453
 H5128 H 0.33145 0.57367 1.10747
 C5129 C 0.76029 0.88507 0.88546
 C5130 C 0.74942 0.87405 0.89532
 C5131 C 0.73472 0.86636 0.88772
 C5132 C 0.73049 0.86967 0.87013
 C5133 C 0.74138 0.88070 0.86028
 C5134 C 0.75618 0.88825 0.86784
 C5135 C 0.77584 0.89324 0.89356
 C5136 C 0.79198 0.89308 0.88488
 C5137 C 0.80668 0.90069 0.89258
 C5138 C 0.80552 0.90886 0.90904
 C5139 C 0.78928 0.90905 0.91766
 C5140 C 0.77464 0.90124 0.91005
 C5141 C 0.82114 0.91717 0.91715
 C5142 C 0.82366 0.91677 0.93538
 C5143 C 0.83831 0.92460 0.94296
 C5144 C 0.85099 0.93282 0.93250
 C5145 C 0.84849 0.93317 0.91427
 C5146 C 0.83372 0.92559 0.90673
 H5147 H 0.75239 0.87125 0.90889
 H5148 H 0.72658 0.85800 0.89572
 H5149 H 0.73860 0.88341 0.84667
 H5150 H 0.76429 0.89679 0.85998
 H5151 H 0.79328 0.88681 0.87225
 H5152 H 0.81901 0.89992 0.88570
 H5153 H 0.78777 0.91548 0.93018
 H5154 H 0.76228 0.90171 0.91692
 H5155 H 0.81441 0.91021 0.94384
 H5156 H 0.83964 0.92426 0.95705
 H5157 H 0.85808 0.93910 0.90573
 H5158 H 0.83212 0.92644 0.89269
 C5159 C 0.75998 0.38443 0.38516
 C5160 C 0.75567 0.38814 0.36771
 C5161 C 0.74097 0.38055 0.35999
 C5162 C 0.73040 0.36892 0.36950
 C5163 C 0.73478 0.36515 0.38696
 C5164 C 0.74937 0.37291 0.39473
 C5165 C 0.77552 0.39252 0.39337
 C5166 C 0.77438 0.40008 0.41006
 C5167 C 0.78901 0.40784 0.41776
 C5168 C 0.80519 0.40801 0.40903
 C5169 C 0.80630 0.40021 0.39238
 C5170 C 0.79161 0.39269 0.38458
 C5171 C 0.82079 0.41637 0.41717
 C5172 C 0.83324 0.42500 0.40677
 C5173 C 0.84802 0.43260 0.41431
 C5174 C 0.85065 0.43207 0.43251
 C5175 C 0.83806 0.42368 0.44296
 C5176 C 0.82341 0.41582 0.43538
 H5177 H 0.76356 0.39709 0.36009
 H5178 H 0.73804 0.38366 0.34649
 H5179 H 0.72685 0.35636 0.39470
 H5180 H 0.75250 0.36974 0.40818
 H5181 H 0.76206 0.40027 0.41702
 H5182 H 0.78752 0.41395 0.43044
 H5183 H 0.81859 0.39969 0.38540
 H5184 H 0.79287 0.38675 0.37179
 H5185 H 0.83155 0.42602 0.39275
 H5186 H 0.85750 0.43867 0.40575
 H5187 H 0.83945 0.42322 0.45704
 H5188 H 0.81425 0.40911 0.44383
 C5189 C 0.25916 0.88585 0.38587
 C5190 C 0.24819 0.89571 0.37494
 C5191 C 0.23335 0.88815 0.36747
 C5192 C 0.22907 0.87061 0.37091
 C5193 C 0.24002 0.86077 0.38192
 C5194 C 0.25496 0.86829 0.38925
 C5195 C 0.27489 0.89389 0.39378
 C5196 C 0.29098 0.88511 0.39345
 C5197 C 0.30584 0.89278 0.40078
 C5198 C 0.30489 0.90929 0.40888
 C5199 C 0.28870 0.91801 0.40923
 C5200 C 0.27391 0.91044 0.40168
 C5201 C 0.32067 0.91734 0.41695
 C5202 C 0.32327 0.93555 0.41646
 C5203 C 0.33804 0.94308 0.42412
 C5204 C 0.35076 0.93257 0.43222
 C5205 C 0.34820 0.91435 0.43261
 C5206 C 0.33330 0.90687 0.42523
 H5207 H 0.25123 0.90924 0.37201
 H5208 H 0.22518 0.89614 0.35912
 H5209 H 0.23720 0.84719 0.38474
 H5210 H 0.26313 0.86043 0.39774
 H5211 H 0.29214 0.87243 0.38724
 H5212 H 0.31813 0.88584 0.39988
 H5213 H 0.28736 0.93058 0.41560
 H5214 H 0.26160 0.91739 0.40228
 H5215 H 0.31399 0.94404 0.40999
 H5216 H 0.33942 0.95716 0.42374
 H5217 H 0.35783 0.90577 0.43843
 H5218 H 0.33166 0.89283 0.42614
 C5219 C 0.26006 0.38468 0.88511
 C5220 C 0.24928 0.37347 0.89485
 C5221 C 0.23476 0.36559 0.88711
 C5222 C 0.23059 0.36892 0.86951
 C5223 C 0.24138 0.38017 0.85979
 C5224 C 0.25600 0.38791 0.86749
 C5225 C 0.27554 0.39291 0.89328
 C5226 C 0.29169 0.39284 0.88463
 C5227 C 0.30634 0.40051 0.89235
 C5228 C 0.30511 0.40867 0.90881
 C5229 C 0.28886 0.40875 0.91741
 C5230 C 0.27428 0.40085 0.90979
 C5231 C 0.32069 0.41704 0.91695
 C5232 C 0.32317 0.41663 0.93517
 C5233 C 0.33778 0.42450 0.94279
 C5234 C 0.35046 0.43277 0.93236
 C5235 C 0.34799 0.43314 0.91413
 C5236 C 0.33325 0.42551 0.90655
 H5237 H 0.25222 0.37065 0.90842
 H5238 H 0.22670 0.35706 0.89500
 H5239 H 0.23864 0.38290 0.84617
 H5240 H 0.26405 0.39660 0.85973
 H5241 H 0.29305 0.38656 0.87200
 H5242 H 0.31868 0.39981 0.88549
 H5243 H 0.28731 0.41515 0.92994
 H5244 H 0.26191 0.40122 0.91665
 H5245 H 0.31395 0.41000 0.94360
 H5246 H 0.33908 0.42415 0.95688
 H5247 H 0.35757 0.43909 0.90560
 H5248 H 0.33168 0.42637 0.89250
   
