data_POSCAR
  _audit_creation_date              2014-09-24
  _audit_creation_method            'ToBaCCo'
  _symmetry_space_group_name_H-M    'P1'
  _symmetry_Int_Tables_number       1
  _symmetry_cell_setting            triclinic
  loop_
  _symmetry_equiv_pos_as_xyz
 x,y,z
_cell_length_a 33.3554
_cell_length_b 33.2101
_cell_length_c 40.9515
_cell_angle_alpha 90.049000
_cell_angle_beta 89.910900
_cell_angle_gamma 89.961400
loop_
  _atom_site_label
  _atom_site_type_symbol
  _atom_site_fract_x
  _atom_site_fract_y
  _atom_site_fract_z
B1 B 0.27397 0.23401 0.28138
 B2 B 0.22642 0.22020 0.27380
 B3 B 0.23652 0.26788 0.28496
 B4 B 0.28056 0.28139 0.26788
 B5 B 0.29757 0.24145 0.24567
 B6 B 0.26372 0.20324 0.24945
 B7 B 0.22590 0.26617 0.21960
 B8 B 0.27345 0.27995 0.22726
 B9 B 0.26346 0.23237 0.21599
 B10 B 0.21934 0.21870 0.23302
 B11 B 0.20230 0.25866 0.25536
 B12 B 0.23620 0.29687 0.25152
 B13 B 0.73634 0.77201 0.21823
 B14 B 0.72630 0.72375 0.22735
 B15 B 0.77388 0.73786 0.22022
 B16 B 0.78037 0.78438 0.23562
 B17 B 0.73598 0.79889 0.25290
 B18 B 0.70218 0.76094 0.24749
 B19 B 0.76336 0.73212 0.28544
 B20 B 0.77342 0.78042 0.27623
 B21 B 0.72579 0.76610 0.28341
 B22 B 0.71933 0.71960 0.26788
 B23 B 0.76368 0.70517 0.25076
 B24 B 0.79754 0.74311 0.25614
 B25 B 0.73851 0.22339 -0.22089
 B26 B 0.72508 0.27107 -0.22901
 B27 B 0.77258 0.26077 -0.21806
 B28 B 0.78557 0.21616 -0.23474
 B29 B 0.74549 0.19896 -0.25639
 B30 B 0.70774 0.23332 -0.25268
 B31 B 0.77016 0.27040 -0.28347
 B32 B 0.78371 0.22262 -0.27548
 B33 B 0.73630 0.23289 -0.28631
 B34 B 0.72327 0.27741 -0.26966
 B35 B 0.76335 0.29474 -0.24795
 B36 B 0.80116 0.26042 -0.25184
 B37 B 0.26594 0.76694 -0.28171
 B38 B 0.21783 0.77561 -0.27183
 B39 B 0.23306 0.72841 -0.28002
 B40 B 0.27978 0.72260 -0.26527
 B41 B 0.29332 0.76699 -0.24736
 B42 B 0.25455 0.80017 -0.25165
 B43 B 0.22794 0.73703 -0.21467
 B44 B 0.27607 0.72832 -0.22459
 B45 B 0.26091 0.77551 -0.21628
 B46 B 0.21414 0.78142 -0.23110
 B47 B 0.20066 0.73702 -0.24898
 B48 B 0.23937 0.70388 -0.24474
 B49 B 1.23497 1.27022 0.71567
 B50 B 1.22539 1.22193 0.72497
 B51 B 1.27279 1.23644 0.71730
 B52 B 1.27912 1.28305 0.73272
 B53 B 1.23489 1.29716 0.75033
 B54 B 1.20132 1.25893 0.74532
 B55 B 1.26321 1.23057 0.78263
 B56 B 1.27273 1.27891 0.77335
 B57 B 1.22535 1.26436 0.78097
 B58 B 1.21905 1.21778 0.76560
 B59 B 1.26330 1.20363 0.74793
 B60 B 1.29688 1.24187 0.75301
 B61 B 0.76421 0.73088 0.71284
 B62 B 0.77418 0.77855 0.72375
 B63 B 0.72674 0.76491 0.71560
 B64 B 0.71983 0.71774 0.72933
 B65 B 0.76376 0.70219 0.74660
 B66 B 0.79779 0.74025 0.74290
 B67 B 0.73590 0.76737 0.78102
 B68 B 0.72585 0.71961 0.77007
 B69 B 0.77331 0.73336 0.77835
 B70 B 0.78034 0.78055 0.76447
 B71 B 0.73643 0.79600 0.74735
 B72 B 0.70236 0.75797 0.75103
 B73 B 1.23198 0.73377 0.21330
 B74 B 1.27969 0.72425 0.22387
 B75 B 1.26567 0.77156 0.21472
 B76 B 1.21891 0.77881 0.22903
 B77 B 1.20402 0.73528 0.24741
 B78 B 1.24202 0.70115 0.24400
 B79 B 1.26948 0.76462 0.28028
 B80 B 1.22171 0.77416 0.26983
 B81 B 1.23566 0.72688 0.27889
 B82 B 1.28234 0.71961 0.26462
 B83 B 1.29732 0.76317 0.24617
 B84 B 1.25933 0.79730 0.24968
 B85 B 0.76805 1.26137 0.21642
 B86 B 0.72040 1.27036 0.22747
 B87 B 0.73492 1.22308 0.21860
 B88 B 0.78198 1.21680 0.23235
 B89 B 0.79657 1.26085 0.25010
 B90 B 0.75805 1.29437 0.24689
 B91 B 0.73215 1.23124 0.28418
 B92 B 0.77984 1.22216 0.27312
 B93 B 0.76541 1.26942 0.28193
 B94 B 0.71832 1.27577 0.26821
 B95 B 0.70364 1.23164 0.25042
 B96 B 0.74218 1.19810 0.25377
 O97 O 0.55888 1.07179 0.05493
 O98 O 0.60318 1.03240 0.02606
 C99 C 0.59484 1.06077 0.04708
 O100 O 0.44410 0.92610 0.05379
 O101 O 0.39862 0.96676 0.02760
 C102 C 0.40778 0.93699 0.04692
 O103 O 0.55432 0.92707 0.05710
 O104 O 0.60099 0.96175 0.02696
 C105 C 0.59096 0.93512 0.04888
 O106 O 0.44910 1.07628 0.05587
 O107 O 0.40113 1.03974 0.02865
 C108 C 0.41215 1.06685 0.04992
 Zr109 Zr 0.50288 1.05111 0.03897
 O110 O 0.50114 1.04870 0.09068
 O111 O 0.50302 1.11487 0.04053
 Zr112 Zr 0.49957 0.95110 0.04077
 O113 O 0.49610 0.95876 0.09210
 O114 O 0.49970 0.88814 0.04828
 O115 O 0.53798 0.99995 0.04590
 O116 O 0.46561 1.00226 0.04636
 O117 O 0.44684 1.07574 -0.05705
 O118 O 0.40007 1.04011 -0.02767
 C119 C 0.41020 1.06793 -0.04860
 O120 O 0.55171 0.92536 -0.05982
 O121 O 0.59954 0.96017 -0.03095
 C122 C 0.58863 0.93318 -0.05234
 O123 O 0.44164 0.92626 -0.05519
 O124 O 0.39754 0.96735 -0.02778
 C125 C 0.40570 0.93759 -0.04748
 O126 O 0.55665 1.06446 -0.06416
 O127 O 0.60209 1.03010 -0.03247
 C128 C 0.59289 1.05391 -0.05660
 Zr129 Zr 0.50133 1.04904 -0.04297
 O130 O 0.49706 1.04352 -0.09429
 O131 O 0.50790 1.11236 -0.04536
 Zr132 Zr 0.49782 0.94893 -0.04137
 O133 O 0.49326 0.95069 -0.09294
 O134 O 0.49901 0.88518 -0.04188
 Zr135 Zr 0.56159 0.99770 -0.00195
 Zr136 Zr 0.43933 1.00219 -0.00033
 O137 O 0.46375 1.00022 -0.04769
 O138 O 0.53583 0.99743 -0.04895
 O139 O 0.46646 1.05952 -0.00157
 O140 O 0.53335 0.94102 -0.00071
 O141 O 0.53767 1.05633 -0.00278
 O142 O 0.46278 0.94311 0.00025
 H143 H 0.44763 1.00253 0.06566
 H144 H 0.54975 0.91614 -0.00076
 H145 H 0.44518 1.00062 -0.06656
 H146 H 0.55650 1.07930 -0.00422
 H147 H 0.50246 0.87551 0.02655
 H148 H 0.47960 0.87569 -0.02529
 H149 H 0.51603 0.96681 -0.10127
 H150 H 0.49771 1.07129 -0.10312
 H151 H 0.49104 1.12394 -0.02780
 H152 H 0.52134 1.12484 0.02336
 H153 H 0.52616 1.03585 0.09840
 H154 H 0.52339 0.96471 0.10022
 O155 O 1.05510 0.56949 0.55988
 O156 O 1.10183 0.53594 0.52877
 C157 C 1.09172 0.56164 0.55142
 O158 O 0.94769 0.42223 0.55176
 O159 O 0.90100 0.46146 0.52555
 C160 C 0.91107 0.43190 0.54479
 O161 O 1.05769 0.43034 0.55738
 O162 O 1.10320 0.46729 0.52772
 C163 C 1.09394 0.44141 0.55047
 O164 O 0.94495 0.56897 0.55897
 O165 O 0.89969 0.53280 0.52854
 C166 C 0.90874 0.55881 0.55121
 Zr167 Zr 1.00034 0.54807 0.54162
 O168 O 1.00049 0.53914 0.59271
 O169 O 0.99690 0.61141 0.54736
 Zr170 Zr 1.00250 0.44752 0.53715
 O171 O 0.99775 0.44229 0.58851
 O172 O 1.00953 0.38431 0.53278
 O173 O 1.03747 0.49829 0.54591
 O174 O 0.96604 0.49675 0.54543
 O175 O 0.94518 0.57817 0.44612
 O176 O 0.89983 0.53668 0.47157
 C177 C 0.90887 0.56716 0.45285
 O178 O 1.05756 0.43651 0.43506
 O179 O 1.10299 0.46884 0.46807
 C180 C 1.09384 0.44540 0.44361
 O181 O 0.94763 0.42839 0.44005
 O182 O 0.90083 0.46362 0.46984
 C183 C 0.91099 0.43632 0.44847
 O184 O 1.05528 0.57554 0.44240
 O185 O 1.10194 0.53791 0.47024
 C186 C 1.09191 0.56593 0.44952
 Zr187 Zr 1.00046 0.55329 0.45991
 O188 O 0.99851 0.55181 0.40834
 O189 O 1.00257 0.61697 0.46102
 Zr190 Zr 1.00239 0.45280 0.45575
 O191 O 0.99767 0.45647 0.40429
 O192 O 1.00902 0.38946 0.45303
 Zr193 Zr 1.06249 0.50162 0.49864
 Zr194 Zr 0.94030 0.49950 0.49856
 O195 O 0.96585 0.50280 0.45167
 O196 O 1.03761 0.50419 0.45139
 O197 O 0.96422 0.55815 0.50114
 O198 O 1.03817 0.44328 0.49619
 O199 O 1.03552 0.55884 0.50099
 O200 O 0.96641 0.44155 0.49616
 H201 H 0.94841 0.49501 0.56487
 H202 H 1.05694 0.42016 0.49546
 H203 H 0.94767 0.50357 0.43256
 H204 H 1.05287 0.58300 0.50149
 H205 H 0.98544 0.37348 0.52179
 H206 H 0.98780 0.37724 0.46668
 H207 H 1.01622 0.47787 0.39692
 H208 H 0.99801 0.58026 0.40107
 H209 H 0.98611 0.62577 0.47985
 H210 H 1.01549 0.62400 0.53157
 H211 H 0.99919 0.56629 0.60272
 H212 H 1.01331 0.46468 0.59813
 O213 O 0.92375 0.44333 -0.05661
 O214 O 0.96101 0.39751 -0.02760
 C215 C 0.93332 0.40682 -0.04877
 O216 O 1.06880 0.55399 -0.05799
 O217 O 1.03191 0.60062 -0.02925
 C218 C 1.05859 0.59068 -0.05113
 O219 O 1.06791 0.44361 -0.05816
 O220 O 1.03183 0.39761 -0.02826
 C221 C 1.05884 0.40704 -0.05006
 O222 O 0.92021 0.55367 -0.05391
 O223 O 0.96029 0.60041 -0.02859
 C224 C 0.93071 0.59044 -0.04777
 Zr225 Zr 0.94624 0.49877 -0.04025
 O226 O 0.95114 0.50176 -0.09181
 O227 O 0.88313 0.49766 -0.04500
 Zr228 Zr 1.04604 0.49894 -0.04105
 O229 O 1.03871 0.49825 -0.09231
 O230 O 1.10927 0.50023 -0.04540
 O231 O 0.99616 0.46203 -0.04690
 O232 O 0.99594 0.53463 -0.04690
 O233 O 0.92302 0.55597 0.05610
 O234 O 0.96057 0.60182 0.02731
 C235 C 0.93239 0.59252 0.04806
 O236 O 1.06386 0.44475 0.06185
 O237 O 1.02987 0.39801 0.03101
 C238 C 1.05400 0.40804 0.05465
 O239 O 1.06907 0.55524 0.05773
 O240 O 1.03239 0.60122 0.02830
 C241 C 1.05907 0.59175 0.05027
 O242 O 0.92911 0.44509 0.06216
 O243 O 0.96209 0.39831 0.03060
 C244 C 0.93817 0.40835 0.05448
 Zr245 Zr 0.94681 0.50008 0.04151
 O246 O 0.95026 0.50351 0.09300
 O247 O 0.88347 0.49574 0.04269
 Zr248 Zr 1.04709 0.49994 0.04071
 O249 O 1.04973 0.50380 0.09222
 O250 O 1.11039 0.49591 0.03808
 Zr251 Zr 0.99659 0.43797 0.00075
 Zr252 Zr 0.99659 0.56089 -0.00007
 O253 O 0.99684 0.53559 0.04700
 O254 O 0.99694 0.46399 0.04776
 O255 O 0.93850 0.53553 0.00041
 O256 O 1.05416 0.46382 0.00026
 O257 O 0.93901 0.46398 0.00115
 O258 O 1.05474 0.53584 -0.00048
 H259 H 0.99526 0.55246 -0.06628
 H260 H 1.07759 0.44552 0.00105
 H261 H 0.99647 0.55357 0.06632
 H262 H 0.91521 0.44619 0.00214
 H263 H 1.12052 0.48678 -0.02596
 H264 H 1.12007 0.51949 0.02557
 H265 H 1.02506 0.49107 0.10077
 H266 H 0.92226 0.50396 0.10113
 H267 H 0.87272 0.51650 0.02774
 H268 H 0.87198 0.49025 -0.02348
 H269 H 0.96264 0.47597 -0.09958
 H270 H 1.06606 0.49917 -0.10176
 O271 O 0.43509 1.05858 0.43829
 O272 O 0.47096 1.10323 0.46971
 C273 C 0.44602 1.09467 0.44627
 O274 O 0.42319 0.94897 0.55780
 O275 O 0.45800 0.90059 0.52928
 C276 C 0.43239 0.91183 0.55158
 O277 O 0.42138 1.05969 0.55120
 O278 O 0.46492 1.10380 0.52658
 C279 C 0.43385 1.09573 0.54483
 O280 O 0.43019 0.94816 0.43789
 O281 O 0.46090 0.90047 0.46989
 C282 C 0.43626 0.91125 0.44674
 Zr283 Zr 0.45273 1.00225 0.45675
 O284 O 0.38957 1.00260 0.45148
 O285 O 0.46264 1.00191 0.40575
 Zr286 Zr 0.44463 1.00319 0.53814
 O287 O 0.38130 1.00076 0.53510
 O288 O 0.44283 1.00686 0.58969
 O289 O 0.44240 1.03949 0.49675
 O290 O 0.43943 0.96760 0.49728
 O291 O 0.57215 0.94138 0.44633
 O292 O 0.53137 0.89709 0.47382
 C293 C 0.56048 0.90531 0.45355
 O294 O 0.56685 1.05284 0.56317
 O295 O 0.53596 1.10043 0.53120
 C296 C 0.55992 1.08978 0.55478
 O297 O 0.55709 0.94255 0.56619
 O298 O 0.52555 0.89755 0.53211
 C299 C 0.54767 0.90631 0.55735
 O300 O 0.58065 1.05130 0.44940
 O301 O 0.54184 1.09958 0.47429
 C302 C 0.57174 1.08844 0.45581
 Zr303 Zr 0.55255 0.99745 0.46340
 O304 O 0.61543 0.99001 0.46724
 O305 O 0.55657 1.00080 0.41185
 Zr306 Zr 0.54446 0.99842 0.54459
 O307 O 0.60750 0.99077 0.54647
 O308 O 0.54142 1.00203 0.59611
 Zr309 Zr 0.50149 1.06174 0.50056
 Zr310 Zr 0.49551 0.93893 0.50081
 O311 O 0.55414 0.96199 0.50465
 O312 O 0.55827 1.03404 0.50445
 O313 O 0.50146 0.96331 0.45359
 O314 O 0.49547 1.03633 0.54736
 O315 O 0.50501 1.03526 0.45391
 O316 O 0.49221 0.96482 0.54779
 H317 H 0.41481 0.95094 0.49656
 H318 H 0.49395 1.05424 0.56668
 H319 H 0.57690 0.94294 0.50649
 H320 H 0.50819 1.05272 0.43447
 H321 H 0.41412 1.00809 0.59591
 H322 H 0.51582 0.98942 0.60277
 H323 H 0.62013 1.01576 0.53830
 H324 H 0.62542 1.01037 0.48284
 H325 H 0.53765 0.98080 0.40273
 H326 H 0.43584 1.00364 0.39542
 H327 H 0.37896 1.02539 0.46443
 H328 H 0.37279 1.02134 0.51912
 O329 O 1.09594 1.03514 0.45309
 O330 O 1.04618 1.01797 0.41708
 C331 C 1.08171 1.03155 0.42379
 O332 O 1.03997 0.90452 0.54463
 O333 O 1.02196 0.95386 0.58105
 C334 C 1.03566 0.91835 0.57406
 O335 O 1.04552 0.90690 0.45392
 O336 O 1.02317 0.95459 0.41781
 C337 C 1.04052 0.92071 0.42462
 O338 O 1.09530 1.04001 0.54369
 O339 O 1.04752 1.01967 0.58045
 C340 C 1.08179 1.03576 0.57313
 Zr341 Zr 1.06812 1.02688 0.49877
 O342 O 1.12861 1.00748 0.49748
 O343 O 1.08618 1.08784 0.49776
 Zr344 Zr 1.03053 0.93265 0.49924
 O345 O 1.08924 0.90869 0.50212
 O346 O 1.00643 0.87386 0.49550
 O347 O 1.05643 0.97681 0.46993
 O348 O 1.05657 0.97701 0.52745
 O349 O 0.96650 1.09281 0.54522
 O350 O 0.98442 1.04325 0.58134
 C351 C 0.97079 1.07883 0.57455
 O352 O 0.90770 0.96376 0.45490
 O353 O 0.95697 0.97972 0.41795
 C354 C 0.92135 0.96686 0.42536
 O355 O 0.91124 0.95822 0.54575
 O356 O 0.95985 0.97830 0.58192
 C357 C 0.92523 0.96265 0.57507
 O358 O 0.95993 1.09073 0.45459
 O359 O 0.98064 1.04258 0.41816
 C360 C 0.96401 1.07675 0.42524
 Zr361 Zr 0.97484 1.06457 0.49972
 O362 O 0.91641 1.08906 0.50400
 O363 O 0.99918 1.12331 0.49631
 Zr364 Zr 0.93720 0.97022 0.49987
 O365 O 0.87661 0.98836 0.50308
 O366 O 0.91752 0.90972 0.49609
 Zr367 Zr 1.00209 0.99859 0.45054
 Zr368 Zr 1.00302 0.99855 0.54819
 O369 O 0.94914 1.02026 0.52813
 O370 O 0.94813 1.02045 0.47086
 O371 O 1.02471 1.05297 0.52853
 O372 O 0.98088 0.94449 0.47088
 O373 O 1.02387 1.05263 0.47057
 O374 O 0.98111 0.94400 0.52887
 H375 H 1.07834 0.96816 0.54221
 H376 H 0.97227 0.92265 0.45595
 H377 H 0.92725 1.02919 0.54284
 H378 H 1.03223 1.07468 0.45575
 H379 H 0.98743 0.87022 0.51382
 H380 H 0.92285 0.89628 0.51720
 H381 H 0.87602 1.01737 0.49792
 H382 H 0.90021 1.07859 0.48564
 H383 H 1.02072 1.12538 0.51281
 H384 H 1.11585 1.08760 0.49656
 H385 H 1.13092 0.98313 0.51118
 H386 H 1.10610 0.92415 0.48668
 O387 O 0.59179 0.54802 0.04254
 O388 O 0.54645 0.52430 0.08001
 C389 C 0.57928 0.54284 0.07219
 O390 O 0.44756 0.58229 -0.04581
 O391 O 0.47469 0.53769 -0.08259
 C392 C 0.45258 0.56842 -0.07506
 O393 O 0.45826 0.58913 0.04431
 O394 O 0.48170 0.54255 0.08092
 C395 C 0.46449 0.57641 0.07376
 O396 O 0.59228 0.54156 -0.04787
 O397 O 0.54381 0.51984 -0.08338
 C398 C 0.57819 0.53633 -0.07703
 Zr399 Zr 0.56494 0.53277 -0.00223
 O400 O 0.57764 0.59504 -0.00681
 O401 O 0.62722 0.52108 -0.00151
 Zr402 Zr 0.46862 0.56089 -0.00090
 O403 O 0.48616 0.62179 -0.00636
 O404 O 0.40741 0.57707 0.00259
 O405 O 0.51968 0.55501 0.02770
 O406 O 0.51807 0.55346 -0.03052
 O407 O 0.55241 0.40944 -0.04548
 O408 O 0.52625 0.45445 -0.08213
 C409 C 0.54592 0.42197 -0.07493
 O410 O 0.41554 0.44981 0.04645
 O411 O 0.46230 0.47504 0.08205
 C412 C 0.42898 0.45656 0.07560
 O413 O 0.41136 0.45300 -0.04405
 O414 O 0.45823 0.47353 -0.08161
 C415 C 0.42397 0.45777 -0.07376
 O416 O 0.54915 0.40879 0.04507
 O417 O 0.52696 0.45666 0.08120
 C418 C 0.54365 0.42243 0.07438
 Zr419 Zr 0.53672 0.43521 -0.00041
 O420 O 0.51860 0.37420 -0.00312
 O421 O 0.59752 0.41714 0.00245
 Zr422 Zr 0.44027 0.46374 0.00065
 O423 O 0.42434 0.40208 -0.00202
 O424 O 0.37910 0.48009 0.00386
 Zr425 Zr 0.50370 0.49901 0.04820
 Zr426 Zr 0.50175 0.49708 -0.04969
 O427 O 0.48583 0.44172 -0.02840
 O428 O 0.48681 0.44233 0.02955
 O429 O 0.55814 0.48106 -0.03041
 O430 O 0.44783 0.51504 0.02843
 O431 O 0.55877 0.48237 0.02697
 O432 O 0.44637 0.51385 -0.02898
 H433 H 0.52361 0.57570 -0.04601
 H434 H 0.42535 0.52217 0.04318
 H435 H 0.47890 0.41879 -0.04282
 H436 H 0.58173 0.47576 0.04133
 H437 H 0.40641 0.60689 0.00202
 H438 H 0.37625 0.50628 -0.00741
 H439 H 0.43383 0.38886 0.01819
 H440 H 0.49976 0.36924 0.01511
 H441 H 0.61189 0.42953 -0.01616
 H442 H 0.63043 0.49173 0.00125
 H443 H 0.57222 0.60803 0.01450
 H444 H 0.50546 0.62791 0.01126
 C445 C 0.31404 1.16546 0.13277
 C446 C 0.33564 1.19719 0.14682
 C447 C 0.31854 1.21997 0.17174
 C448 C 0.27936 1.21205 0.18267
 C449 C 0.25787 1.18126 0.16659
 N450 N 0.27564 1.15870 0.14268
 C451 C 0.33552 1.13589 0.11202
 N452 N 0.32326 1.12674 0.08105
 C453 C 0.34555 1.10257 0.06080
 C454 C 0.38256 1.08713 0.07147
 C455 C 0.39411 1.09471 0.10383
 C456 C 0.37089 1.11887 0.12399
 H457 H 0.33703 1.24241 0.18354
 H458 H 0.22792 1.17335 0.17437
 H459 H 0.33549 1.09718 0.03607
 H460 H 0.42198 1.08280 0.11337
 H461 H 0.36646 1.20283 0.13977
 H462 H 0.38104 1.12513 0.14860
 C463 C 0.81228 0.66043 0.63085
 C464 C 0.83570 0.69076 0.64498
 C465 C 0.81947 0.71515 0.66938
 C466 C 0.77971 0.70964 0.67987
 C467 C 0.75668 0.68002 0.66378
 N468 N 0.77343 0.65616 0.64033
 C469 C 0.83181 0.62927 0.61062
 N470 N 0.82410 0.62573 0.57801
 C471 C 0.84567 0.60028 0.55841
 C472 C 0.87736 0.57766 0.57158
 C473 C 0.88402 0.57958 0.60534
 C474 C 0.86141 0.60523 0.62485
 H475 H 0.83885 0.73684 0.68118
 H476 H 0.72623 0.67386 0.67125
 H477 H 0.83997 0.59983 0.53239
 H478 H 0.90829 0.56270 0.61638
 H479 H 0.86697 0.69413 0.63834
 H480 H 0.86804 0.60754 0.65068
 C481 C 0.68972 0.84052 0.13393
 C482 C 0.72945 0.84679 0.14406
 C483 C 0.74503 0.82397 0.16993
 C484 C 0.72136 0.79472 0.18574
 C485 C 0.68200 0.78928 0.17440
 N486 N 0.66765 0.81172 0.14930
 C487 C 0.66971 0.86460 0.10798
 N488 N 0.63529 0.84956 0.09512
 C489 C 0.61184 0.87074 0.07428
 C490 C 0.62173 0.91042 0.06565
 C491 C 0.65804 0.92630 0.07717
 C492 C 0.68217 0.90348 0.09844
 H493 H 0.77524 0.83014 0.17804
 H494 H 0.66210 0.76784 0.18591
 H495 H 0.58438 0.85708 0.06560
 H496 H 0.66651 0.95691 0.07129
 H497 H 0.74829 0.86907 0.13243
 H498 H 0.70890 0.91705 0.10850
 C499 C 1.18754 0.34262 0.63440
 C500 C 1.16289 0.31441 0.64999
 C501 C 1.17866 0.28965 0.67424
 C502 C 1.21919 0.29268 0.68329
 C503 C 1.24333 0.32018 0.66586
 N504 N 1.22709 0.34441 0.64241
 C505 C 1.16916 0.37358 0.61317
 N506 N 1.17804 0.37601 0.58066
 C507 C 1.15718 0.40074 0.56000
 C508 C 1.12494 0.42376 0.57192
 C509 C 1.11714 0.42310 0.60557
 C510 C 1.13905 0.39819 0.62616
 H511 H 1.15856 0.26927 0.68679
 H512 H 1.27455 0.32411 0.67203
 H513 H 1.16381 0.40021 0.53412
 H514 H 1.09243 0.44029 0.61569
 H515 H 1.13122 0.31272 0.64430
 H516 H 1.13140 0.39679 0.65186
 C517 C 0.68752 1.14710 -0.14342
 C518 C 0.66240 1.17088 -0.16281
 C519 C 0.67884 1.19622 -0.18623
 C520 C 0.72058 1.19837 -0.19066
 C521 C 0.74488 1.17511 -0.16976
 N522 N 0.72800 1.15023 -0.14701
 C523 C 0.66946 1.11687 -0.12134
 N524 N 0.67757 1.11678 -0.08867
 C525 C 0.65625 1.09355 -0.06722
 C526 C 0.62421 1.06991 -0.07849
 C527 C 0.61729 1.06793 -0.11218
 C528 C 0.63984 1.09113 -0.13360
 H529 H 0.65852 1.21345 -0.20135
 H530 H 0.77712 1.17545 -0.17227
 H531 H 0.66226 1.09590 -0.04132
 H532 H 0.59282 1.05005 -0.12177
 H533 H 0.63010 1.16918 -0.16031
 H534 H 0.63287 1.09054 -0.15942
 C535 C 1.18899 0.65726 0.36224
 C536 C 1.22983 0.65437 0.35440
 C537 C 1.24512 0.67709 0.32839
 C538 C 1.21987 0.70258 0.31016
 C539 C 1.17911 0.70381 0.31871
 N540 N 1.16516 0.68193 0.34423
 C541 C 1.17004 0.63446 0.38915
 N542 N 1.13652 0.65047 0.40283
 C543 C 1.11354 0.62997 0.42439
 C544 C 1.12282 0.59001 0.43258
 C545 C 1.15838 0.57323 0.42026
 C546 C 1.18226 0.59550 0.39846
 H547 H 1.27653 0.67408 0.32234
 H548 H 1.15805 0.72200 0.30510
 H549 H 1.08670 0.64427 0.43377
 H550 H 1.16627 0.54235 0.42579
 H551 H 1.24973 0.63516 0.36826
 H552 H 1.20836 0.58150 0.38757
 C553 C 0.30661 0.84695 -0.13331
 C554 C 0.26621 0.85090 -0.14224
 C555 C 0.25116 0.82772 -0.16816
 C556 C 0.27626 0.80081 -0.18526
 C557 C 0.31668 0.79882 -0.17579
 N558 N 0.33032 0.82104 -0.15034
 C559 C 0.32532 0.86990 -0.10630
 N560 N 0.35718 0.85277 -0.09104
 C561 C 0.38040 0.87313 -0.06955
 C562 C 0.37335 0.91406 -0.06318
 C563 C 0.33933 0.93211 -0.07706
 C564 C 0.31503 0.90997 -0.09866
 H565 H 0.22008 0.83140 -0.17502
 H566 H 0.33775 0.77971 -0.18860
 H567 H 0.40603 0.85794 -0.05902
 H568 H 0.33322 0.96376 -0.07305
 H569 H 0.24646 0.87124 -0.12925
 H570 H 0.29033 0.92482 -0.11083
 C571 C 0.81338 0.34158 0.36356
 C572 C 0.77235 0.34397 0.35632
 C573 C 0.75666 0.32048 0.33089
 C574 C 0.78165 0.29460 0.31267
 C575 C 0.82260 0.29388 0.32060
 N576 N 0.83694 0.31655 0.34553
 C577 C 0.83287 0.36528 0.38979
 N578 N 0.86760 0.35055 0.40228
 C579 C 0.89077 0.37181 0.42321
 C580 C 0.88033 0.41128 0.43208
 C581 C 0.84363 0.42674 0.42098
 C582 C 0.81966 0.40372 0.39975
 H583 H 0.72514 0.32324 0.32523
 H584 H 0.84351 0.27549 0.30694
 H585 H 0.91853 0.35848 0.43162
 H586 H 0.83476 0.45722 0.42706
 H587 H 0.75258 0.36341 0.37016
 H588 H 0.79257 0.41680 0.38986
 C589 C 1.14827 0.31639 0.14278
 C590 C 1.16991 0.34207 0.16337
 C591 C 1.19550 0.32600 0.18672
 C592 C 1.20001 0.28410 0.18992
 C593 C 1.17881 0.25936 0.16792
 N594 N 1.15371 0.27585 0.14522
 C595 C 1.11816 0.33370 0.12029
 N596 N 1.11896 0.32538 0.08763
 C597 C 1.09553 0.34589 0.06585
 C598 C 1.07062 0.37727 0.07677
 C599 C 1.06778 0.38435 0.11041
 C600 C 1.09126 0.36263 0.13216
 H601 H 1.21127 0.34669 0.20258
 H602 H 1.18108 0.22697 0.16941
 H603 H 1.09858 0.33979 0.03999
 H604 H 1.04891 0.40835 0.11973
 H605 H 1.16654 0.37445 0.16171
 H606 H 1.08983 0.36970 0.15797
 C607 C 0.64673 0.81355 0.64006
 C608 C 0.67089 0.83959 0.65835
 C609 C 0.69779 0.82392 0.68093
 C610 C 0.70099 0.78212 0.68559
 C611 C 0.67727 0.75696 0.66569
 N612 N 0.65094 0.77305 0.64379
 C613 C 0.61483 0.83051 0.61921
 N614 N 0.61392 0.82307 0.58644
 C615 C 0.58890 0.84368 0.56597
 C616 C 0.56416 0.87435 0.57838
 C617 C 0.56294 0.88030 0.61225
 C618 C 0.58809 0.85848 0.63267
 H619 H 0.71522 0.84482 0.69540
 H620 H 0.67819 0.72466 0.66850
 H621 H 0.59083 0.83855 0.53991
 H622 H 0.54437 0.90383 0.62270
 H623 H 0.66818 0.87194 0.65575
 H624 H 0.58823 0.86492 0.65861
 C625 C 1.15774 0.68656 -0.13352
 C626 C 1.18566 0.66245 -0.15001
 C627 C 1.20965 0.67916 -0.17429
 C628 C 1.20635 0.72017 -0.18232
 C629 C 1.17946 0.74381 -0.16382
 N630 N 1.15578 0.72659 -0.14046
 C631 C 1.12715 0.66709 -0.11267
 N632 N 1.12317 0.67640 -0.08032
 C633 C 1.09860 0.65479 -0.06004
 C634 C 1.07744 0.62142 -0.07220
 C635 C 1.07969 0.61315 -0.10572
 C636 C 1.10433 0.63579 -0.12591
 H637 H 1.22966 0.65939 -0.18761
 H638 H 1.17554 0.77543 -0.16910
 H639 H 1.09763 0.66196 -0.03427
 H640 H 1.06368 0.58778 -0.11606
 H641 H 1.18760 0.63045 -0.14511
 H642 H 1.10680 0.62795 -0.15153
 C643 C 0.66779 1.18490 0.37050
 C644 C 0.66215 1.22506 0.36096
 C645 C 0.68373 1.24033 0.33441
 C646 C 0.71132 1.21600 0.31732
 C647 C 0.71661 1.17628 0.32825
 N648 N 0.69517 1.16211 0.35406
 C649 C 0.64398 1.16545 0.39682
 N650 N 0.65849 1.13083 0.40998
 C651 C 0.63699 1.10798 0.43110
 C652 C 0.59755 1.11870 0.43954
 C653 C 0.58237 1.15526 0.42770
 C654 C 0.60550 1.17877 0.40627
 H655 H 0.67771 1.27089 0.32681
 H656 H 0.73701 1.15605 0.31584
 H657 H 0.65007 1.08023 0.43998
 H658 H 0.55192 1.16430 0.43328
 H659 H 0.64115 1.24449 0.37352
 H660 H 0.59231 1.20560 0.39589
 C661 C 0.84393 0.69107 0.13669
 C662 C 0.84631 0.73224 0.14427
 C663 C 0.82386 0.74759 0.17055
 C664 C 0.79931 0.72202 0.18936
 C665 C 0.79893 0.68089 0.18123
 N666 N 0.82032 0.66697 0.15540
 C667 C 0.86575 0.67201 0.10915
 N668 N 0.84938 0.63833 0.09587
 C669 C 0.86906 0.61510 0.07387
 C670 C 0.90862 0.62417 0.06476
 C671 C 0.92570 0.65995 0.07662
 C672 C 0.90421 0.68414 0.09885
 H673 H 0.82606 0.77931 0.17622
 H674 H 0.78129 0.65959 0.19510
 H675 H 0.85453 0.58808 0.06498
 H676 H 0.95631 0.66771 0.07046
 H677 H 0.86472 0.75236 0.12988
 H678 H 0.91849 0.71037 0.10935
 C679 C 0.34425 1.19234 0.63354
 C680 C 0.34793 1.23272 0.64311
 C681 C 0.32491 1.24715 0.66936
 C682 C 0.29838 1.22146 0.68621
 C683 C 0.29686 1.18098 0.67625
 N684 N 0.31888 1.16795 0.65041
 C685 C 0.36690 1.17455 0.60587
 N686 N 0.34950 1.14370 0.58935
 C687 C 0.36956 1.12138 0.56693
 C688 C 0.41048 1.12816 0.56092
 C689 C 0.42877 1.16127 0.57617
 C690 C 0.40693 1.18478 0.59863
 H691 H 0.32839 1.27825 0.67663
 H692 H 0.27812 1.15945 0.68889
 H693 H 0.35417 1.09641 0.55546
 H694 H 0.46042 1.16709 0.57257
 H695 H 0.36790 1.25298 0.63030
 H696 H 0.42195 1.20869 0.61177
 C697 C 0.83911 0.30713 -0.13292
 C698 C 0.84616 0.26762 -0.14364
 C699 C 0.82372 0.25208 -0.16964
 C700 C 0.79397 0.27552 -0.18500
 C701 C 0.78753 0.31461 -0.17294
 N702 N 0.80974 0.32900 -0.14771
 C703 C 0.86325 0.32707 -0.10703
 N704 N 0.84748 0.36038 -0.09263
 C705 C 0.86867 0.38388 -0.07182
 C706 C 0.90903 0.37532 -0.06498
 C707 C 0.92575 0.34008 -0.07811
 C708 C 0.90292 0.31579 -0.09924
 H709 H 0.83077 0.22213 -0.17829
 H710 H 0.76580 0.33437 -0.18419
 H711 H 0.85447 0.41055 -0.06187
 H712 H 0.95690 0.33275 -0.07370
 H713 H 0.86888 0.24897 -0.13244
 H714 H 0.91703 0.29004 -0.11065
 C715 C 0.33816 0.81312 0.36350
 C716 C 0.34308 0.77260 0.35463
 C717 C 0.31993 0.75653 0.32928
 C718 C 0.29153 0.78043 0.31273
 C719 C 0.28700 0.82050 0.32307
 N720 N 0.30994 0.83542 0.34766
 C721 C 0.36319 0.83356 0.38859
 N722 N 0.34999 0.86959 0.40008
 C723 C 0.37212 0.89301 0.42027
 C724 C 0.41087 0.88127 0.42972
 C725 C 0.42487 0.84347 0.41953
 C726 C 0.40113 0.81947 0.39882
 H727 H 0.32540 0.72571 0.32205
 H728 H 0.26610 0.84047 0.31101
 H729 H 0.35985 0.92167 0.42801
 H730 H 0.45468 0.83351 0.42613
 H731 H 0.36469 0.75350 0.36672
 H732 H 0.41330 0.79138 0.38985
 C733 C 1.16800 1.12908 0.33484
 C734 C 1.19229 1.15839 0.34949
 C735 C 1.20963 1.18820 0.33034
 C736 C 1.20332 1.18884 0.29648
 C737 C 1.17766 1.15958 0.28297
 N738 N 1.16074 1.13094 0.30224
 C739 C 1.14874 1.09760 0.35465
 N740 N 1.11042 1.08627 0.34789
 C741 C 1.08939 1.06143 0.36800
 C742 C 1.10674 1.04768 0.39716
 C743 C 1.14722 1.05644 0.40304
 C744 C 1.16831 1.08127 0.38184
 H745 H 1.22833 1.21038 0.34219
 H746 H 1.17134 1.15894 0.25709
 H747 H 1.05830 1.05507 0.36244
 H748 H 1.16199 1.04594 0.42498
 H749 H 1.19743 1.15866 0.37559
 H750 H 1.19916 1.08882 0.38733
 C751 C 0.66137 0.63059 -0.17085
 C752 C 0.65701 0.63019 -0.20480
 C753 C 0.67685 0.65898 -0.22341
 C754 C 0.70109 0.68833 -0.20839
 C755 C 0.70411 0.68781 -0.17423
 N756 N 0.68473 0.65922 -0.15665
 C757 C 0.64154 0.60087 -0.14977
 N758 N 0.65840 0.59267 -0.12035
 C759 C 0.64017 0.56903 -0.09791
 C760 C 0.60189 0.55324 -0.10408
 C761 C 0.58470 0.55964 -0.13488
 C762 C 0.60447 0.58347 -0.15785
 H763 H 0.67342 0.65757 -0.24965
 H764 H 0.72234 0.70955 -0.16140
 H765 H 0.65476 0.56452 -0.07460
 H766 H 0.55506 0.54830 -0.14051
 H767 H 0.63932 0.60742 -0.21701
 H768 H 0.58972 0.59002 -0.18075
 C769 C 0.87466 1.16432 0.66391
 C770 C 0.84398 1.18639 0.64894
 C771 C 0.81396 1.20330 0.66799
 C772 C 0.81457 1.19882 0.70204
 C773 C 0.84507 1.17501 0.71590
 N774 N 0.87391 1.15844 0.69671
 C775 C 0.90642 1.14581 0.64424
 N776 N 0.91858 1.10767 0.65119
 C777 C 0.94323 1.08682 0.63086
 C778 C 0.95558 1.10412 0.60126
 C779 C 0.94624 1.14461 0.59524
 C780 C 0.92169 1.16556 0.61671
 H781 H 0.79109 1.22091 0.65597
 H782 H 0.84670 1.17009 0.74195
 H783 H 0.95028 1.05579 0.63654
 H784 H 0.95580 1.15932 0.57295
 H785 H 0.84304 1.19036 0.62271
 H786 H 0.91325 1.19628 0.61108
 C787 C 0.36889 0.65967 0.16582
 C788 C 0.37053 0.65747 0.19984
 C789 C 0.34144 0.67703 0.21818
 C790 C 0.31058 0.69884 0.20277
 C791 C 0.30971 0.69949 0.16856
 N792 N 0.33873 0.68048 0.15121
 C793 C 0.39916 0.64045 0.14516
 N794 N 0.40634 0.65661 0.11529
 C795 C 0.43045 0.63840 0.09319
 C796 C 0.44763 0.60085 0.10029
 C797 C 0.44242 0.58462 0.13159
 C798 C 0.41814 0.60439 0.15417
 H799 H 0.34398 0.67555 0.24448
 H800 H 0.28695 0.71608 0.15549
 H801 H 0.43409 0.65223 0.06944
 H802 H 0.45493 0.55556 0.13793
 H803 H 0.39456 0.64186 0.21225
 H804 H 0.41239 0.59028 0.17752
 C805 C 1.12870 0.83274 0.66539
 C806 C 1.16034 0.81121 0.65120
 C807 C 1.18964 0.79459 0.67100
 C808 C 1.18743 0.79886 0.70504
 C809 C 1.15592 0.82204 0.71816
 N810 N 1.12777 0.83834 0.69823
 C811 C 1.09785 0.85115 0.64486
 N812 N 1.08481 0.88900 0.65187
 C813 C 1.06108 0.90988 0.63094
 C814 C 1.05061 0.89294 0.60071
 C815 C 1.06094 0.85275 0.59446
 C816 C 1.08449 0.83173 0.61653
 H817 H 1.21326 0.77738 0.65948
 H818 H 1.15304 0.82673 0.74419
 H819 H 1.05316 0.94066 0.63685
 H820 H 1.05277 0.83826 0.57173
 H821 H 1.16265 0.80752 0.62499
 H822 H 1.09360 0.80119 0.61085
 C823 C 0.63299 0.33583 0.16851
 C824 C 0.63122 0.33890 0.20252
 C825 C 0.65937 0.31852 0.22122
 C826 C 0.68937 0.29512 0.20614
 C827 C 0.69010 0.29326 0.17195
 N828 N 0.66211 0.31314 0.15429
 C829 C 0.60436 0.35645 0.14732
 N830 N 0.59710 0.34024 0.11747
 C831 C 0.57491 0.35953 0.09475
 C832 C 0.55984 0.39816 0.10119
 C833 C 0.56527 0.41471 0.13238
 C834 C 0.58758 0.39387 0.15560
 H835 H 0.65707 0.32094 0.24749
 H836 H 0.71227 0.27554 0.15911
 H837 H 0.57092 0.34541 0.07114
 H838 H 0.55429 0.44456 0.13822
 H839 H 0.60797 0.35611 0.21461
 H840 H 0.59356 0.40802 0.17890
 C841 C 0.83308 0.86962 0.33810
 C842 C 0.80938 0.83975 0.35269
 C843 C 0.79179 0.81028 0.33331
 C844 C 0.79717 0.81073 0.29934
 C845 C 0.82250 0.84041 0.28594
 N846 N 0.83964 0.86860 0.30540
 C847 C 0.85258 0.90085 0.35781
 N848 N 0.89037 0.91293 0.34995
 C849 C 0.91180 0.93792 0.36957
 C850 C 0.89543 0.95105 0.39931
 C851 C 0.85531 0.94168 0.40631
 C852 C 0.83381 0.91659 0.38563
 H853 H 0.77332 0.78775 0.34500
 H854 H 0.82836 0.84189 0.26000
 H855 H 0.94252 0.94483 0.36312
 H856 H 0.84125 0.95177 0.42873
 H857 H 0.80483 0.83886 0.37886
 H858 H 0.80333 0.90847 0.39194
 C859 C 0.33381 0.36516 -0.16326
 C860 C 0.30988 0.33509 -0.14928
 C861 C 0.29154 0.30689 -0.16927
 C862 C 0.29651 0.30866 -0.20325
 C863 C 0.32186 0.33860 -0.21613
 N864 N 0.33977 0.36565 -0.19605
 C865 C 0.35413 0.39488 -0.14269
 N866 N 0.39220 0.40633 -0.15022
 C867 C 0.41424 0.42973 -0.12980
 C868 C 0.39817 0.44174 -0.09966
 C869 C 0.35799 0.43275 -0.09273
 C870 C 0.33585 0.40943 -0.11423
 H871 H 0.27292 0.28421 -0.15795
 H872 H 0.32726 0.34103 -0.24209
 H873 H 0.44504 0.43647 -0.13613
 H874 H 0.34422 0.44216 -0.07000
 H875 H 0.30578 0.33302 -0.12311
 H876 H 0.30519 0.40177 -0.10813
 C877 C 1.15202 0.31001 -0.13690
 C878 C 1.15002 0.26897 -0.14494
 C879 C 1.17389 0.25394 -0.17050
 C880 C 1.19954 0.27969 -0.18818
 C881 C 1.19973 0.32065 -0.17951
 N882 N 1.17688 0.33427 -0.15440
 C883 C 1.12846 0.32875 -0.11013
 N884 N 1.14398 0.36225 -0.09595
 C885 C 1.12307 0.38506 -0.07443
 C886 C 1.08310 0.37574 -0.06673
 C887 C 1.06674 0.34016 -0.07959
 C888 C 1.08947 0.31639 -0.10135
 H889 H 1.17173 0.22235 -0.17663
 H890 H 1.21804 0.34211 -0.19263
 H891 H 1.13708 0.41192 -0.06470
 H892 H 1.03589 0.33219 -0.07450
 H893 H 1.13070 0.24870 -0.13151
 H894 H 1.07585 0.29028 -0.11259
 C895 C 0.65216 0.80946 0.36597
 C896 C 0.65030 0.76869 0.35724
 C897 C 0.67425 0.75446 0.33150
 C898 C 0.69970 0.78082 0.31421
 C899 C 0.69956 0.82158 0.32342
 N900 N 0.67675 0.83440 0.34886
 C901 C 0.62876 0.82695 0.39325
 N902 N 0.64567 0.85775 0.41013
 C903 C 0.62496 0.87992 0.43221
 C904 C 0.58391 0.87306 0.43743
 C905 C 0.56603 0.84001 0.42180
 C906 C 0.58856 0.81660 0.39970
 H907 H 0.67238 0.72296 0.32499
 H908 H 0.71769 0.84344 0.31057
 H909 H 0.64001 0.90483 0.44408
 H910 H 0.53433 0.83411 0.42488
 H911 H 0.63109 0.74802 0.37039
 H912 H 0.57402 0.79268 0.38622
 C913 C 0.84224 0.68636 -0.13797
 C914 C 0.84489 0.72741 -0.14568
 C915 C 0.82274 0.74265 -0.17199
 C916 C 0.79810 0.71714 -0.19075
 C917 C 0.79732 0.67610 -0.18250
 N918 N 0.81854 0.66221 -0.15659
 C919 C 0.86408 0.66775 -0.11034
 N920 N 0.84762 0.63457 -0.09636
 C921 C 0.86725 0.61213 -0.07387
 C922 C 0.90684 0.62148 -0.06500
 C923 C 0.92397 0.65678 -0.07769
 C924 C 0.90255 0.68018 -0.10037
 H925 H 0.82533 0.77430 -0.17771
 H926 H 0.77968 0.65489 -0.19646
 H927 H 0.85265 0.58547 -0.06437
 H928 H 0.95459 0.66473 -0.07178
 H929 H 0.86332 0.74758 -0.13135
 H930 H 0.91689 0.70603 -0.11142
 C931 C 0.35141 1.18572 0.35901
 C932 C 0.32995 1.15942 0.33881
 C933 C 0.30431 1.17484 0.31516
 C934 C 0.29979 1.21665 0.31128
 C935 C 0.32109 1.24197 0.33278
 N936 N 0.34610 1.22614 0.35577
 C937 C 0.38166 1.16927 0.38166
 N938 N 0.37884 1.17562 0.41451
 C939 C 0.40256 1.15543 0.43624
 C940 C 0.42998 1.12648 0.42497
 C941 C 0.43478 1.12153 0.39122
 C942 C 0.41082 1.14284 0.36956
 H943 H 0.28862 1.15381 0.29955
 H944 H 0.31913 1.27428 0.33061
 H945 H 0.39778 1.15959 0.46218
 H946 H 0.45532 1.09909 0.38169
 H947 H 0.33359 1.12711 0.34099
 H948 H 0.41355 1.13721 0.34358
 C949 C 1.16130 0.68483 0.13187
 C950 C 1.18839 0.65997 0.14848
 C951 C 1.21285 0.67613 0.17275
 C952 C 1.21054 0.71722 0.18078
 C953 C 1.18431 0.74148 0.16226
 N954 N 1.16036 0.72487 0.13885
 C955 C 1.13016 0.66642 0.11096
 N956 N 1.12804 0.67424 0.07827
 C957 C 1.10254 0.65360 0.05813
 C958 C 1.07821 0.62283 0.07084
 C959 C 1.07865 0.61621 0.10465
 C960 C 1.10446 0.63780 0.12468
 H961 H 1.23229 0.65597 0.18617
 H962 H 1.18097 0.77315 0.16758
 H963 H 1.10326 0.65926 0.03211
 H964 H 1.06045 0.59262 0.11537
 H965 H 1.18934 0.62790 0.14364
 H966 H 1.10552 0.63111 0.15055
 C967 C 0.66510 1.18468 0.63266
 C968 C 0.69502 1.16087 0.64688
 C969 C 0.71970 1.17716 0.67088
 C970 C 0.71501 1.21739 0.68085
 C971 C 0.68605 1.24087 0.66448
 N972 N 0.66177 1.22404 0.64144
 C973 C 0.63344 1.16514 0.61315
 N974 N 0.62747 1.17444 0.58105
 C975 C 0.60131 1.15316 0.56198
 C976 C 0.58044 1.12018 0.57514
 C977 C 0.58474 1.11201 0.60855
 C978 C 0.61110 1.13426 0.62751
 H979 H 0.74101 1.15749 0.68281
 H980 H 0.68068 1.27178 0.67146
 H981 H 0.59881 1.16025 0.53627
 H982 H 0.56898 1.08703 0.61972
 H983 H 0.69778 1.12927 0.64068
 H984 H 0.61514 1.12653 0.65299
 C985 C 0.83794 0.31213 0.13553
 C986 C 0.80914 0.33586 0.15139
 C987 C 0.78483 0.31889 0.17535
 C988 C 0.78882 0.27806 0.18372
 C989 C 0.81647 0.25474 0.16568
 N990 N 0.84039 0.27219 0.14264
 C991 C 0.86889 0.33187 0.11526
 N992 N 0.87410 0.32221 0.08311
 C993 C 0.89916 0.34379 0.06325
 C994 C 0.91961 0.37750 0.07562
 C995 C 0.91625 0.38604 0.10905
 C996 C 0.89104 0.36344 0.12882
 H997 H 0.76428 0.33838 0.18839
 H998 H 0.82097 0.22327 0.17124
 H999 H 0.90096 0.33640 0.03754
 H1000 H 0.93169 0.41164 0.11959
 H1001 H 0.80683 0.36779 0.14633
 H1002 H 0.88766 0.37149 0.15433
 C1003 C 0.33456 0.81730 0.63632
 C1004 C 0.30550 0.84080 0.65208
 C1005 C 0.28216 0.82404 0.67673
 C1006 C 0.28721 0.78357 0.68581
 C1007 C 0.31531 0.76044 0.66809
 N1008 N 0.33831 0.77772 0.64435
 C1009 C 0.36440 0.83717 0.61506
 N1010 N 0.37015 0.82561 0.58337
 C1011 C 0.39435 0.84693 0.56261
 C1012 C 0.41329 0.88223 0.57355
 C1013 C 0.40934 0.89284 0.60655
 C1014 C 0.38507 0.87054 0.62723
 H1015 H 0.26123 0.84340 0.68951
 H1016 H 0.32070 0.72929 0.67427
 H1017 H 0.39682 0.83780 0.53731
 H1018 H 0.42387 0.91955 0.61608
 H1019 H 0.30215 0.87246 0.64631
 H1020 H 0.38139 0.88005 0.65238
 C1021 C 0.31088 1.16314 -0.13284
 C1022 C 0.27096 1.15693 -0.14251
 C1023 C 0.25510 1.17939 -0.16847
 C1024 C 0.27866 1.20824 -0.18485
 C1025 C 0.31818 1.21378 -0.17388
 N1026 N 0.33283 1.19165 -0.14869
 C1027 C 0.33117 1.13918 -0.10691
 N1028 N 0.36607 1.15391 -0.09463
 C1029 C 0.38964 1.13266 -0.07391
 C1030 C 0.37938 1.09322 -0.06481
 C1031 C 0.34263 1.07773 -0.07574
 C1032 C 0.31838 1.10062 -0.09686
 H1033 H 0.22472 1.17327 -0.17619
 H1034 H 0.33793 1.23505 -0.18576
 H1035 H 0.41751 1.14599 -0.06577
 H1036 H 0.33389 1.04726 -0.06960
 H1037 H 0.25217 1.13495 -0.13047
 H1038 H 0.29130 1.08726 -0.10645
 C1039 C 0.80933 0.66306 0.36967
 C1040 C 0.77009 0.65609 0.35868
 C1041 C 0.75465 0.67923 0.33296
 C1042 C 0.77800 0.70945 0.31806
 C1043 C 0.81682 0.71571 0.33033
 N1044 N 0.83107 0.69293 0.35532
 C1045 C 0.82912 0.63841 0.39541
 N1046 N 0.86182 0.65428 0.41042
 C1047 C 0.88519 0.63274 0.43111
 C1048 C 0.87721 0.59188 0.43717
 C1049 C 0.84255 0.57505 0.42339
 C1050 C 0.81835 0.59825 0.40245
 H1051 H 0.72483 0.67248 0.32421
 H1052 H 0.83646 0.73792 0.31951
 H1053 H 0.91138 0.64708 0.44151
 H1054 H 0.83567 0.54351 0.42708
 H1055 H 0.75155 0.63299 0.36955
 H1056 H 0.79311 0.58407 0.39055
 C1057 C 0.69028 1.15135 0.13545
 C1058 C 0.73062 1.14794 0.14454
 C1059 C 0.74516 1.17122 0.17049
 C1060 C 0.71962 1.19777 0.18759
 C1061 C 0.67923 1.19922 0.17804
 N1062 N 0.66605 1.17687 0.15244
 C1063 C 0.67253 1.12831 0.10809
 N1064 N 0.64159 1.14552 0.09172
 C1065 C 0.61955 1.12516 0.06942
 C1066 C 0.62680 1.08416 0.06337
 C1067 C 0.65994 1.06603 0.07847
 C1068 C 0.68313 1.08819 0.10086
 H1069 H 0.77626 1.16786 0.17736
 H1070 H 0.65791 1.21799 0.19091
 H1071 H 0.59450 1.14037 0.05800
 H1072 H 0.66611 1.03435 0.07477
 H1073 H 0.75076 1.12796 0.13155
 H1074 H 0.70716 1.07334 0.11388
 C1075 C 1.18777 0.65515 0.63804
 C1076 C 1.22869 0.65334 0.64576
 C1077 C 1.24360 0.67718 0.67131
 C1078 C 1.21787 0.70268 0.68920
 C1079 C 1.17702 0.70259 0.68090
 N1080 N 1.16350 0.67974 0.65581
 C1081 C 1.16909 0.63162 0.61140
 N1082 N 1.13510 0.64683 0.59801
 C1083 C 1.11230 0.62577 0.57672
 C1084 C 1.12231 0.58602 0.56843
 C1085 C 1.15832 0.56999 0.58045
 C1086 C 1.18198 0.59285 0.60204
 H1087 H 1.27508 0.67505 0.67731
 H1088 H 1.15556 0.72064 0.69428
 H1089 H 1.08510 0.63951 0.56755
 H1090 H 1.16680 0.53929 0.57477
 H1091 H 1.24894 0.63418 0.63211
 H1092 H 1.20851 0.57948 0.61268
 C1093 C 0.68801 0.83512 -0.13490
 C1094 C 0.72802 0.84107 -0.14441
 C1095 C 0.74409 0.81806 -0.16996
 C1096 C 0.72070 0.78882 -0.18603
 C1097 C 0.68123 0.78319 -0.17497
 N1098 N 0.66629 0.80602 -0.15024
 C1099 C 0.66731 0.86015 -0.10986
 N1100 N 0.63182 0.84630 -0.09805
 C1101 C 0.60803 0.86840 -0.07806
 C1102 C 0.61881 0.90778 -0.06919
 C1103 C 0.65605 0.92249 -0.07973
 C1104 C 0.68043 0.89878 -0.10020
 H1105 H 0.77440 0.82438 -0.17781
 H1106 H 0.66159 0.76169 -0.18669
 H1107 H 0.57984 0.85559 -0.07006
 H1108 H 0.66524 0.95284 -0.07361
 H1109 H 0.74667 0.86344 -0.13273
 H1110 H 0.70802 0.91149 -0.10946
 C1111 C 1.18941 0.34064 0.36594
 C1112 C 1.16615 0.30927 0.35315
 C1113 C 1.18227 0.28388 0.32933
 C1114 C 1.22169 0.28952 0.31802
 C1115 C 1.24454 0.32030 0.33282
 N1116 N 1.22795 0.34502 0.35574
 C1117 C 1.16998 0.37262 0.38541
 N1118 N 1.17817 0.37766 0.41780
 C1119 C 1.15701 0.40412 0.43682
 C1120 C 1.12523 0.42632 0.42329
 C1121 C 1.11823 0.42298 0.38962
 C1122 C 1.14040 0.39624 0.37071
 H1123 H 1.16297 0.26140 0.31843
 H1124 H 1.27462 0.32681 0.32459
 H1125 H 1.16301 0.40560 0.46276
 H1126 H 1.09395 0.43950 0.37825
 H1127 H 1.13507 0.30582 0.36033
 H1128 H 1.13347 0.39281 0.34501
 C1129 C 0.31094 0.84263 0.13166
 C1130 C 0.27071 0.84670 0.14099
 C1131 C 0.25590 0.82347 0.16684
 C1132 C 0.28098 0.79615 0.18344
 C1133 C 0.32120 0.79374 0.17346
 N1134 N 0.33471 0.81626 0.14811
 C1135 C 0.32936 0.86644 0.10509
 N1136 N 0.36161 0.85029 0.08960
 C1137 C 0.38434 0.87159 0.06836
 C1138 C 0.37624 0.91243 0.06253
 C1139 C 0.34183 0.92943 0.07664
 C1140 C 0.31812 0.90639 0.09799
 H1141 H 0.22502 0.82768 0.17414
 H1142 H 0.34225 0.77442 0.18600
 H1143 H 0.41033 0.85720 0.05757
 H1144 H 0.33494 0.96098 0.07299
 H1145 H 0.25089 0.86736 0.12848
 H1146 H 0.29309 0.92049 0.11036
 C1147 C 0.81618 0.34064 0.63325
 C1148 C 0.77532 0.34289 0.64103
 C1149 C 0.76044 0.32039 0.66727
 C1150 C 0.78611 0.29571 0.68584
 C1151 C 0.82698 0.29541 0.67758
 N1152 N 0.84055 0.31701 0.65173
 C1153 C 0.83440 0.36303 0.60580
 N1154 N 0.86760 0.34699 0.59164
 C1155 C 0.88987 0.36736 0.56948
 C1156 C 0.88024 0.40724 0.56127
 C1157 C 0.84486 0.42391 0.57404
 C1158 C 0.82166 0.40175 0.59635
 H1159 H 0.72893 0.32280 0.67311
 H1160 H 0.84829 0.27782 0.69144
 H1161 H 0.91662 0.35318 0.55983
 H1162 H 0.83674 0.45476 0.56858
 H1163 H 0.75504 0.36132 0.62683
 H1164 H 0.79578 0.41573 0.60759
 C1165 C 1.16570 1.13429 0.66218
 C1166 C 1.18758 1.16570 0.64791
 C1167 C 1.20512 1.19462 0.66772
 C1168 C 1.20144 1.19214 0.70177
 C1169 C 1.17773 1.16102 0.71493
 N1170 N 1.16063 1.13327 0.69505
 C1171 C 1.14719 1.10318 0.64191
 N1172 N 1.10965 1.08993 0.64926
 C1173 C 1.08922 1.06486 0.62902
 C1174 C 1.10645 1.05291 0.59929
 C1175 C 1.14628 1.06373 0.59271
 C1176 C 1.16675 1.08882 0.61399
 H1177 H 1.22264 1.21805 0.65624
 H1178 H 1.17331 1.15800 0.74097
 H1179 H 1.05866 1.05680 0.63508
 H1180 H 1.16097 1.05452 0.57031
 H1181 H 1.19098 1.16797 0.62168
 H1182 H 1.19706 1.09802 0.60811
 C1183 C 0.66558 0.63854 0.16267
 C1184 C 0.68964 0.66883 0.14919
 C1185 C 0.70792 0.69659 0.16960
 C1186 C 0.70266 0.69431 0.20353
 C1187 C 0.67711 0.66421 0.21593
 N1188 N 0.65936 0.63749 0.19544
 C1189 C 0.64596 0.60881 0.14160
 N1190 N 0.60804 0.59639 0.14870
 C1191 C 0.58693 0.57243 0.12802
 C1192 C 0.60385 0.56072 0.09810
 C1193 C 0.64379 0.57103 0.09151
 C1194 C 0.66497 0.59488 0.11325
 H1195 H 0.72674 0.71934 0.15860
 H1196 H 0.67154 0.66137 0.24184
 H1197 H 0.55626 0.56474 0.13404
 H1198 H 0.65820 0.56190 0.06896
 H1199 H 0.69402 0.67136 0.12307
 H1200 H 0.69554 0.60324 0.10748
 C1201 C 1.13441 0.83888 0.32986
 C1202 C 1.13273 0.84261 0.29588
 C1203 C 1.16113 0.82285 0.27685
 C1204 C 1.19124 0.79937 0.29155
 C1205 C 1.19210 0.79716 0.32573
 N1206 N 1.16387 0.81639 0.34371
 C1207 C 1.10509 0.85826 0.35141
 N1208 N 1.09853 0.84157 0.38120
 C1209 C 1.07526 0.85955 0.40403
 C1210 C 1.05810 0.89731 0.39774
 C1211 C 1.06297 0.91432 0.36665
 C1212 C 1.08650 0.89485 0.34335
 H1213 H 1.15879 0.82559 0.25061
 H1214 H 1.21442 0.77943 0.33831
 H1215 H 1.07196 0.84515 0.42758
 H1216 H 1.05051 0.94359 0.36091
 H1217 H 1.10925 0.85964 0.28401
 H1218 H 1.09182 0.90948 0.32015
 C1219 C 0.63762 0.33617 -0.16921
 C1220 C 0.63718 0.34108 -0.20312
 C1221 C 0.66539 0.32087 -0.22201
 C1222 C 0.69400 0.29555 -0.20730
 C1223 C 0.69309 0.29138 -0.17326
 N1224 N 0.66531 0.31144 -0.15539
 C1225 C 0.60921 0.35700 -0.14763
 N1226 N 0.60306 0.34137 -0.11741
 C1227 C 0.58063 0.36042 -0.09463
 C1228 C 0.56372 0.39815 -0.10146
 C1229 C 0.56825 0.41423 -0.13288
 C1230 C 0.59109 0.39375 -0.15609
 H1231 H 0.66422 0.32498 -0.24820
 H1232 H 0.71417 0.27218 -0.16068
 H1233 H 0.57754 0.34673 -0.07078
 H1234 H 0.55590 0.44344 -0.13899
 H1235 H 0.61502 0.35963 -0.21514
 H1236 H 0.59604 0.40768 -0.17960
 C1237 C 0.86906 1.15894 0.33195
 C1238 C 0.86999 1.15490 0.29798
 C1239 C 0.84103 1.17422 0.27937
 C1240 C 0.81110 1.19767 0.29447
 C1241 C 0.81112 1.20040 0.32864
 N1242 N 0.83985 1.18149 0.34621
 C1243 C 0.89876 1.13960 0.35304
 N1244 N 0.90578 1.15624 0.38279
 C1245 C 0.92934 1.13817 0.40528
 C1246 C 0.94627 1.10037 0.39866
 C1247 C 0.94097 1.08346 0.36758
 C1248 C 0.91716 1.10301 0.34465
 H1249 H 0.84277 1.17112 0.25311
 H1250 H 0.78903 1.21819 0.34150
 H1251 H 0.93297 1.15248 0.42884
 H1252 H 0.95330 1.05417 0.36161
 H1253 H 0.89327 1.13787 0.28576
 H1254 H 0.91147 1.08841 0.32150
 C1255 C 0.35455 0.65675 -0.16217
 C1256 C 0.32630 0.68262 -0.14793
 C1257 C 0.30184 0.70575 -0.16771
 C1258 C 0.30554 0.70366 -0.20174
 C1259 C 0.33554 0.67861 -0.21501
 N1260 N 0.35896 0.65594 -0.19512
 C1261 C 0.37896 0.63025 -0.14171
 N1262 N 0.41788 0.62240 -0.14979
 C1263 C 0.44225 0.60063 -0.12982
 C1264 C 0.42743 0.58676 -0.09990
 C1265 C 0.38701 0.59262 -0.09222
 C1266 C 0.36260 0.61396 -0.11316
 H1267 H 0.28003 0.72515 -0.15610
 H1268 H 0.34016 0.67640 -0.24109
 H1269 H 0.47332 0.59590 -0.13649
 H1270 H 0.37448 0.58120 -0.06961
 H1271 H 0.32308 0.68506 -0.12169
 H1272 H 0.33137 0.61824 -0.10675
 C1273 C 0.83628 0.86753 0.66347
 C1274 C 0.81092 0.83937 0.64858
 C1275 C 0.79225 0.81024 0.66751
 C1276 C 0.79829 0.80926 0.70138
 C1277 C 0.82508 0.83728 0.71514
 N1278 N 0.84329 0.86526 0.69607
 C1279 C 0.85673 0.89826 0.64392
 N1280 N 0.89572 0.90739 0.65032
 C1281 C 0.91758 0.93151 0.63024
 C1282 C 0.90029 0.94663 0.60157
 C1283 C 0.85934 0.94009 0.59607
 C1284 C 0.83745 0.91602 0.61723
 H1285 H 0.77285 0.78882 0.65549
 H1286 H 0.83137 0.83746 0.74103
 H1287 H 0.94906 0.93621 0.63540
 H1288 H 0.84471 0.95187 0.57450
 H1289 H 0.80597 0.83948 0.62245
 H1290 H 0.80616 0.91014 0.61208
 C1291 C 0.33695 0.36743 0.16624
 C1292 C 0.30962 0.34080 0.15183
 C1293 C 0.29002 0.31263 0.17105
 C1294 C 0.29713 0.31096 0.20476
 C1295 C 0.32551 0.33770 0.21810
 N1296 N 0.34464 0.36476 0.19873
 C1297 C 0.35881 0.39665 0.14615
 N1298 N 0.39849 0.40343 0.15178
 C1299 C 0.42128 0.42578 0.13100
 C1300 C 0.40417 0.44133 0.10243
 C1301 C 0.36282 0.43710 0.09760
 C1302 C 0.34002 0.41500 0.11948
 H1303 H 0.26962 0.29201 0.15923
 H1304 H 0.33261 0.33732 0.24385
 H1305 H 0.45309 0.42886 0.13560
 H1306 H 0.34841 0.44943 0.07612
 H1307 H 0.30408 0.34109 0.12579
 H1308 H 0.30829 0.41103 0.11491
   
