data_POSCAR
  _audit_creation_date              2014-09-24
  _audit_creation_method            'ToBaCCo'
  _symmetry_space_group_name_H-M    'P1'
  _symmetry_Int_Tables_number       1
  _symmetry_cell_setting            triclinic
  loop_
  _symmetry_equiv_pos_as_xyz
 x,y,z
_cell_length_a 52.4008
_cell_length_b 52.3580
_cell_length_c 52.4425
_cell_angle_alpha 90.403200
_cell_angle_beta 90.488900
_cell_angle_gamma 89.524800
loop_
  _atom_site_label
  _atom_site_type_symbol
  _atom_site_fract_x
  _atom_site_fract_y
  _atom_site_fract_z
C1 C 0.08726 0.01755 0.21503
 H2 H 0.08128 0.02992 0.23051
 C3 C 0.07520 0.01927 0.19114
 H4 H 0.05969 0.03280 0.18849
 C5 C 0.11555 -0.01425 0.19930
 H6 H 0.13184 -0.02669 0.20220
 C7 C 0.10428 -0.01300 0.17521
 H8 H 0.11171 -0.02509 0.16012
 N9 N 0.10689 0.00075 0.21870
 C10 C 0.12004 -0.00159 0.30096
 H11 H 0.14060 -0.00047 0.29976
 C12 C 0.10853 -0.00325 0.32465
 H13 H 0.12048 -0.00330 0.34160
 C14 C 0.07986 -0.00326 0.27994
 H15 H 0.06890 -0.00362 0.26239
 C16 C 0.06746 -0.00520 0.30345
 H17 H 0.04686 -0.00664 0.30381
 Zn18 Zn 0.12591 0.00011 0.24961
 N19 N 0.10572 -0.00128 0.27924
 C20 C 0.13811 0.04929 0.26673
 N21 N 0.14573 0.03020 0.25073
 C22 C 0.16500 0.03372 0.23392
 C23 C 0.17753 0.05722 0.23292
 C24 C 0.14992 0.07302 0.26623
 C25 C 0.13101 -0.05160 0.24854
 C26 C 0.14215 -0.07575 0.24961
 C27 C 0.18321 -0.05583 0.25603
 C28 C 0.17116 -0.03187 0.25436
 N29 N 0.14550 -0.03031 0.25055
 H30 H 0.12218 0.04651 0.27930
 H31 H 0.17023 0.01848 0.22090
 H32 H 0.19262 0.05979 0.21922
 H33 H 0.14322 0.08795 0.27896
 H34 H 0.11057 -0.04972 0.24599
 H35 H 0.12978 -0.09214 0.24770
 H36 H 0.20366 -0.05654 0.25915
 H37 H 0.18221 -0.01463 0.25651
 C38 C 0.08190 -0.00505 0.32621
 C39 C 0.08389 0.00398 0.17078
 C40 C 0.16869 -0.07839 0.25351
 C41 C 0.16975 0.07736 0.24902
 C42 C 0.41404 0.01634 0.78517
 H43 H 0.41912 0.02930 0.77009
 C44 C 0.42614 0.01814 0.80904
 H45 H 0.44077 0.03234 0.81208
 C46 C 0.38791 -0.01706 0.79995
 H47 H 0.37242 -0.03020 0.79671
 C48 C 0.39924 -0.01576 0.82402
 H49 H 0.39268 -0.02847 0.83874
 N50 N 0.39540 -0.00119 0.78106
 C51 C 0.38163 -0.00295 0.69894
 H52 H 0.36104 -0.00237 0.70026
 C53 C 0.39309 -0.00347 0.67514
 H54 H 0.38110 -0.00336 0.65823
 C55 C 0.42197 -0.00392 0.71973
 H56 H 0.43303 -0.00425 0.73722
 C57 C 0.43433 -0.00479 0.69612
 H58 H 0.45498 -0.00552 0.69561
 Zn59 Zn 0.37608 -0.00151 0.75037
 N60 N 0.39605 -0.00272 0.72059
 C61 C 0.36364 0.04767 0.73394
 N62 N 0.35619 0.02884 0.74992
 C63 C 0.33702 0.03278 0.76687
 C64 C 0.32427 0.05639 0.76788
 C65 C 0.35164 0.07147 0.73446
 C66 C 0.37107 -0.05324 0.74922
 C67 C 0.35974 -0.07714 0.74814
 C68 C 0.31847 -0.05632 0.74553
 C69 C 0.33068 -0.03263 0.74691
 N70 N 0.35655 -0.03163 0.74899
 H71 H 0.37955 0.04462 0.72131
 H72 H 0.33197 0.01778 0.77993
 H73 H 0.30920 0.05931 0.78162
 H74 H 0.35816 0.08615 0.72167
 H75 H 0.39163 -0.05181 0.75046
 H76 H 0.37181 -0.09402 0.74859
 H77 H 0.29786 -0.05690 0.74407
 H78 H 0.31956 -0.01517 0.74617
 C79 C 0.41977 -0.00428 0.67345
 C80 C 0.41849 0.00212 0.82893
 C81 C 0.33310 -0.07897 0.74636
 C82 C 0.33180 0.07619 0.75168
 C83 C 0.91526 0.51689 0.28526
 H84 H 0.92163 0.52896 0.26996
 C85 C 0.92724 0.51819 0.30922
 H86 H 0.94312 0.53107 0.31189
 C87 C 0.88606 0.48642 0.30051
 H88 H 0.86948 0.47465 0.29736
 C89 C 0.89713 0.48736 0.32470
 H90 H 0.88908 0.47566 0.33952
 N91 N 0.89525 0.50092 0.28131
 C92 C 0.88152 0.49959 0.19912
 H93 H 0.86096 0.50063 0.20059
 C94 C 0.89279 0.49881 0.17524
 H95 H 0.88066 0.49924 0.15843
 C96 C 0.92197 0.49757 0.21962
 H97 H 0.93315 0.49683 0.23701
 C98 C 0.93414 0.49648 0.19591
 H99 H 0.95476 0.49522 0.19525
 Zn100 Zn 0.87615 0.50084 0.25050
 N101 N 0.89609 0.49941 0.22067
 C102 C 0.86438 0.55026 0.23443
 N103 N 0.85648 0.53133 0.25005
 C104 C 0.83707 0.53528 0.26674
 C105 C 0.82454 0.55900 0.26781
 C106 C 0.85262 0.57417 0.23502
 C107 C 0.87105 0.44923 0.25011
 C108 C 0.85976 0.42530 0.24925
 C109 C 0.81851 0.44602 0.24559
 C110 C 0.83068 0.46975 0.24677
 N111 N 0.85651 0.47081 0.24921
 H112 H 0.88047 0.54717 0.22203
 H113 H 0.83166 0.52019 0.27955
 H114 H 0.80927 0.56192 0.28132
 H115 H 0.85949 0.58892 0.22250
 H116 H 0.89158 0.45071 0.25169
 H117 H 0.87185 0.40846 0.25018
 H118 H 0.79793 0.44538 0.24376
 H119 H 0.81955 0.48718 0.24556
 C120 C 0.91943 0.49736 0.17333
 C121 C 0.91801 0.50345 0.32952
 C122 C 0.83316 0.42340 0.24702
 C123 C 0.83253 0.57891 0.25196
 C124 C 0.58739 0.51796 0.71597
 H125 H 0.58191 0.53093 0.73115
 C126 C 0.57525 0.51946 0.69210
 H127 H 0.56019 0.53344 0.68918
 C128 C 0.61448 0.48480 0.70093
 H129 H 0.63034 0.47187 0.70408
 C130 C 0.60312 0.48581 0.67686
 H131 H 0.61004 0.47309 0.66204
 N132 N 0.60650 0.50067 0.71995
 C133 C 0.61982 0.49914 0.80220
 H134 H 0.64039 0.50022 0.80109
 C135 C 0.60820 0.49757 0.82586
 H136 H 0.62007 0.49753 0.84285
 C137 C 0.57972 0.49749 0.78102
 H138 H 0.56883 0.49711 0.76343
 C139 C 0.56721 0.49562 0.80448
 H140 H 0.54662 0.49419 0.80475
 Zn141 Zn 0.62572 0.50057 0.75073
 N142 N 0.60559 0.49941 0.78043
 C143 C 0.63823 0.54982 0.76764
 N144 N 0.64534 0.53080 0.75132
 C145 C 0.66403 0.53442 0.73390
 C146 C 0.67652 0.55791 0.73260
 C147 C 0.64999 0.57356 0.76685
 C148 C 0.63117 0.44891 0.75149
 C149 C 0.64260 0.42489 0.75247
 C150 C 0.68378 0.44523 0.75527
 C151 C 0.67146 0.46907 0.75398
 N152 N 0.64558 0.47035 0.75190
 H153 H 0.62272 0.54698 0.78072
 H154 H 0.66884 0.51924 0.72064
 H155 H 0.69115 0.56055 0.71843
 H156 H 0.64372 0.58844 0.77986
 H157 H 0.61060 0.45057 0.75021
 H158 H 0.63059 0.40816 0.75193
 H159 H 0.70439 0.44439 0.75679
 H160 H 0.68249 0.48641 0.75481
 C161 C 0.58156 0.49579 0.82730
 C162 C 0.58334 0.50339 0.67209
 C163 C 0.66924 0.42274 0.75433
 C164 C 0.66926 0.57797 0.74903
 C165 C 0.28356 0.08778 0.98305
 H166 H 0.26798 0.08178 0.97081
 C167 C 0.30733 0.07542 0.98152
 H168 H 0.30978 0.05967 0.96825
 C169 C 0.29969 0.11637 1.01435
 H170 H 0.29698 0.13287 1.02652
 C171 C 0.32366 0.10481 1.01327
 H172 H 0.33887 0.11226 1.02521
 N173 N 0.28013 0.10767 0.99955
 C174 C 0.19791 0.12137 1.00175
 H175 H 0.19920 0.14195 1.00062
 C176 C 0.17411 0.10995 1.00307
 H177 H 0.15719 0.12196 1.00291
 C178 C 0.21874 0.08107 1.00360
 H179 H 0.23625 0.07002 1.00414
 C180 C 0.19515 0.06875 1.00523
 H181 H 0.19468 0.04814 1.00662
 Zn182 Zn 0.24936 0.12693 1.00017
 N183 N 0.21957 0.10695 1.00163
 C184 C 0.23230 0.13883 0.95104
 N185 N 0.24829 0.14665 0.97005
 C186 C 0.26510 0.16591 0.96637
 C187 C 0.26611 0.17823 0.94278
 C188 C 0.23280 0.15042 0.92723
 C189 C 0.25087 0.13204 1.05174
 C190 C 0.25029 0.14321 1.07583
 C191 C 0.24390 0.18434 1.05594
 C192 C 0.24512 0.17225 1.03202
 N193 N 0.24871 0.14655 1.03048
 H194 H 0.21975 0.12288 0.95393
 H195 H 0.27813 0.17129 0.98156
 H196 H 0.27983 0.19331 0.94006
 H197 H 0.22008 0.14355 0.91237
 H198 H 0.25324 0.11157 1.04987
 H199 H 0.25235 0.13083 1.09220
 H200 H 0.24098 0.20483 1.05664
 H201 H 0.24286 0.18332 1.01481
 C202 C 0.17244 0.08330 1.00476
 C203 C 0.32782 0.08410 0.99666
 C204 C 0.24668 0.16981 1.07845
 C205 C 0.25003 0.17022 0.92272
 C206 C 0.71579 0.41240 0.98375
 H207 H 0.73116 0.41793 0.97136
 C208 C 0.69192 0.42453 0.98177
 H209 H 0.68918 0.43965 0.96800
 C210 C 0.70028 0.38514 1.01587
 H211 H 0.70325 0.36921 1.02854
 C212 C 0.67621 0.39649 1.01435
 H213 H 0.66122 0.38949 1.02647
 N214 N 0.71956 0.39325 1.00082
 C215 C 0.80183 0.38010 1.00405
 H216 H 0.80063 0.35949 1.00346
 C217 C 0.82557 0.39171 1.00494
 H218 H 0.84256 0.37979 1.00509
 C219 C 0.78080 0.42035 1.00466
 H220 H 0.76324 0.43133 1.00474
 C221 C 0.80435 0.43286 1.00583
 H222 H 0.80473 0.45353 1.00652
 Zn223 Zn 0.75045 0.37417 1.00175
 N224 N 0.78009 0.39440 1.00346
 C225 C 0.76757 0.36186 0.95285
 N226 N 0.75153 0.35422 0.97152
 C227 C 0.73479 0.33486 0.96745
 C228 C 0.73395 0.32222 0.94383
 C229 C 0.76724 0.34996 0.92904
 C230 C 0.74974 0.36919 1.05338
 C231 C 0.75058 0.35798 1.07732
 C232 C 0.75627 0.31683 1.05684
 C233 C 0.75486 0.32895 1.03310
 N234 N 0.75147 0.35468 1.03191
 H235 H 0.78006 0.37789 0.95603
 H236 H 0.72171 0.32963 0.98234
 H237 H 0.72031 0.30706 0.94079
 H238 H 0.78002 0.35667 0.91447
 H239 H 0.74751 0.38968 1.05180
 H240 H 0.74886 0.37036 1.09387
 H241 H 0.75901 0.29630 1.05724
 H242 H 0.75678 0.31787 1.01574
 C243 C 0.82713 0.41842 1.00569
 C244 C 0.67169 0.41639 0.99707
 C245 C 0.75393 0.33135 1.07956
 C246 C 0.75013 0.33001 0.92414
 C247 C 0.21667 0.91254 0.48453
 H248 H 0.23182 0.91737 0.47158
 C249 C 0.19278 0.92457 0.48231
 H250 H 0.18981 0.93892 0.46780
 C251 C 0.20172 0.88703 0.51832
 H252 H 0.20490 0.87179 0.53177
 C253 C 0.17761 0.89830 0.51660
 H254 H 0.16280 0.89197 0.52931
 N255 N 0.22069 0.89423 0.50244
 C256 C 0.30292 0.88073 0.50505
 H257 H 0.30174 0.86011 0.50475
 C258 C 0.32666 0.89237 0.50560
 H259 H 0.34366 0.88048 0.50580
 C260 C 0.28185 0.92096 0.50524
 H261 H 0.26427 0.93192 0.50524
 C262 C 0.30539 0.93351 0.50610
 H263 H 0.30576 0.95418 0.50650
 Zn264 Zn 0.25141 0.87490 0.50309
 N265 N 0.28116 0.89500 0.50441
 C266 C 0.26830 0.86195 0.45417
 N267 N 0.25194 0.85495 0.47282
 C268 C 0.23445 0.83628 0.46870
 C269 C 0.23312 0.82372 0.44506
 C270 C 0.26751 0.85011 0.43033
 C271 C 0.25239 0.86982 0.55484
 C272 C 0.25339 0.85842 0.57870
 C273 C 0.25585 0.81715 0.55788
 C274 C 0.25454 0.82944 0.53423
 N275 N 0.25260 0.85534 0.53324
 H276 H 0.28141 0.87747 0.45736
 H277 H 0.22113 0.83157 0.48357
 H278 H 0.21888 0.80913 0.44199
 H279 H 0.28055 0.85633 0.41577
 H280 H 0.25124 0.89041 0.55343
 H281 H 0.25298 0.87046 0.59556
 H282 H 0.25723 0.79652 0.55844
 H283 H 0.25523 0.81834 0.51679
 C284 C 0.32818 0.91909 0.50598
 C285 C 0.17278 0.91719 0.49830
 C286 C 0.25508 0.83174 0.58052
 C287 C 0.24961 0.83089 0.42539
 C288 C 0.78271 0.58686 0.48076
 H289 H 0.76752 0.58134 0.46782
 C290 C 0.80646 0.57441 0.47966
 H291 H 0.80929 0.55908 0.46598
 C292 C 0.79791 0.61435 0.51348
 H293 H 0.79489 0.63047 0.52608
 C294 C 0.82185 0.60268 0.51286
 H295 H 0.83669 0.60965 0.52555
 N296 N 0.77886 0.60632 0.49766
 C297 C 0.69666 0.62056 0.49808
 H298 H 0.69796 0.64110 0.49650
 C299 C 0.67287 0.60917 0.49982
 H300 H 0.65595 0.62119 0.49945
 C301 C 0.71750 0.58032 0.50097
 H302 H 0.73501 0.56930 0.50182
 C303 C 0.69392 0.56806 0.50304
 H304 H 0.69347 0.54751 0.50507
 Zn305 Zn 0.74830 0.62592 0.49736
 N306 N 0.71833 0.60614 0.49838
 C307 C 0.73227 0.63811 0.44785
 N308 N 0.74820 0.64546 0.46709
 C309 C 0.76559 0.66426 0.46368
 C310 C 0.76720 0.67666 0.44017
 C311 C 0.73338 0.64976 0.42409
 C312 C 0.74743 0.63134 0.54887
 C313 C 0.74656 0.64272 0.57285
 C314 C 0.74398 0.68400 0.55260
 C315 C 0.74519 0.67172 0.52878
 N316 N 0.74713 0.64582 0.52748
 H317 H 0.71922 0.62252 0.45056
 H318 H 0.77858 0.66924 0.47903
 H319 H 0.78131 0.69141 0.43769
 H320 H 0.72064 0.64332 0.40905
 H321 H 0.74857 0.61075 0.54718
 H322 H 0.74704 0.63066 0.58954
 H323 H 0.74261 0.70463 0.55347
 H324 H 0.74444 0.68282 0.51148
 C325 C 0.67120 0.58259 0.50239
 C326 C 0.82649 0.58253 0.49571
 C327 C 0.74489 0.66938 0.57502
 C328 C 0.75113 0.66918 0.41990
 C329 C 0.01698 0.21755 0.08498
 H330 H 0.02949 0.23290 0.07958
 C331 C 0.01855 0.19386 0.07245
 H332 H 0.03213 0.19123 0.05719
 C333 C -0.01503 0.20191 0.11225
 H334 H -0.02750 0.20473 0.12834
 C335 C -0.01395 0.17802 0.10049
 H336 H -0.02616 0.16302 0.10736
 N337 N 0.00022 0.22115 0.10438
 C338 C -0.00011 0.30330 0.11914
 H339 H 0.00180 0.30179 0.13964
 C340 C -0.00087 0.32725 0.10787
 H341 H 0.00050 0.34395 0.12009
 C342 C -0.00431 0.28285 0.07891
 H343 H -0.00585 0.26543 0.06784
 C344 C -0.00569 0.30660 0.06675
 H345 H -0.00802 0.30708 0.04622
 Zn346 Zn 0.00016 0.25157 0.12418
 N347 N -0.00134 0.28174 0.10466
 C348 C 0.04976 0.26713 0.13584
 N349 N 0.03074 0.25161 0.14371
 C350 C 0.03458 0.23485 0.16311
 C351 C 0.05821 0.23369 0.17576
 C352 C 0.07360 0.26646 0.14773
 C353 C -0.05148 0.25192 0.12976
 C354 C -0.07526 0.25240 0.14133
 C355 C -0.05409 0.25539 0.18236
 C356 C -0.03052 0.25454 0.16992
 N357 N -0.02975 0.25255 0.14405
 H358 H 0.04679 0.27955 0.11972
 H359 H 0.01944 0.22208 0.16847
 H360 H 0.06101 0.22015 0.19106
 H361 H 0.08841 0.27893 0.14091
 H362 H -0.05024 0.25075 0.10920
 H363 H -0.09223 0.25163 0.12944
 H364 H -0.05450 0.25682 0.20296
 H365 H -0.01300 0.25563 0.18087
 C366 C -0.00369 0.32931 0.08127
 C367 C 0.00312 0.17363 0.08043
 C368 C -0.07684 0.25407 0.16797
 C369 C 0.07817 0.24952 0.16790
 C370 C 0.01553 0.78220 0.41214
 H371 H 0.02821 0.76675 0.41763
 C372 C 0.01747 0.80607 0.42423
 H373 H 0.03149 0.80871 0.43928
 C374 C -0.01726 0.79793 0.38497
 H375 H -0.03017 0.79505 0.36907
 C376 C -0.01582 0.82200 0.39630
 H377 H -0.02823 0.83709 0.38933
 N378 N -0.00180 0.77856 0.39302
 C379 C -0.00355 0.69629 0.37954
 H380 H -0.00260 0.69752 0.35898
 C381 C -0.00469 0.67252 0.39108
 H382 H -0.00457 0.65554 0.37916
 C383 C -0.00515 0.71728 0.41969
 H384 H -0.00562 0.73485 0.43063
 C385 C -0.00659 0.69371 0.43212
 H386 H -0.00781 0.69332 0.45271
 Zn387 Zn -0.00232 0.74780 0.37380
 N388 N -0.00343 0.71802 0.39384
 C389 C 0.04701 0.73116 0.36191
 N390 N 0.02783 0.74703 0.35415
 C391 C 0.03141 0.76411 0.33510
 C392 C 0.05507 0.76556 0.32297
 C393 C 0.07089 0.73210 0.35052
 C394 C -0.05405 0.74840 0.36854
 C395 C -0.07811 0.74739 0.35724
 C396 C -0.05792 0.74180 0.31626
 C397 C -0.03406 0.74339 0.32847
 N398 N -0.03268 0.74681 0.35416
 H399 H 0.04418 0.71839 0.37769
 H400 H 0.01610 0.77706 0.32979
 H401 H 0.05770 0.77950 0.30809
 H402 H 0.08589 0.71948 0.35735
 H403 H -0.05230 0.75062 0.38901
 H404 H -0.09458 0.74901 0.36951
 H405 H -0.05847 0.73905 0.29578
 H406 H -0.01676 0.74155 0.31750
 C407 C -0.00617 0.67093 0.41770
 C408 C 0.00181 0.82642 0.41610
 C409 C -0.08056 0.74401 0.33065
 C410 C 0.07530 0.74964 0.33097
 C411 C 0.51797 0.28247 0.91202
 H412 H 0.53089 0.26720 0.91748
 C413 C 0.51957 0.30636 0.92413
 H414 H 0.53359 0.30922 0.93914
 C415 C 0.48485 0.29772 0.88498
 H416 H 0.47191 0.29466 0.86915
 C417 C 0.48596 0.32180 0.89631
 H418 H 0.47328 0.33670 0.88939
 N419 N 0.50064 0.27858 0.89295
 C420 C 0.49879 0.19621 0.87946
 H421 H 0.49966 0.19740 0.85890
 C422 C 0.49750 0.17247 0.89106
 H423 H 0.49742 0.15547 0.87919
 C424 C 0.49754 0.21731 0.91957
 H425 H 0.49726 0.23489 0.93049
 C426 C 0.49594 0.19378 0.93206
 H427 H 0.49479 0.19344 0.95265
 Zn428 Zn 0.50036 0.24781 0.87369
 N429 N 0.49916 0.21798 0.89371
 C430 C 0.54945 0.23064 0.86117
 N431 N 0.53055 0.24714 0.85409
 C432 C 0.53430 0.26470 0.83552
 C433 C 0.55785 0.26598 0.82317
 C434 C 0.57321 0.23138 0.84952
 C435 C 0.44870 0.24754 0.86829
 C436 C 0.42469 0.24701 0.85684
 C437 C 0.44501 0.24412 0.81570
 C438 C 0.46884 0.24502 0.82803
 N439 N 0.47013 0.24694 0.85389
 H440 H 0.54651 0.21745 0.87658
 H441 H 0.51922 0.27811 0.83074
 H442 H 0.56062 0.28028 0.80866
 H443 H 0.58799 0.21822 0.85579
 H444 H 0.45037 0.24869 0.88884
 H445 H 0.40797 0.24771 0.86882
 H446 H 0.44416 0.24273 0.79510
 H447 H 0.48616 0.24405 0.81701
 C448 C 0.49610 0.17096 0.91769
 C449 C 0.50357 0.32649 0.91605
 C450 C 0.42255 0.24534 0.83022
 C451 C 0.57779 0.24936 0.83042
 C452 C 0.51618 0.71629 0.58744
 H453 H 0.52910 0.73144 0.58248
 C454 C 0.51788 0.69256 0.57503
 H455 H 0.53198 0.68970 0.56030
 C456 C 0.48292 0.70120 0.61352
 H457 H 0.46985 0.70427 0.62907
 C458 C 0.48413 0.67725 0.60188
 H459 H 0.47145 0.66244 0.60830
 N460 N 0.49874 0.72019 0.60618
 C461 C 0.49636 0.80236 0.61996
 H462 H 0.49690 0.80104 0.64054
 C463 C 0.49567 0.82619 0.60847
 H464 H 0.49561 0.84312 0.62045
 C465 C 0.49571 0.78153 0.57968
 H466 H 0.49557 0.76402 0.56866
 C467 C 0.49473 0.80518 0.56729
 H468 H 0.49411 0.80568 0.54666
 Zn469 Zn 0.49835 0.75085 0.62558
 N470 N 0.49684 0.78068 0.60559
 C471 C 0.54744 0.76763 0.63779
 N472 N 0.52882 0.75145 0.64530
 C473 C 0.53305 0.73443 0.66440
 C474 C 0.55677 0.73349 0.67693
 C475 C 0.57134 0.76720 0.64957
 C476 C 0.44665 0.75178 0.63087
 C477 C 0.42283 0.75297 0.64232
 C478 C 0.44386 0.75584 0.68342
 C479 C 0.46747 0.75432 0.67109
 N480 N 0.46833 0.75209 0.64525
 H481 H 0.54416 0.78035 0.62196
 H482 H 0.51821 0.72123 0.66953
 H483 H 0.55993 0.71966 0.69190
 H484 H 0.58585 0.78013 0.64297
 H485 H 0.44796 0.75043 0.61032
 H486 H 0.40589 0.75249 0.63035
 H487 H 0.44340 0.75747 0.70400
 H488 H 0.48498 0.75513 0.68211
 C489 C 0.49500 0.82789 0.58181
 C490 C 0.50187 0.67257 0.58247
 C491 C 0.42115 0.75499 0.66893
 C492 C 0.57638 0.74986 0.66928
 C493 C 0.92395 1.00297 0.71551
 H494 H 0.93512 1.00487 0.73284
 C495 C 0.93534 1.00447 0.69272
 H496 H 0.95576 1.00731 0.69197
 C497 C 0.88284 0.99787 0.69634
 H498 H 0.86238 0.99585 0.69791
 C499 C 0.89450 0.99881 0.67102
 H500 H 0.88204 0.99706 0.65452
 N501 N 0.89681 0.99940 0.71690
 C502 C 0.88853 1.01633 0.79762
 H503 H 0.87216 1.02865 0.79455
 C504 C 0.89966 1.01571 0.82059
 H505 H 0.89224 1.02797 0.83556
 C506 C 0.91671 0.98450 0.78084
 H507 H 0.92238 0.97159 0.76570
 C508 C 0.93009 0.98362 0.80582
 H509 H 0.94598 0.97044 0.80810
 Zn510 Zn 0.87746 0.99896 0.74718
 N511 N 0.89751 1.00007 0.77736
 C512 C 0.86607 0.94875 0.73297
 N513 N 0.85826 0.96845 0.74810
 C514 C 0.83916 0.96543 0.76522
 C515 C 0.82678 0.94191 0.76719
 C516 C 0.85446 0.92499 0.73447
 C517 C 0.87133 1.05054 0.74577
 C518 C 0.85958 1.07441 0.74451
 C519 C 0.81866 1.05352 0.74212
 C520 C 0.83130 1.02985 0.74367
 N521 N 0.85719 1.02892 0.74570
 H522 H 0.88193 0.95114 0.72021
 H523 H 0.83384 0.98114 0.77764
 H524 H 0.81171 0.93978 0.78099
 H525 H 0.86121 0.90963 0.72228
 H526 H 0.89192 1.04916 0.74699
 H527 H 0.87138 1.09129 0.74480
 H528 H 0.79804 1.05407 0.74069
 H529 H 0.82048 1.01237 0.74306
 C530 C 0.92171 0.99829 0.82535
 C531 C 0.91986 1.00210 0.66883
 C532 C 0.83290 1.07620 0.74274
 C533 C 0.83460 0.92124 0.75180
 C534 C 0.42091 0.50180 0.21757
 H535 H 0.43193 0.50278 0.23507
 C536 C 0.43324 0.50289 0.19398
 H537 H 0.45383 0.50438 0.19350
 C538 C 0.38066 0.49931 0.19678
 H539 H 0.36011 0.49819 0.19809
 C540 C 0.39211 0.50011 0.17298
 H541 H 0.38011 0.49954 0.15608
 N542 N 0.39506 0.49985 0.21843
 C543 C 0.38803 0.51716 0.29735
 H544 H 0.37248 0.53042 0.29406
 C545 C 0.39985 0.51665 0.32122
 H546 H 0.39357 0.53003 0.33575
 C547 C 0.41389 0.48274 0.28295
 H548 H 0.41868 0.46910 0.26812
 C549 C 0.42644 0.48169 0.30661
 H550 H 0.44111 0.46734 0.30973
 Zn551 Zn 0.37532 0.49948 0.24841
 N552 N 0.39513 0.50037 0.27877
 C553 C 0.33752 0.46558 0.26665
 N554 N 0.35610 0.46898 0.24905
 C555 C 0.36361 0.44955 0.23342
 C556 C 0.35236 0.42562 0.23506
 C557 C 0.32550 0.44189 0.26877
 C558 C 0.36936 0.55107 0.24589
 C559 C 0.35768 0.57496 0.24456
 C560 C 0.31664 0.55424 0.24378
 C561 C 0.32922 0.53054 0.24536
 N562 N 0.35515 0.52951 0.24667
 H563 H 0.33243 0.48109 0.27941
 H564 H 0.37904 0.45224 0.22022
 H565 H 0.35893 0.41045 0.22254
 H566 H 0.31091 0.43942 0.28301
 H567 H 0.38997 0.54961 0.24656
 H568 H 0.36955 0.59179 0.24423
 H569 H 0.29599 0.55487 0.24299
 H570 H 0.31831 0.51311 0.24545
 C571 C 0.41916 0.49861 0.32623
 C572 C 0.41873 0.50191 0.17128
 C573 C 0.33098 0.57685 0.24361
 C574 C 0.33317 0.42143 0.25302
 C575 C 0.58432 1.02003 0.28685
 H576 H 0.57760 1.03180 0.27126
 C577 C 0.57249 1.02106 0.30944
 H578 H 0.55613 1.03360 0.31177
 C579 C 0.61516 0.98988 0.30198
 H580 H 0.63232 0.97861 0.29946
 C581 C 0.60296 0.99048 0.32710
 H582 H 0.61123 0.97871 0.34199
 N583 N 0.60612 1.00354 0.28330
 C584 C 0.61941 1.00380 0.20137
 H585 H 0.63989 1.00590 0.20288
 C586 C 0.60781 1.00249 0.17748
 H587 H 0.61962 1.00368 0.16069
 C588 C 0.57954 0.99927 0.22179
 H589 H 0.56875 0.99756 0.23916
 C590 C 0.56707 0.99762 0.19807
 H591 H 0.54659 0.99508 0.19740
 Zn592 Zn 0.62540 1.00361 0.25291
 N593 N 0.60526 1.00251 0.22290
 C594 C 0.63099 0.95191 0.25266
 N595 N 0.64534 0.97335 0.25146
 C596 C 0.67105 0.97200 0.24822
 C597 C 0.68330 0.94813 0.24651
 C598 C 0.64237 0.92786 0.25131
 C599 C 0.63535 1.05368 0.23885
 C600 C 0.64699 1.07748 0.23960
 C601 C 0.67801 1.06068 0.26956
 C602 C 0.66546 1.03715 0.26847
 N603 N 0.64474 1.03403 0.25299
 H604 H 0.61053 0.95359 0.25477
 H605 H 0.68202 0.98930 0.24661
 H606 H 0.70377 0.94727 0.24400
 H607 H 0.63040 0.91115 0.25245
 H608 H 0.61828 1.05115 0.22745
 H609 H 0.63880 1.09266 0.22816
 H610 H 0.69447 1.06267 0.28201
 H611 H 0.67204 1.02151 0.28025
 C612 C 0.58131 0.99936 0.17552
 C613 C 0.58235 1.00550 0.33113
 C614 C 0.66866 1.08141 0.25512
 C615 C 0.66886 0.92566 0.24822
 C616 C 0.07902 0.50478 0.78283
 H617 H 0.06811 0.50540 0.76526
 C618 C 0.06654 0.50679 0.80630
 H619 H 0.04594 0.50856 0.80661
 C620 C 0.11915 0.50233 0.80391
 H621 H 0.13971 0.50087 0.80275
 C622 C 0.10755 0.50408 0.82761
 H623 H 0.11943 0.50383 0.84459
 N624 N 0.10488 0.50237 0.78217
 C625 C 0.11175 0.51749 0.70325
 H626 H 0.12738 0.53051 0.70630
 C627 C 0.09967 0.51678 0.67953
 H628 H 0.10584 0.52978 0.66489
 C629 C 0.08593 0.48386 0.71808
 H630 H 0.08124 0.47062 0.73304
 C631 C 0.07311 0.48263 0.69457
 H632 H 0.05836 0.46853 0.69166
 Zn633 Zn 0.12464 0.50086 0.75227
 N634 N 0.10477 0.50122 0.72199
 C635 C 0.16240 0.46626 0.73409
 N636 N 0.14407 0.47021 0.75195
 C637 C 0.13714 0.45128 0.76804
 C638 C 0.14873 0.42729 0.76658
 C639 C 0.17474 0.44250 0.73214
 C640 C 0.13055 0.55240 0.75394
 C641 C 0.14226 0.57611 0.75493
 C642 C 0.18328 0.55468 0.75635
 C643 C 0.17068 0.53118 0.75505
 N644 N 0.14475 0.53059 0.75359
 H645 H 0.16704 0.48138 0.72101
 H646 H 0.12192 0.45443 0.78148
 H647 H 0.14263 0.41250 0.77944
 H648 H 0.18911 0.43959 0.71766
 H649 H 0.10995 0.55129 0.75319
 H650 H 0.13042 0.59316 0.75494
 H651 H 0.20392 0.55497 0.75730
 H652 H 0.18155 0.51355 0.75532
 C653 C 0.08022 0.49906 0.67482
 C654 C 0.08090 0.50629 0.82909
 C655 C 0.16895 0.57753 0.75605
 C656 C 0.16766 0.42254 0.74833
 C657 C 0.78484 0.91457 -0.01831
 H658 H 0.76968 0.91908 -0.03171
 C659 C 0.80815 0.92742 -0.01955
 H660 H 0.81069 0.94199 -0.03383
 C661 C 0.80042 0.88921 0.01576
 H662 H 0.79774 0.87374 0.02896
 C663 C 0.82394 0.90132 0.01505
 H664 H 0.83881 0.89533 0.02822
 N665 N 0.78141 0.89593 -0.00074
 C666 C 0.69968 0.88077 -0.00058
 H667 H 0.70144 0.86019 -0.00186
 C668 C 0.67563 0.89208 0.00083
 H669 H 0.65899 0.87997 0.00054
 C670 C 0.71962 0.92119 0.00179
 H671 H 0.73689 0.93233 0.00253
 C672 C 0.69577 0.93339 0.00350
 H673 H 0.69487 0.95399 0.00519
 Zn674 Zn 0.75153 0.87579 -0.00114
 N675 N 0.72104 0.89531 -0.00037
 C676 C 0.75010 0.87068 0.05045
 N677 N 0.75064 0.85615 0.02890
 C678 C 0.74923 0.83024 0.02986
 C679 C 0.74763 0.81800 0.05349
 C680 C 0.74880 0.85933 0.07428
 C681 C 0.73600 0.86278 -0.05062
 C682 C 0.73742 0.85089 -0.07439
 C683 C 0.77202 0.82455 -0.05849
 C684 C 0.77010 0.83721 -0.03493
 N685 N 0.75218 0.85585 -0.03143
 H686 H 0.75079 0.89127 0.04904
 H687 H 0.74907 0.81911 0.01243
 H688 H 0.74660 0.79737 0.05406
 H689 H 0.74854 0.87142 0.09111
 H690 H 0.72252 0.87823 -0.04786
 H691 H 0.72445 0.85703 -0.08937
 H692 H 0.78654 0.80995 -0.06107
 H693 H 0.78325 0.83255 -0.01961
 C694 C 0.67337 0.91873 0.00293
 C695 C 0.82819 0.92054 -0.00291
 C696 C 0.75572 0.83165 -0.07870
 C697 C 0.74755 0.83266 0.07609
 C698 C 0.28403 0.41304 0.48369
 H699 H 0.26899 0.41742 0.47012
 C700 C 0.30733 0.42588 0.48253
 H701 H 0.30998 0.44032 0.46814
 C702 C 0.29931 0.38799 0.51812
 H703 H 0.29649 0.37267 0.53146
 C704 C 0.32286 0.40009 0.51749
 H705 H 0.33763 0.39425 0.53083
 N706 N 0.28045 0.39455 0.50138
 C707 C 0.19869 0.38005 0.50088
 H708 H 0.20029 0.35946 0.49968
 C709 C 0.17473 0.39158 0.50192
 H710 H 0.15798 0.37961 0.50144
 C711 C 0.21896 0.42031 0.50336
 H712 H 0.23632 0.43129 0.50427
 C713 C 0.19519 0.43272 0.50470
 H714 H 0.19445 0.45334 0.50628
 Zn715 Zn 0.25046 0.37461 0.50075
 N716 N 0.22017 0.39440 0.50130
 C717 C 0.24838 0.36930 0.55232
 N718 N 0.24907 0.35487 0.53071
 C719 C 0.24726 0.32898 0.53152
 C720 C 0.24504 0.31665 0.55505
 C721 C 0.24642 0.35786 0.57606
 C722 C 0.23519 0.36199 0.45111
 C723 C 0.23662 0.35017 0.42731
 C724 C 0.27077 0.32335 0.44335
 C725 C 0.26885 0.33594 0.46695
 N726 N 0.25113 0.35479 0.47039
 H727 H 0.24937 0.38988 0.55102
 H728 H 0.24721 0.31794 0.51403
 H729 H 0.24371 0.29604 0.55548
 H730 H 0.24604 0.36988 0.59293
 H731 H 0.22188 0.37761 0.45383
 H732 H 0.22384 0.35653 0.41226
 H733 H 0.28513 0.30858 0.44082
 H734 H 0.28182 0.33106 0.48234
 C735 C 0.17268 0.41825 0.50386
 C736 C 0.32724 0.41916 0.49939
 C737 C 0.25470 0.33072 0.42306
 C738 C 0.24473 0.33120 0.57772
 C739 C 0.21618 0.57864 -0.00403
 H740 H 0.23365 0.56761 -0.00549
 C741 C 0.19251 0.56645 -0.00611
 H742 H 0.19213 0.54594 -0.00882
 C743 C 0.19557 0.61883 0.00051
 H744 H 0.19700 0.63933 0.00275
 C745 C 0.17169 0.60753 -0.00106
 H746 H 0.15495 0.61974 0.00015
 N747 N 0.21718 0.60438 -0.00060
 C748 C 0.29647 0.61207 -0.01560
 H749 H 0.29331 0.62825 -0.02792
 C750 C 0.32033 0.60020 -0.01530
 H751 H 0.33494 0.60712 -0.02793
 C752 C 0.28177 0.58461 0.01673
 H753 H 0.26680 0.57914 0.02963
 C754 C 0.30545 0.57199 0.01754
 H755 H 0.30846 0.55663 0.03097
 Zn756 Zn 0.24729 0.62398 0.00100
 N757 N 0.27771 0.60417 0.00020
 C758 C 0.26495 0.66201 0.03581
 N759 N 0.24769 0.64309 0.03183
 C760 C 0.23198 0.63547 0.05078
 C761 C 0.23302 0.64710 0.07472
 C762 C 0.26648 0.67440 0.05954
 C763 C 0.24554 0.63013 -0.05033
 C764 C 0.24507 0.64184 -0.07402
 C765 C 0.24418 0.68292 -0.05270
 C766 C 0.24492 0.67030 -0.02920
 N767 N 0.24593 0.64434 -0.02856
 H768 H 0.27782 0.66718 0.02071
 H769 H 0.21909 0.61975 0.04765
 H770 H 0.22039 0.64050 0.08946
 H771 H 0.28041 0.68933 0.06243
 H772 H 0.24599 0.60951 -0.04918
 H773 H 0.24508 0.62998 -0.09101
 H774 H 0.24366 0.70359 -0.05303
 H775 H 0.24469 0.68121 -0.01163
 C776 C 0.32520 0.58001 0.00154
 C777 C 0.16974 0.58094 -0.00445
 C778 C 0.24456 0.66857 -0.07550
 C779 C 0.25050 0.66677 0.07944
 C780 C 0.71849 0.08018 0.49511
 H781 H 0.73604 0.06922 0.49439
 C782 C 0.69493 0.06772 0.49363
 H783 H 0.69454 0.04709 0.49211
 C784 C 0.69751 0.12040 0.49745
 H785 H 0.69874 0.14098 0.49873
 C786 C 0.67375 0.10883 0.49625
 H787 H 0.65678 0.12076 0.49666
 N788 N 0.71923 0.10607 0.49724
 C789 C 0.79814 0.11341 0.48151
 H790 H 0.79486 0.12903 0.46853
 C791 C 0.82198 0.10147 0.48204
 H792 H 0.83647 0.10774 0.46895
 C793 C 0.78376 0.08742 0.51519
 H794 H 0.76894 0.08259 0.52851
 C795 C 0.80738 0.07474 0.51623
 H796 H 0.81049 0.05995 0.53027
 Zn797 Zn 0.74911 0.12597 0.49850
 N798 N 0.77957 0.10627 0.49789
 C799 C 0.76681 0.16404 0.53329
 N800 N 0.74944 0.14523 0.52924
 C801 C 0.73372 0.13759 0.54817
 C802 C 0.73502 0.14893 0.57223
 C803 C 0.76858 0.17616 0.55714
 C804 C 0.74668 0.13174 0.44710
 C805 C 0.74526 0.14331 0.42336
 C806 C 0.74420 0.18449 0.44446
 C807 C 0.74587 0.17202 0.46802
 N808 N 0.74736 0.14608 0.46878
 H809 H 0.77964 0.16925 0.51817
 H810 H 0.72070 0.12199 0.54497
 H811 H 0.72243 0.14225 0.58699
 H812 H 0.78265 0.19093 0.56013
 H813 H 0.74748 0.11114 0.44835
 H814 H 0.74499 0.13135 0.40643
 H815 H 0.74325 0.20514 0.44404
 H816 H 0.74587 0.18301 0.48554
 C817 C 0.82696 0.08198 0.49967
 C818 C 0.67217 0.08215 0.49439
 C819 C 0.74411 0.17002 0.42174
 C820 C 0.75273 0.16836 0.57708
 C821 C 0.97605 0.70270 0.89428
 H822 H 0.95992 0.70772 0.88238
 C823 C 0.97654 0.68000 0.90578
 H824 H 0.96085 0.66699 0.90262
 C825 C 1.01498 0.71555 0.91415
 H826 H 1.03036 0.72891 0.91669
 C827 C 1.01586 0.69108 0.92803
 H828 H 1.03190 0.68742 0.94068
 N829 N 0.99680 0.72025 0.89769
 C830 C 1.01043 0.80156 0.88160
 H831 H 1.01757 0.79932 0.86240
 C832 C 1.01015 0.82456 0.89266
 H833 H 1.01731 0.84070 0.88217
 C834 C 0.99224 0.78164 0.91794
 H835 H 0.98476 0.76499 0.92730
 C836 C 0.99159 0.80676 0.93103
 H837 H 0.98392 0.80782 0.95012
 Zn838 Zn 0.99975 0.74903 0.87579
 N839 N 1.00085 0.77974 0.89479
 C840 C 0.95717 0.77292 0.85259
 N841 N 0.97136 0.75100 0.85282
 C842 C 0.96442 0.73044 0.83838
 C843 C 0.94143 0.73079 0.82462
 C844 C 0.93464 0.77443 0.83832
 C845 C 1.05236 0.75209 0.87170
 C846 C 1.07626 0.75134 0.86032
 C847 C 1.05604 0.73865 0.82071
 C848 C 1.03237 0.73977 0.83290
 N849 N 1.03101 0.74628 0.85802
 H850 H 0.96278 0.78912 0.86408
 H851 H 0.97604 0.71327 0.83864
 H852 H 0.93542 0.71389 0.81425
 H853 H 0.92320 0.79175 0.83895
 H854 H 1.05080 0.75793 0.89143
 H855 H 1.09288 0.75621 0.87170
 H856 H 1.05677 0.73348 0.80071
 H857 H 1.01517 0.73555 0.82224
 C858 C 0.99987 0.82773 0.91885
 C859 C 0.99805 0.67321 0.92319
 C860 C 1.07839 0.74457 0.83448
 C861 C 0.92620 0.75293 0.82482
 C862 C 0.48300 0.21274 0.41113
 H863 H 0.46586 0.22438 0.41050
 C864 C 0.48315 0.18980 0.42464
 H865 H 0.46613 0.18387 0.43449
 C866 C 0.52561 0.20533 0.39801
 H867 H 0.54193 0.21084 0.38701
 C868 C 0.52689 0.18285 0.41206
 H869 H 0.54418 0.17137 0.41177
 N870 N 0.50376 0.21961 0.39739
 C871 C 0.50617 0.30057 0.38015
 H872 H 0.51280 0.29885 0.36075
 C873 C 0.50496 0.32455 0.39167
 H874 H 0.51041 0.34107 0.38073
 C875 C 0.49188 0.28089 0.41792
 H876 H 0.48694 0.26379 0.42808
 C877 C 0.49032 0.30467 0.43024
 H878 H 0.48415 0.30559 0.44988
 Zn879 Zn 0.50206 0.24809 0.37493
 N880 N 0.49954 0.27934 0.39322
 C881 C 0.46747 0.26577 0.33730
 N882 N 0.47317 0.24565 0.35271
 C883 C 0.45725 0.22531 0.35409
 C884 C 0.43363 0.22577 0.34158
 C885 C 0.44421 0.26682 0.32411
 C886 C 0.55357 0.25750 0.36905
 C887 C 0.57733 0.25739 0.35740
 C888 C 0.55764 0.24004 0.31926
 C889 C 0.53411 0.24055 0.33170
 N890 N 0.53263 0.24898 0.35623
 H891 H 0.48052 0.28151 0.33594
 H892 H 0.46240 0.20896 0.36547
 H893 H 0.42083 0.20981 0.34374
 H894 H 0.43961 0.28347 0.31277
 H895 H 0.55183 0.26392 0.38861
 H896 H 0.59372 0.26401 0.36819
 H897 H 0.55858 0.23298 0.29983
 H898 H 0.51715 0.23377 0.32199
 C899 C 0.49690 0.32692 0.41703
 C900 C 0.50525 0.17454 0.42491
 C901 C 0.57969 0.24835 0.33225
 C902 C 0.42657 0.24705 0.32695
 C903 C 0.98290 0.30009 0.61313
 H904 H 0.97073 0.29740 0.62940
 C905 C 0.98354 0.32390 0.60150
 H906 H 0.97126 0.33893 0.60883
 C907 C 1.01457 0.28405 0.58521
 H908 H 1.02717 0.26860 0.57953
 C909 C 1.01560 0.30756 0.57270
 H910 H 1.02888 0.30974 0.55716
 N911 N 0.99821 0.28071 0.60487
 C912 C 0.99962 0.19866 0.61831
 H913 H 1.00149 0.20010 0.63883
 C914 C 0.99904 0.17475 0.60663
 H915 H 1.00049 0.15789 0.61841
 C916 C 0.99517 0.21923 0.57838
 H917 H 0.99334 0.23666 0.56758
 C918 C 0.99425 0.19552 0.56583
 H919 H 0.99205 0.19491 0.54529
 Zn920 Zn 0.99885 0.25033 0.62426
 N921 N 0.99805 0.22026 0.60417
 C922 C 0.94725 0.24963 0.62991
 N923 N 0.96900 0.24885 0.64418
 C924 C 0.96828 0.24575 0.66990
 C925 C 0.94474 0.24377 0.68224
 C926 C 0.92351 0.24797 0.64138
 C927 C 1.04916 0.23609 0.63436
 C928 C 1.07318 0.23699 0.64583
 C929 C 1.05667 0.26750 0.67641
 C930 C 1.03290 0.26625 0.66402
 N931 N 1.02955 0.25044 0.64360
 H932 H 0.94845 0.25160 0.60944
 H933 H 0.98583 0.24445 0.68080
 H934 H 0.94439 0.24140 0.70273
 H935 H 0.90653 0.24879 0.62949
 H936 H 1.04645 0.22444 0.61749
 H937 H 1.08834 0.22540 0.63775
 H938 H 1.05886 0.28023 0.69263
 H939 H 1.01726 0.27819 0.67046
 C940 C 0.99638 0.17289 0.58005
 C941 C 1.00015 0.32809 0.58102
 C942 C 1.07738 0.25289 0.66718
 C943 C 0.92195 0.24503 0.66789
 C944 C 0.47975 0.79897 0.11297
 H945 H 0.46634 0.79607 0.12818
 C946 C 0.48076 0.82275 0.10127
 H947 H 0.46760 0.83762 0.10729
 C948 C 0.51404 0.78363 0.08784
 H949 H 0.52742 0.76847 0.08327
 C950 C 0.51556 0.80716 0.07541
 H951 H 0.53002 0.80983 0.06107
 N952 N 0.49624 0.77997 0.10617
 C953 C 0.49599 0.69787 0.11968
 H954 H 0.49693 0.69924 0.14026
 C955 C 0.49538 0.67401 0.10791
 H956 H 0.49584 0.65710 0.11968
 C957 C 0.49403 0.71861 0.07967
 H958 H 0.49328 0.73610 0.06886
 C959 C 0.49310 0.69494 0.06701
 H960 H 0.49193 0.69441 0.04640
 Zn961 Zn 0.49659 0.74961 0.12568
 N962 N 0.49571 0.71953 0.10557
 C963 C 0.44491 0.74816 0.13136
 N964 N 0.46670 0.74833 0.14557
 C965 C 0.46611 0.74620 0.17141
 C966 C 0.44265 0.74420 0.18390
 C967 C 0.42123 0.74646 0.14297
 C968 C 0.54623 0.73358 0.13777
 C969 C 0.57019 0.73465 0.14937
 C970 C 0.55473 0.76870 0.17659
 C971 C 0.53097 0.76713 0.16422
 N972 N 0.52716 0.74964 0.14528
 H973 H 0.44602 0.74940 0.11081
 H974 H 0.48371 0.74574 0.18228
 H975 H 0.44239 0.74262 0.20447
 H976 H 0.40421 0.74651 0.13112
 H977 H 0.54324 0.72047 0.12206
 H978 H 0.58507 0.72181 0.14277
 H979 H 0.55754 0.78290 0.19143
 H980 H 0.51575 0.78022 0.16935
 C981 C 0.49400 0.67225 0.08124
 C982 C 0.49896 0.82721 0.08236
 C983 C 0.57482 0.75250 0.16891
 C984 C 0.41980 0.74446 0.16958
 O985 O -0.01269 0.98447 0.92590
 O986 O 0.03005 0.99881 0.92565
 O987 O -0.01267 0.92808 0.98512
 O988 O -0.00423 0.92586 1.02655
 O989 O -0.07140 0.98738 0.98262
 O990 O -0.07203 1.03096 0.99506
 O991 O 0.05168 0.99650 1.05394
 O992 O 0.05494 0.95669 1.03546
 O993 O 0.05658 1.05017 0.99528
 O994 O 0.03784 1.05502 0.95540
 O995 O -0.00294 1.05686 1.04774
 O996 O -0.04258 1.03550 1.05489
 O997 O 0.01642 1.01660 1.06975
 O998 O -0.02962 1.00313 1.07025
 O999 O 0.01646 1.07268 1.01267
 O1000 O 0.00247 1.07233 0.96685
 O1001 O 0.07289 1.01482 1.01467
 O1002 O 0.07279 0.97157 0.99634
 O1003 O -0.04742 1.00582 0.94124
 O1004 O -0.05361 1.04576 0.96359
 O1005 O -0.05545 0.95235 1.00284
 O1006 O -0.03258 0.94857 1.04420
 O1007 O 0.00531 0.94373 0.94912
 O1008 O 0.04766 0.96466 0.94928
 Zr1009 Zr 0.01203 0.98240 0.95770
 O1010 O 0.03598 1.00606 0.97979
 Zr1011 Zr -0.01660 0.96017 1.00923
 O1012 O 0.00703 0.98208 1.03335
 Zr1013 Zr -0.03968 1.01171 0.98034
 O1014 O -0.01774 1.03598 1.00386
 Zr1015 Zr 0.04195 0.98950 1.01567
 O1016 O 0.01963 0.96453 0.99288
 Zr1017 Zr 0.01825 1.04124 0.98748
 O1018 O -0.00466 1.01893 0.96254
 Zr1019 Zr -0.00968 1.01826 1.03890
 O1020 O -0.03476 0.99539 1.01666
 O1021 O -0.02357 0.97596 0.97366
 O1022 O 0.02587 1.02537 1.02310
 C1023 C -0.03470 0.99514 0.92314
 C1024 C -0.00365 0.92546 0.96252
 C1025 C -0.07382 0.96525 0.99272
 C1026 C 0.03904 1.00711 1.07211
 C1027 C 0.07495 1.03742 1.00562
 C1028 C 0.00717 1.07508 1.03514
 H1029 H 0.05223 1.00845 0.97067
 H1030 H -0.02708 1.05230 1.00616
 H1031 H -0.03451 0.96501 0.96274
 H1032 H 0.00972 0.97290 1.04957
 H1033 H 0.05118 0.94181 1.02433
 H1034 H 0.01166 0.92985 1.03600
 H1035 H -0.01269 1.07865 0.97616
 H1036 H -0.04041 1.05146 0.95155
 H1037 H 0.08802 0.97205 1.00768
 H1038 H 0.04584 0.95382 0.93381
 H1039 H -0.04975 1.04740 1.04209
 H1040 H -0.07434 1.02459 1.01262
 H1041 H 0.02954 0.98650 0.91119
 H1042 H 0.03265 1.04407 0.94085
 H1043 H -0.04634 0.96095 1.04834
 H1044 H -0.02001 0.98802 1.07644
 O1045 O 0.48571 0.48422 0.42756
 O1046 O 0.52847 0.49840 0.42712
 O1047 O 0.48612 0.42727 0.48632
 O1048 O 0.49545 0.42481 0.52765
 O1049 O 0.42737 0.48627 0.48486
 O1050 O 0.42664 0.52981 0.49753
 O1051 O 0.55097 0.49572 0.55518
 O1052 O 0.55431 0.45604 0.53656
 O1053 O 0.55516 0.54959 0.49642
 O1054 O 0.53585 0.55463 0.45690
 O1055 O 0.49594 0.55580 0.54965
 O1056 O 0.45635 0.53397 0.55690
 O1057 O 0.51573 0.51562 0.57129
 O1058 O 0.46995 0.50191 0.57230
 O1059 O 0.51517 0.57182 0.51458
 O1060 O 0.50063 0.57173 0.46891
 O1061 O 0.57182 0.51428 0.51560
 O1062 O 0.57171 0.47105 0.49730
 O1063 O 0.45083 0.50498 0.44336
 O1064 O 0.44466 0.54481 0.46588
 O1065 O 0.44363 0.45123 0.50483
 O1066 O 0.46695 0.44722 0.54584
 O1067 O 0.50363 0.44332 0.45027
 O1068 O 0.54615 0.46411 0.45051
 Zr1069 Zr 0.51060 0.48186 0.45919
 O1070 O 0.53460 0.50551 0.48118
 Zr1071 Zr 0.48252 0.45916 0.51080
 O1072 O 0.50623 0.48112 0.53483
 Zr1073 Zr 0.45893 0.51078 0.48240
 O1074 O 0.48095 0.53506 0.50582
 Zr1075 Zr 0.54098 0.48882 0.51693
 O1076 O 0.51861 0.46382 0.49419
 Zr1077 Zr 0.51676 0.54056 0.48916
 O1078 O 0.49375 0.51827 0.46433
 Zr1079 Zr 0.48937 0.51719 0.54069
 O1080 O 0.46426 0.49426 0.51857
 O1081 O 0.47516 0.47517 0.47540
 O1082 O 0.52477 0.52458 0.52465
 C1083 C 0.46355 0.49463 0.42507
 C1084 C 0.49476 0.42491 0.46354
 C1085 C 0.42513 0.46410 0.49491
 C1086 C 0.53840 0.50623 0.57347
 C1087 C 0.57371 0.53687 0.50647
 C1088 C 0.50596 0.57409 0.53710
 H1089 H 0.55075 0.50800 0.47190
 H1090 H 0.47155 0.55132 0.50828
 H1091 H 0.46414 0.46427 0.46451
 H1092 H 0.50911 0.47189 0.55099
 H1093 H 0.55049 0.44116 0.52544
 H1094 H 0.51113 0.42897 0.53737
 H1095 H 0.48557 0.57795 0.47843
 H1096 H 0.45777 0.55066 0.45382
 H1097 H 0.58705 0.47158 0.50850
 H1098 H 0.54422 0.45330 0.43502
 H1099 H 0.44926 0.54623 0.54440
 H1100 H 0.42450 0.52331 0.51506
 H1101 H 0.52787 0.48615 0.41261
 H1102 H 0.53058 0.54369 0.44237
 H1103 H 0.45331 0.45963 0.55029
 H1104 H 0.47957 0.48668 0.57816
 O1105 O 0.50476 -0.05590 0.55011
 O1106 O 0.54540 -0.03637 0.55417
 O1107 O 0.45203 0.00603 0.55753
 O1108 O 0.44350 0.04318 0.53835
 O1109 O 0.44406 -0.04836 0.49590
 O1110 O 0.46479 -0.05389 0.45611
 O1111 O 0.51744 0.07251 0.48875
 O1112 O 0.50261 0.07375 0.53000
 O1113 O 0.57240 0.01318 0.48540
 O1114 O 0.57433 -0.02854 0.49771
 O1115 O 0.51427 0.01762 0.42973
 O1116 O 0.47073 0.00637 0.42698
 O1117 O 0.49554 0.05783 0.45399
 O1118 O 0.45405 0.03406 0.44738
 O1119 O 0.54907 -0.00371 0.44505
 O1120 O 0.55370 -0.04614 0.46736
 O1121 O 0.55664 0.04927 0.50408
 O1122 O 0.53795 0.04996 0.54729
 O1123 O 0.48622 -0.07173 0.51392
 O1124 O 0.49788 -0.07164 0.46951
 O1125 O 0.42820 -0.01266 0.51523
 O1126 O 0.42917 0.03251 0.50193
 O1127 O 0.48709 -0.01474 0.57324
 O1128 O 0.53074 0.00271 0.57162
 Zr1129 Zr 0.51161 -0.01731 0.54176
 O1130 O 0.53592 0.00510 0.51956
 Zr1131 Zr 0.45980 0.01178 0.51866
 O1132 O 0.48216 0.03614 0.49641
 Zr1133 Zr 0.48266 -0.03996 0.48965
 O1134 O 0.50534 -0.01781 0.46551
 Zr1135 Zr 0.51858 0.04066 0.51278
 O1136 O 0.49491 0.01913 0.53699
 Zr1137 Zr 0.54071 -0.01114 0.48333
 O1138 O 0.51895 -0.03550 0.50653
 Zr1139 Zr 0.48910 0.01875 0.46091
 O1140 O 0.46447 -0.00475 0.48225
 O1141 O 0.47594 -0.02385 0.52528
 O1142 O 0.52513 0.02502 0.47673
 C1143 C 0.49538 -0.07420 0.53660
 C1144 C 0.46493 -0.00440 0.57573
 C1145 C 0.42575 -0.03514 0.50560
 C1146 C 0.50679 0.07555 0.46683
 C1147 C 0.57477 0.03604 0.49407
 C1148 C 0.53655 0.00752 0.42716
 H1149 H 0.55253 0.00690 0.52852
 H1150 H 0.50724 -0.02682 0.44900
 H1151 H 0.46503 -0.03466 0.53603
 H1152 H 0.47321 0.05275 0.49480
 H1153 H 0.49493 0.06822 0.54622
 H1154 H 0.45447 0.05804 0.53502
 H1155 H 0.54355 -0.04959 0.45174
 H1156 H 0.51497 -0.07513 0.47694
 H1157 H 0.54608 0.06685 0.54516
 H1158 H 0.52853 -0.00644 0.58793
 H1159 H 0.47550 -0.01174 0.42426
 H1160 H 0.45337 -0.04005 0.44995
 H1161 H 0.54254 -0.04360 0.57133
 H1162 H 0.56931 -0.03773 0.51326
 H1163 H 0.42446 0.02348 0.48595
 H1164 H 0.44991 0.04925 0.45794
 O1165 O -0.05692 0.45086 0.99643
 O1166 O -0.03754 0.44681 0.95584
 O1167 O 0.00479 0.44438 1.04926
 O1168 O 0.04225 0.46363 1.05681
 O1169 O -0.04965 0.50564 1.05687
 O1170 O -0.05586 0.54524 1.03576
 O1171 O 0.07110 0.51293 0.98438
 O1172 O 0.07213 0.47175 0.99819
 O1173 O 0.01151 0.51651 0.92845
 O1174 O -0.02991 0.50332 0.92629
 O1175 O 0.01434 0.57233 0.98625
 O1176 O 0.00336 0.57396 1.03093
 O1177 O 0.05501 0.54910 1.00274
 O1178 O 0.03361 0.55540 1.04518
 O1179 O -0.00722 0.55691 0.95170
 O1180 O -0.04845 0.53309 0.94674
 O1181 O 0.04777 0.49824 0.94440
 O1182 O 0.04864 0.45477 0.96281
 O1183 O -0.07306 0.48699 1.01487
 O1184 O -0.07369 0.53131 1.00305
 O1185 O -0.01365 0.48683 1.07273
 O1186 O 0.03098 0.50029 1.07156
 O1187 O -0.01531 0.42820 1.01408
 O1188 O 0.00181 0.42994 0.97028
 Zr1189 Zr -0.01849 0.45962 0.98943
 O1190 O 0.00360 0.48204 0.96500
 Zr1191 Zr 0.01049 0.48323 1.04102
 O1192 O 0.03444 0.50578 1.01852
 Zr1193 Zr -0.04161 0.51166 1.01814
 O1194 O -0.01992 0.53601 0.99523
 Zr1195 Zr 0.03909 0.48918 0.98230
 O1196 O 0.01790 0.46478 1.00604
 Zr1197 Zr -0.01308 0.51815 0.95995
 O1198 O -0.03706 0.49471 0.98193
 Zr1199 Zr 0.01662 0.54108 1.01126
 O1200 O -0.00642 0.51950 1.03611
 O1201 O -0.02509 0.47619 1.02502
 O1202 O 0.02302 0.52513 0.97540
 C1203 C -0.07532 0.46424 1.00579
 C1204 C -0.00522 0.42595 1.03636
 C1205 C -0.03619 0.49628 1.07520
 C1206 C 0.07331 0.53583 0.99299
 C1207 C 0.03448 0.50808 0.92621
 C1208 C 0.00367 0.57497 0.96428
 H1209 H 0.00554 0.47306 0.94844
 H1210 H -0.02927 0.55237 0.99336
 H1211 H -0.03576 0.46541 1.03604
 H1212 H 0.05105 0.50773 1.02735
 H1213 H 0.06655 0.45559 1.00602
 H1214 H 0.05720 0.46813 1.04646
 H1215 H -0.05266 0.54830 0.95722
 H1216 H -0.07723 0.52373 0.98605
 H1217 H 0.06544 0.45707 0.95461
 H1218 H -0.00701 0.41347 0.97271
 H1219 H -0.01402 0.57786 1.02448
 H1220 H -0.04202 0.55169 1.04698
 H1221 H -0.04447 0.42952 0.95882
 H1222 H -0.03849 0.48738 0.93124
 H1223 H 0.02256 0.51689 1.07523
 H1224 H 0.04874 0.54466 1.04911
 O1225 O 0.01501 0.42739 0.51504
 O1226 O 0.00082 0.42669 0.47203
 O1227 O 0.07184 0.48671 0.51529
 O1228 O 0.07395 0.52819 0.50763
 O1229 O 0.01284 0.48492 0.57373
 O1230 O -0.03064 0.49784 0.57397
 O1231 O 0.00280 0.55497 0.45100
 O1232 O 0.04278 0.53620 0.44807
 O1233 O -0.05038 0.49537 0.44509
 O1234 O -0.05573 0.45638 0.46426
 O1235 O -0.05684 0.54965 0.50459
 O1236 O -0.03544 0.55698 0.54481
 O1237 O -0.01619 0.57148 0.48646
 O1238 O -0.00320 0.57221 0.53250
 O1239 O -0.07272 0.51435 0.48478
 O1240 O -0.07250 0.46859 0.49923
 O1241 O -0.01582 0.51606 0.42967
 O1242 O 0.02731 0.49703 0.42971
 O1243 O -0.00602 0.44342 0.54954
 O1244 O -0.04566 0.46607 0.55548
 O1245 O 0.04789 0.50469 0.55822
 O1246 O 0.05152 0.54603 0.53564
 O1247 O 0.05584 0.45020 0.49783
 O1248 O 0.03493 0.45013 0.45508
 Zr1249 Zr 0.01725 0.45896 0.49045
 O1250 O -0.00647 0.48086 0.46631
 Zr1251 Zr 0.03977 0.51087 0.51938
 O1252 O 0.01773 0.53483 0.49567
 Zr1253 Zr -0.01170 0.48246 0.54183
 O1254 O -0.03606 0.50575 0.51971
 Zr1255 Zr 0.00997 0.51675 0.46065
 O1256 O 0.03507 0.49408 0.48308
 Zr1257 Zr -0.04150 0.48883 0.48367
 O1258 O -0.01913 0.46413 0.50675
 Zr1259 Zr -0.01830 0.54068 0.51206
 O1260 O 0.00472 0.51868 0.53723
 O1261 O 0.02393 0.47540 0.52612
 O1262 O -0.02571 0.52443 0.47641
 C1263 C 0.00442 0.42503 0.53692
 C1264 C 0.07427 0.46380 0.50662
 C1265 C 0.03505 0.49484 0.57639
 C1266 C -0.00724 0.57344 0.46380
 C1267 C -0.03807 0.50622 0.42712
 C1268 C -0.07505 0.53699 0.49407
 H1269 H -0.00893 0.47153 0.45001
 H1270 H -0.05233 0.50822 0.52882
 H1271 H 0.03490 0.46452 0.53710
 H1272 H 0.02696 0.55100 0.49315
 H1273 H 0.05759 0.52489 0.45172
 H1274 H 0.07003 0.53692 0.49140
 H1275 H -0.07906 0.47849 0.51394
 H1276 H -0.05165 0.45403 0.54212
 H1277 H 0.02669 0.50831 0.41460
 H1278 H 0.04577 0.43464 0.45699
 H1279 H -0.04759 0.54438 0.55152
 H1280 H -0.02412 0.51539 0.57638
 H1281 H 0.01311 0.41219 0.47270
 H1282 H -0.04443 0.44196 0.46911
 H1283 H 0.03942 0.55020 0.54948
 H1284 H 0.01227 0.57790 0.52355
 O1285 O 0.51502 0.92769 0.01624
 O1286 O 0.50095 0.92686 -0.02673
 O1287 O 0.57245 0.98670 0.01585
 O1288 O 0.57480 1.02820 0.00862
 O1289 O 0.51300 0.98629 0.07478
 O1290 O 0.46961 0.99855 0.07469
 O1291 O 0.50395 1.05498 -0.04855
 O1292 O 0.54377 1.03594 -0.05131
 O1293 O 0.45024 0.99591 -0.05409
 O1294 O 0.44467 0.95699 -0.03481
 O1295 O 0.44429 1.05050 0.00492
 O1296 O 0.46576 1.05780 0.04532
 O1297 O 0.48518 1.07188 -0.01315
 O1298 O 0.49799 1.07281 0.03282
 O1299 O 0.42806 1.01514 -0.01446
 O1300 O 0.42795 0.96947 0.00013
 O1301 O 0.48510 1.01592 -0.06970
 O1302 O 0.52815 0.99672 -0.06940
 O1303 O 0.49451 0.94414 0.05087
 O1304 O 0.45468 0.96685 0.05619
 O1305 O 0.54875 1.00451 0.05897
 O1306 O 0.55237 1.04607 0.03646
 O1307 O 0.55618 0.95009 -0.00112
 O1308 O 0.53521 0.94991 -0.04384
 Zr1309 Zr 0.51762 0.95910 -0.00850
 O1310 O 0.49409 0.98106 -0.03279
 Zr1311 Zr 0.54051 1.01096 0.02018
 O1312 O 0.51871 1.03496 -0.00371
 Zr1313 Zr 0.48877 0.98312 0.04272
 O1314 O 0.46465 1.00650 0.02044
 Zr1315 Zr 0.51083 1.01677 -0.03866
 O1316 O 0.53572 0.99404 -0.01604
 Zr1317 Zr 0.45911 0.98941 -0.01550
 O1318 O 0.48127 0.96466 0.00772
 Zr1319 Zr 0.48272 1.04123 0.01259
 O1320 O 0.50549 1.01917 0.03792
 O1321 O 0.52439 0.97566 0.02710
 O1322 O 0.47519 1.02483 -0.02297
 C1323 C 0.50464 0.92556 0.03824
 C1324 C 0.57474 0.96371 0.00736
 C1325 C 0.53554 0.99547 0.07730
 C1326 C 0.49412 1.07363 -0.03583
 C1327 C 0.46271 1.00638 -0.07218
 C1328 C 0.42595 1.03790 -0.00542
 H1329 H 0.49156 0.97164 -0.04904
 H1330 H 0.44839 1.00917 0.02952
 H1331 H 0.53529 0.96477 0.03815
 H1332 H 0.52809 1.05103 -0.00632
 H1333 H 0.55851 1.02460 -0.04749
 H1334 H 0.57109 1.03657 -0.00784
 H1335 H 0.42157 0.97941 0.01491
 H1336 H 0.44891 0.95456 0.04297
 H1337 H 0.52762 1.00790 -0.08460
 H1338 H 0.54595 0.93436 -0.04183
 H1339 H 0.45300 1.04565 0.05170
 H1340 H 0.47568 1.01631 0.07674
 H1341 H 0.51314 0.91227 -0.02599
 H1342 H 0.45583 0.94250 -0.02986
 H1343 H 0.54038 1.05018 0.05042
 H1344 H 0.51369 1.07812 0.02402
 O1345 O 0.42672 0.51297 0.01413
 O1346 O 0.42634 0.47009 -0.00037
 O1347 O 0.48654 0.51267 0.07123
 O1348 O 0.52822 0.50503 0.07349
 O1349 O 0.48418 0.57182 0.01215
 O1350 O 0.49548 0.57211 -0.03117
 O1351 O 0.55485 0.44866 0.00294
 O1352 O 0.53623 0.44532 0.04227
 O1353 O 0.49533 0.44339 -0.05147
 O1354 O 0.45578 0.46221 -0.05676
 O1355 O 0.54834 0.50231 -0.05692
 O1356 O 0.55520 0.54290 -0.03510
 O1357 O 0.57059 0.48382 -0.01663
 O1358 O 0.57132 0.52970 -0.00322
 O1359 O 0.51262 0.48403 -0.07355
 O1360 O 0.46667 0.49761 -0.07299
 O1361 O 0.51600 0.42749 -0.01663
 O1362 O 0.49727 0.42730 0.02632
 O1363 O 0.44213 0.54794 -0.00605
 O1364 O 0.46389 0.55349 -0.04615
 O1365 O 0.50327 0.55583 0.04781
 O1366 O 0.54524 0.53338 0.05124
 O1367 O 0.45009 0.49545 0.05488
 O1368 O 0.45038 0.45271 0.03370
 Zr1369 Zr 0.45856 0.48827 0.01634
 O1370 O 0.48048 0.46422 -0.00738
 Zr1371 Zr 0.51026 0.51703 0.03935
 O1372 O 0.53425 0.49329 0.01739
 Zr1373 Zr 0.48109 0.53986 -0.01219
 O1374 O 0.50444 0.51783 -0.03646
 Zr1375 Zr 0.51652 0.45832 0.00935
 O1376 O 0.49390 0.48072 0.03439
 Zr1377 Zr 0.48788 0.48186 -0.04223
 O1378 O 0.46311 0.50484 -0.01989
 Zr1379 Zr 0.53961 0.50982 -0.01851
 O1380 O 0.51753 0.53500 0.00442
 O1381 O 0.47460 0.52393 0.02328
 O1382 O 0.52367 0.47426 -0.02622
 C1383 C 0.42402 0.53516 0.00410
 C1384 C 0.46375 0.50409 0.07344
 C1385 C 0.49362 0.57424 0.03470
 C1386 C 0.57299 0.46126 -0.00729
 C1387 C 0.50630 0.42520 -0.03909
 C1388 C 0.53535 0.49273 -0.07548
 H1389 H 0.47135 0.44792 -0.01003
 H1390 H 0.50663 0.52712 -0.05262
 H1391 H 0.46376 0.53491 0.03426
 H1392 H 0.55052 0.49064 0.02672
 H1393 H 0.52507 0.44913 0.05699
 H1394 H 0.53710 0.48877 0.06953
 H1395 H 0.47579 0.51288 -0.07898
 H1396 H 0.45131 0.54051 -0.05163
 H1397 H 0.50865 0.41209 0.02563
 H1398 H 0.43505 0.45461 0.04452
 H1399 H 0.54295 0.54908 -0.04815
 H1400 H 0.51340 0.57400 -0.02538
 H1401 H 0.41201 0.47064 0.01187
 H1402 H 0.44145 0.46662 -0.04535
 H1403 H 0.54900 0.54728 0.03916
 H1404 H 0.57700 0.52074 0.01240
 O1405 O -0.07212 0.01430 0.51313
 O1406 O -0.07176 -0.02860 0.49614
 O1407 O -0.01264 0.01307 0.57016
 O1408 O 0.02904 0.00532 0.57263
 O1409 O -0.01410 0.07250 0.51114
 O1410 O -0.00228 0.07240 0.46763
 O1411 O 0.05554 -0.05133 0.50246
 O1412 O 0.03686 -0.05453 0.54160
 O1413 O -0.00465 -0.05659 0.44830
 O1414 O -0.04732 -0.03133 0.44433
 O1415 O 0.04921 0.00186 0.44212
 O1416 O 0.05639 0.04261 0.46367
 O1417 O 0.07144 -0.01639 0.48263
 O1418 O 0.07260 0.02942 0.49548
 O1419 O 0.01331 -0.01622 0.42565
 O1420 O -0.02947 -0.00497 0.42319
 O1421 O 0.01642 -0.07242 0.48292
 O1422 O -0.00250 -0.07186 0.52614
 O1423 O -0.05632 0.04903 0.49281
 O1424 O -0.03460 0.05453 0.45295
 O1425 O 0.00467 0.05629 0.54687
 O1426 O 0.04636 0.03356 0.55043
 O1427 O -0.04927 -0.00367 0.55363
 O1428 O -0.05056 -0.04554 0.53311
 Zr1429 Zr -0.04058 -0.01079 0.51515
 O1430 O -0.01874 -0.03545 0.49192
 Zr1431 Zr 0.01131 0.01743 0.53840
 O1432 O 0.03516 -0.00652 0.51653
 Zr1433 Zr -0.01741 0.04060 0.48678
 O1434 O 0.00547 0.01805 0.46260
 Zr1435 Zr 0.01723 -0.04142 0.50868
 O1436 O -0.00538 -0.01869 0.53339
 Zr1437 Zr -0.01138 -0.01782 0.45701
 O1438 O -0.03569 0.00586 0.47904
 Zr1439 Zr 0.04062 0.00975 0.48050
 O1440 O 0.01891 0.03526 0.50345
 O1441 O -0.02419 0.02470 0.52219
 O1442 O 0.02438 -0.02574 0.47300
 C1443 C -0.07458 0.03648 0.50301
 C1444 C -0.03556 0.00476 0.57227
 C1445 C -0.00473 0.07480 0.53373
 C1446 C 0.07376 -0.03885 0.49221
 C1447 C 0.00634 -0.07479 0.46063
 C1448 C 0.03612 -0.00774 0.42364
 H1449 H -0.02791 -0.05176 0.48969
 H1450 H 0.00768 0.02714 0.44632
 H1451 H -0.03495 0.03577 0.53317
 H1452 H 0.05141 -0.00921 0.52587
 H1453 H 0.02589 -0.05029 0.55635
 H1454 H 0.03820 -0.01077 0.56863
 H1455 H -0.02507 0.01323 0.42117
 H1456 H -0.04697 0.04145 0.44722
 H1457 H 0.00848 -0.08736 0.52527
 H1458 H -0.06714 -0.04323 0.54183
 H1459 H 0.04421 0.04874 0.45052
 H1460 H 0.01547 0.07434 0.47392
 H1461 H -0.08701 -0.02769 0.50719
 H1462 H -0.05062 -0.04762 0.45312
 H1463 H 0.05037 0.04727 0.53822
 H1464 H 0.07793 0.02083 0.51142
 O1465 O 0.80130 0.30684 0.25443
 O1466 O 0.80542 0.28674 0.29473
 O1467 O 0.80722 0.24498 0.20116
 O1468 O 0.78744 0.20804 0.19309
 O1469 O 0.74691 0.30061 0.19374
 O1470 O 0.70711 0.30684 0.21460
 O1471 O 0.73722 0.17962 0.26668
 O1472 O 0.77839 0.17756 0.25182
 O1473 O 0.73566 0.23905 0.32200
 O1474 O 0.74889 0.28054 0.32375
 O1475 O 0.67925 0.23689 0.26369
 O1476 O 0.67758 0.24802 0.21942
 O1477 O 0.70208 0.19587 0.24651
 O1478 O 0.69613 0.21819 0.20450
 O1479 O 0.69541 0.25649 0.29906
 O1480 O 0.71840 0.29865 0.30350
 O1481 O 0.75323 0.20248 0.30604
 O1482 O 0.79637 0.20075 0.28713
 O1483 O 0.76536 0.32343 0.23599
 O1484 O 0.72113 0.32442 0.24745
 O1485 O 0.76488 0.26430 0.17763
 O1486 O 0.75099 0.21954 0.17874
 O1487 O 0.82353 0.26529 0.23614
 O1488 O 0.82182 0.24740 0.27969
 Zr1489 Zr 0.79227 0.26831 0.26093
 O1490 O 0.76965 0.24634 0.28530
 Zr1491 Zr 0.76830 0.23987 0.20925
 O1492 O 0.74552 0.21603 0.23167
 Zr1493 Zr 0.74050 0.29222 0.23230
 O1494 O 0.71595 0.27069 0.25511
 Zr1495 Zr 0.76197 0.21097 0.26795
 O1496 O 0.78660 0.23201 0.24425
 Zr1497 Zr 0.73379 0.26344 0.29035
 O1498 O 0.75743 0.28727 0.26848
 Zr1499 Zr 0.71048 0.23434 0.23880
 O1500 O 0.73229 0.25726 0.21409
 O1501 O 0.77576 0.27532 0.22539
 O1502 O 0.72630 0.22753 0.27471
 C1503 C 0.78805 0.32545 0.24521
 C1504 C 0.82570 0.25503 0.21394
 C1505 C 0.75592 0.28708 0.17531
 C1506 C 0.71466 0.17755 0.25714
 C1507 C 0.74375 0.21595 0.32426
 C1508 C 0.67710 0.24631 0.28625
 H1509 H 0.77868 0.24426 0.30182
 H1510 H 0.69966 0.28012 0.25709
 H1511 H 0.78666 0.28597 0.21447
 H1512 H 0.74336 0.19945 0.22281
 H1513 H 0.79470 0.18275 0.24406
 H1514 H 0.78328 0.19314 0.20369
 H1515 H 0.70267 0.30230 0.29358
 H1516 H 0.72826 0.32738 0.26475
 H1517 H 0.79387 0.18391 0.29523
 H1518 H 0.83835 0.25611 0.27733
 H1519 H 0.67434 0.26569 0.22543
 H1520 H 0.70081 0.29327 0.20297
 H1521 H 0.82275 0.29357 0.29177
 H1522 H 0.76439 0.28969 0.31848
 H1523 H 0.73476 0.22849 0.17465
 H1524 H 0.70659 0.20289 0.20046
 O1525 O 0.69365 0.75596 0.70000
 O1526 O 0.71430 0.79571 0.69584
 O1527 O 0.75457 0.70142 0.69158
 O1528 O 0.79154 0.69179 0.71077
 O1529 O 0.70148 0.69469 0.75452
 O1530 O 0.69635 0.71680 0.79359
 O1531 O 0.82353 0.76583 0.76079
 O1532 O 0.82378 0.75015 0.71962
 O1533 O 0.76616 0.82185 0.76516
 O1534 O 0.72422 0.82487 0.75230
 O1535 O 0.76947 0.76403 0.82006
 O1536 O 0.75739 0.72027 0.82196
 O1537 O 0.80906 0.74447 0.79543
 O1538 O 0.78497 0.70366 0.80193
 O1539 O 0.74881 0.79929 0.80506
 O1540 O 0.70653 0.80511 0.78282
 O1541 O 0.80088 0.80537 0.74494
 O1542 O 0.80049 0.78569 0.70212
 O1543 O 0.67839 0.73661 0.73547
 O1544 O 0.67930 0.75001 0.77972
 O1545 O 0.73566 0.67819 0.73346
 O1546 O 0.78096 0.67804 0.74712
 O1547 O 0.73399 0.73669 0.67630
 O1548 O 0.75258 0.77997 0.67825
 Zr1549 Zr 0.73266 0.76151 0.70800
 O1550 O 0.75612 0.78543 0.73030
 Zr1551 Zr 0.76091 0.70913 0.73055
 O1552 O 0.78624 0.73107 0.75289
 Zr1553 Zr 0.71038 0.73345 0.75995
 O1554 O 0.73354 0.75580 0.78417
 Zr1555 Zr 0.79135 0.76724 0.73676
 O1556 O 0.76876 0.74393 0.71248
 Zr1557 Zr 0.74080 0.79092 0.76666
 O1558 O 0.71544 0.76955 0.74340
 Zr1559 Zr 0.76976 0.73872 0.78854
 O1560 O 0.74528 0.71449 0.76707
 O1561 O 0.72557 0.72607 0.72419
 O1562 O 0.77666 0.77449 0.77298
 C1563 C 0.67555 0.74637 0.71318
 C1564 C 0.74405 0.71440 0.67353
 C1565 C 0.71380 0.67611 0.74410
 C1566 C 0.82675 0.75531 0.78264
 C1567 C 0.78857 0.82379 0.75564
 C1568 C 0.75983 0.78652 0.82288
 H1569 H 0.75815 0.80192 0.72146
 H1570 H 0.72486 0.75801 0.80070
 H1571 H 0.71434 0.71527 0.71341
 H1572 H 0.80266 0.72175 0.75441
 H1573 H 0.81782 0.74231 0.70342
 H1574 H 0.80679 0.70224 0.71434
 H1575 H 0.70262 0.79460 0.79787
 H1576 H 0.67601 0.76690 0.77194
 H1577 H 0.81766 0.79334 0.70410
 H1578 H 0.74318 0.77775 0.66191
 H1579 H 0.73998 0.72660 0.82568
 H1580 H 0.71016 0.70560 0.80022
 H1581 H 0.70674 0.79292 0.67864
 H1582 H 0.71419 0.81983 0.73705
 H1583 H 0.77207 0.67380 0.76310
 H1584 H 0.79945 0.69885 0.79086
 O1585 O 0.29884 0.19291 0.74466
 O1586 O 0.29992 0.21311 0.70352
 O1587 O 0.30577 0.25456 0.79779
 O1588 O 0.28584 0.29161 0.80646
 O1589 O 0.24405 0.20036 0.80567
 O1590 O 0.20480 0.19412 0.78343
 O1591 O 0.23483 0.32143 0.73327
 O1592 O 0.27602 0.32272 0.74823
 O1593 O 0.23333 0.26243 0.67718
 O1594 O 0.24764 0.21510 0.67937
 O1595 O 0.17701 0.26537 0.73469
 O1596 O 0.17583 0.25306 0.77930
 O1597 O 0.19989 0.30555 0.75303
 O1598 O 0.19383 0.28305 0.79421
 O1599 O 0.19267 0.24486 0.69973
 O1600 O 0.21265 0.20593 0.69194
 O1601 O 0.25061 0.29873 0.69367
 O1602 O 0.29400 0.29933 0.71330
 O1603 O 0.26372 0.17700 0.76417
 O1604 O 0.21965 0.17621 0.75109
 O1605 O 0.26428 0.23539 0.82150
 O1606 O 0.24965 0.28006 0.82094
 O1607 O 0.32146 0.23400 0.76276
 O1608 O 0.31990 0.25080 0.71991
 Zr1609 Zr 0.28963 0.23154 0.73822
 O1610 O 0.26704 0.25448 0.71397
 Zr1611 Zr 0.26659 0.26010 0.79009
 O1612 O 0.24343 0.28445 0.76781
 Zr1613 Zr 0.23836 0.20838 0.76679
 O1614 O 0.21376 0.23041 0.74372
 Zr1615 Zr 0.25950 0.28967 0.73172
 O1616 O 0.28434 0.26784 0.75518
 Zr1617 Zr 0.23119 0.23773 0.70864
 O1618 O 0.25466 0.21322 0.73073
 Zr1619 Zr 0.20831 0.26679 0.76015
 O1620 O 0.23043 0.24347 0.78497
 O1621 O 0.27373 0.22463 0.77378
 O1622 O 0.22382 0.27369 0.72442
 C1623 C 0.28610 0.17460 0.75450
 C1624 C 0.32404 0.24429 0.78493
 C1625 C 0.25416 0.21330 0.82399
 C1626 C 0.21241 0.32379 0.74279
 C1627 C 0.24135 0.28543 0.67517
 C1628 C 0.17454 0.25562 0.71226
 H1629 H 0.27613 0.25678 0.69770
 H1630 H 0.19748 0.22124 0.74142
 H1631 H 0.28480 0.21386 0.78477
 H1632 H 0.24133 0.30096 0.77685
 H1633 H 0.29223 0.31716 0.75638
 H1634 H 0.28082 0.30680 0.79648
 H1635 H 0.20309 0.19742 0.70562
 H1636 H 0.22711 0.17320 0.73403
 H1637 H 0.29149 0.31615 0.70503
 H1638 H 0.33562 0.24015 0.72084
 H1639 H 0.17150 0.23625 0.77178
 H1640 H 0.19809 0.20790 0.79459
 H1641 H 0.31692 0.20489 0.70563
 H1642 H 0.26169 0.22498 0.67185
 H1643 H 0.23343 0.27134 0.82469
 H1644 H 0.20504 0.29738 0.79919
 O1645 O 0.19265 0.74541 0.30138
 O1646 O 0.21359 0.70568 0.30621
 O1647 O 0.25520 0.79856 0.30844
 O1648 O 0.29140 0.80697 0.28823
 O1649 O 0.19921 0.80658 0.24756
 O1650 O 0.19298 0.78515 0.20790
 O1651 O 0.32064 0.73297 0.23877
 O1652 O 0.32194 0.74724 0.28005
 O1653 O 0.26131 0.67729 0.23600
 O1654 O 0.21979 0.67609 0.24937
 O1655 O 0.26349 0.73483 0.18011
 O1656 O 0.25199 0.77940 0.17861
 O1657 O 0.30410 0.75159 0.20309
 O1658 O 0.28187 0.79409 0.19730
 O1659 O 0.24342 0.70005 0.19584
 O1660 O 0.20164 0.69604 0.21886
 O1661 O 0.29778 0.69316 0.25356
 O1662 O 0.29902 0.71201 0.29700
 O1663 O 0.17637 0.76503 0.26612
 O1664 O 0.17553 0.75253 0.22189
 O1665 O 0.23519 0.82238 0.26616
 O1666 O 0.27993 0.82061 0.25217
 O1667 O 0.23349 0.76468 0.32413
 O1668 O 0.25263 0.72096 0.32241
 Zr1669 Zr 0.23143 0.73929 0.29290
 O1670 O 0.25361 0.71443 0.27026
 Zr1671 Zr 0.25973 0.79048 0.26933
 O1672 O 0.28373 0.76754 0.24656
 Zr1673 Zr 0.20761 0.76772 0.24127
 O1674 O 0.22933 0.74436 0.21668
 Zr1675 Zr 0.28891 0.73136 0.26288
 O1676 O 0.26765 0.75555 0.28750
 Zr1677 Zr 0.23670 0.70916 0.23432
 O1678 O 0.21269 0.73158 0.25796
 Zr1679 Zr 0.26565 0.76015 0.21142
 O1680 O 0.24254 0.78540 0.23325
 O1681 O 0.22431 0.77484 0.27661
 O1682 O 0.27257 0.72432 0.22712
 C1683 C 0.17414 0.75519 0.28837
 C1684 C 0.24450 0.78640 0.32666
 C1685 C 0.21258 0.82494 0.25684
 C1686 C 0.32260 0.74169 0.21603
 C1687 C 0.28443 0.67491 0.24400
 C1688 C 0.25385 0.71246 0.17770
 H1689 H 0.25575 0.69793 0.27918
 H1690 H 0.21998 0.74231 0.20037
 H1691 H 0.21357 0.78600 0.28751
 H1692 H 0.30023 0.77628 0.24455
 H1693 H 0.31645 0.75512 0.29635
 H1694 H 0.30617 0.79560 0.28494
 H1695 H 0.19762 0.70626 0.20353
 H1696 H 0.17253 0.73545 0.22920
 H1697 H 0.31591 0.70372 0.29448
 H1698 H 0.24409 0.72389 0.33899
 H1699 H 0.23451 0.77327 0.17505
 H1700 H 0.20663 0.79632 0.20149
 H1701 H 0.20685 0.70894 0.32357
 H1702 H 0.21058 0.68169 0.26484
 H1703 H 0.27100 0.82459 0.23595
 H1704 H 0.29715 0.79798 0.20780
 O1705 O 0.23744 0.67739 0.76707
 O1706 O 0.28033 0.67683 0.75409
 O1707 O 0.23719 0.73744 0.82474
 O1708 O 0.24498 0.77904 0.82701
 O1709 O 0.17793 0.73534 0.76551
 O1710 O 0.17715 0.74700 0.72203
 O1711 O 0.30051 0.80502 0.75587
 O1712 O 0.30389 0.78718 0.79593
 O1713 O 0.30545 0.74595 0.70241
 O1714 O 0.28717 0.70595 0.69768
 O1715 O 0.24643 0.79908 0.69651
 O1716 O 0.20581 0.80620 0.71776
 O1717 O 0.26454 0.82128 0.73721
 O1718 O 0.21878 0.82220 0.74983
 O1719 O 0.26471 0.76304 0.68020
 O1720 O 0.25160 0.71729 0.68067
 O1721 O 0.32182 0.76534 0.73783
 O1722 O 0.32210 0.74762 0.78100
 O1723 O 0.20172 0.69340 0.74771
 O1724 O 0.19582 0.71486 0.70733
 O1725 O 0.19404 0.75458 0.80111
 O1726 O 0.21609 0.79641 0.80451
 O1727 O 0.25432 0.70068 0.80860
 O1728 O 0.29728 0.70098 0.78810
 Zr1729 Zr 0.26162 0.70921 0.77019
 O1730 O 0.28527 0.73090 0.74658
 Zr1731 Zr 0.23265 0.76126 0.79282
 O1732 O 0.25595 0.78502 0.77091
 Zr1733 Zr 0.20959 0.73218 0.74125
 O1734 O 0.23123 0.75523 0.71700
 Zr1735 Zr 0.29099 0.76696 0.76323
 O1736 O 0.26901 0.74454 0.78820
 Zr1737 Zr 0.26728 0.73836 0.71159
 O1738 O 0.24468 0.71386 0.73384
 Zr1739 Zr 0.23904 0.79040 0.73488
 O1740 O 0.21426 0.76861 0.75777
 O1741 O 0.22593 0.72560 0.77680
 O1742 O 0.27466 0.77414 0.72754
 C1743 C 0.21495 0.67504 0.75742
 C1744 C 0.24564 0.71445 0.82703
 C1745 C 0.17565 0.74482 0.78804
 C1746 C 0.28742 0.82337 0.74597
 C1747 C 0.32381 0.75619 0.71514
 C1748 C 0.25601 0.78592 0.67811
 H1749 H 0.30160 0.72161 0.74409
 H1750 H 0.22183 0.75745 0.70075
 H1751 H 0.21513 0.71480 0.78767
 H1752 H 0.25855 0.80133 0.78015
 H1753 H 0.30031 0.77626 0.81080
 H1754 H 0.26071 0.78841 0.82294
 H1755 H 0.23604 0.72635 0.67473
 H1756 H 0.20889 0.70219 0.70201
 H1757 H 0.33721 0.75889 0.78049
 H1758 H 0.29552 0.68589 0.79924
 H1759 H 0.19964 0.79389 0.70476
 H1760 H 0.17504 0.76486 0.72803
 H1761 H 0.27996 0.66257 0.76644
 H1762 H 0.28243 0.69161 0.70881
 H1763 H 0.20198 0.80020 0.79241
 H1764 H 0.22762 0.82777 0.76563
 O1765 O 0.19494 0.25552 0.20053
 O1766 O 0.21565 0.29533 0.19691
 O1767 O 0.25543 0.20078 0.19304
 O1768 O 0.29254 0.19160 0.21246
 O1769 O 0.20179 0.19416 0.25508
 O1770 O 0.19605 0.21620 0.29409
 O1771 O 0.32403 0.26453 0.26319
 O1772 O 0.32466 0.24963 0.22204
 O1773 O 0.26638 0.32125 0.26693
 O1774 O 0.22467 0.32432 0.25360
 O1775 O 0.26874 0.26325 0.32185
 O1776 O 0.25639 0.21918 0.32314
 O1777 O 0.30863 0.24411 0.29798
 O1778 O 0.28493 0.20320 0.30396
 O1779 O 0.24851 0.29863 0.30661
 O1780 O 0.20653 0.30451 0.28375
 O1781 O 0.30150 0.30477 0.24738
 O1782 O 0.30174 0.28523 0.20450
 O1783 O 0.17905 0.23619 0.23574
 O1784 O 0.17925 0.24944 0.28003
 O1785 O 0.23635 0.17763 0.23464
 O1786 O 0.28133 0.17739 0.24875
 O1787 O 0.23570 0.23639 0.17745
 O1788 O 0.25419 0.27965 0.17986
 Zr1789 Zr 0.23380 0.26108 0.20922
 O1790 O 0.25694 0.28489 0.23196
 Zr1791 Zr 0.26159 0.20859 0.23204
 O1792 O 0.28656 0.23044 0.25487
 Zr1793 Zr 0.21064 0.23291 0.26073
 O1794 O 0.23343 0.25519 0.28539
 Zr1795 Zr 0.29205 0.26664 0.23891
 O1796 O 0.26979 0.24344 0.21420
 Zr1797 Zr 0.24103 0.29032 0.26808
 O1798 O 0.21602 0.26905 0.24436
 Zr1799 Zr 0.26955 0.23807 0.29027
 O1800 O 0.24541 0.21391 0.26833
 O1801 O 0.22638 0.22561 0.22520
 O1802 O 0.27680 0.27385 0.27491
 C1803 C 0.17660 0.24596 0.21341
 C1804 C 0.24541 0.21394 0.17485
 C1805 C 0.21430 0.17556 0.24490
 C1806 C 0.32675 0.25435 0.28527
 C1807 C 0.28893 0.32321 0.25777
 C1808 C 0.25920 0.28578 0.32457
 H1809 H 0.25912 0.30140 0.22319
 H1810 H 0.22448 0.25738 0.30178
 H1811 H 0.21529 0.21484 0.21426
 H1812 H 0.30294 0.22109 0.25664
 H1813 H 0.31885 0.24173 0.20581
 H1814 H 0.30786 0.20164 0.21688
 H1815 H 0.20241 0.29402 0.29875
 H1816 H 0.17615 0.26639 0.27228
 H1817 H 0.31886 0.29291 0.20678
 H1818 H 0.24503 0.27752 0.16337
 H1819 H 0.23922 0.22607 0.32703
 H1820 H 0.20978 0.20503 0.30095
 H1821 H 0.20833 0.29261 0.17960
 H1822 H 0.21492 0.31933 0.23814
 H1823 H 0.27246 0.17339 0.26481
 H1824 H 0.29944 0.19835 0.29293
 O1825 O 0.73607 0.82424 0.23430
 O1826 O 0.77901 0.82399 0.24775
 O1827 O 0.73536 0.76488 0.17595
 O1828 O 0.74274 0.72332 0.17306
 O1829 O 0.67668 0.76726 0.23499
 O1830 O 0.67654 0.75500 0.27833
 O1831 O 0.79954 0.69552 0.24370
 O1832 O 0.80236 0.71398 0.20417
 O1833 O 0.80520 0.75358 0.29832
 O1834 O 0.78687 0.79389 0.30358
 O1835 O 0.74525 0.70171 0.30355
 O1836 O 0.70538 0.69489 0.28145
 O1837 O 0.76441 0.67979 0.26328
 O1838 O 0.71838 0.67934 0.24925
 O1839 O 0.76504 0.73662 0.32015
 O1840 O 0.75163 0.78256 0.32054
 O1841 O 0.82117 0.73480 0.26253
 O1842 O 0.82063 0.75308 0.21969
 O1843 O 0.70076 0.80861 0.25359
 O1844 O 0.69542 0.78660 0.29352
 O1845 O 0.69220 0.74750 0.19955
 O1846 O 0.71483 0.70583 0.19531
 O1847 O 0.75276 0.80114 0.19259
 O1848 O 0.79573 0.80017 0.21346
 Zr1849 Zr 0.76027 0.79210 0.23099
 O1850 O 0.78431 0.76973 0.25436
 Zr1851 Zr 0.73110 0.74076 0.20756
 O1852 O 0.75481 0.71637 0.22917
 Zr1853 Zr 0.70871 0.76956 0.25940
 O1854 O 0.73073 0.74578 0.28336
 Zr1855 Zr 0.78989 0.73387 0.23715
 O1856 O 0.76747 0.75692 0.21250
 Zr1857 Zr 0.76688 0.76193 0.28920
 O1858 O 0.74390 0.78714 0.26723
 Zr1859 Zr 0.73839 0.71073 0.26507
 O1860 O 0.71324 0.73324 0.24246
 O1861 O 0.72450 0.77635 0.22395
 O1862 O 0.77411 0.72632 0.27271
 C1863 C 0.71381 0.82689 0.24410
 C1864 C 0.74404 0.78767 0.17392
 C1865 C 0.67398 0.75743 0.21264
 C1866 C 0.78696 0.67739 0.25401
 C1867 C 0.82344 0.74345 0.28539
 C1868 C 0.75554 0.71419 0.32207
 H1869 H 0.80064 0.77876 0.25703
 H1870 H 0.72149 0.74347 0.29952
 H1871 H 0.71351 0.78740 0.21314
 H1872 H 0.75736 0.70015 0.21974
 H1873 H 0.79855 0.72519 0.18946
 H1874 H 0.75886 0.71411 0.17683
 H1875 H 0.73619 0.77358 0.32628
 H1876 H 0.70868 0.79878 0.29921
 H1877 H 0.83579 0.74161 0.21999
 H1878 H 0.79385 0.81551 0.20262
 H1879 H 0.69863 0.70750 0.29386
 H1880 H 0.67405 0.73742 0.27175
 H1881 H 0.77853 0.83845 0.23562
 H1882 H 0.78167 0.80851 0.29284
 H1883 H 0.70113 0.70177 0.20748
 H1884 H 0.72783 0.67325 0.23410
 O1885 O 0.70106 0.30578 0.74670
 O1886 O 0.69639 0.28548 0.70637
 O1887 O 0.69456 0.24319 0.79898
 O1888 O 0.71520 0.20708 0.80826
 O1889 O 0.75644 0.29823 0.80716
 O1890 O 0.79555 0.30384 0.78549
 O1891 O 0.76320 0.17657 0.73373
 O1892 O 0.72234 0.17598 0.74858
 O1893 O 0.76595 0.23513 0.67848
 O1894 O 0.75235 0.27701 0.67679
 O1895 O 0.82248 0.23304 0.73642
 O1896 O 0.82425 0.24362 0.78073
 O1897 O 0.79924 0.19233 0.75240
 O1898 O 0.80536 0.21426 0.79521
 O1899 O 0.80612 0.25225 0.70107
 O1900 O 0.78346 0.29468 0.69669
 O1901 O 0.74689 0.19970 0.69409
 O1902 O 0.70425 0.19937 0.71369
 O1903 O 0.73716 0.32157 0.76522
 O1904 O 0.78120 0.32131 0.75300
 O1905 O 0.73647 0.26332 0.82278
 O1906 O 0.75153 0.21823 0.82153
 O1907 O 0.67852 0.26526 0.76510
 O1908 O 0.67960 0.24678 0.72139
 Zr1909 Zr 0.70958 0.26698 0.73998
 O1910 O 0.73175 0.24415 0.71531
 Zr1911 Zr 0.73366 0.23832 0.79127
 O1912 O 0.75596 0.21367 0.76853
 Zr1913 Zr 0.76181 0.28972 0.76830
 O1914 O 0.78594 0.26728 0.74518
 Zr1915 Zr 0.73906 0.20873 0.73242
 O1916 O 0.71493 0.23067 0.75642
 Zr1917 Zr 0.76781 0.26010 0.71003
 O1918 O 0.74460 0.28484 0.73221
 Zr1919 Zr 0.79116 0.23091 0.76119
 O1920 O 0.76982 0.25468 0.78621
 O1921 O 0.72642 0.27386 0.77544
 O1922 O 0.77492 0.22413 0.72542
 C1923 C 0.71447 0.32411 0.75604
 C1924 C 0.67620 0.25418 0.78673
 C1925 C 0.74654 0.28547 0.82539
 C1926 C 0.78611 0.17414 0.74236
 C1927 C 0.75690 0.21252 0.67598
 C1928 C 0.82455 0.24212 0.71386
 H1929 H 0.72258 0.24219 0.69883
 H1930 H 0.80229 0.27628 0.74317
 H1931 H 0.71564 0.28483 0.78650
 H1932 H 0.75800 0.19711 0.77728
 H1933 H 0.70627 0.18176 0.75667
 H1934 H 0.71812 0.19217 0.79698
 H1935 H 0.79898 0.29835 0.70689
 H1936 H 0.77385 0.32425 0.73581
 H1937 H 0.70635 0.18234 0.70552
 H1938 H 0.66321 0.25596 0.72402
 H1939 H 0.82761 0.26123 0.77504
 H1940 H 0.80205 0.29022 0.79689
 H1941 H 0.67915 0.29279 0.70947
 H1942 H 0.73732 0.28709 0.68235
 H1943 H 0.76750 0.22737 0.82574
 H1944 H 0.79497 0.19904 0.79884
 N1945 N 0.08402 0.99443 1.12473
 C1946 C 0.07234 1.00575 1.14494
 N1947 N 0.04987 1.01830 1.14088
 N1948 N 0.03939 1.01914 1.11763
 C1949 C 0.05109 1.00764 1.09751
 N1950 N 0.07363 0.99535 1.10151
 N1951 N 0.54953 0.51788 0.64209
 C1952 C 0.57180 0.50503 0.64624
 N1953 N 0.58329 0.49331 0.62613
 N1954 N 0.57290 0.49418 0.60291
 C1955 C 0.55054 0.50679 0.59882
 N1956 N 0.53904 0.51865 0.61884
 N1957 N 0.41818 0.00278 0.62714
 C1958 C 0.43188 -0.00434 0.64806
 N1959 N 0.45663 -0.01159 0.64504
 N1960 N 0.46716 -0.01179 0.62197
 C1961 C 0.45338 -0.00463 0.60112
 N1962 N 0.42872 0.00273 0.60415
 N1963 N -0.08263 0.50350 1.12689
 C1964 C -0.06865 0.49699 1.14783
 N1965 N -0.04381 0.49009 1.14472
 N1966 N -0.03345 0.48968 1.12157
 C1967 C -0.04752 0.49624 1.10070
 N1968 N -0.07228 0.50322 1.10381
 N1969 N -0.04992 0.51902 0.35896
 C1970 C -0.07106 0.50480 0.35411
 N1971 N -0.08148 0.49173 0.37372
 N1972 N -0.07124 0.49264 0.39700
 C1973 C -0.05005 0.50663 0.40171
 N1974 N -0.03955 0.51981 0.38226
 N1975 N 0.45180 1.01722 -0.14085
 C1976 C 0.42985 1.00415 -0.14517
 N1977 N 0.41850 0.99262 -0.12516
 N1978 N 0.42872 0.99384 -0.10187
 C1979 C 0.45075 1.00664 -0.09761
 N1980 N 0.46211 1.01835 -0.11753
 N1981 N 0.54437 0.48773 -0.14504
 C1982 C 0.56926 0.49439 -0.14741
 N1983 N 0.58288 0.49989 -0.12594
 N1984 N 0.57212 0.49901 -0.10309
 C1985 C 0.54730 0.49238 -0.10072
 N1986 N 0.53360 0.48673 -0.12211
 N1987 N 0.04482 -0.01296 0.35405
 C1988 C 0.06973 -0.00645 0.35156
 N1989 N 0.08348 -0.00103 0.37297
 N1990 N 0.07283 -0.00183 0.39587
 C1991 C 0.04799 -0.00830 0.39837
 N1992 N 0.03415 -0.01389 0.37704
 N1993 N 0.12575 1.08483 0.99939
 C1994 C 0.14703 1.07117 1.00565
 N1995 N 0.14438 1.04636 1.01250
 N1996 N 0.12137 1.03568 1.01297
 C1997 C 0.10017 1.04939 1.00655
 N1998 N 0.10281 1.07415 0.99973
 N1999 N 0.64331 0.54583 0.51150
 C2000 C 0.64580 0.57052 0.50417
 N2001 N 0.62437 0.58413 0.49833
 N2002 N 0.60144 0.57350 0.49949
 C2003 C 0.59895 0.54886 0.50676
 N2004 N 0.62031 0.53520 0.51278
 N2005 N 0.64179 0.45025 -0.01760
 C2006 C 0.64585 0.42795 -0.00503
 N2007 N 0.62565 0.41644 0.00602
 N2008 N 0.60242 0.42683 0.00480
 C2009 C 0.59841 0.44921 -0.00751
 N2010 N 0.61852 0.46075 -0.01874
 N2011 N 0.14264 -0.04974 0.48242
 C2012 C 0.14685 -0.07155 0.49577
 N2013 N 0.12670 -0.08287 0.50711
 N2014 N 0.10338 -0.07273 0.50544
 C2015 C 0.09923 -0.05082 0.49235
 N2016 N 0.11929 -0.03949 0.48085
 N2017 N 0.35635 -0.04362 0.51249
 C2018 C 0.35352 -0.06861 0.50595
 N2019 N 0.37458 -0.08236 0.49939
 N2020 N 0.39752 -0.07167 0.49931
 C2021 C 0.40037 -0.04678 0.50595
 N2022 N 0.37936 -0.03292 0.51255
 N2023 N -0.14476 0.45574 1.01228
 C2024 C -0.14751 0.43069 1.00596
 N2025 N -0.12636 0.41687 0.99981
 N2026 N -0.10343 0.42756 0.99986
 C2027 C -0.10066 0.45253 1.00624
 N2028 N -0.12174 0.46644 1.01247
 N2029 N -0.12762 0.58219 0.50619
 C2030 C -0.14774 0.57072 0.49446
 N2031 N -0.14366 0.54826 0.48192
 N2032 N -0.12045 0.53762 0.48144
 C2033 C -0.10042 0.54913 0.49331
 N2034 N -0.10445 0.57164 0.50562
 N2035 N 0.37389 1.08379 0.00628
 C2036 C 0.35352 1.07218 -0.00486
 N2037 N 0.35727 1.04941 -0.01693
 N2038 N 0.38041 1.03860 -0.01751
 C2039 C 0.40068 1.05024 -0.00620
 N2040 N 0.39698 1.07307 0.00563
 N2041 N -0.00613 1.12761 1.08001
 C2042 C 0.00498 1.14787 1.06864
 N2043 N 0.01751 1.14391 1.04634
 N2044 N 0.01857 1.12068 1.03575
 C2045 C 0.00732 1.10051 1.04718
 N2046 N -0.00498 1.10443 1.06952
 N2047 N 0.49242 0.62660 0.58194
 C2048 C 0.50377 0.64681 0.57073
 N2049 N 0.51655 0.64282 0.54858
 N2050 N 0.51762 0.61961 0.53797
 C2051 C 0.50612 0.59948 0.54922
 N2052 N 0.49358 0.60342 0.57143
 N2053 N -0.01369 0.64297 0.45475
 C2054 C -0.00699 0.64555 0.42993
 N2055 N -0.00088 0.62420 0.41634
 N2056 N -0.00125 0.60127 0.42708
 C2057 C -0.00796 0.59870 0.45183
 N2058 N -0.01420 0.61997 0.46549
 N2059 N 0.50093 1.12416 -0.08352
 C2060 C 0.49506 1.14561 -0.06999
 N2061 N 0.48836 1.14319 -0.04515
 N2062 N 0.48764 1.12023 -0.03433
 C2063 C 0.49365 1.09885 -0.04792
 N2064 N 0.50034 1.10126 -0.07269
 N2065 N 0.51827 0.35653 -0.05029
 C2066 C 0.50528 0.35237 -0.07246
 N2067 N 0.49344 0.37250 -0.08387
 N2068 N 0.49428 0.39574 -0.07351
 C2069 C 0.50701 0.39984 -0.05125
 N2070 N 0.51903 0.37981 -0.03983
 N2071 N 0.01718 -0.14368 0.44960
 C2072 C 0.00393 -0.14771 0.42755
 N2073 N -0.00771 -0.12745 0.41619
 N2074 N -0.00643 -0.10420 0.42648
 C2075 C 0.00656 -0.10022 0.44860
 N2076 N 0.01838 -0.12038 0.45998
 N2077 N 0.50126 -0.12564 0.58358
 C2078 C 0.49494 -0.14667 0.56967
 N2079 N 0.48861 -0.14372 0.54467
 N2080 N 0.48855 -0.12062 0.53410
 C2081 C 0.49493 -0.09966 0.54811
 N2082 N 0.50133 -0.10262 0.57301
 N2083 N -0.00003 0.37497 1.08396
 C2084 C -0.00437 0.35354 1.06980
 N2085 N -0.00924 0.35623 1.04444
 N2086 N -0.00979 0.37930 1.03381
 C2087 C -0.00527 0.40057 1.04806
 N2088 N -0.00033 0.39797 1.07332
 N2089 N 0.75115 0.33463 0.12433
 C2090 C 0.75482 0.32034 0.10286
 N2091 N 0.75924 0.29484 0.10560
 N2092 N 0.75993 0.28423 0.12865
 C2093 C 0.75606 0.29866 0.14991
 N2094 N 0.75163 0.32404 0.14731
 N2095 N 0.24967 0.83341 0.62711
 C2096 C 0.25578 0.81960 0.60595
 N2097 N 0.26238 0.79461 0.60874
 N2098 N 0.26281 0.78393 0.63176
 C2099 C 0.25658 0.79780 0.65283
 N2100 N 0.24997 0.82273 0.65006
 N2101 N 0.75136 0.66769 0.62149
 C2102 C 0.74438 0.68142 0.60064
 N2103 N 0.73694 0.70614 0.60395
 N2104 N 0.73652 0.71663 0.62720
 C2105 C 0.74360 0.70281 0.64797
 N2106 N 0.75108 0.67818 0.64466
 N2107 N 0.25017 0.16650 0.12318
 C2108 C 0.24597 0.18076 0.10192
 N2109 N 0.24117 0.20618 0.10504
 N2110 N 0.24063 0.21673 0.12825
 C2111 C 0.24504 0.20234 0.14930
 N2112 N 0.24986 0.17704 0.14632
 N2113 N 0.26469 0.20344 0.89289
 C2114 C 0.25154 0.18159 0.89697
 N2115 N 0.23976 0.17013 0.87681
 N2116 N 0.24091 0.18009 0.85358
 C2117 C 0.25390 0.20197 0.84953
 N2118 N 0.26577 0.21349 0.86962
 N2119 N 0.74154 0.66967 0.37385
 C2120 C 0.75306 0.68085 0.39432
 N2121 N 0.76611 0.70285 0.39074
 N2122 N 0.76727 0.71337 0.36768
 C2123 C 0.75562 0.70215 0.34730
 N2124 N 0.74280 0.68008 0.35083
 N2125 N 0.26024 0.82987 0.37973
 C2126 C 0.24786 0.81921 0.39962
 N2127 N 0.23391 0.79783 0.39524
 N2128 N 0.23262 0.78744 0.37198
 C2129 C 0.24508 0.79816 0.35216
 N2130 N 0.25888 0.81958 0.35648
 N2131 N 0.73583 0.29627 0.89405
 C2132 C 0.74885 0.31824 0.89839
 N2133 N 0.76070 0.32943 0.87848
 N2134 N 0.75971 0.31912 0.85523
 C2135 C 0.74683 0.29713 0.85094
 N2136 N 0.73491 0.28586 0.87078
 N2137 N 0.83497 0.37679 0.25280
 C2138 C 0.82117 0.39789 0.24634
 N2139 N 0.79636 0.39498 0.23926
 N2140 N 0.78584 0.37187 0.23866
 C2141 C 0.79972 0.35084 0.24519
 N2142 N 0.82446 0.35374 0.25231
 N2143 N 0.29609 0.89274 0.73903
 C2144 C 0.32103 0.89556 0.74570
 N2145 N 0.33484 0.87440 0.75196
 N2146 N 0.32419 0.85142 0.75178
 C2147 C 0.29931 0.84863 0.74513
 N2148 N 0.28544 0.86970 0.73872
 N2149 N 0.16531 0.87677 0.25097
 C2150 C 0.17959 0.89809 0.25477
 N2151 N 0.20497 0.89497 0.25974
 N2152 N 0.21547 0.87170 0.26079
 C2153 C 0.20105 0.85059 0.25678
 N2154 N 0.17580 0.85357 0.25181
 N2155 N 0.66752 0.37609 0.74881
 C2156 C 0.68134 0.39709 0.75506
 N2157 N 0.70623 0.39392 0.76195
 N2158 N 0.71678 0.37066 0.76255
 C2159 C 0.70287 0.34973 0.75622
 N2160 N 0.67807 0.35290 0.74930
 N2161 N 0.70247 0.60738 0.73360
 C2162 C 0.68095 0.60359 0.74732
 N2163 N 0.67018 0.62391 0.75951
 N2164 N 0.68048 0.64700 0.75817
 C2165 C 0.70203 0.65074 0.74460
 N2166 N 0.71287 0.63050 0.73234
 N2167 N 0.17040 0.12332 0.25946
 C2168 C 0.18146 0.10299 0.24754
 N2169 N 0.20327 0.10679 0.23429
 N2170 N 0.21367 0.12992 0.23322
 C2171 C 0.20254 0.15018 0.24521
 N2172 N 0.18070 0.14643 0.25831
 N2173 N 0.33090 0.12194 0.74126
 C2174 C 0.31979 0.10187 0.75296
 N2175 N 0.29761 0.10597 0.76567
 N2176 N 0.28691 0.12917 0.76638
 C2177 C 0.29809 0.14915 0.75459
 N2178 N 0.32030 0.14510 0.74207
 N2179 N 0.83201 0.62471 0.24172
 C2180 C 0.82067 0.60466 0.25324
 N2181 N 0.79834 0.60883 0.26566
 N2182 N 0.78768 0.63205 0.26623
 C2183 C 0.79906 0.65200 0.25457
 N2184 N 0.82145 0.64789 0.24237
 N2185 N 0.87674 0.24717 0.16683
 C2186 C 0.89782 0.25432 0.18026
 N2187 N 0.89501 0.26180 0.20495
 N2188 N 0.87203 0.26217 0.21568
 C2189 C 0.85102 0.25498 0.20216
 N2190 N 0.85382 0.24741 0.17756
 N2191 N 0.39308 0.76297 0.70594
 C2192 C 0.39576 0.75590 0.68112
 N2193 N 0.37453 0.74948 0.66754
 N2194 N 0.35163 0.74988 0.67830
 C2195 C 0.34897 0.75693 0.70307
 N2196 N 0.37012 0.76350 0.71670
 N2197 N 0.37607 0.25219 0.83165
 C2198 C 0.39694 0.24501 0.81809
 N2199 N 0.39367 0.23744 0.79345
 N2200 N 0.37043 0.23701 0.78289
 C2201 C 0.34962 0.24424 0.79655
 N2202 N 0.35290 0.25190 0.82109
 N2203 N 0.87459 0.74682 0.33361
 C2204 C 0.89602 0.74308 0.31952
 N2205 N 0.89316 0.73871 0.29404
 N2206 N 0.87004 0.73826 0.28323
 C2207 C 0.84881 0.74230 0.29743
 N2208 N 0.85152 0.74659 0.32281
 N2209 N 0.12144 0.74026 0.33145
 C2210 C 0.10111 0.75164 0.31983
 N2211 N 0.10506 0.76481 0.29798
 N2212 N 0.12835 0.76624 0.28806
 C2213 C 0.14861 0.75475 0.29973
 N2214 N 0.14471 0.74178 0.32162
 N2215 N 0.62362 0.23853 0.82969
 C2216 C 0.60347 0.25106 0.81894
 N2217 N 0.60751 0.26511 0.79768
 N2218 N 0.63070 0.26635 0.78748
 C2219 C 0.65076 0.25374 0.79829
 N2220 N 0.64678 0.23984 0.81959
 N2221 N 0.62209 0.76031 0.66955
 C2222 C 0.60222 0.74856 0.68093
 N2223 N 0.60669 0.73569 0.70296
 N2224 N 0.63005 0.73483 0.71326
 C2225 C 0.64984 0.74665 0.70179
 N2226 N 0.64541 0.75936 0.67973
 N2227 N 0.12396 0.25966 0.16873
 C2228 C 0.10384 0.24815 0.17991
 N2229 N 0.10787 0.23552 0.20217
 N2230 N 0.13105 0.23465 0.21285
 C2231 C 0.15110 0.24624 0.20158
 N2232 N 0.14711 0.25871 0.17931
 N2233 N -0.07738 1.01086 0.86942
 C2234 C -0.06712 0.99718 0.84985
 N2235 N -0.04613 0.98245 0.85471
 N2236 N -0.03582 0.98165 0.87804
 C2237 C -0.04623 0.99534 0.89750
 N2238 N -0.06721 1.00993 0.89273
 N2239 N 0.41979 0.50953 0.37199
 C2240 C 0.43084 0.49716 0.35202
 N2241 N 0.45260 0.48349 0.35633
 N2242 N 0.46297 0.48248 0.37962
 C2243 C 0.45185 0.49492 0.39951
 N2244 N 0.43006 0.50842 0.39525
 N2245 N 0.54916 0.02056 0.35931
 C2246 C 0.57079 0.00658 0.35527
 N2247 N 0.58106 -0.00650 0.37522
 N2248 N 0.57027 -0.00578 0.39805
 C2249 C 0.54864 0.00800 0.40200
 N2250 N 0.53822 0.02118 0.38221
 N2251 N 0.04353 0.51409 0.85684
 C2252 C 0.06858 0.50766 0.85438
 N2253 N 0.08230 0.50211 0.87575
 N2254 N 0.07146 0.50270 0.89859
 C2255 C 0.04647 0.50905 0.90105
 N2256 N 0.03267 0.51480 0.87976
 N2257 N 0.04631 0.48435 0.64509
 C2258 C 0.06827 0.49747 0.64918
 N2259 N 0.07927 0.50922 0.62912
 N2260 N 0.06878 0.50806 0.60597
 C2261 C 0.04680 0.49513 0.60190
 N2262 N 0.03571 0.48328 0.62188
 N2263 N 0.54438 0.99063 0.14698
 C2264 C 0.56904 0.99801 0.14999
 N2265 N 0.58251 1.00416 0.12892
 N2266 N 0.57184 1.00313 0.10584
 C2267 C 0.54726 0.99574 0.10283
 N2268 N 0.53369 0.98950 0.12382
 N2269 N 0.41699 0.49692 0.12462
 C2270 C 0.43084 0.50268 0.14587
 N2271 N 0.45572 0.50920 0.14314
 N2272 N 0.46625 0.50992 0.12008
 C2273 C 0.45229 0.50408 0.09890
 N2274 N 0.42749 0.49752 0.10163
 N2275 N -0.08294 -0.00065 0.62310
 C2276 C -0.06876 0.00318 0.64463
 N2277 N -0.04343 0.00795 0.64209
 N2278 N -0.03282 0.00881 0.61907
 C2279 C -0.04711 0.00481 0.59769
 N2280 N -0.07234 0.00004 0.60017
 N2281 N -0.14262 0.95422 0.98207
 C2282 C -0.14631 0.93242 0.99544
 N2283 N -0.12596 0.92145 1.00740
 N2284 N -0.10292 0.93182 1.00619
 C2285 C -0.09925 0.95365 0.99301
 N2286 N -0.11953 0.96471 0.98096
 N2287 N 0.35638 0.45284 0.48435
 C2288 C 0.35272 0.43109 0.49781
 N2289 N 0.37308 0.42023 0.50985
 N2290 N 0.39610 0.43065 0.50861
 C2291 C 0.39973 0.45243 0.49532
 N2292 N 0.37943 0.46338 0.48321
 N2293 N 0.37085 0.57941 -0.00925
 C2294 C 0.35098 0.56817 0.00265
 N2295 N 0.35538 0.54606 0.01545
 N2296 N 0.37866 0.53557 0.01611
 C2297 C 0.39845 0.54688 0.00414
 N2298 N 0.39409 0.56901 -0.00851
 N2299 N -0.14309 0.04816 0.51425
 C2300 C -0.14734 0.07004 0.50101
 N2301 N -0.12740 0.08091 0.48890
 N2302 N -0.10422 0.07036 0.48984
 C2303 C -0.10003 0.04845 0.50291
 N2304 N -0.11989 0.03751 0.51510
 N2305 N 0.64411 0.04488 0.48710
 C2306 C 0.64680 0.06988 0.49364
 N2307 N 0.62560 0.08363 0.49976
 N2308 N 0.60270 0.07287 0.49957
 C2309 C 0.60001 0.04793 0.49306
 N2310 N 0.62113 0.03410 0.48678
 N2311 N 0.12403 0.58365 0.99780
 C2312 C 0.14555 0.56946 0.99408
 N2313 N 0.14300 0.54403 0.98926
 N2314 N 0.11998 0.53335 0.98834
 C2315 C 0.09861 0.54764 0.99234
 N2316 N 0.10109 0.57298 0.99709
 N2317 N 0.14412 0.45545 0.51151
 C2318 C 0.14710 0.43046 0.50488
 N2319 N 0.12597 0.41662 0.49919
 N2320 N 0.10284 0.42725 0.49995
 C2321 C 0.09986 0.45215 0.50661
 N2322 N 0.12092 0.46609 0.51239
 N2323 N 0.64468 0.95570 0.01112
 C2324 C 0.64771 0.93072 0.00446
 N2325 N 0.62656 0.91673 -0.00078
 N2326 N 0.60338 0.92721 0.00040
 C2327 C 0.60036 0.95212 0.00705
 N2328 N 0.62143 0.96619 0.01241
 N2329 N -0.01080 0.85595 0.95389
 C2330 C -0.00127 0.85219 0.93008
 N2331 N 0.00707 0.87283 0.91708
 N2332 N 0.00608 0.89611 0.92735
 C2333 C -0.00339 0.89979 0.95108
 N2334 N -0.01181 0.87928 0.96420
 N2335 N 0.50347 0.37341 0.41646
 C2336 C 0.49579 0.35246 0.42935
 N2337 N 0.48736 0.35554 0.45364
 N2338 N 0.48676 0.37862 0.46456
 C2339 C 0.49456 0.39948 0.45158
 N2340 N 0.50290 0.39642 0.42734
 N2341 N -0.01209 0.37236 0.57947
 C2342 C 0.00148 0.35238 0.56972
 N2343 N 0.01638 0.35659 0.54906
 N2344 N 0.01749 0.37970 0.53857
 C2345 C 0.00392 0.39957 0.54850
 N2346 N -0.01085 0.39545 0.56914
 N2347 N 0.51466 0.85663 0.04927
 C2348 C 0.50091 0.85286 0.07077
 N2349 N 0.48890 0.87324 0.08163
 N2350 N 0.49043 0.89637 0.07142
 C2351 C 0.50401 0.90010 0.04988
 N2352 N 0.51609 0.87979 0.03895
 N2353 N 0.48689 0.64389 0.04385
 C2354 C 0.49372 0.64678 0.06876
 N2355 N 0.50031 0.62564 0.08227
 N2356 N 0.50017 0.60261 0.07140
 C2357 C 0.49328 0.59972 0.04658
 N2358 N 0.48663 0.62078 0.03298
 N2359 N -0.01136 0.14444 0.54287
 C2360 C -0.00407 0.14738 0.56765
 N2361 N 0.00279 0.12629 0.58108
 N2362 N 0.00247 0.10323 0.57027
 C2363 C -0.00487 0.10029 0.54558
 N2364 N -0.01178 0.12132 0.53205
 N2365 N 0.48616 0.13259 0.43159
 C2366 C 0.50530 0.14919 0.43676
 N2367 N 0.52517 0.14138 0.45166
 N2368 N 0.52567 0.11792 0.46137
 C2369 C 0.50663 0.10125 0.45597
 N2370 N 0.48688 0.10901 0.44094
 N2371 N -0.01652 0.63000 0.92574
 C2372 C -0.00031 0.64859 0.93373
 N2373 N 0.01767 0.64256 0.95164
 N2374 N 0.01913 0.61910 0.96130
 C2375 C 0.00297 0.60059 0.95309
 N2376 N -0.01486 0.60648 0.93514
 N2377 N 0.25078 0.66702 0.87810
 C2378 C 0.24476 0.68093 0.89920
 N2379 N 0.23896 0.70611 0.89643
 N2380 N 0.23909 0.71685 0.87344
 C2381 C 0.24515 0.70283 0.85241
 N2382 N 0.25104 0.67775 0.85519
 N2383 N 0.73741 0.20742 0.39367
 C2384 C 0.74330 0.18225 0.39635
 N2385 N 0.74876 0.16830 0.37512
 N2386 N 0.74856 0.17901 0.35220
 C2387 C 0.74270 0.20412 0.34952
 N2388 N 0.73708 0.21815 0.37067
 N2389 N 0.26982 0.29668 0.39351
 C2390 C 0.25690 0.31900 0.39735
 N2391 N 0.24559 0.33048 0.37701
 N2392 N 0.24689 0.32007 0.35386
 C2393 C 0.25953 0.29769 0.35003
 N2394 N 0.27102 0.28615 0.37028
 N2395 N 0.74645 0.83129 0.87530
 C2396 C 0.75789 0.81990 0.89561
 N2397 N 0.77091 0.79763 0.89174
 N2398 N 0.77203 0.78705 0.86853
 C2399 C 0.76037 0.79850 0.84831
 N2400 N 0.74767 0.82084 0.85217
 N2401 N 0.73987 0.79571 0.10419
 C2402 C 0.74630 0.82064 0.10153
 N2403 N 0.75158 0.83458 0.12284
 N2404 N 0.75064 0.82409 0.14584
 C2405 C 0.74418 0.79924 0.14850
 N2406 N 0.73880 0.78521 0.12726
 N2407 N 0.23685 0.29403 0.60553
 C2408 C 0.24298 0.31907 0.60308
 N2409 N 0.24779 0.33296 0.62454
 N2410 N 0.24680 0.32230 0.64745
 C2411 C 0.24074 0.29732 0.64989
 N2412 N 0.23574 0.28336 0.62852
 N2413 N 0.76744 0.20193 0.60722
 C2414 C 0.75475 0.17974 0.60297
 N2415 N 0.74358 0.16814 0.62305
 N2416 N 0.74478 0.17835 0.64632
 C2417 C 0.75720 0.20063 0.65052
 N2418 N 0.76854 0.21224 0.63053
 N2419 N 0.24044 0.66756 0.12521
 C2420 C 0.25213 0.67863 0.10514
 N2421 N 0.26503 0.70074 0.10922
 N2422 N 0.26590 0.71144 0.13237
 C2423 C 0.25407 0.70033 0.15235
 N2424 N 0.24139 0.67817 0.14833
 N2425 N 0.20623 0.60551 0.76350
 C2426 C 0.18132 0.60285 0.75661
 N2427 N 0.16769 0.62407 0.75022
 N2428 N 0.17844 0.64699 0.75059
 C2429 C 0.20325 0.64967 0.75755
 N2430 N 0.21698 0.62852 0.76401
 N2431 N 0.66980 0.12563 0.24338
 C2432 C 0.68026 0.10558 0.25620
 N2433 N 0.70206 0.10958 0.26991
 N2434 N 0.71299 0.13251 0.27049
 C2435 C 0.70240 0.15242 0.25759
 N2436 N 0.68059 0.14853 0.24409
 N2437 N 0.79541 0.10451 0.73548
 C2438 C 0.82045 0.10170 0.74195
 N2439 N 0.83405 0.12290 0.74798
 N2440 N 0.82314 0.14592 0.74777
 C2441 C 0.79817 0.14874 0.74132
 N2442 N 0.78448 0.12762 0.73514
 N2443 N 0.33245 0.62360 0.24845
 C2444 C 0.31861 0.60240 0.24296
 N2445 N 0.29341 0.60525 0.23722
 N2446 N 0.28254 0.62838 0.23707
 C2447 C 0.29645 0.64950 0.24272
 N2448 N 0.32159 0.64665 0.24843
 N2449 N 0.33339 0.37518 0.24426
 C2450 C 0.32187 0.39570 0.25537
 N2451 N 0.29978 0.39206 0.26822
 N2452 N 0.28947 0.36889 0.26950
 C2453 C 0.30098 0.34846 0.25819
 N2454 N 0.32317 0.35205 0.24563
 N2455 N 0.80045 0.89243 0.76648
 C2456 C 0.82273 0.89574 0.75385
 N2457 N 0.83391 0.87509 0.74264
 N2458 N 0.82324 0.85217 0.74375
 C2459 C 0.80089 0.84890 0.75611
 N2460 N 0.78968 0.86946 0.76751
 N2461 N 0.66738 0.87901 0.25342
 C2462 C 0.68090 0.89997 0.24688
 N2463 N 0.70539 0.89672 0.23910
 N2464 N 0.71587 0.87343 0.23792
 C2465 C 0.70227 0.85255 0.24454
 N2466 N 0.67786 0.85580 0.25235
 N2467 N 0.16811 0.37650 0.75747
 C2468 C 0.17922 0.39672 0.74604
 N2469 N 0.20108 0.39266 0.73277
 N2470 N 0.21154 0.36938 0.73132
 C2471 C 0.20039 0.34925 0.74290
 N2472 N 0.17845 0.35326 0.75592
 N2473 N 0.12463 0.75269 0.83514
 C2474 C 0.10375 0.74424 0.82218
 N2475 N 0.10672 0.73576 0.79782
 N2476 N 0.12962 0.73577 0.78691
 C2477 C 0.15041 0.74431 0.79995
 N2478 N 0.14747 0.75276 0.82426
 N2479 N 0.62594 0.25633 0.33276
 C2480 C 0.60509 0.24746 0.32006
 N2481 N 0.60816 0.23772 0.29617
 N2482 N 0.63113 0.23703 0.28543
 C2483 C 0.65190 0.24601 0.29820
 N2484 N 0.64885 0.25567 0.32205
 N2485 N 0.60485 0.76760 0.20246
 C2486 C 0.60069 0.75444 0.18039
 N2487 N 0.62087 0.74287 0.16888
 N2488 N 0.64419 0.74422 0.17900
 C2489 C 0.64832 0.75717 0.20111
 N2490 N 0.62822 0.76885 0.21269
 N2491 N 0.10612 0.26822 0.70007
 C2492 C 0.10181 0.25418 0.67853
 N2493 N 0.12179 0.24124 0.66809
 N2494 N 0.14493 0.24214 0.67865
 C2495 C 0.14914 0.25597 0.70020
 N2496 N 0.12931 0.26900 0.71076
 N2497 N 0.87519 0.24971 0.66659
 C2498 C 0.89659 0.24355 0.68007
 N2499 N 0.89409 0.23626 0.70475
 N2500 N 0.87112 0.23530 0.71547
 C2501 C 0.84980 0.24163 0.70191
 N2502 N 0.85229 0.24886 0.67729
 N2503 N 0.37298 0.74853 0.16836
 C2504 C 0.39450 0.74298 0.18191
 N2505 N 0.39218 0.73630 0.20679
 N2506 N 0.36926 0.73535 0.21762
 C2507 C 0.34782 0.74109 0.20399
 N2508 N 0.35014 0.74771 0.17918
 N2509 N 0.38115 0.23552 0.32586
 C2510 C 0.40060 0.24906 0.31583
 N2511 N 0.39548 0.26494 0.29600
 N2512 N 0.37191 0.26689 0.28638
 C2513 C 0.35251 0.25334 0.29649
 N2514 N 0.35758 0.23764 0.31640
 N2515 N 0.88403 0.73418 0.81773
 C2516 C 0.90075 0.75313 0.81282
 N2517 N 0.89297 0.77303 0.79812
 N2518 N 0.86940 0.77373 0.78835
 C2519 C 0.85261 0.75488 0.79350
 N2520 N 0.86035 0.73509 0.80833
   
