data_POSCAR
  _audit_creation_date              2014-09-24
  _audit_creation_method            'ToBaCCo'
  _symmetry_space_group_name_H-M    'P1'
  _symmetry_Int_Tables_number       1
  _symmetry_cell_setting            triclinic
  loop_
  _symmetry_equiv_pos_as_xyz
 x,y,z
_cell_length_a 59.6025
_cell_length_b 59.5978
_cell_length_c 59.5667
_cell_angle_alpha 89.956500
_cell_angle_beta 90.012100
_cell_angle_gamma 89.984700
loop_
  _atom_site_label
  _atom_site_type_symbol
  _atom_site_fract_x
  _atom_site_fract_y
  _atom_site_fract_z
C1 C 0.35906 1.36040 0.33047
 C2 C 0.33980 1.36996 0.34002
 C3 C 0.33015 1.36034 0.35922
 C4 C 0.33981 1.34118 0.36887
 C5 C 0.35905 1.33162 0.35934
 C6 C 0.36868 1.34123 0.34017
 H7 H 0.33224 1.38471 0.33243
 H8 H 0.33230 1.33358 0.38363
 H9 H 0.38348 1.33368 0.33272
 C10 C 0.35911 0.85994 0.83122
 C11 C 0.36870 0.84075 0.84085
 C12 C 0.35905 0.83108 0.86000
 C13 C 0.33982 0.84065 0.86955
 C14 C 0.33020 0.85987 0.85994
 C15 C 0.33988 0.86951 0.84078
 H16 H 0.38348 0.83324 0.83335
 H17 H 0.33228 0.83303 0.88428
 H18 H 0.33240 0.88428 0.83318
 C19 C 0.85875 1.35982 0.83100
 C20 C 0.83956 1.36944 0.84059
 C21 C 0.82993 1.35986 0.85982
 C22 C 0.83956 1.34065 0.86945
 C23 C 0.85875 1.33104 0.85985
 C24 C 0.86834 1.34064 0.84065
 H25 H 0.83207 1.38420 0.83298
 H26 H 0.83207 1.33308 0.88422
 H27 H 0.88309 1.33309 0.83312
 C28 C 0.85949 0.85976 0.32998
 C29 C 0.86902 0.84051 0.33961
 C30 C 0.85940 0.83094 0.35882
 C31 C 0.84027 0.84063 0.36844
 C32 C 0.83072 0.85986 0.35885
 C33 C 0.84034 0.86944 0.33963
 H34 H 0.88375 0.83287 0.33211
 H35 H 0.83272 0.83311 0.38321
 H36 H 0.83281 0.88423 0.33214
 C37 C 0.63934 0.63969 0.33202
 C38 C 0.65853 0.63010 0.34163
 C39 C 0.66817 0.63972 0.36079
 C40 C 0.65858 0.65892 0.37037
 C41 C 0.63938 0.66853 0.36077
 C42 C 0.62975 0.65889 0.34161
 H43 H 0.66607 0.61535 0.33410
 H44 H 0.66615 0.66649 0.38509
 H45 H 0.61500 0.66643 0.33406
 C46 C 0.64033 0.14019 0.83013
 C47 C 0.65951 0.13056 0.83980
 C48 C 0.66899 0.14004 0.85912
 C49 C 0.65928 0.15913 0.86880
 C50 C 0.64012 0.16878 0.85916
 C51 C 0.63064 0.15930 0.83984
 H52 H 0.66718 0.11589 0.83224
 H53 H 0.66672 0.16657 0.88364
 H54 H 0.61591 0.16692 0.83231
 C55 C 1.13957 0.63936 0.83161
 C56 C 1.12997 0.65856 0.84120
 C57 C 1.13956 0.66818 0.86039
 C58 C 1.15874 0.65856 0.87001
 C59 C 1.16835 0.63937 0.86044
 C60 C 1.15875 0.62976 0.84125
 H61 H 1.11523 0.66611 0.83363
 H62 H 1.16629 0.66612 0.88475
 H63 H 1.16629 0.61502 0.83372
 C64 C 1.14122 0.14028 0.32983
 C65 C 1.16042 0.13069 0.33949
 C66 C 1.17003 0.14031 0.35870
 C67 C 1.16037 0.15951 0.36826
 C68 C 1.14118 0.16910 0.35863
 C69 C 1.13161 0.15948 0.33944
 H70 H 1.16797 0.11591 0.33197
 H71 H 1.16785 0.16710 0.38303
 H72 H 1.11684 0.16705 0.33192
 C73 C 0.64101 1.36007 0.66896
 C74 C 0.66024 1.36966 0.65942
 C75 C 0.66988 1.36011 0.64019
 C76 C 0.66023 1.34097 0.63052
 C77 C 0.64100 1.33138 0.64006
 C78 C 0.63140 1.34094 0.65926
 H79 H 0.66775 1.38437 0.66707
 H80 H 0.66773 1.33342 0.61574
 H81 H 0.61662 1.33341 0.66675
 C82 C 0.63978 0.86011 1.16866
 C83 C 0.65898 0.86970 1.15906
 C84 C 0.66863 0.86008 1.13990
 C85 C 0.65904 0.84088 1.13031
 C86 C 0.63984 0.83128 1.13990
 C87 C 0.63021 0.84091 1.15906
 H88 H 0.66651 0.88445 1.16660
 H89 H 0.66661 0.83332 1.11559
 H90 H 0.61546 0.83338 1.16660
 C91 C 1.13963 1.36014 1.16937
 C92 C 1.15885 1.36974 1.15976
 C93 C 1.16846 1.36016 1.14056
 C94 C 1.15884 1.34100 1.13093
 C95 C 1.13965 1.33139 1.14050
 C96 C 1.13004 1.34096 1.15970
 H97 H 1.16644 1.38447 1.16729
 H98 H 1.16639 1.33349 1.11618
 H99 H 1.11528 1.33336 1.16719
 C100 C 1.14128 0.85948 0.66905
 C101 C 1.13167 0.84030 0.65944
 C102 C 1.14125 0.83068 0.64025
 C103 C 1.16045 0.84027 0.63064
 C104 C 1.17010 0.85946 0.64023
 C105 C 1.16048 0.86906 0.65943
 H106 H 1.11692 0.83278 0.66699
 H107 H 1.16793 0.83268 0.61587
 H108 H 1.16798 0.88382 0.66701
 C109 C 0.35989 0.64002 0.66863
 C110 C 0.34077 0.63041 0.65890
 C111 C 0.33128 0.63999 0.63962
 C112 C 0.34094 0.65917 0.63006
 C113 C 0.36005 0.66880 0.63978
 C114 C 0.36953 0.65921 0.65905
 H115 H 0.33318 0.61568 0.66643
 H116 H 0.33348 0.66671 0.61525
 H117 H 0.38421 0.66677 0.66670
 C118 C 0.36032 0.13940 1.16913
 C119 C 0.34115 0.12979 1.15946
 C120 C 0.33160 0.13936 1.14021
 C121 C 0.34124 0.15852 1.13059
 C122 C 0.36039 0.16815 1.14022
 C123 C 0.36994 0.15859 1.15947
 H124 H 0.33353 0.11506 1.16699
 H125 H 0.33373 0.16604 1.11579
 H126 H 0.38466 0.16620 1.16700
 C127 C 0.86026 0.63960 1.16917
 C128 C 0.86988 0.65879 1.15953
 C129 C 0.86028 0.66841 1.14032
 C130 C 0.84108 0.65883 1.13073
 C131 C 0.83145 0.63965 1.14034
 C132 C 0.84105 0.63003 1.15954
 H133 H 0.88464 0.66636 1.16703
 H134 H 0.83355 0.66638 1.11597
 H135 H 0.83345 0.61528 1.16705
 C136 C 0.85830 0.14065 0.67034
 C137 C 0.83902 0.13113 0.66077
 C138 C 0.82941 0.14075 0.64154
 C139 C 0.83910 0.15990 0.63189
 C140 C 0.85835 0.16942 0.64144
 C141 C 0.86795 0.15979 0.66064
 H142 H 0.83144 0.11639 0.66835
 H143 H 0.83162 0.16749 0.61712
 H144 H 0.88278 0.16730 0.66808
 C145 C 1.36023 0.35938 0.66874
 C146 C 1.36983 0.34019 0.65914
 C147 C 1.36024 0.33057 0.63993
 C148 C 1.34104 0.34021 0.63031
 C149 C 1.33144 0.35940 0.63992
 C150 C 1.34105 0.36898 0.65911
 H151 H 1.38459 0.33268 0.66674
 H152 H 1.33345 0.33273 0.61555
 H153 H 1.33351 0.38372 0.66665
 C154 C 1.36024 0.85989 1.16987
 C155 C 1.36983 0.84067 1.16025
 C156 C 1.36023 0.83109 1.14104
 C157 C 1.34106 0.84072 1.13143
 C158 C 1.33145 0.85991 1.14101
 C159 C 1.34105 0.86950 1.16021
 H160 H 1.38457 0.83306 1.16777
 H161 H 1.33352 0.83320 1.11667
 H162 H 1.33347 0.88426 1.16770
 C163 C 0.86038 0.35994 1.16946
 C164 C 0.84114 0.36951 1.15985
 C165 C 0.83154 0.35991 1.14065
 C166 C 0.84119 0.34077 1.13103
 C167 C 0.86041 0.33118 1.14060
 C168 C 0.87001 0.34078 1.15980
 H169 H 0.83352 0.38423 1.16738
 H170 H 0.83365 0.33323 1.11628
 H171 H 0.88479 0.33321 1.16728
 C172 C 0.86031 0.86014 0.66842
 C173 C 0.86985 0.84095 0.65878
 C174 C 0.86020 0.83138 0.63959
 C175 C 0.84101 0.84104 0.63003
 C176 C 0.83145 0.86024 0.63966
 C177 C 0.84112 0.86979 0.65884
 H178 H 0.88459 0.83337 0.66630
 H179 H 0.83342 0.83353 0.61529
 H180 H 0.83362 0.88454 0.66641
 C181 C 0.64049 0.64048 0.66904
 C182 C 0.63082 0.65962 0.65939
 C183 C 0.64021 0.66908 0.64001
 C184 C 0.65928 0.65937 0.63027
 C185 C 0.66896 0.64023 0.63991
 C186 C 0.65955 0.63078 0.65928
 H187 H 0.61618 0.66725 0.66705
 H188 H 0.66667 0.66682 0.61539
 H189 H 0.66717 0.61608 0.66686
 C190 C 0.64013 1.14064 1.16853
 C191 C 0.65928 1.13099 1.15892
 C192 C 0.66891 1.14056 1.13971
 C193 C 0.65935 1.15977 1.13008
 C194 C 0.64018 1.16946 1.13968
 C195 C 0.63058 1.15986 1.15891
 H196 H 0.66678 1.11622 1.16647
 H197 H 0.66695 1.16724 1.11530
 H198 H 0.61585 1.16740 1.16651
 C199 C 0.14038 0.64114 1.16989
 C200 C 0.13083 0.66039 1.16027
 C201 C 0.14048 0.67004 1.14108
 C202 C 0.15968 0.66038 1.13151
 C203 C 0.16923 0.64115 1.14110
 C204 C 0.15958 0.63153 1.16027
 H205 H 0.11605 0.66794 1.16780
 H206 H 0.16729 0.66789 1.11676
 H207 H 0.16712 0.61673 1.16775
 C208 C 0.13934 1.14038 0.66816
 C209 C 0.12973 1.15958 0.65856
 C210 C 0.13932 1.16924 0.63936
 C211 C 0.15852 1.15962 0.62975
 C212 C 0.16813 1.14042 0.63935
 C213 C 0.15852 1.13080 0.65854
 H214 H 0.11498 1.16707 0.66617
 H215 H 0.16611 1.16714 0.61500
 H216 H 0.16608 1.11605 0.66608
 C217 C 1.35984 0.64155 0.33110
 C218 C 1.36944 0.66071 0.34077
 C219 C 1.35970 0.67041 0.35987
 C220 C 1.34035 0.66089 0.36928
 C221 C 1.33075 0.64174 0.35961
 C222 C 1.34051 0.63208 0.34054
 H223 H 1.38430 0.66812 0.33331
 H224 H 1.33263 0.66845 0.38395
 H225 H 1.33297 0.61736 0.33294
 C226 C 1.36002 1.14101 0.83135
 C227 C 1.34087 1.13136 0.84098
 C228 C 1.33126 1.14091 0.86019
 C229 C 1.34083 1.16010 0.86981
 C230 C 1.36000 1.16979 0.86019
 C231 C 1.36959 1.16021 0.84096
 H232 H 1.33336 1.11661 0.83343
 H233 H 1.33325 1.16756 0.88459
 H234 H 1.38432 1.16775 0.83335
 C235 C 0.86015 0.63977 0.83135
 C236 C 0.86974 0.65896 0.84096
 C237 C 0.86015 0.66855 0.86017
 C238 C 0.84098 0.65892 0.86978
 C239 C 0.83138 0.63973 0.86019
 C240 C 0.84099 0.63015 0.84099
 H241 H 0.88447 0.66652 0.83340
 H242 H 0.83344 0.66645 0.88454
 H243 H 0.83345 0.61541 0.83345
 C244 C 0.86087 1.13911 0.33210
 C245 C 0.84163 1.12955 0.34162
 C246 C 0.83194 1.13915 0.36077
 C247 C 0.84154 1.15830 0.37043
 C248 C 0.86079 1.16788 0.36092
 C249 C 0.87046 1.15827 0.34177
 H250 H 0.83407 1.11485 0.33401
 H251 H 0.83392 1.16586 0.38513
 H252 H 0.88524 1.16580 0.33429
 C253 C 0.64016 0.35905 0.33042
 C254 C 0.63053 0.33988 0.34009
 C255 C 0.64015 0.33025 0.35931
 C256 C 0.65939 0.33984 0.36886
 C257 C 0.66902 0.35899 0.35920
 C258 C 0.65940 0.36860 0.34001
 H259 H 0.61573 0.33237 0.33259
 H260 H 0.66698 0.33234 0.38363
 H261 H 0.66700 0.38334 0.33247
 C262 C 0.63973 0.86033 0.83162
 C263 C 0.63013 0.84113 0.84123
 C264 C 0.63978 0.83146 0.86039
 C265 C 0.65900 0.84102 0.86995
 C266 C 0.66861 0.86022 0.86036
 C267 C 0.65895 0.86987 0.84120
 H268 H 0.61536 0.83362 0.83371
 H269 H 0.66658 0.83343 0.88467
 H270 H 0.66649 0.88462 0.83365
 C271 C 0.14026 0.35984 0.83000
 C272 C 0.13068 0.34063 0.83963
 C273 C 0.14025 0.33106 0.85888
 C274 C 0.15938 0.34071 0.86852
 C275 C 0.16899 0.35990 0.85892
 C276 C 0.15942 0.36948 0.83968
 H277 H 0.11596 0.33301 0.83210
 H278 H 0.16689 0.33320 0.88331
 H279 H 0.16700 0.38424 0.83218
 C280 C 0.13971 0.86030 0.33069
 C281 C 0.13015 0.84108 0.34031
 C282 C 0.13975 0.83148 0.35952
 C283 C 0.15889 0.84112 0.36915
 C284 C 0.16848 0.86033 0.35957
 C285 C 0.15888 0.86993 0.34036
 H286 H 0.11542 0.83346 0.33278
 H287 H 0.16643 0.83358 0.38392
 H288 H 0.16645 0.88470 0.33286
 O289 O 0.97840 0.91898 0.88826
 O290 O 0.97837 0.89290 0.86202
 C291 C 0.97075 0.91116 0.86997
 C292 C 0.95245 0.92318 0.85818
 C293 C 0.94494 0.91590 0.83704
 H294 H 0.95292 0.90176 0.82886
 O295 O 1.02183 1.08102 0.88807
 O296 O 1.02187 1.10712 0.86180
 C297 C 1.02949 1.08886 0.86979
 C298 C 1.04781 1.07685 0.85803
 C299 C 1.05532 1.08411 0.83689
 H300 H 1.04732 1.09824 0.82866
 O301 O 0.88847 0.97814 0.91889
 O302 O 0.86219 0.97806 0.89283
 C303 C 0.87019 0.97046 0.91109
 C304 C 0.85844 0.95216 0.92314
 C305 C 0.83731 0.94463 0.91590
 H306 H 0.82909 0.95261 0.90175
 O307 O 1.11189 1.02192 0.91892
 O308 O 1.13813 1.02200 0.89282
 C309 C 1.13016 1.02961 0.91108
 C310 C 1.14190 1.04793 0.92309
 C311 C 1.16300 1.05551 0.91581
 H312 H 1.17121 1.04757 0.90165
 O313 O 0.91923 0.88816 0.97820
 O314 O 0.89315 0.86191 0.97816
 C315 C 0.91140 0.86989 0.97053
 C316 C 0.92341 0.85813 0.95222
 C317 C 0.91613 0.83701 0.94468
 H318 H 0.90199 0.82881 0.95265
 O319 O 1.08099 1.11182 0.97805
 O320 O 1.10706 1.13807 0.97801
 C321 C 1.08882 1.13010 0.97037
 C322 C 1.07682 1.14185 0.95202
 C323 C 1.08414 1.16294 0.94441
 H324 H 1.09831 1.17112 0.95236
 O325 O 0.91902 1.02196 0.88803
 O326 O 0.89289 1.02193 0.86181
 C327 C 0.91113 1.02961 0.86975
 C328 C 0.92304 1.04797 0.85795
 C329 C 0.91557 1.05566 0.83694
 H330 H 0.90135 1.04775 0.82881
 O331 O 1.08124 0.97813 0.88818
 O332 O 1.10733 0.97815 0.86193
 C333 C 1.08910 0.97048 0.86990
 C334 C 1.07714 0.95214 0.85815
 C335 C 1.08451 0.94452 0.83709
 H336 H 1.09869 0.95247 0.82891
 O337 O 1.02214 0.88824 0.91904
 O338 O 1.02217 0.86199 0.89297
 C339 C 1.02979 0.86995 0.91123
 C340 C 1.04808 0.85816 0.92327
 C341 C 1.05558 0.83702 0.91603
 H342 H 1.04759 0.82882 0.90189
 O343 O 0.97809 1.11177 0.91877
 O344 O 0.97806 1.13804 0.89269
 C345 C 0.97043 1.13006 0.91095
 C346 C 0.95214 1.14182 0.92298
 C347 C 0.94451 1.16291 0.91566
 H348 H 0.95241 1.17110 0.90145
 O349 O 0.88839 1.08098 0.97813
 O350 O 0.86212 1.10705 0.97813
 C351 C 0.87010 1.08881 0.97048
 C352 C 0.85832 1.07683 0.95216
 C353 C 0.83723 1.08414 0.94458
 H354 H 0.82904 1.09830 0.95254
 O355 O 1.11205 0.91892 0.97819
 O356 O 1.13832 0.89285 0.97814
 C357 C 1.13033 0.91110 0.97050
 C358 C 1.14206 0.92311 0.95215
 C359 C 1.16312 0.91577 0.94451
 H360 H 1.17131 0.90158 0.95244
 O361 O 0.97806 1.08115 0.88795
 O362 O 0.97803 1.10727 0.86170
 C363 C 0.97039 1.08902 0.86967
 C364 C 0.95204 1.07706 0.85791
 C365 C 0.94430 1.08449 0.83689
 H366 H 0.95216 1.09873 0.82874
 O367 O 1.02216 0.91891 0.88823
 O368 O 1.02220 0.89282 0.86199
 C369 C 1.02983 0.91107 0.86995
 C370 C 1.04814 0.92306 0.85817
 C371 C 1.05578 0.91570 0.83711
 H372 H 1.04788 0.90149 0.82896
 O373 O 1.11195 0.97815 0.91894
 O374 O 1.13819 0.97817 0.89284
 C375 C 1.13023 0.97051 0.91109
 C376 C 1.14202 0.95218 0.92309
 C377 C 1.16308 0.94457 0.91571
 H378 H 1.17123 0.95251 0.90151
 O379 O 0.88843 1.02190 0.91889
 O380 O 0.86214 1.02188 0.89283
 C381 C 0.87012 1.02953 0.91107
 C382 C 0.85834 1.04782 0.92309
 C383 C 0.83725 1.05540 0.91577
 H384 H 0.82908 1.04747 0.90158
 O385 O 0.91908 1.11173 0.97810
 O386 O 0.89297 1.13796 0.97811
 C387 C 0.91122 1.13001 0.97045
 C388 C 0.92317 1.14179 0.95210
 C389 C 0.91580 1.16287 0.94452
 H390 H 0.90164 1.17103 0.95249
 O391 O 1.08133 0.88820 0.97826
 O392 O 1.10744 0.86197 0.97821
 C393 C 1.08917 0.86992 0.97060
 C394 C 1.07713 0.85815 0.95232
 C395 C 1.08438 0.83700 0.94481
 H396 H 1.09852 0.82880 0.95280
 O397 O 1.08115 1.02190 0.88818
 O398 O 1.10723 1.02197 0.86192
 C399 C 1.08896 1.02957 0.86989
 C400 C 1.07691 1.04785 0.85808
 C401 C 1.08416 1.05538 0.83693
 H402 H 1.09833 1.04743 0.82875
 O403 O 0.91920 0.97819 0.88816
 O404 O 0.89308 0.97809 0.86193
 C405 C 0.91136 0.97050 0.86989
 C406 C 0.92339 0.95221 0.85813
 C407 C 0.91613 0.94467 0.83700
 H408 H 0.90198 0.95263 0.82878
 O409 O 1.02184 1.11178 0.91874
 O410 O 1.02188 1.13805 0.89264
 C411 C 1.02950 1.13007 0.91091
 C412 C 1.04780 1.14183 0.92292
 C413 C 1.05539 1.16292 0.91558
 H414 H 1.04746 1.17109 0.90138
 O415 O 0.97839 0.88821 0.91898
 O416 O 0.97836 0.86197 0.89289
 C417 C 0.97073 0.86993 0.91115
 C418 C 0.95244 0.85815 0.92317
 C419 C 0.94491 0.83703 0.91589
 H420 H 0.95288 0.82884 0.90174
 O421 O 1.11176 1.08113 0.97808
 O422 O 1.13798 1.10723 0.97804
 C423 C 1.13003 1.08897 0.97042
 C424 C 1.14183 1.07697 0.95213
 C425 C 1.16293 1.08429 0.94458
 H426 H 1.17109 1.09846 0.95254
 O427 O 0.88854 0.91891 0.97819
 O428 O 0.86229 0.89283 0.97816
 C429 C 0.87026 0.91108 0.97053
 C430 C 0.85847 0.92311 0.95222
 C431 C 0.83734 0.91585 0.94471
 H432 H 0.82915 0.90171 0.95271
 Cu433 Cu 1.00027 0.90620 0.90624
 Cu434 Cu 1.00027 0.87479 0.87484
 Cu435 Cu 0.99995 1.09381 0.90599
 Cu436 Cu 0.99997 1.12525 0.87457
 Cu437 Cu 0.90640 1.00005 0.90610
 Cu438 Cu 0.87494 0.99998 0.87472
 Cu439 Cu 1.09395 1.00002 0.90617
 Cu440 Cu 1.12535 1.00008 0.87475
 C441 C 0.94170 0.94148 0.86848
 H442 H 0.94720 0.94700 0.88490
 C443 C 0.92690 0.92664 0.82649
 C444 C 1.05858 1.05856 0.86838
 H445 H 1.05307 1.05305 0.88482
 C446 C 1.07337 1.07339 0.82637
 C447 C 0.86878 0.94142 0.94146
 H448 H 0.88520 0.94694 0.94696
 C449 C 0.82679 0.92661 0.92668
 C450 C 1.13156 1.05863 0.94141
 H451 H 1.11516 1.05308 0.94694
 C452 C 1.17348 1.07357 0.92655
 C453 C 0.94171 0.86845 0.94149
 H454 H 0.94723 0.88486 0.94701
 C455 C 0.92688 0.82650 0.92664
 C456 C 1.05849 1.13155 0.94130
 H457 H 1.05294 1.11516 0.94687
 C458 C 1.07344 1.17343 0.92631
 C459 C 0.94143 1.05865 0.86819
 H460 H 0.94710 1.05301 0.88453
 C461 C 0.92618 1.07380 0.82644
 C462 C 1.05880 0.94143 0.86844
 H463 H 1.05321 0.94702 0.88481
 C464 C 1.07385 0.92642 0.82660
 C465 C 1.05883 0.86848 0.94157
 H466 H 1.05333 0.88490 0.94707
 C467 C 1.07360 0.82647 0.92680
 C468 C 0.94149 1.13151 0.94136
 H469 H 0.94707 1.11513 0.94691
 C470 C 0.92647 1.17340 0.92642
 C471 C 0.86863 1.05851 0.94144
 H472 H 0.88503 1.05295 0.94699
 C473 C 0.82672 1.07343 0.92651
 C474 C 1.13175 0.94147 0.94146
 H475 H 1.11538 0.94704 0.94706
 C476 C 1.17360 0.92649 0.92642
 O477 O 1.02217 0.91880 1.11189
 O478 O 1.02222 0.89272 1.13817
 C479 C 1.02982 0.91098 1.13020
 C480 C 1.04809 0.92302 1.14199
 C481 C 1.05563 0.91575 1.16312
 H482 H 1.04769 0.90158 1.17132
 O483 O 0.97840 1.08085 1.11193
 O484 O 0.97833 1.10692 1.13819
 C485 C 0.97074 1.08865 1.13023
 C486 C 0.95249 1.07659 1.14202
 C487 C 0.94502 1.08378 1.16320
 H488 H 0.95301 1.09790 1.17141
 O489 O 0.88850 1.02173 1.08117
 O490 O 0.86227 1.02175 1.10728
 C491 C 0.87022 1.02939 1.08902
 C492 C 0.85844 1.04769 1.07700
 C493 C 0.83731 1.05522 1.08427
 H494 H 0.82913 1.04725 1.09844
 O495 O 1.11199 0.97807 1.08120
 O496 O 1.13826 0.97805 1.10728
 C497 C 1.13029 0.97042 1.08903
 C498 C 1.14208 0.95214 1.07701
 C499 C 1.16318 0.94458 1.08434
 H500 H 1.17134 0.95251 1.09853
 O501 O 1.08144 0.88814 1.02204
 O502 O 1.10756 0.86193 1.02206
 C503 C 1.08931 0.86987 1.02971
 C504 C 1.07736 0.85808 1.04807
 C505 C 1.08477 0.83704 1.05574
 H506 H 1.09899 0.82891 1.04783
 O507 O 0.91914 1.11167 1.02190
 O508 O 0.89304 1.13790 1.02196
 C509 C 0.91130 1.12994 1.02958
 C510 C 0.92331 1.14169 1.04790
 C511 C 0.91602 1.16280 1.05545
 H512 H 0.90187 1.17101 1.04747
 O513 O 0.91921 0.97790 1.11188
 O514 O 0.89313 0.97785 1.13813
 C515 C 0.91137 0.97021 1.13016
 C516 C 0.92336 0.95187 1.14192
 C517 C 0.91598 0.94422 1.16298
 H518 H 0.90178 0.95213 1.17113
 O519 O 1.08130 1.02184 1.11197
 O520 O 1.10743 1.02187 1.13818
 C521 C 1.08917 1.02950 1.13024
 C522 C 1.07721 1.04783 1.14201
 C523 C 1.08463 1.05548 1.16305
 H524 H 1.09884 1.04757 1.17120
 O525 O 0.97847 0.88804 1.08114
 O526 O 0.97847 0.86177 1.10724
 C527 C 0.97083 0.86975 1.08898
 C528 C 0.95252 0.85799 1.07697
 C529 C 0.94498 0.83687 1.08425
 H530 H 0.95295 0.82866 1.09841
 O531 O 1.02205 1.11168 1.08118
 O532 O 1.02203 1.13793 1.10726
 C533 C 1.02966 1.12998 1.08899
 C534 C 1.04791 1.14180 1.07695
 C535 C 1.05542 1.16292 1.08422
 H536 H 1.04748 1.17108 1.09841
 O537 O 0.88850 0.91884 1.02197
 O538 O 0.86225 0.89276 1.02199
 C539 C 0.87021 0.91101 1.02962
 C540 C 0.85842 0.92302 1.04791
 C541 C 0.83729 0.91576 1.05542
 H542 H 0.82909 0.90162 1.04744
 O543 O 1.11174 1.08109 1.02185
 O544 O 1.13797 1.10719 1.02187
 C545 C 1.13002 1.08892 1.02951
 C546 C 1.14182 1.07689 1.04780
 C547 C 1.16297 1.08414 1.05529
 H548 H 1.17115 1.09829 1.04731
 O549 O 1.02216 1.08099 1.11197
 O550 O 1.02215 1.10708 1.13822
 C551 C 1.02981 1.08884 1.13025
 C552 C 1.04817 1.07688 1.14202
 C553 C 1.05584 1.08427 1.16306
 H554 H 1.04793 1.09847 1.17122
 O555 O 0.97842 0.91872 1.11189
 O556 O 0.97840 0.89262 1.13816
 C557 C 0.97075 0.91086 1.13017
 C558 C 0.95242 0.92283 1.14193
 C559 C 0.94478 0.91544 1.16299
 H560 H 0.95270 0.90124 1.17116
 O561 O 1.11187 1.02184 1.08109
 O562 O 1.13816 1.02187 1.10714
 C563 C 1.13015 1.02950 1.08889
 C564 C 1.14189 1.04780 1.07684
 C565 C 1.16304 1.05531 1.08406
 H566 H 1.17127 1.04731 1.09819
 O567 O 0.88848 0.97798 1.08115
 O568 O 0.86223 0.97794 1.10724
 C569 C 0.87019 0.97033 1.08898
 C570 C 0.85841 0.95205 1.07695
 C571 C 0.83728 0.94454 1.08420
 H572 H 0.82908 0.95251 1.09835
 O573 O 1.08104 1.11185 1.02184
 O574 O 1.10711 1.13811 1.02186
 C575 C 1.08887 1.13013 1.02950
 C576 C 1.07687 1.14188 1.04782
 C577 C 1.08413 1.16300 1.05536
 H578 H 1.09825 1.17123 1.04737
 O579 O 0.91925 0.88813 1.02198
 O580 O 0.89317 0.86188 1.02200
 C581 C 0.91142 0.86984 1.02964
 C582 C 0.92344 0.85804 1.04794
 C583 C 0.91617 0.83691 1.05548
 H584 H 0.90200 0.82874 1.04752
 O585 O 1.08123 0.97807 1.11190
 O586 O 1.10734 0.97804 1.13814
 C587 C 1.08908 0.97041 1.13019
 C588 C 1.07709 0.95211 1.14199
 C589 C 1.08437 0.94458 1.16313
 H590 H 1.09850 0.95256 1.17133
 O591 O 0.91924 1.02166 1.11191
 O592 O 0.89317 1.02167 1.13819
 C593 C 0.91142 1.02929 1.13022
 C594 C 0.92346 1.04754 1.14202
 C595 C 0.91626 1.05499 1.16320
 H596 H 0.90214 1.04699 1.17142
 O597 O 0.97831 1.11161 1.08120
 O598 O 0.97823 1.13785 1.10729
 C599 C 0.97062 1.12988 1.08903
 C600 C 0.95232 1.14165 1.07700
 C601 C 0.94477 1.16276 1.08428
 H602 H 0.95271 1.17093 1.09845
 O603 O 1.02225 0.88804 1.08120
 O604 O 1.02230 0.86180 1.10733
 C605 C 1.02994 0.86977 1.08907
 C606 C 1.04830 0.85804 1.07711
 C607 C 1.05597 0.83700 1.08451
 H608 H 1.04806 0.82883 1.09871
 O609 O 1.11208 0.91894 1.02198
 O610 O 1.13836 0.89289 1.02199
 C611 C 1.13038 0.91112 1.02963
 C612 C 1.14214 0.92313 1.04794
 C613 C 1.16324 0.91583 1.05553
 H614 H 1.17144 0.90168 1.04757
 O615 O 0.88843 1.08094 1.02192
 O616 O 0.86217 1.10702 1.02197
 C617 C 0.87016 1.08876 1.02960
 C618 C 0.85840 1.07674 1.04791
 C619 C 0.83728 1.08400 1.05545
 H620 H 0.82908 1.09815 1.04747
 Cu621 Cu 1.00033 0.90601 1.09391
 Cu622 Cu 1.00035 0.87459 1.12535
 Cu623 Cu 1.00023 1.09367 1.09396
 Cu624 Cu 1.00017 1.12507 1.12537
 Cu625 Cu 0.90649 0.90612 1.00009
 Cu626 Cu 0.87509 0.87471 1.00008
 Cu627 Cu 1.09411 0.90616 1.00012
 Cu628 Cu 1.12556 0.87478 1.00010
 Cu629 Cu 0.90638 1.09372 1.00001
 Cu630 Cu 0.87495 1.12511 1.00005
 Cu631 Cu 1.09376 1.09386 0.99996
 Cu632 Cu 1.12516 1.12528 0.99994
 Cu633 Cu 0.90647 0.99982 1.09391
 Cu634 Cu 0.87507 0.99980 1.12534
 Cu635 Cu 1.09398 0.99995 1.09393
 Cu636 Cu 1.12543 0.99995 1.12531
 C637 C 1.05879 0.94136 1.13167
 H638 H 1.05326 0.94688 1.11524
 C639 C 1.07364 0.92652 1.17366
 C640 C 0.94174 1.05831 1.13168
 H641 H 0.94721 1.05286 1.11522
 C642 C 0.92703 1.07299 1.17375
 C643 C 0.86874 1.05843 1.05866
 H644 H 0.88515 1.05292 1.05314
 C645 C 0.82677 1.07325 1.07351
 C646 C 1.13180 0.94144 1.05866
 H647 H 1.11540 0.94697 1.05311
 C648 C 1.17373 0.92655 1.07361
 C649 C 1.05897 0.86833 1.05873
 H650 H 1.05334 0.88468 1.05311
 C651 C 1.07409 0.82653 1.07383
 C652 C 0.94162 1.13136 1.05865
 H653 H 0.94715 1.11496 1.05312
 C654 C 0.92674 1.17330 1.07351
 C655 C 0.94173 0.94120 1.13164
 H656 H 0.94733 0.94682 1.11528
 C657 C 0.92668 0.92612 1.17348
 C658 C 1.05883 1.05851 1.13174
 H659 H 1.05321 1.05291 1.11539
 C660 C 1.07395 1.07358 1.17354
 C661 C 0.94177 0.86833 1.05866
 H662 H 0.94729 0.88474 1.05314
 C663 C 0.92693 0.82636 1.07352
 C664 C 1.05861 1.13153 1.05859
 H665 H 1.05310 1.11511 1.05307
 C666 C 1.07341 1.17349 1.07344
 C667 C 0.86874 0.94132 1.05864
 H668 H 0.88516 0.94683 1.05314
 C669 C 0.82675 0.92652 1.07344
 C670 C 1.13153 1.05857 1.05855
 H671 H 1.11509 1.05307 1.05308
 C672 C 1.17354 1.07335 1.07329
 O673 O 0.97815 0.41870 0.38801
 O674 O 0.97808 0.39260 0.36179
 C675 C 0.97046 0.41086 0.36974
 C676 C 0.95216 0.42286 0.35795
 C677 C 0.94460 0.41557 0.33684
 H678 H 0.95256 0.40140 0.32866
 O679 O 1.02189 0.58093 0.38768
 O680 O 1.02188 0.60703 0.36141
 C681 C 1.02954 0.58879 0.36939
 C682 C 1.04788 0.57682 0.35763
 C683 C 1.05552 0.58422 0.33657
 H684 H 1.04760 0.59843 0.32841
 O685 O 0.88824 0.47788 0.41866
 O686 O 0.86198 0.47786 0.39257
 C687 C 0.86995 0.47022 0.41083
 C688 C 0.85819 0.45191 0.42285
 C689 C 0.83713 0.44428 0.41548
 H690 H 0.82898 0.45218 0.40125
 O691 O 1.11172 0.52176 0.41852
 O692 O 1.13796 0.52180 0.39242
 C693 C 1.12999 0.52944 0.41067
 C694 C 1.14172 0.54779 0.42263
 C695 C 1.16270 0.55553 0.41518
 H696 H 1.17084 0.54767 0.40094
 O697 O 0.91897 0.38814 0.47812
 O698 O 0.89291 0.36187 0.47808
 C699 C 0.91117 0.36984 0.47047
 C700 C 0.92323 0.35805 0.45221
 C701 C 0.91603 0.33688 0.44477
 H702 H 0.90191 0.32867 0.45278
 O703 O 1.08092 0.61168 0.47774
 O704 O 1.10700 0.63792 0.47769
 C705 C 1.08875 0.62996 0.47007
 C706 C 1.07673 0.64174 0.45175
 C707 C 1.08400 0.66286 0.44419
 H708 H 1.09814 0.67106 0.45217
 O709 O 0.91894 0.52165 0.38788
 O710 O 0.89282 0.52170 0.36164
 C711 C 0.91108 0.52932 0.36959
 C712 C 0.92308 0.54762 0.35777
 C713 C 0.91576 0.55517 0.33665
 H714 H 0.90158 0.54722 0.32849
 O715 O 1.08100 0.47801 0.38782
 O716 O 1.10707 0.47796 0.36156
 C717 C 1.08883 0.47033 0.36954
 C718 C 1.07682 0.45201 0.35780
 C719 C 1.08410 0.44443 0.33669
 H720 H 1.09824 0.45239 0.32848
 O721 O 1.02198 0.38797 0.41870
 O722 O 1.02196 0.36172 0.39262
 C723 C 1.02963 0.36969 0.41085
 C724 C 1.04799 0.35792 0.42281
 C725 C 1.05564 0.33688 0.41543
 H726 H 1.04771 0.32873 0.40123
 O727 O 0.97809 0.61160 0.41842
 O728 O 0.97802 0.63785 0.39230
 C729 C 0.97041 0.62988 0.41057
 C730 C 0.95210 0.64164 0.42258
 C731 C 0.94447 0.66271 0.41522
 H732 H 0.95236 0.67087 0.40100
 O733 O 0.88840 0.58086 0.47785
 O734 O 0.86213 0.60693 0.47781
 C735 C 0.87010 0.58867 0.47020
 C736 C 0.85829 0.57664 0.45194
 C737 C 0.83713 0.58387 0.44448
 H738 H 0.82894 0.59800 0.45247
 O739 O 1.11185 0.41877 0.47776
 O740 O 1.13812 0.39270 0.47776
 C741 C 1.13013 0.41094 0.47010
 C742 C 1.14188 0.42295 0.45175
 C743 C 1.16296 0.41562 0.44414
 H744 H 1.17115 0.40144 0.45208
 O745 O 0.97812 0.58084 0.38774
 O746 O 0.97804 0.60693 0.36146
 C747 C 0.97044 0.58867 0.36945
 C748 C 0.95212 0.57665 0.35770
 C749 C 0.94454 0.58394 0.33658
 H750 H 0.95249 0.59809 0.32836
 O751 O 1.02191 0.41877 0.38801
 O752 O 1.02189 0.39267 0.36177
 C753 C 1.02953 0.41093 0.36971
 C754 C 1.04781 0.42294 0.35789
 C755 C 1.05535 0.41562 0.33678
 H756 H 1.04741 0.40144 0.32863
 O757 O 1.11178 0.47799 0.41851
 O758 O 1.13802 0.47796 0.39241
 C759 C 1.13006 0.47033 0.41067
 C760 C 1.14184 0.45201 0.42268
 C761 C 1.16292 0.44442 0.41534
 H762 H 1.17108 0.45237 0.40115
 O763 O 0.88829 0.52164 0.41869
 O764 O 0.86201 0.52169 0.39262
 C765 C 0.87000 0.52930 0.41087
 C766 C 0.85824 0.54759 0.42291
 C767 C 0.83708 0.55508 0.41570
 H768 H 0.82884 0.54710 0.40158
 O769 O 0.91906 0.61164 0.47777
 O770 O 0.89294 0.63786 0.47772
 C771 C 0.91119 0.62990 0.47008
 C772 C 0.92314 0.64166 0.45171
 C773 C 0.91576 0.66272 0.44408
 H774 H 0.90160 0.67090 0.45204
 O775 O 1.08121 0.38798 0.47780
 O776 O 1.10731 0.36175 0.47779
 C777 C 1.08906 0.36970 0.47015
 C778 C 1.07707 0.35793 0.45183
 C779 C 1.08446 0.33689 0.44418
 H780 H 1.09868 0.32874 0.45209
 O781 O 1.08107 0.52178 0.38771
 O782 O 1.10715 0.52179 0.36145
 C783 C 1.08891 0.52944 0.36941
 C784 C 1.07693 0.54778 0.35764
 C785 C 1.08432 0.55545 0.33658
 H786 H 1.09852 0.54755 0.32843
 O787 O 0.91897 0.47789 0.38794
 O788 O 0.89287 0.47787 0.36170
 C789 C 0.91112 0.47023 0.36966
 C790 C 0.92312 0.45192 0.35790
 C791 C 0.91583 0.44437 0.33679
 H792 H 0.90168 0.45233 0.32858
 O793 O 1.02184 0.61162 0.41844
 O794 O 1.02183 0.63788 0.39234
 C795 C 1.02946 0.62991 0.41061
 C796 C 1.04773 0.64171 0.42264
 C797 C 1.05527 0.66283 0.41534
 H798 H 1.04732 0.67101 0.40116
 O799 O 0.97822 0.38808 0.41888
 O800 O 0.97814 0.36181 0.39282
 C801 C 0.97055 0.36979 0.41109
 C802 C 0.95228 0.35803 0.42316
 C803 C 0.94482 0.33685 0.41599
 H804 H 0.95282 0.32862 0.40188
 O805 O 1.11166 0.58096 0.47770
 O806 O 1.13789 0.60705 0.47764
 C807 C 1.12992 0.58881 0.47001
 C808 C 1.14167 0.57684 0.45167
 C809 C 1.16265 0.58432 0.44394
 H810 H 1.17076 0.59857 0.45180
 O811 O 0.88817 0.41878 0.47803
 O812 O 0.86195 0.39268 0.47798
 C813 C 0.86991 0.41093 0.47034
 C814 C 0.85816 0.42290 0.45197
 C815 C 0.83711 0.41553 0.44433
 H816 H 0.82894 0.40135 0.45228
 Cu817 Cu 1.00007 0.40599 0.40601
 Cu818 Cu 1.00001 0.37457 0.37462
 Cu819 Cu 0.99999 0.59363 0.40568
 Cu820 Cu 0.99994 0.62505 0.37424
 Cu821 Cu 0.90623 0.49976 0.40591
 Cu822 Cu 0.87479 0.49979 0.37450
 Cu823 Cu 1.09378 0.49988 0.40575
 Cu824 Cu 1.12518 0.49987 0.37433
 C825 C 0.94144 0.44119 0.36824
 H826 H 0.94697 0.44673 0.38465
 C827 C 0.92656 0.42631 0.32629
 C828 C 1.05856 0.55845 0.36791
 H829 H 1.05297 0.55284 0.38428
 C830 C 1.07362 0.57355 0.32608
 C831 C 0.86845 0.44125 0.44125
 H832 H 0.88481 0.44684 0.44685
 C833 C 0.82663 0.42621 0.42621
 C834 C 1.13145 0.55843 0.44104
 H835 H 1.11514 0.55276 0.44670
 C836 C 1.17313 0.57368 0.42582
 C837 C 0.94152 0.36838 0.44144
 H838 H 0.94698 0.38484 0.44689
 C839 C 0.92682 0.32632 0.42679
 C840 C 1.05844 0.63141 0.44100
 H841 H 1.05293 0.61500 0.44653
 C842 C 1.07328 0.67337 0.42611
 C843 C 0.94141 0.55834 0.36805
 H844 H 0.94697 0.55281 0.38447
 C845 C 0.92648 0.57320 0.32609
 C846 C 1.05851 0.44129 0.36815
 H847 H 1.05299 0.44685 0.38455
 C848 C 1.07337 0.42636 0.32622
 C849 C 1.05868 0.36820 0.44117
 H850 H 1.05307 0.38455 0.44678
 C851 C 1.07375 0.32640 0.42610
 C852 C 0.94146 0.63137 0.44098
 H853 H 0.94706 0.61500 0.44658
 C854 C 0.92642 0.67321 0.42596
 C855 C 0.86860 0.55834 0.44119
 H856 H 0.88505 0.55285 0.44666
 C857 C 0.82656 0.57310 0.42649
 C858 C 1.13157 0.44129 0.44104
 H859 H 1.11519 0.44685 0.44662
 C860 C 1.17345 0.42635 0.42605
 O861 O 1.02197 0.41867 0.61159
 O862 O 1.02205 0.39257 0.63786
 C863 C 1.02967 0.41082 0.62987
 C864 C 1.04799 0.42281 0.64162
 C865 C 1.05561 0.41548 0.66271
 H866 H 1.04768 0.40130 0.67091
 O867 O 0.97823 0.58089 0.61153
 O868 O 0.97821 0.60695 0.63780
 C869 C 0.97058 0.58871 0.62983
 C870 C 0.95229 0.57669 0.64162
 C871 C 0.94477 0.58397 0.66275
 H872 H 0.95273 0.59812 0.67093
 O873 O 0.88836 0.52168 0.58086
 O874 O 0.86213 0.52175 0.60698
 C875 C 0.87009 0.52936 0.58870
 C876 C 0.85833 0.54766 0.57666
 C877 C 0.83721 0.55521 0.58392
 H878 H 0.82901 0.54724 0.59808
 O879 O 1.11187 0.47787 0.58077
 O880 O 1.13814 0.47786 0.60684
 C881 C 1.13017 0.47023 0.58859
 C882 C 1.14195 0.45194 0.57658
 C883 C 1.16306 0.44439 0.58388
 H884 H 1.17124 0.45233 0.59805
 O885 O 1.08114 0.38806 0.52158
 O886 O 1.10723 0.36182 0.52164
 C887 C 1.08897 0.36978 0.52926
 C888 C 1.07695 0.35799 0.54756
 C889 C 1.08421 0.33685 0.55509
 H890 H 1.09836 0.32866 0.54712
 O891 O 0.91912 0.61165 0.52156
 O892 O 0.89301 0.63788 0.52157
 C893 C 0.91127 0.62993 0.52921
 C894 C 0.92328 0.64171 0.54751
 C895 C 0.91599 0.66283 0.55503
 H896 H 0.90184 0.67102 0.54705
 O897 O 0.91906 0.47789 0.61163
 O898 O 0.89300 0.47790 0.63791
 C899 C 0.91124 0.47024 0.62993
 C900 C 0.92323 0.45192 0.64171
 C901 C 0.91589 0.44431 0.66280
 H902 H 0.90171 0.45225 0.67096
 O903 O 1.08112 0.52160 0.61151
 O904 O 1.10723 0.52164 0.63775
 C905 C 1.08896 0.52925 0.62979
 C906 C 1.07694 0.54753 0.64159
 C907 C 1.08418 0.55499 0.66276
 H908 H 1.09830 0.54699 0.67097
 O909 O 0.97814 0.38795 0.58096
 O910 O 0.97816 0.36170 0.60707
 C911 C 0.97048 0.36967 0.58883
 C912 C 0.95211 0.35794 0.57690
 C913 C 0.94444 0.33691 0.58433
 H914 H 0.95237 0.32874 0.59853
 O915 O 1.02200 0.61165 0.58083
 O916 O 1.02204 0.63787 0.60694
 C917 C 1.02966 0.62992 0.58868
 C918 C 1.04797 0.64169 0.57668
 C919 C 1.05562 0.66274 0.58404
 H920 H 1.04773 0.67089 0.59826
 O921 O 0.88815 0.41882 0.52182
 O922 O 0.86191 0.39273 0.52184
 C923 C 0.86987 0.41098 0.52948
 C924 C 0.85810 0.42297 0.54779
 C925 C 0.83703 0.41565 0.55542
 H926 H 0.82884 0.40148 0.54748
 O927 O 1.11167 0.58089 0.52149
 O928 O 1.13793 0.60696 0.52148
 C929 C 1.12997 0.58870 0.52912
 C930 C 1.14177 0.57667 0.54741
 C931 C 1.16290 0.58394 0.55492
 H932 H 1.17108 0.59809 0.54694
 O933 O 1.02198 0.58085 0.61151
 O934 O 1.02202 0.60689 0.63779
 C935 C 1.02964 0.58865 0.62981
 C936 C 1.04791 0.57659 0.64159
 C937 C 1.05540 0.58379 0.66276
 H938 H 1.04742 0.59792 0.67098
 O939 O 0.97821 0.41869 0.61164
 O940 O 0.97823 0.39260 0.63792
 C941 C 0.97058 0.41085 0.62995
 C942 C 0.95227 0.42285 0.64173
 C943 C 0.94466 0.41550 0.66281
 H944 H 0.95259 0.40131 0.67099
 O945 O 1.11179 0.52164 0.58071
 O946 O 1.13806 0.52168 0.60678
 C947 C 1.13007 0.52930 0.58852
 C948 C 1.14182 0.54761 0.57648
 C949 C 1.16295 0.55514 0.58373
 H950 H 1.17117 0.54717 0.59788
 O951 O 0.88824 0.47792 0.58098
 O952 O 0.86202 0.47793 0.60710
 C953 C 0.86996 0.47029 0.58884
 C954 C 0.85816 0.45199 0.57686
 C955 C 0.83708 0.44440 0.58422
 H956 H 0.82894 0.45233 0.59842
 O957 O 1.08102 0.61169 0.52154
 O958 O 1.10713 0.63791 0.52154
 C959 C 1.08889 0.62996 0.52920
 C960 C 1.07695 0.64171 0.54756
 C961 C 1.08434 0.66275 0.55519
 H962 H 1.09852 0.67091 0.54724
 O963 O 0.91884 0.38806 0.52190
 O964 O 0.89276 0.36182 0.52192
 C965 C 0.91100 0.36978 0.52957
 C966 C 0.92299 0.35800 0.54791
 C967 C 0.91558 0.33698 0.55560
 H968 H 0.90134 0.32885 0.54772
 O969 O 1.08115 0.47784 0.61150
 O970 O 1.10726 0.47781 0.63773
 C971 C 1.08901 0.47018 0.62978
 C972 C 1.07703 0.45186 0.64158
 C973 C 1.08438 0.44426 0.66267
 H974 H 1.09856 0.45220 0.67083
 O975 O 0.91906 0.52166 0.61163
 O976 O 0.89300 0.52172 0.63790
 C977 C 0.91125 0.52933 0.62991
 C978 C 0.92327 0.54763 0.64167
 C979 C 0.91601 0.55518 0.66279
 H980 H 0.90186 0.54721 0.67101
 O981 O 0.97824 0.61163 0.58079
 O982 O 0.97822 0.63786 0.60688
 C983 C 0.97059 0.62991 0.58862
 C984 C 0.95230 0.64170 0.57659
 C985 C 0.94476 0.66282 0.58385
 H986 H 0.95271 0.67100 0.59802
 O987 O 1.02191 0.38800 0.58081
 O988 O 1.02200 0.36174 0.60691
 C989 C 1.02959 0.36972 0.58864
 C990 C 1.04789 0.35796 0.57660
 C991 C 1.05541 0.33682 0.58386
 H992 H 1.04743 0.32860 0.59800
 O993 O 1.11191 0.41874 0.52155
 O994 O 1.13816 0.39266 0.52161
 C995 C 1.13019 0.41091 0.52922
 C996 C 1.14196 0.42292 0.54752
 C997 C 1.16308 0.41563 0.55508
 H998 H 1.17127 0.40148 0.54711
 O999 O 0.88842 0.58091 0.52163
 O1000 O 0.86215 0.60698 0.52164
 C1001 C 0.87013 0.58874 0.52928
 C1002 C 0.85836 0.57672 0.54759
 C1003 C 0.83723 0.58400 0.55511
 H1004 H 0.82905 0.59816 0.54713
 Cu1005 Cu 1.00005 0.40594 0.59363
 Cu1006 Cu 1.00012 0.37452 0.62507
 Cu1007 Cu 1.00011 0.59365 0.59355
 Cu1008 Cu 1.00012 0.62502 0.62499
 Cu1009 Cu 0.90614 0.40607 0.49997
 Cu1010 Cu 0.87475 0.37465 0.49995
 Cu1011 Cu 1.09391 0.40600 0.49967
 Cu1012 Cu 1.12534 0.37460 0.49971
 Cu1013 Cu 0.90637 0.59366 0.49970
 Cu1014 Cu 0.87493 0.62505 0.49969
 Cu1015 Cu 1.09370 0.59370 0.49962
 Cu1016 Cu 1.12512 0.62509 0.49958
 Cu1017 Cu 0.90629 0.49978 0.59366
 Cu1018 Cu 0.87491 0.49983 0.62511
 Cu1019 Cu 1.09387 0.49974 0.59351
 Cu1020 Cu 1.12531 0.49975 0.62491
 C1021 C 1.05868 0.44116 0.63130
 H1022 H 1.05310 0.44672 0.61491
 C1023 C 1.07368 0.42620 0.67320
 C1024 C 0.94157 0.55837 0.63132
 H1025 H 0.94708 0.55284 0.61490
 C1026 C 0.92675 0.57322 0.67330
 C1027 C 0.86866 0.55840 0.55834
 H1028 H 0.88507 0.55287 0.55283
 C1029 C 0.82669 0.57325 0.57315
 C1030 C 1.13165 0.44124 0.55824
 H1031 H 1.11524 0.44677 0.55271
 C1032 C 1.17359 0.42636 0.57313
 C1033 C 1.05863 0.36830 0.55829
 H1034 H 1.05312 0.38473 0.55279
 C1035 C 1.07345 0.32630 0.57311
 C1036 C 0.94159 0.63139 0.55826
 H1037 H 0.94711 0.61498 0.55274
 C1038 C 0.92673 0.67335 0.57308
 C1039 C 0.94158 0.44121 0.63142
 H1040 H 0.94715 0.44679 0.61504
 C1041 C 0.92659 0.42623 0.67331
 C1042 C 1.05866 0.55831 0.63125
 H1043 H 1.05317 0.55285 0.61480
 C1044 C 1.07341 0.57300 0.67331
 C1045 C 0.94140 0.36824 0.55854
 H1046 H 0.94702 0.38458 0.55290
 C1047 C 0.92629 0.32647 0.57369
 C1048 C 1.05861 0.63143 0.55828
 H1049 H 1.05300 0.61507 0.55269
 C1050 C 1.07369 0.67324 0.57330
 C1051 C 0.86841 0.44130 0.55849
 H1052 H 0.88479 0.44686 0.55291
 C1053 C 0.82655 0.42636 0.57351
 C1054 C 1.13147 0.55835 0.55816
 H1055 H 1.11505 0.55283 0.55266
 C1056 C 1.17345 0.57318 0.57295
 O1057 O 0.58099 1.02241 0.61176
 O1058 O 0.60706 1.02238 0.63804
 C1059 C 0.58882 1.03004 0.63005
 C1060 C 0.57685 1.04837 0.64182
 C1061 C 0.58426 1.05602 0.66285
 H1062 H 0.59848 1.04811 0.67100
 O1063 O 0.41873 0.97858 0.61182
 O1064 O 0.39267 0.97859 0.63809
 C1065 C 0.41091 0.97094 0.63012
 C1066 C 0.42292 0.95263 0.64192
 C1067 C 0.41561 0.94505 0.66303
 H1068 H 0.40145 0.95300 0.67121
 O1069 O 0.52177 1.11225 0.58099
 O1070 O 0.52177 1.13850 0.60707
 C1071 C 0.52941 1.13054 0.58882
 C1072 C 0.54772 1.14231 0.57681
 C1073 C 0.55531 1.16339 0.58412
 H1074 H 0.54738 1.17157 0.59829
 O1075 O 0.47793 0.88876 0.58108
 O1076 O 0.47793 0.86250 0.60719
 C1077 C 0.47029 0.87047 0.58893
 C1078 C 0.45200 0.85869 0.57692
 C1079 C 0.44450 0.83755 0.58420
 H1080 H 0.45249 0.82935 0.59835
 O1081 O 0.61175 1.08160 0.52191
 O1082 O 0.63800 1.10768 0.52187
 C1083 C 0.63003 1.08946 0.52956
 C1084 C 0.64179 1.07751 0.54795
 C1085 C 0.66278 1.08495 0.55568
 H1086 H 0.67091 1.09919 0.54779
 O1087 O 0.38789 0.91940 0.52193
 O1088 O 0.36166 0.89331 0.52200
 C1089 C 0.36963 0.91155 0.52962
 C1090 C 0.35789 0.92353 0.54797
 C1091 C 0.33686 0.91615 0.55563
 H1092 H 0.32870 0.90195 0.54772
 O1093 O 0.47801 1.08148 0.61172
 O1094 O 0.47797 1.10757 0.63796
 C1095 C 0.47034 1.08932 0.62999
 C1096 C 0.45202 1.07732 0.64177
 C1097 C 0.44447 1.08463 0.66288
 H1098 H 0.45245 1.09877 0.67106
 O1099 O 0.52169 0.91949 0.61179
 O1100 O 0.52173 0.89341 0.63807
 C1101 C 0.52935 0.91166 0.63009
 C1102 C 0.54765 0.92367 0.64186
 C1103 C 0.55516 0.91642 0.66301
 H1104 H 0.54717 0.90228 0.67123
 O1105 O 0.61170 0.97866 0.58102
 O1106 O 0.63793 0.97857 0.60713
 C1107 C 0.62997 0.97098 0.58886
 C1108 C 0.64175 0.95270 0.57683
 C1109 C 0.66289 0.94517 0.58409
 H1110 H 0.67109 0.95314 0.59823
 O1111 O 0.38800 1.02230 0.58100
 O1112 O 0.36176 1.02237 0.60710
 C1113 C 0.36972 1.02997 0.58882
 C1114 C 0.35794 1.04825 0.57676
 C1115 C 0.33680 1.05577 0.58399
 H1116 H 0.32860 1.04781 0.59815
 O1117 O 0.41874 1.11221 0.52176
 O1118 O 0.39265 1.13846 0.52179
 C1119 C 0.41090 1.13048 0.52943
 C1120 C 0.42291 1.14224 0.54774
 C1121 C 0.41559 1.16333 0.55533
 H1122 H 0.40141 1.17151 0.54739
 O1123 O 0.58093 0.88876 0.52193
 O1124 O 0.60700 0.86249 0.52200
 C1125 C 0.58875 0.87047 0.52962
 C1126 C 0.57674 0.85871 0.54793
 C1127 C 0.58402 0.83759 0.55549
 H1128 H 0.59817 0.82940 0.54753
 O1129 O 0.41872 1.02234 0.61175
 O1130 O 0.39266 1.02241 0.63802
 C1131 C 0.41090 1.03002 0.63003
 C1132 C 0.42293 1.04833 0.64178
 C1133 C 0.41565 1.05590 0.66290
 H1134 H 0.40148 1.04797 0.67109
 O1135 O 0.58096 0.97864 0.61175
 O1136 O 0.60702 0.97856 0.63803
 C1137 C 0.58877 0.97096 0.63005
 C1138 C 0.57672 0.95268 0.64184
 C1139 C 0.58397 0.94516 0.66300
 H1140 H 0.59811 0.95312 0.67120
 O1141 O 0.52169 0.88874 0.58111
 O1142 O 0.52175 0.86249 0.60723
 C1143 C 0.52937 0.87046 0.58896
 C1144 C 0.54767 0.85869 0.57696
 C1145 C 0.55522 0.83757 0.58425
 H1146 H 0.54725 0.82937 0.59841
 O1147 O 0.47800 1.11221 0.58096
 O1148 O 0.47794 1.13846 0.60704
 C1149 C 0.47032 1.13049 0.58879
 C1150 C 0.45200 1.14225 0.57678
 C1151 C 0.44441 1.16333 0.58409
 H1152 H 0.45237 1.17151 0.59825
 O1153 O 0.38802 1.08149 0.52172
 O1154 O 0.36177 1.10757 0.52174
 C1155 C 0.36973 1.08931 0.52937
 C1156 C 0.35795 1.07728 0.54766
 C1157 C 0.33681 1.08454 0.55516
 H1158 H 0.32861 1.09868 0.54716
 O1159 O 0.61166 0.91947 0.52184
 O1160 O 0.63789 0.89337 0.52191
 C1161 C 0.62994 0.91163 0.52951
 C1162 C 0.64174 0.92366 0.54778
 C1163 C 0.66288 0.91640 0.55530
 H1164 H 0.67107 0.90226 0.54733
 O1165 O 0.47792 0.91943 0.61185
 O1166 O 0.47792 0.89334 0.63812
 C1167 C 0.47027 0.91159 0.63015
 C1168 C 0.45197 0.92359 0.64193
 C1169 C 0.44440 0.91627 0.66304
 H1170 H 0.45235 0.90209 0.67123
 O1171 O 0.52179 1.08154 0.61178
 O1172 O 0.52180 1.10763 0.63801
 C1173 C 0.52945 1.08939 0.63006
 C1174 C 0.54780 1.07742 0.64183
 C1175 C 0.55547 1.08481 0.66287
 H1176 H 0.54758 1.09902 0.67102
 O1177 O 0.38795 0.97854 0.58112
 O1178 O 0.36173 0.97855 0.60724
 C1179 C 0.36968 0.97089 0.58899
 C1180 C 0.35791 0.95256 0.57703
 C1181 C 0.33687 0.94490 0.58443
 H1182 H 0.32873 0.95280 0.59865
 O1183 O 0.61176 1.02243 0.58109
 O1184 O 0.63798 1.02240 0.60721
 C1185 C 0.63002 1.03008 0.58896
 C1186 C 0.64178 1.04844 0.57701
 C1187 C 0.66277 1.05615 0.58448
 H1188 H 0.67090 1.04825 0.59872
 O1189 O 0.41868 0.88874 0.52191
 O1190 O 0.39261 0.86248 0.52199
 C1191 C 0.41087 0.87045 0.52959
 C1192 C 0.42292 0.85868 0.54789
 C1193 C 0.41568 0.83755 0.55543
 H1194 H 0.40154 0.82934 0.54747
 O1195 O 0.58093 1.11222 0.52183
 O1196 O 0.60701 1.13847 0.52179
 C1197 C 0.58877 1.13051 0.52945
 C1198 C 0.57677 1.14229 0.54776
 C1199 C 0.58410 1.16337 0.55533
 H1200 H 0.59828 1.17153 0.54739
 Cu1201 Cu 0.59374 1.00054 0.59378
 Cu1202 Cu 0.62513 1.00046 0.62524
 Cu1203 Cu 0.40596 1.00044 0.59381
 Cu1204 Cu 0.37458 1.00049 0.62525
 Cu1205 Cu 0.49990 1.09426 0.59375
 Cu1206 Cu 0.49986 1.12567 0.62515
 Cu1207 Cu 0.49980 0.90672 0.59384
 Cu1208 Cu 0.49983 0.87530 0.62529
 C1209 C 0.55846 1.05905 0.63155
 H1210 H 0.55284 1.05344 0.61520
 C1211 C 0.57359 1.07412 0.67334
 C1212 C 0.44125 0.94192 0.63161
 H1213 H 0.44679 0.94747 0.61521
 C1214 C 0.42635 0.92699 0.67355
 C1215 C 0.55843 1.13201 0.55847
 H1216 H 0.55287 1.11562 0.55293
 C1217 C 0.57338 1.17389 0.57339
 C1218 C 0.44123 0.86901 0.55861
 H1219 H 0.44672 0.88543 0.55308
 C1220 C 0.42647 0.82702 0.57346
 C1221 C 0.63154 1.05910 0.55859
 H1222 H 0.61523 1.05344 0.55292
 C1223 C 0.67324 1.07428 0.57382
 C1224 C 0.36817 0.94189 0.55864
 H1225 H 0.38452 0.94749 0.55302
 C1226 C 0.32638 0.92681 0.57374
 C1227 C 0.44127 1.05902 0.63146
 H1228 H 0.44680 1.05347 0.61506
 C1229 C 0.42641 1.07393 0.67341
 C1230 C 0.55841 0.94196 0.63151
 H1231 H 0.55291 0.94747 0.61507
 C1232 C 0.57319 0.92715 0.67355
 C1233 C 0.63142 0.94197 0.55852
 H1234 H 0.61500 0.94748 0.55301
 C1235 C 0.67342 0.92715 0.57333
 C1236 C 0.36827 1.05898 0.55843
 H1237 H 0.38469 1.05347 0.55294
 C1238 C 0.32627 1.07379 0.57319
 C1239 C 0.44127 1.13195 0.55845
 H1240 H 0.44683 1.11556 0.55289
 C1241 C 0.42634 1.17384 0.57338
 C1242 C 0.55841 0.86902 0.55864
 H1243 H 0.55289 0.88543 0.55310
 C1244 C 0.57326 0.82705 0.57352
 O1245 O 0.58070 0.97846 0.38819
 O1246 O 0.60675 0.97845 0.36190
 C1247 C 0.58851 0.97082 0.36990
 C1248 C 0.57650 0.95251 0.35814
 C1249 C 0.58377 0.94496 0.33702
 H1250 H 0.59791 0.95292 0.32881
 O1251 O 0.41879 1.02229 0.38815
 O1252 O 0.39274 1.02234 0.36186
 C1253 C 0.41099 1.02995 0.36985
 C1254 C 0.42301 1.04825 0.35807
 C1255 C 0.41576 1.05577 0.33692
 H1256 H 0.40164 1.04778 0.32870
 O1257 O 0.47796 1.11234 0.41886
 O1258 O 0.47792 1.13857 0.39272
 C1259 C 0.47029 1.13061 0.41099
 C1260 C 0.45198 1.14239 0.42299
 C1261 C 0.44440 1.16348 0.41566
 H1262 H 0.45235 1.17167 0.40148
 O1263 O 0.52156 0.88855 0.41907
 O1264 O 0.52160 0.86229 0.39300
 C1265 C 0.52922 0.87027 0.41125
 C1266 C 0.54753 0.85851 0.42329
 C1267 C 0.55505 0.83736 0.41607
 H1268 H 0.54705 0.82913 0.40196
 O1269 O 0.61167 0.91935 0.47806
 O1270 O 0.63790 0.89324 0.47807
 C1271 C 0.62993 0.91149 0.47040
 C1272 C 0.64169 0.92346 0.45205
 C1273 C 0.66277 0.91614 0.44445
 H1274 H 0.67096 0.90197 0.45240
 O1275 O 0.38802 1.08157 0.47793
 O1276 O 0.36178 1.10766 0.47789
 C1277 C 0.36974 1.08942 0.47025
 C1278 C 0.35798 1.07744 0.45191
 C1279 C 0.33692 1.08481 0.44427
 H1280 H 0.32875 1.09900 0.45218
 O1281 O 0.52168 1.08156 0.38816
 O1282 O 0.52171 1.10763 0.36186
 C1283 C 0.52933 1.08937 0.36985
 C1284 C 0.54760 1.07734 0.35807
 C1285 C 0.55516 1.08464 0.33695
 H1286 H 0.54723 1.09882 0.32876
 O1287 O 0.47779 0.91927 0.38828
 O1288 O 0.47778 0.89317 0.36205
 C1289 C 0.47015 0.91143 0.37000
 C1290 C 0.45185 0.92344 0.35819
 C1291 C 0.44428 0.91610 0.33710
 H1292 H 0.45222 0.90191 0.32895
 O1293 O 0.61143 1.02219 0.41893
 O1294 O 0.63766 1.02223 0.39281
 C1295 C 0.62971 1.02983 0.41109
 C1296 C 0.64153 1.04808 0.42312
 C1297 C 0.66270 1.05550 0.41589
 H1298 H 0.67088 1.04749 0.40175
 O1299 O 0.38797 0.97858 0.41889
 O1300 O 0.36175 0.97858 0.39276
 C1301 C 0.36969 0.97095 0.41104
 C1302 C 0.35789 0.95267 0.42307
 C1303 C 0.33678 0.94513 0.41576
 H1304 H 0.32861 0.95310 0.40158
 O1305 O 0.58099 1.11225 0.47804
 O1306 O 0.60709 1.13847 0.47794
 C1307 C 0.58883 1.13051 0.47033
 C1308 C 0.57682 1.14228 0.45200
 C1309 C 0.58416 1.16335 0.44436
 H1310 H 0.59835 1.17151 0.45228
 O1311 O 0.41856 0.88864 0.47813
 O1312 O 0.39247 0.86241 0.47815
 C1313 C 0.41072 0.87036 0.47050
 C1314 C 0.42271 0.85857 0.45219
 C1315 C 0.41536 0.83749 0.44460
 H1316 H 0.40116 0.82935 0.45253
 O1317 O 0.41868 0.97852 0.38814
 O1318 O 0.39262 0.97851 0.36185
 C1319 C 0.41085 0.97086 0.36985
 C1320 C 0.42284 0.95252 0.35811
 C1321 C 0.41552 0.94492 0.33702
 H1322 H 0.40137 0.95287 0.32881
 O1323 O 0.58076 1.02224 0.38813
 O1324 O 0.60682 1.02228 0.36185
 C1325 C 0.58859 1.02991 0.36983
 C1326 C 0.57659 1.04824 0.35806
 C1327 C 0.58389 1.05580 0.33694
 H1328 H 0.59804 1.04783 0.32875
 O1329 O 0.47779 0.88853 0.41903
 O1330 O 0.47777 0.86228 0.39295
 C1331 C 0.47013 0.87025 0.41119
 C1332 C 0.45179 0.85851 0.42318
 C1333 C 0.44418 0.83744 0.41585
 H1334 H 0.45212 0.82925 0.40169
 O1335 O 0.52173 1.11228 0.41887
 O1336 O 0.52175 1.13851 0.39273
 C1337 C 0.52939 1.13055 0.41100
 C1338 C 0.54773 1.14230 0.42297
 C1339 C 0.55534 1.16337 0.41560
 H1340 H 0.54739 1.17155 0.40141
 O1341 O 0.38790 0.91944 0.47813
 O1342 O 0.36164 0.89337 0.47814
 C1343 C 0.36961 0.91161 0.47049
 C1344 C 0.35785 0.92363 0.45216
 C1345 C 0.33674 0.91636 0.44459
 H1346 H 0.32854 0.90220 0.45256
 O1347 O 0.61160 1.08140 0.47812
 O1348 O 0.63787 1.10746 0.47802
 C1349 C 0.62988 1.08920 0.47044
 C1350 C 0.64163 1.07712 0.45216
 C1351 C 0.66279 1.08428 0.44466
 H1352 H 0.67105 1.09839 0.45264
 O1353 O 0.52155 0.91926 0.38829
 O1354 O 0.52159 0.89317 0.36206
 C1355 C 0.52920 0.91143 0.37000
 C1356 C 0.54748 0.92345 0.35820
 C1357 C 0.55501 0.91616 0.33708
 H1358 H 0.54706 0.90199 0.32891
 O1359 O 0.47793 1.08156 0.38819
 O1360 O 0.47790 1.10762 0.36189
 C1361 C 0.47028 1.08937 0.36988
 C1362 C 0.45201 1.07734 0.35809
 C1363 C 0.44449 1.08460 0.33694
 H1364 H 0.45244 1.09876 0.32874
 O1365 O 0.38799 1.02235 0.41880
 O1366 O 0.36178 1.02241 0.39267
 C1367 C 0.36974 1.03004 0.41093
 C1368 C 0.35798 1.04838 0.42289
 C1369 C 0.33692 1.05601 0.41551
 H1370 H 0.32876 1.04808 0.40132
 O1371 O 0.61154 0.97844 0.41881
 O1372 O 0.63775 0.97842 0.39268
 C1373 C 0.62982 0.97079 0.41095
 C1374 C 0.64162 0.95249 0.42295
 C1375 C 0.66271 0.94491 0.41561
 H1376 H 0.67085 0.95285 0.40141
 O1377 O 0.58088 0.88870 0.47815
 O1378 O 0.60695 0.86242 0.47817
 C1379 C 0.58869 0.87039 0.47054
 C1380 C 0.57664 0.85858 0.45229
 C1381 C 0.58388 0.83742 0.44482
 H1382 H 0.59804 0.82924 0.45280
 O1383 O 0.41875 1.11228 0.47798
 O1384 O 0.39266 1.13853 0.47795
 C1385 C 0.41092 1.13057 0.47032
 C1386 C 0.42293 1.14237 0.45202
 C1387 C 0.41561 1.16346 0.44444
 H1388 H 0.40143 1.17163 0.45237
 Cu1389 Cu 0.59349 1.00033 0.40613
 Cu1390 Cu 0.62487 1.00035 0.37467
 Cu1391 Cu 0.40597 1.00043 0.40611
 Cu1392 Cu 0.37459 1.00046 0.37465
 Cu1393 Cu 0.59371 1.09426 0.49998
 Cu1394 Cu 0.62512 1.12565 0.49989
 Cu1395 Cu 0.59368 0.90669 0.49999
 Cu1396 Cu 0.62507 0.87525 0.50005
 Cu1397 Cu 0.40599 1.09427 0.49984
 Cu1398 Cu 0.37458 1.12569 0.49985
 Cu1399 Cu 0.40587 0.90667 0.50002
 Cu1400 Cu 0.37446 0.87526 0.50007
 Cu1401 Cu 0.49982 1.09433 0.40614
 Cu1402 Cu 0.49982 1.12571 0.37467
 Cu1403 Cu 0.49967 0.90651 0.40628
 Cu1404 Cu 0.49969 0.87509 0.37489
 C1405 C 0.55819 0.94178 0.36848
 H1406 H 0.55267 0.94732 0.38490
 C1407 C 0.57303 0.92691 0.32652
 C1408 C 0.44129 1.05901 0.36841
 H1409 H 0.44680 1.05350 0.38485
 C1410 C 0.42649 1.07381 0.32638
 C1411 C 0.44127 1.13208 0.44133
 H1412 H 0.44683 1.11568 0.44689
 C1413 C 0.42634 1.17399 0.42638
 C1414 C 0.55831 0.86887 0.44155
 H1415 H 0.55281 0.88531 0.44703
 C1416 C 0.57309 0.82685 0.42684
 C1417 C 0.63137 0.94179 0.44133
 H1418 H 0.61498 0.94734 0.44690
 C1419 C 0.67325 0.92686 0.42635
 C1420 C 0.36826 1.05908 0.44124
 H1421 H 0.38463 1.05349 0.44684
 C1422 C 0.32643 1.07410 0.42619
 C1423 C 0.55829 1.05898 0.36838
 H1424 H 0.55275 1.05344 0.38479
 C1425 C 0.57318 1.07388 0.32642
 C1426 C 0.44116 0.94180 0.36845
 H1427 H 0.44671 0.94736 0.38484
 C1428 C 0.42624 0.92683 0.32655
 C1429 C 0.63124 1.05886 0.44142
 H1430 H 0.61479 1.05342 0.44691
 C1431 C 0.67329 1.07347 0.42665
 C1432 C 0.36818 0.94193 0.44142
 H1433 H 0.38459 0.94744 0.44695
 C1434 C 0.32624 0.92710 0.42652
 C1435 C 0.55845 1.13200 0.44132
 H1436 H 0.55289 1.11563 0.44692
 C1437 C 0.57343 1.17386 0.42628
 C1438 C 0.44108 0.86882 0.44151
 H1439 H 0.44666 0.88520 0.44707
 C1440 C 0.42608 0.82696 0.42656
 O1441 O 0.47809 0.41870 0.88847
 O1442 O 0.47805 0.39263 0.86221
 C1443 C 0.47044 0.41089 0.87017
 C1444 C 0.45216 0.42292 0.85838
 C1445 C 0.44462 0.41566 0.83725
 H1446 H 0.45258 0.40150 0.82906
 O1447 O 0.52183 0.58094 0.88853
 O1448 O 0.52188 0.60705 0.86227
 C1449 C 0.52951 0.58879 0.87025
 C1450 C 0.54783 0.57681 0.85849
 C1451 C 0.55554 0.58426 0.83748
 H1452 H 0.54768 0.59852 0.82935
 O1453 O 0.38824 0.47792 0.91915
 O1454 O 0.36200 0.47794 0.89304
 C1455 C 0.36995 0.47029 0.91131
 C1456 C 0.35816 0.45200 0.92331
 C1457 C 0.33707 0.44444 0.91596
 H1458 H 0.32892 0.45240 0.90177
 O1459 O 0.61173 0.52157 0.91917
 O1460 O 0.63796 0.52162 0.89306
 C1461 C 0.63001 0.52923 0.91133
 C1462 C 0.64179 0.54751 0.92335
 C1463 C 0.66290 0.55505 0.91606
 H1464 H 0.67109 0.54710 0.90190
 O1465 O 0.41887 0.38804 0.97837
 O1466 O 0.39278 0.36181 0.97838
 C1467 C 0.41102 0.36976 0.97073
 C1468 C 0.42301 0.35798 0.95242
 C1469 C 0.41567 0.33690 0.94484
 H1470 H 0.40149 0.32875 0.95279
 O1471 O 0.58107 0.61149 0.97837
 O1472 O 0.60716 0.63772 0.97834
 C1473 C 0.58890 0.62978 0.97072
 C1474 C 0.57687 0.64160 0.95244
 C1475 C 0.58415 0.66272 0.94491
 H1476 H 0.59832 0.67089 0.95286
 O1477 O 0.41900 0.52169 0.88844
 O1478 O 0.39290 0.52178 0.86219
 C1479 C 0.41116 0.52938 0.87016
 C1480 C 0.42315 0.54771 0.85839
 C1481 C 0.41581 0.55531 0.83730
 H1482 H 0.40164 0.54736 0.82912
 O1483 O 0.58097 0.47786 0.88842
 O1484 O 0.60703 0.47787 0.86214
 C1485 C 0.58880 0.47022 0.87012
 C1486 C 0.57680 0.45192 0.85835
 C1487 C 0.58411 0.44435 0.83725
 H1488 H 0.59827 0.45230 0.82907
 O1489 O 0.52184 0.38795 0.91923
 O1490 O 0.52185 0.36171 0.89314
 C1491 C 0.52949 0.36967 0.91139
 C1492 C 0.54781 0.35789 0.92340
 C1493 C 0.55537 0.33679 0.91609
 H1494 H 0.54741 0.32862 0.90193
 O1495 O 0.47804 0.61168 0.91921
 O1496 O 0.47802 0.63793 0.89309
 C1497 C 0.47038 0.62996 0.91135
 C1498 C 0.45205 0.64172 0.92334
 C1499 C 0.44445 0.66281 0.91599
 H1500 H 0.45238 0.67099 0.90181
 O1501 O 0.38826 0.58085 0.97845
 O1502 O 0.36199 0.60691 0.97839
 C1503 C 0.36997 0.58866 0.97078
 C1504 C 0.35821 0.57663 0.95249
 C1505 C 0.33705 0.58385 0.94499
 H1506 H 0.32883 0.59796 0.95299
 O1507 O 0.61180 0.41865 0.97835
 O1508 O 0.63803 0.39254 0.97835
 C1509 C 0.63007 0.41080 0.97069
 C1510 C 0.64183 0.42279 0.95235
 C1511 C 0.66290 0.41545 0.94474
 H1512 H 0.67108 0.40127 0.95268
 O1513 O 0.47808 0.58095 0.88849
 O1514 O 0.47806 0.60705 0.86221
 C1515 C 0.47043 0.58879 0.87018
 C1516 C 0.45215 0.57678 0.85840
 C1517 C 0.44454 0.58412 0.83730
 H1518 H 0.45246 0.59832 0.82913
 O1519 O 0.52184 0.41866 0.88845
 O1520 O 0.52186 0.39259 0.86220
 C1521 C 0.52949 0.41083 0.87016
 C1522 C 0.54779 0.42285 0.85837
 C1523 C 0.55537 0.41554 0.83727
 H1524 H 0.54744 0.40136 0.82910
 O1525 O 0.61173 0.47781 0.91914
 O1526 O 0.63795 0.47781 0.89302
 C1527 C 0.63000 0.47016 0.91128
 C1528 C 0.64179 0.45184 0.92328
 C1529 C 0.66286 0.44424 0.91592
 H1530 H 0.67101 0.45218 0.90173
 O1531 O 0.38831 0.52168 0.91921
 O1532 O 0.36205 0.52175 0.89311
 C1533 C 0.37002 0.52935 0.91138
 C1534 C 0.35824 0.54762 0.92342
 C1535 C 0.33708 0.55510 0.91619
 H1536 H 0.32888 0.54712 0.90205
 O1537 O 0.41888 0.61166 0.97841
 O1538 O 0.39278 0.63789 0.97835
 C1539 C 0.41103 0.62993 0.97073
 C1540 C 0.42301 0.64170 0.95239
 C1541 C 0.41567 0.66279 0.94479
 H1542 H 0.40149 0.67095 0.95273
 O1543 O 0.58107 0.38793 0.97838
 O1544 O 0.60714 0.36167 0.97838
 C1545 C 0.58890 0.36964 0.97074
 C1546 C 0.57688 0.35788 0.95244
 C1547 C 0.58418 0.33678 0.94486
 H1548 H 0.59836 0.32859 0.95281
 O1549 O 0.58097 0.52164 0.88847
 O1550 O 0.60704 0.52170 0.86221
 C1551 C 0.58880 0.52934 0.87020
 C1552 C 0.57684 0.54771 0.85846
 C1553 C 0.58427 0.55544 0.83745
 H1554 H 0.59850 0.54754 0.82931
 O1555 O 0.41897 0.47793 0.88842
 O1556 O 0.39289 0.47795 0.86215
 C1557 C 0.41113 0.47030 0.87013
 C1558 C 0.42313 0.45199 0.85835
 C1559 C 0.41585 0.44446 0.83722
 H1560 H 0.40171 0.45244 0.82901
 O1561 O 0.52180 0.61165 0.91925
 O1562 O 0.52184 0.63792 0.89316
 C1563 C 0.52946 0.62994 0.91142
 C1564 C 0.54777 0.64168 0.92343
 C1565 C 0.55531 0.66281 0.91616
 H1566 H 0.54732 0.67104 0.90203
 O1567 O 0.47807 0.38796 0.91921
 O1568 O 0.47802 0.36172 0.89312
 C1569 C 0.47040 0.36969 0.91137
 C1570 C 0.45207 0.35794 0.92337
 C1571 C 0.44446 0.33686 0.91606
 H1572 H 0.45240 0.32868 0.90189
 O1573 O 0.61176 0.58072 0.97837
 O1574 O 0.63801 0.60678 0.97834
 C1575 C 0.63004 0.58854 0.97071
 C1576 C 0.64180 0.57654 0.95241
 C1577 C 0.66292 0.58381 0.94486
 H1578 H 0.67111 0.59796 0.95283
 O1579 O 0.38814 0.41877 0.97837
 O1580 O 0.36190 0.39270 0.97837
 C1581 C 0.36986 0.41094 0.97072
 C1582 C 0.35810 0.42295 0.95238
 C1583 C 0.33702 0.41565 0.94477
 H1584 H 0.32882 0.40148 0.95271
 Cu1585 Cu 0.49996 0.40593 0.90646
 Cu1586 Cu 0.49995 0.37453 0.87504
 Cu1587 Cu 0.49993 0.59369 0.90649
 Cu1588 Cu 0.49995 0.62512 0.87505
 Cu1589 Cu 0.40625 0.49980 0.90642
 Cu1590 Cu 0.37483 0.49986 0.87499
 Cu1591 Cu 0.59374 0.49972 0.90642
 Cu1592 Cu 0.62512 0.49975 0.87497
 C1593 C 0.44144 0.44124 0.86868
 H1594 H 0.44696 0.44675 0.88510
 C1595 C 0.42660 0.42642 0.82670
 C1596 C 0.55846 0.55838 0.86873
 H1597 H 0.55282 0.55272 0.88507
 C1598 C 0.57364 0.57359 0.82700
 C1599 C 0.36842 0.44128 0.94167
 H1600 H 0.38481 0.44682 0.94725
 C1601 C 0.32653 0.42639 0.92668
 C1602 C 0.63149 0.55823 0.94168
 H1603 H 0.61508 0.55270 0.94721
 C1604 C 0.67344 0.57307 0.92682
 C1605 C 0.44137 0.36825 0.94171
 H1606 H 0.44694 0.38463 0.94726
 C1607 C 0.42638 0.32638 0.92678
 C1608 C 0.55853 0.63132 0.94172
 H1609 H 0.55301 0.61490 0.94724
 C1610 C 0.57337 0.67330 0.92690
 C1611 C 0.44147 0.55842 0.86870
 H1612 H 0.44703 0.55285 0.88509
 C1613 C 0.42650 0.57339 0.82679
 C1614 C 0.55848 0.44119 0.86866
 H1615 H 0.55293 0.44674 0.88506
 C1616 C 0.57341 0.42628 0.82675
 C1617 C 0.55854 0.36818 0.94173
 H1618 H 0.55300 0.38458 0.94727
 C1619 C 0.57343 0.32627 0.92682
 C1620 C 0.44136 0.63142 0.94169
 H1621 H 0.44693 0.61504 0.94727
 C1622 C 0.42638 0.67331 0.92671
 C1623 C 0.36856 0.55836 0.94173
 H1624 H 0.38500 0.55288 0.94722
 C1625 C 0.32652 0.57309 0.92697
 C1626 C 0.63152 0.44113 0.94164
 H1627 H 0.61514 0.44670 0.94722
 C1628 C 0.67338 0.42617 0.92665
 O1629 O 0.52188 0.41867 1.11224
 O1630 O 0.52189 0.39255 1.13848
 C1631 C 0.52954 0.41080 1.13052
 C1632 C 0.54787 0.42275 1.14230
 C1633 C 0.55548 0.41538 1.16338
 H1634 H 0.54754 0.40120 1.17155
 O1635 O 0.47808 0.58078 1.11209
 O1636 O 0.47810 0.60685 1.13835
 C1637 C 0.47045 0.58862 1.13039
 C1638 C 0.45214 0.57664 1.14218
 C1639 C 0.44456 0.58399 1.16326
 H1640 H 0.45251 0.59817 1.17141
 O1641 O 0.38816 0.52172 1.08143
 O1642 O 0.36193 0.52173 1.10754
 C1643 C 0.36989 0.52938 1.08928
 C1644 C 0.35813 0.54773 1.07730
 C1645 C 0.33709 0.55539 1.08469
 H1646 H 0.32894 0.54747 1.09890
 O1647 O 0.61177 0.47774 1.08139
 O1648 O 0.63802 0.47771 1.10749
 C1649 C 0.63006 0.47009 1.08923
 C1650 C 0.64184 0.45181 1.07721
 C1651 C 0.66296 0.44426 1.08450
 H1652 H 0.67114 0.45221 1.09867
 O1653 O 0.58104 0.38799 1.02217
 O1654 O 0.60711 0.36173 1.02223
 C1655 C 0.58887 0.36971 1.02986
 C1656 C 0.57687 0.35795 1.04819
 C1657 C 0.58418 0.33685 1.05577
 H1658 H 0.59834 0.32867 1.04781
 O1659 O 0.41893 0.61163 1.02220
 O1660 O 0.39284 0.63787 1.02220
 C1661 C 0.41110 0.62991 1.02984
 C1662 C 0.42311 0.64167 1.04815
 C1663 C 0.41581 0.66277 1.05573
 H1664 H 0.40164 0.67097 1.04778
 O1665 O 0.41891 0.47790 1.11214
 O1666 O 0.39283 0.47785 1.13840
 C1667 C 0.41108 0.47022 1.13043
 C1668 C 0.42307 0.45190 1.14221
 C1669 C 0.41573 0.44429 1.16329
 H1670 H 0.40154 0.45223 1.17145
 O1671 O 0.58102 0.52148 1.11211
 O1672 O 0.60710 0.52150 1.13838
 C1673 C 0.58885 0.52912 1.13040
 C1674 C 0.57682 0.54741 1.14217
 C1675 C 0.58405 0.55489 1.16334
 H1676 H 0.59817 0.54690 1.17156
 O1677 O 0.47813 0.38804 1.08142
 O1678 O 0.47808 0.36175 1.10750
 C1679 C 0.47047 0.36975 1.08924
 C1680 C 0.45219 0.35799 1.07719
 C1681 C 0.44468 0.33684 1.08444
 H1682 H 0.45267 0.32862 1.09859
 O1683 O 0.52185 0.61146 1.08133
 O1684 O 0.52193 0.63769 1.10743
 C1685 C 0.52953 0.62973 1.08916
 C1686 C 0.54783 0.64150 1.07714
 C1687 C 0.55536 0.66262 1.08439
 H1688 H 0.54739 0.67082 1.09854
 O1689 O 0.38818 0.41879 1.02216
 O1690 O 0.36193 0.39271 1.02222
 C1691 C 0.36990 0.41096 1.02983
 C1692 C 0.35813 0.42297 1.04813
 C1693 C 0.33701 0.41571 1.05567
 H1694 H 0.32881 0.40157 1.04771
 O1695 O 0.61178 0.58071 1.02216
 O1696 O 0.63803 0.60678 1.02219
 C1697 C 0.63006 0.58853 1.02983
 C1698 C 0.64182 0.57652 1.04815
 C1699 C 0.66293 0.58380 1.05571
 H1700 H 0.67112 0.59795 1.04773
 O1701 O 0.52184 0.58071 1.11206
 O1702 O 0.52191 0.60678 1.13832
 C1703 C 0.52951 0.58852 1.13035
 C1704 C 0.54778 0.57647 1.14215
 C1705 C 0.55527 0.58369 1.16331
 H1706 H 0.54729 0.59782 1.17151
 O1707 O 0.47811 0.41871 1.11220
 O1708 O 0.47806 0.39258 1.13844
 C1709 C 0.47044 0.41085 1.13048
 C1710 C 0.45211 0.42284 1.14224
 C1711 C 0.44450 0.41550 1.16333
 H1712 H 0.45243 0.40131 1.17152
 O1713 O 0.61178 0.52150 1.08142
 O1714 O 0.63803 0.52153 1.10752
 C1715 C 0.63006 0.52916 1.08926
 C1716 C 0.64182 0.54747 1.07723
 C1717 C 0.66294 0.55502 1.08452
 H1718 H 0.67113 0.54705 1.09869
 O1719 O 0.38820 0.47795 1.08139
 O1720 O 0.36195 0.47790 1.10748
 C1721 C 0.36992 0.47029 1.08921
 C1722 C 0.35814 0.45201 1.07719
 C1723 C 0.33702 0.44448 1.08446
 H1724 H 0.32883 0.45244 1.09861
 O1725 O 0.58105 0.61143 1.02214
 O1726 O 0.60714 0.63766 1.02217
 C1727 C 0.58888 0.62970 1.02980
 C1728 C 0.57687 0.64148 1.04809
 C1729 C 0.58414 0.66261 1.05560
 H1730 H 0.59828 0.67080 1.04762
 O1731 O 0.41892 0.38808 1.02216
 O1732 O 0.39285 0.36183 1.02222
 C1733 C 0.41110 0.36979 1.02983
 C1734 C 0.42314 0.35801 1.04813
 C1735 C 0.41590 0.33686 1.05564
 H1736 H 0.40177 0.32866 1.04766
 O1737 O 0.58111 0.47772 1.11220
 O1738 O 0.60720 0.47768 1.13845
 C1739 C 0.58895 0.47005 1.13049
 C1740 C 0.57695 0.45175 1.14228
 C1741 C 0.58431 0.44411 1.16336
 H1742 H 0.59851 0.45201 1.17152
 O1743 O 0.41890 0.52167 1.11217
 O1744 O 0.39282 0.52168 1.13843
 C1745 C 0.41107 0.52932 1.13046
 C1746 C 0.42307 0.54762 1.14222
 C1747 C 0.41574 0.55525 1.16330
 H1748 H 0.40156 0.54734 1.17149
 O1749 O 0.47810 0.61153 1.08136
 O1750 O 0.47812 0.63776 1.10746
 C1751 C 0.47047 0.62982 1.08920
 C1752 C 0.45217 0.64162 1.07720
 C1753 C 0.44461 0.66272 1.08451
 H1754 H 0.45257 0.67088 1.09869
 O1755 O 0.52189 0.38802 1.08146
 O1756 O 0.52190 0.36173 1.10753
 C1757 C 0.52954 0.36972 1.08928
 C1758 C 0.54785 0.35795 1.07727
 C1759 C 0.55543 0.33685 1.08459
 H1760 H 0.54749 0.32866 1.09877
 O1761 O 0.61181 0.41865 1.02214
 O1762 O 0.63805 0.39255 1.02220
 C1763 C 0.63009 0.41081 1.02981
 C1764 C 0.64186 0.42280 1.04813
 C1765 C 0.66298 0.41551 1.05568
 H1766 H 0.67118 0.40137 1.04771
 O1767 O 0.38818 0.58094 1.02224
 O1768 O 0.36193 0.60702 1.02224
 C1769 C 0.36990 0.58878 1.02990
 C1770 C 0.35814 0.57680 1.04824
 C1771 C 0.33710 0.58419 1.05589
 H1772 H 0.32896 0.59841 1.04798
 Cu1773 Cu 0.50000 0.40598 1.09422
 Cu1774 Cu 0.49998 0.37452 1.12562
 Cu1775 Cu 0.49996 0.59351 1.09409
 Cu1776 Cu 0.50002 0.62490 1.12552
 Cu1777 Cu 0.40614 0.40603 1.00026
 Cu1778 Cu 0.37473 0.37463 1.00031
 Cu1779 Cu 0.59382 0.40592 1.00026
 Cu1780 Cu 0.62521 0.37449 1.00029
 Cu1781 Cu 0.40618 0.59366 1.00033
 Cu1782 Cu 0.37475 0.62505 1.00029
 Cu1783 Cu 0.59380 0.59347 1.00026
 Cu1784 Cu 0.62522 0.62486 1.00026
 Cu1785 Cu 0.40616 0.49981 1.09417
 Cu1786 Cu 0.37475 0.49978 1.12559
 Cu1787 Cu 0.59381 0.49961 1.09416
 Cu1788 Cu 0.62522 0.49961 1.12559
 C1789 C 0.55858 0.44109 1.13200
 H1790 H 0.55300 0.44669 1.11562
 C1791 C 0.57358 0.42604 1.17387
 C1792 C 0.44142 0.55830 1.13191
 H1793 H 0.44698 0.55272 1.11553
 C1794 C 0.42648 0.57331 1.17379
 C1795 C 0.36840 0.55841 1.05892
 H1796 H 0.38475 0.55279 1.05331
 C1797 C 0.32661 0.57350 1.07399
 C1798 C 0.63154 0.44110 1.05887
 H1799 H 0.61513 0.44663 1.05333
 C1800 C 0.67349 0.42624 1.07374
 C1801 C 0.55855 0.36826 1.05892
 H1802 H 0.55300 0.38466 1.05336
 C1803 C 0.57347 0.32633 1.07384
 C1804 C 0.44144 0.63135 1.05886
 H1805 H 0.44697 0.61495 1.05331
 C1806 C 0.42656 0.67326 1.07379
 C1807 C 0.44142 0.44120 1.13193
 H1808 H 0.44700 0.44677 1.11554
 C1809 C 0.42643 0.42622 1.17382
 C1810 C 0.55853 0.55817 1.13182
 H1811 H 0.55305 0.55270 1.11537
 C1812 C 0.57328 0.57290 1.17387
 C1813 C 0.44144 0.36833 1.05888
 H1814 H 0.44693 0.38476 1.05338
 C1815 C 0.42667 0.32631 1.07367
 C1816 C 0.55856 0.63117 1.05883
 H1817 H 0.55304 0.61475 1.05332
 C1818 C 0.57339 0.67314 1.07363
 C1819 C 0.36845 0.44128 1.05887
 H1820 H 0.38487 0.44679 1.05335
 C1821 C 0.32648 0.42646 1.07371
 C1822 C 0.63151 0.55820 1.05889
 H1823 H 0.61511 0.55267 1.05336
 C1824 C 0.67346 0.57305 1.07376
 C1825 C 1.13220 1.13126 1.31085
 C1826 C 1.12432 1.12343 1.29394
 C1827 C 1.11506 1.11426 1.27360
 C1828 C 1.09618 1.12420 1.26371
 C1829 C 1.08751 1.11563 1.24365
 C1830 C 1.09768 1.09708 1.23340
 C1831 C 1.11648 1.08706 1.24336
 C1832 C 1.12515 1.09563 1.26342
 C1833 C 1.08912 1.08863 1.21246
 C1834 C 1.08211 1.08169 1.19479
 H1835 H 1.08827 1.13864 1.27141
 H1836 H 1.07299 1.12354 1.23606
 H1837 H 1.12450 1.07274 1.23555
 H1838 H 1.13978 1.08784 1.27090
 C1839 C 1.13011 0.62989 0.81152
 C1840 C 1.12236 0.62210 0.79453
 C1841 C 1.11330 0.61300 0.77409
 C1842 C 1.12351 0.59441 0.76394
 C1843 C 1.11508 0.58594 0.74374
 C1844 C 1.09641 0.59603 0.73360
 C1845 C 1.08611 0.61452 0.74382
 C1846 C 1.09454 0.62299 0.76403
 C1847 C 1.08812 0.58771 0.71251
 C1848 C 1.08134 0.58091 0.69471
 H1849 H 1.13806 0.58659 0.77155
 H1850 H 1.12320 0.57167 0.73595
 H1851 H 1.07169 0.62247 0.73610
 H1852 H 1.08655 0.63740 0.77170
 C1853 C 0.63147 1.13132 0.81101
 C1854 C 0.62380 1.12357 0.79396
 C1855 C 0.61487 1.11448 0.77345
 C1856 C 0.59163 1.11367 0.76998
 C1857 C 0.58303 1.10519 0.74985
 C1858 C 0.59764 1.09749 0.73311
 C1859 C 0.62087 1.09821 0.73663
 C1860 C 0.62946 1.10669 0.75675
 C1861 C 0.58888 1.08913 0.71222
 C1862 C 0.58178 1.08223 0.69457
 H1863 H 0.58020 1.11968 0.78278
 H1864 H 0.56503 1.10473 0.74729
 H1865 H 0.63232 1.09233 0.72379
 H1866 H 0.64746 1.10727 0.75924
 C1867 C 0.62985 0.63018 1.31196
 C1868 C 0.62210 0.62234 1.29500
 C1869 C 0.61305 0.61317 1.27458
 C1870 C 0.62306 0.59434 1.26469
 C1871 C 0.61466 0.58580 1.24451
 C1872 C 0.59621 0.59605 1.23414
 C1873 C 0.58610 0.61479 1.24411
 C1874 C 0.59451 0.62333 1.26429
 C1875 C 0.58796 0.58767 1.21305
 C1876 C 0.58119 0.58084 1.19526
 H1877 H 0.63744 0.58638 1.27248
 H1878 H 0.62263 0.57133 1.23691
 H1879 H 0.57186 0.62287 1.23621
 H1880 H 0.58667 0.63792 1.27178
 C1881 C 0.86853 0.86873 1.31098
 C1882 C 0.87641 0.87652 1.29405
 C1883 C 0.88567 0.88562 1.27368
 C1884 C 0.90441 0.87552 1.26371
 C1885 C 0.91308 0.88403 1.24362
 C1886 C 0.90304 0.90269 1.23341
 C1887 C 0.88438 0.91288 1.24344
 C1888 C 0.87571 0.90436 1.26353
 C1889 C 0.91159 0.91110 1.21244
 C1890 C 0.91857 0.91802 1.19475
 H1891 H 0.91222 0.86099 1.27139
 H1892 H 0.92748 0.87599 1.23598
 H1893 H 0.87645 0.92728 1.23566
 H1894 H 0.86119 0.91228 1.27107
 C1895 C 0.86830 0.36930 0.81094
 C1896 C 0.87621 0.37704 0.79399
 C1897 C 0.88550 0.38609 0.77362
 C1898 C 0.90430 0.37598 0.76376
 C1899 C 0.91300 0.38442 0.74364
 C1900 C 0.90294 0.40300 0.73331
 C1901 C 0.88422 0.41319 0.74324
 C1902 C 0.87552 0.40475 0.76335
 C1903 C 0.91151 0.41132 0.71232
 C1904 C 0.91850 0.41818 0.69461
 H1905 H 0.91212 0.36151 0.77152
 H1906 H 0.92745 0.37639 0.73608
 H1907 H 0.87628 0.42754 0.73537
 H1908 H 0.86095 0.41266 0.77081
 C1909 C 0.36868 0.86949 0.81120
 C1910 C 0.37655 0.87733 0.79428
 C1911 C 0.38577 0.88651 0.77393
 C1912 C 0.40447 0.87642 0.76387
 C1913 C 0.41305 0.88497 0.74376
 C1914 C 0.40297 0.90365 0.73362
 C1915 C 0.38436 0.91383 0.74375
 C1916 C 0.37578 0.90528 0.76387
 C1917 C 0.41141 0.91206 0.71261
 C1918 C 0.41831 0.91895 0.69488
 H1919 H 0.41229 0.86187 0.77148
 H1920 H 0.42742 0.87694 0.73604
 H1921 H 0.37641 0.92825 0.73603
 H1922 H 0.36128 0.91318 0.77148
 C1923 C 0.36812 0.36938 1.31148
 C1924 C 0.37604 0.37715 1.29455
 C1925 C 0.38536 0.38620 1.27418
 C1926 C 0.40417 0.37610 1.26435
 C1927 C 0.41287 0.38451 1.24423
 C1928 C 0.40279 0.40307 1.23386
 C1929 C 0.38407 0.41326 1.24377
 C1930 C 0.37537 0.40484 1.26389
 C1931 C 0.41136 0.41136 1.21285
 C1932 C 0.41834 0.41819 1.19513
 H1933 H 0.41200 0.36164 1.27214
 H1934 H 0.42733 0.37648 1.23668
 H1935 H 0.37612 0.42758 1.23588
 H1936 H 0.36079 0.41275 1.27133
 C1937 C 0.86736 1.13161 0.68930
 C1938 C 0.87529 1.12377 0.70620
 C1939 C 0.88463 1.11459 0.72652
 C1940 C 0.90362 1.12445 0.73626
 C1941 C 0.91239 1.11587 0.75629
 C1942 C 0.90220 1.09739 0.76667
 C1943 C 0.88329 1.08745 0.75686
 C1944 C 0.87453 1.09603 0.73683
 C1945 C 0.91087 1.08892 0.78758
 C1946 C 0.91795 1.08196 0.80522
 H1947 H 0.91155 1.13884 0.72845
 H1948 H 0.92699 1.12372 0.76375
 H1949 H 0.87525 1.07318 0.76477
 H1950 H 0.85981 1.08830 0.72947
 C1951 C 0.86924 0.63059 0.18818
 C1952 C 0.87705 0.62275 0.20513
 C1953 C 0.88619 0.61358 0.22553
 C1954 C 0.90473 0.62379 0.23577
 C1955 C 0.91323 0.61525 0.25592
 C1956 C 0.90324 0.59646 0.26592
 C1957 C 0.88480 0.58616 0.25561
 C1958 C 0.87629 0.59470 0.23546
 C1959 C 0.91161 0.58806 0.28698
 C1960 C 0.91847 0.58120 0.30474
 H1961 H 0.91248 0.63843 0.22826
 H1962 H 0.92747 0.62338 0.26378
 H1963 H 0.87692 0.57165 0.26323
 H1964 H 0.86193 0.58670 0.22771
 C1965 C 0.36926 1.13047 0.18819
 C1966 C 0.37706 1.12272 0.20519
 C1967 C 0.38620 1.11368 0.22564
 C1968 C 0.37629 1.09488 0.23570
 C1969 C 0.38482 1.08647 0.25590
 C1970 C 0.40329 1.09682 0.26612
 C1971 C 0.41329 1.11553 0.25598
 C1972 C 0.40476 1.12395 0.23578
 C1973 C 0.41167 1.08854 0.28721
 C1974 C 0.41853 1.08176 0.30500
 H1975 H 0.36190 1.08685 0.22803
 H1976 H 0.37693 1.07202 0.26363
 H1977 H 0.42754 1.12369 0.26376
 H1978 H 0.41252 1.13852 0.22816
 C1979 C 0.36921 0.63056 0.68881
 C1980 C 0.37683 0.62278 0.70587
 C1981 C 0.38567 0.61364 0.72641
 C1982 C 0.37102 0.60557 0.74293
 C1983 C 0.37952 0.59709 0.76310
 C1984 C 0.40272 0.59664 0.76684
 C1985 C 0.41740 0.60460 0.75028
 C1986 C 0.40889 0.61309 0.73010
 C1987 C 0.41138 0.58831 0.78780
 C1988 C 0.41840 0.58144 0.80550
 H1989 H 0.35304 0.60595 0.74027
 H1990 H 0.36803 0.59100 0.77581
 H1991 H 0.43537 0.60436 0.75302
 H1992 H 0.42037 0.61932 0.71744
 C1993 C 1.13176 0.86899 0.68910
 C1994 C 1.12391 0.87680 0.70602
 C1995 C 1.11468 0.88593 0.72639
 C1996 C 1.09606 0.87575 0.73649
 C1997 C 1.08744 0.88428 0.75658
 C1998 C 1.09740 0.90303 0.76665
 C1999 C 1.11594 0.91330 0.75648
 C2000 C 1.12457 0.90477 0.73638
 C2001 C 1.08890 0.91145 0.78763
 C2002 C 1.08194 0.91835 0.80533
 H2003 H 1.08832 0.86115 0.72893
 H2004 H 1.07312 0.87618 0.76434
 H2005 H 1.12381 0.92779 0.76415
 H2006 H 1.13900 0.91275 0.72874
 C2007 C 1.13063 0.36911 0.18837
 C2008 C 1.12280 0.37691 0.20531
 C2009 C 1.11364 0.38605 0.22570
 C2010 C 1.12360 0.40485 0.23569
 C2011 C 1.11508 0.41337 0.25583
 C2012 C 1.09657 0.40311 0.26607
 C2013 C 1.08652 0.38440 0.25601
 C2014 C 1.09504 0.37588 0.23586
 C2015 C 1.08820 0.41148 0.28712
 C2016 C 1.08135 0.41835 0.30487
 H2017 H 1.13802 0.41281 0.22799
 H2018 H 1.12301 0.42782 0.26350
 H2019 H 1.07222 0.37631 0.26381
 H2020 H 1.08724 0.36131 0.22831
 C2021 C 0.63026 0.86962 0.18870
 C2022 C 0.62244 0.87743 0.20564
 C2023 C 0.61329 0.88658 0.22603
 C2024 C 0.59456 0.87655 0.23609
 C2025 C 0.58605 0.88507 0.25623
 C2026 C 0.59623 0.90366 0.26639
 C2027 C 0.61487 0.91378 0.25626
 C2028 C 0.62339 0.90526 0.23611
 C2029 C 0.58786 0.91204 0.28743
 C2030 C 0.58101 0.91890 0.30518
 H2031 H 0.58666 0.86207 0.22846
 H2032 H 0.57165 0.87709 0.26395
 H2033 H 0.62290 0.92813 0.26400
 H2034 H 0.63791 0.91311 0.22850
 C2035 C 0.63145 0.36950 0.68903
 C2036 C 0.62356 0.37723 0.70598
 C2037 C 0.61429 0.38626 0.72636
 C2038 C 0.59543 0.37624 0.73619
 C2039 C 0.58677 0.38466 0.75632
 C2040 C 0.59694 0.40314 0.76669
 C2041 C 0.61571 0.41325 0.75679
 C2042 C 0.62437 0.40482 0.73667
 C2043 C 0.58841 0.41144 0.78770
 C2044 C 0.58146 0.41827 0.80543
 H2045 H 0.58753 0.36185 0.72839
 H2046 H 0.57227 0.37669 0.76386
 H2047 H 0.62373 0.42751 0.76470
 H2048 H 0.63899 0.41267 0.72923
 C2049 C 1.31156 1.12989 1.13067
 C2050 C 1.29461 1.12214 1.12281
 C2051 C 1.27421 1.11310 1.11360
 C2052 C 1.26414 1.09431 1.12352
 C2053 C 1.24397 1.08591 1.11496
 C2054 C 1.23379 1.09628 1.09645
 C2055 C 1.24394 1.11498 1.08644
 C2056 C 1.26411 1.12337 1.09500
 C2057 C 1.21271 1.08804 1.08807
 C2058 C 1.19492 1.08127 1.08123
 H2059 H 1.27178 1.08627 1.13794
 H2060 H 1.23623 1.07147 1.12286
 H2061 H 1.23619 1.12315 1.07216
 H2062 H 1.27174 1.13794 1.08724
 C2063 C 1.31127 0.63049 0.63003
 C2064 C 1.29435 0.62267 0.62218
 C2065 C 1.27398 0.61350 0.61304
 C2066 C 1.26404 0.59468 0.62303
 C2067 C 1.24389 0.58615 0.61454
 C2068 C 1.23362 0.59640 0.59603
 C2069 C 1.24364 0.61513 0.58594
 C2070 C 1.26378 0.62367 0.59443
 C2071 C 1.21257 0.58802 0.58771
 C2072 C 1.19481 0.58116 0.58090
 H2073 H 1.27175 0.58673 0.63746
 H2074 H 1.23626 0.57169 0.62249
 H2075 H 1.23581 0.62322 0.57165
 H2076 H 1.27130 0.63826 0.58661
 C2077 C 0.81041 1.13180 0.63252
 C2078 C 0.79349 1.12402 0.62460
 C2079 C 0.77315 1.11492 0.61528
 C2080 C 0.76311 1.09605 0.62510
 C2081 C 0.74307 1.08753 0.61635
 C2082 C 0.73299 1.09782 0.59775
 C2083 C 0.74310 1.11661 0.58785
 C2084 C 0.76314 1.12513 0.59660
 C2085 C 0.71208 1.08938 0.58910
 C2086 C 0.69444 1.08244 0.58203
 H2087 H 0.77068 1.08805 0.63957
 H2088 H 0.73537 1.07302 0.62416
 H2089 H 0.73543 1.12472 0.57349
 H2090 H 0.77074 1.13975 0.58890
 C2091 C 0.81138 0.63019 1.13084
 C2092 C 0.79442 0.62240 1.12304
 C2093 C 0.77401 0.61328 1.11393
 C2094 C 0.76386 0.62342 1.09528
 C2095 C 0.74370 0.61492 1.08680
 C2096 C 0.73361 0.59625 1.09693
 C2097 C 0.74383 0.58603 1.11549
 C2098 C 0.76399 0.59453 1.12397
 C2099 C 0.71256 0.58788 1.08859
 C2100 C 0.69480 0.58104 1.08175
 H2101 H 0.77144 0.63796 1.08742
 H2102 H 0.73591 0.62298 1.07247
 H2103 H 0.73615 0.57161 1.12348
 H2104 H 0.77167 0.58659 1.13843
 C2105 C 1.31118 0.86885 0.86890
 C2106 C 1.29423 0.87668 0.87667
 C2107 C 1.27384 0.88588 0.88577
 C2108 C 1.26260 0.90312 0.87439
 C2109 C 1.24249 0.91170 0.88293
 C2110 C 1.23355 0.90307 0.90290
 C2111 C 1.24485 0.88591 0.91435
 C2112 C 1.26496 0.87733 0.90581
 C2113 C 1.21257 0.91150 0.91138
 C2114 C 1.19487 0.91842 0.91832
 H2115 H 1.26929 0.90982 0.85886
 H2116 H 1.23387 0.92493 0.87391
 H2117 H 1.23806 0.87908 0.92978
 H2118 H 1.27349 0.86397 0.91472
 C2119 C 1.31112 0.36929 0.36819
 C2120 C 1.29416 0.37704 0.37602
 C2121 C 1.27376 0.38610 0.38524
 C2122 C 1.26388 0.40512 0.37556
 C2123 C 1.24376 0.41359 0.38418
 C2124 C 1.23344 0.40308 0.40252
 C2125 C 1.24339 0.38413 0.41228
 C2126 C 1.26351 0.37566 0.40366
 C2127 C 1.21245 0.41144 0.41102
 C2128 C 1.19474 0.41831 0.41797
 H2129 H 1.27164 0.41330 0.36129
 H2130 H 1.23618 0.42823 0.37648
 H2131 H 1.23553 0.37584 0.42643
 H2132 H 1.27098 0.36091 0.41124
 C2133 C 0.81072 0.86944 0.36840
 C2134 C 0.79383 0.87731 0.37626
 C2135 C 0.77349 0.88651 0.38549
 C2136 C 0.76459 0.87778 0.40543
 C2137 C 0.74450 0.88631 0.41407
 C2138 C 0.73324 0.90362 0.40279
 C2139 C 0.74223 0.91245 0.38293
 C2140 C 0.76231 0.90392 0.37429
 C2141 C 0.71226 0.91198 0.41132
 C2142 C 0.69455 0.91883 0.41828
 H2143 H 0.77307 0.86428 0.41419
 H2144 H 0.73768 0.87933 0.42941
 H2145 H 0.73364 0.92580 0.37405
 H2146 H 0.76903 0.91076 0.35884
 C2147 C 0.81095 0.36887 0.86882
 C2148 C 0.79403 0.37670 0.87666
 C2149 C 0.77367 0.38586 0.88585
 C2150 C 0.76467 0.37701 0.90570
 C2151 C 0.74456 0.38552 0.91431
 C2152 C 0.73338 0.40292 0.90311
 C2153 C 0.74245 0.41186 0.88334
 C2154 C 0.76256 0.40335 0.87473
 C2155 C 0.71239 0.41127 0.91162
 C2156 C 0.69468 0.41814 0.91857
 H2157 H 0.77310 0.36345 0.91442
 H2158 H 0.73767 0.37845 0.92959
 H2159 H 0.73392 0.42528 0.87451
 H2160 H 0.76934 0.41028 0.85934
 C2161 C 0.68872 0.86955 1.13043
 C2162 C 0.70569 0.87734 1.12267
 C2163 C 0.72612 0.88648 1.11362
 C2164 C 0.73475 0.87829 1.09334
 C2165 C 0.75493 0.88676 1.08486
 C2166 C 0.76655 0.90346 1.09664
 C2167 C 0.75785 0.91175 1.11685
 C2168 C 0.73768 0.90327 1.12532
 C2169 C 0.78761 0.91176 1.08825
 C2170 C 0.80538 0.91856 1.08141
 H2171 H 0.72597 0.86527 1.08419
 H2172 H 0.76153 0.88021 1.06924
 H2173 H 0.76673 0.92462 1.12611
 H2174 H 0.73118 0.90969 1.14105
 C2175 C 0.68890 0.36910 0.63124
 C2176 C 0.70585 0.37691 0.62344
 C2177 C 0.72625 0.38605 0.61429
 C2178 C 0.73497 0.37760 0.59416
 C2179 C 0.75509 0.38611 0.58556
 C2180 C 0.76656 0.40310 0.59707
 C2181 C 0.75776 0.41164 0.61713
 C2182 C 0.73765 0.40313 0.62572
 C2183 C 0.78755 0.41145 0.58855
 C2184 C 0.80526 0.41832 0.58159
 H2185 H 0.72632 0.36436 0.58521
 H2186 H 0.76177 0.37935 0.57006
 H2187 H 0.76652 0.42474 0.62619
 H2188 H 0.73107 0.40976 0.64133
 C2189 C 0.18909 0.86845 0.63122
 C2190 C 0.20602 0.87626 0.62338
 C2191 C 0.22639 0.88540 0.61419
 C2192 C 0.24041 0.87192 0.60099
 C2193 C 0.26047 0.88061 0.59247
 C2194 C 0.26661 0.90282 0.59712
 C2195 C 0.25254 0.91635 0.61022
 C2196 C 0.23246 0.90766 0.61874
 C2197 C 0.28751 0.91155 0.58876
 C2198 C 0.30516 0.91864 0.58186
 H2199 H 0.23590 0.85468 0.59741
 H2200 H 0.27125 0.87000 0.58240
 H2201 H 0.25714 0.93353 0.61395
 H2202 H 0.22177 0.91821 0.62897
 C2203 C 0.18855 0.36963 1.13109
 C2204 C 0.20552 0.37740 1.12329
 C2205 C 0.22594 0.38648 1.11417
 C2206 C 0.23497 0.37762 1.09436
 C2207 C 0.25514 0.38606 1.08581
 C2208 C 0.26634 0.40340 1.09705
 C2209 C 0.25724 0.41235 1.11679
 C2210 C 0.23708 0.40391 1.12533
 C2211 C 0.28738 0.41168 1.08860
 C2212 C 0.30514 0.41849 1.08171
 H2213 H 0.22652 0.36410 1.08562
 H2214 H 0.26206 0.37898 1.07056
 H2215 H 0.26579 0.42573 1.12564
 H2216 H 0.23026 0.41086 1.14069
 C2217 C 0.68903 1.13054 0.86868
 C2218 C 0.70596 1.12275 0.87656
 C2219 C 0.72634 1.11365 0.88579
 C2220 C 0.73637 1.12381 0.90448
 C2221 C 0.75649 1.11533 0.91309
 C2222 C 0.76666 1.09666 0.90306
 C2223 C 0.75656 1.08642 0.88447
 C2224 C 0.73643 1.09490 0.87585
 C2225 C 0.78768 1.08831 0.91154
 C2226 C 0.80541 1.08146 0.91846
 H2227 H 0.72873 1.13835 0.91226
 H2228 H 0.76419 1.12341 0.92745
 H2229 H 0.76430 1.07200 0.87656
 H2230 H 0.72884 1.08694 0.86137
 C2231 C 0.68827 0.63024 0.37024
 C2232 C 0.70526 0.62243 0.37796
 C2233 C 0.72571 0.61327 0.38695
 C2234 C 0.73580 0.62316 0.40575
 C2235 C 0.75602 0.61464 0.41410
 C2236 C 0.76623 0.59621 0.40368
 C2237 C 0.75606 0.58623 0.38498
 C2238 C 0.73585 0.59474 0.37663
 C2239 C 0.78734 0.58785 0.41188
 C2240 C 0.80515 0.58103 0.41861
 H2241 H 0.72813 0.63752 0.41382
 H2242 H 0.76376 0.62252 0.42854
 H2243 H 0.76384 0.57200 0.37677
 H2244 H 0.72821 0.58701 0.36205
 C2245 C 0.18900 1.13133 0.36777
 C2246 C 0.20591 1.12354 0.37570
 C2247 C 0.22626 1.11446 0.38504
 C2248 C 0.23596 1.09522 0.37566
 C2249 C 0.25604 1.08673 0.38437
 C2250 C 0.26650 1.09745 0.40250
 C2251 C 0.25671 1.11661 0.41197
 C2252 C 0.23664 1.12510 0.40325
 C2253 C 0.28746 1.08906 0.41107
 C2254 C 0.30515 1.08217 0.41807
 H2255 H 0.22810 1.08688 0.36154
 H2256 H 0.26349 1.07193 0.37690
 H2257 H 0.26468 1.12506 0.42596
 H2258 H 0.22930 1.14002 0.41060
 C2259 C 0.18842 0.62989 0.86995
 C2260 C 0.20538 0.62211 0.87775
 C2261 C 0.22580 0.61301 0.88688
 C2262 C 0.23602 0.59447 0.87668
 C2263 C 0.25620 0.58601 0.88517
 C2264 C 0.26624 0.59607 0.90390
 C2265 C 0.25595 0.61452 0.91420
 C2266 C 0.23576 0.62298 0.90571
 C2267 C 0.28733 0.58778 0.91223
 C2268 C 0.30513 0.58100 0.91904
 H2269 H 0.22848 0.58667 0.86209
 H2270 H 0.26405 0.57177 0.87705
 H2271 H 0.26359 0.62245 0.92866
 H2272 H 0.22802 0.63735 0.91369
 C2273 C 1.13018 1.31133 1.13097
 C2274 C 1.12243 1.29439 1.12312
 C2275 C 1.11337 1.27400 1.11393
 C2276 C 1.09470 1.26382 1.12397
 C2277 C 1.08627 1.24367 1.11540
 C2278 C 1.09647 1.23362 1.09675
 C2279 C 1.11505 1.24387 1.08662
 C2280 C 1.12348 1.26402 1.09519
 C2281 C 1.08818 1.21258 1.08832
 C2282 C 1.08137 1.19483 1.08143
 H2283 H 1.08679 1.27137 1.13849
 H2284 H 1.07193 1.23586 1.12339
 H2285 H 1.12309 1.23621 1.07222
 H2286 H 1.13795 1.27172 1.08733
 C2287 C 1.13170 0.81065 0.63075
 C2288 C 1.12382 0.79374 0.62294
 C2289 C 1.11458 0.77339 0.61381
 C2290 C 1.09584 0.76339 0.62389
 C2291 C 1.08720 0.74331 0.61535
 C2292 C 1.09728 0.73315 0.59670
 C2293 C 1.11594 0.74321 0.58653
 C2294 C 1.12457 0.76329 0.59507
 C2295 C 1.08877 0.71218 0.58828
 C2296 C 1.08180 0.69450 0.58138
 H2297 H 1.08801 0.77103 0.63841
 H2298 H 1.07280 0.73565 0.62337
 H2299 H 1.12388 0.73547 0.57213
 H2300 H 1.13909 0.77085 0.58717
 C2301 C 0.63145 1.31137 0.63050
 C2302 C 0.62356 1.29447 0.62269
 C2303 C 0.61429 1.27413 0.61359
 C2304 C 0.62434 1.26391 0.59495
 C2305 C 0.61568 1.24382 0.58647
 C2306 C 0.59694 1.23387 0.59660
 C2307 C 0.58680 1.24417 0.61515
 C2308 C 0.59546 1.26426 0.62362
 C2309 C 0.58841 1.21289 0.58826
 C2310 C 0.58145 1.19518 0.58141
 H2311 H 0.63893 1.27138 0.58709
 H2312 H 0.62367 1.23597 0.57215
 H2313 H 0.57233 1.23659 0.62313
 H2314 H 0.58759 1.27200 0.63807
 C2315 C 0.63038 0.81119 1.13044
 C2316 C 0.62261 0.79421 1.12268
 C2317 C 0.61352 0.77378 1.11361
 C2318 C 0.59475 0.76378 1.12362
 C2319 C 0.58627 0.74360 1.11518
 C2320 C 0.59654 0.73334 1.09669
 C2321 C 0.61523 0.74340 1.08658
 C2322 C 0.62371 0.76359 1.09503
 C2323 C 0.58819 0.71227 1.08838
 C2324 C 0.58136 0.69450 1.08157
 H2325 H 0.58678 0.77150 1.13803
 H2326 H 0.57184 0.73593 1.12314
 H2327 H 0.62333 0.73558 1.07231
 H2328 H 0.63826 0.77115 1.08720
 C2329 C 0.86828 1.31099 0.86937
 C2330 C 0.87617 1.29406 0.87716
 C2331 C 0.88544 1.27369 0.88624
 C2332 C 0.87536 1.26339 0.90483
 C2333 C 0.88403 1.24329 0.91329
 C2334 C 0.90282 1.23340 0.90321
 C2335 C 0.91299 1.24377 0.88471
 C2336 C 0.90431 1.26387 0.87624
 C2337 C 0.91138 1.21241 0.91155
 C2338 C 0.91836 1.19469 0.91840
 H2339 H 0.86072 1.27081 0.91265
 H2340 H 0.87601 1.23538 0.92758
 H2341 H 0.92750 1.23624 0.87675
 H2342 H 0.91221 1.27167 0.86183
 C2343 C 0.86886 0.81085 0.36835
 C2344 C 0.87665 0.79389 0.37617
 C2345 C 0.88579 0.77350 0.38533
 C2346 C 0.90465 0.76356 0.37543
 C2347 C 0.91321 0.74345 0.38400
 C2348 C 0.90294 0.73319 0.40250
 C2349 C 0.88415 0.74319 0.41248
 C2350 C 0.87559 0.76330 0.40392
 C2351 C 0.91139 0.71220 0.41095
 C2352 C 0.91833 0.69450 0.41788
 H2353 H 0.91264 0.77128 0.36103
 H2354 H 0.92772 0.73583 0.37612
 H2355 H 0.87605 0.73537 0.42677
 H2356 H 0.86097 0.77082 0.41167
 C2357 C 0.36860 1.31160 0.36891
 C2358 C 0.37647 1.29468 0.37676
 C2359 C 0.38569 1.27433 0.38593
 C2360 C 0.40446 1.26435 0.37590
 C2361 C 0.41306 1.24424 0.38445
 C2362 C 0.40292 1.23404 0.40305
 C2363 C 0.38424 1.24410 0.41318
 C2364 C 0.37564 1.26420 0.40463
 C2365 C 0.41138 1.21303 0.41145
 C2366 C 0.41829 1.19530 0.41834
 H2367 H 0.41233 1.27201 0.36141
 H2368 H 0.42749 1.23658 0.37646
 H2369 H 0.37625 1.23632 0.42754
 H2370 H 0.36109 1.27176 0.41249
 C2371 C 0.36857 0.81102 0.86950
 C2372 C 0.37642 0.79407 0.87730
 C2373 C 0.38564 0.77368 0.88640
 C2374 C 0.37560 0.76350 0.90508
 C2375 C 0.38421 0.74338 0.91358
 C2376 C 0.40289 0.73335 0.90342
 C2377 C 0.41301 0.74360 0.88483
 C2378 C 0.40440 0.76372 0.87634
 C2379 C 0.41138 0.71234 0.91179
 C2380 C 0.41831 0.69461 0.91867
 H2381 H 0.36105 0.77103 0.91296
 H2382 H 0.37622 0.73557 0.92793
 H2383 H 0.42744 0.73596 0.87683
 H2384 H 0.41227 0.77143 0.86186
 C2385 C 1.13011 0.68828 0.86984
 C2386 C 1.12237 0.70526 0.87761
 C2387 C 1.11335 0.72572 0.88672
 C2388 C 1.09475 0.73593 0.87658
 C2389 C 1.08637 0.75614 0.88506
 C2390 C 1.09654 0.76621 0.90371
 C2391 C 1.11505 0.75592 0.91394
 C2392 C 1.12344 0.73571 0.90546
 C2393 C 1.08829 0.78730 0.91205
 C2394 C 1.08152 0.80509 0.91886
 H2395 H 1.08686 0.72837 0.86205
 H2396 H 1.07208 0.76398 0.87699
 H2397 H 1.12307 0.76359 0.92834
 H2398 H 1.13786 0.72797 0.91340
 C2399 C 1.13163 0.18913 0.36815
 C2400 C 1.12377 0.20603 0.37600
 C2401 C 1.11457 0.22636 0.38521
 C2402 C 1.09594 0.23652 0.37507
 C2403 C 1.08733 0.25658 0.38369
 C2404 C 1.09731 0.26655 0.40250
 C2405 C 1.11586 0.25632 0.41273
 C2406 C 1.12447 0.23626 0.40410
 C2407 C 1.08883 0.28749 0.41101
 C2408 C 1.08187 0.30516 0.41798
 H2409 H 1.08819 0.22903 0.36043
 H2410 H 1.07302 0.26437 0.37563
 H2411 H 1.12373 0.26391 0.42725
 H2412 H 1.13890 0.22857 0.41205
 C2413 C 0.62992 0.68863 0.37022
 C2414 C 0.62215 0.70562 0.37797
 C2415 C 0.61308 0.72607 0.38703
 C2416 C 0.59431 0.73608 0.37700
 C2417 C 0.58586 0.75629 0.38542
 C2418 C 0.59614 0.76656 0.40390
 C2419 C 0.61482 0.75647 0.41402
 C2420 C 0.62327 0.73626 0.40560
 C2421 C 0.58783 0.78766 0.41217
 C2422 C 0.58103 0.80546 0.41894
 H2423 H 0.58633 0.72837 0.36260
 H2424 H 0.57144 0.76398 0.37744
 H2425 H 0.62293 0.76429 0.42829
 H2426 H 0.63782 0.72868 0.41345
 C2427 C 0.63056 0.18876 0.86877
 C2428 C 0.62274 0.20564 0.87669
 C2429 C 0.61362 0.22597 0.88598
 C2430 C 0.59499 0.23620 0.87592
 C2431 C 0.58650 0.25629 0.88457
 C2432 C 0.59662 0.26624 0.90332
 C2433 C 0.61516 0.25593 0.91348
 C2434 C 0.62364 0.23584 0.90482
 C2435 C 0.58828 0.28723 0.91183
 C2436 C 0.58144 0.30496 0.91877
 H2437 H 0.58714 0.22874 0.86131
 H2438 H 0.57219 0.26415 0.87656
 H2439 H 0.62313 0.26350 0.92796
 H2440 H 0.63809 0.22809 0.91270
 C2441 C 0.86978 0.68847 1.13081
 C2442 C 0.87758 0.70542 1.12298
 C2443 C 0.88671 0.72581 1.11382
 C2444 C 0.87641 0.73608 1.09532
 C2445 C 0.88491 0.75623 1.08680
 C2446 C 0.90374 0.76620 1.09673
 C2447 C 0.91413 0.75585 1.11513
 C2448 C 0.90563 0.73570 1.12365
 C2449 C 0.91210 0.78725 1.08835
 C2450 C 0.91895 0.80501 1.08150
 H2451 H 0.86174 0.72860 1.08762
 H2452 H 0.87672 0.76411 1.07259
 H2453 H 0.92868 0.76343 1.12296
 H2454 H 0.91370 0.72792 1.13799
 C2455 C 0.86796 0.18940 0.63185
 C2456 C 0.87587 0.20627 0.62396
 C2457 C 0.88516 0.22657 0.61472
 C2458 C 0.90379 0.23667 0.62488
 C2459 C 0.91248 0.25669 0.61623
 C2460 C 0.90256 0.26669 0.59739
 C2461 C 0.88401 0.25652 0.58714
 C2462 C 0.87532 0.23650 0.59579
 C2463 C 0.91113 0.28760 0.58885
 C2464 C 0.91813 0.30525 0.58186
 H2465 H 0.91149 0.22916 0.63955
 H2466 H 0.92679 0.26444 0.62432
 H2467 H 0.87618 0.26414 0.57259
 H2468 H 0.86088 0.22885 0.58782
 C2469 C 0.36956 0.68889 0.63035
 C2470 C 0.37736 0.70588 0.62261
 C2471 C 0.38647 0.72632 0.61355
 C2472 C 0.40431 0.73707 0.62444
 C2473 C 0.41278 0.75727 0.61599
 C2474 C 0.40343 0.76679 0.59661
 C2475 C 0.38568 0.75596 0.58564
 C2476 C 0.37722 0.73577 0.59410
 C2477 C 0.41173 0.78786 0.58827
 C2478 C 0.41853 0.80565 0.58144
 H2479 H 0.41156 0.72994 0.63953
 H2480 H 0.42647 0.76553 0.62463
 H2481 H 0.37830 0.76321 0.57067
 H2482 H 0.36338 0.72761 0.58558
 C2483 C 0.36987 0.18822 1.13072
 C2484 C 0.37764 0.20519 1.12291
 C2485 C 0.38673 0.22561 1.11379
 C2486 C 0.40525 0.23585 1.12403
 C2487 C 0.41369 0.25603 1.11555
 C2488 C 0.40365 0.26606 1.09678
 C2489 C 0.38522 0.25575 1.08645
 C2490 C 0.37678 0.23556 1.09494
 C2491 C 0.41194 0.28715 1.08844
 C2492 C 0.41874 0.30493 1.08162
 H2493 H 0.41303 0.22832 1.13865
 H2494 H 0.42791 0.26389 1.12369
 H2495 H 0.37731 0.26339 1.07196
 H2496 H 0.36242 0.22782 1.08692
 C2497 C 1.12990 1.13086 0.68826
 C2498 C 1.12218 1.12302 0.70524
 C2499 C 1.11317 1.11383 0.72568
 C2500 C 1.12337 1.09517 0.73573
 C2501 C 1.11498 1.08661 0.75592
 C2502 C 1.09636 1.09667 0.76614
 C2503 C 1.08607 1.11525 0.75602
 C2504 C 1.09446 1.12381 0.73583
 C2505 C 1.08810 1.08825 0.78721
 C2506 C 1.08131 1.08137 0.80500
 H2507 H 1.13787 1.08736 0.72805
 H2508 H 1.12309 1.07227 0.76363
 H2509 H 1.07169 1.12319 0.76381
 H2510 H 1.08648 1.13828 0.72823
 C2511 C 1.13134 0.63208 0.18884
 C2512 C 1.12349 0.62415 0.20573
 C2513 C 1.11431 0.61484 0.22605
 C2514 C 1.09583 0.62506 0.23639
 C2515 C 1.08726 0.61633 0.25644
 C2516 C 1.09712 0.59736 0.26623
 C2517 C 1.11552 0.58706 0.25582
 C2518 C 1.12409 0.59579 0.23577
 C2519 C 1.08867 0.58875 0.28717
 C2520 C 1.08174 0.58172 0.30483
 H2521 H 1.08816 0.63982 0.22904
 H2522 H 1.07306 0.62445 0.26437
 H2523 H 1.12331 0.57242 0.26327
 H2524 H 1.13842 0.58779 0.22795
 C2525 C 0.63061 1.13116 0.18860
 C2526 C 0.62279 1.12335 0.20555
 C2527 C 0.61362 1.11422 0.22595
 C2528 C 0.62365 1.09548 0.23603
 C2529 C 0.61509 1.08696 0.25617
 C2530 C 0.59648 1.09714 0.26630
 C2531 C 0.58636 1.11578 0.25614
 C2532 C 0.59491 1.12430 0.23600
 C2533 C 0.58807 1.08875 0.28733
 C2534 C 0.58119 1.08189 0.30508
 H2535 H 0.63814 1.08759 0.22842
 H2536 H 0.62307 1.07257 0.26391
 H2537 H 0.57199 1.12380 0.26386
 H2538 H 0.58706 1.13882 0.22837
 C2539 C 0.63125 0.63117 0.68932
 C2540 C 0.62369 0.62354 0.70647
 C2541 C 0.61489 0.61462 0.72712
 C2542 C 0.62603 0.61885 0.74740
 C2543 C 0.61749 0.61033 0.76753
 C2544 C 0.59777 0.59754 0.76748
 C2545 C 0.58663 0.59328 0.74721
 C2546 C 0.59518 0.60181 0.72706
 C2547 C 0.58901 0.58891 0.78827
 C2548 C 0.58189 0.58183 0.80584
 H2549 H 0.64127 0.62874 0.74764
 H2550 H 0.62623 0.61373 0.78311
 H2551 H 0.57137 0.58342 0.74700
 H2552 H 0.58643 0.59845 0.71148
 C2553 C 0.86984 0.86959 0.68849
 C2554 C 0.87765 0.87735 0.70546
 C2555 C 0.88678 0.88645 0.72588
 C2556 C 0.90537 0.87626 0.73606
 C2557 C 0.91385 0.88475 0.75624
 C2558 C 0.90379 0.90346 0.76630
 C2559 C 0.88529 0.91374 0.75604
 C2560 C 0.87680 0.90525 0.73587
 C2561 C 0.91213 0.91181 0.78736
 C2562 C 0.91895 0.91866 0.80513
 H2563 H 0.91317 0.86169 0.72851
 H2564 H 0.92813 0.87665 0.76406
 H2565 H 0.87735 0.92818 0.76370
 H2566 H 0.86239 0.91322 0.72816
 C2567 C 0.86936 0.36892 0.18847
 C2568 C 0.87717 0.37674 0.20542
 C2569 C 0.88629 0.38590 0.22581
 C2570 C 0.87616 0.40456 0.23590
 C2571 C 0.88467 0.41310 0.25604
 C2572 C 0.90335 0.40301 0.26617
 C2573 C 0.91357 0.38444 0.25601
 C2574 C 0.90506 0.37590 0.23587
 C2575 C 0.91172 0.41142 0.28720
 C2576 C 0.91857 0.41830 0.30495
 H2577 H 0.86162 0.41238 0.22829
 H2578 H 0.87662 0.42743 0.26378
 H2579 H 0.92799 0.37649 0.26372
 H2580 H 0.91299 0.36144 0.22823
 C2581 C 0.36923 0.86889 0.18886
 C2582 C 0.37702 0.87675 0.20580
 C2583 C 0.38610 0.88600 0.22618
 C2584 C 0.40485 0.87607 0.23631
 C2585 C 0.41332 0.88471 0.25643
 C2586 C 0.40306 0.90331 0.26649
 C2587 C 0.38440 0.91334 0.25628
 C2588 C 0.37594 0.90470 0.23616
 C2589 C 0.41139 0.91182 0.28750
 C2590 C 0.41823 0.91877 0.30523
 H2591 H 0.41281 0.86157 0.22876
 H2592 H 0.42773 0.87680 0.26421
 H2593 H 0.37631 0.92770 0.26394
 H2594 H 0.36140 0.91248 0.22849
 C2595 C 0.36971 0.36888 0.68881
 C2596 C 0.37749 0.37671 0.70577
 C2597 C 0.38656 0.38591 0.72617
 C2598 C 0.40540 0.37604 0.73620
 C2599 C 0.41386 0.38462 0.75635
 C2600 C 0.40350 0.40310 0.76654
 C2601 C 0.38475 0.41305 0.75644
 C2602 C 0.37629 0.40447 0.73629
 C2603 C 0.41181 0.41153 0.78759
 C2604 C 0.41863 0.41842 0.80535
 H2605 H 0.41344 0.36165 0.72854
 H2606 H 0.42834 0.37676 0.76405
 H2607 H 0.37658 0.42732 0.76420
 H2608 H 0.36168 0.41220 0.72870
 C2609 C 1.13074 0.86928 1.31167
 C2610 C 1.12295 0.87710 1.29470
 C2611 C 1.11384 0.88624 1.27428
 C2612 C 1.09508 0.87624 1.26423
 C2613 C 1.08659 0.88477 1.24406
 C2614 C 1.09683 0.90331 1.23386
 C2615 C 1.11550 0.91340 1.24397
 C2616 C 1.12399 0.90488 1.26414
 C2617 C 1.08847 0.91169 1.21279
 C2618 C 1.08163 0.91854 1.19502
 H2619 H 1.08714 0.86180 1.27190
 H2620 H 1.07218 0.87681 1.23635
 H2621 H 1.12357 0.92772 1.23620
 H2622 H 1.13853 0.91270 1.27174
 C2623 C 1.13129 0.36882 0.81097
 C2624 C 1.12346 0.37662 0.79401
 C2625 C 1.11429 0.38576 0.77361
 C2626 C 1.09542 0.37585 0.76370
 C2627 C 1.08685 0.38438 0.74356
 C2628 C 1.09711 0.40286 0.73326
 C2629 C 1.11590 0.41286 0.74325
 C2630 C 1.12447 0.40433 0.76338
 C2631 C 1.08866 0.41126 0.71225
 C2632 C 1.08175 0.41816 0.69452
 H2633 H 1.08745 0.36146 0.77144
 H2634 H 1.07235 0.37649 0.73596
 H2635 H 1.12399 0.42713 0.73540
 H2636 H 1.13909 0.41209 0.77088
 C2637 C 0.63021 0.86986 0.81157
 C2638 C 0.62241 0.87770 0.79461
 C2639 C 0.61329 0.88687 0.77421
 C2640 C 0.59442 0.87700 0.76425
 C2641 C 0.58594 0.88554 0.74408
 C2642 C 0.59629 0.90397 0.73379
 C2643 C 0.61507 0.91393 0.74382
 C2644 C 0.62355 0.90540 0.76399
 C2645 C 0.58796 0.91234 0.71271
 C2646 C 0.58114 0.91918 0.69493
 H2647 H 0.58639 0.86264 0.77199
 H2648 H 0.57144 0.87767 0.73644
 H2649 H 0.62324 0.92816 0.73598
 H2650 H 0.63818 0.91313 0.77152
 C2651 C 0.63114 0.36808 1.31143
 C2652 C 0.62330 0.37595 1.29450
 C2653 C 0.61413 0.38519 1.27414
 C2654 C 0.62425 0.40387 1.26407
 C2655 C 0.61569 0.41250 1.24397
 C2656 C 0.59698 0.40248 1.23386
 C2657 C 0.58678 0.38388 1.24401
 C2658 C 0.59534 0.37525 1.26411
 C2659 C 0.58855 0.41098 1.21288
 C2660 C 0.58165 0.41794 1.19517
 H2661 H 0.63882 0.41165 1.27166
 H2662 H 0.62374 0.42686 1.23624
 H2663 H 0.57234 0.37597 1.23631
 H2664 H 0.58742 0.36077 1.27173
 C2665 C 0.87038 1.12967 1.31203
 C2666 C 0.87817 1.12191 1.29505
 C2667 C 0.88724 1.11284 1.27460
 C2668 C 0.90574 1.12310 1.26435
 C2669 C 0.91416 1.11466 1.24413
 C2670 C 0.90411 1.09594 1.23409
 C2671 C 0.88571 1.08558 1.24442
 C2672 C 0.87729 1.09402 1.26464
 C2673 C 0.91237 1.08765 1.21298
 C2674 C 0.91914 1.08087 1.19516
 H2675 H 0.91353 1.13769 1.27188
 H2676 H 0.92837 1.12282 1.23625
 H2677 H 0.87778 1.07112 1.23678
 H2678 H 0.86294 1.08599 1.27240
 C2679 C 0.86963 0.63031 0.81126
 C2680 C 0.87742 0.62254 0.79429
 C2681 C 0.88654 0.61345 0.77386
 C2682 C 0.90495 0.62380 0.76354
 C2683 C 0.91345 0.61531 0.74338
 C2684 C 0.90356 0.59643 0.73345
 C2685 C 0.88524 0.58600 0.74385
 C2686 C 0.87674 0.59449 0.76401
 C2687 C 0.91192 0.58807 0.71241
 C2688 C 0.91877 0.58121 0.69465
 H2689 H 0.91262 0.63850 0.77099
 H2690 H 0.92759 0.62354 0.73545
 H2691 H 0.87744 0.57142 0.73629
 H2692 H 0.86247 0.58638 0.77183
 C2693 C 0.36950 1.13153 0.81126
 C2694 C 0.37727 1.12371 0.79430
 C2695 C 0.38635 1.11453 0.77390
 C2696 C 0.37665 1.09542 0.76424
 C2697 C 0.38510 1.08683 0.74410
 C2698 C 0.40330 1.09732 0.73353
 C2699 C 0.41309 1.11635 0.74326
 C2700 C 0.40463 1.12493 0.76340
 C2701 C 0.41161 1.08886 0.71249
 C2702 C 0.41843 1.08196 0.69475
 H2703 H 0.36247 1.08727 0.77219
 H2704 H 0.37737 1.07214 0.73669
 H2705 H 0.42713 1.12462 0.73520
 H2706 H 0.41223 1.13974 0.77070
 C2707 C 0.36943 0.63196 1.31113
 C2708 C 0.37725 0.62401 1.29425
 C2709 C 0.38634 0.61464 1.27393
 C2710 C 0.37651 0.59557 1.26433
 C2711 C 0.38496 0.58682 1.24427
 C2712 C 0.40329 0.59709 1.23372
 C2713 C 0.41321 0.61608 1.24339
 C2714 C 0.40476 0.62484 1.26346
 C2715 C 0.41161 0.58846 1.21276
 C2716 C 0.41845 0.58144 1.19507
 H2717 H 0.36223 0.58759 1.27227
 H2718 H 0.37713 0.57216 1.23690
 H2719 H 0.42736 0.62419 1.23535
 H2720 H 0.41245 0.63962 1.27071
 C2721 C 1.13076 1.31100 0.86842
 C2722 C 1.12296 1.29407 0.87628
 C2723 C 1.11384 1.27370 0.88550
 C2724 C 1.12396 1.26366 0.90422
 C2725 C 1.11544 1.24356 0.91285
 C2726 C 1.09677 1.23342 0.90279
 C2727 C 1.08657 1.24353 0.88415
 C2728 C 1.09509 1.26363 0.87553
 C2729 C 1.08837 1.21244 0.91128
 C2730 C 1.08148 1.19473 0.91823
 H2731 H 1.13849 1.27128 0.91203
 H2732 H 1.12348 1.23586 0.92723
 H2733 H 1.07215 1.23581 0.87622
 H2734 H 1.08717 1.27123 0.86102
 C2735 C 1.13029 0.81138 0.36900
 C2736 C 1.12253 0.79439 0.37678
 C2737 C 1.11344 0.77396 0.38589
 C2738 C 1.12358 0.76382 0.40454
 C2739 C 1.11510 0.74364 0.41303
 C2740 C 1.09645 0.73353 0.40290
 C2741 C 1.08622 0.74375 0.38433
 C2742 C 1.09470 0.76392 0.37584
 C2743 C 1.08809 0.71248 0.41126
 C2744 C 1.08125 0.69472 0.41812
 H2745 H 1.13810 0.77141 0.41240
 H2746 H 1.12316 0.73586 0.42736
 H2747 H 1.07183 0.73604 0.37635
 H2748 H 1.08677 0.77160 0.36138
 C2749 C 0.63112 1.31129 0.36837
 C2750 C 0.62327 1.29439 0.37626
 C2751 C 0.61407 1.27406 0.38549
 C2752 C 0.59528 1.26405 0.37551
 C2753 C 0.58670 1.24397 0.38413
 C2754 C 0.59686 1.23382 0.40276
 C2755 C 0.61556 1.24390 0.41283
 C2756 C 0.62414 1.26398 0.40421
 C2757 C 0.58841 1.21284 0.41124
 C2758 C 0.58149 1.19515 0.41819
 H2759 H 0.58739 1.27167 0.36100
 H2760 H 0.57227 1.23629 0.37618
 H2761 H 0.62358 1.23617 0.42721
 H2762 H 0.63870 1.27156 0.41203
 C2763 C 0.63032 0.81136 0.86986
 C2764 C 0.62255 0.79438 0.87764
 C2765 C 0.61346 0.77394 0.88673
 C2766 C 0.62322 0.76411 0.90575
 C2767 C 0.61475 0.74393 0.91423
 C2768 C 0.59650 0.73349 0.90372
 C2769 C 0.58666 0.74339 0.88478
 C2770 C 0.59512 0.76357 0.87630
 C2771 C 0.58817 0.71242 0.91208
 C2772 C 0.58134 0.69465 0.91892
 H2773 H 0.63744 0.77197 0.91390
 H2774 H 0.62252 0.73639 0.92885
 H2775 H 0.57257 0.73543 0.87650
 H2776 H 0.58748 0.77100 0.86156
 C2777 C 0.86991 1.31114 1.13107
 C2778 C 0.87768 1.29420 1.12322
 C2779 C 0.88675 1.27381 1.11402
 C2780 C 0.87659 1.26380 1.09532
 C2781 C 0.88502 1.24365 1.08675
 C2782 C 0.90365 1.23343 1.09683
 C2783 C 0.91390 1.24352 1.11544
 C2784 C 0.90546 1.26367 1.12401
 C2785 C 0.91195 1.21239 1.08840
 C2786 C 0.91876 1.19464 1.08151
 H2787 H 0.86207 1.27147 1.08750
 H2788 H 0.87694 1.23597 1.07239
 H2789 H 0.92828 1.23573 1.12339
 H2790 H 0.91341 1.27124 1.13850
 C2791 C 0.86963 0.81130 0.63009
 C2792 C 0.87740 0.79433 0.62229
 C2793 C 0.88650 0.77391 0.61318
 C2794 C 0.87624 0.76367 0.59468
 C2795 C 0.88473 0.74350 0.58620
 C2796 C 0.90352 0.73351 0.59620
 C2797 C 0.91388 0.74382 0.61461
 C2798 C 0.90538 0.76399 0.62309
 C2799 C 0.91189 0.71246 0.58786
 C2800 C 0.91874 0.69470 0.58104
 H2801 H 0.86160 0.77118 0.58693
 H2802 H 0.87657 0.73564 0.57199
 H2803 H 0.92839 0.73621 0.62250
 H2804 H 0.91342 0.77174 0.63744
 C2805 C 0.36921 1.31157 0.63094
 C2806 C 0.37700 1.29462 0.62311
 C2807 C 0.38609 1.27423 0.61393
 C2808 C 0.40483 1.26414 0.62393
 C2809 C 0.41332 1.24400 0.61537
 C2810 C 0.40309 1.23389 0.59677
 C2811 C 0.38444 1.24405 0.58669
 C2812 C 0.37595 1.26418 0.59525
 C2813 C 0.41145 1.21287 0.58833
 C2814 C 0.41832 1.19515 0.58142
 H2815 H 0.41277 1.27174 0.63842
 H2816 H 0.42772 1.23626 0.62332
 H2817 H 0.37637 1.23634 0.57233
 H2818 H 0.36142 1.27182 0.58742
 C2819 C 0.36970 0.81102 1.13153
 C2820 C 0.37746 0.79408 1.12367
 C2821 C 0.38651 0.77369 1.11445
 C2822 C 0.37639 0.76372 1.09572
 C2823 C 0.38483 0.74359 1.08711
 C2824 C 0.40344 0.73334 1.09721
 C2825 C 0.41365 0.74338 1.11586
 C2826 C 0.40520 0.76351 1.12447
 C2827 C 0.41175 0.71232 1.08874
 C2828 C 0.41857 0.69458 1.08183
 H2829 H 0.36190 0.77143 1.08788
 H2830 H 0.37678 0.73595 1.07271
 H2831 H 0.42801 0.73557 1.12383
 H2832 H 0.41313 0.77105 1.13899
 C2833 C 0.86963 0.68862 0.86965
 C2834 C 0.87744 0.70557 0.87743
 C2835 C 0.88659 0.72597 0.88652
 C2836 C 0.90519 0.73610 0.87633
 C2837 C 0.91372 0.75625 0.88480
 C2838 C 0.90367 0.76635 0.90350
 C2839 C 0.88515 0.75615 0.91378
 C2840 C 0.87663 0.73600 0.90531
 C2841 C 0.91205 0.78740 0.91184
 C2842 C 0.91890 0.80515 0.91867
 H2843 H 0.91299 0.72852 0.86176
 H2844 H 0.92801 0.76403 0.87669
 H2845 H 0.87722 0.76384 0.92822
 H2846 H 0.86220 0.72833 0.91329
 C2847 C 0.87022 0.18796 0.37041
 C2848 C 0.87797 0.20495 0.37817
 C2849 C 0.88703 0.22540 0.38721
 C2850 C 0.87680 0.23564 0.40574
 C2851 C 0.88522 0.25587 0.41412
 C2852 C 0.90390 0.26595 0.40400
 C2853 C 0.91422 0.25563 0.38557
 C2854 C 0.90581 0.23540 0.37719
 C2855 C 0.91217 0.28707 0.41222
 C2856 C 0.91894 0.30490 0.41894
 H2857 H 0.86225 0.22808 0.41358
 H2858 H 0.87708 0.26374 0.42835
 H2859 H 0.92864 0.26331 0.37759
 H2860 H 0.91381 0.22765 0.36282
 C2861 C 0.36868 0.68938 0.36891
 C2862 C 0.37650 0.70629 0.37678
 C2863 C 0.38564 0.72665 0.38599
 C2864 C 0.37551 0.73673 0.40466
 C2865 C 0.38404 0.75684 0.41324
 C2866 C 0.40273 0.76695 0.40318
 C2867 C 0.41295 0.75679 0.38460
 C2868 C 0.40442 0.73669 0.37602
 C2869 C 0.41114 0.78795 0.41162
 C2870 C 0.41803 0.80566 0.41852
 H2871 H 0.36095 0.72914 0.41246
 H2872 H 0.37598 0.76457 0.42758
 H2873 H 0.42738 0.76449 0.37666
 H2874 H 0.41236 0.72906 0.36155
 C2875 C 0.36896 0.18878 0.86920
 C2876 C 0.37676 0.20571 0.87705
 C2877 C 0.38590 0.22608 0.88623
 C2878 C 0.37582 0.23613 0.90496
 C2879 C 0.38436 0.25623 0.91353
 C2880 C 0.40300 0.26638 0.90341
 C2881 C 0.41316 0.25626 0.88478
 C2882 C 0.40462 0.23616 0.87621
 C2883 C 0.41141 0.28737 0.91185
 C2884 C 0.41832 0.30508 0.91875
 H2885 H 0.36130 0.22850 0.91281
 H2886 H 0.37634 0.26394 0.92791
 H2887 H 0.42755 0.26399 0.87680
 H2888 H 0.41251 0.22856 0.86170
 C2889 C 1.13151 0.68904 1.13204
 C2890 C 1.12372 0.70598 1.12415
 C2891 C 1.11461 0.72634 1.11488
 C2892 C 1.12478 0.73639 1.09620
 C2893 C 1.11626 0.75649 1.08754
 C2894 C 1.09753 0.76661 1.09751
 C2895 C 1.08727 0.75649 1.11610
 C2896 C 1.09579 0.73639 1.12477
 C2897 C 1.08911 0.78758 1.08895
 C2898 C 1.08220 0.80527 1.08196
 H2899 H 1.13936 0.72879 1.08846
 H2900 H 1.12434 0.76419 1.07318
 H2901 H 1.07281 0.76419 1.12396
 H2902 H 1.08782 0.72879 1.13924
 C2903 C 1.13035 0.18826 0.63038
 C2904 C 1.12256 0.20523 0.62257
 C2905 C 1.11348 0.22566 0.61342
 C2906 C 1.12356 0.23570 0.59469
 C2907 C 1.11511 0.25587 0.58616
 C2908 C 1.09653 0.26609 0.59633
 C2909 C 1.08636 0.25597 0.61497
 C2910 C 1.09482 0.23580 0.62350
 C2911 C 1.08822 0.28715 0.58795
 C2912 C 1.08140 0.30493 0.58109
 H2913 H 1.13803 0.22802 0.58680
 H2914 H 1.12313 0.26358 0.57177
 H2915 H 1.07203 0.26375 0.62299
 H2916 H 1.08693 0.22820 0.63802
 C2917 C 0.63067 0.68913 0.63051
 C2918 C 0.62283 0.70608 0.62272
 C2919 C 0.61365 0.72648 0.61362
 C2920 C 0.59516 0.73670 0.62396
 C2921 C 0.58662 0.75686 0.61549
 C2922 C 0.59652 0.76688 0.59666
 C2923 C 0.61491 0.75659 0.58624
 C2924 C 0.62346 0.73643 0.59470
 C2925 C 0.58812 0.78794 0.58833
 C2926 C 0.58125 0.80570 0.58150
 H2927 H 0.58749 0.72917 0.63863
 H2928 H 0.57243 0.76470 0.62370
 H2929 H 0.62272 0.76423 0.57169
 H2930 H 0.63778 0.72870 0.58662
 C2931 C 0.63121 0.18847 1.13069
 C2932 C 0.62337 0.20543 1.12290
 C2933 C 0.61415 0.22583 1.11384
 C2934 C 0.59533 0.23571 1.12388
 C2935 C 0.58672 0.25586 1.11545
 C2936 C 0.59690 0.26621 1.09695
 C2937 C 0.61564 0.25626 1.08682
 C2938 C 0.62425 0.23611 1.09525
 C2939 C 0.58843 0.28725 1.08865
 C2940 C 0.58150 0.30500 1.08183
 H2941 H 0.58743 0.22793 1.13829
 H2942 H 0.57226 0.26344 1.12343
 H2943 H 0.62367 0.26415 1.07253
 H2944 H 0.63884 0.22863 1.08739
 C2945 C 1.31123 1.13135 0.86968
 C2946 C 1.29430 1.12347 0.87746
 C2947 C 1.27392 1.11424 0.88653
 C2948 C 1.26390 1.09558 0.87635
 C2949 C 1.24377 1.08697 0.88479
 C2950 C 1.23357 1.09700 0.90345
 C2951 C 1.24366 1.11557 0.91372
 C2952 C 1.26380 1.12418 0.90528
 C2953 C 1.21254 1.08853 0.91176
 C2954 C 1.19481 1.08161 0.91857
 H2955 H 1.27156 1.08779 0.86181
 H2956 H 1.23608 1.07263 0.87669
 H2957 H 1.23589 1.12349 0.92813
 H2958 H 1.27137 1.13865 0.91325
 C2959 C 1.31051 0.63235 0.36885
 C2960 C 1.29341 0.62459 0.37635
 C2961 C 1.27281 0.61546 0.38502
 C2962 C 1.27271 0.60358 0.40534
 C2963 C 1.25261 0.59483 0.41374
 C2964 C 1.23255 0.59793 0.40185
 C2965 C 1.23268 0.60977 0.38153
 C2966 C 1.25276 0.61852 0.37313
 C2967 C 1.21180 0.58913 0.41050
 C2968 C 1.19426 0.58197 0.41757
 H2969 H 1.28812 0.60113 0.41467
 H2970 H 1.25269 0.58571 0.42948
 H2971 H 1.21726 0.61228 0.37221
 H2972 H 1.25265 0.62767 0.35741
 C2973 C 0.81175 1.12974 0.37007
 C2974 C 0.79467 1.12200 0.37764
 C2975 C 0.77409 1.11294 0.38640
 C2976 C 0.75796 1.10420 0.37171
 C2977 C 0.73772 1.09584 0.38011
 C2978 C 0.73352 1.09618 0.40324
 C2979 C 0.74969 1.10481 0.41797
 C2980 C 0.76995 1.11318 0.40956
 C2981 C 0.71246 1.08803 0.41176
 C2982 C 0.69468 1.08133 0.41867
 H2983 H 0.76098 1.10397 0.35377
 H2984 H 0.72531 1.08924 0.36858
 H2985 H 0.74659 1.10519 0.43588
 H2986 H 0.78229 1.11994 0.42106
 C2987 C 0.81133 0.63021 0.86970
 C2988 C 0.79439 0.62240 0.87751
 C2989 C 0.77400 0.61326 0.88664
 C2990 C 0.76378 0.59474 0.87639
 C2991 C 0.74362 0.58624 0.88488
 C2992 C 0.73360 0.59623 0.90366
 C2993 C 0.74390 0.61465 0.91401
 C2994 C 0.76406 0.62315 0.90551
 C2995 C 0.71255 0.58788 0.91201
 C2996 C 0.69479 0.58105 0.91884
 H2997 H 0.77130 0.58700 0.86176
 H2998 H 0.73577 0.57202 0.87672
 H2999 H 0.73627 0.62253 0.92851
 H3000 H 0.77180 0.63750 0.91354
 C3001 C 1.31140 0.86941 1.13148
 C3002 C 1.29445 0.87722 1.12365
 C3003 C 1.27406 0.88636 1.11450
 C3004 C 1.26185 0.90236 1.12666
 C3005 C 1.24174 0.91084 1.11804
 C3006 C 1.23374 0.90337 1.09722
 C3007 C 1.24601 0.88747 1.08500
 C3008 C 1.26613 0.87899 1.09362
 C3009 C 1.21275 0.91169 1.08866
 C3010 C 1.19503 0.91853 1.08168
 H3011 H 1.26780 0.90814 1.14284
 H3012 H 1.23236 0.92309 1.12765
 H3013 H 1.23995 0.88154 1.06892
 H3014 H 1.27541 0.86659 1.08411
 C3015 C 1.31138 0.36892 0.63041
 C3016 C 1.29443 0.37675 0.62260
 C3017 C 1.27404 0.38592 0.61347
 C3018 C 1.26381 0.40441 0.62376
 C3019 C 1.24367 0.41296 0.61524
 C3020 C 1.23370 0.40305 0.59639
 C3021 C 1.24401 0.38466 0.58601
 C3022 C 1.26414 0.37611 0.59454
 C3023 C 1.21267 0.41146 0.58801
 C3024 C 1.19493 0.41834 0.58114
 H3025 H 1.27129 0.41209 0.63844
 H3026 H 1.23581 0.42716 0.62342
 H3027 H 1.23642 0.37684 0.57146
 H3028 H 1.27190 0.36177 0.58648
 C3029 C 0.81137 0.86978 0.63022
 C3030 C 0.79441 0.87765 0.62251
 C3031 C 0.77398 0.88689 0.61353
 C3032 C 0.76129 0.90198 0.62633
 C3033 C 0.74113 0.91052 0.61787
 C3034 C 0.73358 0.90401 0.59658
 C3035 C 0.74634 0.88904 0.58371
 C3036 C 0.76650 0.88049 0.59217
 C3037 C 0.71254 0.91235 0.58816
 C3038 C 0.69477 0.91918 0.58130
 H3039 H 0.76690 0.90700 0.64288
 H3040 H 0.73138 0.92205 0.62798
 H3041 H 0.74062 0.88386 0.56724
 H3042 H 0.77616 0.86880 0.58215
 C3043 C 0.81144 0.36936 1.13116
 C3044 C 0.79447 0.37711 1.12334
 C3045 C 0.77405 0.38617 1.11417
 C3046 C 0.76385 0.40479 1.12427
 C3047 C 0.74369 0.41324 1.11572
 C3048 C 0.73364 0.40311 1.09704
 C3049 C 0.74391 0.38457 1.08685
 C3050 C 0.76407 0.37612 1.09540
 C3051 C 0.71259 0.41143 1.08862
 C3052 C 0.69484 0.41825 1.08174
 H3053 H 0.77140 0.41266 1.13882
 H3054 H 0.73587 0.42755 1.12375
 H3055 H 0.73625 0.37658 1.07243
 H3056 H 0.77179 0.36169 1.08750
 C3057 C 0.68895 1.13099 1.13025
 C3058 C 0.70589 1.12309 1.12251
 C3059 C 0.72628 1.11383 1.11350
 C3060 C 0.73720 1.09628 1.12473
 C3061 C 0.75734 1.08767 1.11631
 C3062 C 0.76664 1.09657 1.09663
 C3063 C 0.75565 1.11402 1.08531
 C3064 C 0.73551 1.12263 1.09373
 C3065 C 0.78768 1.08813 1.08831
 C3066 C 0.80543 1.08125 1.08149
 H3067 H 0.73024 1.08938 1.14005
 H3068 H 0.76573 1.07421 1.12522
 H3069 H 0.76272 1.12106 1.07011
 H3070 H 0.72723 1.13623 1.08495
 C3071 C 0.68894 0.63067 0.63030
 C3072 C 0.70583 0.62280 0.62243
 C3073 C 0.72617 0.61360 0.61326
 C3074 C 0.73637 0.62377 0.59466
 C3075 C 0.75650 0.61522 0.58616
 C3076 C 0.76652 0.59647 0.59623
 C3077 C 0.75624 0.58621 0.61473
 C3078 C 0.73611 0.59475 0.62322
 C3079 C 0.78757 0.58809 0.58791
 C3080 C 0.80534 0.58123 0.58110
 H3081 H 0.72885 0.63838 0.58686
 H3082 H 0.76434 0.62332 0.57188
 H3083 H 0.76387 0.57173 0.62266
 H3084 H 0.72839 0.58679 0.63764
 C3085 C 0.18821 1.13094 0.62988
 C3086 C 0.20518 1.12314 0.62212
 C3087 C 0.22560 1.11401 0.61306
 C3088 C 0.23554 1.09519 0.62306
 C3089 C 0.25572 1.08668 0.61464
 C3090 C 0.26604 1.09696 0.59618
 C3091 C 0.25603 1.11570 0.58608
 C3092 C 0.23585 1.12421 0.59450
 C3093 C 0.28712 1.08860 0.58790
 C3094 C 0.30490 1.08175 0.58112
 H3095 H 0.22778 1.08721 0.63745
 H3096 H 0.26335 1.07221 0.62260
 H3097 H 0.26390 1.12381 0.57182
 H3098 H 0.22833 1.13880 0.58667
 C3099 C 0.18926 0.63159 1.13159
 C3100 C 0.20617 0.62371 1.12377
 C3101 C 0.22651 0.61445 1.11461
 C3102 C 0.23658 0.62443 1.09585
 C3103 C 0.25665 0.61578 1.08729
 C3104 C 0.26673 0.59712 1.09747
 C3105 C 0.25658 0.58706 1.11615
 C3106 C 0.23651 0.59571 1.12470
 C3107 C 0.28768 0.58859 1.08903
 C3108 C 0.30536 0.58162 1.08210
 H3109 H 0.22901 0.63896 1.08794
 H3110 H 0.26438 0.62372 1.07287
 H3111 H 0.26425 0.57265 1.12417
 H3112 H 0.22888 0.58789 1.13925
 C3113 C 0.68871 0.86966 0.86981
 C3114 C 0.70570 0.87742 0.87757
 C3115 C 0.72614 0.88650 0.88665
 C3116 C 0.73618 0.90523 0.87658
 C3117 C 0.75636 0.91370 0.88504
 C3118 C 0.76658 0.90348 0.90360
 C3119 C 0.75647 0.88484 0.91375
 C3120 C 0.73629 0.87636 0.90529
 C3121 C 0.78765 0.91182 0.91192
 C3122 C 0.80542 0.91865 0.91873
 H3123 H 0.72850 0.91317 0.86212
 H3124 H 0.76406 0.92810 0.87703
 H3125 H 0.76426 0.87678 0.92808
 H3126 H 0.72869 0.86184 0.91317
 C3127 C 0.68911 0.36848 0.36867
 C3128 C 0.70606 0.37629 0.37645
 C3129 C 0.72645 0.38547 0.38556
 C3130 C 0.73710 0.40346 0.37478
 C3131 C 0.75719 0.41205 0.38333
 C3132 C 0.76673 0.40268 0.40269
 C3133 C 0.75602 0.38477 0.41354
 C3134 C 0.73592 0.37619 0.40499
 C3135 C 0.78769 0.41116 0.41116
 C3136 C 0.80537 0.41810 0.41811
 H3137 H 0.72994 0.41074 0.35972
 H3138 H 0.76536 0.42587 0.37478
 H3139 H 0.76328 0.37738 0.42850
 H3140 H 0.72786 0.36225 0.41343
 C3141 C 0.18851 0.86985 0.36909
 C3142 C 0.20545 0.87769 0.37690
 C3143 C 0.22582 0.88687 0.38602
 C3144 C 0.23723 0.90390 0.37448
 C3145 C 0.25735 0.91242 0.38303
 C3146 C 0.26615 0.90395 0.40314
 C3147 C 0.25467 0.88703 0.41475
 C3148 C 0.23455 0.87850 0.40620
 C3149 C 0.28717 0.91229 0.41158
 C3150 C 0.30491 0.91912 0.41849
 H3151 H 0.23066 0.91045 0.35884
 H3152 H 0.26612 0.92547 0.37389
 H3153 H 0.26135 0.88033 0.43028
 H3154 H 0.22588 0.86531 0.41523
 C3155 C 0.18900 0.36942 0.86849
 C3156 C 0.20591 0.37722 0.87639
 C3157 C 0.22626 0.38633 0.88566
 C3158 C 0.23712 0.40420 0.87491
 C3159 C 0.25722 0.41265 0.88358
 C3160 C 0.26654 0.40327 0.90304
 C3161 C 0.25560 0.38550 0.91388
 C3162 C 0.23550 0.37704 0.90520
 C3163 C 0.28752 0.41157 0.91161
 C3164 C 0.30524 0.41839 0.91859
 H3165 H 0.23015 0.41147 0.85976
 H3166 H 0.26556 0.42637 0.87504
 H3167 H 0.26268 0.37809 0.92891
 H3168 H 0.22726 0.36319 0.91362
   
