data_POSCAR
  _audit_creation_date              2014-09-24
  _audit_creation_method            'ToBaCCo'
  _symmetry_space_group_name_H-M    'P1'
  _symmetry_Int_Tables_number       1
  _symmetry_cell_setting            triclinic
  loop_
  _symmetry_equiv_pos_as_xyz
 x,y,z
_cell_length_a 74.5170
_cell_length_b 75.6438
_cell_length_c 74.4488
_cell_angle_alpha 89.978100
_cell_angle_beta 90.061300
_cell_angle_gamma 89.934800
loop_
  _atom_site_label
  _atom_site_type_symbol
  _atom_site_fract_x
  _atom_site_fract_y
  _atom_site_fract_z
C1 C 0.32215 0.44821 0.92656
 C2 C 0.31444 0.45473 0.91068
 C3 C 0.29925 0.44658 0.90314
 C4 C 0.29161 0.43191 0.91185
 C5 C 0.29913 0.42530 0.92778
 C6 C 0.31447 0.43347 0.93516
 C7 C 0.33763 0.45604 0.93374
 C8 C 0.34587 0.44934 0.94947
 C9 C 0.33775 0.43469 0.95805
 C10 C 0.32228 0.42673 0.95098
 C11 C 0.31480 0.41178 0.95924
 C12 C 0.29965 0.40339 0.95185
 C13 C 0.29180 0.41037 0.93619
 H14 H 0.32060 0.46584 0.90388
 H15 H 0.27981 0.42564 0.90622
 H16 H 0.34286 0.46770 0.92716
 H17 H 0.34390 0.42866 0.96971
 H18 H 0.32083 0.40659 0.97141
 H19 H 0.28031 0.40384 0.93022
 C20 C 0.44887 0.82687 0.42595
 C21 C 0.45627 0.84203 0.43389
 C22 C 0.44850 0.84975 0.44936
 C23 C 0.43322 0.84146 0.45686
 C24 C 0.42571 0.82632 0.44903
 C25 C 0.43352 0.81899 0.43352
 C26 C 0.45637 0.81972 0.41026
 C27 C 0.44871 0.80480 0.40199
 C28 C 0.43350 0.79691 0.40976
 C29 C 0.42585 0.80391 0.42543
 C30 C 0.41039 0.79631 0.43290
 C31 C 0.40243 0.80362 0.44833
 C32 C 0.41030 0.81853 0.45640
 H33 H 0.46753 0.84824 0.42725
 H34 H 0.42729 0.84639 0.46913
 H35 H 0.46820 0.82577 0.40447
 H36 H 0.42734 0.78557 0.40334
 H37 H 0.40427 0.78499 0.42642
 H38 H 0.40437 0.82412 0.46841
 C39 C 0.95146 0.92494 0.82266
 C40 C 0.95887 0.90967 0.81490
 C41 C 0.95103 0.90172 0.79958
 C42 C 0.93575 0.90994 0.79197
 C43 C 0.92825 0.92518 0.79960
 C44 C 0.93612 0.93271 0.81501
 C45 C 0.95901 0.93227 0.83825
 C46 C 0.95142 0.94735 0.84656
 C47 C 0.93613 0.95509 0.83845
 C48 C 0.92846 0.94787 0.82289
 C49 C 0.91288 0.95530 0.81541
 C50 C 0.90484 0.94776 0.80014
 C51 C 0.91276 0.93282 0.79220
 H52 H 0.97016 0.90352 0.82160
 H53 H 0.92977 0.90486 0.77977
 H54 H 0.97115 0.92635 0.84351
 H55 H 0.92941 0.96620 0.84466
 H56 H 0.90672 0.96667 0.82177
 H57 H 0.90677 0.92704 0.78030
 C58 C 0.45281 -0.07256 0.32210
 C59 C 0.45987 -0.08801 0.31449
 C60 C 0.45178 -0.09573 0.29934
 C61 C 0.43673 -0.08753 0.29153
 C62 C 0.42955 -0.07201 0.29895
 C63 C 0.43759 -0.06451 0.31433
 C64 C 0.46045 -0.06531 0.33766
 C65 C 0.45295 -0.05022 0.34573
 C66 C 0.43793 -0.04211 0.33776
 C67 C 0.43017 -0.04920 0.32218
 C68 C 0.41475 -0.04155 0.31468
 C69 C 0.40648 -0.04908 0.29952
 C70 C 0.41409 -0.06422 0.29162
 H71 H 0.47159 -0.09415 0.32049
 H72 H 0.43024 -0.09354 0.28002
 H73 H 0.47214 -0.07154 0.34361
 H74 H 0.43188 -0.03065 0.34406
 H75 H 0.40906 -0.02978 0.32075
 H76 H 0.40764 -0.07030 0.28013
 C77 C 0.82056 0.30084 0.32114
 C78 C 0.81211 0.29376 0.33634
 C79 C 0.79670 0.30182 0.34355
 C80 C 0.78957 0.31692 0.33512
 C81 C 0.79787 0.32415 0.31989
 C82 C 0.81346 0.31611 0.31289
 C83 C 0.83629 0.29316 0.31438
 C84 C 0.84515 0.30060 0.29952
 C85 C 0.83787 0.31572 0.29123
 C86 C 0.82215 0.32355 0.29786
 C87 C 0.81526 0.33899 0.29000
 C88 C 0.79983 0.34719 0.29702
 C89 C 0.79113 0.33957 0.31187
 H90 H 0.81789 0.28231 0.34294
 H91 H 0.77761 0.32313 0.34049
 H92 H 0.84172 0.28142 0.32073
 H93 H 0.84477 0.32171 0.27996
 H94 H 0.82196 0.34468 0.27845
 H95 H 0.77942 0.34596 0.31756
 C96 C -0.19939 0.82539 0.82205
 C97 C -0.20641 0.84084 0.81437
 C98 C -0.19794 0.84916 0.79961
 C99 C -0.18239 0.84105 0.79241
 C100 C -0.17527 0.82552 0.79994
 C101 C -0.18376 0.81771 0.81486
 C102 C -0.20764 0.81771 0.83707
 C103 C -0.20031 0.80257 0.84523
 C104 C -0.18480 0.79485 0.83786
 C105 C -0.17647 0.80234 0.82278
 C106 C -0.16069 0.79496 0.81580
 C107 C -0.15197 0.80277 0.80106
 C108 C -0.15944 0.81799 0.79312
 H109 H -0.21881 0.84603 0.81979
 H110 H -0.17508 0.84721 0.78153
 H111 H -0.21970 0.82364 0.84256
 H112 H -0.17887 0.78335 0.84421
 H113 H -0.15516 0.78312 0.82188
 H114 H -0.15266 0.82424 0.78192
 C115 C 0.92569 0.32600 0.44970
 C116 C 0.93296 0.34137 0.45728
 C117 C 0.94807 0.34980 0.44964
 C118 C 0.95601 0.34194 0.43431
 C119 C 0.94886 0.32653 0.42662
 C120 C 0.93363 0.31854 0.43432
 C121 C 0.91036 0.31815 0.45715
 C122 C 0.90265 0.30308 0.44926
 C123 C 0.91075 0.29560 0.43399
 C124 C 0.92616 0.30324 0.42646
 C125 C 0.93393 0.29609 0.41093
 C126 C 0.94903 0.30405 0.40304
 C127 C 0.95648 0.31922 0.41105
 H128 H 0.92694 0.34638 0.46948
 H129 H 0.96718 0.34822 0.42759
 H130 H 0.90432 0.32388 0.46905
 H131 H 0.90475 0.28414 0.42765
 H132 H 0.92790 0.28459 0.40469
 H133 H 0.96822 0.32535 0.40514
 C134 C 0.42602 0.44600 0.82387
 C135 C 0.43346 0.45355 0.83939
 C136 C 0.44871 0.44605 0.84755
 C137 C 0.45669 0.43104 0.83978
 C138 C 0.44938 0.42332 0.82432
 C139 C 0.43397 0.43079 0.81632
 C140 C 0.41047 0.45313 0.81606
 C141 C 0.40268 0.44522 0.80084
 C142 C 0.41080 0.43015 0.79331
 C143 C 0.42634 0.42286 0.80096
 C144 C 0.43411 0.40752 0.79376
 C145 C 0.44935 0.39988 0.80179
 C146 C 0.45701 0.40800 0.81696
 H147 H 0.42706 0.46497 0.84544
 H148 H 0.46857 0.42529 0.84586
 H149 H 0.40414 0.46456 0.82214
 H150 H 0.40498 0.42407 0.78148
 H151 H 0.42795 0.40120 0.78224
 H152 H 0.46888 0.40232 0.82312
 C153 C 0.82403 0.92516 0.94991
 C154 C 0.81613 0.91010 0.95760
 C155 C 0.80066 0.90224 0.94999
 C156 C 0.79306 0.91034 0.93462
 C157 C 0.80084 0.92535 0.92682
 C158 C 0.81637 0.93280 0.93448
 C159 C 0.83974 0.93244 0.95726
 C160 C 0.84812 0.94735 0.94943
 C161 C 0.84002 0.95493 0.93404
 C162 C 0.82436 0.94776 0.92655
 C163 C 0.81687 0.95505 0.91090
 C164 C 0.80146 0.94759 0.90306
 C165 C 0.79342 0.93285 0.91125
 H166 H 0.82282 0.90405 0.96896
 H167 H 0.78076 0.90534 0.92880
 H168 H 0.84501 0.92665 0.96947
 H169 H 0.84629 0.96587 0.92712
 H170 H 0.82331 0.96626 0.90454
 H171 H 0.78142 0.92714 0.90542
 C172 C 0.32230 0.82364 0.29993
 C173 C 0.31459 0.83871 0.29207
 C174 C 0.29913 0.84677 0.29950
 C175 C 0.29134 0.83885 0.31484
 C176 C 0.29897 0.82385 0.32287
 C177 C 0.31452 0.81622 0.31543
 C178 C 0.33806 0.81622 0.29286
 C179 C 0.34618 0.80151 0.30112
 C180 C 0.33818 0.79407 0.31645
 C181 C 0.32246 0.80135 0.32369
 C182 C 0.31483 0.79425 0.33932
 C183 C 0.29939 0.80190 0.34692
 C184 C 0.29144 0.81657 0.33847
 H185 H 0.32141 0.84461 0.28073
 H186 H 0.27903 0.84400 0.32050
 H187 H 0.34430 0.82221 0.28121
 H188 H 0.34423 0.78262 0.32279
 H189 H 0.32123 0.78312 0.34589
 H190 H 0.27943 0.82243 0.34414
 C191 C 0.82166 0.42687 0.45023
 C192 C 0.81391 0.41192 0.45822
 C193 C 0.79868 0.40388 0.45062
 C194 C 0.79094 0.41128 0.43511
 C195 C 0.79849 0.42628 0.42702
 C196 C 0.81393 0.43410 0.43460
 C197 C 0.83722 0.43445 0.45749
 C198 C 0.84557 0.44916 0.44927
 C199 C 0.83743 0.45638 0.43373
 C200 C 0.82182 0.44894 0.42637
 C201 C 0.81430 0.45581 0.41054
 C202 C 0.79902 0.44800 0.40279
 C203 C 0.79112 0.43331 0.41122
 H204 H 0.81984 0.40641 0.47029
 H205 H 0.77938 0.40502 0.42897
 H206 H 0.84245 0.42897 0.46986
 H207 H 0.84365 0.46722 0.42658
 H208 H 0.82065 0.46696 0.40396
 H209 H 0.77924 0.42731 0.40544
 C210 C 0.95097 0.82528 -0.07252
 C211 C 0.95817 0.84064 -0.06476
 C212 C 0.95030 0.84816 -0.04938
 C213 C 0.93533 0.83989 -0.04157
 C214 C 0.92801 0.82456 -0.04917
 C215 C 0.93585 0.81721 -0.06471
 C216 C 0.95849 0.81810 -0.08818
 C217 C 0.95110 0.80292 -0.09646
 C218 C 0.93601 0.79493 -0.08825
 C219 C 0.92836 0.80198 -0.07259
 C220 C 0.91296 0.79433 -0.06502
 C221 C 0.90492 0.80173 -0.04967
 C222 C 0.91271 0.81673 -0.04170
 H223 H 0.96954 0.84707 -0.07103
 H224 H 0.92930 0.84548 -0.02960
 H225 H 0.97047 0.82424 -0.09351
 H226 H 0.92942 0.78375 -0.09445
 H227 H 0.90689 0.78293 -0.07140
 H228 H 0.90675 0.82240 -0.02974
 C229 C 0.32336 0.32233 0.80011
 C230 C 0.31626 0.33754 0.79198
 C231 C 0.30072 0.34567 0.79885
 C232 C 0.29215 0.33822 0.81387
 C233 C 0.29910 0.32303 0.82217
 C234 C 0.31477 0.31505 0.81529
 C235 C 0.33915 0.31452 0.79357
 C236 C 0.34658 0.29960 0.80209
 C237 C 0.33783 0.29234 0.81711
 C238 C 0.32204 0.29999 0.82378
 C239 C 0.31367 0.29306 0.83910
 C240 C 0.29817 0.30106 0.84618
 C241 C 0.29088 0.31596 0.83751
 H242 H 0.32286 0.34311 0.78031
 H243 H 0.28037 0.34457 0.81946
 H244 H 0.34595 0.32037 0.78217
 H245 H 0.34336 0.28074 0.82364
 H246 H 0.31957 0.28176 0.84586
 H247 H 0.27885 0.32212 0.84279
 C248 C 0.17880 0.54926 0.56978
 C249 C 0.16302 0.54220 0.56241
 C250 C 0.15493 0.55005 0.54729
 C251 C 0.16307 0.56487 0.53933
 C252 C 0.17879 0.57212 0.54659
 C253 C 0.18669 0.56432 0.56189
 C254 C 0.18648 0.54187 0.58528
 C255 C 0.20188 0.54939 0.59310
 C256 C 0.20977 0.56428 0.58500
 C257 C 0.20225 0.57184 0.56952
 C258 C 0.20970 0.58713 0.56191
 C259 C 0.20172 0.59513 0.54682
 C260 C 0.18641 0.58737 0.53910
 H261 H 0.15669 0.53094 0.56880
 H262 H 0.15704 0.57090 0.52757
 H263 H 0.18011 0.53060 0.59161
 H264 H 0.22173 0.57007 0.59084
 H265 H 0.22133 0.59317 0.56814
 H266 H 0.18028 0.59334 0.52736
 C267 C 0.57173 0.70032 0.07088
 C268 C 0.58764 0.70724 0.06374
 C269 C 0.59600 0.69920 0.04890
 C270 C 0.58803 0.68423 0.04101
 C271 C 0.57208 0.67715 0.04799
 C272 C 0.56391 0.68522 0.06299
 C273 C 0.56381 0.70795 0.08612
 C274 C 0.54822 0.70061 0.09369
 C275 C 0.54032 0.68578 0.08553
 C276 C 0.54812 0.67798 0.07035
 C277 C 0.54065 0.66272 0.06276
 C278 C 0.54888 0.65436 0.04805
 C279 C 0.56449 0.66180 0.04059
 H280 H 0.59359 0.71887 0.06980
 H281 H 0.59453 0.67777 0.02977
 H282 H 0.57016 0.71922 0.09248
 H283 H 0.52818 0.68015 0.09115
 H284 H 0.52849 0.65722 0.06845
 H285 H 0.57107 0.65532 0.02941
 C286 C 0.70183 0.17667 0.67705
 C287 C 0.70862 0.18410 0.66119
 C288 C 0.70016 0.19874 0.65315
 C289 C 0.68496 0.20617 0.66143
 C290 C 0.67808 0.19894 0.67736
 C291 C 0.68655 0.18411 0.68518
 C292 C 0.70995 0.16169 0.68466
 C293 C 0.70292 0.15365 0.70030
 C294 C 0.68775 0.16154 0.70844
 C295 C 0.67953 0.17654 0.70096
 C296 C 0.66403 0.18374 0.70875
 C297 C 0.65533 0.19835 0.70092
 C298 C 0.66257 0.20598 0.68529
 H299 H 0.72045 0.17841 0.65500
 H300 H 0.67818 0.21728 0.65519
 H301 H 0.72202 0.15665 0.67843
 H302 H 0.68147 0.15554 0.72003
 H303 H 0.65865 0.17791 0.72090
 H304 H 0.65582 0.21707 0.67899
 C305 C 1.07307 0.05099 0.17808
 C306 C 1.08868 0.04381 0.18575
 C307 C 1.09655 0.05160 0.20098
 C308 C 1.08836 0.06648 0.20877
 C309 C 1.07275 0.07378 0.20126
 C310 C 1.06508 0.06602 0.18584
 C311 C 1.06563 0.04355 0.16253
 C312 C 1.05029 0.05098 0.15421
 C313 C 1.04230 0.06594 0.16240
 C314 C 1.04960 0.07349 0.17801
 C315 C 1.04200 0.08878 0.18556
 C316 C 1.04971 0.09672 0.20082
 C317 C 1.06496 0.08897 0.20870
 H318 H 1.09506 0.03251 0.17948
 H319 H 1.09423 0.07247 0.22062
 H320 H 1.07172 0.03163 0.15728
 H321 H 1.03095 0.07249 0.15621
 H322 H 1.03041 0.09482 0.17924
 H323 H 1.07087 0.09485 0.22059
 C324 C 0.04745 0.17738 1.07083
 C325 C 0.03998 0.16227 1.06294
 C326 C 0.04826 0.15384 1.04814
 C327 C 0.06403 0.16159 1.04102
 C328 C 0.07158 0.17680 1.04875
 C329 C 0.06331 0.18467 1.06377
 C330 C 0.03946 0.18506 1.08600
 C331 C 0.04730 0.19977 1.09445
 C332 C 0.06302 0.20712 1.08718
 C333 C 0.07109 0.19964 1.07195
 C334 C 0.08710 0.20661 1.06510
 C335 C 0.09559 0.19874 1.05026
 C336 C 0.08765 0.18392 1.04206
 H337 H 0.02743 0.15740 1.06829
 H338 H 0.07119 0.15534 1.03010
 H339 H 0.02723 0.17942 1.09141
 H340 H 0.06933 0.21829 1.09375
 H341 H 0.09301 0.21815 1.07138
 H342 H 0.09426 0.17761 1.03079
 C343 C 0.18046 0.67646 0.70367
 C344 C 0.16499 0.68406 0.71108
 C345 C 0.15704 0.69903 0.70318
 C346 C 0.16510 0.70670 0.68798
 C347 C 0.18066 0.69929 0.68046
 C348 C 0.18833 0.68406 0.68829
 C349 C 0.18785 0.66105 0.71110
 C350 C 0.20287 0.65291 0.70321
 C351 C 0.21084 0.66072 0.68803
 C352 C 0.20362 0.67619 0.68049
 C353 C 0.21111 0.68357 0.66493
 C354 C 0.20343 0.69864 0.65691
 C355 C 0.18829 0.70650 0.66487
 H356 H 0.15899 0.67817 0.72291
 H357 H 0.15891 0.71808 0.68163
 H358 H 0.18175 0.65524 0.72291
 H359 H 0.22225 0.65440 0.68169
 H360 H 0.22287 0.67751 0.65897
 H361 H 0.18208 0.71791 0.65861
 C362 C 1.20075 0.17500 0.17885
 C363 C 1.20815 0.15967 0.18649
 C364 C 1.20042 0.15171 0.20184
 C365 C 1.18525 0.15997 0.20960
 C366 C 1.17772 0.17527 0.20206
 C367 C 1.18545 0.18281 0.18661
 C368 C 1.20813 0.18232 0.16319
 C369 C 1.20037 0.19732 0.15514
 C370 C 1.18523 0.20516 0.16311
 C371 C 1.17770 0.19799 0.17875
 C372 C 1.16222 0.20544 0.18635
 C373 C 1.15432 0.19789 0.20169
 C374 C 1.16231 0.18293 0.20958
 H375 H 1.21935 0.15352 0.17968
 H376 H 1.17936 0.15485 0.22182
 H377 H 1.21991 0.17631 0.15722
 H378 H 1.17898 0.21654 0.15684
 H379 H 1.15600 0.21680 0.18000
 H380 H 1.15642 0.17715 0.22151
 C381 C 0.67917 1.07430 0.54793
 C382 C 0.66358 1.06678 0.54064
 C383 C 0.65582 1.05167 0.54843
 C384 C 0.66407 1.04389 0.56348
 C385 C 0.67966 1.05124 0.57092
 C386 C 0.68720 1.06655 0.56316
 C387 C 0.68647 1.08977 0.54055
 C388 C 0.70172 1.09796 0.54824
 C389 C 0.70976 1.08975 0.56332
 C390 C 0.70257 1.07430 0.57083
 C391 C 0.71033 1.06671 0.58618
 C392 C 0.70275 1.05162 0.59418
 C393 C 0.68750 1.04387 0.58634
 H394 H 0.65740 1.07275 0.52893
 H395 H 0.65802 1.03242 0.56976
 H396 H 0.67946 1.09587 0.52942
 H397 H 0.72192 1.09504 0.56917
 H398 H 0.72219 1.07267 0.59204
 H399 H 0.68138 1.03242 0.59257
 C400 C 0.54705 0.57375 0.17961
 C401 C 0.53946 0.56643 0.16405
 C402 C 0.54714 0.55145 0.15590
 C403 C 0.56238 0.54359 0.16374
 C404 C 0.57011 0.55074 0.17932
 C405 C 0.56244 0.56590 0.18727
 C406 C 0.53981 0.58912 0.18730
 C407 C 0.54784 0.59686 0.20248
 C408 C 0.56299 0.58877 0.21021
 C409 C 0.57040 0.57344 0.20265
 C410 C 0.58596 0.56585 0.20993
 C411 C 0.59388 0.55093 0.20191
 C412 C 0.58573 0.54334 0.18671
 H413 H 0.52763 0.57248 0.15819
 H414 H 0.56858 0.53224 0.15738
 H415 H 0.52830 0.59541 0.18106
 H416 H 0.56916 0.59454 0.22202
 H417 H 0.59204 0.57168 0.22176
 H418 H 0.59190 0.53201 0.18026
 C419 C 0.67826 0.69975 0.17751
 C420 C 0.66279 0.70731 0.18505
 C421 C 0.65495 0.69999 0.20055
 C422 C 0.66303 0.68521 0.20870
 C423 C 0.67843 0.67748 0.20128
 C424 C 0.68607 0.68473 0.18561
 C425 C 0.68570 0.70664 0.16169
 C426 C 0.70080 0.69865 0.15375
 C427 C 0.70859 0.68378 0.16202
 C428 C 0.70130 0.67673 0.17783
 C429 C 0.70870 0.66151 0.18569
 C430 C 0.70099 0.65406 0.20118
 C431 C 0.68599 0.66230 0.20902
 H432 H 0.65651 0.71853 0.17852
 H433 H 0.65721 0.67961 0.22077
 H434 H 0.67941 0.71791 0.15524
 H435 H 0.72032 0.67763 0.15608
 H436 H 0.72008 0.65510 0.17938
 H437 H 0.68008 0.65676 0.22106
 C438 C 0.17809 0.05125 1.07220
 C439 C 0.16299 0.04371 1.06391
 C440 C 0.15514 0.05144 1.04848
 C441 C 0.16334 0.06671 1.04125
 C442 C 0.17841 0.07435 1.04942
 C443 C 0.18581 0.06662 1.06496
 C444 C 0.18527 0.04381 1.08791
 C445 C 0.20010 0.05154 1.09681
 C446 C 0.20782 0.06687 1.08912
 C447 C 0.20076 0.07443 1.07340
 C448 C 0.20811 0.09004 1.06632
 C449 C 0.20067 0.09795 1.05091
 C450 C 0.18596 0.08985 1.04242
 H451 H 0.15685 0.03239 1.07032
 H452 H 0.15835 0.07263 1.02899
 H453 H 0.17943 0.03164 1.09281
 H454 H 0.21874 0.07366 1.09576
 H455 H 0.21929 0.09632 1.07310
 H456 H 0.18029 0.09573 1.03040
 C457 C 0.57110 0.17748 0.54883
 C458 C 0.58662 0.18507 0.54149
 C459 C 0.59449 0.20003 0.54945
 C460 C 0.58636 0.20765 0.56463
 C461 C 0.57088 0.20018 0.57213
 C462 C 0.56322 0.18501 0.56426
 C463 C 0.56369 0.16213 0.54135
 C464 C 0.54860 0.15405 0.54917
 C465 C 0.54070 0.16176 0.56443
 C466 C 0.54793 0.17715 0.57206
 C467 C 0.54053 0.18442 0.58774
 C468 C 0.54827 0.19941 0.59579
 C469 C 0.56329 0.20735 0.58772
 H470 H 0.59295 0.17895 0.52995
 H471 H 0.59222 0.21930 0.57073
 H472 H 0.56977 0.15636 0.52949
 H473 H 0.52927 0.15545 0.57073
 H474 H 0.52912 0.17805 0.59402
 H475 H 0.56922 0.21902 0.59373
 C476 C 0.06981 0.54917 0.67895
 C477 C 0.08541 0.54140 0.68595
 C478 C 0.09408 0.54872 0.70100
 C479 C 0.08669 0.56378 0.70927
 C480 C 0.07108 0.57170 0.70242
 C481 C 0.06261 0.56440 0.68718
 C482 C 0.06160 0.54223 0.66354
 C483 C 0.04635 0.55040 0.65607
 C484 C 0.03913 0.56546 0.66448
 C485 C 0.04718 0.57254 0.67992
 C486 C 0.04035 0.58793 0.68792
 C487 C 0.04881 0.59543 0.70300
 C488 C 0.06409 0.58710 0.71026
 H489 H 0.09090 0.52969 0.67960
 H490 H 0.09344 0.56969 0.72069
 H491 H 0.06746 0.53082 0.65698
 H492 H 0.02729 0.57176 0.65891
 H493 H 0.02877 0.59442 0.68203
 H494 H 0.07061 0.59269 0.72197
 C495 C 0.67829 0.57331 0.04646
 C496 C 0.66278 0.56572 0.03912
 C497 C 0.65499 0.55067 0.04698
 C498 C 0.66321 0.54295 0.06209
 C499 C 0.67879 0.55035 0.06955
 C500 C 0.68633 0.56563 0.06174
 C501 C 0.68556 0.58877 0.03906
 C502 C 0.70068 0.59683 0.04685
 C503 C 0.70879 0.58896 0.06193
 C504 C 0.70168 0.57347 0.06946
 C505 C 0.70933 0.56604 0.08493
 C506 C 0.70176 0.55095 0.09295
 C507 C 0.68659 0.54308 0.08505
 H508 H 0.65664 0.57165 0.02736
 H509 H 0.65714 0.53152 0.06843
 H510 H 0.67933 0.59465 0.02732
 H511 H 0.72027 0.59523 0.06820
 H512 H 0.72112 0.57209 0.09083
 H513 H 0.68047 0.53164 0.09131
 C514 C 0.04734 0.67797 0.57037
 C515 C 0.03999 0.68524 0.58606
 C516 C 0.04797 0.69999 0.59434
 C517 C 0.06327 0.70767 0.58651
 C518 C 0.07076 0.70057 0.57080
 C519 C 0.06279 0.68564 0.56271
 C520 C 0.03982 0.66281 0.56256
 C521 C 0.04762 0.65509 0.54726
 C522 C 0.06283 0.66302 0.53952
 C523 C 0.07052 0.67813 0.54721
 C524 C 0.08615 0.68552 0.53994
 C525 C 0.09437 0.70020 0.54809
 C526 C 0.08645 0.70778 0.56342
 H527 H 0.02812 0.67933 0.59192
 H528 H 0.06970 0.71883 0.59297
 H529 H 0.02827 0.65664 0.56879
 H530 H 0.06883 0.65727 0.52762
 H531 H 0.09206 0.67971 0.52802
 H532 H 0.09285 0.71891 0.56996
 C533 C 0.54690 1.07033 0.68098
 C534 C 0.53906 1.06275 0.66569
 C535 C 0.54680 1.04786 0.65718
 C536 C 0.56236 1.04036 0.66503
 C537 C 0.57029 1.04782 0.68036
 C538 C 0.56260 1.06291 0.68832
 C539 C 0.53948 1.08556 0.68874
 C540 C 0.54775 1.09373 0.70355
 C541 C 0.56333 1.08613 0.71094
 C542 C 0.57083 1.07080 0.70341
 C543 C 0.58676 1.06358 0.71033
 C544 C 0.59466 1.04865 0.70231
 C545 C 0.58620 1.04075 0.68744
 H546 H 0.52668 1.06843 0.66072
 H547 H 0.56915 1.02936 0.65870
 H548 H 0.52735 1.09122 0.68308
 H549 H 0.56997 1.09247 0.72218
 H550 H 0.59333 1.06994 0.72160
 H551 H 0.59210 1.02913 0.68130
 C552 C 0.42704 0.32481 0.95128
 C553 C 0.43406 0.34042 0.95865
 C554 C 0.44915 0.34888 0.95096
 C555 C 0.45724 0.34088 0.93581
 C556 C 0.45033 0.32531 0.92830
 C557 C 0.43517 0.31725 0.93603
 C558 C 0.41162 0.31696 0.95861
 C559 C 0.40421 0.30165 0.95086
 C560 C 0.41261 0.29404 0.93583
 C561 C 0.42796 0.30176 0.92833
 C562 C 0.43594 0.29448 0.91297
 C563 C 0.45099 0.30253 0.90507
 C564 C 0.45820 0.31785 0.91295
 H565 H 0.42699 0.34636 0.96981
 H566 H 0.46929 0.34639 0.92995
 H567 H 0.40508 0.32306 0.97003
 H568 H 0.40712 0.28213 0.92990
 H569 H 0.43009 0.28284 0.90682
 H570 H 0.46991 0.32404 0.90704
 C571 C 0.92633 0.44774 0.32331
 C572 C 0.93390 0.45531 0.33877
 C573 C 0.94926 0.44785 0.34706
 C574 C 0.95706 0.43275 0.33900
 C575 C 0.94958 0.42504 0.32360
 C576 C 0.93416 0.43252 0.31573
 C577 C 0.91070 0.45488 0.31564
 C578 C 0.90276 0.44696 0.30050
 C579 C 0.91080 0.43190 0.29290
 C580 C 0.92639 0.42460 0.30043
 C581 C 0.93409 0.40927 0.29314
 C582 C 0.94941 0.40165 0.30102
 C583 C 0.95718 0.40975 0.31613
 H584 H 0.92707 0.46646 0.34478
 H585 H 0.96928 0.42706 0.34434
 H586 H 0.90444 0.46632 0.32175
 H587 H 0.90488 0.42582 0.28112
 H588 H 0.92783 0.40297 0.28166
 H589 H 0.96910 0.40405 0.32217
 C590 C 0.32365 0.94741 0.42757
 C591 C 0.31569 0.95465 0.41213
 C592 C 0.30033 0.94688 0.40448
 C593 C 0.29279 0.93186 0.41266
 C594 C 0.30062 0.92445 0.42806
 C595 C 0.31614 0.93222 0.43551
 C596 C 0.33931 0.95484 0.43482
 C597 C 0.34789 0.94728 0.44997
 C598 C 0.33993 0.93220 0.45788
 C599 C 0.32431 0.92463 0.45073
 C600 C 0.31693 0.90936 0.45844
 C601 C 0.30160 0.90139 0.45099
 C602 C 0.29342 0.90914 0.43588
 H603 H 0.32176 0.96605 0.40575
 H604 H 0.28086 0.92588 0.40697
 H605 H 0.34523 0.96598 0.42790
 H606 H 0.34550 0.92643 0.46997
 H607 H 0.32320 0.90359 0.47021
 H608 H 0.28176 0.90294 0.42986
 O609 O 0.20223 0.52098 0.74771
 O610 O 0.20780 0.51779 0.77835
 O611 O 0.24971 0.54525 0.72692
 O612 O 0.27920 0.53968 0.72635
 O613 O 0.22704 0.49973 0.70048
 O614 O 0.22807 0.46876 0.70638
 O615 O 0.29649 0.49560 0.77254
 O616 O 0.29183 0.52583 0.76960
 O617 O 0.25062 0.47365 0.79497
 O618 O 0.21836 0.47519 0.78844
 O619 O 0.27269 0.45113 0.74895
 O620 O 0.27195 0.45790 0.71696
 O621 O 0.29653 0.47483 0.75035
 O622 O 0.29019 0.47758 0.71696
 O623 O 0.25095 0.45066 0.77039
 O624 O 0.21787 0.45756 0.76812
 O625 O 0.27270 0.49442 0.79556
 O626 O 0.26709 0.52660 0.79038
 O627 O 0.20198 0.49981 0.72587
 O628 O 0.20845 0.46830 0.72664
 O629 O 0.24885 0.52081 0.70103
 O630 O 0.28127 0.51741 0.70851
 O631 O 0.22757 0.54490 0.74801
 O632 O 0.23131 0.53708 0.78025
 Zr633 Zr 0.22821 0.51906 0.75861
 O634 O 0.24357 0.50266 0.77556
 Zr635 Zr 0.25985 0.51928 0.72708
 O636 O 0.27678 0.50343 0.74304
 Zr637 Zr 0.22794 0.48859 0.72638
 O638 O 0.24372 0.47110 0.74178
 Zr639 Zr 0.27088 0.50696 0.77038
 O640 O 0.25561 0.52471 0.75453
 Zr641 Zr 0.23923 0.47597 0.76919
 O642 O 0.22206 0.49229 0.75373
 Zr643 Zr 0.27110 0.47670 0.73799
 O644 O 0.25531 0.49257 0.72060
 O645 O 0.23268 0.51517 0.73134
 O646 O 0.26652 0.48022 0.76530
 C647 C 0.19456 0.51221 0.73508
 C648 C 0.23705 0.55259 0.73592
 C649 C 0.23628 0.51213 0.69320
 C650 C 0.30385 0.48307 0.76355
 C651 C 0.26364 0.48180 0.80262
 C652 C 0.26389 0.44358 0.76159
 H653 H 0.24065 0.50529 0.78824
 H654 H 0.24080 0.45878 0.73847
 H655 H 0.22514 0.52299 0.72380
 H656 H 0.28946 0.50638 0.74054
 H657 H 0.28628 0.53718 0.76598
 H658 H 0.28830 0.53679 0.73555
 H659 H 0.22009 0.44952 0.75789
 H660 H 0.20231 0.46905 0.73840
 H661 H 0.27726 0.52581 0.79895
 H662 H 0.22189 0.54632 0.77930
 H663 H 0.26056 0.45120 0.71726
 H664 H 0.24016 0.46900 0.70089
 H665 H 0.20263 0.50576 0.77771
 H666 H 0.21937 0.48593 0.79596
 H667 H 0.27901 0.50681 0.70107
 H668 H 0.29878 0.48718 0.71967
 O669 O 0.25173 -0.02444 0.29725
 O670 O 0.22104 -0.02170 0.29150
 O671 O 0.27335 -0.04775 0.24972
 O672 O 0.27372 -0.04192 0.22019
 O673 O 0.29863 -0.00201 0.27293
 O674 O 0.29211 0.02883 0.27241
 O675 O 0.22712 0.00158 0.20306
 O676 O 0.23047 -0.02862 0.20742
 O677 O 0.20397 0.02269 0.24912
 O678 O 0.21019 0.02080 0.28141
 O679 O 0.24963 0.04626 0.22775
 O680 O 0.28176 0.03993 0.22858
 O681 O 0.24884 0.02279 0.20345
 O682 O 0.28210 0.02065 0.20994
 O683 O 0.22816 0.04608 0.24946
 O684 O 0.23020 0.03867 0.28241
 O685 O 0.20389 0.00221 0.22672
 O686 O 0.20955 -0.02996 0.23199
 O687 O 0.27321 -0.00296 0.29791
 O688 O 0.27176 0.02863 0.29190
 O689 O 0.29867 -0.02286 0.25086
 O690 O 0.29130 -0.01932 0.21847
 O691 O 0.25206 -0.04802 0.27167
 O692 O 0.21972 -0.04079 0.26773
 Zr693 Zr 0.24094 -0.02240 0.27122
 O694 O 0.22380 -0.00612 0.25595
 Zr695 Zr 0.27265 -0.02171 0.23976
 O696 O 0.25652 -0.00591 0.22293
 Zr697 Zr 0.27255 0.00862 0.27210
 O698 O 0.25695 0.02603 0.25644
 Zr699 Zr 0.22923 -0.00998 0.22859
 O700 O 0.24530 -0.02765 0.24375
 Zr701 Zr 0.22964 0.02060 0.26071
 O702 O 0.24528 0.00437 0.27778
 Zr703 Zr 0.26102 0.02084 0.22898
 O704 O 0.27858 0.00507 0.24469
 O705 O 0.26814 -0.01797 0.26697
 O706 O 0.23377 0.01679 0.23335
 C707 C 0.26419 -0.01561 0.30510
 C708 C 0.26441 -0.05537 0.26226
 C709 C 0.30622 -0.01414 0.26358
 C710 C 0.23591 0.01435 0.19590
 C711 C 0.19656 0.01461 0.23591
 C712 C 0.23690 0.05351 0.23669
 H713 H 0.21116 -0.00900 0.25874
 H714 H 0.26002 0.03835 0.25957
 H715 H 0.27580 -0.02572 0.27446
 H716 H 0.25916 -0.00866 0.21022
 H717 H 0.23429 -0.03996 0.21287
 H718 H 0.26470 -0.03893 0.21093
 H719 H 0.24037 0.04685 0.28048
 H720 H 0.26005 0.02750 0.29806
 H721 H 0.20104 -0.02917 0.22177
 H722 H 0.22078 -0.05010 0.27707
 H723 H 0.28114 0.04661 0.23998
 H724 H 0.29766 0.02889 0.26033
 H725 H 0.22146 -0.00975 0.29688
 H726 H 0.20293 0.00992 0.28022
 H727 H 0.29843 -0.00853 0.22082
 H728 H 0.27975 0.01097 0.20132
 O729 O 0.54752 0.72828 0.24800
 O730 O 0.54201 0.73117 0.27869
 O731 O 0.50016 0.70401 0.22700
 O732 O 0.47061 0.70945 0.22654
 O733 O 0.52252 0.74986 0.20094
 O734 O 0.52142 0.78076 0.20713
 O735 O 0.45319 0.75297 0.27291
 O736 O 0.45810 0.72280 0.26987
 O737 O 0.49890 0.77516 0.29555
 O738 O 0.53125 0.77355 0.28922
 O739 O 0.47691 0.79789 0.24978
 O740 O 0.47756 0.79133 0.21773
 O741 O 0.45306 0.77406 0.25101
 O742 O 0.45931 0.77167 0.21764
 O743 O 0.49883 0.79823 0.27109
 O744 O 0.53183 0.79129 0.26901
 O745 O 0.47689 0.75432 0.29596
 O746 O 0.48280 0.72216 0.29073
 O747 O 0.54765 0.74959 0.22627
 O748 O 0.54110 0.78107 0.22739
 O749 O 0.50080 0.72870 0.20132
 O750 O 0.46841 0.73183 0.20883
 O751 O 0.52232 0.70425 0.24811
 O752 O 0.51859 0.71176 0.28041
 Zr753 Zr 0.52157 0.72998 0.25894
 O754 O 0.50618 0.74618 0.27603
 Zr755 Zr 0.48987 0.72993 0.22739
 O756 O 0.47292 0.74559 0.24347
 Zr757 Zr 0.52167 0.76073 0.22694
 O758 O 0.50586 0.77803 0.24249
 Zr759 Zr 0.47888 0.74184 0.27078
 O760 O 0.49418 0.72427 0.25480
 Zr761 Zr 0.51044 0.77291 0.26985
 O762 O 0.52763 0.75681 0.25426
 Zr763 Zr 0.47848 0.77239 0.23864
 O764 O 0.49430 0.75671 0.22113
 O765 O 0.51703 0.73410 0.23169
 O766 O 0.48314 0.76864 0.26592
 C767 C 0.55512 0.73715 0.23540
 C768 C 0.51287 0.69663 0.23595
 C769 C 0.51331 0.73751 0.19357
 C770 C 0.44577 0.76558 0.26407
 C771 C 0.48584 0.76699 0.30309
 C772 C 0.48587 0.80538 0.26237
 H773 H 0.50911 0.74347 0.28869
 H774 H 0.50876 0.79037 0.23927
 H775 H 0.52457 0.72637 0.22407
 H776 H 0.46025 0.74261 0.24093
 H777 H 0.46374 0.71151 0.26620
 H778 H 0.46151 0.71225 0.23576
 H779 H 0.52972 0.79931 0.25872
 H780 H 0.54736 0.78015 0.23909
 H781 H 0.47263 0.72287 0.29929
 H782 H 0.52806 0.70258 0.27939
 H783 H 0.48890 0.79810 0.21812
 H784 H 0.50932 0.78052 0.20163
 H785 H 0.54707 0.74326 0.27820
 H786 H 0.53016 0.76282 0.29674
 H787 H 0.47056 0.74256 0.20153
 H788 H 0.45082 0.76195 0.22021
 O789 O 0.04899 0.72656 0.75001
 O790 O 0.04331 0.72954 0.78069
 O791 O 0.00167 0.70235 0.72886
 O792 O -0.02792 0.70784 0.72858
 O793 O 0.02414 0.74796 0.70271
 O794 O 0.02320 0.77892 0.70879
 O795 O -0.04531 0.75193 0.77451
 O796 O -0.04066 0.72167 0.77156
 O797 O 0.00051 0.77376 0.79720
 O798 O 0.03287 0.77197 0.79087
 O799 O -0.02123 0.79644 0.75123
 O800 O -0.02041 0.78961 0.71905
 O801 O -0.04524 0.77284 0.75244
 O802 O -0.03902 0.77032 0.71923
 O803 O 0.00055 0.79679 0.77268
 O804 O 0.03350 0.78972 0.77065
 O805 O -0.02162 0.75304 0.79765
 O806 O -0.01601 0.72086 0.79250
 O807 O 0.04926 0.74773 0.72815
 O808 O 0.04288 0.77918 0.72901
 O809 O 0.00228 0.72693 0.70314
 O810 O -0.03002 0.73014 0.71057
 O811 O 0.02376 0.70260 0.75005
 O812 O 0.01981 0.71020 0.78232
 Zr813 Zr 0.02299 0.72836 0.76082
 O814 O 0.00762 0.74472 0.77778
 Zr815 Zr -0.00862 0.72829 0.72921
 O816 O -0.02554 0.74415 0.74513
 Zr817 Zr 0.02332 0.75896 0.72867
 O818 O 0.00759 0.77642 0.74411
 Zr819 Zr -0.01970 0.74052 0.77248
 O820 O -0.00443 0.72277 0.75665
 Zr821 Zr 0.01205 0.77141 0.77151
 O822 O 0.02919 0.75515 0.75603
 Zr823 Zr -0.01979 0.77090 0.74019
 O824 O -0.00405 0.75502 0.72281
 O825 O 0.01855 0.73238 0.73354
 O826 O -0.01525 0.76727 0.76751
 C827 C 0.05667 0.73534 0.73740
 C828 C 0.01436 0.69498 0.73785
 C829 C 0.01484 0.73565 0.69536
 C830 C -0.05262 0.76454 0.76556
 C831 C -0.01258 0.76565 0.80477
 C832 C -0.01234 0.80395 0.76386
 H833 H 0.01050 0.74203 0.79046
 H834 H 0.01057 0.78874 0.74084
 H835 H 0.02609 0.72461 0.72596
 H836 H -0.03822 0.74126 0.74258
 H837 H -0.03510 0.71031 0.76795
 H838 H -0.03722 0.71093 0.73750
 H839 H 0.03145 0.79770 0.76033
 H840 H 0.04900 0.77840 0.74079
 H841 H -0.02621 0.72165 0.80100
 H842 H 0.02926 0.70099 0.78139
 H843 H -0.00922 0.79660 0.71971
 H844 H 0.01111 0.77870 0.70325
 H845 H 0.04849 0.74157 0.78013
 H846 H 0.03165 0.76133 0.79849
 H847 H -0.02792 0.74092 0.70334
 H848 H -0.04741 0.76049 0.72169
 O849 O 0.00139 0.04800 0.02169
 O850 O -0.02926 0.04191 0.01933
 O851 O 0.02359 0.00252 0.04749
 O852 O 0.02447 -0.02675 0.04292
 O853 O 0.04848 0.02354 -0.00013
 O854 O 0.04178 0.02148 -0.03143
 O855 O -0.02215 -0.04605 -0.00024
 O856 O -0.01859 -0.04037 0.03027
 O857 O -0.04599 -0.00217 -0.02365
 O858 O -0.04027 0.02983 -0.02317
 O859 O -0.00008 -0.02353 -0.04681
 O860 O 0.03205 -0.02210 -0.04051
 O861 O -0.00058 -0.04636 -0.02194
 O862 O 0.03263 -0.03963 -0.02013
 O863 O -0.02189 -0.00246 -0.04754
 O864 O -0.02039 0.03026 -0.04151
 O865 O -0.04564 -0.02317 -0.00174
 O866 O -0.03992 -0.01640 0.03060
 O867 O 0.02277 0.04787 -0.00024
 O868 O 0.02123 0.04054 -0.03196
 O869 O 0.04886 0.00280 0.02206
 O870 O 0.04194 -0.02926 0.02000
 O871 O 0.00209 0.02396 0.04690
 O872 O -0.03020 0.01942 0.03985
 Zr873 Zr -0.00911 0.02220 0.02093
 O874 O -0.02612 0.00623 0.00521
 Zr875 Zr 0.02300 -0.00843 0.02152
 O876 O 0.00705 -0.02589 0.00635
 Zr877 Zr 0.02236 0.02196 -0.01076
 O878 O 0.00685 0.00562 -0.02762
 Zr879 Zr -0.02028 -0.02043 0.01037
 O880 O -0.00436 -0.00452 0.02751
 Zr881 Zr -0.02050 0.00974 -0.02217
 O882 O -0.00499 0.02744 -0.00658
 Zr883 Zr 0.01135 -0.02108 -0.02110
 O884 O 0.02876 -0.00474 -0.00591
 O885 O 0.01813 0.01810 0.01649
 O886 O -0.01594 -0.01692 -0.01704
 C887 C 0.01373 0.05543 0.01230
 C888 C 0.01454 0.01510 0.05473
 C889 C 0.05623 0.01498 0.01260
 C890 C -0.01339 -0.05352 -0.01299
 C891 C -0.05315 -0.01488 -0.01477
 C892 C -0.01296 -0.01521 -0.05454
 H893 H -0.03879 0.00895 0.00808
 H894 H 0.00982 0.00818 -0.04029
 H895 H 0.02572 0.02589 0.02399
 H896 H 0.00987 -0.03823 0.00970
 H897 H -0.01487 -0.03443 0.04152
 H898 H 0.01556 -0.03608 0.04038
 H899 H -0.01016 0.02818 -0.04970
 H900 H 0.00941 0.04646 -0.03108
 H901 H -0.04825 -0.02661 0.03036
 H902 H -0.02925 0.02907 0.04883
 H903 H 0.03124 -0.01122 -0.04783
 H904 H 0.04759 0.00972 -0.03084
 H905 H -0.02899 0.04660 0.00691
 H906 H -0.04753 0.02898 -0.01209
 H907 H 0.04895 -0.02740 0.00888
 H908 H 0.03039 -0.04772 -0.00993
 O909 O -0.00100 0.54854 0.52261
 O910 O -0.03162 0.54264 0.51987
 O911 O 0.02071 0.50264 0.54814
 O912 O 0.02140 0.47341 0.54325
 O913 O 0.04620 0.52397 0.50097
 O914 O 0.03982 0.52231 0.46962
 O915 O -0.02489 0.45487 0.49936
 O916 O -0.02162 0.46016 0.52995
 O917 O -0.04823 0.49928 0.47628
 O918 O -0.04221 0.53119 0.47715
 O919 O -0.00231 0.47771 0.45333
 O920 O 0.02991 0.47898 0.45997
 O921 O -0.00306 0.45463 0.47792
 O922 O 0.03008 0.46109 0.48001
 O923 O -0.02397 0.49894 0.45263
 O924 O -0.02216 0.53160 0.45897
 O925 O -0.04822 0.47799 0.49792
 O926 O -0.04274 0.48428 0.53041
 O927 O 0.02055 0.54847 0.50084
 O928 O 0.01944 0.54146 0.46905
 O929 O 0.04625 0.50301 0.52294
 O930 O 0.03913 0.47104 0.52049
 O931 O -0.00068 0.52419 0.54753
 O932 O -0.03291 0.51993 0.54013
 Zr933 Zr -0.01160 0.52280 0.52145
 O934 O -0.02856 0.50712 0.50539
 Zr935 Zr 0.02030 0.49196 0.52204
 O936 O 0.00439 0.47478 0.50650
 Zr937 Zr 0.02017 0.52268 0.49007
 O938 O 0.00472 0.50664 0.47287
 Zr939 Zr -0.02295 0.48036 0.51030
 O940 O -0.00710 0.49598 0.52778
 Zr941 Zr -0.02264 0.51090 0.47811
 O942 O -0.00717 0.52831 0.49404
 Zr943 Zr 0.00897 0.47984 0.47914
 O944 O 0.02635 0.49588 0.49470
 O945 O 0.01565 0.51858 0.51724
 O946 O -0.01833 0.48414 0.48297
 C947 C 0.01143 0.55598 0.51336
 C948 C 0.01164 0.51518 0.55542
 C949 C 0.05379 0.51523 0.51366
 C950 C -0.01602 0.44745 0.48665
 C951 C -0.05557 0.48653 0.48495
 C952 C -0.01509 0.48617 0.44559
 H953 H -0.04123 0.50990 0.50817
 H954 H 0.00783 0.50930 0.46026
 H955 H 0.02322 0.52624 0.52489
 H956 H 0.00709 0.46238 0.50974
 H957 H -0.01792 0.46593 0.54131
 H958 H 0.01250 0.46413 0.54047
 H959 H -0.01194 0.52946 0.45078
 H960 H 0.00762 0.54741 0.46980
 H961 H -0.05116 0.47415 0.52994
 H962 H -0.03199 0.52948 0.54922
 H963 H 0.02906 0.48982 0.45258
 H964 H 0.04547 0.51046 0.47006
 H965 H -0.03117 0.54750 0.50754
 H966 H -0.04960 0.53027 0.48814
 H967 H 0.04622 0.47295 0.50942
 H968 H 0.02782 0.45306 0.49025
 O969 O 0.50077 0.04722 0.52406
 O970 O 0.47021 0.04128 0.52129
 O971 O 0.52262 0.00104 0.54910
 O972 O 0.52381 -0.02804 0.54381
 O973 O 0.54798 0.02320 0.50209
 O974 O 0.54164 0.02173 0.47075
 O975 O 0.47722 -0.04630 0.50000
 O976 O 0.48053 -0.04126 0.53060
 O977 O 0.45374 -0.00190 0.47720
 O978 O 0.45949 0.02999 0.47834
 O979 O 0.49986 -0.02293 0.45405
 O980 O 0.53184 -0.02184 0.46065
 O981 O 0.49895 -0.04627 0.47846
 O982 O 0.53224 -0.03966 0.48079
 O983 O 0.47809 -0.00181 0.45354
 O984 O 0.47964 0.03082 0.46030
 O985 O 0.45384 -0.02330 0.49872
 O986 O 0.45934 -0.01721 0.53128
 O987 O 0.52224 0.04748 0.50221
 O988 O 0.52107 0.04070 0.47031
 O989 O 0.54821 0.00205 0.52389
 O990 O 0.54126 -0.03006 0.52097
 O991 O 0.50116 0.02252 0.54874
 O992 O 0.46893 0.01835 0.54123
 Zr993 Zr 0.49026 0.02145 0.52262
 O994 O 0.47336 0.00585 0.50643
 Zr995 Zr 0.52235 -0.00923 0.52285
 O996 O 0.50646 -0.02636 0.50723
 Zr997 Zr 0.52198 0.02178 0.49120
 O998 O 0.50663 0.00578 0.47389
 Zr999 Zr 0.47910 -0.02090 0.51111
 O1000 O 0.49494 -0.00540 0.52869
 Zr1001 Zr 0.47925 0.00987 0.47917
 O1002 O 0.49462 0.02723 0.49526
 Zr1003 Zr 0.51100 -0.02106 0.47993
 O1004 O 0.52833 -0.00502 0.49555
 O1005 O 0.51753 0.01741 0.51835
 O1006 O 0.48369 -0.01690 0.48381
 C1007 C 0.51313 0.05481 0.51484
 C1008 C 0.51347 0.01343 0.55653
 C1009 C 0.55564 0.01443 0.51472
 C1010 C 0.48604 -0.05356 0.48716
 C1011 C 0.44647 -0.01473 0.48579
 C1012 C 0.48709 -0.01442 0.44637
 H1013 H 0.46068 0.00855 0.50923
 H1014 H 0.50973 0.00857 0.46131
 H1015 H 0.52504 0.02503 0.52609
 H1016 H 0.50921 -0.03877 0.51037
 H1017 H 0.48423 -0.03558 0.54199
 H1018 H 0.51465 -0.03711 0.54121
 H1019 H 0.48986 0.02880 0.45208
 H1020 H 0.50929 0.04670 0.47124
 H1021 H 0.45094 -0.02735 0.53073
 H1022 H 0.46985 0.02776 0.55047
 H1023 H 0.53130 -0.01070 0.45371
 H1024 H 0.54742 0.00994 0.47113
 H1025 H 0.47053 0.04615 0.50895
 H1026 H 0.45222 0.02903 0.48940
 H1027 H 0.54847 -0.02786 0.51003
 H1028 H 0.52980 -0.04801 0.49071
 O1029 O 0.50019 0.54835 0.02242
 O1030 O 0.46944 0.54285 0.01996
 O1031 O 0.52143 0.50247 0.04834
 O1032 O 0.52181 0.47321 0.04376
 O1033 O 0.54685 0.52304 0.00076
 O1034 O 0.54023 0.52105 -0.03055
 O1035 O 0.47492 0.45471 0.00051
 O1036 O 0.47844 0.46039 0.03100
 O1037 O 0.45199 0.49913 -0.02303
 O1038 O 0.45839 0.53100 -0.02255
 O1039 O 0.49746 0.47677 -0.04598
 O1040 O 0.52965 0.47767 -0.03968
 O1041 O 0.49661 0.45402 -0.02106
 O1042 O 0.52991 0.46019 -0.01927
 O1043 O 0.47608 0.49826 -0.04681
 O1044 O 0.47831 0.53096 -0.04088
 O1045 O 0.45187 0.47807 -0.00117
 O1046 O 0.45761 0.48476 0.03123
 O1047 O 0.52161 0.54782 0.00053
 O1048 O 0.52004 0.54048 -0.03119
 O1049 O 0.54679 0.50235 0.02299
 O1050 O 0.53927 0.47038 0.02088
 O1051 O 0.50031 0.52427 0.04763
 O1052 O 0.46797 0.52040 0.04047
 Zr1053 Zr 0.48919 0.52276 0.02163
 O1054 O 0.47192 0.50710 0.00587
 Zr1055 Zr 0.52073 0.49155 0.02236
 O1056 O 0.50448 0.47438 0.00715
 Zr1057 Zr 0.52075 0.52192 -0.00996
 O1058 O 0.50499 0.50586 -0.02685
 Zr1059 Zr 0.47723 0.48033 0.01107
 O1060 O 0.49341 0.49596 0.02824
 Zr1061 Zr 0.47772 0.51049 -0.02149
 O1062 O 0.49350 0.52791 -0.00586
 Zr1063 Zr 0.50895 0.47909 -0.02028
 O1064 O 0.52664 0.49511 -0.00506
 O1065 O 0.51636 0.51816 0.01729
 O1066 O 0.48174 0.48375 -0.01633
 C1067 C 0.51269 0.55555 0.01305
 C1068 C 0.51257 0.51520 0.05553
 C1069 C 0.55440 0.51439 0.01353
 C1070 C 0.48365 0.44706 -0.01216
 C1071 C 0.44456 0.48654 -0.01420
 C1072 C 0.48473 0.48528 -0.05374
 H1073 H 0.45931 0.51006 0.00869
 H1074 H 0.50804 0.50833 -0.03952
 H1075 H 0.52406 0.52581 0.02481
 H1076 H 0.50706 0.46200 0.01053
 H1077 H 0.48227 0.46626 0.04225
 H1078 H 0.51267 0.46408 0.04123
 H1079 H 0.48847 0.52863 -0.04908
 H1080 H 0.50832 0.54661 -0.03036
 H1081 H 0.44906 0.47473 0.03094
 H1082 H 0.46909 0.53002 0.04946
 H1083 H 0.52902 0.48853 -0.04705
 H1084 H 0.54577 0.50916 -0.02996
 H1085 H 0.46986 0.54755 0.00756
 H1086 H 0.45106 0.53029 -0.01150
 H1087 H 0.54640 0.47216 0.00982
 H1088 H 0.52756 0.45220 -0.00902
 O1089 O 0.74859 0.27459 0.45127
 O1090 O 0.71802 0.27189 0.45731
 O1091 O 0.77055 0.29814 0.49864
 O1092 O 0.77139 0.29239 0.52816
 O1093 O 0.79593 0.25257 0.47521
 O1094 O 0.78969 0.22166 0.47608
 O1095 O 0.72502 0.24889 0.54573
 O1096 O 0.72823 0.27905 0.54126
 O1097 O 0.70161 0.22753 0.49991
 O1098 O 0.70758 0.22931 0.46756
 O1099 O 0.74769 0.20418 0.52101
 O1100 O 0.77958 0.21050 0.52014
 O1101 O 0.74686 0.22775 0.54526
 O1102 O 0.78018 0.23009 0.53846
 O1103 O 0.72596 0.20417 0.49951
 O1104 O 0.72766 0.21147 0.46653
 O1105 O 0.70163 0.24815 0.52218
 O1106 O 0.70711 0.28030 0.51680
 O1107 O 0.77016 0.25315 0.45051
 O1108 O 0.76911 0.22159 0.45674
 O1109 O 0.79600 0.27340 0.49730
 O1110 O 0.78899 0.26986 0.52981
 O1111 O 0.74918 0.29833 0.47673
 O1112 O 0.71689 0.29103 0.48105
 Zr1113 Zr 0.73814 0.27268 0.47741
 O1114 O 0.72124 0.25637 0.49284
 Zr1115 Zr 0.77014 0.27214 0.50864
 O1116 O 0.75425 0.25639 0.52565
 Zr1117 Zr 0.76994 0.24174 0.47640
 O1118 O 0.75458 0.22434 0.49224
 Zr1119 Zr 0.72690 0.26036 0.52014
 O1120 O 0.74273 0.27803 0.50483
 Zr1121 Zr 0.72719 0.22963 0.48815
 O1122 O 0.74258 0.24588 0.47093
 Zr1123 Zr 0.75885 0.22965 0.51965
 O1124 O 0.77620 0.24539 0.50375
 O1125 O 0.76540 0.26833 0.48147
 O1126 O 0.73154 0.23357 0.51547
 C1127 C 0.76097 0.26571 0.44334
 C1128 C 0.76156 0.30572 0.48609
 C1129 C 0.80349 0.26478 0.48448
 C1130 C 0.73394 0.23617 0.55287
 C1131 C 0.69428 0.23570 0.51310
 C1132 C 0.73492 0.19683 0.51221
 H1133 H 0.70857 0.25920 0.49012
 H1134 H 0.75770 0.21202 0.48914
 H1135 H 0.77292 0.27608 0.47388
 H1136 H 0.75698 0.25919 0.53833
 H1137 H 0.73194 0.29040 0.53576
 H1138 H 0.76236 0.28952 0.53741
 H1139 H 0.73788 0.20333 0.46844
 H1140 H 0.75732 0.22261 0.45069
 H1141 H 0.69869 0.27953 0.52708
 H1142 H 0.71781 0.30033 0.47168
 H1143 H 0.77927 0.20415 0.50854
 H1144 H 0.79545 0.22180 0.48807
 H1145 H 0.71838 0.25989 0.45202
 H1146 H 0.70021 0.24013 0.46880
 H1147 H 0.79626 0.25917 0.52735
 H1148 H 0.77770 0.23960 0.54722
 O1149 O 0.79798 0.75176 -0.02407
 O1150 O 0.79236 0.72146 -0.02220
 O1151 O 0.75063 0.77342 -0.04798
 O1152 O 0.72109 0.77389 -0.04246
 O1153 O 0.77326 0.79726 -0.00057
 O1154 O 0.77194 0.79012 0.03065
 O1155 O 0.70356 0.72652 -0.00007
 O1156 O 0.70842 0.73075 -0.03054
 O1157 O 0.74930 0.70331 0.02160
 O1158 O 0.78158 0.70959 0.02046
 O1159 O 0.72735 0.74765 0.04645
 O1160 O 0.72792 0.77923 0.04105
 O1161 O 0.70348 0.74732 0.02209
 O1162 O 0.70992 0.78032 0.02083
 O1163 O 0.74912 0.72653 0.04606
 O1164 O 0.78215 0.72880 0.03921
 O1165 O 0.72733 0.70376 0.00033
 O1166 O 0.73311 0.71025 -0.03207
 O1167 O 0.79816 0.77224 -0.00156
 O1168 O 0.79154 0.77007 0.03038
 O1169 O 0.75151 0.79776 -0.02209
 O1170 O 0.71902 0.79043 -0.01907
 O1171 O 0.77279 0.75263 -0.04849
 O1172 O 0.76894 0.72059 -0.04207
 Zr1173 Zr 0.77199 0.74101 -0.02276
 O1174 O 0.75655 0.72366 -0.00697
 Zr1175 Zr 0.74038 0.77214 -0.02170
 O1176 O 0.72337 0.75578 -0.00646
 Zr1177 Zr 0.77217 0.77133 0.00965
 O1178 O 0.75630 0.75543 0.02659
 Zr1179 Zr 0.72926 0.72905 -0.01126
 O1180 O 0.74461 0.74539 -0.02846
 Zr1181 Zr 0.76079 0.72869 0.02043
 O1182 O 0.77804 0.74458 0.00468
 Zr1183 Zr 0.72894 0.75950 0.02094
 O1184 O 0.74482 0.77729 0.00573
 O1185 O 0.76753 0.76765 -0.01757
 O1186 O 0.73351 0.73279 0.01615
 C1187 C 0.80560 0.76377 -0.01455
 C1188 C 0.76334 0.76491 -0.05578
 C1189 C 0.76414 0.80499 -0.01293
 C1190 C 0.69616 0.73478 0.01303
 C1191 C 0.73630 0.69622 0.01290
 C1192 C 0.73622 0.73494 0.05363
 H1193 H 0.75945 0.71130 -0.01020
 H1194 H 0.75919 0.75813 0.03926
 H1195 H 0.77510 0.77538 -0.02513
 H1196 H 0.71071 0.75842 -0.00941
 H1197 H 0.71404 0.73483 -0.04186
 H1198 H 0.71197 0.76473 -0.04001
 H1199 H 0.78002 0.73859 0.04775
 H1200 H 0.79777 0.75858 0.02905
 H1201 H 0.72294 0.70182 -0.03171
 H1202 H 0.77843 0.72190 -0.05131
 H1203 H 0.73948 0.77893 0.04759
 H1204 H 0.75992 0.79570 0.03044
 H1205 H 0.79751 0.72157 -0.00994
 H1206 H 0.78060 0.70272 0.00920
 H1207 H 0.72131 0.79730 -0.00799
 H1208 H 0.70130 0.77806 0.01099
 O1209 O 1.04696 0.22632 0.24910
 O1210 O 1.04140 0.22898 0.27980
 O1211 O 0.99961 0.20235 0.22777
 O1212 O 0.97000 0.20780 0.22774
 O1213 O 1.02197 0.24818 0.20207
 O1214 O 1.02108 0.27904 0.20840
 O1215 O 0.95272 0.25124 0.27405
 O1216 O 0.95757 0.22109 0.27104
 O1217 O 0.99866 0.27322 0.29681
 O1218 O 1.03098 0.27145 0.29041
 O1219 O 0.97662 0.29615 0.25125
 O1220 O 0.97732 0.28978 0.21909
 O1221 O 0.95268 0.27238 0.25220
 O1222 O 0.95896 0.27026 0.21891
 O1223 O 0.99860 0.29635 0.27250
 O1224 O 1.03160 0.28927 0.27025
 O1225 O 0.97647 0.25256 0.29716
 O1226 O 0.98225 0.22036 0.29188
 O1227 O 1.04716 0.24767 0.22741
 O1228 O 1.04077 0.27918 0.22863
 O1229 O 1.00010 0.22715 0.20237
 O1230 O 0.96779 0.23027 0.20999
 O1231 O 1.02176 0.20239 0.24890
 O1232 O 1.01787 0.20966 0.28131
 Zr1233 Zr 1.02101 0.22803 0.25999
 O1234 O 1.00574 0.24425 0.27717
 Zr1235 Zr 0.98930 0.22825 0.22849
 O1236 O 0.97245 0.24394 0.24465
 Zr1237 Zr 1.02123 0.25893 0.22812
 O1238 O 1.00553 0.27625 0.24376
 Zr1239 Zr 0.97840 0.24008 0.27195
 O1240 O 0.99359 0.22247 0.25587
 Zr1241 Zr 1.01012 0.27099 0.27109
 O1242 O 1.02720 0.25486 0.25542
 Zr1243 Zr 0.97813 0.27073 0.23991
 O1244 O 0.99384 0.25505 0.22233
 O1245 O 1.01648 0.23231 0.23277
 O1246 O 0.98280 0.26686 0.26717
 C1247 C 1.05459 0.23519 0.23652
 C1248 C 1.01236 0.19491 0.23661
 C1249 C 1.01265 0.23593 0.19464
 C1250 C 0.94534 0.26387 0.26520
 C1251 C 0.98553 0.26515 0.30432
 C1252 C 0.98560 0.30356 0.26387
 H1253 H 1.00866 0.24148 0.28982
 H1254 H 1.00848 0.28859 0.24060
 H1255 H 1.02399 0.22463 0.22509
 H1256 H 0.95977 0.24103 0.24210
 H1257 H 0.96317 0.20980 0.26731
 H1258 H 0.96083 0.21072 0.23686
 H1259 H 1.02944 0.29742 0.26007
 H1260 H 1.04702 0.27820 0.24033
 H1261 H 0.97211 0.22113 0.30047
 H1262 H 1.02728 0.20043 0.28023
 H1263 H 0.98862 0.29661 0.21962
 H1264 H 1.00894 0.27894 0.20297
 H1265 H 1.04652 0.24104 0.27941
 H1266 H 1.02981 0.26073 0.29793
 H1267 H 0.96992 0.24104 0.20275
 H1268 H 0.95051 0.26047 0.22134
 O1269 O 0.75083 1.04811 0.72683
 O1270 O 0.78145 1.04224 0.72923
 O1271 O 0.72892 1.00225 0.70149
 O1272 O 0.72824 0.97305 0.70637
 O1273 O 0.70385 1.02363 0.74889
 O1274 O 0.71050 1.02187 0.78015
 O1275 O 0.77521 0.95444 0.74961
 O1276 O 0.77161 0.95985 0.71912
 O1277 O 0.79853 0.99876 0.77273
 O1278 O 0.79244 1.03070 0.77193
 O1279 O 0.75288 0.97714 0.79600
 O1280 O 0.72083 0.97819 0.78981
 O1281 O 0.75363 0.95415 0.77129
 O1282 O 0.72023 0.96071 0.76939
 O1283 O 0.77447 0.99838 0.79657
 O1284 O 0.77255 1.03106 0.79030
 O1285 O 0.79840 0.97756 0.75102
 O1286 O 0.79264 0.98401 0.71857
 O1287 O 0.72944 1.04809 0.74876
 O1288 O 0.73097 1.04097 0.78061
 O1289 O 0.70366 1.00265 0.72695
 O1290 O 0.71092 0.97059 0.72932
 O1291 O 0.75027 1.02380 0.70191
 O1292 O 0.78261 1.01955 0.70900
 Zr1293 Zr 0.76147 1.02239 0.72787
 O1294 O 0.77863 1.00671 0.74377
 Zr1295 Zr 0.72962 0.99157 0.72758
 O1296 O 0.74576 0.97434 0.74288
 Zr1297 Zr 0.72998 1.02226 0.75954
 O1298 O 0.74561 1.00613 0.77656
 Zr1299 Zr 0.77304 0.97997 0.73883
 O1300 O 0.75696 0.99559 0.72154
 Zr1301 Zr 0.77292 1.01041 0.77111
 O1302 O 0.75728 1.02786 0.75532
 Zr1303 Zr 0.74141 0.97933 0.77028
 O1304 O 0.72384 0.99545 0.75496
 O1305 O 0.73427 1.01818 0.73233
 O1306 O 0.76865 0.98367 0.76621
 C1307 C 0.73846 1.05558 0.73616
 C1308 C 0.73788 1.01481 0.69414
 C1309 C 0.69617 1.01488 0.73628
 C1310 C 0.76652 0.94700 0.76241
 C1311 C 0.80581 0.98603 0.76397
 C1312 C 0.76569 0.98559 0.80365
 H1313 H 0.79126 1.00950 0.74089
 H1314 H 0.74260 1.00875 0.78921
 H1315 H 0.72662 1.02585 0.72476
 H1316 H 0.74307 0.96195 0.73963
 H1317 H 0.76781 0.96565 0.70781
 H1318 H 0.73740 0.96391 0.70887
 H1319 H 0.76238 1.02891 0.79854
 H1320 H 0.74271 1.04700 0.77965
 H1321 H 0.80111 0.97390 0.71894
 H1322 H 0.78155 1.02907 0.69988
 H1323 H 0.72132 0.98927 0.79684
 H1324 H 0.70488 1.01003 0.77975
 H1325 H 0.78119 1.04701 0.74160
 H1326 H 0.79978 1.02977 0.76091
 H1327 H 0.70381 0.97257 0.74037
 H1328 H 0.72267 0.95243 0.75941
 O1329 O 0.74926 0.54750 0.22616
 O1330 O 0.77987 0.54156 0.22865
 O1331 O 0.72740 0.50183 0.20041
 O1332 O 0.72663 0.47259 0.20510
 O1333 O 0.70222 0.52290 0.24790
 O1334 O 0.70876 0.52093 0.27919
 O1335 O 0.77328 0.45358 0.24830
 O1336 O 0.76991 0.45928 0.21784
 O1337 O 0.79672 0.49762 0.27191
 O1338 O 0.79081 0.52958 0.27129
 O1339 O 0.75095 0.47604 0.29486
 O1340 O 0.71887 0.47726 0.28851
 O1341 O 0.75166 0.45318 0.26996
 O1342 O 0.71838 0.45982 0.26807
 O1343 O 0.77255 0.49727 0.29565
 O1344 O 0.77079 0.52999 0.28951
 O1345 O 0.79660 0.47656 0.25006
 O1346 O 0.79103 0.48333 0.21763
 O1347 O 0.72784 0.54730 0.24806
 O1348 O 0.72922 0.53998 0.27984
 O1349 O 0.70202 0.50214 0.22575
 O1350 O 0.70917 0.47006 0.22797
 O1351 O 0.74878 0.52333 0.20106
 O1352 O 0.78109 0.51900 0.20825
 Zr1353 Zr 0.75988 0.52174 0.22706
 O1354 O 0.77695 0.50589 0.24289
 Zr1355 Zr 0.72796 0.49098 0.22643
 O1356 O 0.74400 0.47362 0.24168
 Zr1357 Zr 0.72830 0.52141 0.25864
 O1358 O 0.74383 0.50515 0.27559
 Zr1359 Zr 0.77131 0.47921 0.23775
 O1360 O 0.75532 0.49500 0.22052
 Zr1361 Zr 0.77117 0.50941 0.27024
 O1362 O 0.75562 0.52701 0.25454
 Zr1363 Zr 0.73957 0.47841 0.26911
 O1364 O 0.72209 0.49467 0.25383
 O1365 O 0.73265 0.51754 0.23141
 O1366 O 0.76684 0.48271 0.26515
 C1367 C 0.73688 0.55489 0.23553
 C1368 C 0.73642 0.51441 0.19318
 C1369 C 0.69455 0.51431 0.23517
 C1370 C 0.76452 0.44605 0.26101
 C1371 C 0.80398 0.48491 0.26312
 C1372 C 0.76371 0.48446 0.30263
 H1373 H 0.78961 0.50866 0.24008
 H1374 H 0.74079 0.50771 0.28824
 H1375 H 0.72505 0.52529 0.22386
 H1376 H 0.74128 0.46126 0.23833
 H1377 H 0.76615 0.46520 0.20658
 H1378 H 0.73573 0.46340 0.20760
 H1379 H 0.76060 0.52783 0.29771
 H1380 H 0.74097 0.54601 0.27896
 H1381 H 0.79947 0.47319 0.21797
 H1382 H 0.78009 0.52859 0.19921
 H1383 H 0.71947 0.48823 0.29571
 H1384 H 0.70309 0.50911 0.27867
 H1385 H 0.77959 0.54621 0.24108
 H1386 H 0.79813 0.52874 0.26025
 H1387 H 0.70204 0.47198 0.23902
 H1388 H 0.72072 0.45171 0.25791
 O1389 O 0.54818 0.22485 0.75073
 O1390 O 0.54296 0.22797 0.78151
 O1391 O 0.50070 0.20028 0.73049
 O1392 O 0.47109 0.20557 0.73045
 O1393 O 0.52243 0.24599 0.70383
 O1394 O 0.52142 0.27693 0.70979
 O1395 O 0.45401 0.24948 0.77653
 O1396 O 0.45898 0.21929 0.77371
 O1397 O 0.50004 0.27188 0.79851
 O1398 O 0.53224 0.27041 0.79176
 O1399 O 0.47729 0.29420 0.75286
 O1400 O 0.47775 0.28741 0.72074
 O1401 O 0.45357 0.27031 0.75438
 O1402 O 0.45947 0.26780 0.72106
 O1403 O 0.49943 0.29479 0.77393
 O1404 O 0.53250 0.28798 0.77136
 O1405 O 0.47803 0.25105 0.79933
 O1406 O 0.48391 0.21887 0.79429
 O1407 O 0.54794 0.24598 0.72883
 O1408 O 0.54133 0.27743 0.72977
 O1409 O 0.50083 0.22472 0.70460
 O1410 O 0.46858 0.22778 0.71248
 O1411 O 0.52314 0.20072 0.75131
 O1412 O 0.51963 0.20844 0.78359
 Zr1413 Zr 0.52234 0.22653 0.76197
 O1414 O 0.50709 0.24282 0.77909
 Zr1415 Zr 0.49027 0.22613 0.73081
 O1416 O 0.47345 0.24189 0.74694
 Zr1417 Zr 0.52194 0.25705 0.72974
 O1418 O 0.50628 0.27443 0.74533
 Zr1419 Zr 0.47973 0.23838 0.77422
 O1420 O 0.49491 0.22072 0.75821
 Zr1421 Zr 0.51119 0.26953 0.77267
 O1422 O 0.52825 0.25335 0.75701
 Zr1423 Zr 0.47889 0.26866 0.74183
 O1424 O 0.49453 0.25288 0.72427
 O1425 O 0.51746 0.23044 0.73475
 O1426 O 0.48386 0.26515 0.76908
 C1427 C 0.55558 0.23365 0.73796
 C1428 C 0.51357 0.19301 0.73930
 C1429 C 0.51320 0.23355 0.69664
 C1430 C 0.44644 0.26196 0.76759
 C1431 C 0.48709 0.26375 0.80626
 C1432 C 0.48631 0.30181 0.76533
 H1433 H 0.51017 0.24021 0.79175
 H1434 H 0.50909 0.28676 0.74199
 H1435 H 0.52494 0.22269 0.72709
 H1436 H 0.46077 0.23886 0.74457
 H1437 H 0.46461 0.20799 0.77005
 H1438 H 0.46200 0.20850 0.73964
 H1439 H 0.53013 0.29601 0.76115
 H1440 H 0.54769 0.27667 0.74142
 H1441 H 0.47384 0.21963 0.80295
 H1442 H 0.52915 0.19931 0.78257
 H1443 H 0.48894 0.29441 0.72115
 H1444 H 0.50923 0.27668 0.70449
 H1445 H 0.54807 0.24002 0.78078
 H1446 H 0.53136 0.25967 0.79930
 H1447 H 0.47056 0.23849 0.70510
 H1448 H 0.45115 0.25796 0.72369
 O1449 O 0.20293 0.72652 0.50206
 O1450 O 0.20838 0.72947 0.47139
 O1451 O 0.25039 0.70197 0.52282
 O1452 O 0.27995 0.70734 0.52313
 O1453 O 0.22810 0.74764 0.54918
 O1454 O 0.22926 0.77862 0.54319
 O1455 O 0.29710 0.75130 0.47678
 O1456 O 0.29243 0.72107 0.47992
 O1457 O 0.25121 0.77335 0.45453
 O1458 O 0.21889 0.77187 0.46120
 O1459 O 0.27350 0.79592 0.50036
 O1460 O 0.27296 0.78917 0.53244
 O1461 O 0.29730 0.77216 0.49888
 O1462 O 0.29129 0.76954 0.53228
 O1463 O 0.25163 0.79640 0.47900
 O1464 O 0.21863 0.78969 0.48134
 O1465 O 0.27321 0.75244 0.45390
 O1466 O 0.26755 0.72031 0.45922
 O1467 O 0.20287 0.74773 0.52387
 O1468 O 0.20947 0.77913 0.52306
 O1469 O 0.24987 0.72648 0.54861
 O1470 O 0.28221 0.72965 0.54099
 O1471 O 0.22813 0.70240 0.50182
 O1472 O 0.23178 0.71003 0.46954
 Zr1473 Zr 0.22886 0.72817 0.49109
 O1474 O 0.24417 0.74443 0.47402
 Zr1475 Zr 0.26068 0.72786 0.52250
 O1476 O 0.27757 0.74360 0.50643
 Zr1477 Zr 0.22888 0.75873 0.52325
 O1478 O 0.24459 0.77610 0.50770
 Zr1479 Zr 0.27150 0.74001 0.47912
 O1480 O 0.25627 0.72238 0.49508
 Zr1481 Zr 0.23991 0.77114 0.48033
 O1482 O 0.22281 0.75499 0.49594
 Zr1483 Zr 0.27198 0.77038 0.51141
 O1484 O 0.25627 0.75462 0.52892
 O1485 O 0.23350 0.73212 0.51834
 O1486 O 0.26722 0.76679 0.48413
 C1487 C 0.19535 0.73539 0.51467
 C1488 C 0.23763 0.69468 0.51390
 C1489 C 0.23736 0.73523 0.55646
 C1490 C 0.30451 0.76388 0.48565
 C1491 C 0.26416 0.76511 0.44685
 C1492 C 0.26461 0.80347 0.48773
 H1493 H 0.24117 0.74176 0.46136
 H1494 H 0.24172 0.78843 0.51098
 H1495 H 0.22597 0.72438 0.52593
 H1496 H 0.29026 0.74062 0.50888
 H1497 H 0.28687 0.70975 0.48360
 H1498 H 0.28911 0.71027 0.51402
 H1499 H 0.22084 0.79766 0.49163
 H1500 H 0.20329 0.77845 0.51130
 H1501 H 0.27768 0.72101 0.45062
 H1502 H 0.22232 0.70086 0.47056
 H1503 H 0.26165 0.79602 0.53208
 H1504 H 0.24137 0.77827 0.54866
 H1505 H 0.20327 0.74154 0.47196
 H1506 H 0.22000 0.76124 0.45354
 H1507 H 0.28009 0.74036 0.54833
 H1508 H 0.29978 0.75983 0.52960
 O1509 O 0.27253 0.29796 1.00119
 O1510 O 0.27032 0.29175 1.03184
 O1511 O 0.29759 0.25241 0.97855
 O1512 O 0.29277 0.22321 0.97749
 O1513 O 0.24996 0.27406 0.95411
 O1514 O 0.21879 0.27230 0.96101
 O1515 O 0.25006 0.20402 1.02457
 O1516 O 0.28048 0.20948 1.02082
 O1517 O 0.22712 0.24802 1.04869
 O1518 O 0.22770 0.27994 1.04311
 O1519 O 0.20343 0.22697 1.00279
 O1520 O 0.20934 0.22840 0.97076
 O1521 O 0.22819 0.20399 1.00313
 O1522 O 0.22983 0.21099 0.96975
 O1523 O 0.20305 0.24794 1.02470
 O1524 O 0.20932 0.28069 1.02322
 O1525 O 0.24884 0.22684 1.04813
 O1526 O 0.28119 0.23337 1.04219
 O1527 O 0.25041 0.29819 0.97995
 O1528 O 0.21856 0.29112 0.98179
 O1529 O 0.27194 0.25311 0.95346
 O1530 O 0.26967 0.22096 0.96030
 O1531 O 0.29740 0.27371 1.00019
 O1532 O 0.29061 0.26903 1.03257
 Zr1533 Zr 0.27155 0.27213 1.01159
 O1534 O 0.25585 0.25624 1.02866
 Zr1535 Zr 0.27156 0.24170 0.97930
 O1536 O 0.25646 0.22427 0.99533
 Zr1537 Zr 0.23959 0.27239 0.98033
 O1538 O 0.22277 0.25605 0.99585
 Zr1539 Zr 0.26077 0.22958 1.02268
 O1540 O 0.27787 0.24539 1.00666
 Zr1541 Zr 0.22846 0.25999 1.02320
 O1542 O 0.24407 0.27765 1.00769
 Zr1543 Zr 0.22905 0.22931 0.99123
 O1544 O 0.24414 0.24567 0.97376
 O1545 O 0.26682 0.26824 0.98435
 O1546 O 0.23336 0.23331 1.01853
 C1547 C 0.26313 0.30555 0.98893
 C1548 C 0.30501 0.26487 0.98760
 C1549 C 0.26252 0.26543 0.94622
 C1550 C 0.23720 0.19668 1.01586
 C1551 C 0.23596 0.23521 1.05575
 C1552 C 0.19588 0.23527 1.01576
 H1553 H 0.25883 0.25888 1.04132
 H1554 H 0.21010 0.25872 0.99296
 H1555 H 0.27431 0.27599 0.97672
 H1556 H 0.25971 0.21192 0.99244
 H1557 H 0.29173 0.21533 1.01701
 H1558 H 0.29038 0.21396 0.98656
 H1559 H 0.20096 0.27865 1.01311
 H1560 H 0.21973 0.29707 0.99358
 H1561 H 0.28092 0.22315 1.05053
 H1562 H 0.29968 0.27858 1.03158
 H1563 H 0.20237 0.23952 0.97139
 H1564 H 0.21915 0.26054 0.95519
 H1565 H 0.25797 0.29658 1.03166
 H1566 H 0.23893 0.27912 1.05016
 H1567 H 0.25859 0.22305 0.95326
 H1568 H 0.23977 0.20262 0.97206
 C1569 C 0.28091 0.39472 0.77731
 C1570 C 0.26888 0.38131 0.78206
 C1571 C 0.27530 0.36523 0.78877
 C1572 C 0.29386 0.36236 0.79084
 C1573 C 0.30584 0.37584 0.78578
 C1574 C 0.29939 0.39190 0.77908
 C1575 C 0.27438 0.41164 0.77131
 C1576 C 0.26932 0.42608 0.76665
 H1577 H 0.25455 0.38336 0.78075
 H1578 H 0.26577 0.35504 0.79237
 H1579 H 0.32017 0.37415 0.78746
 H1580 H 0.30882 0.40223 0.77556
 C1581 C 0.27916 -0.10483 0.27816
 C1582 C 0.28842 -0.11659 0.26707
 C1583 C 0.29476 -0.13265 0.27393
 C1584 C 0.29199 -0.13731 0.29215
 C1585 C 0.28228 -0.12528 0.30301
 C1586 C 0.27601 -0.10927 0.29608
 C1587 C 0.27364 -0.08777 0.27160
 C1588 C 0.26926 -0.07315 0.26688
 H1589 H 0.29087 -0.11330 0.25312
 H1590 H 0.30139 -0.14151 0.26467
 H1591 H 0.28027 -0.12755 0.31720
 H1592 H 0.26904 -0.10014 0.30486
 C1593 C 0.78265 0.89811 0.77900
 C1594 C 0.77915 0.89329 0.79674
 C1595 C 0.78537 0.87717 0.80347
 C1596 C 0.79535 0.86539 0.79256
 C1597 C 0.79866 0.87053 0.77457
 C1598 C 0.79236 0.88669 0.76791
 C1599 C 0.77674 0.91508 0.77249
 C1600 C 0.77194 0.92952 0.76759
 H1601 H 0.77184 0.90215 0.80553
 H1602 H 0.78300 0.87455 0.81754
 H1603 H 0.80559 0.86192 0.76529
 H1604 H 0.79509 0.89028 0.75409
 C1605 C 0.47052 0.85441 0.27897
 C1606 C 0.46568 0.86790 0.26701
 C1607 C 0.45973 0.88421 0.27359
 C1608 C 0.45856 0.88720 0.29221
 C1609 C 0.46356 0.87357 0.30408
 C1610 C 0.46948 0.85731 0.29749
 C1611 C 0.47615 0.83742 0.27240
 C1612 C 0.48069 0.82292 0.26749
 H1613 H 0.46642 0.86577 0.25264
 H1614 H 0.45612 0.89450 0.26413
 H1615 H 0.46252 0.87536 0.31847
 H1616 H 0.47309 0.84692 0.30685
 C1617 C -0.02876 0.85306 0.77920
 C1618 C -0.01734 0.86463 0.78830
 C1619 C -0.02386 0.88076 0.79480
 C1620 C -0.04204 0.88567 0.79236
 C1621 C -0.05325 0.87382 0.78283
 C1622 C -0.04667 0.85774 0.77639
 C1623 C -0.02241 0.83603 0.77340
 C1624 C -0.01756 0.82151 0.76884
 H1625 H -0.00340 0.86116 0.79047
 H1626 H -0.01435 0.88946 0.80128
 H1627 H -0.06743 0.87632 0.78107
 H1628 H -0.05569 0.84876 0.76954
 C1629 C -0.02997 -0.10246 -0.02873
 C1630 C -0.04844 -0.10560 -0.02973
 C1631 C -0.05482 -0.12172 -0.03627
 C1632 C -0.04280 -0.13495 -0.04192
 C1633 C -0.02423 -0.13173 -0.04074
 C1634 C -0.01787 -0.11556 -0.03418
 C1635 C -0.02359 -0.08551 -0.02273
 C1636 C -0.01869 -0.07104 -0.01805
 H1637 H -0.05793 -0.09550 -0.02568
 H1638 H -0.06918 -0.12367 -0.03729
 H1639 H -0.01466 -0.14171 -0.04483
 H1640 H -0.00354 -0.11325 -0.03350
 C1641 C -0.03232 0.39855 0.47043
 C1642 C -0.05017 0.39367 0.47315
 C1643 C -0.05657 0.37760 0.46652
 C1644 C -0.04522 0.36594 0.45689
 C1645 C -0.02712 0.37109 0.45446
 C1646 C -0.02079 0.38720 0.46116
 C1647 C -0.02611 0.41552 0.47657
 C1648 C -0.02130 0.42997 0.48140
 H1649 H -0.05929 0.40248 0.48012
 H1650 H -0.07071 0.37494 0.46825
 H1651 H -0.01752 0.36255 0.44788
 H1652 H -0.00689 0.39082 0.45905
 C1653 C 0.46912 -0.10215 0.47067
 C1654 C 0.45119 -0.10672 0.47342
 C1655 C 0.44445 -0.12262 0.46666
 C1656 C 0.45554 -0.13438 0.45686
 C1657 C 0.47375 -0.12956 0.45448
 C1658 C 0.48040 -0.11364 0.46129
 C1659 C 0.47565 -0.08531 0.47685
 C1660 C 0.48066 -0.07096 0.48175
 H1661 H 0.44226 -0.09781 0.48048
 H1662 H 0.43027 -0.12505 0.46842
 H1663 H 0.48317 -0.13823 0.44781
 H1664 H 0.49437 -0.11026 0.45917
 C1665 C 0.46792 0.39805 -0.02856
 C1666 C 0.45898 0.38625 -0.01726
 C1667 C 0.45294 0.37000 -0.02388
 C1668 C 0.45572 0.36517 -0.04205
 C1669 C 0.46499 0.37730 -0.05316
 C1670 C 0.47096 0.39351 -0.04646
 C1671 C 0.47358 0.41508 -0.02205
 C1672 C 0.47824 0.42956 -0.01719
 H1673 H 0.45664 0.38961 -0.00331
 H1674 H 0.44661 0.36111 -0.01445
 H1675 H 0.46696 0.37487 -0.06732
 H1676 H 0.47771 0.40265 -0.05540
 C1677 C 0.77799 0.35498 0.47145
 C1678 C 0.79651 0.35784 0.47063
 C1679 C 0.80320 0.37385 0.46414
 C1680 C 0.79144 0.38725 0.45835
 C1681 C 0.77281 0.38435 0.45944
 C1682 C 0.76614 0.36829 0.46594
 C1683 C 0.77136 0.33802 0.47713
 C1684 C 0.76648 0.32346 0.48148
 H1685 H 0.80581 0.34757 0.47471
 H1686 H 0.81760 0.37554 0.46319
 H1687 H 0.76343 0.39449 0.45524
 H1688 H 0.75177 0.36619 0.46648
 C1689 C 0.77972 0.85414 -0.02896
 C1690 C 0.78913 0.86570 -0.01777
 C1691 C 0.79582 0.88164 -0.02455
 C1692 C 0.79327 0.88639 -0.04279
 C1693 C 0.78344 0.87455 -0.05376
 C1694 C 0.77681 0.85867 -0.04691
 C1695 C 0.77380 0.83721 -0.02244
 C1696 C 0.76916 0.82268 -0.01769
 H1697 H 0.79141 0.86235 -0.00380
 H1698 H 0.80255 0.89035 -0.01522
 H1699 H 0.78157 0.87688 -0.06797
 H1700 H 0.76974 0.84969 -0.05577
 C1701 C 0.77541 0.28215 0.39330
 C1702 C 0.77654 0.30036 0.39026
 C1703 C 0.78309 0.30675 0.37393
 C1704 C 0.78864 0.29497 0.36040
 C1705 C 0.78714 0.27667 0.36346
 C1706 C 0.78058 0.27031 0.37982
 C1707 C 0.76980 0.27575 0.41060
 C1708 C 0.76553 0.27087 0.42540
 H1709 H 0.77269 0.30964 0.40065
 H1710 H 0.78434 0.32090 0.37211
 H1711 H 0.79113 0.26729 0.35322
 H1712 H 0.77979 0.25617 0.38206
 C1713 C 0.77824 0.78192 -0.10548
 C1714 C 0.77923 0.80019 -0.10823
 C1715 C 0.78591 0.80687 -0.12438
 C1716 C 0.79171 0.79536 -0.13804
 C1717 C 0.79041 0.77699 -0.13526
 C1718 C 0.78372 0.77033 -0.11906
 C1719 C 0.77243 0.77525 -0.08835
 C1720 C 0.76801 0.77020 -0.07365
 H1721 H 0.77516 0.80928 -0.09775
 H1722 H 0.78700 0.82106 -0.12597
 H1723 H 0.79461 0.76781 -0.14559
 H1724 H 0.78305 0.75616 -0.11705
 C1725 C 0.27901 0.46511 0.85240
 C1726 C 0.28013 0.44696 0.85588
 C1727 C 0.28645 0.44094 0.87247
 C1728 C 0.29178 0.45301 0.88582
 C1729 C 0.29041 0.47124 0.88227
 C1730 C 0.28407 0.47724 0.86566
 C1731 C 0.27323 0.47122 0.83502
 C1732 C 0.26868 0.47616 0.82031
 H1733 H 0.27634 0.43746 0.84567
 H1734 H 0.28759 0.42683 0.87469
 H1735 H 0.29423 0.48085 0.89235
 H1736 H 0.28326 0.49132 0.86310
 C1737 C 0.27944 -0.03265 0.35477
 C1738 C 0.28046 -0.05091 0.35760
 C1739 C 0.28699 -0.05754 0.37386
 C1740 C 0.29263 -0.04599 0.38755
 C1741 C 0.29135 -0.02763 0.38467
 C1742 C 0.28481 -0.02101 0.36837
 C1743 C 0.27361 -0.02600 0.33761
 C1744 C 0.26908 -0.02094 0.32293
 H1745 H 0.27647 -0.06003 0.34712
 H1746 H 0.28807 -0.07173 0.37553
 H1747 H 0.29541 -0.01841 0.39502
 H1748 H 0.28410 -0.00685 0.36631
 C1749 C -0.02834 -0.03244 -0.10408
 C1750 C -0.03736 -0.02127 -0.11599
 C1751 C -0.04379 -0.02780 -0.13234
 C1752 C -0.04137 -0.04575 -0.13717
 C1753 C -0.03188 -0.05672 -0.12500
 C1754 C -0.02552 -0.05012 -0.10867
 C1755 C -0.02256 -0.02599 -0.08684
 C1756 C -0.01801 -0.02088 -0.07220
 H1757 H -0.03951 -0.00750 -0.11262
 H1758 H -0.05019 -0.01848 -0.14131
 H1759 H -0.03010 -0.07070 -0.12744
 H1760 H -0.01869 -0.05894 -0.09943
 C1761 C -0.03061 0.46881 0.39615
 C1762 C -0.02765 0.45111 0.39175
 C1763 C -0.03403 0.44427 0.37554
 C1764 C -0.04364 0.45502 0.36327
 C1765 C -0.04627 0.47299 0.36791
 C1766 C -0.03982 0.47976 0.38416
 C1767 C -0.02478 0.47545 0.41329
 C1768 C -0.02018 0.48059 0.42791
 H1769 H -0.02070 0.44245 0.40106
 H1770 H -0.03213 0.43028 0.37328
 H1771 H -0.05283 0.48213 0.35887
 H1772 H -0.04210 0.49354 0.38740
 C1773 C 0.47243 -0.03086 0.39637
 C1774 C 0.46782 -0.01893 0.38275
 C1775 C 0.46175 -0.02518 0.36614
 C1776 C 0.46022 -0.04347 0.36299
 C1777 C 0.46509 -0.05533 0.37672
 C1778 C 0.47115 -0.04905 0.39328
 C1779 C 0.47792 -0.02456 0.41375
 C1780 C 0.48225 -0.01970 0.42853
 H1781 H 0.46876 -0.00481 0.38501
 H1782 H 0.45825 -0.01575 0.35577
 H1783 H 0.46378 -0.06946 0.37481
 H1784 H 0.47458 -0.05840 0.40378
 C1785 C 0.46873 0.46728 -0.10277
 C1786 C 0.46345 0.47871 -0.11660
 C1787 C 0.45707 0.47185 -0.13285
 C1788 C 0.45592 0.45346 -0.13544
 C1789 C 0.46137 0.44211 -0.12149
 C1790 C 0.46772 0.44898 -0.10528
 C1791 C 0.47470 0.47418 -0.08579
 C1792 C 0.47945 0.47951 -0.07130
 H1793 H 0.46415 0.49290 -0.11478
 H1794 H 0.45313 0.48091 -0.14341
 H1795 H 0.46036 0.42790 -0.12295
 H1796 H 0.47165 0.44002 -0.09462
 C1797 C 0.46954 0.78466 0.35217
 C1798 C 0.46832 0.80291 0.35501
 C1799 C 0.46174 0.80945 0.37128
 C1800 C 0.45625 0.79781 0.38495
 C1801 C 0.45766 0.77947 0.38203
 C1802 C 0.46426 0.77296 0.36574
 C1803 C 0.47566 0.77804 0.33512
 C1804 C 0.48050 0.77280 0.32062
 H1805 H 0.47226 0.81209 0.34456
 H1806 H 0.46057 0.82362 0.37300
 H1807 H 0.45372 0.77019 0.39237
 H1808 H 0.46513 0.75880 0.36368
 C1809 C -0.02846 0.78297 0.85414
 C1810 C -0.03730 0.77170 0.86605
 C1811 C -0.04383 0.77814 0.88239
 C1812 C -0.04168 0.79613 0.88722
 C1813 C -0.03241 0.80722 0.87504
 C1814 C -0.02595 0.80069 0.85872
 C1815 C -0.02250 0.77655 0.83695
 C1816 C -0.01779 0.77142 0.82236
 H1817 H -0.03922 0.75789 0.86269
 H1818 H -0.05007 0.76874 0.89136
 H1819 H -0.03085 0.82122 0.87747
 H1820 H -0.01927 0.80960 0.84949
 C1821 C 0.39640 0.78164 0.28109
 C1822 C 0.39354 0.78314 0.29960
 C1823 C 0.37715 0.78943 0.30609
 C1824 C 0.36337 0.79433 0.29414
 C1825 C 0.36633 0.79267 0.27555
 C1826 C 0.38275 0.78636 0.26907
 C1827 C 0.41354 0.77569 0.27456
 C1828 C 0.42813 0.77094 0.26952
 H1829 H 0.40405 0.77963 0.30901
 H1830 H 0.37540 0.79082 0.32046
 H1831 H 0.35591 0.79618 0.26603
 H1832 H 0.38483 0.78526 0.25472
 C1833 C -0.10185 0.78172 0.78195
 C1834 C -0.11487 0.78744 0.76968
 C1835 C -0.13123 0.79421 0.77584
 C1836 C -0.13476 0.79534 0.79438
 C1837 C -0.12158 0.78950 0.80658
 C1838 C -0.10526 0.78275 0.80040
 C1839 C -0.08475 0.77528 0.77575
 C1840 C -0.07021 0.77017 0.77091
 H1841 H -0.11236 0.78674 0.75537
 H1842 H -0.14117 0.79845 0.76613
 H1843 H -0.12376 0.79045 0.82092
 H1844 H -0.09523 0.77848 0.81002
 C1845 C 0.85301 0.28183 0.46918
 C1846 C 0.85555 0.30013 0.46824
 C1847 C 0.87175 0.30700 0.46196
 C1848 C 0.88569 0.29565 0.45651
 C1849 C 0.88307 0.27725 0.45762
 C1850 C 0.86681 0.27039 0.46392
 C1851 C 0.83595 0.27500 0.47494
 C1852 C 0.82131 0.26994 0.47948
 H1853 H 0.84490 0.30910 0.47215
 H1854 H 0.87322 0.32121 0.46098
 H1855 H 0.89361 0.26819 0.45367
 H1856 H 0.86497 0.25620 0.46456
 C1857 C 0.85523 0.78064 -0.02971
 C1858 C 0.85788 0.79893 -0.03053
 C1859 C 0.87410 0.80574 -0.03683
 C1860 C 0.88794 0.79434 -0.04243
 C1861 C 0.88521 0.77596 -0.04144
 C1862 C 0.86894 0.76915 -0.03511
 C1863 C 0.83813 0.77388 -0.02396
 C1864 C 0.82346 0.76888 -0.01945
 H1865 H 0.84731 0.80794 -0.02652
 H1866 H 0.87565 0.81994 -0.03772
 H1867 H 0.89568 0.76686 -0.04550
 H1868 H 0.86700 0.75497 -0.03458
 C1869 C -0.10249 -0.03229 -0.03057
 C1870 C -0.10713 -0.04991 -0.02750
 C1871 C -0.12345 -0.05657 -0.03380
 C1872 C -0.13557 -0.04571 -0.04348
 C1873 C -0.13069 -0.02781 -0.04618
 C1874 C -0.11435 -0.02123 -0.03980
 C1875 C -0.08531 -0.02574 -0.02474
 C1876 C -0.07073 -0.02057 -0.02007
 H1877 H -0.09794 -0.05865 -0.02050
 H1878 H -0.12594 -0.07050 -0.03180
 H1879 H -0.13962 -0.01856 -0.05273
 H1880 H -0.11096 -0.00750 -0.04214
 C1881 C -0.10494 0.46960 0.46886
 C1882 C -0.10967 0.45206 0.47225
 C1883 C -0.12601 0.44540 0.46603
 C1884 C -0.13806 0.45615 0.45616
 C1885 C -0.13305 0.47395 0.45306
 C1886 C -0.11668 0.48055 0.45935
 C1887 C -0.08776 0.47609 0.47472
 C1888 C -0.07317 0.48110 0.47948
 H1889 H -0.10057 0.44340 0.47944
 H1890 H -0.12856 0.43151 0.46828
 H1891 H -0.14190 0.48311 0.44627
 H1892 H -0.11318 0.49421 0.45676
 C1893 C 0.39728 -0.03201 0.46950
 C1894 C 0.39294 -0.04973 0.47234
 C1895 C 0.37666 -0.05650 0.46611
 C1896 C 0.36425 -0.04566 0.45678
 C1897 C 0.36889 -0.02769 0.45419
 C1898 C 0.38521 -0.02099 0.46049
 C1899 C 0.41438 -0.02537 0.47542
 C1900 C 0.42892 -0.02026 0.48025
 H1901 H 0.40230 -0.05844 0.47913
 H1902 H 0.37440 -0.07050 0.46793
 H1903 H 0.35977 -0.01848 0.44783
 H1904 H 0.38841 -0.00718 0.45831
 C1905 C 0.39510 0.47034 -0.03087
 C1906 C 0.38323 0.46199 -0.01913
 C1907 C 0.36692 0.45529 -0.02547
 C1908 C 0.36211 0.45678 -0.04382
 C1909 C 0.37426 0.46558 -0.05539
 C1910 C 0.39053 0.47222 -0.04896
 C1911 C 0.41229 0.47642 -0.02457
 C1912 C 0.42691 0.48122 -0.01964
 H1913 H 0.38659 0.46057 -0.00503
 H1914 H 0.35798 0.44943 -0.01573
 H1915 H 0.37184 0.46662 -0.06967
 H1916 H 0.39974 0.47851 -0.05822
 C1917 C 0.35297 0.46559 0.77996
 C1918 C 0.36661 0.47724 0.78513
 C1919 C 0.38288 0.47064 0.79173
 C1920 C 0.38569 0.45230 0.79324
 C1921 C 0.37195 0.44072 0.78784
 C1922 C 0.35571 0.44733 0.78126
 C1923 C 0.33593 0.47226 0.77384
 C1924 C 0.32142 0.47745 0.76898
 H1925 H 0.36462 0.49140 0.78418
 H1926 H 0.39328 0.47988 0.79560
 H1927 H 0.37359 0.42655 0.78909
 H1928 H 0.34519 0.43820 0.77740
 C1929 C 0.35630 -0.02902 0.27954
 C1930 C 0.36970 -0.03421 0.26748
 C1931 C 0.38616 -0.04050 0.27393
 C1932 C 0.38938 -0.04168 0.29252
 C1933 C 0.37586 -0.03625 0.30450
 C1934 C 0.35945 -0.02998 0.29804
 C1935 C 0.33900 -0.02338 0.27314
 C1936 C 0.32419 -0.01897 0.26841
 H1937 H 0.36737 -0.03355 0.25313
 H1938 H 0.39637 -0.04443 0.26439
 H1939 H 0.37779 -0.03728 0.31888
 H1940 H 0.34912 -0.02612 0.30749
 C1941 C 0.14449 0.52788 0.71968
 C1942 C 0.13140 0.53311 0.73207
 C1943 C 0.11489 0.53969 0.72605
 C1944 C 0.11129 0.54112 0.70754
 C1945 C 0.12450 0.53566 0.69522
 C1946 C 0.14096 0.52910 0.70126
 C1947 C 0.16183 0.52190 0.72570
 C1948 C 0.17663 0.51725 0.73025
 H1949 H 0.13401 0.53225 0.74636
 H1950 H 0.10494 0.54362 0.73585
 H1951 H 0.12227 0.53687 0.68090
 H1952 H 0.15104 0.52522 0.69155
 C1953 C 0.14697 0.03172 0.22059
 C1954 C 0.13340 0.01993 0.21554
 C1955 C 0.11689 0.02635 0.20940
 C1956 C 0.11375 0.04467 0.20823
 C1957 C 0.12741 0.05639 0.21352
 C1958 C 0.14390 0.04995 0.21965
 C1959 C 0.16423 0.02523 0.22625
 C1960 C 0.17889 0.02017 0.23077
 H1961 H 0.13564 0.00579 0.21622
 H1962 H 0.10656 0.01701 0.20559
 H1963 H 0.12552 0.07055 0.21251
 H1964 H 0.15434 0.05919 0.22342
 C1965 C 0.60492 0.72059 0.22031
 C1966 C 0.60790 0.70234 0.21975
 C1967 C 0.62423 0.69569 0.21352
 C1968 C 0.63786 0.70722 0.20774
 C1969 C 0.63481 0.72557 0.20847
 C1970 C 0.61842 0.73221 0.21472
 C1971 C 0.58773 0.72718 0.22601
 C1972 C 0.57300 0.73208 0.23049
 H1973 H 0.59750 0.69322 0.22391
 H1974 H 0.62603 0.68150 0.21284
 H1975 H 0.64510 0.73477 0.20426
 H1976 H 0.61623 0.74637 0.21506
 C1977 C 0.10666 0.71905 0.72265
 C1978 C 0.12023 0.73083 0.71758
 C1979 C 0.13672 0.72438 0.71142
 C1980 C 0.13982 0.70605 0.71027
 C1981 C 0.12612 0.69436 0.71553
 C1982 C 0.10968 0.70083 0.72167
 C1983 C 0.08937 0.72548 0.72826
 C1984 C 0.07459 0.73030 0.73264
 H1985 H 0.11801 0.74497 0.71825
 H1986 H 0.14706 0.73369 0.70760
 H1987 H 0.12796 0.68020 0.71451
 H1988 H 0.09923 0.69160 0.72543
 C1989 C 0.64484 0.21962 0.52967
 C1990 C 0.63136 0.21470 0.51757
 C1991 C 0.61487 0.20849 0.52395
 C1992 C 0.61169 0.20716 0.54253
 C1993 C 0.62531 0.21226 0.55456
 C1994 C 0.64175 0.21844 0.54816
 C1995 C 0.66203 0.22549 0.52328
 C1996 C 0.67665 0.23025 0.51839
 H1997 H 0.63362 0.21555 0.50322
 H1998 H 0.60459 0.20480 0.51437
 H1999 H 0.62340 0.21110 0.56893
 H2000 H 0.65214 0.22212 0.55764
 C2001 C 0.64664 0.71853 0.02943
 C2002 C 0.63334 0.71330 0.01725
 C2003 C 0.61681 0.70709 0.02353
 C2004 C 0.61338 0.70607 0.04209
 C2005 C 0.62684 0.71142 0.05420
 C2006 C 0.64333 0.71760 0.04790
 C2007 C 0.66386 0.72451 0.02312
 C2008 C 0.67849 0.72933 0.01827
 H2009 H 0.63577 0.71395 0.00292
 H2010 H 0.60666 0.70322 0.01389
 H2011 H 0.62474 0.71052 0.06856
 H2012 H 0.65357 0.72151 0.05744
 C2013 C 0.10627 0.03112 0.02730
 C2014 C 0.11085 0.04880 0.02459
 C2015 C 0.12705 0.05541 0.03122
 C2016 C 0.13911 0.04444 0.04084
 C2017 C 0.13434 0.02645 0.04307
 C2018 C 0.11810 0.01992 0.03639
 C2019 C 0.08897 0.02482 0.02159
 C2020 C 0.07417 0.02005 0.01723
 H2021 H 0.10167 0.05766 0.01775
 H2022 H 0.12942 0.06941 0.02957
 H2023 H 0.14324 0.01714 0.04958
 H2024 H 0.11471 0.00615 0.03848
 C2025 C 0.10405 0.53088 0.52823
 C2026 C 0.10735 0.54905 0.52919
 C2027 C 0.12396 0.55525 0.53519
 C2028 C 0.13754 0.54333 0.54033
 C2029 C 0.13415 0.52506 0.53920
 C2030 C 0.11750 0.51888 0.53318
 C2031 C 0.08663 0.52472 0.52273
 C2032 C 0.07177 0.52009 0.51841
 H2033 H 0.09700 0.55846 0.52552
 H2034 H 0.12602 0.56938 0.53620
 H2035 H 0.14440 0.51557 0.54291
 H2036 H 0.11507 0.50478 0.53251
 C2037 C 0.60553 0.03113 0.52931
 C2038 C 0.60828 0.04940 0.53036
 C2039 C 0.62471 0.05605 0.53633
 C2040 C 0.63865 0.04451 0.54136
 C2041 C 0.63584 0.02615 0.54009
 C2042 C 0.61936 0.01951 0.53410
 C2043 C 0.58828 0.02449 0.52386
 C2044 C 0.57353 0.01953 0.51954
 H2045 H 0.59762 0.05851 0.52679
 H2046 H 0.62634 0.07023 0.53744
 H2047 H 0.64638 0.01694 0.54370
 H2048 H 0.61737 0.00535 0.53335
 C2049 C 0.60455 0.53048 0.02790
 C2050 C 0.61825 0.51875 0.03278
 C2051 C 0.63478 0.52526 0.03879
 C2052 C 0.63777 0.54360 0.03997
 C2053 C 0.62393 0.55524 0.03488
 C2054 C 0.60746 0.54872 0.02889
 C2055 C 0.58723 0.52402 0.02246
 C2056 C 0.57240 0.51925 0.01820
 H2057 H 0.61612 0.50460 0.03210
 H2058 H 0.64523 0.51598 0.04247
 H2059 H 0.62568 0.56941 0.03593
 H2060 H 0.59690 0.55792 0.02526
 C2061 C 0.03030 0.03078 0.10470
 C2062 C 0.04822 0.02819 0.10947
 C2063 C 0.05474 0.03462 0.12580
 C2064 C 0.04344 0.04390 0.13784
 C2065 C 0.02525 0.04619 0.13280
 C2066 C 0.01880 0.03970 0.11642
 C2067 C 0.02403 0.02489 0.08741
 C2068 C 0.01938 0.02023 0.07264
 H2069 H 0.05731 0.02149 0.10038
 H2070 H 0.06893 0.03301 0.12834
 H2071 H 0.01569 0.05252 0.14162
 H2072 H 0.00484 0.04172 0.11287
 C2073 C 0.02586 0.53114 0.60574
 C2074 C 0.02697 0.54933 0.60895
 C2075 C 0.03327 0.55558 0.62545
 C2076 C 0.03857 0.54370 0.63900
 C2077 C 0.03711 0.52542 0.63576
 C2078 C 0.03081 0.51919 0.61923
 C2079 C 0.02040 0.52488 0.58832
 C2080 C 0.01620 0.52014 0.57344
 H2081 H 0.02328 0.55870 0.59856
 H2082 H 0.03449 0.56971 0.62740
 H2083 H 0.04092 0.51595 0.64599
 H2084 H 0.03001 0.50508 0.61688
 C2085 C 0.52714 0.02840 0.60729
 C2086 C 0.53633 0.01711 0.61897
 C2087 C 0.54248 0.02334 0.63555
 C2088 C 0.53962 0.04111 0.64083
 C2089 C 0.52989 0.05215 0.62893
 C2090 C 0.52380 0.04585 0.61238
 C2091 C 0.52193 0.02247 0.58969
 C2092 C 0.51788 0.01804 0.57467
 H2093 H 0.53889 0.00351 0.61519
 H2094 H 0.54909 0.01395 0.64429
 H2095 H 0.52777 0.06602 0.63169
 H2096 H 0.51685 0.05477 0.60334
 C2097 C 0.52723 0.53158 0.10558
 C2098 C 0.52821 0.54980 0.10862
 C2099 C 0.53442 0.55624 0.12507
 C2100 C 0.53977 0.54451 0.13875
 C2101 C 0.53855 0.52620 0.13565
 C2102 C 0.53232 0.51978 0.11916
 C2103 C 0.52166 0.52515 0.08826
 C2104 C 0.51731 0.52029 0.07347
 H2105 H 0.52442 0.55905 0.09816
 H2106 H 0.53547 0.57040 0.12692
 H2107 H 0.54241 0.51685 0.14598
 H2108 H 0.53165 0.50564 0.11694
 C2109 C 0.22169 0.52893 0.64325
 C2110 C 0.21632 0.51728 0.62966
 C2111 C 0.21011 0.52389 0.61322
 C2112 C 0.20919 0.54224 0.61019
 C2113 C 0.21482 0.55380 0.62389
 C2114 C 0.22101 0.54718 0.64028
 C2115 C 0.22725 0.52233 0.66052
 C2116 C 0.23157 0.51735 0.67529
 H2117 H 0.21677 0.50313 0.63183
 H2118 H 0.20604 0.51466 0.60288
 H2119 H 0.21400 0.56798 0.62210
 H2120 H 0.22501 0.55631 0.65075
 C2121 C 0.21959 0.03100 0.14640
 C2122 C 0.20186 0.02800 0.14118
 C2123 C 0.19550 0.03455 0.12482
 C2124 C 0.20677 0.04437 0.11322
 C2125 C 0.22476 0.04707 0.11871
 C2126 C 0.23105 0.04046 0.13510
 C2127 C 0.22578 0.02484 0.16362
 C2128 C 0.23061 0.01990 0.17825
 H2129 H 0.19280 0.02085 0.14994
 H2130 H 0.18143 0.03256 0.12190
 H2131 H 0.23432 0.05381 0.11022
 H2132 H 0.24487 0.04277 0.13897
 C2133 C 0.71868 0.21895 0.60245
 C2134 C 0.71342 0.23066 0.61603
 C2135 C 0.70751 0.22413 0.63259
 C2136 C 0.70680 0.20580 0.63576
 C2137 C 0.71220 0.19417 0.62204
 C2138 C 0.71809 0.20072 0.60551
 C2139 C 0.72430 0.22552 0.58521
 C2140 C 0.72883 0.23061 0.57055
 H2141 H 0.71382 0.24480 0.61380
 H2142 H 0.70360 0.23341 0.64295
 H2143 H 0.71154 0.18000 0.62394
 H2144 H 0.72202 0.19153 0.59506
 C2145 C 0.72060 0.71809 0.10323
 C2146 C 0.71558 0.72999 0.11672
 C2147 C 0.70931 0.72371 0.13324
 C2148 C 0.70799 0.70542 0.13647
 C2149 C 0.71322 0.69358 0.12286
 C2150 C 0.71946 0.69989 0.10637
 C2151 C 0.72643 0.72444 0.08597
 C2152 C 0.73106 0.72943 0.07131
 H2153 H 0.71640 0.74411 0.11443
 H2154 H 0.70557 0.73314 0.14351
 H2155 H 0.71209 0.67944 0.12481
 H2156 H 0.72320 0.69056 0.09598
 C2157 C 0.52799 0.72108 0.14359
 C2158 C 0.52853 0.70284 0.14057
 C2159 C 0.53486 0.69624 0.12425
 C2160 C 0.54074 0.70780 0.11068
 C2161 C 0.53996 0.72615 0.11375
 C2162 C 0.53362 0.73274 0.13013
 C2163 C 0.52237 0.72761 0.16084
 C2164 C 0.51801 0.73247 0.17562
 H2165 H 0.52434 0.69370 0.15096
 H2166 H 0.53558 0.68205 0.12245
 H2167 H 0.54425 0.73538 0.10350
 H2168 H 0.53330 0.74689 0.13235
 C2169 C 0.02887 0.71955 0.64506
 C2170 C 0.02953 0.70135 0.64178
 C2171 C 0.03548 0.69502 0.62519
 C2172 C 0.04087 0.70683 0.61163
 C2173 C 0.03997 0.72512 0.61498
 C2174 C 0.03400 0.73143 0.63160
 C2175 C 0.02355 0.72585 0.66249
 C2176 C 0.01940 0.73063 0.67736
 H2177 H 0.02570 0.69203 0.65214
 H2178 H 0.03629 0.68087 0.62316
 H2179 H 0.04386 0.73453 0.60474
 H2180 H 0.03356 0.74555 0.63401
 C2181 C 0.52836 0.64687 0.22182
 C2182 C 0.54681 0.64358 0.22089
 C2183 C 0.55310 0.62724 0.21486
 C2184 C 0.54101 0.61391 0.20967
 C2185 C 0.52246 0.61726 0.21084
 C2186 C 0.51618 0.63366 0.21688
 C2187 C 0.52212 0.66408 0.22720
 C2188 C 0.51753 0.67880 0.23139
 H2189 H 0.55635 0.65376 0.22455
 H2190 H 0.56745 0.62520 0.21382
 H2191 H 0.51283 0.60720 0.20709
 H2192 H 0.50187 0.63608 0.21753
 C2193 C 0.02984 0.64526 0.72338
 C2194 C 0.04826 0.64194 0.72207
 C2195 C 0.05442 0.62563 0.71575
 C2196 C 0.04220 0.61239 0.71061
 C2197 C 0.02368 0.61576 0.71221
 C2198 C 0.01755 0.63210 0.71855
 C2199 C 0.02369 0.66246 0.72895
 C2200 C 0.01908 0.67715 0.73324
 H2201 H 0.05789 0.65207 0.72565
 H2202 H 0.06873 0.62358 0.71441
 H2203 H 0.01396 0.60577 0.70854
 H2204 H 0.00326 0.63454 0.71948
 C2205 C 0.02844 0.10506 0.02765
 C2206 C 0.02475 0.11008 0.04530
 C2207 C 0.03102 0.12619 0.05194
 C2208 C 0.04125 0.13776 0.04106
 C2209 C 0.04462 0.13250 0.02312
 C2210 C 0.03828 0.11633 0.01654
 C2211 C 0.02285 0.08791 0.02141
 C2212 C 0.01847 0.07324 0.01687
 H2213 H 0.01734 0.10133 0.05411
 H2214 H 0.02856 0.12890 0.06598
 H2215 H 0.05172 0.14096 0.01383
 H2216 H 0.04117 0.11258 0.00280
 C2217 C 0.02743 0.60549 0.52766
 C2218 C 0.04592 0.60853 0.52852
 C2219 C 0.05245 0.62475 0.53462
 C2220 C 0.04054 0.63820 0.53997
 C2221 C 0.02195 0.63511 0.53887
 C2222 C 0.01544 0.61883 0.53275
 C2223 C 0.02098 0.58839 0.52223
 C2224 C 0.01624 0.57375 0.51799
 H2225 H 0.05533 0.59825 0.52474
 H2226 H 0.06682 0.62659 0.53561
 H2227 H 0.01246 0.64526 0.54274
 H2228 H 0.00109 0.61660 0.53217
 C2229 C 0.52884 0.10429 0.52955
 C2230 C 0.54731 0.10746 0.53048
 C2231 C 0.55370 0.12371 0.53662
 C2232 C 0.54168 0.13707 0.54194
 C2233 C 0.52312 0.13385 0.54080
 C2234 C 0.51674 0.11754 0.53464
 C2235 C 0.52251 0.08719 0.52399
 C2236 C 0.51785 0.07256 0.51963
 H2237 H 0.55680 0.09725 0.52669
 H2238 H 0.56806 0.12566 0.53763
 H2239 H 0.51354 0.14393 0.54465
 H2240 H 0.50241 0.11521 0.53400
 C2241 C 0.52853 0.60482 0.02839
 C2242 C 0.52910 0.60822 0.04684
 C2243 C 0.53560 0.62436 0.05317
 C2244 C 0.54162 0.63740 0.04112
 C2245 C 0.54093 0.63391 0.02256
 C2246 C 0.53441 0.61771 0.01624
 C2247 C 0.52251 0.58782 0.02216
 C2248 C 0.51778 0.57326 0.01764
 H2249 H 0.52473 0.59829 0.05637
 H2250 H 0.53625 0.62649 0.06754
 H2251 H 0.54534 0.64374 0.01296
 H2252 H 0.53408 0.61519 0.00192
 C2253 C 0.72041 0.14736 0.52831
 C2254 C 0.72366 0.14254 0.54611
 C2255 C 0.71780 0.12622 0.55260
 C2256 C 0.70841 0.11425 0.54139
 C2257 C 0.70552 0.11932 0.52330
 C2258 C 0.71145 0.13569 0.51688
 C2259 C 0.72575 0.16457 0.52204
 C2260 C 0.73004 0.17919 0.51728
 H2261 H 0.73043 0.15159 0.55514
 H2262 H 0.71988 0.12359 0.56672
 H2263 H 0.69914 0.11056 0.51378
 H2264 H 0.70897 0.13925 0.50300
 C2265 C 0.72001 0.64694 0.02777
 C2266 C 0.70156 0.64371 0.02884
 C2267 C 0.69530 0.62734 0.03480
 C2268 C 0.70743 0.61393 0.03980
 C2269 C 0.72597 0.61724 0.03852
 C2270 C 0.73221 0.63366 0.03254
 C2271 C 0.72628 0.66408 0.02227
 C2272 C 0.73110 0.67865 0.01787
 H2273 H 0.69200 0.65394 0.02529
 H2274 H 0.68096 0.62531 0.03592
 H2275 H 0.73562 0.60713 0.04211
 H2276 H 0.74652 0.63603 0.03176
 C2277 C 0.22197 0.60259 0.72217
 C2278 C 0.23425 0.61571 0.71722
 C2279 C 0.22811 0.63220 0.71128
 C2280 C 0.20959 0.63575 0.71022
 C2281 C 0.19739 0.62250 0.71540
 C2282 C 0.20355 0.60607 0.72132
 C2283 C 0.22805 0.58529 0.72744
 C2284 C 0.23251 0.57050 0.73152
 H2285 H 0.24855 0.61313 0.71779
 H2286 H 0.23782 0.64218 0.70754
 H2287 H 0.18306 0.62469 0.71443
 H2288 H 0.19393 0.59596 0.72498
 C2289 C 0.22053 0.10277 0.22168
 C2290 C 0.23193 0.11436 0.21260
 C2291 C 0.22546 0.13058 0.20630
 C2292 C 0.20732 0.13558 0.20892
 C2293 C 0.19613 0.12371 0.21844
 C2294 C 0.20268 0.10752 0.22467
 C2295 C 0.22685 0.08566 0.22730
 C2296 C 0.23170 0.07109 0.23175
 H2297 H 0.24584 0.11084 0.21031
 H2298 H 0.23495 0.13930 0.19983
 H2299 H 0.18199 0.12628 0.22034
 H2300 H 0.19368 0.09853 0.23152
 C2301 C 0.72374 1.10514 0.72053
 C2302 C 0.72620 1.10969 0.70253
 C2303 C 0.71972 1.12577 0.69595
 C2304 C 0.71047 1.13774 0.70727
 C2305 C 0.70850 1.13301 0.72557
 C2306 C 0.71504 1.11689 0.73207
 C2307 C 0.72935 1.08801 0.72680
 C2308 C 0.73371 1.07335 0.73144
 H2309 H 0.73276 1.10058 0.69341
 H2310 H 0.72115 1.12813 0.68170
 H2311 H 0.70230 1.14184 0.73515
 H2312 H 0.71316 1.11354 0.74609
 C2313 C 0.72093 0.60447 0.22123
 C2314 C 0.70246 0.60773 0.22058
 C2315 C 0.69602 0.62394 0.21432
 C2316 C 0.70798 0.63717 0.20861
 C2317 C 0.72656 0.63387 0.20952
 C2318 C 0.73298 0.61760 0.21579
 C2319 C 0.72730 0.58735 0.22675
 C2320 C 0.73203 0.57268 0.23099
 H2321 H 0.69301 0.59761 0.22462
 H2322 H 0.68165 0.62594 0.21350
 H2323 H 0.73610 0.64385 0.20537
 H2324 H 0.74731 0.61520 0.21620
 C2325 C 0.52820 0.14345 0.72363
 C2326 C 0.53393 0.13038 0.73566
 C2327 C 0.54012 0.11409 0.72921
 C2328 C 0.54064 0.11072 0.71062
 C2329 C 0.53472 0.12392 0.69868
 C2330 C 0.52855 0.14015 0.70515
 C2331 C 0.52262 0.16055 0.72998
 C2332 C 0.51826 0.17521 0.73462
 H2333 H 0.53377 0.13282 0.75000
 H2334 H 0.54445 0.10413 0.73873
 H2335 H 0.53525 0.12188 0.68430
 H2336 H 0.52429 0.15022 0.69571
 C2337 C 1.02879 0.14585 0.22106
 C2338 C 1.01700 0.13245 0.21571
 C2339 C 1.02374 0.11638 0.20925
 C2340 C 1.04237 0.11354 0.20808
 C2341 C 1.05408 0.12709 0.21358
 C2342 C 1.04733 0.14310 0.22002
 C2343 C 1.02211 0.16273 0.22699
 C2344 C 1.01724 0.17723 0.23162
 H2345 H 1.00262 0.13447 0.21640
 H2346 H 1.01440 0.10615 0.20526
 H2347 H 1.06848 0.12545 0.21255
 H2348 H 1.05658 0.15343 0.22398
 C2349 C 0.22181 0.64501 0.52782
 C2350 C 0.20332 0.64199 0.52882
 C2351 C 0.19683 0.62570 0.53474
 C2352 C 0.20876 0.61213 0.53975
 C2353 C 0.22735 0.61520 0.53853
 C2354 C 0.23382 0.63156 0.53259
 C2355 C 0.22823 0.66217 0.52254
 C2356 C 0.23292 0.67686 0.51842
 H2357 H 0.19390 0.65235 0.52528
 H2358 H 0.18246 0.62387 0.53583
 H2359 H 0.23686 0.60497 0.54214
 H2360 H 0.24817 0.63377 0.53190
 C2361 C 0.22079 0.14772 1.03167
 C2362 C 0.20231 0.14455 1.03220
 C2363 C 0.19581 0.12834 1.03835
 C2364 C 0.20773 0.11502 1.04407
 C2365 C 0.22631 0.11830 1.04345
 C2366 C 0.23279 0.13457 1.03727
 C2367 C 0.22725 0.16469 1.02580
 C2368 C 0.23210 0.17916 1.02110
 H2369 H 0.19290 0.15468 1.02802
 H2370 H 0.18144 0.12635 1.03896
 H2371 H 0.23580 0.10826 1.04761
 H2372 H 0.24713 0.13690 1.03694
 C2373 C 0.22304 0.71869 0.60655
 C2374 C 0.21807 0.73044 0.62020
 C2375 C 0.21194 0.72396 0.63670
 C2376 C 0.21069 0.70563 0.63974
 C2377 C 0.21592 0.69396 0.62598
 C2378 C 0.22204 0.70045 0.60953
 C2379 C 0.22851 0.72518 0.58922
 C2380 C 0.23275 0.73008 0.57442
 H2381 H 0.21877 0.74458 0.61803
 H2382 H 0.20818 0.73327 0.64708
 H2383 H 0.21484 0.67980 0.62778
 H2384 H 0.22572 0.69124 0.59902
 C2385 C 0.22029 0.21765 1.10506
 C2386 C 0.21526 0.22931 1.11875
 C2387 C 0.20898 0.22274 1.13514
 C2388 C 0.20765 0.20439 1.13802
 C2389 C 0.21291 0.19280 1.12422
 C2390 C 0.21917 0.19939 1.10786
 C2391 C 0.22611 0.22430 1.08792
 C2392 C 0.23075 0.22950 1.07335
 H2393 H 0.21607 0.24347 1.11671
 H2394 H 0.20520 0.23198 1.14558
 H2395 H 0.21179 0.17862 1.12592
 H2396 H 0.22293 0.19025 1.09731
 C2397 C 0.72180 0.53087 0.14315
 C2398 C 0.71681 0.51912 0.12951
 C2399 C 0.71054 0.52561 0.11305
 C2400 C 0.70917 0.54393 0.11006
 C2401 C 0.71441 0.55561 0.12380
 C2402 C 0.72067 0.54911 0.14022
 C2403 C 0.72738 0.52439 0.16045
 C2404 C 0.73172 0.51951 0.17524
 H2405 H 0.71760 0.50498 0.13166
 H2406 H 0.70676 0.51630 0.10267
 H2407 H 0.71324 0.56977 0.12204
 H2408 H 0.72437 0.55832 0.15073
 C2409 C 0.72298 1.03129 0.64420
 C2410 C 0.71785 1.01961 0.63056
 C2411 C 0.71152 1.02617 0.61415
 C2412 C 0.71022 1.04452 0.61123
 C2413 C 0.71560 1.05612 0.62498
 C2414 C 0.72193 1.04954 0.64133
 C2415 C 0.72865 1.02474 0.66145
 C2416 C 0.73307 1.01985 0.67621
 H2417 H 0.71859 1.00545 0.63266
 H2418 H 0.70763 1.01692 0.60376
 H2419 H 0.71449 1.07029 0.62327
 H2420 H 0.72573 1.05870 0.65185
 C2421 C 0.52853 0.21838 0.64647
 C2422 C 0.54699 0.21744 0.64325
 C2423 C 0.55336 0.21142 0.62673
 C2424 C 0.54133 0.20624 0.61314
 C2425 C 0.52276 0.20730 0.61645
 C2426 C 0.51641 0.21334 0.63304
 C2427 C 0.52226 0.22402 0.66381
 C2428 C 0.51773 0.22853 0.67865
 H2429 H 0.55649 0.22118 0.65360
 H2430 H 0.56771 0.21045 0.62473
 H2431 H 0.51319 0.20353 0.60620
 H2432 H 0.50208 0.21399 0.63542
 C2433 C 1.02696 0.21983 0.14445
 C2434 C 1.03269 0.23159 0.13113
 C2435 C 1.03901 0.22513 0.11469
 C2436 C 1.03967 0.20682 0.11142
 C2437 C 1.03363 0.19515 0.12483
 C2438 C 1.02733 0.20162 0.14121
 C2439 C 1.02147 0.22623 0.16179
 C2440 C 1.01723 0.23100 0.17663
 H2441 H 1.03249 0.24572 0.13352
 H2442 H 1.04341 0.23444 0.10457
 H2443 H 1.03425 0.18098 0.12286
 H2444 H 1.02305 0.19240 0.15149
 C2445 C 0.60537 0.21773 0.72209
 C2446 C 0.60875 0.19955 0.72138
 C2447 C 0.62507 0.19329 0.71471
 C2448 C 0.63828 0.20514 0.70863
 C2449 C 0.63483 0.22342 0.70955
 C2450 C 0.61847 0.22966 0.71624
 C2451 C 0.58815 0.22396 0.72815
 C2452 C 0.57343 0.22867 0.73286
 H2453 H 0.59865 0.19019 0.72574
 H2454 H 0.62718 0.17914 0.71390
 H2455 H 0.64480 0.23287 0.70513
 H2456 H 0.61597 0.24377 0.71669
 C2457 C 1.10436 0.21851 0.22153
 C2458 C 1.10720 0.20024 0.22069
 C2459 C 1.12353 0.19358 0.21446
 C2460 C 1.13727 0.20510 0.20896
 C2461 C 1.13436 0.22346 0.21001
 C2462 C 1.11799 0.23012 0.21626
 C2463 C 1.08717 0.22514 0.22719
 C2464 C 1.07246 0.23009 0.23164
 H2465 H 1.09669 0.19114 0.22461
 H2466 H 1.12523 0.17939 0.21353
 H2467 H 1.14475 0.23266 0.20603
 H2468 H 1.11590 0.24428 0.21683
 C2469 C 0.14513 0.71964 0.52915
 C2470 C 0.14181 0.70146 0.52978
 C2471 C 0.12524 0.69518 0.53573
 C2472 C 0.11171 0.70702 0.54114
 C2473 C 0.11511 0.72531 0.54032
 C2474 C 0.13174 0.73157 0.53436
 C2475 C 0.16254 0.72587 0.52372
 C2476 C 0.17739 0.73053 0.51943
 H2477 H 0.15213 0.69211 0.52590
 H2478 H 0.12316 0.68103 0.53649
 H2479 H 0.10491 0.73474 0.54425
 H2480 H 0.13419 0.74568 0.53394
 C2481 C 0.14638 0.21852 1.03165
 C2482 C 0.14290 0.21723 1.05006
 C2483 C 0.12638 0.21086 1.05608
 C2484 C 0.11306 0.20569 1.04375
 C2485 C 0.11666 0.20705 1.02524
 C2486 C 0.13323 0.21344 1.01925
 C2487 C 0.16361 0.22472 1.02561
 C2488 C 0.17824 0.22970 1.02093
 H2489 H 0.15303 0.22101 1.05978
 H2490 H 0.12414 0.20970 1.07040
 H2491 H 0.10662 0.20332 1.01543
 H2492 H 0.13579 0.21437 1.00495
 C2493 C 0.64443 0.53071 0.22087
 C2494 C 0.64140 0.54895 0.22008
 C2495 C 0.62490 0.55548 0.21414
 C2496 C 0.61114 0.54385 0.20888
 C2497 C 0.61424 0.52551 0.20986
 C2498 C 0.63080 0.51899 0.21583
 C2499 C 0.66177 0.52421 0.22628
 C2500 C 0.67659 0.51936 0.23052
 H2501 H 0.65190 0.55814 0.22383
 H2502 H 0.62306 0.56966 0.21324
 H2503 H 0.60386 0.51623 0.20606
 H2504 H 0.63301 0.50484 0.21636
 C2505 C 0.64577 1.02966 0.72110
 C2506 C 0.64215 1.03055 0.70268
 C2507 C 0.62548 1.03656 0.69661
 C2508 C 0.61215 1.04177 0.70890
 C2509 C 0.61586 1.04072 0.72741
 C2510 C 0.63258 1.03469 0.73346
 C2511 C 0.66325 1.02410 0.72712
 C2512 C 0.67815 1.01972 0.73161
 H2513 H 0.65230 1.02681 0.69298
 H2514 H 0.62317 1.03749 0.68228
 H2515 H 0.60581 1.04448 0.73719
 H2516 H 0.63525 1.03408 0.74776
 C2517 C 0.85300 0.46735 0.27976
 C2518 C 0.85570 0.44910 0.28114
 C2519 C 0.87194 0.44248 0.28771
 C2520 C 0.88573 0.45406 0.29301
 C2521 C 0.88294 0.47240 0.29146
 C2522 C 0.86666 0.47900 0.28487
 C2523 C 0.83599 0.47403 0.27357
 C2524 C 0.82150 0.47923 0.26864
 H2525 H 0.84516 0.43997 0.27733
 H2526 H 0.87356 0.42831 0.28900
 H2527 H 0.89337 0.48163 0.29527
 H2528 H 0.86470 0.49316 0.28386
 C2529 C 0.85497 0.96856 0.78017
 C2530 C 0.85768 0.95028 0.78117
 C2531 C 0.87395 0.94355 0.78749
 C2532 C 0.88778 0.95502 0.79292
 C2533 C 0.88498 0.97339 0.79176
 C2534 C 0.86866 0.98011 0.78542
 C2535 C 0.83792 0.97531 0.77420
 C2536 C 0.82339 0.98048 0.76940
 H2537 H 0.84712 0.94123 0.77724
 H2538 H 0.87558 0.92936 0.78849
 H2539 H 0.89544 0.98254 0.79569
 H2540 H 0.86669 0.99429 0.78471
 C2541 C 0.39692 0.27843 0.78380
 C2542 C 0.38383 0.28352 0.77133
 C2543 C 0.36736 0.29025 0.77724
 C2544 C 0.36381 0.29197 0.79572
 C2545 C 0.37702 0.28667 0.80813
 C2546 C 0.39345 0.27996 0.80220
 C2547 C 0.41415 0.27219 0.77780
 C2548 C 0.42879 0.26730 0.77302
 H2549 H 0.38638 0.28241 0.75705
 H2550 H 0.35739 0.29405 0.76737
 H2551 H 0.37481 0.28809 0.82243
 H2552 H 0.40354 0.27618 0.81196
 C2553 C 0.89563 0.27990 0.28116
 C2554 C 0.89204 0.28107 0.29956
 C2555 C 0.87554 0.28758 0.30552
 C2556 C 0.86238 0.29303 0.29312
 C2557 C 0.86604 0.29164 0.27463
 C2558 C 0.88258 0.28511 0.26870
 C2559 C 0.91293 0.27389 0.27517
 C2560 C 0.92763 0.26915 0.27045
 H2561 H 0.90209 0.27718 0.30932
 H2562 H 0.87323 0.28875 0.31982
 H2563 H 0.85611 0.29557 0.26477
 H2564 H 0.88523 0.28427 0.25442
 C2565 C 0.35319 0.78197 0.46883
 C2566 C 0.36695 0.77066 0.46318
 C2567 C 0.38304 0.77765 0.45663
 C2568 C 0.38556 0.79607 0.45568
 C2569 C 0.37167 0.80730 0.46149
 C2570 C 0.35562 0.80029 0.46801
 C2571 C 0.33636 0.77494 0.47504
 C2572 C 0.32198 0.76957 0.48003
 H2573 H 0.36520 0.75645 0.46374
 H2574 H 0.39355 0.76868 0.45242
 H2575 H 0.37308 0.82153 0.46066
 H2576 H 0.34501 0.80917 0.47224
 C2577 C 0.35460 0.28068 0.97117
 C2578 C 0.36791 0.28634 0.98314
 C2579 C 0.38417 0.29298 0.97659
 C2580 C 0.38728 0.29404 0.95797
 C2581 C 0.37385 0.28817 0.94609
 C2582 C 0.35765 0.28155 0.95265
 C2583 C 0.33750 0.27466 0.97769
 C2584 C 0.32284 0.26996 0.98256
 H2585 H 0.36567 0.28576 0.99750
 H2586 H 0.39431 0.29724 0.98607
 H2587 H 0.37570 0.28909 0.93169
 H2588 H 0.34739 0.27734 0.94327
 C2589 C 0.77908 0.46746 0.35229
 C2590 C 0.77998 0.44926 0.35552
 C2591 C 0.78625 0.44295 0.37202
 C2592 C 0.79173 0.45478 0.38553
 C2593 C 0.79061 0.47307 0.38222
 C2594 C 0.78433 0.47936 0.36570
 C2595 C 0.77331 0.47383 0.33501
 C2596 C 0.76875 0.47886 0.32033
 H2597 H 0.77606 0.43994 0.34520
 H2598 H 0.78720 0.42880 0.37404
 H2599 H 0.79456 0.48250 0.39243
 H2600 H 0.78369 0.49348 0.36333
 C2601 C 0.78144 0.96812 0.85303
 C2602 C 0.78695 0.97974 0.86658
 C2603 C 0.79329 0.97311 0.88295
 C2604 C 0.79418 0.95476 0.88596
 C2605 C 0.78847 0.94321 0.87229
 C2606 C 0.78215 0.94986 0.85595
 C2607 C 0.77557 0.97479 0.83589
 C2608 C 0.77090 0.97997 0.82130
 H2609 H 0.78647 0.99390 0.86444
 H2610 H 0.79742 0.98232 0.89328
 H2611 H 0.78925 0.92903 0.87407
 H2612 H 0.77803 0.94075 0.84551
 C2613 C 0.27943 0.78224 0.39725
 C2614 C 0.28013 0.80044 0.39403
 C2615 C 0.28638 0.80681 0.37758
 C2616 C 0.29205 0.79503 0.36410
 C2617 C 0.29113 0.77674 0.36739
 C2618 C 0.28485 0.77039 0.38388
 C2619 C 0.27370 0.77583 0.41451
 C2620 C 0.26918 0.77076 0.42918
 H2621 H 0.27607 0.80973 0.40434
 H2622 H 0.28720 0.82097 0.37557
 H2623 H 0.29523 0.76735 0.35721
 H2624 H 0.28438 0.75626 0.38624
 C2625 C 0.27688 0.28173 0.89609
 C2626 C 0.28225 0.26979 0.88277
 C2627 C 0.28882 0.27604 0.86636
 C2628 C 0.29013 0.29433 0.86310
 C2629 C 0.28439 0.30619 0.87646
 C2630 C 0.27783 0.29992 0.89284
 C2631 C 0.27127 0.27544 0.91343
 C2632 C 0.26702 0.27061 0.92826
 H2633 H 0.28160 0.25568 0.88516
 H2634 H 0.29295 0.26659 0.85626
 H2635 H 0.28548 0.32033 0.87448
 H2636 H 0.27383 0.30928 0.90311
 C2637 C 0.47164 0.28184 0.85544
 C2638 C 0.47014 0.30012 0.85795
 C2639 C 0.46371 0.30684 0.87419
 C2640 C 0.45866 0.29536 0.88817
 C2641 C 0.46043 0.27700 0.88560
 C2642 C 0.46688 0.27030 0.86933
 C2643 C 0.47746 0.27503 0.83837
 C2644 C 0.48203 0.26966 0.82384
 H2645 H 0.47368 0.30917 0.84724
 H2646 H 0.46225 0.32101 0.87564
 H2647 H 0.45682 0.26784 0.89618
 H2648 H 0.46798 0.25613 0.86752
 C2649 C 0.96961 0.28327 0.35338
 C2650 C 0.96463 0.27175 0.36721
 C2651 C 0.95818 0.27849 0.38347
 C2652 C 0.95662 0.29686 0.38610
 C2653 C 0.96188 0.30832 0.37217
 C2654 C 0.96831 0.30156 0.35593
 C2655 C 0.97554 0.27642 0.33635
 C2656 C 0.98025 0.27103 0.32185
 H2657 H 0.96558 0.25758 0.36538
 H2658 H 0.95443 0.26934 0.39401
 H2659 H 0.96060 0.32250 0.37367
 H2660 H 0.97203 0.31059 0.34528
 C2661 C 0.47004 0.35060 0.78183
 C2662 C 0.46882 0.35357 0.80033
 C2663 C 0.46228 0.36966 0.80680
 C2664 C 0.45685 0.38304 0.79482
 C2665 C 0.45825 0.37998 0.77623
 C2666 C 0.46481 0.36385 0.76978
 C2667 C 0.47613 0.33371 0.77537
 C2668 C 0.48095 0.31929 0.77048
 H2669 H 0.47271 0.34336 0.80978
 H2670 H 0.46109 0.37148 0.82117
 H2671 H 0.45433 0.39009 0.76669
 H2672 H 0.46568 0.36167 0.75543
 C2673 C 0.96977 0.35237 0.28073
 C2674 C 0.96448 0.36567 0.26877
 C2675 C 0.95805 0.38181 0.27532
 C2676 C 0.95684 0.38482 0.29394
 C2677 C 0.96234 0.37140 0.30583
 C2678 C 0.96875 0.35530 0.29925
 C2679 C 0.97569 0.33546 0.27416
 C2680 C 0.98038 0.32103 0.26916
 H2681 H 0.96520 0.36353 0.25440
 H2682 H 0.95408 0.39195 0.26585
 H2683 H 0.96130 0.37319 0.32022
 H2684 H 0.97269 0.34504 0.30863
 C2685 C 0.28154 0.85222 0.47182
 C2686 C 0.26954 0.86560 0.46680
 C2687 C 0.27602 0.88170 0.46020
 C2688 C 0.29460 0.88459 0.45854
 C2689 C 0.30653 0.87109 0.46376
 C2690 C 0.30003 0.85503 0.47034
 C2691 C 0.27501 0.83535 0.47786
 C2692 C 0.27000 0.82094 0.48259
 H2693 H 0.25520 0.86354 0.46786
 H2694 H 0.26652 0.89189 0.45645
 H2695 H 0.32089 0.87279 0.46237
 H2696 H 0.30944 0.84472 0.47405
 C2697 C 0.27934 0.35473 0.97367
 C2698 C 0.29784 0.35775 0.97287
 C2699 C 0.30442 0.37369 0.96608
 C2700 C 0.29256 0.38688 0.95998
 C2701 C 0.27395 0.38384 0.96110
 C2702 C 0.26740 0.36785 0.96790
 C2703 C 0.27282 0.33780 0.97959
 C2704 C 0.26800 0.32326 0.98412
 H2705 H 0.30722 0.34763 0.97717
 H2706 H 0.31880 0.37549 0.96514
 H2707 H 0.26449 0.39381 0.95668
 H2708 H 0.25305 0.36564 0.96842
 C2709 C 0.78091 0.39688 0.27629
 C2710 C 0.79933 0.39376 0.27814
 C2711 C 0.80548 0.37751 0.28461
 C2712 C 0.79326 0.36413 0.28934
 C2713 C 0.77477 0.36730 0.28723
 C2714 C 0.76864 0.38359 0.28075
 C2715 C 0.77468 0.41395 0.27047
 C2716 C 0.76982 0.42849 0.26595
 H2717 H 0.80893 0.40400 0.27484
 H2718 H 0.81978 0.37558 0.28634
 H2719 H 0.76506 0.35719 0.29059
 H2720 H 0.75435 0.38587 0.27939
   
