data_POSCAR
  _audit_creation_date              2014-09-24
  _audit_creation_method            'ToBaCCo'
  _symmetry_space_group_name_H-M    'P1'
  _symmetry_Int_Tables_number       1
  _symmetry_cell_setting            triclinic
  loop_
  _symmetry_equiv_pos_as_xyz
 x,y,z
_cell_length_a 53.6164
_cell_length_b 53.6594
_cell_length_c 55.2264
_cell_angle_alpha 89.359800
_cell_angle_beta 89.512600
_cell_angle_gamma 89.563000
loop_
  _atom_site_label
  _atom_site_type_symbol
  _atom_site_fract_x
  _atom_site_fract_y
  _atom_site_fract_z
N1 N 0.34808 1.35498 0.34543
 N2 N 0.35228 0.85066 0.84923
 N3 N 0.86300 1.34979 0.84438
 N4 N 0.85502 0.85751 0.35445
 N5 N 0.65311 0.65977 0.33850
 N6 N 0.65196 0.14640 0.83793
 N7 N 1.15509 0.65001 0.84066
 N8 N 1.12990 0.14029 0.35328
 N9 N 0.64183 1.35711 0.64233
 N10 N 0.64953 0.84504 1.15998
 N11 N 1.15226 1.34349 1.15768
 N12 N 1.13955 0.85051 0.65080
 N13 N 0.34629 0.65151 0.66327
 N14 N 0.36675 0.13333 1.13934
 N15 N 0.85946 0.64319 1.14458
 N16 N 0.82919 0.16375 0.66812
 N17 N 1.34456 0.35196 0.66275
 N18 N 1.33946 0.83309 1.16986
 N19 N 0.86994 0.35986 1.14680
 N20 N 0.84833 0.84873 0.65478
 N21 N 0.65210 0.65018 0.65288
 N22 N 0.64085 1.14031 1.15261
 N23 N 0.14386 0.63991 1.14695
 N24 N 0.12521 1.13288 0.63465
 N25 N 1.36057 0.64949 0.34527
 N26 N 1.36785 1.13310 0.86244
 N27 N 0.83172 0.67629 0.82525
 N28 N 0.83977 1.15726 0.34354
 N29 N 0.64711 0.35504 0.35251
 N30 N 0.66303 0.84493 0.83776
 N31 N 0.13908 0.36084 0.85411
 N32 N 0.13736 0.85769 0.35589
 O33 O 1.09705 1.02422 1.11605
 O34 O 1.12703 1.02381 1.14317
 C35 C 1.10661 1.03273 1.13518
 C36 C 1.09420 1.05351 1.14800
 C37 C 1.10401 1.06221 1.16971
 H38 H 1.12008 1.05295 1.17758
 O39 O 0.91407 0.98300 1.12671
 O40 O 0.88579 0.98426 1.15594
 C41 C 0.90602 0.97551 1.14716
 C42 C 0.92015 0.95619 1.16068
 C43 C 0.91432 0.95102 1.18497
 H44 H 0.89980 0.96162 1.19407
 O45 O 1.02888 1.12318 1.08554
 O46 O 1.03018 1.15348 1.11216
 C47 C 1.03743 1.14395 1.09235
 C48 C 1.05636 1.15685 1.07731
 C49 C 1.06359 1.18124 1.08272
 H50 H 1.05436 1.19107 1.09733
 O51 O 0.97735 0.88234 1.09501
 O52 O 0.97708 0.85356 1.12387
 C53 C 0.96882 0.86225 1.10393
 C54 C 0.94941 0.84868 1.09075
 C55 C 0.94473 0.82364 1.09631
 H56 H 0.95532 0.81423 1.11038
 O57 O 1.12729 1.08781 1.01879
 O58 O 1.15597 1.11707 1.01744
 C59 C 1.14764 1.09683 1.02628
 C60 C 1.16145 1.08411 1.04593
 C61 C 1.18349 1.09439 1.05476
 H62 H 1.19111 1.11095 1.04618
 O63 O 0.87644 0.91478 1.03278
 O64 O 0.84751 0.88584 1.03457
 C65 C 0.85662 0.90599 1.04233
 C66 C 0.84471 0.91887 1.06326
 C67 C 0.82371 0.90864 1.07522
 H68 H 0.81544 0.89167 1.06867
 O69 O 0.98200 1.09112 1.12313
 O70 O 0.98393 1.12091 1.15022
 C71 C 0.97451 1.10078 1.14282
 C72 C 0.95391 1.08900 1.15663
 C73 C 0.94705 1.09758 1.17966
 H74 H 0.95764 1.11233 1.18790
 O75 O 1.02789 0.91427 1.12582
 O76 O 1.02811 0.88577 1.15489
 C77 C 1.03705 0.90541 1.14522
 C78 C 1.05884 0.91781 1.15598
 C79 C 1.06929 0.90913 1.17782
 H80 H 1.06094 0.89358 1.18749
 O81 O 1.12896 0.97368 1.08370
 O82 O 1.15919 0.97329 1.11055
 C83 C 1.14916 0.96443 1.09177
 C84 C 1.16045 0.94258 1.07963
 C85 C 1.18370 0.93296 1.08692
 H86 H 1.19411 0.94231 1.10083
 O87 O 0.87861 1.03018 1.09280
 O88 O 0.84987 1.03162 1.12154
 C89 C 0.85843 1.03920 1.10124
 C90 C 0.84549 1.05924 1.08743
 C91 C 0.82334 1.07032 1.09614
 H92 H 0.81493 1.06363 1.11287
 O93 O 0.91531 1.12214 1.02421
 O94 O 0.88750 1.15264 1.02323
 C95 C 0.90714 1.14290 1.03197
 C96 C 0.91981 1.15557 1.05199
 C97 C 0.90965 1.17765 1.06122
 H98 H 0.89347 1.18607 1.05270
 O99 O 1.08520 0.87334 1.02587
 O100 O 1.11317 0.84297 1.02569
 C101 C 1.09337 0.85278 1.03425
 C102 C 1.08004 0.84047 1.05450
 C103 C 1.08497 0.81550 1.06035
 H104 H 1.09809 0.80488 1.04946
 O105 O 0.91267 1.03128 1.12603
 O106 O 0.88413 1.03264 1.15498
 C107 C 0.90447 1.04036 1.14577
 C108 C 0.91890 1.06010 1.15785
 C109 C 0.91202 1.06917 1.18084
 H110 H 0.89595 1.06155 1.19025
 O111 O 1.09617 0.97596 1.11821
 O112 O 1.12634 0.97556 1.14513
 C113 C 1.10544 0.96773 1.13784
 C114 C 1.09223 0.94837 1.15206
 C115 C 1.10227 0.93958 1.17386
 H116 H 1.11905 0.94794 1.18084
 O117 O 1.02536 0.87858 1.09477
 O118 O 1.02515 0.84983 1.12364
 C119 C 1.03301 0.85777 1.10323
 C120 C 1.05116 0.84292 1.08889
 C121 C 1.05674 0.81789 1.09486
 H122 H 1.04782 0.80900 1.11034
 O123 O 0.98070 1.12306 1.08805
 O124 O 0.98175 1.15311 1.11496
 C125 C 0.97244 1.14361 1.09610
 C126 C 0.95140 1.15608 1.08360
 C127 C 0.94076 1.17815 1.09272
 H128 H 0.94829 1.18655 1.10881
 O129 O 0.87939 1.09020 1.02481
 O130 O 0.85179 1.12087 1.02373
 C131 C 0.85957 1.10044 1.03282
 C132 C 0.84612 1.08909 1.05367
 C133 C 0.82408 1.09996 1.06261
 H134 H 0.81594 1.11583 1.05321
 O135 O 1.12171 0.90486 1.02463
 O136 O 1.14968 0.87449 1.02466
 C137 C 1.14197 0.89535 1.03245
 C138 C 1.15666 0.90860 1.05085
 C139 C 1.17998 0.89931 1.05827
 H140 H 1.18735 0.88237 1.05037
 O141 O 0.97919 0.91587 1.12827
 O142 O 0.97898 0.88769 1.15764
 C143 C 0.97095 0.90808 1.14860
 C144 C 0.95158 0.92288 1.16148
 C145 C 0.94505 0.91757 1.18572
 H146 H 0.95440 0.90262 1.19548
 O147 O 1.03075 1.08973 1.11971
 O148 O 1.03280 1.11977 1.14652
 C149 C 1.04068 1.09910 1.13825
 C150 C 1.06201 1.08599 1.14973
 C151 C 1.07220 1.09451 1.17148
 H152 H 1.06409 1.11059 1.18036
 O153 O 0.87884 0.98151 1.09518
 O154 O 0.85030 0.98260 1.12414
 C155 C 0.85892 0.97315 1.10475
 C156 C 0.84610 0.95168 1.09373
 C157 C 0.82531 0.94109 1.10537
 H158 H 0.81798 0.94937 1.12179
 O159 O 1.13090 1.02252 1.08259
 O160 O 1.16096 1.02222 1.10960
 C161 C 1.15148 1.03085 1.09026
 C162 C 1.16370 1.05164 1.07712
 C163 C 1.18572 1.06231 1.08589
 H164 H 1.19457 1.05453 1.10186
 O165 O 0.91135 0.88104 1.03158
 O166 O 0.88257 0.85190 1.03294
 C167 C 0.90305 0.86072 1.04034
 C168 C 0.91729 0.84766 1.05961
 C169 C 0.91248 0.82263 1.06578
 H170 H 0.89833 0.81240 1.05622
 O171 O 1.09211 1.12147 1.01827
 O172 O 1.12083 1.15068 1.01678
 C173 C 1.10065 1.14205 1.02553
 C174 C 1.08727 1.15587 1.04467
 C175 C 1.09447 1.18013 1.05049
 H176 H 1.10972 1.18879 1.04065
 Cu177 Cu 1.11038 0.99911 1.09727
 Cu178 Cu 1.14647 0.99866 1.12978
 Cu179 Cu 0.89881 1.00654 1.10723
 Cu180 Cu 0.86453 1.00785 1.14196
 Cu181 Cu 1.00550 1.10366 1.10153
 Cu182 Cu 1.00742 1.13979 1.13375
 Cu183 Cu 1.00252 0.90072 1.10821
 Cu184 Cu 1.00216 0.86649 1.14310
 C185 C 1.07307 1.06536 1.13823
 H186 H 1.06560 1.05887 1.12128
 C187 C 1.09326 1.08271 1.18150
 C188 C 0.93907 0.94233 1.14919
 H189 H 0.94360 0.94626 1.13039
 C190 C 0.92669 0.93187 1.19759
 C191 C 1.06805 1.14444 1.05802
 H192 H 1.06276 1.12551 1.05390
 C193 C 1.08270 1.19302 1.06943
 C194 C 0.93587 0.86047 1.07217
 H195 H 0.93953 0.87983 1.06775
 C196 C 0.92654 0.81048 1.08381
 C197 C 1.15188 1.06256 1.05699
 H198 H 1.13463 1.05481 1.05045
 C199 C 1.19558 1.08388 1.07491
 C200 C 0.85558 0.94052 1.07261
 H201 H 0.87194 0.94831 1.06383
 C202 C 0.81416 0.91950 1.09649
 C203 C 0.93993 1.07009 1.14606
 H204 H 0.94511 1.06355 1.12821
 C205 C 0.92624 1.08775 1.19197
 C206 C 1.07037 0.93758 1.14336
 H207 H 1.06277 0.94412 1.12630
 C208 C 1.09117 0.91987 1.18670
 C209 C 1.14720 0.93037 1.06146
 H210 H 1.12912 0.93748 1.05597
 C211 C 1.19367 0.91138 1.07624
 C212 C 0.85647 1.06858 1.06602
 H213 H 0.87375 1.06046 1.05941
 C214 C 0.81263 1.09083 1.08387
 C215 C 0.94081 1.14498 1.06315
 H216 H 0.94852 1.12771 1.05625
 C217 C 0.91965 1.18881 1.08174
 C218 C 1.06289 0.85393 1.06863
 H219 H 1.05908 0.87328 1.06411
 C220 C 1.07334 0.80405 1.08032
 O221 O 1.09019 0.97155 0.88031
 O222 O 1.11991 0.96910 0.85256
 C223 C 1.09922 0.96169 0.86135
 C224 C 1.08603 0.94096 0.84962
 C225 C 1.09632 0.93010 0.82889
 H226 H 1.11330 0.93756 0.82096
 O227 O 0.91026 1.02381 0.87890
 O228 O 0.88033 1.02414 0.85176
 C229 C 0.90107 1.03224 0.85930
 C230 C 0.91463 1.05201 0.84564
 C231 C 0.90654 1.06054 0.82276
 H232 H 0.89041 1.05225 0.81446
 O233 O 0.98071 1.11894 0.90923
 O234 O 0.98007 1.14854 0.88118
 C235 C 0.97255 1.13974 0.90145
 C236 C 0.95412 1.15367 0.91618
 C237 C 0.94893 1.17884 0.91100
 H238 H 0.95885 1.18825 0.89642
 O239 O 1.02120 0.87300 0.91337
 O240 O 1.01989 0.84297 0.88651
 C241 C 1.02892 0.85201 0.90566
 C242 C 1.04897 0.83849 0.91895
 C243 C 1.05711 0.81455 0.91188
 H244 H 1.04827 0.80538 0.89687
 O245 O 1.11968 0.90602 0.97782
 O246 O 1.14824 0.87619 0.97802
 C247 C 1.14003 0.89694 0.96995
 C248 C 1.15439 0.91072 0.95135
 C249 C 1.17922 0.90414 0.94640
 H250 H 1.18776 0.88872 0.95616
 O251 O 0.87992 1.08959 0.97732
 O252 O 0.85267 1.12057 0.97651
 C253 C 0.86042 1.09977 0.96864
 C254 C 0.84704 1.08793 0.94857
 C255 C 0.82594 1.09961 0.93866
 H256 H 0.81868 1.11660 0.94657
 O257 O 1.02721 1.08472 0.87368
 O258 O 1.02698 1.11373 0.84510
 C259 C 1.03550 1.09332 0.85371
 C260 C 1.05596 1.07970 0.84124
 C261 C 1.06570 1.08785 0.81879
 H262 H 1.05750 1.10382 0.80960
 O263 O 0.97343 0.90812 0.87940
 O264 O 0.97252 0.87870 0.85189
 C265 C 0.96458 0.89939 0.85995
 C266 C 0.94448 0.91339 0.84720
 C267 C 0.93693 0.90721 0.82359
 H268 H 0.94622 0.89222 0.81403
 O269 O 1.12582 1.02070 0.90997
 O270 O 1.15528 1.01866 0.88193
 C271 C 1.14636 1.02833 0.90103
 C272 C 1.15937 1.04922 0.91264
 C273 C 1.18142 1.05924 0.90260
 H274 H 1.18983 1.05107 0.88661
 O275 O 0.87690 0.97719 0.91575
 O276 O 0.84663 0.97708 0.88899
 C277 C 0.85601 0.96911 0.90874
 C278 C 0.84282 0.94999 0.92360
 C279 C 0.81906 0.94169 0.91698
 H280 H 0.80990 0.94998 0.90142
 O281 O 1.09247 1.12078 0.97090
 O282 O 1.12142 1.14977 0.96977
 C283 C 1.10137 1.14069 0.96177
 C284 C 1.08898 1.15299 0.94100
 C285 C 1.09910 1.17474 0.93082
 H286 H 1.11520 1.18323 0.93901
 O287 O 0.90926 0.88035 0.98411
 O288 O 0.87992 0.85180 0.98564
 C289 C 0.89989 0.86030 0.97625
 C290 C 0.91181 0.84707 0.95557
 C291 C 0.90177 0.82458 0.94731
 H292 H 0.88561 0.81672 0.95638
 O293 O 0.90928 0.97527 0.88049
 O294 O 0.87934 0.97543 0.85336
 C295 C 0.89986 0.96676 0.86127
 C296 C 0.91286 0.94649 0.84812
 C297 C 0.90582 0.94034 0.82457
 H298 H 0.89086 0.95066 0.81588
 O299 O 1.09173 1.01996 0.87710
 O300 O 1.12110 1.01765 0.84900
 C301 C 1.10091 1.02716 0.85697
 C302 C 1.08826 1.04732 0.84317
 C303 C 1.09791 1.05581 0.82094
 H304 H 1.11426 1.04686 0.81319
 O305 O 0.97273 0.87747 0.91603
 O306 O 0.97115 0.84767 0.88894
 C307 C 0.96327 0.85744 0.90854
 C308 C 0.94257 0.84573 0.92249
 C309 C 0.93230 0.82323 0.91473
 H310 H 0.94024 0.81396 0.89911
 O311 O 1.02885 1.11949 0.90575
 O312 O 1.02833 1.14864 0.87728
 C313 C 1.03723 1.13973 0.89678
 C314 C 1.05787 1.15262 0.90898
 C315 C 1.06819 1.17461 0.89909
 H316 H 1.06067 1.18276 0.88265
 O317 O 0.87635 0.91583 0.98514
 O318 O 0.84693 0.88736 0.98685
 C319 C 0.85584 0.90729 0.97766
 C320 C 0.84268 0.92011 0.95749
 C321 C 0.81906 0.91203 0.95043
 H322 H 0.81028 0.89680 0.96022
 O323 O 1.12615 1.08632 0.97184
 O324 O 1.15504 1.11539 0.97057
 C325 C 1.14624 1.09502 0.96300
 C326 C 1.15903 1.08185 0.94310
 C327 C 1.18080 1.09169 0.93279
 H328 H 1.18898 1.10831 0.94026
 O329 O 1.02224 0.90806 0.88080
 O330 O 1.02174 0.87821 0.85371
 C331 C 1.03094 0.89832 0.86166
 C332 C 1.05262 0.91007 0.84931
 C333 C 1.06325 0.89956 0.82833
 H334 H 1.05503 0.88325 0.82032
 O335 O 0.97850 1.08604 0.87543
 O336 O 0.97796 1.11517 0.84696
 C337 C 0.96942 1.09510 0.85604
 C338 C 0.94838 1.08247 0.84419
 C339 C 0.94026 1.09046 0.82132
 H340 H 0.94985 1.10558 0.81210
 O341 O 0.87708 1.02563 0.91302
 O342 O 0.84694 1.02584 0.88610
 C343 C 0.85673 1.03463 0.90501
 C344 C 0.84498 1.05610 0.91741
 C345 C 0.82370 1.06799 0.90780
 H346 H 0.81507 1.06087 0.89164
 O347 O 1.12395 0.97235 0.91342
 O348 O 1.15391 0.97027 0.88585
 C349 C 1.14437 0.96306 0.90585
 C350 C 1.15674 0.94328 0.92025
 C351 C 1.18163 0.93652 0.91555
 H352 H 1.19220 0.94653 0.90182
 O353 O 1.08564 0.87188 0.97836
 O354 O 1.11399 0.84189 0.97841
 C355 C 1.09391 0.85128 0.97025
 C356 C 1.08044 0.83827 0.95080
 C357 C 1.08800 0.81432 0.94371
 H358 H 1.10330 0.80511 0.95298
 O359 O 0.91641 1.12111 0.97690
 O360 O 0.88907 1.15205 0.97641
 C361 C 0.90901 1.14198 0.96849
 C362 C 0.92344 1.15470 0.94913
 C363 C 0.91850 1.17979 0.94364
 H364 H 0.90431 1.18975 0.95381
 Cu365 Cu 1.10499 0.99644 0.89803
 Cu366 Cu 1.14048 0.99358 0.86447
 Cu367 Cu 0.89637 1.00043 0.89970
 Cu368 Cu 0.86025 1.00047 0.86737
 Cu369 Cu 1.10653 1.10118 0.99521
 Cu370 Cu 1.14121 1.13618 0.99361
 Cu371 Cu 1.10012 0.89195 1.00170
 Cu372 Cu 1.13398 0.85575 1.00161
 Cu373 Cu 0.90047 1.10257 1.00087
 Cu374 Cu 0.86747 1.13958 0.99979
 Cu375 Cu 0.89622 0.90085 1.00834
 Cu376 Cu 0.86128 0.86643 1.01016
 Cu377 Cu 1.00393 1.09930 0.89375
 Cu378 Cu 1.00309 1.13437 0.85967
 Cu379 Cu 0.99751 0.89461 0.89998
 Cu380 Cu 0.99613 0.85896 0.86754
 C381 C 1.06407 0.93096 0.85967
 H382 H 1.05631 0.93901 0.87601
 C383 C 1.08528 0.90939 0.81831
 C384 C 0.93567 1.06304 0.85605
 H385 H 0.94182 1.05695 0.87380
 C386 C 0.91953 1.07959 0.81038
 C387 C 0.94150 1.14180 0.93550
 H388 H 0.94521 1.12232 0.93951
 C389 C 0.93125 1.19206 0.92478
 C390 C 1.06072 0.85005 0.93853
 H391 H 1.05495 0.86860 0.94385
 C392 C 1.07646 0.80224 0.92441
 C393 C 1.14334 0.93048 0.93839
 H394 H 1.12405 0.93545 0.94198
 C395 C 1.19304 0.91705 0.92870
 C396 C 0.85632 1.06608 0.93798
 H397 H 0.87294 1.05731 0.94529
 C398 C 0.81431 1.08995 0.91822
 C399 C 1.06718 1.05920 0.85300
 H400 H 1.05999 1.05296 0.87040
 C401 C 1.08678 1.07600 0.80866
 C402 C 0.93236 0.93314 0.85914
 H403 H 0.93777 0.93784 0.87737
 C404 C 0.91786 0.92099 0.81200
 C405 C 1.14856 1.06050 0.93308
 H406 H 1.13143 1.05315 0.94073
 C407 C 1.19197 1.08068 0.91252
 C408 C 0.85435 0.93926 0.94408
 H409 H 0.87280 0.94527 0.94916
 C410 C 0.80706 0.92268 0.93027
 C411 C 1.06827 1.14213 0.93008
 H412 H 1.06070 1.12505 0.93764
 C413 C 1.08902 1.18553 0.90984
 C414 C 0.93232 0.85743 0.94307
 H415 H 0.93993 0.87495 0.94903
 C416 C 0.91183 0.81257 0.92690
 O417 O 0.97441 0.41619 0.37738
 O418 O 0.97312 0.38784 0.34883
 C419 C 0.96647 0.40896 0.35706
 C420 C 0.94891 0.42521 0.34335
 C421 C 0.94261 0.41997 0.31925
 H422 H 0.95106 0.40416 0.31020
 O423 O 1.04281 0.58481 0.37716
 O424 O 1.04867 0.61338 0.34871
 C425 C 1.05387 0.59223 0.35802
 C426 C 1.07349 0.57635 0.34702
 C427 C 1.08434 0.58276 0.32460
 H428 H 1.07791 0.59927 0.31498
 O429 O 0.87970 0.49276 0.40675
 O430 O 0.85265 0.49538 0.37697
 C431 C 0.85945 0.48600 0.39713
 C432 C 0.84412 0.46629 0.40891
 C433 C 0.82227 0.45813 0.39775
 H434 H 0.81584 0.46744 0.38143
 O435 O 1.13609 0.51032 0.41733
 O436 O 1.16632 0.50516 0.39049
 C437 C 1.15777 0.51560 0.40930
 C438 C 1.17281 0.53465 0.42157
 C439 C 1.19658 0.54120 0.41284
 H440 H 1.20442 0.53160 0.39736
 O441 O 0.89905 0.38722 0.47178
 O442 O 0.86677 0.36209 0.47051
 C443 C 0.88826 0.36845 0.46285
 C444 C 0.90051 0.35477 0.44262
 C445 C 0.88885 0.33439 0.43154
 H446 H 0.87114 0.32759 0.43840
 O447 O 1.10869 0.61013 0.47609
 O448 O 1.13963 0.63696 0.47737
 C449 C 1.11914 0.62986 0.46841
 C450 C 1.10718 0.64478 0.44906
 C451 C 1.11442 0.66951 0.44468
 H452 H 1.12914 0.67756 0.45531
 O453 O 0.91998 0.53754 0.37422
 O454 O 0.89267 0.54059 0.34467
 C455 C 0.91327 0.54681 0.35399
 C456 C 0.92936 0.56541 0.34153
 C457 C 0.92203 0.57655 0.31952
 H458 H 0.90470 0.57112 0.31120
 O459 O 1.09697 0.46537 0.38520
 O460 O 1.12752 0.46059 0.35861
 C461 C 1.10588 0.45510 0.36634
 C462 C 1.09143 0.43610 0.35341
 C463 C 1.10191 0.42464 0.33300
 H464 H 1.12011 0.43025 0.32632
 O465 O 1.01532 0.37568 0.41371
 O466 O 1.01397 0.34659 0.38588
 C467 C 1.02176 0.35430 0.40615
 C468 C 1.03877 0.33868 0.42115
 C469 C 1.04440 0.31383 0.41505
 H470 H 1.03606 0.30558 0.39926
 O471 O 0.99737 0.62569 0.40726
 O472 O 1.00285 0.65436 0.37881
 C473 C 0.99219 0.64694 0.39818
 C474 C 0.97322 0.66287 0.41009
 C475 C 0.96794 0.68696 0.40116
 H476 H 0.97796 0.69404 0.38546
 O477 O 0.88974 0.60796 0.46648
 O478 O 0.86493 0.64087 0.46445
 C479 C 0.87131 0.61940 0.45707
 C480 C 0.85748 0.60772 0.43710
 C481 C 0.83623 0.61932 0.42732
 H482 H 0.82937 0.63659 0.43497
 O483 O 1.11241 0.39675 0.48415
 O484 O 1.13753 0.36405 0.48610
 C485 C 1.13196 0.38525 0.47718
 C486 C 1.14821 0.39654 0.45837
 C487 C 1.17043 0.38458 0.45122
 H488 H 1.17606 0.36718 0.45977
 O489 O 0.99446 0.59164 0.37478
 O490 O 1.00008 0.62018 0.34626
 C491 C 0.98817 0.60161 0.35476
 C492 C 0.96614 0.59210 0.34184
 C493 C 0.95843 0.60312 0.31993
 H494 H 0.96944 0.61784 0.31170
 O495 O 1.02269 0.40901 0.38016
 O496 O 1.02147 0.38015 0.35210
 C497 C 1.03184 0.39899 0.36127
 C498 C 1.05527 0.40882 0.35048
 C499 C 1.06605 0.39776 0.32979
 H500 H 1.05679 0.38255 0.32088
 O501 O 1.12751 0.46260 0.42117
 O502 O 1.15798 0.45744 0.39457
 C503 C 1.14683 0.45098 0.41405
 C504 C 1.15581 0.42914 0.42803
 C505 C 1.17813 0.41719 0.42146
 H506 H 1.18942 0.42466 0.40675
 O507 O 0.88384 0.54152 0.40546
 O508 O 0.85643 0.54424 0.37600
 C509 C 0.86507 0.55215 0.39581
 C510 C 0.85400 0.57453 0.40736
 C511 C 0.83260 0.58633 0.39787
 H512 H 0.82332 0.57848 0.38240
 O513 O 0.92914 0.63556 0.46827
 O514 O 0.90452 0.66862 0.46626
 C515 C 0.92396 0.65685 0.45942
 C516 C 0.94025 0.66772 0.44043
 C517 C 0.93575 0.69193 0.43180
 H518 H 0.92147 0.70320 0.44044
 O519 O 1.07367 0.36820 0.48315
 O520 O 1.09869 0.33546 0.48559
 C521 C 1.08025 0.34673 0.47598
 C522 C 1.06680 0.33502 0.45581
 C523 C 1.07167 0.31016 0.44980
 H524 H 1.08462 0.29916 0.46053
 O525 O 1.10200 0.51361 0.38433
 O526 O 1.13221 0.50870 0.35741
 C527 C 1.11261 0.51997 0.36464
 C528 C 1.10230 0.54103 0.35036
 C529 C 1.11275 0.54753 0.32784
 H530 H 1.12778 0.53634 0.32036
 O531 O 0.91568 0.48932 0.37520
 O532 O 0.88878 0.49239 0.34529
 C533 C 0.90771 0.48200 0.35492
 C534 C 0.92037 0.46105 0.34248
 C535 C 0.91467 0.45575 0.31837
 H536 H 0.90128 0.46729 0.30873
 O537 O 1.04512 0.61842 0.41023
 O538 O 1.05056 0.64742 0.38207
 C539 C 1.05637 0.63762 0.40233
 C540 C 1.07642 0.64861 0.41688
 C541 C 1.08381 0.67332 0.41278
 H542 H 1.07436 0.68450 0.39916
 O543 O 0.96729 0.38204 0.41018
 O544 O 0.96584 0.35350 0.38182
 C545 C 0.95694 0.36319 0.40096
 C546 C 0.93401 0.35274 0.41218
 C547 C 0.92195 0.33268 0.40135
 H548 H 0.92976 0.32435 0.38515
 O549 O 1.14145 0.57459 0.47876
 O550 O 1.17272 0.60098 0.47975
 C551 C 1.16280 0.58158 0.47128
 C552 C 1.17543 0.56724 0.45188
 C553 C 1.19914 0.57385 0.44278
 H554 H 1.20915 0.58912 0.45078
 O555 O 0.86967 0.42570 0.47016
 O556 O 0.83725 0.40070 0.46934
 C557 C 0.84897 0.41951 0.46104
 C558 C 0.83899 0.43374 0.43997
 C559 C 0.81732 0.42572 0.42826
 H560 H 0.80756 0.40946 0.43508
 Cu561 Cu 0.99511 0.39863 0.39809
 Cu562 Cu 0.99345 0.36418 0.36430
 Cu563 Cu 1.01938 0.60217 0.39511
 Cu564 Cu 1.02622 0.63660 0.36097
 Cu565 Cu 0.90241 0.51507 0.39346
 Cu566 Cu 0.86980 0.51834 0.35785
 Cu567 Cu 1.11266 0.48857 0.40474
 Cu568 Cu 1.14906 0.48247 0.37261
 C569 C 0.93776 0.44591 0.35472
 H570 H 0.94214 0.44989 0.37339
 C571 C 0.92575 0.43541 0.30660
 C572 C 1.08248 0.55535 0.35966
 H573 H 1.07451 0.55055 0.37717
 C574 C 1.10394 0.56840 0.31486
 C575 C 0.85220 0.45414 0.43018
 H576 H 0.86926 0.46006 0.43868
 C577 C 0.80896 0.43764 0.40699
 C578 C 1.16267 0.54748 0.44127
 H579 H 1.14425 0.54256 0.44787
 C580 C 1.20996 0.56074 0.42331
 C581 C 0.92325 0.36354 0.43289
 H582 H 0.93225 0.37936 0.44102
 C583 C 0.89949 0.32347 0.41082
 C584 C 1.08803 0.63453 0.43521
 H585 H 1.08240 0.61543 0.43847
 C586 C 1.10263 0.68402 0.42676
 C587 C 0.95157 0.57314 0.35237
 H588 H 0.95716 0.56488 0.36948
 C589 C 0.93638 0.59553 0.30868
 C590 C 1.06803 0.42820 0.36198
 H591 H 1.06012 0.43662 0.37807
 C592 C 1.08949 0.40552 0.32124
 C593 C 1.05003 0.34900 0.44165
 H594 H 1.04631 0.36826 0.44621
 C595 C 1.06060 0.29945 0.42955
 C596 C 0.95930 0.65344 0.42976
 H597 H 0.96275 0.63463 0.43630
 C598 C 0.94907 0.70156 0.41185
 C599 C 0.86606 0.58526 0.42714
 H600 H 0.88270 0.57648 0.43437
 C601 C 0.82366 0.60881 0.40772
 C602 C 1.14113 0.41891 0.44678
 H603 H 1.12373 0.42792 0.45180
 C604 C 1.18546 0.39491 0.43289
 O605 O 1.00624 0.41249 0.62294
 O606 O 1.00099 0.38457 0.65211
 C607 C 1.01272 0.40307 0.64318
 C608 C 1.03469 0.41307 0.65602
 C609 C 1.04245 0.40229 0.67805
 H610 H 1.03151 0.38756 0.68635
 O611 O 0.98053 0.59563 0.61468
 O612 O 0.98277 0.62514 0.64205
 C613 C 0.97210 0.60606 0.63361
 C614 C 0.94945 0.59608 0.64565
 C615 C 0.94171 0.60494 0.66830
 H616 H 0.95258 0.61909 0.67712
 O617 O 0.87505 0.54336 0.57765
 O618 O 0.84420 0.54756 0.60398
 C619 C 0.85528 0.55440 0.58465
 C620 C 0.84560 0.57596 0.57063
 C621 C 0.82324 0.58773 0.57748
 H622 H 0.81257 0.58046 0.59270
 O623 O 1.11601 0.46564 0.59267
 O624 O 1.14381 0.46200 0.62174
 C625 C 1.13493 0.45483 0.60171
 C626 C 1.14623 0.43347 0.58880
 C627 C 1.17025 0.42478 0.59452
 H628 H 1.18096 0.43418 0.60818
 O629 O 1.07185 0.36822 0.53049
 O630 O 1.09732 0.33585 0.53293
 C631 C 1.07780 0.34731 0.53990
 C632 C 1.06218 0.33663 0.55958
 C633 C 1.06815 0.31341 0.57014
 H634 H 1.08403 0.30286 0.56344
 O635 O 0.92488 0.63744 0.51514
 O636 O 0.90015 0.67043 0.51320
 C637 C 0.91846 0.65889 0.52265
 C638 C 0.93221 0.67014 0.54288
 C639 C 0.92604 0.69412 0.55125
 H640 H 0.91153 0.70493 0.54242
 O641 O 0.90118 0.49248 0.61468
 O642 O 0.87050 0.49687 0.64120
 C643 C 0.89020 0.48579 0.63415
 C644 C 0.90008 0.46444 0.64828
 C645 C 0.88921 0.45764 0.67059
 H646 H 0.87404 0.46865 0.67807
 O647 O 1.08612 0.51723 0.62469
 O648 O 1.11274 0.51352 0.65476
 C649 C 1.09421 0.52444 0.64496
 C650 C 1.08205 0.54617 0.65655
 C651 C 1.08782 0.55335 0.68030
 H652 H 1.10110 0.54258 0.69085
 O653 O 0.95532 0.38374 0.58874
 O654 O 0.95021 0.35563 0.61776
 C655 C 0.94421 0.36464 0.59722
 C656 C 0.92407 0.35297 0.58303
 C657 C 0.91377 0.32997 0.59021
 H658 H 0.92112 0.32031 0.60596
 O659 O 1.03525 0.62122 0.58293
 O660 O 1.03739 0.65111 0.60993
 C661 C 1.04561 0.64063 0.59089
 C662 C 1.06743 0.65112 0.57789
 C663 C 1.07544 0.67537 0.58276
 H664 H 1.06529 0.68658 0.59579
 O665 O 0.86726 0.42593 0.51753
 O666 O 0.83511 0.40058 0.51707
 C667 C 0.84591 0.41961 0.52553
 C668 C 0.83410 0.43393 0.54554
 C669 C 0.81248 0.42491 0.55728
 H670 H 0.80398 0.40784 0.55126
 O671 O 1.13635 0.57407 0.52600
 O672 O 1.16743 0.60068 0.52741
 C673 C 1.15618 0.58161 0.53579
 C674 C 1.16533 0.56907 0.55805
 C675 C 1.18544 0.57908 0.57066
 H676 H 1.19545 0.59494 0.56325
 O677 O 1.02861 0.58930 0.61816
 O678 O 1.03076 0.61904 0.64531
 C679 C 1.03673 0.59742 0.63811
 C680 C 1.05358 0.58174 0.65296
 C681 C 1.05916 0.58841 0.67674
 H682 H 1.05061 0.60491 0.68446
 O683 O 0.95788 0.41921 0.62044
 O684 O 0.95259 0.39131 0.64960
 C685 C 0.94729 0.41228 0.63998
 C686 C 0.92816 0.42853 0.65119
 C687 C 0.91731 0.42215 0.67358
 H688 H 0.92350 0.40552 0.68316
 O689 O 1.12215 0.51383 0.59347
 O690 O 1.14901 0.51057 0.62338
 C691 C 1.14246 0.52023 0.60329
 C692 C 1.15816 0.53966 0.59158
 C693 C 1.17799 0.55046 0.60418
 H694 H 1.18240 0.54422 0.62239
 O695 O 0.87089 0.49473 0.57861
 O696 O 0.84021 0.49883 0.60515
 C697 C 0.84954 0.48840 0.58652
 C698 C 0.83591 0.46777 0.57495
 C699 C 0.81420 0.45859 0.58605
 H700 H 0.80661 0.46781 0.60186
 O701 O 1.10602 0.61161 0.52284
 O702 O 1.13710 0.63830 0.52393
 C703 C 1.11552 0.63148 0.53084
 C704 C 1.10140 0.64673 0.54844
 C705 C 1.10904 0.67108 0.55346
 H706 H 1.12523 0.67878 0.54429
 O707 O 0.89674 0.38759 0.51937
 O708 O 0.86478 0.36203 0.51825
 C709 C 0.88527 0.36859 0.52757
 C710 C 0.89555 0.35466 0.54868
 C711 C 0.88539 0.33173 0.55621
 H712 H 0.87015 0.32387 0.54614
 O713 O 1.08050 0.46909 0.62447
 O714 O 1.10787 0.46502 0.65385
 C715 C 1.08721 0.45918 0.64441
 C716 C 1.07116 0.44026 0.65647
 C717 C 1.07860 0.42910 0.67842
 H718 H 1.09593 0.43464 0.68666
 O719 O 0.90686 0.54057 0.61274
 O720 O 0.87620 0.54488 0.63927
 C721 C 0.89791 0.55054 0.63173
 C722 C 0.91296 0.56910 0.64479
 C723 C 0.90543 0.57819 0.66756
 H724 H 0.88861 0.57114 0.67611
 O725 O 0.98720 0.62891 0.58112
 O726 O 0.98953 0.65844 0.60846
 C727 C 0.98103 0.65040 0.58868
 C728 C 0.96320 0.66596 0.57482
 C729 C 0.95705 0.68999 0.58272
 H730 H 0.96607 0.69740 0.59855
 O731 O 1.00339 0.37828 0.59066
 O732 O 0.99832 0.35024 0.61977
 C733 C 1.00887 0.35737 0.60023
 C734 C 1.02832 0.34159 0.58898
 C735 C 1.03439 0.31832 0.59917
 H736 H 1.02375 0.31128 0.61450
 O737 O 1.10913 0.39874 0.53094
 O738 O 1.13487 0.36650 0.53278
 C739 C 1.12820 0.38803 0.53985
 C740 C 1.14279 0.40080 0.55855
 C741 C 1.16687 0.39245 0.56437
 H742 H 1.17483 0.37654 0.55510
 O743 O 0.88731 0.60758 0.51347
 O744 O 0.86239 0.64044 0.51156
 C745 C 0.86785 0.61914 0.52041
 C746 C 0.85184 0.60788 0.53938
 C747 C 0.82944 0.61948 0.54650
 H748 H 0.82323 0.63635 0.53734
 Cu749 Cu 0.98108 0.40132 0.60284
 Cu750 Cu 0.97491 0.36771 0.63781
 Cu751 Cu 1.00775 0.60576 0.59649
 Cu752 Cu 1.01045 0.64140 0.62917
 Cu753 Cu 0.88641 0.40903 0.49480
 Cu754 Cu 0.84774 0.37887 0.49372
 Cu755 Cu 1.08913 0.38618 0.50699
 Cu756 Cu 1.11955 0.34711 0.50960
 Cu757 Cu 0.91024 0.61884 0.49105
 Cu758 Cu 0.88051 0.65843 0.48861
 Cu759 Cu 1.12017 0.58976 0.50073
 Cu760 Cu 1.15754 0.62173 0.50219
 Cu761 Cu 0.89158 0.51748 0.59325
 Cu762 Cu 0.85456 0.52255 0.62491
 Cu763 Cu 1.09851 0.49185 0.60588
 Cu764 Cu 1.13111 0.48730 0.64139
 C765 C 1.04908 0.43222 0.64549
 H766 H 1.04347 0.44040 0.62834
 C767 C 1.06449 0.41001 0.68930
 C768 C 0.93508 0.57805 0.63415
 H769 H 0.94090 0.57133 0.61655
 C770 C 0.91990 0.59596 0.67958
 C771 C 0.85961 0.58598 0.55136
 H772 H 0.87710 0.57719 0.54624
 C773 C 0.81503 0.60948 0.56551
 C774 C 1.13273 0.42147 0.57066
 H775 H 1.11408 0.42791 0.56630
 C776 C 1.18080 0.40446 0.58214
 C777 C 1.04208 0.35046 0.56901
 H778 H 1.03767 0.36860 0.56130
 C779 C 1.05441 0.30421 0.59004
 C780 C 0.95095 0.65632 0.55469
 H781 H 0.95547 0.63765 0.54870
 C782 C 0.93851 0.70418 0.57114
 C783 C 0.91966 0.44991 0.63884
 H784 H 0.92777 0.45480 0.62141
 C785 C 0.89784 0.43661 0.68337
 C786 C 1.06479 0.56044 0.64317
 H787 H 1.06057 0.55538 0.62473
 C788 C 1.07608 0.57431 0.69058
 C789 C 0.91498 0.36497 0.56213
 H790 H 0.92268 0.38277 0.55661
 C791 C 0.89450 0.31906 0.57686
 C792 C 1.08041 0.63698 0.56053
 H793 H 1.07447 0.61816 0.55681
 C794 C 1.09610 0.68553 0.57050
 C795 C 0.84567 0.45543 0.55455
 H796 H 0.86273 0.46211 0.54617
 C797 C 0.80277 0.43689 0.57785
 C798 C 1.15206 0.54905 0.56846
 H799 H 1.13630 0.54144 0.55898
 C800 C 1.19156 0.57014 0.59375
 O801 O 0.47889 0.91461 0.37849
 O802 O 0.48176 0.88660 0.34968
 C803 C 0.47108 0.90563 0.35879
 C804 C 0.44904 0.91726 0.34681
 C805 C 0.44150 0.90977 0.32363
 H806 H 0.45208 0.89569 0.31399
 O807 O 0.50770 1.09666 0.38205
 O808 O 0.50525 1.12639 0.35426
 C809 C 0.51571 1.10682 0.36267
 C810 C 0.53802 1.09621 0.35048
 C811 C 0.54792 1.10738 0.32931
 H812 H 0.53873 1.12334 0.32103
 O813 O 0.37034 0.97007 0.41395
 O814 O 0.34151 0.96805 0.38582
 C815 C 0.35102 0.95995 0.40539
 C816 C 0.34021 0.93799 0.41793
 C817 C 0.31823 0.92695 0.40956
 H818 H 0.30841 0.93511 0.39431
 O819 O 0.61448 1.03980 0.41570
 O820 O 0.64357 1.04431 0.38755
 C821 C 0.63359 1.05101 0.40742
 C822 C 0.64386 1.07246 0.42068
 C823 C 0.66552 1.08447 0.41225
 H824 H 0.67495 1.07770 0.39617
 O825 O 0.41668 0.87254 0.47459
 O826 O 0.39093 0.84070 0.47380
 C827 C 0.41036 0.85171 0.46600
 C828 C 0.42560 0.84015 0.44667
 C829 C 0.42141 0.81541 0.44020
 H830 H 0.40720 0.80471 0.44964
 O831 O 0.56823 1.13541 0.47994
 O832 O 0.59437 1.16692 0.48033
 C833 C 0.57528 1.15645 0.47167
 C834 C 0.56144 1.16840 0.45138
 C835 C 0.56822 1.19207 0.44232
 H836 H 0.58324 1.20218 0.45065
 O837 O 0.40029 1.02188 0.38119
 O838 O 0.37173 1.01972 0.35279
 C839 C 0.39101 1.02983 0.36144
 C840 C 0.40231 1.05147 0.34880
 C841 C 0.39299 1.05976 0.32645
 H842 H 0.37824 1.04948 0.31786
 O843 O 0.58677 0.98910 0.38075
 O844 O 0.61561 0.99379 0.35239
 C845 C 0.59643 0.98270 0.36064
 C846 C 0.58551 0.96181 0.34701
 C847 C 0.59487 0.95532 0.32407
 H848 H 0.60991 0.96599 0.31598
 O849 O 0.53121 0.88484 0.41083
 O850 O 0.53425 0.85634 0.38247
 C851 C 0.54180 0.86559 0.40222
 C852 C 0.56326 0.85414 0.41523
 C853 C 0.57241 0.83044 0.40882
 H854 H 0.56347 0.82017 0.39455
 O855 O 0.45572 1.12471 0.41592
 O856 O 0.45291 1.15467 0.38839
 C857 C 0.44538 1.14449 0.40802
 C858 C 0.42439 1.15568 0.42181
 C859 C 0.41548 1.17956 0.41586
 H860 H 0.42421 1.19006 0.40124
 O861 O 0.36059 1.08151 0.47978
 O862 O 0.32876 1.10776 0.48071
 C863 C 0.33975 1.08903 0.47154
 C864 C 0.32858 1.07671 0.45040
 C865 C 0.30739 1.08718 0.43952
 H866 H 0.29854 1.10349 0.44732
 O867 O 0.63004 0.92518 0.47619
 O868 O 0.66157 0.89860 0.47502
 C869 C 0.65089 0.91833 0.46733
 C870 C 0.66194 0.93289 0.44702
 C871 C 0.68382 0.92473 0.43516
 H872 H 0.69365 0.90830 0.44168
 O873 O 0.45927 1.09277 0.38116
 O874 O 0.45655 1.12246 0.35337
 C875 C 0.45009 1.10125 0.36156
 C876 C 0.43119 1.08649 0.34868
 C877 C 0.42163 1.09452 0.32622
 H878 H 0.42861 1.11140 0.31771
 O879 O 0.52758 0.91877 0.37741
 O880 O 0.53079 0.89069 0.34870
 C881 C 0.53721 0.91138 0.35762
 C882 C 0.55658 0.92682 0.34546
 C883 C 0.56636 0.92044 0.32262
 H884 H 0.55903 0.90452 0.31320
 O885 O 0.62055 0.99136 0.41415
 O886 O 0.64929 0.99603 0.38570
 C887 C 0.64164 0.98559 0.40507
 C888 C 0.65704 0.96580 0.41646
 C889 C 0.67884 0.95740 0.40488
 H890 H 0.68518 0.96645 0.38833
 O891 O 0.36597 1.01868 0.41427
 O892 O 0.33735 1.01692 0.38593
 C893 C 0.34525 1.02597 0.40558
 C894 C 0.33092 1.04594 0.41805
 C895 C 0.30946 1.05671 0.40748
 H896 H 0.30246 1.04975 0.39052
 O897 O 0.39149 1.11818 0.48132
 O898 O 0.35978 1.14459 0.48231
 C899 C 0.38090 1.13798 0.47374
 C900 C 0.39316 1.15289 0.45431
 C901 C 0.38475 1.17706 0.44832
 H902 H 0.36948 1.18541 0.45842
 O903 O 0.59786 0.88968 0.47465
 O904 O 0.62911 0.86272 0.47367
 C905 C 0.60810 0.87036 0.46584
 C906 C 0.59550 0.85660 0.44631
 C907 C 0.60413 0.83287 0.43974
 H908 H 0.61997 0.82465 0.44901
 O909 O 0.58030 1.03728 0.38298
 O910 O 0.60946 1.04173 0.35489
 C911 C 0.58826 1.04757 0.36362
 C912 C 0.57336 1.06714 0.35135
 C913 C 0.58286 1.07854 0.33037
 H914 H 0.60043 1.07224 0.32264
 O915 O 0.40551 0.97355 0.38155
 O916 O 0.37690 0.97145 0.35322
 C917 C 0.39794 0.96474 0.36170
 C918 C 0.41353 0.94633 0.34841
 C919 C 0.40668 0.93889 0.32516
 H920 H 0.39023 0.94695 0.31681
 O921 O 0.50401 1.13000 0.41533
 O922 O 0.50122 1.15982 0.38766
 C923 C 0.51049 1.15125 0.40718
 C924 C 0.52950 1.16584 0.42011
 C925 C 0.53627 1.18962 0.41162
 H926 H 0.52699 1.19765 0.39599
 O927 O 0.48290 0.87921 0.41046
 O928 O 0.48576 0.85084 0.38198
 C929 C 0.47650 0.85836 0.40187
 C930 C 0.45774 0.84315 0.41511
 C931 C 0.45294 0.81835 0.40857
 H932 H 0.46329 0.80984 0.39385
 O933 O 0.60545 1.10424 0.48042
 O934 O 0.63167 1.13568 0.48101
 C935 C 0.62502 1.11488 0.47251
 C936 C 0.63974 1.10344 0.45264
 C937 C 0.66166 1.11485 0.44419
 H938 H 0.66860 1.13111 0.45335
 O939 O 0.37829 0.90235 0.47572
 O940 O 0.35247 0.87058 0.47485
 C941 C 0.35903 0.89198 0.46729
 C942 C 0.34443 0.90461 0.44809
 C943 C 0.32257 0.89377 0.43941
 H944 H 0.31577 0.87662 0.44752
 Cu945 Cu 0.50482 0.90218 0.39707
 Cu946 Cu 0.50845 0.86835 0.36280
 Cu947 Cu 0.48189 1.10801 0.40133
 Cu948 Cu 0.47863 1.14381 0.36812
 Cu949 Cu 0.38830 0.99623 0.40065
 Cu950 Cu 0.35397 0.99372 0.36664
 Cu951 Cu 0.59766 1.01384 0.40129
 Cu952 Cu 0.63241 1.01944 0.36733
 C953 C 0.43493 0.93564 0.35897
 H954 H 0.44028 0.94127 0.37696
 C955 C 0.42052 0.92081 0.31260
 C956 C 0.55079 1.07590 0.36121
 H957 H 0.54365 1.06746 0.37775
 C958 C 0.57048 1.09864 0.31948
 C959 C 0.35297 0.92683 0.43741
 H960 H 0.37010 0.93499 0.44375
 C961 C 0.30942 0.90474 0.42015
 C962 C 0.63116 1.08203 0.44097
 H963 H 0.61411 1.07329 0.44723
 C964 C 0.67457 1.10572 0.42386
 C965 C 0.44404 0.85379 0.43429
 H966 H 0.44728 0.87297 0.43923
 C967 C 0.43503 0.80431 0.42138
 C968 C 0.54197 1.15554 0.44018
 H969 H 0.53694 1.13712 0.44669
 C970 C 0.55559 1.20285 0.42253
 C971 C 0.42156 1.06481 0.35965
 H972 H 0.42853 1.05871 0.37711
 C973 C 0.40241 1.08128 0.31507
 C974 C 0.56621 0.94763 0.35737
 H975 H 0.55907 0.95243 0.37514
 C976 C 0.58541 0.93470 0.31171
 C977 C 0.57487 0.86700 0.43413
 H978 H 0.56813 0.88534 0.43910
 C979 C 0.59262 0.81957 0.42123
 C980 C 0.41318 1.14252 0.44110
 H981 H 0.41976 1.12390 0.44554
 C982 C 0.39590 1.19046 0.42912
 C983 C 0.34013 1.05598 0.43966
 H984 H 0.35686 1.04820 0.44771
 C985 C 0.29792 1.07760 0.41803
 C986 C 0.64891 0.95366 0.43767
 H987 H 0.63176 0.95978 0.44634
 C988 C 0.69214 0.93676 0.41387
 O989 O 0.52745 0.90753 0.61726
 O990 O 0.53049 0.87706 0.64423
 C991 C 0.53711 0.89836 0.63634
 C992 C 0.55685 0.91213 0.64908
 C993 C 0.56905 0.90096 0.66880
 H994 H 0.56342 0.88268 0.67525
 O995 O 0.45801 1.08577 0.62362
 O996 O 0.45534 1.11313 0.65306
 C997 C 0.44892 1.09260 0.64383
 C998 C 0.43038 1.07669 0.65646
 C999 C 0.42074 1.08345 0.67922
 H1000 H 0.42714 1.10031 0.68770
 O1001 O 0.36883 1.01032 0.58955
 O1002 O 0.33966 1.00642 0.61771
 C1003 C 0.34761 1.01634 0.59811
 C1004 C 0.33220 1.03527 0.58528
 C1005 C 0.30734 1.03945 0.59232
 H1006 H 0.29931 1.02857 0.60704
 O1007 O 0.61954 0.98525 0.58802
 O1008 O 0.64761 0.98795 0.61680
 C1009 C 0.64037 0.97875 0.59698
 C1010 C 0.65565 0.95920 0.58507
 C1011 C 0.67635 0.94891 0.59699
 H1012 H 0.68212 0.95636 0.61420
 O1013 O 0.59821 0.88599 0.52145
 O1014 O 0.62950 0.85908 0.52045
 C1015 C 0.60826 0.86571 0.52857
 C1016 C 0.59509 0.84990 0.54660
 C1017 C 0.60368 0.82571 0.55212
 H1018 H 0.62006 0.81837 0.54296
 O1019 O 0.38996 1.11700 0.52855
 O1020 O 0.35775 1.14278 0.52955
 C1021 C 0.37884 1.13584 0.53750
 C1022 C 0.39028 1.14938 0.55774
 C1023 C 0.37904 1.17101 0.56710
 H1024 H 0.36234 1.17851 0.55875
 O1025 O 0.40749 0.96399 0.62159
 O1026 O 0.37864 0.95992 0.65002
 C1027 C 0.39966 0.95370 0.64099
 C1028 C 0.41481 0.93365 0.65251
 C1029 C 0.40688 0.92200 0.67416
 H1030 H 0.39007 0.92832 0.68330
 O1031 O 0.57802 1.02776 0.62169
 O1032 O 0.60592 1.03001 0.65068
 C1033 C 0.58493 1.03629 0.64189
 C1034 C 0.56884 1.05429 0.65497
 C1035 C 0.57462 1.06118 0.67871
 H1036 H 0.59009 1.05221 0.68791
 O1037 O 0.48166 0.87042 0.58421
 O1038 O 0.48443 0.84013 0.61140
 C1039 C 0.47493 0.84916 0.59222
 C1040 C 0.45539 0.83529 0.57932
 C1041 C 0.44820 0.81118 0.58688
 H1042 H 0.45746 0.80212 0.60199
 O1043 O 0.50281 1.12597 0.59143
 O1044 O 0.50015 1.15341 0.62079
 C1045 C 0.50926 1.14652 0.60063
 C1046 C 0.52793 1.16222 0.58793
 C1047 C 0.53393 1.18592 0.59661
 H1048 H 0.52435 1.19311 0.61245
 O1049 O 0.37878 0.90052 0.52303
 O1050 O 0.35281 0.86887 0.52207
 C1051 C 0.35957 0.88939 0.53111
 C1052 C 0.34541 0.90009 0.55167
 C1053 C 0.32355 0.88870 0.56028
 H1054 H 0.31633 0.87254 0.55115
 O1055 O 0.60403 1.10301 0.52772
 O1056 O 0.63008 1.13459 0.52831
 C1057 C 0.62309 1.11346 0.53643
 C1058 C 0.63690 1.10141 0.55666
 C1059 C 0.65715 1.11366 0.56703
 H1060 H 0.66326 1.13136 0.55955
 O1061 O 0.50626 1.08924 0.62224
 O1062 O 0.50360 1.11646 0.65181
 C1063 C 0.51373 1.09732 0.64240
 C1064 C 0.53442 1.08441 0.65501
 C1065 C 0.54066 1.09118 0.67864
 H1066 H 0.53027 1.10591 0.68753
 O1067 O 0.47888 0.90405 0.61734
 O1068 O 0.48186 0.87382 0.64458
 C1069 C 0.47139 0.89364 0.63679
 C1070 C 0.44980 0.90418 0.65012
 C1071 C 0.44137 0.89263 0.67150
 H1072 H 0.45126 0.87657 0.67880
 O1073 O 0.61298 1.03382 0.58945
 O1074 O 0.64098 1.03666 0.61827
 C1075 C 0.63145 1.04486 0.59869
 C1076 C 0.64126 1.06795 0.58699
 C1077 C 0.66161 1.08060 0.59699
 H1078 H 0.67081 1.07308 0.61289
 O1079 O 0.37272 0.96197 0.58937
 O1080 O 0.34373 0.95805 0.61770
 C1081 C 0.35333 0.95128 0.59771
 C1082 C 0.34229 0.93040 0.58427
 C1083 C 0.32032 0.91885 0.59255
 H1084 H 0.31090 0.92565 0.60863
 O1085 O 0.56755 1.13492 0.52746
 O1086 O 0.59354 1.16656 0.52786
 C1087 C 0.57421 1.15571 0.53603
 C1088 C 0.55975 1.16679 0.55628
 C1089 C 0.56571 1.19038 0.56536
 H1090 H 0.58037 1.20122 0.55680
 O1091 O 0.41579 0.86928 0.52161
 O1092 O 0.38977 0.83766 0.52056
 C1093 C 0.40908 0.84782 0.52903
 C1094 C 0.42345 0.83475 0.54810
 C1095 C 0.41686 0.81059 0.55552
 H1096 H 0.40165 0.80121 0.54670
 O1097 O 0.58546 0.97949 0.62094
 O1098 O 0.61363 0.98181 0.64966
 C1099 C 0.59506 0.97099 0.64036
 C1100 C 0.58510 0.94768 0.65147
 C1101 C 0.59691 0.93620 0.67149
 H1102 H 0.61284 0.94489 0.67978
 O1103 O 0.40173 1.01240 0.62350
 O1104 O 0.37284 1.00848 0.65191
 C1105 C 0.39204 1.01933 0.64342
 C1106 C 0.40274 1.04072 0.65637
 C1107 C 0.39340 1.04768 0.67918
 H1108 H 0.37916 1.03649 0.68794
 O1109 O 0.45452 1.12114 0.59158
 O1110 O 0.45173 1.14861 0.62091
 C1111 C 0.44404 1.14004 0.60098
 C1112 C 0.42229 1.15157 0.58880
 C1113 C 0.41088 1.17322 0.59792
 H1114 H 0.41843 1.18204 0.61378
 O1115 O 0.53008 0.87552 0.58260
 O1116 O 0.53277 0.84493 0.60950
 C1117 C 0.54034 0.85553 0.59014
 C1118 C 0.56170 0.84490 0.57657
 C1119 C 0.57057 0.82083 0.58194
 H1120 H 0.56104 0.80954 0.59546
 O1121 O 0.62905 0.92297 0.52364
 O1122 O 0.66045 0.89623 0.52300
 C1123 C 0.64968 0.91518 0.53211
 C1124 C 0.66040 0.92783 0.55343
 C1125 C 0.68132 0.91790 0.56561
 H1126 H 0.69070 0.90142 0.55880
 O1127 O 0.36112 1.07842 0.52714
 O1128 O 0.32878 1.10403 0.52807
 C1129 C 0.33987 1.08440 0.53563
 C1130 C 0.32833 1.06856 0.55481
 C1131 C 0.30350 1.07251 0.56223
 H1132 H 0.29235 1.08679 0.55335
 Cu1133 Cu 0.50421 0.89238 0.59759
 Cu1134 Cu 0.50772 0.85601 0.63022
 Cu1135 Cu 0.48067 1.10286 0.60421
 Cu1136 Cu 0.47753 1.13569 0.63959
 Cu1137 Cu 0.39993 0.88943 0.49882
 Cu1138 Cu 0.36884 0.85131 0.49763
 Cu1139 Cu 0.61082 0.90878 0.49918
 Cu1140 Cu 0.64845 0.87662 0.49791
 Cu1141 Cu 0.37898 1.09619 0.50418
 Cu1142 Cu 0.34051 1.12732 0.50528
 Cu1143 Cu 0.58362 1.11633 0.50381
 Cu1144 Cu 0.61505 1.15407 0.50441
 Cu1145 Cu 0.39064 0.98754 0.60324
 Cu1146 Cu 0.35586 0.98290 0.63724
 Cu1147 Cu 0.59624 1.00636 0.60214
 Cu1148 Cu 0.62989 1.00951 0.63667
 C1149 C 0.56490 0.93555 0.64062
 H1150 H 0.55590 0.94398 0.62504
 C1151 C 0.58907 0.91270 0.67995
 C1152 C 0.42141 1.05519 0.64530
 H1153 H 0.42848 1.05012 0.62758
 C1154 C 0.40222 1.06909 0.69072
 C1155 C 0.34246 1.04973 0.56634
 H1156 H 0.36172 1.04674 0.56097
 C1157 C 0.29283 1.05792 0.58086
 C1158 C 0.64798 0.94871 0.56320
 H1159 H 0.63161 0.95621 0.55427
 C1160 C 0.68909 0.92820 0.58759
 C1161 C 0.57394 0.85921 0.55875
 H1162 H 0.56735 0.87793 0.55477
 C1163 C 0.59147 0.81104 0.56973
 C1164 C 0.41200 1.14000 0.56857
 H1165 H 0.42052 1.12312 0.56165
 C1166 C 0.38920 1.18307 0.58719
 C1167 C 0.43651 0.92479 0.64082
 H1168 H 0.44263 0.93340 0.62399
 C1169 C 0.42002 0.90136 0.68353
 C1170 C 0.54847 1.06578 0.64335
 H1171 H 0.54405 1.06077 0.62494
 C1172 C 0.56066 1.07965 0.69065
 C1173 C 0.44296 0.84678 0.55984
 H1174 H 0.44798 0.86550 0.55423
 C1175 C 0.42907 0.79866 0.57483
 C1176 C 0.54070 1.15301 0.56759
 H1177 H 0.53632 1.13463 0.56099
 C1178 C 0.55278 1.20013 0.58546
 C1179 C 0.35451 0.92104 0.56366
 H1180 H 0.37162 0.92965 0.55735
 C1181 C 0.31089 0.89793 0.58070
 C1182 C 0.62917 1.07847 0.56668
 H1183 H 0.61325 1.06914 0.55906
 C1184 C 0.66945 1.10359 0.58723
 O1185 O 0.47966 0.40944 0.88315
 O1186 O 0.47876 0.38081 0.85484
 C1187 C 0.47043 0.40101 0.86385
 C1188 C 0.44907 0.41397 0.85221
 C1189 C 0.43785 0.40313 0.83216
 H1190 H 0.44563 0.38619 0.82458
 O1191 O 0.53014 0.58880 0.88162
 O1192 O 0.52957 0.61821 0.85337
 C1193 C 0.53753 0.59735 0.86127
 C1194 C 0.55550 0.58291 0.84662
 C1195 C 0.55999 0.58944 0.82235
 H1196 H 0.55010 0.60511 0.81431
 O1197 O 0.37672 0.47728 0.91494
 O1198 O 0.34863 0.47970 0.88607
 C1199 C 0.35654 0.46987 0.90559
 C1200 C 0.34288 0.44869 0.91675
 C1201 C 0.32150 0.43934 0.90571
 H1202 H 0.31396 0.44877 0.88991
 O1203 O 0.62705 0.52061 0.90795
 O1204 O 0.65517 0.52175 0.87858
 C1205 C 0.64691 0.52954 0.89883
 C1206 C 0.66050 0.54924 0.91178
 C1207 C 0.68353 0.55763 0.90286
 H1208 H 0.69143 0.54950 0.88661
 O1209 O 0.40887 0.37404 0.97390
 O1210 O 0.37998 0.34503 0.97408
 C1211 C 0.40039 0.35376 0.96583
 C1212 C 0.41438 0.34077 0.94632
 C1213 C 0.40527 0.31875 0.93600
 H1214 H 0.38810 0.31056 0.94269
 O1215 O 0.59893 0.62033 0.97601
 O1216 O 0.62872 0.64841 0.97612
 C1217 C 0.60814 0.64063 0.96801
 C1218 C 0.59475 0.65463 0.94868
 C1219 C 0.60202 0.67871 0.94098
 H1220 H 0.61759 0.68781 0.94946
 O1221 O 0.41427 0.52487 0.88320
 O1222 O 0.38664 0.52644 0.85386
 C1223 C 0.40685 0.53383 0.86309
 C1224 C 0.42155 0.55343 0.85062
 C1225 C 0.41603 0.56064 0.82669
 H1226 H 0.40148 0.55118 0.81695
 O1227 O 0.59390 0.47172 0.87543
 O1228 O 0.62222 0.47204 0.84626
 C1229 C 0.60240 0.46319 0.85562
 C1230 C 0.58930 0.44226 0.84398
 C1231 C 0.59828 0.43163 0.82231
 H1232 H 0.61459 0.43927 0.81329
 O1233 O 0.52884 0.37311 0.91380
 O1234 O 0.52811 0.34448 0.88548
 C1235 C 0.53727 0.35302 0.90482
 C1236 C 0.55849 0.34003 0.91665
 C1237 C 0.56559 0.31571 0.91003
 H1238 H 0.55505 0.30584 0.89657
 O1239 O 0.48388 0.62406 0.91700
 O1240 O 0.48369 0.65354 0.88883
 C1241 C 0.47579 0.64481 0.90889
 C1242 C 0.45668 0.65874 0.92266
 C1243 C 0.45083 0.68343 0.91634
 H1244 H 0.46092 0.69260 0.90171
 O1245 O 0.38312 0.59156 0.97923
 O1246 O 0.35501 0.62175 0.97998
 C1247 C 0.36330 0.60153 0.97107
 C1248 C 0.35019 0.58997 0.95050
 C1249 C 0.32926 0.60178 0.94038
 H1250 H 0.32204 0.61881 0.94825
 O1251 O 0.63421 0.40861 0.97211
 O1252 O 0.66330 0.37936 0.97101
 C1253 C 0.65440 0.39998 0.96334
 C1254 C 0.66695 0.41409 0.94363
 C1255 C 0.69174 0.40899 0.93671
 H1256 H 0.70234 0.39468 0.94615
 O1257 O 0.48197 0.58969 0.88439
 O1258 O 0.48167 0.61907 0.85611
 C1259 C 0.47340 0.59869 0.86478
 C1260 C 0.45379 0.58527 0.85171
 C1261 C 0.44807 0.59214 0.82783
 H1262 H 0.45800 0.60735 0.81912
 O1263 O 0.52839 0.40696 0.87982
 O1264 O 0.52727 0.37823 0.85162
 C1265 C 0.53632 0.39814 0.85985
 C1266 C 0.55688 0.41050 0.84638
 C1267 C 0.56623 0.40006 0.82494
 H1268 H 0.55765 0.38355 0.81767
 O1269 O 0.62901 0.47250 0.90741
 O1270 O 0.65759 0.47356 0.87843
 C1271 C 0.64965 0.46502 0.89859
 C1272 C 0.66441 0.44612 0.91196
 C1273 C 0.68925 0.44119 0.90553
 H1274 H 0.69786 0.45146 0.89070
 O1275 O 0.37926 0.52619 0.91589
 O1276 O 0.35151 0.52872 0.88673
 C1277 C 0.36003 0.53642 0.90673
 C1278 C 0.34825 0.55810 0.91909
 C1279 C 0.32709 0.57019 0.90937
 H1280 H 0.31850 0.56313 0.89317
 O1281 O 0.41757 0.62510 0.98027
 O1282 O 0.38961 0.65544 0.98117
 C1283 C 0.40967 0.64615 0.97270
 C1284 C 0.42390 0.65949 0.95356
 C1285 C 0.41785 0.68414 0.94666
 H1286 H 0.40275 0.69397 0.95568
 O1287 O 0.59983 0.37491 0.97161
 O1288 O 0.62859 0.34531 0.97040
 C1289 C 0.60802 0.35448 0.96314
 C1290 C 0.59329 0.34111 0.94493
 C1291 C 0.59982 0.31673 0.93844
 H1292 H 0.61581 0.30769 0.94672
 O1293 O 0.59284 0.52037 0.87527
 O1294 O 0.62062 0.52097 0.84558
 C1295 C 0.60059 0.52913 0.85515
 C1296 C 0.58635 0.54947 0.84334
 C1297 C 0.59093 0.55643 0.81910
 H1298 H 0.60465 0.54632 0.80846
 O1299 O 0.41272 0.47622 0.88357
 O1300 O 0.38464 0.47774 0.85464
 C1301 C 0.40421 0.46806 0.86381
 C1302 C 0.41666 0.44648 0.85195
 C1303 C 0.40579 0.43518 0.83173
 H1304 H 0.38871 0.44267 0.82413
 O1305 O 0.53246 0.62233 0.91512
 O1306 O 0.53205 0.65177 0.88692
 C1307 C 0.54095 0.64255 0.90631
 C1308 C 0.56153 0.65531 0.91863
 C1309 C 0.56861 0.67938 0.91153
 H1310 H 0.55860 0.68896 0.89716
 O1311 O 0.47950 0.37308 0.91427
 O1312 O 0.47930 0.34455 0.88584
 C1313 C 0.47060 0.35324 0.90546
 C1314 C 0.44909 0.34063 0.91722
 C1315 C 0.43959 0.31884 0.90713
 H1316 H 0.44894 0.31045 0.89173
 O1317 O 0.63061 0.58373 0.97419
 O1318 O 0.66062 0.61157 0.97435
 C1319 C 0.65090 0.59217 0.96550
 C1320 C 0.66273 0.57973 0.94437
 C1321 C 0.68568 0.58807 0.93488
 H1322 H 0.69540 0.60318 0.94350
 O1323 O 0.37448 0.40828 0.97414
 O1324 O 0.34521 0.37967 0.97400
 C1325 C 0.35417 0.39999 0.96582
 C1326 C 0.34162 0.41406 0.94597
 C1327 C 0.32005 0.40498 0.93467
 H1328 H 0.31165 0.38777 0.94098
 Cu1329 Cu 0.50432 0.39341 0.90070
 Cu1330 Cu 0.50326 0.35921 0.86663
 Cu1331 Cu 0.50720 0.60333 0.90248
 Cu1332 Cu 0.50668 0.63868 0.86851
 Cu1333 Cu 0.39844 0.50102 0.90235
 Cu1334 Cu 0.36502 0.50342 0.86747
 Cu1335 Cu 0.60774 0.49615 0.89431
 Cu1336 Cu 0.64169 0.49719 0.85919
 C1337 C 0.43843 0.43575 0.86200
 H1338 H 0.44669 0.44393 0.87785
 C1339 C 0.41612 0.41326 0.82212
 C1340 C 0.56845 0.56271 0.85686
 H1341 H 0.56510 0.55774 0.87567
 C1342 C 0.57751 0.57623 0.80842
 C1343 C 0.35259 0.43610 0.93700
 H1344 H 0.36939 0.44301 0.94525
 C1345 C 0.31010 0.41745 0.91431
 C1346 C 0.65036 0.56019 0.93272
 H1347 H 0.63249 0.55389 0.93961
 C1348 C 0.69624 0.57694 0.91424
 C1349 C 0.43649 0.35137 0.93692
 H1350 H 0.44346 0.36851 0.94440
 C1351 C 0.41770 0.30794 0.91618
 C1352 C 0.57447 0.64326 0.93736
 H1353 H 0.56900 0.62462 0.94282
 C1354 C 0.58864 0.69129 0.92262
 C1355 C 0.44066 0.56570 0.86291
 H1356 H 0.44488 0.56046 0.88144
 C1357 C 0.42939 0.57985 0.81512
 C1358 C 0.56840 0.43167 0.85565
 H1359 H 0.56152 0.43947 0.87246
 C1360 C 0.58692 0.41032 0.81288
 C1361 C 0.57242 0.35249 0.93419
 H1362 H 0.56731 0.37134 0.93914
 C1363 C 0.58604 0.30386 0.92118
 C1364 C 0.44345 0.64707 0.94152
 H1365 H 0.44790 0.62793 0.94633
 C1366 C 0.43155 0.69627 0.92825
 C1367 C 0.35945 0.56805 0.93983
 H1368 H 0.37594 0.55915 0.94727
 C1369 C 0.31771 0.59219 0.91982
 C1370 C 0.65355 0.43276 0.93120
 H1371 H 0.63430 0.43650 0.93615
 C1372 C 0.70308 0.42282 0.91789
 O1373 O 0.53039 0.40100 1.11439
 O1374 O 0.52981 0.37026 1.14123
 C1375 C 0.53867 0.39075 1.13366
 C1376 C 0.55910 0.40247 1.14722
 C1377 C 0.56782 0.39168 1.16886
 H1378 H 0.55898 0.37510 1.17615
 O1379 O 0.48309 0.58280 1.12180
 O1380 O 0.48320 0.61092 1.15060
 C1381 C 0.47423 0.59125 1.14149
 C1382 C 0.45269 0.57851 1.15328
 C1383 C 0.44143 0.58823 1.17436
 H1384 H 0.44899 0.60465 1.18278
 O1385 O 0.37995 0.52116 1.08744
 O1386 O 0.35163 0.52083 1.11662
 C1387 C 0.36024 0.53012 1.09701
 C1388 C 0.34799 0.55215 1.08550
 C1389 C 0.32625 0.56296 1.09554
 H1390 H 0.31747 0.55463 1.11138
 O1391 O 0.63041 0.46618 1.08613
 O1392 O 0.65916 0.46536 1.11447
 C1393 C 0.65073 0.45751 1.09460
 C1394 C 0.66439 0.43757 1.08172
 C1395 C 0.68584 0.42690 1.09192
 H1396 H 0.69300 0.43390 1.10882
 O1397 O 0.59899 0.37390 1.01804
 O1398 O 0.62729 0.34384 1.01700
 C1399 C 0.60682 0.35271 1.02512
 C1400 C 0.59188 0.33836 1.04294
 C1401 C 0.59801 0.31350 1.04835
 H1402 H 0.61371 0.30464 1.03934
 O1403 O 0.41767 0.62292 1.02731
 O1404 O 0.38959 0.65316 1.02827
 C1405 C 0.40961 0.64327 1.03611
 C1406 C 0.42354 0.65519 1.05589
 C1407 C 0.41636 0.67871 1.06474
 H1408 H 0.40079 0.68866 1.05669
 O1409 O 0.41400 0.46982 1.11733
 O1410 O 0.38574 0.46865 1.14652
 C1411 C 0.40566 0.46019 1.13687
 C1412 C 0.41939 0.43889 1.14815
 C1413 C 0.41143 0.42808 1.17030
 H1414 H 0.39450 0.43498 1.17869
 O1415 O 0.59557 0.51390 1.12033
 O1416 O 0.62447 0.51243 1.14851
 C1417 C 0.60442 0.52163 1.14015
 C1418 C 0.59216 0.54241 1.15309
 C1419 C 0.60332 0.55221 1.17374
 H1420 H 0.61978 0.54326 1.18118
 O1421 O 0.47987 0.37084 1.08040
 O1422 O 0.47992 0.34057 1.10771
 C1423 C 0.47081 0.35065 1.08885
 C1424 C 0.44881 0.33906 1.07758
 C1425 C 0.43868 0.31745 1.08809
 H1426 H 0.44767 0.30869 1.10353
 O1427 O 0.53315 0.61633 1.08939
 O1428 O 0.53396 0.64443 1.11820
 C1429 C 0.54240 0.63590 1.09831
 C1430 C 0.56366 0.64830 1.08569
 C1431 C 0.57501 0.66942 1.09562
 H1432 H 0.56788 0.67716 1.11236
 O1433 O 0.37502 0.40793 1.02127
 O1434 O 0.34538 0.37967 1.02173
 C1435 C 0.35463 0.39965 1.02986
 C1436 C 0.34213 0.41343 1.04978
 C1437 C 0.31790 0.40736 1.05786
 H1438 H 0.30772 0.39256 1.04926
 O1439 O 0.63166 0.58242 1.02184
 O1440 O 0.66169 0.61024 1.02224
 C1441 C 0.65202 0.59026 1.03045
 C1442 C 0.66376 0.57670 1.05109
 C1443 C 0.68494 0.58647 1.06244
 H1444 H 0.69357 0.60330 1.05546
 O1445 O 0.53187 0.58176 1.12245
 O1446 O 0.53225 0.60977 1.15135
 C1447 C 0.54052 0.58968 1.14227
 C1448 C 0.56114 0.57592 1.15421
 C1449 C 0.57281 0.58566 1.17476
 H1450 H 0.56607 0.60292 1.18252
 O1451 O 0.48197 0.40502 1.11302
 O1452 O 0.48172 0.37473 1.14034
 C1453 C 0.47366 0.39573 1.13267
 C1454 C 0.45368 0.40872 1.14637
 C1455 C 0.44678 0.39978 1.16930
 H1456 H 0.45859 0.38581 1.17766
 O1457 O 0.62855 0.51472 1.08578
 O1458 O 0.65737 0.51379 1.11404
 C1459 C 0.64864 0.52297 1.09448
 C1460 C 0.66166 0.54401 1.08239
 C1461 C 0.68269 0.55411 1.09330
 H1462 H 0.68996 0.54574 1.10976
 O1463 O 0.37906 0.47258 1.08509
 O1464 O 0.35059 0.47229 1.11416
 C1465 C 0.35861 0.46456 1.09386
 C1466 C 0.34421 0.44566 1.08068
 C1467 C 0.31989 0.43974 1.08811
 H1468 H 0.31134 0.44963 1.10308
 O1469 O 0.59765 0.61668 1.02320
 O1470 O 0.62753 0.64468 1.02352
 C1471 C 0.60714 0.63613 1.03205
 C1472 C 0.59502 0.64836 1.05312
 C1473 C 0.60585 0.66947 1.06325
 H1474 H 0.62214 0.67765 1.05468
 O1475 O 0.40914 0.37371 1.02077
 O1476 O 0.37998 0.34495 1.02158
 C1477 C 0.40048 0.35347 1.02933
 C1478 C 0.41424 0.34022 1.04887
 C1479 C 0.40456 0.31837 1.05965
 H1480 H 0.38724 0.31059 1.05331
 O1481 O 0.59549 0.46516 1.11895
 O1482 O 0.62430 0.46383 1.14720
 C1483 C 0.60417 0.45572 1.13835
 C1484 C 0.59102 0.43448 1.14996
 C1485 C 0.59943 0.42359 1.17179
 H1486 H 0.61532 0.43133 1.18098
 O1487 O 0.41549 0.51867 1.11879
 O1488 O 0.38718 0.51762 1.14797
 C1489 C 0.40719 0.52645 1.13898
 C1490 C 0.42011 0.54674 1.15178
 C1491 C 0.40920 0.55689 1.17265
 H1492 H 0.39211 0.54908 1.17999
 O1493 O 0.48444 0.61832 1.08965
 O1494 O 0.48518 0.64659 1.11831
 C1495 C 0.47655 0.63869 1.09850
 C1496 C 0.45662 0.65298 1.08605
 C1497 C 0.44941 0.67655 1.09441
 H1498 H 0.45899 0.68460 1.10961
 O1499 O 0.52921 0.37008 1.07835
 O1500 O 0.52871 0.33955 1.10540
 C1501 C 0.53740 0.34920 1.08599
 C1502 C 0.55776 0.33648 1.07255
 C1503 C 0.56447 0.31171 1.07807
 H1504 H 0.55417 0.30138 1.09179
 O1505 O 0.63484 0.40569 1.01949
 O1506 O 0.66351 0.37604 1.01878
 C1507 C 0.65471 0.39593 1.02782
 C1508 C 0.66684 0.40744 1.04893
 C1509 C 0.68854 0.39703 1.05935
 H1510 H 0.69754 0.38096 1.05130
 O1511 O 0.38279 0.58984 1.02661
 O1512 O 0.35456 0.61992 1.02756
 C1513 C 0.36284 0.59908 1.03534
 C1514 C 0.34961 0.58591 1.05530
 C1515 C 0.32814 0.59646 1.06570
 H1516 H 0.32059 0.61375 1.05842
 Cu1517 Cu 0.50558 0.38967 1.09368
 Cu1518 Cu 0.50492 0.35320 1.12627
 Cu1519 Cu 0.50810 0.59698 1.10300
 Cu1520 Cu 0.50865 0.63071 1.13752
 Cu1521 Cu 0.39468 0.39388 0.99743
 Cu1522 Cu 0.35968 0.35944 0.99789
 Cu1523 Cu 0.61435 0.39397 0.99536
 Cu1524 Cu 0.64873 0.35827 0.99417
 Cu1525 Cu 0.40309 0.60435 1.00325
 Cu1526 Cu 0.36923 0.64048 1.00434
 Cu1527 Cu 0.61181 0.59799 0.99866
 Cu1528 Cu 0.64771 0.63143 0.99911
 Cu1529 Cu 0.39995 0.49554 1.09927
 Cu1530 Cu 0.36602 0.49468 1.13430
 Cu1531 Cu 0.60950 0.48998 1.10004
 Cu1532 Cu 0.64422 0.48880 1.13386
 C1533 C 0.57066 0.42392 1.13807
 H1534 H 0.56421 0.43201 1.12117
 C1535 C 0.58795 0.40204 1.18127
 C1536 C 0.44195 0.55758 1.14228
 H1537 H 0.45012 0.55020 1.12582
 C1538 C 0.41948 0.57766 1.18384
 C1539 C 0.35929 0.56367 1.06520
 H1540 H 0.37619 0.55574 1.05753
 C1541 C 0.31646 0.58526 1.08579
 C1542 C 0.65519 0.42793 1.06012
 H1543 H 0.63832 0.43586 1.05250
 C1544 C 0.69792 0.40668 1.08098
 C1545 C 0.57150 0.34958 1.05484
 H1546 H 0.56675 0.36883 1.05080
 C1547 C 0.58442 0.30010 1.06585
 C1548 C 0.44381 0.64259 1.06659
 H1549 H 0.44919 0.62429 1.06021
 C1550 C 0.42938 0.68957 1.08388
 C1551 C 0.44030 0.42868 1.13615
 H1552 H 0.44586 0.43589 1.11853
 C1553 C 0.42503 0.40825 1.18115
 C1554 C 0.57087 0.55416 1.14363
 H1555 H 0.56248 0.54692 1.12740
 C1556 C 0.59417 0.57407 1.18439
 C1557 C 0.43653 0.35029 1.05787
 H1558 H 0.44396 0.36730 1.05002
 C1559 C 0.41660 0.30721 1.07949
 C1560 C 0.57378 0.63802 1.06434
 H1561 H 0.56555 0.62147 1.05682
 C1562 C 0.59629 0.67993 1.08462
 C1563 C 0.35501 0.43270 1.06129
 H1564 H 0.37385 0.43719 1.05560
 C1565 C 0.30658 0.42078 1.07681
 C1566 C 0.65234 0.55531 1.06116
 H1567 H 0.63571 0.54794 1.05295
 C1568 C 0.69413 0.57544 1.08377
 C1569 C 1.13347 1.12400 1.31204
 C1570 C 1.12251 1.11719 1.29021
 C1571 C 1.09621 1.11643 1.28839
 C1572 C 1.08136 1.12270 1.30849
 C1573 C 1.09249 1.13007 1.33001
 C1574 C 1.11854 1.13072 1.33189
 C1575 C 1.08523 1.10979 1.26645
 C1576 C 1.10022 1.10426 1.24624
 C1577 C 1.12650 1.10536 1.24806
 C1578 C 1.13746 1.11167 1.27004
 C1579 C 1.14145 1.10008 1.22783
 C1580 C 1.13053 1.09334 1.20609
 C1581 C 1.10447 1.09167 1.20417
 C1582 C 1.08937 1.09747 1.22427
 H1583 H 1.15359 1.12503 1.31344
 H1584 H 1.06120 1.12234 1.30742
 H1585 H 1.08086 1.13547 1.34522
 H1586 H 1.06508 1.10910 1.26506
 H1587 H 1.15762 1.11244 1.27142
 H1588 H 1.16160 1.10103 1.22887
 H1589 H 1.14251 1.08931 1.19071
 H1590 H 1.06927 1.09606 1.22298
 C1591 C 1.12541 0.63348 0.81105
 C1592 C 1.12058 0.62119 0.78928
 C1593 C 1.14063 0.61421 0.77389
 C1594 C 1.16517 0.61940 0.78067
 C1595 C 1.16980 0.63134 0.80249
 C1596 C 1.15002 0.63850 0.81778
 C1597 C 1.13586 0.60224 0.75197
 C1598 C 1.11128 0.59720 0.74516
 C1599 C 1.09127 0.60389 0.76072
 C1600 C 1.09604 0.61576 0.78269
 C1601 C 1.06671 0.59903 0.75383
 C1602 C 1.06194 0.58849 0.73138
 C1603 C 1.08162 0.58236 0.71550
 C1604 C 1.10633 0.58622 0.72274
 H1605 H 1.11019 0.63878 0.82301
 H1606 H 1.18076 0.61417 0.76915
 H1607 H 1.18888 0.63510 0.80751
 H1608 H 1.15124 0.59710 0.74010
 H1609 H 1.08066 0.62102 0.79450
 H1610 H 1.05116 0.60391 0.76556
 H1611 H 1.04278 0.58552 0.72615
 H1612 H 1.12156 0.58177 0.71045
 C1613 C 0.61980 1.13154 0.81017
 C1614 C 0.61298 1.12082 0.78819
 C1615 C 0.63169 1.11388 0.77128
 C1616 C 0.65687 1.11729 0.77684
 C1617 C 0.66347 1.12772 0.79887
 C1618 C 0.64501 1.13508 0.81552
 C1619 C 0.62494 1.10380 0.74902
 C1620 C 0.59974 1.10045 0.74349
 C1621 C 0.58105 1.10687 0.76059
 C1622 C 0.58779 1.11706 0.78283
 C1623 C 0.55591 1.10325 0.75501
 C1624 C 0.54930 1.09383 0.73250
 C1625 C 0.56772 1.08796 0.71516
 C1626 C 0.59295 1.09110 0.72093
 H1627 H 0.60564 1.13710 0.82319
 H1628 H 0.67143 1.11201 0.76413
 H1629 H 0.68299 1.13046 0.80286
 H1630 H 0.63927 1.09873 0.73595
 H1631 H 0.57345 1.12223 0.79586
 H1632 H 0.54134 1.10788 0.76795
 H1633 H 0.52974 1.09122 0.72862
 H1634 H 0.60732 1.08700 0.70760
 C1635 C 0.65120 0.63698 1.30008
 C1636 C 0.63745 0.62645 1.28135
 C1637 C 0.61109 0.62616 1.28278
 C1638 C 0.59896 0.63650 1.30295
 C1639 C 0.61282 0.64726 1.32136
 C1640 C 0.63897 0.64758 1.32005
 C1641 C 0.59730 0.61577 1.26395
 C1642 C 0.60954 0.60590 1.24360
 C1643 C 0.63590 0.60639 1.24218
 C1644 C 0.64967 0.61655 1.26107
 C1645 C 0.64813 0.59677 1.22181
 C1646 C 0.63445 0.58656 1.20306
 C1647 C 0.60826 0.58560 1.20434
 C1648 C 0.59588 0.59553 1.22464
 H1649 H 0.67138 0.63755 1.29895
 H1650 H 0.57880 0.63649 1.30436
 H1651 H 0.60319 0.65544 1.33668
 H1652 H 0.57709 0.61550 1.26507
 H1653 H 0.66987 0.61689 1.25993
 H1654 H 0.66830 0.59718 1.22034
 H1655 H 0.64442 0.57954 1.18739
 H1656 H 0.57570 0.59481 1.22582
 C1657 C 0.87154 0.88646 1.32329
 C1658 C 0.88120 0.89081 1.29990
 C1659 C 0.88141 0.87134 1.28279
 C1660 C 0.87171 0.84802 1.28923
 C1661 C 0.86242 0.84380 1.31255
 C1662 C 0.86253 0.86283 1.32983
 C1663 C 0.89144 0.87540 1.25959
 C1664 C 0.90120 0.89871 1.25314
 C1665 C 0.90087 0.91825 1.27015
 C1666 C 0.89096 0.91415 1.29345
 C1667 C 0.91019 0.94169 1.26345
 C1668 C 0.91922 0.94589 1.23998
 C1669 C 0.91949 0.92661 1.22298
 C1670 C 0.91082 0.90294 1.22976
 H1671 H 0.87176 0.90108 1.33666
 H1672 H 0.87161 0.83295 1.27634
 H1673 H 0.85535 0.82552 1.31727
 H1674 H 0.89159 0.86044 1.24652
 H1675 H 0.89078 0.92912 1.30649
 H1676 H 0.91008 0.95689 1.27621
 H1677 H 0.92578 0.96429 1.23495
 H1678 H 0.91067 0.88816 1.21653
 C1679 C 0.85763 0.37656 0.80810
 C1680 C 0.86804 0.38984 0.78851
 C1681 C 0.89414 0.39347 0.78735
 C1682 C 0.90924 0.38461 0.80619
 C1683 C 0.89876 0.37119 0.82543
 C1684 C 0.87301 0.36657 0.82628
 C1685 C 0.90486 0.40505 0.76699
 C1686 C 0.88988 0.41263 0.74756
 C1687 C 0.86370 0.40980 0.74901
 C1688 C 0.85291 0.39858 0.76959
 C1689 C 0.84885 0.41753 0.72951
 C1690 C 0.85991 0.42706 0.70840
 C1691 C 0.88596 0.42898 0.70649
 C1692 C 0.90080 0.42223 0.72635
 H1693 H 0.83779 0.37285 0.80857
 H1694 H 0.92924 0.38738 0.80566
 H1695 H 0.91083 0.36377 0.83942
 H1696 H 0.92492 0.40736 0.76590
 H1697 H 0.83289 0.39592 0.77051
 H1698 H 0.82875 0.41561 0.73033
 H1699 H 0.84817 0.43211 0.69322
 H1700 H 0.92091 0.42399 0.72504
 C1701 C 0.37363 0.84853 0.80975
 C1702 C 0.38380 0.86102 0.78955
 C1703 C 0.38922 0.88674 0.79095
 C1704 C 0.38515 0.89932 0.81274
 C1705 C 0.37443 0.88689 0.83250
 C1706 C 0.36808 0.86164 0.83095
 C1707 C 0.39770 0.89969 0.77032
 C1708 C 0.40051 0.88734 0.74823
 C1709 C 0.39565 0.86149 0.74698
 C1710 C 0.38745 0.84848 0.76767
 C1711 C 0.39879 0.84912 0.72495
 C1712 C 0.40658 0.86223 0.70432
 C1713 C 0.41106 0.88794 0.70532
 C1714 C 0.40796 0.90045 0.72730
 H1715 H 0.36830 0.82915 0.80846
 H1716 H 0.38926 0.91898 0.81417
 H1717 H 0.37005 0.89718 0.84877
 H1718 H 0.40152 0.91947 0.77133
 H1719 H 0.38335 0.82875 0.76660
 H1720 H 0.39523 0.82933 0.72367
 H1721 H 0.40897 0.85234 0.68745
 H1722 H 0.41172 0.92025 0.72812
 C1723 C 0.37572 0.35976 1.30914
 C1724 C 0.38186 0.37164 1.28716
 C1725 C 0.36978 0.39412 1.28046
 C1726 C 0.35051 0.40339 1.29510
 C1727 C 0.34306 0.39033 1.31592
 C1728 C 0.35575 0.36846 1.32358
 C1729 C 0.37669 0.40655 1.25893
 C1730 C 0.39417 0.39570 1.24310
 C1731 C 0.40465 0.37219 1.24901
 C1732 C 0.39924 0.36080 1.27136
 C1733 C 0.41985 0.36004 1.23220
 C1734 C 0.42510 0.37122 1.20991
 C1735 C 0.41683 0.39571 1.20436
 C1736 C 0.40097 0.40768 1.22123
 H1737 H 0.38623 0.34337 1.31458
 H1738 H 0.34061 0.42031 1.29002
 H1739 H 0.32714 0.39749 1.32581
 H1740 H 0.36789 0.42417 1.25414
 H1741 H 0.40785 0.34305 1.27605
 H1742 H 0.42721 0.34156 1.23604
 H1743 H 0.43564 0.36022 1.19709
 H1744 H 0.39394 0.42629 1.21767
 C1745 C 0.86095 1.14520 0.69503
 C1746 C 0.86738 1.13260 0.71656
 C1747 C 0.84885 1.12779 0.73439
 C1748 C 0.82417 1.13542 0.73023
 C1749 C 0.81787 1.14750 0.70857
 C1750 C 0.83617 1.15251 0.69090
 C1751 C 0.85525 1.11537 0.75601
 C1752 C 0.87993 1.10757 0.76002
 C1753 C 0.89835 1.11205 0.74201
 C1754 C 0.89197 1.12453 0.72045
 C1755 C 0.92297 1.10427 0.74600
 C1756 C 0.92952 1.09289 0.76790
 C1757 C 0.91157 1.08892 0.78623
 C1758 C 0.88664 1.09584 0.78197
 H1759 H 0.87495 1.14881 0.68119
 H1760 H 0.80970 1.13184 0.74361
 H1761 H 0.79867 1.15296 0.70545
 H1762 H 0.84106 1.11189 0.76973
 H1763 H 0.90617 1.12807 0.70675
 H1764 H 0.93729 1.10740 0.73236
 H1765 H 0.94879 1.08748 0.77072
 H1766 H 0.87273 1.09304 0.79608
 C1767 C 0.88093 0.64428 0.18430
 C1768 C 0.89093 0.63198 0.20466
 C1769 C 0.89111 0.60564 0.20583
 C1770 C 0.88174 0.59207 0.18643
 C1771 C 0.87186 0.60443 0.16626
 C1772 C 0.87102 0.63064 0.16501
 C1773 C 0.90043 0.59329 0.22642
 C1774 C 0.90959 0.60694 0.24592
 C1775 C 0.90978 0.63328 0.24459
 C1776 C 0.90044 0.64562 0.22400
 C1777 C 0.91914 0.64687 0.26400
 C1778 C 0.92803 0.63453 0.28463
 C1779 C 0.92764 0.60838 0.28632
 C1780 C 0.91843 0.59468 0.26680
 H1781 H 0.88038 0.66446 0.18378
 H1782 H 0.88188 0.57188 0.18693
 H1783 H 0.86471 0.59340 0.15160
 H1784 H 0.90038 0.57309 0.22735
 H1785 H 0.90041 0.66583 0.22311
 H1786 H 0.91943 0.66705 0.26330
 H1787 H 0.93476 0.64550 0.29953
 H1788 H 0.91827 0.57449 0.26785
 C1789 C 0.36306 1.12123 0.18253
 C1790 C 0.37387 1.11576 0.20502
 C1791 C 0.40008 1.11647 0.20750
 C1792 C 0.41498 1.12293 0.18742
 C1793 C 0.40403 1.12849 0.16509
 C1794 C 0.37802 1.12752 0.16240
 C1795 C 0.41092 1.11061 0.22995
 C1796 C 0.39585 1.10402 0.24991
 C1797 C 0.36961 1.10364 0.24738
 C1798 C 0.35881 1.10955 0.22501
 C1799 C 0.35453 1.09704 0.26722
 C1800 C 0.36530 1.09032 0.28926
 C1801 C 0.39135 1.09011 0.29195
 C1802 C 0.40655 1.09740 0.27227
 H1803 H 0.34296 1.12084 0.18069
 H1804 H 0.43510 1.12363 0.18897
 H1805 H 0.41584 1.13333 0.14978
 H1806 H 0.43103 1.11098 0.23183
 H1807 H 0.33870 1.10910 0.22310
 H1808 H 0.33440 1.09681 0.26563
 H1809 H 0.35320 1.08518 0.30428
 H1810 H 0.42666 1.09717 0.27415
 C1811 C 0.37664 0.63463 0.69250
 C1812 C 0.38222 0.62320 0.71479
 C1813 C 0.36266 0.61679 0.73100
 C1814 C 0.33789 0.62160 0.72450
 C1815 C 0.33251 0.63285 0.70224
 C1816 C 0.35180 0.63958 0.68613
 C1817 C 0.36815 0.60594 0.75354
 C1818 C 0.39297 0.60148 0.76015
 C1819 C 0.41253 0.60750 0.74380
 C1820 C 0.40703 0.61826 0.72120
 C1821 C 0.43731 0.60304 0.75052
 C1822 C 0.44272 0.59339 0.77347
 C1823 C 0.42345 0.58792 0.79007
 C1824 C 0.39856 0.59161 0.78311
 H1825 H 0.39152 0.63966 0.68000
 H1826 H 0.32268 0.61683 0.73669
 H1827 H 0.31325 0.63666 0.69790
 H1828 H 0.35314 0.60127 0.76605
 H1829 H 0.42204 0.62307 0.70875
 H1830 H 0.45253 0.60739 0.73818
 H1831 H 0.46204 0.59038 0.77836
 H1832 H 0.38359 0.58770 0.79588
 C1833 C 1.13883 0.86546 0.69254
 C1834 C 1.12550 0.87289 0.71316
 C1835 C 1.09955 0.87762 0.71167
 C1836 C 1.08740 0.87465 0.68949
 C1837 C 1.10075 0.86648 0.66920
 C1838 C 1.12646 0.86184 0.67067
 C1839 C 1.08616 0.88482 0.73242
 C1840 C 1.09836 0.88705 0.75466
 C1841 C 1.12426 0.88193 0.75610
 C1842 C 1.13765 0.87499 0.73536
 C1843 C 1.13649 0.88409 0.77825
 C1844 C 1.12340 0.89205 0.79867
 C1845 C 1.09785 0.89785 0.79733
 C1846 C 1.08524 0.89479 0.77542
 H1847 H 1.15861 0.86127 0.69364
 H1848 H 1.06752 0.87805 0.68800
 H1849 H 1.09106 0.86335 0.65240
 H1850 H 1.06630 0.88861 0.73127
 H1851 H 1.15751 0.87116 0.73650
 H1852 H 1.15626 0.88009 0.77969
 H1853 H 1.13334 0.89420 0.81550
 H1854 H 1.06556 0.89944 0.77433
 C1855 C 1.15063 0.35769 0.19973
 C1856 C 1.13682 0.36779 0.21902
 C1857 C 1.11376 0.37992 0.21447
 C1858 C 1.10508 0.38193 0.19063
 C1859 C 1.11856 0.37107 0.17167
 C1860 C 1.14121 0.35871 0.17615
 C1861 C 1.09945 0.38918 0.23383
 C1862 C 1.10772 0.38617 0.25774
 C1863 C 1.13080 0.37403 0.26223
 C1864 C 1.14522 0.36504 0.24287
 C1865 C 1.13917 0.37116 0.28607
 C1866 C 1.12512 0.38069 0.30526
 C1867 C 1.10232 0.39293 0.30100
 C1868 C 1.09348 0.39536 0.27725
 H1869 H 1.16783 0.34755 0.20314
 H1870 H 1.08745 0.39107 0.18677
 H1871 H 1.11100 0.37152 0.15356
 H1872 H 1.08177 0.39845 0.23033
 H1873 H 1.16283 0.35564 0.24638
 H1874 H 1.15678 0.36192 0.28984
 H1875 H 1.13223 0.37891 0.32350
 H1876 H 1.07606 0.40516 0.27396
 C1877 C 0.63932 0.87756 0.19006
 C1878 C 0.63078 0.88424 0.21331
 C1879 C 0.62715 0.86553 0.23124
 C1880 C 0.63250 0.84061 0.22580
 C1881 C 0.64061 0.83413 0.20263
 C1882 C 0.64377 0.85242 0.18448
 C1883 C 0.61778 0.87191 0.25417
 C1884 C 0.61174 0.89674 0.25944
 C1885 C 0.61564 0.91554 0.24167
 C1886 C 0.62519 0.90919 0.21875
 C1887 C 0.60972 0.94037 0.24710
 C1888 C 0.59993 0.94652 0.26982
 C1889 C 0.59575 0.92798 0.28756
 C1890 C 0.60175 0.90307 0.28219
 H1891 H 0.64154 0.89168 0.17604
 H1892 H 0.62993 0.82606 0.23933
 H1893 H 0.64407 0.81469 0.19866
 H1894 H 0.61486 0.85748 0.26780
 H1895 H 0.62797 0.92359 0.20507
 H1896 H 0.61257 0.95503 0.23373
 H1897 H 0.59531 0.96581 0.27346
 H1898 H 0.59892 0.88867 0.29584
 C1899 C 0.62904 0.35738 0.68556
 C1900 C 0.62172 0.37048 0.70640
 C1901 C 0.61685 0.39640 0.70485
 C1902 C 0.61925 0.40873 0.68244
 C1903 C 0.62683 0.39563 0.66190
 C1904 C 0.63197 0.36993 0.66324
 C1905 C 0.60985 0.40961 0.72570
 C1906 C 0.60763 0.39725 0.74814
 C1907 C 0.61249 0.37130 0.74965
 C1908 C 0.61953 0.35813 0.72883
 C1909 C 0.61001 0.35887 0.77196
 C1910 C 0.60229 0.37183 0.79250
 C1911 C 0.59714 0.39753 0.79125
 C1912 C 0.60024 0.41027 0.76906
 H1913 H 0.63327 0.33763 0.68681
 H1914 H 0.61556 0.42856 0.68086
 H1915 H 0.62894 0.40561 0.64486
 H1916 H 0.60611 0.42948 0.72445
 H1917 H 0.62326 0.33826 0.73007
 H1918 H 0.61370 0.33903 0.77347
 H1919 H 0.60010 0.36171 0.80947
 H1920 H 0.59609 0.43005 0.76795
 C1921 C 1.32357 1.13333 1.12456
 C1922 C 1.30227 1.12071 1.11709
 C1923 C 1.30235 1.09437 1.11648
 C1924 C 1.32374 1.08114 1.12379
 C1925 C 1.34486 1.09392 1.13144
 C1926 C 1.34498 1.12007 1.13166
 C1927 C 1.28111 1.08177 1.10852
 C1928 C 1.25982 1.09523 1.10127
 C1929 C 1.25975 1.12157 1.10233
 C1930 C 1.28093 1.13411 1.11020
 C1931 C 1.23851 1.13505 1.09533
 C1932 C 1.21764 1.12265 1.08687
 C1933 C 1.21759 1.09652 1.08513
 C1934 C 1.23867 1.08286 1.09271
 H1935 H 1.32352 1.15352 1.12509
 H1936 H 1.32414 1.06095 1.12354
 H1937 H 1.36125 1.08349 1.13695
 H1938 H 1.28120 1.06158 1.10785
 H1939 H 1.28087 1.15432 1.11082
 H1940 H 1.23808 1.15521 1.09625
 H1941 H 1.20144 1.13357 1.08169
 H1942 H 1.23883 1.06271 1.09139
 C1943 C 1.30342 0.64335 0.65039
 C1944 C 1.28639 0.62846 0.63811
 C1945 C 1.29523 0.61068 0.62129
 C1946 C 1.32100 0.60777 0.61752
 C1947 C 1.33782 0.62172 0.63091
 C1948 C 1.32913 0.63952 0.64740
 C1949 C 1.27821 0.59567 0.60906
 C1950 C 1.25258 0.59749 0.61419
 C1951 C 1.24389 0.61466 0.63168
 C1952 C 1.26079 0.63037 0.64315
 C1953 C 1.21840 0.61579 0.63749
 C1954 C 1.20159 0.60035 0.62582
 C1955 C 1.20995 0.58384 0.60796
 C1956 C 1.23544 0.58239 0.60219
 H1957 H 1.29680 0.65705 0.66326
 H1958 H 1.32814 0.59410 0.60488
 H1959 H 1.35766 0.61840 0.62878
 H1960 H 1.28495 0.58225 0.59595
 H1961 H 1.25407 0.64368 0.65638
 H1962 H 1.21146 0.62872 0.65094
 H1963 H 1.18189 0.60181 0.63017
 H1964 H 1.24180 0.56969 0.58826
 C1965 C 0.78899 1.16248 0.64662
 C1966 C 0.77011 1.14877 0.63547
 C1967 C 0.77381 1.12307 0.63099
 C1968 C 0.79643 1.11164 0.63741
 C1969 C 0.81490 1.12531 0.64883
 C1970 C 0.81127 1.15071 0.65373
 C1971 C 0.75470 1.10911 0.62061
 C1972 C 0.73182 1.12043 0.61480
 C1973 C 0.72821 1.14616 0.61910
 C1974 C 0.74737 1.16016 0.62934
 C1975 C 0.70540 1.15748 0.61318
 C1976 C 0.68637 1.14351 0.60303
 C1977 C 0.68969 1.11793 0.59866
 C1978 C 0.71247 1.10644 0.60475
 H1979 H 0.78603 1.18199 0.65073
 H1980 H 0.79962 1.09200 0.63410
 H1981 H 0.83197 1.11600 0.65429
 H1982 H 0.75754 1.08940 0.61730
 H1983 H 0.74448 1.17985 0.63276
 H1984 H 0.70227 1.17715 0.61640
 H1985 H 0.66888 1.15270 0.59871
 H1986 H 0.71524 1.08677 0.60127
 C1987 C 0.81771 0.62511 1.14201
 C1988 C 0.79779 0.61666 1.12813
 C1989 C 0.80089 0.61363 1.10285
 C1990 C 0.82392 0.61919 1.09192
 C1991 C 0.84346 0.62821 1.10583
 C1992 C 0.84041 0.63123 1.13086
 C1993 C 0.78083 0.60550 1.08891
 C1994 C 0.75766 0.60064 1.09989
 C1995 C 0.75461 0.60392 1.12516
 C1996 C 0.77469 0.61181 1.13910
 C1997 C 0.73151 0.59914 1.13616
 C1998 C 0.71174 0.59059 1.12242
 C1999 C 0.71466 0.58675 1.09742
 C2000 C 0.73754 0.59223 1.08612
 H2001 H 0.81535 0.62800 1.16129
 H2002 H 0.82664 0.61709 1.07258
 H2003 H 0.86090 0.63324 1.09710
 H2004 H 0.78321 0.60309 1.06955
 H2005 H 0.77230 0.61428 1.15845
 H2006 H 0.72882 0.60170 1.15545
 H2007 H 0.69412 0.58669 1.13138
 H2008 H 0.73987 0.58916 1.06686
 C2009 C 1.32135 0.86610 0.87867
 C2010 C 1.29826 0.87722 0.88396
 C2011 C 1.28244 0.88487 0.86483
 C2012 C 1.29021 0.88173 0.84077
 C2013 C 1.31328 0.87077 0.83569
 C2014 C 1.32887 0.86272 0.85458
 C2015 C 1.25900 0.89522 0.87004
 C2016 C 1.25114 0.89797 0.89411
 C2017 C 1.26715 0.89083 0.91324
 C2018 C 1.29065 0.88054 0.90804
 C2019 C 1.25919 0.89368 0.93728
 C2020 C 1.23531 0.90287 0.94231
 C2021 C 1.21903 0.90936 0.92339
 C2022 C 1.22725 0.90723 0.89932
 H2023 H 1.33353 0.85999 0.89317
 H2024 H 1.27835 0.88751 0.82591
 H2025 H 1.31885 0.86813 0.81700
 H2026 H 1.24675 0.90080 0.85537
 H2027 H 1.30283 0.87480 0.92270
 H2028 H 1.27127 0.88849 0.95216
 H2029 H 1.22947 0.90473 0.96103
 H2030 H 1.21473 0.91190 0.88461
 C2031 C 1.30795 0.35167 0.36695
 C2032 C 1.28937 0.36160 0.38197
 C2033 C 1.29224 0.38572 0.39159
 C2034 C 1.31431 0.39891 0.38698
 C2035 C 1.33299 0.38861 0.37231
 C2036 C 1.32955 0.36530 0.36159
 C2037 C 1.27281 0.39639 0.40516
 C2038 C 1.25063 0.38322 0.40917
 C2039 C 1.24833 0.35861 0.40056
 C2040 C 1.26774 0.34796 0.38703
 C2041 C 1.22629 0.34537 0.40493
 C2042 C 1.20619 0.35683 0.41667
 C2043 C 1.20788 0.38167 0.42411
 C2044 C 1.23035 0.39457 0.42090
 H2045 H 1.30548 0.33351 0.35896
 H2046 H 1.31699 0.41725 0.39449
 H2047 H 1.34990 0.39899 0.36879
 H2048 H 1.27469 0.41514 0.41204
 H2049 H 1.26576 0.32932 0.37990
 H2050 H 1.22431 0.32645 0.39861
 H2051 H 1.18892 0.34669 0.41892
 H2052 H 1.23170 0.41371 0.42684
 C2053 C 0.81517 0.88074 0.35559
 C2054 C 0.79589 0.89201 0.36902
 C2055 C 0.79902 0.89621 0.39406
 C2056 C 0.82161 0.88963 0.40509
 C2057 C 0.84047 0.87798 0.39170
 C2058 C 0.83723 0.87304 0.36701
 C2059 C 0.77930 0.90622 0.40781
 C2060 C 0.75637 0.91182 0.39690
 C2061 C 0.75343 0.90799 0.37176
 C2062 C 0.77322 0.89824 0.35798
 C2063 C 0.73059 0.91368 0.36084
 C2064 C 0.71079 0.92298 0.37465
 C2065 C 0.71340 0.92669 0.39965
 C2066 C 0.73625 0.92100 0.41072
 H2067 H 0.81250 0.87663 0.33662
 H2068 H 0.82439 0.89277 0.42423
 H2069 H 0.85740 0.87210 0.40073
 H2070 H 0.78164 0.90920 0.42705
 H2071 H 0.77081 0.89504 0.33878
 H2072 H 0.72799 0.91084 0.34163
 H2073 H 0.69324 0.92703 0.36581
 H2074 H 0.73841 0.92399 0.42998
 C2075 C 0.83166 0.37795 0.86279
 C2076 C 0.80830 0.38194 0.87379
 C2077 C 0.79190 0.36167 0.87741
 C2078 C 0.79915 0.33779 0.87003
 C2079 C 0.82239 0.33400 0.85911
 C2080 C 0.83885 0.35399 0.85538
 C2081 C 0.76843 0.36559 0.88812
 C2082 C 0.76098 0.38959 0.89501
 C2083 C 0.77742 0.40986 0.89151
 C2084 C 0.80103 0.40587 0.88108
 C2085 C 0.76974 0.43390 0.89804
 C2086 C 0.74576 0.43794 0.90727
 C2087 C 0.72919 0.41799 0.91045
 C2088 C 0.73707 0.39376 0.90474
 H2089 H 0.84437 0.39337 0.86012
 H2090 H 0.78681 0.32207 0.87260
 H2091 H 0.82748 0.31541 0.85336
 H2092 H 0.75582 0.35005 0.89074
 H2093 H 0.81357 0.42144 0.87830
 H2094 H 0.78208 0.44963 0.89554
 H2095 H 0.73999 0.45675 0.91170
 H2096 H 0.72423 0.37837 0.90691
 C2097 C 0.69178 0.86341 1.15676
 C2098 C 0.71155 0.87299 1.14262
 C2099 C 0.70854 0.87636 1.11736
 C2100 C 0.68578 0.87025 1.10672
 C2101 C 0.66635 0.86051 1.12085
 C2102 C 0.66915 0.85681 1.14593
 C2103 C 0.72835 0.88562 1.10312
 C2104 C 0.75119 0.89157 1.11379
 C2105 C 0.75414 0.88822 1.13907
 C2106 C 0.73436 0.87895 1.15328
 C2107 C 0.77684 0.89432 1.14980
 C2108 C 0.79630 0.90404 1.13576
 C2109 C 0.79362 0.90771 1.11067
 C2110 C 0.77107 0.90109 1.09969
 H2111 H 0.69422 0.86038 1.17603
 H2112 H 0.68308 0.87275 1.08742
 H2113 H 0.64905 0.85566 1.11216
 H2114 H 0.72597 0.88818 1.08377
 H2115 H 0.73673 0.87637 1.17264
 H2116 H 0.77947 0.89180 1.16911
 H2117 H 0.81359 0.90877 1.14456
 H2118 H 0.76879 0.90400 1.08038
 C2119 C 0.68217 0.37854 0.63849
 C2120 C 0.70163 0.38821 0.62421
 C2121 C 0.69964 0.38850 0.59868
 C2122 C 0.67816 0.37899 0.58790
 C2123 C 0.65903 0.36902 0.60228
 C2124 C 0.66090 0.36872 0.62762
 C2125 C 0.71923 0.39803 0.58438
 C2126 C 0.74087 0.40705 0.59531
 C2127 C 0.74282 0.40652 0.62086
 C2128 C 0.72319 0.39722 0.63511
 C2129 C 0.76443 0.41528 0.63182
 C2130 C 0.78387 0.42476 0.61770
 C2131 C 0.78210 0.42584 0.59230
 C2132 C 0.76060 0.41665 0.58117
 H2133 H 0.68377 0.37795 0.65804
 H2134 H 0.67630 0.37899 0.56838
 H2135 H 0.64273 0.36140 0.59370
 H2136 H 0.71769 0.39831 0.56481
 H2137 H 0.72475 0.39688 0.65469
 H2138 H 0.76630 0.41482 0.65135
 H2139 H 0.80045 0.43121 0.62669
 H2140 H 0.75906 0.41742 0.56161
 C2141 C 0.18228 0.84936 0.63329
 C2142 C 0.20332 0.86160 0.62387
 C2143 C 0.20306 0.88784 0.62126
 C2144 C 0.18164 0.90135 0.62790
 C2145 C 0.16076 0.88901 0.63723
 C2146 C 0.16084 0.86295 0.64009
 C2147 C 0.22425 0.90016 0.61224
 C2148 C 0.24568 0.88655 0.60574
 C2149 C 0.24582 0.86027 0.60813
 C2150 C 0.22468 0.84798 0.61721
 C2151 C 0.26716 0.84669 0.60142
 C2152 C 0.28820 0.85898 0.59245
 C2153 C 0.28836 0.88509 0.59013
 C2154 C 0.26701 0.89879 0.59687
 H2155 H 0.18277 0.82931 0.63579
 H2156 H 0.18108 0.92147 0.62599
 H2157 H 0.14445 0.89985 0.64229
 H2158 H 0.22407 0.92031 0.61036
 H2159 H 0.22486 0.82783 0.61914
 H2160 H 0.26759 0.82655 0.60314
 H2161 H 0.30454 0.84808 0.58761
 H2162 H 0.26691 0.91892 0.59493
 C2163 C 0.18261 0.37293 1.13964
 C2164 C 0.20560 0.37752 1.12801
 C2165 C 0.22297 0.35779 1.12492
 C2166 C 0.21712 0.33388 1.13356
 C2167 C 0.19414 0.32943 1.14477
 C2168 C 0.17663 0.34880 1.14776
 C2169 C 0.24586 0.36222 1.11318
 C2170 C 0.25169 0.38614 1.10447
 C2171 C 0.23429 0.40586 1.10748
 C2172 C 0.21136 0.40142 1.11917
 C2173 C 0.24027 0.42982 1.09905
 C2174 C 0.26351 0.43438 1.08836
 C2175 C 0.28107 0.41503 1.08559
 C2176 C 0.27487 0.39080 1.09328
 H2177 H 0.16906 0.38785 1.14172
 H2178 H 0.23021 0.31856 1.13141
 H2179 H 0.18989 0.31073 1.15102
 H2180 H 0.25917 0.34707 1.11092
 H2181 H 0.19807 0.41657 1.12147
 H2182 H 0.22718 0.44514 1.10115
 H2183 H 0.26797 0.45317 1.08251
 H2184 H 0.28849 0.37588 1.09146
 C2185 C 0.69182 1.14613 0.85988
 C2186 C 0.71128 1.13284 0.87110
 C2187 C 0.70879 1.10697 0.87570
 C2188 C 0.68670 1.09495 0.86941
 C2189 C 0.66764 1.10822 0.85788
 C2190 C 0.67018 1.13377 0.85274
 C2191 C 0.72860 1.09342 0.88596
 C2192 C 0.75098 1.10535 0.89151
 C2193 C 0.75333 1.13129 0.88718
 C2194 C 0.73346 1.14486 0.87708
 C2195 C 0.77563 1.14322 0.89288
 C2196 C 0.79541 1.12964 0.90281
 C2197 C 0.79333 1.10387 0.90711
 C2198 C 0.77108 1.09177 0.90129
 H2199 H 0.69393 1.16577 0.85559
 H2200 H 0.68442 1.07517 0.87283
 H2201 H 0.65103 1.09848 0.85241
 H2202 H 0.72673 1.07356 0.88931
 H2203 H 0.73540 1.16469 0.87358
 H2204 H 0.77778 1.16305 0.88965
 H2205 H 0.81250 1.13927 0.90700
 H2206 H 0.76933 1.07193 0.90476
 C2207 C 0.69597 0.66014 0.35505
 C2208 C 0.71685 0.64748 0.36450
 C2209 C 0.71578 0.62147 0.36879
 C2210 C 0.69379 0.60862 0.36376
 C2211 C 0.67319 0.62132 0.35425
 C2212 C 0.67408 0.64712 0.34962
 C2213 C 0.73671 0.60868 0.37789
 C2214 C 0.75876 0.62156 0.38277
 C2215 C 0.75978 0.64760 0.37859
 C2216 C 0.73886 0.66037 0.36948
 C2217 C 0.78173 0.66048 0.38365
 C2218 C 0.80244 0.64777 0.39291
 C2219 C 0.80169 0.62190 0.39721
 C2220 C 0.77978 0.60886 0.39190
 H2221 H 0.69693 0.67998 0.35134
 H2222 H 0.69259 0.58871 0.36700
 H2223 H 0.65647 0.61094 0.35038
 H2224 H 0.73585 0.58873 0.38112
 H2225 H 0.73972 0.68032 0.36622
 H2226 H 0.78288 0.68041 0.38051
 H2227 H 0.81919 0.65817 0.39660
 H2228 H 0.77896 0.58895 0.39534
 C2229 C 0.17296 1.13758 0.36878
 C2230 C 0.19325 1.12323 0.37710
 C2231 C 0.19019 1.09747 0.38190
 C2232 C 0.16687 1.08653 0.37828
 C2233 C 0.14694 1.10085 0.36953
 C2234 C 0.14981 1.12640 0.36463
 C2235 C 0.21052 1.08302 0.38999
 C2236 C 0.23392 1.09399 0.39324
 C2237 C 0.23694 1.11974 0.38826
 C2238 C 0.21663 1.13416 0.38024
 C2239 C 0.26021 1.13079 0.39165
 C2240 C 0.28014 1.11668 0.40054
 C2241 C 0.27731 1.09122 0.40596
 C2242 C 0.25427 1.07979 0.40185
 H2243 H 0.17539 1.15720 0.36459
 H2244 H 0.16415 1.06683 0.38182
 H2245 H 0.12924 1.09196 0.36627
 H2246 H 0.20811 1.06330 0.39375
 H2247 H 0.21903 1.15388 0.37648
 H2248 H 0.26288 1.15045 0.38787
 H2249 H 0.29780 1.12576 0.40361
 H2250 H 0.25198 1.06019 0.40625
 C2251 C 0.19486 0.64988 0.86284
 C2252 C 0.21429 0.63644 0.87407
 C2253 C 0.21130 0.61076 0.87940
 C2254 C 0.18875 0.59912 0.87393
 C2255 C 0.16979 0.61249 0.86232
 C2256 C 0.17282 0.63779 0.85634
 C2257 C 0.23109 0.59696 0.88947
 C2258 C 0.25396 0.60843 0.89412
 C2259 C 0.25680 0.63419 0.88914
 C2260 C 0.23696 0.64802 0.87923
 C2261 C 0.27956 0.64569 0.89402
 C2262 C 0.29929 0.63188 0.90379
 C2263 C 0.29676 0.60626 0.90868
 C2264 C 0.27406 0.59456 0.90366
 H2265 H 0.19735 0.66930 0.85786
 H2266 H 0.18609 0.57950 0.87791
 H2267 H 0.15293 0.60294 0.85724
 H2268 H 0.22881 0.57724 0.89334
 H2269 H 0.23930 0.66770 0.87518
 H2270 H 0.28209 0.66539 0.89033
 H2271 H 0.31668 0.64120 0.90744
 H2272 H 0.27194 0.57485 0.90760
 C2273 C 1.13665 1.31530 1.12650
 C2274 C 1.12511 1.29307 1.11989
 C2275 C 1.11668 1.27629 1.13808
 C2276 C 1.11936 1.28232 1.16253
 C2277 C 1.13066 1.30460 1.16893
 C2278 C 1.13961 1.32108 1.15100
 C2279 C 1.10598 1.25364 1.13158
 C2280 C 1.10348 1.24758 1.10711
 C2281 C 1.11129 1.26461 1.08891
 C2282 C 1.12209 1.28726 1.09541
 C2283 C 1.10848 1.25852 1.06448
 C2284 C 1.09857 1.23553 1.05815
 C2285 C 1.09141 1.21817 1.07612
 C2286 C 1.09368 1.22451 1.10061
 H2287 H 1.14341 1.32816 1.11271
 H2288 H 1.11294 1.26972 1.17669
 H2289 H 1.13292 1.30873 1.18792
 H2290 H 1.09983 1.24064 1.14554
 H2291 H 1.12838 1.30020 1.08145
 H2292 H 1.11416 1.27143 1.05028
 H2293 H 1.09662 1.23128 1.03914
 H2294 H 1.08859 1.21119 1.11466
 C2295 C 1.13286 0.81731 0.62088
 C2296 C 1.12652 0.79268 0.61540
 C2297 C 1.12087 0.77567 0.63440
 C2298 C 1.12189 0.78341 0.65847
 C2299 C 1.12822 0.80786 0.66374
 C2300 C 1.13363 0.82507 0.64506
 C2301 C 1.11413 0.75121 0.62911
 C2302 C 1.11289 0.74345 0.60506
 C2303 C 1.11877 0.76026 0.58598
 C2304 C 1.12556 0.78481 0.59127
 C2305 C 1.11761 0.75222 0.56195
 C2306 C 1.11046 0.72784 0.55688
 C2307 C 1.10428 0.71116 0.57576
 C2308 C 1.10571 0.71909 0.59982
 H2309 H 1.13691 0.83056 0.60644
 H2310 H 1.11772 0.77059 0.67322
 H2311 H 1.12897 0.81332 0.68252
 H2312 H 1.10969 0.73825 0.64372
 H2313 H 1.12995 0.79777 0.57667
 H2314 H 1.12206 0.76482 0.54708
 H2315 H 1.10933 0.72213 0.53817
 H2316 H 1.10135 0.70620 0.61449
 C2317 C 0.60967 1.32530 0.63495
 C2318 C 0.60312 1.30147 0.62683
 C2319 C 0.62209 1.28391 0.62120
 C2320 C 0.64715 1.29026 0.62419
 C2321 C 0.65346 1.31403 0.63190
 C2322 C 0.63488 1.33185 0.63699
 C2323 C 0.61578 1.26047 0.61221
 C2324 C 0.59074 1.25433 0.60854
 C2325 C 0.57172 1.27168 0.61446
 C2326 C 0.57801 1.29512 0.62362
 C2327 C 0.54669 1.26533 0.61092
 C2328 C 0.54058 1.24210 0.60151
 C2329 C 0.55937 1.22484 0.59531
 C2330 C 0.58445 1.23111 0.59892
 H2331 H 0.59532 1.33910 0.63871
 H2332 H 0.66190 1.27701 0.62007
 H2333 H 0.67297 1.31875 0.63354
 H2334 H 0.63038 1.24714 0.60775
 H2335 H 0.56342 1.30850 0.62795
 H2336 H 0.53185 1.27836 0.61536
 H2337 H 0.52114 1.23770 0.59878
 H2338 H 0.59905 1.21777 0.59453
 C2339 C 0.64896 0.80384 1.14062
 C2340 C 0.63589 0.78330 1.13186
 C2341 C 0.60950 0.78359 1.13201
 C2342 C 0.59666 0.80437 1.14118
 C2343 C 0.60985 0.82458 1.15021
 C2344 C 0.63603 0.82450 1.14992
 C2345 C 0.59640 0.76309 1.12311
 C2346 C 0.60937 0.74222 1.11425
 C2347 C 0.63577 0.74188 1.11446
 C2348 C 0.64883 0.76241 1.12318
 C2349 C 0.64874 0.72102 1.10585
 C2350 C 0.63579 0.70082 1.09668
 C2351 C 0.60957 0.70107 1.09580
 C2352 C 0.59643 0.72175 1.10497
 H2353 H 0.66918 0.80367 1.14072
 H2354 H 0.57646 0.80492 1.14152
 H2355 H 0.59968 0.84039 1.15741
 H2356 H 0.57617 0.76339 1.12309
 H2357 H 0.66907 0.76213 1.12321
 H2358 H 0.66895 0.72035 1.10608
 H2359 H 0.64634 0.68491 1.09021
 H2360 H 0.57623 0.72218 1.10433
 C2361 C 0.88144 1.32025 0.87356
 C2362 C 0.89292 1.29733 0.87884
 C2363 C 0.89906 1.28087 0.85981
 C2364 C 0.89434 1.28798 0.83578
 C2365 C 0.88302 1.31092 0.83069
 C2366 C 0.87620 1.32696 0.84956
 C2367 C 0.90930 1.25738 0.86515
 C2368 C 0.91332 1.25011 0.88926
 C2369 C 0.90791 1.26688 0.90821
 C2370 C 0.89783 1.29043 0.90287
 C2371 C 0.91207 1.25956 0.93226
 C2372 C 0.92056 1.23550 0.93757
 C2373 C 0.92503 1.21836 0.91893
 C2374 C 0.92191 1.22601 0.89475
 H2375 H 0.87624 1.33281 0.88801
 H2376 H 0.89902 1.27566 0.82098
 H2377 H 0.87896 1.31596 0.81210
 H2378 H 0.91359 1.24458 0.85060
 H2379 H 0.89328 1.30314 0.91743
 H2380 H 0.90827 1.27225 0.94699
 H2381 H 0.92328 1.23014 0.95634
 H2382 H 0.92508 1.21287 0.88025
 C2383 C 0.88803 0.82728 0.36502
 C2384 C 0.89549 0.80402 0.37431
 C2385 C 0.87733 0.78759 0.38397
 C2386 C 0.85220 0.79488 0.38466
 C2387 C 0.84499 0.81813 0.37552
 C2388 C 0.86278 0.83434 0.36545
 C2389 C 0.88454 0.76409 0.39266
 C2390 C 0.90969 0.75691 0.39218
 C2391 C 0.92797 0.77341 0.38301
 C2392 C 0.92072 0.79687 0.37396
 C2393 C 0.95316 0.76613 0.38312
 C2394 C 0.96016 0.74278 0.39244
 C2395 C 0.94204 0.72625 0.40153
 C2396 C 0.91679 0.73342 0.40094
 H2397 H 0.90171 0.83989 0.35727
 H2398 H 0.83809 0.78253 0.39206
 H2399 H 0.82543 0.82328 0.37573
 H2400 H 0.87059 0.75142 0.39988
 H2401 H 0.93467 0.80952 0.36670
 H2402 H 0.96745 0.77857 0.37625
 H2403 H 0.97976 0.73782 0.39285
 H2404 H 0.90251 0.72065 0.40723
 C2405 C 0.36284 1.32295 0.37438
 C2406 C 0.36764 1.29800 0.38063
 C2407 C 0.36664 1.27950 0.36265
 C2408 C 0.36010 1.28623 0.33890
 C2409 C 0.35435 1.31102 0.33309
 C2410 C 0.35611 1.32969 0.35063
 C2411 C 0.37175 1.25455 0.36880
 C2412 C 0.37719 1.24782 0.39282
 C2413 C 0.37731 1.26623 0.41095
 C2414 C 0.37284 1.29124 0.40468
 C2415 C 0.38199 1.25930 0.43507
 C2416 C 0.38707 1.23443 0.44112
 C2417 C 0.38786 1.21619 0.42311
 C2418 C 0.38264 1.22295 0.39902
 H2419 H 0.36357 1.33719 0.38813
 H2420 H 0.35883 1.27223 0.32499
 H2421 H 0.34813 1.31561 0.31497
 H2422 H 0.37130 1.24038 0.35496
 H2423 H 0.37320 1.30541 0.41854
 H2424 H 0.38199 1.27314 0.44920
 H2425 H 0.39123 1.22955 0.45974
 H2426 H 0.38302 1.20885 0.38511
 C2427 C 0.38181 0.82076 0.86793
 C2428 C 0.38671 0.79779 0.87946
 C2429 C 0.36733 0.78021 0.88238
 C2430 C 0.34345 0.78587 0.87374
 C2431 C 0.33871 0.80882 0.86254
 C2432 C 0.35775 0.82650 0.85965
 C2433 C 0.37210 0.75724 0.89385
 C2434 C 0.39605 0.75151 0.90235
 C2435 C 0.41541 0.76912 0.89954
 C2436 C 0.41060 0.79218 0.88822
 C2437 C 0.43942 0.76318 0.90773
 C2438 C 0.44440 0.73974 0.91787
 C2439 C 0.42540 0.72198 0.92034
 C2440 C 0.40111 0.72816 0.91301
 H2441 H 0.39648 0.83443 0.86587
 H2442 H 0.32841 0.77262 0.87576
 H2443 H 0.32007 0.81284 0.85610
 H2444 H 0.35725 0.74375 0.89595
 H2445 H 0.42547 0.80562 0.88602
 H2446 H 0.45447 0.77643 0.90578
 H2447 H 0.46324 0.73525 0.92345
 H2448 H 0.38648 0.71438 0.91460
 C2449 C 1.13693 0.67917 0.87076
 C2450 C 1.12522 0.70198 0.87644
 C2451 C 1.12064 0.71979 0.85790
 C2452 C 1.12771 0.71444 0.83401
 C2453 C 1.13911 0.69167 0.82850
 C2454 C 1.14383 0.67377 0.84673
 C2455 C 1.10913 0.74267 0.86350
 C2456 C 1.10215 0.74806 0.88745
 C2457 C 1.10654 0.73013 0.90595
 C2458 C 1.11797 0.70724 0.90033
 C2459 C 1.09973 0.73554 0.92988
 C2460 C 1.08929 0.75869 0.93560
 C2461 C 1.08525 0.77689 0.91751
 C2462 C 1.09131 0.77126 0.89333
 H2463 H 1.14029 0.66543 0.88491
 H2464 H 1.12439 0.72785 0.81956
 H2465 H 1.14441 0.68807 0.80990
 H2466 H 1.10579 0.75635 0.84925
 H2467 H 1.12140 0.69360 0.91459
 H2468 H 1.10284 0.72201 0.94427
 H2469 H 1.08458 0.76251 0.95431
 H2470 H 1.08848 0.78525 0.87928
 C2471 C 1.11383 0.17109 0.38232
 C2472 C 1.10516 0.19532 0.38725
 C2473 C 1.10768 0.21435 0.36944
 C2474 C 1.11906 0.20891 0.34717
 C2475 C 1.12718 0.18472 0.34229
 C2476 C 1.12439 0.16564 0.35968
 C2477 C 1.09850 0.23839 0.37399
 C2478 C 1.08677 0.24374 0.39613
 C2479 C 1.08435 0.22478 0.41401
 C2480 C 1.09352 0.20070 0.40945
 C2481 C 1.07298 0.23032 0.43628
 C2482 C 1.06460 0.25449 0.44100
 C2483 C 1.06705 0.27344 0.42341
 C2484 C 1.07782 0.26789 0.40085
 H2485 H 1.11144 0.15623 0.39557
 H2486 H 1.12119 0.22324 0.33333
 H2487 H 1.13526 0.18066 0.32472
 H2488 H 1.10044 0.25292 0.36030
 H2489 H 1.09157 0.18617 0.42313
 H2490 H 1.07097 0.21606 0.45019
 H2491 H 1.05642 0.25854 0.45854
 H2492 H 1.08008 0.28259 0.38739
 C2493 C 0.64323 0.69200 0.36880
 C2494 C 0.63449 0.71601 0.37450
 C2495 C 0.62943 0.73339 0.35567
 C2496 C 0.63347 0.72658 0.33153
 C2497 C 0.64184 0.70261 0.32604
 C2498 C 0.64656 0.68508 0.34455
 C2499 C 0.62011 0.75716 0.36122
 C2500 C 0.61560 0.76379 0.38535
 C2501 C 0.62079 0.74649 0.40420
 C2502 C 0.63023 0.72274 0.39867
 C2503 C 0.61638 0.75322 0.42831
 C2504 C 0.60704 0.77689 0.43373
 C2505 C 0.60181 0.79424 0.41516
 C2506 C 0.60602 0.78750 0.39095
 H2507 H 0.64666 0.67841 0.38308
 H2508 H 0.62977 0.73966 0.31689
 H2509 H 0.64442 0.69756 0.30725
 H2510 H 0.61617 0.77042 0.34675
 H2511 H 0.63408 0.70945 0.41313
 H2512 H 0.62019 0.74020 0.44298
 H2513 H 0.60373 0.78161 0.45250
 H2514 H 0.60229 0.80087 0.37654
 C2515 C 0.63718 0.17703 0.86815
 C2516 C 0.62707 0.20050 0.87387
 C2517 C 0.62221 0.21805 0.85515
 C2518 C 0.62761 0.21188 0.83109
 C2519 C 0.63760 0.18853 0.82557
 C2520 C 0.64239 0.17082 0.84396
 C2521 C 0.61212 0.24151 0.86075
 C2522 C 0.60699 0.24777 0.88487
 C2523 C 0.61184 0.23023 0.90360
 C2524 C 0.62172 0.20668 0.89798
 C2525 C 0.60707 0.23668 0.92773
 C2526 C 0.59813 0.26045 0.93330
 C2527 C 0.59350 0.27810 0.91487
 C2528 C 0.59758 0.27151 0.89062
 H2529 H 0.64066 0.16344 0.88241
 H2530 H 0.62410 0.22512 0.81653
 H2531 H 0.64168 0.18429 0.80682
 H2532 H 0.60849 0.25495 0.84637
 H2533 H 0.62545 0.19327 0.91237
 H2534 H 0.61062 0.22348 0.94231
 H2535 H 0.59498 0.26518 0.95211
 H2536 H 0.59430 0.28516 0.87635
 C2537 C 0.88710 0.67712 1.13107
 C2538 C 0.89035 0.70183 1.12308
 C2539 C 0.86991 0.71869 1.12361
 C2540 C 0.84671 0.71068 1.13240
 C2541 C 0.84360 0.68604 1.14002
 C2542 C 0.86365 0.66909 1.13919
 C2543 C 0.87287 0.74320 1.11512
 C2544 C 0.89603 0.75116 1.10614
 C2545 C 0.91653 0.73438 1.10579
 C2546 C 0.91355 0.70981 1.11419
 C2547 C 0.93978 0.74255 1.09723
 C2548 C 0.94281 0.76722 1.08955
 C2549 C 0.92257 0.78397 1.08991
 C2550 C 0.89912 0.77578 1.09790
 H2551 H 0.90244 0.66387 1.13025
 H2552 H 0.83088 0.72334 1.13300
 H2553 H 0.82541 0.67999 1.14625
 H2554 H 0.85717 0.75607 1.11550
 H2555 H 0.92924 0.69694 1.11381
 H2556 H 0.95570 0.73000 1.09684
 H2557 H 0.96105 0.77335 1.08347
 H2558 H 0.88357 0.78882 1.09849
 C2559 C 0.84187 0.19431 0.63623
 C2560 C 0.85138 0.21774 0.62928
 C2561 C 0.85768 0.23516 0.64721
 C2562 C 0.85444 0.22885 0.67172
 C2563 C 0.84512 0.20551 0.67848
 C2564 C 0.83870 0.18795 0.66089
 C2565 C 0.86719 0.25857 0.64039
 C2566 C 0.87069 0.26478 0.61583
 C2567 C 0.86447 0.24735 0.59790
 C2568 C 0.85482 0.22398 0.60471
 C2569 C 0.86810 0.25355 0.57340
 C2570 C 0.87781 0.27675 0.56669
 C2571 C 0.88403 0.29437 0.58429
 C2572 C 0.88034 0.28816 0.60892
 H2573 H 0.83723 0.18089 0.62249
 H2574 H 0.85914 0.24197 0.68572
 H2575 H 0.84271 0.20127 0.69755
 H2576 H 0.87198 0.27189 0.65420
 H2577 H 0.85005 0.21065 0.59091
 H2578 H 0.86356 0.24038 0.55940
 H2579 H 0.88081 0.28076 0.54763
 H2580 H 0.88472 0.30159 0.62273
 C2581 C 0.36618 0.67902 0.63236
 C2582 C 0.37869 0.70112 0.62606
 C2583 C 0.38314 0.71921 0.64392
 C2584 C 0.37522 0.71477 0.66781
 C2585 C 0.36305 0.69264 0.67398
 C2586 C 0.35840 0.67453 0.65640
 C2587 C 0.39529 0.74148 0.63760
 C2588 C 0.40300 0.74595 0.61360
 C2589 C 0.39884 0.72768 0.59582
 C2590 C 0.38680 0.70539 0.60217
 C2591 C 0.40635 0.73223 0.57183
 C2592 C 0.41707 0.75498 0.56530
 C2593 C 0.42074 0.77353 0.58265
 C2594 C 0.41418 0.76868 0.60693
 H2595 H 0.36292 0.66520 0.61865
 H2596 H 0.37844 0.72841 0.68174
 H2597 H 0.35708 0.68968 0.69256
 H2598 H 0.39848 0.75542 0.65128
 H2599 H 0.38349 0.69151 0.58846
 H2600 H 0.40342 0.71842 0.55800
 H2601 H 0.42212 0.75832 0.54651
 H2602 H 0.41670 0.78301 0.62036
 C2603 C 0.37739 0.17789 1.13650
 C2604 C 0.38328 0.19914 1.12265
 C2605 C 0.38710 0.19710 1.09736
 C2606 C 0.38478 0.17380 1.08638
 C2607 C 0.37853 0.15280 1.10028
 C2608 C 0.37485 0.15468 1.12539
 C2609 C 0.39312 0.21836 1.08351
 C2610 C 0.39540 0.24162 1.09464
 C2611 C 0.39129 0.24360 1.11991
 C2612 C 0.38521 0.22240 1.13371
 C2613 C 0.39378 0.26671 1.13112
 C2614 C 0.40111 0.28753 1.11761
 C2615 C 0.40577 0.28570 1.09263
 C2616 C 0.40236 0.26283 1.08107
 H2617 H 0.37409 0.17942 1.15582
 H2618 H 0.38756 0.17186 1.06703
 H2619 H 0.37643 0.13501 1.09148
 H2620 H 0.39622 0.21677 1.06415
 H2621 H 0.38219 0.22396 1.15309
 H2622 H 0.39063 0.26857 1.15042
 H2623 H 0.40367 0.30508 1.12675
 H2624 H 0.40619 0.26136 1.06183
 C2625 C 1.12890 1.11832 0.67714
 C2626 C 1.11778 1.11020 0.69890
 C2627 C 1.09194 1.10507 0.69971
 C2628 C 1.07777 1.10777 0.67861
 C2629 C 1.08895 1.11609 0.65709
 C2630 C 1.11449 1.12171 0.65620
 C2631 C 1.08063 1.09770 0.72163
 C2632 C 1.09483 1.09539 0.74277
 C2633 C 1.12074 1.10026 0.74185
 C2634 C 1.13202 1.10766 0.71996
 C2635 C 1.13499 1.09763 0.76288
 C2636 C 1.12378 1.09002 0.78459
 C2637 C 1.09809 1.08515 0.78574
 C2638 C 1.08362 1.08810 0.76481
 H2639 H 1.14854 1.12294 0.67671
 H2640 H 1.05797 1.10386 0.67885
 H2641 H 1.07758 1.11859 0.64112
 H2642 H 1.06079 1.09388 0.72226
 H2643 H 1.15184 1.11154 0.71934
 H2644 H 1.15484 1.10130 0.76251
 H2645 H 1.13519 1.08795 0.80059
 H2646 H 1.06383 1.08413 0.76559
 C2647 C 1.14640 0.61722 0.18582
 C2648 C 1.13507 0.60805 0.20700
 C2649 C 1.10882 0.60934 0.20965
 C2650 C 1.09438 0.61967 0.19096
 C2651 C 1.10590 0.62923 0.17012
 C2652 C 1.13194 0.62817 0.16748
 C2653 C 1.09751 0.60086 0.23114
 C2654 C 1.11217 0.59164 0.25019
 C2655 C 1.13840 0.59033 0.24749
 C2656 C 1.14966 0.59831 0.22582
 C2657 C 1.15300 0.58146 0.26669
 C2658 C 1.14177 0.57425 0.28851
 C2659 C 1.11572 0.57557 0.29146
 C2660 C 1.10102 0.58410 0.27208
 H2661 H 1.16654 0.61681 0.18395
 H2662 H 1.07426 0.62085 0.19269
 H2663 H 1.09458 0.63771 0.15608
 H2664 H 1.07740 0.60195 0.23323
 H2665 H 1.16980 0.59743 0.22381
 H2666 H 1.17313 0.58043 0.26496
 H2667 H 1.15355 0.56808 0.30328
 H2668 H 1.08089 0.58489 0.27405
 C2669 C 0.63572 1.13164 0.19593
 C2670 C 0.62027 1.12577 0.21568
 C2671 C 0.59617 1.11611 0.21171
 C2672 C 0.58786 1.11295 0.18792
 C2673 C 0.60298 1.12011 0.16833
 C2674 C 0.62685 1.12958 0.17231
 C2675 C 0.58069 1.11024 0.23155
 C2676 C 0.58883 1.11444 0.25524
 C2677 C 0.61266 1.12487 0.25903
 C2678 C 0.62827 1.13024 0.23927
 C2679 C 0.62076 1.12928 0.28262
 C2680 C 0.60596 1.12228 0.30235
 C2681 C 0.58277 1.11101 0.29880
 C2682 C 0.57391 1.10770 0.27525
 H2683 H 0.65407 1.13938 0.19878
 H2684 H 0.56942 1.10574 0.18449
 H2685 H 0.59597 1.11878 0.15007
 H2686 H 0.56236 1.10249 0.22857
 H2687 H 0.64662 1.13798 0.24224
 H2688 H 0.63888 1.13736 0.28582
 H2689 H 0.61306 1.12462 0.32048
 H2690 H 0.55616 1.09862 0.27259
 C2691 C 0.62329 0.63275 0.68358
 C2692 C 0.61904 0.62087 0.70598
 C2693 C 0.63948 0.61451 0.72095
 C2694 C 0.66380 0.61987 0.71314
 C2695 C 0.66784 0.63156 0.69079
 C2696 C 0.64766 0.63817 0.67594
 C2697 C 0.63530 0.60313 0.74357
 C2698 C 0.61093 0.59818 0.75152
 C2699 C 0.59051 0.60422 0.73642
 C2700 C 0.59470 0.61542 0.71371
 C2701 C 0.56617 0.59942 0.74452
 C2702 C 0.56204 0.58953 0.76767
 C2703 C 0.58217 0.58405 0.78303
 C2704 C 0.60663 0.58792 0.77464
 H2705 H 0.60778 0.63772 0.67198
 H2706 H 0.67967 0.61511 0.72435
 H2707 H 0.68674 0.63571 0.68509
 H2708 H 0.65097 0.59849 0.75512
 H2709 H 0.57902 0.62022 0.70223
 H2710 H 0.55031 0.60380 0.73317
 H2711 H 0.54304 0.58645 0.77376
 H2712 H 0.62222 0.58398 0.78650
 C2713 C 0.86400 0.87701 0.68637
 C2714 C 0.87420 0.88078 0.70946
 C2715 C 0.87733 0.86031 0.72556
 C2716 C 0.87029 0.83646 0.71827
 C2717 C 0.86051 0.83284 0.69521
 C2718 C 0.85732 0.85298 0.67899
 C2719 C 0.88747 0.86397 0.74864
 C2720 C 0.89459 0.88786 0.75590
 C2721 C 0.89163 0.90828 0.73970
 C2722 C 0.88150 0.90462 0.71664
 C2723 C 0.89860 0.93216 0.74693
 C2724 C 0.90779 0.93594 0.77017
 C2725 C 0.91040 0.91595 0.78666
 C2726 C 0.90419 0.89180 0.77923
 H2727 H 0.86184 0.89261 0.67391
 H2728 H 0.87251 0.82055 0.73033
 H2729 H 0.85537 0.81419 0.69001
 H2730 H 0.88971 0.84825 0.76097
 H2731 H 0.87920 0.92035 0.70432
 H2732 H 0.89658 0.94800 0.73475
 H2733 H 0.91265 0.95467 0.77541
 H2734 H 0.90596 0.87630 0.79188
 C2735 C 0.88058 0.38944 0.17880
 C2736 C 0.88770 0.39403 0.20278
 C2737 C 0.88746 0.37435 0.22008
 C2738 C 0.87981 0.35056 0.21322
 C2739 C 0.87325 0.34609 0.18929
 C2740 C 0.87387 0.36537 0.17189
 C2741 C 0.89526 0.37861 0.24383
 C2742 C 0.90349 0.40226 0.25055
 C2743 C 0.90359 0.42199 0.23333
 C2744 C 0.89566 0.41776 0.20957
 C2745 C 0.91161 0.44566 0.24017
 C2746 C 0.91921 0.44983 0.26390
 C2747 C 0.91914 0.43037 0.28115
 C2748 C 0.91146 0.40653 0.27429
 H2749 H 0.88127 0.40421 0.16526
 H2750 H 0.87944 0.33530 0.22623
 H2751 H 0.86804 0.32744 0.18416
 H2752 H 0.89513 0.36348 0.25703
 H2753 H 0.89587 0.43287 0.19636
 H2754 H 0.91185 0.46099 0.22724
 H2755 H 0.92515 0.46832 0.26884
 H2756 H 0.91108 0.39153 0.28761
 C2757 C 0.35981 0.86403 0.19595
 C2758 C 0.37280 0.87007 0.21706
 C2759 C 0.37948 0.85103 0.23375
 C2760 C 0.37339 0.82624 0.22884
 C2761 C 0.36048 0.82040 0.20779
 C2762 C 0.35337 0.83921 0.19127
 C2763 C 0.39178 0.85710 0.25524
 C2764 C 0.39725 0.88202 0.26039
 C2765 C 0.39090 0.90099 0.24347
 C2766 C 0.37889 0.89488 0.22188
 C2767 C 0.39610 0.92589 0.24870
 C2768 C 0.40659 0.93210 0.27084
 C2769 C 0.41238 0.91353 0.28809
 C2770 C 0.40824 0.88841 0.28251
 H2771 H 0.35460 0.87857 0.18314
 H2772 H 0.37837 0.81139 0.24139
 H2773 H 0.35563 0.80118 0.20457
 H2774 H 0.39663 0.84251 0.26815
 H2775 H 0.37382 0.90949 0.20906
 H2776 H 0.39147 0.94064 0.23591
 H2777 H 0.40981 0.95155 0.27474
 H2778 H 0.41245 0.87402 0.29583
 C2779 C 0.36287 0.35438 0.70323
 C2780 C 0.37176 0.36853 0.72246
 C2781 C 0.37527 0.39450 0.71935
 C2782 C 0.36971 0.40583 0.69701
 C2783 C 0.36026 0.39166 0.67816
 C2784 C 0.35677 0.36594 0.68120
 C2785 C 0.38394 0.40871 0.73868
 C2786 C 0.38891 0.39732 0.76114
 C2787 C 0.38510 0.37139 0.76422
 C2788 C 0.37663 0.35718 0.74488
 C2789 C 0.39003 0.35997 0.78659
 C2790 C 0.39932 0.37393 0.80557
 C2791 C 0.40374 0.39956 0.80259
 C2792 C 0.39803 0.41132 0.78047
 H2793 H 0.35965 0.33457 0.70559
 H2794 H 0.37217 0.42569 0.69429
 H2795 H 0.35530 0.40072 0.66124
 H2796 H 0.38675 0.42859 0.73627
 H2797 H 0.37379 0.33731 0.74729
 H2798 H 0.38708 0.34017 0.78931
 H2799 H 0.40344 0.36462 0.82260
 H2800 H 0.40156 0.43107 0.77809
 C2801 C 1.13873 0.87604 1.31512
 C2802 C 1.12651 0.88405 1.29412
 C2803 C 1.10024 0.88687 1.29426
 C2804 C 1.08670 0.88154 1.31553
 C2805 C 1.09903 0.87275 1.33617
 C2806 C 1.12503 0.86988 1.33599
 C2807 C 1.08797 0.89434 1.27302
 C2808 C 1.10161 0.89851 1.25157
 C2809 C 1.12785 0.89539 1.25151
 C2810 C 1.14012 0.88841 1.27280
 C2811 C 1.14148 0.89922 1.23009
 C2812 C 1.12933 0.90651 1.20897
 C2813 C 1.10334 0.91021 1.20886
 C2814 C 1.08949 0.90584 1.23016
 H2815 H 1.15877 0.87319 1.31494
 H2816 H 1.06657 0.88346 1.31598
 H2817 H 1.08833 0.86769 1.35218
 H2818 H 1.06784 0.89657 1.27309
 H2819 H 1.16024 0.88603 1.27270
 H2820 H 1.16155 0.89671 1.22971
 H2821 H 1.14030 0.90941 1.19263
 H2822 H 1.06946 0.90878 1.23021
 C2823 C 1.12127 0.36050 0.81288
 C2824 C 1.11243 0.37296 0.79218
 C2825 C 1.11427 0.39917 0.79038
 C2826 C 1.12510 0.41240 0.80934
 C2827 C 1.13362 0.39983 0.83006
 C2828 C 1.13160 0.37379 0.83216
 C2829 C 1.10508 0.41169 0.76977
 C2830 C 1.09399 0.39828 0.75102
 C2831 C 1.09222 0.37205 0.75292
 C2832 C 1.10151 0.35957 0.77342
 C2833 C 1.08116 0.35867 0.73426
 C2834 C 1.07199 0.37108 0.71381
 C2835 C 1.07360 0.39715 0.71160
 C2836 C 1.08464 0.41065 0.73039
 H2837 H 1.11991 0.34038 0.81410
 H2838 H 1.12667 0.43251 0.80830
 H2839 H 1.14133 0.41051 0.84469
 H2840 H 1.10647 0.43181 0.76838
 H2841 H 1.10008 0.33945 0.77484
 H2842 H 1.07975 0.33855 0.73540
 H2843 H 1.06406 0.36015 0.69947
 H2844 H 1.08581 0.43077 0.72903
 C2845 C 0.64600 0.84808 0.79662
 C2846 C 0.63460 0.86250 0.77833
 C2847 C 0.62347 0.88572 0.78410
 C2848 C 0.62370 0.89395 0.80812
 C2849 C 0.63568 0.87981 0.82602
 C2850 C 0.64706 0.85696 0.82037
 C2851 C 0.61284 0.90058 0.76574
 C2852 C 0.61338 0.89267 0.74159
 C2853 C 0.62447 0.86940 0.73588
 C2854 C 0.63493 0.85447 0.75425
 C2855 C 0.62481 0.86135 0.71183
 C2856 C 0.61389 0.87594 0.69366
 C2857 C 0.60273 0.89897 0.69911
 C2858 C 0.60278 0.90746 0.72307
 H2859 H 0.65534 0.83071 0.79222
 H2860 H 0.61534 0.91169 0.81290
 H2861 H 0.63677 0.88696 0.84423
 H2862 H 0.60436 0.91839 0.77020
 H2863 H 0.64351 0.83672 0.74978
 H2864 H 0.63321 0.84360 0.70711
 H2865 H 0.61385 0.86910 0.67528
 H2866 H 0.59387 0.92509 0.72735
 C2867 C 0.63210 0.35348 1.31019
 C2868 C 0.62406 0.36571 1.28893
 C2869 C 0.62004 0.39180 1.28893
 C2870 C 0.62385 0.40515 1.31024
 C2871 C 0.63207 0.39291 1.33118
 C2872 C 0.63655 0.36706 1.33134
 C2873 C 0.61254 0.40418 1.26762
 C2874 C 0.60900 0.39083 1.24622
 C2875 C 0.61285 0.36470 1.24628
 C2876 C 0.62036 0.35234 1.26758
 C2877 C 0.60907 0.35133 1.22499
 C2878 C 0.60130 0.36361 1.20391
 C2879 C 0.59732 0.38954 1.20359
 C2880 C 0.60147 0.40311 1.22480
 H2881 H 0.63572 0.33359 1.31008
 H2882 H 0.62078 0.42513 1.31063
 H2883 H 0.63523 0.40368 1.34731
 H2884 H 0.60954 0.42420 1.26767
 H2885 H 0.62341 0.33233 1.26752
 H2886 H 0.61198 0.33133 1.22467
 H2887 H 0.59842 0.35281 1.18773
 H2888 H 0.59825 0.42308 1.22476
 C2889 C 0.87167 1.14510 1.31323
 C2890 C 0.87780 1.13575 1.29019
 C2891 C 0.85895 1.13335 1.27258
 C2892 C 0.83445 1.14068 1.27817
 C2893 C 0.82846 1.14945 1.30121
 C2894 C 0.84688 1.15144 1.31900
 C2895 C 0.86475 1.12323 1.24986
 C2896 C 0.88914 1.11524 1.24450
 C2897 C 0.90803 1.11780 1.26201
 C2898 C 0.90227 1.12808 1.28470
 C2899 C 0.93242 1.11000 1.25656
 C2900 C 0.93812 1.09994 1.23393
 C2901 C 0.91954 1.09728 1.21636
 C2902 C 0.89498 1.10481 1.22185
 H2903 H 0.88583 1.14632 1.32704
 H2904 H 0.81978 1.13903 1.26491
 H2905 H 0.80927 1.15425 1.30543
 H2906 H 0.85024 1.12133 1.23645
 H2907 H 0.91675 1.12986 1.29814
 H2908 H 0.94713 1.11178 1.26974
 H2909 H 0.95714 1.09415 1.23014
 H2910 H 0.88060 1.10310 1.20830
 C2911 C 0.86278 0.65709 0.79773
 C2912 C 0.86893 0.64525 0.77589
 C2913 C 0.85009 0.64059 0.75878
 C2914 C 0.82536 0.64747 0.76401
 C2915 C 0.81938 0.65901 0.78589
 C2916 C 0.83802 0.66409 0.80282
 C2917 C 0.85628 0.62927 0.73669
 C2918 C 0.88107 0.62244 0.73152
 C2919 C 0.89979 0.62669 0.74887
 C2920 C 0.89362 0.63806 0.77090
 C2921 C 0.92449 0.61972 0.74380
 C2922 C 0.93076 0.60919 0.72155
 C2923 C 0.91250 0.60544 0.70384
 C2924 C 0.88754 0.61178 0.70915
 H2925 H 0.87715 0.66075 0.81089
 H2926 H 0.81065 0.64400 0.75117
 H2927 H 0.80020 0.66433 0.78953
 H2928 H 0.84185 0.62593 0.72349
 H2929 H 0.90806 0.64149 0.78406
 H2930 H 0.93904 0.62263 0.75695
 H2931 H 0.95003 0.60404 0.71814
 H2932 H 0.87330 0.60914 0.69561
 C2933 C 0.36395 1.11740 0.82072
 C2934 C 0.37454 1.11006 0.79864
 C2935 C 0.40054 1.11218 0.79484
 C2936 C 0.41543 1.12185 0.81324
 C2937 C 0.40469 1.12904 0.83530
 C2938 C 0.37890 1.12669 0.83934
 C2939 C 0.41116 1.10447 0.77279
 C2940 C 0.39606 1.09469 0.75456
 C2941 C 0.37004 1.09274 0.75845
 C2942 C 0.35946 1.10046 0.78042
 C2943 C 0.35496 1.08307 0.74029
 C2944 C 0.36548 1.07535 0.71841
 C2945 C 0.39133 1.07704 0.71427
 C2946 C 0.40653 1.08678 0.73251
 H2947 H 0.34398 1.11583 0.82344
 H2948 H 0.43539 1.12365 0.81066
 H2949 H 0.41655 1.13605 0.84941
 H2950 H 0.43112 1.10603 0.76984
 H2951 H 0.33950 1.09888 0.78338
 H2952 H 0.33497 1.08157 0.74295
 H2953 H 0.35328 1.06839 0.70454
 H2954 H 0.42651 1.08798 0.72964
 C2955 C 0.36099 0.62994 1.30518
 C2956 C 0.37458 0.61948 1.28588
 C2957 C 0.39983 0.61241 1.28919
 C2958 C 0.41088 0.61550 1.31187
 C2959 C 0.39741 0.62650 1.33073
 C2960 C 0.37255 0.63407 1.32743
 C2961 C 0.41382 0.60304 1.26965
 C2962 C 0.40298 0.60087 1.24674
 C2963 C 0.37765 0.60772 1.24353
 C2964 C 0.36363 0.61689 1.26311
 C2965 C 0.36673 0.60534 1.22074
 C2966 C 0.38063 0.59601 1.20135
 C2967 C 0.40577 0.58913 1.20429
 C2968 C 0.41697 0.59183 1.22698
 H2969 H 0.34196 0.63630 1.30254
 H2970 H 0.43018 0.61021 1.31477
 H2971 H 0.40656 0.62991 1.34777
 H2972 H 0.43320 0.59777 1.27219
 H2973 H 0.34429 0.62233 1.26053
 H2974 H 0.34738 0.61050 1.21794
 H2975 H 0.37172 0.59403 1.18395
 H2976 H 0.43630 0.58630 1.22935
 C2977 C 1.13897 1.31645 0.86588
 C2978 C 1.12619 1.29466 0.87243
 C2979 C 1.09994 1.29529 0.87531
 C2980 C 1.08695 1.31775 0.87137
 C2981 C 1.09983 1.33932 0.86461
 C2982 C 1.12588 1.33880 0.86185
 C2983 C 1.08718 1.27352 0.88212
 C2984 C 1.10035 1.25117 0.88616
 C2985 C 1.12658 1.25059 0.88298
 C2986 C 1.13929 1.27228 0.87608
 C2987 C 1.13980 1.22838 0.88715
 C2988 C 1.12732 1.20710 0.89514
 C2989 C 1.10137 1.20755 0.89891
 C2990 C 1.08785 1.22950 0.89388
 H2991 H 1.15905 1.31605 0.86349
 H2992 H 1.06685 1.31861 0.87345
 H2993 H 1.08955 1.35649 0.86150
 H2994 H 1.06708 1.27404 0.88451
 H2995 H 1.15941 1.27180 0.87379
 H2996 H 1.15986 1.22758 0.88469
 H2997 H 1.13800 1.19026 0.89874
 H2998 H 1.06785 1.22995 0.89692
 C2999 C 1.13173 0.82183 0.38385
 C3000 C 1.12699 0.79642 0.38793
 C3001 C 1.12304 0.78062 0.36799
 C3002 C 1.12395 0.79038 0.34441
 C3003 C 1.12860 0.81561 0.34054
 C3004 C 1.13247 0.83159 0.36016
 C3005 C 1.11813 0.75531 0.37187
 C3006 C 1.11688 0.74554 0.39545
 C3007 C 1.12087 0.76122 0.41544
 C3008 C 1.12599 0.78657 0.41156
 C3009 C 1.11944 0.75126 0.43899
 C3010 C 1.11380 0.72611 0.44267
 C3011 C 1.10959 0.71046 0.42288
 C3012 C 1.11143 0.72033 0.39929
 H3013 H 1.13466 0.83411 0.39900
 H3014 H 1.12104 0.77852 0.32895
 H3015 H 1.12943 0.82261 0.32210
 H3016 H 1.11506 0.74326 0.35655
 H3017 H 1.12900 0.79863 0.42688
 H3018 H 1.12240 0.76298 0.45454
 H3019 H 1.11221 0.71902 0.46105
 H3020 H 1.10861 0.70835 0.38389
 C3021 C 0.61446 1.32486 0.36443
 C3022 C 0.60762 1.30172 0.37464
 C3023 C 0.62627 1.28373 0.38006
 C3024 C 0.65132 1.28904 0.37493
 C3025 C 0.65795 1.31218 0.36517
 C3026 C 0.63969 1.33035 0.36009
 C3027 C 0.61967 1.26088 0.39086
 C3028 C 0.59465 1.25575 0.39647
 C3029 C 0.57597 1.27364 0.39092
 C3030 C 0.58256 1.29647 0.38003
 C3031 C 0.55096 1.26835 0.39635
 C3032 C 0.54447 1.24551 0.40695
 C3033 C 0.56286 1.22758 0.41253
 C3034 C 0.58799 1.23293 0.40740
 H3035 H 0.60038 1.33896 0.36074
 H3036 H 0.66584 1.27548 0.37890
 H3037 H 0.67747 1.31615 0.36189
 H3038 H 0.63402 1.24718 0.39505
 H3039 H 0.56822 1.31021 0.37591
 H3040 H 0.53639 1.28182 0.39226
 H3041 H 0.52501 1.24181 0.41083
 H3042 H 0.60226 1.21908 0.41134
 C3043 C 0.63451 0.81509 0.85795
 C3044 C 0.63044 0.79203 0.86970
 C3045 C 0.64975 0.77390 0.87034
 C3046 C 0.67278 0.77917 0.85931
 C3047 C 0.67682 0.80228 0.84814
 C3048 C 0.65782 0.82043 0.84741
 C3049 C 0.64580 0.75088 0.88209
 C3050 C 0.62280 0.74571 0.89331
 C3051 C 0.60359 0.76396 0.89286
 C3052 C 0.60753 0.78696 0.88110
 C3053 C 0.58054 0.75874 0.90385
 C3054 C 0.57622 0.73541 0.91444
 C3055 C 0.59494 0.71694 0.91457
 C3056 C 0.61843 0.72236 0.90443
 H3057 H 0.61996 0.82922 0.85773
 H3058 H 0.68781 0.76554 0.85963
 H3059 H 0.69491 0.80618 0.84016
 H3060 H 0.66059 0.73697 0.88241
 H3061 H 0.59273 0.80085 0.88073
 H3062 H 0.56563 0.77249 0.90375
 H3063 H 0.55798 0.73151 0.92211
 H3064 H 0.63281 0.70805 0.90419
 C3065 C 0.86979 1.31814 1.12914
 C3066 C 0.88247 1.29671 1.12151
 C3067 C 0.90885 1.29637 1.12064
 C3068 C 0.92207 1.31752 1.12771
 C3069 C 0.90923 1.33861 1.13590
 C3070 C 0.88308 1.33902 1.13658
 C3071 C 0.92153 1.27482 1.11303
 C3072 C 0.90812 1.25354 1.10664
 C3073 C 0.88173 1.25390 1.10796
 C3074 C 0.86911 1.27548 1.11523
 C3075 C 0.86831 1.23264 1.10189
 C3076 C 0.88083 1.21135 1.09405
 C3077 C 0.90698 1.21093 1.09200
 C3078 C 0.92060 1.23198 1.09873
 H3079 H 0.84959 1.31835 1.13021
 H3080 H 0.94227 1.31759 1.12730
 H3081 H 0.91960 1.35461 1.14189
 H3082 H 0.94175 1.27456 1.11220
 H3083 H 0.84888 1.27573 1.11612
 H3084 H 0.84812 1.23253 1.10303
 H3085 H 0.87000 1.19516 1.08938
 H3086 H 0.94077 1.23179 1.09714
 C3087 C 0.88026 0.82077 0.63738
 C3088 C 0.88681 0.79958 0.62400
 C3089 C 0.86794 0.78349 0.61579
 C3090 C 0.84285 0.78906 0.62082
 C3091 C 0.83651 0.81041 0.63378
 C3092 C 0.85512 0.82631 0.64219
 C3093 C 0.87442 0.76211 0.60272
 C3094 C 0.89952 0.75661 0.59766
 C3095 C 0.91835 0.77293 0.60549
 C3096 C 0.91188 0.79429 0.61860
 C3097 C 0.94342 0.76738 0.60041
 C3098 C 0.94985 0.74547 0.58840
 C3099 C 0.93136 0.72877 0.58113
 C3100 C 0.90615 0.73473 0.58538
 H3101 H 0.89454 0.83328 0.64366
 H3102 H 0.82815 0.77701 0.61463
 H3103 H 0.81705 0.81458 0.63737
 H3104 H 0.85995 0.74966 0.59665
 H3105 H 0.92635 0.80668 0.62476
 H3106 H 0.95808 0.77973 0.60613
 H3107 H 0.96938 0.74134 0.58511
 H3108 H 0.89178 0.72182 0.58009
 C3109 C 0.34282 1.30982 0.64482
 C3110 C 0.35468 1.28895 0.63465
 C3111 C 0.38090 1.28865 0.63173
 C3112 C 0.39477 1.30929 0.63892
 C3113 C 0.38281 1.33002 0.64896
 C3114 C 0.35675 1.33056 0.65202
 C3115 C 0.39283 1.26773 0.62174
 C3116 C 0.37886 1.24710 0.61460
 C3117 C 0.35261 1.24748 0.61740
 C3118 C 0.34070 1.26837 0.62744
 C3119 C 0.33868 1.22691 0.61014
 C3120 C 0.35060 1.20611 0.60024
 C3121 C 0.37668 1.20543 0.59744
 C3122 C 0.39071 1.22606 0.60469
 H3123 H 0.32277 1.30979 0.64741
 H3124 H 0.41488 1.30942 0.63679
 H3125 H 0.39395 1.34577 0.65423
 H3126 H 0.41296 1.26750 0.61956
 H3127 H 0.32058 1.26860 0.62964
 H3128 H 0.31857 1.22687 0.61220
 H3129 H 0.33941 1.19034 0.59511
 H3130 H 0.41081 1.22584 0.60238
 C3131 C 0.37084 0.80656 1.14944
 C3132 C 0.37727 0.78511 1.13640
 C3133 C 0.35860 0.76777 1.13043
 C3134 C 0.33379 0.77235 1.13740
 C3135 C 0.32756 0.79381 1.15027
 C3136 C 0.34600 0.81101 1.15645
 C3137 C 0.36506 0.74606 1.11782
 C3138 C 0.38996 0.74139 1.11118
 C3139 C 0.40856 0.75890 1.11689
 C3140 C 0.40208 0.78067 1.12937
 C3141 C 0.43344 0.75414 1.11041
 C3142 C 0.44000 0.73192 1.09902
 C3143 C 0.42181 0.71411 1.09374
 C3144 C 0.39670 0.71919 1.09946
 H3145 H 0.38505 0.81991 1.15408
 H3146 H 0.31924 0.75930 1.13299
 H3147 H 0.30834 0.79694 1.15566
 H3148 H 0.35076 0.73268 1.11344
 H3149 H 0.41640 0.79398 1.13388
 H3150 H 0.44790 0.76740 1.11452
 H3151 H 0.45943 0.72848 1.09455
 H3152 H 0.38258 0.70544 1.09566
 C3153 C 0.85034 0.69999 0.85863
 C3154 C 0.86276 0.72100 0.86718
 C3155 C 0.87144 0.73928 0.85058
 C3156 C 0.86788 0.73598 0.82568
 C3157 C 0.85534 0.71505 0.81734
 C3158 C 0.84620 0.69702 0.83371
 C3159 C 0.88321 0.76068 0.85914
 C3160 C 0.88632 0.76407 0.88410
 C3161 C 0.87790 0.74564 0.90067
 C3162 C 0.86624 0.72419 0.89210
 C3163 C 0.88105 0.74910 0.92558
 C3164 C 0.89223 0.77072 0.93405
 C3165 C 0.90046 0.78932 0.91780
 C3166 C 0.89749 0.78576 0.89277
 H3167 H 0.84356 0.68603 0.87135
 H3168 H 0.87444 0.74978 0.81270
 H3169 H 0.85222 0.71323 0.79810
 H3170 H 0.88972 0.77479 0.84641
 H3171 H 0.85961 0.71015 0.90484
 H3172 H 0.87481 0.73511 0.93852
 H3173 H 0.89460 0.77282 0.95337
 H3174 H 0.90340 0.80010 0.88004
 C3175 C 0.85239 0.20115 0.34781
 C3176 C 0.86104 0.22063 0.36233
 C3177 C 0.86994 0.21530 0.38590
 C3178 C 0.87006 0.19062 0.39451
 C3179 C 0.86089 0.17151 0.38019
 C3180 C 0.85191 0.17660 0.35684
 C3181 C 0.87828 0.23471 0.40059
 C3182 C 0.87773 0.25947 0.39211
 C3183 C 0.86869 0.26480 0.36859
 C3184 C 0.86044 0.24538 0.35387
 C3185 C 0.86837 0.28949 0.36002
 C3186 C 0.87751 0.30863 0.37431
 C3187 C 0.88677 0.30353 0.39755
 C3188 C 0.88653 0.27895 0.40656
 H3189 H 0.84502 0.20514 0.32996
 H3190 H 0.87674 0.18616 0.41252
 H3191 H 0.86039 0.15267 0.38741
 H3192 H 0.88517 0.23055 0.41861
 H3193 H 0.85355 0.24954 0.33585
 H3194 H 0.86154 0.29394 0.34206
 H3195 H 0.87787 0.32747 0.36704
 H3196 H 0.89407 0.27494 0.42434
 C3197 C 0.38009 0.67881 0.37322
 C3198 C 0.39169 0.70166 0.37762
 C3199 C 0.39462 0.71925 0.35852
 C3200 C 0.38634 0.71345 0.33526
 C3201 C 0.37516 0.69052 0.33099
 C3202 C 0.37181 0.67320 0.34993
 C3203 C 0.40553 0.74241 0.36302
 C3204 C 0.41349 0.74827 0.38640
 C3205 C 0.41110 0.73041 0.40533
 C3206 C 0.40031 0.70723 0.40080
 C3207 C 0.41893 0.73630 0.42869
 C3208 C 0.42793 0.76003 0.43354
 C3209 C 0.42950 0.77821 0.41509
 C3210 C 0.42295 0.77200 0.39136
 H3211 H 0.37769 0.66523 0.38771
 H3212 H 0.38849 0.72663 0.32039
 H3213 H 0.36888 0.68627 0.31292
 H3214 H 0.40742 0.75602 0.34846
 H3215 H 0.39822 0.69370 0.41541
 H3216 H 0.41740 0.72281 0.44337
 H3217 H 0.43303 0.76447 0.45192
 H3218 H 0.42392 0.78605 0.37713
 C3219 C 0.37905 0.17768 0.86352
 C3220 C 0.38479 0.19917 0.87658
 C3221 C 0.38746 0.19768 0.90203
 C3222 C 0.38418 0.17471 0.91395
 C3223 C 0.37815 0.15350 0.90084
 C3224 C 0.37559 0.15477 0.87557
 C3225 C 0.39329 0.21914 0.91512
 C3226 C 0.39653 0.24209 0.90309
 C3227 C 0.39361 0.24355 0.87765
 C3228 C 0.38772 0.22213 0.86460
 C3229 C 0.39703 0.26636 0.86556
 C3230 C 0.40404 0.28738 0.87838
 C3231 C 0.40750 0.28611 0.90356
 C3232 C 0.40321 0.26352 0.91595
 H3233 H 0.37663 0.17881 0.84407
 H3234 H 0.38609 0.17319 0.93343
 H3235 H 0.37539 0.13599 0.91039
 H3236 H 0.39548 0.21794 0.93461
 H3237 H 0.38560 0.22331 0.84510
 H3238 H 0.39478 0.26783 0.84612
 H3239 H 0.40717 0.30469 0.86857
 H3240 H 0.40606 0.26242 0.93534
 C3241 C 1.12648 0.67257 1.12031
 C3242 C 1.11763 0.69707 1.11690
 C3243 C 1.12099 0.71490 1.13528
 C3244 C 1.13325 0.70796 1.15666
 C3245 C 1.14151 0.68346 1.16006
 C3246 C 1.13804 0.66564 1.14203
 C3247 C 1.11181 0.73926 1.13214
 C3248 C 1.09927 0.74608 1.11087
 C3249 C 1.09590 0.72825 1.09250
 C3250 C 1.10506 0.70387 1.09565
 C3251 C 1.08370 0.73520 1.07110
 C3252 C 1.07556 0.75973 1.06761
 C3253 C 1.07908 0.77761 1.08560
 C3254 C 1.09054 0.77062 1.10741
 H3255 H 1.12352 0.65861 1.10661
 H3256 H 1.13598 0.72133 1.17093
 H3257 H 1.15028 0.67816 1.17697
 H3258 H 1.11445 0.75290 1.14622
 H3259 H 1.10243 0.69023 1.08156
 H3260 H 1.08094 0.72180 1.05684
 H3261 H 1.06686 0.76493 1.05064
 H3262 H 1.09360 0.78452 1.12115
 C3263 C 1.10262 0.17290 0.63603
 C3264 C 1.09298 0.19407 0.62428
 C3265 C 1.09233 0.19507 0.59868
 C3266 C 1.10103 0.17465 0.58532
 C3267 C 1.11107 0.15381 0.59721
 C3268 C 1.11215 0.15292 0.62258
 C3269 C 1.08369 0.21671 0.58689
 C3270 C 1.07622 0.23750 0.60039
 C3271 C 1.07671 0.23635 0.62599
 C3272 C 1.08486 0.21457 0.63776
 C3273 C 1.06951 0.25718 0.63945
 C3274 C 1.06218 0.27913 0.62769
 C3275 C 1.06173 0.28059 0.60226
 C3276 C 1.06866 0.25961 0.58870
 H3277 H 1.10388 0.17239 0.65561
 H3278 H 1.10069 0.17507 0.56570
 H3279 H 1.11852 0.13852 0.58667
 H3280 H 1.08336 0.21757 0.56726
 H3281 H 1.08544 0.21379 0.65739
 H3282 H 1.06988 0.25664 0.65906
 H3283 H 1.05730 0.29516 0.63854
 H3284 H 1.06816 0.26050 0.56909
 C3285 C 0.63719 0.68134 0.62280
 C3286 C 0.62806 0.70520 0.61698
 C3287 C 0.62162 0.72185 0.63572
 C3288 C 0.62441 0.71433 0.65993
 C3289 C 0.63402 0.69074 0.66556
 C3290 C 0.64072 0.67404 0.64709
 C3291 C 0.61284 0.74585 0.62998
 C3292 C 0.61077 0.75355 0.60573
 C3293 C 0.61734 0.73696 0.58696
 C3294 C 0.62575 0.71281 0.59271
 C3295 C 0.61556 0.74488 0.56275
 C3296 C 0.60734 0.76902 0.55716
 C3297 C 0.60061 0.78559 0.57567
 C3298 C 0.60240 0.77769 0.59994
 H3299 H 0.64200 0.66857 0.60841
 H3300 H 0.61962 0.72688 0.67452
 H3301 H 0.63672 0.68577 0.68441
 H3302 H 0.60790 0.75862 0.64437
 H3303 H 0.63082 0.70009 0.57832
 H3304 H 0.62052 0.73242 0.54815
 H3305 H 0.60588 0.77465 0.53833
 H3306 H 0.59759 0.79046 0.61435
 C3307 C 0.63050 0.17171 1.12121
 C3308 C 0.62248 0.19584 1.11469
 C3309 C 0.61898 0.21399 1.13285
 C3310 C 0.62397 0.20794 1.15702
 C3311 C 0.63177 0.18396 1.16333
 C3312 C 0.63478 0.16556 1.14559
 C3313 C 0.61035 0.23787 1.12666
 C3314 C 0.60522 0.24398 1.10252
 C3315 C 0.60901 0.22606 1.08423
 C3316 C 0.61756 0.20205 1.09044
 C3317 C 0.60426 0.23256 1.06002
 C3318 C 0.59602 0.25660 1.05403
 C3319 C 0.59205 0.27437 1.07218
 C3320 C 0.59655 0.26789 1.09640
 H3321 H 0.63277 0.15750 1.10755
 H3322 H 0.62157 0.22167 1.17111
 H3323 H 0.63532 0.17980 1.18218
 H3324 H 0.60758 0.25168 1.14065
 H3325 H 0.62031 0.18824 1.07645
 H3326 H 0.60711 0.21913 1.04573
 H3327 H 0.59266 0.26136 1.03522
 H3328 H 0.59389 0.28171 1.11040
 C3329 C 1.32330 1.13228 0.87292
 C3330 C 1.30163 1.11912 0.87897
 C3331 C 1.30300 1.09316 0.88363
 C3332 C 1.32610 1.08080 0.88183
 C3333 C 1.34753 1.09403 0.87527
 C3334 C 1.34623 1.11979 0.87088
 C3335 C 1.28129 1.08004 0.88990
 C3336 C 1.25826 1.09256 0.89151
 C3337 C 1.25696 1.11847 0.88642
 C3338 C 1.27862 1.13154 0.88019
 C3339 C 1.23406 1.13105 0.88810
 C3340 C 1.21277 1.11834 0.89563
 C3341 C 1.21393 1.09280 0.90141
 C3342 C 1.23659 1.07980 0.89875
 H3343 H 1.32234 1.15211 0.86904
 H3344 H 1.32753 1.06092 0.88521
 H3345 H 1.36517 1.08424 0.87346
 H3346 H 1.28234 1.06018 0.89370
 H3347 H 1.27758 1.15141 0.87646
 H3348 H 1.23273 1.15084 0.88414
 H3349 H 1.19537 1.12857 0.89750
 H3350 H 1.23754 1.06013 0.90338
 C3351 C 1.33131 0.61768 0.36165
 C3352 C 1.30880 0.61134 0.37346
 C3353 C 1.29168 0.63032 0.38006
 C3354 C 1.29735 0.65525 0.37480
 C3355 C 1.31979 0.66140 0.36327
 C3356 C 1.33707 0.64278 0.35660
 C3357 C 1.26918 0.62413 0.39180
 C3358 C 1.26349 0.59916 0.39708
 C3359 C 1.28065 0.58017 0.39061
 C3360 C 1.30318 0.58636 0.37888
 C3361 C 1.27489 0.55523 0.39580
 C3362 C 1.25218 0.54909 0.40687
 C3363 C 1.23478 0.56773 0.41312
 C3364 C 1.24075 0.59283 0.40843
 H3365 H 1.34454 0.60317 0.35678
 H3366 H 1.28445 0.67004 0.37967
 H3367 H 1.32358 0.68083 0.35943
 H3368 H 1.25607 0.63875 0.39673
 H3369 H 1.31627 0.57174 0.37390
 H3370 H 1.28784 0.54043 0.39108
 H3371 H 1.24815 0.52965 0.41051
 H3372 H 1.22738 0.60736 0.41291
 C3373 C 0.79974 1.15716 0.36582
 C3374 C 0.77929 1.14440 0.37578
 C3375 C 0.77871 1.11806 0.37511
 C3376 C 0.79854 1.10498 0.36428
 C3377 C 0.81861 1.11788 0.35401
 C3378 C 0.81937 1.14400 0.35473
 C3379 C 0.75822 1.10527 0.38498
 C3380 C 0.73807 1.11850 0.39509
 C3381 C 0.73856 1.14484 0.39547
 C3382 C 0.75924 1.15761 0.38602
 C3383 C 0.71822 1.15802 0.40510
 C3384 C 0.69751 1.14529 0.41421
 C3385 C 0.69682 1.11907 0.41419
 C3386 C 0.71732 1.10581 0.40461
 H3387 H 0.80020 1.17735 0.36610
 H3388 H 0.79840 1.08481 0.36355
 H3389 H 0.83367 1.10753 0.34553
 H3390 H 0.75782 1.08507 0.38452
 H3391 H 0.75960 1.17781 0.38638
 H3392 H 0.71819 1.17821 0.40536
 H3393 H 0.68182 1.15607 0.42093
 H3394 H 0.71721 1.08561 0.40468
 C3395 C 0.80722 0.64291 0.84489
 C3396 C 0.78668 0.63504 0.85882
 C3397 C 0.76872 0.65270 0.86670
 C3398 C 0.77178 0.67796 0.86069
 C3399 C 0.79241 0.68564 0.84700
 C3400 C 0.81022 0.66821 0.83899
 C3401 C 0.74796 0.64483 0.88032
 C3402 C 0.74487 0.61951 0.88609
 C3403 C 0.76301 0.60192 0.87845
 C3404 C 0.78382 0.60980 0.86494
 C3405 C 0.75980 0.57661 0.88406
 C3406 C 0.73845 0.56867 0.89643
 C3407 C 0.72003 0.58589 0.90363
 C3408 C 0.72360 0.61139 0.89883
 H3409 H 0.82110 0.62950 0.83886
 H3410 H 0.75824 0.69176 0.86657
 H3411 H 0.79450 0.70521 0.84251
 H3412 H 0.73410 0.65836 0.88618
 H3413 H 0.79761 0.59626 0.85896
 H3414 H 0.77356 0.56290 0.87845
 H3415 H 0.73611 0.54895 0.90012
 H3416 H 0.70933 0.62474 0.90410
 C3417 C 1.31302 0.85178 1.13785
 C3418 C 1.29130 0.86442 1.13053
 C3419 C 1.27447 0.87368 1.14817
 C3420 C 1.27988 0.87042 1.17282
 C3421 C 1.30144 0.85757 1.17993
 C3422 C 1.31809 0.84790 1.16256
 C3423 C 1.25233 0.88563 1.14089
 C3424 C 1.24668 0.88817 1.11619
 C3425 C 1.26368 0.87910 1.09859
 C3426 C 1.28593 0.86744 1.10586
 C3427 C 1.25794 0.88146 1.07395
 C3428 C 1.23537 0.89226 1.06678
 C3429 C 1.21813 0.90104 1.08406
 C3430 C 1.22409 0.89920 1.10880
 H3431 H 1.32586 0.84455 1.12433
 H3432 H 1.26721 0.87739 1.18659
 H3433 H 1.30484 0.85464 1.19905
 H3434 H 1.23933 0.89257 1.15442
 H3435 H 1.29884 0.86033 1.09233
 H3436 H 1.27079 0.87471 1.06023
 H3437 H 1.23137 0.89378 1.04763
 H3438 H 1.21083 0.90567 1.12230
 C3439 C 1.31153 0.36082 0.63290
 C3440 C 1.28710 0.36845 0.62745
 C3441 C 1.27010 0.37381 0.64648
 C3442 C 1.27773 0.37126 0.67057
 C3443 C 1.30205 0.36376 0.67580
 C3444 C 1.31916 0.35861 0.65707
 C3445 C 1.24583 0.38184 0.64118
 C3446 C 1.23829 0.38467 0.61709
 C3447 C 1.25516 0.37914 0.59802
 C3448 C 1.27947 0.37105 0.60333
 C3449 C 1.24744 0.38189 0.57396
 C3450 C 1.22325 0.39009 0.56882
 C3451 C 1.20641 0.39576 0.58766
 C3452 C 1.21408 0.39299 0.61177
 H3453 H 1.32478 0.35703 0.61845
 H3454 H 1.26494 0.37522 0.68536
 H3455 H 1.30759 0.36199 0.69455
 H3456 H 1.23286 0.38603 0.65580
 H3457 H 1.29245 0.36692 0.58871
 H3458 H 1.26010 0.37777 0.55912
 H3459 H 1.21778 0.39232 0.55009
 H3460 H 1.20110 0.39702 0.62639
 C3461 C 0.80750 0.87000 0.65231
 C3462 C 0.78919 0.88197 0.63813
 C3463 C 0.79525 0.89037 0.61442
 C3464 C 0.81962 0.88723 0.60555
 C3465 C 0.83749 0.87481 0.61954
 C3466 C 0.83148 0.86574 0.64278
 C3467 C 0.77670 0.90106 0.59970
 C3468 C 0.75208 0.90330 0.60827
 C3469 C 0.74615 0.89529 0.63213
 C3470 C 0.76472 0.88475 0.64690
 C3471 C 0.72164 0.89782 0.64081
 C3472 C 0.70320 0.90827 0.62610
 C3473 C 0.70880 0.91613 0.60233
 C3474 C 0.73326 0.91345 0.59340
 H3475 H 0.80275 0.86255 0.67007
 H3476 H 0.82463 0.89356 0.58747
 H3477 H 0.85586 0.87138 0.61193
 H3478 H 0.78135 0.90727 0.58146
 H3479 H 0.76003 0.87835 0.66507
 H3480 H 0.71675 0.89182 0.65903
 H3481 H 0.68442 0.91023 0.63326
 H3482 H 0.73768 0.91972 0.57515
 C3483 C 0.82498 0.36858 1.14265
 C3484 C 0.80464 0.37578 1.12823
 C3485 C 0.80889 0.38594 1.10481
 C3486 C 0.83343 0.38861 1.09621
 C3487 C 0.85350 0.38076 1.11044
 C3488 C 0.84944 0.37071 1.13367
 C3489 C 0.78857 0.39294 1.09026
 C3490 C 0.76404 0.38975 1.09875
 C3491 C 0.75985 0.37932 1.12209
 C3492 C 0.78014 0.37245 1.13666
 C3493 C 0.73539 0.37628 1.13068
 C3494 C 0.71526 0.38422 1.11665
 C3495 C 0.71919 0.39499 1.09367
 C3496 C 0.74359 0.39733 1.08456
 H3497 H 0.82185 0.36024 1.16037
 H3498 H 0.83707 0.39624 1.07829
 H3499 H 0.87229 0.38214 1.10324
 H3500 H 0.79186 0.40086 1.07237
 H3501 H 0.77686 0.36454 1.15455
 H3502 H 0.73184 0.36831 1.14848
 H3503 H 0.69653 0.38254 1.12397
 H3504 H 0.74663 0.40601 1.06697
 C3505 C 0.68352 1.14077 1.13499
 C3506 C 0.70491 1.12820 1.12663
 C3507 C 0.70532 1.10186 1.12605
 C3508 C 0.68425 1.08857 1.13381
 C3509 C 0.66308 1.10122 1.14224
 C3510 C 0.66245 1.12742 1.14297
 C3511 C 0.72677 1.08925 1.11784
 C3512 C 0.74785 1.10266 1.11020
 C3513 C 0.74739 1.12901 1.11081
 C3514 C 0.72597 1.14159 1.11903
 C3515 C 0.76837 1.14242 1.10311
 C3516 C 0.78954 1.12990 1.09462
 C3517 C 0.79022 1.10373 1.09372
 C3518 C 0.76934 1.09018 1.10179
 H3519 H 0.68345 1.16093 1.13577
 H3520 H 0.68419 1.06838 1.13348
 H3521 H 0.64709 1.09050 1.14818
 H3522 H 0.72705 1.06904 1.11739
 H3523 H 0.72569 1.16180 1.11948
 H3524 H 0.76837 1.16260 1.10355
 H3525 H 0.80553 1.14073 1.08884
 H3526 H 0.76965 1.07000 1.10102
 C3527 C 0.69035 0.65397 0.62805
 C3528 C 0.70975 0.64299 0.61467
 C3529 C 0.70933 0.61709 0.61012
 C3530 C 0.68923 0.60277 0.61854
 C3531 C 0.67011 0.61384 0.63202
 C3532 C 0.67066 0.63940 0.63707
 C3533 C 0.72934 0.60581 0.59791
 C3534 C 0.74998 0.61998 0.59063
 C3535 C 0.75017 0.64596 0.59467
 C3536 C 0.72993 0.65734 0.60649
 C3537 C 0.77096 0.65998 0.58748
 C3538 C 0.79178 0.64822 0.57724
 C3539 C 0.79206 0.62230 0.57391
 C3540 C 0.77083 0.60839 0.58011
 H3541 H 0.69097 0.67363 0.63227
 H3542 H 0.68859 0.58293 0.61518
 H3543 H 0.65500 0.60243 0.63889
 H3544 H 0.72920 0.58589 0.59475
 H3545 H 0.73022 0.67721 0.60993
 H3546 H 0.77140 0.67991 0.59039
 H3547 H 0.80802 0.65929 0.57275
 H3548 H 0.77078 0.58843 0.57726
 C3549 C 0.15960 1.10363 0.62499
 C3550 C 0.18422 1.09918 0.61716
 C3551 C 0.20029 1.11954 0.61254
 C3552 C 0.19157 1.14391 0.61594
 C3553 C 0.16706 1.14816 0.62349
 C3554 C 0.15082 1.12814 0.62787
 C3555 C 0.22475 1.11528 0.60442
 C3556 C 0.23341 1.09092 0.60071
 C3557 C 0.21746 1.07052 0.60536
 C3558 C 0.19297 1.07477 0.61360
 C3559 C 0.22631 1.04619 0.60167
 C3560 C 0.25074 1.04213 0.59354
 C3561 C 0.26673 1.06230 0.58888
 C3562 C 0.25787 1.08668 0.59246
 H3563 H 0.14706 1.08820 0.62833
 H3564 H 0.20364 1.15970 0.61258
 H3565 H 0.16067 1.16717 0.62590
 H3566 H 0.23700 1.13093 0.60088
 H3567 H 0.18071 1.05912 0.61711
 H3568 H 0.21436 1.03032 0.60509
 H3569 H 0.25711 1.02317 0.59072
 H3570 H 0.27017 1.10234 0.58925
 C3571 C 0.18749 0.63956 1.13221
 C3572 C 0.20846 0.62635 1.12371
 C3573 C 0.20621 0.60097 1.11741
 C3574 C 0.18297 0.58933 1.11955
 C3575 C 0.16233 0.60248 1.12846
 C3576 C 0.16444 0.62757 1.13504
 C3577 C 0.22727 0.58757 1.10942
 C3578 C 0.25059 0.59918 1.10772
 C3579 C 0.25278 0.62457 1.11402
 C3580 C 0.23174 0.63796 1.12196
 C3581 C 0.27599 0.63626 1.11211
 C3582 C 0.29674 0.62313 1.10354
 C3583 C 0.29477 0.59800 1.09700
 C3584 C 0.27172 0.58596 1.09949
 H3585 H 0.18930 0.65879 1.13766
 H3586 H 0.18086 0.56992 1.11482
 H3587 H 0.14470 0.59299 1.13068
 H3588 H 0.22551 0.56813 1.10459
 H3589 H 0.23350 0.65740 1.12682
 H3590 H 0.27802 0.65567 1.11689
 H3591 H 0.31441 0.63267 1.10176
 H3592 H 0.27010 0.56664 1.09421
 C3593 C 0.68991 0.86147 0.86956
 C3594 C 0.71148 0.87395 0.87669
 C3595 C 0.72885 0.88216 0.85894
 C3596 C 0.72403 0.87829 0.83436
 C3597 C 0.70228 0.86625 0.82743
 C3598 C 0.68524 0.85759 0.84496
 C3599 C 0.75078 0.89402 0.86604
 C3600 C 0.75544 0.89799 0.89064
 C3601 C 0.73775 0.89039 0.90832
 C3602 C 0.71593 0.87833 0.90124
 C3603 C 0.74232 0.89472 0.93284
 C3604 C 0.76449 0.90592 0.93987
 C3605 C 0.78259 0.91286 0.92253
 C3606 C 0.77773 0.90913 0.89786
 H3607 H 0.67656 0.85498 0.88302
 H3608 H 0.73706 0.88454 0.82052
 H3609 H 0.69884 0.86332 0.80839
 H3610 H 0.76424 0.90002 0.85246
 H3611 H 0.70251 0.87223 0.91483
 H3612 H 0.72887 0.88924 0.94661
 H3613 H 0.76756 0.90899 0.95895
 H3614 H 0.79161 0.91410 0.88431
 C3615 C 0.68710 0.37752 0.35351
 C3616 C 0.70664 0.38823 0.36645
 C3617 C 0.70542 0.38896 0.39204
 C3618 C 0.68466 0.37896 0.40421
 C3619 C 0.66545 0.36807 0.39118
 C3620 C 0.66652 0.36723 0.36579
 C3621 C 0.72509 0.39938 0.40504
 C3622 C 0.74612 0.40876 0.39279
 C3623 C 0.74731 0.40793 0.36722
 C3624 C 0.72752 0.39783 0.35422
 C3625 C 0.76843 0.41699 0.35503
 C3626 C 0.78829 0.42665 0.36800
 C3627 C 0.78739 0.42771 0.39344
 C3628 C 0.76612 0.41873 0.40572
 H3629 H 0.68809 0.37661 0.33393
 H3630 H 0.68341 0.37933 0.42379
 H3631 H 0.64967 0.36022 0.40087
 H3632 H 0.72416 0.39991 0.42465
 H3633 H 0.72850 0.39718 0.33460
 H3634 H 0.76972 0.41635 0.33545
 H3635 H 0.80462 0.43290 0.35806
 H3636 H 0.76508 0.41959 0.42530
 C3637 C 0.18051 0.85646 0.37149
 C3638 C 0.20146 0.86862 0.38054
 C3639 C 0.20028 0.89445 0.38526
 C3640 C 0.17801 0.90761 0.38106
 C3641 C 0.15725 0.89537 0.37194
 C3642 C 0.15830 0.86975 0.36696
 C3643 C 0.22141 0.90673 0.39383
 C3644 C 0.24372 0.89349 0.39775
 C3645 C 0.24477 0.86760 0.39321
 C3646 C 0.22368 0.85535 0.38462
 C3647 C 0.26696 0.85432 0.39732
 C3648 C 0.28790 0.86652 0.40597
 C3649 C 0.28713 0.89222 0.41053
 C3650 C 0.26499 0.90567 0.40623
 H3651 H 0.18169 0.83681 0.36730
 H3652 H 0.17672 0.92740 0.38459
 H3653 H 0.14032 0.90592 0.36854
 H3654 H 0.22053 0.92657 0.39736
 H3655 H 0.22457 0.83553 0.38103
 H3656 H 0.26810 0.83450 0.39390
 H3657 H 0.30487 0.85586 0.40893
 H3658 H 0.26422 0.92547 0.40990
 C3659 C 0.18304 0.37427 0.85674
 C3660 C 0.20389 0.38070 0.87056
 C3661 C 0.20175 0.38205 0.89607
 C3662 C 0.17880 0.37679 0.90730
 C3663 C 0.15825 0.37015 0.89344
 C3664 C 0.16014 0.36888 0.86810
 C3665 C 0.22254 0.38858 0.90992
 C3666 C 0.24549 0.39380 0.89860
 C3667 C 0.24762 0.39221 0.87309
 C3668 C 0.22687 0.38565 0.85928
 C3669 C 0.27044 0.39752 0.86173
 C3670 C 0.29079 0.40500 0.87536
 C3671 C 0.28885 0.40718 0.90065
 C3672 C 0.26624 0.40106 0.91227
 H3673 H 0.18466 0.37295 0.83722
 H3674 H 0.17678 0.37768 0.92681
 H3675 H 0.14075 0.36597 0.90248
 H3676 H 0.22081 0.38973 0.92946
 H3677 H 0.22858 0.38455 0.83973
 H3678 H 0.27245 0.39628 0.84224
 H3679 H 0.30812 0.40938 0.86607
 H3680 H 0.26458 0.40283 0.93175
   
