data_POSCAR
  _audit_creation_date              2014-09-24
  _audit_creation_method            'ToBaCCo'
  _symmetry_space_group_name_H-M    'P1'
  _symmetry_Int_Tables_number       1
  _symmetry_cell_setting            triclinic
  loop_
  _symmetry_equiv_pos_as_xyz
 x,y,z
_cell_length_a 80.3759
_cell_length_b 80.3672
_cell_length_c 80.4587
_cell_angle_alpha 90.011300
_cell_angle_beta 90.010400
_cell_angle_gamma 90.012300
loop_
  _atom_site_label
  _atom_site_type_symbol
  _atom_site_fract_x
  _atom_site_fract_y
  _atom_site_fract_z
C1 C 0.35769 0.33699 0.33729
 N2 N 0.35071 0.35080 0.33048
 C3 C 0.33693 0.35781 0.33731
 N4 N 0.33011 0.35082 0.35109
 C5 C 0.33692 0.33701 0.35807
 N6 N 0.35070 0.33017 0.35107
 C7 C 0.35790 0.83697 -0.16330
 N8 N 0.35082 0.85074 -0.17011
 C9 C 0.33701 0.85775 -0.16331
 N10 N 0.33027 0.85076 -0.14947
 C11 C 0.33715 0.83701 -0.14246
 N12 N 0.35094 0.83020 -0.14946
 C13 C 0.85750 0.33726 -0.16321
 N14 N 0.85053 0.33046 -0.14941
 C15 C 0.83675 0.33730 -0.14243
 N16 N 0.82991 0.35108 -0.14943
 C17 C 0.83669 0.35808 -0.16326
 N18 N 0.85050 0.35104 -0.17004
 C19 C 0.85803 0.83664 0.33695
 N20 N 0.85105 0.82989 0.35079
 C21 C 0.83728 0.83674 0.35780
 N22 N 0.83044 0.85052 0.35080
 C23 C 0.83723 0.85747 0.33699
 N24 N 0.85100 0.85045 0.33015
 C25 C 0.64223 0.66299 0.33717
 N26 N 0.64922 0.66978 0.35098
 C27 C 0.66300 0.66292 0.35797
 N28 N 0.66981 0.64913 0.35096
 C29 C 0.66299 0.64217 0.33716
 N30 N 0.64921 0.64920 0.33033
 C31 C 0.64207 0.16309 -0.16344
 N32 N 0.64915 0.14931 -0.17025
 C33 C 0.66296 0.14231 -0.16345
 N34 N 0.66970 0.14931 -0.14961
 C35 C 0.66283 0.16306 -0.14260
 N36 N 0.64904 0.16987 -0.14960
 C37 C 0.14254 0.66272 -0.16312
 N38 N 0.14953 0.66953 -0.14933
 C39 C 0.16332 0.66270 -0.14235
 N40 N 0.17014 0.64891 -0.14935
 C41 C 0.16335 0.64191 -0.16317
 N42 N 0.14954 0.64894 -0.16995
 C43 C 0.14213 0.16308 0.33663
 N44 N 0.14919 0.14929 0.32982
 C45 C 0.16298 0.14225 0.33663
 N46 N 0.16971 0.14922 0.35049
 C47 C 0.16285 0.16298 0.35751
 N48 N 0.14909 0.16982 0.35049
 C49 C 0.64220 0.33691 0.66279
 N50 N 0.64919 0.33010 0.64900
 C51 C 0.66298 0.33694 0.64201
 N52 N 0.66980 0.35074 0.64901
 C53 C 0.66298 0.35772 0.66280
 N54 N 0.64919 0.35071 0.66962
 C55 C 0.64207 0.83701 1.16329
 N56 N 0.64904 0.83024 1.14946
 C57 C 0.66283 0.83706 1.14246
 N58 N 0.66968 0.85084 1.14945
 C59 C 0.66294 0.85784 1.16328
 N60 N 0.64913 0.85082 1.17009
 C61 C 0.14202 0.33665 1.16321
 N62 N 0.14903 0.32988 1.14939
 C63 C 0.16279 0.33675 1.14237
 N64 N 0.16959 0.35056 1.14934
 C65 C 0.16278 0.35752 1.16314
 N66 N 0.14902 0.35049 1.16998
 C67 C 0.14211 0.83686 0.66335
 N68 N 0.14908 0.83011 0.64950
 C69 C 0.16285 0.83695 0.64250
 N70 N 0.16972 0.85071 0.64952
 C71 C 0.16298 0.85768 0.66337
 N72 N 0.14918 0.85064 0.67017
 C73 C 0.35772 0.66301 0.66296
 N74 N 0.35073 0.66982 0.64916
 C75 C 0.33694 0.66298 0.64217
 N76 N 0.33012 0.64918 0.64915
 C77 C 0.33694 0.64220 0.66295
 N78 N 0.35073 0.64921 0.66977
 C79 C 0.35776 0.16307 1.16337
 N80 N 0.35070 0.14929 1.17019
 C81 C 0.33689 0.14225 1.16340
 N82 N 0.33015 0.14923 1.14955
 C83 C 0.33700 0.16298 1.14253
 N84 N 0.35079 0.16982 1.14953
 C85 C 0.85748 0.66268 1.16312
 N86 N 0.85050 0.66949 1.14933
 C87 C 0.83670 0.66266 1.14235
 N88 N 0.82986 0.64888 1.14936
 C89 C 0.83665 0.64187 1.16317
 N90 N 0.85047 0.64889 1.16995
 C91 C 0.85777 0.16305 0.66320
 N92 N 0.85070 0.14927 0.67002
 C93 C 0.83689 0.14224 0.66322
 N94 N 0.83015 0.14921 0.64937
 C95 C 0.83702 0.16296 0.64235
 N96 N 0.85080 0.16979 0.64935
 C97 C 0.33692 0.35759 0.66318
 N98 N 0.33010 0.35060 0.64939
 C99 C 0.33692 0.33680 0.64240
 N100 N 0.35072 0.32998 0.64939
 C101 C 0.35771 0.33680 0.66318
 N102 N 0.35071 0.35060 0.67000
 C103 C 0.33714 0.85841 0.16282
 N104 N 0.33031 0.85141 0.14904
 C105 C 0.33714 0.83762 0.14205
 N106 N 0.35095 0.83081 0.14902
 C107 C 0.35795 0.83764 0.16280
 N108 N 0.35095 0.85143 0.16962
 C109 C 0.83739 0.35774 0.16275
 N110 N 0.83055 0.35075 0.14896
 C111 C 0.83736 0.33695 0.14198
 N112 N 0.85115 0.33011 0.14897
 C113 C 0.85815 0.33693 0.16275
 N114 N 0.85117 0.35073 0.16957
 C115 C 0.83724 0.85833 0.66305
 N116 N 0.85104 0.85136 0.66987
 C117 C 0.85804 0.83756 0.66306
 N118 N 0.85104 0.83072 0.64928
 C119 C 0.83724 0.83753 0.64230
 N120 N 0.83041 0.85132 0.64928
 C121 C 0.66290 0.64232 0.66325
 N122 N 0.66971 0.64930 0.64945
 C123 C 0.66288 0.66310 0.64247
 N124 N 0.64910 0.66993 0.64947
 C125 C 0.64212 0.66311 0.66326
 N126 N 0.64912 0.64932 0.67008
 C127 C 0.66271 0.14182 0.16261
 N128 N 0.66954 0.14882 0.14884
 C129 C 0.66272 0.16262 0.14185
 N130 N 0.64892 0.16944 0.14883
 C131 C 0.64191 0.16260 0.16260
 N132 N 0.64890 0.14881 0.16941
 C133 C 0.16275 0.64226 0.16279
 N134 N 0.14896 0.64926 0.16960
 C135 C 0.14198 0.66306 0.16279
 N136 N 0.14897 0.66989 0.14901
 C137 C 0.16276 0.66305 0.14202
 N138 N 0.16958 0.64925 0.14901
 C139 C 0.16267 0.14151 0.66295
 N140 N 0.16950 0.14850 0.64917
 C141 C 0.16266 0.16229 0.64218
 N142 N 0.14886 0.16910 0.64915
 C143 C 0.14187 0.16228 0.66293
 N144 N 0.14887 0.14849 0.66976
 C145 C 0.33711 0.64247 0.33698
 N146 N 0.33030 0.64946 0.35077
 C147 C 0.33712 0.66326 0.35776
 N148 N 0.35091 0.67010 0.35076
 C149 C 0.35789 0.66328 0.33697
 N150 N 0.35090 0.64948 0.33016
 C151 C 0.33710 0.14162 0.83726
 N152 N 0.35091 0.14860 0.83045
 C153 C 0.35790 0.16240 0.83727
 N154 N 0.35090 0.16924 0.85104
 C155 C 0.33709 0.16242 0.85802
 N156 N 0.33027 0.14862 0.85103
 C157 C 0.83732 0.64226 0.83727
 N158 N 0.83050 0.64926 0.85105
 C159 C 0.83731 0.66307 0.85802
 N160 N 0.85109 0.66991 0.85102
 C161 C 0.85808 0.66308 0.83724
 N162 N 0.85110 0.64927 0.83044
 C163 C 0.83727 0.14181 0.33690
 N164 N 0.83045 0.14880 0.35069
 C165 C 0.83729 0.16258 0.35769
 N166 N 0.85110 0.16940 0.35072
 C167 C 0.85809 0.16258 0.33693
 N168 N 0.85108 0.14879 0.33010
 C169 C 0.66296 0.35763 0.33684
 N170 N 0.64917 0.35064 0.33001
 C171 C 0.64216 0.33685 0.33683
 N172 N 0.64915 0.33003 0.35062
 C173 C 0.66295 0.33685 0.35761
 N174 N 0.66978 0.35064 0.35062
 C175 C 0.66293 0.85843 0.83730
 N176 N 0.64911 0.85144 0.83050
 C177 C 0.64212 0.83765 0.83732
 N178 N 0.64913 0.83082 0.85109
 C179 C 0.66294 0.83764 0.85806
 N180 N 0.66977 0.85143 0.85107
 C181 C 0.16261 0.35765 0.83723
 N182 N 0.14883 0.35065 0.83038
 C183 C 0.14184 0.33683 0.83716
 N184 N 0.14883 0.32999 0.85095
 C185 C 0.16261 0.33683 0.85796
 N186 N 0.16943 0.35064 0.85101
 C187 C 0.16276 0.85833 0.33711
 N188 N 0.14896 0.85133 0.33030
 C189 C 0.14198 0.83753 0.33712
 N190 N 0.14897 0.83071 0.35091
 C191 C 0.16277 0.83755 0.35789
 N192 N 0.16959 0.85134 0.35090
 O193 O 0.22879 0.98442 0.25173
 O194 O 0.25170 1.01686 0.22890
 O195 O 0.25168 0.98443 0.22888
 O196 O 0.22878 1.01685 0.25172
 O197 O 0.24817 1.01686 0.27112
 O198 O 0.27107 0.98442 0.24828
 O199 O 0.27108 1.01686 0.24831
 O200 O 0.24818 0.98442 0.27113
 Cu201 Cu 0.23830 1.00064 0.23836
 Cu202 Cu 0.26157 1.00064 0.26165
 C203 C 0.23459 0.97882 0.26531
 C204 C 0.26529 1.02246 0.23472
 C205 C 0.26527 0.97883 0.23469
 C206 C 0.23458 1.02245 0.26531
 O207 O 0.24811 0.51623 0.77133
 O208 O 0.27094 0.48375 0.74849
 O209 O 0.27096 0.51618 0.74844
 O210 O 0.24807 0.48379 0.77135
 O211 O 0.22865 0.48378 0.75198
 O212 O 0.25154 0.51617 0.72908
 O213 O 0.25152 0.48374 0.72912
 O214 O 0.22869 0.51622 0.75196
 Cu215 Cu 0.26147 0.49999 0.76184
 Cu216 Cu 0.23815 0.49998 0.73860
 C217 C 0.23452 0.52183 0.76553
 C218 C 0.26511 0.47814 0.73492
 C219 C 0.26514 0.52177 0.73486
 C220 C 0.23447 0.47819 0.76556
 O221 O 0.75165 -0.01661 0.27090
 O222 O 0.72876 0.01580 0.24804
 O223 O 0.72874 -0.01663 0.24807
 O224 O 0.75165 0.01582 0.27088
 O225 O 0.77104 0.01580 0.25148
 O226 O 0.74812 -0.01666 0.22867
 O227 O 0.74814 0.01578 0.22863
 O228 O 0.77103 -0.01663 0.25150
 Cu229 Cu 0.73826 -0.00040 0.26141
 Cu230 Cu 0.76152 -0.00043 0.23813
 C231 C 0.76524 -0.02222 0.26509
 C232 C 0.73455 0.02139 0.23445
 C233 C 0.73453 -0.02225 0.23449
 C234 C 0.76524 0.02141 0.26506
 O235 O 0.74838 0.48375 0.72901
 O236 O 0.77127 0.51614 0.75193
 O237 O 0.77124 0.48370 0.75189
 O238 O 0.74838 0.51618 0.72908
 O239 O 0.72898 0.51615 0.74845
 O240 O 0.75184 0.48369 0.77126
 O241 O 0.75186 0.51612 0.77130
 O242 O 0.72897 0.48372 0.74839
 Cu243 Cu 0.76176 0.49995 0.73854
 Cu244 Cu 0.73847 0.49992 0.76179
 C245 C 0.73479 0.47814 0.73480
 C246 C 0.76546 0.52173 0.76551
 C247 C 0.76543 0.47809 0.76546
 C248 C 0.73479 0.52177 0.73488
 O249 O 0.25160 0.48388 0.27120
 O250 O 0.22873 0.51627 0.24828
 O251 O 0.22872 0.48383 0.24834
 O252 O 0.25161 0.51631 0.27114
 O253 O 0.27102 0.51627 0.25176
 O254 O 0.24813 0.48379 0.22896
 O255 O 0.24814 0.51622 0.22890
 O256 O 0.27100 0.48383 0.25183
 Cu257 Cu 0.23822 0.50008 0.26168
 Cu258 Cu 0.26152 0.50002 0.23842
 C259 C 0.26519 0.47826 0.26541
 C260 C 0.23455 0.52184 0.23469
 C261 C 0.23453 0.47820 0.23477
 C262 C 0.26521 0.52190 0.26533
 O263 O 0.74825 1.01694 0.77112
 O264 O 0.77116 0.98449 0.74832
 O265 O 0.77115 1.01692 0.74828
 O266 O 0.74828 0.98450 0.77117
 O267 O 0.72889 0.98445 0.75178
 O268 O 0.75175 1.01688 0.72889
 O269 O 0.75176 0.98444 0.72893
 O270 O 0.72885 1.01689 0.75173
 Cu271 Cu 0.76165 1.00072 0.76167
 Cu272 Cu 0.73837 1.00066 0.73839
 C273 C 0.73465 1.02251 0.76530
 C274 C 0.76536 0.97886 0.73474
 C275 C 0.76534 1.02250 0.73470
 C276 C 0.73470 0.97888 0.76537
 O277 O 0.75184 0.51623 0.22871
 O278 O 0.72901 0.48376 0.25155
 O279 O 0.72898 0.51619 0.25159
 O280 O 0.75189 0.48380 0.22870
 O281 O 0.77131 0.48382 0.24808
 O282 O 0.74840 0.51620 0.27096
 O283 O 0.74842 0.48377 0.27093
 O284 O 0.77125 0.51626 0.24808
 Cu285 Cu 0.73849 0.49999 0.23819
 Cu286 Cu 0.76179 0.50001 0.26145
 C287 C 0.76542 0.52185 0.23451
 C288 C 0.73483 0.47816 0.26512
 C289 C 0.73480 0.52179 0.26517
 C290 C 0.76550 0.47821 0.23450
 O291 O 0.27107 0.01552 0.75182
 O292 O 0.24818 -0.01693 0.72897
 O293 O 0.24818 0.01551 0.72897
 O294 O 0.27109 -0.01691 0.75179
 O295 O 0.25171 -0.01693 0.77119
 O296 O 0.22879 0.01550 0.74837
 O297 O 0.22879 -0.01693 0.74837
 O298 O 0.25168 0.01550 0.77122
 Cu299 Cu 0.26157 -0.00070 0.73844
 Cu300 Cu 0.23830 -0.00072 0.76173
 C301 C 0.26527 0.02111 0.76540
 C302 C 0.23459 -0.02253 0.73478
 C303 C 0.23459 0.02110 0.73478
 C304 C 0.26530 -0.02252 0.76537
 O305 O 0.22876 0.25143 1.01630
 O306 O 0.25164 0.22855 0.98391
 O307 O 0.25167 0.22859 1.01631
 O308 O 0.22874 0.25140 0.98390
 O309 O 0.24811 0.27084 0.98388
 O310 O 0.27105 0.24803 1.01628
 O311 O 0.27102 0.24798 0.98388
 O312 O 0.24814 0.27087 1.01627
 Cu313 Cu 0.23826 0.23805 1.00011
 Cu314 Cu 0.26152 0.26137 1.00007
 C315 C 0.23455 0.26504 1.02188
 C316 C 0.26522 0.23437 0.97830
 C317 C 0.26526 0.23443 1.02189
 C318 C 0.23452 0.26500 0.97829
 O319 O 0.24816 0.77141 0.48384
 O320 O 0.27100 0.74847 0.51622
 O321 O 0.27104 0.74854 0.48382
 O322 O 0.24812 0.77134 0.51624
 O323 O 0.22872 0.75193 0.51617
 O324 O 0.25164 0.72912 0.48375
 O325 O 0.25161 0.72906 0.51615
 O326 O 0.22876 0.75200 0.48378
 Cu327 Cu 0.26152 0.76188 0.50004
 Cu328 Cu 0.23824 0.73858 0.49996
 C329 C 0.23457 0.76561 0.47822
 C330 C 0.26519 0.73486 0.52178
 C331 C 0.26524 0.73495 0.47819
 C332 C 0.23452 0.76551 0.52181
 O333 O 0.27134 0.75182 -0.01622
 O334 O 0.24841 0.72898 0.01617
 O335 O 0.24849 0.72889 -0.01622
 O336 O 0.27127 0.75189 0.01617
 O337 O 0.25184 0.77127 0.01608
 O338 O 0.22907 0.74827 -0.01632
 O339 O 0.22898 0.74836 0.01608
 O340 O 0.25191 0.77119 -0.01631
 Cu341 Cu 0.26182 0.73846 -0.00002
 Cu342 Cu 0.23850 0.76171 -0.00012
 C343 C 0.26552 0.76539 -0.02186
 C344 C 0.23480 0.73479 0.02172
 C345 C 0.23491 0.73467 -0.02187
 C346 C 0.26543 0.76549 0.02172
 O347 O 0.27090 0.25148 0.48394
 O348 O 0.24803 0.22852 0.51629
 O349 O 0.24802 0.22860 0.48389
 O350 O 0.27090 0.25143 0.51634
 O351 O 0.25149 0.27082 0.51638
 O352 O 0.22861 0.24799 0.48393
 O353 O 0.22863 0.24792 0.51633
 O354 O 0.25149 0.27088 0.48398
 Cu355 Cu 0.26141 0.23806 0.50011
 Cu356 Cu 0.23811 0.26135 0.50016
 C357 C 0.26508 0.26508 0.47837
 C358 C 0.23444 0.23432 0.52190
 C359 C 0.23442 0.23442 0.47831
 C360 C 0.26509 0.26501 0.52196
 O361 O 0.72873 0.75183 1.01627
 O362 O 0.75167 0.72901 0.98387
 O363 O 0.75157 0.72891 1.01627
 O364 O 0.72882 0.75191 0.98388
 O365 O 0.74825 0.77129 0.98399
 O366 O 0.77100 0.74829 1.01638
 O367 O 0.77110 0.74839 0.98399
 O368 O 0.74817 0.77121 1.01638
 Cu369 Cu 0.73825 0.73847 1.00006
 Cu370 Cu 0.76158 0.76174 1.00020
 C371 C 0.73455 0.76540 1.02192
 C372 C 0.76529 0.73481 0.97834
 C373 C 0.76516 0.73469 1.02192
 C374 C 0.73466 0.76552 0.97834
 O375 O 0.75187 0.22863 0.48365
 O376 O 0.72898 0.25153 0.51602
 O377 O 0.72898 0.25150 0.48363
 O378 O 0.75186 0.22866 0.51605
 O379 O 0.77126 0.24807 0.51604
 O380 O 0.74838 0.27091 0.48362
 O381 O 0.74838 0.27094 0.51602
 O382 O 0.77127 0.24804 0.48364
 Cu383 Cu 0.73848 0.23813 0.49984
 Cu384 Cu 0.76177 0.26144 0.49983
 C385 C 0.76546 0.23444 0.47805
 C386 C 0.73479 0.26513 0.52161
 C387 C 0.73479 0.26509 0.47803
 C388 C 0.76545 0.23448 0.52164
 O389 O 0.77096 0.25180 -0.01642
 O390 O 0.74814 0.22884 0.01597
 O391 O 0.74809 0.22890 -0.01643
 O392 O 0.77104 0.25171 0.01598
 O393 O 0.75164 0.27112 0.01606
 O394 O 0.72869 0.24831 -0.01635
 O395 O 0.72874 0.24825 0.01604
 O396 O 0.75156 0.27120 -0.01633
 Cu397 Cu 0.76150 0.23837 -0.00023
 Cu398 Cu 0.73822 0.26166 -0.00014
 C399 C 0.76514 0.26540 -0.02197
 C400 C 0.73456 0.23464 0.02160
 C401 C 0.73449 0.23472 -0.02199
 C402 C 0.76525 0.26529 0.02162
 O403 O 0.72899 0.74829 0.48401
 O404 O 0.75185 0.77123 0.51639
 O405 O 0.75190 0.77115 0.48399
 O406 O 0.72896 0.74836 0.51641
 O407 O 0.74835 0.72894 0.51647
 O408 O 0.77129 0.75173 0.48406
 O409 O 0.77124 0.75182 0.51646
 O410 O 0.74838 0.72887 0.48407
 Cu411 Cu 0.73849 0.76170 0.50019
 Cu412 Cu 0.76175 0.73839 0.50027
 C413 C 0.73480 0.73468 0.47845
 C414 C 0.76544 0.76543 0.52201
 C415 C 0.76549 0.76531 0.47842
 C416 C 0.73475 0.73477 0.52204
 O417 O 1.01663 0.27090 0.24816
 O418 O 0.98421 0.24801 0.27102
 O419 O 1.01664 0.24803 0.27102
 O420 O 0.98420 0.27088 0.24815
 O421 O 0.98421 0.25147 0.22877
 O422 O 1.01665 0.22862 0.25164
 O423 O 0.98422 0.22860 0.25164
 O424 O 1.01664 0.25149 0.22878
 Cu425 Cu 1.00042 0.26140 0.26153
 Cu426 Cu 1.00043 0.23810 0.23827
 C427 C 1.02223 0.26509 0.23458
 C428 C 0.97861 0.23441 0.26521
 C429 C 1.02225 0.23444 0.26522
 C430 C 0.97860 0.26506 0.23457
 O431 O 0.51632 0.27075 0.74832
 O432 O 0.48395 0.24786 0.77124
 O433 O 0.51638 0.24788 0.77117
 O434 O 0.48389 0.27074 0.74839
 O435 O 0.48385 0.25134 0.72900
 O436 O 0.51634 0.22847 0.75179
 O437 O 0.48391 0.22845 0.75185
 O438 O 0.51628 0.25135 0.72893
 Cu439 Cu 0.50014 0.26125 0.76172
 Cu440 Cu 0.50009 0.23796 0.73845
 C441 C 0.52189 0.26495 0.73473
 C442 C 0.47834 0.23426 0.76544
 C443 C 0.52197 0.23429 0.76536
 C444 C 0.47826 0.26493 0.73482
 O445 O 0.01581 0.25141 0.77097
 O446 O -0.01665 0.22857 0.74811
 O447 O 0.01578 0.22850 0.74814
 O448 O -0.01662 0.25149 0.77093
 O449 O -0.01655 0.27087 0.75152
 O450 O 0.01584 0.24788 0.72873
 O451 O -0.01659 0.24794 0.72870
 O452 O 0.01588 0.27079 0.75156
 Cu453 Cu -0.00042 0.23805 0.76148
 Cu454 Cu -0.00035 0.26131 0.73818
 C455 C 0.02145 0.26499 0.76515
 C456 C -0.02223 0.23437 0.73451
 C457 C 0.02141 0.23428 0.73455
 C458 C -0.02218 0.26509 0.76510
 O459 O 0.48350 0.27086 0.25165
 O460 O 0.51587 0.24798 0.22870
 O461 O 0.48343 0.24799 0.22877
 O462 O 0.51593 0.27085 0.25158
 O463 O 0.51597 0.25143 0.27094
 O464 O 0.48347 0.22858 0.24814
 O465 O 0.51590 0.22856 0.24806
 O466 O 0.48354 0.25144 0.27101
 Cu467 Cu 0.49968 0.26137 0.23823
 Cu468 Cu 0.49972 0.23806 0.26148
 C469 C 0.47793 0.26504 0.26524
 C470 C 0.52147 0.23438 0.23448
 C471 C 0.47784 0.23440 0.23457
 C472 C 0.52156 0.26503 0.26514
 O473 O 1.01658 0.77134 0.74826
 O474 O 0.98414 0.74849 0.77113
 O475 O 1.01656 0.74842 0.77108
 O476 O 0.98415 0.77140 0.74830
 O477 O 0.98409 0.75201 0.72889
 O478 O 1.01649 0.72904 0.75168
 O479 O 0.98406 0.72911 0.75172
 O480 O 1.01652 0.75195 0.72886
 Cu481 Cu 1.00037 0.76185 0.76164
 Cu482 Cu 1.00028 0.73859 0.73834
 C483 C 1.02216 0.76553 0.73467
 C484 C 0.97850 0.73492 0.76532
 C485 C 1.02213 0.73482 0.76526
 C486 C 0.97852 0.76561 0.73472
 O487 O 0.51646 0.77158 0.24818
 O488 O 0.48399 0.74874 0.27101
 O489 O 0.51641 0.74871 0.27104
 O490 O 0.48403 0.77162 0.24815
 O491 O 0.48402 0.75221 0.22877
 O492 O 0.51641 0.72930 0.25166
 O493 O 0.48398 0.72933 0.25163
 O494 O 0.51645 0.75217 0.22880
 Cu495 Cu 0.50023 0.76211 0.26154
 Cu496 Cu 0.50021 0.73881 0.23827
 C497 C 0.52207 0.76576 0.23461
 C498 C 0.47837 0.73515 0.26520
 C499 C 0.52200 0.73511 0.26525
 C500 C 0.47843 0.76581 0.23457
 O501 O 0.01598 0.75186 0.27122
 O502 O -0.01643 0.72890 0.24840
 O503 O 0.01600 0.72899 0.24834
 O504 O -0.01645 0.75177 0.27126
 O505 O -0.01653 0.77119 0.25189
 O506 O 0.01592 0.74840 0.22897
 O507 O -0.01651 0.74831 0.22902
 O508 O 0.01590 0.77127 0.25185
 Cu509 Cu -0.00022 0.73843 0.26175
 Cu510 Cu -0.00031 0.76174 0.23850
 C511 C 0.02154 0.76547 0.26542
 C512 C -0.02207 0.73470 0.23483
 C513 C 0.02156 0.73482 0.23476
 C514 C -0.02209 0.76535 0.26548
 O515 O 0.48359 0.77153 0.75194
 O516 O 0.51607 0.74865 0.72915
 O517 O 0.48364 0.74863 0.72909
 O518 O 0.51602 0.77155 0.75199
 O519 O 0.51601 0.75217 0.77138
 O520 O 0.48362 0.72924 0.74849
 O521 O 0.51604 0.72926 0.74855
 O522 O 0.48357 0.75214 0.77133
 Cu523 Cu 0.49983 0.76203 0.73860
 Cu524 Cu 0.49981 0.73876 0.76188
 C525 C 0.47797 0.76573 0.76551
 C526 C 0.52166 0.73506 0.73497
 C527 C 0.47803 0.73504 0.73490
 C528 C 0.52161 0.76576 0.76558
 C529 C 0.40019 0.31402 0.31434
 C530 C 0.39333 0.30719 0.32879
 C531 C 0.37961 0.31473 0.33636
 C532 C 0.37253 0.32923 0.32954
 C533 C 0.37963 0.33607 0.31507
 C534 C 0.39335 0.32850 0.30754
 C535 C 0.41400 0.30597 0.30629
 C536 C 0.42544 0.29913 0.29943
 C537 C 0.43895 0.29083 0.29111
 C538 C 0.44543 0.27603 0.29759
 C539 C 0.45822 0.26771 0.28926
 C540 C 0.46470 0.27409 0.27431
 C541 C 0.45819 0.28905 0.26798
 C542 C 0.44539 0.29735 0.27633
 H543 H 0.39852 0.29596 0.33415
 H544 H 0.37449 0.30912 0.34747
 H545 H 0.37452 0.34721 0.30948
 H546 H 0.39855 0.33388 0.29633
 H547 H 0.44051 0.27086 0.30901
 H548 H 0.46295 0.25622 0.29447
 H549 H 0.46289 0.29430 0.25651
 H550 H 0.44045 0.30879 0.27120
 C551 C 0.39989 0.81455 0.81423
 C552 C 0.39307 0.80774 0.82869
 C553 C 0.37929 0.81520 0.83623
 C554 C 0.37204 0.82965 0.82936
 C555 C 0.37918 0.83647 0.81484
 C556 C 0.39296 0.82895 0.80736
 C557 C 0.41377 0.80657 0.80623
 C558 C 0.42526 0.79975 0.79942
 C559 C 0.43882 0.79148 0.79118
 C560 C 0.44531 0.77671 0.79771
 C561 C 0.45817 0.76840 0.78945
 C562 C 0.46469 0.77477 0.77452
 C563 C 0.45817 0.78971 0.76813
 C564 C 0.44532 0.79799 0.77641
 H565 H 0.39835 0.79658 0.83410
 H566 H 0.37430 0.80952 0.84736
 H567 H 0.37409 0.84755 0.80912
 H568 H 0.39814 0.83432 0.79615
 H569 H 0.44036 0.77155 0.80912
 H570 H 0.46290 0.75694 0.79470
 H571 H 0.46290 0.79494 0.75666
 H572 H 0.44036 0.80941 0.77123
 C573 C -0.09998 0.31428 0.81390
 C574 C -0.10681 0.30749 0.82838
 C575 C -0.12054 0.31504 0.83592
 C576 C -0.12765 0.32950 0.82906
 C577 C -0.12057 0.33631 0.81456
 C578 C -0.10684 0.32873 0.80705
 C579 C -0.08615 0.30623 0.80588
 C580 C -0.07470 0.29936 0.79906
 C581 C -0.06119 0.29102 0.79079
 C582 C -0.05476 0.27622 0.79733
 C583 C -0.04195 0.26785 0.78906
 C584 C -0.03542 0.27418 0.77411
 C585 C -0.04188 0.28915 0.76772
 C586 C -0.05469 0.29749 0.77602
 H587 H -0.10160 0.29630 0.83377
 H588 H -0.12564 0.30946 0.84706
 H589 H -0.12570 0.34742 0.80893
 H590 H -0.10165 0.33408 0.79582
 H591 H -0.05972 0.27109 0.80875
 H592 H -0.03726 0.25637 0.79431
 H593 H -0.03714 0.29435 0.75625
 H594 H -0.05960 0.30893 0.77084
 C595 C -0.10007 0.81411 0.31444
 C596 C -0.10690 0.80731 0.32890
 C597 C -0.12065 0.81481 0.33645
 C598 C -0.12786 0.82929 0.32960
 C599 C -0.12071 0.83609 0.31509
 C600 C -0.10695 0.82854 0.30760
 C601 C -0.08621 0.80610 0.30643
 C602 C -0.07474 0.79928 0.29959
 C603 C -0.06119 0.79103 0.29130
 C604 C -0.05468 0.77625 0.29779
 C605 C -0.04184 0.76796 0.28948
 C606 C -0.03536 0.77436 0.27454
 C607 C -0.04191 0.78931 0.26819
 C608 C -0.05475 0.79757 0.27652
 H609 H -0.10166 0.79612 0.33430
 H610 H -0.12566 0.80913 0.34758
 H611 H -0.12576 0.84720 0.30938
 H612 H -0.10176 0.83390 0.29638
 H613 H -0.05960 0.77107 0.30920
 H614 H -0.03708 0.75649 0.29470
 H615 H -0.03721 0.79456 0.25672
 H616 H -0.05972 0.80899 0.27138
 C617 C 0.59975 0.68602 0.31424
 C618 C 0.60660 0.69282 0.32872
 C619 C 0.62032 0.68526 0.33628
 C620 C 0.62740 0.67077 0.32943
 C621 C 0.62031 0.66396 0.31494
 C622 C 0.60659 0.67155 0.30741
 C623 C 0.58594 0.69409 0.30621
 C624 C 0.57450 0.70095 0.29936
 C625 C 0.56100 0.70927 0.29106
 C626 C 0.55454 0.72407 0.29756
 C627 C 0.54174 0.73241 0.28925
 C628 C 0.53524 0.72604 0.27430
 C629 C 0.54173 0.71107 0.26794
 C630 C 0.55453 0.70276 0.27628
 H631 H 0.60141 0.70404 0.33410
 H632 H 0.62543 0.69085 0.34741
 H633 H 0.62541 0.65283 0.30932
 H634 H 0.60139 0.66620 0.29619
 H635 H 0.55948 0.72923 0.30898
 H636 H 0.53703 0.74390 0.29447
 H637 H 0.53701 0.70584 0.25647
 H638 H 0.55946 0.69132 0.27113
 C639 C 0.60008 0.18549 0.81407
 C640 C 0.60701 0.17108 0.80722
 C641 C 0.62079 0.16357 0.81470
 C642 C 0.62793 0.17040 0.82922
 C643 C 0.62068 0.18485 0.83608
 C644 C 0.60689 0.19231 0.82854
 C645 C 0.58620 0.19347 0.80607
 C646 C 0.57470 0.20028 0.79927
 C647 C 0.56113 0.20854 0.79102
 C648 C 0.55463 0.20202 0.77626
 C649 C 0.54177 0.21030 0.76798
 C650 C 0.53526 0.22525 0.77436
 C651 C 0.54179 0.23163 0.78929
 C652 C 0.55465 0.22332 0.79755
 H653 H 0.60182 0.16571 0.79600
 H654 H 0.62588 0.15249 0.80898
 H655 H 0.62568 0.19054 0.84721
 H656 H 0.60162 0.20348 0.83394
 H657 H 0.55958 0.19060 0.77108
 H658 H 0.53703 0.20506 0.75652
 H659 H 0.53707 0.24310 0.79454
 H660 H 0.55962 0.22849 0.80896
 C661 C 1.09999 0.68568 0.81401
 C662 C 1.10685 0.67123 0.80716
 C663 C 1.12060 0.66366 0.81467
 C664 C 1.12769 0.67048 0.82915
 C665 C 1.12058 0.68494 0.83602
 C666 C 1.10684 0.69248 0.82849
 C667 C 1.08616 0.69373 0.80600
 C668 C 1.07470 0.70059 0.79919
 C669 C 1.06117 0.70892 0.79093
 C670 C 1.05466 0.70244 0.77616
 C671 C 1.04184 0.71077 0.76787
 C672 C 1.03538 0.72574 0.77426
 C673 C 1.04192 0.73208 0.78921
 C674 C 1.05474 0.72372 0.79747
 H675 H 1.10166 0.66587 0.79594
 H676 H 1.12572 0.65255 0.80904
 H677 H 1.12569 0.69053 0.84716
 H678 H 1.10163 0.70368 0.83388
 H679 H 1.05957 0.69100 0.77098
 H680 H 1.03709 0.70556 0.75640
 H681 H 1.03723 0.74356 0.79446
 H682 H 1.05971 0.72886 0.80889
 C683 C 1.10022 0.18558 0.31410
 C684 C 1.10703 0.19237 0.32859
 C685 C 1.12078 0.18488 0.33614
 C686 C 1.12802 0.17042 0.32928
 C687 C 1.12089 0.16363 0.31474
 C688 C 1.10713 0.17117 0.30724
 C689 C 1.08636 0.19359 0.30609
 C690 C 1.07489 0.20041 0.29926
 C691 C 1.06135 0.20869 0.29098
 C692 C 1.05486 0.22348 0.29749
 C693 C 1.04202 0.23179 0.28920
 C694 C 1.03552 0.22540 0.27426
 C695 C 1.04203 0.21045 0.26790
 C696 C 1.05487 0.20216 0.27621
 H697 H 1.10177 0.20355 0.33399
 H698 H 1.12578 0.19055 0.34729
 H699 H 1.12597 0.15254 0.30902
 H700 H 1.10196 0.16582 0.29601
 H701 H 1.05980 0.22865 0.30890
 H702 H 1.03729 0.24326 0.29443
 H703 H 1.03731 0.20520 0.25643
 H704 H 1.05982 0.19074 0.27106
 C705 C 0.59968 0.31394 0.68570
 C706 C 0.60653 0.32842 0.69253
 C707 C 0.62026 0.33599 0.68500
 C708 C 0.62735 0.32915 0.67053
 C709 C 0.62026 0.31466 0.66369
 C710 C 0.60653 0.30712 0.67124
 C711 C 0.58586 0.30590 0.69374
 C712 C 0.57441 0.29905 0.70058
 C713 C 0.56090 0.29075 0.70889
 C714 C 0.55445 0.29726 0.72368
 C715 C 0.54165 0.28896 0.73202
 C716 C 0.53513 0.27400 0.72567
 C717 C 0.54160 0.26763 0.71071
 C718 C 0.55441 0.27596 0.70239
 H719 H 0.60133 0.33379 0.70373
 H720 H 0.62537 0.34712 0.69061
 H721 H 0.62538 0.30905 0.65257
 H722 H 0.60133 0.29590 0.66587
 H723 H 0.55941 0.30870 0.72883
 H724 H 0.53695 0.29420 0.74350
 H725 H 0.53687 0.25615 0.70549
 H726 H 0.55933 0.27080 0.69097
 C727 C 0.60012 0.81457 0.18579
 C728 C 0.60702 0.82899 0.19264
 C729 C 0.62080 0.83652 0.18515
 C730 C 0.62794 0.82969 0.17064
 C731 C 0.62071 0.81521 0.16380
 C732 C 0.60694 0.80774 0.17134
 C733 C 0.58625 0.80657 0.19380
 C734 C 0.57476 0.79976 0.20062
 C735 C 0.56121 0.79149 0.20889
 C736 C 0.55473 0.79802 0.22365
 C737 C 0.54188 0.78974 0.23196
 C738 C 0.53535 0.77479 0.22559
 C739 C 0.54186 0.76841 0.21065
 C740 C 0.55471 0.77671 0.20237
 H741 H 0.60184 0.83437 0.20384
 H742 H 0.62587 0.84762 0.19085
 H743 H 0.62572 0.80952 0.15267
 H744 H 0.60168 0.79655 0.16595
 H745 H 0.55969 0.80944 0.22882
 H746 H 0.53716 0.79499 0.24342
 H747 H 0.53712 0.75693 0.20541
 H748 H 0.55965 0.77154 0.19096
 C749 C 1.10015 0.31406 0.18572
 C750 C 1.10700 0.32852 0.19255
 C751 C 1.12075 0.33609 0.18506
 C752 C 1.12792 0.32927 0.17056
 C753 C 1.12075 0.31476 0.16373
 C754 C 1.10701 0.30724 0.17128
 C755 C 1.08631 0.30602 0.19374
 C756 C 1.07484 0.29918 0.20056
 C757 C 1.06131 0.29089 0.20884
 C758 C 1.05482 0.29740 0.22360
 C759 C 1.04200 0.28910 0.23192
 C760 C 1.03550 0.27414 0.22555
 C761 C 1.04201 0.26777 0.21061
 C762 C 1.05483 0.27609 0.20233
 H763 H 1.10179 0.33389 0.20375
 H764 H 1.12577 0.34722 0.19075
 H765 H 1.12579 0.30907 0.15262
 H766 H 1.10180 0.29603 0.16590
 H767 H 1.05977 0.30884 0.22876
 H768 H 1.03727 0.29434 0.24338
 H769 H 1.03729 0.25628 0.20538
 H770 H 1.05978 0.27093 0.19091
 C771 C 1.10017 0.81436 0.68583
 C772 C 1.10708 0.82877 0.69270
 C773 C 1.12085 0.83631 0.68522
 C774 C 1.12799 0.82951 0.67069
 C775 C 1.12075 0.81505 0.66382
 C776 C 1.10698 0.80757 0.67135
 C777 C 1.08631 0.80635 0.69383
 C778 C 1.07482 0.79953 0.70065
 C779 C 1.06127 0.79126 0.70892
 C780 C 1.05482 0.79777 0.72370
 C781 C 1.04198 0.78950 0.73201
 C782 C 1.03543 0.77456 0.72564
 C783 C 1.04191 0.76819 0.71068
 C784 C 1.05475 0.77649 0.70240
 H785 H 1.10190 0.83412 0.70392
 H786 H 1.12593 0.84740 0.69095
 H787 H 1.12575 0.80938 0.65268
 H788 H 1.10172 0.79639 0.66594
 H789 H 1.05979 0.80919 0.72888
 H790 H 1.03727 0.79473 0.74349
 H791 H 1.03716 0.75672 0.70544
 H792 H 1.05968 0.77133 0.69097
 C793 C 0.40023 0.68599 0.68589
 C794 C 0.39338 0.67152 0.69271
 C795 C 0.37965 0.66394 0.68518
 C796 C 0.37256 0.67078 0.67070
 C797 C 0.37965 0.68526 0.66387
 C798 C 0.39338 0.69281 0.67143
 C799 C 0.41406 0.69404 0.69393
 C800 C 0.42551 0.70089 0.70078
 C801 C 0.43902 0.70920 0.70908
 C802 C 0.44547 0.70271 0.72387
 C803 C 0.45828 0.71102 0.73220
 C804 C 0.46479 0.72598 0.72584
 C805 C 0.45831 0.73233 0.71088
 C806 C 0.44550 0.72399 0.70258
 H807 H 0.39858 0.66615 0.70392
 H808 H 0.37454 0.65281 0.69078
 H809 H 0.37454 0.69087 0.65275
 H810 H 0.39858 0.70403 0.66606
 H811 H 0.44052 0.69128 0.72903
 H812 H 0.46299 0.70580 0.74369
 H813 H 0.46304 0.74381 0.70565
 H814 H 0.44057 0.72914 0.69115
 C815 C 0.39973 0.18556 0.18584
 C816 C 0.39291 0.19235 0.17137
 C817 C 0.37913 0.18487 0.16384
 C818 C 0.37190 0.17041 0.17071
 C819 C 0.37904 0.16361 0.18523
 C820 C 0.39282 0.17115 0.19270
 C821 C 0.41361 0.19356 0.19383
 C822 C 0.42511 0.20038 0.20064
 C823 C 0.43867 0.20866 0.20889
 C824 C 0.44515 0.22344 0.20238
 C825 C 0.45800 0.23175 0.21064
 C826 C 0.46455 0.22537 0.22556
 C827 C 0.45804 0.21041 0.23193
 C828 C 0.44518 0.20213 0.22364
 H829 H 0.39817 0.20352 0.16596
 H830 H 0.37412 0.19054 0.15270
 H831 H 0.37397 0.15252 0.19096
 H832 H 0.39801 0.16579 0.20392
 H833 H 0.44018 0.22862 0.19098
 H834 H 0.46273 0.24323 0.20541
 H835 H 0.46279 0.20516 0.24338
 H836 H 0.44024 0.19070 0.22880
 C837 C -0.09994 0.68560 0.18599
 C838 C -0.10679 0.69241 0.17153
 C839 C -0.12054 0.68488 0.16399
 C840 C -0.12765 0.67042 0.17084
 C841 C -0.12056 0.66359 0.18533
 C842 C -0.10682 0.67115 0.19284
 C843 C -0.08610 0.69364 0.19401
 C844 C -0.07464 0.70050 0.20084
 C845 C -0.06112 0.70882 0.20911
 C846 C -0.05468 0.72363 0.20260
 C847 C -0.04186 0.73198 0.21087
 C848 C -0.03532 0.72562 0.22580
 C849 C -0.04178 0.71064 0.23217
 C850 C -0.05460 0.70232 0.22387
 H851 H -0.10157 0.70361 0.16614
 H852 H -0.12564 0.69048 0.15286
 H853 H -0.12570 0.65248 0.19095
 H854 H -0.10162 0.66579 0.20405
 H855 H -0.05966 0.72878 0.19119
 H856 H -0.03717 0.74348 0.20564
 H857 H -0.03703 0.70542 0.24363
 H858 H -0.05951 0.69087 0.22902
 C859 C -0.10027 0.18553 0.68568
 C860 C -0.10719 0.17113 0.69255
 C861 C -0.12097 0.16359 0.68507
 C862 C -0.12810 0.17039 0.67054
 C863 C -0.12086 0.18484 0.66367
 C864 C -0.10709 0.19233 0.67120
 C865 C -0.08640 0.19354 0.69368
 C866 C -0.07491 0.20036 0.70050
 C867 C -0.06136 0.20863 0.70877
 C868 C -0.05490 0.20212 0.72355
 C869 C -0.04205 0.21040 0.73186
 C870 C -0.03551 0.22534 0.72548
 C871 C -0.04200 0.23170 0.71053
 C872 C -0.05484 0.22340 0.70225
 H873 H -0.10201 0.16578 0.70377
 H874 H -0.12605 0.15251 0.69080
 H875 H -0.12586 0.19051 0.65252
 H876 H -0.10182 0.20349 0.66579
 H877 H -0.05987 0.19071 0.72872
 H878 H -0.03735 0.20517 0.74334
 H879 H -0.03724 0.24317 0.70529
 H880 H -0.05977 0.22856 0.69082
 C881 C 0.31406 0.40039 0.31442
 C882 C 0.30723 0.39354 0.32888
 C883 C 0.31474 0.37979 0.33642
 C884 C 0.32921 0.37268 0.32958
 C885 C 0.33606 0.37977 0.31511
 C886 C 0.32852 0.39352 0.30760
 C887 C 0.30604 0.41423 0.30639
 C888 C 0.29921 0.42570 0.29955
 C889 C 0.29094 0.43922 0.29125
 C890 C 0.27616 0.44572 0.29774
 C891 C 0.26784 0.45854 0.28943
 C892 C 0.27422 0.46501 0.27448
 C893 C 0.28918 0.45849 0.26813
 C894 C 0.29746 0.44567 0.27647
 H895 H 0.29602 0.39876 0.33425
 H896 H 0.30912 0.37468 0.34754
 H897 H 0.34718 0.37464 0.30951
 H898 H 0.33390 0.39871 0.29639
 H899 H 0.27099 0.44080 0.30916
 H900 H 0.25637 0.46328 0.29465
 H901 H 0.29442 0.46319 0.25666
 H902 H 0.30889 0.44071 0.27132
 C903 C 0.31438 -0.10039 0.81418
 C904 C 0.30760 -0.10724 0.82865
 C905 C 0.31513 -0.12097 0.83619
 C906 C 0.32962 -0.12815 0.82934
 C907 C 0.33641 -0.12099 0.81482
 C908 C 0.32882 -0.10725 0.80733
 C909 C 0.30633 -0.08656 0.80617
 C910 C 0.29947 -0.07510 0.79936
 C911 C 0.29115 -0.06158 0.79109
 C912 C 0.27636 -0.05512 0.79761
 C913 C 0.26802 -0.04230 0.78934
 C914 C 0.27437 -0.03578 0.77439
 C915 C 0.28932 -0.04226 0.76801
 C916 C 0.29764 -0.05508 0.77632
 H917 H 0.29641 -0.10202 0.83405
 H918 H 0.30947 -0.12600 0.84733
 H919 H 0.34752 -0.12602 0.80911
 H920 H 0.33417 -0.10205 0.79611
 H921 H 0.27122 -0.06008 0.80903
 H922 H 0.25654 -0.03759 0.79458
 H923 H 0.29454 -0.03753 0.75655
 H924 H 0.30907 -0.06001 0.77114
 C925 C 0.81423 0.40003 0.81425
 C926 C 0.80740 0.39318 0.82870
 C927 C 0.81487 0.37941 0.83623
 C928 C 0.82936 0.37220 0.82940
 C929 C 0.83619 0.37937 0.81490
 C930 C 0.82866 0.39314 0.80742
 C931 C 0.80623 0.41390 0.80625
 C932 C 0.79942 0.42539 0.79943
 C933 C 0.79115 0.43894 0.79117
 C934 C 0.77638 0.44544 0.79768
 C935 C 0.76807 0.45828 0.78941
 C936 C 0.77445 0.46480 0.77448
 C937 C 0.78940 0.45828 0.76811
 C938 C 0.79768 0.44543 0.77641
 H939 H 0.79621 0.39842 0.83408
 H940 H 0.80918 0.37439 0.84735
 H941 H 0.84730 0.37431 0.80920
 H942 H 0.83404 0.39834 0.79622
 H943 H 0.77120 0.44048 0.80909
 H944 H 0.75660 0.46302 0.79464
 H945 H 0.79465 0.46301 0.75665
 H946 H 0.80910 0.44048 0.77124
 C947 C 0.81428 -0.10002 0.31404
 C948 C 0.80749 -0.10683 0.32854
 C949 C 0.81502 -0.12056 0.33610
 C950 C 0.82948 -0.12769 0.32924
 C951 C 0.83628 -0.12063 0.31473
 C952 C 0.82872 -0.10691 0.30720
 C953 C 0.80623 -0.08620 0.30601
 C954 C 0.79938 -0.07475 0.29917
 C955 C 0.79106 -0.06124 0.29087
 C956 C 0.77628 -0.05476 0.29738
 C957 C 0.76794 -0.04196 0.28909
 C958 C 0.77429 -0.03547 0.27413
 C959 C 0.78925 -0.04197 0.26776
 C960 C 0.79756 -0.05478 0.27608
 H961 H 0.79629 -0.10160 0.33393
 H962 H 0.80944 -0.12564 0.34724
 H963 H 0.84739 -0.12578 0.30910
 H964 H 0.83406 -0.10174 0.29596
 H965 H 0.77113 -0.05969 0.30881
 H966 H 0.75647 -0.03723 0.29432
 H967 H 0.79447 -0.03726 0.25628
 H968 H 0.80898 -0.05973 0.27092
 C969 C 0.31405 0.59964 0.68586
 C970 C 0.30721 0.60648 0.67140
 C971 C 0.31473 0.62022 0.66385
 C972 C 0.32921 0.62734 0.67068
 C973 C 0.33606 0.62026 0.68516
 C974 C 0.32851 0.60651 0.69268
 C975 C 0.30602 0.58580 0.69389
 C976 C 0.29919 0.57434 0.70073
 C977 C 0.29091 0.56081 0.70904
 C978 C 0.27612 0.55433 0.70255
 C979 C 0.26780 0.54151 0.71086
 C980 C 0.27418 0.53502 0.72580
 C981 C 0.28915 0.54154 0.73215
 C982 C 0.29744 0.55435 0.72381
 H983 H 0.29600 0.60126 0.66603
 H984 H 0.30912 0.62533 0.65273
 H985 H 0.34718 0.62539 0.69076
 H986 H 0.33389 0.60132 0.70389
 H987 H 0.27094 0.55926 0.69113
 H988 H 0.25631 0.53678 0.70564
 H989 H 0.29439 0.53683 0.74362
 H990 H 0.30887 0.55930 0.72895
 C991 C 0.31432 1.10037 0.18592
 C992 C 0.30753 1.10720 0.17145
 C993 C 0.31504 1.12094 0.16390
 C994 C 0.32953 1.12815 0.17075
 C995 C 0.33632 1.12100 0.18527
 C996 C 0.32875 1.10726 0.19277
 C997 C 0.30628 1.08653 0.19393
 C998 C 0.29943 1.07506 0.20075
 C999 C 0.29112 1.06154 0.20901
 C1000 C 0.27633 1.05507 0.20249
 C1001 C 0.26799 1.04224 0.21076
 C1002 C 0.27435 1.03572 0.22570
 C1003 C 0.28930 1.04222 0.23209
 C1004 C 0.29762 1.05505 0.22379
 H1005 H 0.29634 1.10196 0.16605
 H1006 H 0.30937 1.12595 0.15276
 H1007 H 0.34743 1.12606 0.19099
 H1008 H 0.33410 1.10207 0.20399
 H1009 H 0.27119 1.06002 0.19107
 H1010 H 0.25652 1.03752 0.20551
 H1011 H 0.29452 1.03749 0.24356
 H1012 H 0.30904 1.05999 0.22896
 C1013 C 0.81417 0.59992 0.18566
 C1014 C 0.82862 0.60680 0.19248
 C1015 C 0.83615 0.62057 0.18500
 C1016 C 0.82931 0.62775 0.17051
 C1017 C 0.81481 0.62055 0.16369
 C1018 C 0.80733 0.60678 0.17123
 C1019 C 0.80617 0.58605 0.19367
 C1020 C 0.79937 0.57456 0.20049
 C1021 C 0.79111 0.56101 0.20877
 C1022 C 0.79765 0.55454 0.22353
 C1023 C 0.78939 0.54168 0.23184
 C1024 C 0.77444 0.53514 0.22548
 C1025 C 0.76805 0.54164 0.21054
 C1026 C 0.77634 0.55449 0.20226
 H1027 H 0.83401 0.60159 0.20367
 H1028 H 0.84727 0.62562 0.19069
 H1029 H 0.80910 0.62558 0.15258
 H1030 H 0.79612 0.60155 0.16585
 H1031 H 0.80907 0.55951 0.22869
 H1032 H 0.79464 0.53697 0.24331
 H1033 H 0.75658 0.53689 0.20531
 H1034 H 0.77116 0.55943 0.19085
 C1035 C 0.81430 1.10038 0.68576
 C1036 C 0.82873 1.10726 0.69261
 C1037 C 0.83630 1.12100 0.68511
 C1038 C 0.82952 1.12814 0.67058
 C1039 C 0.81503 1.12094 0.66373
 C1040 C 0.80751 1.10720 0.67129
 C1041 C 0.80626 1.08654 0.69379
 C1042 C 0.79942 1.07508 0.70062
 C1043 C 0.79112 1.06156 0.70891
 C1044 C 0.79763 1.05510 0.72369
 C1045 C 0.78934 1.04228 0.73201
 C1046 C 0.77438 1.03576 0.72565
 C1047 C 0.76801 1.04224 0.71070
 C1048 C 0.77634 1.05507 0.70240
 H1049 H 0.83408 1.10208 0.70384
 H1050 H 0.84741 1.12605 0.69082
 H1051 H 0.80936 1.12594 0.65259
 H1052 H 0.79632 1.10196 0.66589
 H1053 H 0.80906 1.06005 0.72885
 H1054 H 0.79457 1.03757 0.74349
 H1055 H 0.75653 1.03751 0.70547
 H1056 H 0.77117 1.06000 0.69098
 C1057 C 0.68586 0.59962 0.31419
 C1058 C 0.67141 0.60651 0.30737
 C1059 C 0.66387 0.62025 0.31491
 C1060 C 0.67071 0.62732 0.32940
 C1061 C 0.68518 0.62018 0.33624
 C1062 C 0.69269 0.60644 0.32867
 C1063 C 0.69388 0.58579 0.30614
 C1064 C 0.70071 0.57433 0.29929
 C1065 C 0.70900 0.56082 0.29099
 C1066 C 0.70248 0.55435 0.27621
 C1067 C 0.71078 0.54154 0.26787
 C1068 C 0.72575 0.53504 0.27422
 C1069 C 0.73212 0.54153 0.28917
 C1070 C 0.72379 0.55434 0.29748
 H1071 H 0.66603 0.60134 0.29615
 H1072 H 0.65276 0.62540 0.30930
 H1073 H 0.69079 0.62527 0.34737
 H1074 H 0.70389 0.60121 0.33404
 H1075 H 0.69105 0.55929 0.27106
 H1076 H 0.70554 0.53682 0.25640
 H1077 H 0.74360 0.53681 0.29440
 H1078 H 0.72896 0.55928 0.30890
 C1079 C 0.68559 1.10043 0.81407
 C1080 C 0.69237 1.10729 0.82853
 C1081 C 0.68484 1.12103 0.83607
 C1082 C 0.67035 1.12821 0.82921
 C1083 C 0.66356 1.12103 0.81470
 C1084 C 0.67115 1.10729 0.80721
 C1085 C 0.69364 1.08659 0.80607
 C1086 C 0.70049 1.07513 0.79925
 C1087 C 0.70881 1.06160 0.79099
 C1088 C 0.72360 1.05515 0.79752
 C1089 C 0.73195 1.04232 0.78925
 C1090 C 0.72559 1.03578 0.77432
 C1091 C 0.71062 1.04226 0.76794
 C1092 C 0.70231 1.05508 0.77623
 H1093 H 0.70357 1.10208 0.83393
 H1094 H 0.69051 1.12606 0.84720
 H1095 H 0.65245 1.12606 0.80898
 H1096 H 0.66580 1.10207 0.79599
 H1097 H 0.72876 1.06012 0.80893
 H1098 H 0.74343 1.03763 0.79449
 H1099 H 0.70540 1.03750 0.75647
 H1100 H 0.69087 1.06000 0.77106
 C1101 C 0.18580 0.59994 0.81434
 C1102 C 0.19264 0.60679 0.82878
 C1103 C 0.18517 0.62057 0.83632
 C1104 C 0.17068 0.62778 0.82949
 C1105 C 0.16384 0.62060 0.81499
 C1106 C 0.17136 0.60683 0.80751
 C1107 C 0.19378 0.58606 0.80634
 C1108 C 0.20058 0.57456 0.79952
 C1109 C 0.20884 0.56100 0.79125
 C1110 C 0.22361 0.55450 0.79776
 C1111 C 0.23190 0.54164 0.78948
 C1112 C 0.22551 0.53512 0.77456
 C1113 C 0.21056 0.54165 0.76819
 C1114 C 0.20229 0.55451 0.77650
 H1115 H 0.20383 0.60156 0.83416
 H1116 H 0.19088 0.62560 0.84743
 H1117 H 0.15273 0.62566 0.80930
 H1118 H 0.16597 0.60161 0.79631
 H1119 H 0.22880 0.55946 0.80917
 H1120 H 0.24338 0.53691 0.79471
 H1121 H 0.20530 0.53692 0.75674
 H1122 H 0.19087 0.55947 0.77134
 C1123 C 0.18556 1.10037 0.31413
 C1124 C 0.17114 1.10725 0.30726
 C1125 C 0.16357 1.12100 0.31475
 C1126 C 0.17035 1.12814 0.32929
 C1127 C 0.18482 1.12093 0.33616
 C1128 C 0.19233 1.10718 0.32861
 C1129 C 0.19360 1.08652 0.30612
 C1130 C 0.20045 1.07505 0.29930
 C1131 C 0.20875 1.06152 0.29103
 C1132 C 0.20226 1.05503 0.27625
 C1133 C 0.21057 1.04221 0.26795
 C1134 C 0.22552 1.03571 0.27433
 C1135 C 0.23188 1.04223 0.28928
 C1136 C 0.22354 1.05506 0.29756
 H1137 H 0.16580 1.10207 0.29602
 H1138 H 0.15248 1.12606 0.30902
 H1139 H 0.19047 1.12594 0.34731
 H1140 H 0.20351 1.10194 0.33403
 H1141 H 0.19083 1.05997 0.27108
 H1142 H 0.20534 1.03748 0.25648
 H1143 H 0.24335 1.03752 0.29452
 H1144 H 0.22869 1.06001 0.30898
 C1145 C 0.68587 0.40028 0.68575
 C1146 C 0.67141 0.39341 0.69256
 C1147 C 0.66386 0.37966 0.68502
 C1148 C 0.67071 0.37258 0.67055
 C1149 C 0.68519 0.37969 0.66372
 C1150 C 0.69271 0.39344 0.67129
 C1151 C 0.69390 0.41412 0.69379
 C1152 C 0.70073 0.42558 0.70064
 C1153 C 0.70901 0.43910 0.70895
 C1154 C 0.70249 0.44555 0.72374
 C1155 C 0.71078 0.45837 0.73208
 C1156 C 0.72574 0.46489 0.72573
 C1157 C 0.73212 0.45841 0.71078
 C1158 C 0.72380 0.44560 0.70247
 H1159 H 0.66603 0.39859 0.70376
 H1160 H 0.65274 0.37453 0.69062
 H1161 H 0.69081 0.37459 0.65260
 H1162 H 0.70392 0.39865 0.66592
 H1163 H 0.69106 0.44059 0.72888
 H1164 H 0.70555 0.46307 0.74356
 H1165 H 0.74360 0.46315 0.70556
 H1166 H 0.72897 0.44067 0.69104
 C1167 C 0.68550 -0.10023 0.18574
 C1168 C 0.67107 -0.10710 0.19260
 C1169 C 0.66351 -0.12087 0.18512
 C1170 C 0.67030 -0.12804 0.17061
 C1171 C 0.68478 -0.12085 0.16376
 C1172 C 0.69230 -0.10708 0.17129
 C1173 C 0.69354 -0.08637 0.19374
 C1174 C 0.70039 -0.07490 0.20055
 C1175 C 0.70869 -0.06135 0.20880
 C1176 C 0.70220 -0.05485 0.22357
 C1177 C 0.71051 -0.04202 0.23187
 C1178 C 0.72547 -0.03552 0.22548
 C1179 C 0.73182 -0.04205 0.21054
 C1180 C 0.72348 -0.05489 0.20227
 H1181 H 0.66572 -0.10189 0.20381
 H1182 H 0.65240 -0.12591 0.19084
 H1183 H 0.69045 -0.12588 0.15263
 H1184 H 0.70348 -0.10186 0.16588
 H1185 H 0.69078 -0.05979 0.22875
 H1186 H 0.70529 -0.03728 0.24333
 H1187 H 0.74329 -0.03734 0.20529
 H1188 H 0.72862 -0.05985 0.19086
 C1189 C 0.18562 0.40016 0.18600
 C1190 C 0.17119 0.39325 0.19285
 C1191 C 0.16366 0.37948 0.18535
 C1192 C 0.17050 0.37241 0.17086
 C1193 C 0.18494 0.37956 0.16399
 C1194 C 0.19244 0.39333 0.17153
 C1195 C 0.19363 0.41403 0.19400
 C1196 C 0.20046 0.42551 0.20082
 C1197 C 0.20875 0.43906 0.20908
 C1198 C 0.20223 0.44557 0.22384
 C1199 C 0.21053 0.45842 0.23213
 C1200 C 0.22549 0.46492 0.22576
 C1201 C 0.23186 0.45838 0.21083
 C1202 C 0.22353 0.44554 0.20256
 H1203 H 0.16583 0.39844 0.20407
 H1204 H 0.15257 0.37433 0.19098
 H1205 H 0.19054 0.37446 0.15286
 H1206 H 0.20362 0.39857 0.16613
 H1207 H 0.19081 0.44063 0.22900
 H1208 H 0.20529 0.46316 0.24359
 H1209 H 0.24333 0.46310 0.20559
 H1210 H 0.22870 0.44057 0.19115
 C1211 C 0.18556 -0.10044 0.68591
 C1212 C 0.17114 -0.10733 0.69276
 C1213 C 0.16357 -0.12107 0.68526
 C1214 C 0.17035 -0.12822 0.67073
 C1215 C 0.18483 -0.12101 0.66388
 C1216 C 0.19235 -0.10726 0.67144
 C1217 C 0.19361 -0.08660 0.69393
 C1218 C 0.20046 -0.07514 0.70076
 C1219 C 0.20876 -0.06161 0.70904
 C1220 C 0.20227 -0.05513 0.72381
 C1221 C 0.21058 -0.04230 0.73212
 C1222 C 0.22553 -0.03580 0.72575
 C1223 C 0.23189 -0.04231 0.71080
 C1224 C 0.22355 -0.05513 0.70252
 H1225 H 0.16579 -0.10214 0.70399
 H1226 H 0.15246 -0.12613 0.69098
 H1227 H 0.19049 -0.12601 0.65274
 H1228 H 0.20353 -0.10203 0.66604
 H1229 H 0.19084 -0.06007 0.72898
 H1230 H 0.20536 -0.03758 0.74360
 H1231 H 0.24336 -0.03758 0.70556
 H1232 H 0.22870 -0.06008 0.69110
 C1233 C 0.31400 0.31411 0.40059
 C1234 C 0.30719 0.32859 0.39375
 C1235 C 0.31471 0.33614 0.38002
 C1236 C 0.32918 0.32928 0.37292
 C1237 C 0.33601 0.31479 0.38000
 C1238 C 0.32846 0.30727 0.39373
 C1239 C 0.30597 0.30608 0.41442
 C1240 C 0.29914 0.29924 0.42587
 C1241 C 0.29085 0.29093 0.43938
 C1242 C 0.27606 0.29743 0.44586
 C1243 C 0.26775 0.28912 0.45866
 C1244 C 0.27412 0.27415 0.46514
 C1245 C 0.28908 0.26780 0.45863
 C1246 C 0.29737 0.27614 0.44583
 H1247 H 0.29599 0.33398 0.39896
 H1248 H 0.30911 0.34727 0.37491
 H1249 H 0.34713 0.30916 0.37488
 H1250 H 0.33383 0.29605 0.39892
 H1251 H 0.27090 0.30887 0.44093
 H1252 H 0.25627 0.29434 0.46339
 H1253 H 0.29432 0.25632 0.46333
 H1254 H 0.30880 0.27099 0.44088
 C1255 C 0.31440 0.81418 -0.09982
 C1256 C 0.30753 0.82861 -0.10669
 C1257 C 0.31500 0.83614 -0.12046
 C1258 C 0.32947 0.82930 -0.12757
 C1259 C 0.33636 0.81486 -0.12045
 C1260 C 0.32886 0.80736 -0.10668
 C1261 C 0.30641 0.80617 -0.08596
 C1262 C 0.29960 0.79936 -0.07448
 C1263 C 0.29131 0.79110 -0.06094
 C1264 C 0.27652 0.79761 -0.05449
 C1265 C 0.26819 0.78934 -0.04167
 C1266 C 0.27457 0.77441 -0.03512
 C1267 C 0.28955 0.76804 -0.04159
 C1268 C 0.29784 0.77634 -0.05442
 H1269 H 0.29632 0.83399 -0.10148
 H1270 H 0.30935 0.84724 -0.12559
 H1271 H 0.34749 0.80925 -0.12558
 H1272 H 0.33427 0.79617 -0.10147
 H1273 H 0.27134 0.80902 -0.05947
 H1274 H 0.25670 0.79458 -0.03697
 H1275 H 0.29479 0.75658 -0.03683
 H1276 H 0.30928 0.77117 -0.05933
 C1277 C 0.81389 0.31445 -0.09985
 C1278 C 0.80704 0.32889 -0.10672
 C1279 C 0.81454 0.33643 -0.12047
 C1280 C 0.82903 0.32959 -0.12756
 C1281 C 0.83590 0.31513 -0.12044
 C1282 C 0.82836 0.30762 -0.10669
 C1283 C 0.80589 0.30642 -0.08601
 C1284 C 0.79908 0.29958 -0.07454
 C1285 C 0.79083 0.29127 -0.06101
 C1286 C 0.77606 0.29777 -0.05449
 C1287 C 0.76777 0.28945 -0.04167
 C1288 C 0.77416 0.27448 -0.03522
 C1289 C 0.78910 0.26812 -0.04177
 C1290 C 0.79736 0.27647 -0.05459
 H1291 H 0.79582 0.33426 -0.10153
 H1292 H 0.80891 0.34753 -0.12560
 H1293 H 0.84702 0.30952 -0.12555
 H1294 H 0.83376 0.29643 -0.10148
 H1295 H 0.77088 0.30921 -0.05939
 H1296 H 0.75630 0.29468 -0.03691
 H1297 H 0.79434 0.25663 -0.03709
 H1298 H 0.80877 0.27131 -0.05957
 C1299 C 0.81446 0.81397 0.40044
 C1300 C 0.80764 0.82843 0.39358
 C1301 C 0.81513 0.83594 0.37981
 C1302 C 0.82958 0.82905 0.37269
 C1303 C 0.83642 0.81458 0.37979
 C1304 C 0.82890 0.80710 0.39356
 C1305 C 0.80645 0.80598 0.41430
 C1306 C 0.79962 0.79919 0.42579
 C1307 C 0.79133 0.79096 0.43933
 C1308 C 0.77654 0.79751 0.44578
 C1309 C 0.76821 0.78926 0.45861
 C1310 C 0.77456 0.77431 0.46516
 C1311 C 0.78951 0.76791 0.45869
 C1312 C 0.79782 0.77618 0.44585
 H1313 H 0.79645 0.83384 0.39880
 H1314 H 0.80952 0.84706 0.37469
 H1315 H 0.84752 0.80893 0.37466
 H1316 H 0.83427 0.79589 0.39877
 H1317 H 0.77139 0.80892 0.44080
 H1318 H 0.75673 0.79452 0.46331
 H1319 H 0.79474 0.75644 0.46345
 H1320 H 0.80925 0.77099 0.44094
 C1321 C 0.68588 0.31407 0.59947
 C1322 C 0.67142 0.30722 0.60632
 C1323 C 0.66387 0.31473 0.62006
 C1324 C 0.67071 0.32922 0.62716
 C1325 C 0.68519 0.33607 0.62007
 C1326 C 0.69271 0.32853 0.60633
 C1327 C 0.69390 0.30605 0.58563
 C1328 C 0.70073 0.29921 0.57417
 C1329 C 0.70902 0.29092 0.56065
 C1330 C 0.70250 0.27613 0.55418
 C1331 C 0.71079 0.26781 0.54136
 C1332 C 0.72574 0.27418 0.53486
 C1333 C 0.73212 0.28914 0.54136
 C1334 C 0.72380 0.29744 0.55417
 H1335 H 0.66604 0.29601 0.60111
 H1336 H 0.65275 0.30911 0.62517
 H1337 H 0.69080 0.34720 0.62519
 H1338 H 0.70392 0.33392 0.60113
 H1339 H 0.69108 0.27096 0.55912
 H1340 H 0.70556 0.25632 0.53665
 H1341 H 0.74359 0.29438 0.53663
 H1342 H 0.72896 0.30888 0.55911
 C1343 C 0.68561 0.81420 1.09984
 C1344 C 0.67116 0.80736 1.10672
 C1345 C 0.66365 0.81487 1.12048
 C1346 C 0.67052 0.82934 1.12758
 C1347 C 0.68498 0.83620 1.12046
 C1348 C 0.69247 0.82866 1.10670
 C1349 C 0.69361 0.80619 1.08599
 C1350 C 0.70044 0.79937 1.07452
 C1351 C 0.70873 0.79111 1.06098
 C1352 C 0.70221 0.77635 1.05446
 C1353 C 0.71051 0.76805 1.04163
 C1354 C 0.72549 0.77442 1.03518
 C1355 C 0.73187 0.78936 1.04173
 C1356 C 0.72354 0.79763 1.05456
 H1357 H 0.66577 0.79616 1.10151
 H1358 H 0.65253 0.80925 1.12561
 H1359 H 0.69061 0.84732 1.12558
 H1360 H 0.70367 0.83405 1.10148
 H1361 H 0.69076 0.77118 1.05936
 H1362 H 0.70527 0.75659 1.03687
 H1363 H 0.74336 0.79459 1.03705
 H1364 H 0.72871 0.80904 1.05954
 C1365 C 0.18565 0.31390 1.09978
 C1366 C 0.19246 0.32839 1.10662
 C1367 C 0.18495 0.33592 1.12038
 C1368 C 0.17051 0.32903 1.12750
 C1369 C 0.16369 0.31453 1.12042
 C1370 C 0.17122 0.30703 1.10667
 C1371 C 0.19367 0.30590 1.08594
 C1372 C 0.20050 0.29908 1.07447
 C1373 C 0.20878 0.29080 1.06094
 C1374 C 0.22355 0.29734 1.05445
 C1375 C 0.23187 0.28905 1.04163
 C1376 C 0.22551 0.27408 1.03513
 C1377 C 0.21057 0.26769 1.04165
 C1378 C 0.20228 0.27600 1.05447
 H1379 H 0.20365 0.33381 1.10140
 H1380 H 0.19055 0.34706 1.12548
 H1381 H 0.15259 0.30888 1.12556
 H1382 H 0.16586 0.29580 1.10148
 H1383 H 0.22871 0.30877 1.05939
 H1384 H 0.24334 0.29430 1.03690
 H1385 H 0.20534 0.25620 1.03693
 H1386 H 0.19086 0.27082 1.05942
 C1387 C 0.18562 0.81419 0.59982
 C1388 C 0.19248 0.82863 0.60671
 C1389 C 0.18500 0.83614 0.62049
 C1390 C 0.17054 0.82927 0.62760
 C1391 C 0.16367 0.81481 0.62047
 C1392 C 0.17117 0.80734 0.60669
 C1393 C 0.19362 0.80621 0.58595
 C1394 C 0.20044 0.79941 0.57446
 C1395 C 0.20872 0.79117 0.56091
 C1396 C 0.22350 0.79771 0.55446
 C1397 C 0.23183 0.78946 0.54162
 C1398 C 0.22547 0.77452 0.53507
 C1399 C 0.21051 0.76812 0.54155
 C1400 C 0.20221 0.77640 0.55439
 H1401 H 0.20368 0.83403 0.60150
 H1402 H 0.19063 0.84725 0.62563
 H1403 H 0.15256 0.80918 0.62560
 H1404 H 0.16578 0.79614 0.60147
 H1405 H 0.22867 0.80913 0.55944
 H1406 H 0.24331 0.79472 0.53692
 H1407 H 0.20528 0.75665 0.53680
 H1408 H 0.19079 0.77121 0.55931
 C1409 C 0.31405 0.68586 0.59962
 C1410 C 0.30721 0.67140 0.60647
 C1411 C 0.31473 0.66385 0.62021
 C1412 C 0.32921 0.67071 0.62731
 C1413 C 0.33606 0.68519 0.62022
 C1414 C 0.32851 0.69270 0.60648
 C1415 C 0.30602 0.69388 0.58579
 C1416 C 0.29920 0.70072 0.57433
 C1417 C 0.29093 0.70903 0.56081
 C1418 C 0.27615 0.70251 0.55430
 C1419 C 0.26784 0.71083 0.54149
 C1420 C 0.27422 0.72580 0.53502
 C1421 C 0.28917 0.73216 0.54155
 C1422 C 0.29745 0.72383 0.55437
 H1423 H 0.29600 0.66601 0.60127
 H1424 H 0.30912 0.65273 0.62533
 H1425 H 0.34718 0.69081 0.62534
 H1426 H 0.33389 0.70391 0.60128
 H1427 H 0.27098 0.69108 0.55922
 H1428 H 0.25637 0.70559 0.53674
 H1429 H 0.29441 0.74365 0.53686
 H1430 H 0.30887 0.72899 0.55933
 C1431 C 0.31421 0.18574 1.09987
 C1432 C 0.30736 0.17130 1.10675
 C1433 C 0.31484 0.16380 1.12053
 C1434 C 0.32931 0.17067 1.12764
 C1435 C 0.33618 0.18512 1.12051
 C1436 C 0.32866 0.19260 1.10674
 C1437 C 0.30620 0.19373 1.08601
 C1438 C 0.29937 0.20053 1.07452
 C1439 C 0.29108 0.20877 1.06098
 C1440 C 0.27631 0.20221 1.05451
 C1441 C 0.26797 0.21047 1.04168
 C1442 C 0.27432 0.22542 1.03515
 C1443 C 0.28927 0.23183 1.04164
 C1444 C 0.29758 0.22355 1.05448
 H1445 H 0.29615 0.16590 1.10155
 H1446 H 0.30922 0.15269 1.12567
 H1447 H 0.34729 0.19076 1.12564
 H1448 H 0.33405 0.20380 1.10152
 H1449 H 0.27116 0.19079 1.05947
 H1450 H 0.25650 0.20520 1.03697
 H1451 H 0.29449 0.24331 1.03690
 H1452 H 0.30900 0.22874 1.05941
 C1453 C 0.81383 0.68555 1.09980
 C1454 C 0.80696 0.67111 1.10667
 C1455 C 0.81447 0.66356 1.12041
 C1456 C 0.82897 0.67039 1.12750
 C1457 C 0.83585 0.68484 1.12038
 C1458 C 0.82832 0.69236 1.10664
 C1459 C 0.80582 0.69358 1.08596
 C1460 C 0.79902 0.70044 1.07450
 C1461 C 0.79078 0.70877 1.06097
 C1462 C 0.77600 0.70229 1.05444
 C1463 C 0.76773 0.71063 1.04162
 C1464 C 0.77415 0.72559 1.03517
 C1465 C 0.78910 0.73193 1.04174
 C1466 C 0.79734 0.72356 1.05456
 H1467 H 0.79573 0.66575 1.10148
 H1468 H 0.80883 0.65246 1.12555
 H1469 H 0.84699 0.69044 1.12548
 H1470 H 0.83372 0.70355 1.10142
 H1471 H 0.77080 0.69086 1.05933
 H1472 H 0.75626 0.70542 1.03685
 H1473 H 0.79437 0.74341 1.03706
 H1474 H 0.80876 0.72870 1.05954
 C1475 C 0.81426 0.18573 0.59967
 C1476 C 0.80739 0.17129 0.60656
 C1477 C 0.81486 0.16379 0.62034
 C1478 C 0.82934 0.17065 0.62745
 C1479 C 0.83622 0.18509 0.62032
 C1480 C 0.82872 0.19257 0.60654
 C1481 C 0.80627 0.19371 0.58580
 C1482 C 0.79947 0.20052 0.57431
 C1483 C 0.79120 0.20877 0.56075
 C1484 C 0.77643 0.20224 0.55427
 C1485 C 0.76812 0.21050 0.54143
 C1486 C 0.77449 0.22546 0.53491
 C1487 C 0.78944 0.23185 0.54142
 C1488 C 0.79772 0.22355 0.55426
 H1489 H 0.79618 0.16591 0.60135
 H1490 H 0.80922 0.15269 0.62548
 H1491 H 0.84734 0.19071 0.62544
 H1492 H 0.83413 0.20375 0.60131
 H1493 H 0.77126 0.19082 0.55922
 H1494 H 0.75665 0.20525 0.53670
 H1495 H 0.79468 0.24332 0.53669
 H1496 H 0.80914 0.22873 0.55921
 C1497 C 0.68590 0.68574 0.40056
 C1498 C 0.69272 0.67128 0.39369
 C1499 C 0.68520 0.66375 0.37993
 C1500 C 0.67073 0.67063 0.37284
 C1501 C 0.66390 0.68511 0.37995
 C1502 C 0.67145 0.69260 0.39370
 C1503 C 0.69393 0.69375 0.41440
 C1504 C 0.70076 0.70057 0.42587
 C1505 C 0.70904 0.70887 0.43940
 C1506 C 0.72381 0.70235 0.44590
 C1507 C 0.73213 0.71065 0.45872
 C1508 C 0.72576 0.72562 0.46520
 C1509 C 0.71081 0.73199 0.45867
 C1510 C 0.70253 0.72366 0.44585
 H1511 H 0.70392 0.66588 0.39889
 H1512 H 0.69080 0.65263 0.37481
 H1513 H 0.65279 0.69074 0.37484
 H1514 H 0.66608 0.70381 0.39892
 H1515 H 0.72898 0.69091 0.44097
 H1516 H 0.74360 0.70541 0.46346
 H1517 H 0.70558 0.74348 0.46337
 H1518 H 0.69111 0.72883 0.44089
 C1519 C 0.68558 0.18593 -0.09996
 C1520 C 0.69246 0.17149 -0.10682
 C1521 C 0.68498 0.16395 -0.12060
 C1522 C 0.67051 0.17078 -0.12771
 C1523 C 0.66361 0.18523 -0.12060
 C1524 C 0.67112 0.19274 -0.10683
 C1525 C 0.69357 0.19394 -0.08610
 C1526 C 0.70039 0.20076 -0.07462
 C1527 C 0.70868 0.20902 -0.06107
 C1528 C 0.72346 0.20249 -0.05462
 C1529 C 0.73179 0.21076 -0.04178
 C1530 C 0.72543 0.22571 -0.03525
 C1531 C 0.71047 0.23209 -0.04173
 C1532 C 0.70217 0.22380 -0.05457
 H1533 H 0.70367 0.16612 -0.10161
 H1534 H 0.69063 0.15285 -0.12572
 H1535 H 0.65249 0.19083 -0.12573
 H1536 H 0.66571 0.20393 -0.10162
 H1537 H 0.72862 0.19107 -0.05958
 H1538 H 0.74327 0.20551 -0.03708
 H1539 H 0.70524 0.24357 -0.03699
 H1540 H 0.69074 0.22898 -0.05949
 C1541 C 0.18620 0.68557 -0.09977
 C1542 C 0.17172 0.69239 -0.10661
 C1543 C 0.16418 0.68488 -0.12036
 C1544 C 0.17105 0.67042 -0.12748
 C1545 C 0.18554 0.66358 -0.12040
 C1546 C 0.19305 0.67112 -0.10665
 C1547 C 0.19421 0.69359 -0.08593
 C1548 C 0.20102 0.70044 -0.07446
 C1549 C 0.20926 0.70877 -0.06093
 C1550 C 0.20271 0.72356 -0.05450
 C1551 C 0.21096 0.73192 -0.04167
 C1552 C 0.22591 0.72558 -0.03512
 C1553 C 0.23232 0.71062 -0.04158
 C1554 C 0.22404 0.70229 -0.05441
 H1555 H 0.16632 0.70358 -0.10140
 H1556 H 0.15305 0.69048 -0.12547
 H1557 H 0.19117 0.65247 -0.12553
 H1558 H 0.20427 0.66575 -0.10146
 H1559 H 0.19128 0.72869 -0.05948
 H1560 H 0.20569 0.74340 -0.03699
 H1561 H 0.24379 0.70541 -0.03682
 H1562 H 0.22923 0.69086 -0.05931
 C1563 C 0.18560 0.18573 0.40022
 C1564 C 0.17116 0.19259 0.39333
 C1565 C 0.16366 0.18512 0.37954
 C1566 C 0.17053 0.17066 0.37242
 C1567 C 0.18498 0.16378 0.37955
 C1568 C 0.19245 0.17128 0.39334
 C1569 C 0.19358 0.19371 0.41410
 C1570 C 0.20039 0.20050 0.42560
 C1571 C 0.20866 0.20874 0.43917
 C1572 C 0.20214 0.22351 0.44569
 C1573 C 0.21043 0.23179 0.45854
 C1574 C 0.22538 0.22540 0.46503
 C1575 C 0.23176 0.21047 0.45848
 C1576 C 0.22345 0.20221 0.44563
 H1577 H 0.16577 0.20378 0.39855
 H1578 H 0.15256 0.19075 0.37440
 H1579 H 0.19061 0.15267 0.37441
 H1580 H 0.20364 0.16588 0.39856
 H1581 H 0.19072 0.22868 0.44075
 H1582 H 0.20519 0.24325 0.46329
 H1583 H 0.24324 0.20522 0.46319
 H1584 H 0.22862 0.19080 0.44065
 C1585 C 0.31400 0.40016 0.68607
 C1586 C 0.30718 0.39330 0.67161
 C1587 C 0.31470 0.37955 0.66407
 C1588 C 0.32918 0.37245 0.67092
 C1589 C 0.33601 0.37955 0.68539
 C1590 C 0.32846 0.39330 0.69290
 C1591 C 0.30598 0.41401 0.69408
 C1592 C 0.29914 0.42548 0.70091
 C1593 C 0.29086 0.43902 0.70918
 C1594 C 0.27606 0.44549 0.70268
 C1595 C 0.26775 0.45833 0.71096
 C1596 C 0.27414 0.46486 0.72589
 C1597 C 0.28910 0.45836 0.73225
 C1598 C 0.29739 0.44552 0.72394
 H1599 H 0.29597 0.39850 0.66623
 H1600 H 0.30909 0.37443 0.65295
 H1601 H 0.34714 0.37443 0.69100
 H1602 H 0.33384 0.39850 0.70411
 H1603 H 0.27089 0.44053 0.69127
 H1604 H 0.25627 0.46305 0.70574
 H1605 H 0.29436 0.46310 0.74370
 H1606 H 0.30882 0.44058 0.72909
 C1607 C 0.31422 0.90095 0.18575
 C1608 C 0.32870 0.89411 0.19256
 C1609 C 0.33626 0.88037 0.18503
 C1610 C 0.32940 0.87326 0.17057
 C1611 C 0.31490 0.88035 0.16375
 C1612 C 0.30738 0.89409 0.17131
 C1613 C 0.30619 0.91478 0.19379
 C1614 C 0.29936 0.92624 0.20063
 C1615 C 0.29106 0.93977 0.20892
 C1616 C 0.29757 0.94623 0.22371
 C1617 C 0.28927 0.95905 0.23203
 C1618 C 0.27432 0.96557 0.22566
 C1619 C 0.26796 0.95907 0.21070
 C1620 C 0.27628 0.94625 0.20241
 H1621 H 0.33409 0.89931 0.20375
 H1622 H 0.34740 0.87526 0.19062
 H1623 H 0.30928 0.87522 0.15264
 H1624 H 0.29615 0.89928 0.16595
 H1625 H 0.30899 0.94128 0.22887
 H1626 H 0.29449 0.96376 0.24351
 H1627 H 0.25648 0.96380 0.20546
 H1628 H 0.27113 0.94132 0.19098
 C1629 C 0.81450 0.40033 0.18562
 C1630 C 0.80767 0.39348 0.17116
 C1631 C 0.81519 0.37972 0.16362
 C1632 C 0.82966 0.37261 0.17047
 C1633 C 0.83650 0.37970 0.18495
 C1634 C 0.82895 0.39346 0.19246
 C1635 C 0.80647 0.41417 0.19364
 C1636 C 0.79962 0.42564 0.20046
 C1637 C 0.79132 0.43917 0.20874
 C1638 C 0.77652 0.44562 0.20223
 C1639 C 0.76819 0.45844 0.21052
 C1640 C 0.77456 0.46496 0.22546
 C1641 C 0.78953 0.45848 0.23182
 C1642 C 0.79784 0.44566 0.22351
 H1643 H 0.79647 0.39869 0.16577
 H1644 H 0.80958 0.37461 0.15250
 H1645 H 0.84761 0.37458 0.19057
 H1646 H 0.83432 0.39865 0.20367
 H1647 H 0.77136 0.44066 0.19082
 H1648 H 0.75670 0.46314 0.20529
 H1649 H 0.79476 0.46322 0.24328
 H1650 H 0.80927 0.44074 0.22866
 C1651 C 0.81432 0.90091 0.68593
 C1652 C 0.80748 0.89403 0.67149
 C1653 C 0.81500 0.88028 0.66395
 C1654 C 0.82949 0.87320 0.67078
 C1655 C 0.83635 0.88032 0.68524
 C1656 C 0.82880 0.89407 0.69275
 C1657 C 0.80629 0.91476 0.69394
 C1658 C 0.79946 0.92623 0.70076
 C1659 C 0.79116 0.93976 0.70903
 C1660 C 0.77638 0.94623 0.70251
 C1661 C 0.76805 0.95907 0.71078
 C1662 C 0.77441 0.96559 0.72572
 C1663 C 0.78937 0.95909 0.73210
 C1664 C 0.79767 0.94626 0.72381
 H1665 H 0.79626 0.89922 0.66611
 H1666 H 0.80939 0.87515 0.65284
 H1667 H 0.84748 0.87521 0.69084
 H1668 H 0.83418 0.89928 0.70394
 H1669 H 0.77122 0.94127 0.69109
 H1670 H 0.75657 0.96378 0.70554
 H1671 H 0.79459 0.96383 0.74357
 H1672 H 0.80909 0.94132 0.72897
 C1673 C 0.68583 0.59975 0.68611
 C1674 C 0.67138 0.60662 0.69296
 C1675 C 0.66383 0.62036 0.68545
 C1676 C 0.67065 0.62746 0.67097
 C1677 C 0.68511 0.62034 0.66411
 C1678 C 0.69264 0.60660 0.67164
 C1679 C 0.69387 0.58590 0.69411
 C1680 C 0.70071 0.57443 0.70092
 C1681 C 0.70900 0.56089 0.70919
 C1682 C 0.70249 0.55438 0.72394
 C1683 C 0.71079 0.54154 0.73224
 C1684 C 0.72575 0.53505 0.72587
 C1685 C 0.73212 0.54159 0.71094
 C1686 C 0.72380 0.55443 0.70268
 H1687 H 0.66602 0.60142 0.70417
 H1688 H 0.65272 0.62549 0.69108
 H1689 H 0.69070 0.62546 0.65298
 H1690 H 0.70383 0.60138 0.66625
 H1691 H 0.69106 0.55931 0.72911
 H1692 H 0.70555 0.53680 0.74369
 H1693 H 0.74360 0.53688 0.70571
 H1694 H 0.72896 0.55939 0.69127
 C1695 C 0.68561 0.09926 0.18551
 C1696 C 0.67113 0.10611 0.19232
 C1697 C 0.66358 0.11986 0.18480
 C1698 C 0.67044 0.12696 0.17034
 C1699 C 0.68493 0.11987 0.16352
 C1700 C 0.69245 0.10613 0.17107
 C1701 C 0.69364 0.08543 0.19354
 C1702 C 0.70047 0.07396 0.20038
 C1703 C 0.70876 0.06044 0.20867
 C1704 C 0.70226 0.05398 0.22345
 C1705 C 0.71056 0.04116 0.23177
 C1706 C 0.72550 0.03464 0.22540
 C1707 C 0.73186 0.04113 0.21045
 C1708 C 0.72354 0.05395 0.20215
 H1709 H 0.66575 0.10090 0.20351
 H1710 H 0.65245 0.12497 0.19039
 H1711 H 0.69056 0.12500 0.15241
 H1712 H 0.70368 0.10093 0.16571
 H1713 H 0.69084 0.05894 0.22862
 H1714 H 0.70533 0.03646 0.24325
 H1715 H 0.74333 0.03639 0.20521
 H1716 H 0.72869 0.05887 0.19072
 C1717 C 0.18563 0.59969 0.18568
 C1718 C 0.19247 0.60654 0.17123
 C1719 C 0.18495 0.62029 0.16368
 C1720 C 0.17048 0.62739 0.17052
 C1721 C 0.16362 0.62030 0.18498
 C1722 C 0.17117 0.60655 0.19250
 C1723 C 0.19366 0.58585 0.19371
 C1724 C 0.20049 0.57439 0.20056
 C1725 C 0.20878 0.56087 0.20886
 C1726 C 0.22356 0.55438 0.20237
 C1727 C 0.23188 0.54156 0.21068
 C1728 C 0.22551 0.53508 0.22563
 C1729 C 0.21055 0.54161 0.23198
 C1730 C 0.20226 0.55442 0.22364
 H1731 H 0.20368 0.60133 0.16586
 H1732 H 0.19057 0.62540 0.15257
 H1733 H 0.15250 0.62542 0.19058
 H1734 H 0.16579 0.60135 0.20370
 H1735 H 0.22873 0.55930 0.19094
 H1736 H 0.24336 0.53683 0.20546
 H1737 H 0.20531 0.53690 0.24345
 H1738 H 0.19083 0.55938 0.22879
 C1739 C 0.18560 0.09898 0.68588
 C1740 C 0.17113 0.10582 0.69269
 C1741 C 0.16357 0.11956 0.68516
 C1742 C 0.17042 0.12666 0.67070
 C1743 C 0.18491 0.11957 0.66388
 C1744 C 0.19244 0.10583 0.67143
 C1745 C 0.19364 0.08514 0.69391
 C1746 C 0.20048 0.07368 0.70075
 C1747 C 0.20878 0.06016 0.70903
 C1748 C 0.20228 0.05369 0.72382
 C1749 C 0.21058 0.04087 0.73213
 C1750 C 0.22553 0.03436 0.72575
 C1751 C 0.23189 0.04086 0.71080
 C1752 C 0.22356 0.05368 0.70251
 H1753 H 0.16574 0.10062 0.70389
 H1754 H 0.15244 0.12467 0.69076
 H1755 H 0.19053 0.12469 0.65277
 H1756 H 0.20366 0.10064 0.66607
 H1757 H 0.19086 0.05864 0.72898
 H1758 H 0.20536 0.03615 0.74360
 H1759 H 0.24336 0.03613 0.70556
 H1760 H 0.22871 0.05862 0.69109
 C1761 C 0.31419 0.59989 0.31411
 C1762 C 0.32864 0.60676 0.30727
 C1763 C 0.33620 0.62051 0.31478
 C1764 C 0.32937 0.62761 0.32925
 C1765 C 0.31491 0.62049 0.33611
 C1766 C 0.30738 0.60674 0.32857
 C1767 C 0.30616 0.58603 0.30610
 C1768 C 0.29932 0.57456 0.29928
 C1769 C 0.29102 0.56102 0.29102
 C1770 C 0.29753 0.55451 0.27626
 C1771 C 0.28922 0.54167 0.26797
 C1772 C 0.27426 0.53518 0.27434
 C1773 C 0.26789 0.54172 0.28927
 C1774 C 0.27623 0.55456 0.29754
 H1775 H 0.33401 0.60156 0.29606
 H1776 H 0.34731 0.62564 0.30916
 H1777 H 0.30931 0.62561 0.34723
 H1778 H 0.29618 0.60152 0.33396
 H1779 H 0.30896 0.55944 0.27110
 H1780 H 0.29446 0.53692 0.25651
 H1781 H 0.25641 0.53701 0.29451
 H1782 H 0.27107 0.55953 0.30894
 C1783 C 0.31420 0.09904 0.81434
 C1784 C 0.32867 0.10590 0.80753
 C1785 C 0.33622 0.11965 0.81506
 C1786 C 0.32936 0.12675 0.82951
 C1787 C 0.31487 0.11966 0.83633
 C1788 C 0.30735 0.10591 0.82878
 C1789 C 0.30617 0.08520 0.80631
 C1790 C 0.29934 0.07373 0.79947
 C1791 C 0.29105 0.06020 0.79118
 C1792 C 0.29756 0.05374 0.77639
 C1793 C 0.28926 0.04091 0.76807
 C1794 C 0.27431 0.03438 0.77444
 C1795 C 0.26795 0.04087 0.78940
 C1796 C 0.27628 0.05370 0.79769
 H1797 H 0.33406 0.10069 0.79634
 H1798 H 0.34736 0.12476 0.80947
 H1799 H 0.30925 0.12478 0.84744
 H1800 H 0.29613 0.10071 0.83414
 H1801 H 0.30898 0.05870 0.77123
 H1802 H 0.29449 0.03620 0.75659
 H1803 H 0.25648 0.03613 0.79463
 H1804 H 0.27112 0.05863 0.80912
 C1805 C 0.81442 0.59965 0.81442
 C1806 C 0.82888 0.60651 0.80758
 C1807 C 0.83643 0.62027 0.81509
 C1808 C 0.82959 0.62738 0.82955
 C1809 C 0.81512 0.62027 0.83641
 C1810 C 0.80760 0.60651 0.82888
 C1811 C 0.80639 0.58579 0.80641
 C1812 C 0.79955 0.57432 0.79959
 C1813 C 0.79126 0.56079 0.79130
 C1814 C 0.79778 0.55431 0.77653
 C1815 C 0.78948 0.54148 0.76821
 C1816 C 0.77451 0.53498 0.77456
 C1817 C 0.76814 0.54149 0.78951
 C1818 C 0.77647 0.55431 0.79780
 H1819 H 0.83425 0.60131 0.79638
 H1820 H 0.84754 0.62540 0.80947
 H1821 H 0.80951 0.62539 0.84752
 H1822 H 0.79639 0.60130 0.83426
 H1823 H 0.80921 0.55925 0.77138
 H1824 H 0.79471 0.53676 0.75674
 H1825 H 0.75666 0.53676 0.79473
 H1826 H 0.77130 0.55926 0.80922
 C1827 C 0.81430 0.09929 0.31395
 C1828 C 0.82878 0.10614 0.30714
 C1829 C 0.83635 0.11987 0.31467
 C1830 C 0.82951 0.12697 0.32915
 C1831 C 0.81502 0.11987 0.33597
 C1832 C 0.80748 0.10614 0.32841
 C1833 C 0.80625 0.08546 0.30592
 C1834 C 0.79940 0.07400 0.29908
 C1835 C 0.79109 0.06048 0.29079
 C1836 C 0.79758 0.05401 0.27601
 C1837 C 0.78926 0.04118 0.26770
 C1838 C 0.77431 0.03468 0.27408
 C1839 C 0.76796 0.04119 0.28903
 C1840 C 0.77630 0.05401 0.29731
 H1841 H 0.83415 0.10094 0.29593
 H1842 H 0.84748 0.12498 0.30908
 H1843 H 0.80941 0.12499 0.34709
 H1844 H 0.79626 0.10095 0.33377
 H1845 H 0.80900 0.05895 0.27084
 H1846 H 0.79448 0.03646 0.25623
 H1847 H 0.75648 0.03647 0.29427
 H1848 H 0.77116 0.05896 0.30874
 C1849 C 0.68591 0.40019 0.31396
 C1850 C 0.67145 0.39333 0.30713
 C1851 C 0.66388 0.37959 0.31463
 C1852 C 0.67072 0.37249 0.32911
 C1853 C 0.68520 0.37959 0.33596
 C1854 C 0.69273 0.39334 0.32842
 C1855 C 0.69395 0.41404 0.30595
 C1856 C 0.70079 0.42551 0.29913
 C1857 C 0.70908 0.43904 0.29086
 C1858 C 0.70255 0.44553 0.27609
 C1859 C 0.71084 0.45837 0.26779
 C1860 C 0.72580 0.46488 0.27415
 C1861 C 0.73218 0.45836 0.28908
 C1862 C 0.72387 0.44552 0.29736
 H1863 H 0.66608 0.39853 0.29592
 H1864 H 0.65276 0.37447 0.30902
 H1865 H 0.69080 0.37447 0.34708
 H1866 H 0.70394 0.39854 0.33380
 H1867 H 0.69112 0.44059 0.27093
 H1868 H 0.70560 0.46310 0.25633
 H1869 H 0.74367 0.46309 0.29431
 H1870 H 0.72904 0.44057 0.30877
 C1871 C 0.68583 0.90098 0.81437
 C1872 C 0.67134 0.89413 0.80757
 C1873 C 0.66379 0.88039 0.81510
 C1874 C 0.67066 0.87329 0.82955
 C1875 C 0.68517 0.88038 0.83636
 C1876 C 0.69268 0.89412 0.82880
 C1877 C 0.69385 0.91482 0.80633
 C1878 C 0.70067 0.92629 0.79949
 C1879 C 0.70895 0.93981 0.79118
 C1880 C 0.70243 0.94626 0.77640
 C1881 C 0.71072 0.95908 0.76806
 C1882 C 0.72566 0.96562 0.77442
 C1883 C 0.73204 0.95915 0.78938
 C1884 C 0.72373 0.94632 0.79769
 H1885 H 0.66594 0.89934 0.79638
 H1886 H 0.65265 0.87528 0.80951
 H1887 H 0.69080 0.87526 0.84746
 H1888 H 0.70391 0.89932 0.83416
 H1889 H 0.69101 0.94129 0.77124
 H1890 H 0.70548 0.96378 0.75659
 H1891 H 0.74351 0.96390 0.79461
 H1892 H 0.72889 0.94141 0.80911
 C1893 C 0.18553 0.40026 0.81443
 C1894 C 0.17107 0.39341 0.80758
 C1895 C 0.16352 0.37964 0.81507
 C1896 C 0.17035 0.37253 0.82953
 C1897 C 0.18482 0.37963 0.83640
 C1898 C 0.19235 0.39339 0.82888
 C1899 C 0.19356 0.41412 0.80643
 C1900 C 0.20040 0.42559 0.79962
 C1901 C 0.20869 0.43913 0.79134
 C1902 C 0.20216 0.44561 0.77658
 C1903 C 0.21045 0.45844 0.76826
 C1904 C 0.22542 0.46494 0.77461
 C1905 C 0.23181 0.45843 0.78955
 C1906 C 0.22349 0.44560 0.79784
 H1907 H 0.16570 0.39862 0.79638
 H1908 H 0.15240 0.37452 0.80944
 H1909 H 0.19043 0.37450 0.84751
 H1910 H 0.20355 0.39860 0.83427
 H1911 H 0.19072 0.44067 0.77143
 H1912 H 0.20521 0.46317 0.75680
 H1913 H 0.24330 0.46315 0.79476
 H1914 H 0.22866 0.44065 0.80925
 C1915 C 0.18566 0.90089 0.31420
 C1916 C 0.17119 0.89402 0.30738
 C1917 C 0.16364 0.88028 0.31491
 C1918 C 0.17050 0.87319 0.32937
 C1919 C 0.18498 0.88030 0.33620
 C1920 C 0.19250 0.89404 0.32865
 C1921 C 0.19368 0.91473 0.30617
 C1922 C 0.20051 0.92620 0.29933
 C1923 C 0.20880 0.93973 0.29105
 C1924 C 0.20230 0.94620 0.27627
 C1925 C 0.21060 0.95903 0.26796
 C1926 C 0.22554 0.96555 0.27434
 C1927 C 0.23190 0.95906 0.28929
 C1928 C 0.22358 0.94623 0.29757
 H1929 H 0.16580 0.89922 0.29618
 H1930 H 0.15251 0.87515 0.30931
 H1931 H 0.19060 0.87518 0.34731
 H1932 H 0.20372 0.89925 0.33401
 H1933 H 0.19088 0.94124 0.27110
 H1934 H 0.20537 0.96374 0.25648
 H1935 H 0.24337 0.96379 0.29454
 H1936 H 0.22873 0.94130 0.30900
 C1937 C 0.40028 0.31389 0.68606
 C1938 C 0.39342 0.30706 0.67160
 C1939 C 0.37967 0.31459 0.66406
 C1940 C 0.37257 0.32906 0.67091
 C1941 C 0.37966 0.33590 0.68539
 C1942 C 0.39341 0.32834 0.69290
 C1943 C 0.41412 0.30586 0.69407
 C1944 C 0.42560 0.29902 0.70088
 C1945 C 0.43914 0.29072 0.70914
 C1946 C 0.44560 0.27593 0.70262
 C1947 C 0.45844 0.26761 0.71088
 C1948 C 0.46498 0.27398 0.72582
 C1949 C 0.45849 0.28894 0.73220
 C1950 C 0.44565 0.29723 0.72391
 H1951 H 0.39863 0.29586 0.66621
 H1952 H 0.37456 0.30898 0.65294
 H1953 H 0.37454 0.34702 0.69100
 H1954 H 0.39862 0.33372 0.70410
 H1955 H 0.44063 0.27077 0.69121
 H1956 H 0.46315 0.25613 0.70564
 H1957 H 0.46323 0.29417 0.74366
 H1958 H 0.44071 0.30866 0.72908
 C1959 C 0.40055 0.81476 0.18566
 C1960 C 0.39368 0.82922 0.19249
 C1961 C 0.37993 0.83677 0.18498
 C1962 C 0.37282 0.82991 0.17052
 C1963 C 0.37993 0.81544 0.16367
 C1964 C 0.39368 0.80792 0.17121
 C1965 C 0.41439 0.80674 0.19368
 C1966 C 0.42586 0.79990 0.20051
 C1967 C 0.43939 0.79161 0.20879
 C1968 C 0.44587 0.79813 0.22356
 C1969 C 0.45869 0.78983 0.23188
 C1970 C 0.46518 0.77486 0.22552
 C1971 C 0.45868 0.76849 0.21058
 C1972 C 0.44586 0.77682 0.20229
 H1973 H 0.39889 0.83461 0.20369
 H1974 H 0.37481 0.84789 0.19060
 H1975 H 0.37481 0.80982 0.15256
 H1976 H 0.39889 0.79671 0.16583
 H1977 H 0.44093 0.80956 0.22872
 H1978 H 0.46341 0.79507 0.24335
 H1979 H 0.46339 0.75701 0.20535
 H1980 H 0.44091 0.77165 0.19087
 C1981 C 0.90069 0.31398 0.18565
 C1982 C 0.89382 0.30715 0.17120
 C1983 C 0.88008 0.31468 0.16366
 C1984 C 0.87300 0.32917 0.17049
 C1985 C 0.88011 0.33602 0.18495
 C1986 C 0.89385 0.32846 0.19247
 C1987 C 0.91453 0.30594 0.19368
 C1988 C 0.92599 0.29911 0.20051
 C1989 C 0.93952 0.29082 0.20880
 C1990 C 0.94600 0.27603 0.20230
 C1991 C 0.95883 0.26772 0.21059
 C1992 C 0.96533 0.27410 0.22553
 C1993 C 0.95882 0.28906 0.23189
 C1994 C 0.94600 0.29735 0.22357
 H1995 H 0.89901 0.29593 0.16583
 H1996 H 0.87495 0.30907 0.15254
 H1997 H 0.87500 0.34715 0.19056
 H1998 H 0.89906 0.33384 0.20367
 H1999 H 0.94105 0.27086 0.19088
 H2000 H 0.96355 0.25623 0.20537
 H2001 H 0.96355 0.29430 0.24336
 H2002 H 0.94105 0.30878 0.22873
 C2003 C 0.90062 0.81467 0.68594
 C2004 C 0.89376 0.80784 0.67149
 C2005 C 0.88001 0.81535 0.66394
 C2006 C 0.87290 0.82983 0.67079
 C2007 C 0.88001 0.83668 0.68525
 C2008 C 0.89376 0.82914 0.69277
 C2009 C 0.91446 0.80665 0.69396
 C2010 C 0.92593 0.79980 0.70077
 C2011 C 0.93946 0.79149 0.70903
 C2012 C 0.94591 0.77670 0.70250
 C2013 C 0.95873 0.76835 0.71076
 C2014 C 0.96527 0.77469 0.72571
 C2015 C 0.95879 0.78965 0.73210
 C2016 C 0.94596 0.79797 0.72381
 H2017 H 0.89897 0.79663 0.66611
 H2018 H 0.87489 0.80974 0.65283
 H2019 H 0.87488 0.84780 0.69086
 H2020 H 0.89896 0.83452 0.70397
 H2021 H 0.94094 0.77155 0.69108
 H2022 H 0.96343 0.75687 0.70551
 H2023 H 0.96353 0.79486 0.74357
 H2024 H 0.94104 0.80940 0.72899
 C2025 C 0.59958 0.31394 0.31395
 C2026 C 0.60645 0.32840 0.30711
 C2027 C 0.62020 0.33595 0.31463
 C2028 C 0.62730 0.32911 0.32910
 C2029 C 0.62019 0.31463 0.33594
 C2030 C 0.60643 0.30711 0.32840
 C2031 C 0.58573 0.30592 0.30593
 C2032 C 0.57425 0.29908 0.29911
 C2033 C 0.56070 0.29079 0.29084
 C2034 C 0.55420 0.29732 0.27609
 C2035 C 0.54135 0.28903 0.26779
 C2036 C 0.53485 0.27406 0.27415
 C2037 C 0.54139 0.26768 0.28908
 C2038 C 0.55423 0.27600 0.29735
 H2039 H 0.60125 0.33377 0.29591
 H2040 H 0.62533 0.34707 0.30902
 H2041 H 0.62530 0.30902 0.34706
 H2042 H 0.60122 0.29591 0.33378
 H2043 H 0.55913 0.30875 0.27093
 H2044 H 0.53660 0.29427 0.25634
 H2045 H 0.53667 0.25620 0.29431
 H2046 H 0.55920 0.27083 0.30875
 C2047 C 0.59952 0.81474 0.81447
 C2048 C 0.60637 0.82921 0.80765
 C2049 C 0.62013 0.83676 0.81515
 C2050 C 0.62725 0.82991 0.82961
 C2051 C 0.62015 0.81543 0.83645
 C2052 C 0.60639 0.80791 0.82892
 C2053 C 0.58567 0.80671 0.80646
 C2054 C 0.57420 0.79987 0.79964
 C2055 C 0.56066 0.79158 0.79135
 C2056 C 0.55419 0.79808 0.77657
 C2057 C 0.54137 0.78977 0.76825
 C2058 C 0.53486 0.77482 0.77462
 C2059 C 0.54136 0.76846 0.78958
 C2060 C 0.55418 0.77679 0.79787
 H2061 H 0.60116 0.83459 0.79645
 H2062 H 0.62525 0.84789 0.80954
 H2063 H 0.62528 0.80982 0.84756
 H2064 H 0.60119 0.79670 0.83429
 H2065 H 0.55915 0.80950 0.77141
 H2066 H 0.53666 0.79500 0.75678
 H2067 H 0.53663 0.75698 0.79481
 H2068 H 0.55912 0.77164 0.80929
 C2069 C 0.09933 0.31391 0.81417
 C2070 C 0.10618 0.32839 0.80738
 C2071 C 0.11991 0.33595 0.81493
 C2072 C 0.12700 0.32909 0.82940
 C2073 C 0.11991 0.31458 0.83620
 C2074 C 0.10618 0.30706 0.82862
 C2075 C 0.08550 0.30588 0.80612
 C2076 C 0.07404 0.29904 0.79926
 C2077 C 0.06053 0.29075 0.79096
 C2078 C 0.05409 0.29725 0.77616
 C2079 C 0.04126 0.28896 0.76783
 C2080 C 0.03472 0.27402 0.77420
 C2081 C 0.04119 0.26766 0.78916
 C2082 C 0.05401 0.27598 0.79747
 H2083 H 0.10099 0.33378 0.79618
 H2084 H 0.12503 0.34709 0.80935
 H2085 H 0.12501 0.30896 0.84731
 H2086 H 0.10097 0.29583 0.83397
 H2087 H 0.05906 0.30867 0.77100
 H2088 H 0.03657 0.29419 0.75634
 H2089 H 0.03643 0.25620 0.79440
 H2090 H 0.05892 0.27083 0.80890
 C2091 C 0.09942 0.81457 0.31425
 C2092 C 0.10627 0.82904 0.30741
 C2093 C 0.12001 0.83660 0.31492
 C2094 C 0.12712 0.82977 0.32940
 C2095 C 0.12002 0.81530 0.33625
 C2096 C 0.10628 0.80776 0.32871
 C2097 C 0.08558 0.80652 0.30623
 C2098 C 0.07412 0.79966 0.29941
 C2099 C 0.06059 0.79134 0.29114
 C2100 C 0.05408 0.79785 0.27638
 C2101 C 0.04126 0.78952 0.26808
 C2102 C 0.03480 0.77454 0.27444
 C2103 C 0.04134 0.76818 0.28937
 C2104 C 0.05416 0.77654 0.29765
 H2105 H 0.10106 0.83440 0.29621
 H2106 H 0.12513 0.84773 0.30931
 H2107 H 0.12514 0.80970 0.34736
 H2108 H 0.10108 0.79654 0.33409
 H2109 H 0.05899 0.80929 0.27122
 H2110 H 0.03651 0.79475 0.25662
 H2111 H 0.03665 0.75669 0.29460
 H2112 H 0.05913 0.77138 0.30905
 C2113 C 0.59959 0.68606 0.68617
 C2114 C 0.60645 0.67160 0.69301
 C2115 C 0.62019 0.66404 0.68549
 C2116 C 0.62728 0.67087 0.67101
 C2117 C 0.62017 0.68534 0.66416
 C2118 C 0.60643 0.69287 0.67171
 C2119 C 0.58575 0.69410 0.69419
 C2120 C 0.57429 0.70094 0.70101
 C2121 C 0.56076 0.70925 0.70928
 C2122 C 0.55427 0.70275 0.72405
 C2123 C 0.54144 0.71106 0.73235
 C2124 C 0.53494 0.72601 0.72596
 C2125 C 0.54146 0.73237 0.71102
 C2126 C 0.55429 0.72403 0.70275
 H2127 H 0.60126 0.66623 0.70422
 H2128 H 0.62531 0.65292 0.69110
 H2129 H 0.62528 0.69094 0.65304
 H2130 H 0.60123 0.70408 0.66633
 H2131 H 0.55920 0.69132 0.72922
 H2132 H 0.53670 0.70583 0.74381
 H2133 H 0.53674 0.74384 0.70578
 H2134 H 0.55925 0.72918 0.69134
 C2135 C 0.59934 0.18550 0.18547
 C2136 C 0.60619 0.17102 0.19229
 C2137 C 0.61994 0.16348 0.18478
 C2138 C 0.62705 0.17034 0.17032
 C2139 C 0.61995 0.18483 0.16349
 C2140 C 0.60620 0.19234 0.17104
 C2141 C 0.58549 0.19352 0.19350
 C2142 C 0.57403 0.20035 0.20034
 C2143 C 0.56050 0.20862 0.20864
 C2144 C 0.55405 0.20209 0.22341
 C2145 C 0.54123 0.21038 0.23175
 C2146 C 0.53472 0.22534 0.22541
 C2147 C 0.54120 0.23173 0.21047
 C2148 C 0.55401 0.22341 0.20215
 H2149 H 0.60098 0.16563 0.20348
 H2150 H 0.62505 0.15235 0.19037
 H2151 H 0.62508 0.19045 0.15239
 H2152 H 0.60101 0.20356 0.16567
 H2153 H 0.55900 0.19066 0.22855
 H2154 H 0.53653 0.20514 0.24322
 H2155 H 0.53647 0.24321 0.20525
 H2156 H 0.55894 0.22859 0.19074
 C2157 C 0.09944 0.68600 0.18571
 C2158 C 0.10628 0.67151 0.19251
 C2159 C 0.12002 0.66396 0.18499
 C2160 C 0.12713 0.67081 0.17053
 C2161 C 0.12004 0.68531 0.16371
 C2162 C 0.10631 0.69284 0.17127
 C2163 C 0.08561 0.69403 0.19374
 C2164 C 0.07415 0.70085 0.20059
 C2165 C 0.06063 0.70912 0.20891
 C2166 C 0.05419 0.70259 0.22369
 C2167 C 0.04137 0.71085 0.23204
 C2168 C 0.03483 0.72581 0.22570
 C2169 C 0.04129 0.73220 0.21075
 C2170 C 0.05412 0.72390 0.20243
 H2171 H 0.10108 0.66613 0.20370
 H2172 H 0.12512 0.65282 0.19058
 H2173 H 0.12517 0.69093 0.15261
 H2174 H 0.10112 0.70407 0.16591
 H2175 H 0.05917 0.69116 0.22883
 H2176 H 0.03668 0.70560 0.24351
 H2177 H 0.03654 0.74367 0.20554
 H2178 H 0.05903 0.72908 0.19101
 C2179 C 0.09929 0.18518 0.68579
 C2180 C 0.10615 0.17073 0.69263
 C2181 C 0.11990 0.16318 0.68512
 C2182 C 0.12700 0.17001 0.67065
 C2183 C 0.11989 0.18448 0.66380
 C2184 C 0.10614 0.19200 0.67133
 C2185 C 0.08544 0.19322 0.69380
 C2186 C 0.07398 0.20007 0.70061
 C2187 C 0.06045 0.20839 0.70887
 C2188 C 0.05395 0.20191 0.72365
 C2189 C 0.04114 0.21024 0.73194
 C2190 C 0.03466 0.22520 0.72554
 C2191 C 0.04118 0.23153 0.71060
 C2192 C 0.05400 0.22318 0.70233
 H2193 H 0.10095 0.16536 0.70383
 H2194 H 0.12503 0.15206 0.69074
 H2195 H 0.12500 0.19008 0.65268
 H2196 H 0.10093 0.20321 0.66595
 H2197 H 0.05888 0.19048 0.72883
 H2198 H 0.03639 0.20503 0.74341
 H2199 H 0.03648 0.24301 0.70534
 H2200 H 0.05896 0.22831 0.69091
 C2201 C 0.40043 0.68623 0.31407
 C2202 C 0.39358 0.69305 0.32852
 C2203 C 0.37984 0.68552 0.33607
 C2204 C 0.37274 0.67104 0.32923
 C2205 C 0.37983 0.66419 0.31476
 C2206 C 0.39357 0.67176 0.30724
 C2207 C 0.41427 0.69426 0.30605
 C2208 C 0.42574 0.70110 0.29922
 C2209 C 0.43927 0.70939 0.29094
 C2210 C 0.44575 0.72418 0.29745
 C2211 C 0.45859 0.73249 0.28917
 C2212 C 0.46510 0.72612 0.27423
 C2213 C 0.45858 0.71116 0.26786
 C2214 C 0.44575 0.70287 0.27617
 H2215 H 0.39879 0.70427 0.33390
 H2216 H 0.37473 0.69113 0.34719
 H2217 H 0.37471 0.65307 0.30915
 H2218 H 0.39877 0.66638 0.29603
 H2219 H 0.44081 0.72934 0.30886
 H2220 H 0.46332 0.74397 0.29440
 H2221 H 0.46331 0.70592 0.25639
 H2222 H 0.44080 0.69144 0.27101
 C2223 C 0.40048 0.18531 0.81440
 C2224 C 0.39362 0.17084 0.80758
 C2225 C 0.37987 0.16329 0.81509
 C2226 C 0.37277 0.17014 0.82955
 C2227 C 0.37986 0.18463 0.83639
 C2228 C 0.39361 0.19215 0.82885
 C2229 C 0.41432 0.19334 0.80638
 C2230 C 0.42578 0.20018 0.79955
 C2231 C 0.43930 0.20847 0.79125
 C2232 C 0.44576 0.20195 0.77647
 C2233 C 0.45857 0.21025 0.76814
 C2234 C 0.46509 0.22521 0.77450
 C2235 C 0.45861 0.23158 0.78945
 C2236 C 0.44579 0.22326 0.79776
 H2237 H 0.39883 0.16545 0.79639
 H2238 H 0.37476 0.15215 0.80949
 H2239 H 0.37474 0.19025 0.84749
 H2240 H 0.39881 0.20337 0.83422
 H2241 H 0.44081 0.19052 0.77132
 H2242 H 0.46328 0.20501 0.75667
 H2243 H 0.46334 0.24306 0.79468
 H2244 H 0.44087 0.22842 0.80918
 C2245 C 0.90060 0.68602 0.81429
 C2246 C 0.89375 0.69287 0.82874
 C2247 C 0.88001 0.68534 0.83630
 C2248 C 0.87293 0.67083 0.82949
 C2249 C 0.88003 0.66397 0.81503
 C2250 C 0.89376 0.67154 0.80749
 C2251 C 0.91444 0.69405 0.80626
 C2252 C 0.92590 0.70089 0.79941
 C2253 C 0.93942 0.70917 0.79111
 C2254 C 0.94594 0.72394 0.79762
 C2255 C 0.95876 0.73225 0.78932
 C2256 C 0.96523 0.72589 0.77436
 C2257 C 0.95868 0.71095 0.76799
 C2258 C 0.94585 0.70266 0.77632
 H2259 H 0.89894 0.70410 0.83410
 H2260 H 0.87490 0.69096 0.84741
 H2261 H 0.87492 0.65283 0.80944
 H2262 H 0.89896 0.66614 0.79630
 H2263 H 0.94103 0.72910 0.80906
 H2264 H 0.96352 0.74372 0.79456
 H2265 H 0.96337 0.70571 0.75651
 H2266 H 0.94088 0.69124 0.77115
 C2267 C 0.90068 0.18547 0.31408
 C2268 C 0.89381 0.17102 0.30724
 C2269 C 0.88005 0.16347 0.31474
 C2270 C 0.87296 0.17031 0.32921
 C2271 C 0.88007 0.18478 0.33607
 C2272 C 0.89383 0.19230 0.32853
 C2273 C 0.91453 0.19350 0.30606
 C2274 C 0.92600 0.20033 0.29924
 C2275 C 0.93953 0.20862 0.29096
 C2276 C 0.94602 0.20210 0.27620
 C2277 C 0.95884 0.21040 0.26788
 C2278 C 0.96535 0.22536 0.27425
 C2279 C 0.95884 0.23174 0.28919
 C2280 C 0.94601 0.22342 0.29747
 H2281 H 0.89901 0.16564 0.29603
 H2282 H 0.87492 0.15235 0.30912
 H2283 H 0.87496 0.19039 0.34718
 H2284 H 0.89904 0.20351 0.33392
 H2285 H 0.94107 0.19067 0.27104
 H2286 H 0.96357 0.20516 0.25642
 H2287 H 0.96356 0.24322 0.29442
 H2288 H 0.94106 0.22858 0.30888
 C2289 C 0.31402 0.31389 0.59986
 C2290 C 0.32849 0.30706 0.60672
 C2291 C 0.33603 0.31458 0.62046
 C2292 C 0.32919 0.32906 0.62755
 C2293 C 0.31471 0.33591 0.62045
 C2294 C 0.30719 0.32836 0.60672
 C2295 C 0.30600 0.30587 0.58602
 C2296 C 0.29917 0.29903 0.57456
 C2297 C 0.29087 0.29075 0.56103
 C2298 C 0.29739 0.27597 0.55454
 C2299 C 0.28909 0.26766 0.54172
 C2300 C 0.27413 0.27404 0.53522
 C2301 C 0.26776 0.28898 0.54175
 C2302 C 0.27608 0.29727 0.55457
 H2303 H 0.33387 0.29585 0.60152
 H2304 H 0.34716 0.30897 0.62557
 H2305 H 0.30909 0.34703 0.62557
 H2306 H 0.29598 0.33374 0.60151
 H2307 H 0.30882 0.27081 0.55947
 H2308 H 0.29433 0.25619 0.53698
 H2309 H 0.25628 0.29422 0.53704
 H2310 H 0.27092 0.30869 0.55953
 C2311 C 0.31422 0.81466 0.09954
 C2312 C 0.32871 0.80786 0.10638
 C2313 C 0.33626 0.81540 0.12010
 C2314 C 0.32940 0.82987 0.12721
 C2315 C 0.31490 0.83668 0.12013
 C2316 C 0.30737 0.82911 0.10640
 C2317 C 0.30620 0.80661 0.08572
 C2318 C 0.29937 0.79975 0.07427
 C2319 C 0.29111 0.79141 0.06075
 C2320 C 0.29766 0.77662 0.05432
 C2321 C 0.28940 0.76826 0.04151
 C2322 C 0.27444 0.77459 0.03497
 C2323 C 0.26803 0.78955 0.04143
 C2324 C 0.27632 0.79789 0.05425
 H2325 H 0.33410 0.79666 0.10117
 H2326 H 0.34740 0.80981 0.12520
 H2327 H 0.30927 0.84780 0.12525
 H2328 H 0.29614 0.83447 0.10121
 H2329 H 0.30909 0.77149 0.05929
 H2330 H 0.29466 0.75677 0.03682
 H2331 H 0.25655 0.79475 0.03668
 H2332 H 0.27113 0.80932 0.05915
 C2333 C 0.81439 0.31407 0.09945
 C2334 C 0.82884 0.30721 0.10631
 C2335 C 0.83641 0.31472 0.12004
 C2336 C 0.82960 0.32922 0.12713
 C2337 C 0.81514 0.33609 0.12003
 C2338 C 0.80760 0.32856 0.10630
 C2339 C 0.80634 0.30606 0.08563
 C2340 C 0.79947 0.29924 0.07417
 C2341 C 0.79114 0.29098 0.06066
 C2342 C 0.79763 0.27621 0.05413
 C2343 C 0.78930 0.26792 0.04132
 C2344 C 0.77433 0.27431 0.03487
 C2345 C 0.76798 0.28925 0.04142
 C2346 C 0.77634 0.29752 0.05424
 H2347 H 0.83419 0.29598 0.10111
 H2348 H 0.84752 0.30908 0.12516
 H2349 H 0.80956 0.34724 0.12514
 H2350 H 0.79640 0.33396 0.10110
 H2351 H 0.80907 0.27103 0.05903
 H2352 H 0.79452 0.25645 0.03656
 H2353 H 0.75649 0.29450 0.03675
 H2354 H 0.77119 0.30894 0.05922
 C2355 C 0.81432 0.81454 0.59980
 C2356 C 0.82880 0.80774 0.60665
 C2357 C 0.83635 0.81529 0.62037
 C2358 C 0.82949 0.82976 0.62746
 C2359 C 0.81500 0.83658 0.62037
 C2360 C 0.80747 0.82900 0.60665
 C2361 C 0.80630 0.80649 0.58598
 C2362 C 0.79947 0.79962 0.57453
 C2363 C 0.79119 0.79130 0.56103
 C2364 C 0.79770 0.77649 0.55460
 C2365 C 0.78941 0.76814 0.54180
 C2366 C 0.77447 0.77450 0.53525
 C2367 C 0.76811 0.78948 0.54171
 C2368 C 0.77642 0.79781 0.55451
 H2369 H 0.83419 0.79653 0.60146
 H2370 H 0.84749 0.80969 0.62548
 H2371 H 0.80937 0.84770 0.62548
 H2372 H 0.79625 0.83436 0.60145
 H2373 H 0.80911 0.77133 0.55958
 H2374 H 0.79464 0.75664 0.53712
 H2375 H 0.75664 0.79472 0.53696
 H2376 H 0.77126 0.80926 0.55942
 C2377 C 0.31423 0.68615 0.40030
 C2378 C 0.30741 0.67167 0.39346
 C2379 C 0.31493 0.66413 0.37972
 C2380 C 0.32939 0.67100 0.37261
 C2381 C 0.33623 0.68549 0.37970
 C2382 C 0.32868 0.69300 0.39344
 C2383 C 0.30621 0.69416 0.41414
 C2384 C 0.29937 0.70098 0.42560
 C2385 C 0.29106 0.70925 0.43913
 C2386 C 0.27627 0.70272 0.44557
 C2387 C 0.26794 0.71098 0.45839
 C2388 C 0.27430 0.72593 0.46493
 C2389 C 0.28926 0.73232 0.45846
 C2390 C 0.29757 0.72403 0.44564
 H2391 H 0.29621 0.66628 0.39866
 H2392 H 0.30932 0.65300 0.37461
 H2393 H 0.34734 0.69112 0.37458
 H2394 H 0.33405 0.70422 0.39864
 H2395 H 0.27112 0.69129 0.44060
 H2396 H 0.25645 0.70573 0.46309
 H2397 H 0.29449 0.74380 0.46321
 H2398 H 0.30900 0.72921 0.44072
 C2399 C 0.31416 0.18537 0.90051
 C2400 C 0.32864 0.19219 0.89367
 C2401 C 0.33620 0.18465 0.87995
 C2402 C 0.32935 0.17017 0.87285
 C2403 C 0.31485 0.16333 0.87994
 C2404 C 0.30733 0.17090 0.89366
 C2405 C 0.30613 0.19341 0.91433
 C2406 C 0.29929 0.20025 0.92578
 C2407 C 0.29100 0.20856 0.93928
 C2408 C 0.29750 0.22337 0.94573
 C2409 C 0.28921 0.23170 0.95854
 C2410 C 0.27426 0.22532 0.96506
 C2411 C 0.26791 0.21034 0.95858
 C2412 C 0.27623 0.20203 0.94578
 H2413 H 0.33402 0.20340 0.89887
 H2414 H 0.34733 0.19026 0.87484
 H2415 H 0.30924 0.15221 0.87482
 H2416 H 0.29611 0.16553 0.89885
 H2417 H 0.30892 0.22854 0.94077
 H2418 H 0.29443 0.24320 0.96324
 H2419 H 0.25644 0.20509 0.96332
 H2420 H 0.27108 0.19059 0.94086
 C2421 C 0.81437 0.68599 0.90052
 C2422 C 0.80757 0.67149 0.89369
 C2423 C 0.81510 0.66394 0.87996
 C2424 C 0.82956 0.67082 0.87286
 C2425 C 0.83638 0.68532 0.87993
 C2426 C 0.82882 0.69285 0.89366
 C2427 C 0.80633 0.69401 0.91435
 C2428 C 0.79947 0.70083 0.92580
 C2429 C 0.79115 0.70910 0.93931
 C2430 C 0.77634 0.70259 0.94571
 C2431 C 0.76798 0.71086 0.95852
 C2432 C 0.77436 0.72579 0.96509
 C2433 C 0.78934 0.73216 0.95865
 C2434 C 0.79767 0.72386 0.94584
 H2435 H 0.79637 0.66609 0.89890
 H2436 H 0.80951 0.65280 0.87486
 H2437 H 0.84749 0.69096 0.87481
 H2438 H 0.83418 0.70408 0.89885
 H2439 H 0.77117 0.69118 0.94072
 H2440 H 0.75648 0.70563 0.96319
 H2441 H 0.79458 0.74363 0.96342
 H2442 H 0.80912 0.72903 0.94096
 C2443 C 0.81440 0.18548 0.40023
 C2444 C 0.80755 0.17103 0.39336
 C2445 C 0.81507 0.16348 0.37962
 C2446 C 0.82956 0.17032 0.37254
 C2447 C 0.83642 0.18479 0.37965
 C2448 C 0.82887 0.19231 0.39339
 C2449 C 0.80637 0.19351 0.41406
 C2450 C 0.79954 0.20035 0.42551
 C2451 C 0.79125 0.20864 0.43903
 C2452 C 0.77646 0.20212 0.44550
 C2453 C 0.76814 0.21042 0.45831
 C2454 C 0.77451 0.22539 0.46481
 C2455 C 0.78946 0.23176 0.45831
 C2456 C 0.79776 0.22344 0.44550
 H2457 H 0.79633 0.16566 0.39854
 H2458 H 0.80944 0.15236 0.37449
 H2459 H 0.84755 0.19040 0.37455
 H2460 H 0.83426 0.20351 0.39860
 H2461 H 0.77130 0.19069 0.44057
 H2462 H 0.75666 0.20518 0.46303
 H2463 H 0.79470 0.24325 0.46302
 H2464 H 0.80918 0.22860 0.44055
 C2465 C 0.68584 0.31396 0.40015
 C2466 C 0.67138 0.30712 0.39329
 C2467 C 0.66383 0.31463 0.37955
 C2468 C 0.67068 0.32912 0.37246
 C2469 C 0.68516 0.33597 0.37956
 C2470 C 0.69268 0.32842 0.39330
 C2471 C 0.69387 0.30593 0.41398
 C2472 C 0.70070 0.29911 0.42545
 C2473 C 0.70899 0.29083 0.43897
 C2474 C 0.70248 0.27604 0.44545
 C2475 C 0.71078 0.26774 0.45827
 C2476 C 0.72574 0.27412 0.46477
 C2477 C 0.73211 0.28908 0.45826
 C2478 C 0.72378 0.29736 0.44544
 H2479 H 0.66600 0.29591 0.39849
 H2480 H 0.65271 0.30902 0.37443
 H2481 H 0.69078 0.34709 0.37445
 H2482 H 0.70389 0.33380 0.39850
 H2483 H 0.69106 0.27087 0.44051
 H2484 H 0.70555 0.25626 0.46300
 H2485 H 0.74358 0.29432 0.46298
 H2486 H 0.72894 0.30879 0.44049
 C2487 C 0.68589 0.81469 0.90054
 C2488 C 0.67140 0.80788 0.89371
 C2489 C 0.66384 0.81542 0.87999
 C2490 C 0.67070 0.82989 0.87289
 C2491 C 0.68520 0.83671 0.87996
 C2492 C 0.69274 0.82914 0.89369
 C2493 C 0.69392 0.80664 0.91436
 C2494 C 0.70074 0.79978 0.92581
 C2495 C 0.70900 0.79144 0.93932
 C2496 C 0.70245 0.77665 0.94574
 C2497 C 0.71070 0.76828 0.95854
 C2498 C 0.72566 0.77461 0.96509
 C2499 C 0.73207 0.78957 0.95864
 C2500 C 0.72379 0.79792 0.94583
 H2501 H 0.66600 0.79668 0.89892
 H2502 H 0.65269 0.80982 0.87490
 H2503 H 0.69083 0.84783 0.87484
 H2504 H 0.70397 0.83450 0.89887
 H2505 H 0.69102 0.77151 0.94076
 H2506 H 0.70544 0.75680 0.96322
 H2507 H 0.74355 0.79478 0.96340
 H2508 H 0.72898 0.80935 0.94093
 C2509 C 0.18550 0.31388 0.90047
 C2510 C 0.17105 0.30704 0.89359
 C2511 C 0.16350 0.31457 0.87986
 C2512 C 0.17034 0.32907 0.87280
 C2513 C 0.18480 0.33593 0.87993
 C2514 C 0.19232 0.32837 0.89366
 C2515 C 0.19353 0.30584 0.91430
 C2516 C 0.20037 0.29901 0.92575
 C2517 C 0.20868 0.29073 0.93926
 C2518 C 0.20219 0.27593 0.94574
 C2519 C 0.21051 0.26762 0.95855
 C2520 C 0.22546 0.27402 0.96504
 C2521 C 0.23180 0.28899 0.95854
 C2522 C 0.22346 0.29727 0.94573
 H2523 H 0.16568 0.29580 0.89876
 H2524 H 0.15239 0.30895 0.87473
 H2525 H 0.19041 0.34707 0.87484
 H2526 H 0.20352 0.33376 0.89888
 H2527 H 0.19077 0.27074 0.94080
 H2528 H 0.20529 0.25614 0.96327
 H2529 H 0.24328 0.29425 0.96326
 H2530 H 0.22860 0.30871 0.94079
 C2531 C 0.18570 0.81465 0.40041
 C2532 C 0.17122 0.80782 0.39357
 C2533 C 0.16366 0.81534 0.37984
 C2534 C 0.17052 0.82981 0.37273
 C2535 C 0.18501 0.83665 0.37982
 C2536 C 0.19254 0.82910 0.39355
 C2537 C 0.19372 0.80661 0.41423
 C2538 C 0.20055 0.79977 0.42569
 C2539 C 0.20883 0.79146 0.43920
 C2540 C 0.20231 0.77665 0.44563
 C2541 C 0.21059 0.76831 0.45844
 C2542 C 0.22554 0.77468 0.46498
 C2543 C 0.23192 0.78965 0.45852
 C2544 C 0.22361 0.79797 0.44571
 H2545 H 0.16583 0.79661 0.39877
 H2546 H 0.15253 0.80973 0.37473
 H2547 H 0.19063 0.84777 0.37469
 H2548 H 0.20376 0.83448 0.39874
 H2549 H 0.19089 0.77149 0.44067
 H2550 H 0.20535 0.75682 0.46313
 H2551 H 0.24339 0.79488 0.46326
 H2552 H 0.22878 0.80941 0.44080
 C2553 C 0.68576 0.68598 0.59992
 C2554 C 0.67131 0.69282 0.60678
 C2555 C 0.66377 0.68531 0.62053
 C2556 C 0.67061 0.67083 0.62761
 C2557 C 0.68507 0.66396 0.62050
 C2558 C 0.69258 0.67151 0.60676
 C2559 C 0.69378 0.69399 0.58608
 C2560 C 0.70062 0.70081 0.57462
 C2561 C 0.70892 0.70908 0.56109
 C2562 C 0.70242 0.72386 0.55459
 C2563 C 0.71074 0.73215 0.54177
 C2564 C 0.72569 0.72576 0.53529
 C2565 C 0.73204 0.71080 0.54182
 C2566 C 0.72370 0.70254 0.55464
 H2567 H 0.66593 0.70404 0.60159
 H2568 H 0.65266 0.69094 0.62565
 H2569 H 0.69068 0.65284 0.62561
 H2570 H 0.70378 0.66612 0.60155
 H2571 H 0.69100 0.72904 0.55952
 H2572 H 0.70552 0.74363 0.53703
 H2573 H 0.74352 0.70555 0.53712
 H2574 H 0.72885 0.69111 0.55960
 C2575 C 0.68567 0.18557 0.09937
 C2576 C 0.69250 0.17110 0.10622
 C2577 C 0.68496 0.16354 0.11994
 C2578 C 0.67047 0.17037 0.12702
 C2579 C 0.66363 0.18486 0.11993
 C2580 C 0.67119 0.19239 0.10621
 C2581 C 0.69370 0.19361 0.08556
 C2582 C 0.70054 0.20046 0.07411
 C2583 C 0.70882 0.20878 0.06061
 C2584 C 0.72360 0.20228 0.05411
 C2585 C 0.73191 0.21060 0.04131
 C2586 C 0.72553 0.22557 0.03484
 C2587 C 0.71058 0.23192 0.04137
 C2588 C 0.70230 0.22358 0.05417
 H2589 H 0.70372 0.16573 0.10103
 H2590 H 0.69058 0.15241 0.12505
 H2591 H 0.65250 0.19046 0.12503
 H2592 H 0.66581 0.20360 0.10101
 H2593 H 0.72877 0.19084 0.05903
 H2594 H 0.74339 0.20538 0.03657
 H2595 H 0.70534 0.24341 0.03667
 H2596 H 0.69087 0.22873 0.05913
 C2597 C 0.18572 0.68594 0.09952
 C2598 C 0.17126 0.69280 0.10637
 C2599 C 0.16369 0.68528 0.12010
 C2600 C 0.17052 0.67079 0.12718
 C2601 C 0.18498 0.66392 0.12009
 C2602 C 0.19252 0.67146 0.10636
 C2603 C 0.19376 0.69396 0.08570
 C2604 C 0.20062 0.70079 0.07425
 C2605 C 0.20894 0.70906 0.06074
 C2606 C 0.20242 0.72382 0.05422
 C2607 C 0.21075 0.73213 0.04141
 C2608 C 0.22573 0.72576 0.03496
 C2609 C 0.23210 0.71083 0.04152
 C2610 C 0.22375 0.70255 0.05432
 H2611 H 0.16590 0.70402 0.10117
 H2612 H 0.15258 0.69091 0.12521
 H2613 H 0.19058 0.65278 0.12520
 H2614 H 0.20373 0.66607 0.10117
 H2615 H 0.19098 0.72898 0.05911
 H2616 H 0.20551 0.74359 0.03665
 H2617 H 0.24360 0.70559 0.03684
 H2618 H 0.22892 0.69114 0.05930
 C2619 C 0.18557 0.18523 0.59967
 C2620 C 0.17109 0.19203 0.60651
 C2621 C 0.16354 0.18450 0.62023
 C2622 C 0.17040 0.17003 0.62734
 C2623 C 0.18490 0.16321 0.62026
 C2624 C 0.19242 0.17077 0.60653
 C2625 C 0.19359 0.19327 0.58585
 C2626 C 0.20042 0.20012 0.57440
 C2627 C 0.20869 0.20844 0.56089
 C2628 C 0.20217 0.22324 0.55445
 C2629 C 0.21045 0.23159 0.54165
 C2630 C 0.22541 0.22524 0.53513
 C2631 C 0.23179 0.21027 0.54160
 C2632 C 0.22348 0.20195 0.55440
 H2633 H 0.16569 0.20323 0.60130
 H2634 H 0.15240 0.19009 0.62533
 H2635 H 0.19053 0.15210 0.62538
 H2636 H 0.20365 0.16541 0.60134
 H2637 H 0.19074 0.22839 0.55941
 H2638 H 0.20521 0.24308 0.53696
 H2639 H 0.24327 0.20505 0.53686
 H2640 H 0.22865 0.19051 0.55931
   
