data_POSCAR
  _audit_creation_date              2014-09-24
  _audit_creation_method            'ToBaCCo'
  _symmetry_space_group_name_H-M    'P1'
  _symmetry_Int_Tables_number       1
  _symmetry_cell_setting            triclinic
  loop_
  _symmetry_equiv_pos_as_xyz
 x,y,z
_cell_length_a 37.4818
_cell_length_b 37.9355
_cell_length_c 35.6841
_cell_angle_alpha 90.407300
_cell_angle_beta 91.097100
_cell_angle_gamma 91.166600
loop_
  _atom_site_label
  _atom_site_type_symbol
  _atom_site_fract_x
  _atom_site_fract_y
  _atom_site_fract_z
C1 C 0.35438 -0.00526 0.25152
 C2 C 0.15118 0.00687 0.74467
 C3 C 0.63355 0.48995 0.24424
 C4 C 0.85960 0.49783 0.75329
 C5 C 0.23537 0.38218 1.01135
 C6 C 0.74912 0.10664 0.98346
 C7 C 0.24689 0.60793 0.49846
 C8 C 0.73802 0.88215 0.50663
 C9 C -0.00411 0.23366 0.37220
 C10 C 0.00680 0.77276 0.12053
 C11 C 0.50330 0.26806 0.62082
 C12 C 0.49855 0.75658 0.87896
 C13 C -0.25947 0.61700 1.00497
 C14 C -0.26376 0.37764 0.48844
 C15 C 0.24782 -0.11716 0.00170
 C16 C 0.23351 1.10853 0.50725
 C17 C 0.13591 0.49068 0.26111
 C18 C -0.13323 0.99822 0.23877
 C19 C 0.36254 0.51022 -0.26040
 C20 C 0.63179 -0.00417 -0.24377
 C21 C 0.00828 0.26869 0.88034
 C22 C 0.49182 0.25804 0.12545
 C23 C -0.00700 0.73364 0.62340
 C24 C 0.51053 0.77186 0.37941
 Zr25 Zr 0.03033 -0.01144 1.04157
 O26 O 0.05960 0.01184 1.08703
 O27 O 0.02630 -0.06438 1.05801
 O28 O 0.00181 -0.01334 1.09187
 O29 O 0.10340 -0.02010 0.98423
 O30 O -0.05326 0.00682 1.07552
 O31 O 0.08387 -0.02790 1.04386
 O32 O -0.00678 -0.09061 1.01080
 O33 O -0.02132 -0.02686 1.02393
 O34 O 0.03538 -0.03741 0.99018
 O35 O 0.00137 0.03547 1.03847
 O36 O 0.05647 0.02525 1.00675
 Zr37 Zr -0.02074 0.03076 0.93102
 Zr38 Zr -0.04942 0.01991 1.01825
 Zr39 Zr 0.05884 -0.00069 0.95472
 Zr40 Zr -0.01596 -0.05070 0.97148
 O41 O 0.10361 0.03300 0.94631
 O42 O -0.06615 -0.07354 0.98505
 O43 O 0.00833 -0.01623 0.93334
 O44 O -0.04654 -0.00556 0.96612
 O45 O -0.02657 0.05711 0.98225
 O46 O 0.03070 0.04585 0.94924
 C47 C 0.01001 -0.09106 1.04249
 C48 C 0.10788 -0.02958 1.01856
 C49 C -0.03044 -0.00522 1.09948
 O50 O -0.09496 -0.01317 1.02479
 O51 O -0.09294 0.04145 0.98880
 O52 O -0.07311 0.05007 0.92938
 C53 C -0.09711 0.05163 0.95464
 O54 O 0.05696 0.08331 1.04906
 Zr55 Zr 0.02506 0.07047 1.00080
 O56 O -0.01857 0.08344 0.91481
 O57 O -0.06626 0.06457 1.04845
 O58 O -0.00345 0.10806 1.03195
 O59 O 0.07299 0.09649 0.98489
 O60 O 0.01096 0.11135 0.96343
 C61 C -0.00546 0.11104 0.93132
 O62 O -0.05090 0.00692 0.88654
 O63 O 0.07658 -0.04618 0.92651
 O64 O 0.00757 0.03211 0.88037
 O65 O 0.06116 0.00874 0.89693
 O66 O 0.01176 -0.09116 0.94373
 O67 O -0.04251 -0.06386 0.91994
 C68 C 0.03927 0.02199 0.87287
 H69 H 0.04986 -0.05889 0.99188
 H70 H -0.07051 -0.01231 0.95599
 H71 H 0.04300 0.06207 0.93188
 H72 H 0.00016 0.04712 1.06331
 H73 H -0.06470 -0.09932 0.98087
 H74 H -0.11191 0.00014 1.04017
 H75 H -0.09064 0.05897 1.05721
 H76 H 0.00807 0.13142 1.02783
 H77 H -0.00159 -0.11360 0.94773
 H78 H 0.10080 -0.04050 0.91733
 H79 H 0.12016 0.01987 0.93029
 H80 H 0.07019 0.12202 0.98978
 H81 H -0.05082 -0.08879 0.92046
 H82 H -0.05682 0.02581 0.86851
 H83 H 0.06541 -0.00724 1.10490
 H84 H 0.05958 0.10927 1.05143
 Zr85 Zr 0.53765 0.50326 0.55537
 O86 O 0.57039 0.53123 0.59489
 O87 O 0.53365 0.45327 0.57928
 O88 O 0.51203 0.50626 0.60749
 O89 O 0.60602 0.48613 0.49433
 O90 O 0.45676 0.52602 0.59139
 O91 O 0.59020 0.48356 0.55571
 O92 O 0.49687 0.42293 0.53818
 O93 O 0.48463 0.48799 0.54302
 O94 O 0.53843 0.47174 0.50708
 O95 O 0.50953 0.55036 0.54868
 O96 O 0.56232 0.53486 0.51449
 Zr97 Zr 0.48023 0.53543 0.44376
 Zr98 Zr 0.45731 0.53464 0.53332
 Zr99 Zr 0.56018 0.50357 0.46565
 Zr100 Zr 0.48581 0.45820 0.49390
 O101 O 0.60491 0.53452 0.44977
 O102 O 0.43617 0.43910 0.51385
 O103 O 0.50796 0.48778 0.45003
 O104 O 0.45620 0.50360 0.48461
 O105 O 0.47866 0.56719 0.49189
 O106 O 0.53311 0.55025 0.45669
 C107 C 0.51582 0.42563 0.56869
 C108 C 0.61232 0.47866 0.52895
 C109 C 0.47996 0.51488 0.61540
 O110 O 0.41108 0.50461 0.54655
 O111 O 0.41207 0.55408 0.50487
 O112 O 0.42811 0.55594 0.44353
 C113 C 0.40568 0.56054 0.47000
 O114 O 0.56687 0.59676 0.55002
 Zr115 Zr 0.53175 0.58018 0.50556
 O116 O 0.48348 0.58626 0.42121
 O117 O 0.44419 0.58271 0.55955
 O118 O 0.50657 0.62191 0.53394
 O119 O 0.57921 0.60247 0.48353
 O120 O 0.51676 0.61740 0.46478
 C121 C 0.49865 0.61475 0.43381
 O122 O 0.44654 0.50867 0.40413
 O123 O 0.57472 0.45467 0.44211
 O124 O 0.50505 0.52982 0.39149
 O125 O 0.55888 0.50618 0.40677
 O126 O 0.51051 0.41395 0.46963
 O127 O 0.45563 0.43972 0.44643
 C128 C 0.53566 0.51754 0.38292
 H129 H 0.55225 0.44999 0.51033
 H130 H 0.43152 0.49661 0.47696
 H131 H 0.54470 0.56399 0.43665
 H132 H 0.51007 0.56443 0.57217
 H133 H 0.43687 0.41300 0.51358
 H134 H 0.39596 0.51990 0.56200
 H135 H 0.42057 0.57885 0.57100
 H136 H 0.51854 0.64423 0.52644
 H137 H 0.49744 0.39259 0.47816
 H138 H 0.59847 0.45833 0.43085
 H139 H 0.62008 0.51905 0.43459
 H140 H 0.57763 0.62845 0.48573
 H141 H 0.44670 0.41542 0.45107
 H142 H 0.44011 0.52592 0.38448
 H143 H 0.57711 0.51428 0.61472
 H144 H 0.57062 0.62264 0.54900
 Zr145 Zr 0.46576 1.03087 0.56139
 O146 O 0.43460 1.00656 0.60319
 O147 O 0.47029 1.08248 0.58148
 O148 O 0.49325 1.03215 0.61366
 O149 O 0.39525 1.04332 0.49876
 O150 O 0.54707 1.00856 0.60007
 O151 O 0.41308 1.04955 0.56007
 O152 O 0.50650 1.10945 0.53921
 O153 O 0.51864 1.04428 0.54880
 O154 O 0.46373 1.05868 0.51101
 O155 O 0.49264 0.98290 0.55854
 O156 O 0.43910 0.99699 0.52248
 Zr157 Zr 0.51889 0.98958 0.45334
 Zr158 Zr 0.54472 0.99635 0.54264
 Zr159 Zr 0.44028 1.02422 0.47137
 Zr160 Zr 0.51628 1.07045 0.49778
 O161 O 0.39443 0.99329 0.45668
 O162 O 0.56663 1.09027 0.51727
 O163 O 0.49232 1.03809 0.45561
 O164 O 0.54499 1.02381 0.49201
 O165 O 0.52103 0.96159 0.50355
 O166 O 0.46620 0.97646 0.46646
 C167 C 0.48808 1.10913 0.56946
 C168 C 0.38987 1.05199 0.53314
 C169 C 0.52479 1.02203 0.62289
 O170 O 0.59220 1.02622 0.55306
 O171 O 0.58730 0.97098 0.51624
 O172 O 0.56959 0.96676 0.45483
 C173 C 0.59185 0.96134 0.48195
 O174 O 0.43318 0.93905 0.56211
 Zr175 Zr 0.46825 0.95056 0.51751
 O176 O 0.51532 0.93693 0.43537
 O177 O 0.55768 0.95060 0.57321
 O178 O 0.49247 0.91066 0.54998
 O179 O 0.42029 0.92708 0.49574
 O180 O 0.48269 0.90997 0.48074
 C181 C 0.50073 0.90969 0.45050
 O182 O 0.55206 1.01321 0.41279
 O183 O 0.42622 1.07166 0.44456
 O184 O 0.49314 0.99067 0.40043
 O185 O 0.43980 1.01587 0.41267
 O186 O 0.49179 1.11317 0.47003
 O187 O 0.54578 1.08470 0.44972
 C188 C 0.46231 1.00190 0.39029
 H189 H 0.45007 1.08067 0.51273
 H190 H 0.56964 1.02938 0.48413
 H191 H 0.45406 0.96114 0.44738
 H192 H 0.49240 0.97069 0.58297
 H193 H 0.56627 1.11630 0.51525
 H194 H 0.60752 1.01180 0.56961
 H195 H 0.58194 0.95470 0.58411
 H196 H 0.47953 0.88818 0.54417
 H197 H 0.50556 1.13488 0.47708
 H198 H 0.40214 1.06756 0.43321
 H199 H 0.37917 1.00805 0.44043
 H200 H 0.42154 0.90137 0.50019
 H201 H 0.55521 1.10915 0.45276
 H202 H 0.55799 0.99457 0.39442
 H203 H 0.42868 1.02518 0.62159
 H204 H 0.42851 0.91329 0.56308
 Zr205 Zr -0.03323 0.53654 1.07318
 O206 O -0.06425 0.51939 1.11882
 O207 O -0.02218 0.58867 1.08830
 O208 O -0.00337 0.53784 1.12411
 O209 O -0.10574 0.54844 1.01386
 O210 O 0.04687 0.50803 1.10960
 O211 O -0.08404 0.55964 1.07311
 O212 O 0.01278 0.60930 1.04126
 O213 O 0.01974 0.54373 1.05662
 O214 O -0.03564 0.56029 1.02040
 O215 O -0.01119 0.48614 1.07330
 O216 O -0.06507 0.50268 1.03876
 Zr217 Zr 0.00945 0.48081 0.96673
 Zr218 Zr 0.04078 0.49305 1.05328
 Zr219 Zr -0.06395 0.52505 0.98501
 Zr220 Zr 0.01678 0.56584 1.00342
 O221 O -0.11251 0.49723 0.97356
 O222 O 0.06956 0.58223 1.01855
 O223 O -0.01181 0.53206 0.96581
 O224 O 0.04038 0.51610 1.00030
 O225 O 0.01163 0.45732 1.01942
 O226 O -0.04336 0.47452 0.98343
 C227 C -0.00323 0.61271 1.07280
 C228 C -0.10872 0.56042 1.04752
 C229 C 0.02710 0.52462 1.13263
 O230 O 0.09051 0.51998 1.06001
 O231 O 0.08100 0.46427 1.02652
 O232 O 0.05841 0.45450 0.96752
 C233 C 0.08275 0.45133 0.99309
 O234 O -0.07402 0.45018 1.08496
 Zr235 Zr -0.04121 0.45344 1.03714
 O236 O -0.00058 0.42661 0.95596
 O237 O 0.05152 0.44771 1.08543
 O238 O -0.01980 0.41362 1.07189
 O239 O -0.09275 0.43447 1.02040
 O240 O -0.03476 0.40839 1.00471
 C241 C -0.01790 0.40294 0.97454
 O242 O 0.04239 0.49553 0.92157
 O243 O -0.07565 0.57212 0.95624
 O244 O -0.01819 0.48216 0.91490
 O245 O -0.06757 0.51439 0.92658
 O246 O -0.00566 0.60770 0.97242
 O247 O 0.04501 0.57358 0.95294
 C248 C -0.04715 0.49720 0.90449
 H249 H -0.04725 0.58349 1.02095
 H250 H 0.06482 0.51888 0.99054
 H251 H -0.05782 0.45920 0.96616
 H252 H -0.01125 0.47574 1.09866
 H253 H 0.07148 0.60797 1.01424
 H254 H 0.10545 0.50545 1.07684
 H255 H 0.07634 0.45050 1.09523
 H256 H -0.03604 0.39271 1.06996
 H257 H 0.00981 0.62888 0.97685
 H258 H -0.10063 0.56961 0.94687
 H259 H -0.12732 0.51267 0.95758
 H260 H -0.09477 0.40943 1.02796
 H261 H 0.05625 0.59744 0.95318
 H262 H 0.04468 0.47456 0.90505
 H263 H -0.06711 0.53999 1.13572
 H264 H -0.08207 0.42543 1.08852
 Zr265 Zr -0.02294 0.44425 0.45361
 O266 O -0.05209 0.44886 0.40246
 O267 O -0.01045 0.39052 0.45185
 O268 O 0.00832 0.43759 0.40525
 O269 O -0.09834 0.43928 0.50874
 O270 O 0.05721 0.47281 0.41750
 O271 O -0.07436 0.42026 0.45405
 O272 O 0.02387 0.38260 0.50446
 O273 O 0.02935 0.44396 0.47540
 O274 O -0.02700 0.43032 0.51004
 O275 O -0.00235 0.49557 0.44530
 O276 O -0.05623 0.48197 0.47809
 Zr277 Zr 0.01459 0.52144 0.55043
 Zr278 Zr 0.04886 0.49576 0.46990
 Zr279 Zr -0.05718 0.46923 0.53528
 Zr280 Zr 0.02473 0.43216 0.53218
 O281 O -0.10637 0.49554 0.53781
 O282 O 0.07842 0.41717 0.52518
 O283 O -0.00593 0.46986 0.55996
 O284 O 0.04713 0.48294 0.52668
 O285 O 0.01848 0.53533 0.49407
 O286 O -0.03759 0.52058 0.52856
 C287 C 0.00874 0.37147 0.47378
 C288 C -0.10020 0.42252 0.47723
 C289 C 0.03832 0.45203 0.39616
 O290 O 0.09880 0.47074 0.47190
 O291 O 0.08801 0.53036 0.49282
 O292 O 0.06396 0.54983 0.54723
 C293 C 0.08910 0.54917 0.52293
 O294 O -0.06414 0.52630 0.42158
 Zr295 Zr -0.03362 0.53260 0.47209
 O296 O 0.00268 0.57546 0.55056
 O297 O 0.06019 0.53567 0.43046
 O298 O -0.01046 0.56716 0.43247
 O299 O -0.08637 0.54998 0.48018
 O300 O -0.03004 0.58306 0.49676
 C301 C -0.01507 0.59451 0.52724
 O302 O 0.04519 0.51689 0.60058
 O303 O -0.06944 0.42691 0.57147
 O304 O -0.01682 0.52888 0.59839
 O305 O -0.06263 0.48869 0.59035
 O306 O 0.00149 0.39545 0.56955
 O307 O 0.05095 0.43592 0.58546
 C308 C -0.04541 0.51282 0.60928
 H309 H -0.03835 0.40677 0.51330
 H310 H 0.07124 0.48349 0.53852
 H311 H -0.05328 0.53748 0.54113
 H312 H -0.00175 0.50154 0.41837
 H313 H 0.08086 0.39312 0.53546
 H314 H 0.11424 0.48288 0.45358
 H315 H 0.08538 0.53297 0.42317
 H316 H -0.02649 0.58744 0.42947
 H317 H 0.01750 0.37503 0.57121
 H318 H -0.09462 0.42959 0.57874
 H319 H -0.12131 0.48255 0.55594
 H320 H -0.08840 0.57342 0.46832
 H321 H 0.06210 0.41315 0.59146
 H322 H 0.04662 0.54066 0.61236
 H323 H -0.05375 0.42507 0.39067
 H324 H -0.07146 0.54971 0.41249
 Zr325 Zr 0.46174 -0.01115 -0.05132
 O326 O 0.43278 0.01516 -0.09387
 O327 O 0.45990 -0.06326 -0.07104
 O328 O 0.48827 -0.01340 -0.10320
 O329 O 0.39147 -0.01834 0.01010
 O330 O 0.54508 0.00481 -0.08797
 O331 O 0.40680 -0.02518 -0.05109
 O332 O 0.49357 -0.09286 -0.02806
 O333 O 0.51290 -0.02878 -0.03766
 O334 O 0.45746 -0.03906 -0.00120
 O335 O 0.49418 0.03464 -0.04709
 O336 O 0.44036 0.02456 -0.01246
 Zr337 Zr 0.52196 0.02507 0.05892
 Zr338 Zr 0.54452 0.01686 -0.03052
 Zr339 Zr 0.43914 -0.00326 0.03818
 Zr340 Zr 0.50858 -0.05483 0.01332
 O341 O 0.39794 0.03137 0.05264
 O342 O 0.55595 -0.07831 -0.00546
 O343 O 0.48949 -0.02109 0.05520
 O344 O 0.54276 -0.01070 0.02003
 O345 O 0.52649 0.05315 0.00887
 O346 O 0.47076 0.04217 0.04476
 C347 C 0.47472 -0.09119 -0.05860
 C348 C 0.38415 -0.02633 -0.02433
 C349 C 0.52098 -0.00640 -0.11156
 O350 O 0.58792 -0.01658 -0.04043
 O351 O 0.59048 0.03780 -0.00361
 O352 O 0.57560 0.04405 0.05772
 C353 C 0.59764 0.04705 0.03049
 O354 O 0.44165 0.08422 -0.05124
 Zr355 Zr 0.47509 0.06853 -0.00582
 O356 O 0.52400 0.07725 0.07822
 O357 O 0.56229 0.06170 -0.06038
 O358 O 0.50449 0.10660 -0.03643
 O359 O 0.42994 0.09482 0.01467
 O360 O 0.49400 0.10741 0.03277
 C361 C 0.51191 0.10566 0.06386
 O362 O 0.55340 -0.00080 0.09977
 O363 O 0.41922 -0.04970 0.06363
 O364 O 0.49634 0.02426 0.11148
 O365 O 0.44054 0.00262 0.09676
 O366 O 0.47931 -0.09522 0.04070
 O367 O 0.53732 -0.07163 0.06169
 C368 C 0.46452 0.01412 0.12037
 H369 H 0.44111 -0.05983 -0.00330
 H370 H 0.56680 -0.01828 0.02814
 H371 H 0.46060 0.05781 0.06396
 H372 H 0.49508 0.04708 -0.07136
 H373 H 0.55267 -0.10420 -0.00336
 H374 H 0.60473 -0.00336 -0.05650
 H375 H 0.58579 0.05594 -0.07086
 H376 H 0.49481 0.13003 -0.03037
 H377 H 0.49007 -0.11800 0.03393
 H378 H 0.39594 -0.04385 0.07453
 H379 H 0.38114 0.01781 0.06842
 H380 H 0.43419 0.12047 0.01126
 H381 H 0.54329 -0.09680 0.05879
 H382 H 0.56135 0.01734 0.11844
 H383 H 0.42450 -0.00299 -0.11239
 H384 H 0.44060 0.11027 -0.05170
 Zr385 Zr 0.50459 0.54470 -0.04759
 O386 O 0.53194 0.53736 -0.09838
 O387 O 0.49233 0.59834 -0.04973
 O388 O 0.47112 0.55239 -0.09459
 O389 O 0.58105 0.55233 0.00682
 O390 O 0.42442 0.51394 -0.08568
 O391 O 0.55463 0.57135 -0.04721
 O392 O 0.45867 0.60738 0.00190
 O393 O 0.45279 0.54485 -0.02665
 O394 O 0.50986 0.56036 0.00841
 O395 O 0.48453 0.49286 -0.05543
 O396 O 0.53920 0.50803 -0.02274
 Zr397 Zr 0.47107 0.47069 0.05072
 Zr398 Zr 0.43385 0.49265 -0.03179
 Zr399 Zr 0.54156 0.52276 0.03389
 Zr400 Zr 0.45868 0.55855 0.02991
 O401 O 0.59081 0.49648 0.03715
 O402 O 0.40469 0.57268 0.02143
 O403 O 0.49118 0.52271 0.05854
 O404 O 0.43706 0.50742 0.02500
 O405 O 0.46547 0.45464 -0.00551
 O406 O 0.52249 0.47094 0.02910
 C407 C 0.47374 0.61789 -0.02822
 C408 C 0.58123 0.56970 -0.02398
 C409 C 0.44172 0.53700 -0.10507
 O410 O 0.38352 0.51687 -0.03135
 O411 O 0.39599 0.45815 -0.00783
 O412 O 0.42175 0.44225 0.04792
 C413 C 0.39591 0.44132 0.02341
 O414 O 0.54604 0.46093 -0.07751
 Zr415 Zr 0.51679 0.45690 -0.02721
 O416 O 0.48416 0.41704 0.05299
 O417 O 0.42224 0.45110 -0.07025
 O418 O 0.49274 0.42099 -0.06640
 O419 O 0.56983 0.44010 -0.01778
 O420 O 0.51359 0.40725 -0.00136
 C421 C 0.50034 0.39700 0.02975
 O422 O 0.44122 0.47564 0.10020
 O423 O 0.55553 0.56646 0.06881
 O424 O 0.50314 0.46879 0.10084
 O425 O 0.54919 0.50717 0.08926
 O426 O 0.48183 0.59667 0.06727
 O427 O 0.43378 0.55539 0.08284
 C428 C 0.53187 0.48626 0.11075
 H429 H 0.52099 0.58410 0.01166
 H430 H 0.41326 0.50708 0.03655
 H431 H 0.53862 0.45486 0.04269
 H432 H 0.48336 0.48638 -0.08235
 H433 H 0.40208 0.59687 0.03155
 H434 H 0.36799 0.50375 -0.04966
 H435 H 0.39691 0.45339 -0.07817
 H436 H 0.50857 0.40049 -0.06849
 H437 H 0.46514 0.61654 0.06881
 H438 H 0.58116 0.56439 0.07563
 H439 H 0.60665 0.51046 0.05442
 H440 H 0.57156 0.41601 -0.02844
 H441 H 0.42170 0.57781 0.08813
 H442 H 0.44120 0.45233 0.11267
 H443 H 0.53327 0.56054 -0.11107
 H444 H 0.55358 0.43719 -0.08541
 Zr445 Zr 0.01978 0.99893 0.44401
 O446 O 0.04769 0.97138 0.40231
 O447 O 0.01724 1.04947 0.42059
 O448 O -0.01053 0.99275 0.39323
 O449 O 0.09415 1.01198 0.50158
 O450 O -0.06484 0.97220 0.41258
 O451 O 0.07406 1.01584 0.44104
 O452 O -0.01190 1.08182 0.46417
 O453 O -0.03105 1.01583 0.45867
 O454 O 0.02692 1.03055 0.49197
 O455 O -0.01031 0.95249 0.45371
 O456 O 0.04545 0.96703 0.48434
 Zr457 Zr -0.03002 0.96956 0.55969
 Zr458 Zr -0.06010 0.96973 0.47116
 Zr459 Zr 0.04954 0.99851 0.53289
 Zr460 Zr -0.02350 1.04589 0.50762
 O461 O 0.09313 0.96647 0.54770
 O462 O -0.07283 1.06621 0.48847
 O463 O 0.00014 1.01631 0.55096
 O464 O -0.05522 1.00138 0.51931
 O465 O -0.03756 0.93745 0.51209
 O466 O 0.02043 0.95276 0.54438
 C467 C 0.00402 1.07834 0.43270
 C468 C 0.09868 1.01883 0.46678
 C469 C -0.04270 0.98092 0.38707
 O470 O -0.10421 1.00175 0.45853
 O471 O -0.10345 0.95151 0.50268
 O472 O -0.08310 0.95035 0.56329
 C473 C -0.10747 0.94529 0.53780
 O474 O 0.04441 0.90474 0.45080
 Zr475 Zr 0.01319 0.92260 0.49599
 O476 O -0.02950 0.91857 0.58204
 O477 O -0.07978 0.92127 0.44842
 O478 O -0.01627 0.88127 0.46859
 O479 O 0.06049 0.89955 0.51715
 O480 O -0.00272 0.88601 0.53692
 C481 C -0.01851 0.88935 0.56843
 O482 O -0.05827 0.99793 0.60049
 O483 O 0.06989 1.04738 0.55388
 O484 O -0.00005 0.97483 0.61050
 O485 O 0.05360 0.99699 0.59160
 O486 O 0.00618 1.08878 0.53183
 O487 O -0.04992 1.06556 0.55538
 C488 C 0.03213 0.98629 0.61704
 H489 H 0.04233 1.05161 0.48787
 H490 H -0.07880 1.00906 0.52792
 H491 H 0.03251 0.93885 0.56406
 H492 H -0.01231 0.93751 0.43092
 H493 H -0.07040 1.09227 0.48857
 H494 H -0.12228 0.98638 0.44552
 H495 H -0.10433 0.92534 0.43879
 H496 H -0.00509 0.85875 0.47563
 H497 H -0.00577 1.11079 0.52435
 H498 H 0.09434 1.04315 0.56369
 H499 H 0.11077 0.98173 0.56149
 H500 H 0.05683 0.87361 0.51601
 H501 H -0.05716 1.09013 0.55075
 H502 H -0.06399 0.98124 0.62090
 H503 H 0.05331 0.98848 0.38224
 H504 H 0.04720 0.87890 0.45254
 Zr505 Zr 0.73508 0.27642 0.17575
 O506 O 0.76055 0.30560 0.13318
 O507 O 0.68228 0.27395 0.15626
 O508 O 0.73192 0.24837 0.12441
 O509 O 0.72552 0.34736 0.23597
 O510 O 0.75382 0.19447 0.13949
 O511 O 0.71713 0.32898 0.17533
 O512 O 0.65377 0.24156 0.20076
 O513 O 0.71954 0.22491 0.18998
 O514 O 0.70777 0.28023 0.22611
 O515 O 0.78254 0.24791 0.17966
 O516 O 0.77101 0.30200 0.21374
 Zr517 Zr 0.77619 0.22404 0.28575
 Zr518 Zr 0.76702 0.19726 0.19704
 Zr519 Zr 0.74392 0.30277 0.26472
 Zr520 Zr 0.69393 0.22911 0.24103
 O521 O 0.77788 0.34643 0.27825
 O522 O 0.67153 0.18050 0.22136
 O523 O 0.72819 0.25218 0.28220
 O524 O 0.73999 0.19911 0.24778
 O525 O 0.80378 0.21973 0.23558
 O526 O 0.79122 0.27538 0.27102
 C527 C 0.65441 0.25921 0.16996
 C528 C 0.71539 0.35228 0.20172
 C529 C 0.74050 0.21660 0.11607
 O530 O 0.73468 0.15159 0.18747
 O531 O 0.78972 0.15383 0.22502
 O532 O 0.79666 0.17268 0.28565
 C533 C 0.79964 0.14945 0.25948
 O534 O 0.82991 0.30402 0.17403
 Zr535 Zr 0.81682 0.27125 0.22006
 O536 O 0.82972 0.22665 0.30431
 O537 O 0.81270 0.18210 0.16749
 O538 O 0.85586 0.24468 0.18893
 O539 O 0.84229 0.31839 0.23993
 O540 O 0.85778 0.25681 0.25787
 C541 C 0.85769 0.24008 0.28908
 O542 O 0.75211 0.19261 0.32747
 O543 O 0.69699 0.32018 0.29058
 O544 O 0.77498 0.25051 0.33790
 O545 O 0.75032 0.30334 0.32345
 O546 O 0.65288 0.25503 0.26984
 O547 O 0.67888 0.20017 0.28921
 C548 C 0.76305 0.28096 0.34690
 H549 H 0.68607 0.29460 0.22436
 H550 H 0.73330 0.17516 0.25637
 H551 H 0.80703 0.28717 0.29002
 H552 H 0.79460 0.24718 0.15524
 H553 H 0.64527 0.18196 0.22339
 H554 H 0.74839 0.13567 0.17128
 H555 H 0.80743 0.15822 0.15711
 H556 H 0.87920 0.25653 0.19441
 H557 H 0.63005 0.24262 0.26328
 H558 H 0.70245 0.34398 0.30108
 H559 H 0.76389 0.36255 0.29393
 H560 H 0.86823 0.31619 0.23579
 H561 H 0.65393 0.19143 0.28594
 H562 H 0.77106 0.18677 0.34608
 H563 H 0.74179 0.31191 0.11456
 H564 H 0.85612 0.30757 0.17323
 Zr565 Zr 0.78281 0.72732 0.70539
 O566 O 0.77353 0.69457 0.65777
 O567 O 0.83707 0.74013 0.70072
 O568 O 0.78825 0.75579 0.65470
 O569 O 0.79145 0.65712 0.76660
 O570 O 0.75300 0.80339 0.66347
 O571 O 0.80987 0.67903 0.71054
 O572 O 0.84911 0.77721 0.75016
 O573 O 0.78513 0.78029 0.72252
 O574 O 0.79994 0.72752 0.76150
 O575 O 0.73073 0.74598 0.69739
 O576 O 0.74571 0.69497 0.73377
 Zr577 Zr 0.71185 0.76882 0.80184
 Zr578 Zr 0.73268 0.79808 0.71743
 Zr579 Zr 0.76196 0.69808 0.79035
 Zr580 Zr 0.80050 0.77982 0.77903
 O581 O 0.73435 0.64942 0.79726
 O582 O 0.81612 0.83226 0.76586
 O583 O 0.76405 0.75014 0.81068
 O584 O 0.74930 0.80045 0.77366
 O585 O 0.69413 0.76872 0.74596
 O586 O 0.70996 0.71601 0.78464
 C587 C 0.85821 0.76002 0.72075
 C588 C 0.80910 0.65508 0.73605
 C589 C 0.77360 0.78447 0.64350
 O590 O 0.75836 0.84810 0.71386
 O591 O 0.69946 0.83708 0.73933
 O592 O 0.68297 0.81565 0.79615
 C593 C 0.68238 0.83905 0.77024
 O594 O 0.69700 0.68239 0.68069
 Zr595 Zr 0.69447 0.71609 0.72838
 O596 O 0.65711 0.75659 0.80565
 O597 O 0.68998 0.80558 0.67887
 O598 O 0.65774 0.73489 0.68760
 O599 O 0.67587 0.66483 0.74263
 O600 O 0.64491 0.72195 0.75430
 C601 C 0.63567 0.73856 0.78395
 O602 O 0.72059 0.80317 0.84835
 O603 O 0.80627 0.68842 0.82623
 O604 O 0.70863 0.74277 0.85366
 O605 O 0.74596 0.69655 0.84653
 O606 O 0.83955 0.76103 0.81735
 O607 O 0.79989 0.80925 0.82993
 C608 C 0.72513 0.71572 0.86609
 H609 H 0.82383 0.71734 0.76533
 H610 H 0.74979 0.82494 0.78345
 H611 H 0.69337 0.70141 0.79957
 H612 H 0.72326 0.74469 0.67065
 H613 H 0.84107 0.83591 0.77498
 H614 H 0.74471 0.86178 0.69508
 H615 H 0.69245 0.83003 0.66950
 H616 H 0.63670 0.71863 0.68712
 H617 H 0.86019 0.77778 0.81709
 H618 H 0.80308 0.66414 0.83586
 H619 H 0.74797 0.63608 0.81632
 H620 H 0.65121 0.66196 0.73238
 H621 H 0.82288 0.82229 0.83339
 H622 H 0.69759 0.80513 0.86146
 H623 H 0.79662 0.69259 0.64484
 H624 H 0.67276 0.67324 0.67405
 Zr625 Zr 0.24146 0.23366 0.80806
 O626 O 0.27172 0.20523 0.84788
 O627 O 0.19184 0.23639 0.83386
 O628 O 0.24908 0.26311 0.85868
 O629 O 0.22243 0.16156 0.75086
 O630 O 0.27126 0.31624 0.83895
 O631 O 0.22274 0.18050 0.81168
 O632 O 0.15817 0.26746 0.79215
 O633 O 0.22497 0.28458 0.79456
 O634 O 0.20667 0.22843 0.76168
 O635 O 0.28860 0.26238 0.79637
 O636 O 0.27081 0.20824 0.76598
 Zr637 Zr 0.26573 0.28447 0.69153
 Zr638 Zr 0.27152 0.31236 0.78031
 Zr639 Zr 0.23604 0.20584 0.71922
 Zr640 Zr 0.19181 0.27897 0.74711
 O641 O 0.26659 0.16230 0.70260
 O642 O 0.17349 0.32779 0.76779
 O643 O 0.21843 0.25549 0.70234
 O644 O 0.23678 0.30947 0.73372
 O645 O 0.30120 0.29019 0.73735
 O646 O 0.28216 0.23379 0.70542
 C647 C 0.16265 0.25064 0.82303
 C648 C 0.21744 0.15666 0.78599
 C649 C 0.26176 0.29464 0.86462
 O650 O 0.24121 0.35669 0.79483
 O651 O 0.28894 0.35565 0.74882
 O652 O 0.28703 0.33631 0.68809
 C653 C 0.29373 0.35992 0.71354
 O654 O 0.33659 0.20795 0.79613
 Zr655 Zr 0.31578 0.23934 0.75205
 O656 O 0.31508 0.28207 0.66519
 O657 O 0.32226 0.32962 0.80103
 O658 O 0.35980 0.26760 0.77658
 O659 O 0.33638 0.19200 0.73002
 O660 O 0.35012 0.25399 0.70813
 C661 C 0.34503 0.26983 0.67665
 O662 O 0.23591 0.31480 0.65298
 O663 O 0.18510 0.18720 0.70047
 O664 O 0.25500 0.25652 0.64087
 O665 O 0.23379 0.20315 0.66058
 O666 O 0.14617 0.25151 0.72495
 O667 O 0.17012 0.30642 0.70049
 C668 C 0.24261 0.22499 0.63480
 H669 H 0.18521 0.21368 0.76658
 H670 H 0.22914 0.33314 0.72576
 H671 H 0.29449 0.22175 0.68480
 H672 H 0.30480 0.26367 0.81859
 H673 H 0.14712 0.32597 0.76894
 H674 H 0.25784 0.37377 0.80754
 H675 H 0.31941 0.35373 0.81131
 H676 H 0.38184 0.25654 0.76766
 H677 H 0.12481 0.26390 0.73371
 H678 H 0.18827 0.16316 0.69017
 H679 H 0.25003 0.14551 0.68937
 H680 H 0.36268 0.19499 0.72921
 H681 H 0.14591 0.31448 0.70647
 H682 H 0.25178 0.32037 0.63179
 H683 H 0.25563 0.19953 0.86884
 H684 H 0.36253 0.20499 0.79278
 Zr685 Zr 0.29131 0.75878 0.29522
 O686 O 0.27532 0.79090 0.34046
 O687 O 0.34572 0.75049 0.30833
 O688 O 0.29221 0.73168 0.34685
 O689 O 0.30381 0.82896 0.23540
 O690 O 0.25892 0.68177 0.33472
 O691 O 0.31557 0.80946 0.29461
 O692 O 0.36314 0.71204 0.26305
 O693 O 0.29755 0.70594 0.28004
 O694 O 0.31500 0.75926 0.24271
 O695 O 0.23923 0.73661 0.29442
 O696 O 0.25623 0.78722 0.25997
 Zr697 Zr 0.23527 0.70981 0.18813
 Zr698 Zr 0.24571 0.68445 0.27710
 Zr699 Zr 0.27979 0.78530 0.20724
 Zr700 Zr 0.31923 0.70671 0.22645
 O701 O 0.25189 0.83205 0.19553
 O702 O 0.33522 0.65548 0.24219
 O703 O 0.28671 0.73335 0.18805
 O704 O 0.26914 0.68188 0.22426
 O705 O 0.21017 0.70930 0.24015
 O706 O 0.22880 0.76260 0.20366
 C707 C 0.36894 0.73094 0.29246
 C708 C 0.31645 0.83317 0.26900
 C709 C 0.27712 0.70252 0.35693
 O710 O 0.27255 0.63667 0.28633
 O711 O 0.21611 0.64335 0.25121
 O712 O 0.20792 0.66037 0.19050
 C713 C 0.20386 0.63841 0.21764
 O714 O 0.19762 0.79520 0.30309
 Zr715 Zr 0.20555 0.76196 0.25589
 O716 O 0.18250 0.71813 0.17205
 O717 O 0.19942 0.67422 0.30862
 O718 O 0.16453 0.73840 0.28790
 O719 O 0.18808 0.81227 0.23872
 O720 O 0.16117 0.75320 0.21845
 C721 C 0.15783 0.73592 0.18718
 O722 O 0.25144 0.67525 0.14511
 O723 O 0.32745 0.79743 0.17877
 O724 O 0.23843 0.73550 0.13560
 O725 O 0.26870 0.78699 0.14946
 O726 O 0.36248 0.72798 0.19582
 O727 O 0.32473 0.67746 0.17594
 C728 C 0.25219 0.76567 0.12654
 H729 H 0.33862 0.77143 0.24286
 H730 H 0.27174 0.65722 0.21562
 H731 H 0.21397 0.77595 0.18568
 H732 H 0.22853 0.73784 0.31954
 H733 H 0.36084 0.65344 0.23634
 H734 H 0.25723 0.62218 0.30280
 H735 H 0.20147 0.65005 0.31871
 H736 H 0.14243 0.75161 0.28289
 H737 H 0.38285 0.71194 0.19903
 H738 H 0.32503 0.82165 0.16897
 H739 H 0.26730 0.84666 0.17925
 H740 H 0.16194 0.81288 0.24232
 H741 H 0.34834 0.66622 0.17591
 H742 H 0.23066 0.67160 0.12777
 H743 H 0.29648 0.79484 0.35725
 H744 H 0.17200 0.80083 0.30458
 Zr745 Zr 0.22988 0.77989 0.68967
 O746 O 0.25914 0.80911 0.64984
 O747 O 0.17820 0.77841 0.66597
 O748 O 0.23097 0.75271 0.63778
 O749 O 0.21853 0.85083 0.74915
 O750 O 0.25010 0.69815 0.65406
 O751 O 0.21370 0.83274 0.68807
 O752 O 0.14644 0.74560 0.70760
 O753 O 0.21199 0.72871 0.70188
 O754 O 0.19877 0.78390 0.73749
 O755 O 0.27648 0.75069 0.69779
 O756 O 0.26346 0.80404 0.73111
 Zr757 Zr 0.26027 0.72503 0.80241
 Zr758 Zr 0.25825 0.70032 0.71256
 Zr759 Zr 0.23229 0.80528 0.77928
 Zr760 Zr 0.18272 0.73286 0.75078
 O761 O 0.26632 0.84779 0.79650
 O762 O 0.16050 0.68473 0.72953
 O763 O 0.21381 0.75488 0.79478
 O764 O 0.22714 0.70160 0.76064
 O765 O 0.29210 0.72090 0.75504
 O766 O 0.27792 0.77630 0.79009
 C767 C 0.14930 0.76347 0.67726
 C768 C 0.21143 0.85615 0.71416
 C769 C 0.23948 0.72083 0.62977
 O770 O 0.22581 0.65548 0.69928
 O771 O 0.27765 0.65662 0.74161
 O772 O 0.27930 0.67292 0.80324
 C773 C 0.28419 0.65065 0.77651
 O774 O 0.32685 0.80468 0.69787
 Zr775 Zr 0.30788 0.77225 0.74187
 O776 O 0.31152 0.72736 0.82704
 O777 O 0.30588 0.68450 0.68699
 O778 O 0.34877 0.74437 0.71496
 O779 O 0.33213 0.81900 0.76431
 O780 O 0.34478 0.75688 0.78398
 C781 C 0.34114 0.74032 0.81515
 O782 O 0.23288 0.69239 0.84080
 O783 O 0.18378 0.82392 0.80055
 O784 O 0.25125 0.74999 0.85434
 O785 O 0.23397 0.80535 0.83820
 O786 O 0.13976 0.75954 0.77543
 O787 O 0.16389 0.70446 0.79783
 C788 C 0.24118 0.78135 0.86238
 H789 H 0.17767 0.79886 0.73392
 H790 H 0.21914 0.67764 0.76800
 H791 H 0.29204 0.78753 0.81082
 H792 H 0.29062 0.75001 0.67465
 H793 H 0.13418 0.68662 0.72999
 H794 H 0.24061 0.63927 0.68456
 H795 H 0.30108 0.66071 0.67614
 H796 H 0.37192 0.75519 0.72319
 H797 H 0.11738 0.74701 0.76748
 H798 H 0.18903 0.84756 0.81155
 H799 H 0.25149 0.86430 0.81079
 H800 H 0.35833 0.81614 0.76361
 H801 H 0.13907 0.69607 0.79275
 H802 H 0.25003 0.68655 0.86127
 H803 H 0.24209 0.81588 0.62967
 H804 H 0.35315 0.80731 0.70011
 Zr805 Zr 0.27690 0.22430 0.20859
 O806 O 0.25287 0.19278 0.16547
 O807 O 0.32907 0.23256 0.18945
 O808 O 0.27419 0.25182 0.15761
 O809 O 0.29283 0.15321 0.26576
 O810 O 0.24860 0.30365 0.17372
 O811 O 0.29947 0.17395 0.20637
 O812 O 0.35527 0.26792 0.23456
 O813 O 0.28877 0.27658 0.22410
 O814 O 0.30646 0.22225 0.25870
 O815 O 0.22705 0.24831 0.21373
 O816 O 0.24412 0.19594 0.24589
 Zr817 Zr 0.23650 0.27272 0.32024
 Zr818 Zr 0.23934 0.29980 0.23162
 Zr819 Zr 0.27353 0.19643 0.29641
 Zr820 Zr 0.31636 0.27419 0.27536
 O821 O 0.24353 0.15031 0.30902
 O822 O 0.33417 0.32518 0.25919
 O823 O 0.28607 0.24783 0.31563
 O824 O 0.26853 0.30045 0.28229
 O825 O 0.20612 0.27501 0.27047
 O826 O 0.22468 0.22044 0.30450
 C827 C 0.35549 0.25087 0.20340
 C828 C 0.30244 0.14993 0.23143
 C829 C 0.26213 0.28243 0.14972
 O830 O 0.26795 0.34744 0.22199
 O831 O 0.21525 0.34099 0.26054
 O832 O 0.21221 0.32254 0.32113
 C833 C 0.20682 0.34524 0.29503
 O834 O 0.18202 0.18986 0.20761
 Zr835 Zr 0.19613 0.22283 0.25420
 O836 O 0.18492 0.26510 0.34057
 O837 O 0.19101 0.31168 0.20328
 O838 O 0.15370 0.24716 0.22474
 O839 O 0.17594 0.17354 0.27300
 O840 O 0.15618 0.23374 0.29383
 C841 C 0.15707 0.24992 0.32582
 O842 O 0.25923 0.30651 0.36217
 O843 O 0.32291 0.18229 0.32119
 O844 O 0.24515 0.24705 0.37180
 O845 O 0.26895 0.19441 0.35480
 O846 O 0.36129 0.25115 0.30178
 O847 O 0.32986 0.30207 0.32570
 C848 C 0.25767 0.21647 0.37918
 H849 H 0.32924 0.20976 0.25629
 H850 H 0.27377 0.32480 0.29125
 H851 H 0.21085 0.20738 0.32346
 H852 H 0.21373 0.24803 0.18950
 H853 H 0.36049 0.32615 0.26239
 H854 H 0.25211 0.36248 0.20668
 H855 H 0.19385 0.33592 0.19345
 H856 H 0.13138 0.23415 0.23083
 H857 H 0.38237 0.26644 0.29664
 H858 H 0.31971 0.15800 0.33079
 H859 H 0.25947 0.13501 0.32391
 H860 H 0.14957 0.17396 0.27047
 H861 H 0.35399 0.31291 0.32364
 H862 H 0.24071 0.31032 0.38122
 H863 H 0.27135 0.18845 0.14652
 H864 H 0.15605 0.18454 0.20772
 Zr865 Zr 0.73799 0.71088 0.31468
 O866 O 0.75662 0.67819 0.35841
 O867 O 0.68529 0.71786 0.32964
 O868 O 0.73657 0.73713 0.36707
 O869 O 0.72253 0.64303 0.24979
 O870 O 0.76390 0.79030 0.35591
 O871 O 0.71452 0.65951 0.31067
 O872 O 0.66411 0.75656 0.28626
 O873 O 0.73007 0.76395 0.30137
 O874 O 0.71266 0.71130 0.26199
 O875 O 0.78875 0.73549 0.31672
 O876 O 0.77197 0.68354 0.27886
 Zr877 Zr 0.79190 0.76300 0.21156
 Zr878 Zr 0.78088 0.78783 0.30004
 Zr879 Zr 0.74764 0.68721 0.22549
 Zr880 Zr 0.70661 0.76389 0.24812
 O881 O 0.77617 0.64143 0.21197
 O882 O 0.69046 0.81456 0.26562
 O883 O 0.74010 0.73958 0.20925
 O884 O 0.75670 0.78965 0.24680
 O885 O 0.81679 0.76324 0.26449
 O886 O 0.79871 0.71009 0.22525
 C887 C 0.66111 0.73777 0.31615
 C888 C 0.71120 0.63731 0.28310
 C889 C 0.74720 0.76837 0.37713
 O890 O 0.75403 0.83564 0.30894
 O891 O 0.80875 0.83104 0.27589
 O892 O 0.81818 0.81257 0.21596
 C893 C 0.82114 0.83545 0.24271
 O894 O 0.82682 0.67512 0.32476
 Zr895 Zr 0.82163 0.71016 0.27885
 O896 O 0.84625 0.75599 0.19900
 O897 O 0.82682 0.79784 0.33408
 O898 O 0.86236 0.73171 0.31475
 O899 O 0.84151 0.66142 0.25965
 O900 O 0.86636 0.72090 0.24624
 C901 C 0.87091 0.73891 0.21639
 O902 O 0.77517 0.79764 0.16866
 O903 O 0.69975 0.67536 0.19513
 O904 O 0.79003 0.73881 0.15816
 O905 O 0.75627 0.68901 0.16739
 O906 O 0.66318 0.74176 0.21639
 O907 O 0.69743 0.79398 0.19898
 C908 C 0.77352 0.71068 0.14638
 H909 H 0.68915 0.69893 0.26160
 H910 H 0.75346 0.81423 0.23846
 H911 H 0.81383 0.69755 0.20726
 H912 H 0.79949 0.73446 0.34225
 H913 H 0.66431 0.81568 0.26129
 H914 H 0.76871 0.84976 0.32718
 H915 H 0.82394 0.82154 0.34531
 H916 H 0.88393 0.71739 0.31152
 H917 H 0.64191 0.75586 0.22190
 H918 H 0.70259 0.65186 0.18336
 H919 H 0.76094 0.62759 0.19399
 H920 H 0.86705 0.66057 0.26724
 H921 H 0.67329 0.80407 0.19972
 H922 H 0.79598 0.80234 0.15251
 H923 H 0.73600 0.67295 0.37463
 H924 H 0.85219 0.66893 0.32830
 Zr925 Zr 0.79369 0.26011 0.78300
 O926 O 0.77721 0.29164 0.82850
 O927 O 0.84826 0.25259 0.79623
 O928 O 0.79521 0.23296 0.83458
 O929 O 0.80438 0.33123 0.72351
 O930 O 0.76360 0.18216 0.82195
 O931 O 0.81654 0.31133 0.78249
 O932 O 0.86665 0.21529 0.75035
 O933 O 0.80106 0.20752 0.76755
 O934 O 0.81724 0.26143 0.73043
 O935 O 0.74210 0.23686 0.78222
 O936 O 0.75791 0.28801 0.74802
 Zr937 Zr 0.73839 0.21025 0.67601
 Zr938 Zr 0.74969 0.18494 0.76466
 Zr939 Zr 0.78130 0.28692 0.69518
 Zr940 Zr 0.82261 0.20904 0.71394
 O941 O 0.75213 0.33295 0.68375
 O942 O 0.83984 0.15817 0.72946
 O943 O 0.78926 0.23511 0.67591
 O944 O 0.77304 0.18293 0.71180
 O945 O 0.71354 0.20924 0.72807
 O946 O 0.73081 0.26293 0.69155
 C947 C 0.87196 0.23370 0.78021
 C948 C 0.81689 0.33536 0.75722
 C949 C 0.78105 0.20327 0.84435
 O950 O 0.77730 0.13746 0.77296
 O951 O 0.71980 0.14379 0.73926
 O952 O 0.71109 0.16066 0.67862
 C953 C 0.70689 0.13889 0.70595
 O954 O 0.69939 0.29487 0.79103
 Zr955 Zr 0.70781 0.26171 0.74389
 O956 O 0.68543 0.21737 0.65986
 O957 O 0.70410 0.17386 0.79702
 O958 O 0.66744 0.23753 0.77631
 O959 O 0.68896 0.31144 0.72648
 O960 O 0.66352 0.25145 0.70678
 C961 C 0.66030 0.23403 0.67557
 O962 O 0.75506 0.17562 0.63328
 O963 O 0.82861 0.30024 0.66664
 O964 O 0.74185 0.23562 0.62347
 O965 O 0.76987 0.28839 0.63739
 O966 O 0.86525 0.23131 0.68317
 O967 O 0.82852 0.18024 0.66320
 C968 C 0.75475 0.26613 0.61449
 H969 H 0.84060 0.27410 0.73067
 H970 H 0.77594 0.15834 0.70309
 H971 H 0.71558 0.27585 0.67357
 H972 H 0.73147 0.23777 0.80738
 H973 H 0.86548 0.15672 0.72346
 H974 H 0.76246 0.12267 0.78961
 H975 H 0.70665 0.14967 0.80693
 H976 H 0.64504 0.25027 0.77133
 H977 H 0.88596 0.21567 0.68616
 H978 H 0.82553 0.32439 0.65687
 H979 H 0.76706 0.34793 0.66736
 H980 H 0.66280 0.31135 0.73010
 H981 H 0.85226 0.16927 0.66314
 H982 H 0.73433 0.17159 0.61597
 H983 H 0.79837 0.29606 0.84516
 H984 H 0.67369 0.30021 0.79246
 C985 C 0.37303 1.00280 0.28900
 C986 C 0.40658 0.99536 0.29909
 C987 C 0.41888 1.00376 0.33780
 C988 C 0.45174 0.99673 0.35045
 H989 H 0.42416 0.98245 0.27985
 H990 H 0.39998 1.01511 0.35686
 H991 H 0.35630 1.01417 0.31031
 H992 H 0.47070 0.98514 0.33165
 C993 C -0.12922 0.50105 0.79471
 C994 C -0.09583 0.49897 0.80862
 C995 C -0.08841 0.50264 0.84943
 C996 C -0.05661 0.49421 0.86411
 H997 H -0.07382 0.49407 0.79023
 H998 H -0.10924 0.51175 0.86758
 H999 H -0.15057 0.50504 0.81434
 H1000 H -0.03653 0.48396 0.84572
 C1001 C 0.12893 0.00169 0.77949
 C1002 C 0.09996 0.01995 0.78799
 C1003 C 0.08364 0.01387 0.82460
 C1004 C 0.05227 0.02694 0.83442
 H1005 H 0.08918 0.03919 0.76880
 H1006 H 0.09843 -0.00187 0.84458
 H1007 H 0.13875 -0.01680 0.80023
 H1008 H 0.03664 0.04195 0.81453
 C1009 C 0.61542 0.48621 0.28197
 C1010 C 0.58736 0.50488 0.29264
 C1011 C 0.57484 0.50195 0.33138
 C1012 C 0.54541 0.51773 0.34305
 H1013 H 0.57467 0.52308 0.27364
 H1014 H 0.59082 0.48713 0.35116
 H1015 H 0.62724 0.46876 0.30254
 H1016 H 0.52881 0.53183 0.32324
 C1017 C 0.60517 0.48525 0.21280
 C1018 C 0.58707 0.51251 0.19880
 C1019 C 0.56459 0.51135 0.16437
 C1020 C 0.54706 0.48318 0.14922
 H1021 H 0.59251 0.53866 0.21013
 H1022 H 0.56326 0.53635 0.14991
 H1023 H 0.59912 0.45905 0.20192
 H1024 H 0.54504 0.45843 0.16402
 C1025 C 0.12904 1.00858 0.70826
 C1026 C 0.09599 0.99502 0.70230
 C1027 C 0.07952 0.99732 0.66448
 C1028 C 0.04614 0.98598 0.65615
 H1029 H 0.08171 0.98180 0.72440
 H1030 H 0.09581 1.00826 0.64245
 H1031 H 0.14239 1.02017 0.68444
 H1032 H 0.02947 0.97526 0.67797
 C1033 C -0.10911 0.49372 0.72653
 C1034 C -0.10171 0.51419 0.69700
 C1035 C -0.07812 0.50179 0.66721
 C1036 C -0.06106 0.52438 0.64480
 H1037 H -0.11528 0.53858 0.69211
 H1038 H -0.07680 0.47367 0.66186
 H1039 H -0.09395 0.46979 0.72959
 H1040 H -0.06039 0.55231 0.65146
 C1041 C 0.37754 -0.01018 0.21714
 C1042 C 0.40803 0.00715 0.20909
 C1043 C 0.42310 0.00213 0.17141
 C1044 C 0.45389 0.01690 0.16015
 H1045 H 0.42034 0.02577 0.22875
 H1046 H 0.40740 -0.01371 0.15149
 H1047 H 0.36605 -0.02734 0.19537
 H1048 H 0.47060 0.03200 0.17977
 C1049 C 0.27001 0.40282 0.00326
 C1050 C 0.30081 0.40097 0.02321
 C1051 C 0.33312 0.42124 0.01228
 C1052 C 0.36368 0.42001 0.03251
 H1053 H 0.30267 0.38439 0.04766
 H1054 H 0.33164 0.43780 -0.01231
 H1055 H 0.26958 0.41941 -0.02138
 H1056 H 0.36472 0.40386 0.05743
 C1057 C -0.22745 0.90385 0.50531
 C1058 C -0.20343 0.90913 0.53320
 C1059 C -0.16969 0.92775 0.52482
 C1060 C -0.14236 0.93070 0.54937
 H1061 H -0.20767 0.89884 0.56099
 H1062 H -0.16651 0.93780 0.49667
 H1063 H -0.22201 0.91637 0.47866
 H1064 H -0.14521 0.92107 0.57770
 C1065 C -0.22030 0.08087 0.98102
 C1066 C -0.19308 0.08285 0.95722
 C1067 C -0.16045 0.06298 0.96487
 C1068 C -0.13160 0.06681 0.94369
 H1069 H -0.19309 0.10106 0.93411
 H1070 H -0.15920 0.04676 0.98976
 H1071 H -0.21856 0.06188 1.00360
 H1072 H -0.13300 0.08233 0.91832
 C1073 C 0.28080 0.58597 0.49786
 C1074 C 0.30772 0.58843 0.47354
 C1075 C 0.34224 0.57172 0.48228
 C1076 C 0.37022 0.57436 0.45950
 H1077 H 0.30567 0.60419 0.44856
 H1078 H 0.34524 0.55815 0.50877
 H1079 H 0.28457 0.56872 0.52172
 H1080 H 0.36707 0.58697 0.43251
 C1081 C 0.21505 0.58217 0.50067
 C1082 C 0.18340 0.59036 0.51549
 C1083 C 0.15198 0.56623 0.51154
 C1084 C 0.12143 0.57169 0.52972
 H1085 H 0.18016 0.61551 0.52941
 H1086 H 0.15376 0.54384 0.49267
 H1087 H 0.21700 0.55716 0.48597
 H1088 H 0.12006 0.59317 0.54979
 C1089 C 0.71518 0.08410 -0.01301
 C1090 C 0.69231 0.08405 0.01560
 C1091 C 0.65836 0.06380 0.01177
 C1092 C 0.63337 0.06320 0.03824
 H1093 H 0.69744 0.09982 0.04057
 H1094 H 0.65297 0.05025 -0.01467
 H1095 H 0.70865 0.06719 -0.03697
 H1096 H 0.63860 0.07608 0.06504
 C1097 C 0.70825 0.90872 0.51089
 C1098 C 0.67994 0.91209 0.48767
 C1099 C 0.65062 0.93581 0.49716
 C1100 C 0.62398 0.94148 0.47260
 H1101 H 0.67732 0.89645 0.46225
 H1102 H 0.65025 0.94774 0.52485
 H1103 H 0.70959 0.92507 0.53600
 H1104 H 0.62509 0.92997 0.44474
 C1105 C 0.20570 0.40947 1.01227
 C1106 C 0.17476 0.40836 0.99253
 C1107 C 0.14509 0.43171 1.00246
 C1108 C 0.11429 0.43082 0.98278
 H1109 H 0.17005 0.38919 0.97037
 H1110 H 0.14801 0.44883 1.02683
 H1111 H 0.20906 0.43018 1.03329
 H1112 H 0.11200 0.41436 0.95784
 C1113 C -0.00757 0.27098 0.38774
 C1114 C 0.00564 0.28302 0.42068
 C1115 C 0.00048 0.32024 0.43138
 C1116 C 0.01381 0.33411 0.46340
 H1117 H 0.02030 0.26591 0.43932
 H1118 H -0.01459 0.33672 0.41237
 H1119 H -0.02060 0.28974 0.36943
 H1120 H 0.02908 0.31775 0.48235
 C1121 C 0.49195 -0.21599 -0.09071
 C1122 C 0.48080 -0.18370 -0.09938
 C1123 C 0.48180 -0.15460 -0.07196
 C1124 C 0.47012 -0.12297 -0.08209
 H1125 H 0.47294 -0.17798 -0.12806
 H1126 H 0.49368 -0.15851 -0.04441
 H1127 H 0.50143 -0.22092 -0.06236
 H1128 H 0.45783 -0.11981 -0.10960
 C1129 C 0.01619 -0.19391 1.09954
 C1130 C 0.01864 -0.16238 1.11688
 C1131 C 0.02275 -0.12895 1.09663
 C1132 C 0.00979 -0.12494 1.06179
 H1133 H 0.01683 -0.16085 1.14711
 H1134 H 0.03377 -0.10645 1.11208
 H1135 H 0.01991 -0.19553 1.06957
 H1136 H -0.00365 -0.14676 1.04733
 C1137 C 0.50110 0.30069 0.59652
 C1138 C 0.50766 0.33338 0.60930
 C1139 C 0.50447 0.36347 0.58389
 C1140 C 0.51761 0.39516 0.59376
 H1141 H 0.51606 0.33789 0.63819
 H1142 H 0.49220 0.35938 0.55639
 H1143 H 0.49191 0.29751 0.56763
 H1144 H 0.53084 0.39874 0.62086
 C1145 C 0.50204 1.23586 0.59494
 C1146 C 0.49618 1.20315 0.60726
 C1147 C 0.49812 1.17265 0.58176
 C1148 C 0.48696 1.14098 0.59299
 H1149 H 0.49010 1.19887 0.63648
 H1150 H 0.50824 1.17616 0.55374
 H1151 H 0.50919 1.23919 0.56582
 H1152 H 0.47577 1.13825 0.62067
 C1153 C 0.00651 0.74132 1.09344
 C1154 C 0.00735 0.70811 1.10562
 C1155 C 0.00626 0.67740 1.08006
 C1156 C 0.00032 0.64559 1.09454
 H1157 H 0.00865 0.70333 1.13551
 H1158 H 0.00909 0.68075 1.05012
 H1159 H 0.00378 0.74577 1.06354
 H1160 H -0.00434 0.64350 1.12438
 C1161 C 0.50290 0.71983 -0.10498
 C1162 C 0.48448 0.70687 -0.07626
 C1163 C 0.48833 0.66970 -0.06592
 C1164 C 0.46979 0.65520 -0.03821
 H1165 H 0.46612 0.72317 -0.06115
 H1166 H 0.50669 0.65380 -0.08159
 H1167 H 0.51998 0.70192 -0.11985
 H1168 H 0.45182 0.67116 -0.02215
 C1169 C -0.00156 1.20509 0.40202
 C1170 C 0.00420 1.17146 0.39241
 C1171 C 0.00111 1.14224 0.41925
 C1172 C 0.00769 1.10924 0.40819
 H1173 H 0.00991 1.16516 0.36347
 H1174 H -0.00700 1.14761 0.44768
 H1175 H -0.00886 1.21107 0.43057
 H1176 H 0.01658 1.10459 0.37987
 C1177 C 0.74896 0.63811 0.97005
 C1178 C 0.73289 0.66769 0.95948
 C1179 C 0.73977 0.68139 0.92178
 C1180 C 0.71956 0.70572 0.90545
 H1181 H 0.71343 0.67998 0.97714
 H1182 H 0.76108 0.66967 0.90609
 H1183 H 0.76696 0.62623 0.95030
 H1184 H 0.69840 0.71792 0.92088
 C1185 C 0.22724 0.13242 0.47386
 C1186 C 0.25105 0.15666 0.46284
 C1187 C 0.24667 0.17248 0.42588
 C1188 C 0.25855 0.20487 0.41815
 H1189 H 0.27469 0.16291 0.47977
 H1190 H 0.23381 0.15657 0.40388
 H1191 H 0.20320 0.12855 0.45677
 H1192 H 0.26892 0.22235 0.44007
 C1193 C 0.73247 0.35946 0.45003
 C1194 C 0.75115 0.33171 0.43867
 C1195 C 0.74731 0.31911 0.39961
 C1196 C 0.76482 0.29123 0.38686
 H1197 H 0.77078 0.31986 0.45687
 H1198 H 0.73038 0.33371 0.38053
 H1199 H 0.71317 0.36979 0.43009
 H1200 H 0.78098 0.27589 0.40599
 C1201 C 0.25860 0.86082 0.96794
 C1202 C 0.23797 0.83543 0.95220
 C1203 C 0.24593 0.82299 0.91427
 C1204 C 0.23709 0.79064 0.90206
 H1205 H 0.21403 0.82603 0.96579
 H1206 H 0.25893 0.84134 0.89545
 H1207 H 0.28270 0.86836 0.95336
 H1208 H 0.22663 0.77109 0.92117
 C1209 C 0.24190 0.86117 0.03711
 C1210 C 0.24822 0.82672 0.04184
 C1211 C 0.24770 0.81213 0.08001
 C1212 C 0.24854 0.77756 0.08737
 H1213 H 0.25601 0.80996 0.01892
 H1214 H 0.24755 0.83074 0.10325
 H1215 H 0.23456 0.87609 0.06173
 H1216 H 0.24652 0.75828 0.06485
 C1217 C 0.72485 0.35194 0.51892
 C1218 C 0.74552 0.32594 0.53141
 C1219 C 0.73751 0.30765 0.56651
 C1220 C 0.75256 0.27710 0.57526
 H1221 H 0.77080 0.32086 0.51855
 H1222 H 0.72203 0.32130 0.58729
 H1223 H 0.69922 0.35518 0.53197
 H1224 H 0.76692 0.26236 0.55449
 C1225 C 0.23361 0.12848 0.54469
 C1226 C 0.23192 0.16352 0.54983
 C1227 C 0.23329 0.17797 0.58818
 C1228 C 0.23915 0.21229 0.59568
 H1229 H 0.23006 0.18156 0.52664
 H1230 H 0.23077 0.15949 0.61108
 H1231 H 0.23537 0.11217 0.56952
 H1232 H 0.24305 0.23076 0.57303
 C1233 C 0.73389 0.63943 0.03957
 C1234 C 0.75518 0.66615 0.05148
 C1235 C 0.75152 0.67946 0.09007
 C1236 C 0.77499 0.70222 0.10603
 H1237 H 0.77722 0.67519 0.03459
 H1238 H 0.73014 0.66850 0.10674
 H1239 H 0.71311 0.63022 0.05816
 H1240 H 0.79591 0.71418 0.08952
 C1241 C 0.15933 0.52393 0.25974
 C1242 C 0.16100 0.54703 0.23138
 C1243 C 0.18254 0.57969 0.23616
 C1244 C 0.18382 0.60505 0.21018
 H1245 H 0.14608 0.54271 0.20546
 H1246 H 0.19706 0.58342 0.26252
 H1247 H 0.17571 0.52936 0.28463
 H1248 H 0.16981 0.60142 0.18354
 C1249 C 0.65517 0.02911 0.75322
 C1250 C 0.65837 0.05036 0.72336
 C1251 C 0.68135 0.08237 0.72679
 C1252 C 0.68544 0.10607 0.69931
 H1253 H 0.64418 0.04481 0.69724
 H1254 H 0.69482 0.08703 0.75358
 H1255 H 0.67118 0.03579 0.77806
 H1256 H 0.67229 0.10176 0.67231
 C1257 C 0.83985 0.02812 0.23582
 C1258 C 0.83852 0.05650 0.25854
 C1259 C 0.81723 0.08752 0.24799
 C1260 C 0.81660 0.11604 0.27032
 H1261 H 0.85465 0.05813 0.28398
 H1262 H 0.80353 0.08771 0.22096
 H1263 H 0.82160 0.02724 0.21181
 H1264 H 0.82986 0.11525 0.29757
 C1265 C 0.34351 0.54525 0.73819
 C1266 C 0.32525 0.55966 0.76613
 C1267 C 0.30760 0.59332 0.75905
 C1268 C 0.29872 0.61586 0.78616
 H1269 H 0.32425 0.54748 0.79346
 H1270 H 0.30355 0.60069 0.72998
 H1271 H 0.34336 0.55908 0.71159
 H1272 H 0.30359 0.60936 0.81531
 C1273 C 0.33422 0.48082 0.74031
 C1274 C 0.33249 0.45315 0.71654
 C1275 C 0.31027 0.42195 0.72479
 C1276 C 0.30911 0.39393 0.70174
 H1277 H 0.34977 0.45162 0.69268
 H1278 H 0.29696 0.42083 0.75149
 H1279 H 0.31652 0.48075 0.76404
 H1280 H 0.32150 0.39540 0.67457
 C1281 C 0.84601 0.96463 0.24973
 C1282 C 0.85424 0.93203 0.23791
 C1283 C 0.83496 0.89980 0.25055
 C1284 C 0.84040 0.86869 0.23366
 H1285 H 0.87592 0.92879 0.21863
 H1286 H 0.81574 0.90166 0.27275
 H1287 H 0.82493 0.96724 0.26991
 H1288 H 0.85833 0.86786 0.21019
 C1289 C 0.65669 0.96467 0.75744
 C1290 C 0.64576 0.93219 0.76725
 C1291 C 0.66854 0.90150 0.76156
 C1292 C 0.66055 0.87025 0.77672
 H1293 H 0.61923 0.92802 0.77816
 H1294 H 0.69213 0.90449 0.74464
 H1295 H 0.68306 0.96793 0.74571
 H1296 H 0.63819 0.86780 0.79541
 C1297 C 0.16114 0.45977 0.26028
 C1298 C 0.16646 0.43648 0.28788
 C1299 C 0.18722 0.40483 0.28052
 C1300 C 0.18949 0.37843 0.30509
 H1301 H 0.15429 0.43944 0.31492
 H1302 H 0.19942 0.40234 0.25333
 H1303 H 0.17490 0.45578 0.23413
 H1304 H 0.17769 0.38088 0.33246
 C1305 C 0.03659 0.26194 0.85148
 C1306 C 0.06969 0.25353 0.86229
 C1307 C 0.09909 0.25421 0.83602
 C1308 C 0.13218 0.24726 0.84785
 H1309 H 0.07558 0.24842 0.89160
 H1310 H 0.09386 0.26168 0.80718
 H1311 H 0.03141 0.26885 0.82247
 H1312 H 0.13703 0.23893 0.87648
 C1313 C 0.53731 0.76672 0.34827
 C1314 C 0.57082 0.75792 0.35663
 C1315 C 0.59891 0.75539 0.32861
 C1316 C 0.62881 0.73920 0.33853
 H1317 H 0.57793 0.75253 0.38561
 H1318 H 0.59566 0.76710 0.30118
 H1319 H 0.53003 0.77307 0.31958
 H1320 H 0.63035 0.72678 0.36583
 C1321 C 0.52428 0.25881 0.15172
 C1322 C 0.55714 0.26381 0.13868
 C1323 C 0.58897 0.25906 0.16261
 C1324 C 0.62125 0.26357 0.14820
 H1325 H 0.56056 0.26946 0.10921
 H1326 H 0.58606 0.25155 0.19167
 H1327 H 0.52118 0.25297 0.18121
 H1328 H 0.62360 0.27212 0.11939
 C1329 C 0.02241 0.74363 0.65160
 C1330 C 0.05420 0.75567 0.64026
 C1331 C 0.08506 0.75726 0.66588
 C1332 C 0.11724 0.76676 0.65356
 H1333 H 0.05816 0.76169 0.61095
 H1334 H 0.08178 0.74861 0.69454
 H1335 H 0.01952 0.73575 0.68057
 H1336 H 0.12024 0.77609 0.62512
 C1337 C 0.95723 0.72738 0.64182
 C1338 C 0.94583 0.74615 0.67101
 C1339 C 0.90878 0.74226 0.68307
 C1340 C 0.89571 0.76303 0.70967
 H1341 H 0.96318 0.76554 0.68489
 H1342 H 0.89168 0.72255 0.66923
 H1343 H 0.93845 0.70919 0.62797
 H1344 H 0.91295 0.78242 0.72380
 C1345 C 0.45879 0.24739 0.14669
 C1346 C 0.42689 0.24279 0.12928
 C1347 C 0.39348 0.23793 0.14968
 C1348 C 0.38893 0.25304 0.18311
 H1349 H 0.42500 0.24324 0.09897
 H1350 H 0.37147 0.22410 0.13554
 H1351 H 0.46065 0.24548 0.17693
 H1352 H 0.41018 0.26901 0.19593
 C1353 C 0.47250 0.77549 0.36486
 C1354 C 0.45804 0.75437 0.33855
 C1355 C 0.41979 0.75520 0.32933
 C1356 C 0.40555 0.73020 0.30714
 H1357 H 0.47438 0.73555 0.32419
 H1358 H 0.40364 0.77633 0.33989
 H1359 H 0.45513 0.79332 0.37951
 H1360 H 0.42245 0.70963 0.29652
 C1361 C 0.97124 0.27271 0.86269
 C1362 C 0.95861 0.25304 0.83412
 C1363 C 0.92106 0.25504 0.82185
 C1364 C 0.90841 0.23278 0.79567
 H1365 H 0.97574 0.23459 0.82025
 H1366 H 0.90393 0.27457 0.83405
 H1367 H 0.95275 0.29006 0.87634
 H1368 H 0.92617 0.21372 0.78358
 C1369 C 0.60697 0.99024 0.72242
 C1370 C 0.58066 1.01178 0.71240
 C1371 C 0.56350 1.00651 0.67534
 C1372 C 0.53683 1.02609 0.66229
 H1373 H 0.57388 1.03397 0.72997
 H1374 H 0.57429 0.98639 0.65726
 H1375 H 0.61309 0.96882 0.70336
 H1376 H 0.52444 1.04530 0.68019
 C1377 C 0.11084 0.48686 1.22738
 C1378 C 0.08388 0.50857 1.22008
 C1379 C 0.06503 0.50511 1.18383
 C1380 C 0.04068 0.52780 1.17152
 H1381 H 0.07778 0.52977 1.23929
 H1382 H 0.07281 0.48373 1.16555
 H1383 H 0.11653 0.46659 1.20681
 H1384 H 0.03132 0.54859 1.18960
 C1385 C -0.11898 -0.00552 1.19908
 C1386 C -0.08455 -0.00574 1.18956
 C1387 C -0.07492 -0.00551 1.14961
 C1388 C -0.04118 -0.00901 1.13889
 H1389 H -0.06350 -0.00504 1.21076
 H1390 H -0.09576 -0.00142 1.12867
 H1391 H -0.13887 -0.00773 1.17661
 H1392 H -0.02056 -0.01402 1.15980
 C1393 C 0.38374 0.50864 0.70369
 C1394 C 0.41929 0.50912 0.70036
 C1395 C 0.43364 0.51145 0.66229
 C1396 C 0.46843 0.51142 0.65460
 H1397 H 0.43708 0.50907 0.72461
 H1398 H 0.41447 0.51351 0.63928
 H1399 H 0.36758 0.50933 0.67808
 H1400 H 0.48815 0.50811 0.67683
 C1401 C 0.38577 0.50512 -0.22537
 C1402 C 0.39769 0.53084 -0.20218
 C1403 C 0.41242 0.52187 -0.16495
 C1404 C 0.42744 0.54628 -0.14228
 H1405 H 0.39477 0.55828 -0.20953
 H1406 H 0.41063 0.49472 -0.15568
 H1407 H 0.39117 0.47807 -0.21768
 H1408 H 0.43139 0.57302 -0.15213
 C1409 C -0.10327 1.00751 0.26754
 C1410 C -0.08985 0.98485 0.29252
 C1411 C -0.06635 0.99650 0.32428
 C1412 C -0.05489 0.97250 0.34865
 H1413 H -0.09817 0.95739 0.29140
 H1414 H -0.06196 1.02436 0.33004
 H1415 H -0.09246 1.03425 0.26778
 H1416 H -0.06129 0.94491 0.34318
 C1417 C 0.11454 0.49221 0.29682
 C1418 C 0.09025 0.46767 0.30664
 C1419 C 0.07440 0.47039 0.34381
 C1420 C 0.05171 0.44644 0.35800
 H1421 H 0.08380 0.44539 0.28841
 H1422 H 0.08221 0.49330 0.36062
 H1423 H 0.12058 0.51373 0.31632
 H1424 H 0.04219 0.42408 0.34132
 C1425 C 0.61306 -0.00161 -0.20627
 C1426 C 0.57861 -0.00908 -0.19947
 C1427 C 0.56577 -0.00489 -0.16086
 C1428 C 0.53196 -0.01145 -0.15089
 H1429 H 0.56039 -0.01827 -0.22148
 H1430 H 0.58507 0.00416 -0.13971
 H1431 H 0.63010 0.00616 -0.18254
 H1432 H 0.51234 -0.02052 -0.17166
 C1433 C 0.70775 0.59339 -0.00155
 C1434 C 0.67728 0.60369 -0.01799
 C1435 C 0.64502 0.58135 -0.01548
 C1436 C 0.61416 0.58960 -0.03237
 H1437 H 0.67524 0.62918 -0.03102
 H1438 H 0.64614 0.55830 0.00230
 H1439 H 0.70762 0.56795 0.01226
 H1440 H 0.61293 0.61166 -0.05145
 C1441 C 0.20357 1.08096 0.50881
 C1442 C 0.19017 1.06290 0.47898
 C1443 C 0.15885 1.03968 0.48406
 C1444 C 0.13415 1.03338 0.45694
 H1445 H 0.20030 1.06727 0.45114
 H1446 H 0.15389 1.03104 0.51242
 H1447 H 0.19217 1.07546 0.53598
 H1448 H 0.13848 1.04267 0.42871
 C1449 C 0.21400 -0.09737 0.99161
 C1450 C 0.19731 -0.07620 1.01563
 C1451 C 0.16417 -0.05855 1.00426
 C1452 C 0.14251 -0.04458 1.02957
 H1453 H 0.20761 -0.07249 1.04397
 H1454 H 0.15655 -0.05853 0.97479
 H1455 H 0.20293 -0.10032 0.96340
 H1456 H 0.14920 -0.04640 1.05917
 C1457 C 0.71166 0.40941 0.48739
 C1458 C 0.69621 0.42431 0.51715
 C1459 C 0.66822 0.45067 0.51096
 C1460 C 0.64604 0.46054 0.53802
 H1461 H 0.70174 0.41507 0.54526
 H1462 H 0.66324 0.45923 0.48244
 H1463 H 0.70635 0.42114 0.46023
 H1464 H 0.65052 0.45160 0.56647
 C1465 C -0.22636 0.39221 0.49784
 C1466 C -0.19847 0.39263 0.47478
 C1467 C -0.16355 0.40734 0.48753
 C1468 C -0.13459 0.40537 0.46623
 H1469 H -0.20106 0.38273 0.44637
 H1470 H -0.16173 0.42047 0.51461
 H1471 H -0.22241 0.40311 0.52585
 H1472 H -0.13652 0.39199 0.43929
 C1473 C 0.27789 -0.09063 0.01066
 C1474 C 0.29179 -0.06879 -0.01491
 C1475 C 0.32524 -0.04918 -0.00634
 C1476 C 0.34763 -0.03941 -0.03339
 H1477 H 0.28061 -0.06831 -0.04314
 H1478 H 0.33332 -0.04602 0.02286
 H1479 H 0.29045 -0.09113 0.03834
 H1480 H 0.34024 -0.04424 -0.06253
 C1481 C 0.26818 1.08900 0.50138
 C1482 C 0.29546 1.08773 0.52624
 C1483 C 0.32866 1.06983 0.51697
 C1484 C 0.35514 1.06697 0.54240
 H1485 H 0.29404 1.10041 0.55340
 H1486 H 0.33174 1.05965 0.48877
 H1487 H 0.27085 1.07557 0.47464
 H1488 H 0.35163 1.07683 0.57066
 C1489 C -0.22829 0.59233 1.01048
 C1490 C -0.20346 0.59373 1.03803
 C1491 C -0.17127 0.57267 1.03418
 C1492 C -0.14264 0.57704 1.05678
 H1493 H -0.20507 0.61178 1.06144
 H1494 H -0.17003 0.55490 1.01031
 H1495 H -0.22472 0.57344 0.98787
 H1496 H -0.14365 0.59414 1.08118
 C1497 C 0.00405 0.69905 0.60590
 C1498 C -0.01259 0.68399 0.57633
 C1499 C -0.00391 0.64776 0.56543
 C1500 C -0.02011 0.63194 0.53615
 H1501 H -0.03376 0.69760 0.56165
 H1502 H 0.01500 0.63338 0.58254
 H1503 H 0.02428 0.68396 0.62051
 H1504 H -0.03858 0.64660 0.51878
 C1505 C 0.49641 0.23083 0.09434
 C1506 C 0.50805 0.19862 0.10250
 C1507 C 0.50618 0.16934 0.07552
 C1508 C 0.51805 0.13791 0.08602
 H1509 H 0.51719 0.19307 0.13083
 H1510 H 0.49325 0.17283 0.04841
 H1511 H 0.48552 0.23580 0.06655
 H1512 H 0.53106 0.13521 0.11325
 C1513 C 0.00726 0.23881 0.90871
 C1514 C 0.00015 0.20564 0.89774
 C1515 C 0.00166 0.17554 0.92331
 C1516 C -0.00890 0.14388 0.91035
 H1517 H -0.00579 0.20017 0.86848
 H1518 H 0.01214 0.17895 0.95166
 H1519 H 0.01406 0.24414 0.93791
 H1520 H -0.01991 0.14157 0.88206
 C1521 C 0.51111 0.74106 0.40669
 C1522 C 0.50665 0.70762 0.39510
 C1523 C 0.50701 0.67810 0.42142
 C1524 C 0.49603 0.64601 0.40998
 H1525 H 0.50315 0.70171 0.36556
 H1526 H 0.51662 0.68253 0.44995
 H1527 H 0.51428 0.74623 0.43652
 H1528 H 0.48536 0.64233 0.38172
 C1529 C 0.52025 0.80581 0.39993
 C1530 C 0.52295 0.83656 0.38170
 C1531 C 0.52282 0.87078 0.40111
 C1532 C 0.50413 0.87540 0.43224
 H1533 H 0.52323 0.83685 0.35136
 H1534 H 0.53544 0.89308 0.38753
 H1535 H 0.52119 0.80584 0.43029
 H1536 H 0.48957 0.85348 0.44441
 C1537 C 0.01847 0.30349 0.89893
 C1538 C -0.00007 0.31630 0.92708
 C1539 C 0.00405 0.35325 0.93835
 C1540 C -0.01955 0.36659 0.96135
 H1541 H -0.02092 0.30015 0.93942
 H1542 H 0.02542 0.36958 0.92729
 H1543 H 0.03818 0.32060 0.88590
 H1544 H -0.04031 0.34958 0.97262
 C1545 C 0.48607 0.29531 0.11175
 C1546 C 0.49879 0.30852 0.07997
 C1547 C 0.49276 0.34568 0.07071
 C1548 C 0.50497 0.35964 0.03914
 H1549 H 0.51402 0.29234 0.06123
 H1550 H 0.47837 0.36191 0.09022
 H1551 H 0.47220 0.31291 0.13041
 H1552 H 0.51926 0.34326 0.01970
 C1553 C -0.01075 0.76271 0.59444
 C1554 C -0.01881 0.79553 0.60482
 C1555 C -0.01667 0.82537 0.57904
 C1556 C -0.02379 0.85780 0.59135
 H1557 H -0.02473 0.80108 0.63379
 H1558 H -0.00783 0.82108 0.55065
 H1559 H -0.00361 0.75762 0.56563
 H1560 H -0.03309 0.86149 0.61968
 C1561 C 0.23588 0.36634 0.05046
 C1562 C 0.25013 0.33540 0.05959
 C1563 C 0.24982 0.32408 0.09901
 C1564 C 0.26363 0.29364 0.11024
 H1565 H 0.26202 0.31895 0.03848
 H1566 H 0.23760 0.34118 0.11937
 H1567 H 0.22575 0.38232 0.07315
 H1568 H 0.27568 0.27633 0.08999
 C1569 C 0.73551 0.85770 0.54032
 C1570 C 0.76072 0.83546 0.55214
 C1571 C 0.75575 0.81774 0.58839
 C1572 C 0.77977 0.79685 0.60487
 H1573 H 0.78519 0.83252 0.53687
 H1574 H 0.73148 0.82344 0.60319
 H1575 H 0.71123 0.85889 0.55640
 H1576 H 0.80356 0.78928 0.59033
 C1577 C 0.24985 0.62883 0.53507
 C1578 C 0.24212 0.66275 0.54102
 C1579 C 0.24562 0.67666 0.57979
 C1580 C 0.23667 0.70930 0.59000
 H1581 H 0.23271 0.67935 0.51851
 H1582 H 0.25554 0.65891 0.60110
 H1583 H 0.25767 0.61348 0.55936
 H1584 H 0.22674 0.72747 0.56916
 C1585 C 0.75707 0.12901 0.01831
 C1586 C 0.74075 0.15883 0.02751
 C1587 C 0.74808 0.17415 0.06506
 C1588 C 0.73430 0.20437 0.07700
 H1589 H 0.72149 0.17055 0.00859
 H1590 H 0.76505 0.15948 0.08405
 H1591 H 0.77531 0.11808 0.03901
 H1592 H 0.71811 0.21995 0.05817
 C1593 C 0.74447 0.12834 0.94781
 C1594 C 0.76613 0.15488 0.93711
 C1595 C 0.76251 0.16835 0.89847
 C1596 C 0.78458 0.19276 0.88411
 H1597 H 0.78771 0.16436 0.95539
 H1598 H 0.74147 0.15691 0.88067
 H1599 H 0.72412 0.11916 0.92776
 H1600 H 0.80503 0.20536 0.90174
 C1601 C 0.24118 0.62962 0.46289
 C1602 C 0.26274 0.65577 0.45102
 C1603 C 0.25843 0.66866 0.41211
 C1604 C 0.28077 0.69232 0.39684
 H1605 H 0.28498 0.66514 0.46847
 H1606 H 0.23687 0.65734 0.39493
 H1607 H 0.21986 0.62071 0.44383
 H1608 H 0.30177 0.70466 0.41394
 C1609 C 0.73542 0.86272 0.46900
 C1610 C 0.73540 0.82775 0.46312
 C1611 C 0.73980 0.81444 0.42455
 C1612 C 0.73973 0.78009 0.41573
 H1613 H 0.73423 0.80931 0.48606
 H1614 H 0.74429 0.83363 0.40265
 H1615 H 0.73628 0.87953 0.44449
 H1616 H 0.73388 0.76053 0.43684
 C1617 C 0.22781 0.35314 0.98167
 C1618 C 0.25244 0.34068 0.95842
 C1619 C 0.24316 0.31687 0.92643
 C1620 C 0.26882 0.30730 0.90313
 H1621 H 0.27991 0.34980 0.96137
 H1622 H 0.21544 0.31061 0.91959
 H1623 H 0.20126 0.34136 0.97993
 H1624 H 0.29611 0.31576 0.90943
 C1625 C 0.83687 0.46425 0.74750
 C1626 C 0.84613 0.43286 0.76151
 C1627 C 0.82722 0.39976 0.75019
 C1628 C 0.83376 0.36956 0.76805
 H1629 H 0.86886 0.43134 0.78062
 H1630 H 0.80808 0.40005 0.72703
 H1631 H 0.81481 0.46479 0.72738
 H1632 H 0.85171 0.36998 0.79226
 C1633 C 0.33214 0.96084 0.25464
 C1634 C 0.34505 0.93052 0.26779
 C1635 C 0.32525 0.89699 0.26106
 C1636 C 0.33401 0.86728 0.27865
 H1637 H 0.37113 0.93005 0.28135
 H1638 H 0.30351 0.89645 0.24055
 H1639 H 0.30631 0.95982 0.24029
 H1640 H 0.35434 0.86801 0.30068
 C1641 C 0.17712 0.97650 0.74411
 C1642 C 0.17667 0.94977 0.71931
 C1643 C 0.19743 0.91801 0.72725
 C1644 C 0.19757 0.89078 0.70328
 H1645 H 0.15899 0.94971 0.69496
 H1646 H 0.21066 0.91587 0.75441
 H1647 H 0.19552 0.97514 0.76793
 H1648 H 0.18503 0.89320 0.67581
 C1649 C 0.66180 0.46152 0.24283
 C1650 C 0.66894 0.44046 0.21359
 C1651 C 0.69318 0.41063 0.21919
 C1652 C 0.69820 0.38606 0.19271
 H1653 H 0.65568 0.44364 0.18666
 H1654 H 0.70481 0.40713 0.24694
 H1655 H 0.67748 0.45801 0.26840
 H1656 H 0.68650 0.38931 0.16496
 C1657 C 0.65407 0.52511 0.24064
 C1658 C 0.66353 0.54701 0.26920
 C1659 C 0.68369 0.58027 0.26233
 C1660 C 0.69228 0.60330 0.29005
 H1661 H 0.65660 0.54059 0.29769
 H1662 H 0.69112 0.58622 0.23382
 H1663 H 0.66246 0.53208 0.21267
 H1664 H 0.68430 0.59754 0.31842
 C1665 C 0.17414 0.04045 0.74661
 C1666 C 0.17803 0.06302 0.77574
 C1667 C 0.19901 0.09591 0.77053
 C1668 C 0.20262 0.12164 0.79648
 H1669 H 0.16495 0.05833 0.80206
 H1670 H 0.21015 0.10006 0.74305
 H1671 H 0.18882 0.04643 0.72140
 H1672 H 0.19222 0.11788 0.82432
 C1673 C 0.32840 0.02464 0.24554
 C1674 C 0.33763 0.05634 0.23211
 C1675 C 0.31493 0.08697 0.23863
 C1676 C 0.32006 0.11720 0.22037
 H1677 H 0.36320 0.06063 0.21917
 H1678 H 0.29497 0.08534 0.26019
 H1679 H 0.30275 0.02216 0.25907
 H1680 H 0.33866 0.11834 0.19750
 C1681 C 0.83601 0.52946 0.74517
 C1682 C 0.84795 0.56306 0.74614
 C1683 C 0.82286 0.59257 0.74567
 C1684 C 0.83156 0.62392 0.73102
 H1685 H 0.87630 0.56891 0.74887
 H1686 H 0.79707 0.58872 0.75845
 H1687 H 0.80735 0.52495 0.74293
 H1688 H 0.85619 0.62705 0.71586
 C1689 C 0.96921 0.77646 0.13517
 C1690 C 0.95602 0.75601 0.16206
 C1691 C 0.91869 0.75852 0.17377
 C1692 C 0.90733 0.73864 0.20194
 H1693 H 0.97301 0.73700 0.17567
 H1694 H 0.90081 0.77648 0.15974
 H1695 H 0.95146 0.79467 0.12120
 H1696 H 0.92601 0.72134 0.21585
 C1697 C 0.47187 0.26667 0.64707
 C1698 C 0.43809 0.27022 0.63527
 C1699 C 0.40861 0.26642 0.66161
 C1700 C 0.37524 0.27390 0.65122
 H1701 H 0.43226 0.27578 0.60605
 H1702 H 0.41435 0.25757 0.68988
 H1703 H 0.47690 0.26044 0.67633
 H1704 H 0.36989 0.28362 0.62321
 C1705 C 0.46824 0.75574 0.84983
 C1706 C 0.43481 0.74639 0.85855
 C1707 C 0.40521 0.74814 0.83103
 C1708 C 0.37255 0.73670 0.84005
 H1709 H 0.42894 0.73820 0.88679
 H1710 H 0.40998 0.75950 0.80374
 H1711 H 0.47348 0.76474 0.82164
 H1712 H 0.36841 0.72499 0.86731
 C1713 C 0.96224 0.22632 0.34867
 C1714 C 0.92992 0.22397 0.36426
 C1715 C 0.89599 0.22281 0.34259
 C1716 C 0.89237 0.23728 0.30863
 H1717 H 0.92802 0.22372 0.39451
 H1718 H 0.87268 0.21263 0.35673
 H1719 H 0.96421 0.22546 0.31846
 H1720 H 0.91513 0.24950 0.29531
 C1721 C 0.02842 0.23292 0.34724
 C1722 C 0.06137 0.24069 0.36025
 C1723 C 0.09257 0.23917 0.33577
 C1724 C 0.12451 0.25089 0.34825
 H1725 H 0.06534 0.24838 0.38936
 H1726 H 0.08935 0.22871 0.30753
 H1727 H 0.02511 0.22492 0.31811
 H1728 H 0.12699 0.26196 0.37631
 C1729 C 0.53370 0.76694 0.86111
 C1730 C 0.54665 0.74967 0.83171
 C1731 C 0.58378 0.75553 0.82049
 C1732 C 0.59781 0.73582 0.79363
 H1733 H 0.53059 0.72921 0.81777
 H1734 H 0.60021 0.77507 0.83545
 H1735 H 0.55086 0.78646 0.87526
 H1736 H 0.58106 0.71670 0.77846
 C1737 C 0.53758 0.26972 0.64474
 C1738 C 0.56674 0.25132 0.63759
 C1739 C 0.59854 0.25315 0.66244
 C1740 C 0.62614 0.23291 0.65478
 H1741 H 0.56750 0.23447 0.61301
 H1742 H 0.59964 0.27113 0.68620
 H1743 H 0.53811 0.28688 0.66922
 H1744 H 0.62435 0.21545 0.63056
 C1745 C 0.03457 0.76872 0.15210
 C1746 C 0.06764 0.75864 0.14463
 C1747 C 0.09600 0.75557 0.17343
 C1748 C 0.12472 0.73728 0.16470
 H1749 H 0.07401 0.75203 0.11593
 H1750 H 0.09406 0.76878 0.20031
 H1751 H 0.02812 0.77621 0.18052
 H1752 H 0.12500 0.72378 0.13777
   
