data_POSCAR
  _audit_creation_date              2014-09-24
  _audit_creation_method            'ToBaCCo'
  _symmetry_space_group_name_H-M    'P1'
  _symmetry_Int_Tables_number       1
  _symmetry_cell_setting            triclinic
  loop_
  _symmetry_equiv_pos_as_xyz
 x,y,z
_cell_length_a 49.2084
_cell_length_b 49.2919
_cell_length_c 49.2578
_cell_angle_alpha 90.000500
_cell_angle_beta 90.029200
_cell_angle_gamma 89.919800
loop_
  _atom_site_label
  _atom_site_type_symbol
  _atom_site_fract_x
  _atom_site_fract_y
  _atom_site_fract_z
C1 C 0.24882 0.99851 -0.01641
 C2 C 0.25028 0.99836 0.01113
 C3 C 0.25064 0.97294 0.02719
 C4 C 0.25118 1.02375 0.02730
 C5 C 0.24851 1.02425 -0.03203
 C6 C 0.24779 0.97317 -0.03274
 C7 C 0.22857 0.95489 0.02673
 C8 C 0.22760 0.93319 0.04505
 C9 C 0.24863 0.92947 0.06391
 C10 C 0.27098 0.94695 0.06383
 C11 C 0.27195 0.96859 0.04564
 C12 C 0.23119 1.02826 0.04712
 C13 C 0.23286 1.05061 0.06440
 C14 C 0.25466 1.06872 0.06221
 C15 C 0.27452 1.06461 0.04217
 C16 C 0.27280 1.04217 0.02479
 C17 C 0.26858 1.02873 -0.05176
 C18 C 0.26804 1.05218 -0.06760
 C19 C 0.24736 1.07136 -0.06403
 C20 C 0.22729 1.06711 -0.04432
 C21 C 0.22782 1.04359 -0.02840
 C22 C 0.26859 0.95364 -0.03129
 C23 C 0.26848 0.93128 -0.04886
 C24 C 0.24765 0.92831 -0.06806
 C25 C 0.22670 0.94749 -0.06925
 C26 C 0.22680 0.96979 -0.05177
 H27 H 0.21171 0.95825 0.01300
 H28 H 0.21015 0.91982 0.04504
 H29 H 0.28732 0.94429 0.07835
 H30 H 0.28900 0.98246 0.04644
 H31 H 0.21448 1.01417 0.04946
 H32 H 0.21737 1.05340 0.07981
 H33 H 0.28865 1.03875 0.00994
 H34 H 0.28458 1.01396 -0.05495
 H35 H 0.28355 1.05518 -0.08291
 H36 H 0.21106 1.08172 -0.04158
 H37 H 0.21190 1.04024 -0.01361
 H38 H 0.28527 0.95614 -0.01716
 H39 H 0.28490 0.91665 -0.04788
 H40 H 0.21054 0.94549 -0.08406
 H41 H 0.21070 0.98472 -0.05337
 H42 H 0.29161 1.07835 0.04028
 C43 C 0.75117 0.49613 0.50915
 C44 C 0.74939 0.49597 0.48164
 C45 C 0.74799 0.47044 0.46573
 C46 C 0.74917 0.52151 0.46562
 C47 C 0.75253 0.52172 0.52489
 C48 C 0.75151 0.47094 0.52561
 C49 C 0.76876 0.45088 0.46717
 C50 C 0.76832 0.42829 0.44992
 C51 C 0.74719 0.42515 0.43110
 C52 C 0.72626 0.44435 0.42995
 C53 C 0.72669 0.46688 0.44710
 C54 C 0.76898 0.52545 0.44551
 C55 C 0.76851 0.54868 0.42933
 C56 C 0.74816 0.56820 0.43292
 C57 C 0.72834 0.56449 0.45300
 C58 C 0.72879 0.54119 0.46926
 C59 C 0.73272 0.52682 0.54473
 C60 C 0.73484 0.54942 0.56160
 C61 C 0.75687 0.56711 0.55894
 C62 C 0.77654 0.56244 0.53891
 C63 C 0.77441 0.53977 0.52193
 C64 C 0.72932 0.45303 0.52568
 C65 C 0.72836 0.43164 0.54439
 C66 C 0.74952 0.42808 0.56313
 C67 C 0.77199 0.44541 0.56255
 C68 C 0.77295 0.46674 0.54397
 H69 H 0.78566 0.45354 0.48101
 H70 H 0.78473 0.41365 0.45084
 H71 H 0.70989 0.44220 0.41540
 H72 H 0.71062 0.48184 0.44554
 H73 H 0.78474 0.51043 0.44230
 H74 H 0.78384 0.55125 0.41376
 H75 H 0.71305 0.53827 0.48433
 H76 H 0.71583 0.51301 0.54741
 H77 H 0.71959 0.55279 0.57710
 H78 H 0.79377 0.57594 0.53683
 H79 H 0.79012 0.53588 0.50703
 H80 H 0.71236 0.45627 0.51204
 H81 H 0.71082 0.41839 0.54474
 H82 H 0.78844 0.44288 0.57696
 H83 H 0.79010 0.48049 0.54439
 H84 H 0.71236 0.57936 0.45579
 C85 C 0.75066 0.98082 0.99646
 C86 C 0.75069 1.00837 0.99646
 C87 C 0.74937 1.02426 1.02195
 C88 C 0.75166 1.02469 0.97118
 C89 C 0.75181 0.96476 0.97103
 C90 C 0.74978 0.96494 1.02208
 C91 C 0.72803 1.04283 1.02555
 C92 C 0.72759 1.05986 1.04813
 C93 C 0.74853 1.05863 1.06728
 C94 C 0.76970 1.03985 1.06410
 C95 C 0.77015 1.02271 1.04145
 C96 C 0.73068 1.02342 0.95186
 C97 C 0.72993 1.04199 0.93034
 C98 C 0.75010 1.06193 0.92803
 C99 C 0.77144 1.06268 0.94677
 C100 C 0.77218 1.04424 0.96824
 C101 C 0.77366 0.96728 0.95283
 C102 C 0.77559 0.94999 0.93034
 C103 C 0.75577 0.93006 0.92598
 C104 C 0.73379 0.92782 0.94383
 C105 C 0.73186 0.94500 0.96624
 C106 C 0.77049 0.94609 1.02748
 C107 C 0.76947 0.92991 1.05071
 C108 C 0.74764 0.93225 1.06880
 C109 C 0.72692 0.95112 1.06363
 C110 C 0.72795 0.96737 1.04033
 H111 H 0.71195 1.04441 1.01060
 H112 H 0.71120 1.07441 1.05035
 H113 H 0.78610 1.03890 1.07874
 H114 H 0.78700 1.00882 1.03873
 H115 H 0.71439 1.00884 0.95409
 H116 H 0.71325 1.04131 0.91599
 H117 H 0.78838 1.04569 0.98307
 H118 H 0.78954 0.98202 0.95647
 H119 H 0.79278 0.95177 0.91674
 H120 H 0.71841 0.91242 0.94071
 H121 H 0.71499 0.94263 0.98016
 H122 H 0.78738 0.94381 1.01357
 H123 H 0.78557 0.91530 1.05433
 H124 H 0.70979 0.95300 1.07732
 H125 H 0.71153 0.98145 1.03625
 H126 H 0.78712 1.07802 0.94523
 C127 C 0.25023 0.51035 0.49702
 C128 C 0.24988 0.48279 0.49734
 C129 C 0.25062 0.46632 0.47209
 C130 C 0.24898 0.46731 0.52318
 C131 C 0.24933 0.52667 0.52232
 C132 C 0.25105 0.52626 0.47150
 C133 C 0.23055 0.44654 0.46787
 C134 C 0.23208 0.42902 0.44566
 C135 C 0.25379 0.43091 0.42743
 C136 C 0.27374 0.45083 0.43124
 C137 C 0.27220 0.46845 0.45352
 C138 C 0.22729 0.47028 0.54151
 C139 C 0.22624 0.45442 0.56506
 C140 C 0.24678 0.43544 0.57038
 C141 C 0.26846 0.43255 0.55223
 C142 C 0.26952 0.44832 0.52874
 C143 C 0.27016 0.52505 0.54178
 C144 C 0.27013 0.54255 0.56418
 C145 C 0.24934 0.56180 0.56718
 C146 C 0.22837 0.56313 0.54806
 C147 C 0.22839 0.54574 0.52573
 C148 C 0.27177 0.54549 0.46798
 C149 C 0.27094 0.56361 0.44626
 C150 C 0.24931 0.56283 0.42785
 C151 C 0.22894 0.54319 0.43073
 C152 C 0.22978 0.52493 0.45251
 H153 H 0.21387 0.44442 0.48206
 H154 H 0.21659 0.41365 0.44299
 H155 H 0.29072 0.45237 0.41735
 H156 H 0.28819 0.48319 0.45670
 H157 H 0.21101 0.48448 0.53731
 H158 H 0.20924 0.45664 0.57886
 H159 H 0.28630 0.44563 0.51477
 H160 H 0.28672 0.51079 0.53922
 H161 H 0.28655 0.54148 0.57879
 H162 H 0.21226 0.57800 0.55012
 H163 H 0.21227 0.54740 0.51083
 H164 H 0.28819 0.54696 0.48257
 H165 H 0.28676 0.57875 0.44427
 H166 H 0.21203 0.54251 0.41665
 H167 H 0.21336 0.51059 0.45520
 H168 H 0.28436 0.41780 0.55605
 C169 C 0.99644 0.24815 0.01792
 C170 C 0.99635 0.24818 -0.00966
 C171 C 0.97098 0.24721 -0.02591
 C172 C 1.02181 0.24963 -0.02566
 C173 C 1.02215 0.24904 0.03373
 C174 C 0.97103 0.24699 0.03409
 C175 C 0.96800 0.22678 -0.04554
 C176 C 0.94646 0.22754 -0.06394
 C177 C 0.92765 0.24884 -0.06308
 C178 C 0.93000 0.26893 -0.04303
 C179 C 0.95161 0.26814 -0.02451
 C180 C 1.04147 0.22899 -0.02423
 C181 C 1.06410 0.22958 -0.04143
 C182 C 1.06712 0.25076 -0.06019
 C183 C 1.04778 0.27157 -0.06130
 C184 C 1.02523 0.27097 -0.04420
 C185 C 1.04034 0.27088 0.03133
 C186 C 1.06370 0.27193 0.04755
 C187 C 1.06899 0.25122 0.06636
 C188 C 1.05097 0.22938 0.06866
 C189 C 1.02768 0.22834 0.05251
 C190 C 0.96636 0.26686 0.05398
 C191 C 0.94399 0.26493 0.07126
 C192 C 0.92607 0.24304 0.06900
 C193 C 0.93033 0.22331 0.04895
 C194 C 0.95276 0.22524 0.03156
 H195 H 0.98288 0.21063 -0.04709
 H196 H 0.94496 0.21188 -0.07933
 H197 H 0.91564 0.28560 -0.04218
 H198 H 0.95386 0.28436 -0.00985
 H199 H 1.03890 0.21214 -0.01036
 H200 H 1.07884 0.21325 -0.04048
 H201 H 1.01016 0.28694 -0.04568
 H202 H 1.03617 0.28728 0.01731
 H203 H 1.07734 0.28908 0.04571
 H204 H 1.05468 0.21330 0.08322
 H205 H 1.01381 0.21144 0.05477
 H206 H 0.98032 0.28366 0.05638
 H207 H 0.94096 0.28025 0.08675
 H208 H 0.91666 0.20619 0.04714
 H209 H 0.95631 0.20942 0.01672
 H210 H 1.04980 0.28802 -0.07577
 C211 C 0.49713 0.74856 0.48950
 C212 C 0.49753 0.74895 0.51707
 C213 C 0.47230 0.74827 0.53359
 C214 C 0.52343 0.74982 0.53251
 C215 C 0.52242 0.74943 0.47315
 C216 C 0.47156 0.74776 0.47362
 C217 C 0.46812 0.76837 0.55335
 C218 C 0.44592 0.76692 0.57090
 C219 C 0.42766 0.74526 0.56905
 C220 C 0.43144 0.72528 0.54914
 C221 C 0.45371 0.72674 0.53149
 C222 C 0.54175 0.77147 0.52955
 C223 C 0.56538 0.77249 0.54537
 C224 C 0.57076 0.75195 0.56429
 C225 C 0.55262 0.73032 0.56717
 C226 C 0.52906 0.72929 0.55144
 C227 C 0.54192 0.72864 0.47477
 C228 C 0.56438 0.72872 0.45733
 C229 C 0.56741 0.74952 0.43817
 C230 C 0.54825 0.77045 0.43683
 C231 C 0.52585 0.77037 0.45416
 C232 C 0.46800 0.72707 0.45435
 C233 C 0.44620 0.72791 0.43627
 C234 C 0.42776 0.74950 0.43712
 C235 C 0.43068 0.76984 0.45679
 C236 C 0.45254 0.76899 0.47501
 H237 H 0.48233 0.78501 0.55543
 H238 H 0.44326 0.78243 0.58626
 H239 H 0.41753 0.70834 0.54764
 H240 H 0.45687 0.71073 0.51677
 H241 H 0.53750 0.78775 0.51540
 H242 H 0.57917 0.78946 0.54316
 H243 H 0.51508 0.71254 0.55412
 H244 H 0.53934 0.71208 0.48898
 H245 H 0.57903 0.71233 0.45840
 H246 H 0.55034 0.78656 0.42202
 H247 H 0.51093 0.78647 0.45251
 H248 H 0.48261 0.71068 0.45282
 H249 H 0.44418 0.71211 0.42110
 H250 H 0.41657 0.78671 0.45753
 H251 H 0.45525 0.78539 0.48938
 H252 H 0.55649 0.71443 0.58188
 C253 C 0.00985 0.75056 0.00200
 C254 C -0.01773 0.75185 0.00181
 C255 C -0.03336 0.75200 -0.02395
 C256 C -0.03406 0.75281 0.02716
 C257 C 0.02592 0.75024 0.02744
 C258 C 0.02605 0.74974 -0.02339
 C259 C -0.02987 0.77262 -0.04334
 C260 C -0.04580 0.77298 -0.06689
 C261 C -0.06539 0.75279 -0.07115
 C262 C -0.06880 0.73216 -0.05191
 C263 C -0.05294 0.73182 -0.02843
 C264 C -0.05319 0.77370 0.03058
 C265 C -0.07064 0.77376 0.05290
 C266 C -0.06934 0.75283 0.07208
 C267 C -0.05003 0.73208 0.06905
 C268 C -0.03249 0.73204 0.04665
 C269 C 0.04442 0.72897 0.03179
 C270 C 0.06264 0.72998 0.05344
 C271 C 0.06271 0.75231 0.07093
 C272 C 0.04381 0.77330 0.06722
 C273 C 0.02544 0.77228 0.04551
 C274 C 0.02374 0.72808 -0.04179
 C275 C 0.04120 0.72641 -0.06417
 C276 C 0.06110 0.74635 -0.06824
 C277 C 0.06309 0.76818 -0.05018
 C278 C 0.04573 0.76982 -0.02787
 H279 H -0.01519 0.78862 -0.03999
 H280 H -0.04311 0.78920 -0.08149
 H281 H -0.08398 0.71652 -0.05484
 H282 H -0.05601 0.71586 -0.01363
 H283 H -0.05486 0.78977 0.01567
 H284 H -0.08551 0.78989 0.05489
 H285 H -0.01827 0.71545 0.04411
 H286 H 0.04522 0.71194 0.01791
 H287 H 0.07720 0.71367 0.05608
 H288 H 0.04378 0.79074 0.08060
 H289 H 0.01166 0.78911 0.04216
 H290 H 0.00899 0.71215 -0.03837
 H291 H 0.03954 0.70932 -0.07791
 H292 H 0.07843 0.78370 -0.05300
 H293 H 0.04792 0.78655 -0.01379
 H294 H -0.04889 0.71566 0.08363
 C295 C 0.50913 0.25063 0.50375
 C296 C 0.48158 0.25238 0.50388
 C297 C 0.46562 0.25377 0.52941
 C298 C 0.46559 0.25253 0.47830
 C299 C 0.52493 0.24925 0.47816
 C300 C 0.52558 0.25030 0.52899
 C301 C 0.46709 0.23307 0.54899
 C302 C 0.44978 0.23349 0.57155
 C303 C 0.43084 0.25453 0.57465
 C304 C 0.42965 0.27539 0.55544
 C305 C 0.44687 0.27498 0.53293
 C306 C 0.44554 0.23269 0.47431
 C307 C 0.42941 0.23305 0.45101
 C308 C 0.43300 0.25332 0.43146
 C309 C 0.45300 0.27318 0.43522
 C310 C 0.46921 0.27284 0.45860
 C311 C 0.54479 0.26902 0.47311
 C312 C 0.56172 0.26688 0.45053
 C313 C 0.55912 0.24487 0.43281
 C314 C 0.53906 0.22525 0.43743
 C315 C 0.52201 0.22740 0.46008
 C316 C 0.52563 0.27247 0.54691
 C317 C 0.54434 0.27343 0.56834
 C318 C 0.56309 0.25228 0.57192
 C319 C 0.56251 0.22983 0.55458
 C320 C 0.54394 0.22888 0.53321
 H321 H 0.48101 0.21624 0.54637
 H322 H 0.45074 0.21713 0.58621
 H323 H 0.41501 0.29170 0.55755
 H324 H 0.44527 0.29100 0.51795
 H325 H 0.44234 0.21698 0.48935
 H326 H 0.41389 0.21769 0.44839
 H327 H 0.48424 0.28859 0.46154
 H328 H 0.54744 0.28589 0.48696
 H329 H 0.57724 0.28209 0.44721
 H330 H 0.53701 0.20804 0.42391
 H331 H 0.50711 0.21172 0.46393
 H332 H 0.51198 0.28942 0.54366
 H333 H 0.54469 0.29095 0.58161
 H334 H 0.57692 0.21339 0.55712
 H335 H 0.54435 0.21174 0.51944
 H336 H 0.45578 0.28910 0.42033
 C337 C 1.00240 0.01611 0.24974
 C338 C 1.00259 -0.01141 0.25120
 C339 C 0.97718 -0.02755 0.25204
 C340 C 1.02806 -0.02746 0.25161
 C341 C 1.02775 0.03239 0.24866
 C342 C 0.97662 0.03174 0.24944
 C343 C 0.95870 -0.02508 0.27365
 C344 C 0.93626 -0.04245 0.27531
 C345 C 0.93222 -0.06242 0.25542
 C346 C 0.95036 -0.06457 0.23365
 C347 C 0.97272 -0.04731 0.23202
 C348 C 1.03241 -0.04581 0.27296
 C349 C 1.05405 -0.06408 0.27202
 C350 C 1.07153 -0.06433 0.24963
 C351 C 1.06781 -0.04553 0.22856
 C352 C 1.04611 -0.02715 0.22953
 C353 C 1.03115 0.05130 0.22761
 C354 C 1.05343 0.06880 0.22748
 C355 C 1.07256 0.06775 0.24848
 C356 C 1.06959 0.04866 0.26936
 C357 C 1.04725 0.03106 0.26950
 C358 C 0.95728 0.02818 0.22874
 C359 C 0.93378 0.04420 0.22817
 C360 C 0.92953 0.06392 0.24821
 C361 C 0.94868 0.06739 0.26892
 C362 C 0.97212 0.05146 0.26950
 H363 H 0.96208 -0.01027 0.28952
 H364 H 0.92246 -0.04066 0.29235
 H365 H 0.94756 -0.07996 0.21818
 H366 H 0.98686 -0.04962 0.21533
 H367 H 1.01854 -0.04649 0.29002
 H368 H 1.05664 -0.07850 0.28844
 H369 H 1.04274 -0.01348 0.21264
 H370 H 1.01624 0.05280 0.21148
 H371 H 1.05543 0.08353 0.21128
 H372 H 1.08418 0.04779 0.28581
 H373 H 1.04472 0.01702 0.28621
 H374 H 0.96065 0.01339 0.21282
 H375 H 0.91919 0.04152 0.21191
 H376 H 0.94568 0.08271 0.28441
 H377 H 0.98688 0.05459 0.28551
 H378 H 1.08115 -0.04558 0.21105
 C379 C 0.50389 0.51841 0.74965
 C380 C 0.50378 0.49091 0.75143
 C381 C 0.47817 0.47515 0.75282
 C382 C 0.52906 0.47448 0.75173
 C383 C 0.52944 0.53434 0.74826
 C384 C 0.47827 0.53439 0.74938
 C385 C 0.46002 0.47818 0.77462
 C386 C 0.43732 0.46122 0.77675
 C387 C 0.43271 0.44113 0.75715
 C388 C 0.45051 0.43840 0.73520
 C389 C 0.47314 0.45525 0.73307
 C390 C 0.53331 0.45612 0.77311
 C391 C 0.55473 0.43759 0.77211
 C392 C 0.57211 0.43707 0.74967
 C393 C 0.56849 0.45582 0.72855
 C394 C 0.54701 0.47447 0.72956
 C395 C 0.53296 0.55300 0.72701
 C396 C 0.55551 0.57014 0.72658
 C397 C 0.57477 0.56897 0.74744
 C398 C 0.57166 0.55012 0.76852
 C399 C 0.54905 0.53289 0.76897
 C400 C 0.45860 0.53069 0.72901
 C401 C 0.43522 0.54691 0.72851
 C402 C 0.43141 0.56700 0.74828
 C403 C 0.45091 0.57066 0.76863
 C404 C 0.47423 0.55451 0.76914
 H405 H 0.46385 0.49312 0.79028
 H406 H 0.42373 0.46337 0.79392
 H407 H 0.44720 0.42286 0.71999
 H408 H 0.48703 0.45251 0.71623
 H409 H 0.51953 0.45566 0.79025
 H410 H 0.55730 0.42317 0.78853
 H411 H 0.54374 0.48812 0.71263
 H412 H 0.51797 0.55458 0.71098
 H413 H 0.55763 0.58470 0.71024
 H414 H 0.58635 0.54918 0.78488
 H415 H 0.54643 0.51903 0.78583
 H416 H 0.46159 0.51560 0.71331
 H417 H 0.42037 0.54408 0.71252
 H418 H 0.44826 0.58625 0.78391
 H419 H 0.48924 0.55778 0.78490
 H420 H 0.58178 0.45550 0.71103
 C421 C 1.01854 1.00407 0.75051
 C422 C 0.99093 1.00410 0.75063
 C423 C 0.97500 0.97863 0.74944
 C424 C 0.97459 1.02941 0.75156
 C425 C 1.03464 1.02948 0.75167
 C426 C 1.03444 0.97844 0.74954
 C427 C 0.95623 0.97502 0.72829
 C428 C 0.93923 0.95243 0.72795
 C429 C 0.94068 0.93326 0.74882
 C430 C 0.95963 0.93646 0.76982
 C431 C 0.97674 0.95912 0.77017
 C432 C 0.97594 1.04869 0.73060
 C433 C 0.95741 1.07029 0.72983
 C434 C 0.93739 1.07270 0.74997
 C435 C 0.93656 1.05396 0.77130
 C436 C 0.95498 1.03243 0.77204
 C437 C 1.03206 1.04772 0.77346
 C438 C 1.04936 1.07019 0.77538
 C439 C 1.06937 1.07450 0.75561
 C440 C 1.07169 1.05661 0.73369
 C441 C 1.05449 1.03421 0.73177
 C442 C 1.05343 0.97301 0.77011
 C443 C 1.06960 0.94975 0.76901
 C444 C 1.06711 0.93165 0.74724
 C445 C 1.04812 0.93685 0.72664
 C446 C 1.03188 0.96019 0.72775
 H447 H 0.95450 0.98997 0.71226
 H448 H 0.92456 0.95020 0.71169
 H449 H 0.96076 0.92180 0.78617
 H450 H 0.99078 0.96183 0.78689
 H451 H 0.99058 1.04640 0.71435
 H452 H 0.95823 1.08459 0.71314
 H453 H 0.95347 1.01763 0.78822
 H454 H 1.01725 1.04413 0.78930
 H455 H 1.04752 1.08382 0.79253
 H456 H 1.08715 1.05968 0.71835
 H457 H 1.05693 1.02027 0.71494
 H458 H 1.05581 0.98692 0.78697
 H459 H 1.08430 0.94610 0.78501
 H460 H 1.04612 0.92316 0.70955
 H461 H 1.01770 0.96428 0.71144
 H462 H 0.92121 1.05551 0.78700
 C463 C 0.51715 0.50255 0.24994
 C464 C 0.48956 0.50294 0.25025
 C465 C 0.47320 0.47770 0.24935
 C466 C 0.47364 0.52848 0.25107
 C467 C 0.53365 0.52774 0.25070
 C468 C 0.53265 0.47671 0.24909
 C469 C 0.45417 0.47429 0.22840
 C470 C 0.43677 0.45199 0.22835
 C471 C 0.43808 0.43290 0.24931
 C472 C 0.45729 0.43590 0.27010
 C473 C 0.47479 0.45827 0.27017
 C474 C 0.47502 0.54744 0.22983
 C475 C 0.45678 0.56927 0.22899
 C476 C 0.43708 0.57220 0.24935
 C477 C 0.43625 0.55382 0.27094
 C478 C 0.45436 0.53205 0.27177
 C479 C 0.53154 0.54626 0.27230
 C480 C 0.54921 0.56847 0.27386
 C481 C 0.56916 0.57225 0.25392
 C482 C 0.57103 0.55408 0.23219
 C483 C 0.55346 0.53194 0.23062
 C484 C 0.55161 0.47115 0.26964
 C485 C 0.56745 0.44768 0.26860
 C486 C 0.56465 0.42955 0.24692
 C487 C 0.54568 0.43486 0.22637
 C488 C 0.52975 0.45840 0.22740
 H489 H 0.45253 0.48917 0.21229
 H490 H 0.42192 0.44992 0.21223
 H491 H 0.45834 0.42130 0.28651
 H492 H 0.48903 0.46083 0.28674
 H493 H 0.48941 0.54471 0.21342
 H494 H 0.45749 0.58333 0.21211
 H495 H 0.45285 0.51749 0.28817
 H496 H 0.51678 0.54309 0.28829
 H497 H 0.54769 0.58232 0.29087
 H498 H 0.58643 0.55674 0.21670
 H499 H 0.55555 0.51778 0.21393
 H500 H 0.55424 0.48512 0.28641
 H501 H 0.58219 0.44386 0.28451
 H502 H 0.54353 0.42108 0.20937
 H503 H 0.51558 0.46259 0.21111
 H504 H 0.42107 0.55585 0.28675
 O505 O 0.25705 0.17996 0.20456
 O506 O 0.28666 0.17193 0.24254
 O507 O 0.18599 0.21212 0.24410
 O508 O 0.17574 0.24734 0.27060
 O509 O 0.21866 0.25100 0.17221
 O510 O 0.25651 0.28073 0.16501
 O511 O 0.25716 0.28706 0.31325
 O512 O 0.22525 0.25140 0.32030
 O513 O 0.32639 0.25072 0.28060
 O514 O 0.33458 0.21961 0.24148
 O515 O 0.29385 0.31975 0.24471
 O516 O 0.25496 0.32824 0.21320
 O517 O 0.25719 0.31971 0.28073
 O518 O 0.22634 0.32842 0.24230
 O519 O 0.32644 0.28711 0.24450
 O520 O 0.33496 0.24895 0.21316
 O521 O 0.29366 0.25119 0.31306
 O522 O 0.25664 0.21958 0.32143
 O523 O 0.25703 0.21279 0.17216
 O524 O 0.28660 0.25053 0.16473
 O525 O 0.18608 0.25026 0.20487
 O526 O 0.17952 0.28155 0.24274
 O527 O 0.21874 0.17957 0.24312
 O528 O 0.25647 0.17151 0.27235
 Zr529 Zr 0.25540 0.20138 0.24157
 O530 O 0.28070 0.22440 0.26719
 Zr531 Zr 0.20758 0.24894 0.24178
 O532 O 0.23078 0.27411 0.26750
 Zr533 Zr 0.25539 0.24929 0.19418
 O534 O 0.28078 0.27445 0.21766
 Zr535 Zr 0.25696 0.25039 0.29134
 O536 O 0.23134 0.22489 0.26807
 Zr537 Zr 0.30472 0.25051 0.24369
 O538 O 0.28169 0.22515 0.21776
 Zr539 Zr 0.25692 0.29821 0.24387
 O540 O 0.23131 0.27531 0.21799
 O541 O 0.23009 0.22390 0.21640
 O542 O 0.28239 0.27585 0.26919
 C543 C 0.25774 0.18782 0.17965
 C544 C 0.19378 0.18717 0.24442
 C545 C 0.19369 0.25137 0.17993
 C546 C 0.25736 0.31202 0.30565
 C547 C 0.31864 0.25125 0.30551
 C548 C 0.31881 0.31201 0.24504
 H549 H 0.29201 0.21206 0.27825
 H550 H 0.29203 0.28574 0.20550
 H551 H 0.21849 0.21229 0.20481
 H552 H 0.21857 0.28516 0.27900
 H553 H 0.21160 0.23785 0.31445
 H554 H 0.18161 0.25788 0.28663
 H555 H 0.33113 0.26359 0.19997
 H556 H 0.30114 0.23826 0.17126
 H557 H 0.27084 0.20613 0.31689
 H558 H 0.24459 0.17818 0.28714
 H559 H 0.27017 0.32504 0.20047
 H560 H 0.24409 0.29510 0.17161
 H561 H 0.30108 0.17846 0.23016
 H562 H 0.33127 0.20673 0.25651
 H563 H 0.18532 0.29469 0.22870
 H564 H 0.21286 0.32427 0.25659
 O565 O 0.74908 0.82659 0.21826
 O566 O 0.71960 0.83407 0.25629
 O567 O 0.82048 0.79439 0.25720
 O568 O 0.83094 0.75916 0.28372
 O569 O 0.78789 0.75573 0.18543
 O570 O 0.75010 0.72602 0.17792
 O571 O 0.74984 0.71884 0.32634
 O572 O 0.78184 0.75438 0.33332
 O573 O 0.68065 0.75456 0.29405
 O574 O 0.67200 0.78614 0.25512
 O575 O 0.71321 0.68614 0.25716
 O576 O 0.75219 0.67800 0.22605
 O577 O 0.74961 0.68642 0.29360
 O578 O 0.78078 0.67793 0.25514
 O579 O 0.68044 0.71860 0.25732
 O580 O 0.67147 0.75696 0.22672
 O581 O 0.71346 0.75446 0.32648
 O582 O 0.75038 0.78633 0.33462
 O583 O 0.74914 0.79389 0.18573
 O584 O 0.71995 0.75594 0.17790
 O585 O 0.82065 0.75644 0.21795
 O586 O 0.82735 0.72499 0.25552
 O587 O 0.78754 0.82677 0.25653
 O588 O 0.74990 0.83437 0.28611
 Zr589 Zr 0.75101 0.80480 0.25505
 O590 O 0.72593 0.78148 0.28058
 Zr591 Zr 0.79912 0.75747 0.25485
 O592 O 0.77614 0.73204 0.28048
 Zr593 Zr 0.75116 0.75718 0.20738
 O594 O 0.72598 0.73175 0.23075
 Zr595 Zr 0.74996 0.75552 0.30452
 O596 O 0.77534 0.78127 0.28132
 Zr597 Zr 0.70199 0.75534 0.25699
 O598 O 0.72477 0.78100 0.23116
 Zr599 Zr 0.75001 0.70795 0.25678
 O600 O 0.77542 0.73112 0.23097
 O601 O 0.77637 0.78256 0.22968
 O602 O 0.72456 0.73003 0.28230
 C603 C 0.74828 0.81883 0.19333
 C604 C 0.81255 0.81928 0.25762
 C605 C 0.81291 0.75541 0.19304
 C606 C 0.74947 0.69395 0.31857
 C607 C 0.68848 0.75407 0.31895
 C608 C 0.68819 0.69372 0.25745
 H609 H 0.71459 0.79368 0.29175
 H610 H 0.71478 0.72049 0.21850
 H611 H 0.78786 0.79428 0.21809
 H612 H 0.78840 0.72097 0.29190
 H613 H 0.79538 0.76807 0.32756
 H614 H 0.82531 0.74820 0.29956
 H615 H 0.67563 0.74283 0.21308
 H616 H 0.70533 0.76806 0.18451
 H617 H 0.73589 0.79958 0.33035
 H618 H 0.76211 0.82779 0.30068
 H619 H 0.73729 0.68146 0.21303
 H620 H 0.76260 0.71164 0.18436
 H621 H 0.70508 0.82743 0.24407
 H622 H 0.67505 0.79869 0.27049
 H623 H 0.82142 0.71180 0.24158
 H624 H 0.79406 0.68189 0.26968
 O625 O 0.75010 0.17910 0.78695
 O626 O 0.72197 0.17052 0.74988
 O627 O 0.82138 0.21311 0.74879
 O628 O 0.83192 0.24880 0.72393
 O629 O 0.78709 0.24996 0.82112
 O630 O 0.74974 0.27848 0.82930
 O631 O 0.74925 0.28668 0.67969
 O632 O 0.78080 0.25154 0.67237
 O633 O 0.68015 0.25127 0.71316
 O634 O 0.67071 0.22154 0.75037
 O635 O 0.71371 0.32023 0.74901
 O636 O 0.75128 0.32943 0.77867
 O637 O 0.74943 0.31952 0.71201
 O638 O 0.78208 0.32674 0.75170
 O639 O 0.68071 0.28810 0.74913
 O640 O 0.67331 0.24823 0.78147
 O641 O 0.71237 0.25171 0.68018
 O642 O 0.74558 0.21936 0.67233
 O643 O 0.74946 0.21115 0.82010
 O644 O 0.71873 0.24953 0.82724
 O645 O 0.82021 0.25023 0.78900
 O646 O 0.82615 0.28253 0.75006
 O647 O 0.78935 0.18000 0.74981
 O648 O 0.74925 0.17240 0.71885
 Zr649 Zr 0.75192 0.20120 0.75064
 O650 O 0.72600 0.22458 0.72590
 Zr651 Zr 0.79908 0.24920 0.75156
 O652 O 0.77586 0.27400 0.72547
 Zr653 Zr 0.75089 0.24835 0.79879
 O654 O 0.72617 0.27445 0.77556
 Zr655 Zr 0.74942 0.25044 0.70171
 O656 O 0.77585 0.22512 0.72455
 Zr657 Zr 0.70206 0.25086 0.74961
 O658 O 0.72508 0.22449 0.77463
 Zr659 Zr 0.75008 0.29817 0.74925
 O660 O 0.77503 0.27500 0.77560
 O661 O 0.77667 0.22358 0.77639
 O662 O 0.72433 0.27609 0.72407
 C663 C 0.74907 0.18631 0.81198
 C664 C 0.81419 0.18809 0.74859
 C665 C 0.81213 0.25074 0.81388
 C666 C 0.74905 0.31162 0.68709
 C667 C 0.68747 0.25189 0.68817
 C668 C 0.68870 0.31296 0.74880
 H669 H 0.71481 0.21239 0.71453
 H670 H 0.71507 0.28579 0.78784
 H671 H 0.78831 0.21194 0.78795
 H672 H 0.78808 0.28493 0.71390
 H673 H 0.79387 0.23706 0.67727
 H674 H 0.82459 0.25484 0.70625
 H675 H 0.67519 0.26463 0.79290
 H676 H 0.70541 0.23564 0.82150
 H677 H 0.75903 0.20523 0.67703
 H678 H 0.76625 0.17348 0.70818
 H679 H 0.73891 0.32419 0.79357
 H680 H 0.76095 0.29374 0.82258
 H681 H 0.70640 0.17753 0.76049
 H682 H 0.67622 0.20656 0.73820
 H683 H 0.82173 0.29440 0.76567
 H684 H 0.79331 0.32492 0.73515
 O685 O 0.24360 0.81424 0.78787
 O686 O 0.27325 0.82195 0.75001
 O687 O 0.17256 0.78180 0.74816
 O688 O 0.16288 0.74664 0.72138
 O689 O 0.20477 0.74352 0.82023
 O690 O 0.24266 0.71379 0.82819
 O691 O 0.24486 0.70624 0.68009
 O692 O 0.21243 0.74170 0.67255
 O693 O 0.31327 0.74281 0.71281
 O694 O 0.32141 0.77390 0.75187
 O695 O 0.28051 0.67381 0.74943
 O696 O 0.24134 0.66588 0.78042
 O697 O 0.24457 0.67387 0.71288
 O698 O 0.21299 0.66562 0.75097
 O699 O 0.31305 0.70641 0.74926
 O700 O 0.32156 0.74485 0.78032
 O701 O 0.28081 0.74247 0.68004
 O702 O 0.24383 0.77359 0.67123
 O703 O 0.24334 0.78166 0.82051
 O704 O 0.27263 0.74389 0.82858
 O705 O 0.17239 0.74404 0.78733
 O706 O 0.16630 0.71243 0.74980
 O707 O 0.20535 0.81423 0.74909
 O708 O 0.24332 0.82212 0.72001
 Zr709 Zr 0.24209 0.79249 0.75101
 O710 O 0.26759 0.76921 0.72580
 Zr711 Zr 0.19429 0.74504 0.75070
 O712 O 0.21772 0.71959 0.72541
 Zr713 Zr 0.24175 0.74498 0.79875
 O714 O 0.26734 0.71957 0.77570
 Zr715 Zr 0.24405 0.74309 0.70163
 O716 O 0.21825 0.76885 0.72446
 Zr717 Zr 0.29146 0.74318 0.74964
 O718 O 0.26824 0.76883 0.77518
 Zr719 Zr 0.24368 0.69564 0.74952
 O720 O 0.21786 0.71883 0.77495
 O721 O 0.21661 0.77022 0.77612
 O722 O 0.26932 0.71772 0.72419
 C723 C 0.24421 0.80658 0.81285
 C724 C 0.18037 0.80671 0.74777
 C725 C 0.17985 0.74315 0.81232
 C726 C 0.24517 0.68136 0.68792
 C727 C 0.30572 0.74241 0.68781
 C728 C 0.30546 0.68149 0.74911
 H729 H 0.27895 0.78147 0.71474
 H730 H 0.27849 0.70836 0.78807
 H731 H 0.20496 0.78196 0.78756
 H732 H 0.20567 0.70845 0.71388
 H733 H 0.19880 0.75544 0.67808
 H734 H 0.16866 0.73544 0.70574
 H735 H 0.31763 0.73035 0.79362
 H736 H 0.28738 0.75581 0.82195
 H737 H 0.25743 0.78747 0.67616
 H738 H 0.23124 0.81556 0.70534
 H739 H 0.25628 0.66928 0.79343
 H740 H 0.23015 0.69947 0.82170
 H741 H 0.28771 0.81543 0.76239
 H742 H 0.31807 0.78684 0.73689
 H743 H 0.17208 0.69936 0.76393
 H744 H 0.19989 0.66945 0.73622
 O745 O 0.24805 0.32967 0.72157
 O746 O 0.21851 0.33718 0.75950
 O747 O 0.31942 0.29763 0.76068
 O748 O 0.32991 0.26250 0.78727
 O749 O 0.28706 0.25880 0.68893
 O750 O 0.24933 0.22906 0.68134
 O751 O 0.24878 0.22214 0.82978
 O752 O 0.28068 0.25774 0.83680
 O753 O 0.17961 0.25755 0.79726
 O754 O 0.17094 0.28910 0.75832
 O755 O 0.21241 0.18923 0.76053
 O756 O 0.25147 0.18109 0.72958
 O757 O 0.24866 0.18967 0.79707
 O758 O 0.27999 0.18116 0.75872
 O759 O 0.17956 0.22160 0.76055
 O760 O 0.17060 0.25996 0.72989
 O761 O 0.21234 0.25760 0.82977
 O762 O 0.24915 0.28964 0.83793
 O763 O 0.24826 0.29691 0.68909
 O764 O 0.21916 0.25892 0.68122
 O765 O 0.31975 0.25961 0.72152
 O766 O 0.32642 0.22826 0.75919
 O767 O 0.28645 0.32997 0.75987
 O768 O 0.24873 0.33754 0.78941
 Zr769 Zr 0.24995 0.30794 0.75837
 O770 O 0.22484 0.28462 0.78387
 Zr771 Zr 0.29814 0.26069 0.75836
 O772 O 0.27515 0.23527 0.78398
 Zr773 Zr 0.25028 0.26025 0.71078
 O774 O 0.22512 0.23480 0.73411
 Zr775 Zr 0.24887 0.25877 0.80790
 O776 O 0.27427 0.28451 0.78473
 Zr777 Zr 0.20102 0.25840 0.76026
 O778 O 0.22381 0.28407 0.73446
 Zr779 Zr 0.24915 0.21112 0.76023
 O780 O 0.27456 0.23428 0.73444
 O781 O 0.27541 0.28570 0.73309
 O782 O 0.22359 0.23318 0.78565
 C783 C 0.24731 0.32186 0.69665
 C784 C 0.31146 0.32251 0.76102
 C785 C 0.31206 0.25850 0.69660
 C786 C 0.24845 0.19724 0.82203
 C787 C 0.18739 0.25710 0.82217
 C788 C 0.18738 0.19674 0.76072
 H789 H 0.21345 0.29682 0.79499
 H790 H 0.21397 0.22350 0.72185
 H791 H 0.28690 0.29742 0.72151
 H792 H 0.28741 0.22425 0.79545
 H793 H 0.29421 0.27144 0.83105
 H794 H 0.32424 0.25161 0.80315
 H795 H 0.17478 0.24577 0.71631
 H796 H 0.20450 0.27102 0.68777
 H797 H 0.23459 0.30280 0.83365
 H798 H 0.26094 0.33101 0.80400
 H799 H 0.23662 0.18452 0.71648
 H800 H 0.26183 0.21470 0.68783
 H801 H 0.20398 0.33046 0.74733
 H802 H 0.17392 0.30167 0.77368
 H803 H 0.32056 0.21503 0.74525
 H804 H 0.29318 0.18512 0.77335
 O805 O 0.76019 0.68011 0.70272
 O806 O 0.78965 0.67186 0.74069
 O807 O 0.68913 0.71235 0.74226
 O808 O 0.67889 0.74754 0.76874
 O809 O 0.72197 0.75127 0.67046
 O810 O 0.75988 0.78094 0.66334
 O811 O 0.76040 0.78692 0.81153
 O812 O 0.72842 0.75133 0.81854
 O813 O 0.82957 0.75056 0.77889
 O814 O 0.83778 0.71954 0.73976
 O815 O 0.79715 0.81969 0.74314
 O816 O 0.75834 0.82832 0.71159
 O817 O 0.76051 0.81963 0.77907
 O818 O 0.72970 0.82850 0.74067
 O819 O 0.82971 0.78701 0.74291
 O820 O 0.83815 0.74885 0.71142
 O821 O 0.79680 0.75103 0.81131
 O822 O 0.75972 0.71943 0.81959
 O823 O 0.76028 0.71302 0.67039
 O824 O 0.78988 0.75069 0.66301
 O825 O 0.68937 0.75055 0.70309
 O826 O 0.68282 0.78177 0.74103
 O827 O 0.72178 0.67970 0.74122
 O828 O 0.75948 0.67152 0.77049
 Zr829 Zr 0.75850 0.70143 0.73975
 O830 O 0.78385 0.72433 0.76541
 Zr831 Zr 0.71080 0.74910 0.74001
 O832 O 0.73402 0.77415 0.76579
 Zr833 Zr 0.75866 0.74945 0.69245
 O834 O 0.78408 0.77450 0.71598
 Zr835 Zr 0.76013 0.75031 0.78958
 O836 O 0.73446 0.72493 0.76627
 Zr837 Zr 0.80794 0.75045 0.74197
 O838 O 0.78487 0.72518 0.71600
 Zr839 Zr 0.76022 0.79822 0.74220
 O840 O 0.73458 0.77546 0.71627
 O841 O 0.73328 0.72406 0.71459
 O842 O 0.78561 0.77576 0.76750
 C843 C 0.76096 0.68804 0.67784
 C844 C 0.69684 0.68739 0.74254
 C845 C 0.69701 0.75170 0.67817
 C846 C 0.76065 0.81189 0.80396
 C847 C 0.82178 0.75108 0.80379
 C848 C 0.82210 0.81192 0.74351
 H849 H 0.79512 0.71194 0.77645
 H850 H 0.79535 0.78579 0.70385
 H851 H 0.72166 0.71250 0.70297
 H852 H 0.72182 0.78519 0.77729
 H853 H 0.71473 0.73783 0.81267
 H854 H 0.68481 0.75793 0.78486
 H855 H 0.83447 0.76364 0.69836
 H856 H 0.80442 0.73842 0.66956
 H857 H 0.77395 0.70600 0.81508
 H858 H 0.74757 0.67816 0.78526
 H859 H 0.77358 0.82515 0.69888
 H860 H 0.74747 0.79532 0.66994
 H861 H 0.80416 0.67843 0.72844
 H862 H 0.83440 0.70660 0.75473
 H863 H 0.68863 0.79492 0.72700
 H864 H 0.71621 0.82437 0.75495
 O865 O 0.24897 0.67952 0.28645
 O866 O 0.22083 0.67097 0.24934
 O867 O 0.32018 0.71369 0.24832
 O868 O 0.33071 0.74943 0.22357
 O869 O 0.28583 0.75039 0.32072
 O870 O 0.24842 0.77884 0.32893
 O871 O 0.24805 0.78728 0.17939
 O872 O 0.27968 0.75215 0.17203
 O873 O 0.17899 0.75168 0.21272
 O874 O 0.16957 0.72183 0.24988
 O875 O 0.21241 0.82060 0.24871
 O876 O 0.24996 0.82979 0.27849
 O877 O 0.24815 0.82003 0.21180
 O878 O 0.28072 0.82728 0.25149
 O879 O 0.17947 0.78841 0.24875
 O880 O 0.17205 0.74851 0.28099
 O881 O 0.21125 0.75225 0.17978
 O882 O 0.24447 0.72000 0.17184
 O883 O 0.24826 0.71154 0.31963
 O884 O 0.21750 0.74982 0.32685
 O885 O 0.31895 0.75075 0.28860
 O886 O 0.32490 0.78308 0.24974
 O887 O 0.28819 0.68054 0.24928
 O888 O 0.24813 0.67287 0.21837
 Zr889 Zr 0.25075 0.70167 0.25017
 O890 O 0.22485 0.72504 0.22544
 Zr891 Zr 0.29785 0.74974 0.25118
 O892 O 0.27463 0.77456 0.22514
 Zr893 Zr 0.24964 0.74875 0.29839
 O894 O 0.22489 0.77482 0.27519
 Zr895 Zr 0.24826 0.75099 0.20133
 O896 O 0.27468 0.72566 0.22412
 Zr897 Zr 0.20086 0.75123 0.24919
 O898 O 0.22388 0.72487 0.27419
 Zr899 Zr 0.24880 0.79862 0.24897
 O900 O 0.27378 0.77545 0.27527
 O901 O 0.27547 0.72405 0.27596
 O902 O 0.22311 0.77654 0.22373
 C903 C 0.24791 0.68671 0.31147
 C904 C 0.31302 0.68867 0.24807
 C905 C 0.31086 0.75123 0.31347
 C906 C 0.24781 0.81220 0.18687
 C907 C 0.18634 0.75237 0.18775
 C908 C 0.18742 0.81327 0.24846
 H909 H 0.21369 0.71286 0.21403
 H910 H 0.21376 0.78612 0.28749
 H911 H 0.28712 0.71241 0.28750
 H912 H 0.28685 0.78553 0.21360
 H913 H 0.29273 0.73764 0.17689
 H914 H 0.32339 0.75549 0.20589
 H915 H 0.17392 0.76486 0.29248
 H916 H 0.20416 0.73597 0.32105
 H917 H 0.25786 0.70582 0.17656
 H918 H 0.26509 0.67403 0.20765
 H919 H 0.23746 0.82458 0.29330
 H920 H 0.25961 0.79411 0.32225
 H921 H 0.20526 0.67793 0.26000
 H922 H 0.17507 0.70692 0.23762
 H923 H 0.32044 0.79495 0.26533
 H924 H 0.29201 0.82546 0.23498
 O925 O 0.74207 0.31094 0.28756
 O926 O 0.77175 0.31869 0.24978
 O927 O 0.67090 0.27857 0.24771
 O928 O 0.66135 0.24337 0.22089
 O929 O 0.70313 0.24035 0.31979
 O930 O 0.74110 0.21051 0.32773
 O931 O 0.74279 0.20277 0.17993
 O932 O 0.71039 0.23903 0.17263
 O933 O 0.81155 0.23952 0.21238
 O934 O 0.81978 0.27073 0.25093
 O935 O 0.77885 0.17065 0.24923
 O936 O 0.73967 0.16289 0.28048
 O937 O 0.74284 0.17051 0.21283
 O938 O 0.71142 0.16230 0.25088
 O939 O 0.81138 0.20325 0.24892
 O940 O 0.81980 0.24201 0.27996
 O941 O 0.77906 0.23862 0.17965
 O942 O 0.74634 0.26950 0.17072
 O943 O 0.74173 0.27837 0.32020
 O944 O 0.77091 0.24076 0.32830
 O945 O 0.67077 0.24086 0.28685
 O946 O 0.66458 0.20946 0.24902
 O947 O 0.70362 0.31099 0.24924
 O948 O 0.74300 0.31957 0.22022
 Zr949 Zr 0.74047 0.28934 0.25063
 O950 O 0.76577 0.26594 0.22533
 Zr951 Zr 0.69271 0.24191 0.25025
 O952 O 0.71608 0.21627 0.22516
 Zr953 Zr 0.74013 0.24179 0.29837
 O954 O 0.76575 0.21641 0.27538
 Zr955 Zr 0.74241 0.23967 0.20132
 O956 O 0.71664 0.26579 0.22392
 Zr957 Zr 0.78979 0.24003 0.24921
 O958 O 0.76661 0.26566 0.27479
 Zr959 Zr 0.74202 0.19242 0.24935
 O960 O 0.71615 0.21568 0.27462
 O961 O 0.71502 0.26705 0.27573
 O962 O 0.76765 0.21440 0.22395
 C963 C 0.74267 0.30327 0.31253
 C964 C 0.67867 0.30346 0.24764
 C965 C 0.67822 0.23997 0.31185
 C966 C 0.74323 0.17793 0.18786
 C967 C 0.80398 0.23879 0.18739
 C968 C 0.80379 0.17834 0.24884
 H969 H 0.77679 0.27813 0.21383
 H970 H 0.77694 0.20526 0.28776
 H971 H 0.70337 0.27874 0.28721
 H972 H 0.70398 0.20512 0.21368
 H973 H 0.69828 0.25448 0.17702
 H974 H 0.66788 0.23341 0.20473
 H975 H 0.81616 0.22728 0.29310
 H976 H 0.78578 0.25248 0.32159
 H977 H 0.73548 0.28525 0.17670
 H978 H 0.72760 0.31676 0.20761
 H979 H 0.75485 0.16611 0.29324
 H980 H 0.72835 0.19634 0.32140
 H981 H 0.78612 0.31216 0.26226
 H982 H 0.81595 0.28384 0.23621
 H983 H 0.67021 0.19632 0.26316
 H984 H 0.69819 0.16620 0.23628
 C985 C 0.25924 0.12686 0.11721
 C986 C 0.25949 0.11927 0.14458
 C987 C 0.25928 0.13905 0.16492
 C988 C 0.25683 0.08859 0.07966
 C989 C 0.25879 0.17420 0.13050
 C990 C 0.25900 0.15436 0.11020
 C991 C 0.25826 0.10634 0.09645
 C992 C 0.25877 0.16679 0.15813
 H993 H 0.25958 0.09802 0.15023
 H994 H 0.25927 0.13258 0.18593
 H995 H 0.25840 0.19533 0.12450
 H996 H 0.25870 0.16046 0.08908
 C997 C 0.76247 0.62730 0.61535
 C998 C 0.76220 0.65479 0.60837
 C999 C 0.76201 0.67458 0.62869
 C1000 C 0.75969 0.58911 0.57786
 C1001 C 0.76260 0.63935 0.66305
 C1002 C 0.76280 0.61962 0.64269
 C1003 C 0.76132 0.60684 0.59460
 C1004 C 0.76203 0.66709 0.65630
 H1005 H 0.76183 0.66093 0.58726
 H1006 H 0.76157 0.69572 0.62274
 H1007 H 0.76264 0.63283 0.68405
 H1008 H 0.76290 0.59836 0.64828
 C1009 C 0.74529 0.87952 0.13062
 C1010 C 0.74452 0.85196 0.12392
 C1011 C 0.74529 0.83229 0.14431
 C1012 C 0.74623 0.91528 0.09060
 C1013 C 0.74737 0.86770 0.17840
 C1014 C 0.74663 0.88737 0.15790
 C1015 C 0.74553 0.89945 0.10925
 C1016 C 0.74684 0.83988 0.17183
 H1017 H 0.74357 0.84564 0.10287
 H1018 H 0.74482 0.81113 0.13845
 H1019 H 0.74859 0.87428 0.19934
 H1020 H 0.74732 0.90867 0.16331
 C1021 C 0.24427 0.38234 0.63382
 C1022 C 0.24344 0.35477 0.62720
 C1023 C 0.24421 0.33517 0.64764
 C1024 C 0.24524 0.41786 0.59364
 C1025 C 0.24644 0.37068 0.68162
 C1026 C 0.24569 0.39029 0.66107
 C1027 C 0.24452 0.40216 0.61239
 C1028 C 0.24585 0.34285 0.67512
 H1029 H 0.24242 0.34839 0.60617
 H1030 H 0.24368 0.31399 0.64183
 H1031 H 0.24773 0.37731 0.70254
 H1032 H 0.24645 0.41159 0.66640
 C1033 C 0.74709 0.12214 0.87115
 C1034 C 0.74662 0.11609 0.84344
 C1035 C 0.74703 0.13697 0.82429
 C1036 C 0.74844 0.08260 0.90745
 C1037 C 0.74821 0.17024 0.86051
 C1038 C 0.74780 0.14925 0.87966
 C1039 C 0.74757 0.10051 0.89079
 C1040 C 0.74796 0.16434 0.83256
 H1041 H 0.74613 0.09519 0.83662
 H1042 H 0.74679 0.13160 0.80297
 H1043 H 0.74895 0.19102 0.86760
 H1044 H 0.74826 0.15416 0.90110
 C1045 C 0.24600 0.62264 0.37066
 C1046 C 0.24563 0.61653 0.34296
 C1047 C 0.24601 0.63739 0.32379
 C1048 C 0.24752 0.58329 0.40710
 C1049 C 0.24696 0.67071 0.35998
 C1050 C 0.24658 0.64975 0.37915
 C1051 C 0.24657 0.60108 0.39034
 C1052 C 0.24681 0.66476 0.33204
 H1053 H 0.24525 0.59562 0.33617
 H1054 H 0.24586 0.63199 0.30248
 H1055 H 0.24759 0.69150 0.36705
 H1056 H 0.24696 0.65469 0.40058
 C1057 C 0.24763 0.86801 0.87494
 C1058 C 0.24697 0.84055 0.88209
 C1059 C 0.24594 0.82058 0.86193
 C1060 C 0.24815 0.90642 0.91254
 C1061 C 0.24630 0.85549 0.82729
 C1062 C 0.24733 0.87541 0.84750
 C1063 C 0.24811 0.88867 0.89565
 C1064 C 0.24554 0.82779 0.83424
 H1065 H 0.24712 0.83457 0.90326
 H1066 H 0.24537 0.79949 0.86808
 H1067 H 0.24602 0.86182 0.80624
 H1068 H 0.24777 0.89661 0.84171
 C1069 C 0.74652 0.36465 0.37449
 C1070 C 0.74620 0.37205 0.34706
 C1071 C 0.74501 0.35213 0.32688
 C1072 C 0.74744 0.40313 0.41191
 C1073 C 0.74450 0.31724 0.36157
 C1074 C 0.74569 0.33722 0.38170
 C1075 C 0.74721 0.38532 0.39513
 C1076 C 0.74410 0.32446 0.33388
 H1077 H 0.74677 0.39324 0.34125
 H1078 H 0.74473 0.35845 0.30583
 H1079 H 0.74382 0.29617 0.36773
 H1080 H 0.74586 0.33127 0.40287
 C1081 C 0.13090 0.25377 0.11915
 C1082 C 0.12418 0.25425 0.14672
 C1083 C 0.14459 0.25365 0.16642
 C1084 C 0.09083 0.25268 0.08333
 C1085 C 0.17876 0.25229 0.13101
 C1086 C 0.15823 0.25286 0.11130
 C1087 C 0.10951 0.25344 0.09918
 C1088 C 0.17216 0.25255 0.15884
 H1089 H 0.10309 0.25487 0.15303
 H1090 H 0.13870 0.25391 0.18759
 H1091 H 0.19974 0.25143 0.12444
 H1092 H 0.16366 0.25240 0.09000
 C1093 C 0.63425 0.75446 0.61747
 C1094 C 0.62754 0.75508 0.64504
 C1095 C 0.64796 0.75437 0.66471
 C1096 C 0.59407 0.75349 0.58187
 C1097 C 0.68209 0.75261 0.62927
 C1098 C 0.66155 0.75330 0.60959
 C1099 C 0.61283 0.75420 0.59758
 C1100 C 0.67550 0.75301 0.65710
 H1101 H 0.60647 0.75590 0.65137
 H1102 H 0.64209 0.75475 0.68589
 H1103 H 0.70305 0.75154 0.62268
 H1104 H 0.66695 0.75271 0.58827
 C1105 C 0.11717 0.74186 0.87307
 C1106 C 0.14454 0.74151 0.88079
 C1107 C 0.16496 0.74169 0.86107
 C1108 C 0.07939 0.74414 0.91115
 C1109 C 0.13062 0.74239 0.82577
 C1110 C 0.11025 0.74221 0.84554
 C1111 C 0.09632 0.74279 0.89351
 C1112 C 0.15826 0.74227 0.83330
 H1113 H 0.15011 0.74133 0.90207
 H1114 H 0.18597 0.74159 0.86762
 H1115 H 0.12468 0.74284 0.80460
 H1116 H 0.08912 0.74259 0.83935
 C1117 C 0.61563 0.23908 0.37262
 C1118 C 0.64300 0.23843 0.38031
 C1119 C 0.66339 0.23844 0.36058
 C1120 C 0.57810 0.24203 0.41082
 C1121 C 0.62900 0.23952 0.32531
 C1122 C 0.60866 0.23951 0.34511
 C1123 C 0.59487 0.24034 0.39310
 C1124 C 0.65664 0.23915 0.33281
 H1125 H 0.64860 0.23820 0.40159
 H1126 H 0.68440 0.23814 0.36710
 H1127 H 0.62305 0.24007 0.30415
 H1128 H 0.58753 0.24013 0.33895
 C1129 C 0.87487 0.75249 0.13141
 C1130 C 0.88213 0.75327 0.15886
 C1131 C 0.86201 0.75414 0.17890
 C1132 C 0.91234 0.75226 0.09285
 C1133 C 0.82721 0.75339 0.14407
 C1134 C 0.84738 0.75252 0.12408
 C1135 C 0.89552 0.75217 0.11067
 C1136 C 0.83427 0.75426 0.17176
 H1137 H 0.90334 0.75332 0.16478
 H1138 H 0.86822 0.75480 0.19998
 H1139 H 0.80612 0.75346 0.13779
 H1140 H 0.84152 0.75199 0.10288
 C1141 C 0.37411 0.25506 0.63516
 C1142 C 0.38133 0.25603 0.66261
 C1143 C 0.36117 0.25710 0.68260
 C1144 C 0.41160 0.25425 0.59667
 C1145 C 0.32644 0.25620 0.64769
 C1146 C 0.34664 0.25513 0.62776
 C1147 C 0.39478 0.25444 0.61448
 C1148 C 0.33345 0.25724 0.67539
 H1149 H 0.40252 0.25605 0.66857
 H1150 H 0.36734 0.25789 0.70369
 H1151 H 0.30536 0.25628 0.64137
 H1152 H 0.34083 0.25445 0.60655
 C1153 C 0.87156 0.25212 0.87797
 C1154 C 0.84384 0.25281 0.88410
 C1155 C 0.82461 0.25259 0.86324
 C1156 C 0.90807 0.25049 0.91740
 C1157 C 0.86076 0.25117 0.82986
 C1158 C 0.87999 0.25139 0.85082
 C1159 C 0.89130 0.25148 0.89956
 C1160 C 0.83279 0.25164 0.83583
 H1161 H 0.83708 0.25332 0.90503
 H1162 H 0.80329 0.25299 0.86867
 H1163 H 0.86779 0.25041 0.80905
 H1164 H 0.90143 0.25078 0.84585
 C1165 C 0.37032 0.75284 0.37743
 C1166 C 0.37872 0.75220 0.35028
 C1167 C 0.35947 0.75190 0.32936
 C1168 C 0.40693 0.75129 0.41670
 C1169 C 0.32335 0.75305 0.36280
 C1170 C 0.34262 0.75336 0.38362
 C1171 C 0.39009 0.75225 0.39895
 C1172 C 0.33152 0.75219 0.33538
 H1173 H 0.40016 0.75172 0.34528
 H1174 H 0.36648 0.75122 0.30853
 H1175 H 0.30204 0.75332 0.36825
 H1176 H 0.33589 0.75379 0.40456
 C1177 C 0.13262 0.12492 0.24834
 C1178 C 0.12506 0.15231 0.24824
 C1179 C 0.14489 0.17258 0.24707
 C1180 C 0.09438 0.08720 0.24897
 C1181 C 0.18003 0.13809 0.24618
 C1182 C 0.16015 0.11787 0.24735
 C1183 C 0.11205 0.10415 0.24890
 C1184 C 0.17265 0.16573 0.24596
 H1185 H 0.10379 0.15801 0.24893
 H1186 H 0.13844 0.19359 0.24692
 H1187 H 0.20117 0.13202 0.24535
 H1188 H 0.16624 0.09674 0.24735
 C1189 C 0.63539 0.62549 0.74667
 C1190 C 0.66286 0.61827 0.74553
 C1191 C 0.68286 0.63837 0.74426
 C1192 C 0.59684 0.58813 0.74767
 C1193 C 0.64792 0.67306 0.74532
 C1194 C 0.62798 0.65292 0.74659
 C1195 C 0.61468 0.60488 0.74741
 C1196 C 0.67563 0.66605 0.74409
 H1197 H 0.66883 0.59710 0.74551
 H1198 H 0.70397 0.63219 0.74334
 H1199 H 0.64158 0.69411 0.74522
 H1200 H 0.60675 0.65874 0.74739
 C1201 C 0.87839 0.12876 0.74683
 C1202 C 0.88449 0.15642 0.74566
 C1203 C 0.86359 0.17563 0.74598
 C1204 C 0.91787 0.09228 0.74836
 C1205 C 0.83025 0.13956 0.74843
 C1206 C 0.85124 0.12036 0.74812
 C1207 C 0.90002 0.10905 0.74741
 C1208 C 0.83618 0.16747 0.74750
 H1209 H 0.90541 0.16316 0.74472
 H1210 H 0.86898 0.19691 0.74523
 H1211 H 0.80944 0.13255 0.74964
 H1212 H 0.84630 0.09897 0.74910
 C1213 C 0.37721 0.62945 0.24605
 C1214 C 0.38330 0.65711 0.24497
 C1215 C 0.36240 0.67630 0.24537
 C1216 C 0.41662 0.59299 0.24756
 C1217 C 0.32908 0.64018 0.24773
 C1218 C 0.35007 0.62101 0.24733
 C1219 C 0.39881 0.60977 0.24660
 C1220 C 0.33500 0.66809 0.24689
 H1221 H 0.40422 0.66386 0.24404
 H1222 H 0.36777 0.69758 0.24468
 H1223 H 0.30827 0.63315 0.24893
 H1224 H 0.34515 0.59961 0.24825
 C1225 C 0.11975 0.86963 0.74471
 C1226 C 0.14738 0.87621 0.74419
 C1227 C 0.16702 0.85575 0.74494
 C1228 C 0.08404 0.90979 0.74576
 C1229 C 0.13145 0.82181 0.74652
 C1230 C 0.11180 0.84239 0.74579
 C1231 C 0.09984 0.89107 0.74500
 C1232 C 0.15934 0.82827 0.74625
 H1233 H 0.15377 0.89723 0.74344
 H1234 H 0.18824 0.86154 0.74467
 H1235 H 0.12480 0.80091 0.74756
 H1236 H 0.09046 0.83707 0.74630
 C1237 C 0.61802 0.36624 0.24452
 C1238 C 0.64563 0.37289 0.24433
 C1239 C 0.66529 0.35248 0.24514
 C1240 C 0.58232 0.40634 0.24539
 C1241 C 0.62977 0.31846 0.24612
 C1242 C 0.61010 0.33899 0.24533
 C1243 C 0.59810 0.38763 0.24471
 C1244 C 0.65764 0.32499 0.24617
 H1245 H 0.65198 0.39393 0.24378
 H1246 H 0.68651 0.35830 0.24511
 H1247 H 0.62315 0.29753 0.24693
 H1248 H 0.58875 0.33363 0.24559
 C1249 C 0.87338 0.88176 0.25972
 C1250 C 0.84582 0.88872 0.25923
 C1251 C 0.82602 0.86841 0.25883
 C1252 C 0.91154 0.91939 0.25761
 C1253 C 0.86134 0.83407 0.25961
 C1254 C 0.88108 0.85443 0.26002
 C1255 C 0.89385 0.90255 0.25891
 C1256 C 0.83354 0.84081 0.25885
 H1257 H 0.83964 0.90982 0.25889
 H1258 H 0.80484 0.87436 0.25824
 H1259 H 0.86789 0.81309 0.25965
 H1260 H 0.90238 0.84883 0.26030
 C1261 C 0.37232 0.38490 0.76270
 C1262 C 0.34479 0.39190 0.76202
 C1263 C 0.32495 0.37163 0.76180
 C1264 C 0.41064 0.42227 0.75995
 C1265 C 0.36022 0.33724 0.76317
 C1266 C 0.37999 0.35756 0.76340
 C1267 C 0.39285 0.40558 0.76156
 C1268 C 0.33244 0.34402 0.76219
 H1269 H 0.33865 0.41301 0.76136
 H1270 H 0.30378 0.37760 0.76104
 H1271 H 0.36674 0.31625 0.76348
 H1272 H 0.40128 0.35193 0.76381
 C1273 C 0.12634 0.25223 0.88427
 C1274 C 0.15383 0.25311 0.89139
 C1275 C 0.17370 0.25476 0.87121
 C1276 C 0.08798 0.25070 0.92170
 C1277 C 0.13856 0.25461 0.83667
 C1278 C 0.11875 0.25297 0.85690
 C1279 C 0.10578 0.25116 0.90494
 C1280 C 0.16630 0.25559 0.84358
 H1281 H 0.15990 0.25261 0.91253
 H1282 H 0.19485 0.25538 0.87728
 H1283 H 0.13213 0.25512 0.81565
 H1284 H 0.09749 0.25236 0.85119
 C1285 C 0.62755 0.74989 0.38126
 C1286 C 0.65507 0.75055 0.38829
 C1287 C 0.67490 0.75193 0.36803
 C1288 C 0.58934 0.74901 0.41891
 C1289 C 0.63967 0.75194 0.33360
 C1290 C 0.61989 0.75056 0.35390
 C1291 C 0.60704 0.74916 0.40202
 C1292 C 0.66743 0.75272 0.34042
 H1293 H 0.66120 0.75010 0.40941
 H1294 H 0.69607 0.75241 0.37404
 H1295 H 0.63318 0.75243 0.31259
 H1296 H 0.59861 0.75012 0.34826
 C1297 C 0.88237 0.75379 0.86660
 C1298 C 0.89034 0.75265 0.83934
 C1299 C 0.87068 0.75179 0.81880
 C1300 C 0.91793 0.75367 0.90681
 C1301 C 0.83512 0.75328 0.85283
 C1302 C 0.85476 0.75415 0.87325
 C1303 C 0.90224 0.75396 0.88801
 C1304 C 0.84281 0.75199 0.82533
 H1305 H 0.91168 0.75230 0.83399
 H1306 H 0.87732 0.75088 0.79786
 H1307 H 0.81391 0.75357 0.85865
 H1308 H 0.84839 0.75498 0.89429
 C1309 C 0.37940 0.25408 0.36823
 C1310 C 0.35180 0.25431 0.37494
 C1311 C 0.33210 0.25339 0.35456
 C1312 C 0.41520 0.25416 0.40828
 C1313 C 0.36758 0.25213 0.32045
 C1314 C 0.38728 0.25303 0.34095
 C1315 C 0.39936 0.25435 0.38960
 C1316 C 0.33972 0.25220 0.32703
 H1317 H 0.34547 0.25507 0.39600
 H1318 H 0.31090 0.25358 0.36043
 H1319 H 0.37417 0.25130 0.29949
 H1320 H 0.40862 0.25280 0.33553
 C1321 C 0.12251 0.75507 0.12822
 C1322 C 0.11623 0.75485 0.15587
 C1323 C 0.13701 0.75407 0.17516
 C1324 C 0.08322 0.75405 0.09164
 C1325 C 0.17060 0.75393 0.13916
 C1326 C 0.14971 0.75469 0.11988
 C1327 C 0.10101 0.75483 0.10844
 C1328 C 0.16448 0.75346 0.16706
 H1329 H 0.09525 0.75507 0.16254
 H1330 H 0.13148 0.75384 0.19643
 H1331 H 0.19147 0.75356 0.13221
 H1332 H 0.15478 0.75479 0.09847
 C1333 C 0.62343 0.25470 0.62878
 C1334 C 0.61725 0.25453 0.65646
 C1335 C 0.63809 0.25370 0.67568
 C1336 C 0.58387 0.25389 0.59242
 C1337 C 0.67157 0.25338 0.63958
 C1338 C 0.65061 0.25420 0.62036
 C1339 C 0.60182 0.25456 0.60907
 C1340 C 0.66554 0.25299 0.66751
 H1341 H 0.59630 0.25485 0.66320
 H1342 H 0.63263 0.25353 0.69697
 H1343 H 0.69242 0.25293 0.63258
 H1344 H 0.65561 0.25425 0.59894
 C1345 C 0.86566 0.23798 0.12555
 C1346 C 0.87302 0.23843 0.15300
 C1347 C 0.85301 0.23848 0.17314
 C1348 C 0.90413 0.24052 0.08816
 C1349 C 0.81812 0.23739 0.13840
 C1350 C 0.83818 0.23734 0.11830
 C1351 C 0.88636 0.23905 0.10493
 C1352 C 0.82529 0.23814 0.16609
 H1353 H 0.89424 0.23898 0.15883
 H1354 H 0.85929 0.23899 0.19421
 H1355 H 0.79701 0.23703 0.13219
 H1356 H 0.83225 0.23704 0.09711
 C1357 C 0.36742 0.74140 0.62594
 C1358 C 0.37478 0.74164 0.65339
 C1359 C 0.35478 0.74183 0.67355
 C1360 C 0.40584 0.74324 0.58841
 C1361 C 0.31988 0.74137 0.63880
 C1362 C 0.33993 0.74118 0.61870
 C1363 C 0.38812 0.74213 0.60528
 C1364 C 0.32704 0.74184 0.66651
 H1365 H 0.39602 0.74186 0.65923
 H1366 H 0.36106 0.74211 0.69462
 H1367 H 0.29876 0.74129 0.63260
 H1368 H 0.33399 0.74105 0.59752
 C1369 C 0.24599 0.13463 0.88269
 C1370 C 0.24600 0.12789 0.85513
 C1371 C 0.24679 0.14824 0.83546
 C1372 C 0.24629 0.09460 0.91836
 C1373 C 0.24744 0.18237 0.87091
 C1374 C 0.24666 0.16190 0.89058
 C1375 C 0.24591 0.11330 0.90261
 C1376 C 0.24761 0.17576 0.84308
 H1377 H 0.24553 0.10683 0.84881
 H1378 H 0.24680 0.14236 0.81428
 H1379 H 0.24797 0.20333 0.87749
 H1380 H 0.24671 0.16732 0.91190
 C1381 C 0.74706 0.63126 0.37926
 C1382 C 0.74714 0.62454 0.35168
 C1383 C 0.74792 0.64491 0.33201
 C1384 C 0.74721 0.59130 0.41508
 C1385 C 0.74845 0.67903 0.36745
 C1386 C 0.74768 0.65854 0.38713
 C1387 C 0.74692 0.60993 0.39922
 C1388 C 0.74867 0.67244 0.33962
 H1389 H 0.74671 0.60349 0.34536
 H1390 H 0.74797 0.63903 0.31083
 H1391 H 0.74892 0.69998 0.37405
 H1392 H 0.74767 0.66397 0.40845
 C1393 C 0.74752 0.11543 0.12731
 C1394 C 0.74707 0.14273 0.11954
 C1395 C 0.74560 0.16310 0.13919
 C1396 C 0.74878 0.07778 0.08924
 C1397 C 0.74506 0.12883 0.17452
 C1398 C 0.74653 0.10851 0.15480
 C1399 C 0.74844 0.09464 0.10692
 C1400 C 0.74452 0.15639 0.16694
 H1401 H 0.74778 0.14827 0.09826
 H1402 H 0.74533 0.18407 0.13263
 H1403 H 0.74434 0.12292 0.19568
 H1404 H 0.74681 0.08742 0.16100
 C1405 C 0.24919 0.61892 0.62711
 C1406 C 0.24818 0.61196 0.65461
 C1407 C 0.24686 0.63226 0.67439
 C1408 C 0.24993 0.58116 0.58902
 C1409 C 0.24763 0.66661 0.63917
 C1410 C 0.24895 0.64626 0.61944
 C1411 C 0.24984 0.59811 0.60665
 C1412 C 0.24648 0.65985 0.66691
 H1413 H 0.24829 0.59086 0.66076
 H1414 H 0.24609 0.62629 0.69553
 H1415 H 0.24748 0.68759 0.63266
 H1416 H 0.24967 0.65186 0.59818
 C1417 C 0.76102 0.87368 0.86556
 C1418 C 0.76097 0.88094 0.83812
 C1419 C 0.76103 0.86085 0.81808
 C1420 C 0.75834 0.91098 0.90403
 C1421 C 0.76141 0.82612 0.85293
 C1422 C 0.76135 0.84626 0.87292
 C1423 C 0.75987 0.89425 0.88625
 C1424 C 0.76108 0.83317 0.82524
 H1425 H 0.76065 0.90211 0.83220
 H1426 H 0.76085 0.86705 0.79698
 H1427 H 0.76154 0.80507 0.85920
 H1428 H 0.76134 0.84042 0.89413
 C1429 C 0.25796 0.37402 0.36721
 C1430 C 0.25820 0.34660 0.37459
 C1431 C 0.25814 0.32641 0.35463
 C1432 C 0.25590 0.41156 0.40560
 C1433 C 0.25779 0.36106 0.31972
 C1434 C 0.25784 0.38119 0.33973
 C1435 C 0.25711 0.39469 0.38788
 C1436 C 0.25779 0.33338 0.32691
 H1437 H 0.25824 0.34080 0.39581
 H1438 H 0.25824 0.30536 0.36094
 H1439 H 0.25759 0.36721 0.29861
 H1440 H 0.25761 0.40235 0.33376
 C1441 C 0.24577 0.87204 0.12345
 C1442 C 0.24523 0.84444 0.11703
 C1443 C 0.24580 0.82506 0.13768
 C1444 C 0.24692 0.90873 0.08435
 C1445 C 0.24730 0.86085 0.17141
 C1446 C 0.24673 0.88023 0.15066
 C1447 C 0.24611 0.89190 0.10207
 C1448 C 0.24698 0.83300 0.16515
 H1449 H 0.24453 0.83788 0.09605
 H1450 H 0.24541 0.80382 0.13205
 H1451 H 0.24812 0.86768 0.19229
 H1452 H 0.24722 0.90159 0.15582
 C1453 C 0.74691 0.37122 0.62334
 C1454 C 0.74632 0.34358 0.61708
 C1455 C 0.74694 0.32430 0.63784
 C1456 C 0.74790 0.40762 0.58390
 C1457 C 0.74859 0.36025 0.67138
 C1458 C 0.74798 0.37954 0.65051
 C1459 C 0.74717 0.39096 0.60181
 C1460 C 0.74821 0.33236 0.66527
 H1461 H 0.74554 0.33691 0.59614
 H1462 H 0.74649 0.30304 0.63231
 H1463 H 0.74949 0.36718 0.69222
 H1464 H 0.74852 0.40092 0.65557
 C1465 C 0.12569 0.13501 0.76088
 C1466 C 0.15319 0.12774 0.76112
 C1467 C 0.17328 0.14776 0.76125
 C1468 C 0.08845 0.09647 0.75816
 C1469 C 0.13836 0.18251 0.76111
 C1470 C 0.11832 0.16243 0.76098
 C1471 C 0.10515 0.11428 0.75969
 C1472 C 0.16612 0.17542 0.76109
 H1473 H 0.15912 0.10656 0.76099
 H1474 H 0.19440 0.14155 0.76131
 H1475 H 0.13208 0.20357 0.76106
 H1476 H 0.09709 0.16829 0.76073
 C1477 C 0.62618 0.63226 0.25814
 C1478 C 0.61897 0.65971 0.25832
 C1479 C 0.63912 0.67969 0.25824
 C1480 C 0.58857 0.59399 0.25606
 C1481 C 0.67386 0.64478 0.25799
 C1482 C 0.65365 0.62485 0.25807
 C1483 C 0.60548 0.61164 0.25728
 C1484 C 0.66684 0.67248 0.25793
 H1485 H 0.59777 0.66569 0.25832
 H1486 H 0.63293 0.70078 0.25828
 H1487 H 0.69494 0.63846 0.25782
 H1488 H 0.65947 0.60364 0.25788
 C1489 C 0.12776 0.87700 0.24666
 C1490 C 0.15543 0.88327 0.24636
 C1491 C 0.17476 0.86252 0.24686
 C1492 C 0.09113 0.91624 0.24798
 C1493 C 0.13875 0.82900 0.24781
 C1494 C 0.11943 0.84985 0.24732
 C1495 C 0.10795 0.89847 0.24709
 C1496 C 0.16667 0.83510 0.24772
 H1497 H 0.16209 0.90421 0.24591
 H1498 H 0.19605 0.86802 0.24667
 H1499 H 0.13182 0.80817 0.24839
 H1500 H 0.09801 0.84481 0.24762
 C1501 C 0.62913 0.37688 0.74689
 C1502 C 0.65683 0.38305 0.74660
 C1503 C 0.67611 0.36225 0.74715
 C1504 C 0.59266 0.41634 0.74799
 C1505 C 0.64003 0.32882 0.74813
 C1506 C 0.62075 0.34973 0.74759
 C1507 C 0.60937 0.39843 0.74721
 C1508 C 0.66798 0.33485 0.74804
 H1509 H 0.66354 0.40397 0.74612
 H1510 H 0.69742 0.36771 0.74697
 H1511 H 0.63305 0.30801 0.74873
 H1512 H 0.59931 0.34474 0.74788
 C1513 C 0.86637 0.11748 0.24663
 C1514 C 0.87319 0.14501 0.24635
 C1515 C 0.85284 0.16474 0.24706
 C1516 C 0.90634 0.08165 0.24707
 C1517 C 0.81858 0.12945 0.24821
 C1518 C 0.83904 0.10971 0.24751
 C1519 C 0.88767 0.09749 0.24663
 C1520 C 0.82527 0.15723 0.24809
 H1521 H 0.89429 0.15124 0.24572
 H1522 H 0.85878 0.18589 0.24684
 H1523 H 0.79758 0.12295 0.24892
 H1524 H 0.83356 0.08843 0.24779
 C1525 C 0.36819 0.62067 0.74694
 C1526 C 0.37495 0.64821 0.74680
 C1527 C 0.35456 0.66792 0.74749
 C1528 C 0.40823 0.58483 0.74726
 C1529 C 0.32036 0.63258 0.74838
 C1530 C 0.34086 0.61286 0.74770
 C1531 C 0.38956 0.60068 0.74690
 C1532 C 0.32699 0.66038 0.74838
 H1533 H 0.39604 0.65448 0.74626
 H1534 H 0.36047 0.68907 0.74737
 H1535 H 0.29936 0.62605 0.74897
 H1536 H 0.33541 0.59158 0.74787
 C1537 C 0.88421 0.87288 0.74797
 C1538 C 0.85680 0.88045 0.74748
 C1539 C 0.83656 0.86066 0.74599
 C1540 C 0.92164 0.91120 0.74913
 C1541 C 0.87118 0.82559 0.74553
 C1542 C 0.89137 0.84544 0.74702
 C1543 C 0.90488 0.89342 0.74885
 C1544 C 0.84351 0.83297 0.74493
 H1545 H 0.85106 0.90167 0.74815
 H1546 H 0.81550 0.86707 0.74565
 H1547 H 0.87728 0.80449 0.74483
 H1548 H 0.91255 0.83940 0.74733
 C1549 C 0.38105 0.37295 0.24905
 C1550 C 0.35364 0.38056 0.24857
 C1551 C 0.33335 0.36079 0.24724
 C1552 C 0.41873 0.41108 0.24984
 C1553 C 0.36791 0.32567 0.24694
 C1554 C 0.38814 0.34549 0.24826
 C1555 C 0.40181 0.39344 0.24973
 C1556 C 0.34024 0.33308 0.24633
 H1557 H 0.34795 0.40179 0.24911
 H1558 H 0.31231 0.36723 0.24690
 H1559 H 0.37398 0.30455 0.24635
 H1560 H 0.40930 0.33940 0.24856
   
