data_POSCAR
  _audit_creation_date              2014-09-24
  _audit_creation_method            'ToBaCCo'
  _symmetry_space_group_name_H-M    'P1'
  _symmetry_Int_Tables_number       1
  _symmetry_cell_setting            triclinic
  loop_
  _symmetry_equiv_pos_as_xyz
 x,y,z
_cell_length_a 49.2741
_cell_length_b 49.4016
_cell_length_c 37.1441
_cell_angle_alpha 89.361500
_cell_angle_beta 90.261800
_cell_angle_gamma 89.986400
loop_
  _atom_site_label
  _atom_site_type_symbol
  _atom_site_fract_x
  _atom_site_fract_y
  _atom_site_fract_z
C1 C 1.27570 0.22435 0.25654
 C2 C 1.25396 0.24095 0.24580
 C3 C 1.23131 0.22951 0.22880
 C4 C 1.23036 0.20156 0.22227
 C5 C 1.25209 0.18514 0.23388
 C6 C 1.27499 0.19613 0.25141
 C7 C 1.25535 0.27035 0.25265
 C8 C 1.27762 0.28526 0.24006
 C9 C 1.28070 0.31295 0.24803
 C10 C 1.26082 0.32518 0.26982
 C11 C 1.23813 0.31056 0.28231
 C12 C 1.23550 0.28312 0.27333
 H13 H 1.29241 0.23358 0.27092
 H14 H 1.21459 0.24240 0.22043
 H15 H 1.29306 0.27464 0.22513
 H16 H 1.21822 0.27155 0.28281
 H17 H 1.25166 0.16384 0.22734
 H18 H 1.26232 0.34641 0.27635
 C19 C 0.77939 -0.27641 0.26813
 C20 C 0.75820 -0.26344 0.24946
 C21 C 0.73839 -0.27874 0.23195
 C22 C 0.74013 -0.30694 0.23189
 C23 C 0.76137 -0.31993 0.25044
 C24 C 0.78118 -0.30500 0.26949
 C25 C 0.75650 -0.23374 0.24805
 C26 C 0.77442 -0.21867 0.22657
 C27 C 0.77163 -0.19039 0.22333
 C28 C 0.75072 -0.17745 0.24232
 C29 C 0.73318 -0.19244 0.26454
 C30 C 0.73607 -0.22058 0.26709
 H31 H 0.79469 -0.26391 0.28070
 H32 H 0.72208 -0.26863 0.21742
 H33 H 0.79040 -0.22906 0.21230
 H34 H 0.72225 -0.23232 0.28368
 H35 H 0.76122 -0.34182 0.25131
 H36 H 0.74810 -0.15572 0.24001
 C37 C 0.75468 0.22080 -0.24191
 C38 C 0.73283 0.23288 -0.26035
 C39 C 0.71081 0.21694 -0.27129
 C40 C 0.71077 0.18893 -0.26464
 C41 C 0.73265 0.17712 -0.24583
 C42 C 0.75464 0.19291 -0.23415
 C43 C 0.73270 0.26236 -0.26725
 C44 C 0.75451 0.27495 -0.28501
 C45 C 0.75561 0.30342 -0.28923
 C46 C 0.73413 0.31875 -0.27465
 C47 C 0.71236 0.30625 -0.25687
 C48 C 0.71147 0.27806 -0.25388
 H49 H 0.77162 0.23321 -0.23343
 H50 H 0.69416 0.22626 -0.28604
 H51 H 0.77105 0.26232 -0.29397
 H52 H 0.69502 0.26841 -0.23930
 H53 H 0.73230 0.15561 -0.23981
 H54 H 0.73347 0.34053 -0.27780
 C55 C 1.27067 -0.28133 -0.22003
 C56 C 1.25045 -0.26410 -0.23399
 C57 C 1.22729 -0.27508 -0.25032
 C58 C 1.22418 -0.30321 -0.25280
 C59 C 1.24416 -0.32021 -0.23775
 C60 C 1.26744 -0.30967 -0.22071
 C61 C 1.25328 -0.23452 -0.23055
 C62 C 1.27565 -0.22123 -0.24566
 C63 C 1.27858 -0.19312 -0.24253
 C64 C 1.25917 -0.17840 -0.22323
 C65 C 1.23656 -0.19147 -0.20789
 C66 C 1.23371 -0.21959 -0.21198
 H67 H 1.28791 -0.27236 -0.20646
 H68 H 1.21178 -0.26169 -0.26115
 H69 H 1.29066 -0.23280 -0.26019
 H70 H 1.21625 -0.22995 -0.20077
 H71 H 1.24209 -0.34185 -0.24110
 H72 H 1.26153 -0.15671 -0.22057
 C73 C 0.23854 0.26967 0.73076
 C74 C 0.25076 0.24674 0.74628
 C75 C 0.23462 0.22498 0.75797
 C76 C 0.20601 0.22620 0.75561
 C77 C 0.19424 0.24970 0.74001
 C78 C 0.21032 0.27116 0.72737
 C79 C 0.28046 0.24582 0.75124
 C80 C 0.29354 0.26561 0.77174
 C81 C 0.32197 0.26520 0.77689
 C82 C 0.33690 0.24448 0.75999
 C83 C 0.32396 0.22465 0.73917
 C84 C 0.29565 0.22530 0.73537
 H85 H 0.25102 0.28635 0.72131
 H86 H 0.24463 0.20797 0.77099
 H87 H 0.28127 0.28168 0.78270
 H88 H 0.28534 0.20994 0.71982
 H89 H 0.17255 0.25102 0.73566
 H90 H 0.35864 0.24307 0.76355
 C91 C 0.72611 0.77135 0.72889
 C92 C 0.74073 0.75252 0.74960
 C93 C 0.72694 0.73318 0.77034
 C94 C 0.69833 0.73236 0.77107
 C95 C 0.68398 0.75147 0.74959
 C96 C 0.69748 0.77109 0.72810
 C97 C 0.77071 0.75282 0.74931
 C98 C 0.78495 0.77597 0.76003
 C99 C 0.81347 0.77626 0.76025
 C100 C 0.82766 0.75314 0.74906
 C101 C 0.81359 0.72990 0.73795
 C102 C 0.78510 0.72988 0.73840
 H103 H 0.73743 0.78656 0.71411
 H104 H 0.73891 0.71834 0.78502
 H105 H 0.77377 0.79370 0.76841
 H106 H 0.77406 0.71200 0.73016
 H107 H 0.66212 0.75103 0.74955
 H108 H 0.84965 0.75322 0.74903
 C109 C 0.72334 0.26815 0.24400
 C110 C 0.73645 0.24775 0.26396
 C111 C 0.72115 0.22772 0.28137
 C112 C 0.69267 0.22814 0.27958
 C113 C 0.67973 0.24850 0.25901
 C114 C 0.69492 0.26852 0.24090
 C115 C 0.76625 0.24737 0.26655
 C116 C 0.77995 0.26822 0.28427
 C117 C 0.80839 0.26850 0.28572
 C118 C 0.82310 0.24807 0.26854
 C119 C 0.80951 0.22677 0.25137
 C120 C 0.78104 0.22638 0.25083
 H121 H 0.73538 0.28369 0.23085
 H122 H 0.73152 0.21189 0.29647
 H123 H 0.76849 0.28418 0.29701
 H124 H 0.77039 0.21027 0.23709
 H125 H 0.65779 0.24879 0.25716
 H126 H 0.84509 0.24830 0.26947
 C127 C 0.20555 0.76763 0.21788
 C128 C 0.22162 0.74634 0.23132
 C129 C 0.20940 0.72342 0.24677
 C130 C 0.18104 0.72195 0.25045
 C131 C 0.16520 0.74303 0.23539
 C132 C 0.17704 0.76577 0.21834
 C133 C 0.25143 0.74821 0.23007
 C134 C 0.26486 0.76874 0.24878
 C135 C 0.29333 0.76976 0.24967
 C136 C 0.30819 0.75041 0.23048
 C137 C 0.29496 0.72988 0.21124
 C138 C 0.26648 0.72880 0.21152
 H139 H 0.21553 0.78468 0.20501
 H140 H 0.22234 0.70783 0.25830
 H141 H 0.25307 0.78361 0.26316
 H142 H 0.25594 0.71271 0.19762
 H143 H 0.14334 0.74174 0.23711
 H144 H 0.33015 0.75113 0.23088
 N145 N 0.97143 0.03877 -0.07558
 N146 N 0.95212 0.04277 -0.09973
 N147 N 1.02806 0.05693 -0.04831
 N148 N 1.04381 0.07740 -0.05718
 N149 N 1.02843 0.03837 -0.07339
 N150 N 1.04466 0.04600 -0.10001
 N151 N 0.97110 0.05784 -0.05124
 N152 N 0.95151 0.07543 -0.05832
 C153 C 0.93979 0.06567 -0.08865
 C154 C 1.05449 0.07019 -0.08900
 N155 N 1.02599 0.03906 0.05459
 N156 N 1.04420 0.04395 0.07980
 N157 N 0.96983 0.05891 0.02630
 N158 N 0.95411 0.07973 0.03317
 N159 N 0.96901 0.04108 0.05277
 N160 N 0.95256 0.04955 0.07843
 N161 N 1.02678 0.05778 0.02924
 N162 N 1.04560 0.07599 0.03668
 Mn163 Mn 0.99893 0.05802 -0.01103
 C164 C 1.05649 0.06692 0.06820
 C165 C 0.94307 0.07356 0.06541
 N166 N 1.02722 -0.02030 -0.07100
 N167 N 1.04729 -0.02532 -0.09332
 N168 N 0.96879 -0.03724 -0.04736
 N169 N 0.94950 -0.05511 -0.05322
 N170 N 0.97026 -0.01967 -0.07404
 N171 N 0.95218 -0.02552 -0.09927
 N172 N 1.02597 -0.03894 -0.04559
 N173 N 1.04527 -0.05717 -0.04996
 Mn174 Mn 0.99939 0.00928 -0.07389
 C175 C 1.05850 -0.04834 -0.07981
 C176 C 0.93914 -0.04749 -0.08549
 N177 N 0.96742 -0.01750 0.05441
 N178 N 0.94830 -0.02191 0.07850
 N179 N 1.02413 -0.03816 0.03169
 N180 N 1.04031 -0.05836 0.04043
 N181 N 1.02453 -0.01951 0.05661
 N182 N 1.04130 -0.02668 0.08305
 N183 N 0.96727 -0.03651 0.02999
 N184 N 0.94802 -0.05441 0.03691
 Mn185 Mn 0.99675 0.01077 0.05496
 Mn186 Mn 0.99650 -0.03792 -0.00785
 Cl187 Cl 0.99792 0.01006 -0.00942
 C188 C 0.93616 -0.04489 0.06710
 C189 C 1.05123 -0.05088 0.07216
 N190 N 1.02618 0.52689 0.58126
 N191 N 1.04342 0.53268 0.60730
 N192 N 0.96908 0.54265 0.55095
 N193 N 0.94960 0.56043 0.55603
 N194 N 0.96943 0.52440 0.57692
 N195 N 0.95041 0.52972 0.60089
 N196 N 1.02598 0.54612 0.55658
 N197 N 1.04320 0.56551 0.56518
 C198 C 1.05410 0.55674 0.59678
 C199 C 0.93790 0.55199 0.58697
 N200 N 0.97506 0.52575 0.44872
 N201 N 0.95763 0.53052 0.42232
 N202 N 1.02942 0.54745 0.47934
 N203 N 1.04418 0.56902 0.47225
 N204 N 1.03189 0.52952 0.45369
 N205 N 1.04856 0.53864 0.42847
 N206 N 0.97279 0.54409 0.47383
 N207 N 0.95383 0.56189 0.46511
 Mn208 Mn 0.99929 0.54523 0.51521
 C209 C 0.94433 0.55300 0.43307
 C210 C 1.05643 0.56315 0.44087
 N211 N 0.97256 0.46601 0.57583
 N212 N 0.95183 0.46098 0.59712
 N213 N 1.03164 0.45052 0.55511
 N214 N 1.05120 0.43313 0.56263
 N215 N 1.02933 0.46842 0.58080
 N216 N 1.04708 0.46337 0.60682
 N217 N 0.97459 0.44743 0.55098
 N218 N 0.95520 0.42912 0.55489
 Mn219 Mn 0.99939 0.49638 0.57908
 C220 C 0.94110 0.43795 0.58379
 C221 C 1.06082 0.44149 0.59479
 N222 N 1.03532 0.47106 0.45334
 N223 N 1.05505 0.46741 0.43006
 N224 N 0.97810 0.44869 0.47338
 N225 N 0.96088 0.42931 0.46496
 N226 N 0.97861 0.46745 0.44806
 N227 N 0.96192 0.46113 0.42151
 N228 N 1.03508 0.45151 0.47759
 N229 N 1.05472 0.43394 0.47125
 Mn230 Mn 1.00526 0.49843 0.45063
 Mn231 Mn 1.00485 0.44923 0.51430
 Cl232 Cl 1.00223 0.49731 0.51478
 C233 C 1.06721 0.44433 0.44168
 C234 C 0.95074 0.43744 0.43271
 N235 N 0.54124 0.01878 0.52678
 N236 N 0.56207 0.03408 0.53532
 N237 N 0.52281 -0.03783 0.55288
 N238 N 0.52803 -0.05640 0.57772
 N239 N 0.54145 -0.03800 0.52773
 N240 N 0.56001 -0.05662 0.53503
 N241 N 0.52290 0.01905 0.55236
 N242 N 0.53111 0.03465 0.57911
 C243 C 0.55542 0.04427 0.56762
 C244 C 0.55118 -0.06814 0.56617
 N245 N 0.44630 -0.03940 0.52715
 N246 N 0.42802 -0.05820 0.53404
 N247 N 0.46382 0.01835 0.55186
 N248 N 0.45895 0.03794 0.57485
 N249 N 0.44483 0.01755 0.52696
 N250 N 0.42670 0.03674 0.53212
 N251 N 0.46445 -0.03842 0.55309
 N252 N 0.45879 -0.05642 0.57856
 Mn253 Mn 0.49347 -0.00960 0.55292
 C254 C 0.43620 -0.06886 0.56598
 C255 C 0.43578 0.04935 0.56203
 N256 N 0.54099 -0.03739 0.44988
 N257 N 0.56047 -0.05466 0.44228
 N258 N 0.52161 0.02008 0.42489
 N259 N 0.52605 0.03975 0.40131
 N260 N 0.54069 0.01956 0.44967
 N261 N 0.55852 0.03900 0.44377
 N262 N 0.52276 -0.03664 0.42400
 N263 N 0.52953 -0.05331 0.39795
 Mn264 Mn 0.54127 -0.00936 0.48847
 C265 C 0.55289 -0.06474 0.41007
 C266 C 0.54907 0.05153 0.41360
 N267 N 0.44413 0.01778 0.44975
 N268 N 0.42297 0.03273 0.44089
 N269 N 0.46445 -0.03775 0.42422
 N270 N 0.45943 -0.05561 0.39896
 N271 N 0.44584 -0.03889 0.44938
 N272 N 0.42752 -0.05751 0.44170
 N273 N 0.46274 0.01911 0.42456
 N274 N 0.45455 0.03524 0.39792
 Mn275 Mn 0.44508 -0.01084 0.48839
 Mn276 Mn 0.49290 -0.00870 0.42409
 Cl277 Cl 0.49318 -0.00958 0.48847
 C278 C 0.42988 0.04395 0.40895
 C279 C 0.43649 -0.06800 0.41033
 N280 N 0.55191 0.53308 0.04449
 N281 N 0.57095 0.55093 0.05139
 N282 N 0.53472 0.47641 0.07238
 N283 N 0.53919 0.45758 0.09707
 N284 N 0.55386 0.47627 0.04789
 N285 N 0.57198 0.45725 0.05545
 N286 N 0.53322 0.53323 0.06957
 N287 N 0.53933 0.55129 0.09444
 C288 C 0.56282 0.56244 0.08230
 C289 C 0.56242 0.44568 0.08620
 N290 N 0.45861 0.47235 0.04476
 N291 N 0.44107 0.45279 0.05111
 N292 N 0.47446 0.53087 0.06780
 N293 N 0.46856 0.55014 0.09075
 N294 N 0.45576 0.52927 0.04262
 N295 N 0.43665 0.54756 0.04774
 N296 N 0.47625 0.47418 0.07122
 N297 N 0.47082 0.45607 0.09670
 Mn298 Mn 0.50466 0.50375 0.07064
 C299 C 0.44902 0.44265 0.08339
 C300 C 0.44502 0.56056 0.07777
 N301 N 0.55497 0.47523 -0.02985
 N302 N 0.57548 0.45899 -0.03652
 N303 N 0.53415 0.53111 -0.05790
 N304 N 0.53839 0.54993 -0.08268
 N305 N 0.55293 0.53200 -0.03276
 N306 N 0.57051 0.55152 -0.03986
 N307 N 0.53689 0.47428 -0.05588
 N308 N 0.54469 0.45713 -0.08092
 Mn309 Mn 0.55364 0.50410 0.00748
 C310 C 0.56867 0.44748 -0.06813
 C311 C 0.56103 0.56268 -0.07100
 N312 N 0.45661 0.52771 -0.03468
 N313 N 0.43649 0.54416 -0.04297
 N314 N 0.47856 0.47177 -0.05715
 N315 N 0.47540 0.45200 -0.08032
 N316 N 0.45942 0.47106 -0.03270
 N317 N 0.44255 0.45081 -0.03879
 N318 N 0.47555 0.52871 -0.05941
 N319 N 0.46875 0.54616 -0.08523
 Mn320 Mn 0.45736 0.50004 0.00502
 Mn321 Mn 0.50627 0.50151 -0.05797
 Cl322 Cl 0.50549 0.50236 0.00628
 C323 C 0.44439 0.55582 -0.07425
 C324 C 0.45294 0.43897 -0.06848
 C325 C 1.17618 0.18924 0.15121
 C326 C 1.16595 0.16339 0.16114
 C327 C 1.17648 0.15123 0.19303
 C328 C 1.19670 0.16417 0.21328
 C329 C 1.20720 0.18930 0.20242
 C330 C 1.19644 0.20185 0.17152
 C331 C 1.16709 0.12601 0.20448
 C332 C 1.14773 0.11214 0.18475
 C333 C 1.13687 0.12294 0.15240
 C334 C 1.14594 0.14911 0.14051
 C335 C 1.13485 0.15996 0.10830
 C336 C 1.11572 0.14585 0.08832
 C337 C 1.10679 0.12032 0.09938
 C338 C 1.11722 0.10843 0.13154
 C339 C 1.10752 0.08239 0.14137
 C340 C 1.08817 0.06912 0.12052
 C341 C 1.07778 0.08107 0.08904
 C342 C 1.08733 0.10665 0.07846
 H343 H 1.16931 0.20018 0.12766
 H344 H 1.20451 0.15448 0.23754
 H345 H 1.20429 0.22120 0.16235
 H346 H 1.17497 0.11671 0.22897
 H347 H 1.14180 0.09282 0.19578
 H348 H 1.14057 0.17947 0.09760
 H349 H 1.10783 0.15507 0.06380
 H350 H 1.11434 0.07157 0.16503
 H351 H 1.08124 0.04932 0.12928
 H352 H 1.07939 0.11609 0.05410
 C353 C 1.17145 0.68231 0.67528
 C354 C 1.15930 0.65806 0.68814
 C355 C 1.16787 0.64804 0.72227
 C356 C 1.18802 0.66149 0.74197
 C357 C 1.20060 0.68477 0.72814
 C358 C 1.19176 0.69532 0.69498
 C359 C 1.15675 0.62433 0.73641
 C360 C 1.13793 0.60957 0.71694
 C361 C 1.12930 0.61803 0.68230
 C362 C 1.13949 0.64311 0.66811
 C363 C 1.12968 0.65227 0.63433
 C364 C 1.11110 0.63725 0.61467
 C365 C 1.10173 0.61236 0.62752
 C366 C 1.11075 0.60226 0.66142
 C367 C 1.10108 0.57653 0.67270
 C368 C 1.08296 0.56190 0.65154
 C369 C 1.07383 0.57222 0.61843
 C370 C 1.08337 0.59745 0.60650
 H371 H 1.16633 0.69143 0.64968
 H372 H 1.19436 0.65345 0.76797
 H373 H 1.20128 0.71318 0.68355
 H374 H 1.16299 0.61681 0.76271
 H375 H 1.13043 0.59157 0.73009
 H376 H 1.13583 0.67118 0.62224
 H377 H 1.10417 0.64514 0.58886
 H378 H 1.10730 0.56687 0.69750
 H379 H 1.07603 0.54235 0.66128
 H380 H 1.07651 0.60554 0.58077
 C381 C 0.64084 0.16350 0.70885
 C382 C 0.64703 0.13961 0.68977
 C383 C 0.67478 0.13232 0.68672
 C384 C 0.69513 0.14805 0.70260
 C385 C 0.68869 0.17174 0.72094
 C386 C 0.66141 0.17934 0.72394
 C387 C 0.68226 0.10958 0.66734
 C388 C 0.66295 0.09450 0.64928
 C389 C 0.63516 0.10137 0.65034
 C390 C 0.62685 0.12321 0.67268
 C391 C 0.59875 0.12771 0.67724
 C392 C 0.57947 0.11206 0.65947
 C393 C 0.58737 0.09207 0.63540
 C394 C 0.61539 0.08688 0.63001
 C395 C 0.62263 0.06803 0.60341
 C396 C 0.60292 0.05456 0.58367
 C397 C 0.57529 0.05898 0.58984
 C398 C 0.56751 0.07759 0.61604
 H399 H 0.62040 0.17093 0.71166
 H400 H 0.71625 0.14233 0.69956
 H401 H 0.65598 0.19765 0.73798
 H402 H 0.70339 0.10362 0.66553
 H403 H 0.67045 0.07706 0.63529
 H404 H 0.59099 0.14288 0.69509
 H405 H 0.55814 0.11613 0.66394
 H406 H 0.64335 0.06392 0.59616
 H407 H 0.60948 0.04041 0.56339
 H408 H 0.54612 0.08144 0.62044
 C409 C 0.71088 0.64493 0.16410
 C410 C 0.68260 0.64684 0.17025
 C411 C 0.67369 0.66343 0.19877
 C412 C 0.69244 0.67887 0.21848
 C413 C 0.72026 0.67704 0.21135
 C414 C 0.72931 0.65972 0.18449
 C415 C 0.64620 0.66432 0.20761
 C416 C 0.62735 0.64857 0.18931
 C417 C 0.63516 0.63209 0.16033
 C418 C 0.66303 0.63237 0.14956
 C419 C 0.67039 0.61869 0.11794
 C420 C 0.65156 0.60405 0.09849
 C421 C 0.62481 0.60190 0.11010
 C422 C 0.61608 0.61561 0.14129
 C423 C 0.58882 0.61163 0.15241
 C424 C 0.57125 0.59466 0.13324
 C425 C 0.58017 0.58156 0.10227
 C426 C 0.60686 0.58565 0.09071
 H427 H 0.71950 0.63162 0.14441
 H428 H 0.68551 0.69191 0.23986
 H429 H 0.75081 0.65785 0.17902
 H430 H 0.63923 0.67698 0.22936
 H431 H 0.60655 0.65033 0.19784
 H432 H 0.69054 0.61955 0.10685
 H433 H 0.65816 0.59389 0.07432
 H434 H 0.58074 0.62065 0.17637
 H435 H 0.55073 0.59162 0.14284
 H436 H 0.61413 0.57542 0.06693
 C437 C 0.81681 -0.16950 0.14530
 C438 C 0.82724 -0.14419 0.15647
 C439 C 0.81844 -0.13427 0.19016
 C440 C 0.80038 -0.14931 0.21162
 C441 C 0.79050 -0.17442 0.20027
 C442 C 0.79883 -0.18424 0.16687
 C443 C 0.82779 -0.10942 0.20250
 C444 C 0.84589 -0.09408 0.18235
 C445 C 0.85560 -0.10303 0.14880
 C446 C 0.84613 -0.12853 0.13562
 C447 C 0.85611 -0.13762 0.10227
 C448 C 0.87490 -0.12266 0.08268
 C449 C 0.88447 -0.09795 0.09523
 C450 C 0.87477 -0.08754 0.12822
 C451 C 0.88494 -0.06211 0.13929
 C452 C 0.90439 -0.04824 0.11906
 C453 C 0.91435 -0.05902 0.08706
 C454 C 0.90401 -0.08374 0.07504
 H455 H 0.82200 -0.17856 0.12003
 H456 H 0.79435 -0.14162 0.23762
 H457 H 0.79116 -0.20336 0.15709
 H458 H 0.82109 -0.10173 0.22820
 H459 H 0.85207 -0.07528 0.19422
 H460 H 0.85005 -0.15650 0.09053
 H461 H 0.88215 -0.13067 0.05742
 H462 H 0.87850 -0.05231 0.16353
 H463 H 0.91188 -0.02905 0.12883
 H464 H 0.91148 -0.09218 0.05015
 C465 C 0.81444 0.31599 0.64881
 C466 C 0.82179 0.34297 0.65682
 C467 C 0.80683 0.35618 0.68394
 C468 C 0.78531 0.34306 0.70154
 C469 C 0.77779 0.31635 0.69309
 C470 C 0.79303 0.30303 0.66661
 C471 C 0.81339 0.38252 0.69369
 C472 C 0.83463 0.39619 0.67733
 C473 C 0.85032 0.38407 0.65017
 C474 C 0.84350 0.35719 0.63923
 C475 C 0.85851 0.34555 0.61101
 C476 C 0.87970 0.35940 0.59445
 C477 C 0.88706 0.38529 0.60545
 C478 C 0.87255 0.39800 0.63354
 C479 C 0.88118 0.42408 0.64410
 C480 C 0.90314 0.43678 0.62757
 C481 C 0.91734 0.42419 0.59987
 C482 C 0.90908 0.39847 0.58869
 H483 H 0.82480 0.30421 0.62890
 H484 H 0.77528 0.35365 0.72309
 H485 H 0.78790 0.28278 0.65817
 H486 H 0.80195 0.39277 0.71436
 H487 H 0.83798 0.41649 0.68654
 H488 H 0.85427 0.32570 0.60073
 H489 H 0.89061 0.34960 0.57292
 H490 H 0.87178 0.43522 0.66541
 H491 H 0.90909 0.45666 0.63679
 H492 H 0.92005 0.38850 0.56735
 C493 C 0.33794 -0.14619 0.73949
 C494 C 0.34365 -0.15111 0.70277
 C495 C 0.32726 -0.17029 0.68464
 C496 C 0.30670 -0.18431 0.70296
 C497 C 0.30127 -0.17905 0.73916
 C498 C 0.31697 -0.15986 0.75721
 C499 C 0.33114 -0.17510 0.64813
 C500 C 0.35011 -0.16040 0.62859
 C501 C 0.36648 -0.14060 0.64509
 C502 C 0.36435 -0.13706 0.68315
 C503 C 0.38303 -0.11970 0.70026
 C504 C 0.40212 -0.10510 0.68064
 C505 C 0.40285 -0.10656 0.64318
 C506 C 0.38493 -0.12420 0.62478
 C507 C 0.38541 -0.12378 0.58666
 C508 C 0.40261 -0.10631 0.56786
 C509 C 0.42028 -0.08911 0.58623
 C510 C 0.42080 -0.08976 0.62390
 H511 H 0.34874 -0.13133 0.75499
 H512 H 0.29423 -0.19880 0.68867
 H513 H 0.31301 -0.15544 0.78520
 H514 H 0.31894 -0.19003 0.63428
 H515 H 0.35183 -0.16542 0.60055
 H516 H 0.38372 -0.11730 0.72904
 H517 H 0.41596 -0.09191 0.69491
 H518 H 0.37188 -0.13577 0.57049
 H519 H 0.40177 -0.10594 0.53870
 H520 H 0.43415 -0.07612 0.63825
 C521 C 0.33566 0.36513 0.23884
 C522 C 0.34764 0.35839 0.20559
 C523 C 0.33657 0.33620 0.18670
 C524 C 0.31503 0.32109 0.20120
 C525 C 0.30308 0.32796 0.23426
 C526 C 0.31377 0.35037 0.25265
 C527 C 0.34667 0.32938 0.15300
 C528 C 0.36675 0.34484 0.13674
 C529 C 0.37801 0.36756 0.15399
 C530 C 0.36953 0.37342 0.18985
 C531 C 0.38327 0.39401 0.20870
 C532 C 0.40348 0.40942 0.19236
 C533 C 0.41018 0.40557 0.15634
 C534 C 0.39742 0.38468 0.13652
 C535 C 0.40359 0.38267 0.09946
 C536 C 0.42113 0.40101 0.08283
 C537 C 0.43370 0.42143 0.10258
 C538 C 0.42878 0.42321 0.13955
 H539 H 0.34231 0.38213 0.25451
 H540 H 0.30663 0.30486 0.18526
 H541 H 0.30596 0.35622 0.27860
 H542 H 0.33857 0.31217 0.13862
 H543 H 0.37344 0.33811 0.11076
 H544 H 0.37913 0.39844 0.23648
 H545 H 0.41334 0.42513 0.20781
 H546 H 0.39412 0.36810 0.08208
 H547 H 0.42448 0.39956 0.05410
 H548 H 0.43805 0.43944 0.15471
 C549 C 0.80977 0.18099 -0.16408
 C550 C 0.82046 0.15547 -0.17384
 C551 C 0.80908 0.14281 -0.20450
 C552 C 0.78788 0.15515 -0.22402
 C553 C 0.77744 0.18026 -0.21376
 C554 C 0.78868 0.19306 -0.18374
 C555 C 0.81884 0.11784 -0.21566
 C556 C 0.83974 0.10494 -0.19716
 C557 C 0.85184 0.11651 -0.16641
 C558 C 0.84196 0.14215 -0.15441
 C559 C 0.85385 0.15352 -0.12337
 C560 C 0.87472 0.14053 -0.10482
 C561 C 0.88475 0.11573 -0.11631
 C562 C 0.87351 0.10329 -0.14725
 C563 C 0.88458 0.07814 -0.15774
 C564 C 0.90584 0.06613 -0.13850
 C565 C 0.91686 0.07856 -0.10811
 C566 C 0.90613 0.10334 -0.09703
 H567 H 0.81713 0.19224 -0.14139
 H568 H 0.77963 0.14525 -0.24757
 H569 H 0.78082 0.21237 -0.17500
 H570 H 0.81020 0.10808 -0.23907
 H571 H 0.84583 0.08573 -0.20782
 H572 H 0.84745 0.17256 -0.11247
 H573 H 0.88318 0.15012 -0.08117
 H574 H 0.87751 0.06714 -0.18079
 H575 H 0.91374 0.04694 -0.14765
 H576 H 0.91456 0.11314 -0.07352
 C577 C 0.83231 0.67981 0.34198
 C578 C 0.84039 0.65306 0.33403
 C579 C 0.82946 0.64126 0.30258
 C580 C 0.81051 0.65533 0.28112
 C581 C 0.80172 0.68157 0.28998
 C582 C 0.81348 0.69368 0.32044
 C583 C 0.83734 0.61532 0.29259
 C584 C 0.85576 0.60059 0.31323
 C585 C 0.86698 0.61113 0.34519
 C586 C 0.85890 0.63769 0.35603
 C587 C 0.86929 0.64781 0.38872
 C588 C 0.88719 0.63280 0.40988
 C589 C 0.89569 0.60720 0.39934
 C590 C 0.88586 0.59595 0.36682
 C591 C 0.89558 0.56999 0.35728
 C592 C 0.91421 0.55609 0.37902
 C593 C 0.92374 0.56737 0.41103
 C594 C 0.91423 0.59286 0.42118
 H595 H 0.83998 0.69070 0.36481
 H596 H 0.80332 0.64582 0.25675
 H597 H 0.80726 0.71354 0.32920
 H598 H 0.82910 0.60620 0.26848
 H599 H 0.86047 0.58072 0.30348
 H600 H 0.86374 0.66727 0.39915
 H601 H 0.89456 0.64144 0.43478
 H602 H 0.88956 0.55990 0.33299
 H603 H 0.92131 0.53642 0.37054
 H604 H 0.92163 0.60183 0.44587
 C605 C 0.34394 0.17247 0.28123
 C606 C 0.33867 0.14583 0.29361
 C607 C 0.31163 0.13625 0.29101
 C608 C 0.29111 0.15250 0.27584
 C609 C 0.29635 0.17922 0.26429
 C610 C 0.32318 0.18883 0.26724
 C611 C 0.30494 0.11065 0.30437
 C612 C 0.32417 0.09480 0.32197
 C613 C 0.35120 0.10372 0.32616
 C614 C 0.35901 0.12877 0.30964
 C615 C 0.38682 0.13576 0.30961
 C616 C 0.40614 0.11943 0.32662
 C617 C 0.39843 0.09614 0.34556
 C618 C 0.37073 0.08826 0.34613
 C619 C 0.36345 0.06581 0.36794
 C620 C 0.38289 0.05172 0.38791
 C621 C 0.41027 0.05902 0.38640
 C622 C 0.41810 0.08101 0.36476
 H623 H 0.36375 0.18160 0.28300
 H624 H 0.27057 0.14469 0.27548
 H625 H 0.32861 0.20890 0.25782
 H626 H 0.28440 0.10299 0.30195
 H627 H 0.31735 0.07524 0.33131
 H628 H 0.39438 0.15351 0.29586
 H629 H 0.42726 0.12554 0.32579
 H630 H 0.34275 0.05929 0.37138
 H631 H 0.37640 0.03488 0.40472
 H632 H 0.43927 0.08701 0.36411
 C633 C 0.29608 0.63114 -0.17020
 C634 C 0.32386 0.63776 -0.16730
 C635 C 0.33297 0.66168 -0.18477
 C636 C 0.31433 0.67928 -0.20182
 C637 C 0.28651 0.67277 -0.20379
 C638 C 0.27793 0.64816 -0.18818
 C639 C 0.36065 0.66775 -0.18536
 C640 C 0.37954 0.65040 -0.16932
 C641 C 0.37130 0.62682 -0.15053
 C642 C 0.34288 0.62119 -0.14809
 C643 C 0.33423 0.59973 -0.12555
 C644 C 0.35269 0.58378 -0.10679
 C645 C 0.38047 0.58800 -0.11052
 C646 C 0.39037 0.60909 -0.13307
 C647 C 0.41891 0.61122 -0.13735
 C648 C 0.43665 0.59361 -0.11897
 C649 C 0.42646 0.57385 -0.09542
 C650 C 0.39840 0.57113 -0.09152
 H651 H 0.28771 0.61259 -0.15948
 H652 H 0.32186 0.69745 -0.21497
 H653 H 0.25676 0.64233 -0.18822
 H654 H 0.36785 0.68595 -0.19879
 H655 H 0.40049 0.65654 -0.17090
 H656 H 0.31314 0.59538 -0.12060
 H657 H 0.34508 0.56779 -0.08934
 H658 H 0.42807 0.62591 -0.15520
 H659 H 0.45834 0.59577 -0.12265
 H660 H 0.39038 0.55543 -0.07390
 C661 C 1.18450 -0.17174 -0.13789
 C662 C 1.17503 -0.14632 -0.15083
 C663 C 1.18676 -0.13595 -0.18294
 C664 C 1.20684 -0.15059 -0.20114
 C665 C 1.21575 -0.17579 -0.18809
 C666 C 1.20443 -0.18611 -0.15626
 C667 C 1.17832 -0.11108 -0.19702
 C668 C 1.15825 -0.09619 -0.18023
 C669 C 1.14561 -0.10560 -0.14841
 C670 C 1.15428 -0.13101 -0.13328
 C671 C 1.14179 -0.14029 -0.10129
 C672 C 1.12134 -0.12562 -0.08488
 C673 C 1.11239 -0.10109 -0.09951
 C674 C 1.12446 -0.09056 -0.13134
 C675 C 1.11457 -0.06548 -0.14486
 C676 C 1.09349 -0.05187 -0.12782
 C677 C 1.08149 -0.06258 -0.09672
 C678 C 1.09121 -0.08711 -0.08251
 H679 H 1.17696 -0.18123 -0.11371
 H680 H 1.21516 -0.14254 -0.22602
 H681 H 1.21120 -0.20537 -0.14527
 H682 H 1.18728 -0.10302 -0.22150
 H683 H 1.15307 -0.07728 -0.19318
 H684 H 1.14727 -0.15902 -0.08808
 H685 H 1.11228 -0.13371 -0.06048
 H686 H 1.12246 -0.05578 -0.16869
 H687 H 1.08644 -0.03287 -0.13932
 H688 H 1.08208 -0.09555 -0.05837
 C689 C 1.18709 0.32370 0.35653
 C690 C 1.17808 0.35038 0.34859
 C691 C 1.18925 0.36347 0.31786
 C692 C 1.20849 0.35034 0.29639
 C693 C 1.21728 0.32404 0.30480
 C694 C 1.20631 0.31088 0.33499
 C695 C 1.18123 0.38966 0.30855
 C696 C 1.16228 0.40337 0.32894
 C697 C 1.15039 0.39140 0.35978
 C698 C 1.15843 0.36446 0.36983
 C699 C 1.14647 0.35252 0.40065
 C700 C 1.12714 0.36614 0.42069
 C701 C 1.11889 0.39224 0.41109
 C702 C 1.13053 0.40538 0.38069
 C703 C 1.12154 0.43197 0.37236
 C704 C 1.10149 0.44447 0.39266
 C705 C 1.08968 0.43119 0.42213
 C706 C 1.09876 0.40516 0.43155
 H707 H 1.17985 0.31213 0.37926
 H708 H 1.21647 0.36060 0.27275
 H709 H 1.21294 0.29066 0.34239
 H710 H 1.18971 0.39975 0.28509
 H711 H 1.15735 0.42344 0.31950
 H712 H 1.15150 0.33244 0.41006
 H713 H 1.11842 0.35600 0.44395
 H714 H 1.12935 0.44376 0.35019
 H715 H 1.09502 0.46468 0.38492
 H716 H 1.08978 0.39471 0.45439
 C717 C 0.69060 -0.17050 0.34309
 C718 C 0.67093 -0.15345 0.32659
 C719 C 0.67185 -0.15020 0.28860
 C720 C 0.69254 -0.16241 0.26857
 C721 C 0.71195 -0.17884 0.28558
 C722 C 0.71064 -0.18302 0.32280
 C723 C 0.65206 -0.13490 0.27078
 C724 C 0.63116 -0.12281 0.28972
 C725 C 0.62965 -0.12488 0.32761
 C726 C 0.65037 -0.13974 0.34641
 C727 C 0.65035 -0.13971 0.38443
 C728 C 0.63088 -0.12565 0.40348
 C729 C 0.61023 -0.11164 0.38560
 C730 C 0.60871 -0.11172 0.34747
 C731 C 0.58633 -0.09840 0.33094
 C732 C 0.56748 -0.08415 0.35141
 C733 C 0.57036 -0.08269 0.38881
 C734 C 0.59138 -0.09701 0.40578
 H735 H 0.69078 -0.17511 0.37150
 H736 H 0.69325 -0.15965 0.23957
 H737 H 0.72535 -0.19595 0.33629
 H738 H 0.65264 -0.13236 0.24176
 H739 H 0.61693 -0.11112 0.27387
 H740 H 0.66580 -0.14955 0.40045
 H741 H 0.63209 -0.12567 0.43264
 H742 H 0.58278 -0.09861 0.30231
 H743 H 0.55112 -0.07351 0.33776
 H744 H 0.59339 -0.09638 0.43486
 C745 C 0.64491 0.33414 -0.22574
 C746 C 0.65307 0.35348 -0.19992
 C747 C 0.68130 0.35662 -0.19350
 C748 C 0.70030 0.34184 -0.21317
 C749 C 0.69185 0.32286 -0.23845
 C750 C 0.66410 0.31892 -0.24440
 C751 C 0.69054 0.37424 -0.16715
 C752 C 0.67238 0.38831 -0.14603
 C753 C 0.64409 0.38585 -0.15110
 C754 C 0.63430 0.36931 -0.17972
 C755 C 0.60622 0.36966 -0.18759
 C756 C 0.58828 0.38531 -0.16781
 C757 C 0.59738 0.40033 -0.13855
 C758 C 0.62531 0.40008 -0.12910
 C759 C 0.63329 0.41379 -0.09757
 C760 C 0.61461 0.42840 -0.07763
 C761 C 0.58740 0.43005 -0.08836
 C762 C 0.57877 0.41570 -0.11865
 H763 H 0.62391 0.32972 -0.23130
 H764 H 0.72182 0.34443 -0.20796
 H765 H 0.65725 0.30400 -0.26358
 H766 H 0.71210 0.37691 -0.16242
 H767 H 0.68125 0.40176 -0.12661
 H768 H 0.59758 0.35871 -0.20980
 H769 H 0.56698 0.38538 -0.17526
 H770 H 0.65372 0.41318 -0.08713
 H771 H 0.62173 0.43890 -0.05395
 H772 H 0.55759 0.41642 -0.12666
 C773 C 1.18273 0.15703 -0.21507
 C774 C 1.15635 0.16222 -0.20200
 C775 C 1.14697 0.18932 -0.20356
 C776 C 1.16316 0.20999 -0.21813
 C777 C 1.18949 0.20480 -0.23088
 C778 C 1.19894 0.17788 -0.22896
 C779 C 1.12152 0.19592 -0.19004
 C780 C 1.10554 0.17646 -0.17346
 C781 C 1.11427 0.14934 -0.17008
 C782 C 1.13930 0.14173 -0.18645
 C783 C 1.14626 0.11397 -0.18677
 C784 C 1.12993 0.09449 -0.17027
 C785 C 1.10658 0.10194 -0.15170
 C786 C 1.09868 0.12957 -0.15093
 C787 C 1.07604 0.13654 -0.12973
 C788 C 1.06190 0.11695 -0.11038
 C789 C 1.06936 0.08969 -0.11177
 C790 C 1.09144 0.08209 -0.13297
 H791 H 1.19171 0.13714 -0.21427
 H792 H 1.15551 0.23053 -0.21737
 H793 H 1.21868 0.17243 -0.23925
 H794 H 1.11401 0.21653 -0.19177
 H795 H 1.08606 0.18328 -0.16416
 H796 H 1.16408 0.10657 -0.20020
 H797 H 1.13607 0.07344 -0.17123
 H798 H 1.06936 0.15710 -0.12621
 H799 H 1.04496 0.12327 -0.09396
 H800 H 1.09754 0.06101 -0.13354
 C801 C 1.16699 0.65321 0.28991
 C802 C 1.14331 0.65796 0.31030
 C803 C 1.13314 0.68477 0.31100
 C804 C 1.14527 0.70536 0.29051
 C805 C 1.16865 0.70051 0.27000
 C806 C 1.17959 0.67418 0.27061
 C807 C 1.11101 0.69115 0.33252
 C808 C 1.09913 0.67165 0.35434
 C809 C 1.10843 0.64463 0.35465
 C810 C 1.12975 0.63730 0.33070
 C811 C 1.13623 0.60958 0.32735
 C812 C 1.12256 0.58977 0.34718
 C813 C 1.10293 0.59689 0.37238
 C814 C 1.09642 0.62456 0.37737
 C815 C 1.07848 0.63117 0.40547
 C816 C 1.06633 0.61107 0.42627
 C817 C 1.07130 0.58368 0.41967
 C818 C 1.08978 0.57661 0.39279
 H819 H 1.17665 0.63365 0.28910
 H820 H 1.13720 0.72570 0.29246
 H821 H 1.19743 0.66932 0.25506
 H822 H 1.10298 0.71158 0.33290
 H823 H 1.08188 0.67817 0.36973
 H824 H 1.15111 0.60249 0.30848
 H825 H 1.12773 0.56870 0.34316
 H826 H 1.07395 0.65175 0.41272
 H827 H 1.05246 0.61709 0.44726
 H828 H 1.09417 0.55543 0.38817
 C829 C 0.66962 0.18006 0.35349
 C830 C 0.64638 0.16770 0.33824
 C831 C 0.63832 0.17632 0.30323
 C832 C 0.65340 0.19590 0.28427
 C833 C 0.67658 0.20756 0.29963
 C834 C 0.68435 0.19957 0.33446
 C835 C 0.61530 0.16529 0.28716
 C836 C 0.59993 0.14584 0.30496
 C837 C 0.60714 0.13629 0.33969
 C838 C 0.63095 0.14718 0.35644
 C839 C 0.63878 0.13688 0.39056
 C840 C 0.62402 0.11670 0.40777
 C841 C 0.60072 0.10606 0.39201
 C842 C 0.59164 0.11587 0.35800
 C843 C 0.56741 0.10467 0.34380
 C844 C 0.55349 0.08416 0.36213
 C845 C 0.56310 0.07413 0.39516
 C846 C 0.58657 0.08538 0.41012
 H847 H 0.67692 0.17541 0.38019
 H848 H 0.64728 0.20178 0.25723
 H849 H 0.70179 0.20871 0.34735
 H850 H 0.60905 0.17180 0.26041
 H851 H 0.58263 0.13838 0.29032
 H852 H 0.65660 0.14364 0.40468
 H853 H 0.63103 0.10927 0.43378
 H854 H 0.55856 0.11126 0.31864
 H855 H 0.53523 0.07594 0.35013
 H856 H 0.59403 0.07790 0.43588
 C857 C 0.68274 0.68325 -0.15400
 C858 C 0.65650 0.67390 -0.16312
 C859 C 0.64455 0.68442 -0.19508
 C860 C 0.65833 0.70351 -0.21657
 C861 C 0.68444 0.71285 -0.20725
 C862 C 0.69631 0.70218 -0.17555
 C863 C 0.61887 0.67576 -0.20578
 C864 C 0.60468 0.65673 -0.18562
 C865 C 0.61559 0.64546 -0.15358
 C866 C 0.64184 0.65438 -0.14191
 C867 C 0.65252 0.64347 -0.10950
 C868 C 0.63840 0.62423 -0.08949
 C869 C 0.61310 0.61495 -0.10081
 C870 C 0.60121 0.62546 -0.13291
 C871 C 0.57547 0.61521 -0.14312
 C872 C 0.56253 0.59524 -0.12267
 C873 C 0.57454 0.58477 -0.09129
 C874 C 0.59973 0.59494 -0.08028
 H875 H 0.69348 0.67649 -0.13026
 H876 H 0.64885 0.71001 -0.24154
 H877 H 0.71586 0.70918 -0.16609
 H878 H 0.60958 0.68375 -0.23019
 H879 H 0.58503 0.65135 -0.19607
 H880 H 0.67190 0.64935 -0.09864
 H881 H 0.64755 0.61638 -0.06490
 H882 H 0.56479 0.62189 -0.16693
 H883 H 0.54301 0.58780 -0.13175
 H884 H 0.60921 0.58695 -0.05599
 C885 C 0.86464 -0.16651 -0.23403
 C886 C 0.85740 -0.15370 -0.20149
 C887 C 0.83526 -0.16467 -0.18188
 C888 C 0.82077 -0.18699 -0.19496
 C889 C 0.82833 -0.19950 -0.22704
 C890 C 0.85040 -0.18910 -0.24636
 C891 C 0.82789 -0.15359 -0.14900
 C892 C 0.84279 -0.13264 -0.13412
 C893 C 0.86548 -0.12148 -0.15199
 C894 C 0.87188 -0.13104 -0.18716
 C895 C 0.89247 -0.11761 -0.20675
 C896 C 0.90741 -0.09665 -0.19170
 C897 C 0.90304 -0.08878 -0.15624
 C898 C 0.88207 -0.10116 -0.13578
 C899 C 0.87950 -0.09367 -0.09927
 C900 C 0.89746 -0.07537 -0.08370
 C901 C 0.91805 -0.06329 -0.10402
 C902 C 0.92030 -0.06941 -0.14058
 H903 H 0.88168 -0.16008 -0.25005
 H904 H 0.80399 -0.19522 -0.17952
 H905 H 0.85662 -0.19845 -0.27124
 H906 H 0.81072 -0.16160 -0.13418
 H907 H 0.83566 -0.12525 -0.10868
 H908 H 0.89730 -0.12261 -0.23414
 H909 H 0.92317 -0.08710 -0.20765
 H910 H 0.86479 -0.10267 -0.08142
 H911 H 0.89565 -0.07110 -0.05526
 H912 H 0.93667 -0.06053 -0.15616
 C913 C 0.83150 0.31133 0.36349
 C914 C 0.85141 0.32826 0.34756
 C915 C 0.85553 0.32619 0.30991
 C916 C 0.84166 0.30653 0.28987
 C917 C 0.82266 0.28951 0.30644
 C918 C 0.81733 0.29240 0.34311
 C919 C 0.87351 0.34368 0.29248
 C920 C 0.88749 0.36337 0.31151
 C921 C 0.88476 0.36571 0.34918
 C922 C 0.86721 0.34718 0.36765
 C923 C 0.86679 0.34745 0.40565
 C924 C 0.88291 0.36520 0.42500
 C925 C 0.89938 0.38400 0.40738
 C926 C 0.89987 0.38523 0.36922
 C927 C 0.91556 0.40597 0.35283
 C928 C 0.93125 0.42356 0.37353
 C929 C 0.93202 0.42089 0.41104
 C930 C 0.91571 0.40136 0.42782
 H931 H 0.82602 0.31253 0.39147
 H932 H 0.84537 0.30463 0.26125
 H933 H 0.80240 0.27960 0.35620
 H934 H 0.87672 0.34225 0.26371
 H935 H 0.90120 0.37581 0.29604
 H936 H 0.85503 0.33333 0.42143
 H937 H 0.88244 0.36420 0.45417
 H938 H 0.91592 0.40931 0.32412
 H939 H 0.94345 0.43880 0.36004
 H940 H 0.91580 0.39960 0.45696
 C941 C 0.31216 -0.18499 0.32768
 C942 C 0.33639 -0.17246 0.31564
 C943 C 0.34579 -0.17913 0.28080
 C944 C 0.33136 -0.19732 0.25919
 C945 C 0.30761 -0.20973 0.27173
 C946 C 0.29815 -0.20328 0.30608
 C947 C 0.36969 -0.16779 0.26766
 C948 C 0.38493 -0.15028 0.28849
 C949 C 0.37672 -0.14313 0.32351
 C950 C 0.35171 -0.15387 0.33700
 C951 C 0.34278 -0.14550 0.37121
 C952 C 0.35777 -0.12749 0.39170
 C953 C 0.38243 -0.11731 0.37931
 C954 C 0.39250 -0.12523 0.34527
 C955 C 0.41806 -0.11491 0.33456
 C956 C 0.43233 -0.09683 0.35607
 C957 C 0.42182 -0.08844 0.38904
 C958 C 0.39700 -0.09903 0.40075
 H959 H 0.30369 -0.18160 0.35391
 H960 H 0.33871 -0.20189 0.23247
 H961 H 0.28013 -0.21295 0.31677
 H962 H 0.37685 -0.17267 0.24094
 H963 H 0.40296 -0.14239 0.27596
 H964 H 0.32396 -0.15218 0.38289
 H965 H 0.34995 -0.12149 0.41766
 H966 H 0.42780 -0.12044 0.30982
 H967 H 0.45165 -0.08918 0.34658
 H968 H 0.38882 -0.09281 0.42642
 C969 C 0.33415 0.31721 -0.15207
 C970 C 0.36147 0.32471 -0.15800
 C971 C 0.37529 0.31203 -0.18659
 C972 C 0.36229 0.29247 -0.20774
 C973 C 0.33509 0.28501 -0.20160
 C974 C 0.32133 0.29790 -0.17338
 C975 C 0.40204 0.31903 -0.19433
 C976 C 0.41539 0.33873 -0.17474
 C977 C 0.40254 0.35225 -0.14618
 C978 C 0.37538 0.34459 -0.13699
 C979 C 0.36311 0.35700 -0.10709
 C980 C 0.37647 0.37678 -0.08753
 C981 C 0.40244 0.38528 -0.09707
 C982 C 0.41592 0.37319 -0.12650
 C983 C 0.44209 0.38300 -0.13540
 C984 C 0.45403 0.40396 -0.11613
 C985 C 0.44054 0.41584 -0.08726
 C986 C 0.41486 0.40617 -0.07756
 H987 H 0.32190 0.32594 -0.13126
 H988 H 0.37334 0.28413 -0.23017
 H989 H 0.30074 0.29246 -0.16641
 H990 H 0.41280 0.30927 -0.21604
 H991 H 0.43602 0.34268 -0.18259
 H992 H 0.34313 0.35174 -0.09775
 H993 H 0.36615 0.38579 -0.06489
 H994 H 0.45375 0.37542 -0.15754
 H995 H 0.47391 0.41108 -0.12419
 H996 H 0.40422 0.41534 -0.05531
 C997 C 1.11960 -0.20265 0.16740
 C998 C 1.12727 -0.17515 0.16524
 C999 C 1.15139 -0.16726 0.18310
 C1000 C 1.16815 -0.18679 0.19995
 C1001 C 1.16052 -0.21430 0.20133
 C1002 C 1.13579 -0.22166 0.18513
 C1003 C 1.15849 -0.13990 0.18431
 C1004 C 1.14198 -0.12017 0.16847
 C1005 C 1.11824 -0.12719 0.14930
 C1006 C 1.11152 -0.15527 0.14634
 C1007 C 1.08983 -0.16273 0.12361
 C1008 C 1.07471 -0.14349 0.10512
 C1009 C 1.08006 -0.11603 0.10918
 C1010 C 1.10140 -0.10725 0.13194
 C1011 C 1.10471 -0.07891 0.13636
 C1012 C 1.08803 -0.06033 0.11784
 C1013 C 1.06807 -0.06949 0.09405
 C1014 C 1.06411 -0.09731 0.09017
 H1015 H 1.10086 -0.21016 0.15629
 H1016 H 1.18649 -0.18020 0.21347
 H1017 H 1.12919 -0.24255 0.18450
 H1018 H 1.17685 -0.13362 0.19806
 H1019 H 1.14888 -0.09954 0.17054
 H1020 H 1.08465 -0.18349 0.11830
 H1021 H 1.05851 -0.15022 0.08750
 H1022 H 1.11969 -0.07055 0.15432
 H1023 H 1.09115 -0.03883 0.12149
 H1024 H 1.04823 -0.10452 0.07236
 C1025 C 1.19013 0.32206 0.65560
 C1026 C 1.16893 0.33656 0.67241
 C1027 C 1.16368 0.33076 0.70921
 C1028 C 1.17749 0.30966 0.72714
 C1029 C 1.19738 0.29469 0.70942
 C1030 C 1.20411 0.30152 0.67396
 C1031 C 1.14439 0.34574 0.72776
 C1032 C 1.12981 0.36621 0.71054
 C1033 C 1.13324 0.37187 0.67349
 C1034 C 1.15263 0.35630 0.65391
 C1035 C 1.15412 0.35999 0.61622
 C1036 C 1.13693 0.37780 0.59813
 C1037 C 1.11825 0.39338 0.61687
 C1038 C 1.11690 0.39158 0.65495
 C1039 C 1.09891 0.40936 0.67270
 C1040 C 1.08162 0.42658 0.65317
 C1041 C 1.08159 0.42645 0.61554
 C1042 C 1.10040 0.41031 0.59757
 H1043 H 1.19654 0.32620 0.62841
 H1044 H 1.17268 0.30470 0.75491
 H1045 H 1.21975 0.29036 0.66005
 H1046 H 1.14042 0.34152 0.75596
 H1047 H 1.11499 0.37644 0.72671
 H1048 H 1.16752 0.34837 0.59956
 H1049 H 1.13815 0.37924 0.56903
 H1050 H 1.09774 0.41049 0.70160
 H1051 H 1.06751 0.43927 0.66758
 H1052 H 1.10086 0.41065 0.56837
 C1053 C 0.67943 -0.18110 0.65245
 C1054 C 0.65275 -0.17298 0.66121
 C1055 C 0.64143 -0.18376 0.69328
 C1056 C 0.65620 -0.20191 0.71521
 C1057 C 0.68270 -0.21010 0.70618
 C1058 C 0.69397 -0.19914 0.67441
 C1059 C 0.61536 -0.17631 0.70364
 C1060 C 0.60011 -0.15833 0.68295
 C1061 C 0.61033 -0.14693 0.65072
 C1062 C 0.63704 -0.15451 0.63950
 C1063 C 0.64711 -0.14332 0.60703
 C1064 C 0.63194 -0.12510 0.58652
 C1065 C 0.60612 -0.11718 0.59733
 C1066 C 0.59481 -0.12805 0.62946
 C1067 C 0.56847 -0.11928 0.63909
 C1068 C 0.55442 -0.10027 0.61815
 C1069 C 0.56588 -0.08936 0.58681
 C1070 C 0.59164 -0.09815 0.57630
 H1071 H 0.68975 -0.17407 0.62865
 H1072 H 0.64712 -0.20861 0.74024
 H1073 H 0.71380 -0.20528 0.66517
 H1074 H 0.60656 -0.18448 0.72816
 H1075 H 0.58025 -0.15384 0.69319
 H1076 H 0.66682 -0.14818 0.59654
 H1077 H 0.64065 -0.11697 0.56192
 H1078 H 0.55810 -0.12641 0.66279
 H1079 H 0.53447 -0.09392 0.62682
 H1080 H 0.60069 -0.08982 0.55203
 C1081 C 0.67908 0.31777 0.16449
 C1082 C 0.65485 0.33035 0.17610
 C1083 C 0.64401 0.32179 0.20967
 C1084 C 0.65717 0.30186 0.23061
 C1085 C 0.68117 0.28975 0.21875
 C1086 C 0.69191 0.29788 0.18549
 C1087 C 0.62009 0.33314 0.22237
 C1088 C 0.60637 0.35276 0.20247
 C1089 C 0.61616 0.36208 0.16886
 C1090 C 0.64101 0.35097 0.15565
 C1091 C 0.65129 0.36106 0.12268
 C1092 C 0.63784 0.38118 0.10321
 C1093 C 0.61348 0.39197 0.11544
 C1094 C 0.60209 0.38241 0.14824
 C1095 C 0.57699 0.39365 0.15895
 C1096 C 0.56430 0.41384 0.13851
 C1097 C 0.57595 0.42360 0.10663
 C1098 C 0.60048 0.41241 0.09506
 H1099 H 0.68860 0.32255 0.13918
 H1100 H 0.64882 0.29599 0.25650
 H1101 H 0.71017 0.28852 0.17533
 H1102 H 0.61178 0.32674 0.24807
 H1103 H 0.58820 0.36045 0.21464
 H1104 H 0.67000 0.35406 0.11120
 H1105 H 0.64666 0.38838 0.07818
 H1106 H 0.56642 0.38730 0.18288
 H1107 H 0.54522 0.42195 0.14795
 H1108 H 0.60956 0.41972 0.07025
 C1109 C 0.83447 0.15786 0.22248
 C1110 C 0.85398 0.16460 0.19593
 C1111 C 0.85815 0.19246 0.18799
 C1112 C 0.84418 0.21248 0.20694
 C1113 C 0.82501 0.20541 0.23299
 C1114 C 0.82009 0.17802 0.24042
 C1115 C 0.87602 0.20030 0.16090
 C1116 C 0.88930 0.18112 0.14051
 C1117 C 0.88575 0.15314 0.14707
 C1118 C 0.86901 0.14475 0.17648
 C1119 C 0.86835 0.11694 0.18580
 C1120 C 0.88316 0.09794 0.16661
 C1121 C 0.89828 0.10567 0.13653
 C1122 C 0.89905 0.13331 0.12573
 C1123 C 0.91271 0.13997 0.09349
 C1124 C 0.92623 0.12030 0.07400
 C1125 C 0.92687 0.09330 0.08585
 C1126 C 0.91264 0.08599 0.11706
 H1127 H 0.82930 0.13723 0.22923
 H1128 H 0.84761 0.23371 0.20068
 H1129 H 0.80511 0.17220 0.26031
 H1130 H 0.87951 0.22156 0.15500
 H1131 H 0.90302 0.18895 0.12044
 H1132 H 0.85723 0.10932 0.20867
 H1133 H 0.88243 0.07690 0.17514
 H1134 H 0.91283 0.16012 0.08208
 H1135 H 0.93665 0.12650 0.04965
 H1136 H 0.91257 0.06502 0.12601
 C1137 C 0.86450 0.67245 0.73297
 C1138 C 0.85709 0.65954 0.70048
 C1139 C 0.83513 0.67072 0.68044
 C1140 C 0.82086 0.69324 0.69318
 C1141 C 0.82850 0.70574 0.72531
 C1142 C 0.85049 0.69524 0.74496
 C1143 C 0.82769 0.65961 0.64752
 C1144 C 0.84233 0.63838 0.63304
 C1145 C 0.86477 0.62694 0.65142
 C1146 C 0.87122 0.63657 0.68662
 C1147 C 0.89147 0.62285 0.70674
 C1148 C 0.90608 0.60155 0.69217
 C1149 C 0.90174 0.59361 0.65668
 C1150 C 0.88109 0.60627 0.63570
 C1151 C 0.87859 0.59871 0.59917
 C1152 C 0.89639 0.58011 0.58407
 C1153 C 0.91667 0.56778 0.60493
 C1154 C 0.91878 0.57394 0.64151
 H1155 H 0.88148 0.66590 0.74924
 H1156 H 0.80415 0.70157 0.67750
 H1157 H 0.85676 0.70461 0.76987
 H1158 H 0.81066 0.66780 0.63235
 H1159 H 0.83518 0.63099 0.60753
 H1160 H 0.89625 0.62789 0.73419
 H1161 H 0.92160 0.59179 0.70853
 H1162 H 0.86413 0.60791 0.58096
 H1163 H 0.89477 0.57586 0.55558
 H1164 H 0.93496 0.56489 0.65747
 C1165 C 0.37688 0.17064 0.72164
 C1166 C 0.37110 0.16309 0.68570
 C1167 C 0.34900 0.17610 0.66808
 C1168 C 0.33391 0.19608 0.68559
 C1169 C 0.34005 0.20341 0.72102
 C1170 C 0.36160 0.19044 0.73884
 C1171 C 0.34197 0.16916 0.63302
 C1172 C 0.35602 0.14916 0.61503
 C1173 C 0.37806 0.13535 0.63132
 C1174 C 0.38622 0.14296 0.66686
 C1175 C 0.40933 0.13037 0.68222
 C1176 C 0.42357 0.11056 0.66403
 C1177 C 0.41526 0.10217 0.63003
 C1178 C 0.39233 0.11430 0.61315
 C1179 C 0.38443 0.10447 0.57898
 C1180 C 0.39873 0.08367 0.56251
 C1181 C 0.42139 0.07195 0.57928
 C1182 C 0.42968 0.08144 0.61295
 H1183 H 0.39277 0.16141 0.73751
 H1184 H 0.31743 0.20619 0.67140
 H1185 H 0.36645 0.19534 0.76648
 H1186 H 0.32521 0.17920 0.61935
 H1187 H 0.34922 0.14528 0.58800
 H1188 H 0.41726 0.13560 0.70827
 H1189 H 0.44118 0.10148 0.67695
 H1190 H 0.36700 0.11197 0.56442
 H1191 H 0.39184 0.07661 0.53651
 H1192 H 0.44713 0.07234 0.62625
 C1193 C 0.31754 0.68148 0.13863
 C1194 C 0.34175 0.67034 0.15328
 C1195 C 0.35021 0.67952 0.18759
 C1196 C 0.33478 0.69859 0.20634
 C1197 C 0.31090 0.70935 0.19144
 C1198 C 0.30248 0.70060 0.15745
 C1199 C 0.37403 0.66968 0.20320
 C1200 C 0.39000 0.65102 0.18547
 C1201 C 0.38263 0.64114 0.15125
 C1202 C 0.35785 0.65058 0.13515
 C1203 C 0.34987 0.63970 0.10172
 C1204 C 0.36547 0.62039 0.08452
 C1205 C 0.38983 0.61131 0.09955
 C1206 C 0.39901 0.62178 0.13287
 C1207 C 0.42430 0.61239 0.14633
 C1208 C 0.43918 0.59290 0.12808
 C1209 C 0.42958 0.58211 0.09579
 C1210 C 0.40500 0.59161 0.08145
 H1211 H 0.30977 0.67618 0.11251
 H1212 H 0.34132 0.70488 0.23287
 H1213 H 0.28434 0.70892 0.14500
 H1214 H 0.38051 0.67656 0.22949
 H1215 H 0.40789 0.64443 0.19979
 H1216 H 0.33132 0.64537 0.08820
 H1217 H 0.35834 0.61246 0.05907
 H1218 H 0.43335 0.61970 0.17079
 H1219 H 0.45828 0.58611 0.13957
 H1220 H 0.39752 0.58353 0.05626
   
