data_POSCAR
  _audit_creation_date              2014-09-24
  _audit_creation_method            'ToBaCCo'
  _symmetry_space_group_name_H-M    'P1'
  _symmetry_Int_Tables_number       1
  _symmetry_cell_setting            triclinic
  loop_
  _symmetry_equiv_pos_as_xyz
 x,y,z
_cell_length_a 30.1674
_cell_length_b 30.3487
_cell_length_c 36.6501
_cell_angle_alpha 90.040600
_cell_angle_beta 89.970900
_cell_angle_gamma 89.978200
loop_
  _atom_site_label
  _atom_site_type_symbol
  _atom_site_fract_x
  _atom_site_fract_y
  _atom_site_fract_z
Zr1 Zr 0.24122 0.24354 0.31340
 O2 O 0.26851 0.26969 0.36220
 O3 O 0.19272 0.20236 0.33656
 O4 O 0.20162 0.28885 0.34319
 O5 O 0.33156 0.17394 0.30100
 O6 O 0.17275 0.33460 0.30000
 O7 O 0.28421 0.20224 0.34354
 O8 O 0.15674 0.17113 0.28853
 O9 O 0.18599 0.24892 0.27915
 O10 O 0.24330 0.18796 0.27952
 O11 O 0.24954 0.30360 0.28573
 O12 O 0.30307 0.24511 0.28650
 Zr13 Zr 0.25603 0.25664 0.18680
 Zr14 Zr 0.19531 0.30766 0.24998
 Zr15 Zr 0.30272 0.19156 0.25022
 Zr16 Zr 0.19032 0.19490 0.24349
 O17 O 0.37273 0.19218 0.24611
 O18 O 0.12130 0.20615 0.23701
 O19 O 0.24919 0.19547 0.21375
 O20 O 0.19505 0.25334 0.21447
 O21 O 0.25513 0.31198 0.22094
 O22 O 0.31125 0.25004 0.22097
 C23 C 0.16251 0.17752 0.32254
 C24 C 0.31942 0.18079 0.33440
 C25 C 0.17968 0.32346 0.33353
 O26 O 0.12530 0.30437 0.25100
 O27 O 0.17015 0.33173 0.19983
 O28 O 0.21351 0.29898 0.15667
 C29 C 0.18050 0.32347 0.16630
 O30 O 0.33368 0.32000 0.30931
 Zr31 Zr 0.30865 0.30324 0.25687
 O32 O 0.30104 0.30174 0.16361
 O33 O 0.20448 0.37672 0.24883
 O34 O 0.30251 0.37266 0.26195
 O35 O 0.37765 0.28985 0.25862
 O36 O 0.33729 0.33242 0.21189
 C37 C 0.32968 0.32812 0.17791
 O38 O 0.22795 0.23086 0.13818
 O39 O 0.29547 0.12238 0.25443
 O40 O 0.29513 0.21143 0.15695
 O41 O 0.31948 0.16217 0.19945
 O42 O 0.19760 0.12537 0.24332
 O43 O 0.17254 0.17070 0.19103
 C44 C 0.31438 0.17513 0.16608
 H45 H 0.24171 0.16024 0.29370
 H46 H 0.16946 0.25315 0.19764
 H47 H 0.33936 0.24920 0.20703
 H48 H 0.25166 0.32900 0.30254
 H49 H 0.10607 0.17726 0.23842
 H50 H 0.11439 0.33517 0.25087
 H51 H 0.17450 0.39007 0.24875
 H52 H 0.33264 0.38554 0.26028
 H53 H 0.16754 0.11236 0.24508
 H54 H 0.32578 0.10994 0.25571
 H55 H 0.38248 0.16103 0.24535
 H56 H 0.39349 0.31840 0.25707
 H57 H 0.14797 0.14929 0.19343
 H58 H 0.24322 0.24470 0.11704
 H59 H 0.25327 0.25562 0.38326
 H60 H 0.35615 0.34358 0.30687
 Zr61 Zr 0.75722 0.75938 0.31407
 O62 O 0.73095 0.73284 0.36309
 O63 O 0.80582 0.80066 0.33752
 O64 O 0.79764 0.71465 0.34353
 O65 O 0.66482 0.82645 0.30156
 O66 O 0.82762 0.66968 0.30017
 O67 O 0.71234 0.79908 0.34427
 O68 O 0.83904 0.83460 0.28926
 O69 O 0.81244 0.75533 0.27956
 O70 O 0.75384 0.81503 0.28045
 O71 O 0.75019 0.69928 0.28596
 O72 O 0.69552 0.75637 0.28704
 Zr73 Zr 0.74243 0.74667 0.18716
 Zr74 Zr 0.80450 0.69650 0.25010
 Zr75 Zr 0.69459 0.81013 0.25105
 Zr76 Zr 0.80683 0.80941 0.24417
 O77 O 0.62464 0.80806 0.24654
 O78 O 0.87611 0.79956 0.23813
 O79 O 0.74807 0.80764 0.21453
 O80 O 0.80338 0.75101 0.21480
 O81 O 0.74476 0.69115 0.22105
 O82 O 0.68710 0.75174 0.22139
 C83 C 0.83476 0.82672 0.32322
 C84 C 0.67653 0.81949 0.33496
 C85 C 0.82042 0.68063 0.33378
 O86 O 0.87441 0.70140 0.25094
 O87 O 0.82997 0.67324 0.19954
 O88 O 0.78506 0.70474 0.15685
 C89 C 0.81869 0.68095 0.16609
 O90 O 0.66637 0.68048 0.30934
 Zr91 Zr 0.69108 0.69837 0.25705
 O92 O 0.69801 0.70113 0.16371
 O93 O 0.79696 0.62726 0.24867
 O94 O 0.69877 0.62909 0.26182
 O95 O 0.62184 0.71043 0.25892
 O96 O 0.66329 0.66855 0.21189
 C97 C 0.67047 0.67350 0.17789
 O98 O 0.77026 0.77264 0.13851
 O99 O 0.70013 0.87939 0.25617
 O100 O 0.70359 0.79260 0.15759
 O101 O 0.67788 0.84030 0.20079
 O102 O 0.79727 0.87867 0.24363
 O103 O 0.82477 0.83412 0.19193
 C104 C 0.68387 0.82852 0.16724
 H105 H 0.75480 0.84265 0.29483
 H106 H 0.82890 0.75174 0.19787
 H107 H 0.65902 0.75215 0.20741
 H108 H 0.74865 0.67370 0.30261
 H109 H 0.89079 0.82870 0.23990
 H110 H 0.88600 0.67085 0.25066
 H111 H 0.82726 0.61462 0.24848
 H112 H 0.66895 0.61553 0.26016
 H113 H 0.82682 0.89273 0.24564
 H114 H 0.66955 0.89120 0.25714
 H115 H 0.61418 0.83899 0.24615
 H116 H 0.60655 0.68162 0.25691
 H117 H 0.84892 0.85595 0.19460
 H118 H 0.75491 0.75883 0.11739
 H119 H 0.74599 0.74745 0.38400
 H120 H 0.64407 0.65679 0.30667
 Zr121 Zr 0.75896 0.24155 -0.31567
 O122 O 0.73315 0.27063 -0.36384
 O123 O 0.80192 0.19492 -0.33972
 O124 O 0.80200 0.28351 -0.34539
 O125 O 0.66564 0.17601 -0.30273
 O126 O 0.83177 0.32925 -0.30248
 O127 O 0.71257 0.20385 -0.34569
 O128 O 0.83909 0.16460 -0.29177
 O129 O 0.81495 0.24436 -0.28188
 O130 O 0.75440 0.18641 -0.28163
 O131 O 0.75406 0.30192 -0.28765
 O132 O 0.69755 0.24664 -0.28830
 Zr133 Zr 0.74587 0.25492 -0.18873
 Zr134 Zr 0.80873 0.30334 -0.25219
 Zr135 Zr 0.69549 0.19299 -0.25225
 Zr136 Zr 0.80835 0.19079 -0.24619
 O137 O 0.62566 0.19790 -0.24804
 O138 O 0.87783 0.19987 -0.24113
 O139 O 0.74966 0.19391 -0.21625
 O140 O 0.80656 0.24912 -0.21668
 O141 O 0.74953 0.31041 -0.22259
 O142 O 0.69010 0.25156 -0.22259
 C143 C 0.83066 0.16839 -0.32572
 C144 C 0.67710 0.18308 -0.33621
 C145 C 0.82468 0.31771 -0.33594
 O146 O 0.87848 0.29668 -0.25326
 O147 O 0.83482 0.32652 -0.20187
 O148 O 0.78911 0.29667 -0.15892
 C149 C 0.82326 0.31961 -0.16836
 O150 O 0.66970 0.32255 -0.31020
 Zr151 Zr 0.69541 0.30489 -0.25820
 O152 O 0.70085 0.29957 -0.16485
 O153 O 0.80312 0.37279 -0.25118
 O154 O 0.70536 0.37370 -0.26455
 O155 O 0.62566 0.29586 -0.25796
 O156 O 0.67100 0.33715 -0.21271
 C157 C 0.67546 0.32935 -0.17875
 O158 O 0.77405 0.22889 -0.14026
 O159 O 0.69886 0.12348 -0.25644
 O160 O 0.70711 0.20926 -0.15881
 O161 O 0.67764 0.16374 -0.20194
 O162 O 0.79852 0.12159 -0.24522
 O163 O 0.82627 0.16576 -0.19406
 C164 C 0.68523 0.17462 -0.16843
 H165 H 0.75396 0.15843 -0.29552
 H166 H 0.83214 0.24795 -0.19984
 H167 H 0.66211 0.25186 -0.20849
 H168 H 0.75312 0.32727 -0.30455
 H169 H 0.89214 0.17058 -0.24336
 H170 H 0.89080 0.32695 -0.25338
 H171 H 0.83374 0.38462 -0.25106
 H172 H 0.67612 0.38839 -0.26241
 H173 H 0.82803 0.10738 -0.24709
 H174 H 0.66792 0.11261 -0.25720
 H175 H 0.61406 0.16740 -0.24707
 H176 H 0.61173 0.32531 -0.25560
 H177 H 0.85136 0.14496 -0.19668
 H178 H 0.75906 0.24294 -0.11905
 H179 H 0.74673 0.25558 -0.38522
 H180 H 0.64778 0.34659 -0.30735
 Zr181 Zr 0.24440 0.75765 -0.31218
 O182 O 0.26975 0.72971 -0.36103
 O183 O 0.20184 0.80474 -0.33575
 O184 O 0.20179 0.71551 -0.34253
 O185 O 0.33831 0.82206 -0.29788
 O186 O 0.16926 0.67150 -0.29978
 O187 O 0.29219 0.79492 -0.34151
 O188 O 0.16480 0.83582 -0.28832
 O189 O 0.18787 0.75585 -0.27886
 O190 O 0.24941 0.81253 -0.27783
 O191 O 0.24755 0.69709 -0.28436
 O192 O 0.30531 0.75130 -0.28434
 Zr193 Zr 0.25533 0.74306 -0.18514
 Zr194 Zr 0.19236 0.69666 -0.24933
 Zr195 Zr 0.30769 0.80462 -0.24786
 Zr196 Zr 0.19499 0.80904 -0.24278
 O197 O 0.37732 0.79822 -0.24301
 O198 O 0.12530 0.80150 -0.23783
 O199 O 0.25309 0.80436 -0.21231
 O200 O 0.19520 0.75053 -0.21352
 O201 O 0.25102 0.68800 -0.21942
 O202 O 0.31159 0.74571 -0.21857
 C203 C 0.17316 0.83195 -0.32232
 C204 C 0.32770 0.81565 -0.33169
 C205 C 0.17764 0.68221 -0.33320
 O206 O 0.12280 0.70491 -0.25107
 O207 O 0.16482 0.67422 -0.19930
 O208 O 0.21105 0.70171 -0.15585
 C209 C 0.17595 0.68020 -0.16550
 O210 O 0.33157 0.67527 -0.30660
 Zr211 Zr 0.30573 0.69278 -0.25458
 O212 O 0.29923 0.69735 -0.16123
 O213 O 0.19629 0.62710 -0.24846
 O214 O 0.29465 0.62420 -0.26153
 O215 O 0.37566 0.70018 -0.25362
 O216 O 0.32869 0.65952 -0.20921
 C217 C 0.32415 0.66721 -0.17523
 O218 O 0.22677 0.76964 -0.13697
 O219 O 0.30592 0.87424 -0.25158
 O220 O 0.29493 0.78730 -0.15458
 O221 O 0.32470 0.83346 -0.19712
 O222 O 0.20672 0.87795 -0.24169
 O223 O 0.17716 0.83436 -0.19067
 C224 C 0.31686 0.82205 -0.16377
 H225 H 0.25051 0.84055 -0.29161
 H226 H 0.16950 0.75220 -0.19683
 H227 H 0.33940 0.74473 -0.20426
 H228 H 0.24825 0.67171 -0.30127
 H229 H 0.11167 0.83115 -0.23966
 H230 H 0.10978 0.67494 -0.25124
 H231 H 0.16539 0.61602 -0.24859
 H232 H 0.32363 0.60901 -0.25942
 H233 H 0.17766 0.89295 -0.24394
 H234 H 0.33709 0.88447 -0.25198
 H235 H 0.38951 0.82847 -0.24171
 H236 H 0.38883 0.67035 -0.25162
 H237 H 0.15326 0.85645 -0.19346
 H238 H 0.24105 0.75527 -0.11561
 H239 H 0.25622 0.74553 -0.38203
 H240 H 0.35294 0.65072 -0.30387
 Zr241 Zr 1.25467 1.25674 0.81263
 O242 O 1.22847 1.22940 0.86136
 O243 O 1.30218 1.29946 0.83582
 O244 O 1.29626 1.21316 0.84209
 O245 O 1.16248 1.32388 0.80040
 O246 O 1.32547 1.16751 0.79886
 O247 O 1.21010 1.29645 0.84300
 O248 O 1.33552 1.33296 0.78742
 O249 O 1.30980 1.25276 0.77801
 O250 O 1.25088 1.31212 0.77879
 O251 O 1.24782 1.19642 0.78482
 O252 O 1.19283 1.25312 0.78585
 Zr253 Zr 1.23878 1.24327 0.68574
 Zr254 Zr 1.30179 1.19379 0.74871
 Zr255 Zr 1.19148 1.30683 0.74980
 Zr256 Zr 1.30377 1.30655 0.74242
 O257 O 1.12149 1.30422 0.74595
 O258 O 1.37299 1.29605 0.73664
 O259 O 1.24477 1.30428 0.71306
 O260 O 1.29997 1.24808 0.71314
 O261 O 1.24194 1.18776 0.71966
 O262 O 1.18388 1.24831 0.72042
 C263 C 1.33065 1.32605 0.82149
 C264 C 1.17448 1.31718 0.83376
 C265 C 1.31893 1.17903 0.83245
 O266 O 1.37169 1.19899 0.74918
 O267 O 1.32729 1.17066 0.69829
 O268 O 1.28099 1.20050 0.65577
 C269 C 1.31538 1.17775 0.66493
 O270 O 1.16379 1.17709 0.80826
 Zr271 Zr 1.18865 1.19480 0.75598
 O272 O 1.19070 1.20095 0.66256
 O273 O 1.29476 1.12449 0.74760
 O274 O 1.19781 1.12575 0.76132
 O275 O 1.11918 1.20555 0.75772
 O276 O 1.16132 1.16397 0.71095
 C277 C 1.16434 1.17231 0.67695
 O278 O 1.26608 1.26683 0.63607
 O279 O 1.19667 1.37618 0.75448
 O280 O 1.20230 1.29125 0.65634
 O281 O 1.17426 1.33722 0.69979
 O282 O 1.29390 1.37576 0.74103
 O283 O 1.32198 1.33108 0.69018
 C284 C 1.18169 1.32657 0.66620
 H285 H 1.25165 1.33992 0.79294
 H286 H 1.32529 1.24887 0.69602
 H287 H 1.15553 1.24902 0.70683
 H288 H 1.24665 1.17104 0.80169
 H289 H 1.38795 1.32502 0.73865
 H290 H 1.38344 1.16849 0.74929
 H291 H 1.32515 1.11207 0.74728
 H292 H 1.16833 1.11151 0.75949
 H293 H 1.32335 1.39002 0.74296
 H294 H 1.16603 1.38784 0.75570
 H295 H 1.11084 1.33508 0.74529
 H296 H 1.10441 1.17648 0.75567
 H297 H 1.34672 1.35226 0.69284
 H298 H 1.24960 1.25294 0.61556
 H299 H 1.24319 1.24399 0.88243
 H300 H 1.14230 1.15264 0.80567
 Zr301 Zr 0.74232 0.74458 0.81232
 O302 O 0.76950 0.77150 0.86086
 O303 O 0.69412 0.70270 0.83565
 O304 O 0.70196 0.78932 0.84196
 O305 O 0.83352 0.67620 0.80038
 O306 O 0.67294 0.83476 0.79865
 O307 O 0.78540 0.70370 0.84266
 O308 O 0.66062 0.66915 0.78733
 O309 O 0.68714 0.74914 0.77795
 O310 O 0.74528 0.68898 0.77854
 O311 O 0.75020 0.80464 0.78441
 O312 O 0.80418 0.74719 0.78532
 Zr313 Zr 0.75743 0.75722 0.68549
 Zr314 Zr 0.69603 0.80791 0.74868
 Zr315 Zr 0.80471 0.69320 0.74946
 Zr316 Zr 0.69235 0.69512 0.74234
 O317 O 0.87474 0.69473 0.74576
 O318 O 0.62316 0.70616 0.73701
 O319 O 0.75128 0.69624 0.71282
 O320 O 0.69652 0.75350 0.71322
 O321 O 0.75565 0.81303 0.71916
 O322 O 0.81253 0.75143 0.71992
 C323 C 0.66564 0.67608 0.82135
 C324 C 0.82096 0.68275 0.83370
 C325 C 0.67971 0.82367 0.83222
 O326 O 0.62606 0.80371 0.74943
 O327 O 0.67074 0.83150 0.69862
 O328 O 0.71537 0.80023 0.65555
 C329 C 0.68160 0.82371 0.66517
 O330 O 0.83438 0.82403 0.80704
 Zr331 Zr 0.80913 0.80526 0.75514
 O332 O 0.80549 0.79838 0.66137
 O333 O 0.70405 0.87712 0.74763
 O334 O 0.80100 0.87455 0.75922
 O335 O 0.87836 0.79320 0.75738
 O336 O 0.83768 0.83371 0.70939
 C337 C 0.83364 0.82547 0.67539
 O338 O 0.72835 0.73208 0.63705
 O339 O 0.79835 0.62394 0.75387
 O340 O 0.79483 0.71051 0.65591
 O341 O 0.82210 0.66347 0.69894
 O342 O 0.70096 0.62576 0.74090
 O343 O 0.67382 0.67111 0.69000
 C344 C 0.81543 0.67514 0.66542
 H345 H 0.74414 0.66122 0.79269
 H346 H 0.67097 0.75306 0.69635
 H347 H 0.84083 0.75019 0.70627
 H348 H 0.75190 0.83011 0.80118
 H349 H 0.60802 0.67725 0.73873
 H350 H 0.61472 0.83437 0.74950
 H351 H 0.67386 0.89001 0.74736
 H352 H 0.83065 0.88826 0.75661
 H353 H 0.67120 0.61205 0.74250
 H354 H 0.82879 0.61194 0.75583
 H355 H 0.88489 0.66370 0.74523
 H356 H 0.89372 0.82190 0.75481
 H357 H 0.64871 0.65035 0.69253
 H358 H 0.74400 0.74537 0.61584
 H359 H 0.75451 0.75745 0.88205
 H360 H 0.85589 0.84838 0.80400
 Zr361 Zr 1.25656 0.74430 0.18549
 O362 O 1.23060 0.77292 0.13718
 O363 O 1.30079 0.69839 0.16196
 O364 O 1.29942 0.78623 0.15560
 O365 O 1.16286 0.67950 0.19801
 O366 O 1.32925 0.83199 0.19843
 O367 O 1.21128 0.70556 0.15539
 O368 O 1.33722 0.66802 0.21027
 O369 O 1.31224 0.74712 0.21953
 O370 O 1.25156 0.68934 0.21965
 O371 O 1.25135 0.80479 0.21324
 O372 O 1.19484 0.74964 0.21242
 Zr373 Zr 1.24251 0.75865 0.31223
 Zr374 Zr 1.30593 0.80633 0.24878
 Zr375 Zr 1.19237 0.69636 0.24875
 Zr376 Zr 1.30516 0.69374 0.25540
 O377 O 1.12260 0.70147 0.25326
 O378 O 1.37461 0.70209 0.26167
 O379 O 1.24629 0.69746 0.28498
 O380 O 1.30332 0.75230 0.28451
 O381 O 1.24649 0.81366 0.27793
 O382 O 1.18675 0.75515 0.27838
 C383 C 1.32984 0.67236 0.17623
 C384 C 1.17532 0.68551 0.16459
 C385 C 1.32226 0.82033 0.16497
 O386 O 1.37566 0.79941 0.24779
 O387 O 1.33207 0.82941 0.29912
 O388 O 1.28685 0.79891 0.34212
 C389 C 1.32089 0.82191 0.33263
 O390 O 1.16711 0.82546 0.19016
 Zr391 Zr 1.19233 0.80797 0.24235
 O392 O 1.20127 0.80718 0.33586
 O393 O 1.30054 0.87579 0.24979
 O394 O 1.20173 0.87682 0.23568
 O395 O 1.12269 0.79819 0.24230
 O396 O 1.16773 0.84074 0.28762
 C397 C 1.17565 0.83656 0.32163
 O398 O 1.26939 0.73163 0.36082
 O399 O 1.19501 0.62683 0.24436
 O400 O 1.20209 0.71426 0.34208
 O401 O 1.17530 0.66688 0.29912
 O402 O 1.29442 0.62466 0.25593
 O403 O 1.32212 0.66870 0.30775
 C404 C 1.18172 0.67864 0.33259
 H405 H 1.25141 0.66136 0.20575
 H406 H 1.32887 0.75089 0.30135
 H407 H 1.15890 0.75606 0.29268
 H408 H 1.25056 0.83006 0.19624
 H409 H 1.38867 0.67262 0.26001
 H410 H 1.38808 0.82963 0.24757
 H411 H 1.33120 0.88749 0.24973
 H412 H 1.17235 0.89128 0.23756
 H413 H 1.32374 0.61012 0.25393
 H414 H 1.16397 0.61628 0.24343
 H415 H 1.11091 0.67098 0.25366
 H416 H 1.10850 0.82750 0.24474
 H417 H 1.34594 0.64645 0.30524
 H418 H 1.25487 0.74630 0.38197
 H419 H 1.24440 0.75792 0.11587
 H420 H 1.14442 0.84881 0.19291
 Zr421 Zr 0.74687 1.25450 0.18841
 O422 O 0.77277 1.22700 0.13960
 O423 O 0.70290 1.30040 0.16476
 O424 O 0.70478 1.21188 0.15813
 O425 O 0.83963 1.32079 0.20266
 O426 O 0.67328 1.16718 0.20087
 O427 O 0.79354 1.29291 0.15911
 O428 O 0.66626 1.33130 0.21277
 O429 O 0.69071 1.25155 0.22204
 O430 O 0.75123 1.30930 0.22295
 O431 O 0.75154 1.19390 0.21601
 O432 O 0.80815 1.24926 0.21596
 Zr433 Zr 0.75925 1.23932 0.31538
 Zr434 Zr 0.69657 1.19229 0.25128
 Zr435 Zr 0.80986 1.30228 0.25274
 Zr436 Zr 0.69716 1.30475 0.25820
 O437 O 0.87959 1.29696 0.25741
 O438 O 0.62764 1.29592 0.26332
 O439 O 0.75552 1.30076 0.28849
 O440 O 0.69879 1.24609 0.28724
 O441 O 0.75571 1.18459 0.28071
 O442 O 0.81530 1.24321 0.28187
 C443 C 0.67392 1.32674 0.17874
 C444 C 0.82856 1.31420 0.16902
 C445 C 0.68103 1.17832 0.16745
 O446 O 0.62685 1.19926 0.25004
 O447 O 0.66969 1.16896 0.30132
 O448 O 0.71472 1.19871 0.34478
 C449 C 0.68064 1.17600 0.33495
 O450 O 0.83600 1.17410 0.19320
 Zr451 Zr 0.81022 1.19066 0.24546
 O452 O 0.80052 1.19068 0.33888
 O453 O 0.70203 1.12282 0.25180
 O454 O 0.80066 1.12190 0.23831
 O455 O 0.87994 1.19988 0.24598
 O456 O 0.83469 1.15777 0.29056
 C457 C 0.82663 1.16175 0.32455
 O458 O 0.73180 1.26599 0.36395
 O459 O 0.80709 1.37187 0.24918
 O460 O 0.79976 1.28296 0.34582
 O461 O 0.82613 1.33135 0.30348
 O462 O 0.70828 1.37376 0.25965
 O463 O 0.67863 1.32962 0.31029
 C464 C 0.81982 1.31889 0.33677
 H465 H 0.75164 1.33737 0.20921
 H466 H 0.67306 1.24737 0.30392
 H467 H 0.84303 1.24223 0.29629
 H468 H 0.75248 1.16864 0.19898
 H469 H 0.61340 1.32527 0.26143
 H470 H 0.61436 1.16906 0.24970
 H471 H 0.67137 1.11110 0.25173
 H472 H 0.83000 1.10736 0.24018
 H473 H 0.67915 1.38854 0.25709
 H474 H 0.83810 1.38259 0.24899
 H475 H 0.89130 1.32741 0.25859
 H476 H 0.89393 1.17040 0.24773
 H477 H 0.65469 1.35167 0.30741
 H478 H 0.74609 1.25118 0.38510
 H479 H 0.75891 1.24255 0.11861
 H480 H 0.85801 1.15009 0.19572
 O481 O 0.55915 1.07867 0.06730
 O482 O 0.61109 1.04114 0.03326
 C483 C 0.59954 1.06867 0.05914
 O484 O 0.44097 0.92020 0.06373
 O485 O 0.38906 0.96106 0.03250
 C486 C 0.40061 0.93091 0.05624
 O487 O 0.56102 0.92595 0.06728
 O488 O 0.61216 0.96504 0.03373
 C489 C 0.60119 0.93709 0.05936
 O490 O 0.43922 1.08203 0.06388
 O491 O 0.38821 1.04066 0.03211
 C492 C 0.39905 1.07054 0.05625
 Zr493 Zr 0.49953 1.05723 0.04441
 O494 O 0.49626 1.06051 0.10204
 O495 O 0.50081 1.12650 0.03841
 Zr496 Zr 0.50057 0.94706 0.04529
 O497 O 0.49945 0.95308 0.10279
 O498 O 0.49903 0.87722 0.04718
 O499 O 0.54000 1.00245 0.05205
 O500 O 0.46093 1.00182 0.05172
 O501 O 0.44006 1.08141 -0.06583
 O502 O 0.38867 1.04065 -0.03389
 C503 C 0.39983 1.07036 -0.05820
 O504 O 0.56014 0.92413 -0.06765
 O505 O 0.61160 0.96333 -0.03454
 C506 C 0.60036 0.93509 -0.05995
 O507 O 0.44031 0.91962 -0.06390
 O508 O 0.38873 0.96104 -0.03272
 C509 C 0.39999 0.93067 -0.05629
 O510 O 0.55988 1.07786 -0.06861
 O511 O 0.61149 1.03989 -0.03474
 C512 C 0.60019 1.06732 -0.06063
 Zr513 Zr 0.49990 1.05653 -0.04600
 O514 O 0.49524 1.05760 -0.10366
 O515 O 0.50387 1.12618 -0.04327
 Zr516 Zr 0.50036 0.94598 -0.04540
 O517 O 0.49527 0.94449 -0.10305
 O518 O 0.50496 0.87641 -0.04245
 Zr519 Zr 0.56822 1.00195 -0.00061
 Zr520 Zr 0.43198 1.00121 -0.00047
 O521 O 0.46127 1.00095 -0.05262
 O522 O 0.53996 1.00134 -0.05325
 O523 O 0.45901 1.06528 -0.00083
 O524 O 0.54018 0.93860 -0.00009
 O525 O 0.53946 1.06513 -0.00078
 O526 O 0.46020 0.93765 0.00002
 H527 H 0.44180 1.00173 0.07370
 H528 H 0.56075 0.91318 -0.00014
 H529 H 0.44219 1.00051 -0.07462
 H530 H 0.55935 1.09112 -0.00090
 H531 H 0.52463 0.86548 0.03341
 H532 H 0.48197 0.86605 -0.02519
 H533 H 0.51876 0.96366 -0.11312
 H534 H 0.51772 1.03703 -0.11344
 H535 H 0.47818 1.13690 -0.02898
 H536 H 0.50116 1.13892 0.06343
 H537 H 0.51256 1.03469 0.11159
 H538 H 0.49856 0.92272 0.11274
 O539 O 1.05826 0.57952 0.56724
 O540 O 1.11068 0.54244 0.53337
 C541 C 1.09876 0.57001 0.55911
 O542 O 0.94168 0.41952 0.56344
 O543 O 0.88945 0.46001 0.53226
 C544 C 0.90125 0.42988 0.55590
 O545 O 1.06157 0.42625 0.56720
 O546 O 1.11246 0.46607 0.53399
 C547 C 1.10164 0.43779 0.55941
 O548 O 0.93839 0.58132 0.56374
 O549 O 0.88783 0.53952 0.53187
 C550 C 0.89837 0.56947 0.55602
 Zr551 Zr 0.99896 0.55717 0.54446
 O552 O 0.99548 0.56013 0.60208
 O553 O 0.99951 0.62648 0.53869
 Zr554 Zr 1.00106 0.44713 0.54536
 O555 O 0.99980 0.45356 0.60282
 O556 O 1.00029 0.37730 0.54802
 O557 O 1.03999 0.50284 0.55220
 O558 O 0.96084 0.50143 0.55171
 O559 O 0.93960 0.58117 0.43447
 O560 O 0.88851 0.53971 0.46610
 C561 C 0.89946 0.56978 0.44206
 O562 O 1.06123 0.42447 0.43277
 O563 O 1.11219 0.46415 0.46602
 C564 C 1.10131 0.43569 0.44068
 O565 O 0.94146 0.41866 0.43635
 O566 O 0.88937 0.45980 0.46720
 C567 C 0.90101 0.42926 0.44391
 O568 O 1.05936 0.57883 0.43183
 O569 O 1.11126 0.54137 0.46579
 C570 C 1.09975 0.56885 0.44000
 Zr571 Zr 0.99958 0.55641 0.45397
 O572 O 0.99490 0.55637 0.39630
 O573 O 1.00294 0.62612 0.45592
 Zr574 Zr 1.00113 0.44604 0.45458
 O575 O 0.99605 0.44535 0.39692
 O576 O 1.00638 0.37649 0.45684
 Zr577 Zr 1.06832 0.50261 0.49957
 Zr578 Zr 0.93210 0.50053 0.49945
 O579 O 0.96139 0.50054 0.44732
 O580 O 1.04033 0.50171 0.44683
 O581 O 0.95856 0.56483 0.49911
 O582 O 1.04080 0.43901 0.50003
 O583 O 1.03883 0.56545 0.49931
 O584 O 0.96100 0.43726 0.49998
 H585 H 0.94157 0.50111 0.57362
 H586 H 1.06152 0.41371 0.50007
 H587 H 0.94213 0.49993 0.42543
 H588 H 1.05833 0.59173 0.49926
 H589 H 1.02468 0.36556 0.53284
 H590 H 0.98443 0.36582 0.47487
 H591 H 1.02031 0.46367 0.38697
 H592 H 1.01882 0.53734 0.38668
 H593 H 0.97825 0.63669 0.47143
 H594 H 0.99907 0.63881 0.56374
 H595 H 1.01294 0.53505 0.61160
 H596 H 0.99896 0.42326 0.61287
 O597 O 0.91971 0.44113 -0.06610
 O598 O 0.96058 0.39031 -0.03379
 C599 C 0.93144 0.40125 -0.05874
 O600 O 1.07935 0.56032 -0.06588
 O601 O 1.03821 0.61189 -0.03453
 C602 C 1.06809 0.60044 -0.05881
 O603 O 1.07609 0.44115 -0.06761
 O604 O 1.03797 0.39021 -0.03324
 C605 C 1.06578 0.40116 -0.05906
 O606 O 0.91556 0.56033 -0.06319
 O607 O 0.95780 0.61189 -0.03294
 C608 C 0.92701 0.60047 -0.05621
 Zr609 Zr 0.94277 0.50079 -0.04500
 O610 O 0.94884 0.50092 -0.10251
 O611 O 0.87254 0.50235 -0.04663
 Zr612 Zr 1.05297 0.50115 -0.04673
 O613 O 1.04312 0.50087 -0.10387
 O614 O 1.12285 0.50234 -0.05219
 O615 O 0.99796 0.46086 -0.05277
 O616 O 0.99754 0.54021 -0.05279
 O617 O 0.91765 0.56066 0.06434
 O618 O 0.95851 0.61203 0.03264
 C619 C 0.92841 0.60073 0.05671
 O620 O 1.07803 0.44344 0.06681
 O621 O 1.03938 0.39142 0.03393
 C622 C 1.06776 0.40321 0.05918
 O623 O 1.08056 0.56238 0.06300
 O624 O 1.03856 0.61290 0.03139
 C625 C 1.06894 0.60225 0.05529
 O626 O 0.92432 0.44156 0.06922
 O627 O 0.96178 0.39037 0.03461
 C628 C 0.93488 0.40150 0.06107
 Zr629 Zr 0.94456 0.50121 0.04590
 O630 O 0.94973 0.50406 0.10344
 O631 O 0.87452 0.49664 0.04649
 Zr632 Zr 1.05534 0.50231 0.04413
 O633 O 1.05702 0.50641 0.10179
 O634 O 1.12538 0.49902 0.04067
 Zr635 Zr 0.99936 0.43360 0.00016
 Zr636 Zr 0.99854 0.56917 -0.00067
 O637 O 0.99968 0.54071 0.05166
 O638 O 1.00041 0.46209 0.05256
 O639 O 0.93464 0.54097 0.00042
 O640 O 1.06267 0.46256 -0.00105
 O641 O 0.93567 0.46160 0.00082
 O642 O 1.06283 0.54184 -0.00168
 H643 H 0.99700 0.55935 -0.07468
 H644 H 1.08883 0.44283 -0.00099
 H645 H 0.99981 0.55992 0.07353
 H646 H 0.91002 0.44129 0.00162
 H647 H 1.13571 0.48623 -0.03132
 H648 H 1.13547 0.52379 0.02519
 H649 H 1.03240 0.48814 0.11123
 H650 H 0.91905 0.50406 0.11318
 H651 H 0.86316 0.51721 0.02774
 H652 H 0.86102 0.47984 -0.02961
 H653 H 0.91831 0.50254 -0.11242
 H654 H 1.07298 0.50224 -0.11511
 O655 O 0.41917 0.93950 0.43448
 O656 O 0.45931 0.88861 0.46732
 C657 C 0.43058 0.89962 0.44212
 O658 O 0.57951 1.05847 0.43623
 O659 O 0.53755 1.11008 0.46674
 C660 C 0.56824 1.09858 0.44325
 O661 O 0.57539 0.93952 0.43364
 O662 O 0.53689 0.88856 0.46770
 C663 C 0.56500 0.89955 0.44208
 O664 O 0.41495 1.05869 0.43713
 O665 O 0.45704 1.11023 0.46755
 C666 C 0.42637 1.09883 0.44415
 Zr667 Zr 0.44193 0.99920 0.45558
 O668 O 0.44815 0.99929 0.39807
 O669 O 0.37170 1.00090 0.45374
 Zr670 Zr 0.55205 0.99936 0.45441
 O671 O 0.54229 0.99944 0.39727
 O672 O 0.62188 0.99957 0.44863
 O673 O 0.49706 0.95913 0.44813
 O674 O 0.49685 1.03856 0.44799
 O675 O 0.41585 1.05939 0.56424
 O676 O 0.45735 1.11058 0.53292
 C677 C 0.42677 1.09941 0.55655
 O678 O 0.57652 0.94150 0.56759
 O679 O 0.53795 0.88957 0.53452
 C680 C 0.56647 0.90131 0.55962
 O681 O 0.57905 1.06060 0.56418
 O682 O 0.53751 1.11118 0.53224
 C683 C 0.56780 1.10050 0.55620
 O684 O 0.42232 0.94047 0.56999
 O685 O 0.46003 0.88899 0.53587
 C686 C 0.43292 0.90033 0.56222
 Zr687 Zr 0.44304 0.99977 0.54649
 O688 O 0.44817 1.00294 0.60402
 O689 O 0.37301 0.99528 0.54700
 Zr690 Zr 0.55370 1.00057 0.54537
 O691 O 0.55432 1.00466 0.60305
 O692 O 0.62380 0.99723 0.54283
 Zr693 Zr 0.49801 0.93193 0.50110
 Zr694 Zr 0.49749 1.06748 0.50012
 O695 O 0.49814 1.03921 0.55251
 O696 O 0.49871 0.96043 0.55350
 O697 O 0.43353 1.03942 0.50090
 O698 O 0.56136 0.96088 0.50016
 O699 O 0.43440 0.96009 0.50141
 O700 O 0.56171 1.03994 0.49954
 H701 H 0.49666 1.05780 0.42615
 H702 H 0.58764 0.94131 0.50022
 H703 H 0.49812 1.05858 0.57429
 H704 H 0.40870 0.93982 0.50219
 H705 H 0.63468 0.98656 0.47095
 H706 H 0.63420 1.02191 0.52739
 H707 H 0.53065 0.98505 0.61229
 H708 H 0.41748 1.00342 0.61373
 H709 H 0.36177 1.01514 0.52769
 H710 H 0.36003 0.97792 0.47024
 H711 H 0.41763 1.00051 0.38811
 H712 H 0.57216 1.00130 0.38610
 O713 O 0.94955 0.89988 0.44954
 O714 O 0.97411 0.95189 0.40873
 C715 C 0.95419 0.91516 0.41692
 O716 O 0.90396 1.05058 0.55025
 O717 O 0.95448 1.02436 0.59176
 C718 C 0.91850 1.04558 0.58306
 O719 O 0.90101 1.04601 0.45104
 O720 O 0.95344 1.02388 0.40948
 C721 C 0.91582 1.04208 0.41815
 O722 O 0.95435 0.89560 0.54899
 O723 O 0.97465 0.94790 0.59103
 C724 C 0.95707 0.91035 0.58199
 Zr725 Zr 0.96542 0.92783 0.49958
 O726 O 0.89669 0.91431 0.49997
 O727 O 0.98062 0.85972 0.49905
 Zr728 Zr 0.93143 1.03195 0.50062
 O729 O 0.86717 1.00417 0.50161
 O730 O 0.90567 1.09673 0.49773
 O731 O 0.94040 0.97790 0.46704
 O732 O 0.94036 0.97698 0.53247
 O733 O 1.09881 0.94223 0.54883
 O734 O 1.04782 0.96561 0.59100
 C735 C 1.08386 0.94483 0.58165
 O736 O 1.05518 1.09497 0.45323
 O737 O 1.03065 1.04573 0.41025
 C738 C 1.05168 1.08125 0.42014
 O739 O 1.04936 1.09539 0.55232
 O740 O 1.02769 1.04206 0.59288
 C741 C 1.04538 1.07993 0.58491
 O742 O 1.10211 0.94948 0.45020
 O743 O 1.05067 0.97420 0.40899
 C744 C 1.08791 0.95512 0.41736
 Zr745 Zr 1.07105 0.96165 0.49991
 O746 O 1.13743 0.98380 0.50432
 O747 O 1.09263 0.89546 0.49538
 Zr748 Zr 1.03653 1.06638 0.50197
 O749 O 1.10234 1.08979 0.50695
 O750 O 1.01299 1.13205 0.49858
 Zr751 Zr 1.00181 0.99817 0.44540
 Zr752 Zr 1.00120 0.99581 0.55561
 O753 O 1.06196 1.01564 0.53291
 O754 O 1.06273 1.01752 0.46840
 O755 O 1.02086 0.93550 0.53216
 O756 O 0.98183 1.05790 0.46934
 O757 O 1.02090 0.93732 0.46765
 O758 O 0.98114 1.05702 0.53408
 H759 H 0.91519 0.96942 0.54871
 H760 H 0.97426 1.08326 0.45350
 H761 H 1.08722 1.02265 0.54920
 H762 H 1.02893 0.91289 0.45097
 H763 H 0.92532 1.11577 0.51243
 H764 H 0.99579 1.13842 0.52096
 H765 H 1.12065 1.07375 0.48894
 H766 H 1.14345 1.00362 0.48347
 H767 H 1.07540 0.87786 0.51314
 H768 H 1.00954 0.85606 0.48677
 H769 H 0.89385 0.88181 0.50096
 H770 H 0.84623 1.02926 0.50323
 O771 O 0.42297 0.57653 -0.04873
 O772 O 0.46241 0.53663 -0.09102
 C773 C 0.43401 0.56689 -0.08173
 O774 O 0.58082 0.57642 0.04928
 O775 O 0.54124 0.53665 0.09143
 C776 C 0.57157 0.56498 0.08224
 O777 O 0.57125 0.58459 -0.04941
 O778 O 0.53578 0.54071 -0.09128
 C779 C 0.56094 0.57384 -0.08232
 O780 O 0.41610 0.56892 0.04992
 O781 O 0.46115 0.53462 0.09164
 C782 C 0.42793 0.55983 0.08282
 Zr783 Zr 0.44351 0.55019 0.00055
 O784 O 0.43773 0.61953 0.00454
 O785 O 0.37396 0.54210 -0.00199
 Zr786 Zr 0.55378 0.55652 -0.00002
 O787 O 0.54527 0.62558 0.00333
 O788 O 0.62328 0.56354 -0.00546
 O789 O 0.49798 0.56203 -0.03228
 O790 O 0.49853 0.56178 0.03259
 O791 O 0.42331 0.42067 0.04978
 O792 O 0.46354 0.46036 0.09164
 C793 C 0.43284 0.43235 0.08264
 O794 O 0.58050 0.42075 -0.04973
 O795 O 0.54003 0.46024 -0.09150
 C796 C 0.56871 0.43013 -0.08260
 O797 O 0.58730 0.42711 0.04925
 O798 O 0.54352 0.46237 0.09135
 C799 C 0.57615 0.43656 0.08228
 O800 O 0.43003 0.41342 -0.04893
 O801 O 0.46516 0.45723 -0.09092
 C802 C 0.43961 0.42445 -0.08191
 Zr803 Zr 0.44961 0.44063 0.00035
 O804 O 0.45398 0.37124 0.00576
 O805 O 0.37975 0.43643 -0.00381
 Zr806 Zr 0.56030 0.44676 -0.00018
 O807 O 0.56647 0.37752 0.00468
 O808 O 0.63000 0.45250 -0.00582
 Zr809 Zr 0.50152 0.49839 -0.05497
 Zr810 Zr 0.50226 0.49846 0.05537
 O811 O 0.50550 0.43519 0.03218
 O812 O 0.50518 0.43460 -0.03247
 O813 O 0.43802 0.49505 0.03314
 O814 O 0.56535 0.50212 -0.03240
 O815 O 0.43792 0.49508 -0.03183
 O816 O 0.56630 0.50201 0.03248
 H817 H 0.49745 0.58761 0.04915
 H818 H 0.59105 0.50367 -0.04922
 H819 H 0.50657 0.40932 0.04864
 H820 H 0.41184 0.49396 -0.04825
 H821 H 0.63726 0.54119 0.01040
 H822 H 0.64164 0.46751 0.01614
 H823 H 0.54496 0.36404 -0.01231
 H824 H 0.47094 0.35973 -0.01529
 H825 H 0.36714 0.46016 0.01153
 H826 H 0.36105 0.57213 -0.00231
 H827 H 0.46263 0.63236 -0.00944
 H828 H 0.57541 0.63858 0.00348
 C829 C 0.34172 1.10176 0.14270
 C830 C 0.33074 1.14609 0.13601
 C831 C 0.33513 1.16221 0.10010
 C832 C 0.35285 1.13561 0.07232
 C833 C 0.36548 1.09197 0.07952
 C834 C 0.35884 1.07508 0.11478
 H835 H 0.33832 1.08797 0.16980
 H836 H 0.32683 1.19608 0.09382
 H837 H 0.35937 1.14998 0.04581
 H838 H 0.37000 1.04211 0.12140
 C839 C 0.84298 0.60160 0.64277
 C840 C 0.83129 0.64560 0.63558
 C841 C 0.83424 0.66092 0.59932
 C842 C 0.85129 0.63386 0.57159
 C843 C 0.86471 0.59060 0.57926
 C844 C 0.85943 0.57446 0.61492
 H845 H 0.84067 0.58847 0.67017
 H846 H 0.82538 0.69455 0.59268
 H847 H 0.85687 0.64768 0.54473
 H848 H 0.87130 0.54182 0.62183
 C849 C 0.66796 0.84595 0.10090
 C850 C 0.66825 0.85897 0.13786
 C851 C 0.65391 0.90188 0.14648
 C852 C 0.63727 0.92988 0.11937
 C853 C 0.63465 0.91596 0.08289
 C854 C 0.65090 0.87400 0.07379
 H855 H 0.67904 0.81334 0.09311
 H856 H 0.65413 0.91342 0.17444
 H857 H 0.62332 0.96134 0.12735
 H858 H 0.64752 0.86175 0.04616
 C859 C 1.16714 0.34554 0.59998
 C860 C 1.16701 0.35780 0.63710
 C861 C 1.15329 0.40077 0.64619
 C862 C 1.13753 0.42957 0.61931
 C863 C 1.13511 0.41636 0.58265
 C864 C 1.15092 0.37438 0.57311
 H865 H 1.17782 0.31290 0.59185
 H866 H 1.15334 0.41175 0.67430
 H867 H 1.12392 0.46108 0.62759
 H868 H 1.14765 0.36270 0.54530
 C869 C 0.66888 1.15736 -0.10212
 C870 C 0.66872 1.14457 -0.13913
 C871 C 0.65291 1.10226 -0.14796
 C872 C 0.63546 1.07462 -0.12097
 C873 C 0.63348 1.08831 -0.08441
 C874 C 0.65100 1.12967 -0.07510
 H875 H 0.68096 1.18957 -0.09423
 H876 H 0.65269 1.09092 -0.17599
 H877 H 0.62056 1.04364 -0.12906
 H878 H 0.64812 1.14176 -0.04738
 C879 C 1.16492 0.66141 0.39885
 C880 C 1.16600 0.64827 0.36195
 C881 C 1.15259 0.60508 0.35328
 C882 C 1.13619 0.57683 0.38027
 C883 C 1.13283 0.59079 0.41667
 C884 C 1.14803 0.63310 0.42586
 H885 H 1.17527 0.69425 0.40664
 H886 H 1.15349 0.59342 0.32535
 H887 H 1.12304 0.54506 0.37224
 H888 H 1.14401 0.64533 0.45344
 C889 C 0.34266 0.89615 -0.14156
 C890 C 0.33280 0.85174 -0.13410
 C891 C 0.33774 0.83650 -0.09802
 C892 C 0.35516 0.86416 -0.07081
 C893 C 0.36667 0.90793 -0.07882
 C894 C 0.35928 0.92387 -0.11423
 H895 H 0.33865 0.90925 -0.16884
 H896 H 0.33024 0.80259 -0.09125
 H897 H 0.36231 0.85057 -0.04412
 H898 H 0.36954 0.95695 -0.12145
 C899 C 0.84167 0.33326 0.40231
 C900 C 0.83521 0.34877 0.36650
 C901 C 0.84294 0.39369 0.35933
 C902 C 0.85901 0.42173 0.38666
 C903 C 0.86799 0.40561 0.42175
 C904 C 0.85857 0.36126 0.42949
 H905 H 0.83580 0.29896 0.40886
 H906 H 0.83771 0.40700 0.33226
 H907 H 0.86768 0.45532 0.37961
 H908 H 0.86697 0.34761 0.45591
 C909 C 1.16210 0.33957 0.10003
 C910 C 1.15003 0.34007 0.13721
 C911 C 1.10693 0.35408 0.14636
 C912 C 1.07766 0.36921 0.11952
 C913 C 1.09045 0.37088 0.08272
 C914 C 1.13281 0.35540 0.07315
 H915 H 1.19477 0.32853 0.09187
 H916 H 1.09595 0.35415 0.17450
 H917 H 1.04594 0.38265 0.12786
 H918 H 1.14428 0.35822 0.04524
 C919 C 0.60686 0.85104 0.64553
 C920 C 0.65066 0.83949 0.63624
 C921 C 0.66292 0.84046 0.59916
 C922 C 0.63300 0.85562 0.57253
 C923 C 0.58994 0.86887 0.58231
 C924 C 0.57698 0.86544 0.61893
 H925 H 0.59575 0.84980 0.67361
 H926 H 0.69613 0.83123 0.59093
 H927 H 0.64443 0.85984 0.54473
 H928 H 0.54461 0.87713 0.62740
 C929 C 1.15847 0.66922 -0.10117
 C930 C 1.14822 0.66488 -0.13881
 C931 C 1.10692 0.64571 -0.14776
 C932 C 1.07816 0.63029 -0.12059
 C933 C 1.08951 0.63266 -0.08348
 C934 C 1.12982 0.65269 -0.07401
 H935 H 1.18947 0.68385 -0.09250
 H936 H 1.09666 0.64187 -0.17591
 H937 H 1.04807 0.61347 -0.12879
 H938 H 1.14041 0.65319 -0.04577
 C939 C 0.66430 1.15754 0.40096
 C940 C 0.65024 1.16006 0.36434
 C941 C 0.60576 1.14991 0.35641
 C942 C 0.57682 1.13564 0.38394
 C943 C 0.59148 1.13093 0.42010
 C944 C 0.63543 1.14251 0.42840
 H945 H 0.69817 1.16550 0.40819
 H946 H 0.59342 1.15223 0.32874
 H947 H 0.54375 1.12505 0.37645
 H948 H 0.64824 1.13720 0.45566
 C949 C 0.89267 0.65334 0.14378
 C950 C 0.84825 0.66430 0.13631
 C951 C 0.83357 0.66163 0.09984
 C952 C 0.86173 0.64566 0.07218
 C953 C 0.90563 0.63338 0.08006
 C954 C 0.92090 0.63821 0.11605
 H955 H 0.90552 0.65574 0.17130
 H956 H 0.79974 0.67018 0.09295
 H957 H 0.84842 0.64033 0.04509
 H958 H 0.95390 0.62714 0.12327
 C959 C 0.39019 1.15302 0.64260
 C960 C 0.34528 1.16187 0.63519
 C961 C 0.33046 1.15806 0.59887
 C962 C 0.35906 1.14268 0.57132
 C963 C 0.40342 1.13219 0.57922
 C964 C 0.41884 1.13853 0.61497
 H965 H 0.40314 1.15654 0.67000
 H966 H 0.29628 1.16518 0.59204
 H967 H 0.34580 1.13624 0.54438
 H968 H 0.45231 1.12894 0.62216
 C969 C 0.89639 0.35015 -0.14663
 C970 C 0.85285 0.33651 -0.13868
 C971 C 0.83904 0.33704 -0.10190
 C972 C 0.86704 0.35335 -0.07430
 C973 C 0.90992 0.36837 -0.08263
 C974 C 0.92443 0.36584 -0.11901
 H975 H 0.90861 0.34962 -0.17441
 H976 H 0.80592 0.32647 -0.09461
 H977 H 0.85418 0.35691 -0.04685
 H978 H 0.95650 0.37908 -0.12652
 C979 C 0.33721 0.83795 0.39905
 C980 C 0.35096 0.83763 0.36227
 C981 C 0.39490 0.84985 0.35434
 C982 C 0.42344 0.86423 0.38206
 C983 C 0.40895 0.86685 0.41842
 C984 C 0.36573 0.85291 0.42672
 H985 H 0.30378 0.82831 0.40628
 H986 H 0.40706 0.84923 0.32654
 H987 H 0.45589 0.87662 0.37464
 H988 H 0.35300 0.85657 0.45421
 C989 C 1.13732 1.15874 0.38445
 C990 C 1.13235 1.15412 0.34687
 C991 C 1.09887 1.12639 0.33276
 C992 C 1.07137 1.10281 0.35626
 C993 C 1.07697 1.10725 0.39391
 C994 C 1.10997 1.13568 0.40766
 H995 H 1.16281 1.17960 0.39609
 H996 H 1.09425 1.12246 0.30363
 H997 H 1.04624 1.08114 0.34512
 H998 H 1.11589 1.13941 0.43665
 C999 C 0.62071 0.60941 -0.16647
 C1000 C 0.63629 0.65099 -0.15509
 C1001 C 0.62211 0.66887 -0.12209
 C1002 C 0.59407 0.64470 -0.09991
 C1003 C 0.58084 0.60187 -0.11004
 C1004 C 0.59313 0.58480 -0.14391
 H1005 H 0.63110 0.59533 -0.19226
 H1006 H 0.63280 0.70132 -0.11344
 H1007 H 0.58426 0.65884 -0.07397
 H1008 H 0.58352 0.55182 -0.15199
 C1009 C 0.89578 1.12140 0.66079
 C1010 C 0.85358 1.13712 0.65089
 C1011 C 0.83081 1.11788 0.62185
 C1012 C 0.85052 1.08415 0.60217
 C1013 C 0.89380 1.07006 0.61060
 C1014 C 0.91593 1.08811 0.64061
 H1015 H 0.91339 1.13539 0.68380
 H1016 H 0.79758 1.12843 0.61476
 H1017 H 0.83267 1.07052 0.57913
 H1018 H 0.94953 1.07831 0.64718
 C1019 C 0.39823 0.62980 0.16301
 C1020 C 0.35527 0.64315 0.15276
 C1021 C 0.33491 0.62437 0.12237
 C1022 C 0.35769 0.59362 0.10170
 C1023 C 0.40160 0.58210 0.11054
 C1024 C 0.42149 0.59948 0.14180
 H1025 H 0.41405 0.64353 0.18699
 H1026 H 0.30127 0.63305 0.11490
 H1027 H 0.34160 0.58017 0.07772
 H1028 H 0.45547 0.59146 0.14867
 C1029 C 1.16257 0.86048 0.61802
 C1030 C 1.15151 0.85924 0.65512
 C1031 C 1.11866 0.88865 0.66846
 C1032 C 1.09722 0.91784 0.64505
 C1033 C 1.10873 0.91871 0.60819
 C1034 C 1.14200 0.89015 0.59511
 H1035 H 1.18766 0.83905 0.60642
 H1036 H 1.10891 0.88896 0.69692
 H1037 H 1.07138 0.93910 0.65564
 H1038 H 1.15164 0.88951 0.56664
 C1039 C 0.66807 0.37041 0.12237
 C1040 C 0.64879 0.35568 0.15472
 C1041 C 0.60693 0.37177 0.16544
 C1042 C 0.58374 0.40083 0.14303
 C1043 C 0.60252 0.41418 0.10998
 C1044 C 0.64536 0.39981 0.10039
 H1045 H 0.70082 0.35950 0.11421
 H1046 H 0.59179 0.36110 0.19074
 H1047 H 0.55061 0.41113 0.15063
 H1048 H 0.66077 0.41015 0.07510
 C1049 C 0.88491 0.82649 0.37618
 C1050 C 0.86671 0.84878 0.34650
 C1051 C 0.88265 0.89069 0.33674
 C1052 C 0.91474 0.91131 0.35790
 C1053 C 0.93134 0.88994 0.38879
 C1054 C 0.91750 0.84671 0.39691
 H1055 H 0.87408 0.79351 0.38318
 H1056 H 0.86934 0.90793 0.31330
 H1057 H 0.92445 0.94476 0.35141
 H1058 H 0.93019 0.82934 0.42052
 C1059 C 0.37689 0.39196 -0.16581
 C1060 C 0.36047 0.35057 -0.15481
 C1061 C 0.37458 0.33195 -0.12207
 C1062 C 0.40354 0.35505 -0.09987
 C1063 C 0.41793 0.39759 -0.10966
 C1064 C 0.40544 0.41552 -0.14320
 H1065 H 0.36654 0.40663 -0.19136
 H1066 H 0.36326 0.29962 -0.11367
 H1067 H 0.41335 0.34022 -0.07423
 H1068 H 0.41585 0.44834 -0.15102
 C1069 C 1.10067 0.34593 -0.14504
 C1070 C 1.14439 0.33319 -0.13674
 C1071 C 1.15845 0.33556 -0.10012
 C1072 C 1.13049 0.35317 -0.07308
 C1073 C 1.08764 0.36774 -0.08197
 C1074 C 1.07276 0.36301 -0.11801
 H1075 H 1.08835 0.34401 -0.17274
 H1076 H 1.19176 0.32578 -0.09265
 H1077 H 1.14336 0.35820 -0.04581
 H1078 H 1.04054 0.37562 -0.12582
 C1079 C 0.65916 0.83616 0.40122
 C1080 C 0.64573 0.83441 0.36441
 C1081 C 0.60183 0.84634 0.35591
 C1082 C 0.57312 0.86208 0.38295
 C1083 C 0.58735 0.86635 0.41922
 C1084 C 0.63040 0.85249 0.42826
 H1085 H 0.69255 0.82691 0.40887
 H1086 H 0.58995 0.84481 0.32806
 H1087 H 0.54077 0.87424 0.37500
 H1088 H 0.64283 0.85725 0.45571
 C1089 C 0.89494 0.65701 -0.14255
 C1090 C 0.84994 0.66651 -0.13616
 C1091 C 0.83331 0.66131 -0.10048
 C1092 C 0.86020 0.64420 -0.07260
 C1093 C 0.90464 0.63325 -0.07945
 C1094 C 0.92194 0.64070 -0.11450
 H1095 H 0.90909 0.66120 -0.16949
 H1096 H 0.79890 0.66852 -0.09449
 H1097 H 0.84557 0.63697 -0.04627
 H1098 H 0.95558 0.63080 -0.12087
 C1099 C 0.39338 1.15420 0.35756
 C1100 C 0.34865 1.16450 0.36438
 C1101 C 0.33266 1.16025 0.40037
 C1102 C 0.35988 1.14333 0.42814
 C1103 C 0.40402 1.13158 0.42084
 C1104 C 0.42068 1.13805 0.38547
 H1105 H 0.40707 1.15766 0.33039
 H1106 H 0.29850 1.16812 0.40672
 H1107 H 0.34568 1.13687 0.45476
 H1108 H 0.45404 1.12754 0.37877
 C1109 C 1.16196 0.66491 0.09865
 C1110 C 1.14589 0.66951 0.13460
 C1111 C 1.10117 0.65925 0.14141
 C1112 C 1.07401 0.64262 0.11357
 C1113 C 1.09081 0.63568 0.07828
 C1114 C 1.13488 0.64760 0.07096
 H1115 H 1.19613 0.67268 0.09230
 H1116 H 1.08742 0.66292 0.16855
 H1117 H 1.04072 0.63198 0.12031
 H1118 H 1.14920 0.64081 0.04443
 C1119 C 0.66197 1.16310 0.59793
 C1120 C 0.64691 1.16745 0.63418
 C1121 C 0.60236 1.15721 0.64177
 C1122 C 0.57442 1.14074 0.61440
 C1123 C 0.59024 1.13395 0.57879
 C1124 C 0.63411 1.14594 0.57068
 H1125 H 0.69598 1.17088 0.59100
 H1126 H 0.58934 1.16074 0.66916
 H1127 H 0.54131 1.13010 0.62173
 H1128 H 0.64769 1.13925 0.54387
 C1129 C 0.90023 0.34939 0.14891
 C1130 C 0.85866 0.33142 0.13984
 C1131 C 0.84653 0.33002 0.10266
 C1132 C 0.87401 0.34859 0.07570
 C1133 C 0.91448 0.36828 0.08524
 C1134 C 0.92760 0.36767 0.12200
 H1135 H 0.91112 0.35069 0.17704
 H1136 H 0.81494 0.31625 0.09451
 H1137 H 0.86231 0.35018 0.04779
 H1138 H 0.95790 0.38404 0.13024
 C1139 C 0.39592 0.85219 0.65110
 C1140 C 0.35567 0.83110 0.64182
 C1141 C 0.34592 0.82662 0.60411
 C1142 C 0.37380 0.84499 0.57721
 C1143 C 0.41261 0.86752 0.58708
 C1144 C 0.42368 0.87000 0.62423
 H1145 H 0.40573 0.85633 0.67934
 H1146 H 0.31575 0.81056 0.59518
 H1147 H 0.36351 0.84407 0.54891
 H1148 H 0.45265 0.88846 0.63269
 C1149 C 0.34722 1.10546 -0.14551
 C1150 C 0.33571 1.14947 -0.13791
 C1151 C 0.33797 1.16393 -0.10137
 C1152 C 0.35395 1.13597 -0.07372
 C1153 C 0.36685 1.09252 -0.08169
 C1154 C 0.36251 1.07744 -0.11778
 H1155 H 0.34525 1.09280 -0.17309
 H1156 H 0.32906 1.19745 -0.09436
 H1157 H 0.35894 1.14917 -0.04656
 H1158 H 0.37410 1.04480 -0.12505
 C1159 C 0.84736 0.60636 0.35521
 C1160 C 0.83641 0.65041 0.36322
 C1161 C 0.83845 0.66425 0.39992
 C1162 C 0.85387 0.63568 0.42733
 C1163 C 0.86639 0.59224 0.41894
 C1164 C 0.86206 0.57772 0.38270
 H1165 H 0.84545 0.59416 0.32748
 H1166 H 0.82987 0.69777 0.40724
 H1167 H 0.85887 0.64840 0.45465
 H1168 H 0.87334 0.54507 0.37513
 C1169 C 0.66481 1.16105 0.10095
 C1170 C 0.66430 1.14849 0.13800
 C1171 C 0.64976 1.10569 0.14668
 C1172 C 0.63403 1.07723 0.11954
 C1173 C 0.63236 1.09053 0.08289
 C1174 C 0.64846 1.13256 0.07376
 H1175 H 0.67621 1.19353 0.09314
 H1176 H 0.64957 1.09435 0.17469
 H1177 H 0.62011 1.04580 0.12756
 H1178 H 0.64569 1.14443 0.04599
 C1179 C 1.16183 0.66416 0.60036
 C1180 C 1.16152 0.65189 0.63746
 C1181 C 1.14812 0.60877 0.64635
 C1182 C 1.13325 0.57968 0.61934
 C1183 C 1.13124 0.59267 0.58264
 C1184 C 1.14626 0.63503 0.57331
 H1185 H 1.17245 0.69684 0.59239
 H1186 H 1.14824 0.59761 0.67441
 H1187 H 1.12018 0.54792 0.62751
 H1188 H 1.14322 0.64661 0.54547
 C1189 C 0.66381 0.84170 -0.10148
 C1190 C 0.66374 0.85421 -0.13853
 C1191 C 0.65045 0.89740 -0.14728
 C1192 C 0.63546 0.92634 -0.12014
 C1193 C 0.63330 0.91309 -0.08348
 C1194 C 0.64826 0.87066 -0.07434
 H1195 H 0.67418 0.80890 -0.09360
 H1196 H 0.65058 0.90863 -0.17532
 H1197 H 0.62230 0.95810 -0.12819
 H1198 H 0.64501 0.85885 -0.04658
 C1199 C 1.16402 0.34175 0.39977
 C1200 C 1.16438 0.35429 0.36275
 C1201 C 1.15209 0.39776 0.35395
 C1202 C 1.13741 0.42693 0.38101
 C1203 C 1.13454 0.41359 0.41759
 C1204 C 1.14875 0.37094 0.42683
 H1205 H 1.17372 0.30875 0.40767
 H1206 H 1.15270 0.40903 0.32593
 H1207 H 1.12489 0.45893 0.37291
 H1208 H 1.14497 0.35912 0.45454
 C1209 C 0.34811 0.89448 0.14288
 C1210 C 0.33839 0.85005 0.13531
 C1211 C 0.34146 0.83552 0.09886
 C1212 C 0.35676 0.86393 0.07128
 C1213 C 0.36794 0.90784 0.07927
 C1214 C 0.36256 0.92293 0.11523
 H1215 H 0.34531 0.90718 0.17041
 H1216 H 0.33378 0.80169 0.09191
 H1217 H 0.36259 0.85084 0.04419
 H1218 H 0.37283 0.95599 0.12250
 C1219 C 0.84363 0.33348 0.59803
 C1220 C 0.84035 0.34778 0.63453
 C1221 C 0.84925 0.39234 0.64226
 C1222 C 0.86315 0.42119 0.61471
 C1223 C 0.86880 0.40633 0.57873
 C1224 C 0.85838 0.36229 0.57056
 H1225 H 0.83655 0.29956 0.59098
 H1226 H 0.84622 0.40487 0.66983
 H1227 H 0.87284 0.45440 0.62209
 H1228 H 0.86445 0.34945 0.54343
 C1229 C 1.11250 1.17076 0.62499
 C1230 C 1.13281 1.14887 0.65398
 C1231 C 1.11863 1.10633 0.66381
 C1232 C 1.08638 1.08480 0.64332
 C1233 C 1.06775 1.10584 0.61303
 C1234 C 1.07976 1.14964 0.60496
 H1235 H 1.12172 1.20422 0.61799
 H1236 H 1.13334 1.08937 0.68681
 H1237 H 1.07813 1.05095 0.64977
 H1238 H 1.06557 1.16677 0.58182
 C1239 C 0.66427 0.63003 0.12154
 C1240 C 0.64544 0.64444 0.15415
 C1241 C 0.60378 0.62837 0.16532
 C1242 C 0.58018 0.59963 0.14303
 C1243 C 0.59839 0.58679 0.10969
 C1244 C 0.64109 0.60098 0.09964
 H1245 H 0.69688 0.64103 0.11311
 H1246 H 0.58903 0.63892 0.19083
 H1247 H 0.54716 0.58931 0.15091
 H1248 H 0.65594 0.59081 0.07405
 C1249 C 1.11404 0.88848 0.33446
 C1250 C 1.15437 0.86910 0.34515
 C1251 C 1.17578 0.88378 0.37665
 C1252 C 1.15605 0.91593 0.39821
 C1253 C 1.11405 0.93305 0.38905
 C1254 C 1.09387 0.92016 0.35636
 H1255 H 1.09740 0.87806 0.30972
 H1256 H 1.20762 0.87035 0.38463
 H1257 H 1.17260 0.92553 0.42320
 H1258 H 1.06138 0.93238 0.34887
 C1259 C 0.63203 0.33682 -0.12238
 C1260 C 0.64744 0.35540 -0.15474
 C1261 C 0.63267 0.39745 -0.16562
 C1262 C 0.60421 0.42154 -0.14329
 C1263 C 0.59032 0.40340 -0.11023
 C1264 C 0.60326 0.36045 -0.10049
 H1265 H 0.64185 0.30393 -0.11417
 H1266 H 0.64386 0.41199 -0.19099
 H1267 H 0.59482 0.45473 -0.15092
 H1268 H 0.59226 0.34567 -0.07514
 C1269 C 0.88983 1.11198 0.33729
 C1270 C 0.84857 1.12951 0.34783
 C1271 C 0.82691 1.11291 0.37854
 C1272 C 0.84711 1.08043 0.39939
 C1273 C 0.88979 1.06495 0.39033
 C1274 C 0.91041 1.07995 0.35847
 H1275 H 0.90675 1.12401 0.31320
 H1276 H 0.79444 1.12498 0.38633
 H1277 H 0.83026 1.06910 0.42375
 H1278 H 0.94343 1.06903 0.35113
 C1279 C 0.36540 0.59829 -0.16225
 C1280 C 0.35202 0.64086 -0.15148
 C1281 C 0.36977 0.66007 -0.12019
 C1282 C 0.39978 0.63668 -0.09933
 C1283 C 0.41160 0.59336 -0.10898
 C1284 C 0.39508 0.57445 -0.14091
 H1285 H 0.35239 0.58333 -0.18685
 H1286 H 0.36101 0.69334 -0.11221
 H1287 H 0.41264 0.65191 -0.07476
 H1288 H 0.40342 0.54088 -0.14831
 C1289 C 0.88133 0.82508 0.62055
 C1290 C 0.86616 0.84670 0.65183
 C1291 C 0.88611 0.88637 0.66288
 C1292 C 0.91924 0.90543 0.64180
 C1293 C 0.93291 0.88495 0.60944
 C1294 C 0.91480 0.84382 0.59970
 H1295 H 0.86749 0.79366 0.61233
 H1296 H 0.87536 0.90317 0.68743
 H1297 H 0.93218 0.93731 0.64973
 H1298 H 0.92486 0.82713 0.57491
 C1299 C 0.33731 0.37216 0.12214
 C1300 C 0.35577 0.35632 0.15438
 C1301 C 0.39836 0.36997 0.16538
 C1302 C 0.42322 0.39767 0.14319
 C1303 C 0.40532 0.41182 0.11015
 C1304 C 0.36177 0.40020 0.10035
 H1305 H 0.30407 0.36300 0.11390
 H1306 H 0.41281 0.35825 0.19063
 H1307 H 0.45686 0.40610 0.15083
 H1308 H 0.34723 0.41153 0.07499
   
