data_POSCAR
  _audit_creation_date              2014-09-24
  _audit_creation_method            'ToBaCCo'
  _symmetry_space_group_name_H-M    'P1'
  _symmetry_Int_Tables_number       1
  _symmetry_cell_setting            triclinic
  loop_
  _symmetry_equiv_pos_as_xyz
 x,y,z
_cell_length_a 75.2097
_cell_length_b 76.3538
_cell_length_c 75.5112
_cell_angle_alpha 89.714200
_cell_angle_beta 90.166500
_cell_angle_gamma 89.780000
loop_
  _atom_site_label
  _atom_site_type_symbol
  _atom_site_fract_x
  _atom_site_fract_y
  _atom_site_fract_z
C1 C 0.19599 0.21275 0.22215
 N2 N 0.19880 0.22371 0.20820
 C3 C 0.21170 0.22019 0.19614
 N4 N 0.22189 0.20558 0.19820
 C5 C 0.21939 0.19463 0.21220
 N6 N 0.20640 0.19828 0.22408
 C7 C 0.69764 0.71766 0.72187
 N8 N 0.70040 0.72881 0.70808
 C9 C 0.71420 0.72625 0.69679
 N10 N 0.72529 0.71238 0.69941
 C11 C 0.72271 0.70114 0.71316
 N12 N 0.70885 0.70386 0.72432
 C13 C 0.30522 0.78727 0.71903
 N14 N 0.30230 0.77599 0.70548
 C15 C 0.28872 0.77877 0.69388
 N16 N 0.27792 0.79290 0.69607
 C17 C 0.28052 0.80423 0.70966
 N18 N 0.29430 0.80133 0.72102
 C19 C 0.80843 0.28789 0.21770
 N20 N 0.80616 0.27704 0.20365
 C21 C 0.79225 0.27925 0.19231
 N22 N 0.78054 0.29254 0.19509
 C23 C 0.78263 0.30355 0.20900
 N24 N 0.79656 0.30112 0.22024
 C25 C 0.80435 0.70742 0.27985
 N26 N 0.79365 0.69332 0.27750
 C27 C 0.77999 0.69009 0.28877
 N28 N 0.77706 0.70117 0.30250
 C29 C 0.78763 0.71534 0.30502
 N30 N 0.80125 0.71836 0.29364
 C31 C 0.30559 0.20918 -0.21914
 N32 N 0.29433 0.19552 -0.22162
 C33 C 0.28033 0.19277 -0.21061
 N34 N 0.27766 0.20397 -0.19692
 C35 C 0.28878 0.21769 -0.19418
 N36 N 0.30270 0.22019 -0.20534
 C37 C 0.69190 0.29347 -0.21722
 N38 N 0.70279 0.30743 -0.21963
 C39 C 0.71690 0.31018 -0.20869
 N40 N 0.71999 0.29869 -0.19518
 C41 C 0.70920 0.28468 -0.19257
 N42 N 0.69520 0.28216 -0.20366
 C43 C 0.19335 0.78945 0.27900
 N44 N 0.19691 0.77781 0.29222
 C45 C 0.21062 0.78052 0.30361
 N46 N 0.22095 0.79493 0.30154
 C47 C 0.21768 0.80668 0.28831
 N48 N 0.20374 0.80387 0.27718
 C49 C 0.45835 0.44155 0.46698
 N50 N 0.44461 0.45285 0.46962
 C51 C 0.44199 0.46675 0.45859
 N52 N 0.45328 0.46928 0.44481
 C53 C 0.46707 0.45811 0.44199
 N54 N 0.46951 0.44428 0.45314
 C55 C -0.04054 -0.05723 0.96550
 N56 N -0.02908 -0.05428 0.95195
 C57 C -0.03151 -0.04048 0.94078
 N58 N -0.04556 -0.02954 0.94328
 C59 C -0.05716 -0.03224 0.95680
 N60 N -0.05452 -0.04616 0.96783
 C61 C 1.03560 0.55073 0.97553
 N62 N 1.02473 0.54852 0.96129
 C63 C 1.02810 0.53589 0.94912
 N64 N 1.04254 0.52535 0.95129
 C65 C 1.05345 0.52723 0.96552
 N66 N 1.04989 0.53992 0.97755
 C67 C 0.53955 0.05464 0.47095
 N68 N 0.55423 0.04434 0.47256
 C69 C 0.55759 0.03140 0.46070
 N70 N 0.54605 0.02898 0.44703
 C71 C 0.53121 0.03908 0.44532
 N72 N 0.52803 0.05186 0.45738
 C73 C -0.03968 0.05560 0.52927
 N74 N -0.05237 0.04364 0.52522
 C75 C -0.05414 0.02870 0.53494
 N76 N -0.04291 0.02582 0.54881
 C77 C -0.03025 0.03772 0.55312
 N78 N -0.02875 0.05260 0.54331
 C79 C 0.46100 0.55587 0.02902
 N80 N 0.44798 0.54409 0.02545
 C81 C 0.44531 0.53011 0.03632
 N82 N 0.45597 0.52783 0.05070
 C83 C 0.46912 0.53941 0.05436
 N84 N 0.47147 0.55347 0.04354
 C85 C 0.54080 -0.05558 0.03273
 N86 N 0.55431 -0.04414 0.02977
 C87 C 0.55725 -0.03053 0.04091
 N88 N 0.54647 -0.02833 0.05513
 C89 C 0.53288 -0.03958 0.05829
 N90 N 0.53016 -0.05316 0.04706
 C91 C 1.03671 0.44806 0.53042
 N92 N 1.02538 0.45093 0.54413
 C93 C 1.02750 0.46496 0.55493
 N94 N 1.04113 0.47621 0.55195
 C95 C 1.05267 0.47347 0.53843
 N96 N 1.05037 0.45938 0.52777
 C97 C 0.40143 0.00721 0.22772
 H98 H 0.40130 0.01947 0.23483
 C99 C 0.41351 0.00465 0.21397
 H100 H 0.42267 0.01502 0.21052
 C101 C 0.38997 -0.02140 0.22395
 H102 H 0.38099 -0.03164 0.22804
 C103 C 0.40198 -0.02459 0.21025
 H104 H 0.40186 -0.03716 0.20367
 N105 N 0.38972 -0.00560 0.23219
 C106 C 0.34577 0.02182 0.25770
 H107 H 0.34435 0.01361 0.26933
 C108 C 0.33406 0.03578 0.25487
 H109 H 0.32352 0.03802 0.26433
 C110 C 0.36085 0.02822 0.23097
 H111 H 0.37111 0.02510 0.22152
 C112 C 0.34960 0.04249 0.22774
 H113 H 0.35174 0.05042 0.21603
 Zn114 Zn 0.37381 -0.00106 0.25107
 N115 N 0.35892 0.01838 0.24590
 C116 C 0.38707 0.01925 0.27964
 N117 N 0.38783 0.00349 0.27134
 C118 C 0.39930 -0.00925 0.27679
 C119 C 0.41040 -0.00654 0.29135
 C120 C 0.39806 0.02258 0.29418
 C121 C 0.34808 -0.02582 0.24168
 C122 C 0.33643 -0.03982 0.24409
 C123 C 0.34637 -0.04213 0.27445
 C124 C 0.35797 -0.02822 0.27140
 N125 N 0.35875 -0.02049 0.25516
 H126 H 0.37811 0.02933 0.27490
 H127 H 0.39984 -0.02154 0.26973
 H128 H 0.41954 -0.01679 0.29543
 H129 H 0.39724 0.03516 0.30071
 H130 H 0.34872 -0.01923 0.22898
 H131 H 0.32843 -0.04412 0.23301
 H132 H 0.34575 -0.04785 0.28758
 H133 H 0.36610 -0.02341 0.28213
 C134 C 0.33596 0.04648 0.23979
 C135 C 0.41383 -0.01141 0.20501
 C136 C 0.33544 -0.04821 0.26067
 C137 C 0.40989 0.00957 0.30022
 C138 C 0.09766 -0.00751 0.72702
 H139 H 0.09551 -0.01800 0.73644
 C140 C 0.08567 -0.00504 0.71307
 H141 H 0.07440 -0.01374 0.71193
 C142 C 0.11424 0.01721 0.71791
 H143 H 0.12511 0.02612 0.71992
 C144 C 0.10269 0.02005 0.70367
 H145 H 0.10525 0.03085 0.69470
 N146 N 0.11176 0.00340 0.72909
 C147 C 0.15931 -0.01997 0.74803
 H148 H 0.16485 -0.00812 0.75346
 C149 C 0.17043 -0.03432 0.74511
 H150 H 0.18449 -0.03315 0.74795
 C151 C 0.13436 -0.03589 0.73786
 H152 H 0.12027 -0.03653 0.73523
 C153 C 0.14500 -0.05060 0.73478
 H154 H 0.13891 -0.06245 0.72988
 Zn155 Zn 0.12706 -0.00100 0.74874
 N156 N 0.14163 -0.02091 0.74431
 C157 C 0.11360 -0.02069 0.77771
 N158 N 0.11241 -0.00533 0.76858
 C159 C 0.10030 0.00716 0.77301
 C160 C 0.08892 0.00456 0.78734
 C161 C 0.10225 -0.02397 0.79195
 C162 C 0.15345 0.02392 0.74041
 C163 C 0.16455 0.03826 0.74320
 C164 C 0.15262 0.04086 0.77274
 C165 C 0.14153 0.02664 0.76928
 N166 N 0.14196 0.01861 0.75323
 H167 H 0.12329 -0.03045 0.77393
 H168 H 0.09953 0.01918 0.76539
 H169 H 0.07932 0.01460 0.79071
 H170 H 0.10332 -0.03624 0.79913
 H171 H 0.15404 0.01694 0.72799
 H172 H 0.17355 0.04237 0.73283
 H173 H 0.15204 0.04720 0.78552
 H174 H 0.13273 0.02197 0.77952
 C175 C 0.16332 -0.04993 0.73842
 C176 C 0.08816 0.00883 0.70106
 C177 C 0.16418 0.04690 0.75953
 C178 C 0.08978 -0.01121 0.79693
 C179 C 0.59839 0.48956 0.22541
 H180 H 0.59704 0.47784 0.23340
 C181 C 0.58668 0.49268 0.21138
 H182 H 0.57620 0.48334 0.20886
 C183 C 0.61326 0.51628 0.21972
 H184 H 0.62341 0.52562 0.22317
 C185 C 0.60200 0.51980 0.20539
 H186 H 0.60404 0.53163 0.19772
 N187 N 0.61142 0.50124 0.22926
 C188 C 0.65119 0.46989 0.25719
 H189 H 0.65137 0.47639 0.26989
 C190 C 0.66218 0.45542 0.25430
 H191 H 0.67085 0.45081 0.26482
 C192 C 0.63997 0.46828 0.22788
 H193 H 0.63142 0.47346 0.21757
 C194 C 0.65095 0.45393 0.22432
 H195 H 0.65060 0.44799 0.21133
 Zn196 Zn 0.62611 0.49582 0.24895
 N197 N 0.64021 0.47586 0.24414
 C198 C 0.61004 0.47547 0.27620
 N199 N 0.61081 0.49152 0.26836
 C200 C 0.59998 0.50481 0.27360
 C201 C 0.58821 0.50241 0.28765
 C202 C 0.59836 0.47245 0.29022
 C203 C 0.65362 0.51928 0.24129
 C204 C 0.66536 0.53311 0.24419
 C205 C 0.65338 0.53614 0.27367
 C206 C 0.64176 0.52237 0.27013
 N207 N 0.64184 0.51447 0.25403
 H208 H 0.61827 0.46488 0.27145
 H209 H 0.60062 0.51735 0.26691
 H210 H 0.58007 0.51333 0.29189
 H211 H 0.59779 0.45951 0.29609
 H212 H 0.65370 0.51251 0.22874
 H213 H 0.67417 0.53709 0.23362
 H214 H 0.65318 0.54213 0.28663
 H215 H 0.63281 0.51794 0.28035
 C216 C 0.66216 0.44730 0.23767
 C217 C 0.58843 0.50793 0.20103
 C218 C 0.66527 0.54185 0.26053
 C219 C 0.58729 0.48605 0.29620
 C220 C 0.90194 0.50869 0.72959
 H221 H 0.90382 0.51961 0.73847
 C222 C 0.91371 0.50611 0.71557
 H223 H 0.92474 0.51503 0.71394
 C224 C 0.88566 0.48346 0.72154
 H225 H 0.87489 0.47449 0.72399
 C226 C 0.89696 0.48052 0.70721
 H227 H 0.89435 0.46953 0.69860
 N228 N 0.88812 0.49755 0.73221
 C229 C 0.84521 0.52569 0.75828
 H230 H 0.84276 0.51688 0.76927
 C231 C 0.83420 0.54022 0.75559
 H232 H 0.82313 0.54229 0.76447
 C233 C 0.86226 0.53309 0.73302
 H234 H 0.87313 0.53022 0.72419
 C235 C 0.85173 0.54792 0.72998
 H236 H 0.85494 0.55645 0.71897
 Zn237 Zn 0.87291 0.50223 0.75164
 N238 N 0.85893 0.52242 0.74709
 C239 C 0.88700 0.52138 0.78056
 N240 N 0.88756 0.50594 0.77168
 C241 C 0.89914 0.49302 0.77641
 C242 C 0.91055 0.49523 0.79084
 C243 C 0.89827 0.52420 0.79499
 C244 C 0.84531 0.47891 0.74302
 C245 C 0.83357 0.46501 0.74560
 C246 C 0.84563 0.46109 0.77503
 C247 C 0.85730 0.47489 0.77178
 N248 N 0.85717 0.48331 0.75587
 H249 H 0.87796 0.53163 0.77635
 H250 H 0.89944 0.48095 0.76898
 H251 H 0.91939 0.48461 0.79459
 H252 H 0.89781 0.53670 0.80167
 H253 H 0.84513 0.48612 0.73065
 H254 H 0.82471 0.46139 0.73493
 H255 H 0.84584 0.45479 0.78790
 H256 H 0.86632 0.47897 0.78211
 C257 C 0.83742 0.55166 0.74131
 C258 C 0.91123 0.49195 0.70401
 C259 C 0.83366 0.45579 0.76178
 C260 C 0.91025 0.51101 0.80035
 C261 C 0.22890 0.40126 0.00732
 H262 H 0.23778 0.40266 0.01852
 C263 C 0.21473 0.41291 0.00503
 H264 H 0.21298 0.42339 0.01448
 C265 C 0.22105 0.38627 -0.01893
 H266 H 0.22365 0.37604 -0.02839
 C267 C 0.20657 0.39749 -0.02161
 H268 H 0.19799 0.39538 -0.03292
 N269 N 0.23174 0.38819 -0.00452
 C270 C 0.25994 0.34659 0.02382
 H271 H 0.27188 0.34548 0.01594
 C272 C 0.25737 0.33539 0.03826
 H273 H 0.26740 0.32565 0.04144
 C274 C 0.23210 0.36029 0.02888
 H275 H 0.22220 0.36989 0.02508
 C276 C 0.22890 0.34923 0.04330
 H277 H 0.21665 0.35062 0.05066
 Zn278 Zn 0.25158 0.37332 -0.00046
 N279 N 0.24750 0.35889 0.01957
 C280 C 0.28239 0.38593 0.01747
 N281 N 0.27161 0.38787 0.00310
 C282 C 0.27444 0.40078 -0.00901
 C283 C 0.28860 0.41237 -0.00696
 C284 C 0.29688 0.39706 0.01990
 C285 C 0.24274 0.34637 -0.02392
 C286 C 0.24505 0.33489 -0.03807
 C287 C 0.27376 0.34788 -0.04352
 C288 C 0.27081 0.35924 -0.02938
 N289 N 0.25542 0.35840 -0.02003
 H290 H 0.27982 0.37578 0.02712
 H291 H 0.26551 0.40218 -0.02019
 H292 H 0.29027 0.42280 -0.01656
 H293 H 0.30549 0.39497 0.03122
 H294 H 0.23075 0.34578 -0.01606
 H295 H 0.23455 0.32574 -0.04119
 H296 H 0.28625 0.34859 -0.05058
 H297 H 0.28094 0.36858 -0.02579
 C298 C 0.24167 0.33664 0.04818
 C299 C 0.20323 0.41108 -0.00955
 C300 C 0.26075 0.33552 -0.04811
 C301 C 0.30012 0.41060 0.00765
 C302 C 0.72494 0.10047 -0.01020
 H303 H 0.73123 0.10109 -0.02305
 C304 C 0.71068 0.08915 -0.00741
 H305 H 0.70589 0.08134 -0.01834
 C306 C 0.72358 0.11010 0.01954
 H307 H 0.72892 0.11797 0.03013
 C308 C 0.70937 0.09886 0.02295
 H309 H 0.70393 0.09826 0.03620
 N310 N 0.73094 0.11082 0.00312
 C311 C 0.75956 0.15045 -0.02715
 H312 H 0.77251 0.14943 -0.02095
 C313 C 0.75690 0.16208 -0.04123
 H314 H 0.76786 0.17003 -0.04584
 C315 C 0.72940 0.14164 -0.02834
 H316 H 0.71865 0.13386 -0.02309
 C317 C 0.72608 0.15329 -0.04230
 H318 H 0.71285 0.15414 -0.04793
 Zn319 Zn 0.75077 0.12522 -0.00179
 N320 N 0.74598 0.14031 -0.02120
 C321 C 0.77715 0.10919 -0.02341
 N322 N 0.77003 0.11004 -0.00689
 C323 C 0.77588 0.09934 0.00635
 C324 C 0.78985 0.08763 0.00343
 C325 C 0.79102 0.09753 -0.02697
 C326 C 0.74304 0.15054 0.02360
 C327 C 0.74613 0.16185 0.03773
 C328 C 0.77639 0.15121 0.03920
 C329 C 0.77266 0.13999 0.02513
 N330 N 0.75614 0.13971 0.01777
 H331 H 0.77189 0.11732 -0.03395
 H332 H 0.76975 0.10004 0.01928
 H333 H 0.79459 0.07962 0.01435
 H334 H 0.79627 0.09687 -0.04028
 H335 H 0.73010 0.15027 0.01731
 H336 H 0.73535 0.17002 0.04241
 H337 H 0.78971 0.15142 0.04467
 H338 H 0.78310 0.13176 0.01991
 C339 C 0.73998 0.16360 -0.04897
 C340 C 0.70269 0.08819 0.00937
 C341 C 0.76301 0.16232 0.04574
 C342 C 0.79764 0.08658 -0.01343
 C343 C 0.22404 0.60052 0.49032
 H344 H 0.23069 0.60072 0.47763
 C345 C 0.20962 0.58940 0.49304
 H346 H 0.20506 0.58130 0.48223
 C347 C 0.22192 0.61107 0.51969
 H348 H 0.22700 0.61924 0.53016
 C349 C 0.20751 0.60005 0.52303
 H350 H 0.20166 0.59992 0.53611
 N351 N 0.22973 0.61125 0.50346
 C352 C 0.25858 0.65056 0.47301
 H353 H 0.27140 0.64990 0.47952
 C354 C 0.25607 0.66177 0.45855
 H355 H 0.26701 0.66978 0.45398
 C356 C 0.22861 0.64121 0.47133
 H357 H 0.21788 0.63338 0.47652
 C358 C 0.22544 0.65243 0.45699
 H359 H 0.21234 0.65289 0.45102
 Zn360 Zn 0.24962 0.62557 0.49860
 N361 N 0.24505 0.64032 0.47888
 C362 C 0.27658 0.60958 0.47768
 N363 N 0.26897 0.61033 0.49399
 C364 C 0.27440 0.59954 0.50733
 C365 C 0.28842 0.58780 0.50473
 C366 C 0.29055 0.59794 0.47446
 C367 C 0.24156 0.65140 0.52334
 C368 C 0.24434 0.66272 0.53752
 C369 C 0.27433 0.65156 0.54014
 C370 C 0.27093 0.64035 0.52597
 N371 N 0.25467 0.64031 0.51805
 H372 H 0.27165 0.61778 0.46705
 H373 H 0.26790 0.60017 0.52007
 H374 H 0.29281 0.57966 0.51569
 H375 H 0.29623 0.59738 0.46132
 H376 H 0.22884 0.65130 0.51661
 H377 H 0.23353 0.67108 0.54180
 H378 H 0.28743 0.65154 0.54611
 H379 H 0.28138 0.63188 0.52120
 C380 C 0.23932 0.66277 0.45036
 C381 C 0.20112 0.58906 0.50959
 C382 C 0.26090 0.66289 0.54617
 C383 C 0.29673 0.58689 0.48811
 C384 C 0.73140 0.90435 0.50207
 H385 H 0.74117 0.90644 0.51239
 C386 C 0.71775 0.91652 0.49944
 H387 H 0.71734 0.92807 0.50768
 C388 C 0.72076 0.88709 0.47836
 H389 H 0.72205 0.87575 0.47000
 C390 C 0.70670 0.89876 0.47548
 H391 H 0.69713 0.89588 0.46518
 N392 N 0.73263 0.88992 0.49166
 C393 C 0.75859 0.84724 0.52004
 H394 H 0.76915 0.84425 0.51083
 C395 C 0.75603 0.83664 0.53492
 H396 H 0.76458 0.82536 0.53686
 C397 C 0.73422 0.86523 0.52810
 H398 H 0.72570 0.87634 0.52533
 C399 C 0.73132 0.85512 0.54328
 H400 H 0.72073 0.85882 0.55219
 Zn401 Zn 0.75193 0.87444 0.49614
 N402 N 0.74774 0.86119 0.51691
 C403 C 0.78167 0.88795 0.51466
 N404 N 0.77250 0.88832 0.49912
 C405 C 0.77723 0.89928 0.48571
 C406 C 0.79195 0.91021 0.48750
 C407 C 0.79635 0.89883 0.51710
 C408 C 0.74196 0.84677 0.47373
 C409 C 0.74376 0.83481 0.45991
 C410 C 0.77298 0.84645 0.45410
 C411 C 0.77055 0.85828 0.46792
 N412 N 0.75509 0.85847 0.47721
 H413 H 0.77745 0.87944 0.52530
 H414 H 0.76954 0.89947 0.47358
 H415 H 0.79567 0.91852 0.47648
 H416 H 0.80316 0.89861 0.52975
 H417 H 0.72999 0.84683 0.48165
 H418 H 0.73290 0.82599 0.45705
 H419 H 0.78549 0.84644 0.44704
 H420 H 0.78115 0.86716 0.47128
 C421 C 0.74226 0.84053 0.54686
 C422 C 0.70502 0.91378 0.48607
 C423 C 0.75941 0.83461 0.44978
 C424 C 0.80171 0.91017 0.50341
 C425 C 0.00863 0.22882 0.40590
 H426 H 0.02086 0.23615 0.40694
 C427 C 0.00563 0.21471 0.41732
 H428 H 0.01588 0.21101 0.42672
 C429 C -0.01954 0.22491 0.39246
 H430 H -0.02951 0.22911 0.38302
 C431 C -0.02316 0.21080 0.40370
 H432 H -0.03592 0.20436 0.40273
 N433 N -0.00376 0.23349 0.39357
 C434 C 0.02331 0.25941 0.34975
 H435 H 0.01363 0.26955 0.34693
 C436 C 0.03763 0.25694 0.33829
 H437 H 0.03875 0.26527 0.32671
 C438 C 0.03280 0.23555 0.36758
 H439 H 0.03081 0.22698 0.37877
 C440 C 0.04743 0.23275 0.35660
 H441 H 0.05668 0.22233 0.35987
 Zn442 Zn 0.00088 0.25303 0.37852
 N443 N 0.02120 0.24887 0.36417
 C444 C 0.01126 0.28807 0.38557
 N445 N 0.00450 0.27316 0.39279
 C446 C -0.00007 0.27241 0.41020
 C447 C 0.00235 0.28689 0.42112
 C448 C 0.01385 0.30291 0.39602
 C449 C -0.02252 0.24423 0.35108
 C450 C -0.03665 0.24649 0.33926
 C451 C -0.04209 0.27503 0.35188
 C452 C -0.02806 0.27210 0.36370
 N453 N -0.01862 0.25688 0.36309
 H454 H 0.01456 0.28853 0.37168
 H455 H -0.00576 0.26061 0.41567
 H456 H -0.00110 0.28585 0.43499
 H457 H 0.01904 0.31470 0.38997
 H458 H -0.01465 0.23235 0.35077
 H459 H -0.03963 0.23630 0.32978
 H460 H -0.04954 0.28718 0.35251
 H461 H -0.02469 0.28200 0.37330
 C462 C 0.05002 0.24350 0.34166
 C463 C -0.01045 0.20545 0.41630
 C464 C -0.04656 0.26208 0.33955
 C465 C 0.00940 0.30243 0.41408
 C466 C -0.00173 0.72863 0.09115
 H467 H -0.00716 0.74029 0.08501
 C468 C 0.00085 0.71367 0.08092
 H469 H -0.00220 0.71419 0.06691
 C470 C 0.00866 0.71375 0.11678
 H471 H 0.01146 0.71376 0.13080
 C472 C 0.01141 0.69847 0.10704
 H473 H 0.01624 0.68683 0.11376
 N474 N 0.00224 0.72847 0.10874
 C475 C -0.02627 0.75780 0.14903
 H476 H -0.01847 0.76966 0.14968
 C477 C -0.04063 0.75546 0.16046
 H478 H -0.04395 0.76576 0.16968
 C479 C -0.03149 0.73018 0.13587
 H480 H -0.02785 0.72035 0.12628
 C481 C -0.04583 0.72720 0.14718
 H482 H -0.05288 0.71491 0.14631
 Zn483 Zn -0.00209 0.74895 0.12229
 N484 N -0.02204 0.74528 0.13701
 C485 C -0.02231 0.77681 0.10717
 N486 N -0.00650 0.76812 0.10664
 C487 C 0.00618 0.77254 0.09462
 C488 C 0.00346 0.78653 0.08295
 C489 C -0.02566 0.79079 0.09562
 C490 C 0.01959 0.74345 0.15201
 C491 C 0.03363 0.74623 0.16379
 C492 C 0.04354 0.77004 0.14520
 C493 C 0.02920 0.76693 0.13388
 N494 N 0.01770 0.75361 0.13727
 H495 H -0.03246 0.77284 0.11641
 H496 H 0.01846 0.76514 0.09409
 H497 H 0.01397 0.79006 0.07385
 H498 H -0.03844 0.79734 0.09614
 H499 H 0.00997 0.73333 0.15481
 H500 H 0.03463 0.73816 0.17558
 H501 H 0.05275 0.78042 0.14193
 H502 H 0.02737 0.77521 0.12243
 C503 C -0.05060 0.73993 0.15971
 C504 C 0.00746 0.69828 0.08885
 C505 C 0.04595 0.75962 0.16041
 C506 C -0.01263 0.79593 0.08336
 C507 C 0.49197 0.22510 0.59737
 H508 H 0.48013 0.23309 0.59597
 C509 C 0.49466 0.21087 0.58615
 H510 H 0.48488 0.20821 0.57598
 C511 C 0.51937 0.21954 0.61190
 H512 H 0.52912 0.22308 0.62174
 C513 C 0.52247 0.20501 0.60115
 H514 H 0.53442 0.19733 0.60327
 N515 N 0.50419 0.22909 0.61000
 C516 C 0.47380 0.25738 0.64973
 H517 H 0.48045 0.26991 0.64941
 C518 C 0.45953 0.25472 0.66119
 H519 H 0.45509 0.26547 0.66938
 C520 C 0.47149 0.22832 0.63913
 H521 H 0.47641 0.21798 0.63072
 C522 C 0.45732 0.22502 0.65057
 H523 H 0.45154 0.21206 0.65084
 Zn524 Zn 0.49918 0.24883 0.62427
 N525 N 0.47934 0.24433 0.63886
 C526 C 0.47810 0.27558 0.60828
 N527 N 0.49444 0.26789 0.60878
 C528 C 0.50763 0.27313 0.59771
 C529 C 0.50486 0.28708 0.58598
 C530 C 0.47471 0.28948 0.59665
 C531 C 0.52345 0.24151 0.65150
 C532 C 0.53746 0.24457 0.66324
 C533 C 0.54042 0.27364 0.65082
 C534 C 0.52649 0.26994 0.63917
 N535 N 0.51849 0.25398 0.63954
 H536 H 0.46758 0.27084 0.61671
 H537 H 0.52040 0.26657 0.59815
 H538 H 0.51572 0.29135 0.57765
 H539 H 0.46155 0.29526 0.59633
 H540 H 0.51652 0.22912 0.65188
 H541 H 0.54129 0.23447 0.67263
 H542 H 0.54677 0.28633 0.65024
 H543 H 0.52199 0.27991 0.63000
 C544 C 0.45110 0.23833 0.66180
 C545 C 0.51003 0.20048 0.58802
 C546 C 0.54614 0.26080 0.66295
 C547 C 0.48823 0.29551 0.58538
 C548 C 0.50895 0.72874 0.90455
 H549 H 0.52094 0.73643 0.90571
 C550 C 0.50629 0.71440 0.91576
 H551 H 0.51630 0.71110 0.92558
 C552 C 0.48111 0.72399 0.89063
 H553 H 0.47126 0.72785 0.88092
 C554 C 0.47782 0.70967 0.90171
 H555 H 0.46554 0.70245 0.90023
 N556 N 0.49657 0.73307 0.89210
 C557 C 0.52412 0.76073 0.84975
 H558 H 0.51534 0.77190 0.84823
 C559 C 0.53839 0.75852 0.83819
 H560 H 0.54029 0.76798 0.82765
 C561 C 0.53161 0.73448 0.86490
 H562 H 0.52883 0.72500 0.87515
 C563 C 0.54620 0.73189 0.85381
 H564 H 0.55467 0.72061 0.85604
 Zn565 Zn 0.50093 0.75273 0.87739
 N566 N 0.52103 0.74883 0.86282
 C567 C 0.52066 0.78092 0.89167
 N568 N 0.50495 0.77219 0.89231
 C569 C 0.49215 0.77664 0.90416
 C570 C 0.49465 0.79075 0.91558
 C571 C 0.52383 0.79495 0.90303
 C572 C 0.47848 0.74492 0.84907
 C573 C 0.46440 0.74711 0.83715
 C574 C 0.45619 0.77365 0.85240
 C575 C 0.47058 0.77109 0.86386
 N576 N 0.48124 0.75677 0.86216
 H577 H 0.53088 0.77688 0.88251
 H578 H 0.47991 0.76926 0.90464
 H579 H 0.48404 0.79433 0.92452
 H580 H 0.53659 0.80144 0.90249
 H581 H 0.48732 0.73379 0.84784
 H582 H 0.46272 0.73766 0.82665
 H583 H 0.44762 0.78489 0.85435
 H584 H 0.47313 0.78055 0.87411
 C585 C 0.54975 0.74396 0.84015
 C586 C 0.49056 0.70466 0.91439
 C587 C 0.45292 0.76158 0.83877
 C588 C 0.51070 0.80014 0.91515
 C589 C 0.15328 0.22276 0.25860
 C590 C 0.15960 0.23618 0.24754
 C591 C 0.17350 0.23297 0.23571
 C592 C 0.18152 0.21633 0.23491
 C593 C 0.17536 0.20300 0.24621
 C594 C 0.16131 0.20615 0.25785
 C595 C 0.13820 0.22596 0.27075
 C596 C 0.12406 0.21406 0.27165
 C597 C 0.10979 0.21703 0.28306
 C598 C 0.10945 0.23187 0.29403
 C599 C 0.12368 0.24376 0.29312
 C600 C 0.13784 0.24089 0.28152
 C601 C 0.09432 0.23489 0.30635
 C602 C 0.08806 0.25194 0.30969
 C603 C 0.07383 0.25474 0.32122
 C604 C 0.06534 0.24055 0.32957
 C605 C 0.07158 0.22351 0.32620
 C606 C 0.08594 0.22073 0.31484
 H607 H 0.15355 0.24907 0.24780
 H608 H 0.17796 0.24353 0.22721
 H609 H 0.18122 0.19002 0.24590
 H610 H 0.15678 0.19562 0.26635
 H611 H 0.12391 0.20257 0.26329
 H612 H 0.09891 0.20779 0.28309
 H613 H 0.12405 0.25515 0.30158
 H614 H 0.14870 0.25017 0.28119
 H615 H 0.09401 0.26315 0.30324
 H616 H 0.06958 0.26806 0.32367
 H617 H 0.06525 0.21223 0.33216
 H618 H 0.09054 0.20744 0.31282
 C619 C 0.65363 0.72575 0.75719
 C620 C 0.66161 0.70917 0.75578
 C621 C 0.67603 0.70659 0.74444
 C622 C 0.68253 0.72047 0.73405
 C623 C 0.67443 0.73703 0.73538
 C624 C 0.66022 0.73968 0.74697
 C625 C 0.63843 0.72849 0.76928
 C626 C 0.63839 0.74253 0.78119
 C627 C 0.62413 0.74499 0.79276
 C628 C 0.60944 0.73362 0.79246
 C629 C 0.60948 0.71966 0.78034
 C630 C 0.62388 0.71705 0.76899
 C631 C 0.59417 0.73628 0.80471
 C632 C 0.58487 0.72188 0.81169
 C633 C 0.57045 0.72437 0.82304
 C634 C 0.56508 0.74132 0.82797
 C635 C 0.57448 0.75572 0.82111
 C636 C 0.58874 0.75324 0.80955
 H637 H 0.65681 0.69826 0.76362
 H638 H 0.68195 0.69366 0.74366
 H639 H 0.67918 0.74799 0.72760
 H640 H 0.65419 0.75256 0.74777
 H641 H 0.64957 0.75142 0.78177
 H642 H 0.62478 0.75566 0.80211
 H643 H 0.59828 0.71086 0.77943
 H644 H 0.62354 0.70624 0.75976
 H645 H 0.58880 0.70861 0.80852
 H646 H 0.56340 0.71295 0.82779
 H647 H 0.57095 0.76896 0.82479
 H648 H 0.59537 0.76468 0.80427
 C649 C 0.34918 0.77910 0.75474
 C650 C 0.34246 0.76513 0.74476
 C651 C 0.32824 0.76778 0.73307
 C652 C 0.32026 0.78440 0.73140
 C653 C 0.32688 0.79831 0.74158
 C654 C 0.34129 0.79571 0.75302
 C655 C 0.36443 0.77639 0.76690
 C656 C 0.37897 0.78784 0.76649
 C657 C 0.39338 0.78530 0.77795
 C658 C 0.39345 0.77142 0.79028
 C659 C 0.37879 0.76001 0.79068
 C660 C 0.36450 0.76240 0.77901
 C661 C 0.40871 0.76888 0.80269
 C662 C 0.41422 0.75197 0.80780
 C663 C 0.42843 0.74962 0.81955
 C664 C 0.43770 0.76410 0.82632
 C665 C 0.43227 0.78100 0.82110
 C666 C 0.41789 0.78337 0.80956
 H667 H 0.34841 0.75222 0.74581
 H668 H 0.32340 0.75680 0.72545
 H669 H 0.32106 0.81127 0.74054
 H670 H 0.34618 0.80665 0.76069
 H671 H 0.37929 0.79860 0.75710
 H672 H 0.40457 0.79413 0.77696
 H673 H 0.37817 0.74939 0.80020
 H674 H 0.35333 0.75351 0.77969
 H675 H 0.40767 0.74048 0.80261
 H676 H 0.43203 0.73641 0.82344
 H677 H 0.43921 0.79248 0.82579
 H678 H 0.41389 0.79660 0.80617
 C679 C -0.14835 0.28046 0.25333
 C680 C -0.14979 0.27031 0.23790
 C681 C -0.16407 0.27266 0.22623
 C682 C -0.17719 0.28545 0.22948
 C683 C -0.17561 0.29572 0.24485
 C684 C -0.16150 0.29315 0.25666
 C685 C -0.13325 0.27779 0.26591
 C686 C -0.12596 0.29201 0.27519
 C687 C -0.11200 0.28947 0.28719
 C688 C -0.10473 0.27268 0.29005
 C689 C -0.11190 0.25850 0.28064
 C690 C -0.12605 0.26100 0.26884
 C691 C -0.08979 0.26998 0.30281
 C692 C -0.08853 0.25448 0.31292
 C693 C -0.07444 0.25188 0.32475
 C694 C -0.06145 0.26483 0.32698
 C695 C -0.06272 0.28038 0.31707
 C696 C -0.07664 0.28288 0.30501
 H697 H -0.13975 0.26065 0.23468
 H698 H -0.16463 0.26452 0.21453
 H699 H -0.18543 0.30564 0.24800
 H700 H -0.16107 0.30098 0.26856
 H701 H -0.13093 0.30518 0.27310
 H702 H -0.10704 0.30068 0.29436
 H703 H -0.10650 0.24543 0.28224
 H704 H -0.13145 0.24968 0.26217
 H705 H -0.09857 0.24442 0.31191
 H706 H -0.07383 0.23986 0.33241
 H707 H -0.05273 0.29047 0.31843
 H708 H -0.07692 0.29481 0.29723
 C709 C -0.15252 0.71749 0.24390
 C710 C -0.16609 0.70577 0.23929
 C711 C -0.18003 0.70240 0.25100
 C712 C -0.18080 0.71086 0.26748
 C713 C -0.16726 0.72268 0.27202
 C714 C -0.15320 0.72586 0.26040
 C715 C -0.13767 0.72094 0.23154
 C716 C -0.12003 0.72086 0.23766
 C717 C -0.10600 0.72400 0.22599
 C718 C -0.10931 0.72749 0.20796
 C719 C -0.12702 0.72768 0.20191
 C720 C -0.14103 0.72433 0.21355
 C721 C -0.09435 0.73086 0.19554
 C722 C -0.09504 0.72478 0.17800
 C723 C -0.08097 0.72787 0.16636
 C724 C -0.06575 0.73695 0.17200
 C725 C -0.06507 0.74302 0.18954
 C726 C -0.07922 0.74010 0.20112
 H727 H -0.16579 0.69905 0.22669
 H728 H -0.19028 0.69326 0.24709
 H729 H -0.16743 0.72938 0.28462
 H730 H -0.14296 0.73505 0.26420
 H731 H -0.11708 0.71807 0.25144
 H732 H -0.09253 0.72340 0.23107
 H733 H -0.13011 0.73065 0.18821
 H734 H -0.15454 0.72468 0.20856
 H735 H -0.10636 0.71742 0.17328
 H736 H -0.08209 0.72322 0.15289
 H737 H -0.05349 0.74985 0.19444
 H738 H -0.07832 0.74520 0.21444
 C739 C 0.34875 0.21744 0.74586
 C740 C 0.34662 0.22802 0.76085
 C741 C 0.33234 0.22539 0.77235
 C742 C 0.31997 0.21190 0.76927
 C743 C 0.32231 0.20122 0.75426
 C744 C 0.33645 0.20406 0.74265
 C745 C 0.36375 0.22038 0.73357
 C746 C 0.36081 0.22116 0.71522
 C747 C 0.37494 0.22408 0.70362
 C748 C 0.39238 0.22602 0.71009
 C749 C 0.39528 0.22508 0.72850
 C750 C 0.38110 0.22241 0.74011
 C751 C 0.40746 0.22910 0.69773
 C752 C 0.42159 0.24012 0.70254
 C753 C 0.43576 0.24299 0.69097
 C754 C 0.43607 0.23511 0.67418
 C755 C 0.42191 0.22414 0.66934
 C756 C 0.40784 0.22110 0.68100
 H757 H 0.35589 0.23852 0.76352
 H758 H 0.33112 0.23393 0.78370
 H759 H 0.31317 0.19069 0.75133
 H760 H 0.33791 0.19565 0.73124
 H761 H 0.34750 0.21984 0.70989
 H762 H 0.37213 0.22507 0.68958
 H763 H 0.40855 0.22616 0.73396
 H764 H 0.38372 0.22164 0.75420
 H765 H 0.42165 0.24672 0.71519
 H766 H 0.44655 0.25129 0.69530
 H767 H 0.42156 0.21802 0.65645
 H768 H 0.39734 0.21233 0.67693
 C769 C 0.64789 0.28442 0.74734
 C770 C 0.64899 0.27562 0.76372
 C771 C 0.66326 0.27855 0.77520
 C772 C 0.67669 0.29050 0.77067
 C773 C 0.67551 0.29946 0.75441
 C774 C 0.66133 0.29639 0.74284
 C775 C 0.63285 0.28103 0.73498
 C776 C 0.62550 0.29465 0.72467
 C777 C 0.61149 0.29141 0.71295
 C778 C 0.60436 0.27449 0.71134
 C779 C 0.61164 0.26090 0.72173
 C780 C 0.62576 0.26410 0.73332
 C781 C 0.58943 0.27102 0.69888
 C782 C 0.58861 0.25517 0.68950
 C783 C 0.57452 0.25183 0.67791
 C784 C 0.56103 0.26434 0.67529
 C785 C 0.56186 0.28023 0.68454
 C786 C 0.57584 0.28350 0.69627
 H787 H 0.63872 0.26658 0.76779
 H788 H 0.66369 0.27154 0.78769
 H789 H 0.68570 0.30867 0.75047
 H790 H 0.66108 0.30318 0.73023
 H791 H 0.63047 0.30790 0.72576
 H792 H 0.60639 0.30216 0.70501
 H793 H 0.60634 0.24776 0.72103
 H794 H 0.63123 0.25324 0.74084
 H795 H 0.59900 0.24540 0.69089
 H796 H 0.57431 0.23957 0.67076
 H797 H 0.55150 0.29000 0.68291
 H798 H 0.57585 0.29570 0.70351
 C799 C 0.14948 0.78069 0.24341
 C800 C 0.15604 0.76702 0.25411
 C801 C 0.17022 0.76989 0.26573
 C802 C 0.17828 0.78645 0.26673
 C803 C 0.17177 0.80009 0.25591
 C804 C 0.15744 0.79726 0.24446
 C805 C 0.13434 0.77767 0.23123
 C806 C 0.12012 0.78960 0.23039
 C807 C 0.10574 0.78665 0.21904
 C808 C 0.10536 0.77179 0.20810
 C809 C 0.11971 0.75992 0.20889
 C810 C 0.13398 0.76278 0.22040
 C811 C 0.09010 0.76868 0.19593
 C812 C 0.08394 0.75160 0.19280
 C813 C 0.06970 0.74867 0.18127
 C814 C 0.06112 0.76275 0.17270
 C815 C 0.06719 0.77984 0.17593
 C816 C 0.08155 0.78276 0.18732
 H817 H 0.15004 0.75416 0.25366
 H818 H 0.17494 0.75909 0.27385
 H819 H 0.17765 0.81300 0.25638
 H820 H 0.15270 0.80798 0.23624
 H821 H 0.11997 0.80107 0.23878
 H822 H 0.09479 0.79590 0.21905
 H823 H 0.12006 0.74853 0.20042
 H824 H 0.14489 0.75349 0.22064
 H825 H 0.09001 0.74045 0.19939
 H826 H 0.06555 0.73531 0.17895
 H827 H 0.06076 0.79104 0.16978
 H828 H 0.08605 0.79607 0.18921
 C829 C 0.25355 0.14985 0.21965
 C830 C 0.24389 0.15673 0.23391
 C831 C 0.23257 0.17109 0.23141
 C832 C 0.23092 0.17905 0.21466
 C833 C 0.24061 0.17215 0.20039
 C834 C 0.25170 0.15759 0.20283
 C835 C 0.26567 0.13477 0.22239
 C836 C 0.26499 0.12025 0.21109
 C837 C 0.27629 0.10590 0.21388
 C838 C 0.28873 0.10590 0.22786
 C839 C 0.28949 0.12062 0.23899
 C840 C 0.27800 0.13481 0.23637
 C841 C 0.30079 0.09064 0.23087
 C842 C 0.30577 0.08563 0.24814
 C843 C 0.31723 0.07144 0.25100
 C844 C 0.32382 0.06167 0.23669
 C845 C 0.31871 0.06658 0.21942
 C846 C 0.30746 0.08094 0.21654
 H847 H 0.24501 0.15089 0.24697
 H848 H 0.22533 0.17613 0.24268
 H849 H 0.23958 0.17797 0.18731
 H850 H 0.25910 0.15255 0.19166
 H851 H 0.25546 0.11986 0.20032
 H852 H 0.27505 0.09471 0.20524
 H853 H 0.29913 0.12130 0.24963
 H854 H 0.27892 0.14598 0.24511
 H855 H 0.30071 0.09257 0.25954
 H856 H 0.32105 0.06827 0.26447
 H857 H 0.32327 0.05925 0.20806
 H858 H 0.30414 0.08452 0.20304
 C859 C 0.75776 0.65712 0.72120
 C860 C 0.75675 0.66544 0.70460
 C861 C 0.74551 0.67986 0.70203
 C862 C 0.73482 0.68604 0.71593
 C863 C 0.73577 0.67761 0.73250
 C864 C 0.74724 0.66338 0.73514
 C865 C 0.76969 0.64188 0.72396
 C866 C 0.78111 0.64116 0.73867
 C867 C 0.79233 0.62674 0.74132
 C868 C 0.79216 0.61257 0.72947
 C869 C 0.78063 0.61334 0.71476
 C870 C 0.76962 0.62789 0.71197
 C871 C 0.80386 0.59703 0.73249
 C872 C 0.81131 0.58794 0.71814
 C873 C 0.82209 0.57323 0.72098
 C874 C 0.82591 0.56734 0.73826
 C875 C 0.81860 0.57654 0.75261
 C876 C 0.80763 0.59110 0.74977
 H877 H 0.76483 0.66090 0.69368
 H878 H 0.74504 0.68604 0.68910
 H879 H 0.72775 0.68209 0.74348
 H880 H 0.74770 0.65709 0.74803
 H881 H 0.78154 0.65190 0.74798
 H882 H 0.80127 0.62682 0.75258
 H883 H 0.77984 0.60256 0.70554
 H884 H 0.76077 0.62807 0.70063
 H885 H 0.80895 0.59224 0.70466
 H886 H 0.82724 0.56636 0.70958
 H887 H 0.82145 0.57260 0.76612
 H888 H 0.80194 0.59757 0.76115
 C889 C 0.75103 0.35349 0.78292
 C890 C 0.75493 0.34104 0.79611
 C891 C 0.74359 0.32686 0.79903
 C892 C 0.72819 0.32463 0.78860
 C893 C 0.72440 0.33717 0.77533
 C894 C 0.73562 0.35149 0.77264
 C895 C 0.76306 0.36849 0.77982
 C896 C 0.75624 0.38557 0.77834
 C897 C 0.76762 0.39973 0.77550
 C898 C 0.78608 0.39709 0.77381
 C899 C 0.79282 0.37991 0.77514
 C900 C 0.78145 0.36579 0.77825
 C901 C 0.79823 0.41216 0.77071
 C902 C 0.81538 0.41230 0.77818
 C903 C 0.82685 0.42634 0.77519
 C904 C 0.82142 0.44078 0.76484
 C905 C 0.80423 0.44071 0.75746
 C906 C 0.79283 0.42654 0.76026
 H907 H 0.76669 0.34240 0.80430
 H908 H 0.74707 0.31759 0.80939
 H909 H 0.71272 0.33605 0.76699
 H910 H 0.73240 0.36087 0.76230
 H911 H 0.74211 0.38799 0.77970
 H912 H 0.76197 0.41278 0.77490
 H913 H 0.80688 0.37729 0.77354
 H914 H 0.78700 0.35270 0.77912
 H915 H 0.81994 0.40161 0.78652
 H916 H 0.84007 0.42577 0.78087
 H917 H 0.79945 0.45167 0.74962
 H918 H 0.77984 0.42682 0.75407
 C919 C 0.25155 -0.14963 0.28088
 C920 C 0.23630 -0.15164 0.27035
 C921 C 0.22508 -0.16600 0.27281
 C922 C 0.22874 -0.17862 0.28604
 C923 C 0.24391 -0.17632 0.29679
 C924 C 0.25522 -0.16207 0.29414
 C925 C 0.26375 -0.13472 0.27791
 C926 C 0.28219 -0.13751 0.27715
 C927 C 0.29374 -0.12351 0.27424
 C928 C 0.28713 -0.10635 0.27223
 C929 C 0.26863 -0.10360 0.27306
 C930 C 0.25707 -0.11765 0.27576
 C931 C 0.29947 -0.09142 0.26929
 C932 C 0.29470 -0.07744 0.25802
 C933 C 0.30629 -0.06342 0.25529
 C934 C 0.32304 -0.06309 0.26362
 C935 C 0.32783 -0.07711 0.27483
 C936 C 0.31617 -0.09103 0.27770
 H937 H 0.23325 -0.14227 0.25995
 H938 H 0.21357 -0.16717 0.26425
 H939 H 0.24727 -0.18562 0.30716
 H940 H 0.26681 -0.16071 0.30256
 H941 H 0.28766 -0.15059 0.27852
 H942 H 0.30785 -0.12619 0.27332
 H943 H 0.26308 -0.09054 0.27189
 H944 H 0.24291 -0.11514 0.27648
 H945 H 0.28206 -0.07739 0.25113
 H946 H 0.30203 -0.05276 0.24678
 H947 H 0.34070 -0.07744 0.28129
 H948 H 0.32021 -0.10142 0.28666
 C949 C 0.24545 -0.15285 0.71741
 C950 C 0.25973 -0.15583 0.72906
 C951 C 0.27139 -0.16986 0.72642
 C952 C 0.26902 -0.18137 0.71207
 C953 C 0.25473 -0.17822 0.70033
 C954 C 0.24314 -0.16413 0.70296
 C955 C 0.23296 -0.13807 0.72040
 C956 C 0.22701 -0.12763 0.70618
 C957 C 0.21543 -0.11357 0.70909
 C958 C 0.20950 -0.10968 0.72627
 C959 C 0.21532 -0.12025 0.74046
 C960 C 0.22694 -0.13426 0.73756
 C961 C 0.19748 -0.09452 0.72945
 C962 C 0.19984 -0.08390 0.74441
 C963 C 0.18870 -0.06954 0.74736
 C964 C 0.17494 -0.06541 0.73539
 C965 C 0.17251 -0.07607 0.72046
 C966 C 0.18366 -0.09046 0.71752
 H967 H 0.26199 -0.14720 0.74017
 H968 H 0.28221 -0.17167 0.73576
 H969 H 0.25236 -0.18669 0.68911
 H970 H 0.23214 -0.16223 0.69385
 H971 H 0.23159 -0.13013 0.69285
 H972 H 0.21141 -0.10553 0.69792
 H973 H 0.21075 -0.11781 0.75381
 H974 H 0.23106 -0.14226 0.74874
 H975 H 0.21049 -0.08653 0.75375
 H976 H 0.19079 -0.06174 0.75911
 H977 H 0.16216 -0.07315 0.71090
 H978 H 0.18136 -0.09850 0.70597
 C979 C 0.74588 0.34610 0.21700
 C980 C 0.74118 0.33187 0.20628
 C981 C 0.75314 0.31809 0.20360
 C982 C 0.76993 0.31813 0.21183
 C983 C 0.77453 0.33231 0.22271
 C984 C 0.76268 0.34621 0.22516
 C985 C 0.73332 0.36083 0.21965
 C986 C 0.73911 0.37821 0.21782
 C987 C 0.72728 0.39213 0.22034
 C988 C 0.70952 0.38892 0.22500
 C989 C 0.70374 0.37154 0.22691
 C990 C 0.71551 0.35761 0.22411
 C991 C 0.69711 0.40369 0.22805
 C992 C 0.68642 0.40405 0.24326
 C993 C 0.67507 0.41823 0.24639
 C994 C 0.67399 0.43217 0.23422
 C995 C 0.68448 0.43169 0.21887
 C996 C 0.69604 0.41764 0.21588
 H997 H 0.72833 0.33156 0.19976
 H998 H 0.74918 0.30733 0.19518
 H999 H 0.78738 0.33276 0.22919
 H1000 H 0.76654 0.35699 0.23359
 H1001 H 0.75275 0.38101 0.21427
 H1002 H 0.73206 0.40542 0.21891
 H1003 H 0.69009 0.36875 0.23040
 H1004 H 0.71077 0.34432 0.22570
 H1005 H 0.68710 0.39350 0.25289
 H1006 H 0.66703 0.41827 0.25827
 H1007 H 0.68397 0.44234 0.20936
 H1008 H 0.70408 0.41760 0.20400
 C1009 C 0.74612 0.64544 0.28085
 C1010 C 0.74119 0.65874 0.29266
 C1011 C 0.75224 0.67317 0.29534
 C1012 C 0.76837 0.67469 0.28609
 C1013 C 0.77325 0.66139 0.27423
 C1014 C 0.76228 0.64687 0.27171
 C1015 C 0.73437 0.63017 0.27800
 C1016 C 0.74142 0.61313 0.27767
 C1017 C 0.73032 0.59873 0.27505
 C1018 C 0.71192 0.60108 0.27253
 C1019 C 0.70492 0.61819 0.27276
 C1020 C 0.71600 0.63256 0.27555
 C1021 C 0.70007 0.58578 0.26963
 C1022 C 0.68284 0.58550 0.27680
 C1023 C 0.67161 0.57128 0.27386
 C1024 C 0.67735 0.55688 0.26381
 C1025 C 0.69464 0.55709 0.25678
 C1026 C 0.70584 0.57138 0.25960
 H1027 H 0.72886 0.65788 0.29999
 H1028 H 0.74806 0.68318 0.30456
 H1029 H 0.78560 0.66214 0.26692
 H1030 H 0.76632 0.63687 0.26241
 H1031 H 0.75551 0.61092 0.27974
 H1032 H 0.73612 0.58573 0.27527
 H1033 H 0.69088 0.62053 0.27051
 H1034 H 0.71026 0.64559 0.27550
 H1035 H 0.67804 0.59624 0.28481
 H1036 H 0.65830 0.57169 0.27928
 H1037 H 0.69961 0.54614 0.24918
 H1038 H 0.71894 0.57123 0.25370
 C1039 C 0.24556 0.14992 0.78092
 C1040 C 0.24200 0.16226 0.79422
 C1041 C 0.25351 0.17629 0.79713
 C1042 C 0.26879 0.17855 0.78663
 C1043 C 0.27226 0.16620 0.77325
 C1044 C 0.26089 0.15205 0.77054
 C1045 C 0.23335 0.13491 0.77785
 C1046 C 0.23039 0.12857 0.76064
 C1047 C 0.21916 0.11433 0.75776
 C1048 C 0.21035 0.10620 0.77198
 C1049 C 0.21316 0.11265 0.78917
 C1050 C 0.22459 0.12674 0.79208
 C1051 C 0.19836 0.09103 0.76888
 C1052 C 0.19730 0.07726 0.78130
 C1053 C 0.18607 0.06302 0.77834
 C1054 C 0.17587 0.06209 0.76279
 C1055 C 0.17692 0.07574 0.75033
 C1056 C 0.18793 0.09011 0.75340
 H1057 H 0.23016 0.16125 0.80227
 H1058 H 0.25022 0.18548 0.80751
 H1059 H 0.28391 0.16729 0.76491
 H1060 H 0.26429 0.14263 0.76042
 H1061 H 0.23666 0.13468 0.74931
 H1062 H 0.21756 0.10959 0.74437
 H1063 H 0.20642 0.10691 0.80043
 H1064 H 0.22671 0.13108 0.80554
 H1065 H 0.20537 0.07732 0.79319
 H1066 H 0.18562 0.05255 0.78806
 H1067 H 0.16900 0.07540 0.73834
 H1068 H 0.18808 0.10061 0.74371
 C1069 C 0.22047 0.25508 0.15197
 C1070 C 0.22806 0.23821 0.15225
 C1071 C 0.22525 0.22693 0.16659
 C1072 C 0.21465 0.23216 0.18093
 C1073 C 0.20696 0.24897 0.18062
 C1074 C 0.20990 0.26031 0.16635
 C1075 C 0.22359 0.26714 0.13675
 C1076 C 0.21000 0.27834 0.13060
 C1077 C 0.21295 0.28969 0.11634
 C1078 C 0.22952 0.29004 0.10777
 C1079 C 0.24309 0.27881 0.11389
 C1080 C 0.24019 0.26756 0.12824
 C1081 C 0.23263 0.30204 0.09250
 C1082 C 0.24920 0.31023 0.09020
 C1083 C 0.25215 0.32139 0.07579
 C1084 C 0.23856 0.32476 0.06344
 C1085 C 0.22197 0.31669 0.06574
 C1086 C 0.21906 0.30539 0.08005
 H1087 H 0.23600 0.23361 0.14127
 H1088 H 0.23126 0.21402 0.16634
 H1089 H 0.19883 0.25346 0.19151
 H1090 H 0.20410 0.27330 0.16673
 H1091 H 0.19699 0.27822 0.13668
 H1092 H 0.20227 0.29831 0.11215
 H1093 H 0.25594 0.27855 0.10747
 H1094 H 0.25103 0.25930 0.13276
 H1095 H 0.25984 0.30822 0.09969
 H1096 H 0.26499 0.32762 0.07445
 H1097 H 0.21134 0.31887 0.05627
 H1098 H 0.20626 0.29907 0.08120
 C1099 C 0.72239 0.76141 0.65286
 C1100 C 0.70584 0.76071 0.66138
 C1101 C 0.70323 0.74943 0.67576
 C1102 C 0.71705 0.73840 0.68172
 C1103 C 0.73358 0.73905 0.67311
 C1104 C 0.73626 0.75054 0.65890
 C1105 C 0.72516 0.77335 0.63761
 C1106 C 0.74023 0.78411 0.63685
 C1107 C 0.74286 0.79535 0.62244
 C1108 C 0.73060 0.79589 0.60832
 C1109 C 0.71553 0.78504 0.60913
 C1110 C 0.71279 0.77399 0.62368
 C1111 C 0.73359 0.80758 0.59276
 C1112 C 0.71919 0.81562 0.58395
 C1113 C 0.72199 0.82627 0.56911
 C1114 C 0.73928 0.82936 0.56280
 C1115 C 0.75369 0.82151 0.57176
 C1116 C 0.75088 0.81068 0.58645
 H1117 H 0.69499 0.76905 0.65702
 H1118 H 0.69033 0.74920 0.68208
 H1119 H 0.74450 0.73077 0.67741
 H1120 H 0.74911 0.75076 0.65246
 H1121 H 0.74985 0.78399 0.64756
 H1122 H 0.75442 0.80375 0.62248
 H1123 H 0.70599 0.78481 0.59838
 H1124 H 0.70116 0.76567 0.62387
 H1125 H 0.70571 0.81378 0.58856
 H1126 H 0.71053 0.83187 0.56245
 H1127 H 0.76722 0.82378 0.56750
 H1128 H 0.76229 0.80454 0.59270
 C1129 C 0.77784 0.75054 0.34832
 C1130 C 0.78937 0.75532 0.33454
 C1131 C 0.79264 0.74385 0.32055
 C1132 C 0.78429 0.72742 0.31995
 C1133 C 0.77270 0.72268 0.33373
 C1134 C 0.76959 0.73409 0.34782
 C1135 C 0.77448 0.76272 0.36317
 C1136 C 0.77480 0.75666 0.38076
 C1137 C 0.77205 0.76824 0.39477
 C1138 C 0.76875 0.78612 0.39150
 C1139 C 0.76818 0.79208 0.37384
 C1140 C 0.77110 0.78053 0.35985
 C1141 C 0.76617 0.79855 0.40640
 C1142 C 0.77298 0.81564 0.40541
 C1143 C 0.77067 0.82732 0.41939
 C1144 C 0.76163 0.82218 0.43483
 C1145 C 0.75482 0.80507 0.43584
 C1146 C 0.75701 0.79342 0.42178
 H1147 H 0.79603 0.76787 0.33469
 H1148 H 0.80162 0.74792 0.31015
 H1149 H 0.76608 0.71011 0.33370
 H1150 H 0.76054 0.73015 0.35823
 H1151 H 0.77758 0.74302 0.38368
 H1152 H 0.77289 0.76324 0.40819
 H1153 H 0.76530 0.80567 0.37080
 H1154 H 0.77052 0.78548 0.34640
 H1155 H 0.78033 0.81998 0.39389
 H1156 H 0.77587 0.84046 0.41803
 H1157 H 0.74797 0.80059 0.44759
 H1158 H 0.75140 0.78043 0.42291
 C1159 C 0.28011 0.25285 -0.15063
 C1160 C 0.27151 0.23657 -0.15115
 C1161 C 0.27422 0.22520 -0.16535
 C1162 C 0.28577 0.22979 -0.17921
 C1163 C 0.29445 0.24606 -0.17861
 C1164 C 0.29156 0.25751 -0.16452
 C1165 C 0.27719 0.26493 -0.13562
 C1166 C 0.27387 0.28279 -0.13871
 C1167 C 0.27107 0.29419 -0.12456
 C1168 C 0.27174 0.28802 -0.10698
 C1169 C 0.27514 0.27012 -0.10394
 C1170 C 0.27773 0.25869 -0.11811
 C1171 C 0.26891 0.30019 -0.09189
 C1172 C 0.25983 0.29464 -0.07662
 C1173 C 0.25727 0.30604 -0.06243
 C1174 C 0.26356 0.32335 -0.06319
 C1175 C 0.27257 0.32892 -0.07849
 C1176 C 0.27529 0.31747 -0.09262
 H1177 H 0.26251 0.23273 -0.14066
 H1178 H 0.26736 0.21275 -0.16539
 H1179 H 0.30340 0.25001 -0.18908
 H1180 H 0.29846 0.26993 -0.16435
 H1181 H 0.27316 0.28788 -0.15211
 H1182 H 0.26814 0.30781 -0.12743
 H1183 H 0.27609 0.26496 -0.09059
 H1184 H 0.28049 0.24501 -0.11537
 H1185 H 0.25452 0.28151 -0.07568
 H1186 H 0.25050 0.30119 -0.05077
 H1187 H 0.27740 0.34221 -0.07967
 H1188 H 0.28256 0.32214 -0.10405
 C1189 C 0.71900 0.24853 -0.14968
 C1190 C 0.70782 0.24388 -0.16380
 C1191 C 0.70458 0.25565 -0.17767
 C1192 C 0.71265 0.27224 -0.17783
 C1193 C 0.72396 0.27681 -0.16375
 C1194 C 0.72700 0.26511 -0.14975
 C1195 C 0.72224 0.23609 -0.13489
 C1196 C 0.72106 0.24171 -0.11724
 C1197 C 0.72382 0.22989 -0.10329
 C1198 C 0.72806 0.21230 -0.10673
 C1199 C 0.72940 0.20673 -0.12438
 C1200 C 0.72639 0.21848 -0.13833
 C1201 C 0.73107 0.19980 -0.09196
 C1202 C 0.74584 0.18848 -0.09208
 C1203 C 0.74876 0.17678 -0.07808
 C1204 C 0.73684 0.17599 -0.06382
 C1205 C 0.72198 0.18719 -0.06377
 C1206 C 0.71919 0.19908 -0.07765
 H1207 H 0.70138 0.23122 -0.16397
 H1208 H 0.69583 0.25171 -0.18833
 H1209 H 0.73035 0.28949 -0.16346
 H1210 H 0.73578 0.26894 -0.13906
 H1211 H 0.71776 0.25519 -0.11426
 H1212 H 0.72284 0.23453 -0.08980
 H1213 H 0.73253 0.19321 -0.12737
 H1214 H 0.72748 0.21386 -0.15182
 H1215 H 0.75524 0.18887 -0.10291
 H1216 H 0.76026 0.16820 -0.07847
 H1217 H 0.71267 0.18692 -0.05286
 H1218 H 0.70764 0.20758 -0.07732
 C1219 C 0.21997 0.74467 0.34684
 C1220 C 0.20939 0.73969 0.33238
 C1221 C 0.20637 0.75131 0.31832
 C1222 C 0.21408 0.76806 0.31833
 C1223 C 0.22489 0.77291 0.33269
 C1224 C 0.22771 0.76137 0.34686
 C1225 C 0.22278 0.73254 0.36197
 C1226 C 0.22089 0.73852 0.37943
 C1227 C 0.22338 0.72707 0.39372
 C1228 C 0.22803 0.70948 0.39083
 C1229 C 0.23004 0.70353 0.37338
 C1230 C 0.22731 0.71492 0.35907
 C1231 C 0.23084 0.69741 0.40600
 C1232 C 0.24583 0.68640 0.40663
 C1233 C 0.24862 0.67520 0.42108
 C1234 C 0.23635 0.67464 0.43505
 C1235 C 0.22126 0.68552 0.43434
 C1236 C 0.21859 0.69689 0.42001
 H1237 H 0.20318 0.72692 0.33212
 H1238 H 0.19801 0.74716 0.30743
 H1239 H 0.23100 0.78572 0.33313
 H1240 H 0.23605 0.76545 0.35779
 H1241 H 0.21728 0.75201 0.38200
 H1242 H 0.22188 0.73200 0.40706
 H1243 H 0.23351 0.69000 0.37081
 H1244 H 0.22894 0.71004 0.34573
 H1245 H 0.25552 0.68665 0.39605
 H1246 H 0.26029 0.66685 0.42126
 H1247 H 0.21167 0.68541 0.44501
 H1248 H 0.20687 0.70517 0.41977
 C1249 C 0.28069 0.74380 0.65000
 C1250 C 0.29243 0.73927 0.66380
 C1251 C 0.29504 0.75060 0.67805
 C1252 C 0.28584 0.76664 0.67888
 C1253 C 0.27397 0.77107 0.66514
 C1254 C 0.27149 0.75981 0.65082
 C1255 C 0.27810 0.73190 0.63476
 C1256 C 0.27771 0.73857 0.61739
 C1257 C 0.27522 0.72740 0.60301
 C1258 C 0.27291 0.70931 0.60567
 C1259 C 0.27331 0.70266 0.62307
 C1260 C 0.27595 0.71382 0.63745
 C1261 C 0.26998 0.69745 0.59036
 C1262 C 0.27747 0.68055 0.59017
 C1263 C 0.27455 0.66937 0.57586
 C1264 C 0.26414 0.67484 0.56134
 C1265 C 0.25675 0.69178 0.56149
 C1266 C 0.25958 0.70292 0.57584
 H1267 H 0.29981 0.72706 0.66342
 H1268 H 0.30426 0.74676 0.68841
 H1269 H 0.26667 0.78332 0.66534
 H1270 H 0.26222 0.76354 0.64046
 H1271 H 0.27959 0.75243 0.61492
 H1272 H 0.27532 0.73292 0.58978
 H1273 H 0.27128 0.68885 0.62563
 H1274 H 0.27598 0.70837 0.65071
 H1275 H 0.28573 0.67599 0.60103
 H1276 H 0.28028 0.65635 0.57629
 H1277 H 0.24887 0.69652 0.55043
 H1278 H 0.25342 0.71576 0.57563
 C1279 C 0.78503 0.24436 0.14822
 C1280 C 0.79737 0.24034 0.16165
 C1281 C 0.79982 0.25171 0.17589
 C1282 C 0.78984 0.26727 0.17711
 C1283 C 0.77745 0.27125 0.16367
 C1284 C 0.77514 0.25996 0.14935
 C1285 C 0.78238 0.23230 0.13312
 C1286 C 0.78110 0.23885 0.11575
 C1287 C 0.77836 0.22752 0.10154
 C1288 C 0.77668 0.20938 0.10438
 C1289 C 0.77803 0.20285 0.12179
 C1290 C 0.78092 0.21418 0.13599
 C1291 C 0.77334 0.19736 0.08929
 C1292 C 0.78115 0.18060 0.08887
 C1293 C 0.77781 0.16926 0.07478
 C1294 C 0.76666 0.17441 0.06070
 C1295 C 0.75895 0.19122 0.06107
 C1296 C 0.76219 0.20251 0.07520
 H1297 H 0.80527 0.22847 0.16102
 H1298 H 0.80945 0.24824 0.18601
 H1299 H 0.76956 0.28312 0.16417
 H1300 H 0.76542 0.26329 0.13927
 H1301 H 0.78243 0.25274 0.11315
 H1302 H 0.77774 0.23297 0.08829
 H1303 H 0.77649 0.18900 0.12451
 H1304 H 0.78163 0.20880 0.14927
 H1305 H 0.78998 0.17628 0.09938
 H1306 H 0.78381 0.15635 0.07505
 H1307 H 0.75050 0.19573 0.05034
 H1308 H 0.75576 0.21522 0.07519
 C1309 C 0.46672 0.39773 0.50221
 C1310 C 0.47605 0.39891 0.48617
 C1311 C 0.47337 0.41315 0.47477
 C1312 C 0.46116 0.42645 0.47908
 C1313 C 0.45174 0.42519 0.49509
 C1314 C 0.45455 0.41102 0.50657
 C1315 C 0.46972 0.38271 0.51439
 C1316 C 0.47174 0.38544 0.53266
 C1317 C 0.47476 0.37130 0.54412
 C1318 C 0.47567 0.35410 0.53759
 C1319 C 0.47354 0.35141 0.51929
 C1320 C 0.47067 0.36556 0.50782
 C1321 C 0.47884 0.33905 0.54980
 C1322 C 0.48956 0.32486 0.54461
 C1323 C 0.49254 0.31073 0.55609
 C1324 C 0.48497 0.31049 0.57309
 C1325 C 0.47428 0.32470 0.57829
 C1326 C 0.47120 0.33877 0.56677
 H1327 H 0.48563 0.38892 0.48257
 H1328 H 0.48084 0.41369 0.46254
 H1329 H 0.44225 0.43520 0.49883
 H1330 H 0.44706 0.41035 0.51878
 H1331 H 0.47131 0.39855 0.53804
 H1332 H 0.47666 0.37390 0.55808
 H1333 H 0.47383 0.33832 0.51384
 H1334 H 0.46892 0.36308 0.49381
 H1335 H 0.49584 0.32474 0.53173
 H1336 H 0.50066 0.29992 0.55155
 H1337 H 0.46842 0.32506 0.59136
 H1338 H 0.46269 0.34936 0.57112
 C1339 C -0.03256 0.89878 0.00068
 C1340 C -0.02350 0.89977 -0.01557
 C1341 C -0.02603 0.91408 -0.02693
 C1342 C -0.03782 0.92765 -0.02241
 C1343 C -0.04697 0.92663 -0.00624
 C1344 C -0.04430 0.91241 0.00520
 C1345 C -0.02974 0.88360 0.01283
 C1346 C -0.04391 0.87678 0.02282
 C1347 C -0.04122 0.86258 0.03428
 C1348 C -0.02436 0.85475 0.03587
 C1349 C -0.01021 0.86147 0.02587
 C1350 C -0.01284 0.87579 0.01456
 C1351 C -0.02152 0.83965 0.04795
 C1352 C -0.01187 0.82493 0.04231
 C1353 C -0.00913 0.81070 0.05372
 C1354 C -0.01581 0.81095 0.07110
 C1355 C -0.02545 0.82574 0.07671
 C1356 C -0.02836 0.83988 0.06523
 H1357 H -0.01462 0.88938 -0.01965
 H1358 H -0.01888 0.91439 -0.03935
 H1359 H -0.05606 0.93692 -0.00231
 H1360 H -0.05126 0.91224 0.01773
 H1361 H -0.05716 0.88224 0.02159
 H1362 H -0.05240 0.85750 0.04169
 H1363 H 0.00297 0.85582 0.02704
 H1364 H -0.00155 0.88090 0.00736
 H1365 H -0.00666 0.82434 0.02897
 H1366 H -0.00195 0.79942 0.04881
 H1367 H -0.03051 0.82654 0.09009
 H1368 H -0.03566 0.85117 0.06997
 C1369 C 0.02633 0.59198 0.01182
 C1370 C 0.01458 0.58913 -0.00235
 C1371 C 0.01752 0.57545 -0.01422
 C1372 C 0.03230 0.56418 -0.01219
 C1373 C 0.04387 0.56693 0.00225
 C1374 C 0.04094 0.58068 0.01405
 C1375 C 0.02354 0.60693 0.02400
 C1376 C 0.03796 0.61729 0.02939
 C1377 C 0.03529 0.63172 0.04038
 C1378 C 0.01813 0.63610 0.04629
 C1379 C 0.00375 0.62558 0.04109
 C1380 C 0.00641 0.61118 0.03004
 C1381 C 0.01522 0.65179 0.05750
 C1382 C 0.00032 0.66263 0.05473
 C1383 C -0.00225 0.67761 0.06497
 C1384 C 0.01005 0.68215 0.07821
 C1385 C 0.02489 0.67124 0.08110
 C1386 C 0.02744 0.65623 0.07086
 H1387 H 0.00330 0.59775 -0.00451
 H1388 H 0.00824 0.57387 -0.02509
 H1389 H 0.05535 0.55858 0.00443
 H1390 H 0.05009 0.58243 0.02499
 H1391 H 0.05127 0.61448 0.02474
 H1392 H 0.04661 0.63971 0.04390
 H1393 H -0.00959 0.62841 0.04566
 H1394 H -0.00491 0.60328 0.02632
 H1395 H -0.00924 0.65971 0.04442
 H1396 H -0.01395 0.68559 0.06258
 H1397 H 0.03469 0.67445 0.09108
 H1398 H 0.03895 0.64805 0.07347
 C1399 C 0.53051 0.09703 0.50716
 C1400 C 0.51632 0.08997 0.49745
 C1401 C 0.51923 0.07618 0.48568
 C1402 C 0.53634 0.06900 0.48366
 C1403 C 0.55046 0.07588 0.49365
 C1404 C 0.54759 0.08987 0.50516
 C1405 C 0.52756 0.11202 0.51916
 C1406 C 0.53852 0.12681 0.51817
 C1407 C 0.53563 0.14109 0.52932
 C1408 C 0.52188 0.14077 0.54193
 C1409 C 0.51103 0.12581 0.54297
 C1410 C 0.51374 0.11166 0.53160
 C1411 C 0.51886 0.15597 0.55387
 C1412 C 0.50157 0.16068 0.55912
 C1413 C 0.49874 0.17495 0.57029
 C1414 C 0.51309 0.18510 0.57631
 C1415 C 0.53038 0.18043 0.57100
 C1416 C 0.53323 0.16600 0.56005
 H1417 H 0.50304 0.09536 0.49872
 H1418 H 0.50809 0.07112 0.47821
 H1419 H 0.56380 0.07067 0.49233
 H1420 H 0.55871 0.09505 0.51261
 H1421 H 0.54912 0.12745 0.50852
 H1422 H 0.54402 0.15248 0.52783
 H1423 H 0.50055 0.12490 0.55272
 H1424 H 0.50523 0.10030 0.53271
 H1425 H 0.49013 0.15347 0.55444
 H1426 H 0.48526 0.17793 0.57430
 H1427 H 0.54176 0.18804 0.57512
 H1428 H 0.54676 0.16264 0.55656
 C1429 C -0.03263 0.10167 0.49684
 C1430 C -0.04354 0.08788 0.49111
 C1431 C -0.04604 0.07306 0.50174
 C1432 C -0.03757 0.07160 0.51830
 C1433 C -0.02678 0.08543 0.52411
 C1434 C -0.02440 0.10031 0.51354
 C1435 C -0.02963 0.11726 0.48534
 C1436 C -0.01285 0.12531 0.48471
 C1437 C -0.00994 0.13980 0.47374
 C1438 C -0.02370 0.14649 0.46304
 C1439 C -0.04047 0.13850 0.46364
 C1440 C -0.04344 0.12410 0.47473
 C1441 C -0.02049 0.16166 0.45116
 C1442 C -0.02666 0.16151 0.43359
 C1443 C -0.02337 0.17568 0.42229
 C1444 C -0.01398 0.19038 0.42835
 C1445 C -0.00795 0.19055 0.44601
 C1446 C -0.01109 0.17631 0.45725
 H1447 H -0.04986 0.08835 0.47821
 H1448 H -0.05436 0.06261 0.49681
 H1449 H -0.02018 0.08479 0.53686
 H1450 H -0.01619 0.11082 0.51853
 H1451 H -0.00183 0.12020 0.49243
 H1452 H 0.00318 0.14557 0.47335
 H1453 H -0.05137 0.14354 0.45568
 H1454 H -0.05660 0.11843 0.47511
 H1455 H -0.03373 0.15027 0.42849
 H1456 H -0.02794 0.17496 0.40870
 H1457 H -0.00098 0.20178 0.45123
 H1458 H -0.00640 0.17685 0.47081
 C1459 C 0.46944 0.60032 0.99466
 C1460 C 0.45879 0.58624 0.98914
 C1461 C 0.45594 0.57188 1.00033
 C1462 C 0.46380 0.57118 1.01722
 C1463 C 0.47446 0.58522 1.02274
 C1464 C 0.47717 0.59965 1.01163
 C1465 C 0.47253 0.61561 0.98277
 C1466 C 0.48915 0.62399 0.98243
 C1467 C 0.49202 0.63843 0.97139
 C1468 C 0.47841 0.64479 0.96026
 C1469 C 0.46182 0.63635 0.96051
 C1470 C 0.45890 0.62200 0.97167
 C1471 C 0.48151 0.66015 0.94846
 C1472 C 0.46797 0.67257 0.94541
 C1473 C 0.47088 0.68697 0.93430
 C1474 C 0.48745 0.68937 0.92613
 C1475 C 0.50102 0.67704 0.92922
 C1476 C 0.49807 0.66255 0.94018
 H1477 H 0.45287 0.58617 0.97606
 H1478 H 0.44776 0.56122 0.99562
 H1479 H 0.48059 0.58518 1.03573
 H1480 H 0.48516 0.61039 1.01646
 H1481 H 0.50003 0.61929 0.99060
 H1482 H 0.50489 0.64472 0.97173
 H1483 H 0.45111 0.64074 0.95195
 H1484 H 0.44587 0.61602 0.97173
 H1485 H 0.45517 0.67133 0.95181
 H1486 H 0.46026 0.69640 0.93232
 H1487 H 0.51385 0.67847 0.92289
 H1488 H 0.50869 0.65309 0.94195
 C1489 C 0.53196 0.90190 0.99793
 C1490 C 0.54499 0.91443 0.99408
 C1491 C 0.54802 0.92838 1.00561
 C1492 C 0.53786 0.93030 1.02115
 C1493 C 0.52468 0.91771 1.02483
 C1494 C 0.52188 0.90362 1.01343
 C1495 C 0.52887 0.88703 0.98580
 C1496 C 0.52782 0.86987 0.99243
 C1497 C 0.52499 0.85581 0.98099
 C1498 C 0.52288 0.85864 0.96266
 C1499 C 0.52383 0.87590 0.95610
 C1500 C 0.52692 0.88991 0.96753
 C1501 C 0.51971 0.84367 0.95047
 C1502 C 0.52681 0.84371 0.93326
 C1503 C 0.52378 0.82971 0.92180
 C1504 C 0.51376 0.81516 0.92731
 C1505 C 0.50675 0.81507 0.94456
 C1506 C 0.50958 0.82918 0.95593
 H1507 H 0.55301 0.91330 0.98225
 H1508 H 0.55829 0.93771 1.00219
 H1509 H 0.51653 0.91860 1.03660
 H1510 H 0.51166 0.89417 1.01660
 H1511 H 0.52949 0.86730 1.00646
 H1512 H 0.52473 0.84271 0.98650
 H1513 H 0.52191 0.87866 0.94215
 H1514 H 0.52748 0.90307 0.96213
 H1515 H 0.53490 0.85449 0.92864
 H1516 H 0.52918 0.83040 0.90855
 H1517 H 0.49920 0.80401 0.94940
 H1518 H 0.50366 0.82876 0.96898
 C1519 C 0.02894 0.40518 0.49576
 C1520 C 0.01715 0.40819 0.50980
 C1521 C 0.01977 0.42221 0.52134
 C1522 C 0.03424 0.43369 0.51904
 C1523 C 0.04608 0.43053 0.50495
 C1524 C 0.04348 0.41644 0.49351
 C1525 C 0.02605 0.39037 0.48344
 C1526 C 0.04038 0.37990 0.47792
 C1527 C 0.03762 0.36590 0.46639
 C1528 C 0.02047 0.36211 0.46005
 C1529 C 0.00616 0.37268 0.46548
 C1530 C 0.00891 0.38662 0.47708
 C1531 C 0.01749 0.34705 0.44800
 C1532 C 0.00233 0.33650 0.44986
 C1533 C -0.00037 0.32217 0.43875
 C1534 C 0.01206 0.31799 0.42554
 C1535 C 0.02715 0.32861 0.42358
 C1536 C 0.02983 0.34298 0.43467
 H1537 H 0.00595 0.39958 0.51199
 H1538 H 0.01035 0.42404 0.53199
 H1539 H 0.05739 0.43897 0.50263
 H1540 H 0.05269 0.41453 0.48269
 H1541 H 0.05369 0.38235 0.48279
 H1542 H 0.04888 0.35784 0.46272
 H1543 H -0.00716 0.37031 0.46060
 H1544 H -0.00234 0.39464 0.48088
 H1545 H -0.00735 0.33913 0.46011
 H1546 H -0.01227 0.31441 0.44046
 H1547 H 0.03707 0.32566 0.41366
 H1548 H 0.04153 0.35097 0.43273
 C1549 C 0.39849 0.50252 0.46734
 C1550 C 0.39951 0.48663 0.47673
 C1551 C 0.41365 0.47504 0.47395
 C1552 C 0.42700 0.47904 0.46159
 C1553 C 0.42590 0.49492 0.45212
 C1554 C 0.41185 0.50656 0.45503
 C1555 C 0.38356 0.51487 0.47037
 C1556 C 0.38673 0.53289 0.47209
 C1557 C 0.37267 0.54453 0.47501
 C1558 C 0.35509 0.53842 0.47613
 C1559 C 0.35194 0.52036 0.47434
 C1560 C 0.36603 0.50872 0.47157
 C1561 C 0.34011 0.55082 0.47916
 C1562 C 0.32575 0.54608 0.49004
 C1563 C 0.31167 0.55772 0.49287
 C1564 C 0.31165 0.57445 0.48501
 C1565 C 0.32603 0.57921 0.47416
 C1566 C 0.34005 0.56752 0.47123
 H1567 H 0.38948 0.48327 0.48642
 H1568 H 0.41407 0.46293 0.48146
 H1569 H 0.43595 0.49842 0.44251
 H1570 H 0.41129 0.51865 0.44748
 H1571 H 0.40015 0.53795 0.47147
 H1572 H 0.37562 0.55829 0.47665
 H1573 H 0.33855 0.51524 0.47481
 H1574 H 0.36318 0.49491 0.47005
 H1575 H 0.32546 0.53341 0.49653
 H1576 H 0.30071 0.55352 0.50111
 H1577 H 0.32656 0.59205 0.46806
 H1578 H 0.35077 0.57153 0.46260
 C1579 C 0.89947 0.00255 -0.03506
 C1580 C 0.91195 0.00579 -0.04850
 C1581 C 0.92614 -0.00574 -0.05130
 C1582 C 0.92838 -0.02076 -0.04059
 C1583 C 0.91584 -0.02396 -0.02713
 C1584 C 0.90156 -0.01253 -0.02449
 C1585 C 0.88441 0.01487 -0.03202
 C1586 C 0.87836 0.01826 -0.01475
 C1587 C 0.86418 0.02976 -0.01188
 C1588 C 0.85584 0.03830 -0.02619
 C1589 C 0.86190 0.03506 -0.04343
 C1590 C 0.87596 0.02340 -0.04633
 C1591 C 0.84087 0.05057 -0.02309
 C1592 C 0.84034 0.06695 -0.03162
 C1593 C 0.82637 0.07863 -0.02847
 C1594 C 0.81249 0.07412 -0.01686
 C1595 C 0.81298 0.05761 -0.00850
 C1596 C 0.82707 0.04602 -0.01150
 H1597 H 0.91094 0.01741 -0.05671
 H1598 H 0.93546 -0.00267 -0.06176
 H1599 H 0.91691 -0.03539 -0.01863
 H1600 H 0.89203 -0.01563 -0.01424
 H1601 H 0.88476 0.01223 -0.00339
 H1602 H 0.85990 0.03222 0.00156
 H1603 H 0.85556 0.04132 -0.05470
 H1604 H 0.88003 0.02088 -0.05982
 H1605 H 0.85094 0.07085 -0.04046
 H1606 H 0.82661 0.09133 -0.03490
 H1607 H 0.80237 0.05352 0.00022
 H1608 H 0.82704 0.03337 -0.00495
 C1609 C 0.60052 0.00513 0.03148
 C1610 C 0.59921 -0.01052 0.02187
 C1611 C 0.58511 -0.02203 0.02484
 C1612 C 0.57210 -0.01822 0.03761
 C1613 C 0.57347 -0.00257 0.04725
 C1614 C 0.58748 0.00901 0.04416
 C1615 C 0.61549 0.01733 0.02833
 C1616 C 0.61245 0.03545 0.02698
 C1617 C 0.62655 0.04694 0.02392
 C1618 C 0.64405 0.04058 0.02229
 C1619 C 0.64706 0.02243 0.02376
 C1620 C 0.63294 0.01094 0.02667
 C1621 C 0.65907 0.05279 0.01901
 C1622 C 0.67311 0.04800 0.00775
 C1623 C 0.68725 0.05942 0.00469
 C1624 C 0.68766 0.07600 0.01271
 C1625 C 0.67360 0.08082 0.02394
 C1626 C 0.65951 0.06934 0.02709
 H1627 H 0.60899 -0.01375 0.01190
 H1628 H 0.58448 -0.03397 0.01718
 H1629 H 0.56368 0.00079 0.05717
 H1630 H 0.58827 0.02091 0.05187
 H1631 H 0.59910 0.04070 0.02799
 H1632 H 0.62369 0.06078 0.02255
 H1633 H 0.66039 0.01710 0.02291
 H1634 H 0.63569 -0.00295 0.02791
 H1635 H 0.67310 0.03546 0.00112
 H1636 H 0.69796 0.05517 -0.00383
 H1637 H 0.67338 0.09355 0.03017
 H1638 H 0.64905 0.07338 0.03601
 C1639 C 0.09672 0.50843 0.53010
 C1640 C 0.08304 0.51288 0.54190
 C1641 C 0.06874 0.50155 0.54461
 C1642 C 0.06774 0.48558 0.53546
 C1643 C 0.08136 0.48123 0.52354
 C1644 C 0.09573 0.49249 0.52095
 C1645 C 0.11203 0.52031 0.52739
 C1646 C 0.12943 0.51360 0.52683
 C1647 C 0.14387 0.52476 0.52419
 C1648 C 0.14123 0.54288 0.52192
 C1649 C 0.12379 0.54957 0.52250
 C1650 C 0.10936 0.53842 0.52528
 C1651 C 0.15659 0.55471 0.51883
 C1652 C 0.15701 0.57152 0.52634
 C1653 C 0.17142 0.58265 0.52334
 C1654 C 0.18580 0.57721 0.51283
 C1655 C 0.18541 0.56038 0.50539
 C1656 C 0.17097 0.54929 0.50830
 H1657 H 0.08355 0.52502 0.54923
 H1658 H 0.05847 0.50533 0.55387
 H1659 H 0.08103 0.46904 0.51628
 H1660 H 0.10600 0.48882 0.51164
 H1661 H 0.13189 0.49973 0.52868
 H1662 H 0.15713 0.51920 0.52416
 H1663 H 0.12124 0.56341 0.52051
 H1664 H 0.09606 0.54390 0.52544
 H1665 H 0.14628 0.57603 0.53469
 H1666 H 0.17118 0.59560 0.52911
 H1667 H 0.19636 0.55566 0.49742
 H1668 H 0.17098 0.53653 0.50213
 C1669 C 0.09845 0.49295 -0.02726
 C1670 C 0.09053 0.49489 -0.04402
 C1671 C 0.07585 0.50595 -0.04637
 C1672 C 0.06899 0.51551 -0.03204
 C1673 C 0.07707 0.51369 -0.01532
 C1674 C 0.09157 0.50241 -0.01293
 C1675 C 0.11382 0.48102 -0.02471
 C1676 C 0.11403 0.46894 -0.01064
 C1677 C 0.12847 0.45760 -0.00826
 C1678 C 0.14316 0.45825 -0.01976
 C1679 C 0.14292 0.47046 -0.03379
 C1680 C 0.12835 0.48163 -0.03631
 C1681 C 0.15861 0.44623 -0.01715
 C1682 C 0.16791 0.43949 -0.03176
 C1683 C 0.18243 0.42825 -0.02930
 C1684 C 0.18790 0.42324 -0.01217
 C1685 C 0.17854 0.42992 0.00243
 C1686 C 0.16418 0.44135 -0.00002
 H1687 H 0.09555 0.48763 -0.05525
 H1688 H 0.06995 0.50711 -0.05942
 H1689 H 0.07207 0.52083 -0.00401
 H1690 H 0.09754 0.50122 0.00009
 H1691 H 0.10287 0.46809 -0.00165
 H1692 H 0.12799 0.44814 0.00245
 H1693 H 0.15410 0.47160 -0.04270
 H1694 H 0.12856 0.49097 -0.04714
 H1695 H 0.16389 0.44274 -0.04515
 H1696 H 0.18944 0.42361 -0.04086
 H1697 H 0.18217 0.42619 0.01581
 H1698 H 0.15754 0.44647 0.01156
 C1699 C 0.60228 0.99800 0.46731
 C1700 C 0.59811 1.01051 0.48018
 C1701 C 0.58360 1.02177 0.47784
 C1702 C 0.57264 1.02052 0.46271
 C1703 C 0.57697 1.00791 0.44980
 C1704 C 0.59172 0.99691 0.45202
 C1705 C 0.61745 0.98589 0.46999
 C1706 C 0.63041 0.98390 0.45683
 C1707 C 0.64478 0.97250 0.45945
 C1708 C 0.64632 0.96258 0.47516
 C1709 C 0.63314 0.96453 0.48823
 C1710 C 0.61897 0.97618 0.48573
 C1711 C 0.66150 0.95023 0.47791
 C1712 C 0.66864 0.94736 0.49492
 C1713 C 0.68261 0.93551 0.49756
 C1714 C 0.69011 0.92643 0.48322
 C1715 C 0.68314 0.92949 0.46617
 C1716 C 0.66894 0.94110 0.46357
 H1717 H 0.60617 1.01163 0.49203
 H1718 H 0.58084 1.03124 0.48812
 H1719 H 0.56901 1.00650 0.43793
 H1720 H 0.59468 0.98728 0.44195
 H1721 H 0.62955 0.99139 0.44463
 H1722 H 0.65480 0.97167 0.44923
 H1723 H 0.63358 0.95687 0.50032
 H1724 H 0.60899 0.97737 0.49597
 H1725 H 0.66352 0.95434 0.50627
 H1726 H 0.68738 0.93336 0.51094
 H1727 H 0.68870 0.92301 0.45473
 H1728 H 0.66368 0.94272 0.45031
 C1729 C 0.90468 0.99268 0.52348
 C1730 C 0.90610 1.00839 0.51388
 C1731 C 0.91985 1.02012 0.51742
 C1732 C 0.93241 1.01656 0.53088
 C1733 C 0.93097 1.00067 0.54039
 C1734 C 0.91735 0.98885 0.53663
 C1735 C 0.88981 0.98050 0.52004
 C1736 C 0.89296 0.96247 0.51821
 C1737 C 0.87887 0.95099 0.51509
 C1738 C 0.86128 0.95728 0.51398
 C1739 C 0.85820 0.97536 0.51590
 C1740 C 0.87232 0.98684 0.51878
 C1741 C 0.84619 0.94506 0.51098
 C1742 C 0.83144 0.95024 0.50071
 C1743 C 0.81707 0.93896 0.49827
 C1744 C 0.81714 0.92210 0.50584
 C1745 C 0.83200 0.91682 0.51591
 C1746 C 0.84629 0.92818 0.51852
 H1747 H 0.89657 1.01155 0.50355
 H1748 H 0.92041 1.03211 0.50972
 H1749 H 0.94033 0.99731 0.55081
 H1750 H 0.91646 0.97686 0.54430
 H1751 H 0.90638 0.95729 0.51895
 H1752 H 0.88180 0.93722 0.51335
 H1753 H 0.84483 0.98065 0.51551
 H1754 H 0.86953 1.00067 0.52039
 H1755 H 0.83099 0.96303 0.49446
 H1756 H 0.80577 0.94361 0.49064
 H1757 H 0.83267 0.90385 0.52173
 H1758 H 0.85730 0.92380 0.52670
 C1759 C 0.40233 0.49441 0.02644
 C1760 C 0.40908 0.50482 0.01265
 C1761 C 0.42303 0.51646 0.01583
 C1762 C 0.43070 0.51766 0.03278
 C1763 C 0.42410 0.50700 0.04648
 C1764 C 0.40996 0.49560 0.04337
 C1765 C 0.38726 0.48241 0.02329
 C1766 C 0.37258 0.48246 0.03471
 C1767 C 0.35841 0.47103 0.03193
 C1768 C 0.35872 0.45905 0.01782
 C1769 C 0.37347 0.45907 0.00638
 C1770 C 0.38752 0.47073 0.00901
 C1771 C 0.34378 0.44656 0.01516
 C1772 C 0.33844 0.44161 -0.00196
 C1773 C 0.32444 0.42987 -0.00440
 C1774 C 0.31523 0.42292 0.01021
 C1775 C 0.32053 0.42792 0.02733
 C1776 C 0.33469 0.43946 0.02977
 H1777 H 0.40333 0.50416 -0.00050
 H1778 H 0.42787 0.52447 0.00500
 H1779 H 0.42967 0.50766 0.05970
 H1780 H 0.40506 0.48760 0.05418
 H1781 H 0.37200 0.49152 0.04569
 H1782 H 0.34713 0.47172 0.04077
 H1783 H 0.37435 0.44987 -0.00444
 H1784 H 0.39879 0.47036 0.00012
 H1785 H 0.34493 0.44696 -0.01355
 H1786 H 0.32094 0.42614 -0.01777
 H1787 H 0.31363 0.42310 0.03891
 H1788 H 0.33858 0.44269 0.04317
 C1789 C 0.50285 0.46652 0.39836
 C1790 C 0.48684 0.47598 0.39945
 C1791 C 0.47526 0.47331 0.41364
 C1792 C 0.47936 0.46099 0.42696
 C1793 C 0.49535 0.45146 0.42578
 C1794 C 0.50700 0.45426 0.41168
 C1795 C 0.51519 0.46943 0.38337
 C1796 C 0.53355 0.47100 0.38640
 C1797 C 0.54519 0.47377 0.37228
 C1798 C 0.53876 0.47488 0.35480
 C1799 C 0.52037 0.47324 0.35181
 C1800 C 0.50872 0.47062 0.36595
 C1801 C 0.55118 0.47772 0.33976
 C1802 C 0.54626 0.48842 0.32534
 C1803 C 0.55791 0.49106 0.31121
 C1804 C 0.57483 0.48316 0.31119
 C1805 C 0.57977 0.47249 0.32563
 C1806 C 0.56806 0.46976 0.33971
 H1807 H 0.48340 0.48562 0.38944
 H1808 H 0.46306 0.48086 0.41413
 H1809 H 0.49894 0.44188 0.43581
 H1810 H 0.51918 0.44667 0.41106
 H1811 H 0.53886 0.47036 0.39973
 H1812 H 0.55922 0.47530 0.37511
 H1813 H 0.51499 0.47372 0.33850
 H1814 H 0.49465 0.46923 0.36323
 H1815 H 0.53345 0.49493 0.32504
 H1816 H 0.55357 0.49917 0.30021
 H1817 H 0.59277 0.46638 0.32617
 H1818 H 0.57221 0.46125 0.35048
 C1819 C 0.00499 -0.03165 0.89793
 C1820 C -0.01215 -0.02431 0.89742
 C1821 C -0.02396 -0.02703 0.91142
 C1822 C -0.01895 -0.03740 0.92606
 C1823 C -0.00182 -0.04483 0.92647
 C1824 C 0.01008 -0.04185 0.91261
 C1825 C 0.01753 -0.02869 0.88317
 C1826 C 0.03501 -0.02322 0.88657
 C1827 C 0.04682 -0.02032 0.87261
 C1828 C 0.04144 -0.02314 0.85504
 C1829 C 0.02401 -0.02875 0.85164
 C1830 C 0.01210 -0.03135 0.86558
 C1831 C 0.05397 -0.02017 0.84026
 C1832 C 0.05619 -0.03290 0.82708
 C1833 C 0.06802 -0.03009 0.81312
 C1834 C 0.07759 -0.01437 0.81194
 C1835 C 0.07530 -0.00161 0.82508
 C1836 C 0.06371 -0.00455 0.83920
 H1837 H -0.01633 -0.01630 0.88627
 H1838 H -0.03708 -0.02117 0.91069
 H1839 H 0.00245 -0.05283 0.93759
 H1840 H 0.02320 -0.04773 0.91324
 H1841 H 0.03945 -0.02099 0.90003
 H1842 H 0.06023 -0.01608 0.87554
 H1843 H 0.01954 -0.03090 0.83818
 H1844 H -0.00129 -0.03567 0.86265
 H1845 H 0.04888 -0.04508 0.82769
 H1846 H 0.06948 -0.04006 0.80308
 H1847 H 0.08262 0.01057 0.82448
 H1848 H 0.06213 0.00549 0.84917
 C1849 C 0.00454 0.02862 0.59762
 C1850 C -0.00531 0.01480 0.59036
 C1851 C -0.01669 0.01776 0.57598
 C1852 C -0.01826 0.03456 0.56841
 C1853 C -0.00828 0.04835 0.57562
 C1854 C 0.00291 0.04542 0.59015
 C1855 C 0.01652 0.02553 0.61293
 C1856 C 0.01639 0.03699 0.62741
 C1857 C 0.02775 0.03414 0.64182
 C1858 C 0.03966 0.01988 0.64199
 C1859 C 0.03976 0.00844 0.62744
 C1860 C 0.02824 0.01118 0.61312
 C1861 C 0.05199 0.01704 0.65720
 C1862 C 0.05626 0.00001 0.66302
 C1863 C 0.06799 -0.00265 0.67717
 C1864 C 0.07563 0.01166 0.68600
 C1865 C 0.07125 0.02869 0.68026
 C1866 C 0.05966 0.03134 0.66600
 H1867 H -0.00437 0.00175 0.59597
 H1868 H -0.02416 0.00685 0.57071
 H1869 H -0.00922 0.06145 0.57014
 H1870 H 0.01048 0.05626 0.59541
 H1871 H 0.00730 0.04802 0.62768
 H1872 H 0.02703 0.04302 0.65293
 H1873 H 0.04896 -0.00248 0.62694
 H1874 H 0.02874 0.00227 0.60201
 H1875 H 0.05042 -0.01132 0.65673
 H1876 H 0.07123 -0.01595 0.68105
 H1877 H 0.07665 0.04004 0.68689
 H1878 H 0.05688 0.04464 0.66175
 C1879 C 0.50423 0.53082 0.09863
 C1880 C 0.49444 0.51691 0.09150
 C1881 C 0.48280 0.51977 0.07732
 C1882 C 0.48097 0.53656 0.06979
 C1883 C 0.49079 0.55048 0.07694
 C1884 C 0.50220 0.54766 0.09134
 C1885 C 0.51669 0.52769 0.11352
 C1886 C 0.51623 0.53837 0.12858
 C1887 C 0.52783 0.53521 0.14275
 C1888 C 0.54034 0.52146 0.14204
 C1889 C 0.54088 0.51095 0.12678
 C1890 C 0.52909 0.51395 0.11276
 C1891 C 0.55270 0.51804 0.15714
 C1892 C 0.55787 0.50083 0.16153
 C1893 C 0.56954 0.49759 0.17560
 C1894 C 0.57616 0.51144 0.18588
 C1895 C 0.57091 0.52865 0.18156
 C1896 C 0.55944 0.53191 0.16731
 H1897 H 0.49572 0.50383 0.09700
 H1898 H 0.47546 0.50877 0.07206
 H1899 H 0.48961 0.56356 0.07145
 H1900 H 0.50969 0.55856 0.09658
 H1901 H 0.50665 0.54895 0.12951
 H1902 H 0.52676 0.54337 0.15438
 H1903 H 0.55056 0.50051 0.12555
 H1904 H 0.52982 0.50568 0.10117
 H1905 H 0.55276 0.48977 0.15421
 H1906 H 0.57347 0.48419 0.17831
 H1907 H 0.57549 0.53965 0.18930
 H1908 H 0.55599 0.54535 0.16420
 C1909 C 0.49825 -0.03173 0.10299
 C1910 C 0.51456 -0.02284 0.10181
 C1911 C 0.52578 -0.02537 0.08732
 C1912 C 0.52105 -0.03699 0.07373
 C1913 C 0.50485 -0.04601 0.07497
 C1914 C 0.49355 -0.04334 0.08938
 C1915 C 0.48615 -0.02880 0.11827
 C1916 C 0.47615 -0.04266 0.12538
 C1917 C 0.46456 -0.03984 0.13953
 C1918 C 0.46278 -0.02311 0.14704
 C1919 C 0.47290 -0.00928 0.14003
 C1920 C 0.48437 -0.01207 0.12579
 C1921 C 0.45032 -0.02007 0.16201
 C1922 C 0.44059 -0.00434 0.16315
 C1923 C 0.42886 -0.00150 0.17718
 C1924 C 0.42645 -0.01437 0.19028
 C1925 C 0.43610 -0.03010 0.18917
 C1926 C 0.44797 -0.03289 0.17524
 H1927 H 0.51877 -0.01404 0.11220
 H1928 H 0.53823 -0.01831 0.08684
 H1929 H 0.50074 -0.05496 0.06467
 H1930 H 0.48097 -0.05018 0.08967
 H1931 H 0.47735 -0.05577 0.12010
 H1932 H 0.45682 -0.05075 0.14442
 H1933 H 0.47207 0.00372 0.14563
 H1934 H 0.49168 -0.00103 0.12052
 H1935 H 0.44178 0.00567 0.15304
 H1936 H 0.42141 0.01066 0.17760
 H1937 H 0.43466 -0.04015 0.19923
 H1938 H 0.45548 -0.04501 0.17498
 C1939 C 0.99231 0.47312 0.59898
 C1940 C 1.00252 0.48699 0.59228
 C1941 C 1.01398 0.48434 0.57800
 C1942 C 1.01524 0.46782 0.56995
 C1943 C 1.00482 0.45400 0.57652
 C1944 C 0.99358 0.45660 0.59099
 C1945 C 0.98046 0.47584 0.61436
 C1946 C 0.98078 0.46409 0.62870
 C1947 C 0.96975 0.46675 0.64332
 C1948 C 0.95796 0.48110 0.64380
 C1949 C 0.95760 0.49277 0.62930
 C1950 C 0.96882 0.49024 0.61481
 C1951 C 0.94609 0.48387 0.65931
 C1952 C 0.94192 0.50088 0.66508
 C1953 C 0.93062 0.50349 0.67950
 C1954 C 0.92335 0.48915 0.68870
 C1955 C 0.92767 0.47214 0.68303
 C1956 C 0.93878 0.46954 0.66847
 H1957 H 1.00184 0.49982 0.59830
 H1958 H 1.02179 0.49526 0.57320
 H1959 H 1.00553 0.44111 0.57065
 H1960 H 0.98574 0.44573 0.59586
 H1961 H 0.98981 0.45300 0.62874
 H1962 H 0.97068 0.45769 0.65435
 H1963 H 0.94846 0.50375 0.62900
 H1964 H 0.96821 0.49937 0.60380
 H1965 H 0.94750 0.51225 0.65856
 H1966 H 0.92742 0.51678 0.68327
 H1967 H 0.92257 0.46076 0.68992
 H1968 H 0.94146 0.45625 0.66429
 C1969 C 0.99306 0.52900 0.90447
 C1970 C 1.00965 0.52051 0.90506
 C1971 C 1.02101 0.52271 0.91956
 C1972 C 1.01609 0.53360 0.93371
 C1973 C 0.99953 0.54219 0.93303
 C1974 C 0.98811 0.53985 0.91861
 C1975 C 0.98091 0.52649 0.88919
 C1976 C 0.96270 0.52354 0.89191
 C1977 C 0.95127 0.52103 0.87753
 C1978 C 0.95777 0.52156 0.86008
 C1979 C 0.97600 0.52462 0.85740
 C1980 C 0.98745 0.52697 0.87180
 C1981 C 0.94560 0.51889 0.84476
 C1982 C 0.95128 0.50954 0.82981
 C1983 C 0.93987 0.50704 0.81542
 C1984 C 0.92242 0.51373 0.81565
 C1985 C 0.91672 0.52305 0.83062
 C1986 C 0.92818 0.52565 0.84497
 H1987 H 1.01373 0.51195 0.89442
 H1988 H 1.03368 0.51592 0.91964
 H1989 H 0.99531 0.55065 0.94370
 H1990 H 0.97546 0.54668 0.91841
 H1991 H 0.95736 0.52286 0.90520
 H1992 H 0.93738 0.51839 0.88010
 H1993 H 0.98141 0.52543 0.84415
 H1994 H 1.00139 0.52946 0.86932
 H1995 H 0.96452 0.50396 0.82928
 H1996 H 0.94480 0.50001 0.80402
 H1997 H 0.90332 0.52821 0.83136
 H1998 H 0.92342 0.53311 0.85616
 C1999 C 0.49453 0.03051 0.40225
 C2000 C 0.51130 0.02232 0.40244
 C2001 C 0.52318 0.02505 0.41642
 C2002 C 0.51862 0.03616 0.43049
 C2003 C 0.50188 0.04443 0.43028
 C2004 C 0.48996 0.04159 0.41636
 C2005 C 0.48185 0.02751 0.38742
 C2006 C 0.47110 0.04122 0.38092
 C2007 C 0.45918 0.03838 0.36699
 C2008 C 0.45779 0.02178 0.35914
 C2009 C 0.46856 0.00807 0.36563
 C2010 C 0.48039 0.01089 0.37963
 C2011 C 0.44525 0.01878 0.34420
 C2012 C 0.43595 0.00290 0.34280
 C2013 C 0.42444 -0.00006 0.32857
 C2014 C 0.42185 0.01285 0.31549
 C2015 C 0.43096 0.02880 0.31695
 C2016 C 0.44258 0.03171 0.33111
 H2017 H 0.51538 0.01394 0.39165
 H2018 H 0.53600 0.01857 0.41609
 H2019 H 0.49789 0.05298 0.44097
 H2020 H 0.47705 0.04789 0.41680
 H2021 H 0.47202 0.05424 0.38646
 H2022 H 0.45095 0.04918 0.36248
 H2023 H 0.46801 -0.00482 0.35976
 H2024 H 0.48829 -0.00003 0.38444
 H2025 H 0.43741 -0.00721 0.35280
 H2026 H 0.41739 -0.01238 0.32789
 H2027 H 0.42940 0.03888 0.30693
 H2028 H 0.44975 0.04397 0.33160
   
