data_POSCAR
  _audit_creation_date              2014-09-24
  _audit_creation_method            'ToBaCCo'
  _symmetry_space_group_name_H-M    'P1'
  _symmetry_Int_Tables_number       1
  _symmetry_cell_setting            triclinic
  loop_
  _symmetry_equiv_pos_as_xyz
 x,y,z
_cell_length_a 58.2080
_cell_length_b 51.7411
_cell_length_c 33.1706
_cell_angle_alpha 89.686300
_cell_angle_beta 89.580700
_cell_angle_gamma 89.988200
loop_
  _atom_site_label
  _atom_site_type_symbol
  _atom_site_fract_x
  _atom_site_fract_y
  _atom_site_fract_z
C1 C 1.27072 0.21900 0.27157
 C2 C 1.25091 0.22966 0.25452
 C3 C 1.23298 0.21347 0.24277
 C4 C 1.23433 0.18659 0.24870
 C5 C 1.25395 0.17630 0.26776
 C6 C 1.27270 0.19216 0.27913
 C7 C 1.24900 0.25799 0.24909
 C8 C 1.26606 0.27164 0.22766
 C9 C 1.26521 0.29882 0.22412
 C10 C 1.24632 0.31170 0.24178
 C11 C 1.22970 0.29854 0.26491
 C12 C 1.23098 0.27150 0.26782
 H13 H 1.28462 0.23214 0.27791
 H14 H 1.21833 0.22200 0.22784
 H15 H 1.28041 0.26084 0.21549
 H16 H 1.21858 0.26093 0.28598
 H17 H 1.25390 0.15595 0.27504
 H18 H 1.24401 0.33219 0.23674
 C19 C 0.76890 -0.27805 0.26561
 C20 C 0.74963 -0.26548 0.24936
 C21 C 0.73201 -0.28008 0.23210
 C22 C 0.73297 -0.30714 0.23206
 C23 C 0.75202 -0.31941 0.24940
 C24 C 0.77054 -0.30529 0.26540
 C25 C 0.74758 -0.23700 0.25055
 C26 C 0.76531 -0.22117 0.23565
 C27 C 0.76313 -0.19402 0.23569
 C28 C 0.74265 -0.18310 0.25099
 C29 C 0.72466 -0.19882 0.26544
 C30 C 0.72736 -0.22570 0.26537
 H31 H 0.78268 -0.26634 0.27740
 H32 H 0.71772 -0.27015 0.21818
 H33 H 0.78039 -0.23023 0.22273
 H34 H 0.71353 -0.23794 0.27633
 H35 H 0.75177 -0.34023 0.25224
 H36 H 0.74068 -0.16233 0.25238
 C37 C 0.76640 0.21823 -0.23833
 C38 C 0.74862 0.23372 -0.25334
 C39 C 0.72900 0.22213 -0.26939
 C40 C 0.72692 0.19513 -0.27100
 C41 C 0.74504 0.17977 -0.25615
 C42 C 0.76488 0.19104 -0.23937
 C43 C 0.75015 0.26221 -0.25156
 C44 C 0.76770 0.27548 -0.27233
 C45 C 0.76836 0.30283 -0.27319
 C46 C 0.75114 0.31618 -0.25135
 C47 C 0.73373 0.30314 -0.22987
 C48 C 0.73333 0.27607 -0.23044
 H49 H 0.78103 0.22758 -0.22470
 H50 H 0.71553 0.23434 -0.28139
 H51 H 0.77983 0.26416 -0.28964
 H52 H 0.72011 0.26559 -0.21402
 H53 H 0.74358 0.15896 -0.25752
 H54 H 0.75131 0.33700 -0.25005
 C55 C 1.26818 -0.27830 -0.21998
 C56 C 1.25139 -0.26365 -0.23989
 C57 C 1.23302 -0.27610 -0.25885
 C58 C 1.23124 -0.30315 -0.25785
 C59 C 1.24775 -0.31740 -0.23658
 C60 C 1.26683 -0.30549 -0.21860
 C61 C 1.25383 -0.23532 -0.24310
 C62 C 1.27384 -0.22460 -0.25984
 C63 C 1.27623 -0.19774 -0.26386
 C64 C 1.25824 -0.18160 -0.25067
 C65 C 1.23812 -0.19200 -0.23306
 C66 C 1.23617 -0.21906 -0.22958
 H67 H 1.28277 -0.26830 -0.20736
 H68 H 1.22073 -0.26470 -0.27569
 H69 H 1.28756 -0.23727 -0.26977
 H70 H 1.22121 -0.22771 -0.21538
 H71 H 1.24526 -0.33801 -0.23314
 H72 H 1.25980 -0.16093 -0.25508
 C73 C 0.22434 0.27261 0.73541
 C74 C 0.23691 0.25109 0.74836
 C75 C 0.22534 0.22866 0.76111
 C76 C 0.20106 0.22742 0.76114
 C77 C 0.18888 0.24929 0.74688
 C78 C 0.20036 0.27177 0.73417
 C79 C 0.26224 0.25236 0.74842
 C80 C 0.27322 0.27257 0.76875
 C81 C 0.29735 0.27515 0.76790
 C82 C 0.31001 0.25705 0.74505
 C83 C 0.29926 0.23691 0.72433
 C84 C 0.27533 0.23431 0.72677
 H85 H 0.23331 0.28982 0.72516
 H86 H 0.23554 0.21216 0.77016
 H87 H 0.26266 0.28556 0.78636
 H88 H 0.26683 0.21899 0.71046
 H89 H 0.17030 0.24979 0.74768
 H90 H 0.32842 0.25891 0.74172
 C91 C 0.71960 0.76827 0.72618
 C92 C 0.73401 0.75044 0.74569
 C93 C 0.72464 0.72835 0.76424
 C94 C 0.70085 0.72373 0.76368
 C95 C 0.68674 0.74229 0.74493
 C96 C 0.69566 0.76409 0.72451
 C97 C 0.75920 0.75342 0.74338
 C98 C 0.77007 0.77523 0.75943
 C99 C 0.79408 0.77762 0.75726
 C100 C 0.80709 0.75798 0.73887
 C101 C 0.79642 0.73599 0.72264
 C102 C 0.77239 0.73403 0.72502
 H103 H 0.72749 0.78427 0.71019
 H104 H 0.73622 0.71433 0.77740
 H105 H 0.75990 0.79022 0.77365
 H106 H 0.76372 0.71761 0.71189
 H107 H 0.66835 0.74057 0.74865
 H108 H 0.82564 0.75959 0.73837
 C109 C 0.72850 0.27425 0.23477
 C110 C 0.73802 0.25316 0.25541
 C111 C 0.72359 0.23563 0.27579
 C112 C 0.69966 0.23950 0.27618
 C113 C 0.69037 0.26023 0.25424
 C114 C 0.70471 0.27764 0.23373
 C115 C 0.76316 0.25069 0.25739
 C116 C 0.77599 0.27096 0.27360
 C117 C 0.79999 0.27025 0.27274
 C118 C 0.81118 0.24888 0.25568
 C119 C 0.79857 0.22832 0.23901
 C120 C 0.77441 0.22932 0.24045
 H121 H 0.73961 0.28796 0.21931
 H122 H 0.73105 0.21984 0.29284
 H123 H 0.76722 0.28767 0.28596
 H124 H 0.76429 0.21419 0.22677
 H125 H 0.67193 0.26321 0.25382
 H126 H 0.82977 0.24828 0.25578
 C127 C 0.22806 0.77554 0.24106
 C128 C 0.23982 0.75372 0.25533
 C129 C 0.22761 0.73349 0.27380
 C130 C 0.20359 0.73468 0.27862
 C131 C 0.19223 0.75721 0.26499
 C132 C 0.20394 0.77764 0.24498
 C133 C 0.26486 0.75113 0.24836
 C134 C 0.28007 0.77068 0.26045
 C135 C 0.30387 0.76807 0.25391
 C136 C 0.31215 0.74589 0.23437
 C137 C 0.29714 0.72638 0.22190
 C138 C 0.27355 0.72895 0.22939
 H139 H 0.23793 0.78989 0.22469
 H140 H 0.23704 0.71639 0.28267
 H141 H 0.27337 0.78777 0.27515
 H142 H 0.26188 0.71397 0.21957
 H143 H 0.17428 0.75948 0.27249
 H144 H 0.33047 0.74331 0.22996
 O145 O 1.03218 0.04480 0.07356
 O146 O 1.05791 0.02189 0.03492
 C147 C 1.05297 0.03846 0.06297
 O148 O 0.96777 -0.04680 0.07278
 O149 O 0.94260 -0.02314 0.03438
 C150 C 0.94718 -0.04067 0.06128
 O151 O 1.03159 -0.04495 0.07629
 O152 O 1.05775 -0.02276 0.03733
 C153 C 1.05250 -0.03928 0.06564
 O154 O 0.96837 0.04880 0.06603
 O155 O 0.94262 0.02341 0.03210
 C156 C 0.94762 0.04251 0.05585
 Zr157 Zr 1.00031 0.03263 0.04971
 O158 O 0.99843 0.03122 0.11343
 O159 O 1.00189 0.07340 0.04482
 Zr160 Zr 0.99993 -0.03199 0.05331
 O161 O 0.99882 -0.02666 0.11642
 O162 O 1.00099 -0.07271 0.05868
 O163 O 1.02081 0.00029 0.05946
 O164 O 0.97964 0.00057 0.05847
 O165 O 0.96901 0.04488 -0.07348
 O166 O 0.94323 0.02188 -0.03483
 C167 C 0.94823 0.03910 -0.06210
 O168 O 1.03335 -0.04644 -0.07083
 O169 O 1.05855 -0.02333 -0.03211
 C170 C 1.05398 -0.04015 -0.05975
 O171 O 0.96912 -0.05005 -0.06559
 O172 O 0.94301 -0.02448 -0.03232
 C173 C 0.94824 -0.04361 -0.05596
 O174 O 1.03287 0.04204 -0.07595
 O175 O 1.05838 0.02062 -0.03530
 C176 C 1.05359 0.03648 -0.06460
 Zr177 Zr 1.00083 0.03092 -0.05161
 O178 O 1.00117 0.03358 -0.11528
 O179 O 1.00134 0.07159 -0.04602
 Zr180 Zr 1.00088 -0.03406 -0.04849
 O181 O 0.99898 -0.03541 -0.11216
 O182 O 1.00234 -0.07480 -0.04383
 Zr183 Zr 1.03502 -0.00085 0.00095
 Zr184 Zr 0.96591 -0.00064 0.00015
 O185 O 0.98071 -0.00177 -0.05778
 O186 O 1.02146 -0.00173 -0.05785
 O187 O 0.98004 0.03681 -0.00145
 O188 O 1.02037 -0.03797 0.00284
 O189 O 1.02080 0.03643 -0.00107
 O190 O 0.98000 -0.03810 0.00239
 H191 H 0.96889 0.00116 0.08176
 H192 H 1.03048 -0.05337 0.00355
 H193 H 0.97033 -0.00246 -0.08129
 H194 H 1.03124 0.05156 -0.00166
 H195 H 0.99454 -0.07967 0.03346
 H196 H 1.00267 -0.08140 -0.07183
 H197 H 1.01116 -0.02390 -0.12297
 H198 H 0.99520 0.01706 -0.12567
 H199 H 1.00242 0.07853 -0.07386
 H200 H 1.00198 0.08029 0.07261
 H201 H 0.99782 0.04933 0.12288
 H202 H 0.99828 -0.04423 0.12845
 O203 O 1.03300 0.54878 0.57272
 O204 O 1.05902 0.52479 0.53628
 C205 C 1.05381 0.54233 0.56266
 O206 O 0.96852 0.45638 0.57322
 O207 O 0.94378 0.47977 0.53363
 C208 C 0.94809 0.46211 0.56048
 O209 O 1.03232 0.45922 0.58034
 O210 O 1.05875 0.48033 0.54044
 C211 C 1.05330 0.46466 0.56973
 O212 O 0.96944 0.55286 0.56319
 O213 O 0.94391 0.52687 0.52984
 C214 C 0.94880 0.54658 0.55242
 Zr215 Zr 1.00138 0.53596 0.54903
 O216 O 0.99884 0.53538 0.61270
 O217 O 1.00307 0.57667 0.54286
 Zr218 Zr 1.00083 0.47151 0.55538
 O219 O 0.99865 0.47796 0.61814
 O220 O 1.00210 0.43092 0.56283
 O221 O 1.02174 0.50381 0.56071
 O222 O 0.98047 0.50416 0.55850
 O223 O 0.97168 0.54676 0.42539
 O224 O 0.94524 0.52424 0.46327
 C225 C 0.95073 0.54140 0.43615
 O226 O 1.03498 0.45440 0.43291
 O227 O 1.06006 0.47807 0.47097
 C228 C 1.05552 0.46058 0.44426
 O229 O 0.97110 0.45158 0.43640
 O230 O 0.94472 0.47795 0.46742
 C231 C 0.95019 0.45831 0.44502
 O232 O 1.03547 0.54336 0.42440
 O233 O 1.06041 0.52220 0.46641
 C234 C 1.05603 0.53794 0.43676
 Zr235 Zr 1.00309 0.53250 0.44779
 O236 O 1.00415 0.53375 0.38402
 O237 O 1.00383 0.57328 0.45120
 Zr238 Zr 1.00269 0.46767 0.45375
 O239 O 1.00141 0.46526 0.39011
 O240 O 1.00381 0.42702 0.46045
 Zr241 Zr 1.03650 0.50156 0.50267
 Zr242 Zr 0.96742 0.50206 0.49977
 O243 O 0.98279 0.49990 0.44238
 O244 O 1.02358 0.49966 0.44355
 O245 O 0.98180 0.53935 0.49700
 O246 O 1.02169 0.46456 0.50582
 O247 O 1.02242 0.53881 0.49873
 O248 O 0.98139 0.46462 0.50410
 H249 H 0.96934 0.50510 0.58120
 H250 H 1.03172 0.44913 0.50765
 H251 H 0.97258 0.49894 0.41868
 H252 H 1.03282 0.55397 0.49775
 H253 H 0.99607 0.42339 0.53767
 H254 H 1.00426 0.41982 0.43283
 H255 H 1.01354 0.47680 0.37921
 H256 H 0.99713 0.51762 0.37416
 H257 H 1.00512 0.57964 0.42304
 H258 H 1.00294 0.58397 0.57041
 H259 H 0.99815 0.55361 0.62153
 H260 H 0.99803 0.46061 0.63087
 O261 O 0.53487 -0.04078 0.57124
 O262 O 0.51619 -0.06707 0.52638
 C263 C 0.52996 -0.06329 0.55647
 O264 O 0.45449 0.03351 0.56358
 O265 O 0.47845 0.06374 0.53484
 C266 C 0.46074 0.05721 0.55681
 O267 O 0.45481 -0.03795 0.55855
 O268 O 0.47667 -0.06581 0.52036
 C269 C 0.46002 -0.06082 0.54552
 O270 O 0.54058 0.03075 0.57314
 O271 O 0.52092 0.06249 0.53908
 C272 C 0.53686 0.05474 0.56371
 Zr273 Zr 0.52575 -0.00338 0.55114
 O274 O 0.52004 -0.00470 0.61419
 O275 O 0.56201 -0.00610 0.55402
 Zr276 Zr 0.46880 -0.00158 0.54371
 O277 O 0.46996 -0.00420 0.60724
 O278 O 0.43248 -0.00190 0.54348
 O279 O 0.49643 -0.02628 0.55236
 O280 O 0.49739 0.02028 0.55734
 O281 O 0.54562 0.03803 0.43763
 O282 O 0.52277 0.06596 0.47344
 C283 C 0.54017 0.06099 0.44992
 O284 O 0.46258 -0.03118 0.41452
 O285 O 0.48094 -0.06243 0.45154
 C286 C 0.46705 -0.05515 0.42315
 O287 O 0.46130 0.04030 0.42569
 O288 O 0.48090 0.06685 0.46885
 C289 C 0.46602 0.06278 0.44050
 O290 O 0.54312 -0.03308 0.42618
 O291 O 0.52048 -0.06355 0.45765
 C292 C 0.53746 -0.05679 0.43413
 Zr293 Zr 0.53066 0.00183 0.45000
 O294 O 0.53394 0.00737 0.38692
 O295 O 0.56659 -0.00004 0.45860
 Zr296 Zr 0.47340 0.00341 0.44225
 O297 O 0.47663 0.00915 0.37919
 O298 O 0.43711 0.00319 0.43993
 Zr299 Zr 0.49897 -0.03865 0.49207
 Zr300 Zr 0.50026 0.03899 0.50122
 O301 O 0.50274 0.02579 0.44149
 O302 O 0.50208 -0.02028 0.43541
 O303 O 0.53300 0.02190 0.50369
 O304 O 0.46637 -0.02124 0.48973
 O305 O 0.53208 -0.02329 0.49859
 O306 O 0.46690 0.02387 0.49501
 H307 H 0.49672 0.03121 0.58178
 H308 H 0.45242 -0.03195 0.48628
 H309 H 0.50403 0.03870 0.41941
 H310 H 0.54559 -0.03491 0.49959
 H311 H 0.42781 0.00481 0.51678
 H312 H 0.43301 0.00444 0.41103
 H313 H 0.48599 -0.00521 0.36836
 H314 H 0.52531 -0.00666 0.37370
 H315 H 0.57372 0.00108 0.43141
 H316 H 0.56611 -0.00834 0.58277
 H317 H 0.53536 -0.00510 0.62698
 H318 H 0.45377 -0.00375 0.61660
 O319 O 0.53033 0.54238 0.07939
 O320 O 0.55648 0.52082 0.03962
 C321 C 0.55118 0.53701 0.06793
 O322 O 0.46799 0.44774 0.06951
 O323 O 0.44255 0.47275 0.03408
 C324 C 0.44732 0.45380 0.05839
 O325 O 0.53182 0.45263 0.07679
 O326 O 0.55717 0.47695 0.03938
 C327 C 0.55250 0.45971 0.06671
 O328 O 0.46612 0.54351 0.07397
 O329 O 0.44161 0.51897 0.03610
 C330 C 0.44568 0.53678 0.06252
 Zr331 Zr 0.49868 0.52958 0.05533
 O332 O 0.49715 0.52600 0.11887
 O333 O 0.49881 0.57047 0.05335
 Zr334 Zr 0.49983 0.46484 0.05357
 O335 O 0.49773 0.46781 0.11700
 O336 O 0.50236 0.42410 0.05603
 O337 O 0.51984 0.49754 0.06262
 O338 O 0.47881 0.49658 0.06108
 O339 O 0.46801 0.54585 -0.06567
 O340 O 0.44251 0.52016 -0.03100
 C341 C 0.44731 0.53890 -0.05580
 O342 O 0.53387 0.45479 -0.07051
 O343 O 0.55831 0.47758 -0.02995
 C344 C 0.55425 0.46109 -0.05833
 O345 O 0.46969 0.45063 -0.06795
 O346 O 0.44325 0.47453 -0.03269
 C347 C 0.44873 0.45662 -0.05820
 O348 O 0.53198 0.54421 -0.06855
 O349 O 0.55741 0.52134 -0.02984
 C350 C 0.55268 0.53822 -0.05760
 Zr351 Zr 0.49989 0.53121 -0.04624
 O352 O 0.49818 0.53383 -0.10985
 O353 O 0.50021 0.57185 -0.03993
 Zr354 Zr 0.50118 0.46616 -0.04832
 O355 O 0.49962 0.46674 -0.11206
 O356 O 0.50305 0.42537 -0.04647
 Zr357 Zr 0.53421 0.49863 0.00420
 Zr358 Zr 0.46547 0.49712 0.00245
 O359 O 0.48055 0.49834 -0.05532
 O360 O 0.52116 0.49927 -0.05486
 O361 O 0.47870 0.53493 0.00415
 O362 O 0.52053 0.46107 0.00304
 O363 O 0.51927 0.53555 0.00508
 O364 O 0.48023 0.45995 0.00184
 H365 H 0.46793 0.49581 0.08418
 H366 H 0.53099 0.44597 0.00309
 H367 H 0.47049 0.49853 -0.07928
 H368 H 0.52929 0.55103 0.00556
 H369 H 0.49639 0.41763 0.03012
 H370 H 0.50350 0.41958 -0.07490
 H371 H 0.51222 0.47799 -0.12191
 H372 H 0.50974 0.52175 -0.12093
 H373 H 0.50074 0.57905 -0.06768
 H374 H 0.49869 0.57651 0.08164
 H375 H 0.49630 0.54375 0.12979
 H376 H 0.49751 0.44982 0.12736
 C377 C 1.18023 0.13778 0.20128
 C378 C 1.20295 0.12865 0.20429
 C379 C 1.22035 0.14428 0.21994
 C380 C 1.21550 0.16932 0.23409
 C381 C 1.19261 0.17806 0.23248
 C382 C 1.17536 0.16273 0.21581
 C383 C 1.16184 0.12171 0.18236
 C384 C 1.13868 0.12428 0.19425
 C385 C 1.12137 0.11020 0.17525
 C386 C 1.12666 0.09253 0.14440
 C387 C 1.14987 0.08947 0.13318
 C388 C 1.16713 0.10403 0.15150
 C389 C 1.10805 0.07773 0.12375
 C390 C 1.11030 0.07046 0.08299
 C391 C 1.09267 0.05709 0.06356
 C392 C 1.07213 0.05126 0.08402
 C393 C 1.06977 0.05838 0.12459
 C394 C 1.08760 0.07111 0.14437
 H395 H 1.20746 0.10941 0.19442
 H396 H 1.23772 0.13682 0.22002
 H397 H 1.18791 0.19690 0.24385
 H398 H 1.15828 0.17083 0.21361
 H399 H 1.13377 0.13718 0.21837
 H400 H 1.10378 0.11360 0.18450
 H401 H 1.15485 0.07578 0.11020
 H402 H 1.18459 0.10165 0.14080
 H403 H 1.12543 0.07558 0.06560
 H404 H 1.09482 0.05202 0.03214
 H405 H 1.05418 0.05383 0.14119
 H406 H 1.08529 0.07561 0.17595
 C407 C 1.17788 0.65464 0.68105
 C408 C 1.17333 0.67932 0.69700
 C409 C 1.19058 0.69325 0.71653
 C410 C 1.21285 0.68299 0.72000
 C411 C 1.21753 0.65881 0.70262
 C412 C 1.20027 0.64469 0.68410
 C413 C 1.15942 0.63886 0.66233
 C414 C 1.16469 0.62125 0.63143
 C415 C 1.14787 0.60494 0.61605
 C416 C 1.12505 0.60632 0.63005
 C417 C 1.11959 0.62452 0.66003
 C418 C 1.13658 0.64035 0.67628
 C419 C 1.10710 0.58893 0.61334
 C420 C 1.08840 0.58063 0.63732
 C421 C 1.07118 0.56512 0.62106
 C422 C 1.07267 0.55693 0.58093
 C423 C 1.09154 0.56447 0.55724
 C424 C 1.10841 0.58057 0.57304
 H425 H 1.15644 0.68790 0.69458
 H426 H 1.18631 0.71178 0.72958
 H427 H 1.23461 0.65054 0.70353
 H428 H 1.20451 0.62565 0.67298
 H429 H 1.18189 0.61987 0.61908
 H430 H 1.15296 0.59098 0.59354
 H431 H 1.10216 0.62664 0.67107
 H432 H 1.13182 0.65336 0.70035
 H433 H 1.08700 0.58604 0.66870
 H434 H 1.05672 0.55946 0.63986
 H435 H 1.09274 0.55879 0.52595
 H436 H 1.12212 0.58697 0.55318
 C437 C 0.66573 0.15985 0.68044
 C438 C 0.66422 0.18294 0.70228
 C439 C 0.68401 0.19433 0.71811
 C440 C 0.70582 0.18309 0.71192
 C441 C 0.70726 0.16026 0.68922
 C442 C 0.68746 0.14873 0.67389
 C443 C 0.64476 0.14669 0.66565
 C444 C 0.64209 0.12006 0.67212
 C445 C 0.62320 0.10700 0.65663
 C446 C 0.60661 0.12008 0.63354
 C447 C 0.60874 0.14698 0.62836
 C448 C 0.62764 0.16019 0.64444
 C449 C 0.58823 0.10499 0.61323
 C450 C 0.56534 0.11381 0.61044
 C451 C 0.54825 0.09807 0.59332
 C452 C 0.55389 0.07327 0.57936
 C453 C 0.57689 0.06516 0.58062
 C454 C 0.59378 0.08079 0.59693
 H455 H 0.64766 0.19177 0.70806
 H456 H 0.68214 0.21167 0.73593
 H457 H 0.72372 0.15137 0.68293
 H458 H 0.68914 0.13112 0.65661
 H459 H 0.65473 0.10928 0.68911
 H460 H 0.62177 0.08643 0.66230
 H461 H 0.59631 0.15761 0.61069
 H462 H 0.62930 0.18078 0.63910
 H463 H 0.56055 0.13246 0.62252
 H464 H 0.53066 0.10483 0.59227
 H465 H 0.58189 0.04646 0.56888
 H466 H 0.61130 0.07375 0.59699
 C467 C 0.67836 0.64625 0.18291
 C468 C 0.67358 0.67057 0.19983
 C469 C 0.69117 0.68567 0.21582
 C470 C 0.71412 0.67718 0.21437
 C471 C 0.71894 0.65319 0.19643
 C472 C 0.70131 0.63777 0.18163
 C473 C 0.65962 0.62973 0.16679
 C474 C 0.66387 0.61283 0.13452
 C475 C 0.64655 0.59687 0.11999
 C476 C 0.62420 0.59791 0.13633
 C477 C 0.61984 0.61501 0.16830
 C478 C 0.63737 0.63045 0.18366
 C479 C 0.60554 0.58162 0.11942
 C480 C 0.58732 0.57253 0.14389
 C481 C 0.56956 0.55788 0.12735
 C482 C 0.57007 0.55141 0.08639
 C483 C 0.58834 0.56000 0.06211
 C484 C 0.60569 0.57522 0.07824
 H485 H 0.65624 0.67810 0.20072
 H486 H 0.68665 0.70384 0.22982
 H487 H 0.73639 0.64617 0.19375
 H488 H 0.70580 0.61901 0.16970
 H489 H 0.68056 0.61196 0.12003
 H490 H 0.65083 0.58362 0.09596
 H491 H 0.60282 0.61676 0.18132
 H492 H 0.63343 0.64279 0.20900
 H493 H 0.58676 0.57660 0.17584
 H494 H 0.55556 0.55139 0.14658
 H495 H 0.58875 0.55572 0.03022
 H496 H 0.61890 0.58242 0.05800
 C497 C 0.81766 -0.14589 0.18608
 C498 C 0.79460 -0.13770 0.18512
 C499 C 0.77702 -0.15328 0.20081
 C500 C 0.78195 -0.17725 0.21910
 C501 C 0.80506 -0.18517 0.22088
 C502 C 0.82256 -0.16996 0.20411
 C503 C 0.83644 -0.12958 0.16821
 C504 C 0.85891 -0.13064 0.18355
 C505 C 0.87659 -0.11596 0.16619
 C506 C 0.87229 -0.09910 0.13365
 C507 C 0.84973 -0.09766 0.11878
 C508 C 0.83218 -0.11290 0.13541
 C509 C 0.89126 -0.08334 0.11520
 C510 C 0.89091 -0.07642 0.07401
 C511 C 0.90879 -0.06195 0.05676
 C512 C 0.92775 -0.05470 0.07995
 C513 C 0.92829 -0.06154 0.12087
 C514 C 0.91011 -0.07532 0.13845
 H515 H 0.78998 -0.11914 0.17240
 H516 H 0.75951 -0.14653 0.19802
 H517 H 0.80979 -0.20316 0.23537
 H518 H 0.83992 -0.17738 0.20495
 H519 H 0.86299 -0.14273 0.20922
 H520 H 0.89371 -0.11819 0.17820
 H521 H 0.84545 -0.08465 0.09433
 H522 H 0.81533 -0.11173 0.12202
 H523 H 0.87710 -0.08261 0.05467
 H524 H 0.90815 -0.05713 0.02496
 H525 H 0.94267 -0.05590 0.13942
 H526 H 0.91088 -0.07949 0.17040
 C527 C 0.82094 0.34602 0.66574
 C528 C 0.79933 0.35694 0.67362
 C529 C 0.78197 0.34255 0.69223
 C530 C 0.78565 0.31673 0.70493
 C531 C 0.80726 0.30561 0.69576
 C532 C 0.82454 0.32001 0.67643
 C533 C 0.83972 0.36213 0.64780
 C534 C 0.86269 0.35849 0.65944
 C535 C 0.88006 0.37471 0.64467
 C536 C 0.87493 0.39533 0.61836
 C537 C 0.85202 0.39867 0.60617
 C538 C 0.83473 0.38216 0.62033
 C539 C 0.89332 0.41335 0.60402
 C540 C 0.89239 0.42464 0.56532
 C541 C 0.90975 0.44132 0.55185
 C542 C 0.92868 0.44669 0.57640
 C543 C 0.92966 0.43562 0.61505
 C544 C 0.91205 0.41941 0.62890
 H545 H 0.79579 0.37693 0.66615
 H546 H 0.76550 0.35196 0.69559
 H547 H 0.81154 0.28616 0.70505
 H548 H 0.84084 0.31073 0.67024
 H549 H 0.86726 0.34351 0.68081
 H550 H 0.89753 0.37106 0.65406
 H551 H 0.84725 0.41440 0.58630
 H552 H 0.81738 0.38529 0.60988
 H553 H 0.87857 0.42012 0.54490
 H554 H 0.90880 0.44923 0.52160
 H555 H 0.94406 0.43953 0.63460
 H556 H 0.91316 0.41170 0.65921
 C557 C 0.33741 -0.16480 0.68268
 C558 C 0.32755 -0.15398 0.71757
 C559 C 0.30778 -0.16472 0.73498
 C560 C 0.29747 -0.18662 0.71803
 C561 C 0.30763 -0.19783 0.68373
 C562 C 0.32738 -0.18704 0.66624
 C563 C 0.35717 -0.15197 0.66218
 C564 C 0.37518 -0.16640 0.64477
 C565 C 0.39308 -0.15397 0.62377
 C566 C 0.39310 -0.12696 0.61946
 C567 C 0.37538 -0.11261 0.63769
 C568 C 0.35766 -0.12493 0.65868
 C569 C 0.41094 -0.11330 0.59530
 C570 C 0.40428 -0.09326 0.56923
 C571 C 0.42067 -0.07743 0.55101
 C572 C 0.44411 -0.08142 0.55798
 C573 C 0.45110 -0.10257 0.58153
 C574 C 0.43453 -0.11850 0.60016
 H575 H 0.33510 -0.13712 0.73141
 H576 H 0.30062 -0.15598 0.76186
 H577 H 0.29995 -0.21458 0.66977
 H578 H 0.33436 -0.19563 0.63909
 H579 H 0.37538 -0.18727 0.64732
 H580 H 0.40655 -0.16547 0.61008
 H581 H 0.37515 -0.09171 0.63548
 H582 H 0.34397 -0.11325 0.67129
 H583 H 0.38627 -0.08917 0.56418
 H584 H 0.41499 -0.06124 0.53276
 H585 H 0.46916 -0.10574 0.58751
 H586 H 0.44010 -0.13387 0.62010
 C587 C 0.31843 0.34234 0.16644
 C588 C 0.30479 0.35330 0.19680
 C589 C 0.28746 0.33902 0.21559
 C590 C 0.28303 0.31312 0.20465
 C591 C 0.29712 0.30209 0.17439
 C592 C 0.31453 0.31654 0.15556
 C593 C 0.33685 0.35790 0.14692
 C594 C 0.35861 0.34717 0.13935
 C595 C 0.37636 0.36248 0.12361
 C596 C 0.37270 0.38881 0.11506
 C597 C 0.35075 0.39933 0.12165
 C598 C 0.33303 0.38404 0.13734
 C599 C 0.39181 0.40546 0.10037
 C600 C 0.38801 0.42444 0.07067
 C601 C 0.40595 0.44038 0.05745
 C602 C 0.42809 0.43767 0.07359
 C603 C 0.43186 0.41871 0.10333
 C604 C 0.41392 0.40282 0.11660
 H605 H 0.30786 0.37289 0.20677
 H606 H 0.27831 0.34827 0.24007
 H607 H 0.29429 0.28264 0.16378
 H608 H 0.32467 0.30766 0.13189
 H609 H 0.36210 0.32713 0.14661
 H610 H 0.39300 0.35373 0.11829
 H611 H 0.34740 0.41957 0.11568
 H612 H 0.31634 0.39276 0.14229
 H613 H 0.37123 0.42674 0.05724
 H614 H 0.40250 0.45460 0.03418
 H615 H 0.44869 0.41614 0.11647
 H616 H 0.41729 0.38869 0.14002
 C617 C 0.81947 0.14379 -0.18864
 C618 C 0.79656 0.13500 -0.18883
 C619 C 0.77897 0.15028 -0.20487
 C620 C 0.78373 0.17458 -0.22236
 C621 C 0.80669 0.18313 -0.22292
 C622 C 0.82419 0.16818 -0.20585
 C623 C 0.83825 0.12774 -0.17047
 C624 C 0.86103 0.12957 -0.18481
 C625 C 0.87864 0.11503 -0.16728
 C626 C 0.87403 0.09760 -0.13549
 C627 C 0.85119 0.09544 -0.12158
 C628 C 0.83367 0.11049 -0.13839
 C629 C 0.89291 0.08195 -0.11684
 C630 C 0.89178 0.07432 -0.07597
 C631 C 0.90948 0.05984 -0.05856
 C632 C 0.92905 0.05321 -0.08118
 C633 C 0.93041 0.06085 -0.12176
 C634 C 0.91244 0.07469 -0.13954
 H635 H 0.79208 0.11619 -0.17677
 H636 H 0.76156 0.14302 -0.20295
 H637 H 0.81133 0.20141 -0.23671
 H638 H 0.84139 0.17607 -0.20583
 H639 H 0.86541 0.14212 -0.20988
 H640 H 0.89595 0.11781 -0.17857
 H641 H 0.84665 0.08198 -0.09776
 H642 H 0.81657 0.10871 -0.12572
 H643 H 0.87748 0.07993 -0.05697
 H644 H 0.90818 0.05448 -0.02700
 H645 H 0.94528 0.05580 -0.13991
 H646 H 0.91387 0.07946 -0.17124
 C647 C 0.82731 0.65335 0.31399
 C648 C 0.82169 0.67795 0.32874
 C649 C 0.80342 0.69199 0.31223
 C650 C 0.78998 0.68151 0.28099
 C651 C 0.79624 0.65697 0.26593
 C652 C 0.81454 0.64318 0.28218
 C653 C 0.84608 0.63785 0.33195
 C654 C 0.86132 0.62408 0.30703
 C655 C 0.87809 0.60810 0.32373
 C656 C 0.87999 0.60549 0.36575
 C657 C 0.86493 0.61949 0.39074
 C658 C 0.84818 0.63561 0.37399
 C659 C 0.89780 0.58838 0.38326
 C660 C 0.89272 0.57216 0.41628
 C661 C 0.90971 0.55628 0.43285
 C662 C 0.93214 0.55645 0.41685
 C663 C 0.93709 0.57249 0.38355
 C664 C 0.92012 0.58822 0.36694
 H665 H 0.83139 0.68630 0.35317
 H666 H 0.79926 0.71044 0.32559
 H667 H 0.78745 0.64841 0.24067
 H668 H 0.81847 0.62425 0.27019
 H669 H 0.86021 0.62563 0.27453
 H670 H 0.88934 0.59742 0.30372
 H671 H 0.86619 0.61808 0.42323
 H672 H 0.83652 0.64583 0.39387
 H673 H 0.87558 0.57169 0.42918
 H674 H 0.90538 0.54428 0.45866
 H675 H 0.95420 0.57318 0.37054
 H676 H 0.92461 0.60071 0.34180
 C677 C 0.33377 0.16104 0.33175
 C678 C 0.32858 0.18728 0.33550
 C679 C 0.30839 0.19736 0.31915
 C680 C 0.29294 0.18160 0.29727
 C681 C 0.29860 0.15505 0.29381
 C682 C 0.31856 0.14495 0.31119
 C683 C 0.35505 0.15046 0.34933
 C684 C 0.35388 0.13183 0.38013
 C685 C 0.37401 0.12153 0.39644
 C686 C 0.39561 0.12928 0.38157
 C687 C 0.39677 0.14792 0.35070
 C688 C 0.37662 0.15871 0.33509
 C689 C 0.41663 0.11637 0.39635
 C690 C 0.43089 0.10301 0.36924
 C691 C 0.44833 0.08690 0.38357
 C692 C 0.45221 0.08447 0.42514
 C693 C 0.43906 0.09927 0.45206
 C694 C 0.42122 0.11491 0.43782
 H695 H 0.33999 0.19992 0.35189
 H696 H 0.30490 0.21745 0.32525
 H697 H 0.28835 0.14185 0.27640
 H698 H 0.32244 0.12460 0.30771
 H699 H 0.33738 0.12528 0.39150
 H700 H 0.37273 0.10690 0.41983
 H701 H 0.41325 0.15401 0.33863
 H702 H 0.37782 0.17304 0.31124
 H703 H 0.42752 0.10369 0.33718
 H704 H 0.45806 0.07531 0.36237
 H705 H 0.44136 0.09711 0.48419
 H706 H 0.41038 0.12503 0.45924
 C707 C 0.31985 0.64858 -0.16763
 C708 C 0.31538 0.67333 -0.15247
 C709 C 0.29806 0.68865 -0.16925
 C710 C 0.28444 0.67928 -0.20109
 C711 C 0.28910 0.65419 -0.21571
 C712 C 0.30658 0.63919 -0.19933
 C713 C 0.33854 0.63252 -0.15107
 C714 C 0.35420 0.62044 -0.17725
 C715 C 0.37160 0.60475 -0.16198
 C716 C 0.37349 0.60065 -0.12028
 C717 C 0.35776 0.61261 -0.09405
 C718 C 0.34050 0.62861 -0.10933
 C719 C 0.39216 0.58431 -0.10430
 C720 C 0.38760 0.56519 -0.07514
 C721 C 0.40540 0.54987 -0.06014
 C722 C 0.42813 0.55374 -0.07351
 C723 C 0.43256 0.57283 -0.10289
 C724 C 0.41475 0.58786 -0.11823
 H725 H 0.32549 0.68095 -0.12796
 H726 H 0.29493 0.70742 -0.15610
 H727 H 0.28003 0.64631 -0.24121
 H728 H 0.30976 0.62013 -0.21152
 H729 H 0.35306 0.62329 -0.20955
 H730 H 0.38346 0.59560 -0.18278
 H731 H 0.35902 0.60984 -0.06176
 H732 H 0.32847 0.63760 -0.08865
 H733 H 0.37025 0.56199 -0.06422
 H734 H 0.40140 0.53521 -0.03778
 H735 H 0.44985 0.57638 -0.11386
 H736 H 0.41869 0.60266 -0.14044
 C737 C 1.18370 -0.14284 -0.18675
 C738 C 1.20669 -0.13438 -0.18729
 C739 C 1.22425 -0.15022 -0.20217
 C740 C 1.21933 -0.17479 -0.21793
 C741 C 1.19627 -0.18298 -0.21830
 C742 C 1.17881 -0.16744 -0.20245
 C743 C 1.16499 -0.12637 -0.16940
 C744 C 1.14238 -0.12795 -0.18396
 C745 C 1.12469 -0.11339 -0.16660
 C746 C 1.12912 -0.09620 -0.13483
 C747 C 1.15185 -0.09413 -0.12097
 C748 C 1.16942 -0.10921 -0.13760
 C749 C 1.11010 -0.08094 -0.11586
 C750 C 1.11086 -0.07416 -0.07477
 C751 C 1.09290 -0.06029 -0.05688
 C752 C 1.07346 -0.05349 -0.07929
 C753 C 1.07251 -0.06017 -0.12013
 C754 C 1.09075 -0.07339 -0.13838
 H755 H 1.21126 -0.11543 -0.17628
 H756 H 1.24175 -0.14325 -0.20063
 H757 H 1.19156 -0.20147 -0.23088
 H758 H 1.16150 -0.17504 -0.20202
 H759 H 1.13819 -0.14043 -0.20890
 H760 H 1.10746 -0.11603 -0.17786
 H761 H 1.15621 -0.08081 -0.09718
 H762 H 1.18643 -0.10761 -0.12491
 H763 H 1.12505 -0.08007 -0.05597
 H764 H 1.09387 -0.05562 -0.02513
 H765 H 1.05774 -0.05491 -0.13809
 H766 H 1.08964 -0.07754 -0.17022
 C767 C 1.17776 0.34361 0.32674
 C768 C 1.17264 0.31864 0.31261
 C769 C 1.18938 0.30386 0.29274
 C770 C 1.21175 0.31354 0.28703
 C771 C 1.21700 0.33812 0.30242
 C772 C 1.20022 0.35305 0.32135
 C773 C 1.15981 0.36017 0.34597
 C774 C 1.16571 0.37827 0.37569
 C775 C 1.14930 0.39520 0.39147
 C776 C 1.12633 0.39415 0.37874
 C777 C 1.12024 0.37540 0.35012
 C778 C 1.13677 0.35884 0.33368
 C779 C 1.10885 0.41254 0.39500
 C780 C 1.09043 0.42088 0.37092
 C781 C 1.07340 0.43703 0.38668
 C782 C 1.07470 0.44582 0.42652
 C783 C 1.09347 0.43846 0.45022
 C784 C 1.11023 0.42177 0.43482
 H785 H 1.15569 0.31044 0.31682
 H786 H 1.18464 0.28508 0.28126
 H787 H 1.23417 0.34602 0.29976
 H788 H 1.20488 0.37227 0.33101
 H789 H 1.18311 0.37954 0.38678
 H790 H 1.15482 0.40943 0.41312
 H791 H 1.10265 0.37344 0.34025
 H792 H 1.13149 0.34540 0.31066
 H793 H 1.08904 0.41492 0.33982
 H794 H 1.05912 0.44259 0.36775
 H795 H 1.09462 0.44467 0.48123
 H796 H 1.12385 0.41552 0.45463
 C797 C 0.66098 -0.16514 0.30663
 C798 C 0.67184 -0.18461 0.32933
 C799 C 0.69245 -0.19564 0.31590
 C800 C 0.70277 -0.18727 0.27970
 C801 C 0.69181 -0.16815 0.25669
 C802 C 0.67109 -0.15735 0.26982
 C803 C 0.64014 -0.15177 0.32246
 C804 C 0.63765 -0.12501 0.31665
 C805 C 0.61929 -0.11176 0.33398
 C806 C 0.60301 -0.12474 0.35815
 C807 C 0.60478 -0.15166 0.36272
 C808 C 0.62322 -0.16507 0.34506
 C809 C 0.58568 -0.10945 0.38083
 C810 C 0.56230 -0.11651 0.38305
 C811 C 0.54618 -0.10006 0.40176
 C812 C 0.55340 -0.07642 0.41802
 C813 C 0.57689 -0.07032 0.41763
 C814 C 0.59277 -0.08661 0.39955
 H815 H 0.66480 -0.19080 0.35809
 H816 H 0.70062 -0.21032 0.33427
 H817 H 0.69918 -0.16173 0.22827
 H818 H 0.66300 -0.14282 0.25110
 H819 H 0.65040 -0.11400 0.30000
 H820 H 0.61818 -0.09106 0.32939
 H821 H 0.59248 -0.16214 0.38119
 H822 H 0.62442 -0.18576 0.34960
 H823 H 0.55643 -0.13415 0.36909
 H824 H 0.52815 -0.10522 0.40205
 H825 H 0.58302 -0.05257 0.43098
 H826 H 0.61072 -0.08107 0.39961
 C827 C 0.68098 0.34878 -0.17166
 C828 C 0.70404 0.35692 -0.17197
 C829 C 0.72119 0.34161 -0.18915
 C830 C 0.71574 0.31807 -0.20782
 C831 C 0.69279 0.30960 -0.20678
 C832 C 0.67570 0.32460 -0.18855
 C833 C 0.66256 0.36575 -0.15483
 C834 C 0.64025 0.36539 -0.17087
 C835 C 0.62312 0.38161 -0.15563
 C836 C 0.62792 0.39921 -0.12461
 C837 C 0.65028 0.39972 -0.10881
 C838 C 0.66722 0.38299 -0.12326
 C839 C 0.60963 0.41655 -0.10835
 C840 C 0.60965 0.42394 -0.06755
 C841 C 0.59216 0.43946 -0.05193
 C842 C 0.57392 0.44742 -0.07637
 C843 C 0.57381 0.44036 -0.11710
 C844 C 0.59165 0.42542 -0.13310
 H845 H 0.70894 0.37548 -0.15987
 H846 H 0.73874 0.34847 -0.18817
 H847 H 0.68786 0.29167 -0.22097
 H848 H 0.65830 0.31724 -0.18806
 H849 H 0.63595 0.35281 -0.19563
 H850 H 0.60605 0.38012 -0.16809
 H851 H 0.65487 0.41319 -0.08539
 H852 H 0.68398 0.38361 -0.10940
 H853 H 0.62275 0.41709 -0.04715
 H854 H 0.59233 0.44425 -0.02023
 H855 H 0.55989 0.44638 -0.13652
 H856 H 0.59125 0.42078 -0.16485
 C857 C 1.16359 0.16360 -0.18987
 C858 C 1.15427 0.17899 -0.22062
 C859 C 1.16674 0.19945 -0.23736
 C860 C 1.18912 0.20529 -0.22399
 C861 C 1.19882 0.18886 -0.19438
 C862 C 1.18618 0.16841 -0.17750
 C863 C 1.14931 0.14326 -0.17014
 C864 C 1.15856 0.11903 -0.15953
 C865 C 1.14450 0.09978 -0.14250
 C866 C 1.12098 0.10442 -0.13606
 C867 C 1.11199 0.12888 -0.14552
 C868 C 1.12596 0.14805 -0.16222
 C869 C 1.10537 0.08399 -0.12047
 C870 C 1.08391 0.08052 -0.13863
 C871 C 1.06769 0.06393 -0.12155
 C872 C 1.07246 0.05032 -0.08578
 C873 C 1.09450 0.05242 -0.06896
 C874 C 1.11086 0.06916 -0.08621
 H875 H 1.13717 0.17522 -0.23185
 H876 H 1.15880 0.21020 -0.26158
 H877 H 1.21565 0.19254 -0.18208
 H878 H 1.19379 0.15700 -0.15361
 H879 H 1.17647 0.11475 -0.16537
 H880 H 1.15182 0.08106 -0.13547
 H881 H 1.09404 0.13320 -0.13995
 H882 H 1.11843 0.16672 -0.16890
 H883 H 1.07943 0.09127 -0.16557
 H884 H 1.05104 0.06250 -0.13574
 H885 H 1.09873 0.04211 -0.04152
 H886 H 1.12733 0.07148 -0.07170
 C887 C 1.16552 0.67164 0.32941
 C888 C 1.18861 0.67542 0.33978
 C889 C 1.20120 0.69604 0.32323
 C890 C 1.19102 0.71363 0.29581
 C891 C 1.16786 0.70933 0.28529
 C892 C 1.15544 0.68871 0.30167
 C893 C 1.15170 0.65023 0.34739
 C894 C 1.12854 0.65445 0.35763
 C895 C 1.11479 0.63418 0.37146
 C896 C 1.12382 0.60916 0.37577
 C897 C 1.14721 0.60501 0.36741
 C898 C 1.16104 0.62538 0.35318
 C899 C 1.10828 0.58770 0.38771
 C900 C 1.11373 0.57066 0.41939
 C901 C 1.09727 0.55301 0.43395
 C902 C 1.07517 0.55224 0.41701
 C903 C 1.07057 0.56795 0.38329
 C904 C 1.08688 0.58546 0.36893
 H905 H 1.19680 0.66279 0.36148
 H906 H 1.21861 0.69862 0.33357
 H907 H 1.15934 0.72114 0.26292
 H908 H 1.13789 0.68588 0.29198
 H909 H 1.12096 0.67348 0.35471
 H910 H 1.09692 0.63804 0.37861
 H911 H 1.15456 0.58588 0.37053
 H912 H 1.17881 0.62149 0.34547
 H913 H 1.13020 0.57192 0.43421
 H914 H 1.10146 0.54095 0.45962
 H915 H 1.05392 0.56761 0.36894
 H916 H 1.08246 0.59795 0.34384
 C917 C 0.65366 0.19153 0.34570
 C918 C 0.67139 0.18036 0.32254
 C919 C 0.68663 0.19589 0.30045
 C920 C 0.68431 0.22287 0.30086
 C921 C 0.66689 0.23406 0.32458
 C922 C 0.65174 0.21857 0.34680
 C923 C 0.63676 0.17496 0.36738
 C924 C 0.61323 0.18131 0.36764
 C925 C 0.59709 0.16444 0.38482
 C926 C 0.60419 0.14089 0.40176
 C927 C 0.62775 0.13514 0.40323
 C928 C 0.64387 0.15201 0.38630
 C929 C 0.58717 0.12113 0.41407
 C930 C 0.58976 0.09585 0.39986
 C931 C 0.57412 0.07674 0.41082
 C932 C 0.55547 0.08230 0.43657
 C933 C 0.55260 0.10776 0.45043
 C934 C 0.56829 0.12710 0.43902
 H935 H 0.67311 0.15957 0.32057
 H936 H 0.69980 0.18681 0.28215
 H937 H 0.66501 0.25486 0.32600
 H938 H 0.63855 0.22776 0.36489
 H939 H 0.60718 0.19874 0.35298
 H940 H 0.57899 0.16917 0.38304
 H941 H 0.63364 0.11722 0.41668
 H942 H 0.66189 0.14686 0.38741
 H943 H 0.60389 0.09089 0.37992
 H944 H 0.57691 0.05744 0.39929
 H945 H 0.53849 0.11264 0.47044
 H946 H 0.56597 0.14655 0.45026
 C947 C 0.66771 0.65985 -0.17997
 C948 C 0.65857 0.67129 -0.21461
 C949 C 0.66998 0.69147 -0.23389
 C950 C 0.69090 0.70119 -0.21887
 C951 C 0.70091 0.68819 -0.18570
 C952 C 0.68933 0.66776 -0.16636
 C953 C 0.65348 0.64114 -0.15718
 C954 C 0.66152 0.61629 -0.14751
 C955 C 0.64650 0.59793 -0.13058
 C956 C 0.62336 0.60434 -0.12316
 C957 C 0.61590 0.62970 -0.13069
 C958 C 0.63076 0.64784 -0.14758
 C959 C 0.60646 0.58483 -0.10907
 C960 C 0.58448 0.58444 -0.12621
 C961 C 0.56736 0.56852 -0.11040
 C962 C 0.57183 0.55238 -0.07721
 C963 C 0.59426 0.55143 -0.06169
 C964 C 0.61145 0.56762 -0.07744
 H965 H 0.64223 0.66488 -0.22640
 H966 H 0.66227 0.69924 -0.26095
 H967 H 0.71686 0.69476 -0.17273
 H968 H 0.69669 0.65904 -0.13965
 H969 H 0.67903 0.61081 -0.15463
 H970 H 0.65268 0.57852 -0.12484
 H971 H 0.59837 0.63541 -0.12416
 H972 H 0.62435 0.66707 -0.15401
 H973 H 0.58035 0.59696 -0.15142
 H974 H 0.55043 0.56939 -0.12364
 H975 H 0.59832 0.53891 -0.03648
 H976 H 0.62831 0.56746 -0.06384
 C977 C 0.83198 -0.15972 -0.19003
 C978 C 0.83460 -0.16581 -0.23115
 C979 C 0.82190 -0.18576 -0.24838
 C980 C 0.80589 -0.19974 -0.22522
 C981 C 0.80227 -0.19290 -0.18477
 C982 C 0.81530 -0.17320 -0.16725
 C983 C 0.84767 -0.14070 -0.17064
 C984 C 0.84020 -0.12482 -0.13874
 C985 C 0.85558 -0.10819 -0.11936
 C986 C 0.87877 -0.10703 -0.13150
 C987 C 0.88598 -0.12232 -0.16414
 C988 C 0.87076 -0.13903 -0.18313
 C989 C 0.89580 -0.09082 -0.10977
 C990 C 0.91823 -0.10013 -0.10417
 C991 C 0.93492 -0.08478 -0.08635
 C992 C 0.92968 -0.05973 -0.07298
 C993 C 0.90703 -0.05064 -0.07682
 C994 C 0.89024 -0.06602 -0.09525
 H995 H 0.84675 -0.15542 -0.25003
 H996 H 0.82475 -0.19050 -0.27979
 H997 H 0.79008 -0.20354 -0.16628
 H998 H 0.81294 -0.16932 -0.13546
 H999 H 0.82249 -0.12531 -0.12859
 H1000 H 0.84946 -0.09675 -0.09425
 H1001 H 0.90357 -0.12158 -0.17493
 H1002 H 0.87737 -0.15117 -0.20702
 H1003 H 0.92299 -0.11940 -0.11368
 H1004 H 0.95206 -0.09265 -0.08305
 H1005 H 0.90248 -0.03145 -0.06664
 H1006 H 0.87313 -0.05825 -0.09911
 C1007 C 0.83901 0.33446 0.31759
 C1008 C 0.84311 0.32470 0.27865
 C1009 C 0.83055 0.30373 0.26430
 C1010 C 0.81332 0.29235 0.28821
 C1011 C 0.80864 0.30248 0.32656
 C1012 C 0.82147 0.32320 0.34125
 C1013 C 0.85383 0.35525 0.33421
 C1014 C 0.84501 0.37382 0.36110
 C1015 C 0.85957 0.39196 0.37896
 C1016 C 0.88322 0.39195 0.37016
 C1017 C 0.89177 0.37418 0.34187
 C1018 C 0.87736 0.35595 0.32447
 C1019 C 0.89938 0.40921 0.39168
 C1020 C 0.92093 0.39960 0.40314
 C1021 C 0.93700 0.41563 0.42104
 C1022 C 0.93194 0.44169 0.42859
 C1023 C 0.91003 0.45123 0.41908
 C1024 C 0.89386 0.43510 0.40054
 H1025 H 0.85605 0.33324 0.25915
 H1026 H 0.83413 0.29654 0.23429
 H1027 H 0.79541 0.29396 0.34551
 H1028 H 0.81805 0.32987 0.37157
 H1029 H 0.82690 0.37417 0.36871
 H1030 H 0.85245 0.40540 0.40061
 H1031 H 0.90980 0.37402 0.33364
 H1032 H 0.88491 0.34185 0.30435
 H1033 H 0.92547 0.37957 0.39814
 H1034 H 0.95356 0.40755 0.42892
 H1035 H 0.90571 0.47125 0.42472
 H1036 H 0.87736 0.44305 0.39213
 C1037 C 0.35425 -0.17844 0.29891
 C1038 C 0.35656 -0.18909 0.26020
 C1039 C 0.33981 -0.20568 0.24513
 C1040 C 0.32039 -0.21223 0.26848
 C1041 C 0.31773 -0.20109 0.30677
 C1042 C 0.33447 -0.18436 0.32180
 C1043 C 0.37259 -0.16158 0.31543
 C1044 C 0.37869 -0.16314 0.35633
 C1045 C 0.39590 -0.14725 0.37182
 C1046 C 0.40749 -0.12945 0.34677
 C1047 C 0.40164 -0.12820 0.30574
 C1048 C 0.38437 -0.14398 0.29032
 C1049 C 0.42463 -0.11125 0.36378
 C1050 C 0.42519 -0.08540 0.35066
 C1051 C 0.43982 -0.06760 0.36866
 C1052 C 0.45425 -0.07508 0.40050
 C1053 C 0.45443 -0.10116 0.41263
 C1054 C 0.43976 -0.11906 0.39446
 H1055 H 0.37162 -0.18515 0.24184
 H1056 H 0.34221 -0.21366 0.21529
 H1057 H 0.30307 -0.20591 0.32562
 H1058 H 0.33195 -0.17615 0.35146
 H1059 H 0.37024 -0.17677 0.37639
 H1060 H 0.39975 -0.14850 0.40365
 H1061 H 0.41038 -0.11493 0.28548
 H1062 H 0.38000 -0.14207 0.25877
 H1063 H 0.41360 -0.07859 0.32752
 H1064 H 0.43920 -0.04770 0.35843
 H1065 H 0.46533 -0.10759 0.43703
 H1066 H 0.44003 -0.13894 0.40481
 C1067 C 0.33297 0.33744 -0.17767
 C1068 C 0.34395 0.31381 -0.18428
 C1069 C 0.33201 0.29311 -0.20055
 C1070 C 0.30872 0.29557 -0.21174
 C1071 C 0.29753 0.31925 -0.20307
 C1072 C 0.30955 0.33988 -0.18605
 C1073 C 0.34660 0.35953 -0.16365
 C1074 C 0.34158 0.37161 -0.12689
 C1075 C 0.35680 0.38985 -0.11114
 C1076 C 0.37708 0.39629 -0.13224
 C1077 C 0.38109 0.38542 -0.17038
 C1078 C 0.36610 0.36705 -0.18573
 C1079 C 0.39509 0.41237 -0.11344
 C1080 C 0.41824 0.40519 -0.11764
 C1081 C 0.43551 0.41973 -0.09999
 C1082 C 0.43010 0.44176 -0.07730
 C1083 C 0.40692 0.44893 -0.07265
 C1084 C 0.38954 0.43434 -0.09062
 H1085 H 0.36194 0.31140 -0.17691
 H1086 H 0.34125 0.27509 -0.20351
 H1087 H 0.27990 0.32273 -0.21147
 H1088 H 0.30083 0.35809 -0.18103
 H1089 H 0.32659 0.36592 -0.10946
 H1090 H 0.35333 0.39783 -0.08162
 H1091 H 0.39625 0.39049 -0.18779
 H1092 H 0.37007 0.35810 -0.21440
 H1093 H 0.42305 0.38797 -0.13407
 H1094 H 0.45313 0.41342 -0.10375
 H1095 H 0.40221 0.46580 -0.05529
 H1096 H 0.37183 0.44036 -0.08698
 C1097 C 1.16672 -0.15824 0.19610
 C1098 C 1.19030 -0.15607 0.20329
 C1099 C 1.20258 -0.17690 0.21969
 C1100 C 1.19164 -0.20078 0.22866
 C1101 C 1.16788 -0.20263 0.22012
 C1102 C 1.15567 -0.18165 0.20464
 C1103 C 1.15322 -0.13630 0.18009
 C1104 C 1.13385 -0.12767 0.20141
 C1105 C 1.11924 -0.10924 0.18455
 C1106 C 1.12335 -0.09942 0.14549
 C1107 C 1.14344 -0.10715 0.12495
 C1108 C 1.15833 -0.12536 0.14224
 C1109 C 1.10566 -0.08305 0.12542
 C1110 C 1.11162 -0.06264 0.09906
 C1111 C 1.09450 -0.04807 0.07973
 C1112 C 1.07111 -0.05360 0.08653
 C1113 C 1.06532 -0.07396 0.11296
 C1114 C 1.08228 -0.08850 0.13185
 H1115 H 1.19910 -0.13801 0.19718
 H1116 H 1.22044 -0.17358 0.22651
 H1117 H 1.15848 -0.22050 0.22373
 H1118 H 1.13752 -0.18388 0.19856
 H1119 H 1.12976 -0.13566 0.23086
 H1120 H 1.10433 -0.10320 0.20177
 H1121 H 1.14707 -0.10013 0.09476
 H1122 H 1.17318 -0.13187 0.12526
 H1123 H 1.12947 -0.05785 0.09355
 H1124 H 1.09956 -0.03258 0.05945
 H1125 H 1.04756 -0.07912 0.11864
 H1126 H 1.07696 -0.10450 0.15090
 C1127 C 1.16286 0.33737 0.68915
 C1128 C 1.15830 0.31240 0.67481
 C1129 C 1.17030 0.29110 0.68984
 C1130 C 1.18726 0.29436 0.71920
 C1131 C 1.19187 0.31931 0.73359
 C1132 C 1.17965 0.34062 0.71889
 C1133 C 1.14988 0.35981 0.67320
 C1134 C 1.14640 0.36255 0.63153
 C1135 C 1.13291 0.38269 0.61649
 C1136 C 1.12237 0.40026 0.64287
 C1137 C 1.12627 0.39792 0.68448
 C1138 C 1.14009 0.37801 0.69949
 C1139 C 1.10580 0.41945 0.62712
 C1140 C 1.08370 0.42096 0.64404
 C1141 C 1.06693 0.43645 0.62623
 C1142 C 1.07195 0.45102 0.59135
 C1143 C 1.09448 0.45065 0.57579
 C1144 C 1.11119 0.43477 0.59327
 H1145 H 1.14526 0.30933 0.65220
 H1146 H 1.16657 0.27208 0.67808
 H1147 H 1.20480 0.32226 0.75644
 H1148 H 1.18355 0.35969 0.73029
 H1149 H 1.15390 0.34889 0.61062
 H1150 H 1.12994 0.38391 0.58434
 H1151 H 1.11832 0.41128 0.70537
 H1152 H 1.14244 0.37627 0.73175
 H1153 H 1.07908 0.40919 0.66995
 H1154 H 1.04980 0.43636 0.63916
 H1155 H 1.09900 0.46186 0.54927
 H1156 H 1.12820 0.43407 0.57993
 C1157 C 0.64881 -0.18615 0.66305
 C1158 C 0.64375 -0.21233 0.66936
 C1159 C 0.65938 -0.22859 0.68835
 C1160 C 0.68063 -0.21925 0.70273
 C1161 C 0.68604 -0.19307 0.69488
 C1162 C 0.67029 -0.17677 0.67548
 C1163 C 0.63116 -0.16876 0.64523
 C1164 C 0.62834 -0.14344 0.65948
 C1165 C 0.61056 -0.12784 0.64514
 C1166 C 0.59488 -0.13728 0.61663
 C1167 C 0.59800 -0.16243 0.60177
 C1168 C 0.61601 -0.17787 0.61562
 C1169 C 0.57561 -0.12076 0.60228
 C1170 C 0.56829 -0.12168 0.56192
 C1171 C 0.55177 -0.10430 0.54771
 C1172 C 0.54257 -0.08543 0.57339
 C1173 C 0.54892 -0.08534 0.61409
 C1174 C 0.56503 -0.10301 0.62851
 H1175 H 0.62739 -0.22033 0.66043
 H1176 H 0.65465 -0.24875 0.69082
 H1177 H 0.70187 -0.18456 0.70528
 H1178 H 0.67490 -0.15672 0.67061
 H1179 H 0.63949 -0.13583 0.68254
 H1180 H 0.60912 -0.10834 0.65650
 H1181 H 0.58627 -0.17043 0.57996
 H1182 H 0.61791 -0.19710 0.60334
 H1183 H 0.57617 -0.13487 0.54072
 H1184 H 0.54743 -0.10442 0.51599
 H1185 H 0.54201 -0.07094 0.63444
 H1186 H 0.56965 -0.10227 0.66003
 C1187 C 0.67235 0.34260 0.17813
 C1188 C 0.66802 0.31753 0.16413
 C1189 C 0.67896 0.29634 0.18170
 C1190 C 0.69471 0.30004 0.21288
 C1191 C 0.69982 0.32515 0.22576
 C1192 C 0.68850 0.34632 0.20877
 C1193 C 0.65847 0.36437 0.16314
 C1194 C 0.65597 0.36856 0.12159
 C1195 C 0.64051 0.38709 0.10751
 C1196 C 0.62711 0.40140 0.13481
 C1197 C 0.63026 0.39784 0.17639
 C1198 C 0.64593 0.37955 0.19045
 C1199 C 0.60858 0.41830 0.11987
 C1200 C 0.58632 0.41599 0.13604
 C1201 C 0.56816 0.42993 0.11941
 C1202 C 0.57199 0.44666 0.08655
 C1203 C 0.59449 0.44976 0.07150
 C1204 C 0.61258 0.43550 0.08777
 H1205 H 0.65543 0.31427 0.14080
 H1206 H 0.67488 0.27704 0.17149
 H1207 H 0.71187 0.32824 0.25000
 H1208 H 0.69201 0.36554 0.21996
 H1209 H 0.66556 0.35703 0.10011
 H1210 H 0.63822 0.38937 0.07531
 H1211 H 0.62017 0.40876 0.19793
 H1212 H 0.64745 0.37636 0.22262
 H1213 H 0.58279 0.40263 0.16056
 H1214 H 0.55107 0.42719 0.13178
 H1215 H 0.59806 0.46266 0.04642
 H1216 H 0.62966 0.43767 0.07500
 C1217 C 0.83523 0.16526 0.18335
 C1218 C 0.81431 0.16059 0.20333
 C1219 C 0.80223 0.18102 0.22126
 C1220 C 0.81074 0.20650 0.21893
 C1221 C 0.83127 0.21105 0.19739
 C1222 C 0.84346 0.19066 0.18020
 C1223 C 0.84934 0.14387 0.16739
 C1224 C 0.87206 0.14122 0.18038
 C1225 C 0.88654 0.12299 0.16281
 C1226 C 0.87880 0.10729 0.13119
 C1227 C 0.85566 0.10906 0.11948
 C1228 C 0.84098 0.12719 0.13763
 C1229 C 0.89548 0.09060 0.10928
 C1230 C 0.88979 0.06553 0.09633
 C1231 C 0.90645 0.04981 0.07777
 C1232 C 0.92902 0.05892 0.07226
 C1233 C 0.93428 0.08430 0.08378
 C1234 C 0.91776 0.09993 0.10174
 H1235 H 0.80775 0.14108 0.20619
 H1236 H 0.78659 0.17675 0.23782
 H1237 H 0.83800 0.23043 0.19375
 H1238 H 0.85945 0.19468 0.16445
 H1239 H 0.87872 0.15365 0.20373
 H1240 H 0.90404 0.12159 0.17344
 H1241 H 0.84920 0.09727 0.09520
 H1242 H 0.82345 0.12899 0.12723
 H1243 H 0.87273 0.05784 0.10160
 H1244 H 0.90192 0.03036 0.06894
 H1245 H 0.95134 0.09216 0.07905
 H1246 H 0.92252 0.11943 0.10992
 C1247 C 0.83709 0.67533 0.66865
 C1248 C 0.84371 0.70132 0.66464
 C1249 C 0.83039 0.72096 0.68161
 C1250 C 0.81028 0.71505 0.70356
 C1251 C 0.80363 0.68894 0.70728
 C1252 C 0.81679 0.66932 0.68968
 C1253 C 0.85195 0.65463 0.65218
 C1254 C 0.84297 0.63501 0.62775
 C1255 C 0.85756 0.61640 0.61064
 C1256 C 0.88132 0.61699 0.61810
 C1257 C 0.88995 0.63604 0.64408
 C1258 C 0.87550 0.65474 0.66055
 C1259 C 0.89746 0.59867 0.59813
 C1260 C 0.91924 0.60748 0.58584
 C1261 C 0.93547 0.59043 0.57039
 C1262 C 0.93032 0.56411 0.56595
 C1263 C 0.90816 0.55531 0.57583
 C1264 C 0.89185 0.57247 0.59209
 H1265 H 0.85920 0.70643 0.64815
 H1266 H 0.83580 0.74080 0.67728
 H1267 H 0.78851 0.68355 0.72456
 H1268 H 0.81149 0.64939 0.69349
 H1269 H 0.82480 0.63456 0.62093
 H1270 H 0.85036 0.60208 0.59069
 H1271 H 0.90801 0.63662 0.65159
 H1272 H 0.88274 0.66934 0.68000
 H1273 H 0.92391 0.62765 0.58851
 H1274 H 0.95225 0.59790 0.56205
 H1275 H 0.90377 0.53510 0.57245
 H1276 H 0.87518 0.56507 0.60112
 C1277 C 0.34458 0.18572 0.66026
 C1278 C 0.34630 0.21259 0.65508
 C1279 C 0.33090 0.22909 0.67450
 C1280 C 0.31348 0.21912 0.69970
 C1281 C 0.31102 0.19224 0.70344
 C1282 C 0.32647 0.17567 0.68394
 C1283 C 0.36223 0.16836 0.64254
 C1284 C 0.35591 0.14466 0.62547
 C1285 C 0.37267 0.12771 0.61094
 C1286 C 0.39613 0.13404 0.61328
 C1287 C 0.40243 0.15806 0.62922
 C1288 C 0.38565 0.17503 0.64377
 C1289 C 0.41383 0.11501 0.60082
 C1290 C 0.43340 0.12249 0.57848
 C1291 C 0.44934 0.10395 0.56543
 C1292 C 0.44590 0.07763 0.57436
 C1293 C 0.42684 0.07048 0.59828
 C1294 C 0.41105 0.08890 0.61127
 H1295 H 0.35975 0.22088 0.63634
 H1296 H 0.33287 0.24976 0.67044
 H1297 H 0.29780 0.18410 0.72283
 H1298 H 0.32481 0.15503 0.68874
 H1299 H 0.33800 0.13920 0.62343
 H1300 H 0.36728 0.10954 0.59802
 H1301 H 0.42036 0.16333 0.63172
 H1302 H 0.39108 0.19303 0.65722
 H1303 H 0.43598 0.14253 0.57006
 H1304 H 0.46388 0.11011 0.54724
 H1305 H 0.42373 0.05047 0.60637
 H1306 H 0.39651 0.08264 0.62940
 C1307 C 0.32744 0.65946 0.16718
 C1308 C 0.33264 0.68434 0.15265
 C1309 C 0.32232 0.70602 0.16982
 C1310 C 0.30642 0.70324 0.20155
 C1311 C 0.30047 0.67834 0.21504
 C1312 C 0.31104 0.65661 0.19819
 C1313 C 0.34056 0.63695 0.15210
 C1314 C 0.34503 0.63411 0.11068
 C1315 C 0.35997 0.61487 0.09702
 C1316 C 0.37089 0.59832 0.12459
 C1317 C 0.36564 0.60043 0.16582
 C1318 C 0.35051 0.61948 0.17944
 C1319 C 0.38921 0.58059 0.11069
 C1320 C 0.41049 0.58029 0.13033
 C1321 C 0.42869 0.56561 0.11517
 C1322 C 0.42588 0.55065 0.08033
 C1323 C 0.40428 0.55014 0.06163
 C1324 C 0.38618 0.56520 0.07642
 H1325 H 0.34542 0.68711 0.12913
 H1326 H 0.32704 0.72506 0.15879
 H1327 H 0.28831 0.67577 0.23963
 H1328 H 0.30671 0.63761 0.20981
 H1329 H 0.33744 0.64725 0.08900
 H1330 H 0.36387 0.61374 0.06509
 H1331 H 0.37373 0.58775 0.18759
 H1332 H 0.34748 0.62139 0.21154
 H1333 H 0.41333 0.59220 0.15658
 H1334 H 0.44506 0.56630 0.13043
 H1335 H 0.40155 0.53870 0.03489
 H1336 H 0.36988 0.56504 0.06089
   
