data_POSCAR
  _audit_creation_date              2014-09-24
  _audit_creation_method            'ToBaCCo'
  _symmetry_space_group_name_H-M    'P1'
  _symmetry_Int_Tables_number       1
  _symmetry_cell_setting            triclinic
  loop_
  _symmetry_equiv_pos_as_xyz
 x,y,z
_cell_length_a 51.7482
_cell_length_b 52.1503
_cell_length_c 52.3222
_cell_angle_alpha 90.628100
_cell_angle_beta 92.471700
_cell_angle_gamma 89.565400
loop_
  _atom_site_label
  _atom_site_type_symbol
  _atom_site_fract_x
  _atom_site_fract_y
  _atom_site_fract_z
C1 C 0.14026 -0.00668 0.27094
 C2 C 0.37187 0.00684 0.72201
 C3 C 0.88358 0.49438 0.23066
 C4 C 0.62539 0.51059 0.75153
 C5 C 0.24842 0.13134 1.00904
 C6 C 0.74935 0.38711 0.99723
 C7 C 0.24967 0.87913 0.51049
 C8 C 0.75103 0.62932 0.50278
 C9 C -0.02194 0.24714 0.12727
 C10 C 0.00606 0.74544 0.37071
 C11 C 0.53202 0.22536 0.87943
 C12 C 0.49312 0.76525 0.63534
 C13 C 0.88331 1.00728 0.75672
 C14 C 0.38474 0.48868 0.24042
 C15 C 0.62222 0.99907 0.23075
 C16 C 0.13399 0.50829 0.74178
 C17 C 0.74650 0.87891 0.00491
 C18 C 0.25184 0.37688 0.51257
 C19 C 0.24964 0.63927 0.01002
 C20 C 0.74686 0.13444 0.49373
 C21 C 1.00283 0.74177 0.88704
 C22 C 0.49127 0.25923 0.38684
 C23 C 1.02074 0.24786 0.62511
 C24 C 0.49482 0.73069 0.11989
 O25 O -0.00077 0.92077 0.99282
 O26 O 0.01092 0.91748 1.03824
 O27 O -0.06651 0.97328 0.99574
 O28 O -0.07322 1.01400 1.00807
 O29 O -0.00532 0.98355 0.94079
 O30 O 0.03803 1.00292 0.94730
 O31 O -0.00772 1.04276 1.07030
 O32 O -0.04747 1.01860 1.06646
 O33 O 0.05125 0.98925 1.07772
 O34 O 0.06114 0.94802 1.05031
 O35 O 0.05793 1.04615 1.02184
 O36 O 0.03349 1.05366 0.97873
 O37 O 0.01229 1.06408 1.03907
 O38 O 0.00402 1.07061 0.99664
 O39 O 0.07522 1.01063 1.04082
 O40 O 0.08239 0.96952 1.02710
 O41 O 0.01244 1.00390 1.09047
 O42 O -0.02875 0.98597 1.08680
 O43 O 0.01824 0.94283 0.96158
 O44 O 0.05515 0.96890 0.96067
 O45 O -0.04374 0.99615 0.95645
 O46 O -0.05240 1.03528 0.97987
 O47 O -0.04581 0.93747 1.01052
 O48 O -0.02529 0.92861 1.05021
 Zr49 Zr -0.00821 0.94915 1.02078
 O50 O 0.01041 0.97096 1.05012
 Zr51 Zr -0.03680 1.00108 0.99591
 O52 O -0.01788 1.02536 1.02307
 Zr53 Zr 0.01922 0.98092 0.97458
 O54 O 0.04065 1.00286 1.00214
 Zr55 Zr -0.01052 1.00488 1.05682
 O56 O -0.03128 0.98107 1.03046
 Zr57 Zr 0.04577 0.98354 1.03731
 O58 O 0.02815 0.95988 1.00826
 Zr59 Zr 0.01910 1.03568 1.01123
 O60 O -0.00173 1.01461 0.98208
 O61 O -0.01615 0.96823 0.98665
 O62 O 0.02579 1.01712 1.04604
 C63 C 0.00991 0.92203 0.97110
 C64 C -0.06614 0.94945 1.00212
 C65 C -0.02956 0.98937 0.93796
 C66 C 0.00147 1.06311 1.06068
 C67 C 0.03604 0.99740 1.09508
 C68 C 0.07692 1.03365 1.03283
 H69 H 0.01278 0.96049 1.06568
 H70 H 0.05739 1.00710 0.99487
 H71 H -0.02558 0.95713 0.97398
 H72 H -0.02884 1.04063 1.02602
 H73 H -0.06038 1.00661 1.05863
 H74 H -0.07013 1.02727 1.02148
 H75 H 0.08439 0.97413 1.00902
 H76 H 0.06295 0.95711 0.97360
 H77 H -0.02129 0.96853 1.08829
 H78 H -0.03812 0.94033 1.05772
 H79 H 0.05037 1.04562 0.97525
 H80 H 0.02688 1.01805 0.94360
 H81 H 0.02831 0.91639 1.03112
 H82 H 0.05290 0.94377 1.06642
 H83 H -0.03938 1.04211 0.96846
 H84 H -0.01503 1.06906 0.99601
 O85 O 0.42512 0.48887 0.49132
 O86 O 0.41767 0.53085 0.50863
 O87 O 0.47326 0.50742 0.42804
 O88 O 0.51073 0.52614 0.42260
 O89 O 0.49333 0.44444 0.47777
 O90 O 0.51319 0.44184 0.51985
 O91 O 0.53959 0.57755 0.49862
 O92 O 0.51235 0.58144 0.46039
 O93 O 0.49080 0.56424 0.55769
 O94 O 0.45425 0.53426 0.56392
 O95 O 0.55403 0.51833 0.54904
 O96 O 0.56493 0.48139 0.52208
 O97 O 0.56512 0.54353 0.50994
 O98 O 0.57261 0.50070 0.49067
 O99 O 0.51847 0.52684 0.57167
 O100 O 0.47675 0.50437 0.57491
 O101 O 0.49933 0.58848 0.52323
 O102 O 0.47815 0.59241 0.48180
 O103 O 0.45162 0.45535 0.50228
 O104 O 0.47970 0.45103 0.53980
 O105 O 0.50308 0.46779 0.44308
 O106 O 0.53845 0.49865 0.43878
 O107 O 0.43684 0.51558 0.44961
 O108 O 0.42702 0.55186 0.47663
 Zr109 Zr 0.45041 0.52024 0.48804
 O110 O 0.47098 0.54620 0.51237
 Zr111 Zr 0.50299 0.50610 0.45634
 O112 O 0.52561 0.53178 0.47886
 Zr113 Zr 0.48838 0.47178 0.50680
 O114 O 0.51071 0.49545 0.53164
 Zr115 Zr 0.50241 0.56131 0.49341
 O116 O 0.48009 0.53747 0.46795
 Zr117 Zr 0.48803 0.52649 0.54364
 O118 O 0.46467 0.50111 0.52104
 Zr119 Zr 0.54016 0.51230 0.51135
 O120 O 0.51992 0.48585 0.48733
 O121 O 0.47236 0.48988 0.47464
 O122 O 0.51878 0.54294 0.52541
 C123 C 0.42926 0.46511 0.49674
 C124 C 0.44875 0.51097 0.42892
 C125 C 0.49912 0.44643 0.45426
 C126 C 0.56169 0.56728 0.50464
 C127 C 0.49536 0.58574 0.54712
 C128 C 0.54296 0.52354 0.56995
 H129 H 0.45913 0.55984 0.51808
 H130 H 0.51764 0.48524 0.54621
 H131 H 0.46209 0.47808 0.46337
 H132 H 0.53946 0.53871 0.46854
 H133 H 0.50094 0.57502 0.44607
 H134 H 0.52076 0.54154 0.42780
 H135 H 0.48905 0.48984 0.57685
 H136 H 0.46596 0.46080 0.54831
 H137 H 0.46156 0.59078 0.49029
 H138 H 0.43698 0.56157 0.46426
 H139 H 0.55696 0.47217 0.53612
 H140 H 0.52964 0.44394 0.51116
 H141 H 0.42003 0.52287 0.52566
 H142 H 0.44533 0.54919 0.55594
 H143 H 0.54721 0.48458 0.44838
 H144 H 0.57371 0.51218 0.47584
 O145 O 0.44569 -0.05485 0.46969
 O146 O 0.47391 -0.05921 0.43116
 O147 O 0.50372 -0.05668 0.53111
 O148 O 0.53862 -0.03400 0.54370
 O149 O 0.44346 0.00089 0.52654
 O150 O 0.44055 0.04206 0.50296
 O151 O 0.57302 0.01656 0.47207
 O152 O 0.57575 -0.02446 0.49330
 O153 O 0.52317 0.00784 0.40953
 O154 O 0.47722 -0.00847 0.40331
 O155 O 0.51114 0.06897 0.46326
 O156 O 0.49259 0.06942 0.50798
 O157 O 0.55131 0.05114 0.48713
 O158 O 0.52808 0.05962 0.52300
 O159 O 0.49965 0.04891 0.42579
 O160 O 0.46195 0.02536 0.41310
 O161 O 0.55750 -0.00833 0.43272
 O162 O 0.56243 -0.04547 0.45555
 O163 O 0.42636 -0.01756 0.48161
 O164 O 0.42449 0.02457 0.47054
 O165 O 0.47800 -0.01556 0.54933
 O166 O 0.52052 0.00247 0.55578
 O167 O 0.49058 -0.07546 0.49336
 O168 O 0.50000 -0.08001 0.45348
 Zr169 Zr 0.48553 -0.04499 0.46789
 O170 O 0.51154 -0.02367 0.44679
 Zr171 Zr 0.50712 -0.01754 0.52238
 O172 O 0.53281 0.00615 0.50322
 Zr173 Zr 0.45676 0.00725 0.48973
 O174 O 0.47989 0.03078 0.46809
 Zr175 Zr 0.54403 -0.01210 0.46956
 O176 O 0.52009 -0.03700 0.48972
 Zr177 Zr 0.49336 0.01084 0.43596
 O178 O 0.46651 -0.01138 0.45548
 Zr179 Zr 0.51332 0.03941 0.49035
 O180 O 0.48898 0.01763 0.51302
 O181 O 0.47362 -0.02739 0.50114
 O182 O 0.52639 0.02184 0.45724
 C183 C 0.42562 -0.04097 0.47430
 C184 C 0.49791 -0.07639 0.51707
 C185 C 0.45438 -0.00783 0.54725
 C186 C 0.57172 0.04032 0.47903
 C187 C 0.54665 -0.00052 0.41169
 C188 C 0.50548 0.06900 0.43911
 H189 H 0.51672 -0.03411 0.43195
 H190 H 0.46974 0.04626 0.46330
 H191 H 0.46219 -0.03878 0.51053
 H192 H 0.54808 0.01042 0.51444
 H193 H 0.56985 -0.03962 0.50259
 H194 H 0.55445 -0.02475 0.53941
 H195 H 0.45258 0.03789 0.42366
 H196 H 0.42564 0.01988 0.45224
 H197 H 0.55549 -0.06011 0.46490
 H198 H 0.51809 -0.07679 0.44914
 H199 H 0.47890 0.07530 0.49557
 H200 H 0.44999 0.04667 0.51920
 H201 H 0.45852 -0.04914 0.42530
 H202 H 0.48874 -0.02308 0.39936
 H203 H 0.51057 0.01873 0.55653
 H204 H 0.53651 0.04688 0.53454
 O205 O -0.04171 0.43615 0.97528
 O206 O -0.02103 0.43609 0.93563
 O207 O 0.01901 0.41958 1.02927
 O208 O 0.05860 0.43458 1.03956
 O209 O -0.03209 0.48136 1.04555
 O210 O -0.03873 0.52276 1.02971
 O211 O 0.08997 0.49532 0.97798
 O212 O 0.08950 0.45198 0.98406
 O213 O 0.02921 0.51041 0.92184
 O214 O -0.01609 0.49923 0.91739
 O215 O 0.03510 0.55526 0.98830
 O216 O 0.02354 0.55025 1.03211
 O217 O 0.07472 0.52873 1.00148
 O218 O 0.05316 0.52796 1.04421
 O219 O 0.01280 0.54660 0.95092
 O220 O -0.03025 0.52617 0.94069
 O221 O 0.06571 0.48882 0.93503
 O222 O 0.06541 0.44279 0.94496
 O223 O -0.05717 0.46797 1.00054
 O224 O -0.05657 0.51408 0.99427
 O225 O 0.00477 0.46064 1.05903
 O226 O 0.05070 0.46863 1.05986
 O227 O 0.00013 0.40918 0.99049
 O228 O 0.01207 0.41580 0.94713
 Zr229 Zr -0.00253 0.44456 0.97151
 O230 O 0.02045 0.46997 0.95150
 Zr231 Zr 0.02772 0.45863 1.02684
 O232 O 0.05274 0.48377 1.00907
 Zr233 Zr -0.02463 0.49179 1.00782
 O234 O -0.00172 0.51914 0.99006
 Zr235 Zr 0.05674 0.47323 0.97056
 O236 O 0.03466 0.44571 0.98942
 Zr237 Zr 0.00448 0.50713 0.95240
 O238 O -0.02054 0.48089 0.96936
 Zr239 Zr 0.03565 0.52032 1.00762
 O240 O 0.01154 0.49569 1.02766
 O241 O -0.00887 0.45511 1.00929
 O242 O 0.04139 0.51034 0.96969
 C243 C -0.06008 0.44737 0.98691
 C244 C 0.00868 0.40352 1.01316
 C245 C -0.01742 0.47081 1.06292
 C246 C 0.09289 0.51661 0.99031
 C247 C 0.05233 0.50230 0.91878
 C248 C 0.02498 0.56192 0.96657
 H249 H 0.02223 0.46355 0.93380
 H250 H -0.01047 0.53603 0.99068
 H251 H -0.02003 0.44323 1.01841
 H252 H 0.06965 0.48370 1.01863
 H253 H 0.08334 0.43458 0.98796
 H254 H 0.07365 0.43919 1.02959
 H255 H -0.03413 0.53916 0.95394
 H256 H -0.06032 0.50874 0.97628
 H257 H 0.08271 0.44596 0.93823
 H258 H 0.02962 0.41135 0.95406
 H259 H 0.00639 0.55630 1.02551
 H260 H -0.02409 0.52845 1.04114
 H261 H -0.03229 0.45099 0.93131
 H262 H -0.00932 0.48290 0.91050
 H263 H 0.04435 0.48550 1.06586
 H264 H 0.06921 0.51757 1.04595
 O265 O -0.00156 0.42147 0.51411
 O266 O -0.01414 0.41703 0.46969
 O267 O 0.06469 0.46920 0.51245
 O268 O 0.07493 0.50878 0.50154
 O269 O 0.00312 0.48543 0.56559
 O270 O -0.03769 0.50450 0.56126
 O271 O 0.01198 0.53979 0.43544
 O272 O 0.04756 0.51248 0.43777
 O273 O -0.05451 0.49590 0.43308
 O274 O -0.06801 0.45905 0.45168
 O275 O -0.05048 0.55320 0.48372
 O276 O -0.02985 0.56193 0.52445
 O277 O -0.00592 0.56386 0.46667
 O278 O 0.00690 0.56769 0.51463
 O279 O -0.07401 0.51820 0.47131
 O280 O -0.08029 0.47231 0.48728
 O281 O -0.01537 0.50493 0.41734
 O282 O 0.02308 0.47621 0.42162
 O283 O -0.01997 0.44487 0.54549
 O284 O -0.05786 0.47410 0.54349
 O285 O 0.04261 0.49616 0.55180
 O286 O 0.05489 0.53342 0.52478
 O287 O 0.04283 0.43411 0.49718
 O288 O 0.02121 0.42857 0.45479
 Zr289 Zr 0.00598 0.44872 0.48611
 O290 O -0.01307 0.47134 0.45777
 Zr291 Zr 0.03717 0.49903 0.51152
 O292 O 0.02073 0.52333 0.48325
 Zr293 Zr -0.02023 0.48295 0.53214
 O294 O -0.03910 0.50801 0.50613
 Zr295 Zr 0.01040 0.50255 0.44972
 O296 O 0.03062 0.47885 0.47661
 Zr297 Zr -0.04682 0.48791 0.47180
 O298 O -0.03003 0.46188 0.49867
 Zr299 Zr -0.01440 0.53789 0.49599
 O300 O 0.00304 0.51506 0.52541
 O301 O 0.01464 0.46798 0.52038
 O302 O -0.02394 0.51867 0.46205
 C303 C -0.01171 0.42359 0.53602
 C304 C 0.06327 0.44527 0.50645
 C305 C 0.02703 0.49100 0.56960
 C306 C 0.00444 0.56131 0.44479
 C307 C -0.04006 0.50241 0.41494
 C308 C -0.07157 0.54233 0.47590
 H309 H -0.01701 0.46096 0.44216
 H310 H -0.05498 0.51445 0.51394
 H311 H 0.02356 0.45696 0.53334
 H312 H 0.03319 0.53700 0.47974
 H313 H 0.05950 0.49854 0.44346
 H314 H 0.07378 0.51269 0.48309
 H315 H -0.08621 0.48455 0.50043
 H316 H -0.06378 0.45910 0.53314
 H317 H 0.02503 0.48575 0.40554
 H318 H 0.03667 0.43809 0.44983
 H319 H -0.04382 0.55233 0.53231
 H320 H -0.02933 0.52152 0.56157
 H321 H -0.03166 0.41741 0.47659
 H322 H -0.05656 0.44384 0.45098
 H323 H 0.04358 0.54101 0.53768
 H324 H 0.02252 0.57067 0.50486
 O325 O 0.55168 0.95859 0.00474
 O326 O 0.55580 0.99799 -0.01378
 O327 O 0.48932 0.97236 0.05697
 O328 O 0.44774 0.98212 0.05519
 O329 O 0.49071 0.90435 0.00797
 O330 O 0.47728 0.89747 -0.03583
 O331 O 0.42634 1.02935 -0.02377
 O332 O 0.44475 1.03863 0.01492
 O333 O 0.48974 1.02230 -0.07367
 O334 O 0.52805 0.99521 -0.07463
 O335 O 0.42979 0.96766 -0.07497
 O336 O 0.41888 0.93229 -0.05209
 O337 O 0.40791 0.99207 -0.03796
 O338 O 0.40600 0.94728 -0.01896
 O339 O 0.46663 0.98187 -0.09182
 O340 O 0.51128 0.96283 -0.08750
 O341 O 0.47023 1.04542 -0.04279
 O342 O 0.48669 1.04971 0.00200
 O343 O 0.53342 0.92234 -0.01229
 O344 O 0.51060 0.91123 -0.05197
 O345 O 0.47129 0.92731 0.03897
 O346 O 0.42935 0.95230 0.03536
 O347 O 0.52784 0.98456 0.04203
 O348 O 0.53388 1.02231 0.01426
 Zr349 Zr 0.52100 0.98550 0.00180
 O350 O 0.50104 1.00718 -0.02662
 Zr351 Zr 0.46615 0.96442 0.02427
 O352 O 0.44419 0.98639 -0.00215
 Zr353 Zr 0.49451 0.93153 -0.02121
 O354 O 0.47290 0.95125 -0.04998
 Zr355 Zr 0.46480 1.01853 -0.01360
 O356 O 0.48556 0.99851 0.01592
 Zr357 Zr 0.49240 0.98478 -0.05946
 O358 O 0.51528 0.96377 -0.03229
 Zr359 Zr 0.43795 0.96460 -0.03569
 O360 O 0.45783 0.94137 -0.00817
 O361 O 0.50204 0.95254 0.01221
 O362 O 0.45666 0.99760 -0.04715
 C363 C 0.55285 0.93501 -0.00276
 C364 C 0.51281 0.97970 0.06035
 C365 C 0.48112 0.90647 0.03018
 C366 C 0.40671 1.01601 -0.03195
 C367 C 0.48130 1.04348 -0.06429
 C368 C 0.44285 0.97491 -0.09386
 H369 H 0.51178 1.02218 -0.03035
 H370 H 0.46982 0.93985 -0.06500
 H371 H 0.51240 0.94300 0.02536
 H372 H 0.42789 0.99143 0.00581
 H373 H 0.45446 1.03559 0.03134
 H374 H 0.44176 0.99913 0.04915
 H375 H 0.50018 0.94806 -0.09238
 H376 H 0.52328 0.92283 -0.05938
 H377 H 0.47721 1.06588 -0.00204
 H378 H 0.54946 1.02024 0.02581
 H379 H 0.43244 0.91977 -0.05654
 H380 H 0.45977 0.89680 -0.02896
 H381 H 0.55713 0.98919 -0.03053
 H382 H 0.53515 1.00959 -0.06411
 H383 H 0.42580 0.93565 0.02669
 H384 H 0.39924 0.95956 -0.00629
 O385 O 0.46693 0.49917 0.05372
 O386 O 0.51128 0.48789 0.05733
 O387 O 0.46623 0.55598 -0.00552
 O388 O 0.47940 0.55565 -0.04925
 O389 O 0.40826 0.49707 -0.00883
 O390 O 0.40827 0.45286 -0.01874
 O391 O 0.53400 0.48440 -0.06992
 O392 O 0.53745 0.52479 -0.05261
 O393 O 0.53800 0.43252 -0.00928
 O394 O 0.51477 0.42758 0.03023
 O395 O 0.48010 0.42661 -0.06672
 O396 O 0.43758 0.44852 -0.07525
 O397 O 0.49791 0.46563 -0.08774
 O398 O 0.45255 0.47908 -0.09203
 O399 O 0.49933 0.41062 -0.03044
 O400 O 0.48286 0.41087 0.01424
 O401 O 0.55521 0.46675 -0.02873
 O402 O 0.55522 0.51083 -0.01155
 O403 O 0.43055 0.48116 0.03538
 O404 O 0.42651 0.43951 0.01504
 O405 O 0.42516 0.53285 -0.02605
 O406 O 0.44811 0.53661 -0.06540
 O407 O 0.48563 0.54130 0.03132
 O408 O 0.52662 0.51899 0.03917
 Zr409 Zr 0.49242 0.50191 0.02361
 O410 O 0.51724 0.47739 0.00359
 Zr411 Zr 0.46455 0.52386 -0.03003
 O412 O 0.48869 0.50091 -0.05221
 Zr413 Zr 0.44042 0.47280 -0.00235
 O414 O 0.46298 0.44752 -0.02386
 Zr415 Zr 0.52393 0.49303 -0.03226
 O416 O 0.50115 0.51921 -0.01118
 Zr417 Zr 0.49908 0.44217 -0.00476
 O418 O 0.47549 0.46544 0.01823
 Zr419 Zr 0.47160 0.46496 -0.05838
 O420 O 0.44604 0.48881 -0.03841
 O421 O 0.45667 0.50859 0.00520
 O422 O 0.50733 0.45739 -0.04007
 C423 C 0.44369 0.49082 0.05446
 C424 C 0.47526 0.55927 0.01752
 C425 C 0.40627 0.51974 -0.01802
 C426 C 0.52109 0.47400 -0.08885
 C427 C 0.55694 0.44424 -0.01894
 C428 C 0.49103 0.40842 -0.05387
 H429 H 0.53363 0.47526 0.01380
 H430 H 0.45372 0.43117 -0.02673
 H431 H 0.44532 0.51990 0.01520
 H432 H 0.49166 0.50985 -0.06839
 H433 H 0.53410 0.54023 -0.04208
 H434 H 0.49587 0.56034 -0.04015
 H435 H 0.46790 0.40460 0.00361
 H436 H 0.43993 0.43423 0.02803
 H437 H 0.57067 0.50974 -0.02211
 H438 H 0.53247 0.53111 0.02623
 H439 H 0.43310 0.43348 -0.06501
 H440 H 0.40681 0.45785 -0.03694
 H441 H 0.50526 0.47007 0.05931
 H442 H 0.52865 0.43931 0.03645
 H443 H 0.43534 0.52354 -0.07126
 H444 H 0.46084 0.49542 -0.09633
 O445 O -0.07887 0.01124 0.52435
 O446 O -0.08529 -0.02867 0.50293
 O447 O -0.01702 -0.00385 0.57868
 O448 O 0.02353 -0.01784 0.57762
 O449 O -0.01425 0.06438 0.53010
 O450 O -0.00640 0.07095 0.48707
 O451 O 0.04301 -0.06106 0.49985
 O452 O 0.02223 -0.07216 0.53636
 O453 O -0.02192 -0.05231 0.44457
 O454 O -0.06130 -0.02495 0.44474
 O455 O 0.03829 -0.00068 0.44709
 O456 O 0.04912 0.03774 0.47563
 O457 O 0.06237 -0.02484 0.48665
 O458 O 0.06740 0.01784 0.50280
 O459 O -0.00094 -0.01174 0.42947
 O460 O -0.04427 0.00671 0.43249
 O461 O 0.00057 -0.07534 0.47473
 O462 O -0.01320 -0.08431 0.51821
 O463 O -0.06133 0.04804 0.51015
 O464 O -0.04117 0.05813 0.47047
 O465 O 0.00465 0.04046 0.56182
 O466 O 0.04332 0.01376 0.56102
 O467 O -0.05481 -0.01745 0.55970
 O468 O -0.06664 -0.05132 0.53071
 Zr469 Zr -0.04980 -0.01636 0.52028
 O470 O -0.03180 -0.03842 0.49224
 Zr471 Zr 0.00599 0.00286 0.54686
 O472 O 0.02659 -0.01862 0.52007
 Zr473 Zr -0.02321 0.03731 0.50089
 O474 O -0.00338 0.01742 0.47214
 Zr475 Zr 0.00483 -0.05021 0.50644
 O476 O -0.01450 -0.03056 0.53576
 Zr477 Zr -0.02433 -0.01541 0.46085
 O478 O -0.04552 0.00599 0.48754
 Zr479 Zr 0.03225 0.00299 0.48693
 O480 O 0.01376 0.02566 0.51505
 O481 O -0.02987 0.01609 0.53338
 O482 O 0.01196 -0.02925 0.47378
 C483 C -0.08014 0.03514 0.51890
 C484 C -0.04023 -0.01247 0.57960
 C485 C -0.00279 0.06203 0.55227
 C486 C 0.06300 -0.04838 0.49386
 C487 C -0.01104 -0.07307 0.45261
 C488 C 0.02301 -0.00625 0.42770
 H489 H -0.04295 -0.05304 0.48715
 H490 H -0.00099 0.02892 0.45757
 H491 H -0.03886 0.02595 0.54667
 H492 H 0.04303 -0.02389 0.52885
 H493 H 0.01443 -0.06638 0.55242
 H494 H 0.03377 -0.03192 0.57016
 H495 H -0.03457 0.02277 0.43045
 H496 H -0.05522 0.04721 0.46308
 H497 H -0.02951 -0.08672 0.50795
 H498 H -0.05273 -0.06143 0.53954
 H499 H 0.03869 0.04456 0.46091
 H500 H 0.01246 0.06918 0.49068
 H501 H -0.08816 -0.01845 0.48722
 H502 H -0.06724 -0.04050 0.45333
 H503 H 0.04855 0.02863 0.55089
 H504 H 0.07124 0.00881 0.51907
 O505 O 0.77605 0.31880 0.25155
 O506 O 0.78600 0.29363 0.28944
 O507 O 0.77970 0.26317 0.19156
 O508 O 0.76076 0.22693 0.17924
 O509 O 0.71530 0.31617 0.19480
 O510 O 0.67736 0.31758 0.21909
 O511 O 0.71884 0.18562 0.25195
 O512 O 0.75927 0.18875 0.23366
 O513 O 0.71856 0.23703 0.31416
 O514 O 0.72915 0.27920 0.32202
 O515 O 0.65697 0.24195 0.25733
 O516 O 0.65181 0.25553 0.21486
 O517 O 0.68032 0.20310 0.23837
 O518 O 0.67148 0.22826 0.19658
 O519 O 0.67484 0.25751 0.29475
 O520 O 0.69932 0.29916 0.30479
 O521 O 0.73759 0.20449 0.29255
 O522 O 0.77904 0.20717 0.27191
 O523 O 0.73737 0.33491 0.23681
 O524 O 0.69468 0.33164 0.25322
 O525 O 0.73535 0.28401 0.17349
 O526 O 0.72182 0.23819 0.16907
 O527 O 0.79938 0.27808 0.22850
 O528 O 0.80390 0.26323 0.27157
 Zr529 Zr 0.76943 0.27876 0.25478
 O530 O 0.75019 0.25193 0.27708
 Zr531 Zr 0.74182 0.25516 0.20103
 O532 O 0.72236 0.22689 0.22105
 Zr533 Zr 0.71360 0.30267 0.23227
 O534 O 0.69218 0.27671 0.25298
 Zr535 Zr 0.74248 0.21839 0.25558
 O536 O 0.76407 0.24412 0.23391
 Zr537 Zr 0.71350 0.26593 0.28633
 O538 O 0.73419 0.29427 0.26683
 Zr539 Zr 0.68706 0.24228 0.23210
 O540 O 0.70530 0.26983 0.20976
 O541 O 0.74929 0.28898 0.22124
 O542 O 0.70637 0.23186 0.26619
 C543 C 0.76113 0.33760 0.24436
 C544 C 0.79944 0.27147 0.20473
 C545 C 0.72450 0.30627 0.17453
 C546 C 0.69455 0.18401 0.24582
 C547 C 0.72832 0.21431 0.31288
 C548 C 0.65554 0.24942 0.28062
 H549 H 0.76103 0.24804 0.29261
 H550 H 0.67560 0.28525 0.25662
 H551 H 0.75895 0.30133 0.21113
 H552 H 0.72005 0.21127 0.21033
 H553 H 0.77488 0.19607 0.22632
 H554 H 0.75851 0.21042 0.18794
 H555 H 0.68265 0.30388 0.29605
 H556 H 0.70469 0.33382 0.26964
 H557 H 0.77792 0.18896 0.27704
 H558 H 0.80620 0.24610 0.26363
 H559 H 0.64855 0.27285 0.22197
 H560 H 0.67082 0.30595 0.20523
 H561 H 0.77280 0.30506 0.29679
 H562 H 0.74817 0.27816 0.32120
 H563 H 0.70516 0.24750 0.16670
 H564 H 0.68029 0.21189 0.19256
 O565 O 0.75484 0.69895 0.70653
 O566 O 0.79143 0.69216 0.73619
 O567 O 0.69321 0.71454 0.75485
 O568 O 0.68310 0.74281 0.78511
 O569 O 0.70678 0.76482 0.69048
 O570 O 0.73773 0.79739 0.68371
 O571 O 0.75925 0.78560 0.82200
 O572 O 0.73633 0.74639 0.82643
 O573 O 0.82409 0.76554 0.78018
 O574 O 0.82959 0.74273 0.73850
 O575 O 0.78000 0.82922 0.76104
 O576 O 0.73951 0.83400 0.73302
 O577 O 0.75138 0.82044 0.79692
 O578 O 0.71509 0.82788 0.76646
 O579 O 0.81419 0.80374 0.75188
 O580 O 0.82174 0.77359 0.71657
 O581 O 0.79857 0.75799 0.81347
 O582 O 0.77054 0.72255 0.82056
 O583 O 0.74707 0.73359 0.68110
 O584 O 0.76918 0.77373 0.67680
 O585 O 0.68224 0.75470 0.72386
 O586 O 0.67782 0.77795 0.76400
 O587 O 0.72762 0.68902 0.74627
 O588 O 0.76884 0.68354 0.76758
 Zr589 Zr 0.75839 0.71467 0.74366
 O590 O 0.78302 0.73647 0.76825
 Zr591 Zr 0.70808 0.75201 0.75563
 O592 O 0.73046 0.77552 0.78065
 Zr593 Zr 0.74476 0.76485 0.70679
 O594 O 0.76887 0.78894 0.72982
 Zr595 Zr 0.76141 0.75424 0.79665
 O596 O 0.73728 0.72973 0.77401
 Zr597 Zr 0.79830 0.76693 0.74797
 O598 O 0.77601 0.74329 0.72247
 Zr599 Zr 0.74794 0.80453 0.75984
 O600 O 0.72292 0.78271 0.73511
 O601 O 0.72796 0.73512 0.72621
 O602 O 0.77836 0.78408 0.77744
 C603 C 0.75071 0.70944 0.68461
 C604 C 0.70372 0.69244 0.75113
 C605 C 0.68492 0.76048 0.70034
 C606 C 0.75542 0.80977 0.81876
 C607 C 0.82061 0.76211 0.80408
 C608 C 0.80413 0.82562 0.75722
 H609 H 0.79685 0.72529 0.77562
 H610 H 0.77576 0.80268 0.71921
 H611 H 0.71651 0.72421 0.71512
 H612 H 0.71945 0.78249 0.79408
 H613 H 0.72485 0.73229 0.82027
 H614 H 0.69009 0.75102 0.80105
 H615 H 0.81381 0.78782 0.70658
 H616 H 0.78494 0.76301 0.67934
 H617 H 0.78416 0.71219 0.81259
 H618 H 0.75951 0.68614 0.78355
 H619 H 0.74460 0.85074 0.74084
 H620 H 0.72599 0.80876 0.69317
 H621 H 0.80115 0.70154 0.72340
 H622 H 0.83018 0.72822 0.75052
 H623 H 0.67937 0.79278 0.75253
 H624 H 0.70563 0.82029 0.78051
 O625 O 0.32772 0.21336 0.75776
 O626 O 0.33324 0.24284 0.72291
 O627 O 0.32356 0.26144 0.82216
 O628 O 0.29677 0.30126 0.82977
 O629 O 0.26733 0.20418 0.81067
 O630 O 0.22967 0.19889 0.78236
 O631 O 0.24884 0.33462 0.76184
 O632 O 0.29413 0.33714 0.78149
 O633 O 0.26045 0.28910 0.69603
 O634 O 0.27842 0.24577 0.68890
 O635 O 0.19879 0.27596 0.74340
 O636 O 0.19655 0.24912 0.78162
 O637 O 0.21395 0.31210 0.77403
 O638 O 0.20932 0.28511 0.80762
 O639 O 0.22062 0.26569 0.70781
 O640 O 0.24667 0.22666 0.69831
 O641 O 0.27171 0.32341 0.72112
 O642 O 0.31100 0.32944 0.74818
 O643 O 0.29180 0.19092 0.76720
 O644 O 0.24904 0.18818 0.75059
 O645 O 0.27921 0.23809 0.83605
 O646 O 0.26834 0.27844 0.84464
 O647 O 0.34455 0.25162 0.78607
 O648 O 0.34709 0.27345 0.74674
 Zr649 Zr 0.31503 0.25171 0.75736
 O650 O 0.29228 0.27721 0.73487
 Zr651 Zr 0.28461 0.26769 0.80973
 O652 O 0.25985 0.29330 0.78944
 Zr653 Zr 0.26339 0.21900 0.77346
 O654 O 0.23844 0.24265 0.75128
 Zr655 Zr 0.27869 0.30740 0.75773
 O656 O 0.30463 0.28368 0.77963
 Zr657 Zr 0.25863 0.25842 0.72135
 O658 O 0.28272 0.23202 0.74152
 Zr659 Zr 0.22727 0.27412 0.77353
 O660 O 0.25026 0.24914 0.79677
 O661 O 0.29675 0.23644 0.78840
 O662 O 0.24555 0.28961 0.74254
 C663 C 0.31557 0.19243 0.76132
 C664 C 0.34412 0.25554 0.81029
 C665 C 0.27258 0.21453 0.83271
 C666 C 0.22536 0.33302 0.76874
 C667 C 0.26518 0.31302 0.69940
 C668 C 0.20003 0.27205 0.71916
 H669 H 0.30252 0.28349 0.72074
 H670 H 0.22320 0.23272 0.74500
 H671 H 0.30766 0.22431 0.79861
 H672 H 0.25468 0.30715 0.80126
 H673 H 0.28309 0.33891 0.79639
 H674 H 0.31190 0.30789 0.82102
 H675 H 0.23108 0.21935 0.70564
 H676 H 0.25561 0.19070 0.73331
 H677 H 0.31954 0.32046 0.73406
 H678 H 0.34639 0.28977 0.75653
 H679 H 0.18019 0.25916 0.78085
 H680 H 0.22115 0.20909 0.79570
 H681 H 0.32219 0.23008 0.71363
 H682 H 0.29403 0.25645 0.68768
 H683 H 0.25075 0.28498 0.84026
 H684 H 0.21335 0.27147 0.82022
 O685 O 0.21545 0.74565 0.32539
 O686 O 0.23256 0.70485 0.33251
 O687 O 0.28705 0.78951 0.32220
 O688 O 0.32069 0.79104 0.29741
 O689 O 0.22274 0.80393 0.26905
 O690 O 0.20742 0.78343 0.23106
 O691 O 0.32958 0.70993 0.24982
 O692 O 0.34004 0.72568 0.29006
 O693 O 0.26155 0.66552 0.25738
 O694 O 0.21897 0.67453 0.27465
 O695 O 0.26627 0.71830 0.19830
 O696 O 0.25661 0.76546 0.19686
 O697 O 0.31231 0.73072 0.21496
 O698 O 0.29689 0.77468 0.20903
 O699 O 0.24343 0.68790 0.21820
 O700 O 0.20394 0.69284 0.24351
 O701 O 0.30311 0.67573 0.26876
 O702 O 0.31422 0.69529 0.31125
 O703 O 0.19557 0.76466 0.29093
 O704 O 0.18762 0.75384 0.24635
 O705 O 0.26415 0.81415 0.28121
 O706 O 0.30598 0.80415 0.26219
 O707 O 0.26255 0.76029 0.34196
 O708 O 0.27004 0.71417 0.34378
 Zr709 Zr 0.25154 0.73404 0.31298
 O710 O 0.26578 0.70453 0.28981
 Zr711 Zr 0.28384 0.77875 0.28356
 O712 O 0.30044 0.75101 0.25984
 Zr713 Zr 0.22418 0.76391 0.26292
 O714 O 0.23854 0.73623 0.23724
 Zr715 Zr 0.30209 0.71513 0.27756
 O716 O 0.28911 0.74377 0.30298
 Zr717 Zr 0.24246 0.70104 0.25615
 O718 O 0.22603 0.72811 0.28103
 Zr719 Zr 0.27629 0.74538 0.22704
 O720 O 0.26053 0.77503 0.24993
 O721 O 0.24729 0.76973 0.29587
 O722 O 0.27929 0.70966 0.24426
 C723 C 0.19562 0.75587 0.31391
 C724 C 0.27685 0.78029 0.34198
 C725 C 0.24059 0.82020 0.27517
 C726 C 0.33052 0.71771 0.22668
 C727 C 0.28535 0.65963 0.26203
 C728 C 0.25347 0.69732 0.19842
 H729 H 0.26679 0.68843 0.29964
 H730 H 0.22681 0.73513 0.22184
 H731 H 0.23982 0.78275 0.30739
 H732 H 0.31796 0.75667 0.25574
 H733 H 0.33851 0.73487 0.30660
 H734 H 0.33261 0.77638 0.29514
 H735 H 0.19986 0.70287 0.22790
 H736 H 0.18314 0.73712 0.25367
 H737 H 0.32909 0.68410 0.30711
 H738 H 0.28833 0.71966 0.34468
 H739 H 0.26304 0.75932 0.18026
 H740 H 0.22196 0.79012 0.22150
 H741 H 0.21861 0.69844 0.32063
 H742 H 0.22893 0.66813 0.28987
 H743 H 0.29505 0.80923 0.24706
 H744 H 0.31323 0.77768 0.21906
 O745 O 0.24784 0.73815 0.83199
 O746 O 0.26828 0.77910 0.83654
 O747 O 0.17836 0.75552 0.78902
 O748 O 0.16910 0.77693 0.74785
 O749 O 0.22369 0.69164 0.76653
 O750 O 0.26344 0.68648 0.74564
 O751 O 0.23945 0.82266 0.71675
 O752 O 0.20526 0.82747 0.74381
 O753 O 0.30653 0.80804 0.75918
 O754 O 0.31767 0.78023 0.79698
 O755 O 0.28808 0.75923 0.70015
 O756 O 0.25760 0.72408 0.69255
 O757 O 0.24826 0.78791 0.69184
 O758 O 0.22579 0.74553 0.68603
 O759 O 0.31562 0.76836 0.73392
 O760 O 0.32486 0.74838 0.77601
 O761 O 0.27068 0.83252 0.75110
 O762 O 0.23475 0.83722 0.78035
 O763 O 0.25421 0.70317 0.80651
 O764 O 0.28825 0.69629 0.77694
 O765 O 0.18778 0.71600 0.75827
 O766 O 0.17635 0.74554 0.72551
 O767 O 0.20562 0.76665 0.82251
 O768 O 0.23541 0.80163 0.82888
 Zr769 Zr 0.24202 0.76860 0.80624
 O770 O 0.26367 0.79279 0.78346
 Zr771 Zr 0.20175 0.75369 0.75723
 O772 O 0.22157 0.77724 0.73249
 Zr773 Zr 0.25414 0.71798 0.76939
 O774 O 0.27621 0.73978 0.74500
 Zr775 Zr 0.23977 0.80703 0.75346
 O776 O 0.21712 0.78533 0.77800
 Zr777 Zr 0.29215 0.77115 0.76550
 O778 O 0.27259 0.74749 0.79079
 Zr779 Zr 0.25181 0.75640 0.71651
 O780 O 0.23012 0.73181 0.73903
 O781 O 0.22464 0.73795 0.78662
 O782 O 0.26931 0.78697 0.73597
 C783 C 0.25169 0.71401 0.82843
 C784 C 0.18312 0.76105 0.81275
 C785 C 0.19928 0.69432 0.76175
 C786 C 0.24346 0.81195 0.69506
 C787 C 0.29529 0.82935 0.75329
 C788 C 0.31075 0.76372 0.71005
 H789 H 0.27113 0.80699 0.79398
 H790 H 0.28960 0.72860 0.73774
 H791 H 0.21457 0.72682 0.79766
 H792 H 0.20916 0.78414 0.71935
 H793 H 0.19393 0.82596 0.75847
 H794 H 0.16887 0.79104 0.76063
 H795 H 0.32450 0.73297 0.76482
 H796 H 0.29869 0.70597 0.79003
 H797 H 0.23473 0.85362 0.77093
 H798 H 0.22195 0.81185 0.81951
 H799 H 0.27247 0.71425 0.69996
 H800 H 0.25256 0.68826 0.72971
 H801 H 0.28476 0.77015 0.83325
 H802 H 0.31138 0.79620 0.80508
 H803 H 0.18597 0.73413 0.71397
 H804 H 0.21148 0.75823 0.68521
 O805 O 0.22965 0.20746 0.20086
 O806 O 0.27146 0.20043 0.21854
 O807 O 0.18109 0.20188 0.26462
 O808 O 0.18040 0.21976 0.30435
 O809 O 0.17128 0.26516 0.21416
 O810 O 0.19558 0.30429 0.20830
 O811 O 0.25665 0.26844 0.33062
 O812 O 0.24001 0.22627 0.33163
 O813 O 0.30768 0.26892 0.27043
 O814 O 0.30371 0.25397 0.22452
 O815 O 0.25400 0.32634 0.27668
 O816 O 0.20859 0.32992 0.26055
 O817 O 0.24008 0.30611 0.31495
 O818 O 0.19659 0.31119 0.30121
 O819 O 0.28646 0.30829 0.25440
 O820 O 0.28609 0.28675 0.21131
 O821 O 0.29285 0.25280 0.30724
 O822 O 0.27416 0.20846 0.30682
 O823 O 0.20991 0.24451 0.18777
 O824 O 0.22380 0.28709 0.18689
 O825 O 0.15820 0.24700 0.25070
 O826 O 0.16408 0.25639 0.29569
 O827 O 0.21459 0.18429 0.24353
 O828 O 0.26055 0.18274 0.25600
 Zr829 Zr 0.24044 0.21474 0.23980
 O830 O 0.26849 0.23508 0.26229
 Zr831 Zr 0.19248 0.24016 0.27230
 O832 O 0.21837 0.26211 0.29548
 Zr833 Zr 0.21165 0.26870 0.22006
 O834 O 0.23902 0.29122 0.24085
 Zr835 Zr 0.25423 0.24334 0.29856
 O836 O 0.22757 0.21997 0.27733
 Zr837 Zr 0.27413 0.27092 0.24593
 O838 O 0.24780 0.24981 0.22218
 Zr839 Zr 0.22611 0.29714 0.27786
 O840 O 0.19725 0.27676 0.25629
 O841 O 0.20459 0.23306 0.23556
 O842 O 0.26149 0.27851 0.28233
 C843 C 0.21842 0.22172 0.18359
 C844 C 0.19265 0.18287 0.25392
 C845 C 0.15376 0.25718 0.22877
 C846 C 0.25121 0.29254 0.33262
 C847 C 0.31051 0.26272 0.29411
 C848 C 0.27634 0.32678 0.26690
 H849 H 0.28479 0.22510 0.26388
 H850 H 0.24121 0.30771 0.23206
 H851 H 0.19179 0.22311 0.22499
 H852 H 0.21112 0.26497 0.31249
 H853 H 0.23219 0.20975 0.32605
 H854 H 0.19145 0.22532 0.31924
 H855 H 0.27577 0.30251 0.20804
 H856 H 0.24158 0.28083 0.18414
 H857 H 0.28379 0.21071 0.32348
 H858 H 0.25688 0.16730 0.24522
 H859 H 0.21094 0.34457 0.27264
 H860 H 0.18443 0.31029 0.22209
 H861 H 0.27719 0.21463 0.20779
 H862 H 0.31009 0.23852 0.23368
 H863 H 0.15993 0.27366 0.28900
 H864 H 0.18031 0.31107 0.29059
 O865 O 0.73185 0.68757 0.29659
 O866 O 0.69460 0.68849 0.26779
 O867 O 0.79450 0.68333 0.24772
 O868 O 0.81030 0.70594 0.21624
 O869 O 0.79541 0.73999 0.30990
 O870 O 0.77341 0.77885 0.31742
 O871 O 0.74262 0.76760 0.17886
 O872 O 0.75828 0.72588 0.17439
 O873 O 0.67814 0.76517 0.22394
 O874 O 0.66872 0.75155 0.26434
 O875 O 0.74199 0.81815 0.24413
 O876 O 0.78554 0.81198 0.26279
 O877 O 0.75944 0.79992 0.20383
 O878 O 0.80102 0.79773 0.23111
 O879 O 0.70135 0.80393 0.25032
 O880 O 0.68766 0.77642 0.28802
 O881 O 0.69971 0.74928 0.19027
 O882 O 0.71841 0.70665 0.18667
 O883 O 0.74944 0.71986 0.32096
 O884 O 0.73760 0.76438 0.32502
 O885 O 0.81705 0.72358 0.27650
 O886 O 0.82404 0.74039 0.23376
 O887 O 0.75485 0.66869 0.25733
 O888 O 0.71288 0.67413 0.23537
 Zr889 Zr 0.73166 0.70191 0.25919
 O890 O 0.71251 0.72877 0.23521
 Zr891 Zr 0.78939 0.72368 0.24547
 O892 O 0.77254 0.75104 0.22016
 Zr893 Zr 0.75821 0.74833 0.29461
 O894 O 0.74086 0.77715 0.27177
 Zr895 Zr 0.73641 0.73853 0.20548
 O896 O 0.75482 0.70947 0.22796
 Zr897 Zr 0.70597 0.76357 0.25475
 O898 O 0.72211 0.73532 0.27992
 Zr899 Zr 0.76407 0.78461 0.24076
 O900 O 0.78315 0.75824 0.26563
 O901 O 0.76676 0.71425 0.27570
 O902 O 0.72857 0.77298 0.22439
 C903 C 0.73948 0.69746 0.31817
 C904 C 0.77873 0.66508 0.25242
 C905 C 0.81607 0.73158 0.29983
 C906 C 0.75086 0.79065 0.18228
 C907 C 0.67923 0.75824 0.20032
 C908 C 0.71788 0.82200 0.24747
 H909 H 0.69621 0.72091 0.22851
 H910 H 0.73834 0.79251 0.28264
 H911 H 0.77564 0.70151 0.28696
 H912 H 0.78412 0.75439 0.20605
 H913 H 0.76425 0.70825 0.17844
 H914 H 0.80259 0.71220 0.19984
 H915 H 0.69766 0.79105 0.29534
 H916 H 0.71973 0.75778 0.32313
 H917 H 0.71411 0.71141 0.16866
 H918 H 0.72346 0.67190 0.22018
 H919 H 0.77563 0.81615 0.27806
 H920 H 0.78767 0.78628 0.30796
 H921 H 0.68780 0.70045 0.28074
 H922 H 0.66703 0.73347 0.25864
 H923 H 0.82642 0.75644 0.24383
 H924 H 0.80513 0.79033 0.21426
 O925 O 0.84151 0.25016 0.72907
 O926 O 0.84459 0.26821 0.77262
 O927 O 0.78337 0.19319 0.73536
 O928 O 0.74065 0.19154 0.74039
 O929 O 0.78045 0.25148 0.67190
 O930 O 0.76780 0.29495 0.67061
 O931 O 0.71478 0.26235 0.79406
 O932 O 0.73722 0.22420 0.79984
 O933 O 0.77586 0.31935 0.79768
 O934 O 0.81712 0.32301 0.77517
 O935 O 0.71833 0.32278 0.74322
 O936 O 0.71428 0.30133 0.69855
 O937 O 0.69680 0.28158 0.75861
 O938 O 0.69336 0.26918 0.71506
 O939 O 0.75634 0.33936 0.75882
 O940 O 0.80001 0.34010 0.74411
 O941 O 0.75369 0.28661 0.81450
 O942 O 0.77464 0.24376 0.81857
 O943 O 0.82276 0.26782 0.69313
 O944 O 0.80167 0.30996 0.68880
 O945 O 0.76430 0.21513 0.68840
 O946 O 0.72290 0.21179 0.71096
 O947 O 0.81956 0.21123 0.75380
 O948 O 0.82980 0.23620 0.78922
 Zr949 Zr 0.81159 0.25038 0.75527
 O950 O 0.79016 0.27412 0.77934
 Zr951 Zr 0.75842 0.22508 0.72752
 O952 O 0.73490 0.24831 0.75052
 Zr953 Zr 0.78479 0.27647 0.70300
 O954 O 0.76224 0.30172 0.72455
 Zr955 Zr 0.75403 0.25776 0.78559
 O956 O 0.77670 0.23224 0.76385
 Zr957 Zr 0.78161 0.30822 0.75998
 O958 O 0.80561 0.28571 0.73711
 Zr959 Zr 0.72742 0.28412 0.73333
 O960 O 0.74865 0.25968 0.70880
 O961 O 0.79355 0.24127 0.72005
 O962 O 0.74587 0.29276 0.76834
 C963 C 0.84188 0.25739 0.70566
 C964 C 0.80600 0.19178 0.74669
 C965 C 0.77268 0.22830 0.66970
 C966 C 0.69536 0.27185 0.78105
 C967 C 0.76364 0.30920 0.81574
 C968 C 0.73223 0.34131 0.75272
 H969 H 0.80001 0.27710 0.79571
 H970 H 0.75886 0.31774 0.71498
 H971 H 0.80384 0.22912 0.70988
 H972 H 0.71883 0.23877 0.75324
 H973 H 0.74938 0.20991 0.79654
 H974 H 0.73400 0.19581 0.75735
 H975 H 0.79138 0.34354 0.72726
 H976 H 0.81605 0.31470 0.70099
 H977 H 0.76330 0.24560 0.83330
 H978 H 0.81592 0.22865 0.79910
 H979 H 0.69980 0.31321 0.70215
 H980 H 0.74973 0.28889 0.66884
 H981 H 0.84777 0.28388 0.76275
 H982 H 0.82250 0.31275 0.79029
 H983 H 0.71812 0.22342 0.69666
 H984 H 0.69174 0.25121 0.72056
 C985 C 0.10189 0.99759 1.23583
 C986 C 0.09281 0.99468 1.20995
 C987 C 0.10784 0.98092 1.19243
 C988 C 0.13151 0.97060 1.20067
 C989 C 0.14074 0.97433 1.22571
 C990 C 0.12623 0.98728 1.24439
 C991 C 0.09966 0.97850 1.16659
 C992 C 0.07666 0.99012 1.15754
 C993 C 0.06145 1.00399 1.17487
 C994 C 0.06949 1.00608 1.20094
 C995 C 0.03851 1.01571 1.16574
 C996 C 0.03069 1.01364 1.13990
 C997 C 0.04559 0.99983 1.12235
 C998 C 0.06875 0.98820 1.13142
 H999 H 0.09078 1.00942 1.24848
 H1000 H 0.14359 0.96050 1.18739
 H1001 H 0.16013 0.96764 1.22974
 H1002 H 0.11150 0.96796 1.15339
 H1003 H 0.05779 1.01685 1.21406
 H1004 H 0.02655 1.02649 1.17860
 H1005 H 0.01279 1.02300 1.13368
 H1006 H 0.08045 0.97744 1.11828
 C1007 C 0.61505 0.51769 0.70475
 C1008 C 0.59883 0.52223 0.68342
 C1009 C 0.57223 0.52675 0.68634
 C1010 C 0.56275 0.52805 0.71110
 C1011 C 0.57935 0.52380 0.73261
 C1012 C 0.60560 0.51734 0.72960
 C1013 C 0.55574 0.52947 0.66444
 C1014 C 0.56580 0.52754 0.63989
 C1015 C 0.59273 0.52405 0.63744
 C1016 C 0.60901 0.52155 0.65917
 C1017 C 0.60303 0.52233 0.61325
 C1018 C 0.58676 0.52296 0.59147
 C1019 C 0.55982 0.52533 0.59341
 C1020 C 0.54946 0.52829 0.61775
 H1021 H 0.63530 0.51346 0.70202
 H1022 H 0.54251 0.53220 0.71382
 H1023 H 0.57145 0.52556 0.75131
 H1024 H 0.53516 0.53245 0.66646
 H1025 H 0.62958 0.51834 0.65716
 H1026 H 0.62366 0.51990 0.61116
 H1027 H 0.59539 0.52102 0.57304
 H1028 H 0.52875 0.53036 0.61951
 C1029 C 0.38096 -0.00225 0.67548
 C1030 C 0.39823 -0.00581 0.65613
 C1031 C 0.42514 -0.00372 0.66153
 C1032 C 0.43439 0.00143 0.68689
 C1033 C 0.41723 0.00542 0.70686
 C1034 C 0.38996 0.00419 0.70022
 C1035 C 0.44210 -0.00536 0.64115
 C1036 C 0.43225 -0.00860 0.61574
 C1037 C 0.40528 -0.01135 0.61096
 C1038 C 0.38860 -0.01040 0.63117
 C1039 C 0.39512 -0.01408 0.58588
 C1040 C 0.41132 -0.01317 0.56543
 C1041 C 0.43809 -0.00994 0.56961
 C1042 C 0.44862 -0.00828 0.59489
 H1043 H 0.36039 -0.00417 0.67124
 H1044 H 0.45486 0.00442 0.69090
 H1045 H 0.42746 0.01903 0.72631
 H1046 H 0.46274 -0.00323 0.64494
 H1047 H 0.36790 -0.01212 0.62730
 H1048 H 0.37450 -0.01631 0.58204
 H1049 H 0.40284 -0.01494 0.54620
 H1050 H 0.46926 -0.00579 0.59826
 C1051 C -0.08161 0.49284 1.19548
 C1052 C -0.07378 0.48586 1.17099
 C1053 C -0.09187 0.47548 1.15286
 C1054 C -0.11722 0.47142 1.15992
 C1055 C -0.12444 0.47709 1.18478
 C1056 C -0.10662 0.48701 1.20364
 C1057 C -0.08448 0.46997 1.12784
 C1058 C -0.05886 0.47381 1.12105
 C1059 C -0.04040 0.48274 1.13977
 C1060 C -0.04809 0.48928 1.16437
 C1061 C -0.01452 0.48523 1.13351
 C1062 C -0.00708 0.47974 1.10875
 C1063 C -0.02545 0.47235 1.08959
 C1064 C -0.05136 0.46919 1.09585
 H1065 H -0.06834 0.50403 1.20746
 H1066 H -0.13158 0.46391 1.14618
 H1067 H -0.14444 0.47421 1.18889
 H1068 H -0.09862 0.46272 1.11371
 H1069 H -0.03402 0.49677 1.17845
 H1070 H -0.00008 0.49175 1.14769
 H1071 H 0.01294 0.48251 1.10424
 H1072 H -0.06558 0.46336 1.08114
 C1073 C -0.10288 0.51073 0.27565
 C1074 C -0.08678 0.51079 0.29789
 C1075 C -0.06183 0.49985 0.29745
 C1076 C -0.05342 0.48919 0.27463
 C1077 C -0.07000 0.48820 0.25283
 C1078 C -0.09517 0.49932 0.25247
 C1079 C -0.04647 0.49810 0.32021
 C1080 C -0.05634 0.50616 0.34358
 C1081 C -0.08136 0.51732 0.34384
 C1082 C -0.09612 0.52010 0.32097
 C1083 C -0.09174 0.52454 0.36712
 C1084 C -0.07798 0.51983 0.39006
 C1085 C -0.05332 0.50835 0.39017
 C1086 C -0.04221 0.50220 0.36682
 H1087 H -0.12231 0.51795 0.27729
 H1088 H -0.03464 0.47989 0.27410
 H1089 H -0.06365 0.47614 0.23742
 H1090 H -0.02742 0.48929 0.31991
 H1091 H -0.11541 0.52835 0.32135
 H1092 H -0.11084 0.53316 0.36764
 H1093 H -0.08670 0.52510 0.40785
 H1094 H -0.02321 0.49330 0.36682
 C1095 C 0.37865 0.99624 -0.23097
 C1096 C 0.39472 0.99069 -0.20990
 C1097 C 0.42185 0.99240 -0.21132
 C1098 C 0.43250 0.99894 -0.23489
 C1099 C 0.41649 1.00408 -0.25694
 C1100 C 0.38902 1.00277 -0.25413
 C1101 C 0.43748 0.98888 -0.18875
 C1102 C 0.42604 0.98333 -0.16536
 C1103 C 0.39889 0.98037 -0.16505
 C1104 C 0.38356 0.98405 -0.18717
 C1105 C 0.38707 0.97441 -0.14245
 C1106 C 0.40173 0.97212 -0.11983
 C1107 C 0.42866 0.97583 -0.11911
 C1108 C 0.44089 0.98113 -0.14214
 H1109 H 0.35785 0.99560 -0.22939
 H1110 H 0.45313 1.00191 -0.23578
 H1111 H 0.45828 0.99093 -0.18928
 H1112 H 0.36270 0.98236 -0.18655
 H1113 H 0.36630 0.97196 -0.14214
 H1114 H 0.39161 0.96800 -0.10267
 H1115 H 0.46163 0.98388 -0.14193
 C1116 C 0.59326 0.49314 -0.21693
 C1117 C 0.58415 0.49056 -0.19218
 C1118 C 0.59677 0.50355 -0.17140
 C1119 C 0.61853 0.51828 -0.17549
 C1120 C 0.62750 0.52068 -0.19999
 C1121 C 0.61440 0.50919 -0.22149
 C1122 C 0.58760 0.50155 -0.14676
 C1123 C 0.56573 0.48689 -0.14255
 C1124 C 0.55321 0.47350 -0.16316
 C1125 C 0.56260 0.47527 -0.18786
 C1126 C 0.53120 0.45899 -0.15876
 C1127 C 0.52122 0.45849 -0.13439
 C1128 C 0.53319 0.47231 -0.11391
 C1129 C 0.55583 0.48600 -0.11809
 H1130 H 0.58390 0.48267 -0.23271
 H1131 H 0.62887 0.52776 -0.15964
 H1132 H 0.64519 0.53127 -0.20166
 H1133 H 0.59728 0.51172 -0.13092
 H1134 H 0.55290 0.46516 -0.20371
 H1135 H 0.52140 0.44849 -0.17426
 H1136 H 0.50382 0.44760 -0.13170
 H1137 H 0.56525 0.49679 -0.10255
 C1138 C 0.09788 -0.00448 0.29783
 C1139 C 0.08679 -0.00113 0.32200
 C1140 C 0.10155 0.00996 0.34258
 C1141 C 0.12678 0.01755 0.33892
 C1142 C 0.13797 0.01302 0.31566
 C1143 C 0.12409 0.00208 0.29427
 C1144 C 0.09154 0.01207 0.36702
 C1145 C 0.06704 0.00251 0.37167
 C1146 C 0.05194 -0.00842 0.35122
 C1147 C 0.06176 -0.00995 0.32648
 C1148 C 0.02746 -0.01809 0.35604
 C1149 C 0.01823 -0.01724 0.38079
 C1150 C 0.03322 -0.00670 0.40144
 C1151 C 0.05767 0.00327 0.39658
 H1152 H 0.08688 -0.01462 0.28293
 H1153 H 0.13852 0.02572 0.35458
 H1154 H 0.15829 0.01720 0.31515
 H1155 H 0.10323 0.02037 0.38267
 H1156 H 0.05023 -0.01865 0.31095
 H1157 H 0.01552 -0.02655 0.34071
 H1158 H -0.00068 -0.02514 0.38377
 H1159 H 0.06945 0.01157 0.41214
 C1160 C 0.21536 1.09573 1.01820
 C1161 C 0.18942 1.08717 1.01804
 C1162 C 0.17050 1.09871 1.00152
 C1163 C 0.17750 1.11867 0.98586
 C1164 C 0.20256 1.12817 0.98736
 C1165 C 0.22238 1.11697 1.00336
 C1166 C 0.14456 1.09097 1.00157
 C1167 C 0.13684 1.07225 1.01858
 C1168 C 0.15555 1.06091 1.03552
 C1169 C 0.18174 1.06816 1.03494
 C1170 C 0.14772 1.04244 1.05275
 C1171 C 0.12189 1.03474 1.05268
 C1172 C 0.10313 1.04532 1.03542
 C1173 C 0.11076 1.06453 1.01871
 H1174 H 0.22965 1.08706 1.03121
 H1175 H 0.16314 1.12807 0.97343
 H1176 H 0.20550 1.14539 0.97666
 H1177 H 0.13026 1.09992 0.98870
 H1178 H 0.19599 1.05937 1.04796
 H1179 H 0.16166 1.03360 1.06603
 H1180 H 0.11669 1.01992 1.06583
 H1181 H 0.09668 1.07269 1.00511
 C1182 C 0.70201 0.62599 0.50738
 C1183 C 0.67848 0.61269 0.50531
 C1184 C 0.67850 0.58657 0.49788
 C1185 C 0.70165 0.57450 0.49178
 C1186 C 0.72479 0.58796 0.49332
 C1187 C 0.72572 0.61362 0.50228
 C1188 C 0.65533 0.57295 0.49618
 C1189 C 0.63195 0.58516 0.50144
 C1190 C 0.63155 0.61145 0.50820
 C1191 C 0.65492 0.62507 0.51027
 C1192 C 0.60776 0.62349 0.51279
 C1193 C 0.58471 0.60946 0.51106
 C1194 C 0.58523 0.58315 0.50507
 C1195 C 0.60895 0.57128 0.50005
 H1196 H 0.70195 0.64611 0.51280
 H1197 H 0.70181 0.55470 0.48526
 H1198 H 0.74180 0.57814 0.48686
 H1199 H 0.65547 0.55283 0.49067
 H1200 H 0.65478 0.64520 0.51569
 H1201 H 0.60701 0.64367 0.51786
 H1202 H 0.56662 0.61898 0.51501
 H1203 H 0.60952 0.55106 0.49499
 C1204 C 0.70024 0.39105 -0.00434
 C1205 C 0.67681 0.40415 -0.00882
 C1206 C 0.67684 0.43041 -0.01500
 C1207 C 0.70056 0.44287 -0.01720
 C1208 C 0.72396 0.42951 -0.01313
 C1209 C 0.72429 0.40350 -0.00576
 C1210 C 0.65320 0.44359 -0.01916
 C1211 C 0.62958 0.43066 -0.01731
 C1212 C 0.62982 0.40419 -0.01160
 C1213 C 0.65334 0.39117 -0.00738
 C1214 C 0.60648 0.39110 -0.00990
 C1215 C 0.58301 0.40414 -0.01307
 C1216 C 0.58225 0.43061 -0.01807
 C1217 C 0.60572 0.44371 -0.02066
 H1218 H 0.69987 0.37082 0.00017
 H1219 H 0.70103 0.46287 -0.02254
 H1220 H 0.74163 0.43960 -0.01646
 H1221 H 0.65319 0.46382 -0.02372
 H1222 H 0.65339 0.37092 -0.00282
 H1223 H 0.60637 0.37079 -0.00573
 H1224 H 0.56534 0.39343 -0.01126
 H1225 H 0.60546 0.46410 -0.02449
 C1226 C 0.20532 -0.10035 0.52105
 C1227 C 0.18239 -0.08787 0.51300
 C1228 C 0.18141 -0.07309 0.49061
 C1229 C 0.20353 -0.07176 0.47621
 C1230 C 0.22579 -0.08596 0.48330
 C1231 C 0.22763 -0.10033 0.50622
 C1232 C 0.15791 -0.06132 0.48227
 C1233 C 0.13509 -0.06567 0.49531
 C1234 C 0.13626 -0.08160 0.51707
 C1235 C 0.15987 -0.09179 0.52621
 C1236 C 0.11370 -0.08762 0.52928
 C1237 C 0.09007 -0.07778 0.52038
 C1238 C 0.08835 -0.06099 0.49949
 C1239 C 0.11106 -0.05486 0.48695
 H1240 H 0.20424 -0.11215 0.53773
 H1241 H 0.20303 -0.06130 0.45842
 H1242 H 0.24077 -0.08730 0.46956
 H1243 H 0.15717 -0.04972 0.46518
 H1244 H 0.16050 -0.10375 0.54308
 H1245 H 0.11430 -0.10000 0.54581
 H1246 H 0.07313 -0.08253 0.53076
 H1247 H 0.11001 -0.04193 0.47085
 C1248 C 0.28597 -0.08757 0.50224
 C1249 C 0.31243 -0.08327 0.49876
 C1250 C 0.33130 -0.09962 0.51032
 C1251 C 0.32347 -0.12023 0.52472
 C1252 C 0.29730 -0.12577 0.52606
 C1253 C 0.27766 -0.10990 0.51450
 C1254 C 0.35768 -0.09569 0.50662
 C1255 C 0.36547 -0.07621 0.49048
 C1256 C 0.34650 -0.06043 0.47808
 C1257 C 0.32022 -0.06369 0.48271
 C1258 C 0.35416 -0.04134 0.46149
 C1259 C 0.38035 -0.03692 0.45838
 C1260 C 0.39939 -0.05153 0.47166
 C1261 C 0.39191 -0.07173 0.48711
 H1262 H 0.27235 -0.07401 0.49408
 H1263 H 0.33762 -0.13314 0.53357
 H1264 H 0.29279 -0.14361 0.53513
 H1265 H 0.37208 -0.10806 0.51591
 H1266 H 0.30582 -0.05135 0.47336
 H1267 H 0.33994 -0.02921 0.45165
 H1268 H 0.38584 -0.02099 0.44669
 H1269 H 0.40653 -0.08266 0.49783
 C1270 C -0.20335 0.39469 0.98508
 C1271 C -0.17968 0.40746 0.98803
 C1272 C -0.17710 0.42868 1.00486
 C1273 C -0.19844 0.43655 1.01869
 C1274 C -0.22202 0.42356 1.01577
 C1275 C -0.22531 0.40295 0.99819
 C1276 C -0.15308 0.44116 1.00800
 C1277 C -0.13164 0.43242 0.99459
 C1278 C -0.13450 0.41103 0.97786
 C1279 C -0.15840 0.39879 0.97466
 C1280 C -0.11337 0.40202 0.96456
 C1281 C -0.08947 0.41392 0.96773
 C1282 C -0.08602 0.43525 0.98425
 C1283 C -0.10735 0.44447 0.99765
 H1284 H -0.20408 0.37761 0.97318
 H1285 H -0.19678 0.45246 1.03215
 H1286 H -0.23780 0.42947 1.02748
 H1287 H -0.15104 0.45744 1.02099
 H1288 H -0.16040 0.38238 0.96181
 H1289 H -0.11530 0.38565 0.95168
 H1290 H -0.07363 0.40632 0.95702
 H1291 H -0.10506 0.46084 1.01047
 C1292 C -0.20344 0.61746 0.48686
 C1293 C -0.18146 0.60145 0.48712
 C1294 C -0.18016 0.57990 0.50327
 C1295 C -0.20014 0.57545 0.51978
 C1296 C -0.22163 0.59171 0.51977
 C1297 C -0.22449 0.61208 0.50229
 C1298 C -0.15868 0.56339 0.50307
 C1299 C -0.13804 0.56858 0.48750
 C1300 C -0.13876 0.59068 0.47205
 C1301 C -0.16064 0.60680 0.47168
 C1302 C -0.11737 0.59645 0.45755
 C1303 C -0.09539 0.58063 0.45863
 C1304 C -0.09491 0.55841 0.47350
 C1305 C -0.11635 0.55232 0.48767
 H1306 H -0.20382 0.63422 0.47485
 H1307 H -0.19911 0.55945 0.53284
 H1308 H -0.23656 0.58794 0.53308
 H1309 H -0.15787 0.54672 0.51531
 H1310 H -0.16136 0.62358 0.45960
 H1311 H -0.11747 0.61341 0.44577
 H1312 H -0.07881 0.58562 0.44779
 H1313 H -0.11568 0.53540 0.49957
 C1314 C 0.27662 1.09189 -0.00579
 C1315 C 0.30158 1.08149 -0.00987
 C1316 C 0.32385 1.09501 -0.00079
 C1317 C 0.32124 1.11844 0.01177
 C1318 C 0.29695 1.12885 0.01505
 C1319 C 0.27406 1.11593 0.00672
 C1320 C 0.34865 1.08526 -0.00463
 C1321 C 0.35193 1.06207 -0.01765
 C1322 C 0.33001 1.04840 -0.02717
 C1323 C 0.30492 1.05815 -0.02322
 C1324 C 0.33372 1.02507 -0.04016
 C1325 C 0.35873 1.01508 -0.04283
 C1326 C 0.38062 1.02832 -0.03276
 C1327 C 0.37693 1.05216 -0.02070
 H1328 H 0.25955 1.08191 -0.01314
 H1329 H 0.33810 1.12912 0.01860
 H1330 H 0.29592 1.14764 0.02400
 H1331 H 0.36549 1.09580 0.00259
 H1332 H 0.28811 1.04762 -0.03045
 H1333 H 0.31728 1.01424 -0.04775
 H1334 H 0.36085 0.99663 -0.05222
 H1335 H 0.39346 1.06259 -0.01265
 C1336 C -0.01997 1.19897 1.12272
 C1337 C -0.01967 1.17626 1.10849
 C1338 C -0.02813 1.17631 1.08252
 C1339 C -0.03857 1.19898 1.07191
 C1340 C -0.03858 1.22181 1.08637
 C1341 C -0.02717 1.22249 1.11132
 C1342 C -0.02564 1.15384 1.06770
 C1343 C -0.01475 1.13153 1.07876
 C1344 C -0.00739 1.13146 1.10513
 C1345 C -0.00993 1.15379 1.11978
 C1346 C 0.00268 1.10909 1.11647
 C1347 C 0.00559 1.08689 1.10182
 C1348 C -0.00095 1.08690 1.07555
 C1349 C -0.01108 1.10924 1.06401
 H1350 H -0.01272 1.19870 1.14246
 H1351 H -0.04621 1.19918 1.05231
 H1352 H -0.04698 1.23885 1.07777
 H1353 H -0.03170 1.15384 1.04760
 H1354 H -0.00373 1.15385 1.13987
 H1355 H 0.00823 1.10875 1.13667
 H1356 H 0.01322 1.06970 1.11093
 H1357 H -0.01659 1.10902 1.04378
 C1358 C 0.49773 0.71734 0.62297
 C1359 C 0.49514 0.69638 0.60620
 C1360 C 0.48376 0.69967 0.58151
 C1361 C 0.47406 0.72388 0.57460
 C1362 C 0.47639 0.74469 0.59171
 C1363 C 0.48979 0.74238 0.61581
 C1364 C 0.48181 0.67860 0.56452
 C1365 C 0.49072 0.65421 0.57230
 C1366 C 0.50136 0.65099 0.59744
 C1367 C 0.50368 0.67207 0.61408
 C1368 C 0.50949 0.62669 0.60569
 C1369 C 0.50714 0.60562 0.58923
 C1370 C 0.49706 0.60849 0.56406
 C1371 C 0.48899 0.63290 0.55557
 H1372 H 0.50588 0.71354 0.64179
 H1373 H 0.46427 0.72667 0.55610
 H1374 H 0.46714 0.76251 0.58605
 H1375 H 0.47323 0.68112 0.54543
 H1376 H 0.51213 0.66952 0.63324
 H1377 H 0.51760 0.62395 0.62491
 H1378 H 0.51366 0.58702 0.59608
 H1379 H 0.48101 0.63518 0.53622
 C1380 C 0.01441 0.69725 0.37931
 C1381 C 0.01111 0.67504 0.39390
 C1382 C -0.00159 0.67682 0.41725
 C1383 C -0.01108 0.70049 0.42546
 C1384 C -0.00809 0.72227 0.41079
 C1385 C 0.00548 0.72142 0.38787
 C1386 C -0.00520 0.65484 0.43183
 C1387 C 0.00349 0.63087 0.42331
 C1388 C 0.01606 0.62891 0.39990
 C1389 C 0.01987 0.65100 0.38537
 C1390 C 0.02451 0.60483 0.39139
 C1391 C 0.02060 0.58295 0.40591
 C1392 C 0.00821 0.58465 0.42933
 C1393 C -0.00032 0.60882 0.43785
 H1394 H 0.02345 0.69566 0.36106
 H1395 H -0.02137 0.70210 0.44302
 H1396 H -0.01690 0.73986 0.41739
 H1397 H -0.01499 0.65637 0.44972
 H1398 H 0.02951 0.64945 0.36741
 H1399 H 0.03415 0.60289 0.37348
 H1400 H 0.02742 0.56467 0.39876
 H1401 H -0.00996 0.61054 0.45578
 C1402 C 0.52668 1.17711 -0.11575
 C1403 C 0.51749 1.15554 -0.10321
 C1404 C 0.51012 1.15780 -0.07763
 C1405 C 0.51184 1.18166 -0.06518
 C1406 C 0.51993 1.20330 -0.07812
 C1407 C 0.52780 1.20153 -0.10365
 C1408 C 0.50043 1.13637 -0.06518
 C1409 C 0.49761 1.11277 -0.07819
 C1410 C 0.50465 1.11066 -0.10395
 C1411 C 0.51467 1.13198 -0.11623
 C1412 C 0.50179 1.08716 -0.11696
 C1413 C 0.49291 1.06567 -0.10437
 C1414 C 0.48648 1.06723 -0.07855
 C1415 C 0.48835 1.09110 -0.06573
 H1416 H 0.53163 1.17531 -0.13562
 H1417 H 0.50577 1.18386 -0.04570
 H1418 H 0.51841 1.22147 -0.06826
 H1419 H 0.49490 1.13811 -0.04547
 H1420 H 0.52009 1.13029 -0.13598
 H1421 H 0.50695 1.08524 -0.13675
 H1422 H 0.49169 1.04759 -0.11473
 H1423 H 0.48375 1.09257 -0.04575
 C1424 C 0.51994 0.27312 -0.11546
 C1425 C 0.51877 0.29594 -0.10148
 C1426 C 0.53283 0.29851 -0.07795
 C1427 C 0.54876 0.27809 -0.06945
 C1428 C 0.54931 0.25491 -0.08343
 C1429 C 0.53321 0.25133 -0.10566
 C1430 C 0.53058 0.32139 -0.06356
 C1431 C 0.51405 0.34131 -0.07250
 C1432 C 0.50033 0.33834 -0.09633
 C1433 C 0.50302 0.31592 -0.11071
 C1434 C 0.48377 0.35772 -0.10548
 C1435 C 0.48069 0.38007 -0.09131
 C1436 C 0.49416 0.38369 -0.06762
 C1437 C 0.51085 0.36411 -0.05819
 H1438 H 0.50981 0.27245 -0.13398
 H1439 H 0.56043 0.27986 -0.05184
 H1440 H 0.56158 0.23940 -0.07639
 H1441 H 0.54129 0.32352 -0.04540
 H1442 H 0.49228 0.31375 -0.12888
 H1443 H 0.47311 0.35558 -0.12367
 H1444 H 0.46764 0.39463 -0.09908
 H1445 H 0.52146 0.36670 -0.04005
 C1446 C -0.00587 -0.20683 0.37949
 C1447 C -0.00383 -0.18441 0.39471
 C1448 C 0.01184 -0.18455 0.41753
 C1449 C 0.02565 -0.20665 0.42446
 C1450 C 0.02357 -0.22868 0.40934
 C1451 C 0.00694 -0.22969 0.38719
 C1452 C 0.01367 -0.16255 0.43308
 C1453 C 0.00007 -0.14022 0.42617
 C1454 C -0.01531 -0.13975 0.40318
 C1455 C -0.01715 -0.16185 0.38755
 C1456 C -0.02867 -0.11720 0.39633
 C1457 C -0.02705 -0.09547 0.41222
 C1458 C -0.01209 -0.09587 0.43535
 C1459 C 0.00155 -0.11839 0.44205
 H1460 H -0.01732 -0.20636 0.36168
 H1461 H 0.03816 -0.20693 0.44162
 H1462 H 0.03489 -0.24526 0.41530
 H1463 H 0.02563 -0.16286 0.45063
 H1464 H -0.02908 -0.16154 0.37000
 H1465 H -0.04050 -0.11640 0.37875
 H1466 H -0.03777 -0.07842 0.40648
 H1467 H 0.01329 -0.11902 0.45971
 C1468 C 0.50145 -0.20361 0.59769
 C1469 C 0.50082 -0.17903 0.58693
 C1470 C 0.49475 -0.15752 0.60218
 C1471 C 0.48972 -0.16087 0.62786
 C1472 C 0.48951 -0.18537 0.63812
 C1473 C 0.49384 -0.20761 0.62302
 C1474 C 0.49394 -0.13295 0.59164
 C1475 C 0.49837 -0.12965 0.56570
 C1476 C 0.50412 -0.15120 0.55022
 C1477 C 0.50579 -0.17569 0.56104
 C1478 C 0.50771 -0.14791 0.52409
 C1479 C 0.50543 -0.12357 0.51337
 C1480 C 0.50001 -0.10201 0.52866
 C1481 C 0.49674 -0.10516 0.55490
 H1482 H 0.50826 -0.21944 0.58623
 H1483 H 0.48577 -0.14451 0.64007
 H1484 H 0.48606 -0.18636 0.65817
 H1485 H 0.48942 -0.11646 0.60352
 H1486 H 0.51028 -0.19219 0.54917
 H1487 H 0.51205 -0.16418 0.51191
 H1488 H 0.50824 -0.12156 0.49310
 H1489 H 0.49235 -0.08865 0.56678
 C1490 C -0.01337 0.27584 1.08804
 C1491 C -0.01126 0.30027 1.07722
 C1492 C -0.01630 0.32234 1.09219
 C1493 C -0.02364 0.31982 1.11731
 C1494 C -0.02608 0.29568 1.12770
 C1495 C -0.02198 0.27307 1.11316
 C1496 C -0.01326 0.34674 1.08214
 C1497 C -0.00557 0.34954 1.05711
 C1498 C -0.00126 0.32771 1.04158
 C1499 C -0.00386 0.30310 1.05185
 C1500 C 0.00561 0.33103 1.01614
 C1501 C 0.00846 0.35576 1.00642
 C1502 C 0.00506 0.37732 1.02225
 C1503 C -0.00209 0.37404 1.04747
 H1504 H -0.00750 0.25927 1.07709
 H1505 H -0.02706 0.33659 1.12916
 H1506 H -0.03070 0.29478 1.14765
 H1507 H -0.01675 0.36359 1.09389
 H1508 H -0.00019 0.28627 1.04016
 H1509 H 0.00880 0.31458 1.00382
 H1510 H 0.01385 0.35805 0.98681
 H1511 H -0.00526 0.39071 1.05957
 C1512 C 0.73533 0.37787 0.04328
 C1513 C 0.73683 0.36310 0.06554
 C1514 C 0.75504 0.34284 0.06783
 C1515 C 0.77196 0.33819 0.04816
 C1516 C 0.77020 0.35280 0.02600
 C1517 C 0.75103 0.37204 0.02254
 C1518 C 0.75609 0.32759 0.08974
 C1519 C 0.73911 0.33235 0.10943
 C1520 C 0.72118 0.35291 0.10735
 C1521 C 0.72018 0.36817 0.08546
 C1522 C 0.70448 0.35783 0.12722
 C1523 C 0.70553 0.34255 0.14897
 C1524 C 0.72312 0.32193 0.15116
 C1525 C 0.73985 0.31690 0.13123
 H1526 H 0.72184 0.39381 0.04234
 H1527 H 0.78640 0.32308 0.04978
 H1528 H 0.78346 0.34856 0.01105
 H1529 H 0.77001 0.31197 0.09141
 H1530 H 0.70629 0.38381 0.08380
 H1531 H 0.69065 0.37352 0.12596
 H1532 H 0.69242 0.34682 0.16406
 H1533 H 0.75371 0.30125 0.13284
 C1534 C 0.24648 0.87475 0.55893
 C1535 C 0.24425 0.86054 0.58130
 C1536 C 0.24099 0.83371 0.57953
 C1537 C 0.23997 0.82157 0.55563
 C1538 C 0.24227 0.83573 0.53349
 C1539 C 0.24499 0.86275 0.53452
 C1540 C 0.23941 0.81924 0.60169
 C1541 C 0.24122 0.83122 0.62572
 C1542 C 0.24417 0.85809 0.62771
 C1543 C 0.24562 0.87265 0.60542
 C1544 C 0.24591 0.86981 0.65199
 C1545 C 0.24519 0.85493 0.67404
 C1546 C 0.24279 0.82813 0.67209
 C1547 C 0.24053 0.81651 0.64781
 H1548 H 0.24946 0.89528 0.56031
 H1549 H 0.23796 0.80093 0.55404
 H1550 H 0.24281 0.82489 0.51586
 H1551 H 0.23715 0.79860 0.60025
 H1552 H 0.24809 0.89326 0.60686
 H1553 H 0.24812 0.89039 0.65393
 H1554 H 0.24705 0.86434 0.69258
 H1555 H 0.23842 0.79588 0.64603
 C1556 C 0.74366 0.63878 0.55063
 C1557 C 0.74851 0.65319 0.57311
 C1558 C 0.76533 0.67439 0.57290
 C1559 C 0.77832 0.67978 0.55072
 C1560 C 0.77400 0.66488 0.52869
 C1561 C 0.75533 0.64524 0.52766
 C1562 C 0.76916 0.68966 0.59493
 C1563 C 0.75694 0.68353 0.61743
 C1564 C 0.74127 0.66144 0.61809
 C1565 C 0.73690 0.64659 0.59584
 C1566 C 0.73010 0.65468 0.64098
 C1567 C 0.73402 0.66992 0.66290
 C1568 C 0.74861 0.69245 0.66206
 C1569 C 0.76013 0.69914 0.63933
 H1570 H 0.73108 0.62234 0.55128
 H1571 H 0.79198 0.69541 0.55045
 H1572 H 0.78485 0.66916 0.51204
 H1573 H 0.78167 0.70624 0.59458
 H1574 H 0.72443 0.62999 0.59620
 H1575 H 0.71823 0.63771 0.64190
 H1576 H 0.72493 0.66458 0.68032
 H1577 H 0.77163 0.71642 0.63878
 C1578 C 0.23089 0.16129 0.04484
 C1579 C 0.22930 0.16822 0.07097
 C1580 C 0.24290 0.15363 0.08988
 C1581 C 0.25702 0.13214 0.08276
 C1582 C 0.25852 0.12547 0.05716
 C1583 C 0.24684 0.14061 0.03736
 C1584 C 0.24216 0.16050 0.11578
 C1585 C 0.22812 0.18205 0.12333
 C1586 C 0.21400 0.19654 0.10471
 C1587 C 0.21452 0.18947 0.07864
 C1588 C 0.20002 0.21815 0.11251
 C1589 C 0.20077 0.22575 0.13826
 C1590 C 0.21540 0.21184 0.15686
 C1591 C 0.22858 0.18962 0.14920
 H1592 H 0.21981 0.17194 0.03042
 H1593 H 0.26686 0.12026 0.09706
 H1594 H 0.26888 0.10792 0.05307
 H1595 H 0.25287 0.14926 0.13005
 H1596 H 0.20387 0.20074 0.06437
 H1597 H 0.18894 0.22949 0.09863
 H1598 H 0.19023 0.24290 0.14350
 H1599 H 0.23998 0.17870 0.16320
 C1600 C 0.25276 0.14324 0.96278
 C1601 C 0.25761 0.15958 0.94268
 C1602 C 0.26195 0.18583 0.94754
 C1603 C 0.26186 0.19498 0.97297
 C1604 C 0.25735 0.17826 0.99325
 C1605 C 0.25201 0.15210 0.98838
 C1606 C 0.26653 0.20218 0.92690
 C1607 C 0.26685 0.19228 0.90167
 C1608 C 0.26286 0.16575 0.89733
 C1609 C 0.25826 0.14968 0.91777
 C1610 C 0.26327 0.15556 0.87253
 C1611 C 0.26703 0.17146 0.85188
 C1612 C 0.27051 0.19800 0.85548
 C1613 C 0.27076 0.20829 0.88061
 H1614 H 0.24945 0.12310 0.95853
 H1615 H 0.26571 0.21500 0.97723
 H1616 H 0.25880 0.18584 1.01252
 H1617 H 0.26973 0.22246 0.93044
 H1618 H 0.25506 0.12937 0.91427
 H1619 H 0.26039 0.13524 0.86903
 H1620 H 0.26691 0.16288 0.83294
 H1621 H 0.27341 0.22870 0.88373
 C1622 C 0.74794 0.63446 0.45429
 C1623 C 0.74397 0.64883 0.43199
 C1624 C 0.73923 0.67547 0.43387
 C1625 C 0.73712 0.68697 0.45796
 C1626 C 0.74048 0.67240 0.48006
 C1627 C 0.74748 0.64617 0.47873
 C1628 C 0.73646 0.69016 0.41167
 C1629 C 0.73803 0.67845 0.38755
 C1630 C 0.74160 0.65159 0.38559
 C1631 C 0.74470 0.63696 0.40784
 C1632 C 0.74241 0.63990 0.36138
 C1633 C 0.74056 0.65478 0.33934
 C1634 C 0.73817 0.68158 0.34119
 C1635 C 0.73651 0.69326 0.36536
 H1636 H 0.75161 0.61403 0.45270
 H1637 H 0.73253 0.70720 0.45973
 H1638 H 0.73722 0.68188 0.49811
 H1639 H 0.73328 0.71070 0.41315
 H1640 H 0.74793 0.61643 0.40638
 H1641 H 0.74495 0.61933 0.35951
 H1642 H 0.74200 0.64541 0.32087
 H1643 H 0.73442 0.71392 0.36690
 C1644 C 0.26938 0.85786 0.47051
 C1645 C 0.26707 0.84253 0.44853
 C1646 C 0.24322 0.83081 0.44171
 C1647 C 0.22186 0.83516 0.45665
 C1648 C 0.22416 0.85085 0.47831
 C1649 C 0.24807 0.86211 0.48606
 C1650 C 0.24105 0.81513 0.41991
 C1651 C 0.26228 0.81165 0.40453
 C1652 C 0.28601 0.82390 0.41098
 C1653 C 0.28835 0.83899 0.43316
 C1654 C 0.30684 0.82119 0.39488
 C1655 C 0.30402 0.80676 0.37234
 C1656 C 0.28060 0.79436 0.36611
 C1657 C 0.25992 0.79659 0.38238
 H1658 H 0.28799 0.86637 0.47502
 H1659 H 0.20335 0.82651 0.45155
 H1660 H 0.20727 0.85377 0.48954
 H1661 H 0.22278 0.80598 0.41472
 H1662 H 0.30658 0.84827 0.43826
 H1663 H 0.32509 0.83056 0.39949
 H1664 H 0.32009 0.80521 0.35981
 H1665 H 0.24166 0.78738 0.37727
 C1666 C 0.75080 0.37918 0.94917
 C1667 C 0.75024 0.36342 0.92735
 C1668 C 0.74455 0.33709 0.92934
 C1669 C 0.73894 0.32718 0.95321
 C1670 C 0.74012 0.34291 0.97502
 C1671 C 0.74744 0.36894 0.97360
 C1672 C 0.74478 0.32116 0.90752
 C1673 C 0.75137 0.33119 0.88389
 C1674 C 0.75704 0.35762 0.88213
 C1675 C 0.75604 0.37358 0.90370
 C1676 C 0.76426 0.36768 0.85892
 C1677 C 0.76636 0.35173 0.83767
 C1678 C 0.76079 0.32538 0.83890
 C1679 C 0.75295 0.31523 0.86211
 H1680 H 0.75494 0.39942 0.94738
 H1681 H 0.73383 0.30719 0.95506
 H1682 H 0.73503 0.33451 0.99289
 H1683 H 0.74046 0.30093 0.90905
 H1684 H 0.76052 0.39379 0.90223
 H1685 H 0.76874 0.38785 0.85728
 H1686 H 0.77254 0.36019 0.82019
 H1687 H 0.74872 0.29497 0.86338
 C1688 C 0.84129 0.46654 0.23484
 C1689 C 0.82970 0.44266 0.23996
 C1690 C 0.84509 0.42230 0.24992
 C1691 C 0.87143 0.42582 0.25451
 C1692 C 0.88279 0.44892 0.24878
 C1693 C 0.86829 0.47035 0.23947
 C1694 C 0.83433 0.39818 0.25403
 C1695 C 0.80823 0.39366 0.24780
 C1696 C 0.79248 0.41390 0.23808
 C1697 C 0.80322 0.43832 0.23436
 C1698 C 0.76636 0.40915 0.23175
 C1699 C 0.75620 0.38456 0.23439
 C1700 C 0.77186 0.36405 0.24348
 C1701 C 0.79789 0.36898 0.25051
 H1702 H 0.82952 0.48124 0.22561
 H1703 H 0.88364 0.41022 0.26158
 H1704 H 0.90349 0.44913 0.25097
 H1705 H 0.84650 0.38267 0.26140
 H1706 H 0.79114 0.45370 0.22662
 H1707 H 0.75386 0.42435 0.22434
 H1708 H 0.73604 0.38158 0.22883
 H1709 H 0.81027 0.35352 0.25756
 C1710 C 0.36169 0.95934 0.71936
 C1711 C 0.34614 0.93838 0.72444
 C1712 C 0.31998 0.94240 0.73006
 C1713 C 0.30991 0.96738 0.73057
 C1714 C 0.32591 0.98832 0.72683
 C1715 C 0.35214 0.98471 0.72114
 C1716 C 0.30468 0.92151 0.73630
 C1717 C 0.31556 0.89684 0.73794
 C1718 C 0.34185 0.89290 0.73260
 C1719 C 0.35685 0.91363 0.72542
 C1720 C 0.35282 0.86834 0.73490
 C1721 C 0.33786 0.84780 0.74238
 C1722 C 0.31161 0.85144 0.74745
 C1723 C 0.30061 0.87609 0.74517
 H1724 H 0.38197 0.95606 0.71594
 H1725 H 0.28998 0.97082 0.73528
 H1726 H 0.31787 1.00720 0.72994
 H1727 H 0.28457 0.92457 0.74065
 H1728 H 0.37705 0.91063 0.72140
 H1729 H 0.37295 0.86501 0.73092
 H1730 H 0.34673 0.82895 0.74366
 H1731 H 0.28040 0.87917 0.74903
 C1732 C 0.17866 0.95929 0.27334
 C1733 C 0.18736 0.93391 0.27756
 C1734 C 0.17057 0.91582 0.28772
 C1735 C 0.14585 0.92338 0.29415
 C1736 C 0.13731 0.94832 0.28971
 C1737 C 0.15333 0.96732 0.27953
 C1738 C 0.17812 0.89006 0.29002
 C1739 C 0.20238 0.88196 0.28216
 C1740 C 0.21978 0.90011 0.27293
 C1741 C 0.21215 0.92596 0.27059
 C1742 C 0.24435 0.89193 0.26578
 C1743 C 0.25131 0.86599 0.26719
 C1744 C 0.23367 0.84772 0.27529
 C1745 C 0.20929 0.85588 0.28297
 H1746 H 0.19086 0.97151 0.26263
 H1747 H 0.13254 0.90964 0.30159
 H1748 H 0.11729 0.95195 0.29320
 H1749 H 0.16483 0.87618 0.29728
 H1750 H 0.22528 0.93974 0.26293
 H1751 H 0.25807 0.90553 0.25886
 H1752 H 0.27025 0.86007 0.26122
 H1753 H 0.19572 0.84192 0.28958
 C1754 C 0.65867 0.47455 0.76077
 C1755 C 0.66807 0.44942 0.75738
 C1756 C 0.65470 0.43228 0.74049
 C1757 C 0.63205 0.44039 0.72753
 C1758 C 0.62295 0.46533 0.73080
 C1759 C 0.63661 0.48339 0.74664
 C1760 C 0.66401 0.40723 0.73690
 C1761 C 0.68687 0.39912 0.74972
 C1762 C 0.70029 0.41631 0.76661
 C1763 C 0.69070 0.44120 0.77054
 C1764 C 0.72338 0.40846 0.77905
 C1765 C 0.73336 0.38408 0.77446
 C1766 C 0.72033 0.36672 0.75766
 C1767 C 0.69679 0.37428 0.74558
 H1768 H 0.66858 0.48735 0.77432
 H1769 H 0.62117 0.42735 0.71498
 H1770 H 0.60470 0.47002 0.72110
 H1771 H 0.65363 0.39417 0.72392
 H1772 H 0.70108 0.45428 0.78349
 H1773 H 0.73396 0.42133 0.79203
 H1774 H 0.75153 0.37889 0.78406
 H1775 H 0.68663 0.36118 0.73251
 C1776 C 0.63556 0.55785 0.75587
 C1777 C 0.65101 0.57944 0.75366
 C1778 C 0.67658 0.57660 0.74572
 C1779 C 0.68602 0.55203 0.73982
 C1780 C 0.67027 0.53045 0.74179
 C1781 C 0.64489 0.53293 0.75044
 C1782 C 0.69204 0.59842 0.74348
 C1783 C 0.68205 0.62294 0.74897
 C1784 C 0.65631 0.62560 0.75668
 C1785 C 0.64100 0.60384 0.75903
 C1786 C 0.64624 0.65000 0.76195
 C1787 C 0.66157 0.67169 0.75985
 C1788 C 0.68730 0.66940 0.75249
 C1789 C 0.69736 0.64486 0.74694
 H1790 H 0.61582 0.56032 0.76171
 H1791 H 0.70544 0.54954 0.73321
 H1792 H 0.67789 0.51215 0.73575
 H1793 H 0.71174 0.59634 0.73743
 H1794 H 0.62127 0.60590 0.76500
 H1795 H 0.62652 0.65231 0.76781
 H1796 H 0.65328 0.69026 0.76424
 H1797 H 0.71713 0.64274 0.74113
 C1798 C 0.14511 0.03944 0.25643
 C1799 C 0.15768 0.06310 0.25576
 C1800 C 0.18404 0.06474 0.26339
 C1801 C 0.19701 0.04275 0.27247
 C1802 C 0.18382 0.01954 0.27464
 C1803 C 0.15769 0.01695 0.26580
 C1804 C 0.19649 0.08862 0.26329
 C1805 C 0.18244 0.11103 0.25690
 C1806 C 0.15575 0.10939 0.25013
 C1807 C 0.14372 0.08539 0.24897
 C1808 C 0.14138 0.13187 0.24520
 C1809 C 0.15329 0.15584 0.24703
 C1810 C 0.17988 0.15765 0.25305
 C1811 C 0.19443 0.13515 0.25779
 H1812 H 0.12465 0.03918 0.25149
 H1813 H 0.21695 0.04393 0.27960
 H1814 H 0.19371 0.00485 0.28564
 H1815 H 0.21683 0.08991 0.26908
 H1816 H 0.12327 0.08416 0.24364
 H1817 H 0.12087 0.13094 0.24019
 H1818 H 0.14184 0.17296 0.24321
 H1819 H 0.21494 0.13651 0.26274
 C1820 C 0.36925 0.05347 0.73840
 C1821 C 0.35806 0.07792 0.73819
 C1822 C 0.33713 0.08339 0.72087
 C1823 C 0.32890 0.06474 0.70294
 C1824 C 0.34065 0.04054 0.70283
 C1825 C 0.36007 0.03400 0.72141
 C1826 C 0.32477 0.10735 0.72186
 C1827 C 0.33353 0.12601 0.73962
 C1828 C 0.35546 0.12101 0.75594
 C1829 C 0.36744 0.09690 0.75527
 C1830 C 0.36487 0.14014 0.77288
 C1831 C 0.35227 0.16385 0.77406
 C1832 C 0.32986 0.16839 0.75877
 C1833 C 0.32061 0.14959 0.74147
 H1834 H 0.38517 0.04989 0.75201
 H1835 H 0.31325 0.06878 0.68910
 H1836 H 0.33369 0.02653 0.68884
 H1837 H 0.30829 0.11140 0.70897
 H1838 H 0.38387 0.09283 0.76822
 H1839 H 0.38180 0.13668 0.78532
 H1840 H 0.35953 0.17837 0.78743
 H1841 H 0.30341 0.15339 0.72948
 C1842 C 0.84605 0.52761 0.24020
 C1843 C 0.83622 0.55309 0.23935
 C1844 C 0.84891 0.57182 0.22526
 C1845 C 0.87084 0.56499 0.21221
 C1846 C 0.88069 0.54014 0.21351
 C1847 C 0.86860 0.52048 0.22711
 C1848 C 0.84015 0.59740 0.22507
 C1849 C 0.81874 0.60482 0.23895
 C1850 C 0.80564 0.58619 0.25284
 C1851 C 0.81445 0.56048 0.25301
 C1852 C 0.78399 0.59366 0.26640
 C1853 C 0.77542 0.61921 0.26618
 C1854 C 0.78845 0.63805 0.25268
 C1855 C 0.81027 0.63062 0.23916
 H1856 H 0.83718 0.51415 0.25263
 H1857 H 0.88106 0.57919 0.20161
 H1858 H 0.89866 0.53685 0.20433
 H1859 H 0.85025 0.61162 0.21436
 H1860 H 0.80451 0.54632 0.26392
 H1861 H 0.77361 0.57973 0.27715
 H1862 H 0.75861 0.62427 0.27684
 H1863 H 0.82040 0.64480 0.22846
 C1864 C 0.93154 0.25665 0.13733
 C1865 C 0.91079 0.25863 0.15339
 C1866 C 0.91336 0.24950 0.17864
 C1867 C 0.93688 0.23817 0.18711
 C1868 C 0.95784 0.23678 0.17097
 C1869 C 0.95591 0.24730 0.14622
 C1870 C 0.89225 0.25155 0.19469
 C1871 C 0.86875 0.26263 0.18556
 C1872 C 0.86658 0.27184 0.16019
 C1873 C 0.88755 0.26979 0.14436
 C1874 C 0.84325 0.28251 0.15073
 C1875 C 0.82182 0.28322 0.16586
 C1876 C 0.82342 0.27373 0.19086
 C1877 C 0.84710 0.26399 0.20096
 H1878 H 0.92893 0.26317 0.11777
 H1879 H 0.93906 0.23038 0.20620
 H1880 H 0.97539 0.22733 0.17792
 H1881 H 0.89402 0.24436 0.21405
 H1882 H 0.88574 0.27679 0.12490
 H1883 H 0.84137 0.28969 0.13137
 H1884 H 0.80370 0.29077 0.15783
 H1885 H 0.84825 0.25634 0.22016
 C1886 C 0.44426 0.76015 0.64258
 C1887 C 0.42253 0.76214 0.65762
 C1888 C 0.42562 0.76967 0.68354
 C1889 C 0.45019 0.77547 0.69387
 C1890 C 0.47159 0.77380 0.67874
 C1891 C 0.46947 0.76526 0.65290
 C1892 C 0.40407 0.77184 0.69865
 C1893 C 0.37933 0.76665 0.68812
 C1894 C 0.37602 0.75930 0.66212
 C1895 C 0.39767 0.75707 0.64700
 C1896 C 0.35111 0.75422 0.65178
 C1897 C 0.32973 0.75606 0.66719
 C1898 C 0.33295 0.76303 0.69317
 C1899 C 0.35787 0.76856 0.70336
 H1900 H 0.44109 0.75510 0.62268
 H1901 H 0.45282 0.78197 0.71356
 H1902 H 0.48978 0.78032 0.68731
 H1903 H 0.40654 0.77763 0.71859
 H1904 H 0.39519 0.75139 0.62704
 H1905 H 0.34817 0.74863 0.63187
 H1906 H 0.31075 0.75171 0.65881
 H1907 H 0.36072 0.77409 0.72332
 C1908 C 0.48336 0.22947 0.87276
 C1909 C 0.46046 0.23236 0.85800
 C1910 C 0.46070 0.22937 0.83121
 C1911 C 0.48407 0.22303 0.81983
 C1912 C 0.50718 0.22083 0.83477
 C1913 C 0.50735 0.22512 0.86144
 C1914 C 0.43765 0.23309 0.81640
 C1915 C 0.41467 0.24024 0.82820
 C1916 C 0.41472 0.24320 0.85509
 C1917 C 0.43752 0.23900 0.86980
 C1918 C 0.39199 0.25053 0.86691
 C1919 C 0.36924 0.25489 0.85230
 C1920 C 0.36870 0.25193 0.82555
 C1921 C 0.39163 0.24458 0.81362
 H1922 H 0.48286 0.23217 0.89331
 H1923 H 0.48456 0.22017 0.79931
 H1924 H 0.52473 0.21594 0.82531
 H1925 H 0.43769 0.23082 0.79578
 H1926 H 0.43754 0.24138 0.89043
 H1927 H 0.39181 0.25290 0.88750
 H1928 H 0.35198 0.26040 0.86204
 H1929 H 0.39158 0.24214 0.79302
 C1930 C 0.95664 0.74817 0.36329
 C1931 C 0.93363 0.74228 0.34928
 C1932 C 0.93472 0.73061 0.32487
 C1933 C 0.95878 0.72405 0.31539
 C1934 C 0.98153 0.72914 0.32983
 C1935 C 0.98110 0.74244 0.35352
 C1936 C 0.91175 0.72518 0.31057
 C1937 C 0.88761 0.73085 0.32062
 C1938 C 0.88657 0.74165 0.34548
 C1939 C 0.90953 0.74745 0.35956
 C1940 C 0.86255 0.74679 0.35578
 C1941 C 0.83974 0.74223 0.34132
 C1942 C 0.84036 0.73250 0.31612
 C1943 C 0.86450 0.72633 0.30609
 H1944 H 0.95548 0.75667 0.38219
 H1945 H 0.96000 0.71433 0.29707
 H1946 H 0.99951 0.72215 0.32248
 H1947 H 0.91266 0.71654 0.29167
 H1948 H 0.90863 0.75603 0.37848
 H1949 H 0.86139 0.75484 0.37489
 H1950 H 0.82157 0.74714 0.34972
 H1951 H 0.86540 0.71881 0.28675
 C1952 C 0.05517 0.74005 0.36567
 C1953 C 0.07809 0.74610 0.35362
 C1954 C 0.07690 0.75908 0.33004
 C1955 C 0.05283 0.76702 0.31964
 C1956 C 0.03027 0.76224 0.33249
 C1957 C 0.03074 0.74761 0.35513
 C1958 C 0.09980 0.76453 0.31763
 C1959 C 0.12401 0.75797 0.32902
 C1960 C 0.12510 0.74626 0.35332
 C1961 C 0.10222 0.74005 0.36524
 C1962 C 0.14908 0.74069 0.36533
 C1963 C 0.17183 0.74553 0.35300
 C1964 C 0.17126 0.75573 0.32812
 C1965 C 0.14714 0.76254 0.31646
 H1966 H 0.05653 0.73035 0.38387
 H1967 H 0.05151 0.77775 0.30202
 H1968 H 0.01232 0.77037 0.32476
 H1969 H 0.09879 0.77403 0.29927
 H1970 H 0.10323 0.73065 0.38365
 H1971 H 0.15027 0.73210 0.38411
 H1972 H 0.18994 0.74025 0.36276
 H1973 H 0.14627 0.77049 0.29740
 C1974 C 0.56359 0.24281 0.84728
 C1975 C 0.58844 0.24479 0.83749
 C1976 C 0.60827 0.22781 0.84601
 C1977 C 0.60288 0.20905 0.86392
 C1978 C 0.57829 0.20740 0.87381
 C1979 C 0.55796 0.22405 0.86560
 C1980 C 0.63334 0.23019 0.83697
 C1981 C 0.63889 0.24939 0.81943
 C1982 C 0.61898 0.26624 0.81065
 C1983 C 0.59392 0.26388 0.81977
 C1984 C 0.62448 0.28512 0.79282
 C1985 C 0.64934 0.28716 0.78353
 C1986 C 0.66938 0.27061 0.79214
 C1987 C 0.66398 0.25186 0.81034
 H1988 H 0.54875 0.25647 0.84125
 H1989 H 0.61796 0.19604 0.87089
 H1990 H 0.57580 0.19358 0.88872
 H1991 H 0.64855 0.21718 0.84369
 H1992 H 0.57873 0.27695 0.81315
 H1993 H 0.60947 0.29819 0.78584
 H1994 H 0.65289 0.30172 0.76953
 H1995 H 0.67912 0.23873 0.81693
 C1996 C 0.54292 0.76936 0.64013
 C1997 C 0.56690 0.76472 0.65285
 C1998 C 0.56787 0.75114 0.67606
 C1999 C 0.54513 0.74185 0.68578
 C2000 C 0.52148 0.74635 0.67295
 C2001 C 0.51950 0.76114 0.65037
 C2002 C 0.59157 0.74676 0.68912
 C2003 C 0.61443 0.75590 0.67934
 C2004 C 0.61377 0.76911 0.65589
 C2005 C 0.58995 0.77339 0.64270
 C2006 C 0.63694 0.77808 0.64633
 C2007 C 0.66040 0.77465 0.66030
 C2008 C 0.66097 0.76218 0.68400
 C2009 C 0.63790 0.75240 0.69305
 H2010 H 0.54279 0.77920 0.62208
 H2011 H 0.54564 0.73071 0.70316
 H2012 H 0.50472 0.73730 0.68047
 H2013 H 0.59219 0.73646 0.70704
 H2014 H 0.58932 0.78369 0.62478
 H2015 H 0.63686 0.78816 0.62833
 H2016 H 0.67792 0.78235 0.65291
 H2017 H 0.63805 0.74244 0.71114
 C2018 C 0.01404 0.25605 0.16255
 C2019 C 0.04027 0.25554 0.17086
 C2020 C 0.05914 0.24631 0.15421
 C2021 C 0.05165 0.23745 0.12984
 C2022 C 0.02570 0.23728 0.12205
 C2023 C 0.00619 0.24575 0.13842
 C2024 C 0.08530 0.24613 0.16202
 C2025 C 0.09294 0.25422 0.18670
 C2026 C 0.07415 0.26283 0.20377
 C2027 C 0.04797 0.26394 0.19558
 C2028 C 0.08189 0.26974 0.22889
 C2029 C 0.10790 0.26779 0.23702
 C2030 C 0.12659 0.25967 0.21995
 C2031 C 0.11908 0.25324 0.19472
 H2032 H 0.00002 0.26478 0.17475
 H2033 H 0.06588 0.23063 0.11671
 H2034 H 0.02090 0.23066 0.10277
 H2035 H 0.09968 0.23926 0.14904
 H2036 H 0.03359 0.27076 0.20858
 H2037 H 0.06783 0.27623 0.24233
 H2038 H 0.11349 0.27286 0.25661
 H2039 H 0.13349 0.24662 0.18166
 C2040 C -0.10576 1.00044 0.80455
 C2041 C -0.08730 0.99787 0.82462
 C2042 C -0.06142 1.00532 0.82159
 C2043 C -0.05424 1.01448 0.79751
 C2044 C -0.07237 1.01601 0.77644
 C2045 C -0.09879 1.00937 0.78069
 C2046 C -0.04361 1.00416 0.84299
 C2047 C -0.05143 0.99497 0.86687
 C2048 C -0.07711 0.98615 0.86868
 C2049 C -0.09471 0.98783 0.84779
 C2050 C -0.08531 0.97630 0.89163
 C2051 C -0.06887 0.97634 0.91326
 C2052 C -0.04375 0.98632 0.91275
 C2053 C -0.03465 0.99493 0.88917
 H2054 H -0.12558 0.99495 0.80737
 H2055 H -0.03482 1.02140 0.79520
 H2056 H -0.06610 1.03107 0.75744
 H2057 H -0.02393 1.01062 0.84116
 H2058 H -0.11450 0.98160 0.84970
 H2059 H -0.10479 0.96913 0.89307
 H2060 H -0.07621 0.96914 0.93089
 H2061 H -0.01529 1.00258 0.88848
 C2062 C 0.38968 0.49039 0.28881
 C2063 C 0.40377 0.49377 0.31194
 C2064 C 0.43098 0.49493 0.31206
 C2065 C 0.44354 0.49302 0.28889
 C2066 C 0.42925 0.49027 0.26573
 C2067 C 0.40204 0.48821 0.26528
 C2068 C 0.44510 0.49871 0.33524
 C2069 C 0.43222 0.50170 0.35818
 C2070 C 0.40493 0.50080 0.35797
 C2071 C 0.39087 0.49668 0.33485
 C2072 C 0.39217 0.50409 0.38090
 C2073 C 0.40632 0.50796 0.40395
 C2074 C 0.43348 0.50854 0.40445
 C2075 C 0.44625 0.50557 0.38135
 H2076 H 0.36874 0.49022 0.28892
 H2077 H 0.46440 0.49452 0.28860
 H2078 H 0.43966 0.49093 0.24832
 H2079 H 0.46605 0.49959 0.33540
 H2080 H 0.36992 0.49597 0.33464
 H2081 H 0.37124 0.50351 0.38103
 H2082 H 0.39600 0.51008 0.42142
 H2083 H 0.46719 0.50606 0.38134
 C2084 C 0.61184 -0.00793 0.27756
 C2085 C 0.59695 -0.00456 0.29912
 C2086 C 0.57268 0.00787 0.29681
 C2087 C 0.56413 0.01737 0.27299
 C2088 C 0.57942 0.01457 0.25172
 C2089 C 0.60322 0.00089 0.25315
 C2090 C 0.55782 0.01134 0.31849
 C2091 C 0.56724 0.00287 0.34257
 C2092 C 0.59183 -0.00913 0.34482
 C2093 C 0.60639 -0.01293 0.32312
 C2094 C 0.60157 -0.01716 0.36877
 C2095 C 0.58704 -0.01371 0.39035
 C2096 C 0.56228 -0.00227 0.38854
 C2097 C 0.55255 0.00617 0.36446
 H2098 H 0.63074 -0.01677 0.28007
 H2099 H 0.54602 0.02788 0.27099
 H2100 H 0.57312 0.02472 0.23466
 H2101 H 0.53912 0.02084 0.31667
 H2102 H 0.62519 -0.02226 0.32496
 H2103 H 0.62043 -0.02627 0.37082
 H2104 H 0.59517 -0.02046 0.40849
 H2105 H 0.53357 0.01507 0.36270
 C2106 C 0.11295 0.52114 0.78489
 C2107 C 0.09898 0.51497 0.80630
 C2108 C 0.08505 0.49189 0.80663
 C2109 C 0.08501 0.47557 0.78522
 C2110 C 0.09952 0.48155 0.76415
 C2111 C 0.11406 0.50445 0.76329
 C2112 C 0.07233 0.48504 0.82875
 C2113 C 0.07390 0.50088 0.85069
 C2114 C 0.08769 0.52419 0.85014
 C2115 C 0.09988 0.53117 0.82791
 C2116 C 0.08948 0.53997 0.87202
 C2117 C 0.07796 0.53264 0.89440
 C2118 C 0.06449 0.50950 0.89519
 C2119 C 0.06230 0.49370 0.87332
 H2120 H 0.12413 0.53847 0.78643
 H2121 H 0.07475 0.45754 0.78521
 H2122 H 0.10088 0.46718 0.74916
 H2123 H 0.06183 0.46714 0.82913
 H2124 H 0.11066 0.54893 0.82767
 H2125 H 0.09994 0.55789 0.87187
 H2126 H 0.07956 0.54500 0.91117
 H2127 H 0.05172 0.47588 0.87403
 C2128 C 0.09594 0.50248 0.70717
 C2129 C 0.08644 0.50347 0.68160
 C2130 C 0.10090 0.51568 0.66306
 C2131 C 0.12426 0.52725 0.67043
 C2132 C 0.13387 0.52564 0.69562
 C2133 C 0.12053 0.51242 0.71464
 C2134 C 0.09203 0.51583 0.63735
 C2135 C 0.06888 0.50362 0.62984
 C2136 C 0.05416 0.49166 0.64845
 C2137 C 0.06291 0.49181 0.67420
 C2138 C 0.03100 0.47952 0.64098
 C2139 C 0.02245 0.47922 0.61534
 C2140 C 0.03691 0.49099 0.59658
 C2141 C 0.06023 0.50312 0.60401
 H2142 H 0.08384 0.49361 0.72061
 H2143 H 0.13556 0.53695 0.65654
 H2144 H 0.15266 0.53401 0.69984
 H2145 H 0.10332 0.52513 0.62316
 H2146 H 0.05166 0.48243 0.68836
 H2147 H 0.01948 0.47022 0.65495
 H2148 H 0.00444 0.46962 0.61021
 H2149 H 0.07148 0.51240 0.58980
 C2150 C 0.58394 0.99661 0.19632
 C2151 C 0.57452 0.99660 0.17078
 C2152 C 0.59079 1.00374 0.15119
 C2153 C 0.61618 1.01096 0.15757
 C2154 C 0.62562 1.01034 0.18296
 C2155 C 0.60980 1.00344 0.20325
 C2156 C 0.58176 1.00258 0.12549
 C2157 C 0.55669 0.99382 0.11916
 C2158 C 0.54038 0.98681 0.13890
 C2159 C 0.54929 0.98843 0.16452
 C2160 C 0.51547 0.97787 0.13274
 C2161 C 0.50678 0.97563 0.10726
 C2162 C 0.52275 0.98236 0.08728
 C2163 C 0.54777 0.99159 0.09344
 H2164 H 0.57125 0.98946 0.21042
 H2165 H 0.62914 1.01620 0.14278
 H2166 H 0.64581 1.01457 0.18615
 H2167 H 0.59441 1.00788 0.11045
 H2168 H 0.53675 0.98281 0.17955
 H2169 H 0.50273 0.97240 0.14763
 H2170 H 0.48742 0.96848 0.10329
 H2171 H 0.56030 0.99690 0.07832
 C2172 C 0.39085 0.49658 0.19281
 C2173 C 0.40247 0.49179 0.16968
 C2174 C 0.42236 0.47325 0.16837
 C2175 C 0.42912 0.45876 0.19014
 C2176 C 0.41685 0.46329 0.21315
 C2177 C 0.39875 0.48348 0.21536
 C2178 C 0.43475 0.46937 0.14525
 C2179 C 0.42692 0.48345 0.12344
 C2180 C 0.40610 0.50113 0.12470
 C2181 C 0.39423 0.50534 0.14785
 C2182 C 0.39748 0.51444 0.10279
 C2183 C 0.40955 0.51052 0.07977
 C2184 C 0.43070 0.49372 0.07855
 C2185 C 0.43941 0.48018 0.10032
 H2186 H 0.37528 0.51055 0.19300
 H2187 H 0.44369 0.44378 0.18931
 H2188 H 0.42180 0.45126 0.22939
 H2189 H 0.45033 0.45542 0.14421
 H2190 H 0.37858 0.51924 0.14887
 H2191 H 0.38144 0.52787 0.10346
 H2192 H 0.40275 0.52100 0.06299
 H2193 H 0.45565 0.46702 0.09913
 C2194 C -0.10423 -0.01087 0.71307
 C2195 C -0.08682 -0.01265 0.69360
 C2196 C -0.06245 -0.00068 0.69630
 C2197 C -0.05500 0.01110 0.71998
 C2198 C -0.07219 0.01277 0.74032
 C2199 C -0.09793 0.00303 0.73543
 C2200 C -0.04686 0.00053 0.67473
 C2201 C -0.05556 -0.01023 0.65093
 C2202 C -0.07917 -0.02382 0.64955
 C2203 C -0.09440 -0.02510 0.67081
 C2204 C -0.08803 -0.03512 0.62659
 C2205 C -0.07459 -0.03192 0.60454
 C2206 C -0.05186 -0.01724 0.60468
 C2207 C -0.04186 -0.00705 0.62827
 H2208 H -0.12321 -0.01934 0.71030
 H2209 H -0.03664 0.02089 0.72207
 H2210 H -0.02860 0.01060 0.67619
 H2211 H -0.11293 -0.03475 0.66920
 H2212 H -0.10589 -0.04589 0.62548
 H2213 H -0.08254 -0.04065 0.58707
 H2214 H -0.02421 0.00403 0.62880
 C2215 C -0.20432 0.88660 1.00678
 C2216 C -0.18226 0.90137 1.00351
 C2217 C -0.18473 0.92736 0.99672
 C2218 C -0.20952 0.93770 0.99206
 C2219 C -0.23151 0.92252 0.99453
 C2220 C -0.22957 0.89690 1.00334
 C2221 C -0.16238 0.94225 0.99413
 C2222 C -0.13763 0.93113 0.99787
 C2223 C -0.13550 0.90473 1.00367
 C2224 C -0.15771 0.89015 1.00661
 C2225 C -0.11115 0.89321 1.00677
 C2226 C -0.08893 0.90776 1.00511
 C2227 C -0.09040 0.93431 1.00048
 C2228 C -0.11496 0.94584 0.99629
 H2229 H -0.20136 0.86673 1.01138
 H2230 H -0.21193 0.95733 0.98576
 H2231 H -0.24994 0.93078 0.98849
 H2232 H -0.16424 0.96235 0.98924
 H2233 H -0.15585 0.87001 1.01142
 H2234 H -0.10926 0.87295 1.01092
 H2235 H -0.07045 0.89812 1.00809
 H2236 H -0.11646 0.96621 0.99259
 C2237 C 0.30000 0.38662 0.50600
 C2238 C 0.32103 0.40354 0.50619
 C2239 C 0.31799 0.42895 0.51530
 C2240 C 0.29445 0.43662 0.52515
 C2241 C 0.27370 0.41974 0.52483
 C2242 C 0.27543 0.39505 0.51353
 C2243 C 0.33856 0.44624 0.51466
 C2244 C 0.36234 0.43839 0.50529
 C2245 C 0.36568 0.41274 0.49685
 C2246 C 0.34498 0.39552 0.49725
 C2247 C 0.38974 0.40473 0.48825
 C2248 C 0.41033 0.42189 0.48818
 C2249 C 0.40709 0.44748 0.49621
 C2250 C 0.38296 0.45570 0.50453
 H2251 H 0.30260 0.36704 0.49942
 H2252 H 0.29204 0.45573 0.53307
 H2253 H 0.25603 0.42632 0.53316
 H2254 H 0.33607 0.46579 0.52149
 H2255 H 0.34748 0.37595 0.49049
 H2256 H 0.39271 0.38516 0.48179
 H2257 H 0.42881 0.41519 0.48165
 H2258 H 0.38046 0.47533 0.51107
 C2259 C 0.27911 0.60190 -0.00389
 C2260 C 0.30304 0.58887 -0.00311
 C2261 C 0.32304 0.59707 0.01426
 C2262 C 0.31875 0.61764 0.03080
 C2263 C 0.29497 0.63025 0.03013
 C2264 C 0.27427 0.62232 0.01332
 C2265 C 0.34734 0.58509 0.01440
 C2266 C 0.35188 0.56464 -0.00234
 C2267 C 0.33172 0.55570 -0.01920
 C2268 C 0.30748 0.56806 -0.01968
 C2269 C 0.33626 0.53455 -0.03527
 C2270 C 0.36055 0.52254 -0.03470
 C2271 C 0.38070 0.53194 -0.01853
 C2272 C 0.37634 0.55295 -0.00242
 H2273 H 0.26447 0.59654 -0.01833
 H2274 H 0.33404 0.62446 0.04390
 H2275 H 0.29343 0.64704 0.04228
 H2276 H 0.36275 0.59177 0.02749
 H2277 H 0.29212 0.56150 -0.03287
 H2278 H 0.32103 0.52727 -0.04818
 H2279 H 0.36377 0.50618 -0.04712
 H2280 H 0.39193 0.55992 0.01029
 C2281 C -0.21543 0.10606 0.51089
 C2282 C -0.18955 0.09757 0.51127
 C2283 C -0.17200 0.10879 0.49482
 C2284 C -0.18035 0.12869 0.47884
 C2285 C -0.20601 0.13692 0.47844
 C2286 C -0.22454 0.12502 0.49354
 C2287 C -0.14636 0.09996 0.49447
 C2288 C -0.13806 0.07962 0.51009
 C2289 C -0.15548 0.06857 0.52688
 C2290 C -0.18102 0.07778 0.52757
 C2291 C -0.14724 0.04798 0.54221
 C2292 C -0.12239 0.03778 0.54017
 C2293 C -0.10513 0.04817 0.52303
 C2294 C -0.11289 0.06959 0.50853
 H2295 H -0.22873 0.09762 0.52380
 H2296 H -0.16698 0.13801 0.46660
 H2297 H -0.21079 0.15308 0.46636
 H2298 H -0.13305 0.10853 0.48163
 H2299 H -0.19439 0.06912 0.54029
 H2300 H -0.16023 0.03932 0.55528
 H2301 H -0.11681 0.02139 0.55174
 H2302 H -0.09982 0.07764 0.49515
 C2303 C 0.70044 0.12032 0.48591
 C2304 C 0.68080 0.10237 0.48194
 C2305 C 0.68686 0.07607 0.47982
 C2306 C 0.71298 0.06850 0.48021
 C2307 C 0.73271 0.08673 0.48371
 C2308 C 0.72672 0.11292 0.48788
 C2309 C 0.66670 0.05799 0.47756
 C2310 C 0.64067 0.06621 0.47732
 C2311 C 0.63512 0.09284 0.47831
 C2312 C 0.65509 0.11061 0.48061
 C2313 C 0.60958 0.10153 0.47755
 C2314 C 0.58948 0.08413 0.47694
 C2315 C 0.59428 0.05750 0.47724
 C2316 C 0.62005 0.04853 0.47669
 H2317 H 0.69526 0.14036 0.48839
 H2318 H 0.71816 0.04847 0.47787
 H2319 H 0.75242 0.07996 0.48312
 H2320 H 0.67125 0.03769 0.47645
 H2321 H 0.65059 0.13094 0.48189
 H2322 H 0.60510 0.12187 0.47790
 H2323 H 0.56993 0.09176 0.47661
 H2324 H 0.62402 0.02810 0.47662
 C2325 C 0.22038 0.59839 1.00895
 C2326 C 0.19595 0.58708 1.00434
 C2327 C 0.17412 0.60276 0.99845
 C2328 C 0.17704 0.62921 0.99651
 C2329 C 0.20136 0.64013 1.00001
 C2330 C 0.22360 0.62506 1.00594
 C2331 C 0.14962 0.59184 0.99459
 C2332 C 0.14663 0.56526 0.99573
 C2333 C 0.16849 0.54931 1.00056
 C2334 C 0.19296 0.56034 1.00529
 C2335 C 0.16540 0.52260 1.00055
 C2336 C 0.14087 0.51189 0.99625
 C2337 C 0.11899 0.52773 0.99247
 C2338 C 0.12203 0.55441 0.99211
 H2339 H 0.23652 0.58632 1.01499
 H2340 H 0.16053 0.64151 0.99202
 H2341 H 0.20290 0.66070 0.99802
 H2342 H 0.13289 0.60403 0.99051
 H2343 H 0.20967 0.54815 1.00939
 H2344 H 0.18192 0.51002 1.00400
 H2345 H 0.13885 0.49124 0.99671
 H2346 H 0.10521 0.56669 0.98891
 C2347 C 0.20308 0.38386 0.52052
 C2348 C 0.17958 0.39711 0.51564
 C2349 C 0.17916 0.41914 0.50010
 C2350 C 0.20162 0.42666 0.48849
 C2351 C 0.22446 0.41283 0.49250
 C2352 C 0.22615 0.39213 0.50972
 C2353 C 0.15618 0.43302 0.49579
 C2354 C 0.13320 0.42466 0.50595
 C2355 C 0.13306 0.40190 0.52040
 C2356 C 0.15638 0.38848 0.52555
 C2357 C 0.10955 0.39299 0.52928
 C2358 C 0.08654 0.40668 0.52410
 C2359 C 0.08690 0.42978 0.51061
 C2360 C 0.11025 0.43866 0.50160
 H2361 H 0.20322 0.36683 0.53218
 H2362 H 0.20140 0.44295 0.47580
 H2363 H 0.24109 0.41856 0.48214
 H2364 H 0.15611 0.45015 0.48420
 H2365 H 0.15641 0.37127 0.53699
 H2366 H 0.10895 0.37548 0.54018
 H2367 H 0.06859 0.39963 0.53120
 H2368 H 0.11045 0.45636 0.49090
 C2369 C 0.69648 0.88215 0.00051
 C2370 C 0.67275 0.89459 0.00357
 C2371 C 0.67195 0.91907 0.01515
 C2372 C 0.69510 0.93002 0.02469
 C2373 C 0.71875 0.91718 0.02198
 C2374 C 0.72028 0.89354 0.00844
 C2375 C 0.64804 0.93190 0.01716
 C2376 C 0.62497 0.92024 0.00787
 C2377 C 0.62600 0.89523 -0.00281
 C2378 C 0.64977 0.88266 -0.00493
 C2379 C 0.60325 0.88319 -0.01164
 C2380 C 0.57963 0.89598 -0.01072
 C2381 C 0.57812 0.92123 -0.00105
 C2382 C 0.60095 0.93315 0.00866
 H2383 H 0.69581 0.86337 -0.00810
 H2384 H 0.69492 0.94840 0.03454
 H2385 H 0.73588 0.92579 0.03086
 H2386 H 0.64741 0.95090 0.02574
 H2387 H 0.65040 0.86364 -0.01352
 H2388 H 0.60375 0.86395 -0.01967
 H2389 H 0.56255 0.88612 -0.01822
 H2390 H 0.60015 0.95253 0.01629
 C2391 C 0.01163 0.78791 0.89977
 C2392 C 0.01102 0.80902 0.91633
 C2393 C 0.00295 0.80604 0.94152
 C2394 C -0.00404 0.78159 0.94968
 C2395 C -0.00338 0.76043 0.93291
 C2396 C 0.00477 0.76320 0.90767
 C2397 C 0.00145 0.82766 0.95776
 C2398 C 0.00792 0.85210 0.94890
 C2399 C 0.01638 0.85466 0.92369
 C2400 C 0.01789 0.83317 0.90766
 C2401 C 0.02297 0.87874 0.91467
 C2402 C 0.02099 0.90034 0.93028
 C2403 C 0.01233 0.89841 0.95533
 C2404 C 0.00590 0.87408 0.96460
 H2405 H 0.01704 0.79073 0.88021
 H2406 H -0.01060 0.77892 0.96885
 H2407 H -0.01021 0.74226 0.93958
 H2408 H -0.00500 0.82553 0.97706
 H2409 H 0.02415 0.83531 0.88827
 H2410 H 0.02950 0.88094 0.89542
 H2411 H 0.02607 0.91869 0.92249
 H2412 H -0.00073 0.87226 0.98386
 C2413 C 0.49919 0.30743 0.39373
 C2414 C 0.49641 0.33068 0.40693
 C2415 C 0.48216 0.33158 0.42931
 C2416 C 0.47018 0.30939 0.43755
 C2417 C 0.47285 0.28634 0.42411
 C2418 C 0.48858 0.28446 0.40269
 C2419 C 0.47972 0.35473 0.44282
 C2420 C 0.49129 0.37702 0.43409
 C2421 C 0.50508 0.37628 0.41135
 C2422 C 0.50759 0.35309 0.39792
 C2423 C 0.51623 0.39876 0.40250
 C2424 C 0.51401 0.42173 0.41624
 C2425 C 0.50080 0.42250 0.43914
 C2426 C 0.48932 0.40005 0.44782
 H2427 H 0.50956 0.30746 0.37623
 H2428 H 0.45834 0.30993 0.45414
 H2429 H 0.46180 0.27011 0.43011
 H2430 H 0.46888 0.35539 0.46011
 H2431 H 0.51835 0.35244 0.38058
 H2432 H 0.52677 0.39854 0.38504
 H2433 H 0.52300 0.43878 0.40917
 H2434 H 0.47877 0.40048 0.46529
 C2435 C 0.00456 0.29384 0.61203
 C2436 C 0.00415 0.31495 0.59566
 C2437 C 0.01996 0.31496 0.57438
 C2438 C 0.03594 0.29374 0.56987
 C2439 C 0.03622 0.27270 0.58625
 C2440 C 0.02074 0.27223 0.60790
 C2441 C 0.01944 0.33616 0.55799
 C2442 C 0.00331 0.35735 0.56274
 C2443 C -0.01249 0.35725 0.58411
 C2444 C -0.01204 0.33605 0.60035
 C2445 C -0.02836 0.37848 0.58906
 C2446 C -0.02837 0.39983 0.57320
 C2447 C -0.01274 0.40029 0.55191
 C2448 C 0.00293 0.37879 0.54668
 H2449 H -0.00823 0.29468 0.62775
 H2450 H 0.04817 0.29332 0.55357
 H2451 H 0.04868 0.25655 0.58207
 H2452 H 0.03163 0.33620 0.54163
 H2453 H -0.02420 0.33604 0.61673
 H2454 H -0.04057 0.37868 0.60537
 H2455 H -0.04060 0.41608 0.57768
 H2456 H 0.01533 0.37896 0.53050
 C2457 C 0.49310 0.77763 0.10791
 C2458 C 0.49312 0.79798 0.09082
 C2459 C 0.49895 0.79347 0.06507
 C2460 C 0.50515 0.76843 0.05713
 C2461 C 0.50451 0.74797 0.07429
 C2462 C 0.49734 0.75210 0.09977
 C2463 C 0.49827 0.81403 0.04782
 C2464 C 0.49131 0.83884 0.05609
 C2465 C 0.48545 0.84300 0.08198
 C2466 C 0.48667 0.82267 0.09917
 C2467 C 0.47816 0.86743 0.09038
 C2468 C 0.47656 0.88772 0.07336
 C2469 C 0.48237 0.88415 0.04752
 C2470 C 0.48988 0.85955 0.03900
 H2471 H 0.48849 0.78140 0.12764
 H2472 H 0.51025 0.76463 0.03758
 H2473 H 0.50981 0.72912 0.06745
 H2474 H 0.50275 0.81067 0.02800
 H2475 H 0.48210 0.82598 0.11899
 H2476 H 0.47362 0.87086 0.11016
 H2477 H 0.47096 0.90638 0.08063
 H2478 H 0.49443 0.85649 0.01917
 C2479 C 0.48133 0.69458 0.08822
 C2480 C 0.48272 0.66923 0.07882
 C2481 C 0.50002 0.65154 0.09075
 C2482 C 0.51539 0.65938 0.11198
 C2483 C 0.51399 0.68454 0.12116
 C2484 C 0.49760 0.70302 0.10900
 C2485 C 0.50157 0.62622 0.08146
 C2486 C 0.48612 0.61834 0.06016
 C2487 C 0.46877 0.63604 0.04820
 C2488 C 0.46707 0.66130 0.05767
 C2489 C 0.45352 0.62825 0.02681
 C2490 C 0.45562 0.60331 0.01712
 C2491 C 0.47288 0.58546 0.02869
 C2492 C 0.48792 0.59311 0.05047
 H2493 H 0.46764 0.70791 0.07928
 H2494 H 0.52839 0.64593 0.12171
 H2495 H 0.52559 0.68908 0.13825
 H2496 H 0.51489 0.61272 0.09071
 H2497 H 0.45375 0.67481 0.04843
 H2498 H 0.44007 0.64151 0.01742
 H2499 H 0.44359 0.59798 0.00048
 H2500 H 0.50137 0.57963 0.05955
 C2501 C 0.02537 0.19873 0.61496
 C2502 C 0.01822 0.17666 0.60075
 C2503 C 0.00293 0.17895 0.57791
 C2504 C -0.00514 0.20328 0.56980
 C2505 C 0.00124 0.22505 0.58448
 C2506 C 0.01669 0.22351 0.60753
 C2507 C -0.00446 0.15685 0.56384
 C2508 C 0.00286 0.13239 0.57266
 C2509 C 0.01785 0.13014 0.59578
 C2510 C 0.02565 0.15223 0.60950
 C2511 C 0.02482 0.10579 0.60487
 C2512 C 0.01740 0.08381 0.59106
 C2513 C 0.00292 0.08562 0.56772
 C2514 C -0.00446 0.11012 0.55875
 H2515 H 0.03728 0.19590 0.63201
 H2516 H -0.01717 0.20544 0.55248
 H2517 H -0.00705 0.24311 0.57814
 H2518 H -0.01612 0.15869 0.54622
 H2519 H 0.03721 0.15038 0.62718
 H2520 H 0.03620 0.10372 0.62261
 H2521 H 0.02349 0.06535 0.59852
 H2522 H -0.01560 0.11193 0.54083
 C2523 C 0.48701 0.21030 0.39000
 C2524 C 0.49087 0.18706 0.40264
 C2525 C 0.49666 0.18692 0.42917
 C2526 C 0.49883 0.21021 0.44249
 C2527 C 0.49612 0.23339 0.42947
 C2528 C 0.48958 0.23420 0.40283
 C2529 C 0.50125 0.16356 0.44167
 C2530 C 0.50066 0.14045 0.42767
 C2531 C 0.49525 0.14075 0.40095
 C2532 C 0.49012 0.16400 0.38868
 C2533 C 0.49504 0.11779 0.38687
 C2534 C 0.49945 0.09456 0.39921
 C2535 C 0.50415 0.09385 0.42588
 C2536 C 0.50519 0.11699 0.43994
 H2537 H 0.48357 0.20915 0.36971
 H2538 H 0.50404 0.21055 0.46278
 H2539 H 0.50114 0.25046 0.44035
 H2540 H 0.50565 0.16341 0.46213
 H2541 H 0.48593 0.16416 0.36818
 H2542 H 0.49111 0.11777 0.36636
 H2543 H 0.49861 0.07706 0.38787
 H2544 H 0.50875 0.11675 0.46051
 C2545 C 0.01488 0.70422 0.91648
 C2546 C 0.01334 0.67832 0.92337
 C2547 C -0.00563 0.66247 0.91123
 C2548 C -0.02265 0.67264 0.89253
 C2549 C -0.02067 0.69813 0.88540
 C2550 C -0.00224 0.71471 0.89752
 C2551 C -0.00683 0.63646 0.91731
 C2552 C 0.01084 0.62591 0.93530
 C2553 C 0.02978 0.64167 0.94767
 C2554 C 0.03090 0.66781 0.94166
 C2555 C 0.04729 0.63095 0.96581
 C2556 C 0.04590 0.60495 0.97175
 C2557 C 0.02714 0.58915 0.95949
 C2558 C 0.00977 0.59979 0.94113
 H2559 H 0.03001 0.71610 0.92519
 H2560 H -0.03695 0.66060 0.88268
 H2561 H -0.03303 0.70419 0.86941
 H2562 H -0.02135 0.62436 0.90781
 H2563 H 0.04552 0.67987 0.95101
 H2564 H 0.06196 0.64268 0.97549
 H2565 H 0.05958 0.59719 0.98595
 H2566 H -0.00493 0.58787 0.93172
 C2567 C 0.24564 0.64723 0.96172
 C2568 C 0.25093 0.66102 0.93986
 C2569 C 0.26603 0.68341 0.94203
 C2570 C 0.27720 0.69045 0.96592
 C2571 C 0.27248 0.67603 0.98757
 C2572 C 0.25498 0.65535 0.98622
 C2573 C 0.26986 0.69815 0.92027
 C2574 C 0.25921 0.69032 0.89634
 C2575 C 0.24547 0.66698 0.89406
 C2576 C 0.24124 0.65262 0.91585
 C2577 C 0.23578 0.65856 0.87005
 C2578 C 0.23892 0.67351 0.84853
 C2579 C 0.25136 0.69730 0.85078
 C2580 C 0.26175 0.70554 0.87467
 H2581 H 0.23431 0.62992 0.95945
 H2582 H 0.28975 0.70696 0.96783
 H2583 H 0.28217 0.68139 1.00556
 H2584 H 0.28094 0.71570 0.92197
 H2585 H 0.23013 0.63507 0.91417
 H2586 H 0.22543 0.64062 0.86798
 H2587 H 0.23068 0.66695 0.83024
 H2588 H 0.27157 0.72381 0.87636
 C2589 C 0.74290 0.14459 0.44633
 C2590 C 0.73805 0.16043 0.42527
 C2591 C 0.73154 0.18645 0.42902
 C2592 C 0.72941 0.19587 0.45415
 C2593 C 0.73404 0.17975 0.47526
 C2594 C 0.74147 0.15389 0.47173
 C2595 C 0.72734 0.20242 0.40761
 C2596 C 0.72961 0.19248 0.38260
 C2597 C 0.73566 0.16619 0.37922
 C2598 C 0.73980 0.15042 0.40048
 C2599 C 0.73786 0.15596 0.35460
 C2600 C 0.73481 0.17165 0.33333
 C2601 C 0.72942 0.19800 0.33607
 C2602 C 0.72638 0.20827 0.36089
 H2603 H 0.74820 0.12470 0.44306
 H2604 H 0.72404 0.21571 0.45748
 H2605 H 0.73153 0.18771 0.49414
 H2606 H 0.72256 0.22251 0.41040
 H2607 H 0.74466 0.13033 0.39773
 H2608 H 0.74231 0.13582 0.35177
 H2609 H 0.73696 0.16304 0.31460
 H2610 H 0.72222 0.22853 0.36334
 C2611 C 0.26114 0.36483 0.46551
 C2612 C 0.25876 0.34812 0.44429
 C2613 C 0.24441 0.32530 0.44594
 C2614 C 0.23228 0.31982 0.46858
 C2615 C 0.23473 0.33649 0.48954
 C2616 C 0.25027 0.35865 0.48896
 C2617 C 0.24178 0.30866 0.42473
 C2618 C 0.25288 0.31482 0.40163
 C2619 C 0.26715 0.33776 0.39993
 C2620 C 0.27019 0.35412 0.42130
 C2621 C 0.27752 0.34437 0.37663
 C2622 C 0.27293 0.32897 0.35498
 C2623 C 0.25857 0.30634 0.35640
 C2624 C 0.24909 0.29895 0.37989
 H2625 H 0.27117 0.38278 0.46351
 H2626 H 0.22065 0.30275 0.47002
 H2627 H 0.22458 0.33185 0.50653
 H2628 H 0.23061 0.29124 0.42603
 H2629 H 0.28108 0.37171 0.41991
 H2630 H 0.28848 0.36186 0.37495
 H2631 H 0.28024 0.33493 0.33689
 H2632 H 0.23762 0.28170 0.38086
 C2633 C 0.75090 0.87429 0.95566
 C2634 C 0.74947 0.86004 0.93271
 C2635 C 0.74054 0.83455 0.93276
 C2636 C 0.73213 0.82411 0.95535
 C2637 C 0.73342 0.83841 0.97796
 C2638 C 0.74410 0.86338 0.97913
 C2639 C 0.73992 0.81988 0.91021
 C2640 C 0.74791 0.83046 0.88742
 C2641 C 0.75611 0.85624 0.88699
 C2642 C 0.75695 0.87087 0.90970
 C2643 C 0.76340 0.86683 0.86384
 C2644 C 0.76282 0.85189 0.84142
 C2645 C 0.75533 0.82607 0.84196
 C2646 C 0.74780 0.81556 0.86503
 H2647 H 0.75748 0.89384 0.95494
 H2648 H 0.72443 0.80485 0.95555
 H2649 H 0.72577 0.82973 0.99471
 H2650 H 0.73329 0.80019 0.91041
 H2651 H 0.76356 0.89056 0.90949
 H2652 H 0.76962 0.88658 0.86308
 H2653 H 0.76871 0.86036 0.82380
 H2654 H 0.74162 0.79575 0.86552
 C2655 C 0.74449 0.86834 0.05333
 C2656 C 0.74806 0.85176 0.07422
 C2657 C 0.75906 0.82721 0.07062
 C2658 C 0.76773 0.82026 0.04663
 C2659 C 0.76462 0.83701 0.02614
 C2660 C 0.75147 0.86087 0.02843
 C2661 C 0.76156 0.81012 0.09112
 C2662 C 0.75375 0.81752 0.11545
 C2663 C 0.74384 0.84257 0.11936
 C2664 C 0.74078 0.85940 0.09870
 C2665 C 0.73714 0.85036 0.14393
 C2666 C 0.74004 0.83348 0.16437
 C2667 C 0.74911 0.80833 0.16053
 C2668 C 0.75587 0.80037 0.13599
 H2669 H 0.73617 0.88699 0.05680
 H2670 H 0.77711 0.80189 0.04368
 H2671 H 0.77264 0.83097 0.00829
 H2672 H 0.76966 0.79112 0.08816
 H2673 H 0.73274 0.87842 0.10167
 H2674 H 0.72967 0.86951 0.14733
 H2675 H 0.73461 0.83988 0.18319
 H2676 H 0.76310 0.78105 0.13303
 C2677 C 0.24881 0.37279 0.56150
 C2678 C 0.25423 0.35978 0.58460
 C2679 C 0.26629 0.33539 0.58401
 C2680 C 0.27386 0.32497 0.56079
 C2681 C 0.26920 0.33830 0.53818
 C2682 C 0.25537 0.36178 0.53776
 C2683 C 0.27113 0.32187 0.60667
 C2684 C 0.26461 0.33260 0.63017
 C2685 C 0.25352 0.35742 0.63117
 C2686 C 0.24814 0.37080 0.60830
 C2687 C 0.24792 0.36822 0.65505
 C2688 C 0.25271 0.35429 0.67757
 C2689 C 0.26275 0.32922 0.67645
 C2690 C 0.26893 0.31868 0.65268
 H2691 H 0.23982 0.39160 0.56200
 H2692 H 0.28392 0.30669 0.56016
 H2693 H 0.27675 0.33009 0.52094
 H2694 H 0.28006 0.30299 0.60603
 H2695 H 0.23928 0.38970 0.60895
 H2696 H 0.23959 0.38729 0.65629
 H2697 H 0.24774 0.36272 0.69572
 H2698 H 0.27697 0.29943 0.65171
 C2699 C 0.75973 0.16536 0.53090
 C2700 C 0.75932 0.17341 0.55671
 C2701 C 0.74207 0.16197 0.57332
 C2702 C 0.72579 0.14250 0.56399
 C2703 C 0.72674 0.13412 0.53865
 C2704 C 0.74335 0.14561 0.52119
 C2705 C 0.74167 0.16973 0.59914
 C2706 C 0.75853 0.18879 0.60875
 C2707 C 0.77599 0.20007 0.59214
 C2708 C 0.77626 0.19239 0.56631
 C2709 C 0.79284 0.21909 0.60154
 C2710 C 0.79198 0.22740 0.62688
 C2711 C 0.77443 0.21680 0.64367
 C2712 C 0.75799 0.19705 0.63455
 H2713 H 0.77338 0.17393 0.51843
 H2714 H 0.71276 0.13314 0.57654
 H2715 H 0.71480 0.11786 0.53349
 H2716 H 0.72830 0.16089 0.61173
 H2717 H 0.78968 0.20117 0.55372
 H2718 H 0.80643 0.22789 0.58917
 H2719 H 0.80499 0.24257 0.63326
 H2720 H 0.74428 0.18882 0.64717
 C2721 C 0.24514 0.64198 0.05807
 C2722 C 0.24387 0.65532 0.08128
 C2723 C 0.24171 0.68232 0.08132
 C2724 C 0.23916 0.69528 0.05804
 C2725 C 0.24046 0.68178 0.03493
 C2726 C 0.24545 0.65512 0.03466
 C2727 C 0.24243 0.69589 0.10459
 C2728 C 0.24529 0.68271 0.12777
 C2729 C 0.24625 0.65558 0.12771
 C2730 C 0.24552 0.64206 0.10445
 C2731 C 0.24842 0.64246 0.15095
 C2732 C 0.25020 0.65609 0.17405
 C2733 C 0.25025 0.68300 0.17419
 C2734 C 0.24756 0.69622 0.15101
 H2735 H 0.24724 0.62127 0.05817
 H2736 H 0.23641 0.71590 0.05770
 H2737 H 0.23766 0.69244 0.01743
 H2738 H 0.24127 0.71667 0.10465
 H2739 H 0.24684 0.62129 0.10436
 H2740 H 0.24901 0.62169 0.15125
 H2741 H 0.25224 0.64561 0.19181
 H2742 H 0.24720 0.71702 0.15110
 C2743 C 0.13865 0.55685 0.74542
 C2744 C 0.15247 0.57928 0.75086
 C2745 C 0.17869 0.57771 0.75934
 C2746 C 0.19044 0.55364 0.76273
 C2747 C 0.17647 0.53126 0.75745
 C2748 C 0.15038 0.53243 0.74833
 C2749 C 0.19275 0.60021 0.76417
 C2750 C 0.18086 0.62422 0.76050
 C2751 C 0.15446 0.62576 0.75249
 C2752 C 0.14041 0.60326 0.74778
 C2753 C 0.14266 0.64979 0.74891
 C2754 C 0.15707 0.67214 0.75254
 C2755 C 0.18351 0.67083 0.75986
 C2756 C 0.19513 0.64672 0.76425
 H2757 H 0.11847 0.55823 0.73907
 H2758 H 0.21048 0.55211 0.76946
 H2759 H 0.18637 0.51319 0.76066
 H2760 H 0.21297 0.59904 0.77046
 H2761 H 0.12020 0.60441 0.74139
 H2762 H 0.12241 0.65129 0.74289
 H2763 H 0.14758 0.69044 0.74911
 H2764 H 0.21546 0.64537 0.77007
 C2765 C 0.63286 0.04572 0.24315
 C2766 C 0.64853 0.06746 0.24463
 C2767 C 0.67466 0.06570 0.23841
 C2768 C 0.68455 0.04172 0.23096
 C2769 C 0.66855 0.01998 0.22925
 C2770 C 0.64228 0.02122 0.23587
 C2771 C 0.68989 0.08812 0.23866
 C2772 C 0.67889 0.11223 0.24462
 C2773 C 0.65261 0.11350 0.25102
 C2774 C 0.63781 0.09120 0.25127
 C2775 C 0.64112 0.13716 0.25649
 C2776 C 0.65516 0.15966 0.25496
 C2777 C 0.68118 0.15913 0.24830
 C2778 C 0.69324 0.13521 0.24365
 H2779 H 0.61269 0.04861 0.24663
 H2780 H 0.70440 0.03998 0.22534
 H2781 H 0.67649 0.00287 0.22074
 H2782 H 0.70995 0.08691 0.23356
 H2783 H 0.61762 0.09246 0.25599
 H2784 H 0.62104 0.13833 0.26150
 H2785 H 0.64554 0.17768 0.25901
 H2786 H 0.71328 0.13458 0.23847
 C2787 C 0.86905 0.05410 0.76642
 C2788 C 0.85510 0.07647 0.75963
 C2789 C 0.83979 0.07716 0.73660
 C2790 C 0.83862 0.05542 0.72076
 C2791 C 0.85256 0.03334 0.72752
 C2792 C 0.86812 0.03218 0.75037
 C2793 C 0.82603 0.09959 0.72968
 C2794 C 0.82763 0.12156 0.74539
 C2795 C 0.84299 0.12072 0.76846
 C2796 C 0.85641 0.09824 0.77549
 C2797 C 0.84505 0.14254 0.78408
 C2798 C 0.83258 0.16517 0.77676
 C2799 C 0.81748 0.16659 0.75378
 C2800 C 0.81460 0.14449 0.73830
 H2801 H 0.88061 0.05400 0.78416
 H2802 H 0.82692 0.05546 0.70308
 H2803 H 0.85081 0.01687 0.71488
 H2804 H 0.81438 0.10004 0.71195
 H2805 H 0.86816 0.09782 0.79316
 H2806 H 0.85663 0.14223 0.80184
 H2807 H 0.83482 0.18177 0.78926
 H2808 H 0.80306 0.14538 0.72055
 C2809 C 0.34891 0.52297 0.24741
 C2810 C 0.34095 0.54868 0.24858
 C2811 C 0.35878 0.56837 0.24413
 C2812 C 0.38413 0.56212 0.23828
 C2813 C 0.39179 0.53659 0.23676
 C2814 C 0.37429 0.51649 0.24078
 C2815 C 0.35116 0.59406 0.24592
 C2816 C 0.32580 0.60035 0.25185
 C2817 C 0.30769 0.58075 0.25576
 C2818 C 0.31544 0.55500 0.25431
 C2819 C 0.28215 0.58729 0.26108
 C2820 C 0.27473 0.61302 0.26276
 C2821 C 0.29284 0.63253 0.25951
 C2822 C 0.31832 0.62605 0.25396
 H2823 H 0.33540 0.50828 0.25230
 H2824 H 0.39810 0.57698 0.23501
 H2825 H 0.41168 0.53238 0.23248
 H2826 H 0.36497 0.60913 0.24277
 H2827 H 0.30165 0.53993 0.25755
 H2828 H 0.26797 0.57254 0.26400
 H2829 H 0.25494 0.61767 0.26708
 H2830 H 0.33229 0.64104 0.25107
 C2831 C 0.36565 0.44648 0.25664
 C2832 C 0.34622 0.42798 0.25665
 C2833 C 0.32474 0.42977 0.23918
 C2834 C 0.32313 0.45016 0.22199
 C2835 C 0.34234 0.46885 0.22247
 C2836 C 0.36346 0.46799 0.24048
 C2837 C 0.30554 0.41090 0.23887
 C2838 C 0.30767 0.39025 0.25582
 C2839 C 0.32906 0.38874 0.27358
 C2840 C 0.34815 0.40760 0.27386
 C2841 C 0.33139 0.36799 0.29033
 C2842 C 0.31325 0.34836 0.28885
 C2843 C 0.29235 0.34947 0.27097
 C2844 C 0.28927 0.37058 0.25477
 H2845 H 0.38254 0.44381 0.26927
 H2846 H 0.30700 0.45168 0.20817
 H2847 H 0.34048 0.48433 0.20890
 H2848 H 0.28920 0.41207 0.22522
 H2849 H 0.36465 0.40628 0.28732
 H2850 H 0.34765 0.36655 0.30402
 H2851 H 0.31593 0.33188 0.30113
 H2852 H 0.27331 0.37104 0.24065
 C2853 C 0.87584 0.95891 0.75942
 C2854 C 0.85991 0.93739 0.76083
 C2855 C 0.83300 0.94075 0.76310
 C2856 C 0.82258 0.96554 0.76445
 C2857 C 0.83850 0.98687 0.76271
 C2858 C 0.86529 0.98396 0.75919
 C2859 C 0.81689 0.91930 0.76382
 C2860 C 0.82733 0.89450 0.76191
 C2861 C 0.85430 0.89111 0.75988
 C2862 C 0.87045 0.91257 0.75957
 C2863 C 0.86462 0.86630 0.75778
 C2864 C 0.84834 0.84504 0.75719
 C2865 C 0.82143 0.84816 0.75885
 C2866 C 0.81113 0.87304 0.76155
 H2867 H 0.89652 0.95623 0.75791
 H2868 H 0.80205 0.96846 0.76670
 H2869 H 0.82962 1.00561 0.76428
 H2870 H 0.79620 0.92192 0.76544
 H2871 H 0.89113 0.90997 0.75784
 H2872 H 0.88525 0.86334 0.75627
 H2873 H 0.85688 0.82613 0.75529
 H2874 H 0.79044 0.87581 0.76288
 C2875 C 0.65673 0.96238 0.24157
 C2876 C 0.66399 0.93611 0.24144
 C2877 C 0.64628 0.91748 0.23190
 C2878 C 0.62178 0.92516 0.22301
 C2879 C 0.61491 0.95096 0.22293
 C2880 C 0.63240 0.97061 0.23088
 C2881 C 0.65298 0.89134 0.23192
 C2882 C 0.67750 0.88333 0.24104
 C2883 C 0.69549 0.90186 0.25040
 C2884 C 0.68855 0.92806 0.25084
 C2885 C 0.72023 0.89388 0.25894
 C2886 C 0.72717 0.86795 0.25797
 C2887 C 0.70944 0.84926 0.24885
 C2888 C 0.68443 0.85711 0.24067
 H2889 H 0.66966 0.97583 0.25120
 H2890 H 0.60761 0.91110 0.21639
 H2891 H 0.59518 0.95502 0.21718
 H2892 H 0.63912 0.87724 0.22469
 H2893 H 0.70237 0.94215 0.25816
 H2894 H 0.73434 0.90772 0.26615
 H2895 H 0.74654 0.86246 0.26455
 H2896 H 0.67067 0.84295 0.23341
 C2897 C 0.15573 0.46753 0.76151
 C2898 C 0.17013 0.44482 0.75954
 C2899 C 0.18371 0.43966 0.73724
 C2900 C 0.18243 0.45719 0.71728
 C2901 C 0.16684 0.47902 0.71878
 C2902 C 0.15207 0.48423 0.74044
 C2903 C 0.19819 0.41700 0.73518
 C2904 C 0.19822 0.39885 0.75470
 C2905 C 0.18390 0.40359 0.77673
 C2906 C 0.17051 0.42685 0.77931
 C2907 C 0.18288 0.38479 0.79559
 C2908 C 0.19591 0.36148 0.79264
 C2909 C 0.21073 0.35701 0.77119
 C2910 C 0.21198 0.37579 0.75235
 H2911 H 0.14709 0.47176 0.77955
 H2912 H 0.19314 0.45379 0.70019
 H2913 H 0.16685 0.49161 0.70269
 H2914 H 0.20888 0.41320 0.71813
 H2915 H 0.15971 0.43060 0.79629
 H2916 H 0.17184 0.38801 0.81248
 H2917 H 0.19493 0.34714 0.80738
 H2918 H 0.22322 0.37217 0.73566
 C2919 C 0.05198 0.74888 0.88239
 C2920 C 0.07424 0.74705 0.86818
 C2921 C 0.07347 0.73327 0.84478
 C2922 C 0.05083 0.72061 0.83659
 C2923 C 0.02864 0.72287 0.85066
 C2924 C 0.02829 0.73846 0.87289
 C2925 C 0.09524 0.73263 0.82981
 C2926 C 0.11764 0.74589 0.83783
 C2927 C 0.11873 0.75907 0.86160
 C2928 C 0.09706 0.75939 0.87675
 C2929 C 0.14133 0.77211 0.86956
 C2930 C 0.16247 0.77255 0.85384
 C2931 C 0.16126 0.76008 0.82988
 C2932 C 0.13885 0.74650 0.82218
 H2933 H 0.05329 0.75881 0.90065
 H2934 H 0.05009 0.70939 0.81902
 H2935 H 0.01128 0.71317 0.84362
 H2936 H 0.09453 0.72231 0.81168
 H2937 H 0.09771 0.76982 0.89482
 H2938 H 0.14253 0.78221 0.88777
 H2939 H 0.17959 0.78303 0.86022
 H2940 H 0.13784 0.73645 0.80392
 C2941 C 0.52498 0.26494 0.35156
 C2942 C 0.55006 0.26173 0.34295
 C2943 C 0.57068 0.25579 0.36048
 C2944 C 0.56579 0.25327 0.38633
 C2945 C 0.54053 0.25496 0.39443
 C2946 C 0.51924 0.25905 0.37695
 C2947 C 0.59580 0.25254 0.35190
 C2948 C 0.60031 0.25403 0.32576
 C2949 C 0.57941 0.25918 0.30814
 C2950 C 0.55461 0.26368 0.31690
 C2951 C 0.58357 0.25955 0.28196
 C2952 C 0.60824 0.25520 0.27325
 C2953 C 0.62938 0.25093 0.29056
 C2954 C 0.62531 0.25035 0.31688
 H2955 H 0.51019 0.27215 0.33827
 H2956 H 0.58143 0.24951 0.40026
 H2957 H 0.53789 0.25308 0.41463
 H2958 H 0.61168 0.24835 0.36546
 H2959 H 0.53871 0.26788 0.30336
 H2960 H 0.56777 0.26328 0.26820
 H2961 H 0.61090 0.25608 0.25286
 H2962 H 0.64149 0.24701 0.33032
 C2963 C 0.54283 0.73670 0.13035
 C2964 C 0.56433 0.74356 0.14601
 C2965 C 0.56116 0.75001 0.17192
 C2966 C 0.53609 0.75061 0.18125
 C2967 C 0.51446 0.74468 0.16513
 C2968 C 0.51748 0.73684 0.13949
 C2969 C 0.58309 0.75582 0.18786
 C2970 C 0.60801 0.75565 0.17790
 C2971 C 0.61068 0.75034 0.15157
 C2972 C 0.58894 0.74418 0.13591
 C2973 C 0.63518 0.75069 0.14129
 C2974 C 0.65714 0.75491 0.15706
 C2975 C 0.65522 0.75882 0.18356
 C2976 C 0.63038 0.75995 0.19379
 H2977 H 0.54571 0.73139 0.11057
 H2978 H 0.53314 0.75612 0.20094
 H2979 H 0.49558 0.74675 0.17290
 H2980 H 0.58080 0.76026 0.20793
 H2981 H 0.59121 0.73964 0.11584
 H2982 H 0.63746 0.74699 0.12108
 H2983 H 0.67583 0.75419 0.14851
 H2984 H 0.62852 0.76292 0.21416
 C2985 C 0.06846 0.26118 0.63811
 C2986 C 0.09005 0.26086 0.65536
 C2987 C 0.09005 0.24519 0.67717
 C2988 C 0.06873 0.22971 0.68110
 C2989 C 0.04741 0.23005 0.66389
 C2990 C 0.04651 0.24575 0.64188
 C2991 C 0.11123 0.24542 0.69485
 C2992 C 0.13272 0.26082 0.69073
 C2993 C 0.13300 0.27613 0.66858
 C2994 C 0.11157 0.27627 0.65121
 C2995 C 0.15492 0.29073 0.66395
 C2996 C 0.17657 0.28974 0.68080
 C2997 C 0.17633 0.27480 0.70293
 C2998 C 0.15423 0.26067 0.70806
 H2999 H 0.06906 0.27417 0.62232
 H3000 H 0.06830 0.21761 0.69779
 H3001 H 0.03095 0.21847 0.66836
 H3002 H 0.11107 0.23347 0.71169
 H3003 H 0.11176 0.28820 0.63436
 H3004 H 0.15554 0.30246 0.64702
 H3005 H 0.19362 0.30056 0.67654
 H3006 H 0.15427 0.24872 0.72490
 C3007 C 0.97360 0.23921 0.63797
 C3008 C 0.95284 0.24353 0.65379
 C3009 C 0.95631 0.25845 0.67634
 C3010 C 0.98047 0.26917 0.68246
 C3011 C 1.00086 0.26553 0.66619
 C3012 C 0.99808 0.25017 0.64369
 C3013 C 0.93537 0.26305 0.69196
 C3014 C 0.91076 0.25369 0.68473
 C3015 C 0.90727 0.23916 0.66183
 C3016 C 0.92838 0.23377 0.64681
 C3017 C 0.88256 0.23069 0.65398
 C3018 C 0.86141 0.23691 0.66843
 C3019 C 0.86469 0.25116 0.69120
 C3020 C 0.88942 0.25918 0.69962
 H3021 H 0.97003 0.22784 0.62087
 H3022 H 0.98343 0.28103 0.69945
 H3023 H 1.01881 0.27535 0.67093
 H3024 H 0.93805 0.27448 0.70931
 H3025 H 0.92563 0.22257 0.62932
 H3026 H 0.87954 0.21959 0.63648
 H3027 H 0.84239 0.23033 0.66200
 H3028 H 0.89184 0.27028 0.71719
 C3029 C 0.46071 0.71714 0.15209
 C3030 C 0.43545 0.71784 0.16133
 C3031 C 0.41602 0.73271 0.14859
 C3032 C 0.42169 0.74558 0.12636
 C3033 C 0.44651 0.74462 0.11722
 C3034 C 0.46714 0.73176 0.13065
 C3035 C 0.39111 0.73443 0.15807
 C3036 C 0.38515 0.72144 0.18030
 C3037 C 0.40423 0.70586 0.19272
 C3038 C 0.42923 0.70410 0.18316
 C3039 C 0.39811 0.69270 0.21481
 C3040 C 0.37377 0.69575 0.22507
 C3041 C 0.35489 0.71203 0.21349
 C3042 C 0.36060 0.72433 0.19065
 H3043 H 0.47548 0.70545 0.16169
 H3044 H 0.40679 0.75628 0.11579
 H3045 H 0.44907 0.75391 0.09917
 H3046 H 0.37645 0.74617 0.14831
 H3047 H 0.44391 0.69242 0.19294
 H3048 H 0.41234 0.68047 0.22451
 H3049 H 0.37000 0.68576 0.24254
 H3050 H 0.34635 0.73691 0.18145
 C3051 C 0.44477 0.27083 0.36971
 C3052 C 0.42386 0.26927 0.35185
 C3053 C 0.42637 0.25544 0.32882
 C3054 C 0.45003 0.24367 0.32396
 C3055 C 0.47077 0.24519 0.34195
 C3056 C 0.46897 0.25901 0.36537
 C3057 C 0.40496 0.25293 0.31148
 C3058 C 0.38092 0.26370 0.31733
 C3059 C 0.37869 0.27785 0.34041
 C3060 C 0.40018 0.28080 0.35728
 C3061 C 0.35474 0.28812 0.34679
 C3062 C 0.33290 0.28351 0.33106
 C3063 C 0.33466 0.26911 0.30839
 C3064 C 0.35881 0.25978 0.30111
 H3065 H 0.44137 0.28097 0.38726
 H3066 H 0.45236 0.23271 0.30649
 H3067 H 0.48812 0.23472 0.33743
 H3068 H 0.40681 0.24200 0.29389
 H3069 H 0.39824 0.29144 0.37504
 H3070 H 0.35274 0.29905 0.36434
 H3071 H 0.31438 0.29093 0.33678
 H3072 H 0.36010 0.24849 0.28369
 C3073 C 0.95504 0.75161 0.87892
 C3074 C 0.93343 0.75762 0.86318
 C3075 C 0.93666 0.76461 0.83753
 C3076 C 0.96163 0.76680 0.82856
 C3077 C 0.98313 0.76044 0.84433
 C3078 C 0.98006 0.75102 0.86925
 C3079 C 0.91489 0.76872 0.82118
 C3080 C 0.89000 0.76531 0.83012
 C3081 C 0.88686 0.75915 0.85606
 C3082 C 0.90859 0.75566 0.87250
 C3083 C 0.86205 0.75570 0.86497
 C3084 C 0.84052 0.75730 0.84814
 C3085 C 0.84340 0.76250 0.82208
 C3086 C 0.86823 0.76711 0.81334
 H3087 H 0.95237 0.74586 0.89848
 H3088 H 0.96453 0.77303 0.80921
 H3089 H 1.00202 0.76294 0.83674
 H3090 H 0.91734 0.77366 0.80135
 H3091 H 0.90617 0.75043 0.89227
 H3092 H 0.85932 0.75113 0.88483
 H3093 H 0.82163 0.75390 0.85552
 H3094 H 0.87073 0.77137 0.79336
   
