data_POSCAR
  _audit_creation_date              2014-09-24
  _audit_creation_method            'ToBaCCo'
  _symmetry_space_group_name_H-M    'P1'
  _symmetry_Int_Tables_number       1
  _symmetry_cell_setting            triclinic
  loop_
  _symmetry_equiv_pos_as_xyz
 x,y,z
_cell_length_a 50.4622
_cell_length_b 50.4736
_cell_length_c 50.2081
_cell_angle_alpha 89.668000
_cell_angle_beta 89.601900
_cell_angle_gamma 90.390100
loop_
  _atom_site_label
  _atom_site_type_symbol
  _atom_site_fract_x
  _atom_site_fract_y
  _atom_site_fract_z
C1 C 0.11318 -0.00252 0.22662
 C2 C 0.13084 0.02206 0.22645
 C3 C 0.14688 0.02437 0.24785
 C4 C 0.14381 0.00158 0.26816
 C5 C 0.13218 -0.02574 0.23017
 C6 C 0.14833 -0.02365 0.25160
 C7 C 0.09807 -0.00148 0.25325
 C8 C 0.11392 0.00093 0.27510
 H9 H 0.13000 0.03699 0.21086
 H10 H 0.15726 0.00350 0.28543
 H11 H 0.13223 -0.04289 0.21728
 H12 H 0.07695 -0.00480 0.25496
 C13 C 0.38869 0.00216 0.73181
 C14 C 0.37300 -0.02358 0.73485
 C15 C 0.35750 -0.02491 0.75694
 C16 C 0.35906 0.00006 0.77449
 C17 C 0.36802 0.02412 0.73334
 C18 C 0.35248 0.02326 0.75553
 C19 C 0.40348 0.00472 0.75650
 C20 C 0.38742 0.00335 0.78038
 H21 H 0.37452 -0.03978 0.72084
 H22 H 0.34539 -0.00144 0.79174
 H23 H 0.36757 0.04054 0.71933
 H24 H 0.42370 0.01173 0.75678
 C25 C 0.88502 0.50282 0.22505
 C26 C 0.86593 0.47936 0.22584
 C27 C 0.85050 0.47780 0.24797
 C28 C 0.85556 0.50028 0.26799
 C29 C 0.86766 0.52716 0.22937
 C30 C 0.85226 0.52593 0.25160
 C31 C 0.90091 0.50062 0.25102
 C32 C 0.88560 0.49926 0.27361
 H33 H 0.86553 0.46441 0.21042
 H34 H 0.84255 0.49905 0.28586
 H35 H 0.86874 0.54466 0.21679
 H36 H 0.92217 0.50307 0.25182
 C37 C 0.61458 0.49729 0.72414
 C38 C 0.63591 0.51875 0.72302
 C39 C 0.65170 0.51991 0.74470
 C40 C 0.64499 0.49878 0.76601
 C41 C 0.62950 0.47151 0.72941
 C42 C 0.64549 0.47213 0.75113
 C43 C 0.59954 0.50217 0.75039
 C44 C 0.61534 0.50291 0.77236
 H45 H 0.63676 0.53349 0.70724
 H46 H 0.65815 0.49953 0.78362
 H47 H 0.62690 0.45390 0.71744
 H48 H 0.57816 0.50186 0.75200
 C49 C 0.22638 0.11051 1.00103
 C50 C 0.22503 0.13178 1.02239
 C51 C 0.24635 0.14820 1.02320
 C52 C 0.26757 0.14207 1.00204
 C53 C 0.23139 0.12558 0.97494
 C54 C 0.25273 0.14218 0.97539
 C55 C 0.25270 0.09617 1.00611
 C56 C 0.27432 0.11262 1.00653
 H57 H 0.20933 0.13225 1.03724
 H58 H 0.28488 0.15574 1.00257
 H59 H 0.21932 0.12291 0.95738
 H60 H 0.25470 0.07486 1.00608
 C61 C 0.72068 0.39046 1.00236
 C62 C 0.71900 0.37122 0.98133
 C63 C 0.74140 0.35432 0.97856
 C64 C 0.76106 0.35876 0.99986
 C65 C 0.72461 0.37514 1.02646
 C66 C 0.74688 0.35769 1.02573
 C67 C 0.74601 0.40426 0.99821
 C68 C 0.76871 0.38693 0.99707
 H69 H 0.70132 0.36922 0.96935
 H70 H 0.77786 0.34497 0.99860
 H71 H 0.71208 0.37742 1.04387
 H72 H 0.74828 0.42526 1.00175
 C73 C 0.22846 0.88992 0.50041
 C74 C 0.22882 0.86838 0.47932
 C75 C 0.25075 0.85308 0.47926
 C76 C 0.27095 0.86066 0.50084
 C77 C 0.23313 0.87548 0.52680
 C78 C 0.25525 0.86029 0.52725
 C79 C 0.25438 0.90569 0.49572
 C80 C 0.27673 0.89043 0.49627
 H81 H 0.21360 0.86666 0.46428
 H82 H 0.28878 0.84790 0.50087
 H83 H 0.22074 0.87841 0.54424
 H84 H 0.25553 0.92706 0.49584
 C85 C 0.72941 0.61246 0.49471
 C86 C 0.72898 0.63308 0.51672
 C87 C 0.75100 0.64849 0.51807
 C88 C 0.77195 0.64212 0.49670
 C89 C 0.73510 0.62810 0.46908
 C90 C 0.75714 0.64372 0.47004
 C91 C 0.75506 0.59680 0.49928
 C92 C 0.77740 0.61225 0.50021
 H93 H 0.71326 0.63386 0.53153
 H94 H 0.78982 0.65502 0.49766
 H95 H 0.72311 0.62635 0.45135
 H96 H 0.75604 0.57543 0.49855
 C97 C -0.00245 0.22162 0.11184
 C98 C 0.02201 0.22240 0.12941
 C99 C 0.02426 0.24432 0.14471
 C100 C 0.00150 0.26413 0.14102
 C101 C -0.02582 0.22563 0.13096
 C102 C -0.02383 0.24763 0.14632
 C103 C -0.00126 0.24757 0.09566
 C104 C 0.00104 0.26996 0.11075
 H105 H 0.03691 0.20703 0.12904
 H106 H 0.00340 0.28175 0.15397
 H107 H -0.04309 0.21276 0.13146
 H108 H -0.00456 0.24838 0.07444
 C109 C 0.00214 0.72369 0.38682
 C110 C -0.02289 0.72441 0.37325
 C111 C -0.02745 0.74769 0.35773
 C112 C -0.00501 0.76637 0.35844
 C113 C 0.02319 0.72809 0.36514
 C114 C 0.01968 0.75034 0.35029
 C115 C 0.00329 0.74939 0.40313
 C116 C -0.00057 0.77195 0.38841
 H117 H -0.03597 0.70731 0.37313
 H118 H -0.00772 0.78450 0.34630
 H119 H 0.04140 0.71685 0.36422
 H120 H 0.00900 0.74980 0.42384
 C121 C 0.49791 0.22803 0.88985
 C122 C 0.47467 0.22938 0.87069
 C123 C 0.47480 0.25084 0.85437
 C124 C 0.49837 0.26977 0.85883
 C125 C 0.52261 0.23052 0.87223
 C126 C 0.52295 0.25210 0.85602
 C127 C 0.49706 0.25450 0.90496
 C128 C 0.49727 0.27648 0.88880
 H129 H 0.45891 0.21468 0.87055
 H130 H 0.49838 0.28703 0.84506
 H131 H 0.53914 0.21698 0.87348
 H132 H 0.49873 0.25597 0.92631
 C133 C 0.49493 0.72814 0.61206
 C134 C 0.51937 0.72741 0.62963
 C135 C 0.52231 0.74856 0.64582
 C136 C 0.50015 0.76919 0.64310
 C137 C 0.47168 0.73201 0.63136
 C138 C 0.47437 0.75319 0.64775
 C139 C 0.49693 0.75470 0.59703
 C140 C 0.49988 0.77631 0.61311
 H141 H 0.53391 0.71173 0.62844
 H142 H 0.50259 0.78622 0.65676
 H143 H 0.45405 0.71965 0.63140
 H144 H 0.49418 0.75644 0.57575
 C145 C 0.88859 1.00173 0.77699
 C146 C 0.87453 1.02639 0.77293
 C147 C 0.85748 1.02679 0.75018
 C148 C 0.85730 1.00149 0.73589
 C149 C 0.86655 0.98082 0.77862
 C150 C 0.85042 0.98015 0.75707
 C151 C 0.90283 0.99642 0.75054
 C152 C 0.88667 0.99640 0.72889
 H153 H 0.87268 1.04112 0.78831
 H154 H 0.84423 1.00061 0.71828
 H155 H 0.86520 0.96626 0.79452
 H156 H 0.92416 0.99453 0.74906
 C157 C 0.38870 0.50980 0.27423
 C158 C 0.36913 0.53244 0.26992
 C159 C 0.35264 0.52895 0.24891
 C160 C 0.35748 0.50309 0.23348
 C161 C 0.37155 0.48489 0.27587
 C162 C 0.35522 0.48119 0.25488
 C163 C 0.40339 0.50781 0.24744
 C164 C 0.38724 0.50402 0.22602
 H165 H 0.36886 0.55022 0.28190
 H166 H 0.34383 0.50010 0.21652
 H167 H 0.37307 0.47070 0.29208
 H168 H 0.42450 0.51108 0.24535
 C169 C 0.61241 0.99873 0.27735
 C170 C 0.62579 0.97229 0.27139
 C171 C 0.64193 0.97284 0.24956
 C172 C 0.64310 1.00010 0.23545
 C173 C 0.63368 1.01784 0.27886
 C174 C 0.65048 1.01928 0.25595
 C175 C 0.59771 1.00517 0.25132
 C176 C 0.61372 1.00560 0.22921
 H177 H 0.62168 0.95430 0.28259
 H178 H 0.65639 1.00023 0.21776
 H179 H 0.63412 1.03259 0.29446
 H180 H 0.57633 1.00518 0.24985
 C181 C 0.11137 0.49871 0.77168
 C182 C 0.12555 0.47234 0.76770
 C183 C 0.14139 0.47145 0.74571
 C184 C 0.14184 0.49743 0.72946
 C185 C 0.13326 0.51962 0.77132
 C186 C 0.14912 0.51929 0.74945
 C187 C 0.09647 0.50290 0.74531
 C188 C 0.11236 0.50202 0.72317
 H189 H 0.12215 0.45530 0.78053
 H190 H 0.15506 0.49704 0.71170
 H191 H 0.13452 0.53505 0.78620
 H192 H 0.07513 0.50281 0.74375
 C193 C 0.77390 0.88887 0.00335
 C194 C 0.77003 0.86678 0.02401
 C195 C 0.74783 0.85187 0.02058
 C196 C 0.73097 0.86055 -0.00336
 C197 C 0.77244 0.87512 -0.02350
 C198 C 0.75023 0.86043 -0.02726
 C199 C 0.74818 0.90489 0.00528
 C200 C 0.72558 0.89030 0.00140
 H201 H 0.78274 0.86439 0.04115
 H202 H 0.71306 0.84812 -0.00650
 H203 H 0.78795 0.87697 -0.03847
 H204 H 0.74777 0.92558 0.01069
 C205 C 0.27625 0.39123 0.50600
 C206 C 0.27160 0.37234 0.52957
 C207 C 0.25053 0.35571 0.52667
 C208 C 0.23540 0.35974 0.50042
 C209 C 0.27781 0.37335 0.48171
 C210 C 0.25676 0.35687 0.47863
 C211 C 0.24977 0.40578 0.50326
 C212 C 0.22828 0.38948 0.50006
 H213 H 0.28347 0.37260 0.54746
 H214 H 0.21843 0.34591 0.49792
 H215 H 0.29402 0.37448 0.46745
 H216 H 0.24791 0.42695 0.50575
 C217 C 0.26980 0.60913 -0.00195
 C218 C 0.26572 0.62728 -0.02605
 C219 C 0.24389 0.64273 -0.02443
 C220 C 0.22764 0.63871 0.00135
 C221 C 0.26943 0.62748 0.02202
 C222 C 0.24775 0.64306 0.02391
 C223 C 0.24367 0.59330 0.00013
 C224 C 0.22146 0.60867 0.00185
 H225 H 0.27820 0.62675 -0.04369
 H226 H 0.21013 0.65180 0.00289
 H227 H 0.28502 0.62759 0.03678
 H228 H 0.24244 0.57216 -0.00279
 C229 C 0.77750 0.10862 0.49845
 C230 C 0.77532 0.12525 0.47496
 C231 C 0.75368 0.14347 0.47545
 C232 C 0.73754 0.14088 0.50004
 C233 C 0.77806 0.12656 0.52074
 C234 C 0.75636 0.14451 0.52213
 C235 C 0.75186 0.09513 0.50016
 C236 C 0.72932 0.11268 0.50123
 H237 H 0.78660 0.12123 0.45700
 H238 H 0.72140 0.15548 0.50097
 H239 H 0.79212 0.12418 0.53681
 H240 H 0.74972 0.07443 0.49527
 C241 C 1.00698 0.77223 0.88754
 C242 C 1.02738 0.76906 0.86512
 C243 C 1.02299 0.74787 0.84912
 C244 C 0.99833 0.73131 0.85710
 C245 C 0.98025 0.77250 0.87372
 C246 C 0.97540 0.75132 0.85799
 C247 C 1.00773 0.74556 0.90235
 C248 C 1.00282 0.72401 0.88669
 H249 H 1.04533 0.78088 0.86358
 H250 H 0.99440 0.71425 0.84382
 H251 H 0.96607 0.78832 0.87647
 H252 H 1.01287 0.74390 0.92317
 C253 C 0.50675 0.27878 0.38810
 C254 C 0.52949 0.27426 0.36833
 C255 C 0.52639 0.25248 0.35278
 C256 C 0.50069 0.23668 0.35866
 C257 C 0.48185 0.27896 0.37117
 C258 C 0.47850 0.25730 0.35571
 C259 C 0.50521 0.25276 0.40403
 C260 C 0.50176 0.23060 0.38888
 H261 H 0.54721 0.28647 0.36754
 H262 H 0.49792 0.21919 0.34568
 H263 H 0.46759 0.29492 0.37190
 H264 H 0.50889 0.25181 0.42520
 C265 C 0.99758 0.27058 0.60944
 C266 C 0.97312 0.26668 0.62722
 C267 C 0.97417 0.24512 0.64343
 C268 C 0.99974 0.22893 0.64044
 C269 C 1.02095 0.27063 0.62847
 C270 C 1.02225 0.24918 0.64474
 C271 C 0.99980 0.24423 0.59433
 C272 C 1.00097 0.22231 0.61046
 H273 H 0.95577 0.27916 0.62605
 H274 H 1.00079 0.21166 0.65414
 H275 H 1.03592 0.28615 0.62832
 H276 H 0.99756 0.24265 0.57303
 C277 C 0.49465 0.77494 0.11310
 C278 C 0.47044 0.77043 0.13111
 C279 C 0.47150 0.74803 0.14616
 C280 C 0.49686 0.73175 0.14187
 C281 C 0.51832 0.77379 0.13170
 C282 C 0.51968 0.75149 0.14678
 C283 C 0.49623 0.74936 0.09665
 C284 C 0.49753 0.72665 0.11157
 H285 H 0.45316 0.78306 0.13078
 H286 H 0.49797 0.71380 0.15466
 H287 H 0.53345 0.78913 0.13208
 H288 H 0.49347 0.74893 0.07535
 O289 O -0.01358 0.92061 0.98768
 O290 O -0.00174 0.91989 1.03150
 O291 O -0.07278 0.98293 0.98472
 O292 O -0.07505 1.02597 0.99107
 O293 O -0.00856 0.97986 0.92506
 O294 O 0.03648 0.99224 0.92590
 O295 O -0.00463 1.05387 1.05249
 O296 O -0.04550 1.03461 1.05504
 O297 O 0.05100 0.99256 1.06080
 O298 O 0.05863 0.95031 1.03917
 O299 O 0.06029 1.04746 0.99822
 O300 O 0.04017 1.05494 0.95608
 O301 O 0.01726 1.07030 1.01605
 O302 O 0.00572 1.07034 0.96726
 O303 O 0.07601 1.01077 1.01919
 O304 O 0.07649 0.96331 1.00617
 O305 O 0.01401 1.01334 1.07597
 O306 O -0.03106 0.99362 1.07416
 O307 O 0.00929 0.93669 0.95166
 O308 O 0.05095 0.95981 0.94630
 O309 O -0.04592 1.00015 0.93995
 O310 O -0.05029 1.04363 0.96271
 O311 O -0.05730 0.94563 1.00483
 O312 O -0.03588 0.94307 1.04884
 Zr313 Zr -0.01714 0.95390 1.01232
 O314 O 0.00633 0.97679 1.03799
 Zr315 Zr -0.03914 1.00731 0.98057
 O316 O -0.01745 1.03235 1.00573
 Zr317 Zr 0.01514 0.97727 0.95915
 O318 O 0.03940 1.00173 0.98256
 Zr319 Zr -0.01110 1.01407 1.04276
 O320 O -0.03606 0.99041 1.01888
 Zr321 Zr 0.04344 0.98469 1.02055
 O322 O 0.02125 0.95890 0.99621
 Zr323 Zr 0.02067 1.03813 0.98965
 O324 O -0.00196 1.01500 0.96292
 O325 O -0.02262 0.97022 0.97457
 O326 O 0.02674 1.02176 1.02730
 C327 C -0.00171 0.91790 0.96518
 C328 C -0.07584 0.95979 0.99496
 C329 C -0.03147 0.99003 0.92158
 C330 C 0.00647 1.07269 1.03915
 C331 C 0.03715 1.00353 1.07910
 C332 C 0.07872 1.03410 1.00934
 H333 H 0.00788 0.96742 1.05526
 H334 H 0.05666 1.00408 0.97340
 H335 H -0.03365 0.95876 0.96308
 H336 H -0.02719 1.04915 1.00783
 H337 H -0.06084 1.02323 1.05041
 H338 H -0.07208 1.03446 1.00849
 H339 H 0.08316 0.97243 0.98995
 H340 H 0.05631 0.94729 0.96050
 H341 H -0.03080 1.00504 1.09017
 H342 H -0.04630 0.92655 1.04623
 H343 H 0.05246 1.04147 0.94902
 H344 H 0.03036 1.01063 0.92307
 H345 H 0.01720 0.91882 1.02638
 H346 H 0.04554 0.94429 1.05270
 H347 H -0.03728 1.04745 0.94832
 H348 H -0.01038 1.07681 0.97643
 O349 O 0.48830 0.48908 0.42346
 O350 O 0.53163 0.50272 0.42239
 O351 O 0.48609 0.42916 0.48518
 O352 O 0.49625 0.42840 0.53172
 O353 O 0.42637 0.49084 0.48420
 O354 O 0.42634 0.53591 0.49612
 O355 O 0.55357 0.49914 0.55677
 O356 O 0.55690 0.45901 0.53865
 O357 O 0.56024 0.55538 0.49507
 O358 O 0.53822 0.56289 0.45297
 O359 O 0.49753 0.56195 0.55068
 O360 O 0.45554 0.53882 0.55787
 O361 O 0.51692 0.51939 0.57364
 O362 O 0.46967 0.50650 0.57509
 O363 O 0.51784 0.57887 0.51368
 O364 O 0.50498 0.57914 0.46598
 O365 O 0.57627 0.51847 0.51545
 O366 O 0.57486 0.47335 0.49613
 O367 O 0.45193 0.51011 0.44005
 O368 O 0.44566 0.55115 0.46308
 O369 O 0.44228 0.45387 0.50455
 O370 O 0.46471 0.44780 0.54612
 O371 O 0.50662 0.44578 0.44813
 O372 O 0.54988 0.46884 0.44541
 Zr373 Zr 0.51317 0.48601 0.45666
 O374 O 0.53827 0.51016 0.47950
 Zr375 Zr 0.48268 0.46197 0.51057
 O376 O 0.50707 0.48456 0.53552
 Zr377 Zr 0.45970 0.51585 0.48076
 O378 O 0.48259 0.54083 0.50499
 Zr379 Zr 0.54366 0.49245 0.51694
 O380 O 0.52055 0.46671 0.49321
 Zr381 Zr 0.52019 0.54653 0.48759
 O382 O 0.49625 0.52369 0.46194
 Zr383 Zr 0.49032 0.52199 0.54155
 O384 O 0.46432 0.49839 0.51862
 O385 O 0.47591 0.47884 0.47343
 O386 O 0.52754 0.52968 0.52481
 C387 C 0.46555 0.50000 0.42099
 C388 C 0.49663 0.42676 0.46201
 C389 C 0.42352 0.46780 0.49475
 C390 C 0.54019 0.50950 0.57581
 C391 C 0.57889 0.54181 0.50559
 C392 C 0.50782 0.58101 0.53708
 H393 H 0.55533 0.51240 0.46992
 H394 H 0.47299 0.55767 0.50733
 H395 H 0.46450 0.46763 0.46207
 H396 H 0.50954 0.47467 0.55236
 H397 H 0.55336 0.44329 0.52753
 H398 H 0.51390 0.42403 0.52436
 H399 H 0.48859 0.58497 0.47507
 H400 H 0.45964 0.55735 0.45055
 H401 H 0.59093 0.47402 0.50738
 H402 H 0.54742 0.45865 0.42875
 H403 H 0.44946 0.55269 0.54538
 H404 H 0.42386 0.52955 0.51466
 H405 H 0.52587 0.52140 0.42131
 H406 H 0.55169 0.55021 0.44662
 H407 H 0.45242 0.46176 0.55221
 H408 H 0.47811 0.48959 0.58015
 O409 O 0.44681 -0.05085 0.50061
 O410 O 0.46875 -0.05594 0.46071
 O411 O 0.51053 -0.05104 0.55824
 O412 O 0.54741 -0.02767 0.56540
 O413 O 0.44952 0.00846 0.56264
 O414 O 0.44084 0.04787 0.53881
 O415 O 0.57576 0.02374 0.48700
 O416 O 0.57981 -0.01801 0.50398
 O417 O 0.51532 0.01943 0.42868
 O418 O 0.46989 0.00389 0.42816
 O419 O 0.51376 0.07998 0.48606
 O420 O 0.50047 0.08231 0.53270
 O421 O 0.55688 0.05994 0.50609
 O422 O 0.53238 0.06618 0.54895
 O423 O 0.49461 0.06087 0.45000
 O424 O 0.45259 0.03452 0.44604
 O425 O 0.55360 0.00342 0.44606
 O426 O 0.55709 -0.04004 0.46871
 O427 O 0.42749 -0.01436 0.51874
 O428 O 0.42441 0.03131 0.50509
 O429 O 0.48743 -0.00828 0.58014
 O430 O 0.53270 0.00983 0.57883
 O431 O 0.49062 -0.07015 0.52255
 O432 O 0.50855 -0.06952 0.47627
 Zr433 Zr 0.48646 -0.03897 0.49478
 O434 O 0.50864 -0.01492 0.46836
 Zr435 Zr 0.51364 -0.01070 0.54760
 O436 O 0.53758 0.01388 0.52329
 Zr437 Zr 0.45842 0.01389 0.52200
 O438 O 0.48000 0.04014 0.49713
 Zr439 Zr 0.54452 -0.00405 0.48633
 O440 O 0.52348 -0.03033 0.51204
 Zr441 Zr 0.48915 0.02100 0.46127
 O442 O 0.46530 -0.00437 0.48514
 Zr443 Zr 0.51712 0.04880 0.51393
 O444 O 0.49395 0.02532 0.54062
 O445 O 0.47748 -0.02133 0.53105
 O446 O 0.52574 0.03160 0.47730
 C447 C 0.42669 -0.03805 0.50943
 C448 C 0.50101 -0.07108 0.54580
 C449 C 0.46360 0.00013 0.58210
 C450 C 0.57668 0.04753 0.49597
 C451 C 0.53938 0.01176 0.42671
 C452 C 0.50430 0.08080 0.46240
 H453 H 0.51178 -0.02490 0.45176
 H454 H 0.46947 0.05631 0.49417
 H455 H 0.46666 -0.03300 0.54280
 H456 H 0.55442 0.01752 0.53257
 H457 H 0.57514 -0.03473 0.51336
 H458 H 0.56294 -0.02191 0.55470
 H459 H 0.44727 0.05031 0.45632
 H460 H 0.42226 0.02334 0.48726
 H461 H 0.57452 -0.03683 0.45998
 H462 H 0.49943 -0.08674 0.47952
 H463 H 0.48269 0.08511 0.52506
 H464 H 0.45469 0.05648 0.54970
 H465 H 0.45710 -0.04227 0.45295
 H466 H 0.47874 -0.01307 0.42420
 H467 H 0.52235 0.02609 0.58215
 H468 H 0.54812 0.05593 0.55436
 O469 O -0.05938 0.44029 0.99359
 O470 O -0.03755 0.43544 0.95349
 O471 O 0.00390 0.44042 1.05126
 O472 O 0.04047 0.46372 1.05903
 O473 O -0.05694 0.50080 1.05499
 O474 O -0.06583 0.53942 1.03039
 O475 O 0.06999 0.51441 0.98103
 O476 O 0.07343 0.47240 0.99755
 O477 O 0.01022 0.51095 0.92170
 O478 O -0.03513 0.49518 0.92046
 O479 O 0.00855 0.57098 0.97884
 O480 O -0.00566 0.57368 1.02522
 O481 O 0.05094 0.55076 0.99966
 O482 O 0.02579 0.55731 1.04214
 O483 O -0.01069 0.55214 0.94270
 O484 O -0.05289 0.52571 0.93840
 O485 O 0.04832 0.49509 0.93961
 O486 O 0.05100 0.45107 0.96169
 O487 O -0.07866 0.47688 1.01158
 O488 O -0.08167 0.52236 0.99664
 O489 O -0.01941 0.48362 1.07288
 O490 O 0.02609 0.50115 1.07185
 O491 O -0.01543 0.42109 1.01536
 O492 O 0.00224 0.42167 0.96903
 Zr493 Zr -0.01974 0.45227 0.98758
 O494 O 0.00281 0.47621 0.96128
 Zr495 Zr 0.00703 0.48067 1.04059
 O496 O 0.03132 0.50500 1.01648
 Zr497 Zr -0.04786 0.50530 1.01431
 O498 O -0.02591 0.53145 0.98965
 Zr499 Zr 0.03853 0.48695 0.97961
 O500 O 0.01713 0.46086 1.00519
 Zr501 Zr -0.01644 0.51223 0.95392
 O502 O -0.04065 0.48694 0.97758
 Zr503 Zr 0.01104 0.53995 1.00689
 O504 O -0.01252 0.51668 1.03332
 O505 O -0.02898 0.47006 1.02375
 O506 O 0.01998 0.52266 0.97040
 C507 C -0.07946 0.45308 1.00255
 C508 C -0.00522 0.42029 1.03871
 C509 C -0.04303 0.49262 1.07463
 C510 C 0.07085 0.53818 0.99002
 C511 C 0.03446 0.50371 0.92012
 C512 C -0.00069 0.57192 0.95512
 H513 H 0.00614 0.46628 0.94467
 H514 H -0.03632 0.54768 0.98654
 H515 H -0.03982 0.45850 1.03559
 H516 H 0.04804 0.50853 1.02599
 H517 H 0.06848 0.45561 1.00666
 H518 H 0.05602 0.46854 1.04792
 H519 H -0.05822 0.54157 0.94854
 H520 H -0.08378 0.51385 0.97907
 H521 H 0.06851 0.45428 0.95313
 H522 H -0.00697 0.40450 0.97223
 H523 H -0.02310 0.57686 1.01699
 H524 H -0.05199 0.54854 1.04087
 H525 H -0.04905 0.44922 0.94570
 H526 H -0.02644 0.47805 0.91685
 H527 H 0.01578 0.51743 1.07516
 H528 H 0.04156 0.54718 1.04766
 O529 O 0.01352 0.42111 0.50990
 O530 O -0.00315 0.42125 0.46743
 O531 O 0.07607 0.47945 0.50708
 O532 O 0.08034 0.52225 0.49646
 O533 O 0.01917 0.48098 0.57196
 O534 O -0.02528 0.49462 0.57593
 O535 O 0.00479 0.55479 0.44490
 O536 O 0.04389 0.53382 0.43765
 O537 O -0.05498 0.49553 0.44354
 O538 O -0.06262 0.45416 0.46701
 O539 O -0.05358 0.55164 0.50570
 O540 O -0.02796 0.55662 0.54632
 O541 O -0.01160 0.57200 0.48349
 O542 O 0.00492 0.57178 0.53004
 O543 O -0.07368 0.51592 0.48698
 O544 O -0.07565 0.46816 0.50168
 O545 O -0.01882 0.51494 0.42413
 O546 O 0.02514 0.49356 0.42098
 O547 O -0.00377 0.43805 0.54826
 O548 O -0.04338 0.46260 0.55794
 O549 O 0.05573 0.49974 0.55267
 O550 O 0.06069 0.54196 0.52833
 O551 O 0.05634 0.44328 0.48868
 O552 O 0.03081 0.44319 0.44653
 Zr553 Zr 0.01629 0.45423 0.48465
 O554 O -0.00878 0.47819 0.46158
 Zr555 Zr 0.04490 0.50632 0.51279
 O556 O 0.02175 0.53241 0.49007
 Zr557 Zr -0.00847 0.47888 0.54080
 O558 O -0.03396 0.50444 0.51998
 Zr559 Zr 0.01010 0.51465 0.45423
 O560 O 0.03646 0.48979 0.47532
 Zr561 Zr -0.04327 0.48780 0.48295
 O562 O -0.01979 0.46097 0.50492
 Zr563 Zr -0.01395 0.53990 0.51035
 O564 O 0.01039 0.51572 0.53445
 O565 O 0.02680 0.47019 0.52130
 O566 O -0.02522 0.52402 0.47385
 C567 C 0.00453 0.41887 0.53377
 C568 C 0.07662 0.45599 0.49736
 C569 C 0.04285 0.49039 0.57276
 C570 C -0.00350 0.57401 0.45928
 C571 C -0.04266 0.50594 0.42360
 C572 C -0.07387 0.53949 0.49641
 H573 H -0.01280 0.46892 0.44477
 H574 H -0.04997 0.50761 0.53092
 H575 H 0.03823 0.45833 0.53192
 H576 H 0.03212 0.54878 0.48662
 H577 H 0.05907 0.52185 0.44062
 H578 H 0.07527 0.53301 0.48082
 H579 H -0.08039 0.47817 0.51789
 H580 H -0.05123 0.45082 0.54437
 H581 H 0.02361 0.50504 0.40496
 H582 H 0.04022 0.42606 0.44816
 H583 H -0.04206 0.54484 0.55351
 H584 H -0.01828 0.51291 0.57750
 H585 H -0.02129 0.42066 0.47505
 H586 H -0.05131 0.44722 0.45251
 H587 H 0.04911 0.54713 0.54340
 H588 H 0.02080 0.57688 0.51951
 O589 O 0.51298 0.92714 0.01700
 O590 O 0.49642 0.92711 -0.02555
 O591 O 0.57549 0.98568 0.01385
 O592 O 0.57946 1.02845 0.00262
 O593 O 0.51893 0.98723 0.07877
 O594 O 0.47429 1.00089 0.08282
 O595 O 0.50304 1.06056 -0.04842
 O596 O 0.54277 1.04005 -0.05549
 O597 O 0.44412 1.00119 -0.04947
 O598 O 0.43700 0.95949 -0.02589
 O599 O 0.44531 1.05709 0.01284
 O600 O 0.47155 1.06212 0.05350
 O601 O 0.48655 1.07771 -0.00984
 O602 O 0.50364 1.07817 0.03628
 O603 O 0.42546 1.02126 -0.00597
 O604 O 0.42373 0.97361 0.00866
 O605 O 0.48021 1.02065 -0.06898
 O606 O 0.52428 0.99958 -0.07223
 O607 O 0.49587 0.94416 0.05539
 O608 O 0.45643 0.96849 0.06528
 O609 O 0.55528 1.00620 0.05926
 O610 O 0.55992 1.04825 0.03488
 O611 O 0.55579 0.94936 -0.00428
 O612 O 0.53031 0.94912 -0.04648
 Zr613 Zr 0.51573 0.96019 -0.00839
 O614 O 0.49052 0.98398 -0.03150
 Zr615 Zr 0.54423 1.01254 0.01942
 O616 O 0.52079 1.03849 -0.00321
 Zr617 Zr 0.49108 0.98493 0.04777
 O618 O 0.46532 1.01018 0.02692
 Zr619 Zr 0.50915 1.02056 -0.03895
 O620 O 0.53570 0.99583 -0.01793
 Zr621 Zr 0.45603 0.99338 -0.01008
 O622 O 0.47971 0.96682 0.01199
 Zr623 Zr 0.48509 1.04574 0.01719
 O624 O 0.50975 1.02182 0.04121
 O625 O 0.52631 0.97635 0.02815
 O626 O 0.47384 1.02967 -0.01922
 C627 C 0.50407 0.92494 0.04090
 C628 C 0.57605 0.96214 0.00431
 C629 C 0.54256 0.99678 0.07942
 C630 C 0.49429 1.07968 -0.03417
 C631 C 0.45636 1.01168 -0.06943
 C632 C 0.42510 1.04478 0.00355
 H633 H 0.48652 0.97467 -0.04830
 H634 H 0.44933 1.01325 0.03791
 H635 H 0.53778 0.96456 0.03879
 H636 H 0.53094 1.05496 -0.00678
 H637 H 0.55802 1.02814 -0.05266
 H638 H 0.57417 1.03978 -0.01253
 H639 H 0.41911 0.98348 0.02499
 H640 H 0.44834 0.95690 0.05169
 H641 H 0.52272 1.01109 -0.08821
 H642 H 0.53978 0.93203 -0.04481
 H643 H 0.45707 1.05065 0.06042
 H644 H 0.48155 1.01907 0.08448
 H645 H 0.47827 0.92650 -0.01798
 H646 H 0.44809 0.95293 -0.04075
 H647 H 0.54812 1.05361 0.04971
 H648 H 0.51958 1.08313 0.02576
 O649 O 0.42149 0.51368 0.00999
 O650 O 0.42220 0.47119 -0.00652
 O651 O 0.47894 0.51267 0.07278
 O652 O 0.52177 0.50300 0.07719
 O653 O 0.48079 0.57656 0.01489
 O654 O 0.49514 0.58021 -0.02990
 O655 O 0.55580 0.45151 0.00147
 O656 O 0.53464 0.44455 0.04119
 O657 O 0.49707 0.44799 -0.05798
 O658 O 0.45592 0.47072 -0.06618
 O659 O 0.55309 0.51115 -0.05746
 O660 O 0.55716 0.55215 -0.03213
 O661 O 0.57302 0.49010 -0.01524
 O662 O 0.57221 0.53649 0.00099
 O663 O 0.51791 0.49127 -0.07740
 O664 O 0.47011 0.50517 -0.07977
 O665 O 0.51611 0.42961 -0.02137
 O666 O 0.49457 0.42684 0.02291
 O667 O 0.43838 0.55193 -0.00789
 O668 O 0.46338 0.56147 -0.04785
 O669 O 0.49910 0.55814 0.05188
 O670 O 0.54151 0.53503 0.05706
 O671 O 0.44318 0.49343 0.05313
 O672 O 0.44372 0.45124 0.02794
 Zr673 Zr 0.45475 0.48919 0.01293
 O674 O 0.47928 0.46641 -0.01193
 Zr675 Zr 0.50625 0.51853 0.04139
 O676 O 0.53288 0.49621 0.01840
 Zr677 Zr 0.47935 0.54520 -0.01259
 O678 O 0.50544 0.52466 -0.03796
 Zr679 Zr 0.51555 0.46007 0.00713
 O680 O 0.49010 0.48085 0.03334
 Zr681 Zr 0.48922 0.48735 -0.04688
 O682 O 0.46187 0.50900 -0.02357
 Zr683 Zr 0.54070 0.51608 -0.01773
 O684 O 0.51596 0.53985 0.00646
 O685 O 0.47032 0.52606 0.02308
 O686 O 0.52525 0.47929 -0.02861
 C687 C 0.41918 0.53728 0.00075
 C688 C 0.45553 0.50255 0.07341
 C689 C 0.48976 0.57778 0.03873
 C690 C 0.57505 0.46607 -0.00706
 C691 C 0.50728 0.42850 -0.04524
 C692 C 0.54140 0.50119 -0.07770
 H693 H 0.47014 0.44946 -0.01573
 H694 H 0.50877 0.53537 -0.05419
 H695 H 0.45821 0.53651 0.03445
 H696 H 0.54916 0.49323 0.02881
 H697 H 0.52251 0.44745 0.05647
 H698 H 0.53308 0.48787 0.07224
 H699 H 0.48015 0.52138 -0.08474
 H700 H 0.45195 0.54756 -0.05565
 H701 H 0.50621 0.41113 0.02167
 H702 H 0.42639 0.45264 0.03729
 H703 H 0.54570 0.55868 -0.04662
 H704 H 0.51327 0.58227 -0.02278
 H705 H 0.42162 0.47881 -0.02471
 H706 H 0.44872 0.45649 -0.05453
 H707 H 0.54672 0.54995 0.04520
 H708 H 0.57714 0.52632 0.01710
 O709 O -0.07596 0.00620 0.51501
 O710 O -0.07496 -0.03622 0.49812
 O711 O -0.01840 0.00532 0.57753
 O712 O 0.02445 -0.00469 0.58178
 O713 O -0.01667 0.06940 0.52006
 O714 O -0.00284 0.07342 0.47525
 O715 O 0.05872 -0.05532 0.50520
 O716 O 0.03785 -0.06256 0.54515
 O717 O -0.00015 -0.05845 0.44614
 O718 O -0.04157 -0.03607 0.43843
 O719 O 0.05529 0.00511 0.44695
 O720 O 0.05927 0.04587 0.47303
 O721 O 0.07557 -0.01654 0.48860
 O722 O 0.07496 0.02950 0.50549
 O723 O 0.02010 -0.01479 0.42705
 O724 O -0.02779 -0.00134 0.42510
 O725 O 0.01899 -0.07714 0.48254
 O726 O -0.00228 -0.08035 0.52698
 O727 O -0.05921 0.04468 0.49752
 O728 O -0.03451 0.05463 0.45741
 O729 O 0.00200 0.05091 0.55683
 O730 O 0.04422 0.02766 0.56192
 O731 O -0.05404 -0.01408 0.55780
 O732 O -0.05324 -0.05617 0.53254
 Zr733 Zr -0.04251 -0.01811 0.51762
 O734 O -0.01796 -0.04059 0.49251
 Zr735 Zr 0.00896 0.01126 0.54616
 O736 O 0.03563 -0.01077 0.52284
 Zr737 Zr -0.01826 0.03819 0.49246
 O738 O 0.00780 0.01799 0.46682
 Zr739 Zr 0.01845 -0.04691 0.51132
 O740 O -0.00702 -0.02644 0.53781
 Zr741 Zr -0.00832 -0.01931 0.45770
 O742 O -0.03566 0.00203 0.48127
 Zr743 Zr 0.04318 0.00942 0.48684
 O744 O 0.01845 0.03286 0.51134
 O745 O -0.02706 0.01877 0.52801
 O746 O 0.02784 -0.02733 0.47571
 C747 C -0.07835 0.02990 0.50604
 C748 C -0.04179 -0.00490 0.57811
 C749 C -0.00743 0.07059 0.54378
 C750 C 0.07780 -0.04065 0.49645
 C751 C 0.01017 -0.07802 0.45864
 C752 C 0.04348 -0.00465 0.42668
 H753 H -0.02702 -0.05756 0.48861
 H754 H 0.01099 0.02889 0.45069
 H755 H -0.03913 0.02916 0.53948
 H756 H 0.05199 -0.01380 0.53311
 H757 H 0.02578 -0.05988 0.56052
 H758 H 0.03606 -0.01953 0.57663
 H759 H -0.01798 0.01505 0.42031
 H760 H -0.04608 0.04080 0.44967
 H761 H 0.00943 -0.09599 0.52553
 H762 H -0.07060 -0.05494 0.54184
 H763 H 0.04798 0.05231 0.45837
 H764 H 0.01536 0.07551 0.48219
 H765 H -0.07572 -0.02838 0.48002
 H766 H -0.04858 -0.05047 0.44998
 H767 H 0.04960 0.04243 0.54996
 H768 H 0.07990 0.01923 0.52152
 O769 O 0.74109 0.17178 0.26508
 O770 O 0.78566 0.17453 0.25950
 O771 O 0.72532 0.23550 0.32203
 O772 O 0.72929 0.27914 0.32307
 O773 O 0.67553 0.22477 0.25196
 O774 O 0.68110 0.23689 0.20653
 O775 O 0.79616 0.31032 0.25985
 O776 O 0.79530 0.29164 0.30093
 O777 O 0.81613 0.24843 0.20635
 O778 O 0.79864 0.20344 0.19879
 O779 O 0.75250 0.29693 0.18793
 O780 O 0.70849 0.30205 0.20211
 O781 O 0.76215 0.32288 0.23303
 O782 O 0.71215 0.31817 0.23806
 O783 O 0.77727 0.26143 0.17592
 O784 O 0.76791 0.21335 0.17621
 O785 O 0.82482 0.27184 0.24393
 O786 O 0.81909 0.25249 0.28932
 O787 O 0.70740 0.18386 0.23761
 O788 O 0.70525 0.20580 0.19509
 O789 O 0.68414 0.24772 0.28983
 O790 O 0.70263 0.29332 0.29449
 O791 O 0.74963 0.19951 0.31037
 O792 O 0.79646 0.20048 0.29420
 Zr793 Zr 0.76224 0.20731 0.27081
 O794 O 0.78903 0.23161 0.24926
 Zr795 Zr 0.72442 0.25841 0.28696
 O796 O 0.75029 0.28485 0.26708
 Zr797 Zr 0.71232 0.22502 0.23169
 O798 O 0.73696 0.25068 0.20913
 Zr799 Zr 0.78895 0.26973 0.26568
 O800 O 0.76378 0.24484 0.28889
 Zr801 Zr 0.77614 0.23690 0.20996
 O802 O 0.75101 0.20986 0.23049
 Zr803 Zr 0.73916 0.28822 0.22698
 O804 O 0.71139 0.26355 0.24754
 O805 O 0.72322 0.22042 0.27130
 O806 O 0.77814 0.27498 0.22588
 C807 C 0.72077 0.16661 0.25068
 C808 C 0.73632 0.21326 0.32723
 C809 C 0.66855 0.23519 0.27419
 C810 C 0.78304 0.32771 0.24679
 C811 C 0.83157 0.26176 0.22149
 C812 C 0.76661 0.28392 0.17116
 H813 H 0.80693 0.22379 0.24996
 H814 H 0.73006 0.25176 0.19078
 H815 H 0.71136 0.20820 0.28136
 H816 H 0.74977 0.30201 0.27644
 H817 H 0.78962 0.28011 0.31597
 H818 H 0.74607 0.28923 0.32139
 H819 H 0.75195 0.22060 0.16754
 H820 H 0.72092 0.19464 0.19148
 H821 H 0.83405 0.26529 0.29035
 H822 H 0.79350 0.18443 0.30537
 H823 H 0.70231 0.28680 0.19150
 H824 H 0.67594 0.25488 0.21226
 H825 H 0.78426 0.17308 0.23991
 H826 H 0.81175 0.20004 0.21294
 H827 H 0.68968 0.29523 0.27989
 H828 H 0.71854 0.32612 0.25481
 O829 O 0.75907 0.70101 0.68707
 O830 O 0.79912 0.69776 0.70739
 O831 O 0.70334 0.68844 0.75292
 O832 O 0.69178 0.70807 0.79001
 O833 O 0.69201 0.75517 0.69637
 O834 O 0.71333 0.79619 0.69029
 O835 O 0.76605 0.76218 0.82308
 O836 O 0.75338 0.71929 0.82331
 O837 O 0.82478 0.76949 0.76197
 O838 O 0.82682 0.76008 0.71543
 O839 O 0.76096 0.82519 0.76506
 O840 O 0.71481 0.82378 0.75373
 O841 O 0.74412 0.79831 0.80738
 O842 O 0.70101 0.80321 0.78431
 O843 O 0.79866 0.81189 0.74414
 O844 O 0.80605 0.78953 0.70051
 O845 O 0.80898 0.74755 0.79855
 O846 O 0.78980 0.70258 0.79783
 O847 O 0.73759 0.73748 0.67149
 O848 O 0.74746 0.78381 0.67221
 O849 O 0.67648 0.73229 0.73244
 O850 O 0.67677 0.74489 0.77975
 O851 O 0.74032 0.67489 0.73083
 O852 O 0.78634 0.67865 0.74622
 Zr853 Zr 0.76415 0.70922 0.72775
 O854 O 0.78819 0.73308 0.75203
 Zr855 Zr 0.70920 0.72941 0.75799
 O856 O 0.73118 0.75329 0.78405
 Zr857 Zr 0.73222 0.76188 0.70497
 O858 O 0.75458 0.78776 0.72881
 Zr859 Zr 0.76951 0.73830 0.78909
 O860 O 0.74634 0.71233 0.76571
 Zr861 Zr 0.79205 0.77144 0.73612
 O862 O 0.77053 0.74667 0.70999
 Zr863 Zr 0.73714 0.79088 0.76679
 O864 O 0.71279 0.76774 0.74165
 O865 O 0.72633 0.72401 0.72065
 O866 O 0.77523 0.77662 0.77382
 C867 C 0.74915 0.71512 0.66830
 C868 C 0.71795 0.67055 0.74239
 C869 C 0.67338 0.74414 0.71004
 C870 C 0.75489 0.78477 0.82607
 C871 C 0.82758 0.75880 0.78503
 C872 C 0.78394 0.82957 0.75485
 H873 H 0.80554 0.72433 0.75401
 H874 H 0.75581 0.80509 0.71961
 H875 H 0.71554 0.71240 0.70907
 H876 H 0.72165 0.75415 0.80129
 H877 H 0.74551 0.70236 0.81723
 H878 H 0.70353 0.71056 0.80547
 H879 H 0.79393 0.80420 0.69605
 H880 H 0.76584 0.77769 0.66925
 H881 H 0.79821 0.70438 0.81553
 H882 H 0.78482 0.66223 0.73554
 H883 H 0.72171 0.82912 0.73600
 H884 H 0.70165 0.80255 0.70479
 H885 H 0.80551 0.71346 0.69727
 H886 H 0.83150 0.74207 0.72158
 H887 H 0.67178 0.76173 0.77098
 H888 H 0.69673 0.79092 0.79917
 O889 O 0.29923 0.18940 0.75038
 O890 O 0.30140 0.20319 0.70680
 O891 O 0.31115 0.26320 0.79390
 O892 O 0.29003 0.30090 0.80046
 O893 O 0.24842 0.20645 0.81604
 O894 O 0.20500 0.19866 0.79884
 O895 O 0.23508 0.32056 0.72255
 O896 O 0.27862 0.32324 0.73424
 O897 O 0.22621 0.25247 0.67529
 O898 O 0.23880 0.20638 0.67972
 O899 O 0.17323 0.26321 0.73928
 O900 O 0.17481 0.25954 0.78613
 O901 O 0.19936 0.30780 0.74766
 O902 O 0.19641 0.29136 0.79556
 O903 O 0.18653 0.23705 0.70501
 O904 O 0.21001 0.19357 0.70412
 O905 O 0.24774 0.29109 0.68444
 O906 O 0.29420 0.29328 0.70083
 O907 O 0.26320 0.17656 0.77504
 O908 O 0.21648 0.17521 0.76682
 O909 O 0.27067 0.24464 0.82525
 O910 O 0.25377 0.29082 0.81863
 O911 O 0.32460 0.23571 0.76070
 O912 O 0.31980 0.24373 0.71231
 Zr913 Zr 0.29004 0.22841 0.73839
 O914 O 0.26522 0.24822 0.71132
 Zr915 Zr 0.26997 0.26596 0.78895
 O916 O 0.24514 0.28784 0.76362
 Zr917 Zr 0.23841 0.20987 0.77565
 O918 O 0.21159 0.22937 0.75046
 Zr919 Zr 0.25950 0.28719 0.72430
 O920 O 0.28634 0.26826 0.75024
 Zr921 Zr 0.22719 0.23116 0.71156
 O922 O 0.25290 0.20920 0.73630
 Zr923 Zr 0.20786 0.26924 0.76173
 O924 O 0.23192 0.24859 0.78938
 O925 O 0.27595 0.22699 0.77739
 O926 O 0.22154 0.27052 0.72250
 C927 C 0.28573 0.17224 0.76394
 C928 C 0.32897 0.25054 0.78093
 C929 C 0.26088 0.22196 0.83183
 C930 C 0.21232 0.32465 0.73322
 C931 C 0.23540 0.27541 0.66875
 C932 C 0.16886 0.24974 0.71814
 H933 H 0.27338 0.24798 0.69336
 H934 H 0.19445 0.21980 0.75131
 H935 H 0.28833 0.21743 0.78920
 H936 H 0.24398 0.30621 0.77022
 H937 H 0.29583 0.31846 0.74224
 H938 H 0.28689 0.31417 0.78631
 H939 H 0.19546 0.19078 0.71716
 H940 H 0.22246 0.16932 0.74901
 H941 H 0.29154 0.30931 0.68968
 H942 H 0.33652 0.23392 0.71526
 H943 H 0.17177 0.24024 0.78455
 H944 H 0.20022 0.21425 0.80970
 H945 H 0.28562 0.19239 0.70232
 H946 H 0.25606 0.21296 0.67286
 H947 H 0.23816 0.28144 0.82626
 H948 H 0.20768 0.30745 0.79617
 O949 O 0.18657 0.75158 0.30149
 O950 O 0.19923 0.70831 0.30428
 O951 O 0.26142 0.79408 0.31368
 O952 O 0.29971 0.79963 0.29258
 O953 O 0.20653 0.81661 0.24995
 O954 O 0.19893 0.79906 0.20659
 O955 O 0.31834 0.72221 0.23801
 O956 O 0.32025 0.73348 0.28178
 O957 O 0.24911 0.67563 0.22865
 O958 O 0.20277 0.68080 0.24164
 O959 O 0.26237 0.73835 0.17533
 O960 O 0.25956 0.78542 0.17672
 O961 O 0.30688 0.74697 0.20181
 O962 O 0.29157 0.79420 0.19788
 O963 O 0.23479 0.70499 0.18883
 O964 O 0.19106 0.70487 0.21241
 O965 O 0.28768 0.68443 0.25018
 O966 O 0.28922 0.70054 0.29699
 O967 O 0.17511 0.77615 0.26514
 O968 O 0.17432 0.76784 0.21837
 O969 O 0.24464 0.82523 0.27234
 O970 O 0.29084 0.81778 0.25616
 O971 O 0.23286 0.76154 0.32733
 O972 O 0.23966 0.71322 0.32271
 Zr973 Zr 0.22551 0.73922 0.29265
 O974 O 0.24500 0.71177 0.26792
 Zr975 Zr 0.26477 0.78873 0.27231
 O976 O 0.28630 0.76306 0.24751
 Zr977 Zr 0.20890 0.77618 0.24043
 O978 O 0.22809 0.75054 0.21370
 Zr979 Zr 0.28441 0.72407 0.26218
 O980 O 0.26575 0.75033 0.28898
 Zr981 Zr 0.22860 0.71195 0.22965
 O982 O 0.20694 0.73715 0.25523
 Zr983 Zr 0.26833 0.76111 0.20994
 O984 O 0.24813 0.78911 0.23397
 O985 O 0.22536 0.77796 0.27825
 O986 O 0.26835 0.72221 0.22397
 C987 C 0.17002 0.76514 0.28771
 C988 C 0.24821 0.78145 0.33168
 C989 C 0.22246 0.83219 0.26217
 C990 C 0.32324 0.73280 0.21521
 C991 C 0.27185 0.66895 0.23772
 C992 C 0.24825 0.71756 0.17103
 H993 H 0.24418 0.69395 0.27620
 H994 H 0.21881 0.75134 0.19645
 H995 H 0.21591 0.79000 0.29053
 H996 H 0.30484 0.76943 0.24642
 H997 H 0.31527 0.74147 0.29906
 H998 H 0.31260 0.78529 0.28955
 H999 H 0.18876 0.71782 0.19775
 H1000 H 0.16795 0.75016 0.22430
 H1001 H 0.30502 0.68925 0.29438
 H1002 H 0.22974 0.71646 0.33951
 H1003 H 0.24044 0.78334 0.17307
 H1004 H 0.21500 0.80935 0.20158
 H1005 H 0.18900 0.70346 0.28826
 H1006 H 0.20934 0.67353 0.25868
 H1007 H 0.28222 0.82513 0.24010
 H1008 H 0.30697 0.79535 0.20991
 O1009 O 0.22073 0.73290 0.82154
 O1010 O 0.23055 0.77723 0.82456
 O1011 O 0.17397 0.72613 0.75084
 O1012 O 0.18094 0.73994 0.70495
 O1013 O 0.23848 0.67239 0.76218
 O1014 O 0.28488 0.67569 0.75900
 O1015 O 0.25244 0.80170 0.69218
 O1016 O 0.20959 0.80279 0.70217
 O1017 O 0.29450 0.81055 0.76385
 O1018 O 0.29539 0.78716 0.80616
 O1019 O 0.31548 0.75092 0.70897
 O1020 O 0.29754 0.70643 0.69903
 O1021 O 0.27721 0.76643 0.67912
 O1022 O 0.26794 0.71862 0.67591
 O1023 O 0.32384 0.77165 0.74815
 O1024 O 0.31673 0.75591 0.79520
 O1025 O 0.26123 0.82489 0.73713
 O1026 O 0.21233 0.81910 0.74650
 O1027 O 0.24698 0.69832 0.80943
 O1028 O 0.29219 0.69541 0.79410
 O1029 O 0.20526 0.68594 0.73495
 O1030 O 0.20491 0.70972 0.69343
 O1031 O 0.18182 0.74749 0.78983
 O1032 O 0.20016 0.79292 0.79533
 Zr1033 Zr 0.22227 0.75801 0.78813
 O1034 O 0.24876 0.78521 0.77013
 Zr1035 Zr 0.21105 0.72719 0.73108
 O1036 O 0.23637 0.75378 0.71062
 Zr1037 Zr 0.25998 0.70728 0.77023
 O1038 O 0.28759 0.73236 0.75074
 Zr1039 Zr 0.23828 0.79047 0.73010
 O1040 O 0.20990 0.76499 0.74872
 Zr1041 Zr 0.28729 0.76977 0.76880
 O1042 O 0.26147 0.74385 0.78992
 Zr1043 Zr 0.27538 0.73968 0.71146
 O1044 O 0.24965 0.71164 0.72984
 O1045 O 0.22119 0.72073 0.77059
 O1046 O 0.27726 0.77690 0.72921
 C1047 C 0.23243 0.71091 0.82623
 C1048 C 0.16655 0.73558 0.77336
 C1049 C 0.21827 0.66802 0.74741
 C1050 C 0.26693 0.78930 0.67526
 C1051 C 0.28205 0.82871 0.75122
 C1052 C 0.33083 0.76302 0.72517
 H1053 H 0.24789 0.80208 0.78002
 H1054 H 0.30531 0.72418 0.75132
 H1055 H 0.20906 0.70812 0.77979
 H1056 H 0.22977 0.75604 0.69225
 H1057 H 0.19242 0.79544 0.70838
 H1058 H 0.17292 0.75590 0.71290
 H1059 H 0.32590 0.74093 0.78659
 H1060 H 0.29514 0.70975 0.80713
 H1061 H 0.21508 0.83601 0.73668
 H1062 H 0.18720 0.78937 0.80990
 H1063 H 0.31034 0.70217 0.71323
 H1064 H 0.28305 0.67382 0.73949
 H1065 H 0.24890 0.77249 0.82942
 H1066 H 0.28097 0.79975 0.81012
 H1067 H 0.22062 0.69864 0.68973
 H1068 H 0.25186 0.72614 0.66770
 O1069 O 0.25601 0.20377 0.18994
 O1070 O 0.29644 0.19883 0.20896
 O1071 O 0.20188 0.19248 0.25752
 O1072 O 0.19168 0.21248 0.29486
 O1073 O 0.19131 0.25926 0.20114
 O1074 O 0.21321 0.30031 0.19564
 O1075 O 0.26910 0.26299 0.32610
 O1076 O 0.25508 0.22053 0.32626
 O1077 O 0.32598 0.26949 0.26350
 O1078 O 0.32638 0.26001 0.21664
 O1079 O 0.26453 0.32691 0.26895
 O1080 O 0.21883 0.32797 0.25971
 O1081 O 0.24782 0.30005 0.31170
 O1082 O 0.20386 0.30631 0.28920
 O1083 O 0.30099 0.31252 0.24661
 O1084 O 0.30637 0.29047 0.20274
 O1085 O 0.31080 0.24749 0.30030
 O1086 O 0.29011 0.20302 0.29948
 O1087 O 0.23564 0.24123 0.17523
 O1088 O 0.24667 0.28740 0.17632
 O1089 O 0.17599 0.23681 0.23757
 O1090 O 0.17799 0.24982 0.28515
 O1091 O 0.23756 0.17792 0.23395
 O1092 O 0.28417 0.17983 0.24798
 Zr1093 Zr 0.26255 0.21136 0.23048
 O1094 O 0.28817 0.23409 0.25420
 Zr1095 Zr 0.20919 0.23319 0.26248
 O1096 O 0.23284 0.25588 0.28814
 Zr1097 Zr 0.23175 0.26532 0.20913
 O1098 O 0.25564 0.29014 0.23258
 Zr1099 Zr 0.27077 0.23950 0.29182
 O1100 O 0.24592 0.21469 0.26894
 Zr1101 Zr 0.29273 0.27245 0.23852
 O1102 O 0.26963 0.24874 0.21283
 Zr1103 Zr 0.23953 0.29345 0.27114
 O1104 O 0.21360 0.27155 0.24640
 O1105 O 0.22510 0.22753 0.22466
 O1106 O 0.27728 0.27778 0.27679
 C1107 C 0.24621 0.21846 0.17157
 C1108 C 0.21546 0.17425 0.24625
 C1109 C 0.17275 0.24841 0.21504
 C1110 C 0.25871 0.28582 0.32983
 C1111 C 0.32922 0.25858 0.28638
 C1112 C 0.28728 0.33057 0.25797
 H1113 H 0.30529 0.22477 0.25558
 H1114 H 0.25718 0.30752 0.22353
 H1115 H 0.21370 0.21631 0.21328
 H1116 H 0.22383 0.25684 0.30566
 H1117 H 0.24635 0.20404 0.32018
 H1118 H 0.20427 0.21379 0.30979
 H1119 H 0.29456 0.30551 0.19871
 H1120 H 0.26471 0.28069 0.17261
 H1121 H 0.29920 0.20436 0.31689
 H1122 H 0.28167 0.16356 0.23724
 H1123 H 0.22375 0.33196 0.24101
 H1124 H 0.20170 0.30638 0.21041
 H1125 H 0.30325 0.21446 0.19902
 H1126 H 0.33099 0.24202 0.22291
 H1127 H 0.17283 0.26647 0.27610
 H1128 H 0.20006 0.29456 0.30462
 O1129 O 0.67250 0.76331 0.23665
 O1130 O 0.67500 0.75770 0.28169
 O1131 O 0.73432 0.82239 0.22035
 O1132 O 0.77793 0.82567 0.22413
 O1133 O 0.72638 0.75198 0.17095
 O1134 O 0.74013 0.70748 0.17669
 O1135 O 0.81035 0.76453 0.29193
 O1136 O 0.79023 0.80492 0.29057
 O1137 O 0.75096 0.70861 0.31200
 O1138 O 0.70601 0.69920 0.29536
 O1139 O 0.80007 0.69231 0.24794
 O1140 O 0.80516 0.70683 0.20362
 O1141 O 0.82426 0.73782 0.25821
 O1142 O 0.82036 0.74333 0.20780
 O1143 O 0.76464 0.67921 0.27312
 O1144 O 0.71651 0.67717 0.26418
 O1145 O 0.77297 0.74708 0.32056
 O1146 O 0.75149 0.79129 0.31504
 O1147 O 0.68592 0.73639 0.20287
 O1148 O 0.70926 0.69478 0.20143
 O1149 O 0.74802 0.79074 0.17913
 O1150 O 0.79342 0.79767 0.19756
 O1151 O 0.69849 0.80928 0.24504
 O1152 O 0.69947 0.79381 0.29215
 Zr1153 Zr 0.70754 0.77055 0.25797
 O1154 O 0.73228 0.75057 0.28500
 Zr1155 Zr 0.75855 0.78874 0.21962
 O1156 O 0.78541 0.77050 0.24572
 Zr1157 Zr 0.72714 0.73216 0.20798
 O1158 O 0.75333 0.71121 0.23275
 Zr1159 Zr 0.76980 0.76867 0.28460
 O1160 O 0.74442 0.79033 0.25920
 Zr1161 Zr 0.73901 0.71175 0.27212
 O1162 O 0.71150 0.73055 0.24687
 Zr1163 Zr 0.79026 0.73075 0.23468
 O1164 O 0.76513 0.74972 0.20673
 O1165 O 0.72114 0.77136 0.21875
 O1166 O 0.77646 0.72935 0.27382
 C1167 C 0.66810 0.74884 0.21616
 C1168 C 0.71173 0.82649 0.23137
 C1169 C 0.73598 0.77451 0.16371
 C1170 C 0.82824 0.75168 0.27928
 C1171 C 0.76408 0.72409 0.32727
 C1172 C 0.78730 0.67528 0.26227
 H1173 H 0.72434 0.75097 0.30306
 H1174 H 0.75506 0.69298 0.22589
 H1175 H 0.70874 0.78071 0.20680
 H1176 H 0.80229 0.78056 0.24519
 H1177 H 0.77809 0.81921 0.28497
 H1178 H 0.78775 0.82469 0.24106
 H1179 H 0.72421 0.66871 0.24820
 H1180 H 0.69761 0.69113 0.21699
 H1181 H 0.76418 0.79294 0.32995
 H1182 H 0.68291 0.80389 0.28920
 H1183 H 0.79044 0.69528 0.19776
 H1184 H 0.75793 0.71403 0.17132
 H1185 H 0.67420 0.73817 0.28018
 H1186 H 0.70216 0.71316 0.30855
 H1187 H 0.79595 0.78315 0.18464
 H1188 H 0.82788 0.76012 0.21456
 O1189 O 0.70659 0.31224 0.75161
 O1190 O 0.70088 0.29671 0.70841
 O1191 O 0.68992 0.24544 0.80150
 O1192 O 0.70477 0.20467 0.80795
 O1193 O 0.76238 0.29183 0.81407
 O1194 O 0.80333 0.29516 0.79078
 O1195 O 0.75317 0.17319 0.72658
 O1196 O 0.71090 0.17566 0.74325
 O1197 O 0.76415 0.23755 0.67460
 O1198 O 0.75921 0.28562 0.67802
 O1199 O 0.82130 0.22231 0.73540
 O1200 O 0.82335 0.22966 0.78240
 O1201 O 0.79130 0.18292 0.74864
 O1202 O 0.79928 0.20060 0.79493
 O1203 O 0.80884 0.24742 0.69993
 O1204 O 0.79275 0.29333 0.69698
 O1205 O 0.73852 0.20259 0.68797
 O1206 O 0.69478 0.20626 0.71022
 O1207 O 0.74508 0.32221 0.77302
 O1208 O 0.79072 0.31795 0.75866
 O1209 O 0.73646 0.25719 0.82772
 O1210 O 0.74378 0.20898 0.82228
 O1211 O 0.67751 0.27151 0.76664
 O1212 O 0.67709 0.25947 0.71947
 Zr1213 Zr 0.71073 0.27223 0.74127
 O1214 O 0.73051 0.24791 0.71378
 Zr1215 Zr 0.72947 0.23522 0.79272
 O1216 O 0.74925 0.20888 0.76704
 Zr1217 Zr 0.76663 0.28632 0.77270
 O1218 O 0.78868 0.26199 0.74686
 Zr1219 Zr 0.73228 0.20912 0.72895
 O1220 O 0.71016 0.23286 0.75567
 Zr1221 Zr 0.77017 0.25997 0.70951
 O1222 O 0.74952 0.28653 0.73464
 Zr1223 Zr 0.78814 0.22263 0.76082
 O1224 O 0.76916 0.24772 0.78863
 O1225 O 0.72774 0.27400 0.77894
 O1226 O 0.77166 0.22086 0.72287
 C1227 C 0.72224 0.32833 0.76359
 C1228 C 0.67298 0.25946 0.78874
 C1229 C 0.75030 0.27816 0.83212
 C1230 C 0.77604 0.16711 0.73582
 C1231 C 0.75098 0.21616 0.67012
 C1232 C 0.82564 0.23333 0.71274
 H1233 H 0.72086 0.24852 0.69672
 H1234 H 0.80693 0.26911 0.74548
 H1235 H 0.71799 0.28550 0.79150
 H1236 H 0.74874 0.19083 0.77478
 H1237 H 0.69503 0.18251 0.75257
 H1238 H 0.70589 0.18986 0.79521
 H1239 H 0.80709 0.29601 0.71003
 H1240 H 0.78359 0.32325 0.74112
 H1241 H 0.69419 0.18944 0.70012
 H1242 H 0.66248 0.27227 0.72222
 H1243 H 0.83019 0.24733 0.77704
 H1244 H 0.80821 0.27929 0.80128
 H1245 H 0.71703 0.30692 0.70351
 H1246 H 0.74089 0.28095 0.67286
 H1247 H 0.76161 0.21545 0.82731
 H1248 H 0.78651 0.18579 0.79726
 C1249 C 0.07093 1.00055 1.15209
 C1250 C 0.09715 0.99199 1.15290
 C1251 C 0.11020 0.99014 1.17717
 C1252 C 0.09712 0.99638 1.20119
 C1253 C 0.07065 1.00511 1.20008
 C1254 C 0.05761 1.00696 1.17567
 C1255 C 0.05808 1.00283 1.12685
 C1256 C 0.04818 1.00386 1.10518
 H1257 H 0.10769 0.98719 1.13470
 H1258 H 0.13087 0.98450 1.17707
 H1259 H 0.06016 1.01146 1.21772
 H1260 H 0.03733 1.01386 1.17513
 C1261 C 0.57380 0.50365 0.64889
 C1262 C 0.56185 0.51364 0.67191
 C1263 C 0.57428 0.51079 0.69656
 C1264 C 0.59868 0.49748 0.69855
 C1265 C 0.61044 0.48765 0.67509
 C1266 C 0.59800 0.49052 0.65055
 C1267 C 0.56156 0.50695 0.62340
 C1268 C 0.55172 0.50882 0.60172
 H1269 H 0.54321 0.52408 0.67073
 H1270 H 0.56511 0.51992 0.71368
 H1271 H 0.62972 0.47839 0.67559
 H1272 H 0.60752 0.48291 0.63279
 C1273 C 0.42921 0.00099 0.65545
 C1274 C 0.40173 0.00332 0.65702
 C1275 C 0.38918 0.00391 0.68176
 C1276 C 0.40388 0.00254 0.70552
 C1277 C 0.43163 -0.00028 0.70365
 C1278 C 0.44418 -0.00087 0.67873
 C1279 C 0.44179 0.00037 0.62979
 C1280 C 0.45181 0.00009 0.60802
 H1281 H 0.38996 0.00453 0.63909
 H1282 H 0.36777 0.00525 0.68240
 H1283 H 0.44378 -0.00262 0.72111
 H1284 H 0.46551 -0.00301 0.67761
 C1285 C -0.07590 0.49881 1.14834
 C1286 C -0.10190 0.50778 1.15047
 C1287 C -0.11388 0.50986 1.17541
 C1288 C -0.09994 0.50336 1.19877
 C1289 C -0.07367 0.49434 1.19634
 C1290 C -0.06170 0.49225 1.17125
 C1291 C -0.06412 0.49597 1.12248
 C1292 C -0.05456 0.49404 1.10061
 H1293 H -0.11310 0.51271 1.13280
 H1294 H -0.13441 0.51592 1.17643
 H1295 H -0.06252 0.48796 1.21347
 H1296 H -0.04158 0.48504 1.16968
 C1297 C -0.07937 0.50350 0.35149
 C1298 C -0.10472 0.51370 0.34723
 C1299 C -0.11642 0.51179 0.32210
 C1300 C -0.10284 0.49979 0.30080
 C1301 C -0.07759 0.48909 0.30553
 C1302 C -0.06597 0.49098 0.33063
 C1303 C -0.06705 0.50549 0.37722
 C1304 C -0.05617 0.50635 0.39853
 H1305 H -0.11537 0.52329 0.36327
 H1306 H -0.13581 0.52031 0.31935
 H1307 H -0.06677 0.47916 0.28984
 H1308 H -0.04646 0.48273 0.33376
 C1309 C 0.42061 1.01044 -0.14211
 C1310 C 0.39332 1.01323 -0.14559
 C1311 C 0.38221 1.01089 -0.17097
 C1312 C 0.39825 1.00578 -0.19361
 C1313 C 0.42582 1.00293 -0.18948
 C1314 C 0.43676 1.00526 -0.16412
 C1315 C 0.43222 1.01193 -0.11599
 C1316 C 0.44281 1.01238 -0.09450
 H1317 H 0.38057 1.01721 -0.12865
 H1318 H 0.36113 1.01386 -0.17241
 H1319 H 0.43924 0.99795 -0.20551
 H1320 H 0.45790 1.00267 -0.16165
 C1321 C 0.58024 0.50350 -0.14938
 C1322 C 0.56951 0.51891 -0.16984
 C1323 C 0.58137 0.51930 -0.19508
 C1324 C 0.60418 0.50424 -0.20025
 C1325 C 0.61525 0.48933 -0.17941
 C1326 C 0.60330 0.48892 -0.15414
 C1327 C 0.56708 0.50229 -0.12380
 C1328 C 0.55553 0.50156 -0.10266
 H1329 H 0.55174 0.53037 -0.16639
 H1330 H 0.57257 0.53124 -0.21062
 H1331 H 0.63257 0.47725 -0.18285
 H1332 H 0.61178 0.47690 -0.13846
 C1333 C 0.08040 -0.00041 0.35421
 C1334 C 0.10617 -0.00964 0.34989
 C1335 C 0.11743 -0.00858 0.32433
 C1336 C 0.10295 0.00148 0.30269
 C1337 C 0.07736 0.01146 0.30753
 C1338 C 0.06619 0.01043 0.33303
 C1339 C 0.06818 -0.00230 0.38017
 C1340 C 0.05720 -0.00361 0.40156
 H1341 H 0.11742 -0.01794 0.36619
 H1342 H 0.13717 -0.01625 0.32155
 H1343 H 0.06587 0.02010 0.29161
 H1344 H 0.04634 0.01789 0.33618
 C1345 C 0.15156 1.06852 1.00607
 C1346 C 0.15307 1.09390 0.99501
 C1347 C 0.17746 1.10676 0.99270
 C1348 C 0.20091 1.09434 1.00111
 C1349 C 0.19914 1.06867 1.01226
 C1350 C 0.17458 1.05581 1.01455
 C1351 C 0.12619 1.05580 1.00854
 C1352 C 0.10455 1.04576 1.00963
 H1353 H 0.13531 1.10394 0.98849
 H1354 H 0.17794 1.12681 0.98490
 H1355 H 0.21631 1.05871 1.02005
 H1356 H 0.17349 1.03616 1.02330
 C1357 C 0.65277 0.57393 0.50024
 C1358 C 0.65543 0.59891 0.48843
 C1359 C 0.68040 0.61059 0.48576
 C1360 C 0.70328 0.59734 0.49450
 C1361 C 0.70033 0.57209 0.50635
 C1362 C 0.67522 0.56042 0.50901
 C1363 C 0.62686 0.56243 0.50333
 C1364 C 0.60493 0.55310 0.50505
 H1365 H 0.63814 0.60958 0.48171
 H1366 H 0.68174 0.63044 0.47754
 H1367 H 0.71705 0.56163 0.51451
 H1368 H 0.67327 0.54110 0.51836
 C1369 C 0.64784 0.43273 -0.00206
 C1370 C 0.67112 0.44482 -0.01145
 C1371 C 0.69539 0.43173 -0.00926
 C1372 C 0.69679 0.40639 0.00291
 C1373 C 0.67278 0.39462 0.01199
 C1374 C 0.64877 0.40775 0.00978
 C1375 C 0.62263 0.44531 -0.00493
 C1376 C 0.60098 0.45496 -0.00648
 H1377 H 0.67044 0.46410 -0.02103
 H1378 H 0.71261 0.44120 -0.01809
 H1379 H 0.67238 0.37467 0.02006
 H1380 H 0.63076 0.39807 0.01679
 C1381 C 0.15163 -0.07241 0.49751
 C1382 C 0.17425 -0.05752 0.49076
 C1383 C 0.19937 -0.06908 0.49194
 C1384 C 0.20210 -0.09568 0.50011
 C1385 C 0.17904 -0.11030 0.50673
 C1386 C 0.15411 -0.09876 0.50553
 C1387 C 0.12574 -0.06089 0.49641
 C1388 C 0.10381 -0.05170 0.49607
 H1389 H 0.17244 -0.03707 0.48440
 H1390 H 0.21627 -0.05720 0.48596
 H1391 H 0.18037 -0.13094 0.51258
 H1392 H 0.13674 -0.11047 0.51072
 C1393 C 0.35420 -0.07407 0.50318
 C1394 C 0.33534 -0.06276 0.48630
 C1395 C 0.31031 -0.07454 0.48360
 C1396 C 0.30379 -0.09787 0.49773
 C1397 C 0.32299 -0.10926 0.51439
 C1398 C 0.34799 -0.09744 0.51709
 C1399 C 0.37985 -0.06165 0.50618
 C1400 C 0.40126 -0.05101 0.50817
 H1401 H 0.33993 -0.04475 0.47533
 H1402 H 0.29605 -0.06540 0.47048
 H1403 H 0.31850 -0.12688 0.52600
 H1404 H 0.36237 -0.10637 0.53023
 C1405 C -0.15277 0.41822 0.99936
 C1406 C -0.17357 0.43351 0.98962
 C1407 C -0.19923 0.42300 0.98843
 C1408 C -0.20482 0.39680 0.99702
 C1409 C -0.18338 0.38141 1.00628
 C1410 C -0.15770 0.39209 1.00748
 C1411 C -0.12652 0.42965 1.00107
 C1412 C -0.10487 0.43998 1.00210
 H1413 H -0.16999 0.45369 0.98297
 H1414 H -0.21449 0.43549 0.98019
 H1415 H -0.18621 0.36155 1.01392
 H1416 H -0.14175 0.38005 1.01515
 C1417 C -0.14526 0.57704 0.49945
 C1418 C -0.14975 0.60063 0.48542
 C1419 C -0.17476 0.61246 0.48616
 C1420 C -0.19561 0.60078 0.50091
 C1421 C -0.19077 0.57734 0.51532
 C1422 C -0.16577 0.56558 0.51458
 C1423 C -0.11984 0.56425 0.49803
 C1424 C -0.09877 0.55311 0.49707
 H1425 H -0.13404 0.60966 0.47360
 H1426 H -0.17794 0.63025 0.47451
 H1427 H -0.20634 0.56804 0.52709
 H1428 H -0.16252 0.54739 0.52561
 C1429 C 0.35301 1.08077 0.00671
 C1430 C 0.34751 1.10360 -0.00817
 C1431 C 0.32205 1.11441 -0.00770
 C1432 C 0.30177 1.10243 0.00761
 C1433 C 0.30765 1.07982 0.02291
 C1434 C 0.33309 1.06908 0.02244
 C1435 C 0.37878 1.06876 0.00532
 C1436 C 0.40008 1.05810 0.00433
 H1437 H 0.36276 1.11276 -0.02050
 H1438 H 0.31805 1.13157 -0.02002
 H1439 H 0.29252 1.07034 0.03512
 H1440 H 0.33714 1.05145 0.03409
 C1441 C 0.00132 1.14584 1.07219
 C1442 C -0.00784 1.14755 1.09842
 C1443 C -0.00999 1.17218 1.11061
 C1444 C -0.00344 1.19567 1.09665
 C1445 C 0.00585 1.19365 1.07018
 C1446 C 0.00799 1.16889 1.05801
 C1447 C 0.00409 1.12027 1.06016
 C1448 C 0.00577 1.09859 1.05051
 H1449 H -0.01285 1.12979 1.10964
 H1450 H -0.01606 1.17280 1.13132
 H1451 H 0.01244 1.21087 1.05905
 H1452 H 0.01537 1.16768 1.03774
 C1453 C 0.50013 0.65384 0.57022
 C1454 C 0.48796 0.65498 0.59523
 C1455 C 0.48494 0.67924 0.60793
 C1456 C 0.49357 0.70299 0.59563
 C1457 C 0.50568 0.70156 0.57027
 C1458 C 0.50871 0.67715 0.55758
 C1459 C 0.50416 0.62852 0.55803
 C1460 C 0.50663 0.60691 0.54839
 H1461 H 0.48147 0.63699 0.60528
 H1462 H 0.47687 0.67922 0.62796
 H1463 H 0.51392 0.71900 0.56066
 H1464 H 0.51839 0.67640 0.53828
 C1465 C 0.00160 0.64759 0.42655
 C1466 C -0.00611 0.67014 0.44060
 C1467 C -0.00469 0.69507 0.42838
 C1468 C 0.00491 0.69778 0.40207
 C1469 C 0.01261 0.67476 0.38829
 C1470 C 0.01121 0.64997 0.40053
 C1471 C -0.00096 0.62179 0.43835
 C1472 C -0.00261 0.59994 0.44785
 H1473 H -0.01388 0.66837 0.46071
 H1474 H -0.01215 0.71195 0.43920
 H1475 H 0.01874 0.67571 0.36761
 H1476 H 0.01694 0.63256 0.38941
 C1477 C 0.49472 1.15248 -0.06896
 C1478 C 0.49873 1.15388 -0.09643
 C1479 C 0.49993 1.17840 -0.10916
 C1480 C 0.49731 1.20209 -0.09466
 C1481 C 0.49308 1.20045 -0.06692
 C1482 C 0.49190 1.17573 -0.05417
 C1483 C 0.49388 1.12703 -0.05620
 C1484 C 0.49371 1.10540 -0.04609
 H1485 H 0.50089 1.13598 -0.10805
 H1486 H 0.50277 1.17893 -0.13057
 H1487 H 0.49031 1.21788 -0.05492
 H1488 H 0.48869 1.17474 -0.03283
 C1489 C 0.50365 0.35540 -0.07931
 C1490 C 0.49087 0.33536 -0.06467
 C1491 C 0.48834 0.30990 -0.07520
 C1492 C 0.49870 0.30399 -0.10060
 C1493 C 0.51098 0.32451 -0.11541
 C1494 C 0.51351 0.34998 -0.10479
 C1495 C 0.50618 0.38153 -0.06815
 C1496 C 0.50740 0.40316 -0.05809
 H1497 H 0.48284 0.33939 -0.04504
 H1498 H 0.47811 0.29494 -0.06344
 H1499 H 0.51916 0.32098 -0.13498
 H1500 H 0.52327 0.36539 -0.11641
 C1501 C 0.00700 -0.15038 0.42297
 C1502 C -0.00203 -0.17179 0.43843
 C1503 C -0.00486 -0.19687 0.42710
 C1504 C 0.00140 -0.20102 0.40006
 C1505 C 0.01004 -0.17922 0.38458
 C1506 C 0.01288 -0.15411 0.39598
 C1507 C 0.00943 -0.12455 0.43484
 C1508 C 0.01051 -0.10315 0.44539
 H1509 H -0.00698 -0.16909 0.45927
 H1510 H -0.01218 -0.21293 0.43955
 H1511 H 0.01517 -0.18147 0.36378
 H1512 H 0.01972 -0.13765 0.38376
 C1513 C 0.50280 -0.14430 0.58093
 C1514 C 0.49286 -0.14883 0.60667
 C1515 C 0.49237 -0.17452 0.61739
 C1516 C 0.50163 -0.19612 0.60242
 C1517 C 0.51218 -0.19116 0.57679
 C1518 C 0.51268 -0.16551 0.56615
 C1519 C 0.50230 -0.11811 0.56927
 C1520 C 0.50176 -0.09648 0.55888
 H1521 H 0.48517 -0.13257 0.61833
 H1522 H 0.48416 -0.17740 0.63712
 H1523 H 0.52014 -0.20709 0.56490
 H1524 H 0.52059 -0.16225 0.54627
 C1525 C -0.00068 0.34790 1.07511
 C1526 C 0.00929 0.32645 1.06077
 C1527 C 0.01039 0.30132 1.07252
 C1528 C 0.00134 0.29711 1.09886
 C1529 C -0.00793 0.31904 1.11334
 C1530 C -0.00904 0.34418 1.10151
 C1531 C -0.00249 0.37359 1.06259
 C1532 C -0.00390 0.39495 1.05180
 H1533 H 0.01610 0.32912 1.04041
 H1534 H 0.01844 0.28523 1.06091
 H1535 H -0.01489 0.31688 1.13361
 H1536 H -0.01666 0.36068 1.11288
 C1537 C 0.76803 0.31906 0.09779
 C1538 C 0.75570 0.34363 0.09808
 C1539 C 0.74979 0.35655 0.07438
 C1540 C 0.75594 0.34525 0.04938
 C1541 C 0.77024 0.32131 0.04921
 C1542 C 0.77584 0.30805 0.07333
 C1543 C 0.77022 0.30508 0.12288
 C1544 C 0.76964 0.29499 0.14479
 H1545 H 0.74995 0.35263 0.11679
 H1546 H 0.74064 0.37578 0.07602
 H1547 H 0.77553 0.31190 0.03063
 H1548 H 0.78548 0.28896 0.07283
 C1549 C 0.27320 0.82419 0.60207
 C1550 C 0.27495 0.80919 0.57867
 C1551 C 0.27082 0.82125 0.55381
 C1552 C 0.26451 0.84824 0.55234
 C1553 C 0.26432 0.86337 0.57576
 C1554 C 0.26862 0.85142 0.60044
 C1555 C 0.27292 0.81155 0.62786
 C1556 C 0.27097 0.80143 0.64961
 H1557 H 0.27834 0.78804 0.57973
 H1558 H 0.27099 0.80927 0.53598
 H1559 H 0.25982 0.88432 0.57503
 H1560 H 0.26717 0.86322 0.61835
 C1561 C 0.75534 0.68921 0.59175
 C1562 C 0.77723 0.67468 0.58281
 C1563 C 0.77704 0.66328 0.55742
 C1564 C 0.75483 0.66617 0.54101
 C1565 C 0.73378 0.68223 0.54947
 C1566 C 0.73404 0.69367 0.57468
 C1567 C 0.75364 0.69808 0.61889
 C1568 C 0.75152 0.70553 0.64157
 H1569 H 0.79385 0.67117 0.59587
 H1570 H 0.79329 0.65067 0.55144
 H1571 H 0.71644 0.68465 0.53710
 H1572 H 0.71708 0.70498 0.58131
 C1573 C 0.25036 0.19174 0.09526
 C1574 C 0.22811 0.19395 0.07900
 C1575 C 0.22771 0.18155 0.05427
 C1576 C 0.24957 0.16674 0.04553
 C1577 C 0.27259 0.16615 0.06105
 C1578 C 0.27292 0.17853 0.08594
 C1579 C 0.24909 0.20128 0.12215
 C1580 C 0.24759 0.20897 0.14477
 H1581 H 0.21061 0.20422 0.08596
 H1582 H 0.20978 0.18228 0.04255
 H1583 H 0.28951 0.15458 0.05484
 H1584 H 0.29027 0.17675 0.09840
 C1585 C 0.26750 0.18730 0.90462
 C1586 C 0.26479 0.15974 0.90342
 C1587 C 0.26146 0.14494 0.92670
 C1588 C 0.26087 0.15749 0.95158
 C1589 C 0.26522 0.18496 0.95292
 C1590 C 0.26831 0.19990 0.92943
 C1591 C 0.26672 0.20213 0.88008
 C1592 C 0.26464 0.21239 0.85846
 H1593 H 0.26413 0.14978 0.88437
 H1594 H 0.25840 0.12373 0.92526
 H1595 H 0.26468 0.19497 0.97194
 H1596 H 0.27028 0.22124 0.93056
 C1597 C 0.77299 0.68913 0.39972
 C1598 C 0.77094 0.66151 0.39847
 C1599 C 0.76744 0.64661 0.42169
 C1600 C 0.76606 0.65912 0.44656
 C1601 C 0.76986 0.68665 0.44801
 C1602 C 0.77309 0.70169 0.42458
 C1603 C 0.77174 0.70402 0.37521
 C1604 C 0.76901 0.71438 0.35369
 H1605 H 0.77074 0.65157 0.37940
 H1606 H 0.76467 0.62537 0.42019
 H1607 H 0.76866 0.69662 0.46702
 H1608 H 0.77448 0.72307 0.42578
 C1609 C 0.25543 0.80778 0.40820
 C1610 C 0.27724 0.82328 0.41592
 C1611 C 0.27705 0.83618 0.44061
 C1612 C 0.25491 0.83385 0.45756
 C1613 C 0.23398 0.81682 0.45044
 C1614 C 0.23426 0.80388 0.42594
 C1615 C 0.25340 0.79793 0.38134
 C1616 C 0.25098 0.79027 0.35873
 H1617 H 0.29373 0.82648 0.40233
 H1618 H 0.29317 0.84952 0.44551
 H1619 H 0.21666 0.81486 0.46318
 H1620 H 0.21730 0.79195 0.42026
 C1621 C 0.75049 0.31074 0.90644
 C1622 C 0.76580 0.30393 0.92871
 C1623 C 0.76329 0.31824 0.95268
 C1624 C 0.74513 0.33937 0.95478
 C1625 C 0.73055 0.34603 0.93165
 C1626 C 0.73311 0.33190 0.90814
 C1627 C 0.75213 0.29710 0.88123
 C1628 C 0.75172 0.28770 0.85911
 H1629 H 0.77955 0.28759 0.92760
 H1630 H 0.77497 0.31207 0.96956
 H1631 H 0.71766 0.36299 0.93078
 H1632 H 0.72156 0.33781 0.89100
 C1633 C 0.80844 0.40452 0.25232
 C1634 C 0.80438 0.42180 0.23091
 C1635 C 0.81630 0.44682 0.23067
 C1636 C 0.83247 0.45492 0.25187
 C1637 C 0.83501 0.43829 0.27419
 C1638 C 0.82312 0.41308 0.27435
 C1639 C 0.79923 0.37748 0.25055
 C1640 C 0.79187 0.35477 0.24858
 H1641 H 0.79302 0.41548 0.21382
 H1642 H 0.81415 0.45934 0.21323
 H1643 H 0.84769 0.44400 0.29053
 H1644 H 0.82638 0.39986 0.29106
 C1645 C 0.31495 0.90211 0.76080
 C1646 C 0.30092 0.92603 0.76036
 C1647 C 0.31463 0.95030 0.76152
 C1648 C 0.34240 0.95068 0.76298
 C1649 C 0.35612 0.92664 0.76480
 C1650 C 0.34249 0.90254 0.76379
 C1651 C 0.30177 0.87699 0.75690
 C1652 C 0.29216 0.85526 0.75378
 H1653 H 0.27959 0.92594 0.75810
 H1654 H 0.30380 0.96865 0.75957
 H1655 H 0.37758 0.92657 0.76559
 H1656 H 0.35356 0.88423 0.76425
 C1657 C 0.19617 0.90825 0.26438
 C1658 C 0.19891 0.92307 0.24088
 C1659 C 0.18466 0.94644 0.23756
 C1660 C 0.16756 0.95535 0.25775
 C1661 C 0.16607 0.94132 0.28193
 C1662 C 0.18026 0.91776 0.28520
 C1663 C 0.20679 0.88186 0.26538
 C1664 C 0.21454 0.85932 0.26463
 H1665 H 0.21096 0.91584 0.22456
 H1666 H 0.18594 0.95691 0.21869
 H1667 H 0.15255 0.94746 0.29746
 H1668 H 0.17772 0.90628 0.30335
 C1669 C 0.68851 0.40125 0.76802
 C1670 C 0.70158 0.42586 0.76900
 C1671 C 0.68731 0.44938 0.76516
 C1672 C 0.66002 0.44831 0.75989
 C1673 C 0.64695 0.42365 0.76026
 C1674 C 0.66107 0.40035 0.76432
 C1675 C 0.70284 0.37660 0.76820
 C1676 C 0.71282 0.35496 0.76682
 H1677 H 0.72283 0.42682 0.77174
 H1678 H 0.69777 0.46819 0.76484
 H1679 H 0.62586 0.42235 0.75652
 H1680 H 0.65070 0.38150 0.76352
 C1681 C 0.69294 0.59357 0.74813
 C1682 C 0.67878 0.58444 0.77055
 C1683 C 0.66728 0.55907 0.77062
 C1684 C 0.66970 0.54281 0.74816
 C1685 C 0.68545 0.55146 0.72654
 C1686 C 0.69698 0.57668 0.72654
 C1687 C 0.70176 0.62075 0.74628
 C1688 C 0.70896 0.64354 0.74429
 H1689 H 0.67558 0.59735 0.78742
 H1690 H 0.65491 0.55297 0.78731
 H1691 H 0.68751 0.53925 0.70898
 H1692 H 0.70799 0.58343 0.70915
 C1693 C 0.18806 0.09819 0.25113
 C1694 C 0.19053 0.08211 0.22870
 C1695 C 0.17870 0.05709 0.22848
 C1696 C 0.16422 0.04780 0.25071
 C1697 C 0.16320 0.06326 0.27382
 C1698 C 0.17500 0.08849 0.27398
 C1699 C 0.19761 0.12509 0.24981
 C1700 C 0.20555 0.14762 0.24806
 H1701 H 0.20071 0.08933 0.21099
 H1702 H 0.17980 0.04541 0.21048
 H1703 H 0.15190 0.05657 0.29104
 H1704 H 0.17305 0.10079 0.29148
 C1705 C 0.31263 0.09631 0.76702
 C1706 C 0.30694 0.08073 0.74480
 C1707 C 0.31819 0.05570 0.74221
 C1708 C 0.33523 0.04586 0.76188
 C1709 C 0.33954 0.06080 0.78498
 C1710 C 0.32834 0.08602 0.78750
 C1711 C 0.30379 0.12338 0.76748
 C1712 C 0.29606 0.14592 0.76640
 H1713 H 0.29478 0.08843 0.72886
 H1714 H 0.31482 0.04458 0.72414
 H1715 H 0.35309 0.05389 0.80007
 H1716 H 0.33291 0.09792 0.80477
 C1717 C 0.81516 0.59981 0.26584
 C1718 C 0.80519 0.58274 0.24638
 C1719 C 0.81594 0.55754 0.24320
 C1720 C 0.83661 0.54904 0.25962
 C1721 C 0.84571 0.56566 0.27998
 C1722 C 0.83500 0.59100 0.28309
 C1723 C 0.80631 0.62686 0.26635
 C1724 C 0.79827 0.64928 0.26518
 H1725 H 0.78993 0.58937 0.23285
 H1726 H 0.80913 0.54518 0.22702
 H1727 H 0.86230 0.55982 0.29217
 H1728 H 0.84301 0.60411 0.29807
 C1729 C 0.90752 0.26325 0.19363
 C1730 C 0.92171 0.23981 0.19737
 C1731 C 0.94514 0.23552 0.18315
 C1732 C 0.95477 0.25470 0.16510
 C1733 C 0.94130 0.27881 0.16248
 C1734 C 0.91767 0.28303 0.17663
 C1735 C 0.88112 0.26510 0.20455
 C1736 C 0.85859 0.26464 0.21276
 H1737 H 0.91396 0.22426 0.21026
 H1738 H 0.95515 0.21672 0.18531
 H1739 H 0.94796 0.29353 0.14818
 H1740 H 0.90668 0.30109 0.17329
 C1741 C 0.40682 0.76637 0.69737
 C1742 C 0.41662 0.78703 0.68121
 C1743 C 0.44002 0.78362 0.66641
 C1744 C 0.45356 0.75944 0.66750
 C1745 C 0.44436 0.73939 0.68481
 C1746 C 0.42119 0.74287 0.69969
 C1747 C 0.38048 0.76742 0.70863
 C1748 C 0.35796 0.76636 0.71686
 H1749 H 0.40550 0.80517 0.67898
 H1750 H 0.44642 0.79907 0.65277
 H1751 H 0.45444 0.72053 0.68579
 H1752 H 0.41373 0.72665 0.71190
 C1753 C 0.40480 0.25643 0.80800
 C1754 C 0.42099 0.23418 0.80588
 C1755 C 0.44504 0.23333 0.81936
 C1756 C 0.45321 0.25476 0.83514
 C1757 C 0.43786 0.27783 0.83572
 C1758 C 0.41360 0.27859 0.82229
 C1759 C 0.37825 0.25516 0.79775
 C1760 C 0.35581 0.25315 0.78986
 H1761 H 0.41443 0.21694 0.79490
 H1762 H 0.45663 0.21536 0.81867
 H1763 H 0.44369 0.29440 0.84803
 H1764 H 0.40116 0.29590 0.82411
 C1765 C 0.90069 0.75371 0.31462
 C1766 C 0.92273 0.76892 0.30660
 C1767 C 0.94643 0.76782 0.32115
 C1768 C 0.94846 0.75112 0.34372
 C1769 C 0.92554 0.73686 0.35189
 C1770 C 0.90215 0.73808 0.33749
 C1771 C 0.87610 0.75384 0.30019
 C1772 C 0.85460 0.75291 0.28984
 H1773 H 0.92172 0.78132 0.28897
 H1774 H 0.96330 0.77904 0.31378
 H1775 H 0.92511 0.72503 0.36990
 H1776 H 0.88507 0.72672 0.34429
 C1777 C 0.09319 0.76810 0.31306
 C1778 C 0.07569 0.75012 0.30117
 C1779 C 0.05028 0.74625 0.31177
 C1780 C 0.04204 0.76051 0.33421
 C1781 C 0.05908 0.77965 0.34509
 C1782 C 0.08457 0.78346 0.33453
 C1783 C 0.12060 0.76857 0.30486
 C1784 C 0.14341 0.76757 0.29762
 H1785 H 0.08221 0.73801 0.28465
 H1786 H 0.03769 0.73087 0.30363
 H1787 H 0.05359 0.78996 0.36311
 H1788 H 0.09801 0.79723 0.34405
 C1789 C 0.59726 0.26234 0.81697
 C1790 C 0.58053 0.24135 0.80990
 C1791 C 0.55528 0.23917 0.82120
 C1792 C 0.54644 0.25808 0.83955
 C1793 C 0.56275 0.27980 0.84563
 C1794 C 0.58813 0.28193 0.83435
 C1795 C 0.62426 0.26249 0.80766
 C1796 C 0.64673 0.26148 0.79952
 H1797 H 0.58741 0.22606 0.79651
 H1798 H 0.54309 0.22204 0.81668
 H1799 H 0.55667 0.29403 0.86044
 H1800 H 0.60101 0.29816 0.84007
 C1801 C 0.59729 0.75006 0.68400
 C1802 C 0.58825 0.77290 0.67095
 C1803 C 0.56264 0.77345 0.66029
 C1804 C 0.54612 0.75106 0.66249
 C1805 C 0.55481 0.72890 0.67701
 C1806 C 0.58023 0.72842 0.68769
 C1807 C 0.62434 0.74809 0.69264
 C1808 C 0.64688 0.74600 0.70012
 H1809 H 0.60130 0.78983 0.66812
 H1810 H 0.55643 0.79057 0.64889
 H1811 H 0.54234 0.71142 0.67892
 H1812 H 0.58692 0.71075 0.69792
 C1813 C 0.09733 0.25066 0.18645
 C1814 C 0.08748 0.27281 0.17280
 C1815 C 0.06255 0.27158 0.16069
 C1816 C 0.04753 0.24810 0.16196
 C1817 C 0.05696 0.22656 0.17694
 C1818 C 0.08169 0.22784 0.18909
 C1819 C 0.12399 0.25045 0.19647
 C1820 C 0.14632 0.24950 0.20478
 H1821 H 0.09945 0.29061 0.17070
 H1822 H 0.05574 0.28830 0.14903
 H1823 H 0.04561 0.20830 0.17833
 H1824 H 0.08901 0.21067 0.19971
 C1825 C -0.06290 0.99494 0.84754
 C1826 C -0.06850 0.97267 0.83216
 C1827 C -0.08295 0.97537 0.80871
 C1828 C -0.09269 1.00029 0.80069
 C1829 C -0.08496 1.02283 0.81532
 C1830 C -0.07045 1.02006 0.83871
 C1831 C -0.05092 0.99207 0.87318
 C1832 C -0.04174 0.99053 0.89516
 H1833 H -0.06236 0.95316 0.83864
 H1834 H -0.08743 0.95777 0.79731
 H1835 H -0.09017 1.04264 0.80918
 H1836 H -0.06567 1.03750 0.85027
 C1837 C 0.43213 0.50740 0.34798
 C1838 C 0.44400 0.49808 0.32465
 C1839 C 0.43073 0.50014 0.30038
 C1840 C 0.40554 0.51202 0.29908
 C1841 C 0.39396 0.52136 0.32285
 C1842 C 0.40727 0.51930 0.34699
 C1843 C 0.44472 0.50391 0.37327
 C1844 C 0.45449 0.50155 0.39492
 H1845 H 0.46313 0.48849 0.32533
 H1846 H 0.43976 0.49132 0.28301
 H1847 H 0.37407 0.52923 0.32307
 H1848 H 0.39777 0.52626 0.36504
 C1849 C 0.57201 0.00542 0.35304
 C1850 C 0.59474 -0.01000 0.35071
 C1851 C 0.60690 -0.01311 0.32597
 C1852 C 0.59624 -0.00122 0.30297
 C1853 C 0.57321 0.01423 0.30561
 C1854 C 0.56107 0.01733 0.33049
 C1855 C 0.56029 0.00906 0.37880
 C1856 C 0.55081 0.01107 0.40068
 H1857 H 0.60344 -0.01913 0.36814
 H1858 H 0.62524 -0.02406 0.32501
 H1859 H 0.56509 0.02486 0.28883
 H1860 H 0.54355 0.02950 0.33223
 C1861 C 0.07020 0.50320 0.84744
 C1862 C 0.05672 0.51011 0.82419
 C1863 C 0.06947 0.50851 0.79944
 C1864 C 0.09587 0.49967 0.79770
 C1865 C 0.10917 0.49307 0.82140
 C1866 C 0.09641 0.49470 0.84600
 C1867 C 0.05724 0.50436 0.87288
 C1868 C 0.04679 0.50456 0.89446
 H1869 H 0.03640 0.51686 0.82522
 H1870 H 0.05863 0.51470 0.78206
 H1871 H 0.12966 0.48682 0.82084
 H1872 H 0.10704 0.48939 0.86392
 C1873 C 0.07845 0.49571 0.64522
 C1874 C 0.06743 0.51294 0.66396
 C1875 C 0.07880 0.51548 0.68913
 C1876 C 0.10140 0.50081 0.69588
 C1877 C 0.11261 0.48386 0.67678
 C1878 C 0.10117 0.48133 0.65161
 C1879 C 0.06628 0.49286 0.61953
 C1880 C 0.05573 0.49115 0.59813
 H1881 H 0.04993 0.52428 0.65918
 H1882 H 0.06988 0.52886 0.70333
 H1883 H 0.12970 0.47193 0.68152
 H1884 H 0.10986 0.46792 0.63727
 C1885 C 0.57916 1.00160 0.15142
 C1886 C 0.56836 1.01835 0.17072
 C1887 C 0.58005 1.02030 0.19580
 C1888 C 0.60276 1.00551 0.20189
 C1889 C 0.61383 0.98917 0.18218
 C1890 C 0.60207 0.98723 0.15711
 C1891 C 0.56653 0.99909 0.12593
 C1892 C 0.55567 0.99752 0.10467
 H1893 H 0.55071 1.02969 0.16649
 H1894 H 0.57121 1.03318 0.21051
 H1895 H 0.63099 0.97713 0.18637
 H1896 H 0.61061 0.97420 0.14233
 C1897 C 0.41946 0.50047 0.14647
 C1898 C 0.39389 0.51030 0.15069
 C1899 C 0.38306 0.51088 0.17645
 C1900 C 0.39779 0.50186 0.19837
 C1901 C 0.42317 0.49132 0.19372
 C1902 C 0.43391 0.49072 0.16802
 C1903 C 0.43138 0.50106 0.12029
 C1904 C 0.44210 0.50169 0.09873
 H1905 H 0.38249 0.51788 0.13414
 H1906 H 0.36350 0.51904 0.17916
 H1907 H 0.43484 0.48353 0.20995
 H1908 H 0.45364 0.48289 0.16500
 C1909 C -0.07978 -0.00704 0.65016
 C1910 C -0.10206 0.00866 0.65507
 C1911 C -0.11359 0.00912 0.68051
 C1912 C -0.10286 -0.00601 0.70136
 C1913 C -0.08094 -0.02228 0.69601
 C1914 C -0.06949 -0.02276 0.67061
 C1915 C -0.06679 -0.00635 0.62451
 C1916 C -0.05546 -0.00570 0.60327
 H1917 H -0.11016 0.02096 0.63940
 H1918 H -0.13024 0.02208 0.68409
 H1919 H -0.07247 -0.03446 0.71156
 H1920 H -0.05233 -0.03506 0.66703
 C1921 C -0.14980 0.92810 1.00121
 C1922 C -0.15189 0.90153 1.00879
 C1923 C -0.17670 0.88940 1.01070
 C1924 C -0.19999 0.90378 1.00556
 C1925 C -0.19759 0.93063 0.99796
 C1926 C -0.17264 0.94274 0.99603
 C1927 C -0.12403 0.93988 0.99817
 C1928 C -0.10209 0.94911 0.99615
 H1929 H -0.13428 0.88997 1.01256
 H1930 H -0.17754 0.86842 1.01524
 H1931 H -0.21471 0.94209 0.99239
 H1932 H -0.17112 0.96330 0.98983
 C1933 C 0.35030 0.43456 0.50240
 C1934 C 0.32725 0.44640 0.49283
 C1935 C 0.30290 0.43318 0.49523
 C1936 C 0.30123 0.40808 0.50768
 C1937 C 0.32471 0.39655 0.51725
 C1938 C 0.34893 0.40980 0.51487
 C1939 C 0.37566 0.44712 0.49871
 C1940 C 0.39737 0.45683 0.49628
 H1941 H 0.32821 0.46546 0.48283
 H1942 H 0.28574 0.44218 0.48624
 H1943 H 0.32462 0.37674 0.52561
 H1944 H 0.36675 0.40033 0.52205
 C1945 C 0.34571 0.56964 -0.00201
 C1946 C 0.34388 0.59657 -0.00804
 C1947 C 0.31923 0.60875 -0.00853
 C1948 C 0.29582 0.59418 -0.00327
 C1949 C 0.29791 0.56697 0.00283
 C1950 C 0.32274 0.55480 0.00332
 C1951 C 0.37135 0.55763 -0.00077
 C1952 C 0.39315 0.54821 0.00010
 H1953 H 0.36158 0.60827 -0.01200
 H1954 H 0.31844 0.62983 -0.01257
 H1955 H 0.28075 0.55508 0.00797
 H1956 H 0.32405 0.53393 0.00827
 C1957 C -0.15064 0.06449 0.50211
 C1958 C -0.15062 0.09056 0.49287
 C1959 C -0.17425 0.10445 0.49121
 C1960 C -0.19879 0.09244 0.49824
 C1961 C -0.19835 0.06607 0.50803
 C1962 C -0.17447 0.05220 0.50969
 C1963 C -0.12583 0.05099 0.50427
 C1964 C -0.10435 0.04091 0.50547
 H1965 H -0.13220 0.10037 0.48732
 H1966 H -0.17325 0.12499 0.48485
 H1967 H -0.21608 0.05623 0.51528
 H1968 H -0.17454 0.03208 0.51733
 C1969 C 0.65016 0.08223 0.49831
 C1970 C 0.65492 0.10927 0.49413
 C1971 C 0.68076 0.11963 0.49569
 C1972 C 0.70262 0.10303 0.50114
 C1973 C 0.69704 0.07590 0.50624
 C1974 C 0.67128 0.06573 0.50469
 C1975 C 0.62374 0.07113 0.49660
 C1976 C 0.60205 0.06081 0.49579
 H1977 H 0.63867 0.12239 0.48948
 H1978 H 0.68308 0.14052 0.49190
 H1979 H 0.71229 0.06218 0.51205
 H1980 H 0.66785 0.04483 0.50857
 C1981 C 0.14340 0.57408 0.99533
 C1982 C 0.14812 0.60000 0.98639
 C1983 C 0.17326 0.61155 0.98914
 C1984 C 0.19416 0.59725 1.00073
 C1985 C 0.18893 0.57142 1.01028
 C1986 C 0.16380 0.55995 1.00754
 C1987 C 0.11763 0.56193 0.99237
 C1988 C 0.09621 0.55130 0.99064
 H1989 H 0.13244 0.61123 0.97708
 H1990 H 0.17633 0.63141 0.98154
 H1991 H 0.20423 0.55999 1.01991
 H1992 H 0.16031 0.53999 1.01486
 C1993 C 0.14927 0.42092 0.49558
 C1994 C 0.17082 0.43555 0.48562
 C1995 C 0.19636 0.42508 0.48653
 C1996 C 0.20083 0.39979 0.49758
 C1997 C 0.17889 0.38490 0.50678
 C1998 C 0.15332 0.39546 0.50590
 C1999 C 0.12327 0.43254 0.49596
 C2000 C 0.10181 0.44294 0.49650
 H2001 H 0.16793 0.45522 0.47742
 H2002 H 0.21258 0.43688 0.47855
 H2003 H 0.18140 0.36540 0.51530
 H2004 H 0.13677 0.38391 0.51364
 C2005 C 0.64813 0.92584 0.00207
 C2006 C 0.67036 0.94066 -0.00585
 C2007 C 0.69541 0.92904 -0.00626
 C2008 C 0.69872 0.90236 0.00138
 C2009 C 0.67614 0.88749 0.00886
 C2010 C 0.65105 0.89919 0.00930
 C2011 C 0.62246 0.93819 0.00289
 C2012 C 0.60120 0.94898 0.00354
 H2013 H 0.66834 0.96124 -0.01169
 H2014 H 0.71211 0.94098 -0.01289
 H2015 H 0.67775 0.86696 0.01480
 H2016 H 0.63396 0.88749 0.01540
 C2017 C 0.00584 0.84530 0.93168
 C2018 C 0.01761 0.84456 0.90646
 C2019 C 0.01944 0.82067 0.89282
 C2020 C 0.01000 0.79689 0.90445
 C2021 C -0.00164 0.79793 0.93005
 C2022 C -0.00349 0.82194 0.94364
 C2023 C 0.00232 0.87037 0.94447
 C2024 C -0.00010 0.89189 0.95428
 H2025 H 0.02456 0.86265 0.89690
 H2026 H 0.02708 0.82121 0.87265
 H2027 H -0.01046 0.78045 0.93911
 H2028 H -0.01298 0.82241 0.96306
 C2029 C 0.50356 0.35370 0.42917
 C2030 C 0.49423 0.33074 0.44191
 C2031 C 0.49645 0.30620 0.42934
 C2032 C 0.50854 0.30424 0.40401
 C2033 C 0.51780 0.32764 0.39150
 C2034 C 0.51556 0.35207 0.40410
 C2035 C 0.50019 0.37914 0.44129
 C2036 C 0.49797 0.40079 0.45090
 H2037 H 0.48458 0.33188 0.46121
 H2038 H 0.48767 0.28908 0.43906
 H2039 H 0.52583 0.32730 0.37147
 H2040 H 0.52255 0.36982 0.39395
 C2041 C 0.00010 0.34577 0.56772
 C2042 C 0.00575 0.32261 0.55365
 C2043 C 0.00435 0.29798 0.56653
 C2044 C -0.00301 0.29630 0.59363
 C2045 C -0.00859 0.31989 0.60740
 C2046 C -0.00719 0.34435 0.59453
 C2047 C 0.00219 0.37121 0.55505
 C2048 C 0.00357 0.39291 0.54516
 H2049 H 0.01166 0.32363 0.53288
 H2050 H 0.00983 0.28067 0.55531
 H2051 H -0.01353 0.31942 0.62843
 H2052 H -0.01142 0.36220 0.60562
 C2053 C 0.49866 0.85144 0.07394
 C2054 C 0.50528 0.82875 0.05958
 C2055 C 0.50334 0.80378 0.07165
 C2056 C 0.49435 0.80121 0.09820
 C2057 C 0.48795 0.82436 0.11238
 C2058 C 0.48990 0.84920 0.10028
 C2059 C 0.50120 0.87718 0.06194
 C2060 C 0.50289 0.89897 0.05227
 H2061 H 0.51239 0.83039 0.03922
 H2062 H 0.50976 0.78685 0.06031
 H2063 H 0.48197 0.82326 0.13311
 H2064 H 0.48496 0.86671 0.11163
 C2065 C 0.49308 0.64976 0.07505
 C2066 C 0.50482 0.67104 0.06136
 C2067 C 0.50682 0.69584 0.07345
 C2068 C 0.49695 0.69980 0.09944
 C2069 C 0.48582 0.67802 0.11327
 C2070 C 0.48381 0.65323 0.10111
 C2071 C 0.49098 0.62432 0.06240
 C2072 C 0.48987 0.60307 0.05161
 H2073 H 0.51241 0.66850 0.04130
 H2074 H 0.51620 0.71184 0.06239
 H2075 H 0.47809 0.68007 0.13325
 H2076 H 0.47489 0.63681 0.11198
 C2077 C -0.00330 0.14356 0.57809
 C2078 C 0.00908 0.16398 0.56363
 C2079 C 0.01103 0.18938 0.57438
 C2080 C 0.00049 0.19484 0.59981
 C2081 C -0.01129 0.17394 0.61448
 C2082 C -0.01324 0.14853 0.60364
 C2083 C -0.00562 0.11757 0.56660
 C2084 C -0.00697 0.09601 0.55645
 H2085 H 0.01713 0.16030 0.54394
 H2086 H 0.02083 0.20472 0.56274
 H2087 H -0.01962 0.17719 0.63405
 H2088 H -0.02273 0.13283 0.61510
 C2089 C 0.50194 0.15283 0.42494
 C2090 C 0.49257 0.17459 0.43919
 C2091 C 0.49187 0.19964 0.42724
 C2092 C 0.50073 0.20346 0.40079
 C2093 C 0.50928 0.18124 0.38634
 C2094 C 0.51000 0.15614 0.39838
 C2095 C 0.50325 0.12722 0.43775
 C2096 C 0.50403 0.10599 0.44891
 H2097 H 0.48594 0.17224 0.45965
 H2098 H 0.48433 0.21599 0.43882
 H2099 H 0.51599 0.18315 0.36596
 H2100 H 0.51708 0.13938 0.38705
 C2101 C 0.00026 0.64484 0.91941
 C2102 C -0.00684 0.66650 0.93507
 C2103 C -0.00631 0.69208 0.92433
 C2104 C 0.00150 0.69653 0.89766
 C2105 C 0.00804 0.67453 0.88186
 C2106 C 0.00753 0.64888 0.89271
 C2107 C 0.00016 0.61866 0.93106
 C2108 C -0.00010 0.59713 0.94168
 H2109 H -0.01275 0.66363 0.95569
 H2110 H -0.01228 0.70831 0.93695
 H2111 H 0.01400 0.67704 0.86129
 H2112 H 0.01298 0.63224 0.88034
 C2113 C 0.22950 0.68227 0.90223
 C2114 C 0.24942 0.69147 0.91918
 C2115 C 0.25276 0.67987 0.94424
 C2116 C 0.23605 0.65911 0.95269
 C2117 C 0.21529 0.65077 0.93620
 C2118 C 0.21201 0.66234 0.91102
 C2119 C 0.22881 0.69180 0.87517
 C2120 C 0.22976 0.70009 0.85260
 H2121 H 0.26316 0.70676 0.91254
 H2122 H 0.26923 0.68610 0.95648
 H2123 H 0.20287 0.63412 0.94195
 H2124 H 0.19670 0.65489 0.89798
 C2125 C 0.73911 0.18495 0.40341
 C2126 C 0.71809 0.18035 0.42134
 C2127 C 0.72280 0.16816 0.44616
 C2128 C 0.74853 0.15973 0.45294
 C2129 C 0.76953 0.16631 0.43526
 C2130 C 0.76484 0.17859 0.41090
 C2131 C 0.73519 0.19526 0.37684
 C2132 C 0.73457 0.20344 0.35418
 H2133 H 0.69803 0.18548 0.41587
 H2134 H 0.70603 0.16386 0.45894
 H2135 H 0.78992 0.16194 0.44008
 H2136 H 0.78138 0.18258 0.39755
 C2137 C 0.25541 0.31424 0.40555
 C2138 C 0.23211 0.32600 0.41507
 C2139 C 0.23185 0.33844 0.43994
 C2140 C 0.25498 0.33936 0.45526
 C2141 C 0.27779 0.32622 0.44618
 C2142 C 0.27800 0.31377 0.42147
 C2143 C 0.25679 0.30400 0.37892
 C2144 C 0.25808 0.29574 0.35649
 H2145 H 0.21449 0.32640 0.40287
 H2146 H 0.21415 0.34863 0.44646
 H2147 H 0.29580 0.32646 0.45780
 H2148 H 0.29605 0.30460 0.41438
 C2149 C 0.74794 0.81940 0.89878
 C2150 C 0.74137 0.80578 0.92239
 C2151 C 0.74026 0.81944 0.94663
 C2152 C 0.74594 0.84669 0.94728
 C2153 C 0.75121 0.86032 0.92332
 C2154 C 0.75220 0.84676 0.89927
 C2155 C 0.75091 0.80573 0.87389
 C2156 C 0.75330 0.79561 0.85234
 H2157 H 0.73784 0.78459 0.92217
 H2158 H 0.73639 0.80858 0.96493
 H2159 H 0.75549 0.88138 0.92338
 H2160 H 0.75701 0.85754 0.88112
 C2161 C 0.73275 0.80146 0.08719
 C2162 C 0.71316 0.81916 0.07880
 C2163 C 0.71687 0.83406 0.05542
 C2164 C 0.74029 0.83150 0.04046
 C2165 C 0.75902 0.81250 0.04807
 C2166 C 0.75524 0.79753 0.07128
 C2167 C 0.73203 0.79047 0.11373
 C2168 C 0.73310 0.78254 0.13641
 H2169 H 0.69584 0.82263 0.09114
 H2170 H 0.70254 0.84906 0.05031
 H2171 H 0.77734 0.81043 0.03692
 H2172 H 0.77065 0.78411 0.07765
 C2173 C 0.23478 0.30488 0.59323
 C2174 C 0.21429 0.32028 0.58271
 C2175 C 0.21873 0.33563 0.55971
 C2176 C 0.24378 0.33588 0.54736
 C2177 C 0.26376 0.31938 0.55729
 C2178 C 0.25926 0.30394 0.58003
 C2179 C 0.23243 0.29299 0.61929
 C2180 C 0.23265 0.28425 0.64170
 H2181 H 0.19538 0.32144 0.59297
 H2182 H 0.20326 0.34857 0.55272
 H2183 H 0.28323 0.31934 0.54806
 H2184 H 0.27534 0.29232 0.58808
 C2185 C 0.75011 0.18829 0.59365
 C2186 C 0.72706 0.18215 0.57933
 C2187 C 0.72882 0.16926 0.55455
 C2188 C 0.75372 0.16170 0.54424
 C2189 C 0.77663 0.16981 0.55817
 C2190 C 0.77481 0.18279 0.58250
 C2191 C 0.74915 0.19876 0.62041
 C2192 C 0.74979 0.20685 0.64305
 H2193 H 0.70774 0.18645 0.58771
 H2194 H 0.71067 0.16352 0.54473
 H2195 H 0.79630 0.16599 0.55043
 H2196 H 0.79281 0.18786 0.59301
 C2197 C 0.24402 0.68849 0.09535
 C2198 C 0.22141 0.67474 0.08671
 C2199 C 0.22172 0.66143 0.06224
 C2200 C 0.24478 0.66159 0.04644
 C2201 C 0.26678 0.67670 0.05457
 C2202 C 0.26640 0.69003 0.07884
 C2203 C 0.24525 0.69933 0.12185
 C2204 C 0.24681 0.70784 0.14422
 H2205 H 0.20395 0.67341 0.09934
 H2206 H 0.20466 0.64972 0.05648
 H2207 H 0.28474 0.67723 0.04263
 H2208 H 0.28396 0.70064 0.08521
 C2209 C 0.19296 0.59121 0.74197
 C2210 C 0.19673 0.57471 0.76407
 C2211 C 0.18431 0.54994 0.76536
 C2212 C 0.16795 0.54133 0.74454
 C2213 C 0.16580 0.55706 0.72151
 C2214 C 0.17817 0.58202 0.72030
 C2215 C 0.20220 0.61828 0.74293
 C2216 C 0.20951 0.64101 0.74477
 H2217 H 0.20814 0.58155 0.78093
 H2218 H 0.18614 0.53815 0.78335
 H2219 H 0.15297 0.55099 0.70543
 H2220 H 0.17508 0.59465 0.70309
 C2221 C 0.69524 0.08979 0.24906
 C2222 C 0.68659 0.07703 0.22591
 C2223 C 0.67364 0.05235 0.22768
 C2224 C 0.66853 0.04062 0.25279
 C2225 C 0.67942 0.05279 0.27553
 C2226 C 0.69250 0.07710 0.27366
 C2227 C 0.70487 0.11671 0.24841
 C2228 C 0.71224 0.13948 0.24921
 H2229 H 0.68876 0.08667 0.20668
 H2230 H 0.66568 0.04389 0.20964
 H2231 H 0.67733 0.04385 0.29510
 H2232 H 0.69953 0.08652 0.29165
 C2233 C 0.81211 0.09559 0.73401
 C2234 C 0.80405 0.07119 0.72350
 C2235 C 0.81929 0.04835 0.72795
 C2236 C 0.84256 0.04959 0.74348
 C2237 C 0.85066 0.07466 0.75295
 C2238 C 0.83564 0.09720 0.74830
 C2239 C 0.79651 0.11933 0.73174
 C2240 C 0.78580 0.14065 0.73234
 H2241 H 0.78579 0.06970 0.71238
 H2242 H 0.81191 0.02974 0.72036
 H2243 H 0.86898 0.07731 0.76369
 H2244 H 0.84233 0.11600 0.75625
 C2245 C 0.30095 0.59402 0.23494
 C2246 C 0.31696 0.58468 0.21410
 C2247 C 0.33249 0.56203 0.21783
 C2248 C 0.33231 0.54883 0.24251
 C2249 C 0.31516 0.55749 0.26276
 C2250 C 0.29954 0.57989 0.25896
 C2251 C 0.28906 0.61987 0.23354
 C2252 C 0.28043 0.64209 0.23443
 H2253 H 0.31850 0.59566 0.19554
 H2254 H 0.34596 0.55601 0.20218
 H2255 H 0.31484 0.54763 0.28199
 H2256 H 0.28747 0.58702 0.27532
 C2257 C 0.31528 0.40645 0.25408
 C2258 C 0.31393 0.42245 0.27665
 C2259 C 0.32545 0.44763 0.27623
 C2260 C 0.33853 0.45714 0.25322
 C2261 C 0.33851 0.44165 0.23010
 C2262 C 0.32700 0.41630 0.23058
 C2263 C 0.30561 0.37960 0.25561
 C2264 C 0.29750 0.35712 0.25709
 H2265 H 0.30474 0.41514 0.29485
 H2266 H 0.32504 0.45935 0.29424
 H2267 H 0.34868 0.44850 0.21226
 H2268 H 0.32803 0.40407 0.21295
 C2269 C 0.80933 0.90652 0.75216
 C2270 C 0.82296 0.91644 0.72975
 C2271 C 0.83436 0.94183 0.73027
 C2272 C 0.83237 0.95734 0.75331
 C2273 C 0.81711 0.94793 0.77497
 C2274 C 0.80569 0.92268 0.77439
 C2275 C 0.80052 0.87932 0.75316
 C2276 C 0.79323 0.85651 0.75425
 H2277 H 0.82582 0.90412 0.71239
 H2278 H 0.84635 0.94849 0.71352
 H2279 H 0.81535 0.95956 0.79296
 H2280 H 0.79505 0.91531 0.79177
 C2281 C 0.67832 0.89966 0.22864
 C2282 C 0.69343 0.92310 0.22819
 C2283 C 0.68131 0.94749 0.23333
 C2284 C 0.65414 0.94841 0.23935
 C2285 C 0.63894 0.92500 0.23826
 C2286 C 0.65096 0.90081 0.23295
 C2287 C 0.69083 0.87414 0.22778
 C2288 C 0.70055 0.85241 0.22869
 H2289 H 0.71466 0.92240 0.22501
 H2290 H 0.69334 0.96532 0.23414
 H2291 H 0.61787 0.92533 0.24248
 H2292 H 0.63908 0.88284 0.23338
 C2293 C 0.17804 0.39733 0.72828
 C2294 C 0.19275 0.42091 0.72554
 C2295 C 0.18053 0.44544 0.72972
 C2296 C 0.15368 0.44642 0.73710
 C2297 C 0.13884 0.42276 0.73842
 C2298 C 0.15095 0.39842 0.73407
 C2299 C 0.19083 0.37192 0.72810
 C2300 C 0.20080 0.35033 0.72964
 H2301 H 0.21379 0.42027 0.72119
 H2302 H 0.19228 0.46345 0.72860
 H2303 H 0.11798 0.42306 0.74364
 H2304 H 0.13937 0.38037 0.73627
 C2305 C 0.08984 0.73298 0.79940
 C2306 C 0.08035 0.71299 0.81656
 C2307 C 0.05688 0.71672 0.83115
 C2308 C 0.04288 0.74054 0.82881
 C2309 C 0.05163 0.75976 0.81035
 C2310 C 0.07492 0.75597 0.79570
 C2311 C 0.11643 0.73197 0.78873
 C2312 C 0.13916 0.73282 0.78106
 H2313 H 0.09189 0.69527 0.81989
 H2314 H 0.05095 0.70200 0.84578
 H2315 H 0.04129 0.77842 0.80851
 H2316 H 0.08213 0.77170 0.78271
 C2317 C 0.59277 0.23566 0.30255
 C2318 C 0.58226 0.21569 0.31914
 C2319 C 0.55930 0.22040 0.33424
 C2320 C 0.54689 0.24518 0.33305
 C2321 C 0.55678 0.26457 0.31536
 C2322 C 0.57953 0.25981 0.30018
 C2323 C 0.61886 0.23319 0.29096
 C2324 C 0.64132 0.23308 0.28254
 H2325 H 0.59253 0.19706 0.32145
 H2326 H 0.55242 0.20542 0.34815
 H2327 H 0.54757 0.28387 0.31422
 H2328 H 0.58757 0.27551 0.28766
 C2329 C 0.59185 0.74441 0.18983
 C2330 C 0.57599 0.76677 0.19306
 C2331 C 0.55143 0.76816 0.18057
 C2332 C 0.54238 0.74717 0.16466
 C2333 C 0.55753 0.72402 0.16288
 C2334 C 0.58230 0.72271 0.17532
 C2335 C 0.61865 0.74501 0.19953
 C2336 C 0.64121 0.74657 0.20721
 H2337 H 0.58310 0.78364 0.20425
 H2338 H 0.54000 0.78617 0.18229
 H2339 H 0.55104 0.70775 0.15049
 H2340 H 0.59446 0.70530 0.17266
 C2341 C 0.09326 0.24532 0.69008
 C2342 C 0.07729 0.26779 0.69136
 C2343 C 0.05309 0.26823 0.67814
 C2344 C 0.04452 0.24618 0.66342
 C2345 C 0.05974 0.22302 0.66363
 C2346 C 0.08415 0.22265 0.67681
 C2347 C 0.11975 0.24653 0.70053
 C2348 C 0.14212 0.24813 0.70871
 H2349 H 0.08407 0.28539 0.70160
 H2350 H 0.04157 0.28626 0.67836
 H2351 H 0.05363 0.20593 0.65220
 H2352 H 0.09639 0.20514 0.67570
 C2353 C 0.90102 0.23103 0.68357
 C2354 C 0.91011 0.21273 0.66479
 C2355 C 0.93517 0.21606 0.65306
 C2356 C 0.95122 0.23771 0.66007
 C2357 C 0.94245 0.25530 0.67971
 C2358 C 0.91752 0.25191 0.69148
 C2359 C 0.87414 0.23005 0.69324
 C2360 C 0.85175 0.23082 0.70168
 H2361 H 0.89740 0.19664 0.65835
 H2362 H 0.94120 0.20288 0.63726
 H2363 H 0.95439 0.27240 0.68494
 H2364 H 0.91065 0.26626 0.70589
 C2365 C 0.39889 0.73127 0.18663
 C2366 C 0.40831 0.71360 0.16740
 C2367 C 0.43317 0.71787 0.15547
 C2368 C 0.44866 0.73985 0.16269
 C2369 C 0.43957 0.75682 0.18275
 C2370 C 0.41487 0.75249 0.19473
 C2371 C 0.37202 0.72956 0.19634
 C2372 C 0.34955 0.73005 0.20464
 H2373 H 0.39599 0.69730 0.16077
 H2374 H 0.43940 0.70514 0.13939
 H2375 H 0.45108 0.77414 0.18820
 H2376 H 0.40772 0.76639 0.20944
 C2377 C 0.40468 0.25476 0.31482
 C2378 C 0.41372 0.23201 0.32806
 C2379 C 0.43883 0.23195 0.33988
 C2380 C 0.45488 0.25474 0.33868
 C2381 C 0.44622 0.27689 0.32409
 C2382 C 0.42130 0.27689 0.31227
 C2383 C 0.37800 0.25612 0.30491
 C2384 C 0.35567 0.25759 0.29665
 H2385 H 0.40102 0.21472 0.33006
 H2386 H 0.44502 0.21479 0.35122
 H2387 H 0.45837 0.29464 0.32277
 H2388 H 0.41464 0.29451 0.30192
 C2389 C 0.90048 0.75220 0.81884
 C2390 C 0.92335 0.74545 0.80438
 C2391 C 0.94783 0.74344 0.81733
 C2392 C 0.94951 0.74838 0.84475
 C2393 C 0.92624 0.75392 0.85921
 C2394 C 0.90195 0.75583 0.84635
 C2395 C 0.87532 0.75552 0.80592
 C2396 C 0.85370 0.75783 0.79609
 H2397 H 0.92236 0.74234 0.78308
 H2398 H 0.96555 0.73934 0.80582
 H2399 H 0.92703 0.75757 0.88044
 H2400 H 0.88439 0.76070 0.85781
   
