data_POSCAR
  _audit_creation_date              2014-09-24
  _audit_creation_method            'ToBaCCo'
  _symmetry_space_group_name_H-M    'P1'
  _symmetry_Int_Tables_number       1
  _symmetry_cell_setting            triclinic
  loop_
  _symmetry_equiv_pos_as_xyz
 x,y,z
_cell_length_a 63.2580
_cell_length_b 62.3043
_cell_length_c 63.2390
_cell_angle_alpha 89.820300
_cell_angle_beta 89.252900
_cell_angle_gamma 89.623600
loop_
  _atom_site_label
  _atom_site_type_symbol
  _atom_site_fract_x
  _atom_site_fract_y
  _atom_site_fract_z
C1 C 0.73445 0.65502 0.97466
 H2 H 0.74962 0.65675 0.96676
 C3 C 0.71683 0.66641 0.96733
 H4 H 0.71852 0.67695 0.95377
 C5 C 0.71338 0.63804 1.00099
 H6 H 0.71182 0.62643 1.01361
 C7 C 0.69545 0.64894 0.99413
 H8 H 0.68039 0.64595 1.00191
 N9 N 0.73238 0.64103 0.99112
 C10 C 0.79665 0.62483 1.00985
 H11 H 0.79517 0.60759 1.00859
 C12 C 0.81538 0.63365 1.01700
 H13 H 0.82841 0.62303 1.02082
 C14 C 0.78115 0.65940 1.00652
 H15 H 0.76753 0.66925 1.00291
 C16 C 0.79965 0.66895 1.01387
 H17 H 0.80010 0.68619 1.01586
 Zn18 Zn 0.75509 0.62261 0.99843
 N19 N 0.77999 0.63767 1.00489
 C20 C 0.77753 0.60840 0.96267
 N21 N 0.76023 0.60435 0.97501
 C22 C 0.74578 0.58938 0.96935
 C23 C 0.74873 0.57748 0.95078
 C24 C 0.78084 0.59724 0.94385
 C25 C 0.74501 0.62096 1.04034
 C26 C 0.73782 0.61309 1.05969
 C27 C 0.73752 0.57752 1.04470
 C28 C 0.74472 0.58624 1.02547
 N29 N 0.74765 0.60773 1.02353
 H30 H 0.78839 0.62090 0.96695
 H31 H 0.73171 0.58705 0.97897
 H32 H 0.73708 0.56575 0.94626
 H33 H 0.79448 0.60092 0.93399
 H34 H 0.74811 0.63793 1.03852
 H35 H 0.73675 0.62446 1.07251
 H36 H 0.73417 0.56054 1.04490
 H37 H 0.74741 0.57587 1.01203
 C38 C 0.81694 0.65595 1.01959
 C39 C 0.69694 0.66299 0.97683
 C40 C 0.73308 0.59104 1.06228
 C41 C 0.76630 0.58168 0.93771
 C42 C 0.74043 0.33966 0.51552
 H43 H 0.75554 0.33940 0.52334
 C44 C 0.72344 0.32808 0.52403
 H45 H 0.72560 0.31880 0.53835
 C46 C 0.71882 0.35317 0.48812
 H47 H 0.71687 0.36331 0.47441
 C48 C 0.70142 0.34207 0.49620
 H49 H 0.68635 0.34350 0.48838
 N50 N 0.73783 0.35193 0.49789
 C51 C 0.79866 0.36547 0.46754
 H52 H 0.79582 0.38223 0.46399
 C53 C 0.81726 0.35558 0.46048
 H54 H 0.82845 0.36483 0.45117
 C55 C 0.78708 0.33311 0.48352
 H56 H 0.77525 0.32440 0.49245
 C57 C 0.80561 0.32258 0.47689
 H58 H 0.80793 0.30589 0.48109
 Zn59 Zn 0.76002 0.37003 0.48832
 N60 N 0.78413 0.35428 0.47904
 C61 C 0.78819 0.39067 0.51594
 N62 N 0.76748 0.38809 0.51104
 C63 C 0.75183 0.39738 0.52289
 C64 C 0.75678 0.40973 0.54055
 C65 C 0.79383 0.40311 0.53323
 C66 C 0.74844 0.37598 0.44641
 C67 C 0.74115 0.38684 0.42860
 C68 C 0.73832 0.41919 0.44947
 C69 C 0.74589 0.40773 0.46688
 N70 N 0.75052 0.38646 0.46508
 H71 H 0.80041 0.38290 0.50662
 H72 H 0.73548 0.39489 0.51878
 H73 H 0.74418 0.41691 0.54994
 H74 H 0.81038 0.40475 0.53704
 H75 H 0.75227 0.35906 0.44546
 H76 H 0.73921 0.37812 0.41397
 H77 H 0.73454 0.43608 0.45113
 H78 H 0.74782 0.41578 0.48183
 C79 C 0.82111 0.33391 0.46535
 C80 C 0.70355 0.32954 0.51452
 C81 C 0.73582 0.40868 0.43005
 C82 C 0.77803 0.41270 0.54586
 C83 C 0.22832 -0.15417 0.01713
 H84 H 0.24240 -0.15458 0.02665
 C85 C 0.21011 -0.16477 0.02416
 H86 H 0.21040 -0.17331 0.03908
 C87 C 0.21037 -0.14103 -0.01294
 H88 H 0.21027 -0.13136 -0.02713
 C89 C 0.19191 -0.15149 -0.00660
 H90 H 0.17801 -0.15009 -0.01633
 N91 N 0.22805 -0.14228 -0.00096
 C92 C 0.29157 -0.13191 -0.02610
 H93 H 0.28937 -0.11547 -0.03120
 C94 C 0.31016 -0.14276 -0.03154
 H95 H 0.32208 -0.13451 -0.04087
 C96 C 0.27813 -0.16281 -0.00882
 H97 H 0.26557 -0.17062 -0.00009
 C98 C 0.29658 -0.17433 -0.01393
 H99 H 0.29810 -0.19086 -0.00882
 Zn100 Zn 0.25175 -0.12499 -0.00837
 N101 N 0.27609 -0.14188 -0.01473
 C102 C 0.27646 -0.09565 0.01440
 N103 N 0.25776 -0.10630 0.01442
 C104 C 0.24374 -0.10431 0.03082
 C105 C 0.24875 -0.09206 0.04849
 C106 C 0.28211 -0.08324 0.03174
 C107 C 0.24431 -0.11960 -0.05131
 C108 C 0.23917 -0.10888 -0.06993
 C109 C 0.23693 -0.07583 -0.05019
 C110 C 0.24215 -0.08730 -0.03193
 N111 N 0.24545 -0.10881 -0.03280
 H112 H 0.28730 -0.09717 0.00118
 H113 H 0.22869 -0.11237 0.03034
 H114 H 0.23748 -0.09087 0.06148
 H115 H 0.29743 -0.07560 0.03172
 H116 H 0.24694 -0.13678 -0.05148
 H117 H 0.23724 -0.11879 -0.08373
 H118 H 0.23530 -0.05865 -0.04857
 H119 H 0.24349 -0.07899 -0.01703
 C120 C 0.31296 -0.16422 -0.02533
 C121 C 0.19144 -0.16316 0.01243
 C122 C 0.23505 -0.08646 -0.06990
 C123 C 0.26833 -0.08164 0.04926
 C124 C 0.24282 0.15660 0.47350
 H125 H 0.25800 0.15661 0.46542
 C126 C 0.22582 0.16821 0.46511
 H127 H 0.22802 0.17722 0.45058
 C128 C 0.22095 0.14350 0.50130
 H129 H 0.21872 0.13328 0.51493
 C130 C 0.20364 0.15475 0.49348
 H131 H 0.18849 0.15342 0.50154
 N132 N 0.24001 0.14428 0.49112
 C133 C 0.30140 0.12470 0.51579
 H134 H 0.29831 0.10765 0.51649
 C135 C 0.32024 0.13263 0.52361
 H136 H 0.33173 0.12147 0.52996
 C137 C 0.28993 0.15976 0.50663
 H138 H 0.27783 0.17023 0.50035
 C139 C 0.30864 0.16847 0.51446
 H140 H 0.31079 0.18569 0.51419
 Zn141 Zn 0.26136 0.12465 0.49966
 N142 N 0.28671 0.13820 0.50751
 C143 C 0.28635 0.10352 0.46851
 N144 N 0.26651 0.10565 0.47682
 C145 C 0.24978 0.09555 0.46803
 C146 C 0.25268 0.08274 0.45009
 C147 C 0.28999 0.09068 0.45080
 C148 C 0.24963 0.12212 0.54164
 C149 C 0.24116 0.11350 0.56019
 C150 C 0.23834 0.07924 0.54264
 C151 C 0.24680 0.08861 0.52426
 N152 N 0.25174 0.10983 0.52401
 H153 H 0.29936 0.11216 0.47523
 H154 H 0.23410 0.09781 0.47473
 H155 H 0.23920 0.07496 0.44313
 H156 H 0.30583 0.08953 0.44418
 H157 H 0.25396 0.13888 0.54102
 H158 H 0.23915 0.12369 0.57392
 H159 H 0.23376 0.06253 0.54250
 H160 H 0.24891 0.07907 0.51013
 C161 C 0.32397 0.15481 0.52335
 C162 C 0.20578 0.16682 0.47484
 C163 C 0.23499 0.09193 0.56072
 C164 C 0.27302 0.08025 0.44127
 C165 C 0.15797 0.48025 0.22843
 H166 H 0.15883 0.47058 0.24264
 C167 C 0.16922 0.47405 0.21027
 H168 H 0.17855 0.45944 0.21068
 C169 C 0.14352 0.51020 0.21040
 H170 H 0.13309 0.52397 0.21026
 C171 C 0.15471 0.50477 0.19199
 H172 H 0.15313 0.51487 0.17814
 N173 N 0.14529 0.49794 0.22813
 C174 C 0.13453 0.51563 0.29399
 H175 H 0.11750 0.51412 0.29461
 C176 C 0.14537 0.52225 0.31184
 H177 H 0.13657 0.52597 0.32618
 C178 C 0.16654 0.51334 0.27417
 H179 H 0.17462 0.51007 0.25935
 C180 C 0.17802 0.52024 0.29162
 H181 H 0.19499 0.52206 0.29021
 Zn182 Zn 0.12839 0.50363 0.25243
 N183 N 0.14518 0.51122 0.27570
 C184 C 0.11934 0.46660 0.27611
 N185 N 0.11332 0.47814 0.25887
 C186 C 0.09861 0.47045 0.24535
 C187 C 0.08902 0.45061 0.24924
 C188 C 0.11052 0.44660 0.28032
 C189 C 0.12087 0.54640 0.24462
 C190 C 0.10981 0.56506 0.23953
 C191 C 0.07736 0.54484 0.24083
 C192 C 0.08910 0.52647 0.24598
 N193 N 0.11053 0.52750 0.24722
 H194 H 0.13161 0.47249 0.28623
 H195 H 0.09466 0.47950 0.23131
 H196 H 0.07745 0.44452 0.23834
 H197 H 0.11573 0.43747 0.29391
 H198 H 0.13790 0.54679 0.24593
 H199 H 0.11854 0.57970 0.23667
 H200 H 0.06035 0.54375 0.23957
 H201 H 0.08109 0.51144 0.24870
 C202 C 0.16737 0.52477 0.31075
 C203 C 0.16751 0.48625 0.19161
 C204 C 0.08779 0.56441 0.23726
 C205 C 0.09526 0.43838 0.26676
 C206 C -0.16307 0.02247 0.23972
 H207 H -0.16454 0.02929 0.25531
 C208 C -0.17501 0.03112 0.22326
 H209 H -0.18616 0.04376 0.22715
 C210 C -0.14667 -0.00213 0.21629
 H211 H -0.13491 -0.01436 0.21321
 C212 C -0.15827 0.00595 0.19940
 H213 H -0.15470 -0.00045 0.18388
 N214 N -0.14935 0.00596 0.23609
 C215 C -0.14545 -0.03475 0.28888
 H216 H -0.13426 -0.04524 0.28104
 C217 C -0.15683 -0.04257 0.30623
 H218 H -0.15435 -0.05902 0.31125
 C219 C -0.16126 -0.00045 0.29290
 H220 H -0.16252 0.01612 0.28809
 C221 C -0.17290 -0.00761 0.31052
 H222 H -0.18346 0.00341 0.31869
 Zn223 Zn -0.13181 -0.00458 0.25824
 N224 N -0.14808 -0.01412 0.28220
 C225 C -0.11057 0.02215 0.28710
 N226 N -0.11381 0.01790 0.26632
 C227 C -0.10487 0.03010 0.25079
 C228 C -0.09245 0.04774 0.25593
 C229 C -0.09813 0.03953 0.29294
 C230 C -0.12627 -0.04519 0.24026
 C231 C -0.11547 -0.06326 0.23290
 C232 C -0.08252 -0.04599 0.24116
 C233 C -0.09401 -0.02811 0.24834
 N234 N -0.11551 -0.02808 0.24783
 H235 H -0.11776 0.01215 0.29917
 H236 H -0.10769 0.02630 0.23439
 H237 H -0.08556 0.05738 0.24338
 H238 H -0.09605 0.04296 0.30956
 H239 H -0.14337 -0.04476 0.24005
 H240 H -0.12442 -0.07654 0.22670
 H241 H -0.06543 -0.04593 0.24201
 H242 H -0.08578 -0.01440 0.25455
 C243 C -0.17091 -0.02902 0.31720
 C244 C -0.17278 0.02298 0.20251
 C245 C -0.09330 -0.06394 0.23343
 C246 C -0.08908 0.05271 0.27725
 C247 C 0.34456 0.51954 0.72216
 H248 H 0.34092 0.52585 0.73765
 C249 C 0.33461 0.52838 0.70447
 H250 H 0.32343 0.54143 0.70669
 C251 C 0.36467 0.49617 0.70026
 H252 H 0.37695 0.48426 0.69835
 C253 C 0.35491 0.50427 0.68228
 H254 H 0.35934 0.49770 0.66701
 N255 N 0.35934 0.50370 0.71981
 C256 C 0.35669 0.46247 0.77187
 H257 H 0.36715 0.45126 0.76401
 C258 C 0.34451 0.45535 0.78899
 H259 H 0.34574 0.43871 0.79385
 C260 C 0.34367 0.49790 0.77630
 H261 H 0.34398 0.51462 0.77181
 C262 C 0.33125 0.49145 0.79364
 H263 H 0.32158 0.50321 0.80189
 Zn264 Zn 0.37453 0.49299 0.74364
 N265 N 0.35598 0.48340 0.76568
 C266 C 0.39901 0.51284 0.77444
 N267 N 0.39109 0.51530 0.75469
 C268 C 0.39373 0.53385 0.74361
 C269 C 0.40422 0.55114 0.75263
 C270 C 0.40949 0.52976 0.78411
 C271 C 0.38245 0.45297 0.72519
 C272 C 0.39438 0.43626 0.71651
 C273 C 0.42609 0.45373 0.72833
 C274 C 0.41351 0.47038 0.73655
 N275 N 0.39211 0.46981 0.73461
 H276 H 0.39666 0.49790 0.78288
 H277 H 0.38733 0.53542 0.72791
 H278 H 0.40562 0.56602 0.74385
 H279 H 0.41542 0.52766 0.79997
 H280 H 0.36542 0.45291 0.72385
 H281 H 0.38644 0.42322 0.70865
 H282 H 0.44313 0.45453 0.72951
 H283 H 0.42087 0.48393 0.74406
 C284 C 0.33160 0.46989 0.80019
 C285 C 0.33987 0.52084 0.68413
 C286 C 0.41647 0.43667 0.71778
 C287 C 0.41191 0.54934 0.77329
 C288 C 0.65691 0.97191 0.73944
 H289 H 0.65706 0.96251 0.75385
 C290 C 0.66804 0.96471 0.72157
 H291 H 0.67658 0.94964 0.72241
 C292 C 0.64430 1.00220 0.72060
 H293 H 0.63460 1.01651 0.72005
 C294 C 0.65537 0.99574 0.70244
 H295 H 0.65446 1.00557 0.68833
 N296 N 0.64520 0.99025 0.73861
 C297 C 0.63446 1.00863 0.80432
 H298 H 0.61736 1.00839 0.80459
 C299 C 0.64539 1.01412 0.82249
 H300 H 0.63616 1.01862 0.83631
 C301 C 0.66652 1.00435 0.78508
 H302 H 0.67464 1.00056 0.77040
 C303 C 0.67816 1.01012 0.80282
 H304 H 0.69521 1.00995 0.80143
 Zn305 Zn 0.62827 0.99718 0.76258
 N306 N 0.64508 1.00371 0.78618
 C307 C 0.61610 0.96088 0.78620
 N308 N 0.61151 0.97273 0.76872
 C309 C 0.59667 0.96615 0.75478
 C310 C 0.58532 0.94728 0.75856
 C311 C 0.60551 0.94174 0.79031
 C312 C 0.62283 1.04038 0.75387
 C313 C 0.61247 1.05939 0.74847
 C314 C 0.57924 1.04056 0.75058
 C315 C 0.59028 1.02186 0.75604
 N316 N 0.61175 1.02199 0.75698
 H317 H 0.62848 0.96584 0.79667
 H318 H 0.59386 0.97539 0.74058
 H319 H 0.57357 0.94215 0.74739
 H320 H 0.60950 0.93237 0.80416
 H321 H 0.63988 1.04008 0.75501
 H322 H 0.62172 1.07360 0.74521
 H323 H 0.56217 1.04015 0.74952
 H324 H 0.58166 1.00730 0.75926
 C325 C 0.66768 1.01513 0.82210
 C326 C 0.66718 0.97656 0.70263
 C327 C 0.59040 1.05957 0.74640
 C328 C 0.58994 0.93479 0.77641
 C329 C 0.01941 0.23545 -0.14645
 H330 H 0.02572 0.25145 -0.14827
 C331 C 0.02845 0.21838 -0.15774
 H332 H 0.04145 0.22153 -0.16859
 C333 C -0.00497 0.21196 -0.12978
 H334 H -0.01761 0.20937 -0.11842
 C335 C 0.00371 0.19442 -0.14057
 H336 H -0.00241 0.17856 -0.13727
 N337 N 0.00303 0.23196 -0.13277
 C338 C -0.02578 0.29480 -0.12096
 H339 H -0.02609 0.29431 -0.10386
 C340 C -0.03363 0.31276 -0.13154
 H341 H -0.04005 0.32608 -0.12250
 C342 C -0.01730 0.27782 -0.15351
 H343 H -0.01107 0.26409 -0.16197
 C344 C -0.02537 0.29536 -0.16476
 H345 H -0.02507 0.29516 -0.18188
 Zn346 Zn -0.00686 0.25484 -0.11560
 N347 N -0.01736 0.27802 -0.13198
 C348 C 0.02285 0.28471 -0.10082
 N349 N 0.01624 0.26405 -0.09915
 C350 C 0.02717 0.24941 -0.08750
 C351 C 0.04573 0.25532 -0.07725
 C352 C 0.04109 0.29133 -0.09070
 C353 C -0.04771 0.24169 -0.10956
 C354 C -0.06573 0.23410 -0.09927
 C355 C -0.04653 0.23390 -0.06654
 C356 C -0.02886 0.24178 -0.07758
 N357 N -0.02972 0.24515 -0.09875
 H358 H 0.01442 0.29606 -0.11051
 H359 H 0.02185 0.23295 -0.08677
 H360 H 0.05461 0.24329 -0.06866
 H361 H 0.04592 0.30790 -0.09227
 H362 H -0.04806 0.24497 -0.12636
 H363 H -0.07972 0.23294 -0.10878
 H364 H -0.04443 0.23041 -0.04997
 H365 H -0.01435 0.24475 -0.06926
 C366 C -0.03338 0.31321 -0.15370
 C367 C 0.02082 0.19743 -0.15463
 C368 C -0.06560 0.22946 -0.07729
 C369 C 0.05310 0.27648 -0.07912
 C370 C 0.46053 0.22985 0.14142
 H371 H 0.45035 0.23909 0.13124
 C372 C 0.45214 0.21250 0.15268
 H373 H 0.43571 0.20837 0.15060
 C374 C 0.49420 0.22374 0.15626
 H375 H 0.51052 0.22824 0.15786
 C376 C 0.48648 0.20625 0.16780
 H377 H 0.49702 0.19748 0.17810
 N378 N 0.48137 0.23483 0.14294
 C379 C 0.51484 0.29463 0.13182
 H380 H 0.51752 0.29319 0.11496
 C381 C 0.52352 0.31171 0.14280
 H382 H 0.53271 0.32354 0.13419
 C383 C 0.49926 0.28098 0.16336
 H384 H 0.48981 0.26888 0.17123
 C385 C 0.50762 0.29793 0.17501
 H386 H 0.50470 0.29869 0.19190
 Zn387 Zn 0.49281 0.25703 0.12548
 N388 N 0.50303 0.27969 0.14218
 C389 C 0.46513 0.28859 0.10928
 N390 N 0.47145 0.26778 0.10727
 C391 C 0.46218 0.25453 0.09309
 C392 C 0.44603 0.26215 0.08012
 C393 C 0.44903 0.29683 0.09672
 C394 C 0.53415 0.24164 0.12041
 C395 C 0.55216 0.23393 0.10994
 C396 C 0.53359 0.23680 0.07694
 C397 C 0.51586 0.24441 0.08809
 N398 N 0.51629 0.24632 0.10952
 H399 H 0.47228 0.29879 0.12093
 H400 H 0.46719 0.23793 0.09201
 H401 H 0.43900 0.25140 0.06883
 H402 H 0.44397 0.31331 0.09898
 H403 H 0.53461 0.24429 0.13725
 H404 H 0.56598 0.22986 0.11908
 H405 H 0.53297 0.23552 0.05989
 H406 H 0.50193 0.24898 0.07949
 C407 C 0.52006 0.31348 0.16470
 C408 C 0.46527 0.20020 0.16579
 C409 C 0.55205 0.23133 0.08790
 C410 C 0.43923 0.28359 0.08187
 C411 C 0.97403 0.73232 0.66795
 H412 H 0.96744 0.74820 0.67040
 C413 C 0.96662 0.71502 0.68002
 H414 H 0.95464 0.71788 0.69208
 C415 C 0.99722 0.70931 0.64880
 H416 H 1.00858 0.70697 0.63610
 C417 C 0.99014 0.69158 0.66032
 H418 H 0.99624 0.67584 0.65624
 N419 N 0.98901 0.72917 0.65265
 C420 C 1.01052 0.79320 0.63539
 H421 H 1.00868 0.79144 0.61850
 C422 C 1.01846 0.81219 0.64349
 H423 H 1.02240 0.82512 0.63268
 C424 C 1.00743 0.77829 0.66982
 H425 H 1.00347 0.76483 0.67991
 C426 C 1.01551 0.79710 0.67865
 H427 H 1.01776 0.79795 0.69556
 Zn428 Zn 0.99616 0.75197 0.63414
 N429 N 1.00516 0.77676 0.64851
 C430 C 0.96139 0.77744 0.62252
 N431 N 0.97178 0.75872 0.61832
 C432 C 0.96410 0.74437 0.60423
 C433 C 0.94557 0.74897 0.59319
 C434 C 0.94271 0.78250 0.61213
 C435 C 1.03740 0.73939 0.62739
 C436 C 1.05585 0.73367 0.61649
 C437 C 1.03700 0.73728 0.58367
 C438 C 1.01883 0.74303 0.59525
 N439 N 1.01934 0.74373 0.61674
 H440 H 0.96728 0.78832 0.63429
 H441 H 0.97230 0.72929 0.60165
 H442 H 0.93959 0.73745 0.58200
 H443 H 0.93466 0.79749 0.61567
 H444 H 1.03739 0.74033 0.64447
 H445 H 1.06993 0.72989 0.62536
 H446 H 1.03644 0.73688 0.56657
 H447 H 1.00450 0.74714 0.58703
 C448 C 1.02137 0.81426 0.66535
 C449 C 0.97440 0.69420 0.67600
 C450 C 1.05583 0.73255 0.59434
 C451 C 0.93462 0.76820 0.59727
 C452 C 0.52087 0.73579 0.34652
 H453 H 0.52952 0.75066 0.34512
 C454 C 0.52823 0.71742 0.33604
 H455 H 0.54267 0.71835 0.32673
 C456 C 0.49244 0.71630 0.36169
 H457 H 0.47891 0.71560 0.37221
 C458 C 0.49902 0.69768 0.35126
 H459 H 0.48993 0.68317 0.35343
 N460 N 0.50338 0.73488 0.35921
 C461 C 0.48509 0.80181 0.36833
 H462 H 0.48689 0.80259 0.38530
 C463 C 0.47906 0.82008 0.35714
 H464 H 0.47587 0.83459 0.36601
 C465 C 0.48593 0.78120 0.33696
 H466 H 0.48861 0.76593 0.32925
 C467 C 0.47920 0.79896 0.32515
 H468 H 0.47741 0.79709 0.30827
 Zn469 Zn 0.49619 0.75945 0.37547
 N470 N 0.48874 0.78299 0.35814
 C471 C 0.53176 0.78389 0.38591
 N472 N 0.52028 0.76635 0.39156
 C473 C 0.52692 0.75285 0.40713
 C474 C 0.54547 0.75717 0.41812
 C475 C 0.55047 0.78862 0.39623
 C476 C 0.45442 0.74892 0.38164
 C477 C 0.43617 0.74230 0.39223
 C478 C 0.45391 0.74745 0.42543
 C479 C 0.47204 0.75373 0.41413
 N480 N 0.47213 0.75362 0.39259
 H481 H 0.52681 0.79394 0.37293
 H482 H 0.51795 0.73857 0.41081
 H483 H 0.55065 0.74626 0.43040
 H484 H 0.55941 0.80263 0.39146
 H485 H 0.45480 0.74945 0.36454
 H486 H 0.42246 0.73776 0.38322
 H487 H 0.45417 0.74678 0.44254
 H488 H 0.48605 0.75823 0.42257
 C489 C 0.47580 0.81897 0.33515
 C490 C 0.51740 0.69791 0.33855
 C491 C 0.43595 0.74105 0.41435
 C492 C 0.55755 0.77516 0.41251
 C493 C 0.39135 -0.01830 0.27074
 H494 H 0.38823 -0.00442 0.28055
 C495 C 0.40413 -0.03493 0.27822
 H496 H 0.41050 -0.03368 0.29397
 C497 C 0.38549 -0.03717 0.23893
 H498 H 0.37797 -0.03817 0.22374
 C499 C 0.39853 -0.05400 0.24561
 H500 H 0.40118 -0.06749 0.23516
 N501 N 0.38209 -0.01980 0.25152
 C502 C 0.36759 0.04297 0.22526
 H503 H 0.35146 0.04028 0.22053
 C504 C 0.37775 0.06188 0.21927
 H505 H 0.36930 0.07360 0.20989
 C506 C 0.39846 0.03036 0.24222
 H507 H 0.40655 0.01797 0.25101
 C508 C 0.40926 0.04907 0.23657
 H509 H 0.42551 0.05099 0.24134
 Zn510 Zn 0.36300 0.00229 0.24337
 N511 N 0.37794 0.02774 0.23665
 C512 C 0.33444 0.02727 0.26800
 N513 N 0.34374 0.00762 0.26607
 C514 C 0.34066 -0.00787 0.28100
 C515 C 0.32891 -0.00342 0.29933
 C516 C 0.32242 0.03235 0.28599
 C517 C 0.35911 -0.00626 0.20036
 C518 C 0.34910 -0.01226 0.18180
 C519 C 0.31687 -0.01770 0.20201
 C520 C 0.32750 -0.01149 0.22021
 N521 N 0.34828 -0.00610 0.21905
 H522 H 0.33693 0.03935 0.25598
 H523 H 0.34784 -0.02354 0.27899
 H524 H 0.32716 -0.01572 0.31136
 H525 H 0.31597 0.04840 0.28766
 H526 H 0.37562 -0.00182 0.19993
 H527 H 0.35811 -0.01267 0.16712
 H528 H 0.30032 -0.02195 0.20315
 H529 H 0.31921 -0.01109 0.23527
 C530 C 0.39887 0.06514 0.22494
 C531 C 0.40781 -0.05323 0.26568
 C532 C 0.32772 -0.01816 0.18249
 C533 C 0.32003 0.01708 0.30219
 C534 C 0.09465 1.02730 0.77722
 H535 H 0.09177 1.01132 0.78329
 C536 C 0.08428 1.04497 0.78638
 H537 H 0.07331 1.04250 0.79943
 C538 C 0.11330 1.05020 0.75364
 H539 H 0.12505 1.05237 0.74131
 C540 C 0.10351 1.06821 0.76243
 H541 H 0.10747 1.08398 0.75637
 N542 N 0.10879 1.03020 0.76107
 C543 C 0.11896 0.96887 0.72931
 H544 H 0.13596 0.97019 0.72775
 C545 C 0.10873 0.95132 0.72073
 H546 H 0.11804 0.93906 0.71276
 C547 C 0.08642 0.98325 0.74197
 H548 H 0.07782 0.99590 0.75003
 C549 C 0.07546 0.96581 0.73358
 H550 H 0.05842 0.96519 0.73522
 Zn551 Zn 0.12480 1.00680 0.75006
 N552 N 0.10783 0.98429 0.73985
 C553 C 0.14152 0.97524 0.77742
 N554 N 0.14248 0.99629 0.77173
 C555 C 0.15543 1.01016 0.78183
 C556 C 0.16830 1.00289 0.79822
 C557 C 0.15430 0.96727 0.79344
 C558 C 0.12961 1.02326 0.70973
 C559 C 0.13984 1.03115 0.69174
 C560 C 0.17340 1.02368 0.70817
 C561 C 0.16247 1.01609 0.72604
 N562 N 0.14096 1.01636 0.72657
 H563 H 0.13072 0.96456 0.76972
 H564 H 0.15567 1.02688 0.77718
 H565 H 0.17858 1.01405 0.80613
 H566 H 0.15324 0.95049 0.79782
 H567 H 0.11252 1.02293 0.71050
 H568 H 0.13052 1.03684 0.67858
 H569 H 0.19051 1.02383 0.70804
 H570 H 0.17116 1.01014 0.73947
 C571 C 0.08669 0.94962 0.72272
 C572 C 0.08894 1.06576 0.77913
 C573 C 0.16199 1.03165 0.69090
 C574 C 0.16790 0.98114 0.80404
 C575 C 0.58552 0.52668 0.26502
 H576 H 0.57792 0.51134 0.26315
 C577 C 0.57384 0.54421 0.27267
 H578 H 0.55726 0.54224 0.27666
 C579 C 0.61626 0.54809 0.26207
 H580 H 0.63287 0.54940 0.25802
 C581 C 0.60514 0.56605 0.26935
 H582 H 0.61333 0.58115 0.27107
 N583 N 0.60641 0.52887 0.26014
 C584 C 0.60697 0.47682 0.22042
 H585 H 0.61592 0.48622 0.20913
 C586 C 0.59658 0.45851 0.21358
 H587 H 0.59736 0.45430 0.19698
 C588 C 0.59543 0.47057 0.25569
 H589 H 0.59553 0.47514 0.27218
 C590 C 0.58473 0.45207 0.24949
 H591 H 0.57656 0.44248 0.26129
 Zn592 Zn 0.62319 0.50566 0.25013
 N593 N 0.60636 0.48243 0.24118
 C594 C 0.65120 0.47661 0.26929
 N595 N 0.64091 0.49565 0.27197
 C596 C 0.64219 0.50675 0.29038
 C597 C 0.65419 0.49874 0.30704
 C598 C 0.66325 0.46791 0.28561
 C599 C 0.62906 0.52826 0.21263
 C600 C 0.63980 0.53671 0.19516
 C601 C 0.67169 0.51911 0.20705
 C602 C 0.66037 0.51121 0.22452
 N603 N 0.63942 0.51585 0.22691
 H604 H 0.64964 0.46794 0.25460
 H605 H 0.63376 0.52175 0.29231
 H606 H 0.65513 0.50796 0.32147
 H607 H 0.67081 0.45244 0.28336
 H608 H 0.61238 0.53163 0.21489
 H609 H 0.63129 0.54657 0.18394
 H610 H 0.68838 0.51543 0.20533
 H611 H 0.66832 0.50139 0.23611
 C612 C 0.58556 0.44567 0.22822
 C613 C 0.58370 0.56419 0.27491
 C614 C 0.66138 0.53217 0.19224
 C615 C 0.66473 0.47894 0.30490
 C616 C 0.88558 0.47773 0.77541
 H617 H 0.88272 0.49247 0.78402
 C618 C 0.89654 0.46084 0.78496
 H619 H 0.90188 0.46273 0.80104
 C620 C 0.88093 0.45711 0.74445
 H621 H 0.87454 0.45550 0.72881
 C622 C 0.89205 0.43993 0.75327
 H623 H 0.89449 0.42556 0.74397
 N624 N 0.87801 0.47561 0.75551
 C625 C 0.87060 0.53729 0.72427
 H626 H 0.85475 0.53512 0.71846
 C627 C 0.88181 0.55574 0.71888
 H628 H 0.87456 0.56742 0.70850
 C629 C 0.89925 0.52430 0.74452
 H630 H 0.90589 0.51205 0.75461
 C631 C 0.91098 0.54268 0.73970
 H632 H 0.92656 0.54443 0.74633
 Zn633 Zn 0.86186 0.49860 0.74426
 N634 N 0.87933 0.52212 0.73698
 C635 C 0.84328 0.52803 0.77252
 N636 N 0.84220 0.50752 0.76538
 C637 C 0.82874 0.49313 0.77446
 C638 C 0.81578 0.49921 0.79157
 C639 C 0.83075 0.53473 0.78955
 C640 C 0.86085 0.48605 0.70218
 C641 C 0.85219 0.47992 0.68299
 C642 C 0.81740 0.48242 0.69904
 C643 C 0.82678 0.48846 0.71802
 N644 N 0.84817 0.48992 0.71927
 H645 H 0.85439 0.53913 0.76551
 H646 H 0.82844 0.47680 0.76872
 H647 H 0.80526 0.48753 0.79868
 H648 H 0.83261 0.55091 0.79540
 H649 H 0.87780 0.48764 0.70354
 H650 H 0.86268 0.47643 0.66976
 H651 H 0.80035 0.48148 0.69826
 H652 H 0.81694 0.49208 0.73166
 C653 C 0.90219 0.55883 0.72685
 C654 C 0.89989 0.44154 0.77390
 C655 C 0.83018 0.47803 0.68119
 C656 C 0.81686 0.52024 0.79947
 C657 C 0.26791 0.40927 -0.02626
 H658 H 0.27614 0.41211 -0.01165
 C659 C 0.27486 0.41910 -0.04500
 H660 H 0.28856 0.42941 -0.04465
 C661 C 0.24105 0.39109 -0.04465
 H662 H 0.22836 0.37961 -0.04475
 C663 C 0.24730 0.40070 -0.06363
 H664 H 0.23882 0.39693 -0.07789
 N665 N 0.25140 0.39539 -0.02644
 C666 C 0.23259 0.38754 0.03969
 H667 H 0.23404 0.37025 0.04049
 C668 C 0.22713 0.39911 0.05776
 H669 H 0.22421 0.39065 0.07249
 C670 C 0.23461 0.41956 0.01939
 H671 H 0.23757 0.42736 0.00436
 C672 C 0.22871 0.43179 0.03710
 H673 H 0.22723 0.44906 0.03570
 Zn674 Zn 0.24478 0.37973 -0.00146
 N675 N 0.23661 0.39787 0.02112
 C676 C 0.28076 0.37226 0.02276
 N677 N 0.26959 0.36449 0.00625
 C678 C 0.27705 0.34772 -0.00548
 C679 C 0.29614 0.33763 -0.00024
 C680 C 0.29999 0.36297 0.02826
 C681 C 0.20341 0.37223 -0.01155
 C682 C 0.18559 0.36098 -0.01767
 C683 C 0.20438 0.32777 -0.01114
 C684 C 0.22207 0.33974 -0.00538
 N685 N 0.22145 0.36158 -0.00639
 H686 H 0.27513 0.38615 0.03136
 H687 H 0.26834 0.34235 -0.01906
 H688 H 0.30198 0.32430 -0.00964
 H689 H 0.30869 0.36945 0.04141
 H690 H 0.20322 0.38960 -0.01178
 H691 H 0.17163 0.36975 -0.02256
 H692 H 0.20521 0.31041 -0.01106
 H693 H 0.23632 0.33156 -0.00054
 C694 C 0.22523 0.42149 0.05661
 C695 C 0.26473 0.41455 -0.06412
 C696 C 0.18612 0.33851 -0.01798
 C697 C 0.30789 0.34547 0.01671
 C698 C 0.76702 0.09245 1.03368
 H699 H 0.77522 0.08902 1.01895
 C700 C 0.77304 0.08191 1.05222
 H701 H 0.78595 0.07043 1.05158
 C702 C 0.74113 0.11257 1.05259
 H703 H 0.72898 0.12483 1.05281
 C704 C 0.74661 0.10241 1.07145
 H705 H 0.73830 0.10671 1.08591
 N706 N 0.75155 0.10773 1.03424
 C707 C 0.73630 0.11579 0.96722
 H708 H 0.73696 0.13298 0.96574
 C709 C 0.73159 0.10362 0.94948
 H710 H 0.72890 0.11164 0.93452
 C711 C 0.73762 0.08454 0.98857
 H712 H 0.73957 0.07718 1.00390
 C713 C 0.73253 0.07173 0.97122
 H714 H 0.73091 0.05456 0.97327
 Zn715 Zn 0.74553 0.12427 1.00969
 N716 N 0.73955 0.10619 0.98626
 C717 C 0.76709 0.15745 0.98770
 N718 N 0.76912 0.14217 1.00299
 C719 C 0.78791 0.13909 1.01289
 C720 C 0.80583 0.15054 1.00652
 C721 C 0.78460 0.16914 0.98077
 C722 C 0.70249 0.13047 1.01625
 C723 C 0.68382 0.14141 1.02138
 C724 C 0.70386 0.17415 1.02407
 C725 C 0.72220 0.16255 1.01895
 N726 N 0.72116 0.14110 1.01523
 H727 H 0.75189 0.16062 0.98079
 H728 H 0.78928 0.12738 1.02538
 H729 H 0.82082 0.14720 1.01397
 H730 H 0.78275 0.18088 0.96825
 H731 H 0.70219 0.11336 1.01347
 H732 H 0.66924 0.13248 1.02271
 H733 H 0.70497 0.19122 1.02697
 H734 H 0.73727 0.17061 1.01839
 C735 C 0.72963 0.08132 0.95135
 C736 C 0.76304 0.08715 1.07151
 C737 C 0.68435 0.16353 1.02552
 C738 C 0.80439 0.16535 0.98986
 C739 C 0.27918 0.61446 0.52512
 H740 H 0.28943 0.62377 0.51493
 C741 C 0.28798 0.60266 0.54160
 H742 H 0.30484 0.60366 0.54414
 C743 C 0.24496 0.60208 0.53424
 H744 H 0.22821 0.60182 0.53133
 C745 C 0.25315 0.58985 0.55086
 H746 H 0.24253 0.58016 0.56040
 N747 N 0.25794 0.61441 0.52198
 C748 C 0.22632 0.62677 0.46228
 H749 H 0.22347 0.64383 0.46386
 C750 C 0.21995 0.61610 0.44413
 H751 H 0.21194 0.62499 0.43182
 C752 C 0.24053 0.59451 0.47636
 H753 H 0.24887 0.58631 0.48887
 C754 C 0.23412 0.58311 0.45856
 H755 H 0.23753 0.56610 0.45741
 Zn756 Zn 0.24674 0.63256 0.50046
 N757 N 0.23682 0.61601 0.47769
 C758 C 0.27459 0.64983 0.46964
 N759 N 0.26856 0.65105 0.49032
 C760 C 0.27899 0.66394 0.50401
 C761 C 0.29669 0.67555 0.49721
 C762 C 0.29190 0.66137 0.46212
 C763 C 0.20514 0.63776 0.51477
 C764 C 0.18716 0.64844 0.52235
 C765 C 0.20681 0.68154 0.52182
 C766 C 0.22446 0.67020 0.51424
 N767 N 0.22343 0.64862 0.51118
 H768 H 0.26643 0.63939 0.45895
 H769 H 0.27414 0.66442 0.52048
 H770 H 0.30533 0.68490 0.50857
 H771 H 0.29631 0.66007 0.44558
 H772 H 0.20441 0.62079 0.51144
 H773 H 0.17294 0.63934 0.52551
 H774 H 0.20790 0.69871 0.52410
 H775 H 0.23888 0.67872 0.51071
 C776 C 0.22406 0.59406 0.44202
 C777 C 0.27494 0.59026 0.55490
 C778 C 0.18785 0.67062 0.52607
 C779 C 0.30362 0.67398 0.47606
 C780 C 0.76631 0.90042 0.48688
 H781 H 0.77468 0.90260 0.50152
 C782 C 0.77253 0.91186 0.46879
 H783 H 0.78592 0.92254 0.46962
 C784 C 0.73933 0.88315 0.46785
 H785 H 0.72637 0.87199 0.46742
 C786 C 0.74486 0.89437 0.44951
 H787 H 0.73598 0.89170 0.43525
 N788 N 0.75050 0.88575 0.48589
 C789 C 0.73347 0.87391 0.55229
 H790 H 0.73541 0.85676 0.55331
 C791 C 0.72796 0.88535 0.57046
 H792 H 0.72580 0.87683 0.58528
 C793 C 0.73314 0.90579 0.53180
 H794 H 0.73504 0.91368 0.51665
 C795 C 0.72726 0.91786 0.54959
 H796 H 0.72486 0.93502 0.54807
 Zn797 Zn 0.74424 0.86755 0.50944
 N798 N 0.73624 0.88420 0.53346
 C799 C 0.76497 0.83317 0.52949
 N800 N 0.76808 0.85001 0.51607
 C801 C 0.78763 0.85417 0.50784
 C802 C 0.80516 0.84217 0.51424
 C803 C 0.78206 0.82089 0.53646
 C804 C 0.70173 0.85367 0.50893
 C805 C 0.68478 0.84197 0.50111
 C806 C 0.70954 0.82102 0.48014
 C807 C 0.72599 0.83308 0.48837
 N808 N 0.72177 0.84935 0.50210
 H809 H 0.74919 0.82928 0.53492
 H810 H 0.78988 0.86703 0.49664
 H811 H 0.82071 0.84628 0.50819
 H812 H 0.77935 0.80791 0.54758
 H813 H 0.69878 0.86683 0.51970
 H814 H 0.66883 0.84631 0.50592
 H815 H 0.71313 0.80850 0.46879
 H816 H 0.74209 0.83008 0.48316
 C817 C 0.72482 0.90760 0.56925
 C818 C 0.76212 0.90842 0.44961
 C819 C 0.68856 0.82578 0.48609
 C820 C 0.80253 0.82565 0.52915
 C821 C -0.01445 0.27616 0.38047
 H822 H -0.00685 0.28609 0.36868
 C823 C -0.03179 0.28439 0.39176
 H824 H -0.03754 0.30038 0.38814
 C825 C -0.01642 0.24349 0.39953
 H826 H -0.01010 0.22779 0.40300
 C827 C -0.03393 0.25100 0.41106
 H828 H -0.04110 0.24082 0.42303
 N829 N -0.00754 0.25572 0.38395
 C830 C 0.04642 0.21514 0.37896
 H831 H 0.04053 0.20509 0.36649
 C832 C 0.06416 0.20856 0.39018
 H833 H 0.07166 0.19336 0.38633
 C834 C 0.04457 0.24762 0.39835
 H835 H 0.03691 0.26293 0.40122
 C836 C 0.06250 0.24177 0.40979
 H837 H 0.06846 0.25252 0.42170
 Zn838 Zn 0.01415 0.24361 0.36624
 N839 N 0.03701 0.23437 0.38317
 C840 C 0.04476 0.27077 0.34771
 N841 N 0.02419 0.26471 0.34669
 C842 C 0.01082 0.27409 0.33264
 C843 C 0.01782 0.29081 0.31955
 C844 C 0.05237 0.28741 0.33502
 C845 C -0.00341 0.20240 0.36337
 C846 C -0.01192 0.18437 0.35378
 C847 C -0.00626 0.20119 0.31977
 C848 C 0.00214 0.21900 0.33007
 N849 N 0.00315 0.21945 0.35157
 H850 H 0.05528 0.26307 0.35874
 H851 H -0.00546 0.26896 0.33200
 H852 H 0.00688 0.29822 0.30867
 H853 H 0.06858 0.29248 0.33684
 H854 H -0.00170 0.20252 0.38029
 H855 H -0.01743 0.17127 0.36365
 H856 H -0.00685 0.20110 0.30267
 H857 H 0.00793 0.23235 0.32081
 C858 C 0.07252 0.22201 0.40569
 C859 C -0.04209 0.27154 0.40689
 C860 C -0.01352 0.18358 0.33169
 C861 C 0.03880 0.29791 0.32088
 C862 C 1.02743 0.78313 0.10222
 H863 H 1.01707 0.79418 0.11050
 C864 C 1.04425 0.79116 0.09016
 H865 H 1.04686 0.80832 0.08974
 C866 C 1.03678 0.74751 0.09290
 H867 H 1.03384 0.73052 0.09391
 C868 C 1.05381 0.75486 0.08064
 H869 H 1.06369 0.74337 0.07226
 N870 N 1.02425 0.76160 0.10379
 C871 C 0.96574 0.72800 0.11810
 H872 H 0.96731 0.72661 0.13506
 C873 C 0.94873 0.71847 0.10811
 H874 H 0.93713 0.70993 0.11759
 C875 C 0.97884 0.74135 0.08535
 H876 H 0.99070 0.75030 0.07664
 C877 C 0.96199 0.73201 0.07466
 H878 H 0.96111 0.73364 0.05764
 Zn879 Zn 1.00253 0.75127 0.12226
 N880 N 0.98030 0.73922 0.10670
 C881 C 0.97070 0.77904 0.13838
 N882 N 0.99171 0.77429 0.13900
 C883 C 1.00505 0.78597 0.15110
 C884 C 0.99735 0.80307 0.16328
 C885 C 0.96230 0.79574 0.15053
 C886 C 1.01708 0.70971 0.13074
 C887 C 1.02394 0.69231 0.14282
 C888 C 1.02215 0.71475 0.17385
 C889 C 1.01537 0.73179 0.16113
 N890 N 1.01320 0.72907 0.13992
 H891 H 0.96035 0.76998 0.12840
 H892 H 1.02174 0.78205 0.15117
 H893 H 1.00812 0.81219 0.17287
 H894 H 0.94555 0.79931 0.14980
 H895 H 1.01435 0.70758 0.11406
 H896 H 1.02724 0.67717 0.13505
 H897 H 1.02354 0.71718 0.19071
 H898 H 1.01158 0.74702 0.16835
 C899 C 0.94670 0.72032 0.08610
 C900 C 1.05792 0.77695 0.07941
 C901 C 1.02652 0.69466 0.16470
 C902 C 0.97568 0.80796 0.16318
 C903 C 0.53505 0.26558 0.59018
 H904 H 0.51944 0.27179 0.58681
 C905 C 0.55250 0.27262 0.57833
 H906 H 0.55003 0.28389 0.56552
 C907 C 0.55713 0.24354 0.61117
 H908 H 0.55899 0.23267 0.62435
 C909 C 0.57500 0.25031 0.59990
 H910 H 0.59038 0.24450 0.60467
 N911 N 0.53764 0.25122 0.60618
 C912 C 0.47576 0.22352 0.61946
 H913 H 0.47620 0.22488 0.63650
 C914 C 0.45835 0.21430 0.60990
 H915 H 0.44534 0.20879 0.61975
 C916 C 0.49213 0.22965 0.58608
 H917 H 0.50543 0.23547 0.57690
 C918 C 0.47490 0.22050 0.57580
 H919 H 0.47514 0.21929 0.55872
 Zn920 Zn 0.51404 0.24370 0.62334
 N921 N 0.49207 0.23122 0.60754
 C922 C 0.48379 0.27585 0.63212
 N923 N 0.50374 0.26908 0.63647
 C924 C 0.51666 0.28090 0.64887
 C925 C 0.50952 0.30033 0.65755
 C926 C 0.47604 0.29505 0.64045
 C927 C 0.52770 0.20337 0.63520
 C928 C 0.53319 0.18639 0.64845
 C929 C 0.52709 0.20951 0.67857
 C930 C 0.52158 0.22610 0.66467
 N931 N 0.52213 0.22276 0.64342
 H932 H 0.47388 0.26663 0.62184
 H933 H 0.53262 0.27537 0.65175
 H934 H 0.52008 0.30973 0.66710
 H935 H 0.46003 0.29997 0.63688
 H936 H 0.52782 0.20114 0.61824
 H937 H 0.53786 0.17118 0.64153
 H938 H 0.52647 0.21231 0.69545
 H939 H 0.51671 0.24152 0.67088
 C940 C 0.45770 0.21271 0.58779
 C941 C 0.57289 0.26515 0.58328
 C942 C 0.53288 0.18930 0.67045
 C943 C 0.48899 0.30770 0.65317
 C944 C 0.47584 0.77407 0.89103
 H945 H 0.48433 0.78450 0.88029
 C946 C 0.45882 0.78234 0.90276
 H947 H 0.45417 0.79894 0.90052
 C948 C 0.47131 0.73989 0.90682
 H949 H 0.47628 0.72341 0.90855
 C950 C 0.45413 0.74747 0.91879
 H951 H 0.44605 0.73666 0.92958
 N952 N 0.48141 0.75301 0.89276
 C953 C 0.53724 0.71461 0.88390
 H954 H 0.53243 0.70616 0.86988
 C955 C 0.55520 0.70783 0.89462
 H956 H 0.56400 0.69401 0.88887
 C957 C 0.53227 0.74352 0.90779
 H958 H 0.52332 0.75756 0.91262
 C959 C 0.55040 0.73746 0.91883
 H960 H 0.55523 0.74672 0.93238
 Zn961 Zn 0.50281 0.74143 0.87452
 N962 N 0.52609 0.73206 0.89070
 C963 C 0.53290 0.76914 0.85635
 N964 N 0.51235 0.76301 0.85531
 C965 C 0.49876 0.77292 0.84185
 C966 C 0.50561 0.78999 0.82913
 C967 C 0.54033 0.78621 0.84414
 C968 C 0.48829 0.69929 0.87165
 C969 C 0.47976 0.68105 0.86248
 C970 C 0.47882 0.69983 0.82906
 C971 C 0.48754 0.71775 0.83889
 N972 N 0.49173 0.71732 0.85995
 H973 H 0.54352 0.76123 0.86715
 H974 H 0.48241 0.76797 0.84144
 H975 H 0.49450 0.79771 0.81863
 H976 H 0.55651 0.79131 0.84608
 H977 H 0.49260 0.69887 0.88811
 H978 H 0.47742 0.66686 0.87213
 H979 H 0.47507 0.70068 0.81242
 H980 H 0.49076 0.73197 0.82966
 C981 C 0.56203 0.71935 0.91226
 C982 C 0.44743 0.76886 0.91653
 C983 C 0.47461 0.68122 0.84096
 C984 C 0.52661 0.79708 0.83039
 C985 C 0.45237 -0.12570 0.30305
 C986 C 0.44674 -0.14650 0.29632
 C987 C 0.45542 -0.16473 0.30620
 C988 C 0.46875 -0.16272 0.32378
 C989 C 0.47409 -0.14188 0.33039
 C990 C 0.46622 -0.12373 0.32013
 C991 C 0.44239 -0.10667 0.29247
 C992 C 0.44805 -0.08536 0.29697
 C993 C 0.43731 -0.06816 0.28775
 C994 C 0.42048 -0.07165 0.27392
 C995 C 0.41544 -0.09290 0.26859
 C996 C 0.42644 -0.11032 0.27747
 C997 C 0.43170 -0.14900 0.28045
 C998 C 0.42146 -0.13132 0.27155
 H999 H 0.42726 -0.16490 0.27532
 H1000 H 0.40946 -0.13415 0.25982
 H1001 H 0.45036 -0.18044 0.30110
 H1002 H 0.48485 -0.13940 0.34331
 H1003 H 0.44220 -0.05203 0.29159
 H1004 H 0.40252 -0.09604 0.25798
 H1005 H 0.47082 -0.10832 0.32619
 H1006 H 0.46075 -0.08161 0.30753
 C1007 C 0.94148 0.36906 0.81482
 C1008 C 0.93473 0.34825 0.80912
 C1009 C 0.94350 0.33005 0.81894
 C1010 C 0.95844 0.33227 0.83495
 C1011 C 0.96493 0.35287 0.84075
 C1012 C 0.95670 0.37104 0.83077
 C1013 C 0.93161 0.38808 0.80407
 C1014 C 0.93793 0.40937 0.80781
 C1015 C 0.92783 0.42656 0.79784
 C1016 C 0.91107 0.42309 0.78395
 C1017 C 0.90496 0.40186 0.77983
 C1018 C 0.91522 0.38444 0.78953
 C1019 C 0.91888 0.34574 0.79409
 C1020 C 0.90914 0.36345 0.78472
 H1021 H 0.91364 0.32984 0.78977
 H1022 H 0.89671 0.36064 0.77344
 H1023 H 0.93818 0.31415 0.81466
 H1024 H 0.97647 0.35490 0.85309
 H1025 H 0.93332 0.44265 0.80094
 H1026 H 0.89194 0.39883 0.76931
 H1027 H 0.96219 0.38644 0.83605
 H1028 H 0.95071 0.41312 0.81826
 C1029 C 0.05173 1.14230 0.81695
 C1030 C 0.02949 1.14276 0.81968
 C1031 C 0.01947 1.16093 0.82842
 C1032 C 0.03129 1.17870 0.83496
 C1033 C 0.05334 1.17810 0.83231
 C1034 C 0.06343 1.16025 0.82340
 C1035 C 0.06183 1.12263 0.80752
 C1036 C 0.08374 1.12090 0.80354
 C1037 C 0.09237 1.10237 0.79453
 C1038 C 0.07949 1.08499 0.78934
 C1039 C 0.05768 1.08638 0.79342
 C1040 C 0.04875 1.10512 0.80223
 C1041 C 0.01741 1.12499 0.81389
 C1042 C 0.02684 1.10654 0.80550
 H1043 H 0.00039 1.12529 0.81602
 H1044 H 0.01680 1.09320 0.80138
 H1045 H 0.00240 1.16120 0.83015
 H1046 H 0.06297 1.19129 0.83761
 H1047 H 0.10928 1.10157 0.79168
 H1048 H 0.04760 1.07308 0.78922
 H1049 H 0.08042 1.16078 0.82200
 H1050 H 0.09451 1.13369 0.80708
 C1051 C 0.54243 0.63912 0.31154
 C1052 C 0.54468 0.65882 0.30056
 C1053 C 0.53608 0.67781 0.30913
 C1054 C 0.52572 0.67769 0.32892
 C1055 C 0.52388 0.65813 0.33989
 C1056 C 0.53198 0.63913 0.33133
 C1057 C 0.55190 0.61923 0.30192
 C1058 C 0.54962 0.59867 0.31104
 C1059 C 0.55951 0.58079 0.30193
 C1060 C 0.57197 0.58293 0.28358
 C1061 C 0.57379 0.60318 0.27397
 C1062 C 0.56372 0.62123 0.28286
 C1063 C 0.55588 0.65956 0.28132
 C1064 C 0.56543 0.64123 0.27281
 H1065 H 0.55767 0.67463 0.27291
 H1066 H 0.57429 0.64274 0.25810
 H1067 H 0.53756 0.69272 0.30037
 H1068 H 0.51655 0.65751 0.35544
 H1069 H 0.55788 0.56531 0.30960
 H1070 H 0.58308 0.60485 0.25953
 H1071 H 0.53026 0.62475 0.34070
 H1072 H 0.54037 0.59604 0.32524
 C1073 C 0.54702 0.36775 0.19666
 C1074 C 0.55906 0.35585 0.18168
 C1075 C 0.55033 0.33788 0.17187
 C1076 C 0.52956 0.33149 0.17650
 C1077 C 0.51781 0.34288 0.19177
 C1078 C 0.52638 0.36079 0.20174
 C1079 C 0.55670 0.38746 0.20602
 C1080 C 0.54603 0.40078 0.22075
 C1081 C 0.55550 0.41946 0.22825
 C1082 C 0.57578 0.42535 0.22124
 C1083 C 0.58671 0.41189 0.20706
 C1084 C 0.57738 0.39317 0.19939
 C1085 C 0.57963 0.36212 0.17623
 C1086 C 0.58859 0.38037 0.18489
 H1087 H 0.58887 0.35293 0.16485
 H1088 H 0.60447 0.38470 0.17993
 H1089 H 0.55969 0.32892 0.16039
 H1090 H 0.50171 0.33831 0.19557
 H1091 H 0.54674 0.42961 0.23918
 H1092 H 0.60258 0.41605 0.20190
 H1093 H 0.51649 0.36912 0.21309
 H1094 H 0.53030 0.39722 0.22646
 C1095 C 0.04936 0.87265 0.68815
 C1096 C 0.03300 0.86266 0.69999
 C1097 C 0.02396 0.84351 0.69268
 C1098 C 0.03122 0.83400 0.67379
 C1099 C 0.04797 0.84360 0.66260
 C1100 C 0.05690 0.86262 0.66960
 C1101 C 0.05831 0.89325 0.69614
 C1102 C 0.07373 0.90495 0.68482
 C1103 C 0.08234 0.92349 0.69329
 C1104 C 0.07583 0.93099 0.71324
 C1105 C 0.05973 0.92006 0.72424
 C1106 C 0.05090 0.90130 0.71581
 C1107 C 0.02592 0.87176 0.71906
 C1108 C 0.03485 0.89051 0.72693
 H1109 H 0.01346 0.86411 0.72821
 H1110 H 0.02904 0.89671 0.74192
 H1111 H 0.01109 0.83620 0.70153
 H1112 H 0.05435 0.83629 0.64835
 H1113 H 0.09428 0.93197 0.68419
 H1114 H 0.05451 0.92578 0.73963
 H1115 H 0.06980 0.86902 0.66030
 H1116 H 0.07944 0.90009 0.66942
 C1117 C 0.94681 0.63691 0.70301
 C1118 C 0.93419 0.65538 0.69942
 C1119 C 0.94338 0.67417 0.69127
 C1120 C 0.96516 0.67509 0.68680
 C1121 C 0.97779 0.65711 0.69147
 C1122 C 0.96879 0.63828 0.69943
 C1123 C 0.93609 0.61665 0.71011
 C1124 C 0.94687 0.59691 0.71239
 C1125 C 0.93595 0.57828 0.71806
 C1126 C 0.91403 0.57882 0.72177
 C1127 C 0.90327 0.59853 0.72000
 C1128 C 0.91400 0.61724 0.71388
 C1129 C 0.91242 0.65491 0.70363
 C1130 C 0.90258 0.63633 0.71097
 H1131 H 0.90278 0.66911 0.70111
 H1132 H 0.88566 0.63678 0.71387
 H1133 H 0.93333 0.68781 0.68765
 H1134 H 0.99472 0.65749 0.68877
 H1135 H 0.94466 0.56330 0.71900
 H1136 H 0.88641 0.59933 0.72317
 H1137 H 0.97930 0.62497 0.70252
 H1138 H 0.96363 0.59538 0.70938
 C1139 C 0.44053 0.14242 0.19439
 C1140 C 0.42831 0.16155 0.19431
 C1141 C 0.43665 0.18045 0.18550
 C1142 C 0.45707 0.18068 0.17655
 C1143 C 0.46932 0.16184 0.17709
 C1144 C 0.46123 0.14298 0.18589
 C1145 C 0.43068 0.12235 0.20309
 C1146 C 0.44124 0.10235 0.20335
 C1147 C 0.43104 0.08395 0.21078
 C1148 C 0.41007 0.08496 0.21821
 C1149 C 0.39959 0.10489 0.21850
 C1150 C 0.40964 0.12347 0.21094
 C1151 C 0.40773 0.16165 0.20273
 C1152 C 0.39861 0.14303 0.21089
 H1153 H 0.39841 0.17631 0.20280
 H1154 H 0.38253 0.14391 0.21699
 H1155 H 0.42716 0.19500 0.18547
 H1156 H 0.48505 0.16149 0.17011
 H1157 H 0.43944 0.06876 0.21017
 H1158 H 0.38349 0.10593 0.22452
 H1159 H 0.47135 0.12899 0.18556
 H1160 H 0.45726 0.10046 0.19759
 C1161 C 0.29908 0.44636 -0.14407
 C1162 C 0.30833 0.46698 -0.14407
 C1163 C 0.31836 0.47490 -0.16245
 C1164 C 0.31934 0.46252 -0.18098
 C1165 C 0.30940 0.44247 -0.18112
 C1166 C 0.29938 0.43449 -0.16300
 C1167 C 0.28962 0.43796 -0.12383
 C1168 C 0.28123 0.41716 -0.12192
 C1169 C 0.27314 0.40981 -0.10264
 C1170 C 0.27299 0.42297 -0.08466
 C1171 C 0.28128 0.44379 -0.08638
 C1172 C 0.28971 0.45127 -0.10572
 C1173 C 0.30780 0.47943 -0.12564
 C1174 C 0.29854 0.47182 -0.10695
 H1175 H 0.31474 0.49528 -0.12565
 H1176 H 0.29862 0.48205 -0.09312
 H1177 H 0.32604 0.49039 -0.16210
 H1178 H 0.30949 0.43281 -0.19534
 H1179 H 0.26739 0.39350 -0.10174
 H1180 H 0.28120 0.45418 -0.07267
 H1181 H 0.29213 0.41894 -0.16418
 H1182 H 0.28107 0.40611 -0.13500
 C1183 C 0.79637 0.94453 0.37148
 C1184 C 0.80492 0.96544 0.37237
 C1185 C 0.81500 0.97435 0.35444
 C1186 C 0.81688 0.96258 0.33560
 C1187 C 0.80781 0.94214 0.33463
 C1188 C 0.79765 0.93324 0.35222
 C1189 C 0.78670 0.93515 0.39119
 C1190 C 0.77851 0.91419 0.39206
 C1191 C 0.77038 0.90585 0.41092
 C1192 C 0.77001 0.91811 0.42950
 C1193 C 0.77792 0.93913 0.42878
 C1194 C 0.78631 0.94767 0.40984
 C1195 C 0.80373 0.97715 0.39124
 C1196 C 0.79458 0.96848 0.40954
 H1197 H 0.81017 0.99320 0.39194
 H1198 H 0.79424 0.97814 0.42377
 H1199 H 0.82202 0.99014 0.35538
 H1200 H 0.80869 0.93291 0.32015
 H1201 H 0.76484 0.88945 0.41103
 H1202 H 0.77760 0.94885 0.44297
 H1203 H 0.79115 0.91742 0.35040
 H1204 H 0.77851 0.90379 0.37848
 C1205 C 0.79610 0.05110 1.14946
 C1206 C 0.80263 0.02938 1.14899
 C1207 C 0.81231 0.02007 1.16668
 C1208 C 0.81600 0.03204 1.18520
 C1209 C 0.80875 0.05351 1.18565
 C1210 C 0.79902 0.06284 1.16816
 C1211 C 0.78668 0.06068 1.12989
 C1212 C 0.78025 0.08233 1.12853
 C1213 C 0.77231 0.09068 1.10971
 C1214 C 0.77049 0.07773 1.09172
 C1215 C 0.77651 0.05605 1.09300
 C1216 C 0.78460 0.04749 1.11184
 C1217 C 0.79971 0.01706 1.13076
 C1218 C 0.79089 0.02591 1.11260
 H1219 H 0.80458 0.00035 1.13042
 H1220 H 0.78922 0.01576 1.09885
 H1221 H 0.81649 0.00321 1.16595
 H1222 H 0.81150 0.06379 1.19905
 H1223 H 0.76809 0.10754 1.10911
 H1224 H 0.77496 0.04583 1.07927
 H1225 H 0.79428 0.07944 1.16954
 H1226 H 0.78147 0.09320 1.14167
 C1227 C 0.31311 0.54859 0.62760
 C1228 C 0.30076 0.54706 0.64636
 C1229 C 0.30940 0.53785 0.66469
 C1230 C 0.33050 0.53061 0.66483
 C1231 C 0.34285 0.53292 0.64635
 C1232 C 0.33431 0.54166 0.62801
 C1233 C 0.30325 0.55816 0.60828
 C1234 C 0.31372 0.55895 0.58851
 C1235 C 0.30426 0.56882 0.57119
 C1236 C 0.28411 0.57827 0.57304
 C1237 C 0.27318 0.57677 0.59249
 C1238 C 0.28249 0.56663 0.60998
 C1239 C 0.28000 0.55505 0.64681
 C1240 C 0.27119 0.56495 0.62912
 H1241 H 0.27053 0.55401 0.66118
 H1242 H 0.25521 0.57124 0.63041
 H1243 H 0.29963 0.53623 0.67880
 H1244 H 0.35936 0.52824 0.64608
 H1245 H 0.31281 0.56905 0.55625
 H1246 H 0.25761 0.58395 0.59422
 H1247 H 0.34473 0.54315 0.61446
 H1248 H 0.32920 0.55200 0.58602
 C1249 C 0.19719 0.55230 0.36505
 C1250 C 0.18364 0.53445 0.36744
 C1251 C 0.17446 0.52513 0.34961
 C1252 C 0.17879 0.53315 0.32925
 C1253 C 0.19308 0.55008 0.32682
 C1254 C 0.20218 0.55958 0.34445
 C1255 C 0.20527 0.56289 0.38459
 C1256 C 0.21716 0.58193 0.38399
 C1257 C 0.22340 0.59178 0.40265
 C1258 C 0.21819 0.58283 0.42238
 C1259 C 0.20676 0.56364 0.42322
 C1260 C 0.19995 0.55384 0.40453
 C1261 C 0.17909 0.52618 0.38760
 C1262 C 0.18729 0.53551 0.40573
 H1263 H 0.16892 0.51235 0.38942
 H1264 H 0.18320 0.52858 0.42097
 H1265 H 0.16372 0.51175 0.35155
 H1266 H 0.19666 0.55651 0.31125
 H1267 H 0.23233 0.60654 0.40168
 H1268 H 0.20246 0.55681 0.43846
 H1269 H 0.21284 0.57273 0.34159
 H1270 H 0.22144 0.58975 0.36933
 C1271 C 0.69965 0.03816 0.87647
 C1272 C 0.68063 0.02657 0.87874
 C1273 C 0.67048 0.01855 0.86083
 C1274 C 0.67895 0.02166 0.84028
 C1275 C 0.69862 0.03208 0.83840
 C1276 C 0.70873 0.04025 0.85613
 C1277 C 0.70898 0.04808 0.89581
 C1278 C 0.72670 0.06166 0.89496
 C1279 C 0.73377 0.07184 0.91316
 C1280 C 0.72358 0.06854 0.93270
 C1281 C 0.70645 0.05442 0.93392
 C1282 C 0.69886 0.04450 0.91562
 C1283 C 0.67165 0.02324 0.89885
 C1284 C 0.68069 0.03183 0.91691
 H1285 H 0.65723 0.01408 0.90064
 H1286 H 0.67295 0.02904 0.93205
 H1287 H 0.65610 0.00946 0.86315
 H1288 H 0.70583 0.03521 0.82312
 H1289 H 0.74708 0.08265 0.91191
 H1290 H 0.69832 0.05208 0.94895
 H1291 H 0.72348 0.04846 0.85348
 H1292 H 0.73496 0.06516 0.88034
 C1293 C 0.69634 0.95039 0.64601
 C1294 C 0.67727 0.96229 0.64483
 C1295 C 0.66806 0.97103 0.66324
 C1296 C 0.67769 0.96840 0.68300
 C1297 C 0.69705 0.95733 0.68394
 C1298 C 0.70626 0.94843 0.66576
 C1299 C 0.70490 0.94012 0.62621
 C1300 C 0.72279 0.92651 0.62602
 C1301 C 0.72943 0.91639 0.60741
 C1302 C 0.71862 0.91974 0.58847
 C1303 C 0.70114 0.93368 0.58830
 C1304 C 0.69400 0.94357 0.60704
 C1305 C 0.66734 0.96522 0.62535
 C1306 C 0.67565 0.95626 0.60683
 H1307 H 0.65284 0.97451 0.62440
 H1308 H 0.66729 0.95890 0.59219
 H1309 H 0.65302 0.97936 0.66220
 H1310 H 0.70516 0.95550 0.69881
 H1311 H 0.74303 0.90574 0.60784
 H1312 H 0.69254 0.93607 0.57375
 H1313 H 0.72110 0.94006 0.66756
 H1314 H 0.73160 0.92307 0.64012
 C1315 C 0.19712 0.46285 0.13406
 C1316 C 0.17761 0.47404 0.13335
 C1317 C 0.16825 0.48189 0.15206
 C1318 C 0.17817 0.47912 0.17166
 C1319 C 0.19799 0.46889 0.17213
 C1320 C 0.20735 0.46084 0.15364
 C1321 C 0.20576 0.45327 0.11397
 C1322 C 0.22396 0.44011 0.11336
 C1323 C 0.23053 0.43035 0.09455
 C1324 C 0.21938 0.43371 0.07582
 C1325 C 0.20168 0.44734 0.07601
 C1326 C 0.19455 0.45678 0.09499
 C1327 C 0.16741 0.47711 0.11404
 C1328 C 0.17583 0.46890 0.09523
 H1329 H 0.15258 0.48591 0.11345
 H1330 H 0.16723 0.47158 0.08074
 H1331 H 0.15286 0.48959 0.15137
 H1332 H 0.20634 0.46704 0.18686
 H1333 H 0.24424 0.41984 0.09467
 H1334 H 0.19284 0.44968 0.06160
 H1335 H 0.22254 0.45307 0.15508
 H1336 H 0.23299 0.43661 0.12731
 C1337 C -0.12081 0.30389 0.44342
 C1338 C -0.12094 0.32538 0.45059
 C1339 C -0.13975 0.33478 0.45821
 C1340 C -0.15882 0.32334 0.45836
 C1341 C -0.15864 0.30200 0.45130
 C1342 C -0.13992 0.29236 0.44399
 C1343 C -0.10042 0.29462 0.43499
 C1344 C -0.09842 0.27325 0.42793
 C1345 C -0.07933 0.26570 0.41936
 C1346 C -0.06175 0.27922 0.41754
 C1347 C -0.06337 0.30031 0.42509
 C1348 C -0.08244 0.30804 0.43388
 C1349 C -0.10240 0.33755 0.44973
 C1350 C -0.08363 0.32914 0.44138
 H1351 H -0.10250 0.35401 0.45524
 H1352 H -0.06983 0.33935 0.44071
 H1353 H -0.13954 0.35115 0.46395
 H1354 H -0.17311 0.29284 0.45093
 H1355 H -0.07849 0.24938 0.41356
 H1356 H -0.04974 0.31075 0.42407
 H1357 H -0.14089 0.27604 0.43849
 H1358 H -0.11142 0.26217 0.42870
 C1359 C 0.37011 0.80311 0.95438
 C1360 C 0.37083 0.82442 0.96202
 C1361 C 0.35229 0.83462 0.96929
 C1362 C 0.33274 0.82410 0.96879
 C1363 C 0.33211 0.80281 0.96171
 C1364 C 0.35052 0.79241 0.95463
 C1365 C 0.39013 0.79321 0.94576
 C1366 C 0.39111 0.77223 0.93751
 C1367 C 0.40985 0.76421 0.92859
 C1368 C 0.42812 0.77684 0.92765
 C1369 C 0.42751 0.79748 0.93644
 C1370 C 0.40874 0.80573 0.94543
 C1371 C 0.38993 0.83565 0.96189
 C1372 C 0.40846 0.82654 0.95371
 H1373 H 0.39050 0.85194 0.96783
 H1374 H 0.42274 0.83606 0.95361
 H1375 H 0.35305 0.85094 0.97511
 H1376 H 0.31724 0.79436 0.96100
 H1377 H 0.40985 0.74828 0.92178
 H1378 H 0.44164 0.80724 0.93611
 H1379 H 0.34895 0.77617 0.94904
 H1380 H 0.37753 0.76186 0.93748
 C1381 C 1.13279 0.81137 0.03744
 C1382 C 1.15192 0.79972 0.03976
 C1383 C 1.17091 0.80783 0.03124
 C1384 C 1.17126 0.82763 0.02058
 C1385 C 1.15224 0.83909 0.01832
 C1386 C 1.13329 0.83111 0.02654
 C1387 C 1.11295 0.80241 0.04717
 C1388 C 1.09311 0.81273 0.04568
 C1389 C 1.07528 0.80421 0.05577
 C1390 C 1.07666 0.78517 0.06757
 C1391 C 1.09622 0.77444 0.06864
 C1392 C 1.11428 0.78288 0.05858
 C1393 C 1.15206 0.78021 0.05083
 C1394 C 1.13367 0.77203 0.06012
 H1395 H 1.16667 0.77125 0.05260
 H1396 H 1.13469 0.75702 0.06877
 H1397 H 1.18544 0.79871 0.03297
 H1398 H 1.15204 0.85462 0.01058
 H1399 H 1.06032 0.81260 0.05433
 H1400 H 1.09755 0.75980 0.07786
 H1401 H 1.11932 0.84085 0.02444
 H1402 H 1.09099 0.82744 0.03693
 C1403 C 0.64874 0.29934 0.54262
 C1404 C 0.64799 0.32109 0.53610
 C1405 C 0.66584 0.33064 0.52675
 C1406 C 0.68479 0.31906 0.52418
 C1407 C 0.68571 0.29768 0.53108
 C1408 C 0.66792 0.28787 0.54010
 C1409 C 0.62920 0.28973 0.55238
 C1410 C 0.62785 0.26799 0.55841
 C1411 C 0.60948 0.25999 0.56797
 C1412 C 0.59195 0.27342 0.57189
 C1413 C 0.59299 0.29499 0.56545
 C1414 C 0.61129 0.30313 0.55560
 C1415 C 0.62957 0.33331 0.53925
 C1416 C 0.61171 0.32461 0.54902
 H1417 H 0.62905 0.34999 0.53435
 H1418 H 0.59797 0.33484 0.55137
 H1419 H 0.66515 0.34733 0.52187
 H1420 H 0.70020 0.28846 0.52927
 H1421 H 0.60901 0.24316 0.57226
 H1422 H 0.57971 0.30566 0.56850
 H1423 H 0.66957 0.27140 0.54513
 H1424 H 0.64076 0.25687 0.55583
 C1425 C 0.38130 0.17791 0.55154
 C1426 C 0.37354 0.18773 0.53294
 C1427 C 0.35475 0.18035 0.52382
 C1428 C 0.34341 0.16338 0.53313
 C1429 C 0.35085 0.15424 0.55195
 C1430 C 0.36948 0.16133 0.56102
 C1431 C 0.40157 0.18588 0.56057
 C1432 C 0.41106 0.17641 0.57837
 C1433 C 0.42949 0.18486 0.58671
 C1434 C 0.43906 0.20296 0.57760
 C1435 C 0.43022 0.21204 0.55933
 C1436 C 0.41163 0.20360 0.55075
 C1437 C 0.38451 0.20490 0.52367
 C1438 C 0.40301 0.21281 0.53251
 H1439 H 0.37858 0.21250 0.50948
 H1440 H 0.41073 0.22629 0.52488
 H1441 H 0.34915 0.18759 0.50931
 H1442 H 0.34212 0.14158 0.55985
 H1443 H 0.43628 0.17717 0.60045
 H1444 H 0.43749 0.22602 0.55213
 H1445 H 0.37419 0.15367 0.57554
 H1446 H 0.40456 0.16247 0.58613
 C1447 C 0.87311 0.68154 0.04804
 C1448 C 0.86305 0.69296 0.03156
 C1449 C 0.84474 0.68466 0.02226
 C1450 C 0.83611 0.66516 0.02935
 C1451 C 0.84584 0.65428 0.04612
 C1452 C 0.86405 0.66226 0.05530
 C1453 C 0.89273 0.69070 0.05739
 C1454 C 0.90435 0.68000 0.07313
 C1455 C 0.92203 0.68950 0.08195
 C1456 C 0.92871 0.70991 0.07539
 C1457 C 0.91773 0.72039 0.05913
 C1458 C 0.89987 0.71092 0.05007
 C1459 C 0.87123 0.71266 0.02463
 C1460 C 0.88910 0.72155 0.03383
 H1461 H 0.86354 0.72149 0.01206
 H1462 H 0.89461 0.73696 0.02810
 H1463 H 0.83735 0.69327 0.00936
 H1464 H 0.83920 0.63957 0.05240
 H1465 H 0.93055 0.68078 0.09403
 H1466 H 0.92276 0.73616 0.05389
 H1467 H 0.87057 0.65316 0.06821
 H1468 H 0.90013 0.66428 0.07888
 C1469 C 0.63995 0.69016 0.95087
 C1470 C 0.64128 0.66805 0.95597
 C1471 C 0.65984 0.65953 0.96457
 C1472 C 0.67749 0.67254 0.96787
 C1473 C 0.67643 0.69432 0.96235
 C1474 C 0.65787 0.70310 0.95406
 C1475 C 0.61968 0.69857 0.94183
 C1476 C 0.61619 0.72046 0.93716
 C1477 C 0.59724 0.72730 0.92810
 C1478 C 0.58141 0.71249 0.92337
 C1479 C 0.58447 0.69081 0.92851
 C1480 C 0.60329 0.68380 0.93781
 C1481 C 0.62424 0.65444 0.95216
 C1482 C 0.60575 0.66210 0.94306
 H1483 H 0.62532 0.63750 0.95600
 H1484 H 0.59313 0.65084 0.94012
 H1485 H 0.66073 0.64255 0.96833
 H1486 H 0.68992 0.70461 0.96471
 H1487 H 0.59517 0.74413 0.92426
 H1488 H 0.57210 0.67936 0.92523
 H1489 H 0.65793 0.71994 0.95009
 H1490 H 0.62790 0.73251 0.94029
 C1491 C 0.14985 0.19355 0.44618
 C1492 C 0.15014 0.17220 0.45389
 C1493 C 0.16839 0.16383 0.46325
 C1494 C 0.18673 0.17622 0.46487
 C1495 C 0.18669 0.19719 0.45679
 C1496 C 0.16846 0.20584 0.44765
 C1497 C 0.12985 0.20185 0.43643
 C1498 C 0.12744 0.22312 0.42907
 C1499 C 0.10864 0.22980 0.41958
 C1500 C 0.09187 0.21546 0.41710
 C1501 C 0.09391 0.19446 0.42486
 C1502 C 0.11259 0.18763 0.43458
 C1503 C 0.13233 0.15916 0.45201
 C1504 C 0.11404 0.16664 0.44239
 H1505 H 0.13261 0.14279 0.45787
 H1506 H 0.10078 0.15581 0.44108
 H1507 H 0.16846 0.14740 0.46897
 H1508 H 0.20070 0.20701 0.45782
 H1509 H 0.10742 0.24609 0.41367
 H1510 H 0.08085 0.18341 0.42334
 H1511 H 0.16930 0.22207 0.44173
 H1512 H 0.13987 0.23477 0.43040
 C1513 C 0.56192 0.11678 0.72044
 C1514 C 0.55520 0.09621 0.71396
 C1515 C 0.56384 0.07766 0.72321
 C1516 C 0.57944 0.07918 0.73870
 C1517 C 0.58557 0.09957 0.74559
 C1518 C 0.57691 0.11813 0.73668
 C1519 C 0.55341 0.13613 0.70907
 C1520 C 0.55952 0.15730 0.71381
 C1521 C 0.55232 0.17461 0.70170
 C1522 C 0.53885 0.17128 0.68461
 C1523 C 0.53195 0.15039 0.68037
 C1524 C 0.53916 0.13287 0.69232
 C1525 C 0.54044 0.09419 0.69780
 C1526 C 0.53261 0.11213 0.68720
 H1527 H 0.53519 0.07846 0.69294
 H1528 H 0.52155 0.10967 0.67450
 H1529 H 0.55914 0.06200 0.71759
 H1530 H 0.59734 0.10118 0.75776
 H1531 H 0.55791 0.19057 0.70527
 H1532 H 0.52119 0.14771 0.66745
 H1533 H 0.58249 0.13331 0.74243
 H1534 H 0.57018 0.16082 0.72649
 C1535 C 1.05811 0.62144 0.21238
 C1536 C 1.05157 0.60088 0.20570
 C1537 C 1.06058 0.58231 0.21458
 C1538 C 1.07620 0.58385 0.23005
 C1539 C 1.08186 0.60423 0.23738
 C1540 C 1.07294 0.62277 0.22874
 C1541 C 1.04940 0.64083 0.20126
 C1542 C 1.05592 0.66191 0.20575
 C1543 C 1.04822 0.67932 0.19413
 C1544 C 1.03376 0.67624 0.17781
 C1545 C 1.02675 0.65535 0.17361
 C1546 C 1.03459 0.63770 0.18499
 C1547 C 1.03651 0.59894 0.18980
 C1548 C 1.02810 0.61696 0.17977
 H1549 H 1.03134 0.58321 0.18481
 H1550 H 1.01668 0.61457 0.16737
 H1551 H 1.05613 0.56667 0.20871
 H1552 H 1.09352 0.60586 0.24966
 H1553 H 1.05409 0.69520 0.19758
 H1554 H 1.01530 0.65277 0.16129
 H1555 H 1.07815 0.63794 0.23488
 H1556 H 1.06728 0.66531 0.21783
 C1557 C 0.93792 0.87945 0.20887
 C1558 C 0.94683 0.89996 0.20534
 C1559 C 0.93695 0.91835 0.21383
 C1560 C 0.91825 0.91663 0.22591
 C1561 C 0.91010 0.89617 0.23021
 C1562 C 0.91974 0.87784 0.22185
 C1563 C 0.94799 0.86041 0.19827
 C1564 C 0.93928 0.83966 0.19937
 C1565 C 0.94856 0.82267 0.18827
 C1566 C 0.96688 0.82581 0.17599
 C1567 C 0.97604 0.84624 0.17518
 C1568 C 0.96656 0.86360 0.18593
 C1569 C 0.96535 0.90200 0.19312
 C1570 C 0.97511 0.88419 0.18381
 H1571 H 0.97232 0.91766 0.19058
 H1572 H 0.98932 0.88666 0.17436
 H1573 H 0.94345 0.93406 0.21042
 H1574 H 0.89607 0.89430 0.24003
 H1575 H 0.94132 0.80698 0.18919
 H1576 H 0.99005 0.84880 0.16546
 H1577 H 0.91260 0.86263 0.22568
 H1578 H 0.92506 0.83625 0.20829
 C1579 C 0.45100 0.38556 0.68710
 C1580 C 0.45520 0.39074 0.70843
 C1581 C 0.44456 0.40804 0.71821
 C1582 C 0.42919 0.41976 0.70720
 C1583 C 0.42513 0.41463 0.68611
 C1584 C 0.43593 0.39788 0.67612
 C1585 C 0.46204 0.36655 0.67745
 C1586 C 0.45931 0.36051 0.65623
 C1587 C 0.46861 0.34180 0.64837
 C1588 C 0.48095 0.32857 0.66136
 C1589 C 0.48476 0.33504 0.68222
 C1590 C 0.47543 0.35391 0.69032
 C1591 C 0.46940 0.37817 0.72004
 C1592 C 0.47911 0.36002 0.71126
 H1593 H 0.47265 0.38209 0.73636
 H1594 H 0.48953 0.35051 0.72108
 H1595 H 0.44755 0.41184 0.73462
 H1596 H 0.41339 0.42359 0.67733
 H1597 H 0.46599 0.33758 0.63202
 H1598 H 0.49437 0.32501 0.69237
 H1599 H 0.43182 0.39458 0.65997
 H1600 H 0.44993 0.36987 0.64543
 C1601 C 0.43784 0.60489 0.80390
 C1602 C 0.44396 0.59974 0.78290
 C1603 C 0.43560 0.58155 0.77302
 C1604 C 0.42139 0.56812 0.78388
 C1605 C 0.41572 0.57301 0.80483
 C1606 C 0.42379 0.59111 0.81473
 C1607 C 0.44673 0.62472 0.81371
 C1608 C 0.44087 0.63173 0.83413
 C1609 C 0.44977 0.65012 0.84269
 C1610 C 0.46480 0.66206 0.83125
 C1611 C 0.47046 0.65544 0.81072
 C1612 C 0.46148 0.63700 0.80187
 C1613 C 0.45844 0.61272 0.77192
 C1614 C 0.46714 0.63082 0.78126
 H1615 H 0.46321 0.60874 0.75588
 H1616 H 0.47838 0.64024 0.77214
 H1617 H 0.44030 0.57771 0.75691
 H1618 H 0.40464 0.56302 0.81349
 H1619 H 0.44469 0.65512 0.85835
 H1620 H 0.48211 0.66445 0.80172
 H1621 H 0.41878 0.59398 0.83084
 H1622 H 0.42937 0.62337 0.84374
 C1623 C -0.05483 0.10914 0.29584
 C1624 C -0.05114 0.08917 0.30597
 C1625 C -0.06209 0.07081 0.29961
 C1626 C -0.07671 0.07189 0.28315
 C1627 C -0.07993 0.09154 0.27275
 C1628 C -0.06917 0.10993 0.27898
 C1629 C -0.04355 0.12858 0.30383
 C1630 C -0.04677 0.14937 0.29553
 C1631 C -0.03666 0.16708 0.30424
 C1632 C -0.02298 0.16457 0.32137
 C1633 C -0.01916 0.14384 0.32929
 C1634 C -0.02945 0.12597 0.32086
 C1635 C -0.03671 0.08766 0.32251
 C1636 C -0.02602 0.10564 0.32972
 H1637 H -0.03376 0.07235 0.33014
 H1638 H -0.01517 0.10363 0.34271
 H1639 H -0.05925 0.05561 0.30751
 H1640 H -0.09123 0.09281 0.26008
 H1641 H -0.04007 0.18289 0.29794
 H1642 H -0.00833 0.14160 0.34226
 H1643 H -0.07250 0.12459 0.27052
 H1644 H -0.05736 0.15239 0.28262
 C1645 C 0.07145 0.37574 0.28228
 C1646 C 0.05738 0.39342 0.28048
 C1647 C 0.06503 0.41365 0.27422
 C1648 C 0.08671 0.41671 0.27067
 C1649 C 0.10061 0.39923 0.27241
 C1650 C 0.09312 0.37896 0.27796
 C1651 C 0.06289 0.35470 0.28999
 C1652 C 0.07544 0.33603 0.29165
 C1653 C 0.06728 0.31740 0.30081
 C1654 C 0.04641 0.31680 0.30857
 C1655 C 0.03336 0.33491 0.30572
 C1656 C 0.04140 0.35375 0.29643
 C1657 C 0.03597 0.39104 0.28589
 C1658 C 0.02823 0.37173 0.29399
 H1659 H 0.02517 0.40454 0.28453
 H1660 H 0.01169 0.37093 0.29863
 H1661 H 0.05433 0.42727 0.27319
 H1662 H 0.11742 0.40138 0.26974
 H1663 H 0.07751 0.30346 0.30211
 H1664 H 0.01718 0.33472 0.31157
 H1665 H 0.10465 0.36625 0.27942
 H1666 H 0.09165 0.33551 0.28620
 C1667 C 0.55919 0.87548 0.79237
 C1668 C 0.58131 0.87606 0.78868
 C1669 C 0.59110 0.89540 0.78299
 C1670 C 0.57915 0.91421 0.78044
 C1671 C 0.55714 0.91342 0.78279
 C1672 C 0.54722 0.89431 0.78878
 C1673 C 0.54970 0.85495 0.80044
 C1674 C 0.52835 0.85324 0.80684
 C1675 C 0.52071 0.83426 0.81588
 C1676 C 0.53405 0.81637 0.81853
 C1677 C 0.55508 0.81765 0.81126
 C1678 C 0.56308 0.83683 0.80277
 C1679 C 0.59359 0.85745 0.79097
 C1680 C 0.58461 0.83817 0.79755
 H1681 H 0.61047 0.85784 0.78781
 H1682 H 0.59485 0.82428 0.79931
 H1683 H 0.60813 0.89594 0.78077
 H1684 H 0.54768 0.92781 0.78070
 H1685 H 0.50451 0.83395 0.82158
 H1686 H 0.56550 0.80388 0.81280
 H1687 H 0.53026 0.89467 0.79074
 H1688 H 0.51748 0.86660 0.80574
 C1689 C 0.70421 0.56820 0.11871
 C1690 C 0.71542 0.55390 0.10531
 C1691 C 0.72505 0.56146 0.08652
 C1692 C 0.72418 0.58346 0.08076
 C1693 C 0.71327 0.59746 0.09481
 C1694 C 0.70355 0.59002 0.11326
 C1695 C 0.69347 0.55947 0.13814
 C1696 C 0.68075 0.57225 0.15163
 C1697 C 0.67062 0.56331 0.16922
 C1698 C 0.67299 0.54147 0.17397
 C1699 C 0.68582 0.52858 0.16086
 C1700 C 0.69581 0.53735 0.14283
 C1701 C 0.71710 0.53214 0.11081
 C1702 C 0.70769 0.52409 0.12926
 H1703 H 0.72585 0.52113 0.10070
 H1704 H 0.70946 0.50715 0.13278
 H1705 H 0.73402 0.55006 0.07712
 H1706 H 0.71080 0.61425 0.09127
 H1707 H 0.66087 0.57354 0.17921
 H1708 H 0.68746 0.51160 0.16433
 H1709 H 0.69541 0.60176 0.12290
 H1710 H 0.67812 0.58911 0.14881
 C1711 C 0.20310 1.06783 0.61644
 C1712 C 0.21958 1.05567 0.60682
 C1713 C 0.22979 1.06337 0.58843
 C1714 C 0.22407 1.08329 0.57973
 C1715 C 0.20784 1.09530 0.58938
 C1716 C 0.19746 1.08773 0.60743
 C1717 C 0.19243 1.05903 0.63588
 C1718 C 0.17541 1.06959 0.64610
 C1719 C 0.16580 1.06067 0.66397
 C1720 C 0.17291 1.04107 0.67226
 C1721 C 0.19000 1.03048 0.66240
 C1722 C 0.19965 1.03919 0.64417
 C1723 C 0.22586 1.03606 0.61571
 C1724 C 0.21621 1.02806 0.63405
 H1725 H 0.23853 1.02677 0.60842
 H1726 H 0.22170 1.01284 0.64033
 H1727 H 0.24248 1.05411 0.58114
 H1728 H 0.20301 1.11061 0.58280
 H1729 H 0.15275 1.06921 0.67146
 H1730 H 0.19541 1.01519 0.66862
 H1731 H 0.18517 1.09780 0.61405
 H1732 H 0.16910 1.08465 0.64052
 C1733 C 0.21322 0.94408 0.87454
 C1734 C 0.21054 0.95411 0.89438
 C1735 C 0.21838 0.94429 0.91276
 C1736 C 0.22898 0.92415 0.91203
 C1737 C 0.23257 0.91516 0.89174
 C1738 C 0.22487 0.92486 0.87348
 C1739 C 0.20311 0.95413 0.85558
 C1740 C 0.20340 0.94438 0.83549
 C1741 C 0.19246 0.95356 0.81870
 C1742 C 0.18113 0.97277 0.82138
 C1743 C 0.18131 0.98305 0.84107
 C1744 C 0.19190 0.97371 0.85823
 C1745 C 0.19958 0.97370 0.89588
 C1746 C 0.19064 0.98338 0.87817
 H1747 H 0.19767 0.98158 0.91105
 H1748 H 0.18211 0.99838 0.88024
 H1749 H 0.21463 0.95199 0.92764
 H1750 H 0.24202 0.90085 0.88941
 H1751 H 0.19262 0.94545 0.80357
 H1752 H 0.17233 0.99778 0.84329
 H1753 H 0.22831 0.91697 0.85868
 H1754 H 0.21149 0.92940 0.83249
 C1755 C 0.70908 0.44013 0.37565
 C1756 C 0.70002 0.44315 0.39603
 C1757 C 0.70919 0.43337 0.41375
 C1758 C 0.72712 0.42018 0.41150
 C1759 C 0.73614 0.41726 0.39134
 C1760 C 0.72733 0.42715 0.37364
 C1761 C 0.69849 0.45047 0.35708
 C1762 C 0.70634 0.44874 0.33618
 C1763 C 0.69553 0.45815 0.31937
 C1764 C 0.67660 0.46954 0.32288
 C1765 C 0.66885 0.47163 0.34370
 C1766 C 0.67964 0.46233 0.36072
 C1767 C 0.68159 0.45549 0.39858
 C1768 C 0.67155 0.46476 0.38130
 H1769 H 0.67464 0.45778 0.41417
 H1770 H 0.65718 0.47393 0.38410
 H1771 H 0.70194 0.43544 0.42925
 H1772 H 0.75008 0.40727 0.38925
 H1773 H 0.70211 0.45661 0.30355
 H1774 H 0.65411 0.48013 0.34667
 H1775 H 0.73491 0.42417 0.35856
 H1776 H 0.72078 0.44021 0.33243
 C1777 C 0.79784 0.44611 0.60170
 C1778 C 0.78104 0.43121 0.60286
 C1779 C 0.77401 0.42108 0.58443
 C1780 C 0.78390 0.42508 0.56484
 C1781 C 0.80037 0.43999 0.56369
 C1782 C 0.80720 0.45047 0.58180
 C1783 C 0.80550 0.45585 0.62184
 C1784 C 0.82195 0.47097 0.62236
 C1785 C 0.82946 0.47851 0.64158
 C1786 C 0.82083 0.47125 0.66084
 C1787 C 0.80382 0.45689 0.66048
 C1788 C 0.79611 0.44919 0.64120
 C1789 C 0.77185 0.42596 0.62246
 C1790 C 0.77934 0.43462 0.64122
 H1791 H 0.75898 0.41459 0.62336
 H1792 H 0.77199 0.42966 0.65601
 H1793 H 0.76146 0.40934 0.58547
 H1794 H 0.80813 0.44341 0.54870
 H1795 H 0.84220 0.49004 0.64134
 H1796 H 0.79701 0.45110 0.67523
 H1797 H 0.82012 0.46153 0.57990
 H1798 H 0.82936 0.47709 0.60815
 C1799 C 0.29029 -0.04980 0.10527
 C1800 C 0.27838 -0.06891 0.10694
 C1801 C 0.27074 -0.07880 0.08868
 C1802 C 0.27486 -0.07005 0.06857
 C1803 C 0.28617 -0.05081 0.06700
 C1804 C 0.29375 -0.04077 0.08506
 C1805 C 0.29918 -0.04043 0.12507
 C1806 C 0.31189 -0.02193 0.12505
 C1807 C 0.32074 -0.01453 0.14374
 C1808 C 0.31708 -0.02524 0.16297
 C1809 C 0.30394 -0.04329 0.16328
 C1810 C 0.29512 -0.05102 0.14454
 C1811 C 0.27457 -0.07832 0.12675
 C1812 C 0.28272 -0.06955 0.14514
 H1813 H 0.26536 -0.09289 0.12803
 H1814 H 0.27954 -0.07762 0.16005
 H1815 H 0.26222 -0.09379 0.09009
 H1816 H 0.28926 -0.04354 0.05170
 H1817 H 0.33057 -0.00037 0.14315
 H1818 H 0.30120 -0.05182 0.17802
 H1819 H 0.30246 -0.02612 0.08278
 H1820 H 0.31546 -0.01310 0.11078
 C1821 C 0.28650 0.04815 0.38237
 C1822 C 0.29900 0.04402 0.40037
 C1823 C 0.29399 0.05387 0.41973
 C1824 C 0.27661 0.06785 0.42158
 C1825 C 0.26358 0.07106 0.40407
 C1826 C 0.26842 0.06135 0.38469
 C1827 C 0.29354 0.03887 0.36154
 C1828 C 0.28330 0.04345 0.34236
 C1829 C 0.29150 0.03580 0.32317
 C1830 C 0.30994 0.02319 0.32262
 C1831 C 0.31978 0.01786 0.34170
 C1832 C 0.31194 0.02580 0.36102
 C1833 C 0.31671 0.03050 0.39885
 C1834 C 0.32295 0.02146 0.37963
 H1835 H 0.32612 0.02713 0.41268
 H1836 H 0.33699 0.01139 0.37923
 H1837 H 0.30391 0.05102 0.43333
 H1838 H 0.25007 0.08179 0.40513
 H1839 H 0.28356 0.04001 0.30864
 H1840 H 0.33425 0.00843 0.34140
 H1841 H 0.25806 0.06475 0.37168
 H1842 H 0.26928 0.05336 0.34172
 C1843 C 0.77963 0.55107 0.87819
 C1844 C 0.77556 0.57343 0.87920
 C1845 C 0.77058 0.58311 0.89863
 C1846 C 0.76919 0.57082 0.91716
 C1847 C 0.77189 0.54854 0.91606
 C1848 C 0.77713 0.53872 0.89680
 C1849 C 0.78713 0.54181 0.85749
 C1850 C 0.79376 0.52028 0.85520
 C1851 C 0.80256 0.51303 0.83609
 C1852 C 0.80475 0.52695 0.81871
 C1853 C 0.79704 0.54805 0.82053
 C1854 C 0.78876 0.55568 0.83978
 C1855 C 0.77694 0.58612 0.86094
 C1856 C 0.78313 0.57737 0.84159
 H1857 H 0.77349 0.60316 0.86168
 H1858 H 0.78430 0.58795 0.82799
 H1859 H 0.76814 0.60034 0.89947
 H1860 H 0.77070 0.53883 0.93026
 H1861 H 0.80854 0.49672 0.83527
 H1862 H 0.79824 0.55887 0.80711
 H1863 H 0.77947 0.52156 0.89689
 H1864 H 0.79307 0.50903 0.86817
 C1865 C 0.11324 0.71149 0.56301
 C1866 C 0.09335 0.70417 0.55606
 C1867 C 0.07464 0.71163 0.56584
 C1868 C 0.07539 0.72621 0.58268
 C1869 C 0.09508 0.73395 0.58905
 C1870 C 0.11374 0.72677 0.57936
 C1871 C 0.13287 0.70218 0.55301
 C1872 C 0.15341 0.70777 0.55933
 C1873 C 0.17116 0.69783 0.55028
 C1874 C 0.16898 0.68212 0.53464
 C1875 C 0.14862 0.67688 0.52781
 C1876 C 0.13064 0.68663 0.53693
 C1877 C 0.09225 0.68910 0.53974
 C1878 C 0.11049 0.68056 0.53035
 H1879 H 0.07704 0.68358 0.53433
 H1880 H 0.10878 0.66873 0.51797
 H1881 H 0.05951 0.70546 0.56087
 H1882 H 0.09606 0.74555 0.60171
 H1883 H 0.18665 0.70204 0.55599
 H1884 H 0.14673 0.66502 0.51548
 H1885 H 0.12834 0.73321 0.58512
 H1886 H 0.15615 0.71947 0.57149
 C1887 C 0.60729 0.20467 1.05657
 C1888 C 0.60943 0.21960 1.07322
 C1889 C 0.59140 0.22869 1.08287
 C1890 C 0.57104 0.22284 1.07656
 C1891 C 0.56896 0.20825 1.05988
 C1892 C 0.58679 0.19931 1.04997
 C1893 C 0.62695 0.19475 1.04722
 C1894 C 0.62661 0.17978 1.03057
 C1895 C 0.64526 0.17013 1.02322
 C1896 C 0.66479 0.17513 1.03221
 C1897 C 0.66538 0.19058 1.04830
 C1898 C 0.64671 0.20040 1.05580
 C1899 C 0.62950 0.22502 1.08050
 C1900 C 0.64773 0.21552 1.07208
 H1901 H 0.63114 0.23650 1.09321
 H1902 H 0.66287 0.21997 1.07854
 H1903 H 0.59325 0.24024 1.09549
 H1904 H 0.55347 0.20324 1.05483
 H1905 H 0.64439 0.15862 1.01047
 H1906 H 0.68031 0.19447 1.05552
 H1907 H 0.58413 0.18794 1.03748
 H1908 H 0.61212 0.17515 1.02310
 C1909 C 0.88030 0.20367 0.95370
 C1910 C 0.88247 0.20284 0.93148
 C1911 C 0.90054 0.21112 0.92142
 C1912 C 0.91693 0.22104 0.93287
 C1913 C 0.91439 0.22172 0.95516
 C1914 C 0.89651 0.21324 0.96531
 C1915 C 0.86079 0.19428 0.96378
 C1916 C 0.85734 0.19351 0.98586
 C1917 C 0.83899 0.18427 0.99435
 C1918 C 0.82358 0.17579 0.98107
 C1919 C 0.82684 0.17654 0.95913
 C1920 C 0.84528 0.18549 0.95044
 C1921 C 0.86660 0.19367 0.91924
 C1922 C 0.84835 0.18534 0.92850
 H1923 H 0.86822 0.19304 0.90217
 H1924 H 0.83652 0.17853 0.91829
 H1925 H 0.90187 0.20864 0.90456
 H1926 H 0.92556 0.22969 0.96518
 H1927 H 0.83678 0.18387 1.01136
 H1928 H 0.81521 0.16960 0.94877
 H1929 H 0.89558 0.21465 0.98229
 H1930 H 0.86864 0.19976 0.99683
 C1931 C 0.38094 0.71388 0.44463
 C1932 C 0.39206 0.70262 0.42851
 C1933 C 0.41002 0.71164 0.41896
 C1934 C 0.41750 0.73164 0.42543
 C1935 C 0.40715 0.74244 0.44200
 C1936 C 0.38897 0.73375 0.45146
 C1937 C 0.36113 0.70405 0.45359
 C1938 C 0.34793 0.71446 0.46856
 C1939 C 0.32934 0.70475 0.47593
 C1940 C 0.32349 0.68439 0.46866
 C1941 C 0.33676 0.67383 0.45403
 C1942 C 0.35517 0.68356 0.44623
 C1943 C 0.38526 0.68242 0.42195
 C1944 C 0.36736 0.67297 0.43081
 H1945 H 0.39393 0.67374 0.40975
 H1946 H 0.36275 0.65729 0.42519
 H1947 H 0.41831 0.70305 0.40643
 H1948 H 0.41284 0.75785 0.44728
 H1949 H 0.31933 0.71338 0.48706
 H1950 H 0.33275 0.65790 0.44860
 H1951 H 0.38145 0.74281 0.46399
 H1952 H 0.35149 0.73022 0.47449
 C1953 C 0.61594 0.79165 0.44250
 C1954 C 0.59790 0.78639 0.45493
 C1955 C 0.57908 0.78019 0.44512
 C1956 C 0.57779 0.77976 0.42300
 C1957 C 0.59572 0.78473 0.41076
 C1958 C 0.61457 0.79049 0.42031
 C1959 C 0.63544 0.79903 0.45348
 C1960 C 0.65420 0.80444 0.44251
 C1961 C 0.67150 0.81251 0.45327
 C1962 C 0.67069 0.81534 0.47526
 C1963 C 0.65235 0.80929 0.48646
 C1964 C 0.63480 0.80112 0.47577
 C1965 C 0.59857 0.78801 0.47701
 C1966 C 0.61656 0.79536 0.48719
 H1967 H 0.58480 0.78396 0.48655
 H1968 H 0.61611 0.79675 0.50427
 H1969 H 0.56519 0.77654 0.45465
 H1970 H 0.59510 0.78427 0.39365
 H1971 H 0.68535 0.81723 0.44420
 H1972 H 0.65168 0.81112 0.50350
 H1973 H 0.62769 0.79435 0.40997
 H1974 H 0.65580 0.80291 0.42560
 C1975 C 0.11183 0.29770 -0.05217
 C1976 C 0.10550 0.30479 -0.07243
 C1977 C 0.08678 0.29721 -0.08122
 C1978 C 0.07360 0.28306 -0.06996
 C1979 C 0.07994 0.27581 -0.04997
 C1980 C 0.09883 0.28298 -0.04117
 C1981 C 0.13172 0.30678 -0.04317
 C1982 C 0.13991 0.30052 -0.02340
 C1983 C 0.15797 0.31034 -0.01538
 C1984 C 0.16808 0.32671 -0.02680
 C1985 C 0.16052 0.33249 -0.04674
 C1986 C 0.14264 0.32263 -0.05505
 C1987 C 0.11756 0.31984 -0.08367
 C1988 C 0.13561 0.32874 -0.07508
 H1989 H 0.11270 0.32522 -0.09920
 H1990 H 0.14413 0.34070 -0.08422
 H1991 H 0.08235 0.30256 -0.09689
 H1992 H 0.07003 0.26499 -0.04088
 H1993 H 0.16372 0.30558 0.00001
 H1994 H 0.16860 0.34487 -0.05579
 H1995 H 0.10273 0.27717 -0.02561
 H1996 H 0.13252 0.28823 -0.01385
 C1997 C 0.38661 0.30993 0.04738
 C1998 C 0.38633 0.28826 0.05416
 C1999 C 0.40375 0.27953 0.06485
 C2000 C 0.42162 0.29209 0.06887
 C2001 C 0.42223 0.31321 0.06115
 C2002 C 0.40503 0.32203 0.05055
 C2003 C 0.36705 0.31918 0.03768
 C2004 C 0.36513 0.34105 0.03220
 C2005 C 0.34607 0.34929 0.02478
 C2006 C 0.32853 0.33596 0.02234
 C2007 C 0.33043 0.31401 0.02690
 C2008 C 0.34941 0.30562 0.03492
 C2009 C 0.36852 0.27558 0.05063
 C2010 C 0.35054 0.28401 0.04103
 H2011 H 0.36837 0.25891 0.05560
 H2012 H 0.33708 0.27360 0.03890
 H2013 H 0.40304 0.26319 0.07073
 H2014 H 0.43604 0.32306 0.06346
 H2015 H 0.34488 0.36628 0.02125
 H2016 H 0.31679 0.30373 0.02525
 H2017 H 0.40646 0.33840 0.04517
 H2018 H 0.37790 0.35222 0.03408
 C2019 C 0.87749 0.78702 0.56573
 C2020 C 0.87851 0.78717 0.58809
 C2021 C 0.89704 0.78053 0.59820
 C2022 C 0.91464 0.77342 0.58643
 C2023 C 0.91331 0.77222 0.56438
 C2024 C 0.89499 0.77899 0.55409
 C2025 C 0.85793 0.79577 0.55554
 C2026 C 0.85595 0.79814 0.53347
 C2027 C 0.83782 0.80747 0.52486
 C2028 C 0.82113 0.81439 0.53801
 C2029 C 0.82275 0.81170 0.55994
 C2030 C 0.84104 0.80279 0.56879
 C2031 C 0.86117 0.79416 0.60025
 C2032 C 0.84275 0.80158 0.59081
 H2033 H 0.86189 0.79403 0.61737
 H2034 H 0.82982 0.80695 0.60093
 H2035 H 0.89787 0.78105 0.61531
 H2036 H 0.92673 0.76667 0.55503
 H2037 H 0.83687 0.80936 0.50787
 H2038 H 0.81008 0.81741 0.57023
 H2039 H 0.89494 0.77801 0.53707
 H2040 H 0.86837 0.79334 0.52260
   
