data_POSCAR
  _audit_creation_date              2014-09-24
  _audit_creation_method            'ToBaCCo'
  _symmetry_space_group_name_H-M    'P1'
  _symmetry_Int_Tables_number       1
  _symmetry_cell_setting            triclinic
  loop_
  _symmetry_equiv_pos_as_xyz
 x,y,z
_cell_length_a 68.1964
_cell_length_b 69.0054
_cell_length_c 69.0605
_cell_angle_alpha 89.555400
_cell_angle_beta 89.803500
_cell_angle_gamma 89.975900
loop_
  _atom_site_label
  _atom_site_type_symbol
  _atom_site_fract_x
  _atom_site_fract_y
  _atom_site_fract_z
C1 C 0.34684 0.34946 0.34069
 C2 C 0.33472 0.36377 0.33261
 C3 C 0.31643 0.36823 0.34091
 C4 C 0.31024 0.35791 0.35743
 C5 C 0.32225 0.34360 0.36593
 C6 C 0.34058 0.33958 0.35749
 H7 H 0.33954 0.37092 0.31948
 H8 H 0.29591 0.36104 0.36334
 H9 H 0.34985 0.32876 0.36419
 C10 C 0.35310 0.82337 -0.16449
 C11 C 0.34313 0.83879 -0.17376
 C12 C 0.32619 0.84714 -0.16533
 C13 C 0.31938 0.83969 -0.14751
 C14 C 0.32900 0.82422 -0.13824
 C15 C 0.34581 0.81636 -0.14676
 H16 H 0.34823 0.84385 -0.18763
 H17 H 0.30667 0.84622 -0.14079
 H18 H 0.35321 0.80444 -0.13949
 C19 C 0.86755 0.32879 -0.15401
 C20 C 0.86028 0.34453 -0.16486
 C21 C 0.84397 0.35523 -0.15847
 C22 C 0.83473 0.34956 -0.14098
 C23 C 0.84143 0.33352 -0.13027
 C24 C 0.85801 0.32338 -0.13679
 H25 H 0.86704 0.34838 -0.17855
 H26 H 0.82198 0.35707 -0.13560
 H27 H 0.86381 0.31137 -0.12844
 C28 C 0.84978 0.85019 0.34591
 C29 C 0.84232 0.84165 0.36292
 C30 C 0.82680 0.85027 0.37316
 C31 C 0.81869 0.86756 0.36611
 C32 C 0.82573 0.87645 0.34911
 C33 C 0.84135 0.86757 0.33903
 H34 H 0.84845 0.82802 0.36777
 H35 H 0.80660 0.87410 0.37396
 H36 H 0.84650 0.87366 0.32559
 C37 C 0.65074 0.66904 0.34036
 C38 C 0.65624 0.65210 0.33050
 C39 C 0.67215 0.64084 0.33678
 C40 C 0.68294 0.64689 0.35296
 C41 C 0.67781 0.66378 0.36298
 C42 C 0.66173 0.67485 0.35646
 H43 H 0.64851 0.64772 0.31762
 H44 H 0.69567 0.63881 0.35766
 H45 H 0.65785 0.68824 0.36353
 C46 C 0.63594 0.17013 -0.15219
 C47 C 0.64388 0.15453 -0.16268
 C48 C 0.66044 0.14433 -0.15575
 C49 C 0.66909 0.15035 -0.13833
 C50 C 0.66168 0.16616 -0.12800
 C51 C 0.64490 0.17572 -0.13488
 H52 H 0.63738 0.15081 -0.17631
 H53 H 0.68195 0.14288 -0.13284
 H54 H 0.63851 0.18748 -0.12674
 C55 C 0.13313 0.65623 -0.16551
 C56 C 0.14357 0.64030 -0.17277
 C57 C 0.15976 0.63244 -0.16267
 C58 C 0.16519 0.64090 -0.14497
 C59 C 0.15514 0.65710 -0.13769
 C60 C 0.13918 0.66458 -0.14803
 H61 H 0.13878 0.63427 -0.18632
 H62 H 0.17726 0.63472 -0.13691
 H63 H 0.13192 0.67729 -0.14245
 C64 C 0.15797 0.16092 0.32845
 C65 C 0.16514 0.14395 0.31974
 C66 C 0.18171 0.13440 0.32716
 C67 C 0.19125 0.14208 0.34342
 C68 C 0.18398 0.15861 0.35265
 C69 C 0.16742 0.16802 0.34497
 H70 H 0.15785 0.13784 0.30734
 H71 H 0.20444 0.13540 0.34899
 H72 H 0.16208 0.18124 0.35148
 C73 C 0.64193 0.32518 0.67047
 C74 C 0.65312 0.32007 0.65417
 C75 C 0.67051 0.33016 0.64956
 C76 C 0.67637 0.34559 0.66134
 C77 C 0.66538 0.35080 0.67773
 C78 C 0.64848 0.34027 0.68240
 H79 H 0.64794 0.30850 0.64505
 H80 H 0.68989 0.35311 0.65795
 H81 H 0.64056 0.34388 0.69549
 C82 C 0.65073 0.84593 1.17452
 C83 C 0.65796 0.83698 1.15765
 C84 C 0.67427 0.84441 1.14770
 C85 C 0.68376 0.86091 1.15488
 C86 C 0.67690 0.87035 1.17155
 C87 C 0.66033 0.86264 1.18127
 H88 H 0.65126 0.82407 1.15196
 H89 H 0.69679 0.86636 1.14771
 H90 H 0.65480 0.86930 1.19428
 C91 C 0.14535 0.33203 1.14423
 C92 C 0.15349 0.32417 1.12723
 C93 C 0.16999 0.33254 1.11836
 C94 C 0.17809 0.34952 1.12616
 C95 C 0.16998 0.35788 1.14286
 C96 C 0.15395 0.34873 1.15200
 H97 H 0.14771 0.31108 1.12100
 H98 H 0.19048 0.35647 1.11916
 H99 H 0.14819 0.35439 1.16543
 C100 C 0.13883 0.81202 0.65470
 C101 C 0.14947 0.80355 0.63941
 C102 C 0.16664 0.81229 0.63218
 C103 C 0.17334 0.82951 0.64044
 C104 C 0.16317 0.83837 0.65574
 C105 C 0.14595 0.82947 0.66272
 H106 H 0.14451 0.78998 0.63336
 H107 H 0.18668 0.83569 0.63467
 H108 H 0.13858 0.83618 0.67478
 C109 C 0.36326 0.66186 0.65475
 C110 C 0.35363 0.64532 0.66196
 C111 C 0.33678 0.63804 0.65285
 C112 C 0.32997 0.64720 0.63594
 C113 C 0.33966 0.66351 0.62820
 C114 C 0.35623 0.67075 0.63774
 H115 H 0.35947 0.63821 0.67470
 H116 H 0.31680 0.64174 0.62923
 H117 H 0.36366 0.68318 0.63158
 C118 C 0.36815 0.16100 1.17153
 C119 C 0.35941 0.14398 1.17863
 C120 C 0.34525 0.13392 1.16769
 C121 C 0.33986 0.14155 1.14944
 C122 C 0.34875 0.15849 1.14204
 C123 C 0.36305 0.16786 1.15306
 H124 H 0.36354 0.13920 1.19295
 H125 H 0.32914 0.13395 1.14084
 H126 H 0.37023 0.18054 1.14706
 C127 C 0.84232 0.67169 1.17138
 C128 C 0.83429 0.65425 1.17837
 C129 C 0.81882 0.64510 1.16853
 C130 C 0.81144 0.65375 1.15157
 C131 C 0.81920 0.67120 1.14436
 C132 C 0.83439 0.68025 1.15459
 H133 H 0.84000 0.64817 1.19167
 H134 H 0.79949 0.64687 1.14392
 H135 H 0.83943 0.69436 1.14997
 C136 C 0.86746 0.15625 0.67223
 C137 C 0.85676 0.14048 0.67983
 C138 C 0.84097 0.13228 0.66977
 C139 C 0.83613 0.14000 0.65148
 C140 C 0.84636 0.15581 0.64361
 C141 C 0.86213 0.16381 0.65392
 H142 H 0.86064 0.13463 0.69395
 H143 H 0.82420 0.13417 0.64313
 H144 H 0.87021 0.17560 0.64742
 C145 C 0.33834 0.36320 0.65654
 C146 C 0.33058 0.35353 0.64044
 C147 C 0.33953 0.33666 0.63328
 C148 C 0.35660 0.32977 0.64218
 C149 C 0.36456 0.33907 0.65831
 C150 C 0.35551 0.35596 0.66530
 H151 H 0.31767 0.35937 0.63345
 H152 H 0.36356 0.31676 0.63672
 H153 H 0.36216 0.36370 0.67709
 C154 C 0.33980 0.85037 0.15875
 C155 C 0.33151 0.84267 0.14190
 C156 C 0.33948 0.82607 0.13322
 C157 C 0.35626 0.81754 0.14131
 C158 C 0.36481 0.82495 0.15815
 C159 C 0.35628 0.84122 0.16699
 H160 H 0.31896 0.84985 0.13556
 H161 H 0.36257 0.80482 0.13458
 H162 H 0.36199 0.84629 0.18057
 C163 C 0.84734 0.36158 0.16983
 C164 C 0.83697 0.35509 0.15356
 C165 C 0.84386 0.33950 0.14259
 C166 C 0.86147 0.33038 0.14793
 C167 C 0.87183 0.33625 0.16440
 C168 C 0.86468 0.35199 0.17523
 H169 H 0.82315 0.36166 0.14958
 H170 H 0.86728 0.31866 0.13932
 H171 H 0.87257 0.35711 0.18772
 C172 C 0.82473 0.86592 0.67493
 C173 C 0.81748 0.85694 0.65818
 C174 C 0.82766 0.84154 0.64953
 C175 C 0.84541 0.83518 0.65776
 C176 C 0.85255 0.84360 0.67484
 C177 C 0.84218 0.85901 0.68314
 H178 H 0.80375 0.86156 0.65189
 H179 H 0.85388 0.82411 0.65066
 H180 H 0.84774 0.86565 0.69620
 C181 C 0.67424 0.63983 0.67448
 C182 C 0.65683 0.64516 0.68410
 C183 C 0.64569 0.66103 0.67759
 C184 C 0.65239 0.67186 0.66153
 C185 C 0.66958 0.66665 0.65171
 C186 C 0.68055 0.65076 0.65846
 H187 H 0.65199 0.63729 0.69685
 H188 H 0.64451 0.68460 0.65668
 H189 H 0.69426 0.64697 0.65151
 C190 C 0.64963 0.15174 0.17634
 C191 C 0.63203 0.16071 0.18160
 C192 C 0.62439 0.17616 0.17070
 C193 C 0.63456 0.18269 0.15413
 C194 C 0.65243 0.17398 0.14874
 C195 C 0.65980 0.15856 0.15993
 H196 H 0.62420 0.15560 0.19436
 H197 H 0.62829 0.19404 0.14525
 H198 H 0.67376 0.15224 0.15597
 C199 C 0.13659 0.63998 0.16211
 C200 C 0.14441 0.64901 0.14555
 C201 C 0.13757 0.66718 0.13931
 C202 C 0.12212 0.67596 0.14938
 C203 C 0.11356 0.66690 0.16567
 C204 C 0.12108 0.64901 0.17210
 H205 H 0.15590 0.64173 0.13759
 H206 H 0.11725 0.69015 0.14468
 H207 H 0.11451 0.64211 0.18465
 C208 C 0.15224 0.12065 0.65510
 C209 C 0.15996 0.12831 0.63763
 C210 C 0.15153 0.14490 0.62911
 C211 C 0.13544 0.15372 0.63806
 C212 C 0.12789 0.14668 0.65559
 C213 C 0.13618 0.12995 0.66388
 H214 H 0.17197 0.12120 0.63032
 H215 H 0.12904 0.16659 0.63152
 H216 H 0.13018 0.12393 0.67713
 C217 C 0.33235 0.63618 0.31267
 C218 C 0.34983 0.64424 0.30557
 C219 C 0.35857 0.66025 0.31458
 C220 C 0.34939 0.66837 0.33096
 C221 C 0.33179 0.66048 0.33825
 C222 C 0.32338 0.64454 0.32891
 H223 H 0.35667 0.63801 0.29286
 H224 H 0.35548 0.68109 0.33757
 H225 H 0.30949 0.63905 0.33417
 C226 C 0.33189 0.12162 0.82007
 C227 C 0.34718 0.13274 0.81223
 C228 C 0.35322 0.14998 0.82092
 C229 C 0.34373 0.15615 0.83788
 C230 C 0.32864 0.14495 0.84632
 C231 C 0.32266 0.12780 0.83722
 H232 H 0.35438 0.12801 0.79905
 H233 H 0.34755 0.16992 0.84415
 H234 H 0.31111 0.11925 0.84380
 C235 C 0.81950 0.64319 0.83960
 C236 C 0.83643 0.64941 0.82967
 C237 C 0.84614 0.66653 0.83499
 C238 C 0.83851 0.67758 0.85040
 C239 C 0.82159 0.67144 0.86045
 C240 C 0.81219 0.65438 0.85477
 H241 H 0.84193 0.64124 0.81749
 H242 H 0.84520 0.69122 0.85407
 H243 H 0.79906 0.64967 0.86236
 C244 C 0.84714 0.15498 0.33454
 C245 C 0.83840 0.16155 0.35180
 C246 C 0.84731 0.17609 0.36288
 C247 C 0.86537 0.18383 0.35670
 C248 C 0.87426 0.17755 0.33953
 C249 C 0.86489 0.16332 0.32842
 H250 H 0.82443 0.15584 0.35657
 H251 H 0.87284 0.19457 0.36528
 H252 H 0.87115 0.15876 0.31479
 C253 C 0.67395 0.34792 0.34122
 C254 C 0.65665 0.34093 0.33260
 C255 C 0.64692 0.32462 0.34038
 C256 C 0.65479 0.31521 0.35666
 C257 C 0.67185 0.32201 0.36551
 C258 C 0.68143 0.33828 0.35760
 H259 H 0.65120 0.34761 0.31951
 H260 H 0.64746 0.30254 0.36261
 H261 H 0.69502 0.34330 0.36385
 C262 C 0.65900 0.86639 0.83811
 C263 C 0.64342 0.85766 0.82827
 C264 C 0.63545 0.83999 0.83461
 C265 C 0.64333 0.83090 0.85120
 C266 C 0.65905 0.83938 0.86124
 C267 C 0.66693 0.85702 0.85434
 H268 H 0.63775 0.86424 0.81518
 H269 H 0.63757 0.81718 0.85628
 H270 H 0.67952 0.86348 0.86119
 C271 C 0.17872 0.35465 0.83618
 C272 C 0.16216 0.34679 0.82702
 C273 C 0.15400 0.32916 0.83330
 C274 C 0.16268 0.31926 0.84896
 C275 C 0.17911 0.32691 0.85842
 C276 C 0.18687 0.34476 0.85207
 H277 H 0.15520 0.35445 0.81518
 H278 H 0.15703 0.30536 0.85368
 H279 H 0.19923 0.35116 0.85941
 C280 C 0.16293 0.85429 0.32349
 C281 C 0.14405 0.84952 0.31693
 C282 C 0.13374 0.83370 0.32494
 C283 C 0.14244 0.82288 0.33987
 C284 C 0.16120 0.82736 0.34668
 C285 C 0.17152 0.84295 0.33826
 H286 H 0.13751 0.85835 0.30568
 H287 H 0.13458 0.81071 0.34617
 H288 H 0.18640 0.84572 0.34271
 O289 O 0.28023 1.00951 0.23924
 O290 O 0.25216 0.97090 0.26421
 O291 O 0.25299 1.00873 0.26567
 O292 O 0.27994 0.97160 0.23816
 O293 O 0.30249 0.97056 0.26103
 O294 O 0.27529 1.00706 0.28875
 O295 O 0.27474 0.96948 0.28703
 O296 O 0.30249 1.00825 0.26237
 Cu297 Cu 0.26407 0.99029 0.24949
 Cu298 Cu 0.29101 0.98868 0.27707
 C299 C 0.29607 1.01556 0.24670
 C300 C 0.25871 0.96362 0.27987
 C301 C 0.25963 1.01423 0.28190
 C302 C 0.29582 0.96477 0.24496
 O303 O 0.22916 0.48044 0.74355
 O304 O 0.25982 0.51982 0.72364
 O305 O 0.26148 0.48206 0.72365
 O306 O 0.22724 0.51820 0.74342
 O307 O 0.24416 0.51891 0.77062
 O308 O 0.27840 0.48261 0.75085
 O309 O 0.27673 0.52045 0.75084
 O310 O 0.24605 0.48112 0.77077
 Cu311 Cu 0.24272 0.50011 0.73084
 Cu312 Cu 0.26304 0.50087 0.76349
 C313 C 0.23249 0.47398 0.76048
 C314 C 0.27349 0.52685 0.73387
 C315 C 0.27567 0.47605 0.73394
 C316 C 0.22986 0.52474 0.76034
 O317 O 0.75432 -0.00137 0.28038
 O318 O 0.72498 0.03504 0.25312
 O319 O 0.72335 -0.00201 0.25741
 O320 O 0.74877 0.03674 0.28216
 O321 O 0.77175 0.03748 0.25956
 O322 O 0.74629 -0.00314 0.23477
 O323 O 0.74720 0.03396 0.22979
 O324 O 0.77647 -0.00062 0.25698
 Cu325 Cu 0.73608 0.01687 0.27056
 Cu326 Cu 0.76267 0.01730 0.24335
 C327 C 0.77046 -0.00720 0.27305
 C328 C 0.73124 0.04043 0.23650
 C329 C 0.73025 -0.00936 0.24211
 C330 C 0.76440 0.04388 0.27529
 O331 O 0.72450 0.51115 0.75757
 O332 O 0.75105 0.47427 0.78459
 O333 O 0.75260 0.51200 0.78302
 O334 O 0.72672 0.47364 0.75555
 O335 O 0.74998 0.47542 0.73327
 O336 O 0.77651 0.51111 0.76136
 O337 O 0.77441 0.47351 0.76236
 O338 O 0.74834 0.51304 0.73589
 Cu339 Cu 0.73641 0.49270 0.77237
 Cu340 Cu 0.76462 0.49330 0.74603
 C341 C 0.73173 0.51855 0.74235
 C342 C 0.76700 0.46742 0.77826
 C343 C 0.76919 0.51786 0.77673
 C344 C 0.73406 0.46829 0.73947
 O345 O 0.24710 0.52162 0.24794
 O346 O 0.22155 0.48357 0.22089
 O347 O 0.21649 0.52088 0.22543
 O348 O 0.25089 0.48434 0.24483
 O349 O 0.23073 0.47909 0.26940
 O350 O 0.19709 0.51624 0.25072
 O351 O 0.20131 0.47902 0.24554
 O352 O 0.22771 0.51639 0.27312
 Cu353 Cu 0.23593 0.50312 0.23222
 Cu354 Cu 0.21219 0.49719 0.26216
 C355 C 0.24193 0.52534 0.26519
 C356 C 0.20715 0.47475 0.22861
 C357 C 0.20102 0.52490 0.23493
 C358 C 0.24658 0.47547 0.26046
 O359 O 0.74425 0.98716 0.73445
 O360 O 0.71967 1.02728 0.75988
 O361 O 0.71780 0.98960 0.76142
 O362 O 0.74676 1.02478 0.73333
 O363 O 0.72389 1.02552 0.71078
 O364 O 0.69472 0.99033 0.73907
 O365 O 0.69678 1.02798 0.73732
 O366 O 0.72127 0.98793 0.71200
 Cu367 Cu 0.73443 1.00716 0.74954
 Cu368 Cu 0.70685 1.00802 0.72254
 C369 C 0.73689 0.98070 0.71890
 C370 C 0.70401 1.03445 0.75289
 C371 C 0.70138 0.98390 0.75501
 C372 C 0.74032 1.03111 0.71726
 O373 O 0.72412 0.47857 0.25495
 O374 O 0.75448 0.51772 0.23437
 O375 O 0.75133 0.48067 0.22831
 O376 O 0.72839 0.51557 0.26166
 O377 O 0.75118 0.50907 0.28341
 O378 O 0.77425 0.47458 0.25003
 O379 O 0.77744 0.51172 0.25609
 O380 O 0.74708 0.47213 0.27653
 Cu381 Cu 0.73725 0.49870 0.24267
 Cu382 Cu 0.76477 0.49123 0.26869
 C383 C 0.73040 0.46863 0.26915
 C384 C 0.77105 0.52151 0.24177
 C385 C 0.76675 0.47174 0.23350
 C386 C 0.73604 0.51837 0.27816
 O387 O 0.27316 0.00233 0.73779
 O388 O 0.25456 -0.03554 0.70491
 O389 O 0.25255 0.00217 0.70611
 O390 O 0.27838 -0.03485 0.73418
 O391 O 0.25254 -0.03903 0.75313
 O392 O 0.22633 -0.00109 0.72471
 O393 O 0.22856 -0.03895 0.72376
 O394 O 0.24703 -0.00172 0.75637
 Cu395 Cu 0.26723 -0.01609 0.71889
 Cu396 Cu 0.23601 -0.02058 0.74134
 C397 C 0.26312 0.00670 0.75272
 C398 C 0.23832 -0.04375 0.70891
 C399 C 0.23521 0.00699 0.71054
 C400 C 0.27006 -0.04332 0.74829
 O401 O 0.24800 0.24858 1.01109
 O402 O 0.27121 0.21686 0.97447
 O403 O 0.26697 0.21565 1.01229
 O404 O 0.25030 0.24833 0.97355
 O405 O 0.27774 0.26515 0.97559
 O406 O 0.29441 0.23240 1.01491
 O407 O 0.29864 0.23358 0.97736
 O408 O 0.27559 0.26519 1.01325
 Cu409 Cu 0.25641 0.23062 0.99267
 Cu410 Cu 0.28935 0.25070 0.99551
 C411 C 0.25792 0.26239 1.01828
 C412 C 0.28894 0.22006 0.96961
 C413 C 0.28340 0.21848 1.02033
 C414 C 0.26107 0.26228 0.96793
 O415 O 0.27328 0.73537 0.50606
 O416 O 0.25074 0.76876 0.47092
 O417 O 0.24439 0.75976 0.50725
 O418 O 0.27887 0.74328 0.46948
 O419 O 0.25779 0.72045 0.46147
 O420 O 0.22329 0.73712 0.49877
 O421 O 0.22980 0.74595 0.46248
 O422 O 0.25220 0.71252 0.49808
 Cu423 Cu 0.26390 0.75410 0.48925
 Cu424 Cu 0.23867 0.72672 0.47935
 C425 C 0.26652 0.71834 0.50821
 C426 C 0.23656 0.76303 0.46060
 C427 C 0.22805 0.75114 0.50952
 C428 C 0.27409 0.72901 0.45899
 O429 O 0.26144 0.75157 -0.01644
 O430 O 0.24121 0.72048 0.02249
 O431 O 0.24258 0.71887 -0.01522
 O432 O 0.26192 0.75210 0.02114
 O433 O 0.23434 0.76888 0.02064
 O434 O 0.21493 0.73551 -0.01634
 O435 O 0.21362 0.73721 0.02137
 O436 O 0.23378 0.76824 -0.01710
 Cu437 Cu 0.25455 0.73407 0.00309
 Cu438 Cu 0.22138 0.75411 0.00208
 C439 C 0.25097 0.76519 -0.02339
 C440 C 0.22391 0.72365 0.02857
 C441 C 0.22560 0.72155 -0.02211
 C442 C 0.25155 0.76611 0.02713
 O443 O 0.26227 0.25894 0.48379
 O444 O 0.24632 0.22237 0.51944
 O445 O 0.24184 0.22723 0.48201
 O446 O 0.26459 0.25566 0.52133
 O447 O 0.23659 0.27125 0.52537
 O448 O 0.21421 0.24336 0.48642
 O449 O 0.21838 0.23806 0.52338
 O450 O 0.23460 0.27507 0.48785
 Cu451 Cu 0.25653 0.23942 0.50129
 Cu452 Cu 0.22320 0.25853 0.50623
 C453 C 0.25121 0.27316 0.47965
 C454 C 0.22961 0.22387 0.52739
 C455 C 0.22408 0.23069 0.47750
 C456 C 0.25433 0.26838 0.52996
 O457 O 0.76298 0.80096 0.98183
 O458 O 0.78972 0.77386 1.01983
 O459 O 0.79024 0.77447 0.98206
 O460 O 0.76442 0.80212 1.01939
 O461 O 0.74089 0.78014 1.02045
 O462 O 0.76671 0.75249 0.98248
 O463 O 0.76615 0.75193 1.02037
 O464 O 0.73953 0.77890 0.98264
 Cu465 Cu 0.77920 0.79003 1.00069
 Cu466 Cu 0.75097 0.76365 1.00155
 C467 C 0.74669 0.79447 0.97576
 C468 C 0.78236 0.75831 1.02664
 C469 C 0.78287 0.75890 0.97578
 C470 C 0.74840 0.79589 1.02637
 O471 O 0.77748 0.23666 0.48833
 O472 O 0.74409 0.25199 0.52687
 O473 O 0.74637 0.25831 0.48955
 O474 O 0.77717 0.23305 0.52593
 O475 O 0.79452 0.25980 0.52947
 O476 O 0.76375 0.28492 0.49399
 O477 O 0.76140 0.27865 0.53112
 O478 O 0.79493 0.26335 0.49171
 Cu479 Cu 0.75954 0.24235 0.50732
 Cu480 Cu 0.78041 0.27431 0.51199
 C481 C 0.79174 0.24735 0.48325
 C482 C 0.74696 0.26780 0.53560
 C483 C 0.75000 0.27601 0.48559
 C484 C 0.79112 0.24228 0.53388
 O485 O 0.77251 0.24669 -0.00860
 O486 O 0.73767 0.23160 0.02959
 O487 O 0.73844 0.22991 -0.00808
 O488 O 0.77225 0.24757 0.02911
 O489 O 0.75812 0.27636 0.02788
 O490 O 0.72430 0.25868 -0.00955
 O491 O 0.72353 0.26037 0.02818
 O492 O 0.75840 0.27549 -0.00981
 Cu493 Cu 0.75663 0.23605 0.01066
 Cu494 Cu 0.73966 0.27062 0.00906
 C495 C 0.77133 0.26367 -0.01575
 C496 C 0.72468 0.24345 0.03540
 C497 C 0.72572 0.24129 -0.01526
 C498 C 0.77095 0.26494 0.03485
 O499 O 0.78628 0.74415 0.48964
 O500 O 0.75830 0.71501 0.52452
 O501 O 0.75646 0.72067 0.48722
 O502 O 0.78635 0.74047 0.52723
 O503 O 0.76534 0.76466 0.52995
 O504 O 0.73512 0.74438 0.49139
 O505 O 0.73742 0.73912 0.52872
 O506 O 0.76486 0.76801 0.49241
 Cu507 Cu 0.77396 0.72767 0.50680
 Cu508 Cu 0.74857 0.75644 0.51094
 C509 C 0.78034 0.76093 0.48495
 C510 C 0.74329 0.72205 0.53271
 C511 C 0.74059 0.72924 0.48263
 C512 C 0.78087 0.75608 0.53532
 O513 O 1.03658 0.26927 0.23976
 O514 O 1.00047 0.24031 0.26756
 O515 O 1.03835 0.23896 0.26246
 O516 O 0.99891 0.27135 0.24610
 O517 O 0.99394 0.25274 0.22070
 O518 O 1.03401 0.22045 0.23689
 O519 O 0.99625 0.22156 0.24212
 O520 O 1.03151 0.25068 0.21438
 Cu521 Cu 1.01907 0.25684 0.25653
 Cu522 Cu 1.01344 0.23450 0.22597
 C523 C 1.04015 0.26484 0.22228
 C524 C 0.99225 0.22597 0.25947
 C525 C 1.04296 0.22425 0.25251
 C526 C 0.98965 0.26756 0.23070
 O527 O 0.51571 0.27988 0.76163
 O528 O 0.47704 0.25314 0.78754
 O529 O 0.51501 0.24965 0.78451
 O530 O 0.47778 0.28269 0.76392
 O531 O 0.47529 0.26356 0.73856
 O532 O 0.51125 0.23002 0.75968
 O533 O 0.47337 0.23409 0.76226
 O534 O 0.51321 0.26005 0.73680
 Cu535 Cu 0.49674 0.26827 0.77694
 Cu536 Cu 0.49293 0.24497 0.74682
 C537 C 0.52112 0.27453 0.74492
 C538 C 0.46848 0.23918 0.77926
 C539 C 0.51941 0.23419 0.77558
 C540 C 0.47033 0.27877 0.74759
 O541 O -0.00647 0.27081 0.75802
 O542 O 0.02791 0.23588 0.73641
 O543 O -0.00870 0.24463 0.73125
 O544 O 0.03065 0.26296 0.76234
 O545 O 0.02281 0.24159 0.78503
 O546 O -0.01636 0.22271 0.75350
 O547 O 0.02045 0.21445 0.75919
 O548 O -0.01438 0.24902 0.78029
 Cu549 Cu 0.01166 0.25575 0.74477
 Cu550 Cu 0.00233 0.22979 0.77178
 C551 C -0.01639 0.26575 0.77280
 C552 C 0.03001 0.21923 0.74412
 C553 C -0.01917 0.23051 0.73699
 C554 C 0.03346 0.25547 0.77895
 O555 O 0.51406 0.27467 0.27227
 O556 O 0.47386 0.24973 0.24708
 O557 O 0.51129 0.25260 0.24217
 O558 O 0.47625 0.27104 0.27790
 O559 O 0.47125 0.29699 0.25965
 O560 O 0.50723 0.27875 0.22398
 O561 O 0.46943 0.27569 0.22870
 O562 O 0.50910 0.30081 0.25429
 Cu563 Cu 0.49433 0.25946 0.26177
 Cu564 Cu 0.48875 0.29072 0.23988
 C565 C 0.51855 0.29192 0.26741
 C566 C 0.46494 0.25845 0.23343
 C567 C 0.51526 0.26240 0.22703
 C568 C 0.46758 0.28701 0.27479
 O569 O 1.01259 0.72738 0.76132
 O570 O 0.97506 0.74920 0.73000
 O571 O 1.01341 0.75059 0.73135
 O572 O 0.97414 0.72747 0.76102
 O573 O 0.97370 0.75318 0.77988
 O574 O 1.01191 0.77621 0.75029
 O575 O 0.97381 0.77484 0.74891
 O576 O 1.01174 0.75303 0.78022
 Cu577 Cu 0.99390 0.73607 0.74403
 Cu578 Cu 0.99271 0.76688 0.76668
 C579 C 1.01862 0.73646 0.77606
 C580 C 0.96795 0.76564 0.73414
 C581 C 1.01927 0.76746 0.73593
 C582 C 0.96729 0.73655 0.77554
 O583 O 0.53045 0.77470 0.24839
 O584 O 0.49147 0.75170 0.27789
 O585 O 0.52950 0.74739 0.27471
 O586 O 0.49251 0.77894 0.25155
 O587 O 0.48813 0.75703 0.22884
 O588 O 0.52476 0.72548 0.25206
 O589 O 0.48698 0.72999 0.25500
 O590 O 0.52597 0.75273 0.22575
 Cu591 Cu 0.51145 0.76538 0.26543
 Cu592 Cu 0.50607 0.73912 0.23814
 C593 C 0.53484 0.76756 0.23204
 C594 C 0.48247 0.73704 0.27136
 C595 C 0.53341 0.73104 0.26728
 C596 C 0.48394 0.77328 0.23631
 O597 O 0.00174 0.78196 0.25690
 O598 O -0.03884 0.75542 0.23381
 O599 O -0.00068 0.75392 0.23206
 O600 O -0.03656 0.78309 0.25927
 O601 O -0.03683 0.80485 0.23566
 O602 O -0.00131 0.77549 0.20826
 O603 O -0.03923 0.77721 0.21021
 O604 O 0.00133 0.80346 0.23305
 Cu605 Cu -0.01857 0.76646 0.24794
 Cu606 Cu -0.01909 0.79245 0.21946
 C607 C 0.00857 0.79712 0.24876
 C608 C -0.04583 0.76181 0.21796
 C609 C 0.00508 0.75975 0.21549
 C610 C -0.04282 0.79892 0.25209
 O611 O 0.48230 0.78081 0.74530
 O612 O 0.52028 0.75306 0.72027
 O613 O 0.48261 0.75680 0.71660
 O614 O 0.51972 0.77515 0.75073
 O615 O 0.51379 0.75039 0.77034
 O616 O 0.47773 0.73157 0.73589
 O617 O 0.51561 0.72815 0.74004
 O618 O 0.47627 0.75582 0.76459
 Cu619 Cu 0.50182 0.76896 0.73132
 Cu620 Cu 0.49530 0.73900 0.75469
 C621 C 0.47260 0.77306 0.75897
 C622 C 0.52450 0.73602 0.72578
 C623 C 0.47390 0.74095 0.72047
 C624 C 0.52303 0.76585 0.76637
 C625 C 0.36576 0.34534 0.33086
 C626 C 0.37701 0.32869 0.33392
 C627 C 0.39447 0.32449 0.32206
 N628 N 0.40482 0.30799 0.32525
 N629 N 0.42017 0.30361 0.31412
 C630 C 0.42574 0.31557 0.29938
 N631 N 0.41546 0.33213 0.29626
 N632 N 0.40012 0.33651 0.30740
 C633 C 0.44206 0.31048 0.28638
 C634 C 0.45284 0.29350 0.28889
 H635 H 0.37260 0.31791 0.34449
 H636 H 0.44516 0.31995 0.27417
 H637 H 0.37050 0.35548 0.31974
 H638 H 0.44985 0.28416 0.30122
 C639 C 0.36986 0.81422 0.82778
 C640 C 0.37991 0.81980 0.81095
 C641 C 0.39695 0.80876 0.80383
 N642 N 0.40754 0.81558 0.78859
 N643 N 0.42287 0.80567 0.78190
 C644 C 0.42817 0.78852 0.79018
 N645 N 0.41754 0.78166 0.80538
 N646 N 0.40225 0.79161 0.81210
 C647 C 0.44485 0.77726 0.78267
 C648 C 0.45677 0.78441 0.76786
 H649 H 0.37580 0.83258 0.80281
 H650 H 0.44762 0.76300 0.78873
 H651 H 0.37564 0.80183 0.83567
 H652 H 0.45412 0.79882 0.76208
 C653 C -0.11550 0.31709 0.83942
 C654 C -0.10180 0.32347 0.82572
 C655 C -0.08602 0.31084 0.81865
 N656 N -0.07376 0.31723 0.80446
 N657 N -0.05974 0.30574 0.79752
 C658 C -0.05746 0.28745 0.80454
 N659 N -0.06963 0.28110 0.81880
 N660 N -0.08367 0.29257 0.82572
 C661 C -0.04243 0.27437 0.79676
 C662 C -0.03048 0.27949 0.78113
 H663 H -0.10255 0.33800 0.81981
 H664 H -0.04117 0.26006 0.80319
 H665 H -0.11364 0.30284 0.84585
 H666 H -0.03180 0.29371 0.77451
 C667 C -0.13421 0.83992 0.33547
 C668 C -0.12357 0.84759 0.31985
 C669 C -0.10835 0.83634 0.30972
 N670 N -0.09936 0.84393 0.29382
 N671 N -0.08575 0.83385 0.28434
 C672 C -0.08058 0.81580 0.29044
 N673 N -0.08949 0.80825 0.30639
 N674 N -0.10314 0.81830 0.31584
 C675 C -0.06569 0.80437 0.28007
 C676 C -0.05723 0.81068 0.26272
 H677 H -0.12624 0.86215 0.31467
 H678 H -0.06161 0.79039 0.28607
 H679 H -0.13053 0.82545 0.34047
 H680 H -0.06158 0.82446 0.25648
 C681 C 0.63420 0.68143 0.33376
 C682 C 0.61938 0.67500 0.32146
 C683 C 0.60379 0.68782 0.31411
 N684 N 0.59084 0.68097 0.30096
 N685 N 0.57686 0.69239 0.29378
 C686 C 0.57525 0.71111 0.29951
 N687 N 0.58811 0.71794 0.31277
 N688 N 0.60216 0.70652 0.31992
 C689 C 0.56004 0.72395 0.29141
 C690 C 0.54813 0.71819 0.27611
 H691 H 0.61902 0.66008 0.31682
 H692 H 0.55858 0.73842 0.29722
 H693 H 0.63355 0.69617 0.33902
 H694 H 0.55001 0.70392 0.26995
 C695 C 0.61886 0.18161 0.84099
 C696 C 0.60616 0.17602 0.82624
 C697 C 0.59000 0.18861 0.81973
 N698 N 0.57866 0.18321 0.80460
 N699 N 0.56425 0.19466 0.79832
 C700 C 0.56060 0.21192 0.80696
 N701 N 0.57186 0.21726 0.82216
 N702 N 0.58629 0.20584 0.82842
 C703 C 0.54503 0.22492 0.79993
 C704 C 0.53419 0.22080 0.78341
 H705 H 0.60789 0.16223 0.81913
 H706 H 0.54245 0.23831 0.80762
 H707 H 0.61604 0.19523 0.84819
 H708 H 0.53699 0.20755 0.77556
 C709 C 1.11648 0.66413 0.82302
 C710 C 1.10314 0.67785 0.82993
 C711 C 1.08755 0.68616 0.81776
 N712 N 1.07657 0.70105 0.82457
 N713 N 1.06257 0.70899 0.81370
 C714 C 1.05898 0.70228 0.79562
 N715 N 1.06987 0.68731 0.78885
 N716 N 1.08394 0.67942 0.79970
 C717 C 1.04362 0.71090 0.78341
 C718 C 1.03376 0.72783 0.78853
 H719 H 1.10397 0.68302 0.84461
 H720 H 1.04031 0.70395 0.76979
 H721 H 1.11465 0.65886 0.80840
 H722 H 1.03752 0.73522 0.80179
 C723 C 1.14063 0.17165 0.32104
 C724 C 1.13212 0.16880 0.30290
 C725 C 1.11537 0.18051 0.29618
 N726 N 1.10729 0.17712 0.27859
 N727 N 1.09228 0.18778 0.27227
 C728 C 1.08482 0.20224 0.28332
 N729 N 1.09289 0.20561 0.30090
 N730 N 1.10787 0.19495 0.30722
 C731 C 1.06848 0.21443 0.27658
 C732 C 1.05892 0.21143 0.25903
 H733 H 1.13796 0.15816 0.29303
 H734 H 1.06386 0.22622 0.28581
 H735 H 1.13463 0.18289 0.33018
 H736 H 1.06321 0.19948 0.24987
 C737 C 0.62382 0.31422 0.67519
 C738 C 0.60863 0.32227 0.68609
 C739 C 0.59195 0.31099 0.69354
 N740 N 0.57966 0.31925 0.70655
 N741 N 0.56497 0.30915 0.71433
 C742 C 0.56195 0.29041 0.70935
 N743 N 0.57408 0.28218 0.69611
 N744 N 0.58889 0.29227 0.68840
 C745 C 0.54609 0.27906 0.71841
 C746 C 0.53666 0.28556 0.73509
 H747 H 0.60923 0.33737 0.69013
 H748 H 0.54236 0.26509 0.71241
 H749 H 0.62246 0.29951 0.67002
 H750 H 0.54125 0.29903 0.74163
 C751 C 0.63447 0.83871 0.18511
 C752 C 0.62312 0.82266 0.17988
 C753 C 0.60685 0.81522 0.19190
 N754 N 0.59648 0.79968 0.18576
 N755 N 0.58190 0.79245 0.19646
 C756 C 0.57712 0.80047 0.21373
 N757 N 0.58747 0.81606 0.21988
 N758 N 0.60207 0.82331 0.20917
 C759 C 0.56118 0.79239 0.22578
 C760 C 0.55041 0.77626 0.22002
 H761 H 0.62582 0.81494 0.16663
 H762 H 0.55801 0.79916 0.23954
 H763 H 0.63041 0.84611 0.19833
 H764 H 0.55361 0.76953 0.20624
 C765 C 1.12930 0.32363 0.15411
 C766 C 1.11842 0.30779 0.14758
 C767 C 1.10266 0.29896 0.15923
 N768 N 1.09862 0.30502 0.17749
 N769 N 1.08461 0.29645 0.18798
 C770 C 1.07415 0.28151 0.18056
 N771 N 1.07816 0.27553 0.16232
 N772 N 1.09217 0.28408 0.15185
 C773 C 1.05898 0.27148 0.19194
 C774 C 1.05460 0.27612 0.21109
 H775 H 1.12109 0.30145 0.13359
 H776 H 1.05131 0.25966 0.18505
 H777 H 1.12493 0.32996 0.16778
 H778 H 1.06217 0.28792 0.21813
 C779 C 1.12184 0.80247 0.66171
 C780 C 1.10904 0.80998 0.67570
 C781 C 1.09230 0.79913 0.68386
 N782 N 1.08078 0.80778 0.69731
 N783 N 1.06589 0.79826 0.70546
 C784 C 1.06187 0.77968 0.70052
 N785 N 1.07333 0.77101 0.68697
 N786 N 1.08829 0.78055 0.67879
 C787 C 1.04566 0.76900 0.71002
 C788 C 1.03480 0.77745 0.72490
 H789 H 1.11088 0.82446 0.68117
 H790 H 1.04264 0.75425 0.70571
 H791 H 1.11832 0.78838 0.65582
 H792 H 1.03820 0.79211 0.72926
 C793 C 0.38054 0.66924 0.66547
 C794 C 0.38890 0.68754 0.66261
 C795 C 0.40516 0.69458 0.67464
 N796 N 0.41292 0.71241 0.67125
 N797 N 0.42733 0.71916 0.68231
 C798 C 0.43449 0.70833 0.69719
 N799 N 0.42676 0.69050 0.70056
 N800 N 0.41239 0.68374 0.68949
 C801 C 0.45001 0.71567 0.70992
 C802 C 0.45909 0.73356 0.70696
 H803 H 0.38318 0.69740 0.65181
 H804 H 0.45429 0.70670 0.72214
 H805 H 0.38642 0.66008 0.67687
 H806 H 0.45519 0.74243 0.69455
 C807 C 0.38281 0.17111 0.18364
 C808 C 0.38702 0.19083 0.18163
 C809 C 0.40180 0.20068 0.19348
 N810 N 0.40542 0.21979 0.19047
 N811 N 0.41889 0.22897 0.20087
 C812 C 0.42925 0.21937 0.21470
 N813 N 0.42559 0.20026 0.21776
 N814 N 0.41212 0.19106 0.20733
 C815 C 0.44435 0.22929 0.22611
 C816 C 0.44929 0.24863 0.22272
 H817 H 0.37911 0.19961 0.17122
 H818 H 0.45201 0.22106 0.23716
 H819 H 0.38997 0.16290 0.19503
 H820 H 0.44179 0.25679 0.21151
 C821 C -0.14162 0.68105 0.18235
 C822 C -0.12897 0.69475 0.17412
 C823 C -0.11377 0.70487 0.18520
 N824 N -0.10343 0.71933 0.17655
 N825 N -0.08975 0.72892 0.18627
 C826 C -0.08583 0.72439 0.20503
 N827 N -0.09609 0.70984 0.21368
 N828 N -0.10986 0.70027 0.20396
 C829 C -0.07065 0.73493 0.21581
 C830 C -0.06160 0.75137 0.20804
 H831 H -0.13010 0.69845 0.15892
 H832 H -0.06661 0.72973 0.23009
 H833 H -0.13944 0.67671 0.19731
 H834 H -0.06614 0.75685 0.19401
 C835 C -0.11714 0.16377 0.68351
 C836 C -0.10536 0.17969 0.67861
 C837 C -0.08997 0.18679 0.69172
 N838 N -0.07891 0.20233 0.68650
 N839 N -0.06505 0.20899 0.69826
 C840 C -0.06172 0.20036 0.71570
 N841 N -0.07276 0.18482 0.72092
 N842 N -0.08662 0.17816 0.70916
 C843 C -0.04646 0.20754 0.72887
 C844 C -0.03461 0.22332 0.72408
 H845 H -0.10727 0.18750 0.66515
 H846 H -0.04448 0.20016 0.74263
 H847 H -0.11429 0.15676 0.69732
 H848 H -0.03656 0.23064 0.71029
 C849 C 0.30306 0.38298 0.33239
 C850 C 0.30859 0.39629 0.31802
 C851 C 0.29470 0.41018 0.30945
 N852 N 0.30050 0.42164 0.29444
 N853 N 0.28812 0.43426 0.28642
 C854 C 0.26947 0.43591 0.29316
 N855 N 0.26367 0.42449 0.30820
 N856 N 0.27604 0.41182 0.31618
 C857 C 0.25569 0.44993 0.28467
 C858 C 0.26027 0.46098 0.26828
 H859 H 0.32347 0.39683 0.31268
 H860 H 0.24150 0.45158 0.29156
 H861 H 0.28814 0.38346 0.33782
 H862 H 0.27423 0.45903 0.26103
 C863 C 0.31550 -0.13757 0.82598
 C864 C 0.32074 -0.12780 0.80889
 C865 C 0.30849 -0.11238 0.80031
 N866 N 0.31499 -0.10275 0.78436
 N867 N 0.30416 -0.08889 0.77621
 C868 C 0.28634 -0.08412 0.78364
 N869 N 0.27978 -0.09377 0.79959
 N870 N 0.29066 -0.10765 0.80779
 C871 C 0.27426 -0.06885 0.77448
 C872 C 0.28131 -0.05831 0.75863
 H873 H 0.33425 -0.13100 0.80139
 H874 H 0.25975 -0.06594 0.78018
 H875 H 0.30217 -0.13286 0.83315
 H876 H 0.29595 -0.06123 0.75325
 C877 C 0.83745 0.37086 0.82992
 C878 C 0.82179 0.38310 0.83450
 C879 C 0.81503 0.39866 0.82145
 N880 N 0.79950 0.40961 0.82684
 N881 N 0.79275 0.42354 0.81525
 C882 C 0.80125 0.42712 0.79777
 N883 N 0.81690 0.41622 0.79236
 N884 N 0.82366 0.40222 0.80400
 C885 C 0.79339 0.44236 0.78485
 C886 C 0.77644 0.45235 0.79004
 H887 H 0.81381 0.38157 0.84793
 H888 H 0.80064 0.44546 0.77121
 H889 H 0.84509 0.37365 0.81639
 H890 H 0.76924 0.44878 0.80362
 C891 C 0.81633 -0.10646 0.34275
 C892 C 0.82188 -0.09530 0.32667
 C893 C 0.81034 -0.07845 0.32019
 N894 N 0.81652 -0.06794 0.30468
 N895 N 0.80599 -0.05302 0.29819
 C896 C 0.78887 -0.04802 0.30695
 N897 N 0.78271 -0.05846 0.32254
 N898 N 0.79326 -0.07341 0.32905
 C899 C 0.77682 -0.03200 0.29929
 C900 C 0.78258 -0.02189 0.28271
 H901 H 0.83484 -0.09866 0.31833
 H902 H 0.76299 -0.02866 0.30626
 H903 H 0.80372 -0.10153 0.35095
 H904 H 0.79638 -0.02549 0.27580
 C905 C 0.32594 0.62090 0.66039
 C906 C 0.32760 0.61384 0.67933
 C907 C 0.31617 0.59713 0.68646
 N908 N 0.31865 0.59071 0.70491
 N909 N 0.30831 0.57574 0.71169
 C910 C 0.29507 0.56664 0.70027
 N911 N 0.29259 0.57306 0.68182
 N912 N 0.30296 0.58801 0.67502
 C913 C 0.28332 0.55027 0.70763
 C914 C 0.28573 0.54272 0.72626
 H915 H 0.33710 0.62089 0.68959
 H916 H 0.27239 0.54409 0.69815
 H917 H 0.31559 0.61401 0.65078
 H918 H 0.29683 0.54871 0.73567
 C919 C 0.33610 1.11674 0.17438
 C920 C 0.34144 1.10656 0.19121
 C921 C 0.33094 1.08926 0.19833
 N922 N 0.33758 1.07992 0.21437
 N923 N 0.32817 1.06451 0.22145
 C924 C 0.31170 1.05782 0.21276
 N925 N 0.30505 1.06711 0.19666
 N926 N 0.31449 1.08256 0.18956
 C927 C 0.30093 1.04106 0.22082
 C928 C 0.30724 1.03139 0.23750
 H929 H 0.35393 1.11090 0.19967
 H930 H 0.28754 1.03656 0.21377
 H931 H 0.32430 1.11079 0.16579
 H932 H 0.32065 1.03594 0.24450
 C933 C 0.80942 0.62699 0.17574
 C934 C 0.81719 0.61491 0.19015
 C935 C 0.80667 0.59760 0.19730
 N936 N 0.81454 0.58652 0.21163
 N937 N 0.80502 0.57102 0.21845
 C938 C 0.78726 0.56602 0.21116
 N939 N 0.77943 0.57706 0.19681
 N940 N 0.78894 0.59256 0.19000
 C941 C 0.77626 0.54920 0.21867
 C942 C 0.78296 0.53755 0.23388
 H943 H 0.83131 0.61798 0.19648
 H944 H 0.76215 0.54617 0.21221
 H945 H 0.79563 0.62288 0.16918
 H946 H 0.79702 0.54052 0.24047
 C947 C 0.83048 1.11699 0.67864
 C948 C 0.81384 1.10803 0.67093
 C949 C 0.80277 1.09314 0.68168
 N950 N 0.78597 1.08597 0.67410
 N951 N 0.77547 1.07282 0.68380
 C952 C 0.78141 1.06635 0.70145
 N953 N 0.79826 1.07344 0.70899
 N954 N 0.80875 1.08662 0.69930
 C955 C 0.76986 1.05206 0.71248
 C956 C 0.75190 1.04511 0.70592
 H957 H 0.80802 1.11212 0.65700
 H958 H 0.77556 1.04711 0.72628
 H959 H 0.83533 1.11208 0.69279
 H960 H 0.74607 1.05015 0.69221
 C961 C 0.67749 0.62340 0.32549
 C962 C 0.68943 0.60847 0.33246
 C963 C 0.69500 0.59184 0.32041
 N964 N 0.70765 0.57835 0.32742
 N965 N 0.71325 0.56349 0.31652
 C966 C 0.70636 0.56153 0.29820
 N967 N 0.69360 0.57494 0.29124
 N968 N 0.68803 0.58983 0.30213
 C969 C 0.71298 0.54561 0.28572
 C970 C 0.72771 0.53279 0.29141
 H971 H 0.69500 0.60880 0.34709
 H972 H 0.70680 0.54459 0.27133
 H973 H 0.67138 0.62209 0.31110
 H974 H 0.73418 0.53407 0.30564
 C975 C 0.66902 1.12857 0.83443
 C976 C 0.66215 1.12050 0.81718
 C977 C 0.67228 1.10427 0.80766
 N978 N 0.66499 1.09693 0.79100
 N979 N 0.67400 1.08233 0.78212
 C980 C 0.69065 1.07452 0.78957
 N981 N 0.69794 1.08184 0.80624
 N982 N 0.68893 1.09644 0.81512
 C983 C 0.70082 1.05842 0.77989
 C984 C 0.69392 1.05045 0.76272
 H985 H 0.64908 1.12584 0.81018
 H986 H 0.71407 1.05276 0.78643
 H987 H 0.68202 1.12210 0.84076
 H988 H 0.68066 1.05611 0.75618
 C989 C 0.17095 0.61668 0.83046
 C990 C 0.16790 0.60703 0.81294
 C991 C 0.18090 0.59135 0.80626
 N992 N 0.17768 0.58302 0.78882
 N993 N 0.18947 0.56909 0.78235
 C994 C 0.20495 0.56293 0.79309
 N995 N 0.20815 0.57120 0.81056
 N996 N 0.19636 0.58516 0.81703
 C997 C 0.21833 0.54777 0.78599
 C998 C 0.21611 0.53933 0.76784
 H999 H 0.15606 0.61099 0.80337
 H1000 H 0.23041 0.54339 0.79517
 H1001 H 0.18315 0.61181 0.83928
 H1002 H 0.20408 0.54377 0.75861
 C1003 C 0.18895 1.11682 0.31720
 C1004 C 0.20123 1.10315 0.32594
 C1005 C 0.20911 1.08641 0.31543
 N1006 N 0.22225 1.07455 0.32424
 N1007 N 0.23001 1.05962 0.31482
 C1008 C 0.22488 1.05596 0.29622
 N1009 N 0.21160 1.06772 0.28744
 N1010 N 0.20388 1.08270 0.29686
 C1011 C 0.23383 1.03988 0.28547
 C1012 C 0.24941 1.02922 0.29304
 H1013 H 0.20543 1.10463 0.34093
 H1014 H 0.22864 1.03698 0.27097
 H1015 H 0.18410 1.11437 0.30250
 H1016 H 0.25497 1.03253 0.30731
 C1017 C 0.67136 0.36679 0.69060
 C1018 C 0.68281 0.38233 0.68428
 C1019 C 0.68892 0.39801 0.69719
 N1020 N 0.70098 0.41204 0.69027
 N1021 N 0.70718 0.42613 0.70176
 C1022 C 0.70153 0.42680 0.72062
 N1023 N 0.68926 0.41287 0.72754
 N1024 N 0.68308 0.39871 0.71602
 C1025 C 0.70914 0.44196 0.73348
 C1026 C 0.72449 0.45380 0.72733
 H1027 H 0.68748 0.38325 0.66932
 H1028 H 0.70340 0.44316 0.74806
 H1029 H 0.66584 0.36674 0.70534
 H1030 H 0.73063 0.45180 0.71299
 C1031 C 0.68712 -0.11304 0.17781
 C1032 C 0.68176 -0.10142 0.19348
 C1033 C 0.69329 -0.08439 0.19935
 N1034 N 0.68686 -0.07342 0.21427
 N1035 N 0.69707 -0.05809 0.22004
 C1036 C 0.71415 -0.05309 0.21112
 N1037 N 0.72061 -0.06405 0.19615
 N1038 N 0.71036 -0.07942 0.19036
 C1039 C 0.72565 -0.03632 0.21784
 C1040 C 0.71914 -0.02530 0.23342
 H1041 H 0.66870 -0.10437 0.20184
 H1042 H 0.73950 -0.03295 0.21087
 H1043 H 0.70009 -0.10874 0.16972
 H1044 H 0.70531 -0.02897 0.24029
 C1045 C 0.17893 0.37575 0.15083
 C1046 C 0.16906 0.38805 0.16358
 C1047 C 0.17844 0.40476 0.17286
 N1048 N 0.16872 0.41435 0.18703
 N1049 N 0.17704 0.42922 0.19602
 C1050 C 0.19539 0.43512 0.19111
 N1051 N 0.20507 0.42564 0.17681
 N1052 N 0.19678 0.41068 0.16787
 C1053 C 0.20488 0.45133 0.20114
 C1054 C 0.19709 0.45928 0.21803
 H1055 H 0.15391 0.38535 0.16733
 H1056 H 0.21875 0.45661 0.19552
 H1057 H 0.19373 0.37940 0.14639
 H1058 H 0.18369 0.45342 0.22417
 C1059 C 0.16969 -0.14442 0.66461
 C1060 C 0.18637 -0.13380 0.65908
 C1061 C 0.19299 -0.11659 0.66968
 N1062 N 0.20963 -0.10731 0.66401
 N1063 N 0.21614 -0.09199 0.67368
 C1064 C 0.20623 -0.08537 0.68937
 N1065 N 0.18955 -0.09458 0.69498
 N1066 N 0.18305 -0.10992 0.68533
 C1067 C 0.21341 -0.06884 0.70061
 C1068 C 0.23091 -0.05920 0.69633
 H1069 H 0.19528 -0.13793 0.64687
 H1070 H 0.20482 -0.06449 0.71307
 H1071 H 0.16125 -0.13900 0.67675
 H1072 H 0.23960 -0.06342 0.68390
 C1073 C 0.31605 0.33198 0.38311
 C1074 C 0.29943 0.33576 0.39439
 C1075 C 0.29341 0.32290 0.41048
 N1076 N 0.27658 0.32652 0.42036
 N1077 N 0.27073 0.31477 0.43467
 C1078 C 0.28154 0.29896 0.43962
 N1079 N 0.29841 0.29540 0.42980
 N1080 N 0.30423 0.30713 0.41549
 C1081 C 0.27524 0.28554 0.45507
 C1082 C 0.25754 0.28754 0.46506
 H1083 H 0.29032 0.34824 0.39151
 H1084 H 0.28472 0.27335 0.45833
 H1085 H 0.32508 0.31964 0.38702
 H1086 H 0.24790 0.29960 0.46180
 C1087 C 0.32219 0.81575 -0.11963
 C1088 C 0.30324 0.81782 -0.11225
 C1089 C 0.29682 0.80735 -0.09473
 N1090 N 0.27821 0.80953 -0.08810
 N1091 N 0.27201 0.79962 -0.07262
 C1092 C 0.28418 0.78713 -0.06323
 N1093 N 0.30280 0.78500 -0.06982
 N1094 N 0.30901 0.79493 -0.08527
 C1095 C 0.27734 0.77559 -0.04656
 C1096 C 0.25847 0.77758 -0.03911
 H1097 H 0.29246 0.82649 -0.11981
 H1098 H 0.28727 0.76505 -0.04028
 H1099 H 0.33231 0.80638 -0.11193
 H1100 H 0.24866 0.78835 -0.04519
 C1101 C 0.83071 0.32793 -0.11233
 C1102 C 0.83164 0.30951 -0.10383
 C1103 C 0.81972 0.30415 -0.08680
 N1104 N 0.82086 0.28594 -0.07931
 N1105 N 0.80985 0.28073 -0.06417
 C1106 C 0.79726 0.29355 -0.05596
 N1107 N 0.79616 0.31177 -0.06340
 N1108 N 0.80718 0.31699 -0.07852
 C1109 C 0.78457 0.28793 -0.03958
 C1110 C 0.78501 0.26946 -0.03126
 H1111 H 0.84066 0.29832 -0.11014
 H1112 H 0.77430 0.29860 -0.03418
 H1113 H 0.82077 0.33849 -0.10617
 H1114 H 0.79539 0.25880 -0.03647
 C1115 C 0.81788 0.84141 0.39072
 C1116 C 0.82611 0.82614 0.40127
 C1117 C 0.81576 0.81715 0.41775
 N1118 N 0.82349 0.80131 0.42660
 N1119 N 0.81398 0.79262 0.44112
 C1120 C 0.79640 0.79946 0.44736
 N1121 N 0.78874 0.81541 0.43863
 N1122 N 0.79824 0.82408 0.42408
 C1123 C 0.78544 0.78957 0.46291
 C1124 C 0.79172 0.77191 0.47054
 H1125 H 0.84027 0.82028 0.39741
 H1126 H 0.77178 0.79588 0.46784
 H1127 H 0.80400 0.84728 0.39560
 H1128 H 0.80518 0.76545 0.46527
 C1129 C 0.68296 0.32539 0.63259
 C1130 C 0.68204 0.30800 0.62245
 C1131 C 0.69560 0.30369 0.60638
 N1132 N 0.69418 0.28658 0.59695
 N1133 N 0.70650 0.28234 0.58259
 C1134 C 0.72074 0.29503 0.57711
 N1135 N 0.72217 0.31215 0.58653
 N1136 N 0.70982 0.31641 0.60088
 C1137 C 0.73460 0.29038 0.56139
 C1138 C 0.73321 0.27316 0.55110
 H1139 H 0.67165 0.29689 0.62659
 H1140 H 0.74610 0.30067 0.55791
 H1141 H 0.69408 0.33585 0.62839
 H1142 H 0.72155 0.26303 0.55451
 C1143 C 0.68132 0.83406 1.13025
 C1144 C 0.69351 0.84237 1.11620
 C1145 C 0.70069 0.83142 1.09941
 N1146 N 0.71381 0.83972 1.08711
 N1147 N 0.72084 0.82990 1.07209
 C1148 C 0.71495 0.81142 1.06875
 N1149 N 0.70169 0.80317 1.08095
 N1150 N 0.69470 0.81297 1.09603
 C1151 C 0.72311 0.80027 1.05252
 C1152 C 0.73881 0.80727 1.04157
 H1153 H 0.69806 0.85732 1.11731
 H1154 H 0.71728 0.78596 1.04973
 H1155 H 0.67628 0.81934 1.12816
 H1156 H 0.74503 0.82130 1.04487
 C1157 C 0.17821 0.32287 1.10105
 C1158 C 0.19781 0.32414 1.09531
 C1159 C 0.20585 0.31174 1.07991
 N1160 N 0.22517 0.31275 1.07526
 N1161 N 0.23276 0.30109 1.06188
 C1162 C 0.22133 0.28793 1.05268
 N1163 N 0.20200 0.28697 1.05728
 N1164 N 0.19441 0.29864 1.07064
 C1165 C 0.22959 0.27468 1.03814
 C1166 C 0.24925 0.27549 1.03265
 H1167 H 0.20785 0.33345 1.10299
 H1168 H 0.21999 0.26407 1.03164
 H1169 H 0.16876 0.31283 1.09352
 H1170 H 0.25873 0.28632 1.03896
 C1171 C 0.17860 0.80386 0.61641
 C1172 C 0.17161 0.79127 0.60232
 C1173 C 0.18419 0.78554 0.58590
 N1174 N 0.17735 0.77335 0.57214
 N1175 N 0.18860 0.76848 0.55710
 C1176 C 0.20706 0.77570 0.55525
 N1177 N 0.21386 0.78788 0.56898
 N1178 N 0.20265 0.79270 0.58399
 C1179 C 0.21984 0.77056 0.53888
 C1180 C 0.21446 0.75711 0.52495
 H1181 H 0.15660 0.78622 0.60272
 H1182 H 0.23422 0.77720 0.53814
 H1183 H 0.19356 0.80901 0.61509
 H1184 H 0.20027 0.75011 0.52584
 C1185 C 0.33260 0.67395 0.61069
 C1186 C 0.31907 0.66649 0.59754
 C1187 C 0.31192 0.67801 0.58097
 N1188 N 0.29815 0.67057 0.56898
 N1189 N 0.29124 0.68103 0.55419
 C1190 C 0.29790 0.69931 0.55084
 N1191 N 0.31173 0.70669 0.56276
 N1192 N 0.31861 0.69625 0.57755
 C1193 C 0.29014 0.71137 0.53498
 C1194 C 0.27511 0.70526 0.52282
 H1195 H 0.31344 0.65194 0.59925
 H1196 H 0.29608 0.72584 0.53326
 H1197 H 0.33855 0.68827 0.60793
 H1198 H 0.26902 0.69084 0.52449
 C1199 C 0.34396 0.16690 1.12281
 C1200 C 0.32650 0.16368 1.11284
 C1201 C 0.32180 0.17453 1.09495
 N1202 N 0.30433 0.17181 1.08603
 N1203 N 0.29965 0.18209 1.07028
 C1204 C 0.31227 0.19550 1.06288
 N1205 N 0.32976 0.19814 1.07174
 N1206 N 0.33444 0.18785 1.08746
 C1207 C 0.30709 0.20753 1.04594
 C1208 C 0.28932 0.20549 1.03626
 H1209 H 0.31554 0.15392 1.11867
 H1210 H 0.31737 0.21859 1.04126
 H1211 H 0.35422 0.17736 1.11682
 H1212 H 0.27913 0.19429 1.04080
 C1213 C 0.81055 0.68001 1.12665
 C1214 C 0.82016 0.69394 1.11527
 C1215 C 0.81089 0.70337 1.09843
 N1216 N 0.82055 0.71769 1.08876
 N1217 N 0.81226 0.72671 1.07375
 C1218 C 0.79400 0.72171 1.06781
 N1219 N 0.78438 0.70732 1.07741
 N1220 N 0.79265 0.69833 1.09246
 C1221 C 0.78443 0.73173 1.05148
 C1222 C 0.79272 0.74779 1.04216
 H1223 H 0.83498 0.69827 1.11866
 H1224 H 0.77012 0.72663 1.04708
 H1225 H 0.79617 0.67509 1.12224
 H1226 H 0.80686 0.75319 1.04675
 C1227 C 0.83981 0.16348 0.62460
 C1228 C 0.84253 0.18260 0.61845
 C1229 C 0.83258 0.19034 0.60114
 N1230 N 0.83505 0.20917 0.59593
 N1231 N 0.82534 0.21662 0.58090
 C1232 C 0.81275 0.20553 0.57056
 N1233 N 0.81035 0.18667 0.57570
 N1234 N 0.82009 0.17921 0.59070
 C1235 C 0.80125 0.21382 0.55449
 C1236 C 0.80352 0.23304 0.54865
 H1237 H 0.85092 0.19258 0.62712
 H1238 H 0.79047 0.20476 0.54748
 H1239 H 0.83074 0.15411 0.61586
 H1240 H 0.81455 0.24194 0.55549
 C1241 C 0.69010 0.66966 0.37965
 C1242 C 0.68432 0.68314 0.39352
 C1243 C 0.69713 0.68887 0.40962
 N1244 N 0.69102 0.70269 0.42212
 N1245 N 0.70245 0.70827 0.43664
 C1246 C 0.72044 0.70021 0.43926
 N1247 N 0.72654 0.68631 0.42682
 N1248 N 0.71511 0.68075 0.41225
 C1249 C 0.73327 0.70653 0.45515
 C1250 C 0.72805 0.72193 0.46704
 H1251 H 0.66997 0.68974 0.39286
 H1252 H 0.74719 0.69926 0.45723
 H1253 H 0.70424 0.66267 0.38131
 H1254 H 0.71428 0.72939 0.46459
 C1255 C 0.67180 0.17227 -0.11009
 C1256 C 0.67024 0.19090 -0.10247
 C1257 C 0.68120 0.19701 -0.08528
 N1258 N 0.67937 0.21544 -0.07882
 N1259 N 0.68949 0.22139 -0.06353
 C1260 C 0.70184 0.20911 -0.05412
 N1261 N 0.70363 0.19066 -0.06053
 N1262 N 0.69348 0.18470 -0.07582
 C1263 C 0.71363 0.21561 -0.03763
 C1264 C 0.71260 0.23447 -0.03060
 H1265 H 0.66136 0.20177 -0.10961
 H1266 H 0.72380 0.20538 -0.03120
 H1267 H 0.68172 0.16204 -0.10328
 H1268 H 0.70233 0.24471 -0.03686
 C1269 C 0.16068 0.66680 -0.11940
 C1270 C 0.17882 0.66473 -0.11031
 C1271 C 0.18406 0.67616 -0.09317
 N1272 N 0.20193 0.67385 -0.08490
 N1273 N 0.20712 0.68451 -0.06976
 C1274 C 0.19464 0.69792 -0.06233
 N1275 N 0.17675 0.70019 -0.07055
 N1276 N 0.17155 0.68951 -0.08568
 C1277 C 0.20047 0.71028 -0.04605
 C1278 C 0.21868 0.70832 -0.03718
 H1279 H 0.18990 0.65523 -0.11619
 H1280 H 0.19043 0.72146 -0.04130
 H1281 H 0.15027 0.67699 -0.11336
 H1282 H 0.22860 0.69700 -0.04184
 C1283 C 0.19436 0.16601 0.36991
 C1284 C 0.18510 0.17702 0.38412
 C1285 C 0.19547 0.18454 0.40112
 N1286 N 0.18546 0.19517 0.41429
 N1287 N 0.19455 0.20248 0.42960
 C1288 C 0.21402 0.19943 0.43238
 N1289 N 0.22405 0.18871 0.41925
 N1290 N 0.21494 0.18139 0.40389
 C1291 C 0.22423 0.20802 0.44902
 C1292 C 0.21441 0.22029 0.46172
 H1293 H 0.16959 0.18012 0.38304
 H1294 H 0.23975 0.20527 0.45087
 H1295 H 0.20956 0.16191 0.37191
 H1296 H 0.19897 0.22322 0.45952
 C1297 C 0.32819 0.38092 0.66346
 C1298 C 0.33096 0.38903 0.68173
 C1299 C 0.31974 0.40601 0.68832
 N1300 N 0.32282 0.41323 0.70628
 N1301 N 0.31248 0.42832 0.71262
 C1302 C 0.29865 0.43675 0.70122
 N1303 N 0.29561 0.42957 0.68324
 N1304 N 0.30596 0.41451 0.67690
 C1305 C 0.28661 0.45300 0.70818
 C1306 C 0.28898 0.46103 0.72649
 H1307 H 0.34105 0.38252 0.69192
 H1308 H 0.27517 0.45844 0.69874
 H1309 H 0.31733 0.38737 0.65398
 H1310 H 0.30053 0.45577 0.73590
 C1311 C 0.33029 0.86749 0.16765
 C1312 C 0.33921 0.87923 0.18144
 C1313 C 0.32889 0.89555 0.19052
 N1314 N 0.33765 0.90549 0.20498
 N1315 N 0.32837 0.92003 0.21366
 C1316 C 0.30999 0.92523 0.20816
 N1317 N 0.30127 0.91538 0.19360
 N1318 N 0.31054 0.90079 0.18496
 C1319 C 0.29940 0.94098 0.21791
 C1320 C 0.30678 0.94986 0.23440
 H1321 H 0.35415 0.87656 0.18591
 H1322 H 0.28515 0.94518 0.21238
 H1323 H 0.31563 0.87118 0.16288
 H1324 H 0.32078 0.94528 0.24022
 C1325 C 0.84001 0.37769 0.18202
 C1326 C 0.82607 0.39118 0.17578
 C1327 C 0.81770 0.40592 0.18868
 N1328 N 0.80312 0.41764 0.18215
 N1329 N 0.79497 0.43073 0.19375
 C1330 C 0.80112 0.43260 0.21232
 N1331 N 0.81578 0.42097 0.21882
 N1332 N 0.82390 0.40784 0.20723
 C1333 C 0.79212 0.44679 0.22542
 C1334 C 0.77589 0.45792 0.22011
 H1335 H 0.82079 0.39101 0.16104
 H1336 H 0.79823 0.44822 0.23979
 H1337 H 0.84588 0.37896 0.19651
 H1338 H 0.76950 0.45628 0.20588
 C1339 C 0.81448 0.88219 0.68464
 C1340 C 0.79916 0.89291 0.67649
 C1341 C 0.78977 0.90906 0.68682
 N1342 N 0.77448 0.91862 0.67861
 N1343 N 0.76584 0.93328 0.68776
 C1344 C 0.77219 0.93894 0.70546
 N1345 N 0.78750 0.92941 0.71365
 N1346 N 0.79612 0.91473 0.70452
 C1347 C 0.76284 0.95511 0.71577
 C1348 C 0.74637 0.96466 0.70854
 H1349 H 0.79393 0.88979 0.66210
 H1350 H 0.76897 0.95944 0.72952
 H1351 H 0.81965 0.88625 0.69887
 H1352 H 0.74003 0.96012 0.69495
 C1353 C 0.68658 0.62336 0.68098
 C1354 C 0.67946 0.60783 0.69193
 C1355 C 0.69203 0.59163 0.69816
 N1356 N 0.68434 0.57740 0.70945
 N1357 N 0.69549 0.56280 0.71562
 C1358 C 0.71478 0.56181 0.71072
 N1359 N 0.72247 0.57596 0.69924
 N1360 N 0.71130 0.59062 0.69309
 C1361 C 0.72725 0.54602 0.71828
 C1362 C 0.72009 0.53356 0.73258
 H1363 H 0.66414 0.60725 0.69600
 H1364 H 0.74230 0.54484 0.71339
 H1365 H 0.70174 0.62306 0.67622
 H1366 H 0.70525 0.53551 0.73786
 C1367 C 0.65720 0.13579 0.18872
 C1368 C 0.67051 0.12195 0.18219
 C1369 C 0.67855 0.10677 0.19493
 N1370 N 0.69229 0.09449 0.18789
 N1371 N 0.70024 0.08098 0.19926
 C1372 C 0.69474 0.07919 0.21811
 N1373 N 0.68085 0.09136 0.22514
 N1374 N 0.67291 0.10494 0.21376
 C1375 C 0.70409 0.06467 0.23083
 C1376 C 0.72031 0.05424 0.22444
 H1377 H 0.67536 0.12209 0.16727
 H1378 H 0.69873 0.06276 0.24551
 H1379 H 0.65166 0.13464 0.20341
 H1380 H 0.72590 0.05679 0.20994
 C1381 C 0.14530 0.62124 0.16823
 C1382 C 0.14331 0.61301 0.18666
 C1383 C 0.15486 0.59589 0.19246
 N1384 N 0.15246 0.58794 0.21035
 N1385 N 0.16342 0.57295 0.21600
 C1386 C 0.17723 0.56539 0.20399
 N1387 N 0.17960 0.57331 0.18611
 N1388 N 0.16861 0.58825 0.18045
 C1389 C 0.18999 0.54935 0.21024
 C1390 C 0.18746 0.53995 0.22798
 H1391 H 0.13401 0.61964 0.19745
 H1392 H 0.20185 0.54503 0.20072
 H1393 H 0.15504 0.61422 0.15803
 H1394 H 0.17527 0.54388 0.23725
 C1395 C 0.16003 0.10292 0.66467
 C1396 C 0.17806 0.09433 0.66040
 C1397 C 0.18534 0.07733 0.67128
 N1398 N 0.20303 0.06958 0.66675
 N1399 N 0.21002 0.05448 0.67669
 C1400 C 0.19960 0.04653 0.69156
 N1401 N 0.18187 0.05423 0.69606
 N1402 N 0.17487 0.06934 0.68611
 C1403 C 0.20750 0.03013 0.70297
 C1404 C 0.22588 0.02233 0.69888
 H1405 H 0.18748 0.10039 0.64930
 H1406 H 0.19899 0.02449 0.71502
 H1407 H 0.15135 0.09668 0.67632
 H1408 H 0.23429 0.02813 0.68683
 C1409 C 0.32329 0.61974 0.30224
 C1410 C 0.30933 0.60740 0.31060
 C1411 C 0.29904 0.59238 0.29956
 N1412 N 0.28482 0.58169 0.30832
 N1413 N 0.27495 0.56835 0.29849
 C1414 C 0.27895 0.56520 0.27950
 N1415 N 0.29324 0.57583 0.27075
 N1416 N 0.30308 0.58921 0.28057
 C1417 C 0.26811 0.55060 0.26839
 C1418 C 0.25251 0.54010 0.27631
 H1419 H 0.30550 0.60875 0.32573
 H1420 H 0.27250 0.54816 0.25352
 H1421 H 0.32785 0.61724 0.28742
 H1422 H 0.24793 0.54268 0.29111
 C1423 C 0.32637 0.10367 0.80979
 C1424 C 0.30867 0.09384 0.81228
 C1425 C 0.30345 0.07728 0.80000
 N1426 N 0.28604 0.06812 0.80259
 N1427 N 0.28093 0.05350 0.79117
 C1428 C 0.29301 0.04752 0.77671
 N1429 N 0.31045 0.05664 0.77416
 N1430 N 0.31557 0.07123 0.78559
 C1431 C 0.28731 0.03175 0.76366
 C1432 C 0.26973 0.02178 0.76608
 H1433 H 0.29796 0.09874 0.82273
 H1434 H 0.29702 0.02812 0.75177
 H1435 H 0.33642 0.09856 0.79876
 H1436 H 0.26021 0.02528 0.77814
 C1437 C 0.80854 0.62554 0.83420
 C1438 C 0.81686 0.61004 0.82432
 C1439 C 0.80536 0.59289 0.81897
 N1440 N 0.81398 0.57860 0.80863
 N1441 N 0.80367 0.56325 0.80309
 C1442 C 0.78436 0.56155 0.80770
 N1443 N 0.77576 0.57575 0.81824
 N1444 N 0.78608 0.59114 0.82377
 C1445 C 0.77269 0.54515 0.80054
 C1446 C 0.78055 0.53264 0.78685
 H1447 H 0.83222 0.61029 0.82037
 H1448 H 0.75749 0.54377 0.80491
 H1449 H 0.79340 0.62442 0.83889
 H1450 H 0.79553 0.53475 0.78200
 C1451 C 0.83816 0.13988 0.32214
 C1452 C 0.82294 0.12765 0.32805
 C1453 C 0.81474 0.11261 0.31540
 N1454 N 0.79932 0.10189 0.32172
 N1455 N 0.79165 0.08818 0.31060
 C1456 C 0.79910 0.08461 0.29271
 N1457 N 0.81459 0.09529 0.28638
 N1458 N 0.82225 0.10906 0.29750
 C1459 C 0.79057 0.06937 0.28043
 C1460 C 0.77367 0.05956 0.28624
 H1461 H 0.81683 0.12872 0.34246
 H1462 H 0.79755 0.06592 0.26677
 H1463 H 0.84429 0.13789 0.30779
 H1464 H 0.76667 0.06350 0.29976
 C1465 C 0.68521 0.36467 0.33333
 C1466 C 0.67816 0.37787 0.31957
 C1467 C 0.69020 0.39419 0.31242
 N1468 N 0.68298 0.40643 0.29871
 N1469 N 0.69374 0.42120 0.29207
 C1470 C 0.71213 0.42429 0.29890
 N1471 N 0.71933 0.41208 0.31263
 N1472 N 0.70859 0.39731 0.31926
 C1473 C 0.72430 0.44045 0.29164
 C1474 C 0.71804 0.45287 0.27688
 H1475 H 0.66346 0.37657 0.31395
 H1476 H 0.73871 0.44239 0.29788
 H1477 H 0.69979 0.36697 0.33906
 H1478 H 0.70373 0.45079 0.27047
 C1479 C 0.66804 0.88467 0.83111
 C1480 C 0.65842 0.89780 0.81893
 C1481 C 0.66841 0.91457 0.81018
 N1482 N 0.65911 0.92531 0.79649
 N1483 N 0.66823 0.94002 0.78771
 C1484 C 0.68700 0.94455 0.79237
 N1485 N 0.69623 0.93395 0.80623
 N1486 N 0.68713 0.91919 0.81495
 C1487 C 0.69754 0.96023 0.78232
 C1488 C 0.68995 0.96949 0.76597
 H1489 H 0.64323 0.89558 0.81510
 H1490 H 0.71209 0.96389 0.78736
 H1491 H 0.68286 0.88788 0.83569
 H1492 H 0.67564 0.96548 0.76055
 C1493 C 0.18776 0.37321 0.82978
 C1494 C 0.18477 0.38157 0.81153
 C1495 C 0.19462 0.39955 0.80530
 N1496 N 0.19110 0.40694 0.78739
 N1497 N 0.20015 0.42298 0.78132
 C1498 C 0.21310 0.43224 0.79294
 N1499 N 0.21659 0.42487 0.81088
 N1500 N 0.20751 0.40884 0.81697
 C1501 C 0.22370 0.44961 0.78621
 C1502 C 0.22061 0.45776 0.76793
 H1503 H 0.17547 0.37458 0.80105
 H1504 H 0.23460 0.45580 0.79570
 H1505 H 0.19793 0.38013 0.83956
 H1506 H 0.20957 0.45171 0.75850
 C1507 C 0.17342 0.87069 0.31398
 C1508 C 0.18986 0.87983 0.32175
 C1509 C 0.20020 0.89568 0.31158
 N1510 N 0.21641 0.90363 0.31961
 N1511 N 0.22609 0.91784 0.31055
 C1512 C 0.21991 0.92465 0.29311
 N1513 N 0.20366 0.91674 0.28509
 N1514 N 0.19399 0.90251 0.29413
 C1515 C 0.23053 0.94028 0.28286
 C1516 C 0.24782 0.94819 0.29007
 H1517 H 0.19542 0.87553 0.33578
 H1518 H 0.22469 0.94550 0.26922
 H1519 H 0.16765 0.87605 0.30036
 H1520 H 0.25377 0.94280 0.30360
 C1521 C 0.38235 0.33057 0.66722
 C1522 C 0.38830 0.33387 0.68624
 C1523 C 0.40462 0.32288 0.69493
 N1524 N 0.40989 0.32598 0.71360
 N1525 N 0.42414 0.31554 0.72176
 C1526 C 0.43359 0.30159 0.71154
 N1527 N 0.42837 0.29856 0.69289
 N1528 N 0.41418 0.30901 0.68473
 C1529 C 0.44884 0.28936 0.72033
 C1530 C 0.45570 0.29198 0.73911
 H1531 H 0.38031 0.34379 0.69539
 H1532 H 0.45476 0.27771 0.71164
 H1533 H 0.39035 0.32000 0.65877
 H1534 H 0.45033 0.30392 0.74773
 C1535 C 0.38207 0.81471 0.16636
 C1536 C 0.39451 0.82241 0.18039
 C1537 C 0.41116 0.81131 0.18830
 N1538 N 0.42230 0.81894 0.20260
 N1539 N 0.43723 0.80893 0.21008
 C1540 C 0.44159 0.79094 0.20348
 N1541 N 0.43051 0.78336 0.18912
 N1542 N 0.41557 0.79334 0.18168
 C1543 C 0.45774 0.77945 0.21173
 C1544 C 0.46880 0.78567 0.22746
 H1545 H 0.39226 0.83690 0.18577
 H1546 H 0.46060 0.76534 0.20556
 H1547 H 0.38536 0.80044 0.16076
 H1548 H 0.46584 0.79964 0.23389
 C1549 C 0.88991 0.32542 0.16963
 C1550 C 0.89935 0.32662 0.18749
 C1551 C 0.91629 0.31429 0.19239
 N1552 N 0.92532 0.31635 0.20972
 N1553 N 0.94038 0.30503 0.21456
 C1554 C 0.94696 0.29117 0.20226
 N1555 N 0.93794 0.28911 0.18492
 N1556 N 0.92290 0.30047 0.18006
 C1557 C 0.96335 0.27831 0.20758
 C1558 C 0.97369 0.28062 0.22477
 H1559 H 0.89403 0.33626 0.19857
 H1560 H 0.96730 0.26676 0.19778
 H1561 H 0.89553 0.31522 0.15913
 H1562 H 0.96998 0.29244 0.23436
 C1563 C 0.87080 0.83694 0.68443
 C1564 C 0.87938 0.81884 0.68136
 C1565 C 0.89656 0.81218 0.69239
 N1566 N 0.90433 0.79446 0.68884
 N1567 N 0.91955 0.78797 0.69904
 C1568 C 0.92756 0.79896 0.71321
 N1569 N 0.91982 0.81670 0.71673
 N1570 N 0.90462 0.82321 0.70650
 C1571 C 0.94397 0.79171 0.72500
 C1572 C 0.95255 0.77372 0.72164
 H1573 H 0.87302 0.80878 0.67124
 H1574 H 0.94913 0.80058 0.73681
 H1575 H 0.87714 0.84630 0.69527
 H1576 H 0.94756 0.76499 0.70965
 C1577 C 0.62893 0.31642 0.33171
 C1578 C 0.61625 0.32667 0.31954
 C1579 C 0.59826 0.31775 0.31191
 N1580 N 0.58625 0.32807 0.30007
 N1581 N 0.56998 0.32011 0.29304
 C1582 C 0.56511 0.30153 0.29762
 N1583 N 0.57710 0.29124 0.30948
 N1584 N 0.59336 0.29919 0.31649
 C1585 C 0.54745 0.29232 0.28970
 C1586 C 0.53510 0.30180 0.27669
 H1587 H 0.61916 0.34164 0.31582
 H1588 H 0.54448 0.27740 0.29375
 H1589 H 0.62503 0.30173 0.33584
 H1590 H 0.53815 0.31665 0.27245
 C1591 C 0.61934 0.83171 0.82286
 C1592 C 0.60865 0.81498 0.82724
 C1593 C 0.59300 0.80827 0.81419
 N1594 N 0.58250 0.79210 0.81856
 N1595 N 0.56842 0.78598 0.80673
 C1596 C 0.56431 0.79582 0.79009
 N1597 N 0.57479 0.81197 0.78575
 N1598 N 0.58884 0.81806 0.79756
 C1599 C 0.54899 0.78928 0.77668
 C1600 C 0.53780 0.77275 0.78017
 H1601 H 0.61152 0.80669 0.84026
 H1602 H 0.54665 0.79765 0.76355
 H1603 H 0.61555 0.83955 0.80975
 H1604 H 0.54011 0.76436 0.79329
 C1605 C 0.13688 0.32138 0.82266
 C1606 C 0.12457 0.30670 0.82962
 C1607 C 0.10805 0.29932 0.81811
 N1608 N 0.09645 0.28498 0.82532
 N1609 N 0.08158 0.27808 0.81496
 C1610 C 0.07777 0.28529 0.79700
 N1611 N 0.08935 0.29963 0.78981
 N1612 N 0.10421 0.30651 0.80016
 C1613 C 0.06156 0.27784 0.78519
 C1614 C 0.04927 0.26285 0.79135
 H1615 H 0.12674 0.30049 0.84386
 H1616 H 0.05939 0.28434 0.77102
 H1617 H 0.13360 0.32788 0.80871
 H1618 H 0.05136 0.25624 0.80547
 C1619 C 0.11397 0.82773 0.31832
 C1620 C 0.10509 0.83411 0.30122
 C1621 C 0.08626 0.82606 0.29466
 N1622 N 0.07812 0.83250 0.27790
 N1623 N 0.06144 0.82487 0.27147
 C1624 C 0.05229 0.81048 0.28155
 N1625 N 0.06038 0.80409 0.29833
 N1626 N 0.07704 0.81174 0.30477
 C1627 C 0.03430 0.80134 0.27426
 C1628 C 0.02532 0.80743 0.25717
 H1629 H 0.11224 0.84459 0.29189
 H1630 H 0.02832 0.78913 0.28227
 H1631 H 0.10639 0.81689 0.32696
 H1632 H 0.03113 0.81981 0.24930
 C1633 C 0.62761 0.66645 0.68828
 C1634 C 0.61261 0.67741 0.67992
 C1635 C 0.59567 0.68467 0.69091
 N1636 N 0.58336 0.69752 0.68234
 N1637 N 0.56838 0.70502 0.69214
 C1638 C 0.56506 0.69992 0.71089
 N1639 N 0.57721 0.68683 0.71943
 N1640 N 0.59230 0.67938 0.70963
 C1641 C 0.54896 0.70888 0.72194
 C1642 C 0.53983 0.72564 0.71509
 H1643 H 0.61338 0.68142 0.66477
 H1644 H 0.54501 0.70292 0.73597
 H1645 H 0.62601 0.66152 0.70314
 H1646 H 0.54477 0.73212 0.70159
 C1647 C 0.60556 0.18463 0.17710
 C1648 C 0.59957 0.20359 0.17310
 C1649 C 0.58216 0.21179 0.18273
 N1650 N 0.57742 0.23078 0.18035
 N1651 N 0.56236 0.23845 0.19002
 C1652 C 0.55154 0.22737 0.20240
 N1653 N 0.55616 0.20839 0.20460
 N1654 N 0.57115 0.20075 0.19495
 C1655 C 0.53576 0.23554 0.21432
 C1656 C 0.52952 0.25473 0.21301
 H1657 H 0.60843 0.21301 0.16404
 H1658 H 0.52915 0.22602 0.22506
 H1659 H 0.59673 0.17592 0.18692
 H1660 H 0.53527 0.26423 0.20180
 C1661 C 0.09733 0.67612 0.17666
 C1662 C 0.08515 0.69038 0.16872
 C1663 C 0.07013 0.70066 0.18003
 N1664 N 0.05997 0.71536 0.17162
 N1665 N 0.04664 0.72524 0.18165
 C1666 C 0.04293 0.72077 0.20049
 N1667 N 0.05301 0.70597 0.20889
 N1668 N 0.06640 0.69612 0.19886
 C1669 C 0.02840 0.73178 0.21177
 C1670 C 0.01931 0.74833 0.20431
 H1671 H 0.08662 0.69447 0.15364
 H1672 H 0.02512 0.72700 0.22640
 H1673 H 0.09477 0.67135 0.19143
 H1674 H 0.02299 0.75338 0.18985
 C1675 C 0.11157 0.15756 0.66463
 C1676 C 0.10573 0.15563 0.68394
 C1677 C 0.09133 0.16897 0.69250
 N1678 N 0.08506 0.16623 0.71099
 N1679 N 0.07249 0.17860 0.71904
 C1680 C 0.06583 0.19421 0.70891
 N1681 N 0.07211 0.19696 0.69046
 N1682 N 0.08461 0.18457 0.68240
 C1683 C 0.05226 0.20823 0.71759
 C1684 C 0.04362 0.20514 0.73564
 H1685 H 0.11230 0.14487 0.69333
 H1686 H 0.04875 0.22120 0.70937
 H1687 H 0.10463 0.16870 0.65588
 H1688 H 0.04649 0.19184 0.74357
 C1689 C 0.37679 0.66833 0.30584
 C1690 C 0.38878 0.68224 0.31444
 C1691 C 0.40630 0.69001 0.30451
 N1692 N 0.41715 0.70410 0.31293
 N1693 N 0.43285 0.71145 0.30394
 C1694 C 0.43828 0.70493 0.28620
 N1695 N 0.42748 0.69079 0.27784
 N1696 N 0.41180 0.68348 0.28680
 C1697 C 0.45528 0.71304 0.27576
 C1698 C 0.46645 0.72835 0.28285
 H1699 H 0.38549 0.68771 0.32870
 H1700 H 0.45875 0.70705 0.26170
 H1701 H 0.38108 0.66283 0.29179
 H1702 H 0.46299 0.73453 0.29682
 C1703 C 0.36904 0.16125 0.81133
 C1704 C 0.38010 0.17558 0.82035
 C1705 C 0.39610 0.18569 0.81010
 N1706 N 0.40663 0.19951 0.81927
 N1707 N 0.42122 0.20867 0.81015
 C1708 C 0.42582 0.20432 0.79152
 N1709 N 0.41529 0.19050 0.78236
 N1710 N 0.40070 0.18137 0.79147
 C1711 C 0.44186 0.21425 0.78121
 C1712 C 0.45271 0.22900 0.78968
 H1713 H 0.37749 0.17921 0.83534
 H1714 H 0.44505 0.20994 0.76648
 H1715 H 0.37269 0.15747 0.79655
 H1716 H 0.44939 0.23347 0.80434
 C1717 C 0.86361 0.67263 0.82352
 C1718 C 0.87703 0.68667 0.82942
 C1719 C 0.89386 0.69270 0.81734
 N1720 N 0.90563 0.70728 0.82340
 N1721 N 0.92071 0.71321 0.81259
 C1722 C 0.92469 0.70477 0.79530
 N1723 N 0.91301 0.69009 0.78928
 N1724 N 0.89786 0.68418 0.80009
 C1725 C 0.94112 0.71163 0.78305
 C1726 C 0.95170 0.72820 0.78780
 H1727 H 0.87539 0.69360 0.84331
 H1728 H 0.94442 0.70400 0.76978
 H1729 H 0.86622 0.66542 0.80987
 H1730 H 0.94785 0.73607 0.80078
 C1731 C 0.89286 0.18679 0.33327
 C1732 C 0.90566 0.17861 0.31982
 C1733 C 0.92289 0.18903 0.31229
 N1734 N 0.93332 0.18137 0.29745
 N1735 N 0.94839 0.19098 0.28976
 C1736 C 0.95366 0.20860 0.29666
 N1737 N 0.94340 0.21616 0.31168
 N1738 N 0.92825 0.20657 0.31933
 C1739 C 0.96967 0.21973 0.28760
 C1740 C 0.97774 0.21419 0.26994
 H1741 H 0.90288 0.16433 0.31411
 H1742 H 0.97433 0.23310 0.29431
 H1743 H 0.89662 0.20064 0.33956
 H1744 H 0.97245 0.20123 0.26290
 C1745 C 0.33170 0.32581 0.61655
 C1746 C 0.31218 0.32663 0.61059
 C1747 C 0.30466 0.31443 0.59488
 N1748 N 0.28543 0.31540 0.59001
 N1749 N 0.27829 0.30425 0.57605
 C1750 C 0.29008 0.29167 0.56643
 N1751 N 0.30932 0.29071 0.57128
 N1752 N 0.31648 0.30187 0.58524
 C1753 C 0.28227 0.27924 0.55101
 C1754 C 0.26267 0.28021 0.54549
 H1755 H 0.30181 0.33580 0.61805
 H1756 H 0.29214 0.26930 0.54381
 H1757 H 0.34149 0.31575 0.60939
 H1758 H 0.25294 0.29032 0.55264
 C1759 C 0.33084 0.81715 0.11575
 C1760 C 0.31150 0.82005 0.10973
 C1761 C 0.30318 0.80944 0.09327
 N1762 N 0.28414 0.81214 0.08821
 N1763 N 0.27630 0.80215 0.07371
 C1764 C 0.28723 0.78909 0.06378
 N1765 N 0.30626 0.78646 0.06879
 N1766 N 0.31410 0.79645 0.08325
 C1767 C 0.27885 0.77735 0.04820
 C1768 C 0.25952 0.77918 0.04189
 H1769 H 0.30182 0.82954 0.11767
 H1770 H 0.28829 0.76657 0.04167
 H1771 H 0.33982 0.80686 0.10793
 H1772 H 0.25006 0.79019 0.04798
 C1773 C 0.83224 0.33324 0.12567
 C1774 C 0.83332 0.31471 0.11780
 C1775 C 0.82071 0.30865 0.10172
 N1776 N 0.82186 0.29025 0.09504
 N1777 N 0.81030 0.28442 0.08072
 C1778 C 0.79715 0.29677 0.07255
 N1779 N 0.79604 0.31519 0.07918
 N1780 N 0.80760 0.32103 0.09351
 C1781 C 0.78404 0.29043 0.05698
 C1782 C 0.78452 0.27161 0.04985
 H1783 H 0.84304 0.30394 0.12397
 H1784 H 0.77359 0.30077 0.05119
 H1785 H 0.82155 0.34334 0.11988
 H1786 H 0.79502 0.26129 0.05558
 C1787 C 0.81934 0.83274 0.63181
 C1788 C 0.82484 0.81467 0.62452
 C1789 C 0.81541 0.80632 0.60732
 N1790 N 0.82115 0.78874 0.60065
 N1791 N 0.81246 0.78091 0.58530
 C1792 C 0.79770 0.79041 0.57609
 N1793 N 0.79201 0.80798 0.58274
 N1794 N 0.80069 0.81581 0.59804
 C1795 C 0.78743 0.78197 0.55948
 C1796 C 0.79251 0.76424 0.55124
 H1797 H 0.83583 0.80599 0.63176
 H1798 H 0.77515 0.79006 0.55366
 H1799 H 0.80768 0.84059 0.62458
 H1800 H 0.80501 0.75618 0.55662
 C1801 C 0.32108 0.66858 0.35509
 C1802 C 0.32837 0.68241 0.36787
 C1803 C 0.31650 0.68906 0.38442
 N1804 N 0.32340 0.70295 0.39645
 N1805 N 0.31263 0.70898 0.41141
 C1806 C 0.29460 0.70129 0.41488
 N1807 N 0.28776 0.68741 0.40289
 N1808 N 0.29848 0.68142 0.38797
 C1809 C 0.28225 0.70769 0.43109
 C1810 C 0.28753 0.72252 0.44362
 H1811 H 0.34293 0.68833 0.36608
 H1812 H 0.26817 0.70063 0.43292
 H1813 H 0.30653 0.66287 0.35784
 H1814 H 0.30148 0.72982 0.44184
 C1815 C 0.31849 0.15124 0.86424
 C1816 C 0.32764 0.16269 0.87812
 C1817 C 0.31744 0.17031 0.89527
 N1818 N 0.32751 0.18140 0.90794
 N1819 N 0.31853 0.18915 0.92318
 C1820 C 0.29911 0.18612 0.92636
 N1821 N 0.28902 0.17490 0.91376
 N1822 N 0.29802 0.16713 0.89848
 C1823 C 0.28895 0.19546 0.94273
 C1824 C 0.29874 0.20843 0.95469
 H1825 H 0.34296 0.16642 0.87643
 H1826 H 0.27341 0.19289 0.94477
 H1827 H 0.30364 0.14626 0.86681
 H1828 H 0.31420 0.21119 0.95227
 C1829 C 0.81269 0.68247 0.87657
 C1830 C 0.82229 0.69664 0.88727
 C1831 C 0.81263 0.70603 0.90384
 N1832 N 0.82197 0.72023 0.91368
 N1833 N 0.81333 0.72875 0.92872
 C1834 C 0.79505 0.72333 0.93452
 N1835 N 0.78576 0.70910 0.92473
 N1836 N 0.79437 0.70062 0.90969
 C1837 C 0.78515 0.73274 0.95090
 C1838 C 0.79331 0.74852 0.96037
 H1839 H 0.83725 0.70067 0.88392
 H1840 H 0.77078 0.72751 0.95516
 H1841 H 0.79791 0.67850 0.88083
 H1842 H 0.80749 0.75401 0.95584
 C1843 C 0.83747 0.18256 0.38092
 C1844 C 0.84158 0.20006 0.39017
 C1845 C 0.83130 0.20603 0.40794
 N1846 N 0.83558 0.22331 0.41621
 N1847 N 0.82622 0.22901 0.43218
 C1848 C 0.81225 0.21759 0.44045
 N1849 N 0.80803 0.20031 0.43220
 N1850 N 0.81738 0.19462 0.41627
 C1851 C 0.80126 0.22370 0.45771
 C1852 C 0.80445 0.24126 0.46711
 H1853 H 0.85220 0.21004 0.38412
 H1854 H 0.78980 0.21409 0.46290
 H1855 H 0.82595 0.17342 0.38680
 H1856 H 0.81602 0.25089 0.46223
 C1857 C 0.67961 0.31132 0.38252
 C1858 C 0.69171 0.31978 0.39633
 C1859 C 0.69978 0.30878 0.41280
 N1860 N 0.71151 0.31787 0.42566
 N1861 N 0.71940 0.30811 0.44040
 C1862 C 0.71585 0.28888 0.44287
 N1863 N 0.70402 0.27979 0.43006
 N1864 N 0.69612 0.28956 0.41529
 C1865 C 0.72518 0.27789 0.45872
 C1866 C 0.73862 0.28667 0.47100
 H1867 H 0.69537 0.33500 0.39527
 H1868 H 0.72212 0.26254 0.46019
 H1869 H 0.67505 0.29641 0.38459
 H1870 H 0.74183 0.30195 0.46920
 C1871 C 0.66752 0.82907 0.87826
 C1872 C 0.67989 0.83797 0.89166
 C1873 C 0.68985 0.82730 0.90732
 N1874 N 0.70362 0.83646 0.91804
 N1875 N 0.71318 0.82706 0.93203
 C1876 C 0.70928 0.80813 0.93588
 N1877 N 0.69541 0.79898 0.92525
 N1878 N 0.68591 0.80836 0.91118
 C1879 C 0.71978 0.79753 0.95126
 C1880 C 0.73613 0.80524 0.96056
 H1881 H 0.68285 0.85332 0.89067
 H1882 H 0.71479 0.78307 0.95499
 H1883 H 0.66396 0.81389 0.88026
 H1884 H 0.74166 0.81936 0.95628
 C1885 C 0.18746 0.31588 0.87498
 C1886 C 0.20622 0.31881 0.88252
 C1887 C 0.21383 0.30700 0.89870
 N1888 N 0.23219 0.31014 0.90556
 N1889 N 0.23927 0.29941 0.92009
 C1890 C 0.22822 0.28513 0.92826
 N1891 N 0.20989 0.28202 0.92140
 N1892 N 0.20282 0.29274 0.90692
 C1893 C 0.23568 0.27289 0.94412
 C1894 C 0.25420 0.27524 0.95232
 H1895 H 0.21590 0.32958 0.87627
 H1896 H 0.22613 0.26150 0.94949
 H1897 H 0.17857 0.30433 0.88111
 H1898 H 0.26379 0.28671 0.94724
 C1899 C 0.16967 0.81484 0.36205
 C1900 C 0.18478 0.82051 0.37436
 C1901 C 0.19217 0.80759 0.38977
 N1902 N 0.20639 0.81382 0.40192
 N1903 N 0.21318 0.80226 0.41592
 C1904 C 0.20598 0.78403 0.41829
 N1905 N 0.19177 0.77780 0.40614
 N1906 N 0.18498 0.78936 0.39216
 C1907 C 0.21347 0.77095 0.43349
 C1908 C 0.22824 0.77647 0.44620
 H1909 H 0.19102 0.83488 0.37317
 H1910 H 0.20742 0.75646 0.43444
 H1911 H 0.16301 0.80075 0.36435
 H1912 H 0.23433 0.79094 0.44523
 C1913 C 0.67603 0.67847 0.63489
 C1914 C 0.68794 0.67115 0.62022
 C1915 C 0.69509 0.68316 0.60404
 N1916 N 0.70740 0.67530 0.59080
 N1917 N 0.71459 0.68604 0.57636
 C1918 C 0.70971 0.70506 0.57457
 N1919 N 0.69726 0.71290 0.58772
 N1920 N 0.69008 0.70216 0.60222
 C1921 C 0.71826 0.71716 0.55908
 C1922 C 0.73299 0.71003 0.54708
 H1923 H 0.69232 0.65608 0.62046
 H1924 H 0.71361 0.73212 0.55773
 H1925 H 0.67070 0.69322 0.63372
 H1926 H 0.73796 0.69521 0.54888
 C1927 C 0.66375 0.18007 0.13136
 C1928 C 0.66182 0.19800 0.12206
 C1929 C 0.67442 0.20345 0.10550
 N1930 N 0.67291 0.22134 0.09735
 N1931 N 0.68451 0.22652 0.08262
 C1932 C 0.69805 0.21398 0.07548
 N1933 N 0.69950 0.19607 0.08358
 N1934 N 0.68791 0.19090 0.09830
 C1935 C 0.71128 0.21950 0.05949
 C1936 C 0.71079 0.23777 0.05077
 H1937 H 0.65150 0.20863 0.12733
 H1938 H 0.72195 0.20892 0.05468
 H1939 H 0.67492 0.17018 0.12620
 H1940 H 0.70011 0.24837 0.05551
 C1941 C 0.14609 0.67731 0.12226
 C1942 C 0.16493 0.67367 0.11518
 C1943 C 0.17308 0.68419 0.09841
 N1944 N 0.19161 0.68039 0.09231
 N1945 N 0.19926 0.68993 0.07723
 C1946 C 0.18862 0.70361 0.06770
 N1947 N 0.17008 0.70737 0.07377
 N1948 N 0.16243 0.69783 0.08883
 C1949 C 0.19684 0.71459 0.05130
 C1950 C 0.21580 0.71159 0.04430
 H1951 H 0.17436 0.66326 0.12232
 H1952 H 0.18770 0.72565 0.04473
 H1953 H 0.13746 0.68869 0.11554
 H1954 H 0.22499 0.70045 0.05066
 C1955 C 0.15875 0.15369 0.61085
 C1956 C 0.17841 0.15410 0.60523
 C1957 C 0.18510 0.16728 0.58961
 N1958 N 0.20437 0.16826 0.58469
 N1959 N 0.21057 0.18097 0.57136
 C1960 C 0.19772 0.19323 0.56254
 N1961 N 0.17848 0.19217 0.56739
 N1962 N 0.17230 0.17946 0.58065
 C1963 C 0.20422 0.20789 0.54832
 C1964 C 0.22340 0.20890 0.54141
 H1965 H 0.18926 0.14603 0.61338
 H1966 H 0.19343 0.21816 0.54304
 H1967 H 0.14837 0.16241 0.60273
 H1968 H 0.23407 0.19822 0.54606
   
