data_POSCAR
  _audit_creation_date              2014-09-24
  _audit_creation_method            'ToBaCCo'
  _symmetry_space_group_name_H-M    'P1'
  _symmetry_Int_Tables_number       1
  _symmetry_cell_setting            triclinic
  loop_
  _symmetry_equiv_pos_as_xyz
 x,y,z
_cell_length_a 60.3448
_cell_length_b 60.1816
_cell_length_c 59.5119
_cell_angle_alpha 90.018000
_cell_angle_beta 90.250200
_cell_angle_gamma 89.949400
loop_
  _atom_site_label
  _atom_site_type_symbol
  _atom_site_fract_x
  _atom_site_fract_y
  _atom_site_fract_z
C1 C 0.19260 0.20923 0.22381
 C2 C 0.20668 0.19089 0.22695
 C3 C 0.22505 0.18747 0.21294
 C4 C 0.22927 0.20277 0.19564
 C5 C 0.21539 0.22123 0.19228
 C6 C 0.19710 0.22433 0.20645
 H7 H 0.20358 0.17952 0.24069
 H8 H 0.24302 0.19998 0.18434
 H9 H 0.18630 0.23851 0.20392
 C10 C 0.68895 0.70977 0.72154
 C11 C 0.69367 0.72464 0.70403
 C12 C 0.71222 0.72141 0.69023
 C13 C 0.72610 0.70304 0.69409
 C14 C 0.72168 0.68799 0.71155
 C15 C 0.70308 0.69157 0.72522
 H16 H 0.68285 0.73873 0.70111
 H17 H 0.74004 0.70015 0.68305
 H18 H 0.69985 0.68043 0.73912
 C19 C 0.30780 0.79161 0.72233
 C20 C 0.29280 0.80919 0.72541
 C21 C 0.27410 0.81185 0.71127
 C22 C 0.27098 0.79625 0.69378
 C23 C 0.28596 0.77870 0.69036
 C24 C 0.30428 0.77651 0.70475
 H25 H 0.29523 0.81996 0.73977
 H26 H 0.25722 0.79793 0.68220
 H27 H 0.31616 0.76331 0.70193
 C28 C 0.80823 0.29003 0.22738
 C29 C 0.80487 0.27550 0.20902
 C30 C 0.78636 0.27763 0.19476
 C31 C 0.77104 0.29472 0.19866
 C32 C 0.77391 0.30942 0.21670
 C33 C 0.79240 0.30698 0.23090
 H34 H 0.81619 0.26190 0.20604
 H35 H 0.75649 0.29618 0.18803
 H36 H 0.79485 0.31920 0.24401
 C37 C 0.80879 0.70881 0.27866
 C38 C 0.79441 0.69086 0.27490
 C39 C 0.77617 0.68712 0.28898
 C40 C 0.77235 0.70175 0.30695
 C41 C 0.78654 0.71986 0.31100
 C42 C 0.80471 0.72327 0.29670
 H43 H 0.79720 0.68000 0.26066
 H44 H 0.75835 0.69897 0.31790
 H45 H 0.81612 0.73677 0.30001
 C46 C 0.31064 0.21260 -0.22144
 C47 C 0.29662 0.19413 -0.22504
 C48 C 0.27853 0.18983 -0.21089
 C49 C 0.27448 0.20410 -0.19273
 C50 C 0.28812 0.22254 -0.18864
 C51 C 0.30600 0.22670 -0.20308
 H52 H 0.29889 0.18363 -0.23961
 H53 H 0.26066 0.20083 -0.18168
 H54 H 0.31703 0.24031 -0.19903
 C55 C 0.69393 0.28519 -0.22730
 C56 C 0.69698 0.27163 -0.20815
 C57 C 0.71473 0.27507 -0.19322
 C58 C 0.72968 0.29239 -0.19733
 C59 C 0.72715 0.30616 -0.21616
 C60 C 0.70940 0.30241 -0.23104
 H61 H 0.68633 0.25748 -0.20528
 H62 H 0.74302 0.29550 -0.18550
 H63 H 0.70744 0.31354 -0.24516
 C64 C 0.19057 0.78854 0.27234
 C65 C 0.19537 0.77381 0.28993
 C66 C 0.21434 0.77671 0.30329
 C67 C 0.22866 0.79454 0.29884
 C68 C 0.22427 0.80973 0.28127
 C69 C 0.20500 0.80634 0.26814
 H70 H 0.18425 0.76009 0.29329
 H71 H 0.24252 0.79713 0.31012
 H72 H 0.20157 0.81679 0.25375
 C73 C 0.46258 0.44226 0.47760
 C74 C 0.47678 0.44620 0.45936
 C75 C 0.47312 0.46425 0.44484
 C76 C 0.45494 0.47833 0.44860
 C77 C 0.44055 0.47462 0.46666
 C78 C 0.44448 0.45655 0.48105
 H79 H 0.49109 0.43561 0.45686
 H80 H 0.45203 0.49229 0.43747
 H81 H 0.43310 0.45333 0.49470
 C82 C -0.03730 -0.05994 0.97227
 C83 C -0.02370 -0.05646 0.95355
 C84 C -0.02707 -0.03818 0.93934
 C85 C -0.04429 -0.02319 0.94399
 C86 C -0.05817 -0.02610 0.96282
 C87 C -0.05433 -0.04467 0.97683
 H88 H -0.01011 -0.06776 0.95026
 H89 H -0.04631 -0.00892 0.93312
 H90 H -0.06540 -0.04818 0.99063
 C91 C 1.03457 0.55547 0.97516
 C92 C 1.05227 0.54082 0.97929
 C93 C 1.05648 0.52294 0.96471
 C94 C 1.04283 0.51996 0.94576
 C95 C 1.02511 0.53448 0.94131
 C96 C 1.02111 0.55218 0.95614
 H97 H 1.06237 0.54299 0.99421
 H98 H 1.04599 0.50624 0.93443
 H99 H 1.00782 0.56378 0.95258
 C100 C 0.53501 0.05545 0.47502
 C101 C 0.52039 0.05054 0.45737
 C102 C 0.52412 0.03229 0.44324
 C103 C 0.54283 0.01883 0.44694
 C104 C 0.55802 0.02343 0.46449
 C105 C 0.55372 0.04198 0.47841
 H106 H 0.50632 0.06132 0.45429
 H107 H 0.54571 0.00516 0.43553
 H108 H 0.56417 0.04542 0.49280
 C109 C -0.03896 0.05987 0.52366
 C110 C -0.05751 0.04602 0.52104
 C111 C -0.06115 0.02769 0.53539
 C112 C -0.04551 0.02371 0.55269
 C113 C -0.02700 0.03759 0.55572
 C114 C -0.02388 0.05557 0.54110
 H115 H -0.06867 0.04933 0.50718
 H116 H -0.04788 0.01020 0.56440
 H117 H -0.00961 0.06627 0.54327
 C118 C 0.46066 0.56098 0.02469
 C119 C 0.44240 0.54681 0.02168
 C120 C 0.43822 0.52939 0.03679
 C121 C 0.45264 0.52621 0.05512
 C122 C 0.47095 0.54024 0.05846
 C123 C 0.47484 0.55754 0.04315
 H124 H 0.43136 0.54937 0.00752
 H125 H 0.44925 0.51319 0.06720
 H126 H 0.48927 0.56804 0.04534
 C127 C 0.54376 -0.05918 0.02489
 C128 C 0.52867 -0.05432 0.04229
 C129 C 0.53209 -0.03627 0.05686
 C130 C 0.55069 -0.02267 0.05393
 C131 C 0.56591 -0.02695 0.03672
 C132 C 0.56237 -0.04518 0.02241
 H133 H 0.51449 -0.06493 0.04516
 H134 H 0.55363 -0.00907 0.06549
 H135 H 0.57362 -0.04757 0.00851
 C136 C 1.03972 0.44442 0.52420
 C137 C 1.02446 0.44846 0.54142
 C138 C 1.02652 0.46722 0.55521
 C139 C 1.04407 0.48209 0.55161
 C140 C 1.05975 0.47852 0.53441
 C141 C 1.05725 0.45939 0.52085
 H142 H 1.01093 0.43695 0.54409
 H143 H 1.04600 0.49580 0.56321
 H144 H 1.06812 0.45654 0.50674
 C145 C 0.41251 0.00918 0.21804
 H146 H 0.41360 0.02342 0.22909
 C147 C 0.42733 0.00696 0.20022
 H148 H 0.43991 0.01953 0.19777
 C149 C 0.39523 -0.02487 0.20842
 H150 H 0.38289 -0.03739 0.21179
 C151 C 0.40966 -0.02773 0.19037
 H152 H 0.40789 -0.04225 0.17978
 N153 N 0.39673 -0.00651 0.22167
 C154 C 0.34205 0.02525 0.25684
 H155 H 0.34041 0.01401 0.27092
 C156 C 0.32707 0.04273 0.25413
 H157 H 0.31405 0.04504 0.26638
 C158 C 0.36105 0.03577 0.22374
 H159 H 0.37407 0.03278 0.21172
 C160 C 0.34651 0.05357 0.22046
 H161 H 0.34849 0.06413 0.20588
 Zn162 Zn 0.37755 -0.00258 0.24645
 N163 N 0.35870 0.02217 0.24183
 C164 C 0.39238 0.01979 0.28576
 N165 N 0.39535 0.00173 0.27235
 C166 C 0.41150 -0.01344 0.27676
 C167 C 0.42524 -0.01097 0.29554
 C168 C 0.40563 0.02282 0.30480
 C169 C 0.34376 -0.03187 0.23389
 C170 C 0.32897 -0.04953 0.23615
 C171 C 0.34580 -0.05819 0.27201
 C172 C 0.36029 -0.04036 0.26905
 N173 N 0.35911 -0.02771 0.25015
 H174 H 0.37980 0.03192 0.28173
 H175 H 0.41364 -0.02752 0.26568
 H176 H 0.43784 -0.02335 0.29897
 H177 H 0.40310 0.03732 0.31525
 H178 H 0.34297 -0.02133 0.21918
 H179 H 0.31704 -0.05270 0.22290
 H180 H 0.34673 -0.06782 0.28735
 H181 H 0.37222 -0.03647 0.28204
 C182 C 0.32922 0.05717 0.23575
 C183 C 0.42599 -0.01168 0.18605
 C184 C 0.32981 -0.06293 0.25546
 C185 C 0.42229 0.00730 0.30990
 C186 C 0.08962 -0.00711 0.71929
 H187 H 0.08775 -0.02144 0.73008
 C188 C 0.07535 -0.00412 0.70101
 H189 H 0.06260 -0.01635 0.69768
 C190 C 0.10870 0.02616 0.71049
 H191 H 0.12153 0.03806 0.71439
 C192 C 0.09490 0.02971 0.69193
 H193 H 0.09724 0.04440 0.68170
 N194 N 0.10601 0.00783 0.72355
 C195 C 0.15839 -0.02785 0.75893
 H196 H 0.15985 -0.01793 0.77403
 C197 C 0.17242 -0.04603 0.75570
 H198 H 0.18444 -0.05019 0.76858
 C199 C 0.14072 -0.03450 0.72394
 H200 H 0.12859 -0.02977 0.71144
 C201 C 0.15442 -0.05278 0.72000
 H202 H 0.15267 -0.06191 0.70442
 Zn203 Zn 0.12453 0.00242 0.74871
 N204 N 0.14275 -0.02262 0.74329
 C205 C 0.10746 -0.02218 0.78543
 N206 N 0.10593 -0.00283 0.77373
 C207 C 0.09026 0.01262 0.77881
 C208 C 0.07550 0.00900 0.79646
 C209 C 0.09308 -0.02646 0.80321
 C210 C 0.15979 0.03067 0.73874
 C211 C 0.17491 0.04793 0.74194
 C212 C 0.15636 0.05719 0.77661
 C213 C 0.14167 0.03964 0.77281
 N214 N 0.14353 0.02691 0.75401
 H215 H 0.11966 -0.03449 0.78089
 H216 H 0.08910 0.02768 0.76894
 H217 H 0.06293 0.02135 0.80000
 H218 H 0.09478 -0.04186 0.81246
 H219 H 0.16105 0.02012 0.72407
 H220 H 0.18763 0.05078 0.72950
 H221 H 0.15478 0.06705 0.79175
 H222 H 0.12896 0.03611 0.78501
 C223 C 0.17048 -0.05882 0.73604
 C224 C 0.07800 0.01443 0.68698
 C225 C 0.17329 0.06147 0.76108
 C226 C 0.07675 -0.01081 0.80888
 C227 C 0.58695 0.49027 0.22117
 H228 H 0.58491 0.47577 0.23170
 C229 C 0.57238 0.49404 0.20326
 H230 H 0.55904 0.48238 0.20022
 C231 C 0.60629 0.52354 0.21306
 H232 H 0.61933 0.53517 0.21708
 C233 C 0.59217 0.52791 0.19496
 H234 H 0.59485 0.54269 0.18498
 N235 N 0.60355 0.50490 0.22566
 C236 C 0.65597 0.46987 0.26168
 H237 H 0.65787 0.48078 0.27601
 C238 C 0.67003 0.45163 0.25917
 H239 H 0.68287 0.44874 0.27159
 C240 C 0.63734 0.46098 0.22772
 H241 H 0.62470 0.46479 0.21541
 C242 C 0.65102 0.44251 0.22457
 H243 H 0.64848 0.43205 0.20998
 Zn244 Zn 0.62196 0.49945 0.25091
 N245 N 0.63989 0.47407 0.24618
 C246 C 0.60528 0.47651 0.28899
 N247 N 0.60336 0.49507 0.27608
 C248 C 0.58765 0.51068 0.28041
 C249 C 0.57336 0.50818 0.29862
 C250 C 0.59139 0.47338 0.30742
 C251 C 0.65763 0.52722 0.24071
 C252 C 0.67275 0.54452 0.24370
 C253 C 0.65392 0.55450 0.27800
 C254 C 0.63923 0.53690 0.27443
 N255 N 0.64121 0.52382 0.25590
 H256 H 0.61758 0.46408 0.28509
 H257 H 0.58623 0.52509 0.26963
 H258 H 0.56084 0.52071 0.30165
 H259 H 0.59352 0.45873 0.31775
 H260 H 0.65897 0.51641 0.22625
 H261 H 0.68558 0.54711 0.23131
 H262 H 0.65222 0.56464 0.29293
 H263 H 0.62640 0.53367 0.28657
 C264 C 0.66761 0.43759 0.24046
 C265 C 0.57486 0.51311 0.18989
 C266 C 0.67097 0.55845 0.26254
 C267 C 0.57518 0.48936 0.31249
 C268 C 0.90855 0.51080 0.71762
 H269 H 0.90984 0.52512 0.72855
 C270 C 0.92276 0.50867 0.69930
 H271 H 0.93509 0.52138 0.69633
 C272 C 0.89135 0.47649 0.70880
 H273 H 0.87925 0.46387 0.71268
 C274 C 0.90522 0.47368 0.69030
 H275 H 0.90334 0.45906 0.67987
 N276 N 0.89309 0.49495 0.72188
 C277 C 0.83941 0.52678 0.75863
 H278 H 0.83830 0.51589 0.77304
 C279 C 0.82434 0.54422 0.75605
 H280 H 0.81176 0.54685 0.76870
 C281 C 0.85716 0.53650 0.72457
 H282 H 0.86970 0.53323 0.71212
 C283 C 0.84255 0.55424 0.72143
 H284 H 0.84402 0.56446 0.70654
 Zn285 Zn 0.87485 0.49891 0.74737
 N286 N 0.85550 0.52334 0.74307
 C287 C 0.89125 0.52209 0.78567
 N288 N 0.89375 0.50393 0.77231
 C289 C 0.91046 0.48915 0.77585
 C290 C 0.92531 0.49216 0.79364
 C291 C 0.90566 0.52569 0.80373
 C292 C 0.84097 0.46880 0.73697
 C293 C 0.82720 0.45039 0.73989
 C294 C 0.84690 0.44188 0.77426
 C295 C 0.86020 0.46051 0.77074
 N296 N 0.85719 0.47338 0.75220
 H297 H 0.87817 0.53390 0.78231
 H298 H 0.91222 0.47499 0.76480
 H299 H 0.93833 0.48006 0.79637
 H300 H 0.90354 0.54031 0.81411
 H301 H 0.83876 0.47947 0.72250
 H302 H 0.81456 0.44682 0.72743
 H303 H 0.84943 0.43190 0.78919
 H304 H 0.87283 0.46469 0.78293
 C305 C 0.82587 0.55826 0.73728
 C306 C 0.92117 0.48992 0.68532
 C307 C 0.83015 0.43661 0.75870
 C308 C 0.92298 0.51061 0.80789
 C309 C 0.21981 0.40974 0.01252
 H310 H 0.23052 0.41185 0.02699
 C311 C 0.20140 0.42355 0.00966
 H312 H 0.19787 0.43612 0.02216
 C313 C 0.21142 0.39067 -0.02130
 H314 H 0.21554 0.37808 -0.03351
 C315 C 0.19280 0.40404 -0.02477
 H316 H 0.18278 0.40158 -0.03970
 N317 N 0.22433 0.39355 -0.00274
 C318 C 0.26148 0.34154 0.03172
 H319 H 0.27572 0.34023 0.02082
 C320 C 0.25920 0.32700 0.04984
 H321 H 0.27172 0.31441 0.05266
 C322 C 0.22745 0.35905 0.04062
 H323 H 0.21497 0.37138 0.03683
 C324 C 0.22453 0.34490 0.05895
 H325 H 0.20998 0.34683 0.06935
 Zn326 Zn 0.24975 0.37567 0.00210
 N327 N 0.24580 0.35726 0.02755
 C328 C 0.28712 0.39333 0.02519
 N329 N 0.27418 0.39492 0.00648
 C330 C 0.27779 0.41093 -0.00919
 C331 C 0.29518 0.42601 -0.00652
 C332 C 0.30476 0.40798 0.02848
 C333 C 0.23980 0.34007 -0.02632
 C334 C 0.24277 0.32507 -0.04395
 C335 C 0.27623 0.34459 -0.05410
 C336 C 0.27269 0.35916 -0.03618
 N337 N 0.25460 0.35676 -0.02284
 H338 H 0.28370 0.38084 0.03772
 H339 H 0.26707 0.41200 -0.02377
 H340 H 0.29794 0.43850 -0.01928
 H341 H 0.31476 0.40661 0.04357
 H342 H 0.22570 0.33840 -0.01529
 H343 H 0.23070 0.31201 -0.04658
 H344 H 0.29083 0.34660 -0.06442
 H345 H 0.28452 0.37221 -0.03287
 C346 C 0.24052 0.32857 0.06376
 C347 C 0.18755 0.42070 -0.00914
 C348 C 0.26118 0.32724 -0.05812
 C349 C 0.30895 0.42461 0.01251
 C350 C 0.72639 0.09065 -0.00919
 H351 H 0.73720 0.08918 -0.02357
 C352 C 0.70913 0.07552 -0.00625
 H353 H 0.70656 0.06255 -0.01860
 C354 C 0.71668 0.10939 0.02439
 H355 H 0.71988 0.12237 0.03650
 C356 C 0.69912 0.09472 0.02791
 H357 H 0.68896 0.09656 0.04274
 N358 N 0.72976 0.10724 0.00596
 C359 C 0.76309 0.16170 -0.02834
 H360 H 0.77751 0.16388 -0.01769
 C361 C 0.75936 0.17615 -0.04632
 H362 H 0.77097 0.18951 -0.04936
 C363 C 0.73000 0.14214 -0.03667
 H364 H 0.71845 0.12904 -0.03273
 C365 C 0.72563 0.15619 -0.05480
 H366 H 0.71091 0.15343 -0.06489
 Zn367 Zn 0.75408 0.12649 0.00117
 N368 N 0.74858 0.14499 -0.02398
 C369 C 0.79327 0.11202 -0.02115
 N370 N 0.77939 0.10850 -0.00357
 C371 C 0.78274 0.09138 0.01096
 C372 C 0.80070 0.07703 0.00818
 C373 C 0.81162 0.09823 -0.02440
 C374 C 0.74320 0.16109 0.03068
 C375 C 0.74580 0.17530 0.04906
 C376 C 0.77998 0.15637 0.05829
 C377 C 0.77677 0.14259 0.03969
 N378 N 0.75848 0.14501 0.02648
 H379 H 0.79022 0.12553 -0.03268
 H380 H 0.77127 0.08878 0.02463
 H381 H 0.80271 0.06326 0.01970
 H382 H 0.82271 0.10166 -0.03821
 H383 H 0.72892 0.16279 0.01976
 H384 H 0.73330 0.18778 0.05236
 H385 H 0.79469 0.15427 0.06856
 H386 H 0.78894 0.13000 0.03583
 C387 C 0.74040 0.17349 -0.05984
 C388 C 0.69520 0.07749 0.01248
 C389 C 0.76434 0.17295 0.06320
 C390 C 0.81552 0.08037 -0.00966
 C391 C 0.22011 0.59365 0.48693
 H392 H 0.23021 0.59202 0.47205
 C393 C 0.20184 0.57976 0.48994
 H394 H 0.19778 0.56767 0.47710
 C395 C 0.21315 0.61154 0.52167
 H396 H 0.21783 0.62367 0.53419
 C397 C 0.19476 0.59800 0.52537
 H398 H 0.18548 0.59988 0.54078
 N399 N 0.22525 0.60932 0.50257
 C400 C 0.26214 0.66095 0.46745
 H401 H 0.27672 0.66206 0.47804
 C402 C 0.25969 0.67524 0.44912
 H403 H 0.27244 0.68744 0.44580
 C404 C 0.22748 0.64416 0.45951
 H405 H 0.21482 0.63224 0.46374
 C406 C 0.22438 0.65808 0.44100
 H407 H 0.20950 0.65634 0.43092
 Zn408 Zn 0.25055 0.62718 0.49756
 N409 N 0.24626 0.64564 0.47215
 C410 C 0.28790 0.60933 0.47464
 N411 N 0.27484 0.60779 0.49314
 C412 C 0.27843 0.59189 0.50897
 C413 C 0.29608 0.57706 0.50684
 C414 C 0.30580 0.59487 0.47186
 C415 C 0.24092 0.66222 0.52693
 C416 C 0.24400 0.67649 0.54519
 C417 C 0.27802 0.65710 0.55401
 C418 C 0.27434 0.64328 0.53553
 N419 N 0.25586 0.64586 0.52261
 H420 H 0.28457 0.62179 0.46203
 H421 H 0.26754 0.59080 0.52332
 H422 H 0.29856 0.56445 0.51957
 H423 H 0.31631 0.59670 0.45729
 H424 H 0.22649 0.66406 0.51623
 H425 H 0.23174 0.68918 0.54860
 H426 H 0.29285 0.65485 0.56407
 H427 H 0.28631 0.63056 0.53154
 C428 C 0.24062 0.67388 0.43558
 C429 C 0.18885 0.58189 0.50936
 C430 C 0.26269 0.67391 0.55908
 C431 C 0.31016 0.57852 0.48816
 C432 C 0.72078 0.90948 0.51118
 H433 H 0.73100 0.91050 0.52613
 C434 C 0.70299 0.92405 0.50832
 H435 H 0.69941 0.93606 0.52137
 C436 C 0.71310 0.89240 0.47612
 H437 H 0.71732 0.88030 0.46343
 C438 C 0.69516 0.90669 0.47256
 H439 H 0.68578 0.90542 0.45706
 N440 N 0.72535 0.89391 0.49530
 C441 C 0.76133 0.84125 0.53015
 H442 H 0.77587 0.84005 0.51964
 C443 C 0.75869 0.82669 0.54820
 H444 H 0.77125 0.81421 0.55136
 C445 C 0.72693 0.85848 0.53811
 H446 H 0.71443 0.87066 0.53396
 C447 C 0.72366 0.84431 0.55637
 H448 H 0.70882 0.84613 0.56637
 Zn449 Zn 0.75021 0.87530 0.50023
 N450 N 0.74565 0.85685 0.52556
 C451 C 0.78709 0.89296 0.52423
 N452 N 0.77500 0.89402 0.50491
 C453 C 0.77956 0.90936 0.48881
 C454 C 0.79709 0.92422 0.49166
 C455 C 0.80477 0.90753 0.52778
 C456 C 0.73921 0.84052 0.47124
 C457 C 0.74190 0.82541 0.45367
 C458 C 0.77664 0.84313 0.44460
 C459 C 0.77335 0.85783 0.46245
 N460 N 0.75478 0.85638 0.47524
 H461 H 0.78287 0.88106 0.53709
 H462 H 0.76947 0.91005 0.47375
 H463 H 0.80061 0.93611 0.47850
 H464 H 0.81397 0.90666 0.54341
 H465 H 0.72473 0.83958 0.48185
 H466 H 0.72926 0.81299 0.45066
 H467 H 0.79163 0.84434 0.43473
 H468 H 0.78580 0.87017 0.46620
 C469 C 0.73965 0.82812 0.56162
 C470 C 0.68988 0.92277 0.48880
 C471 C 0.76083 0.82659 0.44009
 C472 C 0.80995 0.92347 0.51138
 C473 C 0.01109 0.22166 0.40891
 H474 H 0.02611 0.23133 0.41066
 C475 C 0.00736 0.20358 0.42311
 H476 H 0.01970 0.19925 0.43563
 C477 C -0.02317 0.21549 0.39033
 H478 H -0.03522 0.22037 0.37782
 C479 C -0.02750 0.19722 0.40405
 H480 H -0.04287 0.18818 0.40191
 N481 N -0.00395 0.22708 0.39273
 C482 C 0.03209 0.26062 0.33922
 H483 H 0.02258 0.27581 0.33777
 C484 C 0.04967 0.25661 0.32457
 H485 H 0.05348 0.26876 0.31176
 C486 C 0.03804 0.22601 0.35723
 H487 H 0.03333 0.21400 0.36979
 C488 C 0.05576 0.22135 0.34298
 H489 H 0.06476 0.20592 0.34510
 Zn490 Zn 0.00235 0.25180 0.37412
 N491 N 0.02675 0.24549 0.35527
 C492 C 0.02788 0.28788 0.39113
 N493 N 0.00872 0.27618 0.39315
 C494 C -0.00632 0.28120 0.40933
 C495 C -0.00260 0.29894 0.42398
 C496 C 0.03224 0.30579 0.40539
 C497 C -0.02805 0.24324 0.33946
 C498 C -0.04624 0.24710 0.32542
 C499 C -0.05170 0.28245 0.34384
 C500 C -0.03342 0.27790 0.35755
 N501 N -0.02225 0.25838 0.35539
 H502 H 0.03981 0.28341 0.37844
 H503 H -0.02125 0.27138 0.41080
 H504 H -0.01471 0.30253 0.43686
 H505 H 0.04737 0.31519 0.40320
 H506 H -0.01867 0.22799 0.33789
 H507 H -0.05095 0.23456 0.31326
 H508 H -0.06035 0.29810 0.34577
 H509 H -0.02822 0.29000 0.36988
 C510 C 0.06180 0.23675 0.32637
 C511 C -0.01208 0.19100 0.42062
 C512 C -0.05845 0.26686 0.32763
 C513 C 0.01685 0.31159 0.42205
 C514 C -0.01326 0.71883 0.08985
 H515 H -0.02756 0.72952 0.08783
 C516 C -0.01043 0.70059 0.07566
 H517 H -0.02256 0.69749 0.06258
 C518 C 0.02024 0.71047 0.10897
 H519 H 0.03225 0.71447 0.12184
 C520 C 0.02369 0.69200 0.09520
 H521 H 0.03818 0.68173 0.09797
 N522 N 0.00184 0.72329 0.10626
 C523 C -0.03251 0.75868 0.15977
 H524 H -0.02241 0.77347 0.16120
 C525 C -0.04989 0.75516 0.17480
 H526 H -0.05298 0.76730 0.18784
 C527 C -0.03999 0.72444 0.14163
 H528 H -0.03593 0.71233 0.12891
 C529 C -0.05754 0.72029 0.15622
 H530 H -0.06707 0.70518 0.15420
 Zn531 Zn -0.00332 0.74848 0.12461
 N532 N -0.02796 0.74344 0.14355
 C533 C -0.02669 0.78617 0.10768
 N534 N -0.00856 0.77295 0.10531
 C535 C 0.00628 0.77642 0.08855
 C536 C 0.00336 0.79396 0.07349
 C537 C -0.03017 0.80403 0.09308
 C538 C 0.02632 0.73941 0.15987
 C539 C 0.04416 0.74316 0.17441
 C540 C 0.05163 0.77742 0.15472
 C541 C 0.03364 0.77304 0.14059
 N542 N 0.02153 0.75418 0.14326
 H543 H -0.03852 0.78291 0.12083
 H544 H 0.02046 0.76553 0.08694
 H545 H 0.01549 0.79662 0.06042
 H546 H -0.04473 0.81437 0.09512
 H547 H 0.01616 0.72475 0.16188
 H548 H 0.04756 0.73132 0.18769
 H549 H 0.06127 0.79235 0.15208
 H550 H 0.02938 0.78477 0.12755
 C551 C -0.06264 0.73570 0.17318
 C552 C 0.00820 0.68680 0.07830
 C553 C 0.05710 0.76239 0.17192
 C554 C -0.01503 0.80808 0.07571
 C555 C 0.48841 0.21901 0.59064
 H556 H 0.47399 0.22964 0.58931
 C557 C 0.49087 0.20105 0.57599
 H558 H 0.47829 0.19804 0.56332
 C559 C 0.52264 0.21057 0.60831
 H560 H 0.53513 0.21444 0.62074
 C561 C 0.52577 0.19244 0.59403
 H562 H 0.54047 0.18229 0.59600
 N563 N 0.50404 0.22325 0.60660
 C564 C 0.47264 0.25761 0.66254
 H565 H 0.48419 0.27118 0.66476
 C566 C 0.45509 0.25498 0.67751
 H567 H 0.45348 0.26649 0.69139
 C568 C 0.46135 0.22575 0.64214
 H569 H 0.46390 0.21428 0.62845
 C570 C 0.44341 0.22265 0.65655
 H571 H 0.43213 0.20902 0.65336
 Zn572 Zn 0.49966 0.24805 0.62572
 N573 N 0.47537 0.24318 0.64519
 C574 C 0.47603 0.28608 0.61061
 N575 N 0.49418 0.27309 0.60728
 C576 C 0.50869 0.27742 0.59042
 C577 C 0.50550 0.29576 0.57639
 C578 C 0.47225 0.30462 0.59703
 C579 C 0.53057 0.23756 0.65955
 C580 C 0.54914 0.24057 0.67330
 C581 C 0.55582 0.27566 0.65484
 C582 C 0.53715 0.27196 0.64143
 N583 N 0.52512 0.25301 0.64379
 H584 H 0.46447 0.28213 0.62381
 H585 H 0.52288 0.26669 0.58803
 H586 H 0.51746 0.29919 0.56334
 H587 H 0.45770 0.31475 0.59990
 H588 H 0.52052 0.22278 0.66129
 H589 H 0.55347 0.22786 0.68542
 H590 H 0.56507 0.29093 0.65281
 H591 H 0.53227 0.28434 0.62925
 C592 C 0.44004 0.23738 0.67456
 C593 C 0.50972 0.18742 0.57764
 C594 C 0.56211 0.25980 0.67096
 C595 C 0.48715 0.30972 0.57972
 C596 C 0.50895 0.72211 0.90805
 H597 H 0.52360 0.73231 0.90992
 C598 C 0.50564 0.70401 0.92232
 H599 H 0.51795 0.70021 0.93505
 C600 C 0.47518 0.71464 0.88902
 H601 H 0.46320 0.71898 0.87623
 C602 C 0.47129 0.69631 0.90282
 H603 H 0.45627 0.68672 0.90052
 N604 N 0.49392 0.72693 0.89166
 C605 C 0.52826 0.76059 0.83716
 H606 H 0.51830 0.77546 0.83550
 C607 C 0.54562 0.75667 0.82222
 H608 H 0.54885 0.76857 0.80901
 C609 C 0.53555 0.72664 0.85594
 H610 H 0.53147 0.71485 0.86894
 C611 C 0.55306 0.72206 0.84140
 H612 H 0.56252 0.70693 0.84370
 Zn613 Zn 0.49954 0.75178 0.87302
 N614 N 0.52370 0.74575 0.85374
 C615 C 0.52429 0.78896 0.88851
 N616 N 0.50597 0.77629 0.89189
 C617 C 0.49208 0.78032 0.90935
 C618 C 0.49631 0.79780 0.92420
 C619 C 0.52902 0.80675 0.90279
 C620 C 0.46965 0.74342 0.83799
 C621 C 0.45172 0.74737 0.82364
 C622 C 0.44442 0.78145 0.84378
 C623 C 0.46252 0.77686 0.85772
 N624 N 0.47459 0.75800 0.85473
 H625 H 0.53530 0.78536 0.87474
 H626 H 0.47779 0.76978 0.91184
 H627 H 0.48526 0.80040 0.93824
 H628 H 0.54344 0.81690 0.89946
 H629 H 0.47976 0.72874 0.83576
 H630 H 0.44825 0.73568 0.81025
 H631 H 0.43480 0.79636 0.84667
 H632 H 0.46690 0.78840 0.87092
 C633 C 0.55831 0.73718 0.82426
 C634 C 0.48667 0.69077 0.91969
 C635 C 0.43879 0.76659 0.82646
 C636 C 0.51499 0.81136 0.92101
 C637 C 0.13602 0.21865 0.26693
 C638 C 0.14984 0.23682 0.26136
 C639 C 0.16817 0.23366 0.24724
 C640 C 0.17317 0.21254 0.23864
 C641 C 0.15955 0.19454 0.24429
 C642 C 0.14122 0.19750 0.25820
 C643 C 0.11658 0.22275 0.28202
 C644 C 0.10161 0.20591 0.28826
 C645 C 0.08388 0.21054 0.30252
 C646 C 0.08056 0.23204 0.31098
 C647 C 0.09529 0.24897 0.30472
 C648 C 0.11314 0.24453 0.29033
 C649 C 0.14541 0.25799 0.27002
 C650 C 0.12752 0.26174 0.28426
 H651 H 0.15601 0.27189 0.26579
 H652 H 0.12487 0.27842 0.29058
 H653 H 0.17879 0.24762 0.24322
 H654 H 0.16295 0.17812 0.23770
 H655 H 0.07256 0.19724 0.30672
 H656 H 0.09306 0.26561 0.31133
 H657 H 0.13141 0.18301 0.26190
 H658 H 0.10318 0.18907 0.28230
 C659 C 0.63203 0.71930 0.76416
 C660 C 0.64560 0.73756 0.75825
 C661 C 0.66400 0.73439 0.74422
 C662 C 0.66929 0.71317 0.73603
 C663 C 0.65582 0.69513 0.74190
 C664 C 0.63744 0.69810 0.75573
 C665 C 0.61264 0.72337 0.77933
 C666 C 0.59805 0.70639 0.78609
 C667 C 0.58044 0.71097 0.80050
 C668 C 0.57685 0.73256 0.80859
 C669 C 0.59115 0.74965 0.80177
 C670 C 0.60892 0.74524 0.78726
 C671 C 0.64088 0.75882 0.76653
 C672 C 0.62298 0.76257 0.78076
 H673 H 0.65127 0.77279 0.76202
 H674 H 0.62011 0.77931 0.78679
 H675 H 0.67448 0.74839 0.74001
 H676 H 0.65942 0.67864 0.73559
 H677 H 0.56945 0.69754 0.80516
 H678 H 0.58869 0.76636 0.80809
 H679 H 0.62778 0.68355 0.75963
 H680 H 0.59987 0.68947 0.78046
 C681 C 0.36391 0.78359 0.76687
 C682 C 0.35098 0.76501 0.76043
 C683 C 0.33278 0.76775 0.74592
 C684 C 0.32706 0.78885 0.73769
 C685 C 0.33976 0.80727 0.74422
 C686 C 0.35796 0.80473 0.75857
 C687 C 0.38333 0.77988 0.78227
 C688 C 0.39746 0.79715 0.78943
 C689 C 0.41535 0.79280 0.80374
 C690 C 0.41965 0.77115 0.81134
 C691 C 0.40566 0.75384 0.80432
 C692 C 0.38768 0.75800 0.78988
 C693 C 0.35621 0.74380 0.76854
 C694 C 0.37411 0.74038 0.78299
 H695 H 0.34627 0.72958 0.76366
 H696 H 0.37744 0.72364 0.78881
 H697 H 0.32285 0.75346 0.74124
 H698 H 0.33578 0.82369 0.73794
 H699 H 0.42606 0.80642 0.80859
 H700 H 0.40862 0.73708 0.81031
 H701 H 0.36709 0.81951 0.76291
 H702 H 0.39512 0.81411 0.78410
 C703 C -0.13619 0.28212 0.27146
 C704 C -0.13491 0.27522 0.24879
 C705 C -0.15318 0.27795 0.23435
 C706 C -0.17314 0.28760 0.24194
 C707 C -0.17404 0.29462 0.26454
 C708 C -0.15598 0.29192 0.27900
 C709 C -0.11637 0.27864 0.28639
 C710 C -0.11608 0.28460 0.30930
 C711 C -0.09728 0.28085 0.32252
 C712 C -0.07825 0.27109 0.31332
 C713 C -0.07834 0.26517 0.29050
 C714 C -0.09718 0.26881 0.27706
 C715 C -0.11536 0.26568 0.24058
 C716 C -0.09690 0.26258 0.25439
 H717 H -0.11431 0.26047 0.22319
 H718 H -0.08221 0.25508 0.24722
 H719 H -0.15130 0.27325 0.21691
 H720 H -0.18906 0.30139 0.27165
 H721 H -0.09780 0.28528 0.34015
 H722 H -0.06364 0.25788 0.28312
 H723 H -0.15800 0.29746 0.29610
 H724 H -0.13019 0.29203 0.31742
 C725 C -0.13510 0.71824 0.23496
 C726 C -0.14838 0.73657 0.24136
 C727 C -0.16646 0.73346 0.25583
 C728 C -0.17178 0.71221 0.26386
 C729 C -0.15863 0.69409 0.25747
 C730 C -0.14053 0.69700 0.24327
 C731 C -0.11604 0.72223 0.21937
 C732 C -0.10165 0.70519 0.21228
 C733 C -0.08436 0.70967 0.19747
 C734 C -0.08090 0.73123 0.18925
 C735 C -0.09497 0.74840 0.19643
 C736 C -0.11239 0.74409 0.21140
 C737 C -0.14371 0.75784 0.23310
 C738 C -0.12618 0.76150 0.21837
 H739 H -0.15388 0.77188 0.23796
 H740 H -0.12336 0.77825 0.21234
 H741 H -0.17671 0.74753 0.26047
 H742 H -0.16226 0.67756 0.26364
 H743 H -0.07350 0.69618 0.19262
 H744 H -0.09259 0.76511 0.19008
 H745 H -0.13112 0.68239 0.23896
 H746 H -0.10336 0.68828 0.21798
 C747 C 0.36528 0.22551 0.73506
 C748 C 0.35808 0.20349 0.73889
 C749 C 0.33993 0.19936 0.75300
 C750 C 0.32888 0.21685 0.76413
 C751 C 0.33663 0.23867 0.76059
 C752 C 0.35438 0.24294 0.74627
 C753 C 0.38442 0.22921 0.71948
 C754 C 0.39197 0.25053 0.71344
 C755 C 0.40989 0.25308 0.69890
 C756 C 0.42092 0.23450 0.69006
 C757 C 0.41341 0.21319 0.69591
 C758 C 0.39518 0.21043 0.71024
 C759 C 0.36925 0.18563 0.72892
 C760 C 0.38755 0.18901 0.71514
 H761 H 0.36387 0.16872 0.73198
 H762 H 0.39571 0.17462 0.70799
 H763 H 0.33523 0.18227 0.75606
 H764 H 0.32845 0.25283 0.76811
 H765 H 0.41488 0.26974 0.69430
 H766 H 0.42184 0.19863 0.68945
 H767 H 0.35930 0.26004 0.74426
 H768 H 0.38413 0.26546 0.71949
 C769 C 0.63964 0.27466 0.72753
 C770 C 0.63796 0.26849 0.75037
 C771 C 0.65589 0.27189 0.76510
 C772 C 0.67586 0.28159 0.75766
 C773 C 0.67724 0.28768 0.73481
 C774 C 0.65953 0.28426 0.72005
 C775 C 0.62005 0.27082 0.71238
 C776 C 0.62009 0.27624 0.68933
 C777 C 0.60135 0.27255 0.67601
 C778 C 0.58206 0.26338 0.68523
 C779 C 0.58190 0.25778 0.70812
 C780 C 0.60066 0.26140 0.72169
 C781 C 0.61830 0.25916 0.75850
 C782 C 0.60006 0.25572 0.74449
 H783 H 0.61696 0.25446 0.77603
 H784 H 0.58523 0.24850 0.75164
 H785 H 0.65367 0.26780 0.78266
 H786 H 0.69234 0.29434 0.72780
 H787 H 0.60207 0.27670 0.65832
 H788 H 0.56701 0.25091 0.71551
 H789 H 0.66189 0.28918 0.70281
 H790 H 0.63437 0.28329 0.68121
 C791 C 0.13253 0.77960 0.23066
 C792 C 0.14593 0.76116 0.23659
 C793 C 0.16469 0.76415 0.25032
 C794 C 0.17051 0.78535 0.25818
 C795 C 0.15722 0.80357 0.25229
 C796 C 0.13848 0.80079 0.23876
 C797 C 0.11273 0.77571 0.21582
 C798 C 0.09826 0.79288 0.20908
 C799 C 0.08025 0.78846 0.19500
 C800 C 0.07611 0.76685 0.18722
 C801 C 0.09029 0.74959 0.19402
 C802 C 0.10847 0.75383 0.20821
 C803 C 0.14068 0.73990 0.22863
 C804 C 0.12239 0.73632 0.21470
 H805 H 0.15094 0.72579 0.23315
 H806 H 0.11912 0.71956 0.20891
 H807 H 0.17503 0.75000 0.25454
 H808 H 0.16124 0.82006 0.25834
 H809 H 0.06936 0.80203 0.19036
 H810 H 0.08742 0.73285 0.18794
 H811 H 0.12898 0.81547 0.23482
 H812 H 0.10049 0.80983 0.21449
 C813 C 0.26749 0.13039 0.22284
 C814 C 0.27665 0.15128 0.21710
 C815 C 0.26277 0.16978 0.21398
 C816 C 0.23970 0.16786 0.21628
 C817 C 0.23067 0.14709 0.22172
 C818 C 0.24431 0.12861 0.22499
 C819 C 0.28292 0.11111 0.22629
 C820 C 0.27556 0.08980 0.23263
 C821 C 0.29060 0.07242 0.23569
 C822 C 0.31335 0.07575 0.23245
 C823 C 0.32088 0.09689 0.22614
 C824 C 0.30592 0.11455 0.22318
 C825 C 0.29958 0.15359 0.21447
 C826 C 0.31388 0.13560 0.21732
 H827 H 0.30660 0.16956 0.21003
 H828 H 0.33149 0.13826 0.21501
 H829 H 0.27000 0.18578 0.21001
 H830 H 0.21291 0.14501 0.22319
 H831 H 0.28436 0.05621 0.24036
 H832 H 0.33848 0.09969 0.22391
 H833 H 0.23632 0.11312 0.22904
 H834 H 0.25829 0.08617 0.23538
 C835 C 0.76417 0.63127 0.72327
 C836 C 0.77332 0.65200 0.71698
 C837 C 0.75943 0.67040 0.71330
 C838 C 0.73635 0.66849 0.71548
 C839 C 0.72732 0.64783 0.72138
 C840 C 0.74098 0.62949 0.72527
 C841 C 0.77961 0.61211 0.72731
 C842 C 0.77228 0.59102 0.73444
 C843 C 0.78733 0.57369 0.73782
 C844 C 0.81003 0.57685 0.73409
 C845 C 0.81753 0.59781 0.72719
 C846 C 0.80259 0.61543 0.72394
 C847 C 0.79625 0.65425 0.71426
 C848 C 0.81054 0.63632 0.71750
 H849 H 0.80326 0.67009 0.70939
 H850 H 0.82814 0.63889 0.71502
 H851 H 0.76667 0.68630 0.70896
 H852 H 0.70956 0.64573 0.72273
 H853 H 0.78113 0.55762 0.74303
 H854 H 0.83511 0.60049 0.72463
 H855 H 0.73300 0.61407 0.72962
 H856 H 0.75505 0.58754 0.73755
 C857 C 0.77311 0.36008 0.77300
 C858 C 0.75012 0.36320 0.76931
 C859 C 0.73527 0.34561 0.77286
 C860 C 0.74293 0.32469 0.77991
 C861 C 0.76574 0.32159 0.78334
 C862 C 0.78064 0.33898 0.77996
 C863 C 0.78836 0.37942 0.76933
 C864 C 0.81142 0.37823 0.77304
 C865 C 0.82487 0.39676 0.76955
 C866 C 0.81576 0.41694 0.76220
 C867 C 0.79284 0.41830 0.75839
 C868 C 0.77912 0.39982 0.76200
 C869 C 0.74205 0.38385 0.76215
 C870 C 0.75624 0.40173 0.75849
 H871 H 0.72445 0.38624 0.75929
 H872 H 0.74915 0.41735 0.75292
 H873 H 0.71766 0.34831 0.77044
 H874 H 0.77212 0.30554 0.78847
 H875 H 0.84255 0.39523 0.77240
 H876 H 0.78559 0.43393 0.75303
 H877 H 0.79795 0.33550 0.78282
 H878 H 0.81944 0.36321 0.77869
 C879 C 0.26729 -0.13526 0.26882
 C880 C 0.27560 -0.15494 0.27873
 C881 C 0.26140 -0.17298 0.28276
 C882 C 0.23868 -0.17203 0.27703
 C883 C 0.23071 -0.15232 0.26702
 C884 C 0.24469 -0.13431 0.26302
 C885 C 0.28298 -0.11632 0.26496
 C886 C 0.27630 -0.09592 0.25545
 C887 C 0.29152 -0.07876 0.25233
 C888 C 0.31381 -0.08141 0.25856
 C889 C 0.32065 -0.10168 0.26798
 C890 C 0.30547 -0.11905 0.27124
 C891 C 0.29808 -0.15659 0.28448
 C892 C 0.31269 -0.13906 0.28080
 H893 H 0.30450 -0.17170 0.29201
 H894 H 0.32991 -0.14118 0.28559
 H895 H 0.26851 -0.18807 0.28958
 H896 H 0.21334 -0.15015 0.26304
 H897 H 0.28570 -0.06318 0.24535
 H898 H 0.33789 -0.10403 0.27260
 H899 H 0.23734 -0.11974 0.25554
 H900 H 0.25941 -0.09276 0.25042
 C901 C 0.22830 -0.13482 0.72110
 C902 C 0.25070 -0.13258 0.72776
 C903 C 0.26566 -0.15019 0.72457
 C904 C 0.25887 -0.17038 0.71460
 C905 C 0.23647 -0.17231 0.70799
 C906 C 0.22149 -0.15493 0.71119
 C907 C 0.21287 -0.11560 0.72480
 C908 C 0.19021 -0.11622 0.71895
 C909 C 0.17658 -0.09784 0.72264
 C910 C 0.18510 -0.07833 0.73225
 C911 C 0.20762 -0.07756 0.73820
 C912 C 0.22149 -0.09596 0.73459
 C913 C 0.25816 -0.11269 0.73740
 C914 C 0.24389 -0.09477 0.74071
 H915 H 0.27534 -0.11091 0.74247
 H916 H 0.25050 -0.07975 0.74821
 H917 H 0.28286 -0.14755 0.72906
 H918 H 0.22997 -0.18761 0.70111
 H919 H 0.15920 -0.09902 0.71821
 H920 H 0.21447 -0.06249 0.74537
 H921 H 0.20462 -0.15771 0.70589
 H922 H 0.18263 -0.13071 0.71158
 C923 C 0.72727 0.36243 0.22896
 C924 C 0.73462 0.35789 0.20686
 C925 C 0.74958 0.34043 0.20293
 C926 C 0.75763 0.32745 0.22078
 C927 C 0.75032 0.33197 0.24264
 C928 C 0.73534 0.34916 0.24673
 C929 C 0.71147 0.38138 0.23246
 C930 C 0.70298 0.38710 0.25372
 C931 C 0.68867 0.40516 0.25617
 C932 C 0.68241 0.41805 0.23756
 C933 C 0.69053 0.41230 0.21625
 C934 C 0.70491 0.39412 0.21358
 C935 C 0.72725 0.37097 0.18886
 C936 C 0.71279 0.38874 0.19215
 H937 H 0.73289 0.36752 0.17194
 H938 H 0.70772 0.39845 0.17768
 H939 H 0.75535 0.33723 0.18601
 H940 H 0.75613 0.32204 0.25666
 H941 H 0.68233 0.40894 0.27273
 H942 H 0.68600 0.42224 0.20176
 H943 H 0.73042 0.35181 0.26391
 H944 H 0.70712 0.37788 0.26868
 C945 C 0.73322 0.63081 0.27724
 C946 C 0.72425 0.65155 0.28383
 C947 C 0.73828 0.66982 0.28753
 C948 C 0.76132 0.66779 0.28500
 C949 C 0.77016 0.64715 0.27872
 C950 C 0.75638 0.62892 0.27486
 C951 C 0.71765 0.61178 0.27321
 C952 C 0.72482 0.59066 0.26599
 C953 C 0.70965 0.57349 0.26249
 C954 C 0.68696 0.57684 0.26616
 C955 C 0.67962 0.59781 0.27328
 C956 C 0.69470 0.61527 0.27669
 C957 C 0.70136 0.65394 0.28675
 C958 C 0.68692 0.63616 0.28339
 H959 H 0.69448 0.66979 0.29184
 H960 H 0.66936 0.63886 0.28598
 H961 H 0.73119 0.68573 0.29215
 H962 H 0.78790 0.64497 0.27706
 H963 H 0.71575 0.55740 0.25717
 H964 H 0.66206 0.60065 0.27584
 H965 H 0.76423 0.61352 0.27019
 H966 H 0.74203 0.58702 0.26289
 C967 C 0.23564 0.13363 0.77649
 C968 C 0.22669 0.15424 0.78350
 C969 C 0.24070 0.17246 0.78742
 C970 C 0.26374 0.17052 0.78476
 C971 C 0.27258 0.15003 0.77800
 C972 C 0.25879 0.13184 0.77389
 C973 C 0.22005 0.11464 0.77229
 C974 C 0.22717 0.09364 0.76467
 C975 C 0.21198 0.07652 0.76102
 C976 C 0.18931 0.07979 0.76493
 C977 C 0.18202 0.10063 0.77246
 C978 C 0.19713 0.11804 0.77602
 C979 C 0.20381 0.15655 0.78664
 C980 C 0.18937 0.13882 0.78311
 H981 H 0.19696 0.17231 0.79205
 H982 H 0.17183 0.14145 0.78589
 H983 H 0.23360 0.18827 0.79236
 H984 H 0.29031 0.14794 0.77616
 H985 H 0.21804 0.06052 0.75538
 H986 H 0.16449 0.10341 0.77520
 H987 H 0.26663 0.11653 0.76886
 H988 H 0.24436 0.09007 0.76139
 C989 C 0.22855 0.26733 0.13842
 C990 C 0.20671 0.25973 0.14243
 C991 C 0.20255 0.24483 0.16006
 C992 C 0.21987 0.23711 0.17379
 C993 C 0.24150 0.24452 0.16971
 C994 C 0.24583 0.25944 0.15231
 C995 C 0.23225 0.28329 0.11944
 C996 C 0.25323 0.29215 0.11426
 C997 C 0.25582 0.30684 0.09630
 C998 C 0.23762 0.31310 0.08299
 C999 C 0.21663 0.30445 0.08809
 C1000 C 0.21382 0.28974 0.10616
 C1001 C 0.18918 0.26689 0.12875
 C1002 C 0.19267 0.28150 0.11095
 H1003 H 0.17248 0.26104 0.13179
 H1004 H 0.17854 0.28646 0.10081
 H1005 H 0.18582 0.23892 0.16287
 H1006 H 0.25512 0.23892 0.18019
 H1007 H 0.27214 0.31353 0.09299
 H1008 H 0.20247 0.30892 0.07777
 H1009 H 0.26280 0.26452 0.15005
 H1010 H 0.26785 0.28807 0.12388
 C1011 C 0.72634 0.76712 0.63628
 C1012 C 0.70445 0.75946 0.63986
 C1013 C 0.69997 0.74468 0.65751
 C1014 C 0.71702 0.73713 0.67168
 C1015 C 0.73872 0.74458 0.66800
 C1016 C 0.74336 0.75939 0.65059
 C1017 C 0.73039 0.78299 0.61728
 C1018 C 0.75143 0.79195 0.61255
 C1019 C 0.75434 0.80657 0.59459
 C1020 C 0.73640 0.81267 0.58083
 C1021 C 0.71536 0.80391 0.58548
 C1022 C 0.71222 0.78928 0.60356
 C1023 C 0.68719 0.76645 0.62574
 C1024 C 0.69100 0.78095 0.60792
 H1025 H 0.67045 0.76055 0.62844
 H1026 H 0.67708 0.78579 0.59744
 H1027 H 0.68320 0.73874 0.66002
 H1028 H 0.75213 0.73911 0.67882
 H1029 H 0.77069 0.81335 0.59164
 H1030 H 0.70140 0.80825 0.57482
 H1031 H 0.76035 0.76450 0.64865
 H1032 H 0.76585 0.78800 0.62252
 C1033 C 0.77494 0.76349 0.36747
 C1034 C 0.78217 0.77220 0.34666
 C1035 C 0.78581 0.75795 0.32833
 C1036 C 0.78260 0.73493 0.33039
 C1037 C 0.77572 0.72634 0.35114
 C1038 C 0.77190 0.74036 0.36940
 C1039 C 0.77100 0.77931 0.38654
 C1040 C 0.76313 0.77243 0.40769
 C1041 C 0.75978 0.78780 0.42492
 C1042 C 0.76424 0.81042 0.42160
 C1043 C 0.77199 0.81749 0.40059
 C1044 C 0.77525 0.80219 0.38307
 C1045 C 0.78582 0.79506 0.34426
 C1046 C 0.78256 0.80970 0.36210
 H1047 H 0.79140 0.80174 0.32835
 H1048 H 0.78574 0.82722 0.35940
 H1049 H 0.79094 0.76485 0.31236
 H1050 H 0.77356 0.70862 0.35338
 H1051 H 0.75396 0.78190 0.44104
 H1052 H 0.77517 0.83499 0.39777
 H1053 H 0.76675 0.73268 0.38489
 H1054 H 0.75941 0.75529 0.41133
 C1055 C 0.27597 0.26523 -0.13157
 C1056 C 0.28236 0.27438 -0.15247
 C1057 C 0.28616 0.26042 -0.17099
 C1058 C 0.28392 0.23728 -0.16904
 C1059 C 0.27779 0.22826 -0.14825
 C1060 C 0.27384 0.24198 -0.12977
 C1061 C 0.27191 0.28074 -0.11226
 C1062 C 0.26498 0.27339 -0.09093
 C1063 C 0.26147 0.28850 -0.07350
 C1064 C 0.26482 0.31132 -0.07679
 C1065 C 0.27165 0.31884 -0.09797
 C1066 C 0.27509 0.30380 -0.11568
 C1067 C 0.28499 0.29738 -0.15479
 C1068 C 0.28155 0.31176 -0.13677
 H1069 H 0.28992 0.30439 -0.17078
 H1070 H 0.28391 0.32942 -0.13942
 H1071 H 0.29068 0.26763 -0.18702
 H1072 H 0.27634 0.21045 -0.14613
 H1073 H 0.25639 0.28225 -0.05725
 H1074 H 0.27397 0.33648 -0.10077
 H1075 H 0.26929 0.23399 -0.11425
 H1076 H 0.26215 0.25608 -0.08731
 C1077 C 0.72330 0.23237 -0.13552
 C1078 C 0.74175 0.23861 -0.14871
 C1079 C 0.73885 0.25256 -0.16740
 C1080 C 0.71773 0.26044 -0.17335
 C1081 C 0.69947 0.25421 -0.16030
 C1082 C 0.70216 0.24041 -0.14164
 C1083 C 0.72712 0.21739 -0.11573
 C1084 C 0.70993 0.21032 -0.10146
 C1085 C 0.71432 0.19621 -0.08337
 C1086 C 0.73593 0.18873 -0.07897
 C1087 C 0.75320 0.19579 -0.09298
 C1088 C 0.74898 0.21000 -0.11122
 C1089 C 0.76297 0.23079 -0.14327
 C1090 C 0.76650 0.21677 -0.12497
 H1091 H 0.77710 0.23554 -0.15337
 H1092 H 0.78324 0.21114 -0.12151
 H1093 H 0.75304 0.25703 -0.17756
 H1094 H 0.68303 0.26026 -0.16441
 H1095 H 0.70074 0.19132 -0.07262
 H1096 H 0.76993 0.18993 -0.08990
 H1097 H 0.68747 0.23625 -0.13230
 H1098 H 0.69299 0.21550 -0.10389
 C1099 C 0.22800 0.73255 0.35881
 C1100 C 0.20628 0.74069 0.35503
 C1101 C 0.20194 0.75492 0.33685
 C1102 C 0.21897 0.76140 0.32229
 C1103 C 0.24049 0.75340 0.32609
 C1104 C 0.24499 0.73915 0.34406
 C1105 C 0.23191 0.71737 0.37845
 C1106 C 0.25282 0.70817 0.38358
 C1107 C 0.25558 0.69414 0.40207
 C1108 C 0.23761 0.68890 0.41598
 C1109 C 0.21673 0.69799 0.41101
 C1110 C 0.21374 0.71205 0.39242
 C1111 C 0.18903 0.73472 0.36947
 C1112 C 0.19269 0.72076 0.38779
 H1113 H 0.17241 0.74098 0.36660
 H1114 H 0.17878 0.71668 0.39848
 H1115 H 0.18531 0.76130 0.33424
 H1116 H 0.25388 0.75802 0.31497
 H1117 H 0.27180 0.68711 0.40530
 H1118 H 0.20277 0.69433 0.42180
 H1119 H 0.26186 0.73356 0.34607
 H1120 H 0.26725 0.71146 0.37350
 C1121 C 0.27640 0.73207 0.63597
 C1122 C 0.27259 0.75505 0.63259
 C1123 C 0.27578 0.77012 0.65032
 C1124 C 0.28258 0.76270 0.67163
 C1125 C 0.28617 0.73991 0.67497
 C1126 C 0.28315 0.72478 0.65744
 C1127 C 0.27301 0.71656 0.61650
 C1128 C 0.27684 0.69349 0.61794
 C1129 C 0.27351 0.67978 0.59931
 C1130 C 0.26620 0.68863 0.57878
 C1131 C 0.26234 0.71157 0.57715
 C1132 C 0.26579 0.72555 0.59573
 C1133 C 0.26560 0.76288 0.61156
 C1134 C 0.26218 0.74844 0.59356
 H1135 H 0.26265 0.78046 0.60898
 H1136 H 0.25671 0.75533 0.57766
 H1137 H 0.27324 0.78773 0.64743
 H1138 H 0.29110 0.73370 0.69133
 H1139 H 0.27640 0.66210 0.60106
 H1140 H 0.25700 0.71860 0.56125
 H1141 H 0.28610 0.70750 0.66113
 H1142 H 0.28245 0.68567 0.63324
 C1143 C 0.77674 0.23104 0.14037
 C1144 C 0.77261 0.25398 0.13708
 C1145 C 0.77572 0.26905 0.15485
 C1146 C 0.78284 0.26164 0.17605
 C1147 C 0.78662 0.23887 0.17933
 C1148 C 0.78365 0.22376 0.16179
 C1149 C 0.77357 0.21554 0.12086
 C1150 C 0.77773 0.19253 0.12224
 C1151 C 0.77470 0.17884 0.10355
 C1152 C 0.76738 0.18764 0.08301
 C1153 C 0.76312 0.21052 0.08145
 C1154 C 0.76625 0.22449 0.10011
 C1155 C 0.76546 0.26176 0.11608
 C1156 C 0.76227 0.24733 0.09803
 H1157 H 0.76226 0.27931 0.11357
 H1158 H 0.75670 0.25420 0.08214
 H1159 H 0.77289 0.28663 0.15208
 H1160 H 0.79169 0.23265 0.19563
 H1161 H 0.77787 0.16120 0.10525
 H1162 H 0.75775 0.21754 0.06555
 H1163 H 0.78679 0.20650 0.16544
 H1164 H 0.78340 0.18473 0.13752
 C1165 C 0.47345 0.38738 0.52312
 C1166 C 0.47673 0.38462 0.49974
 C1167 C 0.47329 0.40256 0.48501
 C1168 C 0.46666 0.42340 0.49319
 C1169 C 0.46374 0.42614 0.51640
 C1170 C 0.46706 0.40844 0.53118
 C1171 C 0.47691 0.36771 0.53823
 C1172 C 0.47355 0.36857 0.56164
 C1173 C 0.47686 0.34977 0.57496
 C1174 C 0.48365 0.32961 0.56538
 C1175 C 0.48707 0.32855 0.54209
 C1176 C 0.48366 0.34734 0.52849
 C1177 C 0.48335 0.36399 0.49117
 C1178 C 0.48682 0.34578 0.50524
 H1179 H 0.48590 0.36187 0.47328
 H1180 H 0.49195 0.33019 0.49776
 H1181 H 0.47542 0.40018 0.46709
 H1182 H 0.45904 0.44214 0.52323
 H1183 H 0.47436 0.35109 0.59292
 H1184 H 0.49202 0.31296 0.53447
 H1185 H 0.46457 0.41168 0.54880
 H1186 H 0.46835 0.38354 0.57005
 C1187 C -0.02765 0.88229 0.01437
 C1188 C -0.03323 0.90305 0.02401
 C1189 C -0.03619 0.92180 0.01026
 C1190 C -0.03396 0.92023 -0.01317
 C1191 C -0.02871 0.89956 -0.02268
 C1192 C -0.02556 0.88086 -0.00917
 C1193 C -0.02435 0.86274 0.02968
 C1194 C -0.01806 0.84154 0.02186
 C1195 C -0.01509 0.82392 0.03681
 C1196 C -0.01839 0.82686 0.05992
 C1197 C -0.02467 0.84788 0.06791
 C1198 C -0.02750 0.86580 0.05304
 C1199 C -0.03590 0.90499 0.04729
 C1200 C -0.03323 0.88675 0.06148
 H1201 H -0.04022 0.92087 0.05468
 H1202 H -0.03557 0.88912 0.07936
 H1203 H -0.04004 0.93771 0.01786
 H1204 H -0.02732 0.89773 -0.04072
 H1205 H -0.01040 0.80781 0.03023
 H1206 H -0.02694 0.85039 0.08579
 H1207 H -0.02166 0.86547 -0.01754
 H1208 H -0.01525 0.83820 0.00430
 C1209 C 0.02108 0.61031 0.01983
 C1210 C 0.04307 0.60555 0.01314
 C1211 C 0.04739 0.58752 -0.00119
 C1212 C 0.03004 0.57419 -0.00930
 C1213 C 0.00827 0.57898 -0.00273
 C1214 C 0.00380 0.59674 0.01165
 C1215 C 0.01718 0.62975 0.03511
 C1216 C -0.00399 0.63562 0.04309
 C1217 C -0.00678 0.65401 0.05710
 C1218 C 0.01139 0.66711 0.06354
 C1219 C 0.03258 0.66129 0.05582
 C1220 C 0.03560 0.64275 0.04181
 C1221 C 0.06060 0.61894 0.02058
 C1222 C 0.05693 0.63720 0.03450
 H1223 H 0.07743 0.61534 0.01543
 H1224 H 0.07105 0.64711 0.03967
 H1225 H 0.06424 0.58411 -0.00642
 H1226 H -0.00537 0.56881 -0.00861
 H1227 H -0.02326 0.65783 0.06313
 H1228 H 0.04675 0.67138 0.06046
 H1229 H -0.01328 0.59956 0.01603
 H1230 H -0.01862 0.62623 0.03884
 C1231 C 0.52179 0.11115 0.51874
 C1232 C 0.54353 0.10710 0.51084
 C1233 C 0.54774 0.08890 0.49669
 C1234 C 0.53055 0.07459 0.49010
 C1235 C 0.50903 0.07866 0.49791
 C1236 C 0.50466 0.09665 0.51204
 C1237 C 0.51802 0.13074 0.53387
 C1238 C 0.49709 0.13615 0.54277
 C1239 C 0.49447 0.15452 0.55684
 C1240 C 0.51259 0.16805 0.56243
 C1241 C 0.53350 0.16284 0.55360
 C1242 C 0.53635 0.14437 0.53948
 C1243 C 0.56093 0.12124 0.51703
 C1244 C 0.55741 0.13948 0.53100
 H1245 H 0.57756 0.11817 0.51096
 H1246 H 0.57145 0.14991 0.53529
 H1247 H 0.56438 0.08605 0.49052
 H1248 H 0.49553 0.06771 0.49328
 H1249 H 0.47821 0.15795 0.56366
 H1250 H 0.54759 0.17333 0.55754
 H1251 H 0.48779 0.09883 0.51748
 H1252 H 0.48252 0.12638 0.53922
 C1253 C -0.02806 0.11438 0.47779
 C1254 C -0.02403 0.11706 0.50109
 C1255 C -0.02772 0.09932 0.51593
 C1256 C -0.03519 0.07867 0.50794
 C1257 C -0.03887 0.07599 0.48481
 C1258 C -0.03541 0.09355 0.46992
 C1259 C -0.02416 0.13383 0.46255
 C1260 C -0.02836 0.13311 0.43924
 C1261 C -0.02447 0.15167 0.42577
 C1262 C -0.01622 0.17141 0.43511
 C1263 C -0.01203 0.17234 0.45830
 C1264 C -0.01607 0.15383 0.47205
 C1265 C -0.01626 0.13738 0.50945
 C1266 C -0.01223 0.15532 0.49523
 H1267 H -0.01312 0.13943 0.52728
 H1268 H -0.00612 0.17065 0.50253
 H1269 H -0.02499 0.10166 0.53379
 H1270 H -0.04417 0.06012 0.47810
 H1271 H -0.02766 0.15049 0.40789
 H1272 H -0.00597 0.18765 0.46571
 H1273 H -0.03844 0.09036 0.45235
 H1274 H -0.03469 0.11845 0.43103
 C1275 C 0.47197 0.61461 0.97787
 C1276 C 0.47554 0.61780 1.00118
 C1277 C 0.47187 0.60029 1.01630
 C1278 C 0.46484 0.57938 1.00860
 C1279 C 0.46169 0.57617 0.98545
 C1280 C 0.46517 0.59350 0.97028
 C1281 C 0.47566 0.63389 0.96234
 C1282 C 0.47181 0.63269 0.93898
 C1283 C 0.47537 0.65115 0.92527
 C1284 C 0.48293 0.67125 0.93440
 C1285 C 0.48680 0.67264 0.95762
 C1286 C 0.48309 0.65424 0.97162
 C1287 C 0.48275 0.63843 1.00928
 C1288 C 0.48657 0.65621 0.99481
 H1289 H 0.48555 0.64086 1.02712
 H1290 H 0.49220 0.67180 1.00193
 H1291 H 0.47418 0.60306 1.03416
 H1292 H 0.45671 0.56011 0.97899
 H1293 H 0.47243 0.64961 0.90737
 H1294 H 0.49233 0.68823 0.96487
 H1295 H 0.46251 0.58993 0.95273
 H1296 H 0.46598 0.61773 0.93095
 C1297 C 0.53390 0.88542 0.98113
 C1298 C 0.51555 0.89663 0.99054
 C1299 C 0.51888 0.91467 1.00516
 C1300 C 0.54039 0.92241 1.01030
 C1301 C 0.55849 0.91135 1.00037
 C1302 C 0.55534 0.89317 0.98616
 C1303 C 0.52963 0.86602 0.96586
 C1304 C 0.54674 0.85297 0.95669
 C1305 C 0.54192 0.83525 0.94236
 C1306 C 0.51993 0.83007 0.93661
 C1307 C 0.50275 0.84283 0.94592
 C1308 C 0.50741 0.86051 0.96061
 C1309 C 0.49394 0.89005 0.98500
 C1310 C 0.48996 0.87256 0.97016
 H1311 H 0.47984 0.89872 0.99207
 H1312 H 0.47293 0.86828 0.96625
 H1313 H 0.50447 0.92329 1.01157
 H1314 H 0.57540 0.91603 1.00421
 H1315 H 0.55552 0.82539 0.93597
 H1316 H 0.48568 0.83918 0.94156
 H1317 H 0.56996 0.88549 0.97929
 H1318 H 0.56396 0.85597 0.96052
 C1319 C 0.03247 0.38713 0.48115
 C1320 C 0.01385 0.40036 0.48667
 C1321 C 0.01632 0.41890 0.50078
 C1322 C 0.03719 0.42471 0.50944
 C1323 C 0.05564 0.41170 0.50383
 C1324 C 0.05336 0.39314 0.48992
 C1325 C 0.02907 0.36741 0.46607
 C1326 C 0.04639 0.35296 0.45986
 C1327 C 0.04237 0.33490 0.44568
 C1328 C 0.02102 0.33074 0.43727
 C1329 C 0.00364 0.34499 0.44344
 C1330 C 0.00747 0.36314 0.45776
 C1331 C -0.00711 0.39513 0.47797
 C1332 C -0.01021 0.37698 0.46376
 H1333 H -0.02135 0.40528 0.48216
 H1334 H -0.02675 0.37370 0.45742
 H1335 H 0.00202 0.42907 0.50474
 H1336 H 0.07189 0.41576 0.51045
 H1337 H 0.05602 0.32398 0.44150
 H1338 H -0.01288 0.34214 0.43683
 H1339 H 0.06817 0.38381 0.48626
 H1340 H 0.06314 0.35519 0.46581
 C1341 C 0.38532 0.51869 0.47832
 C1342 C 0.39009 0.51109 0.45634
 C1343 C 0.40811 0.49678 0.45265
 C1344 C 0.42148 0.48968 0.47061
 C1345 C 0.41662 0.49705 0.49239
 C1346 C 0.39882 0.51137 0.49624
 C1347 C 0.36605 0.53413 0.48149
 C1348 C 0.36017 0.54298 0.50257
 C1349 C 0.34209 0.55730 0.50463
 C1350 C 0.32933 0.56320 0.48579
 C1351 C 0.33506 0.55449 0.46471
 C1352 C 0.35328 0.54014 0.46241
 C1353 C 0.37683 0.51774 0.43817
 C1354 C 0.35878 0.53188 0.44116
 H1355 H 0.38044 0.51188 0.42135
 H1356 H 0.34903 0.53649 0.42655
 H1357 H 0.41155 0.49090 0.43580
 H1358 H 0.42682 0.49196 0.50650
 H1359 H 0.33829 0.56405 0.52103
 H1360 H 0.32519 0.55870 0.45005
 H1361 H 0.39599 0.51647 0.51335
 H1362 H 0.36935 0.53920 0.51767
 C1363 C 0.88932 0.01938 -0.02309
 C1364 C 0.89598 0.01543 -0.04548
 C1365 C 0.91350 0.00072 -0.05000
 C1366 C 0.92437 -0.01092 -0.03255
 C1367 C 0.91719 -0.00717 -0.01035
 C1368 C 0.90010 0.00776 -0.00569
 C1369 C 0.87071 0.03542 -0.01898
 C1370 C 0.86371 0.04153 0.00272
 C1371 C 0.84605 0.05623 0.00564
 C1372 C 0.83474 0.06519 -0.01294
 C1373 C 0.84186 0.05946 -0.03464
 C1374 C 0.85982 0.04494 -0.03777
 C1375 C 0.88483 0.02580 -0.06332
 C1376 C 0.86696 0.04000 -0.05956
 H1377 H 0.88980 0.02267 -0.08051
 H1378 H 0.85873 0.04738 -0.07396
 H1379 H 0.91775 -0.00242 -0.06737
 H1380 H 0.92531 -0.01507 0.00379
 H1381 H 0.84139 0.06076 0.02258
 H1382 H 0.83324 0.06605 -0.04919
 H1383 H 0.89556 0.00984 0.01169
 H1384 H 0.87175 0.03533 0.01767
 C1385 C 0.62268 0.01555 0.02660
 C1386 C 0.60194 0.02474 0.03263
 C1387 C 0.58356 0.01084 0.03592
 C1388 C 0.58548 -0.01230 0.03352
 C1389 C 0.60615 -0.02138 0.02792
 C1390 C 0.62450 -0.00771 0.02447
 C1391 C 0.64179 0.03103 0.02281
 C1392 C 0.66289 0.02365 0.01596
 C1393 C 0.68011 0.03875 0.01259
 C1394 C 0.67681 0.06156 0.01602
 C1395 C 0.65587 0.06910 0.02278
 C1396 C 0.63837 0.05409 0.02603
 C1397 C 0.59963 0.04774 0.03536
 C1398 C 0.61748 0.06208 0.03227
 H1399 H 0.58377 0.05478 0.04004
 H1400 H 0.61484 0.07974 0.03467
 H1401 H 0.56764 0.01810 0.04004
 H1402 H 0.60822 -0.03919 0.02638
 H1403 H 0.69618 0.03252 0.00753
 H1404 H 0.65309 0.08675 0.02513
 H1405 H 0.63991 -0.01573 0.02027
 H1406 H 0.66648 0.00635 0.01305
 C1407 C 0.11289 0.52427 0.52409
 C1408 C 0.11521 0.50170 0.51794
 C1409 C 0.09766 0.48675 0.52126
 C1410 C 0.07746 0.49371 0.53088
 C1411 C 0.07543 0.51629 0.53693
 C1412 C 0.09275 0.53126 0.53359
 C1413 C 0.13207 0.53967 0.52034
 C1414 C 0.13139 0.56246 0.52578
 C1415 C 0.14976 0.57604 0.52214
 C1416 C 0.16931 0.56735 0.51297
 C1417 C 0.17012 0.54470 0.50738
 C1418 C 0.15173 0.53087 0.51096
 C1419 C 0.13512 0.49407 0.50867
 C1420 C 0.15299 0.50833 0.50529
 H1421 H 0.13696 0.47677 0.50398
 H1422 H 0.16803 0.50157 0.49811
 H1423 H 0.10036 0.46943 0.51718
 H1424 H 0.06011 0.52292 0.54351
 H1425 H 0.14857 0.59352 0.52629
 H1426 H 0.18522 0.53771 0.50055
 H1427 H 0.08990 0.54827 0.53848
 H1428 H 0.11688 0.57019 0.53283
 C1429 C 0.11053 0.47730 -0.02324
 C1430 C 0.11336 0.50036 -0.01948
 C1431 C 0.09567 0.51511 -0.02326
 C1432 C 0.07501 0.50728 -0.03072
 C1433 C 0.07216 0.48438 -0.03407
 C1434 C 0.08962 0.46958 -0.03041
 C1435 C 0.12998 0.46216 -0.01951
 C1436 C 0.12906 0.43906 -0.02337
 C1437 C 0.14771 0.42574 -0.01993
 C1438 C 0.16776 0.43499 -0.01250
 C1439 C 0.16884 0.45795 -0.00849
 C1440 C 0.15022 0.47156 -0.01204
 C1441 C 0.13384 0.50858 -0.01210
 C1442 C 0.15184 0.49449 -0.00838
 H1443 H 0.13601 0.52623 -0.00916
 H1444 H 0.16732 0.50170 -0.00268
 H1445 H 0.09813 0.53279 -0.02078
 H1446 H 0.05628 0.47783 -0.03940
 H1447 H 0.14637 0.40803 -0.02290
 H1448 H 0.18434 0.46532 -0.00304
 H1449 H 0.08633 0.45221 -0.03328
 H1450 H 0.11418 0.43093 -0.02911
 C1451 C 0.61521 0.98276 0.47546
 C1452 C 0.59591 0.97374 0.46547
 C1453 C 0.57719 0.98719 0.46183
 C1454 C 0.57703 1.00982 0.46812
 C1455 C 0.59639 1.01851 0.47818
 C1456 C 0.61509 1.00529 0.48174
 C1457 C 0.63485 0.96782 0.47902
 C1458 C 0.65496 0.97524 0.48855
 C1459 C 0.67270 0.96064 0.49163
 C1460 C 0.67095 0.93824 0.48534
 C1461 C 0.65103 0.93071 0.47574
 C1462 C 0.63309 0.94526 0.47251
 C1463 C 0.59528 0.95127 0.45934
 C1464 C 0.61343 0.93733 0.46284
 H1465 H 0.58049 0.94430 0.45175
 H1466 H 0.61207 0.92007 0.45783
 H1467 H 0.56244 0.97948 0.45497
 H1468 H 0.59768 1.03590 0.48259
 H1469 H 0.68798 0.96701 0.49873
 H1470 H 0.64936 0.91338 0.47104
 H1471 H 0.62931 1.01316 0.48934
 H1472 H 0.65741 0.99225 0.49368
 C1473 C 0.88262 0.98559 0.52533
 C1474 C 0.90217 0.97714 0.53534
 C1475 C 0.92054 0.99110 0.53885
 C1476 C 0.92007 1.01367 0.53237
 C1477 C 0.90035 1.02185 0.52256
 C1478 C 0.88202 1.00814 0.51914
 C1479 C 0.86348 0.97008 0.52163
 C1480 C 0.84329 0.97686 0.51177
 C1481 C 0.82605 0.96174 0.50852
 C1482 C 0.82840 0.93944 0.51496
 C1483 C 0.84840 0.93253 0.52489
 C1484 C 0.86587 0.94761 0.52825
 C1485 C 0.90343 0.95472 0.54157
 C1486 C 0.88569 0.94029 0.53810
 H1487 H 0.91841 0.94819 0.54922
 H1488 H 0.88754 0.92309 0.54318
 H1489 H 0.93554 0.98382 0.54566
 H1490 H 0.89850 1.03919 0.51819
 H1491 H 0.81069 0.96763 0.50116
 H1492 H 0.85052 0.91529 0.52970
 H1493 H 0.86752 1.01563 0.51169
 H1494 H 0.84040 0.99375 0.50648
 C1495 C 0.38156 0.48672 0.02632
 C1496 C 0.40204 0.47772 0.03364
 C1497 C 0.42039 0.49169 0.03708
 C1498 C 0.41870 0.51468 0.03348
 C1499 C 0.39829 0.52358 0.02655
 C1500 C 0.37998 0.50985 0.02300
 C1501 C 0.36247 0.47118 0.02250
 C1502 C 0.34160 0.47836 0.01460
 C1503 C 0.32437 0.46322 0.01131
 C1504 C 0.32741 0.44056 0.01585
 C1505 C 0.34815 0.43322 0.02364
 C1506 C 0.36565 0.44827 0.02687
 C1507 C 0.40412 0.45486 0.03749
 C1508 C 0.38629 0.44047 0.03429
 H1509 H 0.41978 0.44797 0.04315
 H1510 H 0.38875 0.42293 0.03758
 H1511 H 0.43612 0.48458 0.04225
 H1512 H 0.39638 0.54131 0.02407
 H1513 H 0.30847 0.46933 0.00548
 H1514 H 0.35076 0.41568 0.02687
 H1515 H 0.36477 0.51774 0.01775
 H1516 H 0.33819 0.49554 0.01083
 C1517 C 0.51706 0.47727 0.38935
 C1518 C 0.50973 0.45536 0.39382
 C1519 C 0.49562 0.45120 0.41204
 C1520 C 0.48839 0.46861 0.42588
 C1521 C 0.49562 0.49029 0.42140
 C1522 C 0.50977 0.49461 0.40344
 C1523 C 0.53211 0.48101 0.36971
 C1524 C 0.54060 0.50208 0.36403
 C1525 C 0.55449 0.50470 0.34553
 C1526 C 0.56031 0.48644 0.33212
 C1527 C 0.55197 0.46537 0.33767
 C1528 C 0.53806 0.46252 0.35631
 C1529 C 0.51637 0.43778 0.37997
 C1530 C 0.53015 0.44129 0.36158
 H1531 H 0.51073 0.42102 0.38335
 H1532 H 0.53473 0.42713 0.35135
 H1533 H 0.48989 0.43442 0.41522
 H1534 H 0.49046 0.50397 0.43199
 H1535 H 0.56097 0.52108 0.34190
 H1536 H 0.55609 0.45116 0.32730
 H1537 H 0.51471 0.51163 0.40090
 H1538 H 0.53685 0.51675 0.37369
 C1539 C 0.01602 -0.02857 0.88245
 C1540 C 0.01047 -0.01046 0.89655
 C1541 C -0.00374 -0.01364 0.91491
 C1542 C -0.01243 -0.03474 0.91966
 C1543 C -0.00688 -0.05265 0.90571
 C1544 C 0.00711 -0.04966 0.88734
 C1545 C 0.03136 -0.02450 0.86310
 C1546 C 0.03771 -0.04132 0.84795
 C1547 C 0.05227 -0.03677 0.83041
 C1548 C 0.06096 -0.01536 0.82742
 C1549 C 0.05455 0.00159 0.84227
 C1550 C 0.03985 -0.00280 0.85997
 C1551 C 0.01928 0.01065 0.89240
 C1552 C 0.03371 0.01439 0.87456
 H1553 H 0.01506 0.02452 0.90319
 H1554 H 0.04016 0.03101 0.87215
 H1555 H -0.00769 0.00024 0.92580
 H1556 H -0.01354 -0.06905 0.90892
 H1557 H 0.05658 -0.05006 0.81896
 H1558 H 0.06129 0.01816 0.84027
 H1559 H 0.01075 -0.06411 0.87730
 H1560 H 0.03161 -0.05809 0.84927
 C1561 C 0.01975 0.02711 0.60991
 C1562 C -0.00325 0.02425 0.61352
 C1563 C -0.01836 0.02757 0.59581
 C1564 C -0.01095 0.03349 0.57430
 C1565 C 0.01189 0.03584 0.57068
 C1566 C 0.02705 0.03272 0.58818
 C1567 C 0.03529 0.02398 0.62942
 C1568 C 0.05835 0.02739 0.62786
 C1569 C 0.07208 0.02436 0.64655
 C1570 C 0.06326 0.01776 0.66725
 C1571 C 0.04033 0.01439 0.66903
 C1572 C 0.02632 0.01761 0.65040
 C1573 C -0.01105 0.01813 0.63476
 C1574 C 0.00342 0.01472 0.65275
 H1575 H -0.02865 0.01586 0.63752
 H1576 H -0.00346 0.00991 0.66883
 H1577 H -0.03597 0.02590 0.59891
 H1578 H 0.01811 0.03996 0.55415
 H1579 H 0.08975 0.02691 0.64472
 H1580 H 0.03333 0.00964 0.68507
 H1581 H 0.04436 0.03472 0.58427
 H1582 H 0.06613 0.03247 0.61243
 C1583 C 0.51472 0.53099 0.11526
 C1584 C 0.50753 0.51251 0.10242
 C1585 C 0.49315 0.51561 0.08406
 C1586 C 0.48593 0.53697 0.07802
 C1587 C 0.49318 0.55525 0.09066
 C1588 C 0.50734 0.55236 0.10904
 C1589 C 0.53004 0.52695 0.13477
 C1590 C 0.53777 0.54412 0.14887
 C1591 C 0.55217 0.53954 0.16669
 C1592 C 0.55934 0.51776 0.17098
 C1593 C 0.55159 0.50050 0.15714
 C1594 C 0.53700 0.50490 0.13921
 C1595 C 0.51488 0.49108 0.10785
 C1596 C 0.52938 0.48738 0.12577
 H1597 H 0.50943 0.47694 0.09800
 H1598 H 0.53465 0.47049 0.12919
 H1599 H 0.48786 0.50140 0.07419
 H1600 H 0.48768 0.57188 0.08645
 H1601 H 0.55749 0.55313 0.17735
 H1602 H 0.55715 0.48362 0.16012
 H1603 H 0.51231 0.56709 0.11805
 H1604 H 0.53284 0.56119 0.14656
 C1605 C 0.48677 -0.02326 0.11123
 C1606 C 0.49424 -0.04516 0.10690
 C1607 C 0.50886 -0.04928 0.08909
 C1608 C 0.51642 -0.03185 0.07548
 C1609 C 0.50915 -0.01016 0.07989
 C1610 C 0.49450 -0.00587 0.09747
 C1611 C 0.47108 -0.01961 0.13039
 C1612 C 0.46236 0.00143 0.13590
 C1613 C 0.44781 0.00393 0.15391
 C1614 C 0.44156 -0.01442 0.16696
 C1615 C 0.45016 -0.03544 0.16159
 C1616 C 0.46471 -0.03818 0.14346
 C1617 C 0.48721 -0.06281 0.12042
 C1618 C 0.47284 -0.05938 0.13835
 H1619 H 0.49297 -0.07956 0.11714
 H1620 H 0.46794 -0.07359 0.14834
 H1621 H 0.51469 -0.06605 0.08604
 H1622 H 0.51466 0.00354 0.06952
 H1623 H 0.44118 0.02028 0.15743
 H1624 H 0.44571 -0.04972 0.17171
 H1625 H 0.48951 0.01115 0.09998
 H1626 H 0.46642 0.01615 0.12648
 C1627 C 0.98066 0.47913 0.60938
 C1628 C 0.98909 0.45751 0.60546
 C1629 C 1.00385 0.45372 0.58769
 C1630 C 1.01055 0.47120 0.57368
 C1631 C 1.00215 0.49258 0.57756
 C1632 C 0.98739 0.49654 0.59512
 C1633 C 0.96508 0.48250 0.62867
 C1634 C 0.95573 0.50331 0.63400
 C1635 C 0.94150 0.50562 0.65229
 C1636 C 0.93616 0.48729 0.66576
 C1637 C 0.94527 0.46646 0.66052
 C1638 C 0.95960 0.46394 0.64217
 C1639 C 0.98291 0.43984 0.61938
 C1640 C 0.96852 0.44299 0.63735
 H1641 H 0.98937 0.42330 0.61639
 H1642 H 0.96431 0.42878 0.64766
 H1643 H 1.01049 0.43718 0.58501
 H1644 H 1.00688 0.50630 0.56683
 H1645 H 0.93445 0.52181 0.65574
 H1646 H 0.94150 0.45222 0.67097
 H1647 H 0.98155 0.51334 0.59721
 H1648 H 0.95914 0.51803 0.62430
 C1649 C 0.98365 0.52434 0.88284
 C1650 C 0.97420 0.53073 0.90360
 C1651 C 0.98778 0.53401 0.92253
 C1652 C 1.01083 0.53116 0.92119
 C1653 C 1.02016 0.52506 0.90054
 C1654 C 1.00682 0.52167 0.88162
 C1655 C 0.96851 0.52072 0.86310
 C1656 C 0.97617 0.51386 0.84185
 C1657 C 0.96138 0.51060 0.82405
 C1658 C 0.93859 0.51416 0.82688
 C1659 C 0.93079 0.52101 0.84795
 C1660 C 0.94549 0.52420 0.86602
 C1661 C 0.95126 0.53379 0.90538
 C1662 C 0.93724 0.53068 0.88698
 H1663 H 0.94403 0.53872 0.92126
 H1664 H 0.91961 0.53331 0.88924
 H1665 H 0.98033 0.53849 0.93845
 H1666 H 1.03793 0.52312 0.89891
 H1667 H 0.96785 0.50553 0.80789
 H1668 H 0.91316 0.52349 0.85040
 H1669 H 1.01503 0.51707 0.86626
 H1670 H 0.99347 0.51086 0.83858
 C1671 C 0.47866 0.02016 0.38832
 C1672 C 0.50176 0.01755 0.38523
 C1673 C 0.51647 0.02134 0.40318
 C1674 C 0.50854 0.02757 0.42442
 C1675 C 0.48560 0.02965 0.42755
 C1676 C 0.47084 0.02602 0.40980
 C1677 C 0.46357 0.01664 0.36853
 C1678 C 0.44044 0.01978 0.36959
 C1679 C 0.42716 0.01666 0.35059
 C1680 C 0.43651 0.01024 0.33007
 C1681 C 0.45949 0.00695 0.32883
 C1682 C 0.47306 0.01027 0.34777
 C1683 C 0.51008 0.01127 0.36422
 C1684 C 0.49603 0.00757 0.34595
 H1685 H 0.52776 0.00918 0.36187
 H1686 H 0.50331 0.00274 0.33006
 H1687 H 0.53416 0.01988 0.40048
 H1688 H 0.47900 0.03402 0.44386
 H1689 H 0.40944 0.01912 0.35201
 H1690 H 0.46689 0.00230 0.31294
 H1691 H 0.45344 0.02789 0.41332
 H1692 H 0.43225 0.02478 0.38484
   
