data_POSCAR
  _audit_creation_date              2014-09-24
  _audit_creation_method            'ToBaCCo'
  _symmetry_space_group_name_H-M    'P1'
  _symmetry_Int_Tables_number       1
  _symmetry_cell_setting            triclinic
  loop_
  _symmetry_equiv_pos_as_xyz
 x,y,z
_cell_length_a 63.1483
_cell_length_b 63.2170
_cell_length_c 63.6704
_cell_angle_alpha 89.943200
_cell_angle_beta 90.012200
_cell_angle_gamma 89.764800
loop_
  _atom_site_label
  _atom_site_type_symbol
  _atom_site_fract_x
  _atom_site_fract_y
  _atom_site_fract_z
N1 N 0.37387 0.31525 0.33227
 N2 N 0.37286 0.32913 0.31692
 C3 C 0.38868 0.32529 0.30323
 C4 C 0.39990 0.30791 0.31030
 C5 C 0.39023 0.30201 0.32883
 H6 H 0.39136 0.33392 0.28881
 H7 H 0.39442 0.28868 0.33866
 Cu8 Cu 0.35006 0.34980 0.31521
 Cu9 Cu 0.35301 0.31438 0.35464
 Cu10 Cu 0.31520 0.35411 0.35528
 N11 N 0.33059 0.37353 0.31751
 N12 N 0.31717 0.37537 0.33319
 C13 C 0.30572 0.39321 0.33060
 C14 C 0.31255 0.40321 0.31249
 C15 C 0.32810 0.39007 0.30443
 H16 H 0.29328 0.39852 0.34104
 H17 H 0.33676 0.39230 0.28994
 N18 N 0.31599 0.33105 0.37617
 N19 N 0.33061 0.31606 0.37597
 C20 C 0.32643 0.30205 0.39133
 C21 C 0.30812 0.30830 0.40144
 C22 C 0.30208 0.32691 0.39169
 H23 H 0.33555 0.28790 0.39451
 H24 H 0.28809 0.33621 0.39513
 H25 H 0.32805 0.32898 0.33897
 H26 H 0.34696 0.34669 0.35314
 N27 N 0.37151 0.81505 -0.17060
 N28 N 0.37369 0.83138 -0.18318
 C29 C 0.38938 0.82729 -0.19694
 C30 C 0.39709 0.80702 -0.19322
 C31 C 0.38560 0.80001 -0.17600
 H32 H 0.39415 0.83787 -0.20941
 H33 H 0.38769 0.78527 -0.16762
 Cu34 Cu 0.35508 0.85596 -0.18141
 Cu35 Cu 0.35018 0.81413 -0.14862
 Cu36 Cu 0.31431 0.85547 -0.14712
 N37 N 0.33376 0.87833 -0.18085
 N38 N 0.31765 0.87771 -0.16784
 C39 C 0.30506 0.89454 -0.17131
 C40 C 0.31391 0.90681 -0.18709
 C41 C 0.33201 0.89572 -0.19298
 H42 H 0.29073 0.89789 -0.16262
 H43 H 0.34248 0.89937 -0.20591
 N44 N 0.31348 0.83166 -0.12728
 N45 N 0.32741 0.81605 -0.12757
 C46 C 0.32268 0.80227 -0.11212
 C47 C 0.30478 0.80947 -0.10188
 C48 C 0.29947 0.82821 -0.11173
 H49 H 0.33129 0.78783 -0.10878
 H50 H 0.28629 0.83845 -0.10784
 H51 H 0.32907 0.83260 -0.16541
 H52 H 0.34584 0.84636 -0.14542
 N53 N 0.87359 0.31729 -0.16726
 N54 N 0.87406 0.33244 -0.18144
 C55 C 0.88996 0.32851 -0.19504
 C56 C 0.89969 0.30980 -0.18919
 C57 C 0.88908 0.30323 -0.17138
 H58 H 0.89375 0.33805 -0.20862
 H59 H 0.89209 0.28896 -0.16245
 Cu60 Cu 0.85286 0.35488 -0.18137
 Cu61 Cu 0.85216 0.31605 -0.14530
 Cu62 Cu 0.81378 0.35545 -0.14568
 N63 N 0.83176 0.37744 -0.18094
 N64 N 0.81613 0.37710 -0.16733
 C65 C 0.80348 0.39394 -0.17062
 C66 C 0.81187 0.40597 -0.18683
 C67 C 0.82968 0.39469 -0.19323
 H68 H 0.78957 0.39756 -0.16139
 H69 H 0.83979 0.39823 -0.20645
 N70 N 0.81425 0.33232 -0.12494
 N71 N 0.82911 0.31756 -0.12447
 C72 C 0.82500 0.30410 -0.10857
 C73 C 0.80658 0.31058 -0.09881
 C74 C 0.80028 0.32858 -0.10942
 H75 H 0.83430 0.29023 -0.10470
 H76 H 0.78635 0.33803 -0.10616
 H77 H 0.82896 0.33163 -0.16216
 H78 H 0.84566 0.34808 -0.14440
 N79 N 0.87441 0.81752 0.33217
 N80 N 0.87408 0.83221 0.31754
 C81 C 0.88943 0.82802 0.30339
 C82 C 0.89963 0.80958 0.30939
 C83 C 0.88991 0.80352 0.32787
 H84 H 0.89247 0.83714 0.28935
 H85 H 0.89341 0.78954 0.33706
 Cu86 Cu 0.85257 0.85439 0.31783
 Cu87 Cu 0.85346 0.81631 0.35456
 Cu88 Cu 0.81427 0.85491 0.35455
 N89 N 0.83130 0.87675 0.31874
 N90 N 0.81595 0.87642 0.33266
 C91 C 0.80320 0.89325 0.32957
 C92 C 0.81131 0.90527 0.31321
 C93 C 0.82896 0.89398 0.30648
 H94 H 0.78948 0.89691 0.33908
 H95 H 0.83886 0.89757 0.29310
 N96 N 0.81553 0.83192 0.37549
 N97 N 0.83084 0.81763 0.37580
 C98 C 0.82713 0.80384 0.39147
 C99 C 0.80842 0.80947 0.40124
 C100 C 0.80164 0.82752 0.39096
 H101 H 0.83684 0.79019 0.39511
 H102 H 0.78724 0.83628 0.39409
 H103 H 0.82943 0.83120 0.33803
 H104 H 0.84623 0.84831 0.35508
 N105 N 0.62532 0.68466 0.33282
 N106 N 0.62385 0.66914 0.31915
 C107 C 0.60836 0.67367 0.30533
 C108 C 0.59967 0.69300 0.31062
 C109 C 0.61061 0.69949 0.32826
 H110 H 0.60385 0.66384 0.29219
 H111 H 0.60833 0.71409 0.33681
 Cu112 Cu 0.64257 0.64470 0.31995
 Cu113 Cu 0.64668 0.68467 0.35497
 Cu114 Cu 0.67773 0.63961 0.35928
 N115 N 0.66335 0.62192 0.32040
 N116 N 0.67718 0.62019 0.33574
 C117 C 0.69051 0.60410 0.33157
 C118 C 0.68475 0.59536 0.31257
 C119 C 0.66738 0.60689 0.30592
 H120 H 0.70396 0.59966 0.34116
 H121 H 0.65904 0.60510 0.29120
 N122 N 0.67998 0.66361 0.37863
 N123 N 0.66907 0.68131 0.37640
 C124 C 0.67574 0.69533 0.39090
 C125 C 0.69175 0.68603 0.40267
 C126 C 0.69355 0.66573 0.39476
 H127 H 0.66962 0.71123 0.39267
 H128 H 0.70416 0.65344 0.40022
 H129 H 0.66812 0.66461 0.34041
 H130 H 0.64720 0.65255 0.35733
 N131 N 0.62899 0.18660 -0.17203
 N132 N 0.63113 0.17339 -0.18782
 C133 C 0.61494 0.17619 -0.20128
 C134 C 0.60178 0.19177 -0.19330
 C135 C 0.61135 0.19827 -0.17490
 H136 H 0.61279 0.16746 -0.21572
 H137 H 0.60571 0.21040 -0.16429
 Cu138 Cu 0.65434 0.15325 -0.18924
 Cu139 Cu 0.64918 0.18761 -0.14904
 Cu140 Cu 0.68645 0.14746 -0.14742
 N141 N 0.67231 0.12851 -0.18574
 N142 N 0.68460 0.12616 -0.16927
 C143 C 0.69520 0.10774 -0.17086
 C144 C 0.68905 0.09773 -0.18926
 C145 C 0.67473 0.11170 -0.19845
 H146 H 0.70735 0.10265 -0.15998
 H147 H 0.66634 0.10963 -0.21310
 N148 N 0.68555 0.17054 -0.12683
 N149 N 0.67114 0.18572 -0.12722
 C150 C 0.67500 0.19934 -0.11145
 C151 C 0.69283 0.19248 -0.10092
 C152 C 0.69904 0.17414 -0.11089
 H153 H 0.66602 0.21359 -0.10828
 H154 H 0.71265 0.16445 -0.10705
 H155 H 0.67474 0.17344 -0.16382
 H156 H 0.65484 0.15548 -0.15126
 N157 N 0.12899 0.68668 -0.17114
 N158 N 0.12788 0.67094 -0.18458
 C159 C 0.11125 0.67418 -0.19745
 C160 C 0.10156 0.69297 -0.19178
 C161 C 0.11311 0.70045 -0.17496
 H162 H 0.10689 0.66409 -0.21044
 H163 H 0.11072 0.71524 -0.16675
 Cu164 Cu 0.14929 0.64867 -0.18509
 Cu165 Cu 0.15228 0.68924 -0.15129
 Cu166 Cu 0.18160 0.64335 -0.14349
 N167 N 0.16972 0.62558 -0.18323
 N168 N 0.18254 0.62375 -0.16706
 C169 C 0.19464 0.60634 -0.16949
 C170 C 0.18883 0.59647 -0.18802
 C171 C 0.17319 0.60932 -0.19647
 H172 H 0.20681 0.60127 -0.15861
 H173 H 0.16483 0.60680 -0.21108
 N174 N 0.18287 0.66783 -0.12438
 N175 N 0.17170 0.68527 -0.12739
 C176 C 0.17555 0.69882 -0.11155
 C177 C 0.18980 0.68943 -0.09794
 C178 C 0.19436 0.66994 -0.10667
 H179 H 0.16845 0.71433 -0.10993
 H180 H 0.20506 0.65812 -0.10040
 H181 H 0.17470 0.66772 -0.16314
 H182 H 0.15174 0.65738 -0.14786
 N183 N 0.12787 0.18711 0.32694
 N184 N 0.12503 0.17050 0.31488
 C185 C 0.10862 0.17427 0.30186
 C186 C 0.10104 0.19443 0.30584
 C187 C 0.11341 0.20198 0.32208
 H188 H 0.10305 0.16350 0.28990
 H189 H 0.11222 0.21730 0.32954
 Cu190 Cu 0.14407 0.14629 0.31625
 Cu191 Cu 0.15103 0.18900 0.34687
 Cu192 Cu 0.17817 0.14232 0.35656
 N193 N 0.16686 0.12552 0.31624
 N194 N 0.18031 0.12412 0.33197
 C195 C 0.19452 0.10876 0.32784
 C196 C 0.18981 0.10025 0.30840
 C197 C 0.17205 0.11107 0.30156
 H198 H 0.20745 0.10428 0.33809
 H199 H 0.16383 0.10889 0.28682
 N200 N 0.17972 0.16702 0.37528
 N201 N 0.16973 0.18495 0.37125
 C202 C 0.17372 0.19879 0.38677
 C203 C 0.18668 0.18905 0.40138
 C204 C 0.19047 0.16902 0.39344
 H205 H 0.16752 0.21475 0.38753
 H206 H 0.20019 0.15680 0.40047
 H207 H 0.17132 0.16531 0.33569
 H208 H 0.14861 0.15748 0.35276
 N209 N 0.62372 0.31781 0.66648
 N210 N 0.62418 0.33233 0.68126
 C211 C 0.60725 0.32978 0.69388
 C212 C 0.59545 0.31298 0.68644
 C213 C 0.60656 0.30557 0.66922
 H214 H 0.60375 0.33929 0.70757
 H215 H 0.60264 0.29201 0.65966
 Cu216 Cu 0.64720 0.35270 0.68270
 Cu217 Cu 0.64553 0.31553 0.64496
 Cu218 Cu 0.68617 0.35219 0.64684
 N219 N 0.67006 0.37332 0.68353
 N220 N 0.68517 0.37301 0.66933
 C221 C 0.69932 0.38822 0.67375
 C222 C 0.69292 0.39842 0.69185
 C223 C 0.67412 0.38880 0.69750
 H224 H 0.71345 0.39141 0.66470
 H225 H 0.66451 0.39250 0.71107
 N226 N 0.68445 0.32993 0.62531
 N227 N 0.66903 0.31589 0.62459
 C228 C 0.67289 0.30226 0.60876
 C229 C 0.69175 0.30784 0.59935
 C230 C 0.69851 0.32557 0.61002
 H231 H 0.66314 0.28883 0.60477
 H232 H 0.71293 0.33427 0.60711
 H233 H 0.66964 0.32874 0.66245
 H234 H 0.65388 0.34701 0.64544
 N235 N 0.62636 0.81623 1.16906
 N236 N 0.62752 0.83017 1.18433
 C237 C 0.61239 0.82599 1.19861
 C238 C 0.60138 0.80835 1.19204
 C239 C 0.61043 0.80273 1.17309
 H240 H 0.60970 0.83484 1.21289
 H241 H 0.60612 0.78944 1.16333
 Cu242 Cu 0.64903 0.85205 1.18430
 Cu243 Cu 0.64638 0.81587 1.14577
 Cu244 Cu 0.68607 0.85372 1.14663
 N245 N 0.67081 0.87366 1.18428
 N246 N 0.68536 0.87414 1.16953
 C247 C 0.69800 0.89093 1.17269
 C248 C 0.69081 0.90170 1.19019
 C249 C 0.67375 0.89012 1.19737
 H250 H 0.71119 0.89529 1.16277
 H251 H 0.66417 0.89356 1.21104
 N252 N 0.68390 0.83185 1.12472
 N253 N 0.66827 0.81808 1.12381
 C254 C 0.67051 0.80632 1.10629
 C255 C 0.68828 0.81315 1.09558
 C256 C 0.69661 0.82901 1.10799
 H257 H 0.65999 0.79374 1.10157
 H258 H 0.71092 0.83784 1.10500
 H259 H 0.67099 0.82934 1.16230
 H260 H 0.65394 0.84764 1.14660
 N261 N 0.12583 0.31789 1.16904
 N262 N 0.12750 0.33168 1.18438
 C263 C 0.11107 0.32924 1.19762
 C264 C 0.09826 0.31332 1.18998
 C265 C 0.10828 0.30623 1.17200
 H266 H 0.10856 0.33832 1.21180
 H267 H 0.10306 0.29364 1.16178
 Cu268 Cu 0.15049 0.35202 1.18542
 Cu269 Cu 0.14650 0.31611 1.14649
 Cu270 Cu 0.18642 0.35345 1.14621
 N271 N 0.17244 0.37346 1.18422
 N272 N 0.18631 0.37405 1.16884
 C273 C 0.20006 0.38986 1.17238
 C274 C 0.19458 0.39955 1.19106
 C275 C 0.17683 0.38898 1.19802
 H276 H 0.21339 0.39372 1.16244
 H277 H 0.16822 0.39201 1.21239
 N278 N 0.18393 0.33126 1.12471
 N279 N 0.16885 0.31686 1.12499
 C280 C 0.17231 0.30297 1.10933
 C281 C 0.19051 0.30883 1.09887
 C282 C 0.19735 0.32693 1.10881
 H283 H 0.16277 0.28917 1.10616
 H284 H 0.21161 0.33566 1.10528
 H285 H 0.17171 0.32937 1.16252
 H286 H 0.15417 0.34794 1.14755
 N287 N 0.12468 0.81828 0.66834
 N288 N 0.12578 0.83281 0.68306
 C289 C 0.11052 0.82918 0.69739
 C290 C 0.09945 0.81133 0.69140
 C291 C 0.10867 0.80498 0.67276
 H292 H 0.10785 0.83851 0.71137
 H293 H 0.10442 0.79132 0.66349
 Cu294 Cu 0.14765 0.85448 0.68276
 Cu295 Cu 0.14471 0.81705 0.64515
 Cu296 Cu 0.18471 0.85435 0.64469
 N297 N 0.17088 0.87471 0.68260
 N298 N 0.18531 0.87450 0.66772
 C299 C 0.19978 0.88954 0.67170
 C300 C 0.19428 0.89955 0.69021
 C301 C 0.17572 0.88995 0.69657
 H302 H 0.21344 0.89286 0.66201
 H303 H 0.16674 0.89355 0.71059
 N304 N 0.18154 0.83271 0.62272
 N305 N 0.16641 0.81836 0.62296
 C306 C 0.16880 0.80557 0.60620
 C307 C 0.18602 0.81243 0.59472
 C308 C 0.19387 0.82948 0.60576
 H309 H 0.15884 0.79219 0.60257
 H310 H 0.20781 0.83855 0.60186
 H311 H 0.16942 0.83085 0.66146
 H312 H 0.15248 0.84877 0.64515
 N313 N 0.37206 0.68580 0.67204
 N314 N 0.36991 0.67256 0.68781
 C315 C 0.38666 0.67444 0.70078
 C316 C 0.40009 0.68955 0.69252
 C317 C 0.39020 0.69660 0.67444
 H318 H 0.38871 0.66583 0.71533
 H319 H 0.39578 0.70881 0.66392
 Cu320 Cu 0.34523 0.65457 0.69019
 Cu321 Cu 0.35125 0.68803 0.64957
 Cu322 Cu 0.31165 0.65034 0.64927
 N323 N 0.32518 0.63154 0.68811
 N324 N 0.31217 0.62979 0.67209
 C325 C 0.30060 0.61209 0.67443
 C326 C 0.30698 0.60210 0.69271
 C327 C 0.32237 0.61506 0.70116
 H328 H 0.28871 0.60665 0.66349
 H329 H 0.33101 0.61253 0.71562
 N330 N 0.31393 0.67266 0.62774
 N331 N 0.32874 0.68733 0.62819
 C332 C 0.32614 0.70028 0.61158
 C333 C 0.30923 0.69310 0.59981
 C334 C 0.30165 0.67579 0.61071
 H335 H 0.33587 0.71390 0.60820
 H336 H 0.28828 0.66609 0.60636
 H337 H 0.32513 0.67559 0.66490
 H338 H 0.34367 0.65633 0.65215
 N339 N 0.37578 0.18383 1.17011
 N340 N 0.37465 0.17039 1.18585
 C341 C 0.39049 0.17440 1.19947
 C342 C 0.40189 0.19140 1.19190
 C343 C 0.39223 0.19690 1.17321
 H344 H 0.39302 0.16622 1.21418
 H345 H 0.39639 0.21000 1.16311
 Cu346 Cu 0.35172 0.15000 1.18787
 Cu347 Cu 0.35478 0.18477 1.14780
 Cu348 Cu 0.31427 0.14817 1.15028
 N349 N 0.33261 0.12606 1.18522
 N350 N 0.31812 0.12535 1.17041
 C351 C 0.30647 0.10775 1.17286
 C352 C 0.31421 0.09666 1.18997
 C353 C 0.33066 0.10888 1.19759
 H354 H 0.29300 0.10357 1.16325
 H355 H 0.33998 0.10584 1.21154
 N356 N 0.31647 0.16936 1.12771
 N357 N 0.33198 0.18327 1.12677
 C358 C 0.32852 0.19636 1.11043
 C359 C 0.30995 0.19040 1.10069
 C360 C 0.30282 0.17312 1.11185
 H361 H 0.33827 0.20975 1.10631
 H362 H 0.28831 0.16453 1.10911
 H363 H 0.33019 0.17286 1.16497
 H364 H 0.34634 0.15309 1.15016
 N365 N 0.87381 0.68437 1.16841
 N366 N 0.87228 0.67045 1.18368
 C367 C 0.88842 0.67324 1.19719
 C368 C 0.90110 0.68937 1.18970
 C369 C 0.89112 0.69634 1.17159
 H370 H 0.89087 0.66420 1.21141
 H371 H 0.89622 0.70904 1.16142
 Cu372 Cu 0.85004 0.64929 1.18392
 Cu373 Cu 0.85309 0.68599 1.14573
 Cu374 Cu 0.81322 0.64836 1.14597
 N375 N 0.82767 0.62824 1.18385
 N376 N 0.81335 0.62795 1.16885
 C377 C 0.79936 0.61246 1.17280
 C378 C 0.80516 0.60263 1.19131
 C379 C 0.82332 0.61281 1.19780
 H380 H 0.78576 0.60881 1.16315
 H381 H 0.83230 0.60952 1.21190
 N382 N 0.81566 0.67032 1.12420
 N383 N 0.83058 0.68490 1.12423
 C384 C 0.82674 0.69868 1.10848
 C385 C 0.80842 0.69258 1.09833
 C386 C 0.80204 0.67437 1.10844
 H387 H 0.83597 0.71267 1.10519
 H388 H 0.78798 0.66531 1.10503
 H389 H 0.82834 0.67249 1.16207
 H390 H 0.84543 0.65437 1.14624
 N391 N 0.87484 0.18471 0.66951
 N392 N 0.87500 0.16982 0.68395
 C393 C 0.89048 0.17396 0.69793
 C394 C 0.90024 0.19256 0.69202
 C395 C 0.89009 0.19884 0.67382
 H396 H 0.89402 0.16460 0.71171
 H397 H 0.89333 0.21289 0.66468
 Cu398 Cu 0.85416 0.14723 0.68366
 Cu399 Cu 0.85426 0.18536 0.64676
 Cu400 Cu 0.81695 0.14534 0.64595
 N401 N 0.83310 0.12484 0.68295
 N402 N 0.81863 0.12424 0.66812
 C403 C 0.80596 0.10750 0.67135
 C404 C 0.81300 0.09687 0.68899
 C405 C 0.83008 0.10845 0.69615
 H406 H 0.79253 0.10335 0.66166
 H407 H 0.83932 0.10532 0.71012
 N408 N 0.81785 0.16809 0.62487
 N409 N 0.83215 0.18327 0.62503
 C410 C 0.82801 0.19683 0.60919
 C411 C 0.81013 0.18994 0.59883
 C412 C 0.80422 0.17161 0.60899
 H413 H 0.83676 0.21112 0.60590
 H414 H 0.79058 0.16198 0.60539
 H415 H 0.83062 0.16965 0.66286
 H416 H 0.84865 0.15321 0.64624
 N417 N 0.31565 0.37431 0.66716
 N418 N 0.32899 0.37240 0.68290
 C419 C 0.32630 0.38877 0.69612
 C420 C 0.31074 0.40191 0.68806
 C421 C 0.30406 0.39205 0.66982
 H422 H 0.33496 0.39100 0.71060
 H423 H 0.29175 0.39747 0.65928
 Cu424 Cu 0.34901 0.34907 0.68491
 Cu425 Cu 0.31423 0.35343 0.64471
 Cu426 Cu 0.35260 0.31422 0.64506
 N427 N 0.37185 0.32843 0.68328
 N428 N 0.37318 0.31487 0.66769
 C429 C 0.38954 0.30162 0.67119
 C430 C 0.39885 0.30715 0.69001
 C431 C 0.38744 0.32436 0.69718
 H432 H 0.39394 0.28850 0.66120
 H433 H 0.38984 0.33270 0.71180
 N434 N 0.33042 0.31604 0.62347
 N435 N 0.31555 0.33078 0.62342
 C436 C 0.30179 0.32668 0.60775
 C437 C 0.30822 0.30836 0.59773
 C438 C 0.32658 0.30225 0.60786
 H439 H 0.28763 0.33576 0.60441
 H440 H 0.33592 0.28827 0.60456
 H441 H 0.32740 0.32823 0.66081
 H442 H 0.34610 0.34640 0.64691
 N443 N 0.31594 0.87257 0.17156
 N444 N 0.33352 0.87459 0.18239
 C445 C 0.33139 0.89078 0.19591
 C446 C 0.31105 0.89883 0.19421
 C447 C 0.30182 0.88714 0.17824
 H448 H 0.34367 0.89621 0.20642
 H449 H 0.28595 0.88895 0.17210
 Cu450 Cu 0.35639 0.85419 0.17997
 Cu451 Cu 0.31337 0.85173 0.14910
 Cu452 Cu 0.35527 0.81629 0.14314
 N453 N 0.37915 0.83368 0.17738
 N454 N 0.37865 0.81872 0.16308
 C455 C 0.39555 0.80591 0.16574
 C456 C 0.40734 0.81341 0.18248
 C457 C 0.39628 0.83086 0.18965
 H458 H 0.39872 0.79184 0.15661
 H459 H 0.40002 0.84016 0.20341
 N460 N 0.33017 0.81647 0.12462
 N461 N 0.31412 0.82970 0.12714
 C462 C 0.29936 0.82563 0.11242
 C463 C 0.30634 0.80891 0.10024
 C464 C 0.32601 0.80365 0.10822
 H465 H 0.28459 0.83415 0.11060
 H466 H 0.33630 0.79116 0.10265
 H467 H 0.33265 0.82912 0.16285
 H468 H 0.34543 0.84759 0.14388
 N469 N 0.81397 0.37584 0.16882
 N470 N 0.82660 0.37370 0.18510
 C471 C 0.82431 0.39061 0.19776
 C472 C 0.80950 0.40405 0.18880
 C473 C 0.80308 0.39406 0.17062
 H474 H 0.83243 0.39277 0.21255
 H475 H 0.79116 0.39957 0.15969
 Cu476 Cu 0.84446 0.34890 0.18847
 Cu477 Cu 0.81217 0.35467 0.14684
 Cu478 Cu 0.84657 0.31203 0.15060
 N479 N 0.86780 0.32897 0.18652
 N480 N 0.86897 0.31495 0.17134
 C481 C 0.88685 0.30351 0.17363
 C482 C 0.89761 0.31102 0.19102
 C483 C 0.88483 0.32692 0.19903
 H484 H 0.89165 0.29067 0.16346
 H485 H 0.88763 0.33619 0.21302
 N486 N 0.82598 0.31528 0.12762
 N487 N 0.81283 0.33153 0.12626
 C488 C 0.79990 0.32866 0.10973
 C489 C 0.80510 0.30968 0.10038
 C490 C 0.82183 0.30169 0.11189
 H491 H 0.78712 0.33915 0.10521
 H492 H 0.82976 0.28669 0.10947
 H493 H 0.82189 0.32906 0.16417
 H494 H 0.84318 0.34425 0.15063
 N495 N 0.81660 0.87652 0.66805
 N496 N 0.83146 0.87601 0.68250
 C497 C 0.82771 0.89148 0.69661
 C498 C 0.80942 0.90197 0.69070
 C499 C 0.80292 0.89225 0.67242
 H500 H 0.83702 0.89440 0.71055
 H501 H 0.78886 0.89595 0.66340
 Cu502 Cu 0.85330 0.85422 0.68220
 Cu503 Cu 0.81498 0.85581 0.64558
 Cu504 Cu 0.85336 0.81650 0.64486
 N505 N 0.87443 0.83177 0.68192
 N506 N 0.87446 0.81714 0.66724
 C507 C 0.89000 0.80309 0.67129
 C508 C 0.90007 0.80911 0.68962
 C509 C 0.88997 0.82748 0.69582
 H510 H 0.89340 0.78919 0.66197
 H511 H 0.89329 0.83658 0.70980
 N512 N 0.83061 0.81859 0.62365
 N513 N 0.81594 0.83352 0.62408
 C514 C 0.80190 0.83000 0.60856
 C515 C 0.80793 0.81190 0.59799
 C516 C 0.82631 0.80519 0.60775
 H517 H 0.78796 0.83948 0.60546
 H518 H 0.83534 0.79113 0.60401
 H519 H 0.82988 0.83155 0.66178
 H520 H 0.84695 0.84852 0.64481
 N521 N 0.68050 0.62364 0.66735
 N522 N 0.66476 0.62286 0.68085
 C523 C 0.66839 0.60694 0.69454
 C524 C 0.68750 0.59752 0.68940
 C525 C 0.69459 0.60832 0.67192
 H526 H 0.65846 0.60307 0.70782
 H527 H 0.70933 0.60569 0.66367
 Cu528 Cu 0.64227 0.64410 0.68023
 Cu529 Cu 0.68268 0.64545 0.64591
 Cu530 Cu 0.64272 0.68309 0.64418
 N531 N 0.62000 0.66553 0.67922
 N532 N 0.62038 0.68074 0.66511
 C533 C 0.60454 0.69449 0.66903
 C534 C 0.59364 0.68748 0.68645
 C535 C 0.60383 0.66912 0.69260
 H536 H 0.60187 0.70914 0.66063
 H537 H 0.60046 0.65989 0.70650
 N538 N 0.66670 0.68283 0.62436
 N539 N 0.68210 0.66866 0.62529
 C540 C 0.69671 0.67331 0.61062
 C541 C 0.69025 0.69130 0.60007
 C542 C 0.67107 0.69679 0.60895
 H543 H 0.71117 0.66451 0.60792
 H544 H 0.66139 0.71033 0.60485
 H545 H 0.66589 0.66845 0.66203
 H546 H 0.65062 0.65138 0.64355
 N547 N 0.68165 0.12378 0.16676
 N548 N 0.66800 0.12532 0.18228
 C549 C 0.67275 0.11069 0.19697
 C550 C 0.69042 0.09962 0.19030
 C551 C 0.69555 0.10819 0.17101
 H552 H 0.66428 0.10849 0.21157
 H553 H 0.70852 0.10351 0.16090
 Cu554 Cu 0.64548 0.14645 0.18190
 Cu555 Cu 0.68007 0.14174 0.14202
 Cu556 Cu 0.65108 0.18778 0.14902
 N557 N 0.62593 0.17033 0.18227
 N558 N 0.62812 0.18631 0.16923
 C559 C 0.61338 0.20108 0.17351
 C560 C 0.60153 0.19420 0.19043
 C561 C 0.60970 0.17448 0.19539
 H562 H 0.61170 0.21595 0.16524
 H563 H 0.60466 0.16431 0.20810
 N564 N 0.67048 0.18337 0.12525
 N565 N 0.68149 0.16580 0.12252
 C566 C 0.69312 0.16758 0.10487
 C567 C 0.68881 0.18702 0.09589
 C568 C 0.67455 0.19670 0.10927
 H569 H 0.70381 0.15561 0.09891
 H570 H 0.66767 0.21229 0.10743
 H571 H 0.67217 0.16556 0.16178
 H572 H 0.65000 0.15597 0.14490
 N573 N 0.18470 0.62545 0.16909
 N574 N 0.17065 0.62643 0.18428
 C575 C 0.17281 0.60927 0.19666
 C576 C 0.18896 0.59677 0.18869
 C577 C 0.19635 0.60772 0.17136
 H578 H 0.16349 0.60615 0.21056
 H579 H 0.20953 0.60330 0.16141
 Cu580 Cu 0.15139 0.65035 0.18702
 Cu581 Cu 0.18684 0.64726 0.14762
 Cu582 Cu 0.14859 0.68664 0.14825
 N583 N 0.12861 0.67107 0.18562
 N584 N 0.12743 0.68509 0.17040
 C585 C 0.11013 0.69725 0.17328
 C586 C 0.09975 0.69029 0.19110
 C587 C 0.11210 0.67385 0.19871
 H588 H 0.10534 0.71015 0.16315
 H589 H 0.10927 0.66467 0.21277
 N590 N 0.17140 0.68550 0.12721
 N591 N 0.18620 0.67068 0.12722
 C592 C 0.19997 0.67462 0.11157
 C593 C 0.19357 0.69283 0.10135
 C594 C 0.17531 0.69921 0.11147
 H595 H 0.21377 0.66514 0.10793
 H596 H 0.16594 0.71311 0.10791
 H597 H 0.17331 0.67212 0.16405
 H598 H 0.15488 0.65448 0.14921
 N599 N 0.18152 0.12442 0.66763
 N600 N 0.16810 0.12545 0.68340
 C601 C 0.17313 0.11042 0.69760
 C602 C 0.19074 0.09963 0.69034
 C603 C 0.19557 0.10879 0.67123
 H604 H 0.16486 0.10771 0.71222
 H605 H 0.20839 0.10446 0.66080
 Cu606 Cu 0.14533 0.14629 0.68352
 Cu607 Cu 0.17935 0.14304 0.64333
 Cu608 Cu 0.15053 0.18890 0.65262
 N609 N 0.12453 0.16907 0.68387
 N610 N 0.12654 0.18558 0.67149
 C611 C 0.11029 0.19898 0.67480
 C612 C 0.09715 0.19027 0.68985
 C613 C 0.10690 0.17144 0.69555
 H614 H 0.10819 0.21397 0.66685
 H615 H 0.10170 0.16049 0.70753
 N616 N 0.16998 0.18556 0.62870
 N617 N 0.18049 0.16791 0.62480
 C618 C 0.19140 0.17021 0.60678
 C619 C 0.18719 0.19012 0.59878
 C620 C 0.17383 0.19954 0.61323
 H621 H 0.20145 0.15822 0.59983
 H622 H 0.16716 0.21530 0.61235
 H623 H 0.17193 0.16609 0.66393
 H624 H 0.14947 0.15733 0.64701
 N625 N 0.31389 0.62936 0.32928
 N626 N 0.32644 0.63139 0.31292
 C627 C 0.32225 0.61592 0.29908
 C628 C 0.30661 0.60322 0.30747
 C629 C 0.30140 0.61238 0.32649
 H630 H 0.33062 0.61339 0.28447
 H631 H 0.29013 0.60654 0.33788
 Cu632 Cu 0.34914 0.65199 0.31299
 Cu633 Cu 0.31650 0.64753 0.35388
 Cu634 Cu 0.34594 0.69321 0.34548
 N635 N 0.37079 0.67369 0.31300
 N636 N 0.36955 0.68980 0.32599
 C637 C 0.38641 0.70242 0.32306
 C638 C 0.39906 0.69349 0.30768
 C639 C 0.38853 0.67543 0.30143
 H640 H 0.38922 0.71702 0.33145
 H641 H 0.39358 0.66436 0.28949
 N642 N 0.32667 0.68951 0.36954
 N643 N 0.31589 0.67200 0.37304
 C644 C 0.30511 0.67405 0.39118
 C645 C 0.30968 0.69361 0.39968
 C646 C 0.32313 0.70312 0.38540
 H647 H 0.29488 0.66214 0.39787
 H648 H 0.33001 0.71870 0.38663
 H649 H 0.32358 0.67148 0.33418
 H650 H 0.34637 0.66142 0.34999
 N651 N 0.31385 0.12877 0.82942
 N652 N 0.32755 0.12966 0.81390
 C653 C 0.32342 0.11401 0.80018
 C654 C 0.30604 0.10301 0.80735
 C655 C 0.30042 0.11265 0.82600
 H656 H 0.33207 0.11105 0.78582
 H657 H 0.28741 0.10835 0.83616
 Cu658 Cu 0.34915 0.15141 0.81252
 Cu659 Cu 0.31432 0.14871 0.85263
 Cu660 Cu 0.35422 0.18605 0.85256
 N661 N 0.37213 0.17171 0.81372
 N662 N 0.37428 0.18497 0.82944
 C663 C 0.39196 0.19644 0.82655
 C664 C 0.40155 0.18977 0.80817
 C665 C 0.38832 0.17435 0.80025
 H666 H 0.39763 0.20852 0.83714
 H667 H 0.39046 0.16564 0.78579
 N668 N 0.33244 0.18461 0.87460
 N669 N 0.31738 0.17021 0.87475
 C670 C 0.30515 0.17318 0.89182
 C671 C 0.31301 0.19011 0.90307
 C672 C 0.33012 0.19719 0.89152
 H673 H 0.29143 0.16383 0.89582
 H674 H 0.33990 0.21072 0.89506
 H675 H 0.32863 0.17336 0.83674
 H676 H 0.34655 0.15429 0.85061
 N677 N 0.81396 0.62798 0.82935
 N678 N 0.82870 0.62786 0.81477
 C679 C 0.82445 0.61239 0.80085
 C680 C 0.80591 0.60259 0.80691
 C681 C 0.79980 0.61271 0.82517
 H682 H 0.83383 0.60870 0.78711
 H683 H 0.78599 0.60926 0.83458
 Cu684 Cu 0.85157 0.64842 0.81515
 Cu685 Cu 0.81404 0.64805 0.85253
 Cu686 Cu 0.85461 0.68493 0.85342
 N687 N 0.87430 0.66910 0.81579
 N688 N 0.87536 0.68338 0.83075
 C689 C 0.89248 0.69559 0.82751
 C690 C 0.90287 0.68841 0.80975
 C691 C 0.89072 0.67177 0.80253
 H692 H 0.89713 0.70870 0.83735
 H693 H 0.89358 0.66251 0.78853
 N694 N 0.83211 0.68380 0.87495
 N695 N 0.81682 0.66962 0.87469
 C696 C 0.80418 0.67274 0.89144
 C697 C 0.81198 0.68950 0.90295
 C698 C 0.82952 0.69635 0.89187
 H699 H 0.79025 0.66355 0.89509
 H700 H 0.83945 0.70968 0.89576
 H701 H 0.82984 0.67188 0.83683
 H702 H 0.84631 0.65342 0.85285
 N703 N 0.81652 0.12693 0.32937
 N704 N 0.83117 0.12730 0.31469
 C705 C 0.82724 0.11180 0.30071
 C706 C 0.80903 0.10146 0.30688
 C707 C 0.80276 0.11131 0.32520
 H708 H 0.83649 0.10861 0.28676
 H709 H 0.78898 0.10757 0.33456
 Cu710 Cu 0.85321 0.14874 0.31494
 Cu711 Cu 0.81581 0.14707 0.35242
 Cu712 Cu 0.85524 0.18503 0.35351
 N713 N 0.87549 0.16990 0.31591
 N714 N 0.87615 0.18402 0.33105
 C715 C 0.89306 0.19658 0.32817
 C716 C 0.90373 0.18983 0.31044
 C717 C 0.89196 0.17307 0.30285
 H718 H 0.89737 0.20963 0.33825
 H719 H 0.89511 0.16407 0.28875
 N720 N 0.83266 0.18334 0.37482
 N721 N 0.81775 0.16878 0.37448
 C722 C 0.80492 0.17159 0.39115
 C723 C 0.81227 0.18853 0.40269
 C724 C 0.82968 0.19581 0.39172
 H725 H 0.79124 0.16202 0.39477
 H726 H 0.83931 0.20932 0.39573
 H727 H 0.83087 0.17143 0.33671
 H728 H 0.84794 0.15329 0.35258
 N729 N 0.68581 0.37353 0.33040
 N730 N 0.67049 0.37389 0.31640
 C731 C 0.67453 0.38917 0.30220
 C732 C 0.69350 0.39861 0.30748
 C733 C 0.70009 0.38849 0.32558
 H734 H 0.66464 0.39298 0.28885
 H735 H 0.71431 0.39171 0.33447
 Cu736 Cu 0.64695 0.35421 0.31802
 Cu737 Cu 0.68656 0.35333 0.35344
 Cu738 Cu 0.64938 0.31326 0.35176
 N739 N 0.62465 0.33309 0.31934
 N740 N 0.62584 0.31701 0.33239
 C741 C 0.60899 0.30438 0.32949
 C742 C 0.59630 0.31322 0.31406
 C743 C 0.60689 0.33128 0.30776
 H744 H 0.60641 0.28960 0.33765
 H745 H 0.60212 0.34206 0.29543
 N746 N 0.67073 0.31568 0.37417
 N747 N 0.68467 0.33115 0.37500
 C748 C 0.69680 0.32860 0.39222
 C749 C 0.68989 0.31091 0.40295
 C750 C 0.67353 0.30296 0.39092
 H751 H 0.70995 0.33861 0.39649
 H752 H 0.66431 0.28897 0.39424
 H753 H 0.67223 0.33085 0.33550
 H754 H 0.65456 0.34536 0.35430
 N755 N 0.68228 0.87580 0.82998
 N756 N 0.66538 0.87865 0.81825
 C757 C 0.66906 0.89450 0.80458
 C758 C 0.68945 0.90172 0.80786
 C759 C 0.69721 0.88976 0.82433
 H760 H 0.65797 0.90004 0.79282
 H761 H 0.71269 0.89100 0.83147
 Cu762 Cu 0.64058 0.86084 0.82154
 Cu763 Cu 0.68412 0.85382 0.85116
 Cu764 Cu 0.64363 0.81730 0.85224
 N765 N 0.62013 0.83809 0.81945
 N766 N 0.62167 0.82090 0.83101
 C767 C 0.60664 0.80712 0.82502
 C768 C 0.59528 0.81604 0.80866
 C769 C 0.60399 0.83590 0.80584
 H770 H 0.60458 0.79146 0.83154
 H771 H 0.59938 0.84758 0.79427
 N772 N 0.66746 0.81670 0.87226
 N773 N 0.68307 0.83050 0.87146
 C774 C 0.69668 0.82654 0.88722
 C775 C 0.68903 0.80980 0.89884
 C776 C 0.67067 0.80366 0.88873
 H777 H 0.71086 0.83550 0.89043
 H778 H 0.66016 0.79106 0.89345
 H779 H 0.66482 0.83375 0.83393
 H780 H 0.65199 0.84858 0.85604
 N781 N 0.18588 0.37274 0.83087
 N782 N 0.17054 0.37320 0.81690
 C783 C 0.17452 0.38864 0.80284
 C784 C 0.19347 0.39811 0.80817
 C785 C 0.20011 0.38782 0.82618
 H786 H 0.16471 0.39243 0.78942
 H787 H 0.21438 0.39094 0.83502
 Cu788 Cu 0.14733 0.35301 0.81793
 Cu789 Cu 0.18668 0.35230 0.85374
 Cu790 Cu 0.14677 0.31496 0.85503
 N791 N 0.12537 0.33147 0.81872
 N792 N 0.12544 0.31651 0.83309
 C793 C 0.10873 0.30375 0.83002
 C794 C 0.09734 0.31129 0.81303
 C795 C 0.10853 0.32869 0.80602
 H796 H 0.10515 0.28993 0.83936
 H797 H 0.10459 0.33857 0.79270
 N798 N 0.16965 0.31597 0.87598
 N799 N 0.18476 0.33033 0.87563
 C800 C 0.19766 0.32717 0.89221
 C801 C 0.19012 0.31019 0.90363
 C802 C 0.17255 0.30329 0.89275
 H803 H 0.21158 0.33641 0.89572
 H804 H 0.16254 0.29012 0.89696
 H805 H 0.17045 0.32915 0.83755
 H806 H 0.15449 0.34674 0.85510
 N807 N 0.18110 0.87742 0.33315
 N808 N 0.16724 0.87686 0.31774
 C809 C 0.17160 0.89257 0.30405
 C810 C 0.18922 0.90328 0.31124
 C811 C 0.19461 0.89346 0.32988
 H812 H 0.16327 0.89542 0.28947
 H813 H 0.20803 0.89713 0.33977
 Cu814 Cu 0.14585 0.85469 0.31651
 Cu815 Cu 0.18222 0.85608 0.35514
 Cu816 Cu 0.14449 0.81656 0.35351
 N817 N 0.12399 0.83297 0.31654
 N818 N 0.12376 0.81803 0.33093
 C819 C 0.10704 0.80536 0.32762
 C820 C 0.09592 0.81293 0.31047
 C821 C 0.10731 0.83027 0.30359
 H822 H 0.10314 0.79167 0.33705
 H823 H 0.10348 0.84029 0.29034
 N824 N 0.16670 0.81786 0.37521
 N825 N 0.18090 0.83310 0.37599
 C826 C 0.19362 0.82983 0.39268
 C827 C 0.18691 0.81188 0.40307
 C828 C 0.17001 0.80451 0.39141
 H829 H 0.20680 0.83975 0.39707
 H830 H 0.16094 0.79038 0.39450
 H831 H 0.16864 0.83199 0.33790
 H832 H 0.15039 0.84865 0.35407
 O833 O 0.22574 0.97980 0.25423
 O834 O 0.25583 1.01971 0.22457
 O835 O 0.25641 0.97851 0.22730
 O836 O 0.22580 1.02162 0.25234
 O837 O 0.24958 1.02287 0.27774
 O838 O 0.28000 0.98051 0.25246
 O839 O 0.27952 1.02118 0.25004
 O840 O 0.24960 0.98102 0.27955
 Cu841 Cu 0.23846 0.99981 0.23714
 Cu842 Cu 0.26686 1.00158 0.26765
 C843 C 0.23309 0.97293 0.27151
 C844 C 0.27285 1.02713 0.23216
 C845 C 0.27346 0.97190 0.23577
 C846 C 0.23302 1.03007 0.26895
 O847 O 0.25282 0.52119 0.72457
 O848 O 0.22507 0.47789 0.75185
 O849 O 0.22343 0.51950 0.75316
 O850 O 0.25425 0.48001 0.72341
 O851 O 0.27874 0.48005 0.74806
 O852 O 0.24765 0.51910 0.77818
 O853 O 0.24984 0.47773 0.77637
 O854 O 0.27699 0.52148 0.74956
 Cu855 Cu 0.23637 0.49972 0.73584
 Cu856 Cu 0.26572 0.49971 0.76555
 C857 C 0.26975 0.52864 0.73234
 C858 C 0.23322 0.46993 0.76832
 C859 C 0.23031 0.52605 0.77072
 C860 C 0.27175 0.47317 0.73066
 O861 O 0.77700 0.02129 0.25223
 O862 O 0.74848 -0.02042 0.22362
 O863 O 0.74875 0.02102 0.22341
 O864 O 0.77724 -0.02002 0.25316
 O865 O 0.75260 -0.01906 0.27767
 O866 O 0.72327 0.02110 0.24720
 O867 O 0.72361 -0.02030 0.24797
 O868 O 0.75146 0.02217 0.27595
 Cu869 Cu 0.76536 0.00016 0.23566
 Cu870 Cu 0.73518 0.00071 0.26462
 C871 C 0.76852 0.02952 0.26838
 C872 C 0.73108 -0.02732 0.23082
 C873 C 0.73166 0.02870 0.23071
 C874 C 0.77015 -0.02611 0.27080
 O875 O 0.75262 0.48109 0.77759
 O876 O 0.72185 0.51960 0.74638
 O877 O 0.72391 0.47787 0.74826
 O878 O 0.74957 0.52211 0.77573
 O879 O 0.77533 0.52199 0.75225
 O880 O 0.74909 0.47844 0.72421
 O881 O 0.74751 0.52023 0.72281
 O882 O 0.77756 0.48092 0.75337
 Cu883 Cu 0.73434 0.49995 0.76429
 Cu884 Cu 0.76480 0.50030 0.73565
 C885 C 0.77046 0.47458 0.77091
 C886 C 0.73010 0.52735 0.72990
 C887 C 0.73244 0.47027 0.73186
 C888 C 0.76649 0.52995 0.76835
 O889 O 0.25101 0.47879 0.22369
 O890 O 0.27740 0.52251 0.25104
 O891 O 0.27976 0.48105 0.25218
 O892 O 0.24816 0.51998 0.22239
 O893 O 0.22378 0.51958 0.24724
 O894 O 0.25531 0.48054 0.27685
 O895 O 0.25310 0.52173 0.27589
 O896 O 0.22630 0.47816 0.24825
 Cu897 Cu 0.26653 0.50077 0.23485
 Cu898 Cu 0.23710 0.50001 0.26449
 C899 C 0.23453 0.47063 0.23164
 C900 C 0.26996 0.52945 0.26823
 C901 C 0.27287 0.47397 0.26955
 C902 C 0.23059 0.52642 0.22975
 O903 O 0.72334 0.98058 0.75267
 O904 O 0.75246 1.02181 0.72391
 O905 O 0.75145 0.98051 0.72368
 O906 O 0.72300 1.02172 0.75293
 O907 O 0.74785 1.02131 0.77728
 O908 O 0.77661 0.98013 0.74782
 O909 O 0.77731 1.02136 0.74830
 O910 O 0.74851 0.97996 0.77681
 Cu911 Cu 0.73506 1.00147 0.73583
 Cu912 Cu 0.76508 1.00091 0.76502
 C913 C 0.73148 0.97267 0.76916
 C914 C 0.77005 1.02832 0.73105
 C915 C 0.76837 0.97270 0.73120
 C916 C 0.73030 1.02825 0.77030
 O917 O 0.74849 0.52298 0.22375
 O918 O 0.72300 0.47880 0.25147
 O919 O 0.72052 0.52031 0.25306
 O920 O 0.75122 0.48182 0.22210
 O921 O 0.77655 0.48217 0.24598
 O922 O 0.74624 0.52105 0.27659
 O923 O 0.74845 0.47938 0.27528
 O924 O 0.77424 0.52316 0.24726
 Cu925 Cu 0.73319 0.50085 0.23525
 Cu926 Cu 0.76383 0.50143 0.26379
 C927 C 0.76541 0.53090 0.23106
 C928 C 0.73179 0.47116 0.26774
 C929 C 0.72866 0.52792 0.26963
 C930 C 0.76909 0.47539 0.22877
 O931 O 0.22429 0.02011 0.74514
 O932 O 0.25465 -0.01876 0.77622
 O933 O 0.25129 0.02215 0.77493
 O934 O 0.22612 -0.02170 0.74660
 O935 O 0.25159 -0.02089 0.72286
 O936 O 0.27738 0.02242 0.75178
 O937 O 0.27991 -0.01865 0.75232
 O938 O 0.25020 0.02095 0.72186
 Cu939 Cu 0.23639 0.00014 0.76296
 Cu940 Cu 0.26723 0.00086 0.73471
 C941 C 0.23280 0.02812 0.72892
 C942 C 0.27262 -0.02512 0.76973
 C943 C 0.26826 0.03016 0.76784
 C944 C 0.23482 -0.02911 0.73020
 O945 O 0.22426 0.25009 1.02133
 O946 O 0.25451 0.22261 0.98021
 O947 O 0.25414 0.22248 1.02138
 O948 O 0.22436 0.25098 0.98026
 O949 O 0.24830 0.27633 0.98059
 O950 O 0.27766 0.24825 1.02201
 O951 O 0.27850 0.24791 0.98081
 O952 O 0.24781 0.27587 1.02148
 Cu953 Cu 0.23695 0.23395 1.00055
 Cu954 Cu 0.26551 0.26461 1.00105
 C955 C 0.23128 0.26727 1.02890
 C956 C 0.27174 0.23047 0.97361
 C957 C 0.27041 0.23107 1.02936
 C958 C 0.23116 0.26864 0.97362
 O959 O 0.24687 0.77854 0.47912
 O960 O 0.27666 0.75068 0.52059
 O961 O 0.27703 0.75077 0.47918
 O962 O 0.24605 0.77844 0.51973
 O963 O 0.22255 0.75265 0.51962
 O964 O 0.25385 0.72484 0.47930
 O965 O 0.25309 0.72502 0.52044
 O966 O 0.22336 0.75277 0.47889
 Cu967 Cu 0.26413 0.76709 0.49974
 Cu968 Cu 0.23593 0.73617 0.49951
 C969 C 0.22988 0.77050 0.47213
 C970 C 0.26993 0.73316 0.52768
 C971 C 0.27073 0.73308 0.47221
 C972 C 0.22886 0.77046 0.52632
 O973 O 0.27442 0.75437 -0.02209
 O974 O 0.24899 0.72500 0.02085
 O975 O 0.24699 0.72393 -0.02010
 O976 O 0.27533 0.75571 0.01947
 O977 O 0.24883 0.77862 0.01985
 O978 O 0.22085 0.74720 -0.01995
 O979 O 0.22243 0.74786 0.02088
 O980 O 0.24818 0.77756 -0.02179
 Cu981 Cu 0.26417 0.73754 -0.00064
 Cu982 Cu 0.23254 0.76525 -0.00035
 C983 C 0.26526 0.77053 -0.02974
 C984 C 0.23178 0.73183 0.02865
 C985 C 0.22900 0.73013 -0.02670
 C986 C 0.26625 0.77187 0.02728
 O987 O 0.27381 0.24955 0.47877
 O988 O 0.24374 0.22200 0.52001
 O989 O 0.24373 0.22171 0.47949
 O990 O 0.27405 0.24961 0.52028
 O991 O 0.25056 0.27556 0.52027
 O992 O 0.22043 0.24774 0.47912
 O993 O 0.22043 0.24801 0.52021
 O994 O 0.25038 0.27556 0.47882
 Cu995 Cu 0.26139 0.23329 0.49964
 Cu996 Cu 0.23319 0.26439 0.49958
 C997 C 0.26678 0.26680 0.47120
 C998 C 0.22678 0.23021 0.52706
 C999 C 0.22673 0.22985 0.47243
 C1000 C 0.26702 0.26684 0.52785
 O1001 O 0.75235 0.72452 0.97893
 O1002 O 0.72241 0.75583 1.01789
 O1003 O 0.72322 0.75367 0.97708
 O1004 O 0.75053 0.72586 1.02005
 O1005 O 0.77586 0.74985 1.02002
 O1006 O 0.74833 0.77783 0.97700
 O1007 O 0.74784 0.77955 1.01819
 O1008 O 0.77753 0.74864 0.97900
 Cu1009 Cu 0.73468 0.73749 0.99846
 Cu1010 Cu 0.76492 0.76637 0.99842
 C1011 C 0.77006 0.73129 0.97234
 C1012 C 0.73005 0.77307 1.02479
 C1013 C 0.73098 0.77067 0.96985
 C1014 C 0.76742 0.73341 1.02779
 O1015 O 0.72399 0.25180 0.52030
 O1016 O 0.75273 0.22218 0.47928
 O1017 O 0.75185 0.22219 0.52037
 O1018 O 0.72370 0.25172 0.47918
 O1019 O 0.74862 0.27612 0.47963
 O1020 O 0.77732 0.24607 0.52033
 O1021 O 0.77774 0.24649 0.47936
 O1022 O 0.74950 0.27563 0.52071
 Cu1023 Cu 0.73552 0.23455 0.49955
 Cu1024 Cu 0.76582 0.26353 0.49977
 C1025 C 0.73243 0.26821 0.52815
 C1026 C 0.77027 0.22921 0.47253
 C1027 C 0.76890 0.22953 0.52793
 C1028 C 0.73120 0.26908 0.47258
 O1029 O 0.74824 0.27655 0.02158
 O1030 O 0.72239 0.24733 -0.02104
 O1031 O 0.72109 0.24594 0.01962
 O1032 O 0.74894 0.27783 -0.01984
 O1033 O 0.77551 0.25498 -0.01963
 O1034 O 0.74721 0.22265 0.01948
 O1035 O 0.74901 0.22450 -0.02134
 O1036 O 0.77447 0.25334 0.02178
 Cu1037 Cu 0.73262 0.26436 0.00024
 Cu1038 Cu 0.76431 0.23663 0.00024
 C1039 C 0.76536 0.26952 0.02940
 C1040 C 0.73172 0.23139 -0.02894
 C1041 C 0.72918 0.22871 0.02605
 C1042 C 0.76641 0.27122 -0.02726
 O1043 O 0.75011 0.72392 0.52337
 O1044 O 0.77713 0.75116 0.47988
 O1045 O 0.77705 0.75419 0.52108
 O1046 O 0.75067 0.72001 0.48257
 O1047 O 0.72479 0.74302 0.47940
 O1048 O 0.75012 0.77654 0.51958
 O1049 O 0.75103 0.77447 0.47822
 O1050 O 0.72312 0.74608 0.52048
 Cu1051 Cu 0.76642 0.73509 0.50185
 Cu1052 Cu 0.73463 0.76235 0.49913
 C1053 C 0.73226 0.73072 0.52967
 C1054 C 0.76847 0.76719 0.47136
 C1055 C 0.76756 0.77061 0.52768
 C1056 C 0.73358 0.72576 0.47384
 O1057 O 1.01879 0.28169 0.24787
 O1058 O 0.97987 0.25021 0.27746
 O1059 O 1.02127 0.25231 0.27573
 O1060 O 0.97734 0.27992 0.24934
 O1061 O 0.97802 0.25630 0.22393
 O1062 O 1.02113 0.22782 0.25096
 O1063 O 0.97978 0.22635 0.25218
 O1064 O 1.01930 0.25736 0.22306
 Cu1065 Cu 0.99917 0.26843 0.26514
 Cu1066 Cu 0.99944 0.23950 0.23504
 C1067 C 1.02598 0.27472 0.23056
 C1068 C 0.97320 0.23291 0.26986
 C1069 C 1.02900 0.23569 0.26753
 C1070 C 0.97040 0.27310 0.23192
 O1071 O 0.47859 0.25036 0.72160
 O1072 O 0.52232 0.22292 0.74841
 O1073 O 0.48084 0.22121 0.74956
 O1074 O 0.51987 0.25278 0.72025
 O1075 O 0.51966 0.27673 0.74546
 O1076 O 0.48040 0.24534 0.77452
 O1077 O 0.52162 0.24677 0.77364
 O1078 O 0.47821 0.27472 0.74647
 Cu1079 Cu 0.50062 0.23441 0.73243
 Cu1080 Cu 0.50006 0.26336 0.76250
 C1081 C 0.47053 0.26680 0.72982
 C1082 C 0.52923 0.22992 0.76578
 C1083 C 0.47368 0.22803 0.76693
 C1084 C 0.52635 0.27017 0.72782
 O1085 O -0.02104 0.27782 0.75462
 O1086 O 0.02027 0.24967 0.72463
 O1087 O -0.02121 0.25040 0.72498
 O1088 O 0.02039 0.27815 0.75430
 O1089 O 0.02035 0.25274 0.77812
 O1090 O -0.02095 0.22462 0.74845
 O1091 O 0.02033 0.22415 0.74835
 O1092 O -0.02111 0.25200 0.77805
 Cu1093 Cu -0.00020 0.26658 0.73725
 Cu1094 Cu -0.00008 0.23582 0.76565
 C1095 C -0.02875 0.26917 0.77092
 C1096 C 0.02714 0.23198 0.73130
 C1097 C -0.02874 0.23326 0.73215
 C1098 C 0.02727 0.27033 0.77136
 O1099 O 0.52098 0.25391 0.27739
 O1100 O 0.48128 0.22450 0.24679
 O1101 O 0.52299 0.22605 0.24724
 O1102 O 0.47979 0.25160 0.27666
 O1103 O 0.47910 0.27776 0.25360
 O1104 O 0.52205 0.25196 0.22398
 O1105 O 0.48020 0.25059 0.22371
 O1106 O 0.52006 0.27980 0.25415
 Cu1107 Cu 0.50155 0.23633 0.26427
 Cu1108 Cu 0.50044 0.26751 0.23637
 C1109 C 0.52704 0.27202 0.27120
 C1110 C 0.47315 0.23315 0.23067
 C1111 C 0.53022 0.23494 0.23088
 C1112 C 0.47170 0.26868 0.26979
 O1113 O 1.01995 0.77845 0.74878
 O1114 O 0.97964 0.74736 0.77661
 O1115 O 1.02104 0.74859 0.77629
 O1116 O 0.97819 0.77668 0.74808
 O1117 O 0.97905 0.75219 0.72336
 O1118 O 1.02241 0.72489 0.75082
 O1119 O 0.98107 0.72295 0.75188
 O1120 O 1.02076 0.75466 0.72340
 Cu1121 Cu 0.99950 0.76525 0.76489
 Cu1122 Cu 1.00081 0.73633 0.73479
 C1123 C 1.02790 0.77138 0.73186
 C1124 C 0.97352 0.72983 0.76909
 C1125 C 1.02954 0.73242 0.76788
 C1126 C 0.97087 0.76872 0.73127
 O1127 O 0.52107 0.77757 0.24852
 O1128 O 0.47870 0.74896 0.27577
 O1129 O 0.52025 0.74868 0.27654
 O1130 O 0.47992 0.77775 0.24602
 O1131 O 0.48047 0.75277 0.22183
 O1132 O 0.52114 0.72412 0.25189
 O1133 O 0.47953 0.72405 0.25151
 O1134 O 0.52163 0.75307 0.22377
 Cu1135 Cu 0.49959 0.76568 0.26422
 Cu1136 Cu 0.50052 0.73594 0.23485
 C1137 C 0.52909 0.76978 0.23196
 C1138 C 0.47207 0.73153 0.26850
 C1139 C 0.52839 0.73204 0.26872
 C1140 C 0.47368 0.77043 0.22851
 O1141 O 0.01949 0.75332 0.27764
 O1142 O -0.02034 0.72187 0.24929
 O1143 O 0.02119 0.72313 0.24971
 O1144 O -0.02188 0.75143 0.27686
 O1145 O -0.02243 0.77546 0.25164
 O1146 O 0.02059 0.74692 0.22436
 O1147 O -0.02073 0.74561 0.22394
 O1148 O 0.01908 0.77713 0.25227
 Cu1149 Cu -0.00017 0.73507 0.26592
 Cu1150 Cu -0.00082 0.76370 0.23555
 C1151 C 0.02598 0.77063 0.26988
 C1152 C -0.02753 0.72845 0.23183
 C1153 C 0.02807 0.73000 0.23226
 C1154 C -0.02993 0.76785 0.26854
 O1155 O 0.47575 0.77598 0.75034
 O1156 O 0.51980 0.74911 0.72291
 O1157 O 0.47864 0.74695 0.72241
 O1158 O 0.51708 0.78046 0.74958
 O1159 O 0.52062 0.75634 0.77431
 O1160 O 0.47995 0.72372 0.74831
 O1161 O 0.52105 0.72496 0.74803
 O1162 O 0.47889 0.75316 0.77643
 Cu1163 Cu 0.49775 0.76557 0.73384
 Cu1164 Cu 0.50039 0.73733 0.76448
 C1165 C 0.46931 0.76853 0.76773
 C1166 C 0.52767 0.73230 0.73072
 C1167 C 0.47236 0.72990 0.73084
 C1168 C 0.52619 0.77378 0.76603
 C1169 C 0.41625 0.27565 0.29303
 C1170 C 0.41754 0.29705 0.29955
 C1171 C 0.43599 0.30858 0.29561
 C1172 C 0.45341 0.29907 0.28605
 C1173 C 0.45291 0.27773 0.28023
 C1174 C 0.43411 0.26587 0.28334
 C1175 C 0.39730 0.26401 0.29513
 C1176 C 0.39603 0.24321 0.28802
 C1177 C 0.41345 0.23363 0.27860
 C1178 C 0.43229 0.24477 0.27622
 H1179 H 0.38316 0.27093 0.30182
 H1180 H 0.38137 0.23454 0.28964
 H1181 H 0.41230 0.21756 0.27287
 H1182 H 0.44514 0.23676 0.26833
 H1183 H 0.43701 0.32503 0.30024
 H1184 H 0.46752 0.30838 0.28338
 C1185 C 0.41447 0.77402 0.79333
 C1186 C 0.41354 0.79647 0.79587
 C1187 C 0.42999 0.80874 0.78739
 C1188 C 0.44784 0.79939 0.77850
 C1189 C 0.44995 0.77740 0.77751
 C1190 C 0.43295 0.76445 0.78441
 C1191 C 0.39678 0.76097 0.79752
 C1192 C 0.39781 0.73914 0.79477
 C1193 C 0.41608 0.72981 0.78693
 C1194 C 0.43333 0.74226 0.78142
 H1195 H 0.38157 0.76739 0.80192
 H1196 H 0.38413 0.72947 0.79823
 H1197 H 0.41666 0.71287 0.78446
 H1198 H 0.44655 0.73422 0.77423
 H1199 H 0.42971 0.82583 0.78859
 H1200 H 0.46039 0.80948 0.77273
 C1201 C -0.08446 0.27734 0.79329
 C1202 C -0.08286 0.29872 0.79987
 C1203 C -0.06414 0.30989 0.79608
 C1204 C -0.04677 0.30005 0.78674
 C1205 C -0.04752 0.27868 0.78107
 C1206 C -0.06658 0.26716 0.78401
 C1207 C -0.10371 0.26611 0.79488
 C1208 C -0.10521 0.24528 0.78793
 C1209 C -0.08773 0.23526 0.77911
 C1210 C -0.06863 0.24601 0.77710
 H1211 H -0.11793 0.27340 0.80099
 H1212 H -0.12010 0.23694 0.78918
 H1213 H -0.08904 0.21914 0.77354
 H1214 H -0.05577 0.23765 0.76964
 H1215 H -0.06286 0.32632 0.80072
 H1216 H -0.03247 0.30912 0.78418
 C1217 C -0.08486 0.77647 0.29262
 C1218 C -0.08337 0.79822 0.29796
 C1219 C -0.06516 0.80952 0.29244
 C1220 C -0.04810 0.79948 0.28273
 C1221 C -0.04870 0.77781 0.27830
 C1222 C -0.06735 0.76616 0.28279
 C1223 C -0.10366 0.76490 0.29605
 C1224 C -0.10502 0.74365 0.29041
 C1225 C -0.08791 0.73358 0.28093
 C1226 C -0.06932 0.74468 0.27697
 H1227 H -0.11767 0.77217 0.30262
 H1228 H -0.11953 0.73503 0.29315
 H1229 H -0.08916 0.71714 0.27633
 H1230 H -0.05679 0.73630 0.26895
 H1231 H -0.06395 0.82620 0.29613
 H1232 H -0.03410 0.80861 0.27905
 C1233 C 0.58404 0.70950 0.27781
 C1234 C 0.58252 0.70428 0.29942
 C1235 C 0.56401 0.70923 0.31049
 C1236 C 0.54665 0.71826 0.30031
 C1237 C 0.54725 0.72247 0.27872
 C1238 C 0.56625 0.71858 0.26733
 C1239 C 0.60314 0.70661 0.26658
 C1240 C 0.60465 0.71235 0.24550
 C1241 C 0.58731 0.72115 0.23522
 C1242 C 0.56832 0.72427 0.24594
 H1243 H 0.61722 0.70040 0.27405
 H1244 H 0.61943 0.71018 0.23715
 H1245 H 0.58863 0.72582 0.21891
 H1246 H 0.55561 0.73168 0.23732
 H1247 H 0.56280 0.70558 0.32708
 H1248 H 0.53244 0.72161 0.30928
 C1249 C 0.56590 0.18714 0.78917
 C1250 C 0.58214 0.20030 0.79721
 C1251 C 0.57991 0.22229 0.79590
 C1252 C 0.56252 0.23139 0.78595
 C1253 C 0.54679 0.21884 0.77676
 C1254 C 0.54825 0.19643 0.77855
 C1255 C 0.56639 0.16497 0.79215
 C1256 C 0.55040 0.15218 0.78416
 C1257 C 0.53347 0.16115 0.77340
 C1258 C 0.53227 0.18300 0.77077
 H1259 H 0.57875 0.15729 0.80110
 H1260 H 0.55105 0.13523 0.78654
 H1261 H 0.52103 0.15114 0.76733
 H1262 H 0.51854 0.18909 0.76285
 H1263 H 0.59204 0.23257 0.80220
 H1264 H 0.56164 0.24849 0.78492
 C1265 C 1.08555 0.71048 0.77609
 C1266 C 1.08396 0.70382 0.79730
 C1267 C 1.06523 0.70762 0.80846
 C1268 C 1.04780 0.71702 0.79873
 C1269 C 1.04857 0.72281 0.77751
 C1270 C 1.06771 0.71999 0.76607
 C1271 C 1.10476 0.70861 0.76483
 C1272 C 1.10633 0.71582 0.74420
 C1273 C 1.08894 0.72508 0.73441
 C1274 C 1.06982 0.72718 0.74514
 H1275 H 1.11886 0.70202 0.77194
 H1276 H 1.12119 0.71441 0.73584
 H1277 H 1.09031 0.73089 0.71846
 H1278 H 1.05701 0.73496 0.73697
 H1279 H 1.06399 0.70292 0.82479
 H1280 H 1.03343 0.71946 0.80773
 C1281 C 1.08540 0.22668 0.28750
 C1282 C 1.08354 0.20557 0.29495
 C1283 C 1.06439 0.19477 0.29229
 C1284 C 1.04690 0.20475 0.28329
 C1285 C 1.04798 0.22588 0.27690
 C1286 C 1.06737 0.23701 0.27868
 C1287 C 1.10495 0.23750 0.28779
 C1288 C 1.10651 0.25817 0.28034
 C1289 C 1.08882 0.26838 0.27212
 C1290 C 1.06947 0.25793 0.27113
 H1291 H 1.11935 0.23002 0.29322
 H1292 H 1.12160 0.26623 0.28071
 H1293 H 1.09016 0.28438 0.26620
 H1294 H 1.05636 0.26635 0.26410
 H1295 H 1.06283 0.17858 0.29763
 H1296 H 1.03226 0.19601 0.28166
 C1297 C 0.55831 0.29740 0.68430
 C1298 C 0.57633 0.30358 0.69614
 C1299 C 0.57651 0.30025 0.71788
 C1300 C 0.55987 0.28995 0.72783
 C1301 C 0.54248 0.28257 0.71639
 C1302 C 0.54127 0.28674 0.69451
 C1303 C 0.55645 0.30223 0.66271
 C1304 C 0.53859 0.29626 0.65134
 C1305 C 0.52204 0.28579 0.66126
 C1306 C 0.52319 0.28123 0.68265
 H1307 H 0.56845 0.31109 0.65447
 H1308 H 0.53744 0.30005 0.63480
 H1309 H 0.50809 0.28147 0.65240
 H1310 H 0.50957 0.27383 0.68978
 H1311 H 0.59003 0.30502 0.72721
 H1312 H 0.56095 0.28706 0.74458
 C1313 C 0.58504 0.79145 0.22436
 C1314 C 0.58375 0.79772 0.20299
 C1315 C 0.56511 0.79397 0.19167
 C1316 C 0.54755 0.78497 0.20134
 C1317 C 0.54802 0.77965 0.22266
 C1318 C 0.56693 0.78262 0.23437
 C1319 C 0.60419 0.79290 0.23577
 C1320 C 0.60533 0.78634 0.25665
 C1321 C 0.58758 0.77808 0.26654
 C1322 C 0.56859 0.77617 0.25559
 H1323 H 0.61861 0.79855 0.22862
 H1324 H 0.62013 0.78748 0.26513
 H1325 H 0.58859 0.77282 0.28270
 H1326 H 0.55549 0.76915 0.26387
 H1327 H 0.56403 0.79840 0.17526
 H1328 H 0.53333 0.78241 0.19216
 C1329 C 1.06202 0.31780 0.20711
 C1330 C 1.07871 0.30475 0.19955
 C1331 C 1.07700 0.28277 0.20133
 C1332 C 1.05961 0.27359 0.21107
 C1333 C 1.04329 0.28602 0.21954
 C1334 C 1.04432 0.30841 0.21748
 C1335 C 1.06210 0.33993 0.20391
 C1336 C 1.04569 0.35260 0.21147
 C1337 C 1.02872 0.34352 0.22197
 C1338 C 1.02789 0.32168 0.22477
 H1339 H 1.07449 0.34768 0.19516
 H1340 H 1.04604 0.36954 0.20896
 H1341 H 1.01596 0.35344 0.22768
 H1342 H 1.01412 0.31544 0.23241
 H1343 H 1.08953 0.27255 0.19557
 H1344 H 1.05922 0.25651 0.21252
 C1345 C 1.08324 0.79489 0.72411
 C1346 C 1.08184 0.80086 0.70266
 C1347 C 1.06329 0.79652 0.69141
 C1348 C 1.04594 0.78714 0.70116
 C1349 C 1.04650 0.78199 0.72253
 C1350 C 1.06536 0.78560 0.73420
 C1351 C 1.10232 0.79699 0.73552
 C1352 C 1.10366 0.79063 0.75644
 C1353 C 1.08619 0.78185 0.76637
 C1354 C 1.06727 0.77926 0.75544
 H1355 H 1.11657 0.80302 0.72835
 H1356 H 1.11841 0.79229 0.76492
 H1357 H 1.08738 0.77672 0.78255
 H1358 H 1.05446 0.77178 0.76376
 H1359 H 1.06214 0.80065 0.67492
 H1360 H 1.03185 0.78405 0.69197
 C1361 C 0.43665 0.68582 0.70931
 C1362 C 0.41943 0.69844 0.70213
 C1363 C 0.42056 0.72046 0.70384
 C1364 C 0.43796 0.73010 0.71298
 C1365 C 0.45497 0.71812 0.72070
 C1366 C 0.45462 0.69576 0.71866
 C1367 C 0.43682 0.66365 0.70666
 C1368 C 0.45406 0.65153 0.71330
 C1369 C 0.47157 0.66121 0.72235
 C1370 C 0.47201 0.68311 0.72488
 H1371 H 0.42392 0.65548 0.69908
 H1372 H 0.45397 0.63455 0.71114
 H1373 H 0.48503 0.65173 0.72719
 H1374 H 0.48627 0.68992 0.73131
 H1375 H 0.40761 0.73033 0.69839
 H1376 H 0.43794 0.74719 0.71440
 C1377 C 0.41749 0.22424 0.20845
 C1378 C 0.41930 0.20271 0.20248
 C1379 C 0.43814 0.19169 0.20648
 C1380 C 0.45545 0.20184 0.21549
 C1381 C 0.45448 0.22335 0.22065
 C1382 C 0.43522 0.23470 0.21755
 C1383 C 0.39815 0.23539 0.20636
 C1384 C 0.39634 0.25635 0.21288
 C1385 C 0.41360 0.26658 0.22174
 C1386 C 0.43282 0.25594 0.22412
 H1387 H 0.38411 0.22795 0.20013
 H1388 H 0.38139 0.26463 0.21127
 H1389 H 0.41203 0.28278 0.22702
 H1390 H 0.44546 0.26450 0.23160
 H1391 H 0.43955 0.17514 0.20228
 H1392 H 0.46985 0.19288 0.21824
 C1393 C -0.06355 0.68497 0.20870
 C1394 C -0.07942 0.69800 0.19949
 C1395 C -0.07718 0.71999 0.20026
 C1396 C -0.06014 0.72920 0.21055
 C1397 C -0.04481 0.71687 0.22088
 C1398 C -0.04654 0.69440 0.22014
 C1399 C -0.06380 0.66276 0.20617
 C1400 C -0.04869 0.64999 0.21588
 C1401 C -0.03283 0.65902 0.22795
 C1402 C -0.03156 0.68093 0.22990
 H1403 H -0.07527 0.65499 0.19630
 H1404 H -0.04924 0.63299 0.21393
 H1405 H -0.02124 0.64900 0.23560
 H1406 H -0.01868 0.68688 0.23909
 H1407 H -0.08904 0.73022 0.19324
 H1408 H -0.05928 0.74632 0.21094
 C1409 C -0.08421 0.22513 0.70933
 C1410 C -0.08250 0.20366 0.70307
 C1411 C -0.06383 0.19240 0.70727
 C1412 C -0.04658 0.20226 0.71667
 C1413 C -0.04743 0.22371 0.72202
 C1414 C -0.06649 0.23531 0.71874
 C1415 C -0.10345 0.23646 0.70728
 C1416 C -0.10509 0.25738 0.71399
 C1417 C -0.08777 0.26738 0.72300
 C1418 C -0.06868 0.25653 0.72542
 H1419 H -0.11755 0.22921 0.70100
 H1420 H -0.11996 0.26581 0.71239
 H1421 H -0.08920 0.28356 0.72840
 H1422 H -0.05597 0.26488 0.73305
 H1423 H -0.06246 0.17590 0.70288
 H1424 H -0.03230 0.19313 0.71951
 C1425 C 0.31667 0.43851 0.29355
 C1426 C 0.30375 0.42267 0.30273
 C1427 C 0.28173 0.42485 0.30187
 C1428 C 0.27235 0.44174 0.29137
 C1429 C 0.28459 0.45706 0.28106
 C1430 C 0.30710 0.45556 0.28216
 C1431 C 0.33892 0.43819 0.29604
 C1432 C 0.35155 0.45355 0.28671
 C1433 C 0.34235 0.46967 0.27499
 C1434 C 0.32042 0.47082 0.27285
 H1435 H 0.34679 0.42644 0.30562
 H1436 H 0.36857 0.45302 0.28872
 H1437 H 0.35226 0.48156 0.26776
 H1438 H 0.31430 0.48390 0.26397
 H1439 H 0.27160 0.41299 0.30888
 H1440 H 0.25522 0.44247 0.29077
 C1441 C 0.31745 -0.05808 0.79485
 C1442 C 0.30512 -0.07469 0.80385
 C1443 C 0.28293 -0.07281 0.80341
 C1444 C 0.27297 -0.05644 0.79271
 C1445 C 0.28464 -0.04093 0.78223
 C1446 C 0.30710 -0.04117 0.78386
 C1447 C 0.33959 -0.05680 0.79803
 C1448 C 0.35138 -0.04034 0.78947
 C1449 C 0.34139 -0.02428 0.77833
 C1450 C 0.31949 -0.02439 0.77586
 H1451 H 0.34802 -0.06780 0.80796
 H1452 H 0.36832 -0.03974 0.79201
 H1453 H 0.35059 -0.01128 0.77213
 H1454 H 0.31251 -0.01075 0.76832
 H1455 H 0.27293 -0.08486 0.81026
 H1456 H 0.25582 -0.05638 0.79196
 C1457 C 0.81542 0.44106 0.79508
 C1458 C 0.80310 0.42462 0.80439
 C1459 C 0.78094 0.42685 0.80459
 C1460 C 0.77093 0.44337 0.79412
 C1461 C 0.78255 0.45869 0.78330
 C1462 C 0.80504 0.45813 0.78438
 C1463 C 0.83766 0.44201 0.79769
 C1464 C 0.84947 0.45829 0.78882
 C1465 C 0.83942 0.47451 0.77795
 C1466 C 0.81746 0.47474 0.77608
 H1467 H 0.84619 0.43091 0.80741
 H1468 H 0.86648 0.45863 0.79090
 H1469 H 0.84865 0.48737 0.77151
 H1470 H 0.81049 0.48851 0.76876
 H1471 H 0.77097 0.41495 0.81174
 H1472 H 0.75377 0.44367 0.79382
 C1473 C 0.81490 -0.05971 0.29513
 C1474 C 0.80253 -0.07602 0.30457
 C1475 C 0.78039 -0.07364 0.30494
 C1476 C 0.77042 -0.05716 0.29434
 C1477 C 0.78209 -0.04206 0.28324
 C1478 C 0.80458 -0.04268 0.28432
 C1479 C 0.83715 -0.05881 0.29772
 C1480 C 0.84901 -0.04263 0.28874
 C1481 C 0.83902 -0.02645 0.27779
 C1482 C 0.81706 -0.02616 0.27592
 H1483 H 0.84564 -0.06989 0.30751
 H1484 H 0.86602 -0.04235 0.29082
 H1485 H 0.84829 -0.01365 0.27127
 H1486 H 0.81014 -0.01241 0.26853
 H1487 H 0.77042 -0.08541 0.31230
 H1488 H 0.75326 -0.05670 0.29414
 C1489 C 0.31206 0.56581 0.70932
 C1490 C 0.29867 0.58216 0.70165
 C1491 C 0.27669 0.57982 0.70295
 C1492 C 0.26782 0.56220 0.71260
 C1493 C 0.28060 0.54635 0.72147
 C1494 C 0.30301 0.54792 0.71961
 C1495 C 0.33423 0.56645 0.70632
 C1496 C 0.34726 0.55035 0.71393
 C1497 C 0.33852 0.53316 0.72434
 C1498 C 0.31667 0.53182 0.72701
 H1499 H 0.34174 0.57904 0.69764
 H1500 H 0.36421 0.55111 0.71154
 H1501 H 0.34870 0.52063 0.73011
 H1502 H 0.31075 0.51791 0.73462
 H1503 H 0.26624 0.59204 0.69694
 H1504 H 0.25072 0.56127 0.71369
 C1505 C 0.31699 1.06015 0.20697
 C1506 C 0.30475 1.07762 0.19976
 C1507 C 0.28271 1.07724 0.20215
 C1508 C 0.27276 1.06050 0.21225
 C1509 C 0.28449 1.04355 0.22039
 C1510 C 0.30677 1.04300 0.21744
 C1511 C 0.33902 1.05892 0.20333
 C1512 C 0.35078 1.04156 0.21026
 C1513 C 0.34085 1.02492 0.22056
 C1514 C 0.31906 1.02545 0.22397
 H1515 H 0.34734 1.07104 0.19471
 H1516 H 0.36766 1.04089 0.20736
 H1517 H 0.35005 1.01136 0.22564
 H1518 H 0.31199 1.01179 0.23133
 H1519 H 0.27308 1.09034 0.19665
 H1520 H 0.25573 1.06111 0.21428
 C1521 C 0.77249 0.58632 0.20787
 C1522 C 0.79416 0.58511 0.20206
 C1523 C 0.80580 0.56679 0.20663
 C1524 C 0.79619 0.54940 0.21601
 C1525 C 0.77462 0.54979 0.22104
 C1526 C 0.76261 0.56848 0.21739
 C1527 C 0.76065 0.60516 0.20525
 C1528 C 0.73955 0.60632 0.21159
 C1529 C 0.72989 0.58893 0.22084
 C1530 C 0.74123 0.57022 0.22380
 H1531 H 0.76762 0.61930 0.19876
 H1532 H 0.73073 0.62090 0.20955
 H1533 H 0.71359 0.59002 0.22599
 H1534 H 0.73314 0.55743 0.23162
 H1535 H 0.82244 0.56580 0.20256
 H1536 H 0.80562 0.53537 0.21910
 C1537 C 0.81478 1.06015 0.70548
 C1538 C 0.80306 1.07821 0.69893
 C1539 C 0.78107 1.07865 0.70178
 C1540 C 0.77071 1.06212 0.71181
 C1541 C 0.78196 1.04457 0.71934
 C1542 C 0.80414 1.04317 0.71577
 C1543 C 0.83667 1.05817 0.70131
 C1544 C 0.84789 1.04018 0.70747
 C1545 C 0.83753 1.02363 0.71748
 C1546 C 0.81586 1.02494 0.72143
 H1547 H 0.84529 1.07019 0.69285
 H1548 H 0.86466 1.03892 0.70416
 H1549 H 0.84627 1.00956 0.72192
 H1550 H 0.80844 1.01131 0.72850
 H1551 H 0.77186 1.09220 0.69666
 H1552 H 0.75375 1.06332 0.71422
 C1553 C 0.71756 0.58210 0.29396
 C1554 C 0.69640 0.57903 0.30070
 C1555 C 0.68616 0.55996 0.29629
 C1556 C 0.69684 0.54355 0.28617
 C1557 C 0.71809 0.54575 0.28031
 C1558 C 0.72855 0.56530 0.28377
 C1559 C 0.72779 0.60179 0.29647
 C1560 C 0.74840 0.60478 0.28929
 C1561 C 0.75918 0.58838 0.27940
 C1562 C 0.74944 0.56885 0.27662
 H1563 H 0.71987 0.61518 0.30356
 H1564 H 0.75597 0.61999 0.29123
 H1565 H 0.77511 0.59085 0.27365
 H1566 H 0.75835 0.55685 0.26841
 H1567 H 0.66988 0.55761 0.30108
 H1568 H 0.68857 0.52887 0.28319
 C1569 C 0.70500 1.06152 0.81428
 C1570 C 0.69718 1.07881 0.80201
 C1571 C 0.69834 1.07738 0.78002
 C1572 C 0.70883 1.06075 0.77029
 C1573 C 0.71839 1.04463 0.78202
 C1574 C 0.71591 1.04445 0.80419
 C1575 C 0.70070 1.05979 0.83604
 C1576 C 0.70824 1.04273 0.84776
 C1577 C 0.71946 1.02655 0.83803
 C1578 C 0.72297 1.02713 0.81645
 H1579 H 0.69065 1.07095 0.84414
 H1580 H 0.70487 1.04179 0.86440
 H1581 H 0.72491 1.01313 0.84716
 H1582 H 0.73060 1.01349 0.80956
 H1583 H 0.69233 1.08992 0.77005
 H1584 H 0.71015 1.06092 0.75332
 C1585 C 0.20287 0.55846 0.81393
 C1586 C 0.19815 0.57715 0.80235
 C1587 C 0.20259 0.57771 0.78079
 C1588 C 0.21246 0.56075 0.77085
 C1589 C 0.21842 0.54266 0.78211
 C1590 C 0.21332 0.54118 0.80376
 C1591 C 0.19673 0.55613 0.83514
 C1592 C 0.20145 0.53770 0.84626
 C1593 C 0.21194 0.52105 0.83644
 C1594 C 0.21765 0.52260 0.81536
 H1595 H 0.18775 0.56818 0.84324
 H1596 H 0.19667 0.53622 0.86252
 H1597 H 0.21534 0.50669 0.84512
 H1598 H 0.22505 0.50893 0.80822
 H1599 H 0.19891 0.59168 0.77160
 H1600 H 0.21611 0.56205 0.75426
 C1601 C 0.22330 1.08501 0.29237
 C1602 C 0.20145 1.08337 0.29719
 C1603 C 0.19034 1.06519 0.29130
 C1604 C 0.20072 1.04820 0.28181
 C1605 C 0.22252 1.04894 0.27790
 C1606 C 0.23391 1.06771 0.28255
 C1607 C 0.23469 1.10378 0.29637
 C1608 C 0.25601 1.10542 0.29099
 C1609 C 0.26634 1.08861 0.28129
 C1610 C 0.25546 1.06998 0.27696
 H1611 H 0.22719 1.11753 0.30324
 H1612 H 0.26449 1.11994 0.29410
 H1613 H 0.28282 1.09009 0.27686
 H1614 H 0.26403 1.05769 0.26879
 H1615 H 0.17355 1.06390 0.29458
 H1616 H 0.19176 1.03414 0.27798
 C1617 C 0.72560 0.41487 0.70849
 C1618 C 0.70385 0.41588 0.70287
 C1619 C 0.69207 0.43405 0.70773
 C1620 C 0.70160 0.45146 0.71715
 C1621 C 0.72323 0.45129 0.72197
 C1622 C 0.73538 0.43275 0.71806
 C1623 C 0.73766 0.39620 0.70567
 C1624 C 0.75888 0.39530 0.71163
 C1625 C 0.76843 0.41273 0.72087
 C1626 C 0.75685 0.43122 0.72426
 H1627 H 0.73079 0.38195 0.69934
 H1628 H 0.76788 0.38087 0.70935
 H1629 H 0.78484 0.41184 0.72574
 H1630 H 0.76484 0.44402 0.73215
 H1631 H 0.67540 0.43494 0.70378
 H1632 H 0.69206 0.46537 0.72041
 C1633 C 0.68768 -0.06114 0.20551
 C1634 C 0.70005 -0.07899 0.19956
 C1635 C 0.72200 -0.07861 0.20261
 C1636 C 0.73169 -0.06151 0.21233
 C1637 C 0.71978 -0.04420 0.21939
 C1638 C 0.69763 -0.04361 0.21556
 C1639 C 0.66581 -0.05991 0.20095
 C1640 C 0.65394 -0.04217 0.20659
 C1641 C 0.66362 -0.02513 0.21644
 C1642 C 0.68526 -0.02567 0.22072
 H1643 H 0.65770 -0.07231 0.19256
 H1644 H 0.63720 -0.04149 0.20299
 H1645 H 0.65437 -0.01127 0.22048
 H1646 H 0.69215 -0.01170 0.22764
 H1647 H 0.73170 -0.09196 0.19791
 H1648 H 0.74865 -0.06209 0.21491
 C1649 C 0.22751 0.41585 0.20712
 C1650 C 0.20569 0.41695 0.20186
 C1651 C 0.19389 0.43492 0.20736
 C1652 C 0.20347 0.45209 0.21713
 C1653 C 0.22514 0.45180 0.22171
 C1654 C 0.23732 0.43342 0.21716
 C1655 C 0.23961 0.39736 0.20347
 C1656 C 0.26088 0.39631 0.20923
 C1657 C 0.27044 0.41343 0.21904
 C1658 C 0.25883 0.43175 0.22315
 H1659 H 0.23276 0.38336 0.19658
 H1660 H 0.26992 0.38202 0.20633
 H1661 H 0.28689 0.41241 0.22376
 H1662 H 0.26683 0.44428 0.23142
 H1663 H 0.17715 0.43580 0.20372
 H1664 H 0.19396 0.46589 0.22083
 C1665 C 0.22751 -0.08410 0.70589
 C1666 C 0.20562 -0.08300 0.70083
 C1667 C 0.19402 -0.06484 0.70609
 C1668 C 0.20380 -0.04757 0.71549
 C1669 C 0.22551 -0.04787 0.71993
 C1670 C 0.23755 -0.06638 0.71551
 C1671 C 0.23945 -0.10274 0.70251
 C1672 C 0.26078 -0.10380 0.70804
 C1673 C 0.27057 -0.08654 0.71738
 C1674 C 0.25912 -0.06807 0.72127
 H1675 H 0.23242 -0.11685 0.69604
 H1676 H 0.26969 -0.11820 0.70535
 H1677 H 0.28707 -0.08757 0.72191
 H1678 H 0.26731 -0.05544 0.72921
 H1679 H 0.17726 -0.06388 0.70257
 H1680 H 0.19435 -0.03370 0.71913
 C1681 C 0.29142 0.27519 0.41680
 C1682 C 0.29685 0.29691 0.41837
 C1683 C 0.29159 0.30815 0.43659
 C1684 C 0.28193 0.29810 0.45352
 C1685 C 0.27731 0.27647 0.45282
 C1686 C 0.28170 0.26485 0.43421
 C1687 C 0.29455 0.26372 0.39799
 C1688 C 0.28884 0.24251 0.39653
 C1689 C 0.27952 0.23238 0.41353
 C1690 C 0.27579 0.24340 0.43211
 H1691 H 0.30091 0.27104 0.38403
 H1692 H 0.29137 0.23396 0.38201
 H1693 H 0.27485 0.21597 0.41222
 H1694 H 0.26788 0.23497 0.44454
 H1695 H 0.29536 0.32480 0.43787
 H1696 H 0.27827 0.30726 0.46744
 C1697 C 0.27194 0.79388 -0.08493
 C1698 C 0.29371 0.79928 -0.08412
 C1699 C 0.30545 0.79471 -0.06602
 C1700 C 0.29589 0.78560 -0.04853
 C1701 C 0.27428 0.78074 -0.04859
 C1702 C 0.26214 0.78445 -0.06705
 C1703 C 0.25990 0.79674 -0.10344
 C1704 C 0.23872 0.79069 -0.10429
 C1705 C 0.22919 0.78139 -0.08692
 C1706 C 0.24073 0.77813 -0.06853
 H1707 H 0.26677 0.80321 -0.11759
 H1708 H 0.22975 0.79294 -0.11861
 H1709 H 0.21283 0.77643 -0.08778
 H1710 H 0.23273 0.77024 -0.05578
 H1711 H 0.32216 0.79851 -0.06532
 H1712 H 0.30544 0.78245 -0.03472
 C1713 C 0.77417 0.29347 -0.08270
 C1714 C 0.79554 0.30008 -0.08122
 C1715 C 0.80678 0.29665 -0.06256
 C1716 C 0.79702 0.28751 -0.04517
 C1717 C 0.77567 0.28170 -0.04585
 C1718 C 0.76406 0.28439 -0.06484
 C1719 C 0.76288 0.29481 -0.10185
 C1720 C 0.74207 0.28773 -0.10330
 C1721 C 0.73211 0.27909 -0.08585
 C1722 C 0.74291 0.27737 -0.06684
 H1723 H 0.77011 0.30081 -0.11601
 H1724 H 0.73370 0.28877 -0.11810
 H1725 H 0.71601 0.27341 -0.08711
 H1726 H 0.73456 0.27004 -0.05403
 H1727 H 0.82322 0.30134 -0.06136
 H1728 H 0.80618 0.28511 -0.03097
 C1729 C 0.79324 0.77588 0.41707
 C1730 C 0.79738 0.79791 0.41822
 C1731 C 0.79103 0.80925 0.43604
 C1732 C 0.78163 0.79904 0.45303
 C1733 C 0.77844 0.77713 0.45282
 C1734 C 0.78389 0.76537 0.43458
 C1735 C 0.79734 0.76421 0.39857
 C1736 C 0.79305 0.74266 0.39756
 C1737 C 0.78420 0.73236 0.41469
 C1738 C 0.77945 0.74353 0.43296
 H1739 H 0.80335 0.77159 0.38450
 H1740 H 0.79632 0.73395 0.38329
 H1741 H 0.78071 0.71570 0.41363
 H1742 H 0.77193 0.73492 0.44553
 H1743 H 0.79376 0.82614 0.43697
 H1744 H 0.77714 0.80828 0.46666
 C1745 C 0.72424 0.29020 0.58358
 C1746 C 0.70278 0.29677 0.58204
 C1747 C 0.69152 0.29295 0.56348
 C1748 C 0.70137 0.28367 0.54620
 C1749 C 0.72283 0.27813 0.54688
 C1750 C 0.73444 0.28105 0.56579
 C1751 C 0.73555 0.29169 0.60269
 C1752 C 0.75650 0.28483 0.60412
 C1753 C 0.76655 0.27619 0.58670
 C1754 C 0.75571 0.27424 0.56775
 H1755 H 0.72825 0.29762 0.61686
 H1756 H 0.76490 0.28601 0.61889
 H1757 H 0.78276 0.27067 0.58795
 H1758 H 0.76411 0.26687 0.55495
 H1759 H 0.67502 0.29757 0.56224
 H1760 H 0.69224 0.28112 0.53202
 C1761 C 0.70705 0.81716 1.06031
 C1762 C 0.69726 0.80437 1.07584
 C1763 C 0.69681 0.78244 1.07304
 C1764 C 0.70686 0.77299 1.05602
 C1765 C 0.71843 0.78496 1.04145
 C1766 C 0.71846 0.80745 1.04345
 C1767 C 0.70515 0.83945 1.06075
 C1768 C 0.71546 0.85198 1.04601
 C1769 C 0.72756 0.84264 1.03034
 C1770 C 0.72891 0.82069 1.02888
 H1771 H 0.69523 0.84745 1.07206
 H1772 H 0.71395 0.86903 1.04668
 H1773 H 0.73567 0.85247 1.01901
 H1774 H 0.73810 0.81456 1.01611
 H1775 H 0.68913 0.77236 1.08448
 H1776 H 0.70616 0.75594 1.05472
 C1777 C 0.20780 0.27595 1.08365
 C1778 C 0.20129 0.29737 1.08169
 C1779 C 0.20531 0.30834 1.06302
 C1780 C 0.21492 0.29829 1.04604
 C1781 C 0.22067 0.27692 1.04719
 C1782 C 0.21742 0.26557 1.06619
 C1783 C 0.20584 0.26487 1.10284
 C1784 C 0.21282 0.24401 1.10471
 C1785 C 0.22202 0.23381 1.08765
 C1786 C 0.22436 0.24440 1.06860
 H1787 H 0.19940 0.27228 1.11674
 H1788 H 0.21129 0.23579 1.11955
 H1789 H 0.22762 0.21769 1.08925
 H1790 H 0.23210 0.23591 1.05607
 H1791 H 0.20073 0.32481 1.06149
 H1792 H 0.21770 0.30722 1.03178
 C1793 C 0.20090 0.81412 0.55762
 C1794 C 0.19530 0.80242 0.57583
 C1795 C 0.19910 0.78059 0.57639
 C1796 C 0.20944 0.77046 0.55990
 C1797 C 0.21627 0.78183 0.54230
 C1798 C 0.21142 0.80371 0.54068
 C1799 C 0.19565 0.83576 0.55554
 C1800 C 0.20087 0.84694 0.53740
 C1801 C 0.21104 0.83677 0.52085
 C1802 C 0.21613 0.81535 0.52231
 H1803 H 0.18706 0.84417 0.56763
 H1804 H 0.19672 0.86351 0.53605
 H1805 H 0.21475 0.84546 0.50667
 H1806 H 0.22333 0.80800 0.50874
 H1807 H 0.19470 0.77139 0.59007
 H1808 H 0.21279 0.75368 0.56124
 C1809 C 0.31322 0.70936 0.56329
 C1810 C 0.30039 0.70244 0.58028
 C1811 C 0.27836 0.70463 0.57887
 C1812 C 0.26897 0.71429 0.56156
 C1813 C 0.28125 0.72234 0.54509
 C1814 C 0.30361 0.71970 0.54572
 C1815 C 0.33529 0.70550 0.56290
 C1816 C 0.34770 0.71246 0.54619
 C1817 C 0.33840 0.72293 0.52933
 C1818 C 0.31660 0.72633 0.52895
 H1819 H 0.34317 0.69662 0.57511
 H1820 H 0.36459 0.70946 0.54620
 H1821 H 0.34809 0.72813 0.51630
 H1822 H 0.31009 0.73383 0.51523
 H1823 H 0.26829 0.69925 0.59155
 H1824 H 0.25189 0.71601 0.56131
 C1825 C 0.29268 0.22290 1.08474
 C1826 C 0.29909 0.20143 1.08326
 C1827 C 0.29520 0.19016 1.06476
 C1828 C 0.28592 0.20002 1.04745
 C1829 C 0.28039 0.22148 1.04810
 C1830 C 0.28336 0.23307 1.06699
 C1831 C 0.29454 0.23426 1.10376
 C1832 C 0.28765 0.25517 1.10521
 C1833 C 0.27867 0.26515 1.08789
 C1834 C 0.27649 0.25429 1.06899
 H1835 H 0.30085 0.22702 1.11783
 H1836 H 0.28908 0.26361 1.11993
 H1837 H 0.27311 0.28132 1.08917
 H1838 H 0.26889 0.26263 1.05626
 H1839 H 0.29972 0.17365 1.06359
 H1840 H 0.28332 0.19090 1.03329
 C1841 C 0.77533 0.70914 1.08245
 C1842 C 0.79720 0.70391 1.08125
 C1843 C 0.80872 0.70939 1.06328
 C1844 C 0.79882 0.71901 1.04618
 C1845 C 0.77705 0.72331 1.04647
 C1846 C 0.76513 0.71873 1.06484
 C1847 C 0.76354 0.70590 1.10105
 C1848 C 0.74214 0.71128 1.10207
 C1849 C 0.73214 0.72038 1.08483
 C1850 C 0.74348 0.72428 1.06648
 H1851 H 0.77072 0.69972 1.11517
 H1852 H 0.73335 0.70864 1.11642
 H1853 H 0.71558 0.72477 1.08579
 H1854 H 0.73513 0.73201 1.05386
 H1855 H 0.82548 0.70580 1.06230
 H1856 H 0.80817 0.72277 1.03241
 C1857 C 0.77728 0.20677 0.58304
 C1858 C 0.79887 0.20068 0.58149
 C1859 C 0.81009 0.20486 0.56299
 C1860 C 0.80010 0.21414 0.54577
 C1861 C 0.77855 0.21936 0.54650
 C1862 C 0.76697 0.21602 0.56535
 C1863 C 0.76595 0.20470 0.60208
 C1864 C 0.74491 0.21123 0.60356
 C1865 C 0.73477 0.22008 0.58627
 C1866 C 0.74560 0.22251 0.56737
 H1867 H 0.77330 0.19853 0.61614
 H1868 H 0.73649 0.20963 0.61829
 H1869 H 0.71849 0.22535 0.58758
 H1870 H 0.73712 0.23000 0.55467
 H1871 H 0.82668 0.20060 0.56177
 H1872 H 0.80921 0.21702 0.53164
 C1873 C 0.72552 0.69121 0.42432
 C1874 C 0.70375 0.69553 0.42043
 C1875 C 0.69267 0.70858 0.43436
 C1876 C 0.70256 0.71736 0.45175
 C1877 C 0.72388 0.71302 0.45652
 C1878 C 0.73532 0.69871 0.44319
 C1879 C 0.73804 0.68017 0.40950
 C1880 C 0.75871 0.67415 0.41411
 C1881 C 0.76756 0.67939 0.43333
 C1882 C 0.75627 0.69179 0.44756
 H1883 H 0.73225 0.67646 0.39400
 H1884 H 0.76793 0.66538 0.40271
 H1885 H 0.78355 0.67438 0.43699
 H1886 H 0.76449 0.69525 0.46187
 H1887 H 0.67605 0.71206 0.43178
 H1888 H 0.69328 0.72781 0.46164
 C1889 C 0.72493 0.20960 -0.08448
 C1890 C 0.70354 0.20302 -0.08329
 C1891 C 0.69194 0.20649 -0.06489
 C1892 C 0.70140 0.21560 -0.04739
 C1893 C 0.72275 0.22139 -0.04779
 C1894 C 0.73469 0.21880 -0.06654
 C1895 C 0.73659 0.20806 -0.10337
 C1896 C 0.75741 0.21519 -0.10450
 C1897 C 0.76698 0.22413 -0.08698
 C1898 C 0.75581 0.22598 -0.06820
 H1899 H 0.72966 0.20180 -0.11757
 H1900 H 0.76609 0.21400 -0.11911
 H1901 H 0.78306 0.22990 -0.08801
 H1902 H 0.76382 0.23355 -0.05529
 H1903 H 0.67548 0.20179 -0.06397
 H1904 H 0.69203 0.21792 -0.03332
 C1905 C 0.18595 0.70578 -0.06166
 C1906 C 0.19878 0.69853 -0.07850
 C1907 C 0.22081 0.70008 -0.07697
 C1908 C 0.23024 0.70971 -0.05971
 C1909 C 0.21796 0.71794 -0.04327
 C1910 C 0.19562 0.71535 -0.04378
 C1911 C 0.16375 0.70310 -0.06189
 C1912 C 0.15136 0.70973 -0.04500
 C1913 C 0.16079 0.71876 -0.02744
 C1914 C 0.18268 0.72140 -0.02668
 H1915 H 0.15577 0.69552 -0.07485
 H1916 H 0.13437 0.70753 -0.04539
 H1917 H 0.15111 0.72350 -0.01422
 H1918 H 0.18926 0.72768 -0.01233
 H1919 H 0.23081 0.69442 -0.08962
 H1920 H 0.24731 0.71142 -0.05957
 C1921 C 0.18268 0.20923 0.43575
 C1922 C 0.19543 0.19843 0.42082
 C1923 C 0.21725 0.19683 0.42415
 C1924 C 0.22676 0.20667 0.44121
 C1925 C 0.21487 0.21862 0.45559
 C1926 C 0.19242 0.21948 0.45325
 C1927 C 0.16036 0.20937 0.43411
 C1928 C 0.14790 0.21969 0.44900
 C1929 C 0.15733 0.22973 0.46597
 C1930 C 0.17927 0.22952 0.46822
 H1931 H 0.15222 0.20110 0.42169
 H1932 H 0.13083 0.21963 0.44751
 H1933 H 0.14755 0.23747 0.47766
 H1934 H 0.18552 0.23690 0.48205
 H1935 H 0.22717 0.18838 0.41305
 H1936 H 0.24378 0.20535 0.44281
 C1937 C 0.31516 0.43728 0.70675
 C1938 C 0.30210 0.42149 0.69769
 C1939 C 0.28009 0.42388 0.69853
 C1940 C 0.27087 0.44092 0.70892
 C1941 C 0.28325 0.45617 0.71911
 C1942 C 0.30574 0.45449 0.71797
 C1943 C 0.33741 0.43675 0.70429
 C1944 C 0.35017 0.45206 0.71350
 C1945 C 0.34110 0.46838 0.72501
 C1946 C 0.31918 0.46975 0.72708
 H1947 H 0.34519 0.42488 0.69482
 H1948 H 0.36719 0.45135 0.71154
 H1949 H 0.35110 0.48026 0.73211
 H1950 H 0.31314 0.48301 0.73571
 H1951 H 0.26985 0.41208 0.69159
 H1952 H 0.25374 0.44180 0.70954
 C1953 C 0.30660 0.92086 0.22761
 C1954 C 0.30155 0.91668 0.20626
 C1955 C 0.28805 0.93056 0.19558
 C1956 C 0.27974 0.94836 0.20542
 C1957 C 0.28516 0.95364 0.22617
 C1958 C 0.29979 0.94021 0.23720
 C1959 C 0.31779 0.90590 0.23992
 C1960 C 0.32476 0.91085 0.26002
 C1961 C 0.32034 0.93056 0.26849
 C1962 C 0.30776 0.94495 0.25751
 H1963 H 0.32090 0.89006 0.23440
 H1964 H 0.33368 0.89935 0.26904
 H1965 H 0.32615 0.93451 0.28399
 H1966 H 0.30505 0.95965 0.26544
 H1967 H 0.28391 0.92772 0.17932
 H1968 H 0.26898 0.95825 0.19646
 C1969 C 0.81299 0.44056 0.20524
 C1970 C 0.80041 0.42356 0.19789
 C1971 C 0.77834 0.42495 0.19925
 C1972 C 0.76862 0.44223 0.20867
 C1973 C 0.78062 0.45882 0.21699
 C1974 C 0.80301 0.45841 0.21481
 C1975 C 0.83520 0.44056 0.20265
 C1976 C 0.84734 0.45754 0.20958
 C1977 C 0.83763 0.47499 0.21882
 C1978 C 0.81569 0.47560 0.22124
 H1979 H 0.84339 0.42771 0.19490
 H1980 H 0.86435 0.45731 0.20747
 H1981 H 0.84712 0.48827 0.22385
 H1982 H 0.80889 0.48989 0.22770
 H1983 H 0.76850 0.41216 0.19356
 H1984 H 0.75152 0.44227 0.21014
 C1985 C 0.77679 0.91749 0.70806
 C1986 C 0.79838 0.91907 0.70212
 C1987 C 0.80965 0.93750 0.70674
 C1988 C 0.79967 0.95471 0.71620
 C1989 C 0.77807 0.95406 0.72107
 C1990 C 0.76644 0.93523 0.71732
 C1991 C 0.76549 0.89837 0.70578
 C1992 C 0.74439 0.89690 0.71199
 C1993 C 0.73416 0.91431 0.72068
 C1994 C 0.74498 0.93327 0.72336
 H1995 H 0.77291 0.88420 0.69972
 H1996 H 0.73600 0.88211 0.71025
 H1997 H 0.71782 0.91304 0.72567
 H1998 H 0.73643 0.94605 0.73075
 H1999 H 0.82624 0.93874 0.70258
 H2000 H 0.80880 0.96883 0.71939
 C2001 C 0.72006 0.58284 0.70776
 C2002 C 0.69882 0.58054 0.70088
 C2003 C 0.68824 0.56146 0.70451
 C2004 C 0.69861 0.54437 0.71388
 C2005 C 0.71996 0.54577 0.71963
 C2006 C 0.73084 0.56523 0.71689
 C2007 C 0.73058 0.60251 0.70657
 C2008 C 0.75134 0.60466 0.71364
 C2009 C 0.76201 0.58741 0.72215
 C2010 C 0.75194 0.56792 0.72381
 H2011 H 0.72277 0.61657 0.70073
 H2012 H 0.75913 0.61986 0.71269
 H2013 H 0.77808 0.58920 0.72778
 H2014 H 0.76080 0.55526 0.73103
 H2015 H 0.67190 0.55963 0.69965
 H2016 H 0.69000 0.52979 0.71635
 C2017 C 0.72336 0.08373 0.20677
 C2018 C 0.70162 0.08238 0.20143
 C2019 C 0.69025 0.06413 0.20655
 C2020 C 0.70025 0.04688 0.21599
 C2021 C 0.72194 0.04737 0.22053
 C2022 C 0.73364 0.06609 0.21638
 C2023 C 0.73492 0.10256 0.20355
 C2024 C 0.75610 0.10396 0.20950
 C2025 C 0.76615 0.08680 0.21889
 C2026 C 0.75512 0.06807 0.22236
 H2027 H 0.72764 0.11653 0.19686
 H2028 H 0.76469 0.11854 0.20704
 H2029 H 0.78253 0.08806 0.22374
 H2030 H 0.76355 0.05550 0.23022
 H2031 H 0.67355 0.06306 0.20281
 H2032 H 0.69104 0.03289 0.21950
 C2033 C 0.20402 0.55925 0.18629
 C2034 C 0.19799 0.57729 0.19823
 C2035 C 0.20111 0.57715 0.22002
 C2036 C 0.21108 0.56020 0.22990
 C2037 C 0.21836 0.54280 0.21836
 C2038 C 0.21440 0.54191 0.19644
 C2039 C 0.19933 0.55767 0.16466
 C2040 C 0.20521 0.53982 0.15319
 C2041 C 0.21545 0.52301 0.16306
 C2042 C 0.21984 0.52387 0.18449
 H2043 H 0.19064 0.56988 0.15645
 H2044 H 0.20153 0.53889 0.13662
 H2045 H 0.21970 0.50907 0.15412
 H2046 H 0.22708 0.51008 0.19158
 H2047 H 0.19646 0.59064 0.22945
 H2048 H 0.21383 0.56105 0.24668
 C2049 C 0.22383 0.08369 0.70639
 C2050 C 0.20217 0.08215 0.70081
 C2051 C 0.19109 0.06351 0.70514
 C2052 C 0.20130 0.04613 0.71410
 C2053 C 0.22292 0.04684 0.71893
 C2054 C 0.23433 0.06592 0.71554
 C2055 C 0.23507 0.10282 0.70388
 C2056 C 0.25614 0.10442 0.71015
 C2057 C 0.26639 0.08716 0.71915
 C2058 C 0.25568 0.06813 0.72187
 H2059 H 0.22761 0.11685 0.69751
 H2060 H 0.26449 0.11922 0.70825
 H2061 H 0.28267 0.08857 0.72425
 H2062 H 0.26427 0.05548 0.72942
 H2063 H 0.17444 0.06230 0.70122
 H2064 H 0.19230 0.03189 0.71708
 C2065 C 0.31187 0.56682 0.29135
 C2066 C 0.29837 0.58322 0.29870
 C2067 C 0.27641 0.58078 0.29737
 C2068 C 0.26766 0.56304 0.28785
 C2069 C 0.28056 0.54719 0.27920
 C2070 C 0.30294 0.54881 0.28123
 C2071 C 0.33403 0.56751 0.29452
 C2072 C 0.34714 0.55138 0.28717
 C2073 C 0.33850 0.53407 0.27691
 C2074 C 0.31667 0.53264 0.27416
 H2075 H 0.34147 0.58016 0.30315
 H2076 H 0.36408 0.55220 0.28966
 H2077 H 0.34875 0.52150 0.27136
 H2078 H 0.31081 0.51859 0.26677
 H2079 H 0.26592 0.59303 0.30323
 H2080 H 0.25057 0.56201 0.28667
 C2081 C 0.27395 0.08582 0.79074
 C2082 C 0.29551 0.08505 0.79693
 C2083 C 0.30758 0.06691 0.79275
 C2084 C 0.29847 0.04928 0.78333
 C2085 C 0.27701 0.04927 0.77784
 C2086 C 0.26460 0.06779 0.78111
 C2087 C 0.26170 0.10444 0.79311
 C2088 C 0.24074 0.10523 0.78629
 C2089 C 0.23161 0.08768 0.77686
 C2090 C 0.24334 0.06916 0.77422
 H2091 H 0.26826 0.11868 0.79980
 H2092 H 0.23161 0.11964 0.78812
 H2093 H 0.21541 0.08847 0.77134
 H2094 H 0.23564 0.05623 0.76630
 H2095 H 0.32416 0.06630 0.79710
 H2096 H 0.30820 0.03541 0.78054
 C2097 C 0.77335 0.58584 0.79052
 C2098 C 0.79505 0.58488 0.79627
 C2099 C 0.80679 0.56656 0.79197
 C2100 C 0.79725 0.54894 0.78294
 C2101 C 0.77563 0.54906 0.77806
 C2102 C 0.76351 0.56774 0.78146
 C2103 C 0.76142 0.60468 0.79273
 C2104 C 0.74028 0.60560 0.78650
 C2105 C 0.73064 0.58794 0.77779
 C2106 C 0.74205 0.56922 0.77522
 H2107 H 0.76837 0.61902 0.79877
 H2108 H 0.73141 0.62018 0.78821
 H2109 H 0.71429 0.58882 0.77274
 H2110 H 0.73395 0.55623 0.76780
 H2111 H 0.82344 0.56574 0.79600
 H2112 H 0.80677 0.53495 0.78004
 C2113 C 0.77649 0.08541 0.29001
 C2114 C 0.79810 0.08404 0.29594
 C2115 C 0.80954 0.06549 0.29177
 C2116 C 0.79971 0.04800 0.28281
 C2117 C 0.77811 0.04852 0.27786
 C2118 C 0.76635 0.06748 0.28100
 C2119 C 0.76494 0.10450 0.29206
 C2120 C 0.74386 0.10582 0.28571
 C2121 C 0.73391 0.08832 0.27704
 C2122 C 0.74497 0.06936 0.27462
 H2123 H 0.77214 0.11874 0.29808
 H2124 H 0.73526 0.12058 0.28732
 H2125 H 0.71761 0.08949 0.27190
 H2126 H 0.73664 0.05650 0.26727
 H2127 H 0.82615 0.06439 0.29594
 H2128 H 0.80895 0.03379 0.28006
 C2129 C 0.72571 0.41541 0.29041
 C2130 C 0.70409 0.41626 0.29649
 C2131 C 0.69213 0.43445 0.29217
 C2132 C 0.70137 0.45205 0.28283
 C2133 C 0.72288 0.45202 0.27756
 C2134 C 0.73520 0.43347 0.28089
 C2135 C 0.73789 0.39675 0.29274
 C2136 C 0.75895 0.39600 0.28624
 C2137 C 0.76822 0.41361 0.27700
 C2138 C 0.75650 0.43212 0.27417
 H2139 H 0.73121 0.38241 0.29911
 H2140 H 0.76805 0.38157 0.28811
 H2141 H 0.78450 0.41284 0.27172
 H2142 H 0.76426 0.44509 0.26632
 H2143 H 0.67554 0.43520 0.29648
 H2144 H 0.69172 0.46598 0.27999
 C2145 C 0.72179 0.91661 0.78941
 C2146 C 0.70061 0.91884 0.79658
 C2147 C 0.69001 0.93814 0.79377
 C2148 C 0.70027 0.95543 0.78488
 C2149 C 0.72154 0.95403 0.77889
 C2150 C 0.73251 0.93448 0.78095
 C2151 C 0.73232 0.89682 0.78965
 C2152 C 0.75309 0.89486 0.78249
 C2153 C 0.76375 0.91242 0.77481
 C2154 C 0.75364 0.93202 0.77399
 H2155 H 0.72451 0.88255 0.79477
 H2156 H 0.76089 0.87958 0.78273
 H2157 H 0.77983 0.91079 0.76911
 H2158 H 0.76246 0.94498 0.76739
 H2159 H 0.67376 0.94000 0.79893
 H2160 H 0.69166 0.97017 0.78303
 C2161 C 0.22585 0.41422 0.79075
 C2162 C 0.20430 0.41552 0.79698
 C2163 C 0.19268 0.43394 0.79260
 C2164 C 0.20225 0.45134 0.78314
 C2165 C 0.22374 0.45087 0.77782
 C2166 C 0.23567 0.43206 0.78115
 C2167 C 0.23766 0.39532 0.79304
 C2168 C 0.25869 0.39414 0.78648
 C2169 C 0.26829 0.41156 0.77721
 C2170 C 0.25694 0.43029 0.77441
 H2171 H 0.23073 0.38111 0.79943
 H2172 H 0.26750 0.37953 0.78833
 H2173 H 0.28454 0.41046 0.77190
 H2174 H 0.26493 0.44311 0.76655
 H2175 H 0.17614 0.43503 0.79700
 H2176 H 0.19289 0.46547 0.78034
 C2177 C 0.22315 0.91848 0.29619
 C2178 C 0.20113 0.92020 0.30037
 C2179 C 0.19021 0.93855 0.29435
 C2180 C 0.20084 0.95548 0.28514
 C2181 C 0.22276 0.95467 0.28182
 C2182 C 0.23410 0.93591 0.28704
 C2183 C 0.23438 0.89947 0.30005
 C2184 C 0.25592 0.89786 0.29572
 C2185 C 0.26665 0.91489 0.28708
 C2186 C 0.25592 0.93366 0.28255
 H2187 H 0.22664 0.88547 0.30594
 H2188 H 0.26429 0.88320 0.29882
 H2189 H 0.28332 0.91339 0.28359
 H2190 H 0.26490 0.94611 0.27522
 H2191 H 0.17334 0.93993 0.29715
 H2192 H 0.19191 0.96950 0.28081
 C2193 C 0.41520 0.27440 0.70648
 C2194 C 0.41632 0.29610 0.70092
 C2195 C 0.43446 0.30772 0.70593
 C2196 C 0.45182 0.29800 0.71545
 C2197 C 0.45152 0.27640 0.72023
 C2198 C 0.43295 0.26446 0.71624
 C2199 C 0.39654 0.26254 0.70331
 C2200 C 0.39549 0.24137 0.70936
 C2201 C 0.41278 0.23168 0.71892
 C2202 C 0.43129 0.24305 0.72248
 H2203 H 0.38245 0.26952 0.69657
 H2204 H 0.38106 0.23253 0.70688
 H2205 H 0.41177 0.21532 0.72385
 H2206 H 0.44401 0.23495 0.73051
 H2207 H 0.43534 0.32438 0.70204
 H2208 H 0.46578 0.30734 0.71875
 C2209 C 0.44368 0.81481 0.19986
 C2210 C 0.42586 0.80321 0.19269
 C2211 C 0.42506 0.78136 0.19620
 C2212 C 0.44089 0.77109 0.20753
 C2213 C 0.45803 0.78232 0.21582
 C2214 C 0.45987 0.80429 0.21159
 C2215 C 0.44616 0.83648 0.19503
 C2216 C 0.46380 0.84763 0.20201
 C2217 C 0.47953 0.83741 0.21350
 C2218 C 0.47778 0.81593 0.21808
 H2219 H 0.43484 0.84493 0.18542
 H2220 H 0.46543 0.86424 0.19821
 H2221 H 0.49333 0.84611 0.21862
 H2222 H 0.49083 0.80859 0.22633
 H2223 H 0.41167 0.77222 0.19075
 H2224 H 0.43941 0.75426 0.21037
 C2225 C 0.93344 0.31587 0.20875
 C2226 C 0.91754 0.30263 0.20016
 C2227 C 0.92014 0.28065 0.20108
 C2228 C 0.93753 0.27165 0.21112
 C2229 C 0.95279 0.28423 0.22102
 C2230 C 0.95086 0.30668 0.21985
 C2231 C 0.93281 0.33805 0.20595
 C2232 C 0.94807 0.35100 0.21499
 C2233 C 0.96449 0.34217 0.22660
 C2234 C 0.96606 0.32030 0.22883
 H2235 H 0.92090 0.34564 0.19635
 H2236 H 0.94724 0.36798 0.21286
 H2237 H 0.97627 0.35231 0.23367
 H2238 H 0.97939 0.31445 0.23754
 H2239 H 0.90828 0.27027 0.19447
 H2240 H 0.93870 0.25455 0.21171
 C2241 C 0.91598 0.77636 0.70677
 C2242 C 0.91736 0.79796 0.70082
 C2243 C 0.93552 0.80949 0.70598
 C2244 C 0.95263 0.79983 0.71602
 C2245 C 0.95210 0.77832 0.72116
 C2246 C 0.93352 0.76645 0.71699
 C2247 C 0.89726 0.76459 0.70362
 C2248 C 0.89599 0.74352 0.70997
 C2249 C 0.91309 0.73384 0.71986
 C2250 C 0.93162 0.74515 0.72351
 H2251 H 0.88326 0.77156 0.69671
 H2252 H 0.88152 0.73475 0.70745
 H2253 H 0.91190 0.71756 0.72501
 H2254 H 0.94418 0.73709 0.73185
 H2255 H 0.93663 0.82608 0.70185
 H2256 H 0.96657 0.80914 0.71944
 C2257 C 0.56038 0.29490 0.31630
 C2258 C 0.57705 0.30402 0.30440
 C2259 C 0.57565 0.30416 0.28246
 C2260 C 0.55893 0.29439 0.27219
 C2261 C 0.54307 0.28388 0.28342
 C2262 C 0.54325 0.28470 0.30574
 C2263 C 0.55987 0.29639 0.33843
 C2264 C 0.54328 0.28765 0.34992
 C2265 C 0.52663 0.27773 0.33965
 C2266 C 0.52641 0.27645 0.31780
 H2267 H 0.57189 0.30478 0.34710
 H2268 H 0.54315 0.28892 0.36687
 H2269 H 0.51360 0.27132 0.34865
 H2270 H 0.51262 0.26947 0.31061
 H2271 H 0.58801 0.31132 0.27307
 H2272 H 0.55880 0.29453 0.25520
 C2273 C 0.57725 0.80605 0.77419
 C2274 C 0.57802 0.80596 0.79650
 C2275 C 0.56212 0.79563 0.80778
 C2276 C 0.54543 0.78574 0.79753
 C2277 C 0.54379 0.78602 0.77558
 C2278 C 0.55976 0.79648 0.76359
 C2279 C 0.59402 0.81447 0.76211
 C2280 C 0.59312 0.81472 0.74028
 C2281 C 0.57586 0.80612 0.72995
 C2282 C 0.55951 0.79684 0.74133
 H2283 H 0.60830 0.82044 0.76922
 H2284 H 0.60606 0.82136 0.73131
 H2285 H 0.57536 0.80614 0.71295
 H2286 H 0.54726 0.78955 0.73215
 H2287 H 0.56257 0.79523 0.82479
 H2288 H 0.53358 0.77779 0.80694
 C2289 C 0.06034 0.29538 0.81532
 C2290 C 0.07821 0.30187 0.80341
 C2291 C 0.07814 0.29907 0.78160
 C2292 C 0.06132 0.28915 0.77160
 C2293 C 0.04398 0.28162 0.78305
 C2294 C 0.04311 0.28509 0.80506
 C2295 C 0.05877 0.29962 0.83705
 C2296 C 0.04104 0.29339 0.84849
 C2297 C 0.02432 0.28328 0.83851
 C2298 C 0.02516 0.27933 0.81699
 H2299 H 0.07090 0.30820 0.84538
 H2300 H 0.04012 0.29672 0.86514
 H2301 H 0.01046 0.27876 0.84743
 H2302 H 0.01142 0.27218 0.80987
 H2303 H 0.09154 0.30410 0.77224
 H2304 H 0.06212 0.28682 0.75475
 C2305 C 0.05867 0.79766 0.31298
 C2306 C 0.07657 0.80380 0.30093
 C2307 C 0.07639 0.80066 0.27916
 C2308 C 0.05955 0.79047 0.26940
 C2309 C 0.04230 0.78303 0.28107
 C2310 C 0.04143 0.78712 0.30298
 C2311 C 0.05713 0.80242 0.33460
 C2312 C 0.03941 0.79648 0.34620
 C2313 C 0.02268 0.78613 0.33649
 C2314 C 0.02350 0.78166 0.31508
 H2315 H 0.06926 0.81122 0.34270
 H2316 H 0.03851 0.80022 0.36277
 H2317 H 0.00883 0.78184 0.34553
 H2318 H 0.00973 0.77437 0.30813
 H2319 H 0.08978 0.80547 0.26968
 H2320 H 0.06036 0.78769 0.25263
 C2321 C 0.58275 0.71682 0.71116
 C2322 C 0.57745 0.69932 0.69832
 C2323 C 0.55631 0.69293 0.69672
 C2324 C 0.54033 0.70387 0.70727
 C2325 C 0.54512 0.72137 0.71982
 C2326 C 0.56645 0.72778 0.72216
 C2327 C 0.60394 0.72344 0.71361
 C2328 C 0.60892 0.74042 0.72666
 C2329 C 0.59300 0.75093 0.73765
 C2330 C 0.57197 0.74466 0.73552
 H2331 H 0.61684 0.71548 0.70566
 H2332 H 0.62523 0.74532 0.72842
 H2333 H 0.59698 0.76394 0.74794
 H2334 H 0.56010 0.75291 0.74458
 H2335 H 0.55215 0.67947 0.68705
 H2336 H 0.52408 0.69868 0.70562
 C2337 C 0.58560 0.22706 0.20749
 C2338 C 0.58409 0.20555 0.20122
 C2339 C 0.56543 0.19437 0.20531
 C2340 C 0.54814 0.20420 0.21479
 C2341 C 0.54883 0.22562 0.22024
 C2342 C 0.56770 0.23726 0.21676
 C2343 C 0.60475 0.23844 0.20569
 C2344 C 0.60602 0.25949 0.21203
 C2345 C 0.58845 0.26955 0.22064
 C2346 C 0.56954 0.25857 0.22317
 H2347 H 0.61911 0.23116 0.19996
 H2348 H 0.62080 0.26796 0.21051
 H2349 H 0.58958 0.28585 0.22570
 H2350 H 0.55659 0.26691 0.23048
 H2351 H 0.56413 0.17787 0.20089
 H2352 H 0.53397 0.19505 0.21769
 C2353 C 0.06344 0.68659 0.20808
 C2354 C 0.08029 0.69933 0.20060
 C2355 C 0.07889 0.72135 0.20255
 C2356 C 0.06172 0.73082 0.21255
 C2357 C 0.04540 0.71864 0.22119
 C2358 C 0.04604 0.69626 0.21878
 C2359 C 0.06305 0.66454 0.20447
 C2360 C 0.04649 0.65216 0.21197
 C2361 C 0.02984 0.66148 0.22284
 C2362 C 0.02945 0.68328 0.22603
 H2363 H 0.07516 0.65665 0.19538
 H2364 H 0.04647 0.63528 0.20912
 H2365 H 0.01698 0.65179 0.22855
 H2366 H 0.01589 0.68975 0.23393
 H2367 H 0.09150 0.73133 0.19672
 H2368 H 0.06146 0.74790 0.21406
 C2369 C 0.05914 0.18863 0.70349
 C2370 C 0.07794 0.20011 0.69910
 C2371 C 0.07871 0.22175 0.70382
 C2372 C 0.06183 0.23185 0.71369
 C2373 C 0.04367 0.22062 0.71936
 C2374 C 0.04195 0.19894 0.71392
 C2375 C 0.05664 0.16739 0.69708
 C2376 C 0.03809 0.15638 0.70149
 C2377 C 0.02148 0.16634 0.71192
 C2378 C 0.02322 0.18746 0.71791
 H2379 H 0.06865 0.15920 0.68814
 H2380 H 0.03647 0.14009 0.69652
 H2381 H 0.00701 0.15778 0.71506
 H2382 H 0.00959 0.19472 0.72526
 H2383 H 0.09279 0.23086 0.70038
 H2384 H 0.06327 0.24847 0.71758
 C2385 C 0.43629 0.70839 0.31137
 C2386 C 0.41893 0.70197 0.29875
 C2387 C 0.42036 0.70366 0.27687
 C2388 C 0.43802 0.71265 0.26741
 C2389 C 0.45488 0.72022 0.27951
 C2390 C 0.45445 0.71754 0.30166
 C2391 C 0.43636 0.70522 0.33334
 C2392 C 0.45371 0.71118 0.34548
 C2393 C 0.47144 0.72002 0.33602
 C2394 C 0.47197 0.72304 0.31434
 H2395 H 0.42331 0.69770 0.34133
 H2396 H 0.45352 0.70862 0.36229
 H2397 H 0.48499 0.72429 0.34550
 H2398 H 0.48642 0.72920 0.30767
 H2399 H 0.40737 0.69857 0.26701
 H2400 H 0.43818 0.71438 0.25048
 C2401 C 0.43712 0.18494 0.78982
 C2402 C 0.42118 0.19815 0.79858
 C2403 C 0.42360 0.22010 0.79780
 C2404 C 0.44090 0.22916 0.78782
 C2405 C 0.45640 0.21665 0.77801
 C2406 C 0.45463 0.19421 0.77902
 C2407 C 0.43647 0.16271 0.79219
 C2408 C 0.45199 0.14984 0.78329
 C2409 C 0.46863 0.15878 0.77219
 C2410 C 0.47010 0.18067 0.77022
 H2411 H 0.42434 0.15502 0.80134
 H2412 H 0.45118 0.13284 0.78517
 H2413 H 0.48067 0.14869 0.76534
 H2414 H 0.48359 0.18664 0.76192
 H2415 H 0.41167 0.23044 0.80453
 H2416 H 0.44183 0.24626 0.78724
 C2417 C 0.93965 0.68555 0.79318
 C2418 C 0.92193 0.69777 0.79984
 C2419 C 0.92224 0.71974 0.79716
 C2420 C 0.93923 0.72966 0.78744
 C2421 C 0.95660 0.71800 0.78005
 C2422 C 0.95712 0.69575 0.78317
 C2423 C 0.94082 0.66356 0.79699
 C2424 C 0.95843 0.65183 0.79068
 C2425 C 0.97540 0.66174 0.78090
 C2426 C 0.97493 0.68349 0.77735
 H2427 H 0.92847 0.65524 0.80525
 H2428 H 0.95906 0.63498 0.79369
 H2429 H 0.98916 0.65257 0.77634
 H2430 H 0.98886 0.69052 0.77046
 H2431 H 0.90895 0.72934 0.80226
 H2432 H 0.93856 0.74665 0.78524
 C2433 C 0.94051 0.18786 0.29387
 C2434 C 0.92270 0.19969 0.30092
 C2435 C 0.92280 0.22175 0.29896
 C2436 C 0.93958 0.23213 0.28937
 C2437 C 0.95687 0.22082 0.28133
 C2438 C 0.95773 0.19852 0.28395
 C2439 C 0.94202 0.16580 0.29717
 C2440 C 0.95972 0.15445 0.29043
 C2441 C 0.97645 0.16482 0.28072
 C2442 C 0.97565 0.18665 0.27767
 H2443 H 0.92987 0.15713 0.30538
 H2444 H 0.96060 0.13755 0.29304
 H2445 H 0.99029 0.15595 0.27581
 H2446 H 0.98940 0.19405 0.27081
 H2447 H 0.90945 0.23106 0.30441
 H2448 H 0.93874 0.24917 0.28763
 C2449 C 0.29189 0.27515 0.58219
 C2450 C 0.29710 0.29694 0.58071
 C2451 C 0.29168 0.30822 0.56254
 C2452 C 0.28204 0.29819 0.54559
 C2453 C 0.27761 0.27651 0.54621
 C2454 C 0.28221 0.26482 0.56477
 C2455 C 0.29521 0.26358 0.60094
 C2456 C 0.28973 0.24230 0.60233
 C2457 C 0.28046 0.23219 0.58531
 C2458 C 0.27654 0.24329 0.56680
 H2459 H 0.30154 0.27087 0.61492
 H2460 H 0.29241 0.23369 0.61680
 H2461 H 0.27598 0.21573 0.58656
 H2462 H 0.26868 0.23484 0.55437
 H2463 H 0.29528 0.32492 0.56133
 H2464 H 0.27824 0.30740 0.53172
 C2465 C 0.27402 0.79193 0.08355
 C2466 C 0.29528 0.79898 0.08226
 C2467 C 0.30640 0.79661 0.06336
 C2468 C 0.29667 0.78809 0.04565
 C2469 C 0.27540 0.78197 0.04616
 C2470 C 0.26386 0.78372 0.06529
 C2471 C 0.26291 0.79189 0.10284
 C2472 C 0.24217 0.78456 0.10403
 C2473 C 0.23210 0.77701 0.08617
 C2474 C 0.24275 0.77654 0.06702
 H2475 H 0.27024 0.79695 0.11731
 H2476 H 0.23394 0.78455 0.11894
 H2477 H 0.21604 0.77117 0.08720
 H2478 H 0.23431 0.77003 0.05385
 H2479 H 0.32275 0.80163 0.06224
 H2480 H 0.30579 0.78640 0.03133
 C2481 C 0.77227 0.29384 0.08396
 C2482 C 0.79402 0.29925 0.08289
 C2483 C 0.80572 0.29434 0.06488
 C2484 C 0.79611 0.28480 0.04769
 C2485 C 0.77453 0.27986 0.04802
 C2486 C 0.76244 0.28395 0.06640
 C2487 C 0.76027 0.29722 0.10241
 C2488 C 0.73910 0.29119 0.10347
 C2489 C 0.72954 0.28138 0.08642
 C2490 C 0.74105 0.27761 0.06812
 H2491 H 0.76714 0.30413 0.11633
 H2492 H 0.73014 0.29386 0.11773
 H2493 H 0.71319 0.27641 0.08746
 H2494 H 0.73304 0.26931 0.05565
 H2495 H 0.82241 0.29819 0.06404
 H2496 H 0.80558 0.28142 0.03389
 C2497 C 0.77513 0.79499 0.58223
 C2498 C 0.79659 0.80138 0.58059
 C2499 C 0.80773 0.79753 0.56197
 C2500 C 0.79790 0.78800 0.54486
 C2501 C 0.77655 0.78217 0.54575
 C2502 C 0.76495 0.78547 0.56462
 C2503 C 0.76384 0.79689 0.60131
 C2504 C 0.74298 0.78998 0.60293
 C2505 C 0.73298 0.78089 0.58573
 C2506 C 0.74378 0.77859 0.56679
 H2507 H 0.77108 0.80323 0.61532
 H2508 H 0.73459 0.79146 0.61768
 H2509 H 0.71685 0.77533 0.58714
 H2510 H 0.73542 0.77093 0.55416
 H2511 H 0.82420 0.80207 0.56063
 H2512 H 0.80705 0.78514 0.53075
 C2513 C 0.31426 0.71282 0.43452
 C2514 C 0.30124 0.70271 0.41941
 C2515 C 0.27943 0.70153 0.42285
 C2516 C 0.27019 0.71106 0.44026
 C2517 C 0.28237 0.72228 0.45491
 C2518 C 0.30479 0.72296 0.45227
 C2519 C 0.33658 0.71240 0.43277
 C2520 C 0.34928 0.72231 0.44764
 C2521 C 0.34013 0.73256 0.46466
 C2522 C 0.31820 0.73280 0.46709
 H2523 H 0.34451 0.70400 0.42026
 H2524 H 0.36635 0.72185 0.44605
 H2525 H 0.35009 0.74013 0.47624
 H2526 H 0.31219 0.74052 0.48086
 H2527 H 0.26929 0.69365 0.41160
 H2528 H 0.25314 0.71019 0.44192
 C2529 C 0.31587 0.20594 0.93988
 C2530 C 0.30366 0.19970 0.92219
 C2531 C 0.28167 0.20265 0.92253
 C2532 C 0.27177 0.21232 0.93949
 C2533 C 0.28347 0.21948 0.95673
 C2534 C 0.30569 0.21602 0.95726
 C2535 C 0.33781 0.20164 0.94112
 C2536 C 0.34953 0.20764 0.95867
 C2537 C 0.33964 0.21757 0.97551
 C2538 C 0.31792 0.22155 0.97500
 H2539 H 0.34609 0.19319 0.92887
 H2540 H 0.36633 0.20426 0.95933
 H2541 H 0.34879 0.22192 0.98921
 H2542 H 0.31088 0.22856 0.98881
 H2543 H 0.27206 0.19786 0.90928
 H2544 H 0.25477 0.21472 0.93890
 C2545 C 0.81419 0.70497 0.93997
 C2546 C 0.80230 0.69907 0.92197
 C2547 C 0.78034 0.70235 0.92187
 C2548 C 0.77022 0.71222 0.93863
 C2549 C 0.78169 0.71925 0.95607
 C2550 C 0.80381 0.71524 0.95713
 C2551 C 0.83600 0.70021 0.94173
 C2552 C 0.84741 0.70590 0.95958
 C2553 C 0.83732 0.71601 0.97621
 C2554 C 0.81572 0.72048 0.97517
 H2555 H 0.84439 0.69161 0.92965
 H2556 H 0.86411 0.70215 0.96065
 H2557 H 0.84622 0.72012 0.99014
 H2558 H 0.80847 0.72759 0.98883
 H2559 H 0.77095 0.69777 0.90839
 H2560 H 0.75331 0.71503 0.93764
 C2561 C 0.81436 0.20336 0.43987
 C2562 C 0.80249 0.19772 0.42178
 C2563 C 0.78053 0.20098 0.42166
 C2564 C 0.77038 0.21066 0.43851
 C2565 C 0.78184 0.21746 0.45605
 C2566 C 0.80395 0.21337 0.45713
 C2567 C 0.83616 0.19857 0.44159
 C2568 C 0.84754 0.20396 0.45955
 C2569 C 0.83741 0.21379 0.47632
 C2570 C 0.81582 0.21829 0.47530
 H2571 H 0.84458 0.19019 0.42939
 H2572 H 0.86424 0.20019 0.46059
 H2573 H 0.84628 0.21765 0.49035
 H2574 H 0.80855 0.22519 0.48905
 H2575 H 0.77119 0.19655 0.40810
 H2576 H 0.75347 0.21348 0.43754
 C2577 C 0.70480 0.31304 0.44014
 C2578 C 0.69932 0.30122 0.42198
 C2579 C 0.70320 0.27940 0.42162
 C2580 C 0.71320 0.26935 0.43834
 C2581 C 0.71977 0.28077 0.45597
 C2582 C 0.71524 0.30274 0.45725
 C2583 C 0.69943 0.33467 0.44210
 C2584 C 0.70470 0.34598 0.46012
 C2585 C 0.71502 0.33598 0.47670
 C2586 C 0.72009 0.31454 0.47545
 H2587 H 0.69068 0.34296 0.43005
 H2588 H 0.70048 0.36255 0.46136
 H2589 H 0.71881 0.34480 0.49076
 H2590 H 0.72740 0.30733 0.48904
 H2591 H 0.69895 0.27008 0.40799
 H2592 H 0.71636 0.25252 0.43725
 C2593 C 0.70557 0.81359 0.93503
 C2594 C 0.69844 0.80076 0.91817
 C2595 C 0.70102 0.77881 0.91934
 C2596 C 0.71140 0.76950 0.93630
 C2597 C 0.71974 0.78183 0.95260
 C2598 C 0.71661 0.80411 0.95220
 C2599 C 0.70128 0.83557 0.93560
 C2600 C 0.70850 0.84804 0.95211
 C2601 C 0.71965 0.83889 0.96860
 C2602 C 0.72346 0.81717 0.96881
 H2603 H 0.69189 0.84332 0.92367
 H2604 H 0.70519 0.86485 0.95224
 H2605 H 0.72509 0.84862 0.98146
 H2606 H 0.73152 0.81080 0.98225
 H2607 H 0.69546 0.76879 0.90671
 H2608 H 0.71342 0.75247 0.93642
 C2609 C 0.20512 0.31247 0.94072
 C2610 C 0.19946 0.30052 0.92271
 C2611 C 0.20276 0.27860 0.92271
 C2612 C 0.21252 0.26856 0.93961
 C2613 C 0.21930 0.28010 0.95709
 C2614 C 0.21512 0.30217 0.95807
 C2615 C 0.20036 0.33427 0.94224
 C2616 C 0.20564 0.34571 0.96018
 C2617 C 0.21538 0.33568 0.97708
 C2618 C 0.21993 0.31411 0.97619
 H2619 H 0.19210 0.34262 0.92989
 H2620 H 0.20187 0.36241 0.96110
 H2621 H 0.21914 0.34459 0.99109
 H2622 H 0.22677 0.30692 0.99004
 H2623 H 0.19828 0.26921 0.90920
 H2624 H 0.21540 0.25167 0.93871
 C2625 C 0.18501 0.79528 0.43957
 C2626 C 0.19681 0.80201 0.42179
 C2627 C 0.21884 0.79939 0.42171
 C2628 C 0.22918 0.78947 0.43832
 C2629 C 0.21787 0.78178 0.45560
 C2630 C 0.19564 0.78507 0.45662
 C2631 C 0.16303 0.79923 0.44122
 C2632 C 0.15174 0.79290 0.45893
 C2633 C 0.16208 0.78294 0.47551
 C2634 C 0.18383 0.77922 0.47455
 H2635 H 0.15441 0.80765 0.42916
 H2636 H 0.13490 0.79603 0.45992
 H2637 H 0.15326 0.77835 0.48935
 H2638 H 0.19123 0.77216 0.48817
 H2639 H 0.22812 0.80465 0.40840
 H2640 H 0.24620 0.78731 0.43743
 C2641 C 0.72273 0.70955 0.58527
 C2642 C 0.70158 0.70239 0.58303
 C2643 C 0.69090 0.70566 0.56403
 C2644 C 0.70109 0.71494 0.54697
 C2645 C 0.72230 0.72113 0.54836
 C2646 C 0.73322 0.71892 0.56777
 C2647 C 0.73340 0.70840 0.60475
 C2648 C 0.75395 0.71604 0.60691
 C2649 C 0.76423 0.72511 0.58984
 C2650 C 0.75405 0.72660 0.57048
 H2651 H 0.72586 0.70209 0.61863
 H2652 H 0.76186 0.71515 0.62197
 H2653 H 0.78009 0.73126 0.59167
 H2654 H 0.76254 0.73432 0.55795
 H2655 H 0.67464 0.70056 0.56224
 H2656 H 0.69243 0.71694 0.53240
 C2657 C 0.68562 0.20354 0.05967
 C2658 C 0.69816 0.19601 0.07660
 C2659 C 0.72022 0.19745 0.07546
 C2660 C 0.72995 0.20741 0.05854
 C2661 C 0.71794 0.21607 0.04212
 C2662 C 0.69559 0.21344 0.04215
 C2663 C 0.66342 0.20086 0.05947
 C2664 C 0.65132 0.20779 0.04248
 C2665 C 0.66106 0.21714 0.02524
 C2666 C 0.68296 0.21980 0.02491
 H2667 H 0.65523 0.19304 0.07218
 H2668 H 0.63433 0.20559 0.04254
 H2669 H 0.65162 0.22212 0.01192
 H2670 H 0.68980 0.22635 0.01079
 H2671 H 0.72999 0.19154 0.08819
 H2672 H 0.74702 0.20908 0.05871
 C2673 C 0.22559 0.70984 0.08437
 C2674 C 0.20413 0.70337 0.08351
 C2675 C 0.19231 0.70697 0.06524
 C2676 C 0.20159 0.71608 0.04759
 C2677 C 0.22300 0.72172 0.04764
 C2678 C 0.23517 0.71895 0.06624
 C2679 C 0.23747 0.70832 0.10313
 C2680 C 0.25835 0.71533 0.10396
 C2681 C 0.26777 0.72407 0.08627
 C2682 C 0.25639 0.72591 0.06761
 H2683 H 0.23067 0.70222 0.11747
 H2684 H 0.26719 0.71417 0.11849
 H2685 H 0.28391 0.72972 0.08707
 H2686 H 0.26432 0.73336 0.05457
 H2687 H 0.17581 0.70240 0.06453
 H2688 H 0.19202 0.71852 0.03366
 C2689 C 0.18295 0.21000 0.56420
 C2690 C 0.19581 0.19951 0.57928
 C2691 C 0.21762 0.19794 0.57590
 C2692 C 0.22702 0.20750 0.55863
 C2693 C 0.21502 0.21919 0.54410
 C2694 C 0.19259 0.22004 0.54651
 C2695 C 0.16063 0.21000 0.56585
 C2696 C 0.14809 0.22007 0.55085
 C2697 C 0.15741 0.22997 0.53373
 C2698 C 0.17935 0.22983 0.53144
 H2699 H 0.15255 0.20180 0.57837
 H2700 H 0.13101 0.21991 0.55235
 H2701 H 0.14758 0.23752 0.52196
 H2702 H 0.18553 0.23708 0.51749
 H2703 H 0.22763 0.18967 0.58708
 H2704 H 0.24403 0.20615 0.55695
   
