data_POSCAR
  _audit_creation_date              2014-09-24
  _audit_creation_method            'ToBaCCo'
  _symmetry_space_group_name_H-M    'P1'
  _symmetry_Int_Tables_number       1
  _symmetry_cell_setting            triclinic
  loop_
  _symmetry_equiv_pos_as_xyz
 x,y,z
_cell_length_a 48.4305
_cell_length_b 48.5015
_cell_length_c 48.6126
_cell_angle_alpha 90.001900
_cell_angle_beta 90.133200
_cell_angle_gamma 89.983300
loop_
  _atom_site_label
  _atom_site_type_symbol
  _atom_site_fract_x
  _atom_site_fract_y
  _atom_site_fract_z
C1 C 0.25275 1.07219 -0.00011
 C2 C 0.25756 1.05780 0.02455
 C3 C 0.25932 1.02889 0.02334
 C4 C 0.25472 1.01425 -0.00137
 C5 C 0.24952 1.02958 -0.02562
 C6 C 0.24999 1.05871 -0.02563
 C7 C 0.25663 0.98318 -0.00182
 C8 C 0.26226 0.96867 -0.02650
 C9 C 0.26506 0.93987 -0.02661
 C10 C 0.26346 0.92544 -0.00177
 C11 C 0.25854 0.93912 0.02305
 C12 C 0.25389 0.96766 0.02275
 H13 H 0.24906 1.09413 0.00083
 H14 H 0.26578 1.01799 0.04157
 H15 H 0.24622 1.01886 -0.04470
 H16 H 0.26538 0.97937 -0.04571
 H17 H 0.26569 0.90320 -0.00177
 H18 H 0.24877 0.97750 0.04200
 C19 C 0.75211 0.57488 0.49944
 C20 C 0.75070 0.56114 0.52474
 C21 C 0.75073 0.53217 0.52512
 C22 C 0.75422 0.51679 0.50064
 C23 C 0.75710 0.53147 0.47564
 C24 C 0.75531 0.56033 0.47479
 C25 C 0.75540 0.48574 0.50108
 C26 C 0.75017 0.47037 0.47690
 C27 C 0.75289 0.44158 0.47646
 C28 C 0.75931 0.42770 0.50088
 C29 C 0.76345 0.44213 0.52548
 C30 C 0.76204 0.47106 0.52541
 H31 H 0.75035 0.59714 0.49894
 H32 H 0.74840 0.52194 0.54468
 H33 H 0.76141 0.52081 0.45662
 H34 H 0.74356 0.48045 0.45821
 H35 H 0.76113 0.40544 0.50079
 H36 H 0.76684 0.48170 0.54433
 C37 C 0.73906 1.00200 1.07449
 C38 C 0.74291 0.97697 1.06046
 C39 C 0.74610 0.97797 1.03166
 C40 C 0.74258 1.00279 1.01667
 C41 C 0.73774 1.02730 1.03177
 C42 C 0.73662 1.02734 1.06069
 C43 C 0.74286 1.00293 0.98551
 C44 C 0.74485 1.02792 0.97049
 C45 C 0.74254 1.02820 0.94175
 C46 C 0.74105 1.00328 0.92739
 C47 C 0.74017 0.97810 0.94134
 C48 C 0.74010 0.97814 0.97023
 H49 H 0.74038 1.00200 1.09668
 H50 H 0.75024 0.95907 1.02096
 H51 H 0.73335 1.04637 1.02132
 H52 H 0.74748 1.04751 0.98064
 H53 H 0.74084 1.00366 0.90511
 H54 H 0.73706 0.95857 0.98023
 C55 C 0.24329 0.49809 0.57146
 C56 C 0.24221 0.47324 0.55693
 C57 C 0.24237 0.47390 0.52805
 C58 C 0.24511 0.49904 0.51343
 C59 C 0.24706 0.52371 0.52899
 C60 C 0.24486 0.52336 0.55775
 C61 C 0.24483 0.49960 0.48234
 C62 C 0.23915 0.52429 0.46785
 C63 C 0.23829 0.52484 0.43905
 C64 C 0.24204 0.50037 0.42432
 C65 C 0.24687 0.47534 0.43785
 C66 C 0.24925 0.47531 0.46670
 H67 H 0.24315 0.49788 0.59375
 H68 H 0.23953 0.45458 0.51744
 H69 H 0.24964 0.54350 0.51920
 H70 H 0.23447 0.54325 0.47845
 H71 H 0.24153 0.50096 0.40204
 H72 H 0.25407 0.45602 0.47661
 C73 C 1.07480 0.24410 -0.00256
 C74 C 1.06173 0.24069 0.02307
 C75 C 1.03272 0.24325 0.02403
 C76 C 1.01707 0.25065 0.00050
 C77 C 1.03131 0.25515 -0.02441
 C78 C 1.05990 0.25132 -0.02619
 C79 C 0.98615 0.25387 0.00200
 C80 C 0.96947 0.25222 -0.02197
 C81 C 0.94071 0.25693 -0.02096
 C82 C 0.92851 0.26045 0.00504
 C83 C 0.94426 0.26122 0.02916
 C84 C 0.97301 0.25891 0.02742
 H85 H 1.09699 0.24238 -0.00425
 H86 H 1.02236 0.23820 0.04300
 H87 H 1.02062 0.26232 -0.04256
 H88 H 0.97894 0.24821 -0.04157
 H89 H 0.90625 0.26101 0.00689
 H90 H 0.98483 0.26140 0.04612
 C91 C 0.57181 0.75568 0.49985
 C92 C 0.55747 0.75913 0.52454
 C93 C 0.52857 0.75776 0.52448
 C94 C 0.51375 0.75198 0.50004
 C95 C 0.52893 0.74803 0.47549
 C96 C 0.55781 0.75085 0.47507
 C97 C 0.48268 0.75114 0.50001
 C98 C 0.46754 0.75614 0.47558
 C99 C 0.43861 0.75603 0.47557
 C100 C 0.42452 0.75181 0.50027
 C101 C 0.43878 0.74776 0.52502
 C102 C 0.46775 0.74640 0.52458
 H103 H 0.59417 0.75648 0.50003
 H104 H 0.51800 0.76213 0.54352
 H105 H 0.51851 0.74327 0.45643
 H106 H 0.47785 0.76107 0.45652
 H107 H 0.40214 0.75147 0.50015
 H108 H 0.47839 0.74217 0.54365
 C109 C 0.00001 0.74886 -0.07357
 C110 C 0.02432 0.74433 -0.05864
 C111 C 0.02316 0.74349 -0.02991
 C112 C -0.00155 0.74925 -0.01570
 C113 C -0.02571 0.75425 -0.03135
 C114 C -0.02562 0.75265 -0.06041
 C115 C -0.00201 0.74964 0.01529
 C116 C -0.02673 0.74513 0.03009
 C117 C -0.02729 0.74538 0.05915
 C118 C -0.00203 0.74869 0.07321
 C119 C 0.02290 0.75208 0.05911
 C120 C 0.02257 0.75381 0.03038
 H121 H 0.00155 0.75065 -0.09569
 H122 H 0.04176 0.73791 -0.01898
 H123 H -0.04479 0.75839 -0.02084
 H124 H -0.04539 0.73991 0.01913
 H125 H -0.00149 0.74995 0.09541
 H126 H 0.04183 0.75788 0.02004
 C127 C 0.50022 0.25100 0.42730
 C128 C 0.52534 0.25503 0.44109
 C129 C 0.52551 0.25614 0.46991
 C130 C 0.50137 0.25111 0.48532
 C131 C 0.47648 0.24637 0.47081
 C132 C 0.47561 0.24712 0.44194
 C133 C 0.50232 0.25049 0.51625
 C134 C 0.47821 0.25451 0.53202
 C135 C 0.47878 0.25277 0.56086
 C136 C 0.50419 0.24894 0.57425
 C137 C 0.52868 0.24584 0.55921
 C138 C 0.52739 0.24565 0.53038
 H139 H 0.49984 0.25079 0.40504
 H140 H 0.54471 0.26124 0.48004
 H141 H 0.45766 0.24147 0.48163
 H142 H 0.45880 0.25938 0.52218
 H143 H 0.50491 0.24829 0.59649
 H144 H 0.54614 0.24118 0.51926
 C145 C 1.07159 -0.00041 0.25815
 C146 C 1.05744 0.02491 0.25870
 C147 C 1.02849 0.02436 0.25526
 C148 C 1.01411 -0.00032 0.24905
 C149 C 1.02947 -0.02504 0.24766
 C150 C 1.05781 -0.02530 0.25334
 C151 C 0.98336 -0.00011 0.24404
 C152 C 0.96733 -0.02450 0.24618
 C153 C 0.93879 -0.02465 0.24001
 C154 C 0.92606 0.00081 0.23418
 C155 C 0.94113 0.02533 0.23289
 C156 C 0.96971 0.02460 0.23679
 H157 H 1.09384 -0.00109 0.25982
 H158 H 1.01715 0.04319 0.25859
 H159 H 1.01978 -0.04437 0.24243
 H160 H 0.97712 -0.04358 0.25183
 H161 H 0.90383 0.00211 0.23228
 H162 H 0.98095 0.04358 0.23382
 C163 C 0.57592 0.50187 0.74134
 C164 C 0.56089 0.52613 0.74591
 C165 C 0.53215 0.52452 0.74911
 C166 C 0.51803 0.49922 0.74595
 C167 C 0.53373 0.47524 0.74054
 C168 C 0.56262 0.47637 0.73874
 C169 C 0.48710 0.49800 0.74754
 C170 C 0.47350 0.47319 0.75446
 C171 C 0.44457 0.47155 0.75467
 C172 C 0.42903 0.49528 0.74917
 C173 C 0.44190 0.52036 0.74302
 C174 C 0.47080 0.52149 0.74171
 H175 H 0.59824 0.50279 0.74023
 H176 H 0.52096 0.54323 0.75364
 H177 H 0.52374 0.45564 0.73694
 H178 H 0.48516 0.45503 0.76004
 H179 H 0.40669 0.49424 0.74951
 H180 H 0.48020 0.54066 0.73538
 C181 C 1.00125 1.07264 0.75483
 C182 C 0.97658 1.05825 0.76014
 C183 C 0.97762 1.02916 0.76026
 C184 C 1.00206 1.01463 0.75361
 C185 C 1.02609 1.02996 0.74779
 C186 C 1.02585 1.05878 0.74882
 C187 C 1.00217 0.98367 0.75192
 C188 C 1.02689 0.96834 0.75503
 C189 C 1.02743 0.93941 0.75132
 C190 C 1.00202 0.92592 0.74690
 C191 C 0.97724 0.94053 0.74441
 C192 C 0.97753 0.96927 0.74623
 H193 H 1.00149 1.09492 0.75411
 H194 H 0.95952 1.01784 0.76656
 H195 H 1.04496 1.01990 0.74153
 H196 H 1.04586 0.97910 0.75932
 H197 H 1.00098 0.90365 0.74666
 H198 H 0.95839 0.98015 0.74252
 C199 C 0.49814 0.57243 0.25018
 C200 C 0.47389 0.55799 0.25637
 C201 C 0.47491 0.52920 0.25899
 C202 C 0.49954 0.51445 0.25398
 C203 C 0.52353 0.52960 0.24724
 C204 C 0.52310 0.55847 0.24604
 C205 C 0.50020 0.48351 0.25549
 C206 C 0.52533 0.46940 0.25984
 C207 C 0.52649 0.44054 0.25971
 C208 C 0.50198 0.42547 0.25701
 C209 C 0.47647 0.43880 0.25417
 C210 C 0.47584 0.46770 0.25244
 H211 H 0.49763 0.59469 0.24853
 H212 H 0.45636 0.51866 0.26538
 H213 H 0.54265 0.51930 0.24226
 H214 H 0.54423 0.48058 0.26370
 H215 H 0.50279 0.40316 0.25647
 H216 H 0.45620 0.47759 0.24888
 O217 O 0.25217 0.17469 0.21248
 O218 O 0.28098 0.16710 0.25166
 O219 O 0.17903 0.20944 0.25037
 O220 O 0.16823 0.24648 0.27488
 O221 O 0.21533 0.24563 0.17715
 O222 O 0.25346 0.27611 0.16997
 O223 O 0.25140 0.28662 0.32007
 O224 O 0.21763 0.25118 0.32687
 O225 O 0.32126 0.24708 0.28946
 O226 O 0.33121 0.21648 0.25161
 O227 O 0.28965 0.31798 0.24978
 O228 O 0.25074 0.32581 0.21747
 O229 O 0.25132 0.31882 0.28613
 O230 O 0.22129 0.32693 0.24629
 O231 O 0.32236 0.28452 0.25257
 O232 O 0.33111 0.24428 0.22108
 O233 O 0.28767 0.24897 0.32191
 O234 O 0.25288 0.21836 0.32979
 O235 O 0.25439 0.20759 0.17929
 O236 O 0.28420 0.24600 0.17151
 O237 O 0.18068 0.24570 0.20858
 O238 O 0.17383 0.27998 0.24608
 O239 O 0.21195 0.17606 0.25059
 O240 O 0.25151 0.16751 0.28108
 Zr241 Zr 0.24974 0.19749 0.24948
 O242 O 0.27491 0.22150 0.27545
 Zr243 Zr 0.20163 0.24628 0.24693
 O244 O 0.22485 0.27227 0.27313
 Zr245 Zr 0.25173 0.24510 0.20049
 O246 O 0.27693 0.27118 0.22419
 Zr247 Zr 0.25082 0.24883 0.29872
 O248 O 0.22491 0.22239 0.27513
 Zr249 Zr 0.30024 0.24727 0.25172
 O250 O 0.27743 0.22084 0.22563
 Zr251 Zr 0.25209 0.29610 0.24935
 O252 O 0.22664 0.27233 0.22293
 O253 O 0.22509 0.21996 0.22268
 O254 O 0.27733 0.27400 0.27628
 C255 C 0.25438 0.18234 0.18722
 C256 C 0.18666 0.18409 0.25155
 C257 C 0.18964 0.24566 0.18363
 C258 C 0.25138 0.31173 0.31160
 C259 C 0.31315 0.24782 0.31456
 C260 C 0.31488 0.30991 0.25136
 H261 H 0.28566 0.20908 0.28755
 H262 H 0.28874 0.28222 0.21183
 H263 H 0.21364 0.20776 0.21097
 H264 H 0.21228 0.28385 0.28418
 H265 H 0.20457 0.23630 0.32186
 H266 H 0.17470 0.25582 0.29177
 H267 H 0.32903 0.26020 0.20852
 H268 H 0.29883 0.23370 0.17872
 H269 H 0.24003 0.20353 0.32430
 H270 H 0.23551 0.17062 0.29331
 H271 H 0.26589 0.32164 0.20450
 H272 H 0.24035 0.29069 0.17565
 H273 H 0.29603 0.17331 0.23938
 H274 H 0.32558 0.20203 0.26481
 H275 H 0.17955 0.29206 0.23070
 H276 H 0.20687 0.32273 0.26004
 O277 O 0.74610 0.82144 0.21053
 O278 O 0.71609 0.82929 0.24910
 O279 O 0.81915 0.78937 0.24955
 O280 O 0.82868 0.75382 0.27793
 O281 O 0.78570 0.74935 0.17743
 O282 O 0.74692 0.71943 0.16994
 O283 O 0.74837 0.71237 0.31988
 O284 O 0.77992 0.75004 0.32662
 O285 O 0.67644 0.74839 0.28736
 O286 O 0.66831 0.78153 0.24852
 O287 O 0.70881 0.67916 0.24903
 O288 O 0.74922 0.67116 0.21812
 O289 O 0.74660 0.67907 0.28710
 O290 O 0.77732 0.67008 0.24833
 O291 O 0.67626 0.71284 0.24868
 O292 O 0.66707 0.75207 0.21948
 O293 O 0.70998 0.74856 0.32010
 O294 O 0.74294 0.77946 0.32928
 O295 O 0.74737 0.78860 0.17720
 O296 O 0.71661 0.75054 0.16962
 O297 O 0.81875 0.74994 0.21068
 O298 O 0.82601 0.71917 0.24920
 O299 O 0.78526 0.82174 0.24860
 O300 O 0.74604 0.83077 0.27834
 Zr301 Zr 0.74811 0.79968 0.24785
 O302 O 0.72287 0.77611 0.27387
 Zr303 Zr 0.79696 0.75179 0.24799
 O304 O 0.77343 0.72566 0.27355
 Zr305 Zr 0.74836 0.75134 0.19954
 O306 O 0.72257 0.72573 0.22324
 Zr307 Zr 0.74700 0.74954 0.29792
 O308 O 0.77280 0.77608 0.27476
 Zr309 Zr 0.69833 0.74980 0.24989
 O310 O 0.72151 0.77562 0.22352
 Zr311 Zr 0.74662 0.70112 0.24967
 O312 O 0.77278 0.72484 0.22380
 O313 O 0.77393 0.77709 0.22227
 O314 O 0.72090 0.72366 0.27557
 C315 C 0.74611 0.81385 0.18519
 C316 C 0.81076 0.81459 0.24954
 C317 C 0.81104 0.74871 0.18539
 C318 C 0.74787 0.68701 0.31231
 C319 C 0.68456 0.74823 0.31257
 C320 C 0.68355 0.68745 0.24821
 H321 H 0.71179 0.78851 0.28563
 H322 H 0.71113 0.71451 0.21064
 H323 H 0.78570 0.78880 0.21045
 H324 H 0.78598 0.71443 0.28503
 H325 H 0.79177 0.76599 0.32189
 H326 H 0.82238 0.74321 0.29410
 H327 H 0.67210 0.73914 0.20458
 H328 H 0.70232 0.76373 0.17585
 H329 H 0.75181 0.79638 0.32232
 H330 H 0.76173 0.82787 0.29110
 H331 H 0.73392 0.67456 0.20503
 H332 H 0.75990 0.70500 0.17629
 H333 H 0.70154 0.82277 0.23634
 H334 H 0.67136 0.79376 0.26452
 H335 H 0.81968 0.70517 0.23577
 H336 H 0.79158 0.67478 0.26215
 O337 O 0.74824 0.18086 0.78908
 O338 O 0.72192 0.17168 0.74923
 O339 O 0.82413 0.21094 0.75512
 O340 O 0.83539 0.24761 0.72465
 O341 O 0.78766 0.25255 0.82299
 O342 O 0.75014 0.28307 0.82854
 O343 O 0.75810 0.28643 0.67756
 O344 O 0.78622 0.24771 0.67004
 O345 O 0.68434 0.25183 0.70865
 O346 O 0.67228 0.22416 0.74792
 O347 O 0.71853 0.32319 0.74337
 O348 O 0.75542 0.33222 0.77662
 O349 O 0.75800 0.32083 0.70923
 O350 O 0.78755 0.32876 0.75085
 O351 O 0.68396 0.29159 0.74323
 O352 O 0.67341 0.25335 0.77693
 O353 O 0.71855 0.25011 0.67684
 O354 O 0.75906 0.21645 0.67300
 O355 O 0.74811 0.21431 0.82187
 O356 O 0.71795 0.25423 0.82621
 O357 O 0.82308 0.25073 0.79245
 O358 O 0.83344 0.28004 0.75317
 O359 O 0.79036 0.17844 0.75400
 O360 O 0.75360 0.17148 0.72036
 Zr361 Zr 0.75349 0.20167 0.75175
 O362 O 0.72923 0.22521 0.72455
 Zr363 Zr 0.80307 0.24874 0.75378
 O364 O 0.78163 0.27387 0.72556
 Zr365 Zr 0.75175 0.25121 0.79893
 O366 O 0.72855 0.27753 0.77329
 Zr367 Zr 0.75529 0.25000 0.70060
 O368 O 0.77997 0.22439 0.72611
 Zr369 Zr 0.70469 0.25339 0.74654
 O370 O 0.72594 0.22692 0.77394
 Zr371 Zr 0.75486 0.30001 0.74723
 O372 O 0.77829 0.27666 0.77578
 O373 O 0.77804 0.22440 0.77845
 O374 O 0.72930 0.27752 0.72089
 C375 C 0.74648 0.18896 0.81416
 C376 C 0.81590 0.18575 0.75506
 C377 C 0.81350 0.25235 0.81709
 C378 C 0.75913 0.31200 0.68432
 C379 C 0.69290 0.25039 0.68377
 C380 C 0.69292 0.31652 0.74203
 H381 H 0.71799 0.21256 0.71318
 H382 H 0.71697 0.28979 0.78468
 H383 H 0.78868 0.21267 0.79133
 H384 H 0.79516 0.28431 0.71451
 H385 H 0.80261 0.25751 0.67723
 H386 H 0.82938 0.23484 0.70992
 H387 H 0.67581 0.26999 0.78847
 H388 H 0.70394 0.24084 0.81974
 H389 H 0.74217 0.20509 0.67456
 H390 H 0.76877 0.17635 0.70764
 H391 H 0.74045 0.32871 0.78996
 H392 H 0.76209 0.29805 0.82155
 H393 H 0.70609 0.17903 0.75979
 H394 H 0.67735 0.20875 0.73561
 H395 H 0.82726 0.29445 0.76618
 H396 H 0.80113 0.32467 0.73623
 O397 O 0.25482 0.81644 0.79131
 O398 O 0.28380 0.82363 0.75229
 O399 O 0.18032 0.78607 0.75247
 O400 O 0.16813 0.75125 0.72553
 O401 O 0.21345 0.74532 0.82439
 O402 O 0.25098 0.71371 0.83094
 O403 O 0.24838 0.70769 0.68057
 O404 O 0.21690 0.74617 0.67468
 O405 O 0.32085 0.74191 0.71273
 O406 O 0.33138 0.77249 0.75168
 O407 O 0.28522 0.67298 0.74886
 O408 O 0.24701 0.66546 0.78177
 O409 O 0.24701 0.67486 0.71385
 O410 O 0.21649 0.66734 0.75394
 O411 O 0.32003 0.70431 0.74871
 O412 O 0.33033 0.74326 0.78139
 O413 O 0.28690 0.74329 0.68043
 O414 O 0.25457 0.77543 0.67224
 O415 O 0.25474 0.78268 0.82376
 O416 O 0.28249 0.74301 0.83100
 O417 O 0.17998 0.74675 0.79156
 O418 O 0.17130 0.71632 0.75236
 O419 O 0.21421 0.81839 0.75441
 O420 O 0.25334 0.82550 0.72284
 Zr421 Zr 0.25103 0.79489 0.75379
 O422 O 0.27534 0.77039 0.72734
 Zr423 Zr 0.20112 0.74822 0.75394
 O424 O 0.22305 0.72186 0.72747
 Zr425 Zr 0.25046 0.74581 0.80152
 O426 O 0.27479 0.71933 0.77723
 Zr427 Zr 0.25012 0.74494 0.70301
 O428 O 0.22544 0.77205 0.72694
 Zr429 Zr 0.29949 0.74268 0.75044
 O430 O 0.27749 0.76939 0.77711
 Zr431 Zr 0.24895 0.69642 0.75112
 O432 O 0.22446 0.72051 0.77779
 O433 O 0.22520 0.77266 0.77964
 O434 O 0.27525 0.71796 0.72499
 C435 C 0.25644 0.80807 0.81638
 C436 C 0.18866 0.81120 0.75307
 C437 C 0.18799 0.74521 0.81673
 C438 C 0.24711 0.68242 0.68856
 C439 C 0.31241 0.74230 0.68765
 C440 C 0.31090 0.67943 0.74783
 H441 H 0.28673 0.78255 0.71562
 H442 H 0.28603 0.70731 0.78925
 H443 H 0.21414 0.78468 0.79185
 H444 H 0.20992 0.71123 0.71604
 H445 H 0.20554 0.76245 0.67950
 H446 H 0.17441 0.74261 0.70822
 H447 H 0.32727 0.72723 0.79358
 H448 H 0.29801 0.75415 0.82382
 H449 H 0.24529 0.79212 0.67924
 H450 H 0.23669 0.82362 0.71115
 H451 H 0.26262 0.66833 0.79460
 H452 H 0.23785 0.69955 0.82430
 H453 H 0.29869 0.81613 0.76412
 H454 H 0.32727 0.78652 0.73748
 H455 H 0.17643 0.70269 0.76665
 H456 H 0.20308 0.67142 0.73911
 O457 O 0.25256 0.32094 0.71155
 O458 O 0.22274 0.33015 0.74936
 O459 O 0.32368 0.28571 0.75374
 O460 O 0.33196 0.24914 0.78030
 O461 O 0.29096 0.24886 0.67940
 O462 O 0.25218 0.21877 0.67106
 O463 O 0.24750 0.21178 0.82079
 O464 O 0.28119 0.24726 0.82853
 O465 O 0.17893 0.25118 0.78662
 O466 O 0.17239 0.28306 0.74736
 O467 O 0.21029 0.17978 0.74921
 O468 O 0.25061 0.17029 0.71937
 O469 O 0.24641 0.17848 0.78798
 O470 O 0.27859 0.16890 0.74994
 O471 O 0.17863 0.21430 0.74861
 O472 O 0.17174 0.25404 0.71810
 O473 O 0.21164 0.25004 0.82013
 O474 O 0.24603 0.27944 0.82985
 O475 O 0.25255 0.28790 0.67840
 O476 O 0.22216 0.25009 0.66991
 O477 O 0.32321 0.24845 0.71343
 O478 O 0.32774 0.21522 0.75130
 O479 O 0.29151 0.31975 0.75141
 O480 O 0.25114 0.33009 0.77958
 Zr481 Zr 0.25341 0.29912 0.74898
 O482 O 0.22661 0.27634 0.77418
 Zr483 Zr 0.30038 0.24927 0.75016
 O484 O 0.27539 0.22415 0.77529
 Zr485 Zr 0.25309 0.25070 0.70066
 O486 O 0.22588 0.22591 0.72367
 Zr487 Zr 0.24916 0.24897 0.79888
 O488 O 0.27652 0.27446 0.77640
 Zr489 Zr 0.20175 0.25078 0.74967
 O490 O 0.22654 0.27587 0.72405
 Zr491 Zr 0.24852 0.20058 0.75065
 O492 O 0.27601 0.22329 0.72528
 O493 O 0.27894 0.27564 0.72402
 O494 O 0.22282 0.22398 0.77586
 C495 C 0.25187 0.31319 0.68625
 C496 C 0.31653 0.31124 0.75385
 C497 C 0.31612 0.24829 0.68793
 C498 C 0.24641 0.18643 0.81322
 C499 C 0.18642 0.25103 0.81202
 C500 C 0.18531 0.18870 0.74829
 H501 H 0.21569 0.28920 0.78559
 H502 H 0.21440 0.21502 0.71083
 H503 H 0.29120 0.28736 0.71271
 H504 H 0.28714 0.21248 0.78718
 H505 H 0.29435 0.26219 0.82396
 H506 H 0.32474 0.23928 0.79656
 H507 H 0.17564 0.23955 0.70433
 H508 H 0.20755 0.26296 0.67604
 H509 H 0.25784 0.29495 0.82400
 H510 H 0.26633 0.32676 0.79281
 H511 H 0.23650 0.17487 0.70536
 H512 H 0.26503 0.20431 0.67764
 H513 H 0.20789 0.32387 0.73680
 H514 H 0.17635 0.29617 0.76244
 H515 H 0.32188 0.20241 0.73655
 H516 H 0.29226 0.17288 0.76456
 O517 O 0.74753 0.68214 0.71094
 O518 O 0.77746 0.67377 0.74979
 O519 O 0.67591 0.71720 0.74929
 O520 O 0.66699 0.75325 0.77681
 O521 O 0.71169 0.75637 0.67760
 O522 O 0.75133 0.78396 0.66981
 O523 O 0.74897 0.79214 0.82031
 O524 O 0.71633 0.75540 0.82686
 O525 O 0.81947 0.75301 0.78784
 O526 O 0.82791 0.72106 0.75011
 O527 O 0.78941 0.82373 0.74991
 O528 O 0.74961 0.83286 0.71816
 O529 O 0.75094 0.82495 0.78703
 O530 O 0.72136 0.83488 0.74790
 O531 O 0.82098 0.78912 0.74971
 O532 O 0.82826 0.74864 0.71954
 O533 O 0.78649 0.75563 0.82084
 O534 O 0.75263 0.72446 0.82939
 O535 O 0.74883 0.71540 0.67802
 O536 O 0.78049 0.75266 0.67048
 O537 O 0.67767 0.75637 0.70974
 O538 O 0.67153 0.78775 0.74863
 O539 O 0.70855 0.68354 0.74795
 O540 O 0.74686 0.67375 0.77922
 Zr541 Zr 0.74640 0.70437 0.74819
 O542 O 0.77239 0.72729 0.77434
 Zr543 Zr 0.69924 0.75399 0.74756
 O544 O 0.72349 0.77923 0.77352
 Zr545 Zr 0.74849 0.75272 0.70000
 O546 O 0.77470 0.77771 0.72373
 Zr547 Zr 0.74926 0.75480 0.79832
 O548 O 0.72253 0.72911 0.77480
 Zr549 Zr 0.79782 0.75274 0.75047
 O550 O 0.77410 0.72740 0.72417
 Zr551 Zr 0.75105 0.80289 0.74980
 O552 O 0.72451 0.78001 0.72363
 O553 O 0.72170 0.72791 0.72222
 O554 O 0.77608 0.77971 0.77590
 C555 C 0.74859 0.69004 0.68571
 C556 C 0.68337 0.69173 0.74880
 C557 C 0.68621 0.75780 0.68471
 C558 C 0.74970 0.81739 0.81233
 C559 C 0.81183 0.75451 0.81305
 C560 C 0.81440 0.81473 0.74931
 H561 H 0.78309 0.71461 0.78620
 H562 H 0.78652 0.78858 0.71123
 H563 H 0.70965 0.71667 0.71016
 H564 H 0.71120 0.79085 0.78486
 H565 H 0.70401 0.73980 0.82209
 H566 H 0.67398 0.76251 0.79356
 H567 H 0.82529 0.76354 0.70596
 H568 H 0.79434 0.73903 0.67681
 H569 H 0.74247 0.70817 0.82265
 H570 H 0.73078 0.67714 0.79129
 H571 H 0.76524 0.82933 0.70557
 H572 H 0.73960 0.79937 0.67621
 H573 H 0.79215 0.67968 0.73694
 H574 H 0.82265 0.70727 0.76413
 H575 H 0.67792 0.80108 0.73461
 H576 H 0.70666 0.83050 0.76129
 O577 O 0.24412 0.67847 0.28718
 O578 O 0.21772 0.66979 0.24760
 O579 O 0.31953 0.71016 0.25315
 O580 O 0.32985 0.74704 0.22268
 O581 O 0.28386 0.75046 0.32192
 O582 O 0.24586 0.77973 0.32892
 O583 O 0.25185 0.78603 0.17765
 O584 O 0.28033 0.74716 0.16942
 O585 O 0.17880 0.75136 0.20911
 O586 O 0.16758 0.72175 0.24775
 O587 O 0.21268 0.82137 0.24662
 O588 O 0.25082 0.83034 0.27735
 O589 O 0.25034 0.82005 0.20968
 O590 O 0.28191 0.82752 0.25049
 O591 O 0.17840 0.78947 0.24552
 O592 O 0.16865 0.75013 0.27750
 O593 O 0.21261 0.75081 0.17683
 O594 O 0.25236 0.71648 0.17161
 O595 O 0.24417 0.71123 0.32063
 O596 O 0.21418 0.75096 0.32638
 O597 O 0.31865 0.75008 0.29063
 O598 O 0.32821 0.77917 0.25139
 O599 O 0.28610 0.67732 0.25157
 O600 O 0.24892 0.67064 0.21826
 Zr601 Zr 0.24894 0.70012 0.25030
 O602 O 0.22400 0.72393 0.22390
 Zr603 Zr 0.29804 0.74768 0.25239
 O604 O 0.27598 0.77314 0.22498
 Zr605 Zr 0.24752 0.74868 0.29846
 O606 O 0.22374 0.77524 0.27367
 Zr607 Zr 0.24951 0.74937 0.20012
 O608 O 0.27478 0.72355 0.22471
 Zr609 Zr 0.19959 0.75144 0.24682
 O610 O 0.22153 0.72469 0.27339
 Zr611 Zr 0.24932 0.79856 0.24756
 O612 O 0.27335 0.77490 0.27533
 O613 O 0.27375 0.72256 0.27710
 O614 O 0.22356 0.77631 0.22128
 C615 C 0.24237 0.68603 0.31242
 C616 C 0.31155 0.68491 0.25263
 C617 C 0.30954 0.75142 0.31543
 C618 C 0.25174 0.81152 0.18466
 C619 C 0.18709 0.75117 0.18409
 C620 C 0.18712 0.81450 0.24606
 H621 H 0.21264 0.71153 0.21238
 H622 H 0.21234 0.78709 0.28567
 H623 H 0.28468 0.71080 0.28972
 H624 H 0.28918 0.78393 0.21387
 H625 H 0.29634 0.75793 0.17605
 H626 H 0.32367 0.73438 0.20793
 H627 H 0.17162 0.76592 0.29004
 H628 H 0.20016 0.73758 0.31993
 H629 H 0.23529 0.70538 0.17299
 H630 H 0.26371 0.67607 0.20533
 H631 H 0.23717 0.82585 0.29177
 H632 H 0.25773 0.79496 0.32233
 H633 H 0.20167 0.67713 0.25782
 H634 H 0.17219 0.70719 0.23427
 H635 H 0.32180 0.79380 0.26405
 H636 H 0.29445 0.82454 0.23473
 O637 O 0.75321 0.32131 0.29018
 O638 O 0.78380 0.32894 0.25193
 O639 O 0.68101 0.28948 0.25057
 O640 O 0.67022 0.25468 0.22253
 O641 O 0.71324 0.24995 0.32259
 O642 O 0.75112 0.21866 0.33008
 O643 O 0.75185 0.21250 0.17951
 O644 O 0.72037 0.24981 0.17251
 O645 O 0.82322 0.24931 0.21364
 O646 O 0.83229 0.27862 0.25366
 O647 O 0.78791 0.17847 0.24810
 O648 O 0.74959 0.17000 0.28047
 O649 O 0.75045 0.17977 0.21287
 O650 O 0.71912 0.17181 0.25253
 O651 O 0.82217 0.21040 0.24838
 O652 O 0.83110 0.24869 0.28234
 O653 O 0.79016 0.24975 0.18039
 O654 O 0.75322 0.28089 0.17125
 O655 O 0.75261 0.28775 0.32285
 O656 O 0.78246 0.24889 0.33046
 O657 O 0.68040 0.25145 0.28913
 O658 O 0.67341 0.21930 0.25063
 O659 O 0.71444 0.32237 0.25178
 O660 O 0.75301 0.32975 0.22130
 Zr661 Zr 0.75157 0.29956 0.25263
 O662 O 0.77700 0.27561 0.22695
 Zr663 Zr 0.70238 0.25199 0.25194
 O664 O 0.72543 0.22621 0.22588
 Zr665 Zr 0.75075 0.25067 0.30057
 O666 O 0.77606 0.22455 0.27687
 Zr667 Zr 0.75260 0.24983 0.20195
 O668 O 0.72688 0.27619 0.22548
 Zr669 Zr 0.80094 0.24835 0.25072
 O670 O 0.77790 0.27476 0.27679
 Zr671 Zr 0.75126 0.20128 0.25014
 O672 O 0.72574 0.22481 0.27638
 O673 O 0.72564 0.27686 0.27785
 O674 O 0.77774 0.22332 0.22455
 C675 C 0.75335 0.31317 0.31538
 C676 C 0.68901 0.31472 0.25112
 C677 C 0.68792 0.25060 0.31448
 C678 C 0.75084 0.18724 0.18756
 C679 C 0.81549 0.24996 0.18836
 C680 C 0.81344 0.18540 0.24699
 H681 H 0.78871 0.28813 0.21599
 H682 H 0.78724 0.21266 0.28907
 H683 H 0.71407 0.28880 0.28964
 H684 H 0.71276 0.21529 0.21421
 H685 H 0.70684 0.26391 0.17846
 H686 H 0.67589 0.24374 0.20632
 H687 H 0.82809 0.23236 0.29413
 H688 H 0.79753 0.26087 0.32369
 H689 H 0.76561 0.29579 0.17757
 H690 H 0.73951 0.32401 0.20708
 H691 H 0.76464 0.17337 0.29383
 H692 H 0.73843 0.20425 0.32313
 H693 H 0.79804 0.32232 0.26500
 H694 H 0.82807 0.29317 0.24003
 H695 H 0.67833 0.20636 0.26561
 H696 H 0.70599 0.17559 0.23737
 C697 C 0.26135 0.10347 0.09876
 C698 C 0.25305 0.07574 0.09955
 C699 C 0.25270 0.06025 0.07525
 C700 C 0.26022 0.07228 0.04988
 C701 C 0.26949 0.09984 0.05053
 N702 N 0.26958 0.11434 0.07436
 C703 C 0.26007 0.12226 0.12281
 N704 N 0.26231 0.14976 0.11785
 C705 C 0.26077 0.16898 0.13800
 C706 C 0.25664 0.16103 0.16546
 C707 C 0.25463 0.13273 0.17131
 C708 C 0.25635 0.11326 0.15008
 H709 H 0.24482 0.03941 0.07632
 H710 H 0.27712 0.11001 0.03228
 H711 H 0.26266 0.19048 0.13238
 H712 H 0.25162 0.12565 0.19221
 H713 H 0.24584 0.06622 0.11830
 H714 H 0.25494 0.09164 0.15520
 C715 C 0.74935 0.61040 0.59794
 C716 C 0.73301 0.58647 0.59672
 C717 C 0.73352 0.57006 0.57303
 C718 C 0.75023 0.57747 0.55063
 C719 C 0.76658 0.60125 0.55302
 N720 N 0.76555 0.61692 0.57608
 C721 C 0.74874 0.62977 0.62143
 N722 N 0.75614 0.65642 0.61677
 C723 C 0.75631 0.67578 0.63690
 C724 C 0.74895 0.66874 0.66390
 C725 C 0.74161 0.64126 0.66938
 C726 C 0.74140 0.62172 0.64820
 H727 H 0.72034 0.55207 0.57195
 H728 H 0.78022 0.60747 0.53654
 H729 H 0.76232 0.69663 0.63173
 H730 H 0.73582 0.63492 0.68994
 H731 H 0.71933 0.58089 0.61337
 H732 H 0.73599 0.60061 0.65292
 C733 C 0.74401 0.90296 0.10695
 C734 C 0.75796 0.90380 0.08169
 C735 C 0.75746 0.92800 0.06597
 C736 C 0.74328 0.95166 0.07537
 C737 C 0.72906 0.94930 0.10060
 N738 N 0.72999 0.92565 0.11538
 C739 C 0.74484 0.87898 0.12577
 N740 N 0.73897 0.88350 0.15275
 C741 C 0.73910 0.86309 0.17179
 C742 C 0.74526 0.83589 0.16412
 C743 C 0.75101 0.83053 0.13630
 C744 C 0.75088 0.85201 0.11705
 H745 H 0.76948 0.92831 0.04727
 H746 H 0.71642 0.96586 0.10850
 H747 H 0.73433 0.86825 0.19292
 H748 H 0.75582 0.80983 0.12946
 H749 H 0.76995 0.88644 0.07449
 H750 H 0.75507 0.84738 0.09571
 C751 C 0.24360 0.39959 0.60541
 C752 C 0.25845 0.40043 0.58061
 C753 C 0.25718 0.42404 0.56414
 C754 C 0.24116 0.44675 0.57228
 C755 C 0.22580 0.44455 0.59665
 N756 N 0.22767 0.42158 0.61248
 C757 C 0.24608 0.37654 0.62519
 N758 N 0.24132 0.38180 0.65226
 C759 C 0.24332 0.36207 0.67197
 C760 C 0.25023 0.33488 0.66486
 C761 C 0.25495 0.32884 0.63699
 C762 C 0.25298 0.34960 0.61712
 H763 H 0.26964 0.42500 0.54570
 H764 H 0.21274 0.46131 0.60346
 H765 H 0.23921 0.36766 0.69312
 H766 H 0.26019 0.30812 0.63055
 H767 H 0.27187 0.38368 0.57455
 H768 H 0.25634 0.34441 0.59574
 C769 C 0.73706 0.10112 0.89297
 C770 C 0.71675 0.08061 0.89070
 C771 C 0.71835 0.05726 0.90717
 C772 C 0.73983 0.05435 0.92629
 C773 C 0.75871 0.07610 0.92935
 N774 N 0.75709 0.09858 0.91256
 C775 C 0.73804 0.12420 0.87309
 N776 N 0.74843 0.14919 0.88072
 C777 C 0.75061 0.17060 0.86265
 C778 C 0.74267 0.16713 0.83504
 C779 C 0.73198 0.14152 0.82693
 C780 C 0.72965 0.12014 0.84575
 H781 H 0.70296 0.04122 0.90476
 H782 H 0.77537 0.07468 0.94416
 H783 H 0.75920 0.18998 0.86964
 H784 H 0.72563 0.13785 0.80586
 H785 H 0.69998 0.08231 0.87604
 H786 H 0.72216 0.10037 0.83861
 C787 C 0.22991 0.59738 0.39019
 C788 C 0.21214 0.57492 0.38568
 C789 C 0.21414 0.55168 0.40235
 C790 C 0.23338 0.55087 0.42389
 C791 C 0.24931 0.57449 0.42911
 N792 N 0.24749 0.59675 0.41211
 C793 C 0.23140 0.62056 0.37039
 N794 N 0.24010 0.64593 0.37887
 C795 C 0.24321 0.66745 0.36106
 C796 C 0.23808 0.66377 0.33284
 C797 C 0.22917 0.63775 0.32384
 C798 C 0.22586 0.61625 0.34239
 H799 H 0.20107 0.53406 0.39809
 H800 H 0.26422 0.57466 0.44572
 H801 H 0.25025 0.68714 0.36886
 H802 H 0.22493 0.63384 0.30230
 H803 H 0.19718 0.57497 0.36911
 H804 H 0.21991 0.59624 0.33455
 C805 C 0.27053 0.88841 0.90253
 C806 C 0.28944 0.88490 0.92419
 C807 C 0.28868 0.90271 0.94663
 C808 C 0.26935 0.92422 0.94753
 C809 C 0.25223 0.92836 0.92455
 N810 N 0.25299 0.91038 0.90303
 C811 C 0.26807 0.86769 0.88029
 N812 N 0.25927 0.87549 0.85480
 C813 C 0.25569 0.85703 0.83396
 C814 C 0.26050 0.82878 0.83842
 C815 C 0.26927 0.82039 0.86464
 C816 C 0.27309 0.83966 0.88550
 H817 H 0.30267 0.89921 0.96370
 H818 H 0.23716 0.94484 0.92442
 H819 H 0.24872 0.86437 0.81410
 H820 H 0.27319 0.79886 0.86911
 H821 H 0.30430 0.86823 0.92413
 H822 H 0.27919 0.83248 0.90570
 C823 C 0.74981 0.39297 0.40306
 C824 C 0.76205 0.41923 0.40229
 C825 C 0.76213 0.43557 0.42596
 C826 C 0.75011 0.42587 0.45037
 C827 C 0.73732 0.39991 0.44996
 N828 N 0.73775 0.38429 0.42679
 C829 C 0.75108 0.37352 0.37963
 N830 N 0.74851 0.34611 0.38499
 C831 C 0.74958 0.32666 0.36497
 C832 C 0.75325 0.33434 0.33737
 C833 C 0.75574 0.36254 0.33125
 C834 C 0.75469 0.38218 0.35228
 H835 H 0.77262 0.45528 0.42549
 H836 H 0.72741 0.39178 0.46816
 H837 H 0.74726 0.30522 0.37071
 H838 H 0.75832 0.36946 0.31023
 H839 H 0.77249 0.42669 0.38412
 H840 H 0.75616 0.40378 0.34699
 C841 C 0.11310 0.23523 0.09314
 C842 C 0.12125 0.22261 0.06854
 C843 C 0.10378 0.22322 0.04581
 C844 C 0.07776 0.23616 0.04721
 C845 C 0.06939 0.24621 0.07321
 N846 N 0.08720 0.24596 0.09498
 C847 C 0.13276 0.23833 0.11636
 N848 N 0.12346 0.23916 0.14281
 C849 C 0.14095 0.24198 0.16469
 C850 C 0.16959 0.24431 0.16049
 C851 C 0.17931 0.24425 0.13330
 C852 C 0.16111 0.24136 0.11137
 H853 H 0.11081 0.21322 0.02719
 H854 H 0.04968 0.25631 0.07586
 H855 H 0.13251 0.24207 0.18529
 H856 H 0.20111 0.24629 0.12882
 H857 H 0.14113 0.21259 0.06666
 H858 H 0.16926 0.24190 0.09067
 C859 C 0.60780 0.76795 0.59608
 C860 C 0.61212 0.78531 0.57337
 C861 C 0.59494 0.78321 0.55048
 C862 C 0.57315 0.76422 0.55024
 C863 C 0.56821 0.74867 0.57409
 N864 N 0.58564 0.75064 0.59603
 C865 C 0.62789 0.76675 0.61905
 N866 N 0.61947 0.75903 0.64466
 C867 C 0.63744 0.75644 0.66614
 C868 C 0.66579 0.76118 0.66223
 C869 C 0.67478 0.76898 0.63593
 C870 C 0.65603 0.77175 0.61443
 H871 H 0.59900 0.79603 0.53270
 H872 H 0.55144 0.73394 0.57472
 H873 H 0.62965 0.75024 0.68605
 H874 H 0.69641 0.77283 0.63184
 H875 H 0.62890 0.80003 0.57299
 H876 H 0.66378 0.77695 0.59423
 C877 C 0.09960 0.73983 0.89557
 C878 C 0.09934 0.75374 0.92092
 C879 C 0.07505 0.75441 0.93639
 C880 C 0.05107 0.74129 0.92671
 C881 C 0.05256 0.72679 0.90178
 N882 N 0.07628 0.72671 0.88697
 C883 C 0.12346 0.74076 0.87661
 N884 N 0.11855 0.73663 0.84937
 C885 C 0.13878 0.73785 0.83018
 C886 C 0.16615 0.74346 0.83795
 C887 C 0.17193 0.74727 0.86602
 C888 C 0.15064 0.74599 0.88542
 H889 H 0.07471 0.76617 0.95533
 H890 H 0.03474 0.71597 0.89376
 H891 H 0.13334 0.73441 0.80885
 H892 H 0.19278 0.75144 0.87294
 H893 H 0.11715 0.76505 0.92822
 H894 H 0.15557 0.74880 0.90695
 C895 C 0.59938 0.25624 0.39312
 C896 C 0.59933 0.24288 0.41874
 C897 C 0.57544 0.24322 0.43475
 C898 C 0.55159 0.25683 0.42539
 C899 C 0.55278 0.27054 0.40000
 N900 N 0.57617 0.26968 0.38467
 C901 C 0.62307 0.25467 0.37402
 N902 N 0.61811 0.25822 0.34671
 C903 C 0.63836 0.25674 0.32754
 C904 C 0.66579 0.25153 0.33545
 C905 C 0.67154 0.24814 0.36357
 C906 C 0.65026 0.24966 0.38292
 H907 H 0.57530 0.23190 0.45395
 H908 H 0.53506 0.28165 0.39214
 H909 H 0.63292 0.25986 0.30616
 H910 H 0.69243 0.24439 0.37063
 H911 H 0.61700 0.23129 0.42593
 H912 H 0.65524 0.24739 0.40449
 C913 C 0.89922 0.74208 0.10616
 C914 C 0.89803 0.75127 0.07880
 C915 C 0.92205 0.75142 0.06284
 C916 C 0.94756 0.74277 0.07404
 C917 C 0.94727 0.73263 0.10126
 N918 N 0.92370 0.73281 0.11625
 C919 C 0.87545 0.74352 0.12528
 N920 N 0.88081 0.74224 0.15274
 C921 C 0.86071 0.74380 0.17206
 C922 C 0.83296 0.74681 0.16421
 C923 C 0.82677 0.74785 0.13597
 C924 C 0.84791 0.74621 0.11645
 H925 H 0.92069 0.76005 0.04237
 H926 H 0.96555 0.72409 0.11078
 H927 H 0.86655 0.74268 0.19353
 H928 H 0.80564 0.74998 0.12894
 H929 H 0.87920 0.75941 0.06999
 H930 H 0.84253 0.74672 0.09486
 C931 C 0.40528 0.25274 0.60979
 C932 C 0.40509 0.23986 0.58392
 C933 C 0.42881 0.24053 0.56766
 C934 C 0.45274 0.25399 0.57701
 C935 C 0.45182 0.26712 0.60274
 N936 N 0.42858 0.26596 0.61830
 C937 C 0.38156 0.25116 0.62889
 N938 N 0.38649 0.25399 0.65631
 C939 C 0.36608 0.25273 0.67537
 C940 C 0.33853 0.24863 0.66722
 C941 C 0.33288 0.24591 0.63900
 C942 C 0.35429 0.24712 0.61979
 H943 H 0.42874 0.22965 0.54821
 H944 H 0.46959 0.27810 0.61063
 H945 H 0.37146 0.25527 0.69684
 H946 H 0.31193 0.24299 0.63173
 H947 H 0.38732 0.22847 0.57667
 H948 H 0.34935 0.24546 0.59815
 C949 C 0.88885 0.25846 0.90883
 C950 C 0.88224 0.27427 0.93197
 C951 C 0.89959 0.27401 0.95473
 C952 C 0.92402 0.25816 0.95492
 C953 C 0.93072 0.24395 0.93042
 N954 N 0.91307 0.24421 0.90851
 C955 C 0.86943 0.25658 0.88533
 N956 N 0.87908 0.25305 0.85925
 C957 C 0.86183 0.25162 0.83706
 C958 C 0.83307 0.25364 0.84058
 C959 C 0.82288 0.25670 0.86742
 C960 C 0.84084 0.25806 0.88968
 H961 H 0.89399 0.28705 0.97190
 H962 H 0.94901 0.23129 0.92900
 H963 H 0.87059 0.24894 0.81678
 H964 H 0.80092 0.25802 0.87136
 H965 H 0.86386 0.28695 0.93253
 H966 H 0.83228 0.25988 0.91014
 C967 C 0.38730 0.76236 0.40452
 C968 C 0.38225 0.77941 0.42732
 C969 C 0.39977 0.77823 0.45000
 C970 C 0.42257 0.76043 0.44998
 C971 C 0.42811 0.74522 0.42606
 N972 N 0.41039 0.74629 0.40429
 C973 C 0.36719 0.76035 0.38165
 N974 N 0.37597 0.75368 0.35588
 C975 C 0.35814 0.75082 0.33434
 C976 C 0.32960 0.75429 0.33830
 C977 C 0.32023 0.76077 0.36482
 C978 C 0.33884 0.76378 0.38642
 H979 H 0.39519 0.79078 0.46785
 H980 H 0.44565 0.73140 0.42524
 H981 H 0.36625 0.74562 0.31427
 H982 H 0.29845 0.76355 0.36897
 H983 H 0.36468 0.79319 0.42789
 H984 H 0.33090 0.76809 0.40675
 C985 C 0.10528 0.09792 0.26109
 C986 C 0.07869 0.09869 0.24959
 C987 C 0.06227 0.07497 0.24993
 C988 C 0.07225 0.05014 0.26144
 C989 C 0.09853 0.05102 0.27406
 N990 N 0.11407 0.07426 0.27323
 C991 C 0.12507 0.12111 0.25886
 N992 N 0.15248 0.11538 0.26126
 C993 C 0.17230 0.13501 0.25896
 C994 C 0.16503 0.16260 0.25403
 C995 C 0.13684 0.16914 0.25183
 C996 C 0.11681 0.14850 0.25422
 H997 H 0.04262 0.07586 0.23934
 H998 H 0.10694 0.03341 0.28482
 H999 H 0.19371 0.12896 0.26108
 H1000 H 0.13024 0.19017 0.24822
 H1001 H 0.07102 0.11685 0.23917
 H1002 H 0.09526 0.15414 0.25278
 C1003 C 0.60538 0.60245 0.74696
 C1004 C 0.58355 0.59868 0.76559
 C1005 C 0.56863 0.57396 0.76517
 C1006 C 0.57542 0.55311 0.74627
 C1007 C 0.59685 0.55815 0.72758
 N1008 N 0.61119 0.58212 0.72860
 C1009 C 0.62393 0.62662 0.74771
 N1010 N 0.64986 0.62332 0.73760
 C1011 C 0.66877 0.64387 0.73764
 C1012 C 0.66205 0.66994 0.74820
 C1013 C 0.63520 0.67421 0.75819
 C1014 C 0.61607 0.65251 0.75813
 H1015 H 0.55240 0.57083 0.78013
 H1016 H 0.60240 0.54298 0.71222
 H1017 H 0.68906 0.63974 0.72930
 H1018 H 0.62918 0.69409 0.76636
 H1019 H 0.57870 0.61406 0.78095
 H1020 H 0.59545 0.65611 0.76584
 C1021 C 0.90295 0.10507 0.76450
 C1022 C 0.90163 0.07738 0.75617
 C1023 C 0.92568 0.06137 0.75605
 C1024 C 0.95135 0.07284 0.76383
 C1025 C 0.95113 0.10025 0.77354
 N1026 N 0.92754 0.11531 0.77330
 C1027 C 0.87935 0.12447 0.76232
 N1028 N 0.88503 0.15192 0.76320
 C1029 C 0.86524 0.17155 0.76080
 C1030 C 0.83744 0.16409 0.75728
 C1031 C 0.83089 0.13587 0.75658
 C1032 C 0.85175 0.11599 0.75909
 H1033 H 0.92423 0.04067 0.74789
 H1034 H 0.96957 0.10996 0.78152
 H1035 H 0.87139 0.19298 0.76174
 H1036 H 0.80971 0.12916 0.75416
 H1037 H 0.88269 0.06838 0.74853
 H1038 H 0.84610 0.09444 0.75880
 C1039 C 0.39925 0.60502 0.25953
 C1040 C 0.39902 0.57893 0.24696
 C1041 C 0.42311 0.56306 0.24685
 C1042 C 0.44738 0.57309 0.25915
 C1043 C 0.44639 0.59879 0.27234
 N1044 N 0.42284 0.61395 0.27193
 C1045 C 0.37560 0.62429 0.25795
 N1046 N 0.38082 0.65162 0.26130
 C1047 C 0.36079 0.67108 0.25960
 C1048 C 0.33331 0.66350 0.25428
 C1049 C 0.32725 0.63535 0.25115
 C1050 C 0.34832 0.61567 0.25294
 H1051 H 0.42310 0.54350 0.23610
 H1052 H 0.46447 0.60712 0.28248
 H1053 H 0.36649 0.69246 0.26251
 H1054 H 0.30630 0.62855 0.24729
 H1055 H 0.38100 0.57127 0.23625
 H1056 H 0.34312 0.59411 0.25077
 C1057 C 0.10089 0.89156 0.75208
 C1058 C 0.10050 0.91690 0.76603
 C1059 C 0.07648 0.93304 0.76564
 C1060 C 0.05253 0.92401 0.75157
 C1061 C 0.05446 0.89867 0.73737
 N1062 N 0.07794 0.88350 0.73818
 C1063 C 0.12463 0.87226 0.75272
 N1064 N 0.11964 0.84543 0.74629
 C1065 C 0.13970 0.82593 0.74616
 C1066 C 0.16707 0.83291 0.75264
 C1067 C 0.17296 0.86057 0.75900
 C1068 C 0.15180 0.88032 0.75913
 H1069 H 0.07654 0.95182 0.77761
 H1070 H 0.03774 0.89099 0.72477
 H1071 H 0.13410 0.80498 0.74090
 H1072 H 0.19381 0.86689 0.76407
 H1073 H 0.11807 0.92388 0.77789
 H1074 H 0.15684 0.90152 0.76381
 C1075 C 0.60160 0.39436 0.25966
 C1076 C 0.60049 0.41958 0.24552
 C1077 C 0.57632 0.43526 0.24638
 C1078 C 0.55335 0.42591 0.26131
 C1079 C 0.55580 0.40118 0.27606
 N1080 N 0.57934 0.38612 0.27458
 C1081 C 0.62506 0.37511 0.25707
 N1082 N 0.62001 0.34782 0.26088
 C1083 C 0.63997 0.32840 0.25863
 C1084 C 0.66721 0.33602 0.25240
 C1085 C 0.67309 0.36412 0.24866
 C1086 C 0.65204 0.38375 0.25087
 H1087 H 0.57516 0.45403 0.23438
 H1088 H 0.53880 0.39345 0.28825
 H1089 H 0.63449 0.30705 0.26211
 H1090 H 0.69388 0.37091 0.24410
 H1091 H 0.61746 0.42653 0.23286
 H1092 H 0.65700 0.40534 0.24826
 C1093 C 0.88840 0.90409 0.24221
 C1094 C 0.88175 0.92592 0.22463
 C1095 C 0.89876 0.94890 0.22346
 C1096 C 0.92279 0.95070 0.23984
 C1097 C 0.92964 0.92728 0.25587
 N1098 N 0.91235 0.90509 0.25688
 C1099 C 0.86877 0.88104 0.24581
 N1100 N 0.87781 0.85448 0.24772
 C1101 C 0.85992 0.83279 0.24957
 C1102 C 0.83122 0.83739 0.24955
 C1103 C 0.82182 0.86478 0.24856
 C1104 C 0.84039 0.88646 0.24672
 H1105 H 0.89312 0.96499 0.20910
 H1106 H 0.94765 0.92706 0.26901
 H1107 H 0.86809 0.81204 0.25058
 H1108 H 0.79999 0.86961 0.24881
 H1109 H 0.86338 0.92531 0.21189
 H1110 H 0.83255 0.90736 0.24596
 C1111 C 0.39820 0.39699 0.76170
 C1112 C 0.42337 0.39673 0.74737
 C1113 C 0.43930 0.42072 0.74621
 C1114 C 0.43024 0.44490 0.75927
 C1115 C 0.40569 0.44383 0.77450
 N1116 N 0.39037 0.42042 0.77498
 C1117 C 0.37845 0.37376 0.76063
 N1118 N 0.35122 0.37942 0.76448
 C1119 C 0.33133 0.35982 0.76266
 C1120 C 0.33836 0.33241 0.75663
 C1121 C 0.36640 0.32586 0.75320
 C1122 C 0.38651 0.34647 0.75513
 H1123 H 0.45792 0.42076 0.73393
 H1124 H 0.39821 0.46184 0.78531
 H1125 H 0.31004 0.36579 0.76585
 H1126 H 0.37275 0.30494 0.74870
 H1127 H 0.43004 0.37882 0.73592
 H1128 H 0.40798 0.34096 0.75251
 C1129 C 0.10626 0.25620 0.89921
 C1130 C 0.08018 0.24347 0.89888
 C1131 C 0.06442 0.24285 0.92296
 C1132 C 0.07460 0.25479 0.94726
 C1133 C 0.10018 0.26829 0.94633
 N1134 N 0.11522 0.26835 0.92283
 C1135 C 0.12556 0.25504 0.87566
 N1136 N 0.15293 0.25833 0.88100
 C1137 C 0.17245 0.25708 0.86110
 C1138 C 0.16490 0.25237 0.83360
 C1139 C 0.13672 0.24928 0.82741
 C1140 C 0.11697 0.25055 0.84837
 H1141 H 0.04488 0.23199 0.92291
 H1142 H 0.10856 0.27823 0.96445
 H1143 H 0.19385 0.25987 0.86691
 H1144 H 0.12995 0.24579 0.80645
 H1145 H 0.07250 0.23301 0.88078
 H1146 H 0.09538 0.24839 0.84310
 C1147 C 0.60588 0.74828 0.40111
 C1148 C 0.58319 0.73042 0.40373
 C1149 C 0.56715 0.73129 0.42767
 C1150 C 0.57364 0.74994 0.44885
 C1151 C 0.59607 0.76785 0.44493
 N1152 N 0.61148 0.76637 0.42174
 C1153 C 0.62506 0.74734 0.37751
 N1154 N 0.65154 0.75570 0.38172
 C1155 C 0.67067 0.75594 0.36140
 C1156 C 0.66352 0.74780 0.33461
 C1157 C 0.63621 0.73937 0.32958
 C1158 C 0.61693 0.73896 0.35102
 H1159 H 0.55023 0.71689 0.42990
 H1160 H 0.60148 0.78305 0.46032
 H1161 H 0.69138 0.76283 0.36621
 H1162 H 0.62984 0.73296 0.30920
 H1163 H 0.57843 0.71534 0.38802
 H1164 H 0.59592 0.73270 0.34675
 C1165 C 0.90123 0.75564 0.89141
 C1166 C 0.90145 0.76828 0.91737
 C1167 C 0.92547 0.76743 0.93346
 C1168 C 0.94958 0.75416 0.92380
 C1169 C 0.94799 0.74164 0.89760
 N1170 N 0.92447 0.74281 0.88254
 C1171 C 0.87720 0.75622 0.87254
 N1172 N 0.88190 0.75080 0.84551
 C1173 C 0.86146 0.75022 0.82645
 C1174 C 0.83397 0.75507 0.83415
 C1175 C 0.82842 0.76055 0.86199
 C1176 C 0.84997 0.76117 0.88126
 H1177 H 0.92517 0.77832 0.95285
 H1178 H 0.96493 0.72986 0.88922
 H1179 H 0.86683 0.74579 0.80531
 H1180 H 0.80751 0.76437 0.86885
 H1181 H 0.88366 0.77937 0.92499
 H1182 H 0.84517 0.76497 0.90264
 C1183 C 0.40082 0.24372 0.39484
 C1184 C 0.40108 0.25797 0.42002
 C1185 C 0.42518 0.25824 0.43594
 C1186 C 0.44898 0.24442 0.42687
 C1187 C 0.44747 0.22964 0.40210
 N1188 N 0.42394 0.22993 0.38687
 C1189 C 0.37718 0.24479 0.37548
 N1190 N 0.38224 0.23965 0.34846
 C1191 C 0.36222 0.24059 0.32894
 C1192 C 0.33486 0.24690 0.33610
 C1193 C 0.32894 0.25194 0.36393
 C1194 C 0.35003 0.25095 0.38368
 H1195 H 0.42555 0.27022 0.45473
 H1196 H 0.46511 0.21826 0.39455
 H1197 H 0.36781 0.23627 0.30783
 H1198 H 0.30810 0.25672 0.37041
 H1199 H 0.38345 0.26978 0.42687
 H1200 H 0.34494 0.25461 0.40502
 C1201 C 0.09812 0.75228 0.10568
 C1202 C 0.09558 0.77027 0.08316
 C1203 C 0.07113 0.77032 0.06771
 C1204 C 0.04935 0.75250 0.07468
 C1205 C 0.05309 0.73455 0.09701
 N1206 N 0.07683 0.73508 0.11179
 C1207 C 0.12217 0.75233 0.12443
 N1208 N 0.11818 0.74305 0.15049
 C1209 C 0.13865 0.74234 0.16949
 C1210 C 0.16536 0.75115 0.16270
 C1211 C 0.17031 0.76031 0.13575
 C1212 C 0.14869 0.76107 0.11653
 H1213 H 0.06903 0.78471 0.05081
 H1214 H 0.03716 0.72002 0.10277
 H1215 H 0.13394 0.73480 0.18990
 H1216 H 0.19067 0.76722 0.12971
 H1217 H 0.11177 0.78474 0.07804
 H1218 H 0.15283 0.76805 0.09582
 C1219 C 0.60468 0.24321 0.60442
 C1220 C 0.60357 0.25766 0.57940
 C1221 C 0.57904 0.25776 0.56415
 C1222 C 0.55567 0.24352 0.57370
 C1223 C 0.55805 0.22854 0.59827
 N1224 N 0.58197 0.22903 0.61287
 C1225 C 0.62865 0.24473 0.62333
 N1226 N 0.62404 0.23965 0.65042
 C1227 C 0.64422 0.24128 0.66968
 C1228 C 0.67131 0.24834 0.66220
 C1229 C 0.67687 0.25314 0.63427
 C1230 C 0.65557 0.25145 0.61475
 H1231 H 0.57802 0.26992 0.54549
 H1232 H 0.54079 0.21683 0.60617
 H1233 H 0.63895 0.23696 0.69087
 H1234 H 0.69752 0.25843 0.62760
 H1235 H 0.62084 0.26978 0.57223
 H1236 H 0.66028 0.25510 0.59332
 C1237 C 0.89732 0.26019 0.10340
 C1238 C 0.92159 0.24439 0.10180
 C1239 C 0.93786 0.24580 0.07813
 C1240 C 0.93005 0.26294 0.05616
 C1241 C 0.90648 0.27947 0.05930
 N1242 N 0.89074 0.27738 0.08226
 C1243 C 0.87730 0.25711 0.12608
 N1244 N 0.85024 0.26253 0.12075
 C1245 C 0.83027 0.25995 0.14011
 C1246 C 0.83709 0.25173 0.16695
 C1247 C 0.86493 0.24624 0.17306
 C1248 C 0.88508 0.24880 0.15267
 H1249 H 0.95568 0.23243 0.07641
 H1250 H 0.89998 0.29335 0.04309
 H1251 H 0.80916 0.26472 0.13453
 H1252 H 0.87113 0.24000 0.19355
 H1253 H 0.92720 0.23000 0.11787
 H1254 H 0.90644 0.24481 0.15786
 C1255 C 0.39072 0.74344 0.59883
 C1256 C 0.41405 0.72638 0.59626
 C1257 C 0.43013 0.72786 0.57239
 C1258 C 0.42302 0.74629 0.55122
 C1259 C 0.39995 0.76340 0.55508
 N1260 N 0.38454 0.76135 0.57822
 C1261 C 0.37157 0.74193 0.62241
 N1262 N 0.34492 0.74978 0.61826
 C1263 C 0.32584 0.74972 0.63862
 C1264 C 0.33324 0.74182 0.66541
 C1265 C 0.36069 0.73379 0.67034
 C1266 C 0.37991 0.73367 0.64886
 H1267 H 0.44759 0.71410 0.57018
 H1268 H 0.39404 0.77841 0.53968
 H1269 H 0.30500 0.75626 0.63386
 H1270 H 0.36727 0.72755 0.69072
 H1271 H 0.41931 0.71147 0.61197
 H1272 H 0.40105 0.72782 0.65311
 C1273 C 0.24579 0.10730 0.90174
 C1274 C 0.23446 0.08067 0.90150
 C1275 C 0.23582 0.06436 0.92529
 C1276 C 0.24829 0.07447 0.94961
 C1277 C 0.25973 0.10126 0.94838
 N1278 N 0.25805 0.11653 0.92512
 C1279 C 0.24458 0.12644 0.87800
 N1280 N 0.24821 0.15378 0.88309
 C1281 C 0.24847 0.17305 0.86289
 C1282 C 0.24531 0.16526 0.83525
 C1283 C 0.24149 0.13713 0.82935
 C1284 C 0.24106 0.11765 0.85065
 H1285 H 0.22590 0.04441 0.92465
 H1286 H 0.27102 0.11003 0.96547
 H1287 H 0.25153 0.19441 0.86855
 H1288 H 0.23901 0.13016 0.80833
 H1289 H 0.22396 0.07269 0.88352
 H1290 H 0.23869 0.09607 0.84558
 C1291 C 0.75480 0.60766 0.40036
 C1292 C 0.74139 0.58197 0.40091
 C1293 C 0.74230 0.56601 0.42488
 C1294 C 0.75648 0.57556 0.44825
 C1295 C 0.77034 0.60091 0.44645
 N1296 N 0.76891 0.61615 0.42307
 C1297 C 0.75271 0.62688 0.37675
 N1298 N 0.75691 0.65419 0.38159
 C1299 C 0.75526 0.67351 0.36148
 C1300 C 0.74925 0.66581 0.33427
 C1301 C 0.74509 0.63770 0.32863
 C1302 C 0.74675 0.61818 0.34979
 H1303 H 0.73101 0.54676 0.42549
 H1304 H 0.78197 0.60887 0.46375
 H1305 H 0.75888 0.69486 0.36685
 H1306 H 0.74057 0.63080 0.30792
 H1307 H 0.72937 0.57469 0.38360
 H1308 H 0.74385 0.59662 0.34490
 C1309 C 0.73665 0.09864 0.11023
 C1310 C 0.72288 0.07494 0.11919
 C1311 C 0.72163 0.05193 0.10227
 C1312 C 0.73397 0.05213 0.07605
 C1313 C 0.74516 0.07742 0.06683
 N1314 N 0.74669 0.09953 0.08411
 C1315 C 0.74188 0.12155 0.12960
 N1316 N 0.74093 0.14830 0.12101
 C1317 C 0.74460 0.16980 0.13878
 C1318 C 0.74943 0.16479 0.16690
 C1319 C 0.75164 0.13730 0.17566
 C1320 C 0.74794 0.11581 0.15721
 H1321 H 0.71085 0.03395 0.10993
 H1322 H 0.75477 0.07910 0.04684
 H1323 H 0.74303 0.19068 0.13109
 H1324 H 0.75588 0.13225 0.19696
 H1325 H 0.71358 0.07397 0.13941
 H1326 H 0.74983 0.09481 0.16455
 C1327 C 0.24088 0.59487 0.60881
 C1328 C 0.22096 0.57404 0.61135
 C1329 C 0.22195 0.55127 0.59406
 C1330 C 0.24254 0.54914 0.57397
 C1331 C 0.26105 0.57120 0.57081
 N1332 N 0.25997 0.59317 0.58831
 C1333 C 0.24225 0.61747 0.62920
 N1334 N 0.25029 0.64328 0.62154
 C1335 C 0.25179 0.66454 0.63988
 C1336 C 0.24536 0.66017 0.66774
 C1337 C 0.23748 0.63358 0.67593
 C1338 C 0.23592 0.61233 0.65686
 H1339 H 0.20681 0.53503 0.59664
 H1340 H 0.27703 0.57041 0.55531
 H1341 H 0.25826 0.68466 0.63276
 H1342 H 0.23246 0.62909 0.69716
 H1343 H 0.20495 0.57511 0.62682
 H1344 H 0.23029 0.59192 0.66390
 C1345 C 0.74236 0.90469 0.89233
 C1346 C 0.75672 0.90538 0.91746
 C1347 C 0.75531 0.92896 0.93394
 C1348 C 0.73960 0.95183 0.92551
 C1349 C 0.72486 0.94985 0.90067
 N1350 N 0.72684 0.92687 0.88486
 C1351 C 0.74479 0.88145 0.87275
 N1352 N 0.74065 0.88660 0.84553
 C1353 C 0.74249 0.86664 0.82604
 C1354 C 0.74852 0.83933 0.83352
 C1355 C 0.75266 0.83342 0.86152
 C1356 C 0.75090 0.85441 0.88118
 H1357 H 0.76736 0.92972 0.95271
 H1358 H 0.71205 0.96671 0.89357
 H1359 H 0.73886 0.87215 0.80476
 H1360 H 0.75724 0.81262 0.86824
 H1361 H 0.76983 0.88848 0.92385
 H1362 H 0.75376 0.84933 0.90267
 C1363 C 0.25049 0.40154 0.38917
 C1364 C 0.26799 0.40409 0.41214
 C1365 C 0.26685 0.42801 0.42826
 C1366 C 0.24829 0.44930 0.42161
 C1367 C 0.23088 0.44555 0.39874
 N1368 N 0.23260 0.42233 0.38328
 C1369 C 0.25151 0.37766 0.37021
 N1370 N 0.24341 0.38156 0.34367
 C1371 C 0.24332 0.36093 0.32481
 C1372 C 0.25138 0.33415 0.33231
 C1373 C 0.25950 0.32947 0.35968
 C1374 C 0.25973 0.35119 0.37867
 H1375 H 0.28094 0.43010 0.44545
 H1376 H 0.21580 0.46102 0.39312
 H1377 H 0.23669 0.36548 0.30402
 H1378 H 0.26587 0.30912 0.36634
 H1379 H 0.28295 0.38830 0.41715
 H1380 H 0.26576 0.34712 0.39972
 C1381 C 0.25978 0.88943 0.09567
 C1382 C 0.28105 0.88714 0.07628
 C1383 C 0.28089 0.90394 0.05313
 C1384 C 0.25971 0.92326 0.04915
 C1385 C 0.23967 0.92615 0.06983
 N1386 N 0.24004 0.90918 0.09221
 C1387 C 0.25783 0.86953 0.11864
 N1388 N 0.24851 0.87765 0.14382
 C1389 C 0.24657 0.85976 0.16540
 C1390 C 0.25382 0.83188 0.16203
 C1391 C 0.26301 0.82322 0.13608
 C1392 C 0.26505 0.84185 0.11450
 H1393 H 0.29721 0.90162 0.03811
 H1394 H 0.22315 0.94102 0.06764
 H1395 H 0.23911 0.86722 0.18501
 H1396 H 0.26878 0.80197 0.13238
 H1397 H 0.29751 0.87224 0.07877
 H1398 H 0.27179 0.83448 0.09459
 C1399 C 0.77071 0.39081 0.59634
 C1400 C 0.78817 0.38635 0.57375
 C1401 C 0.78689 0.40404 0.55121
 C1402 C 0.76855 0.42640 0.55117
 C1403 C 0.75296 0.43141 0.57498
 N1404 N 0.75416 0.41354 0.59657
 C1405 C 0.76869 0.37043 0.61896
 N1406 N 0.76126 0.37878 0.64467
 C1407 C 0.75823 0.36071 0.66593
 C1408 C 0.76228 0.33231 0.66174
 C1409 C 0.76957 0.32335 0.63528
 C1410 C 0.77278 0.34222 0.61397
 H1411 H 0.79970 0.39982 0.53346
 H1412 H 0.73867 0.44855 0.57576
 H1413 H 0.75239 0.36851 0.68595
 H1414 H 0.77282 0.30168 0.63096
 H1415 H 0.80230 0.36908 0.57316
 H1416 H 0.77772 0.33457 0.59366
 C1417 C 0.09634 0.11047 0.74002
 C1418 C 0.07280 0.11540 0.72383
 C1419 C 0.05025 0.09774 0.72574
 C1420 C 0.05117 0.07496 0.74344
 C1421 C 0.07579 0.06953 0.75773
 N1422 N 0.09740 0.08738 0.75596
 C1423 C 0.11914 0.13070 0.74137
 N1424 N 0.14529 0.12210 0.74726
 C1425 C 0.16681 0.14005 0.74953
 C1426 C 0.16246 0.16852 0.74622
 C1427 C 0.13555 0.17770 0.74057
 C1428 C 0.11397 0.15898 0.73817
 H1429 H 0.03182 0.10222 0.71390
 H1430 H 0.07728 0.05199 0.77142
 H1431 H 0.18719 0.13209 0.75410
 H1432 H 0.13107 0.19942 0.73797
 H1433 H 0.07154 0.13297 0.71017
 H1434 H 0.09335 0.16677 0.73450
 C1435 C 0.59467 0.60911 0.23838
 C1436 C 0.57159 0.61417 0.22154
 C1437 C 0.54866 0.59695 0.22317
 C1438 C 0.54874 0.57440 0.24118
 C1439 C 0.57296 0.56882 0.25616
 N1440 N 0.59493 0.58627 0.25468
 C1441 C 0.61762 0.62918 0.24017
 N1442 N 0.64371 0.62055 0.24640
 C1443 C 0.66524 0.63851 0.24905
 C1444 C 0.66092 0.66699 0.24582
 C1445 C 0.63405 0.67613 0.23983
 C1446 C 0.61252 0.65745 0.23702
 H1447 H 0.53063 0.60155 0.21077
 H1448 H 0.57385 0.55148 0.27015
 H1449 H 0.68558 0.63057 0.25384
 H1450 H 0.62951 0.69784 0.23722
 H1451 H 0.57096 0.63158 0.20763
 H1452 H 0.59196 0.66527 0.23309
 C1453 C 0.10825 0.90261 0.25349
 C1454 C 0.11038 0.92169 0.27504
 C1455 C 0.09315 0.94457 0.27540
 C1456 C 0.07370 0.94859 0.25437
 C1457 C 0.07103 0.92817 0.23403
 N1458 N 0.08834 0.90602 0.23394
 C1459 C 0.12855 0.88009 0.25100
 N1460 N 0.12053 0.85455 0.24249
 C1461 C 0.13874 0.83320 0.24050
 C1462 C 0.16677 0.83721 0.24695
 C1463 C 0.17535 0.86363 0.25505
 C1464 C 0.15640 0.88497 0.25714
 H1465 H 0.09536 0.95946 0.29187
 H1466 H 0.05611 0.93044 0.21757
 H1467 H 0.13134 0.81320 0.23391
 H1468 H 0.19672 0.86780 0.26019
 H1469 H 0.12554 0.91917 0.29126
 H1470 H 0.16354 0.90522 0.26328
 C1471 C 0.61504 0.40582 0.73159
 C1472 C 0.61952 0.42882 0.71461
 C1473 C 0.60177 0.45137 0.71619
 C1474 C 0.57934 0.45107 0.73437
 C1475 C 0.57450 0.42701 0.74969
 N1476 N 0.59238 0.40538 0.74815
 C1477 C 0.63516 0.38281 0.73293
 N1478 N 0.62656 0.35713 0.74041
 C1479 C 0.64437 0.33552 0.74305
 C1480 C 0.67278 0.33931 0.73860
 C1481 C 0.68199 0.36566 0.73101
 C1482 C 0.66338 0.38734 0.72818
 H1483 H 0.60583 0.46925 0.70348
 H1484 H 0.55732 0.42591 0.76385
 H1485 H 0.63638 0.31558 0.74906
 H1486 H 0.70368 0.36964 0.72735
 H1487 H 0.63669 0.42961 0.70045
 H1488 H 0.67127 0.40757 0.72311
 C1489 C 0.89177 0.09794 0.22953
 C1490 C 0.88739 0.07690 0.21015
 C1491 C 0.90455 0.05386 0.21014
 C1492 C 0.92626 0.05180 0.22915
 C1493 C 0.93132 0.07426 0.24670
 N1494 N 0.91396 0.09634 0.24671
 C1495 C 0.87160 0.12055 0.23305
 N1496 N 0.88013 0.14567 0.24233
 C1497 C 0.86214 0.16677 0.24694
 C1498 C 0.83368 0.16292 0.24275
 C1499 C 0.82456 0.13705 0.23353
 C1500 C 0.84334 0.11595 0.22865
 H1501 H 0.90033 0.03722 0.19587
 H1502 H 0.94797 0.07350 0.26157
 H1503 H 0.87004 0.18638 0.25409
 H1504 H 0.80285 0.13308 0.22989
 H1505 H 0.87047 0.07785 0.19559
 H1506 H 0.83561 0.09604 0.22217
 C1507 C 0.38850 0.59007 0.73652
 C1508 C 0.38269 0.56617 0.72124
 C1509 C 0.40074 0.54385 0.72242
 C1510 C 0.42478 0.54530 0.73846
 C1511 C 0.43084 0.57020 0.75192
 N1512 N 0.41265 0.59159 0.75088
 C1513 C 0.36832 0.61294 0.73853
 N1514 N 0.37728 0.63902 0.74393
 C1515 C 0.35954 0.66063 0.74691
 C1516 C 0.33088 0.65646 0.74489
 C1517 C 0.32133 0.62964 0.73962
 C1518 C 0.33985 0.60796 0.73648
 H1519 H 0.39567 0.52523 0.71119
 H1520 H 0.44928 0.57215 0.76439
 H1521 H 0.36783 0.68094 0.75103
 H1522 H 0.29945 0.62530 0.73792
 H1523 H 0.36424 0.56449 0.70876
 H1524 H 0.33176 0.58744 0.73319
 C1525 C 0.90447 0.89138 0.73898
 C1526 C 0.92664 0.88617 0.72115
 C1527 C 0.94988 0.90300 0.72206
 C1528 C 0.95105 0.92522 0.74044
 C1529 C 0.92767 0.93098 0.75652
 N1530 N 0.90534 0.91394 0.75564
 C1531 C 0.88130 0.87170 0.74129
 N1532 N 0.85547 0.88079 0.74772
 C1533 C 0.83369 0.86320 0.75051
 C1534 C 0.83749 0.83465 0.74720
 C1535 C 0.86412 0.82502 0.74112
 C1536 C 0.88592 0.84334 0.73817
 H1537 H 0.96723 0.89829 0.70885
 H1538 H 0.92774 0.94809 0.77081
 H1539 H 0.81353 0.87149 0.75538
 H1540 H 0.86822 0.80323 0.73845
 H1541 H 0.92631 0.86894 0.70700
 H1542 H 0.90631 0.83523 0.73402
 C1543 C 0.40330 0.38912 0.25244
 C1544 C 0.40490 0.41239 0.23528
 C1545 C 0.42860 0.42887 0.23588
 C1546 C 0.45064 0.42222 0.25351
 C1547 C 0.44792 0.39902 0.27058
 N1548 N 0.42484 0.38324 0.26944
 C1549 C 0.37970 0.36980 0.25182
 N1550 N 0.38416 0.34326 0.25973
 C1551 C 0.36385 0.32400 0.25980
 C1552 C 0.33691 0.33105 0.25177
 C1553 C 0.33163 0.35845 0.24399
 C1554 C 0.35297 0.37787 0.24390
 H1555 H 0.42996 0.44631 0.22206
 H1556 H 0.46413 0.39338 0.28487
 H1557 H 0.36884 0.30322 0.26624
 H1558 H 0.31111 0.36481 0.23777
 H1559 H 0.38853 0.41739 0.22095
 H1560 H 0.34842 0.39892 0.23812
   
