data_POSCAR
  _audit_creation_date              2014-09-24
  _audit_creation_method            'ToBaCCo'
  _symmetry_space_group_name_H-M    'P1'
  _symmetry_Int_Tables_number       1
  _symmetry_cell_setting            triclinic
  loop_
  _symmetry_equiv_pos_as_xyz
 x,y,z
_cell_length_a 93.5488
_cell_length_b 93.4119
_cell_length_c 93.5438
_cell_angle_alpha 90.059000
_cell_angle_beta 90.049500
_cell_angle_gamma 90.041600
loop_
  _atom_site_label
  _atom_site_type_symbol
  _atom_site_fract_x
  _atom_site_fract_y
  _atom_site_fract_z
N1 N 0.31070 0.42862 0.89973
 N2 N 0.32040 0.43879 0.89961
 C3 C 0.31790 0.44751 0.88841
 C4 C 0.30595 0.44256 0.88111
 C5 C 0.30172 0.43051 0.88866
 H6 H 0.32424 0.45683 0.88588
 H7 H 0.29274 0.42360 0.88636
 Cu8 Cu 0.33523 0.43977 0.91423
 Cu9 Cu 0.31024 0.41378 0.91431
 Cu10 Cu 0.33698 0.41459 0.93990
 N11 N 0.35042 0.43976 0.92851
 N12 N 0.35104 0.42985 0.93843
 C13 C 0.36238 0.43236 0.94692
 C14 C 0.36936 0.44459 0.94214
 C15 C 0.36138 0.44894 0.93036
 H16 H 0.36514 0.42577 0.95598
 H17 H 0.36330 0.45812 0.92362
 N18 N 0.32179 0.39999 0.93964
 N19 N 0.31158 0.39970 0.92993
 C20 C 0.30269 0.38874 0.93281
 C21 C 0.30750 0.38174 0.94496
 C22 C 0.31968 0.38921 0.94895
 H23 H 0.29329 0.38619 0.92659
 H24 H 0.32648 0.38705 0.95803
 H25 H 0.32036 0.42542 0.93014
 H26 H 0.33197 0.41422 0.91834
 N27 N 0.42903 0.85073 0.43904
 N28 N 0.43888 0.85107 0.42905
 C29 C 0.44761 0.86230 0.43148
 C30 C 0.44305 0.86939 0.44375
 C31 C 0.43117 0.86164 0.44819
 H32 H 0.45669 0.86493 0.42487
 H33 H 0.42449 0.86367 0.45737
 Cu34 Cu 0.43947 0.83651 0.41410
 Cu35 Cu 0.41413 0.83619 0.43956
 Cu36 Cu 0.41443 0.81065 0.41269
 N37 N 0.43939 0.82217 0.39894
 N38 N 0.42958 0.81211 0.39849
 C39 C 0.43209 0.80350 0.38724
 C40 C 0.44417 0.80836 0.38016
 C41 C 0.44848 0.82028 0.38793
 H42 H 0.42567 0.79425 0.38459
 H43 H 0.45760 0.82705 0.38580
 N44 N 0.40000 0.81097 0.42803
 N45 N 0.39992 0.82066 0.43828
 C46 C 0.38898 0.81790 0.44721
 C47 C 0.38179 0.80585 0.44239
 C48 C 0.38912 0.80178 0.43017
 H49 H 0.38658 0.82410 0.45665
 H50 H 0.38673 0.79277 0.42332
 H51 H 0.42552 0.82038 0.42910
 H52 H 0.41404 0.83218 0.41778
 N53 N 0.92939 0.90049 0.81017
 N54 N 0.93954 0.90061 0.81989
 C55 C 0.94853 0.88961 0.81736
 C56 C 0.94376 0.88221 0.80538
 C57 C 0.93155 0.88947 0.80118
 H58 H 0.95795 0.88733 0.82364
 H59 H 0.92473 0.88706 0.79217
 Cu60 Cu 0.94019 0.91550 0.83453
 Cu61 Cu 0.91433 0.91482 0.80941
 Cu62 Cu 0.91491 0.94105 0.83552
 N63 N 0.94005 0.93013 0.84945
 N64 N 0.93018 0.94011 0.84957
 C65 C 0.93261 0.94911 0.86052
 C66 C 0.94473 0.94462 0.86782
 C67 C 0.94912 0.93243 0.86044
 H68 H 0.92596 0.95824 0.86286
 H69 H 0.95832 0.92583 0.86270
 N70 N 0.90028 0.94024 0.82042
 N71 N 0.90002 0.93026 0.81045
 C72 C 0.88888 0.93274 0.80166
 C73 C 0.88174 0.94489 0.80630
 C74 C 0.88932 0.94931 0.81825
 H75 H 0.88629 0.92625 0.79245
 H76 H 0.88706 0.95847 0.82492
 H77 H 0.92583 0.93092 0.81917
 H78 H 0.91466 0.91934 0.83102
 N79 N 0.42804 -0.10069 0.31068
 N80 N 0.43832 -0.10055 0.32026
 C81 C 0.44737 -0.11143 0.31758
 C82 C 0.44250 -0.11882 0.30565
 C83 C 0.43018 -0.11164 0.30160
 H84 H 0.45683 -0.11372 0.32378
 H85 H 0.42325 -0.11413 0.29269
 Cu86 Cu 0.43853 -0.08615 0.33528
 Cu87 Cu 0.41278 -0.08647 0.31036
 Cu88 Cu 0.41539 -0.05891 0.33517
 N89 N 0.43873 -0.07183 0.35039
 N90 N 0.42948 -0.06125 0.35032
 C91 C 0.43195 -0.05269 0.36162
 C92 C 0.44343 -0.05815 0.36925
 C93 C 0.44742 -0.07035 0.36178
 H94 H 0.42602 -0.04303 0.36386
 H95 H 0.45605 -0.07757 0.36436
 N96 N 0.39974 -0.06034 0.32115
 N97 N 0.39864 -0.07089 0.31182
 C98 C 0.38698 -0.06873 0.30367
 C99 C 0.38035 -0.05620 0.30807
 C100 C 0.38877 -0.05124 0.31923
 H101 H 0.38371 -0.07567 0.29503
 H102 H 0.38715 -0.04164 0.32546
 H103 H 0.42514 -0.07075 0.31902
 H104 H 0.41344 -0.08061 0.33182
 N105 N 0.81055 0.32131 0.35049
 N106 N 0.82019 0.31111 0.35026
 C107 C 0.81766 0.30202 0.36114
 C108 C 0.80572 0.30675 0.36857
 C109 C 0.80156 0.31907 0.36147
 H110 H 0.82387 0.29252 0.36331
 H111 H 0.79259 0.32590 0.36399
 Cu112 Cu 0.83483 0.31057 0.33548
 Cu113 Cu 0.80994 0.33644 0.33627
 Cu114 Cu 0.83608 0.33615 0.31006
 N115 N 0.84975 0.31086 0.32101
 N116 N 0.85018 0.32080 0.31110
 C117 C 0.86138 0.31830 0.30242
 C118 C 0.86840 0.30609 0.30712
 C119 C 0.86068 0.30171 0.31899
 H120 H 0.86405 0.32481 0.29327
 H121 H 0.86280 0.29253 0.32566
 N122 N 0.82085 0.35076 0.31094
 N123 N 0.81100 0.35085 0.32101
 C124 C 0.80205 0.36187 0.31872
 C125 C 0.80638 0.36914 0.30658
 C126 C 0.81840 0.36178 0.30195
 H127 H 0.79299 0.36435 0.32542
 H128 H 0.82477 0.36411 0.29261
 H129 H 0.81980 0.32514 0.31994
 H130 H 0.83167 0.33618 0.33165
 N131 N -0.17898 0.85018 0.80928
 N132 N -0.18890 0.85047 0.81919
 C133 C -0.19753 0.86177 0.81687
 C134 C -0.19285 0.86900 0.80474
 C135 C -0.18099 0.86122 0.80027
 H136 H -0.20660 0.86439 0.82349
 H137 H -0.17425 0.86336 0.79116
 Cu138 Cu -0.18961 0.83590 0.83410
 Cu139 Cu -0.16415 0.83554 0.80875
 Cu140 Cu -0.16507 0.80965 0.83526
 N141 N -0.19006 0.82119 0.84888
 N142 N -0.18040 0.81100 0.84925
 C143 C -0.18325 0.80216 0.86024
 C144 C -0.19539 0.80702 0.86723
 C145 C -0.19937 0.81918 0.85968
 H146 H -0.17703 0.79277 0.86279
 H147 H -0.20840 0.82604 0.86182
 N148 N -0.15038 0.81005 0.82015
 N149 N -0.15006 0.81986 0.81002
 C150 C -0.13900 0.81709 0.80123
 C151 C -0.13198 0.80492 0.80601
 C152 C -0.13955 0.80080 0.81806
 H153 H -0.13637 0.82341 0.79194
 H154 H -0.13739 0.79168 0.82482
 H155 H -0.17578 0.81985 0.81890
 H156 H -0.16420 0.83122 0.83036
 N157 N 0.93973 0.35051 0.42815
 N158 N 0.92961 0.35092 0.43787
 C159 C 0.93199 0.36213 0.44664
 C160 C 0.94437 0.36914 0.44224
 C161 C 0.94891 0.36135 0.43042
 H162 H 0.92532 0.36476 0.45568
 H163 H 0.95819 0.36333 0.42385
 Cu164 Cu 0.91473 0.33632 0.43818
 Cu165 Cu 0.94037 0.33598 0.41318
 Cu166 Cu 0.91374 0.31009 0.41374
 N167 N 0.89993 0.32165 0.43870
 N168 N 0.89968 0.31141 0.42906
 C169 C 0.88883 0.30242 0.43194
 C170 C 0.88183 0.30720 0.44410
 C171 C 0.88920 0.31948 0.44807
 H172 H 0.88645 0.29292 0.42579
 H173 H 0.88703 0.32627 0.45716
 N174 N 0.92893 0.31063 0.39914
 N175 N 0.93910 0.32042 0.39896
 C176 C 0.94787 0.31781 0.38785
 C177 C 0.94304 0.30576 0.38066
 C178 C 0.93098 0.30153 0.38816
 H179 H 0.95720 0.32413 0.38531
 H180 H 0.92417 0.29249 0.38581
 H181 H 0.91872 0.33163 0.41285
 H182 H 0.93005 0.32020 0.42463
 N183 N 0.43881 0.42768 0.85050
 N184 N 0.42919 0.43791 0.85052
 C185 C 0.43173 0.44672 0.86164
 C186 C 0.44364 0.44178 0.86899
 C187 C 0.44779 0.42963 0.86156
 H188 H 0.42546 0.45611 0.86407
 H189 H 0.45674 0.42272 0.86391
 Cu190 Cu 0.41444 0.43885 0.83587
 Cu191 Cu 0.43921 0.41274 0.83602
 Cu192 Cu 0.41261 0.41351 0.81027
 N193 N 0.39933 0.43880 0.82158
 N194 N 0.39868 0.42890 0.81163
 C195 C 0.38739 0.43150 0.80311
 C196 C 0.38051 0.44372 0.80796
 C197 C 0.38843 0.44802 0.81975
 H198 H 0.38453 0.42500 0.79399
 H199 H 0.38649 0.45722 0.82648
 N200 N 0.42769 0.39882 0.81074
 N201 N 0.43783 0.39855 0.82053
 C202 C 0.44657 0.38741 0.81788
 C203 C 0.44173 0.38028 0.80581
 C204 C 0.42970 0.38786 0.80161
 H205 H 0.45587 0.38482 0.82421
 H206 H 0.42291 0.38562 0.79254
 H207 H 0.42920 0.42432 0.82002
 H208 H 0.41744 0.41326 0.83182
 N209 N 0.81101 0.90011 0.92873
 N210 N 0.82106 0.90003 0.93855
 C211 C 0.81854 0.88917 0.94770
 C212 C 0.80623 0.88208 0.94339
 C213 C 0.80180 0.88936 0.93127
 H214 H 0.82505 0.88679 0.95694
 H215 H 0.79253 0.88709 0.92476
 Cu216 Cu 0.83620 0.91436 0.93860
 Cu217 Cu 0.81022 0.91434 0.91358
 Cu218 Cu 0.83655 0.94036 0.91376
 N219 N 0.85069 0.92938 0.93873
 N220 N 0.85072 0.93943 0.92892
 C221 C 0.86150 0.94858 0.93151
 C222 C 0.86870 0.94414 0.94366
 C223 C 0.86153 0.93184 0.94793
 H224 H 0.86380 0.95785 0.92501
 H225 H 0.86385 0.92530 0.95717
 N226 N 0.82134 0.93956 0.89928
 N227 N 0.81128 0.92967 0.89918
 C228 C 0.80239 0.93217 0.88812
 C229 C 0.80706 0.94425 0.88090
 C230 C 0.81913 0.94860 0.88831
 H231 H 0.79308 0.92578 0.88566
 H232 H 0.82585 0.95769 0.88593
 H233 H 0.83182 0.91868 0.91324
 H234 H 0.82049 0.93012 0.92506
 N235 N 0.31037 0.85002 0.32009
 N236 N 0.32107 0.85095 0.31107
 C237 C 0.31914 0.86255 0.30272
 C238 C 0.30648 0.86922 0.30670
 C239 C 0.30129 0.86091 0.31782
 H240 H 0.32629 0.86571 0.29422
 H241 H 0.29149 0.86244 0.32373
 Cu242 Cu 0.33604 0.83644 0.31095
 Cu243 Cu 0.30840 0.83431 0.33353
 Cu244 Cu 0.33644 0.81015 0.33557
 N245 N 0.35060 0.82157 0.31076
 N246 N 0.35080 0.81144 0.32050
 C247 C 0.36185 0.80259 0.31789
 C248 C 0.36902 0.80740 0.30584
 C249 C 0.36153 0.81951 0.30165
 H250 H 0.36428 0.79322 0.32419
 H251 H 0.36385 0.82634 0.29263
 N252 N 0.32067 0.81069 0.34959
 N253 N 0.30998 0.81983 0.34866
 C254 C 0.30079 0.81742 0.35943
 C255 C 0.30579 0.80608 0.36754
 C256 C 0.31849 0.80212 0.36097
 H257 H 0.29112 0.82347 0.36113
 H258 H 0.32552 0.79350 0.36406
 H259 H 0.33024 0.83150 0.33577
 H260 H 0.32100 0.81900 0.32317
 N261 N 0.81107 0.39978 0.42955
 N262 N 0.82110 0.40027 0.43937
 C263 C 0.81905 0.38949 0.44869
 C264 C 0.80702 0.38184 0.44454
 C265 C 0.80228 0.38872 0.43230
 H266 H 0.82577 0.38745 0.45786
 H267 H 0.79300 0.38609 0.42594
 Cu268 Cu 0.83564 0.41516 0.43928
 Cu269 Cu 0.80983 0.41372 0.41418
 Cu270 Cu 0.83600 0.43991 0.41316
 N271 N 0.85052 0.42967 0.43819
 N272 N 0.85057 0.43929 0.42796
 C273 C 0.86178 0.44811 0.42981
 C274 C 0.86923 0.44386 0.44190
 C275 C 0.86174 0.43206 0.44691
 H276 H 0.86422 0.45701 0.42287
 H277 H 0.86413 0.42578 0.45630
 N278 N 0.82038 0.43876 0.39912
 N279 N 0.81042 0.42878 0.39948
 C280 C 0.80125 0.43093 0.38860
 C281 C 0.80561 0.44287 0.38098
 C282 C 0.81780 0.44754 0.38800
 H283 H 0.79206 0.42426 0.38642
 H284 H 0.82426 0.45674 0.38536
 H285 H 0.83147 0.41819 0.41375
 H286 H 0.81995 0.43018 0.42487
 N287 N 0.92923 0.84928 -0.06066
 N288 N 0.93982 0.84844 -0.06984
 C289 C 0.94955 0.85857 -0.06678
 C290 C 0.94485 0.86632 -0.05505
 C291 C 0.93185 0.86008 -0.05147
 H292 H 0.95921 0.86030 -0.07285
 H293 H 0.92475 0.86315 -0.04289
 Cu294 Cu 0.93956 0.83470 -0.08538
 Cu295 Cu 0.91265 0.83662 -0.06192
 Cu296 Cu 0.91745 0.80663 -0.08347
 N297 N 0.93942 0.82004 -0.10007
 N298 N 0.93076 0.80901 -0.09929
 C299 C 0.93352 0.80002 -0.11019
 C300 C 0.94457 0.80573 -0.11829
 C301 C 0.94796 0.81850 -0.11152
 H302 H 0.92818 0.78988 -0.11177
 H303 H 0.95623 0.82599 -0.11449
 N304 N 0.90161 0.80856 -0.06976
 N305 N 0.89965 0.81998 -0.06169
 C306 C 0.88797 0.81796 -0.05354
 C307 C 0.88222 0.80461 -0.05665
 C308 C 0.89119 0.79902 -0.06704
 H309 H 0.88406 0.82564 -0.04584
 H310 H 0.89030 0.78874 -0.07224
 H311 H 0.92590 0.82069 -0.06818
 H312 H 0.91443 0.82817 -0.08269
 N313 N 0.31112 0.35049 0.82011
 N314 N 0.32114 0.34993 0.81029
 C315 C 0.31936 0.36093 0.80117
 C316 C 0.30754 0.36882 0.80545
 C317 C 0.30263 0.36181 0.81756
 H318 H 0.32613 0.36297 0.79206
 H319 H 0.29347 0.36460 0.82400
 Cu320 Cu 0.33540 0.33476 0.81026
 Cu321 Cu 0.30965 0.33639 0.83534
 Cu322 Cu 0.33530 0.30968 0.83607
 N323 N 0.34996 0.31990 0.81110
 N324 N 0.34985 0.31016 0.82122
 C325 C 0.36085 0.30112 0.81922
 C326 C 0.36834 0.30537 0.80716
 C327 C 0.36108 0.31738 0.80232
 H328 H 0.36316 0.29210 0.82606
 H329 H 0.36356 0.32371 0.79299
 N330 N 0.31972 0.31100 0.85017
 N331 N 0.30996 0.32117 0.84989
 C332 C 0.30070 0.31905 0.86069
 C333 C 0.30477 0.30691 0.86817
 C334 C 0.31692 0.30213 0.86115
 H335 H 0.29161 0.32582 0.86287
 H336 H 0.32319 0.29278 0.86371
 H337 H 0.33121 0.33145 0.83576
 H338 H 0.31946 0.31982 0.82449
 N339 N 0.15035 0.57020 0.56046
 N340 N 0.15074 0.56031 0.57042
 C341 C 0.13989 0.55107 0.56831
 C342 C 0.13227 0.55534 0.55633
 C343 C 0.13925 0.56759 0.55167
 H344 H 0.13776 0.54187 0.57496
 H345 H 0.13665 0.57401 0.54242
 Cu346 Cu 0.16566 0.56022 0.58493
 Cu347 Cu 0.16440 0.58562 0.55939
 Cu348 Cu 0.19068 0.58591 0.58552
 N349 N 0.18044 0.56061 0.59961
 N350 N 0.19016 0.57075 0.59970
 C351 C 0.19928 0.56851 0.61057
 C352 C 0.19516 0.55623 0.61776
 C353 C 0.18308 0.55152 0.61049
 H354 H 0.20833 0.57531 0.61292
 H355 H 0.17681 0.54208 0.61276
 N356 N 0.18952 0.60035 0.57033
 N357 N 0.17962 0.60029 0.56029
 C358 C 0.18199 0.61140 0.55139
 C359 C 0.19399 0.61880 0.55607
 C360 C 0.19840 0.61145 0.56813
 H361 H 0.17556 0.61379 0.54211
 H362 H 0.20746 0.61393 0.57484
 H363 H 0.18069 0.57458 0.56920
 H364 H 0.16897 0.58577 0.58088
 N365 N 0.60008 0.68025 0.05993
 N366 N 0.59964 0.69017 0.06986
 C367 C 0.61055 0.69935 0.06789
 C368 C 0.61829 0.69498 0.05602
 C369 C 0.61128 0.68277 0.05127
 H370 H 0.61269 0.70851 0.07460
 H371 H 0.61398 0.67625 0.04213
 Cu372 Cu 0.58472 0.69011 0.08427
 Cu373 Cu 0.58601 0.66490 0.05886
 Cu374 Cu 0.55927 0.66482 0.08464
 N375 N 0.56986 0.69005 0.09872
 N376 N 0.55988 0.68015 0.09883
 C377 C 0.55085 0.68273 0.10973
 C378 C 0.55539 0.69496 0.11686
 C379 C 0.56753 0.69925 0.10955
 H380 H 0.54157 0.67628 0.11212
 H381 H 0.57421 0.70839 0.11189
 N382 N 0.56060 0.65029 0.06935
 N383 N 0.57079 0.65033 0.05960
 C384 C 0.56867 0.63931 0.05057
 C385 C 0.55652 0.63194 0.05475
 C386 C 0.55172 0.63923 0.06674
 H387 H 0.57546 0.63690 0.04156
 H388 H 0.54231 0.63683 0.07298
 H389 H 0.56951 0.67590 0.06859
 H390 H 0.58093 0.66461 0.08038
 N391 N 0.67938 0.18949 0.64975
 N392 N 0.68923 0.17948 0.64985
 C393 C 0.69834 0.18182 0.63892
 C394 C 0.69394 0.19400 0.63161
 C395 C 0.68183 0.19849 0.63885
 H396 H 0.70755 0.17527 0.63658
 H397 H 0.67524 0.20766 0.63644
 Cu398 Cu 0.68908 0.16458 0.66446
 Cu399 Cu 0.66420 0.19053 0.66384
 Cu400 Cu 0.66403 0.16479 0.69038
 N401 N 0.68902 0.15035 0.67972
 N402 N 0.67918 0.15054 0.68973
 C403 C 0.68165 0.13983 0.69899
 C404 C 0.69374 0.13245 0.69464
 C405 C 0.69810 0.13946 0.68230
 H406 H 0.67511 0.13767 0.70825
 H407 H 0.70730 0.13696 0.67579
 N408 N 0.64962 0.18012 0.68917
 N409 N 0.64970 0.18989 0.67901
 C410 C 0.63877 0.19899 0.68117
 C411 C 0.63143 0.19483 0.69332
 C412 C 0.63863 0.18277 0.69808
 H413 H 0.63640 0.20804 0.67439
 H414 H 0.63623 0.17651 0.70748
 H415 H 0.67550 0.18048 0.68001
 H416 H 0.66372 0.16890 0.66873
 N417 N 1.10007 0.07078 0.18968
 N418 N 1.10047 0.06099 0.17960
 C419 C 1.11141 0.05201 0.18221
 C420 C 1.11825 0.05637 0.19463
 C421 C 1.11072 0.06837 0.19903
 H422 H 1.11403 0.04283 0.17568
 H423 H 1.11276 0.07487 0.20837
 Cu424 Cu 1.08642 0.06075 0.16426
 Cu425 Cu 1.08558 0.08570 0.19019
 Cu426 Cu 1.06003 0.08516 0.16336
 N427 N 1.07183 0.06042 0.14944
 N428 N 1.06155 0.06998 0.14917
 C429 C 1.05285 0.06724 0.13805
 C430 C 1.05790 0.05526 0.13088
 C431 C 1.07001 0.05126 0.13847
 H432 H 1.04345 0.07345 0.13552
 H433 H 1.07696 0.04231 0.13623
 N434 N 1.06032 0.09965 0.17867
 N435 N 1.07007 0.09986 0.18886
 C436 C 1.06729 0.11083 0.19778
 C437 C 1.05517 0.11788 0.19302
 C438 C 1.05108 0.11047 0.18085
 H439 H 1.07349 0.11331 0.20721
 H440 H 1.04202 0.11275 0.17406
 H441 H 1.07008 0.07403 0.17958
 H442 H 1.08151 0.08605 0.16845
 N443 N 0.07181 0.14915 1.06064
 N444 N 0.06154 0.14924 1.07021
 C445 C 0.05274 0.13808 1.06774
 C446 C 0.05773 0.13059 1.05595
 C447 C 0.06989 0.13797 1.05177
 H448 H 0.04328 0.13575 1.07393
 H449 H 0.07686 0.13546 1.04291
 Cu450 Cu 0.06051 0.16415 1.08473
 Cu451 Cu 0.08674 0.16367 1.06011
 Cu452 Cu 0.08563 0.18992 1.08624
 N453 N 0.06032 0.17877 1.09958
 N454 N 0.07015 0.18880 1.10008
 C455 C 0.06737 0.19765 1.11108
 C456 C 0.05507 0.19298 1.11791
 C457 C 0.05093 0.18091 1.11028
 H458 H 0.07374 0.20693 1.11372
 H459 H 0.04174 0.17422 1.11230
 N460 N 0.10045 0.18926 1.07131
 N461 N 0.10089 0.17927 1.06135
 C462 C 0.11211 0.18182 1.05270
 C463 C 0.11912 0.19404 1.05741
 C464 C 0.11137 0.19842 1.06926
 H465 H 0.11488 0.17530 1.04358
 H466 H 0.11345 0.20764 1.07592
 H467 H 0.08607 0.16821 1.08174
 H468 H 0.07503 0.17973 1.06970
 N469 N 0.14990 0.68968 0.67844
 N470 N 0.15007 0.68000 0.68861
 C471 C 0.13911 0.68253 0.69762
 C472 C 0.13165 0.69445 0.69282
 C473 C 0.13887 0.69864 0.68058
 H474 H 0.13681 0.67621 0.70700
 H475 H 0.13637 0.70758 0.67371
 Cu476 Cu 0.16478 0.66525 0.68885
 Cu477 Cu 0.16411 0.69023 0.66327
 Cu478 Cu 0.19048 0.66409 0.66372
 N479 N 0.17948 0.65052 0.68909
 N480 N 0.18948 0.65011 0.67924
 C481 C 0.19828 0.63903 0.68194
 C482 C 0.19358 0.63208 0.69418
 C483 C 0.18160 0.63974 0.69838
 H484 H 0.20749 0.63637 0.67551
 H485 H 0.17486 0.63764 0.70750
 N486 N 0.18949 0.67925 0.64898
 N487 N 0.17937 0.68909 0.64886
 C488 C 0.18155 0.69795 0.63776
 C489 C 0.19367 0.69361 0.63046
 C490 C 0.19840 0.68166 0.63791
 H491 H 0.17479 0.70696 0.63524
 H492 H 0.20774 0.67528 0.63556
 H493 H 0.16897 0.66854 0.66333
 H494 H 0.18049 0.68038 0.67455
 N495 N 1.17887 0.15039 0.18998
 N496 N 1.18903 0.15039 0.18029
 C497 C 1.19802 0.13945 0.18293
 C498 C 1.19329 0.13220 0.19497
 C499 C 1.18106 0.13949 0.19911
 H500 H 1.20744 0.13711 0.17669
 H501 H 1.17427 0.13715 0.20814
 Cu502 Cu 1.18975 0.16492 0.16542
 Cu503 Cu 1.16383 0.16477 0.19035
 Cu504 Cu 1.16436 0.19038 0.16359
 N505 N 1.18963 0.17914 0.15023
 N506 N 1.17969 0.18905 0.14958
 C507 C 1.18222 0.19753 0.13824
 C508 C 1.19444 0.19271 0.13134
 C509 C 1.19881 0.18098 0.13931
 H510 H 1.17568 0.20661 0.13537
 H511 H 1.20801 0.17429 0.13736
 N512 N 1.14974 0.18994 0.17875
 N513 N 1.14955 0.18019 0.18893
 C514 C 1.13850 0.18288 0.19776
 C515 C 1.13134 0.19494 0.19294
 C516 C 1.13881 0.19909 0.18083
 H517 H 1.13602 0.17662 0.20713
 H518 H 1.13650 0.20814 0.17403
 H519 H 1.16419 0.16881 0.16858
 H520 H 1.17524 0.18076 0.18021
 N521 N 0.65078 1.06047 0.56955
 N522 N 0.65029 1.07120 0.56050
 C523 C 0.63882 1.06962 0.55196
 C524 C 0.63176 1.05711 0.55572
 C525 C 0.63968 1.05164 0.56702
 H526 H 0.63610 1.07685 0.54338
 H527 H 0.63788 1.04173 0.57269
 Cu528 Cu 0.66550 1.08540 0.55976
 Cu529 Cu 0.66658 1.05804 0.58293
 Cu530 Cu 0.68773 1.08820 0.58775
 N531 N 0.68018 1.10015 0.56050
 N532 N 0.68888 1.10113 0.57149
 C533 C 0.69777 1.11227 0.56954
 C534 C 0.69452 1.11869 0.55658
 C535 C 0.68325 1.11067 0.55116
 H536 H 0.70585 1.11554 0.57714
 H537 H 0.67775 1.11231 0.54113
 N538 N 0.68821 1.07160 0.60071
 N539 N 0.68026 1.06008 0.59886
 C540 C 0.68334 1.05056 0.60924
 C541 C 0.69387 1.05631 0.61795
 C542 C 0.69666 1.06968 0.61220
 H543 H 0.67849 1.04010 0.61018
 H544 H 0.70434 1.07744 0.61601
 H545 H 0.66713 1.07958 0.58514
 H546 H 0.68215 1.07180 0.57457
 N547 N 0.57050 0.55991 0.15008
 N548 N 0.56039 0.56967 0.15008
 C549 C 0.55149 0.56718 0.13903
 C550 C 0.55621 0.55515 0.13172
 C551 C 0.56835 0.55088 0.13908
 H552 H 0.54210 0.57348 0.13668
 H553 H 0.57512 0.54182 0.13668
 Cu554 Cu 0.55966 0.58446 0.16474
 Cu555 Cu 0.58541 0.55931 0.16460
 Cu556 Cu 0.58487 0.58590 0.19041
 N557 N 0.55979 0.59957 0.17910
 N558 N 0.56969 0.60009 0.18904
 C559 C 0.56715 0.61132 0.19768
 C560 C 0.55496 0.61829 0.19294
 C561 C 0.55062 0.61050 0.18106
 H562 H 0.57360 0.61401 0.20688
 H563 H 0.54142 0.61255 0.17439
 N564 N 0.59936 0.57061 0.19000
 N565 N 0.59957 0.56049 0.18017
 C566 C 0.61049 0.55152 0.18293
 C567 C 0.61754 0.55617 0.19512
 C568 C 0.61015 0.56835 0.19927
 H569 H 0.61297 0.54215 0.17662
 H570 H 0.61239 0.57506 0.20840
 H571 H 0.57394 0.56943 0.18054
 H572 H 0.58518 0.58108 0.16881
 N573 N 0.65011 0.68032 0.18899
 N574 N 0.65038 0.69015 0.17897
 C575 C 0.63957 0.69941 0.18118
 C576 C 0.63209 0.69515 0.19326
 C577 C 0.63914 0.68295 0.19789
 H578 H 0.63731 0.70854 0.17448
 H579 H 0.63666 0.67657 0.20719
 Cu580 Cu 0.66508 0.68995 0.16428
 Cu581 Cu 0.66424 0.66503 0.18997
 Cu582 Cu 0.69058 0.66469 0.16377
 N583 N 0.67973 0.68974 0.14956
 N584 N 0.68972 0.67985 0.14941
 C585 C 0.69855 0.68228 0.13830
 C586 C 0.69388 0.69439 0.13108
 C587 C 0.68188 0.69878 0.13859
 H588 H 0.70778 0.67580 0.13582
 H589 H 0.67516 0.70787 0.13623
 N590 N 0.68952 0.65035 0.17926
 N591 N 0.67947 0.65049 0.18916
 C592 C 0.68178 0.63964 0.19832
 C593 C 0.69390 0.63226 0.19407
 C594 C 0.69848 0.63937 0.18190
 H595 H 0.67514 0.63735 0.20747
 H596 H 0.70782 0.63692 0.17557
 H597 H 0.68059 0.67597 0.17987
 H598 H 0.66900 0.66449 0.16835
 N599 N 0.14954 0.07072 1.06117
 N600 N 0.14991 0.06056 1.07085
 C601 C 0.13895 0.05146 1.06849
 C602 C 0.13134 0.05620 1.05664
 C603 C 0.13841 0.06850 1.05237
 H604 H 0.13683 0.04198 1.07474
 H605 H 0.13577 0.07534 1.04346
 Cu606 Cu 0.16500 0.06017 1.08528
 Cu607 Cu 0.16369 0.08587 1.06012
 Cu608 Cu 0.19011 0.08616 1.08594
 N609 N 0.17967 0.06090 1.10011
 N610 N 0.18936 0.07109 1.10026
 C611 C 0.19832 0.06896 1.11130
 C612 C 0.19412 0.05672 1.11854
 C613 C 0.18217 0.05192 1.11111
 H614 H 0.20730 0.07581 1.11375
 H615 H 0.17590 0.04248 1.11338
 N616 N 0.18902 0.10049 1.07053
 N617 N 0.17889 0.10036 1.06073
 C618 C 0.18102 0.11130 1.05165
 C619 C 0.19311 0.11877 1.05587
 C620 C 0.19789 0.11156 1.06792
 H621 H 0.17424 0.11361 1.04260
 H622 H 0.20721 0.11407 1.07427
 H623 H 0.18017 0.07476 1.06988
 H624 H 0.16845 0.08578 1.08177
 N625 N 0.60017 0.19008 0.57051
 N626 N 0.60050 0.18004 0.56068
 C627 C 0.61167 0.18246 0.55191
 C628 C 0.61873 0.19471 0.55647
 C629 C 0.61107 0.19921 0.56834
 H630 H 0.61433 0.17588 0.54279
 H631 H 0.61320 0.20846 0.57495
 Cu632 Cu 0.58613 0.16495 0.56021
 Cu633 Cu 0.58550 0.19081 0.58527
 Cu634 Cu 0.55950 0.16441 0.58435
 N635 N 0.57123 0.15038 0.55966
 N636 N 0.56090 0.15026 0.56916
 C637 C 0.55196 0.13935 0.56629
 C638 C 0.55689 0.13218 0.55429
 C639 C 0.56919 0.13951 0.55039
 H640 H 0.54243 0.13702 0.57236
 H641 H 0.57613 0.13714 0.54147
 N642 N 0.55990 0.17966 0.59890
 N643 N 0.56979 0.18972 0.59926
 C644 C 0.56699 0.19866 0.61021
 C645 C 0.55470 0.19404 0.61711
 C646 C 0.55056 0.18193 0.60960
 H647 H 0.57333 0.20796 0.61282
 H648 H 0.54137 0.17525 0.61171
 H649 H 0.58108 0.16913 0.58546
 H650 H 0.56995 0.18052 0.57342
 N651 N 0.09993 0.56942 0.68936
 N652 N 0.09940 0.55943 0.67948
 C653 C 0.11011 0.55008 0.68166
 C654 C 0.11785 0.55442 0.69355
 C655 C 0.11103 0.56678 0.69812
 H656 H 0.11210 0.54081 0.67505
 H657 H 0.11376 0.57334 0.70725
 Cu658 Cu 0.08457 0.55957 0.66496
 Cu659 Cu 0.08606 0.58495 0.69022
 Cu660 Cu 0.05943 0.58519 0.66427
 N661 N 0.06976 0.55971 0.65044
 N662 N 0.05990 0.56973 0.65019
 C663 C 0.05091 0.56715 0.63923
 C664 C 0.05532 0.55480 0.63224
 C665 C 0.06736 0.55044 0.63970
 H666 H 0.04171 0.57368 0.63672
 H667 H 0.07393 0.54121 0.63749
 N668 N 0.06090 0.59983 0.67949
 N669 N 0.07105 0.59972 0.68928
 C670 C 0.06911 0.61086 0.69819
 C671 C 0.05712 0.61841 0.69389
 C672 C 0.05221 0.61107 0.68195
 H673 H 0.07594 0.61323 0.70720
 H674 H 0.04290 0.61359 0.67560
 H675 H 0.06943 0.57409 0.68046
 H676 H 0.08105 0.58516 0.66865
 N677 N 0.65013 0.56024 0.07037
 N678 N 0.65019 0.57002 0.06030
 C679 C 0.63935 0.56735 0.05116
 C680 C 0.63215 0.55517 0.05574
 C681 C 0.63935 0.55103 0.06801
 H682 H 0.63701 0.57369 0.04180
 H683 H 0.63701 0.54195 0.07475
 Cu684 Cu 0.66462 0.58509 0.06036
 Cu685 Cu 0.66433 0.55971 0.08556
 Cu686 Cu 0.69020 0.58637 0.08560
 N687 N 0.67904 0.60013 0.06042
 N688 N 0.68898 0.60060 0.07035
 C689 C 0.69755 0.61194 0.06793
 C690 C 0.69274 0.61903 0.05581
 C691 C 0.68094 0.61118 0.05138
 H692 H 0.70666 0.61469 0.07449
 H693 H 0.67419 0.61331 0.04226
 N694 N 0.68948 0.57094 0.10008
 N695 N 0.67955 0.56091 0.10003
 C696 C 0.68197 0.55185 0.11093
 C697 C 0.69405 0.55629 0.11825
 C698 C 0.69850 0.56849 0.11106
 H699 H 0.67541 0.54264 0.11329
 H700 H 0.70776 0.57498 0.11347
 H701 H 0.66874 0.58150 0.08586
 H702 H 0.68047 0.57006 0.07454
 N703 N 0.07205 0.68915 0.60059
 N704 N 0.06188 0.67944 0.60055
 C705 C 0.05304 0.68189 0.61164
 C706 C 0.05790 0.69381 0.61906
 C707 C 0.07003 0.69809 0.61169
 H708 H 0.04365 0.67559 0.61399
 H709 H 0.07689 0.70706 0.61414
 Cu710 Cu 0.06101 0.66475 0.58580
 Cu711 Cu 0.08701 0.68969 0.58612
 Cu712 Cu 0.08617 0.66327 0.56014
 N713 N 0.06094 0.64977 0.57133
 N714 N 0.07080 0.64927 0.56135
 C715 C 0.06813 0.63814 0.55262
 C716 C 0.05590 0.63121 0.55732
 C717 C 0.05167 0.63892 0.56928
 H718 H 0.07454 0.63548 0.54339
 H719 H 0.04248 0.63686 0.57596
 N720 N 0.10086 0.67837 0.56072
 N721 N 0.10119 0.68844 0.57060
 C722 C 0.11233 0.69720 0.56800
 C723 C 0.11940 0.69245 0.55587
 C724 C 0.11177 0.68045 0.55158
 H725 H 0.11498 0.70645 0.57441
 H726 H 0.11396 0.67372 0.54245
 H727 H 0.07542 0.67978 0.57010
 H728 H 0.08655 0.66796 0.58175
 N729 N 0.57065 1.05975 0.65005
 N730 N 0.56063 1.06958 0.64994
 C731 C 0.55186 1.06719 0.63875
 C732 C 0.55657 1.05510 0.63144
 C733 C 0.56859 1.05074 0.63902
 H734 H 0.54264 1.07369 0.63629
 H735 H 0.57541 1.04170 0.63679
 Cu736 Cu 0.55977 1.08431 0.66469
 Cu737 Cu 0.58562 1.05925 0.66449
 Cu738 Cu 0.58529 1.08605 0.69008
 N739 N 0.55993 1.09942 0.67907
 N740 N 0.57004 1.10015 0.68880
 C741 C 0.56754 1.11142 0.69740
 C742 C 0.55509 1.11819 0.69294
 C743 C 0.55061 1.11019 0.68120
 H744 H 0.57421 1.11419 0.70642
 H745 H 0.54127 1.11199 0.67466
 N746 N 0.59982 1.07078 0.68964
 N747 N 0.59989 1.06054 0.67994
 C748 C 0.61080 1.05155 0.68269
 C749 C 0.61799 1.05632 0.69474
 C750 C 0.61070 1.06857 0.69884
 H751 H 0.61316 1.04208 0.67651
 H752 H 0.61308 1.07537 0.70788
 H753 H 0.57430 1.06947 0.68048
 H754 H 0.58535 1.08105 0.66851
 N755 N 0.43885 0.35079 0.92879
 N756 N 0.42914 0.35012 0.93890
 C757 C 0.43112 0.36107 0.94806
 C758 C 0.44277 0.36912 0.94352
 C759 C 0.44735 0.36219 0.93118
 H760 H 0.42454 0.36294 0.95735
 H761 H 0.45627 0.36504 0.92443
 Cu762 Cu 0.41485 0.33497 0.93932
 Cu763 Cu 0.43994 0.33667 0.91343
 Cu764 Cu 0.41409 0.31014 0.91336
 N765 N 0.40017 0.32015 0.93878
 N766 N 0.39996 0.31055 0.92853
 C767 C 0.38905 0.30145 0.93072
 C768 C 0.38195 0.30547 0.94308
 C769 C 0.38933 0.31746 0.94788
 H770 H 0.38659 0.29250 0.92383
 H771 H 0.38713 0.32365 0.95739
 N772 N 0.42921 0.31135 0.89888
 N773 N 0.43915 0.32137 0.89883
 C774 C 0.44808 0.31895 0.88777
 C775 C 0.44353 0.30678 0.88052
 C776 C 0.43151 0.30234 0.88791
 H777 H 0.45732 0.32543 0.88532
 H778 H 0.42490 0.29316 0.88556
 H779 H 0.41845 0.33199 0.91369
 H780 H 0.43046 0.32024 0.92451
 N781 N 0.93915 0.42825 0.35107
 N782 N 0.92919 0.43815 0.35139
 C783 C 0.93167 0.44695 0.36256
 C784 C 0.94393 0.44237 0.36965
 C785 C 0.94831 0.43042 0.36194
 H786 H 0.92511 0.45610 0.36516
 H787 H 0.95746 0.42369 0.36400
 Cu788 Cu 0.91425 0.43878 0.33685
 Cu789 Cu 0.93955 0.41320 0.33665
 Cu790 Cu 0.91264 0.41360 0.31120
 N791 N 0.89909 0.43877 0.32253
 N792 N 0.89860 0.42890 0.31252
 C793 C 0.88741 0.43148 0.30387
 C794 C 0.88041 0.44366 0.30864
 C795 C 0.88818 0.44797 0.32055
 H796 H 0.88474 0.42502 0.29466
 H797 H 0.88612 0.45717 0.32726
 N798 N 0.92780 0.39899 0.31159
 N799 N 0.93810 0.39885 0.32123
 C800 C 0.94684 0.38771 0.31854
 C801 C 0.94182 0.38044 0.30660
 C802 C 0.92971 0.38795 0.30253
 H803 H 0.95623 0.38516 0.32475
 H804 H 0.92276 0.38560 0.29361
 H805 H 0.92920 0.42460 0.32088
 H806 H 0.91782 0.41326 0.33274
 N807 N 0.31183 0.92930 0.39940
 N808 N 0.32200 0.93900 0.39923
 C809 C 0.31960 0.94804 0.38823
 C810 C 0.30723 0.94374 0.38117
 C811 C 0.30268 0.93179 0.38863
 H812 H 0.32627 0.95713 0.38567
 H813 H 0.29337 0.92530 0.38646
 Cu814 Cu 0.33716 0.93878 0.41365
 Cu815 Cu 0.31077 0.91426 0.41362
 Cu816 Cu 0.33670 0.91407 0.43994
 N817 N 0.35155 0.93869 0.42884
 N818 N 0.35115 0.92905 0.43905
 C819 C 0.36198 0.93139 0.44820
 C820 C 0.36976 0.94319 0.44360
 C821 C 0.36274 0.94751 0.43118
 H822 H 0.36392 0.92489 0.45754
 H823 H 0.36545 0.95645 0.42438
 N824 N 0.32121 0.89979 0.43900
 N825 N 0.31139 0.89986 0.42888
 C826 C 0.30219 0.88903 0.43118
 C827 C 0.30634 0.88175 0.44338
 C828 C 0.31849 0.88888 0.44802
 H829 H 0.29310 0.88667 0.42446
 H830 H 0.32477 0.88648 0.45741
 H831 H 0.32114 0.92570 0.42951
 H832 H 0.33239 0.91352 0.41833
 O833 O 0.21177 0.51745 0.74824
 O834 O 0.21620 0.51567 0.77357
 O835 O 0.24848 0.53855 0.73241
 O836 O 0.27238 0.53551 0.73339
 O837 O 0.23255 0.50148 0.71158
 O838 O 0.23484 0.47618 0.71609
 O839 O 0.28684 0.49953 0.76982
 O840 O 0.28235 0.52453 0.76758
 O841 O 0.25117 0.48064 0.78673
 O842 O 0.22518 0.48134 0.78124
 O843 O 0.26995 0.46353 0.75084
 O844 O 0.26915 0.46903 0.72492
 O845 O 0.28774 0.48263 0.75236
 O846 O 0.28366 0.48535 0.72566
 O847 O 0.25255 0.46263 0.76774
 O848 O 0.22585 0.46673 0.76506
 O849 O 0.26814 0.49803 0.78752
 O850 O 0.26472 0.52452 0.78369
 O851 O 0.21259 0.50048 0.73078
 O852 O 0.21855 0.47517 0.73195
 O853 O 0.24929 0.51915 0.71234
 O854 O 0.27506 0.51729 0.71845
 O855 O 0.23085 0.53770 0.74914
 O856 O 0.23198 0.53199 0.77450
 Zr857 Zr 0.23220 0.51686 0.75767
 O858 O 0.24468 0.50422 0.77149
 Zr859 Zr 0.25788 0.51812 0.73316
 O860 O 0.27171 0.50582 0.74604
 Zr861 Zr 0.23347 0.49218 0.73203
 O862 O 0.24628 0.47854 0.74455
 Zr863 Zr 0.26639 0.50849 0.76768
 O864 O 0.25387 0.52239 0.75494
 Zr865 Zr 0.24208 0.48250 0.76625
 O866 O 0.22806 0.49504 0.75369
 Zr867 Zr 0.26791 0.48403 0.74185
 O868 O 0.25518 0.49639 0.72781
 O869 O 0.23637 0.51379 0.73614
 O870 O 0.26367 0.48683 0.76345
 C871 C 0.20619 0.51050 0.73773
 C872 C 0.23785 0.54409 0.73916
 C873 C 0.23933 0.51206 0.70597
 C874 C 0.29304 0.48917 0.76324
 C875 C 0.26158 0.48720 0.79288
 C876 C 0.26338 0.45731 0.76117
 H877 H 0.24199 0.50612 0.78151
 H878 H 0.24441 0.46846 0.74193
 H879 H 0.23023 0.51986 0.73004
 H880 H 0.28177 0.50853 0.74430
 H881 H 0.27800 0.53313 0.76318
 H882 H 0.28067 0.53261 0.73927
 H883 H 0.22827 0.46010 0.75717
 H884 H 0.21340 0.47566 0.74117
 H885 H 0.25697 0.52182 0.79035
 H886 H 0.24124 0.53709 0.77410
 H887 H 0.26073 0.46265 0.72561
 H888 H 0.24439 0.47719 0.71166
 H889 H 0.21193 0.50600 0.77280
 H890 H 0.22591 0.48977 0.78760
 H891 H 0.27374 0.50853 0.71264
 H892 H 0.29023 0.49327 0.72814
 O893 O 0.21193 0.01852 0.24920
 O894 O 0.21689 0.01713 0.27441
 O895 O 0.24886 0.03865 0.23228
 O896 O 0.27277 0.03499 0.23289
 O897 O 0.23170 0.00166 0.21226
 O898 O 0.23356 -0.02365 0.21716
 O899 O 0.28705 -0.00053 0.26944
 O900 O 0.28298 0.02452 0.26680
 O901 O 0.25147 -0.01843 0.28739
 O902 O 0.22505 -0.01683 0.28233
 O903 O 0.26898 -0.03660 0.25177
 O904 O 0.26763 -0.03159 0.22559
 O905 O 0.28724 -0.01790 0.25241
 O906 O 0.28273 -0.01576 0.22581
 O907 O 0.25148 -0.03689 0.26859
 O908 O 0.22528 -0.03215 0.26691
 O909 O 0.26874 -0.00131 0.28757
 O910 O 0.26583 0.02507 0.28339
 O911 O 0.21214 0.00148 0.23179
 O912 O 0.21747 -0.02399 0.23331
 O913 O 0.24884 0.01894 0.21248
 O914 O 0.27457 0.01654 0.21799
 O915 O 0.23159 0.03843 0.24940
 O916 O 0.23296 0.03310 0.27473
 Zr917 Zr 0.23256 0.01770 0.25815
 O918 O 0.24505 0.00506 0.27194
 Zr919 Zr 0.25781 0.01799 0.23312
 O920 O 0.27158 0.00554 0.24592
 Zr921 Zr 0.23281 -0.00737 0.23285
 O922 O 0.24548 -0.02109 0.24543
 Zr923 Zr 0.26675 0.00877 0.26759
 O924 O 0.25428 0.02271 0.25489
 Zr925 Zr 0.24181 -0.01666 0.26713
 O926 O 0.22786 -0.00407 0.25456
 Zr927 Zr 0.26721 -0.01626 0.24227
 O928 O 0.25454 -0.00378 0.22823
 O929 O 0.23626 0.01423 0.23658
 O930 O 0.26345 -0.01292 0.26388
 C931 C 0.20605 0.01163 0.23882
 C932 C 0.23854 0.04454 0.23922
 C933 C 0.23860 0.01202 0.20639
 C934 C 0.29289 -0.01118 0.26301
 C935 C 0.26210 -0.01193 0.29323
 C936 C 0.26218 -0.04256 0.26212
 H937 H 0.24261 0.00720 0.28199
 H938 H 0.24331 -0.03117 0.24303
 H939 H 0.23015 0.02036 0.23052
 H940 H 0.28167 0.00796 0.24393
 H941 H 0.27866 0.03313 0.26238
 H942 H 0.28121 0.03185 0.23843
 H943 H 0.22670 -0.03831 0.25842
 H944 H 0.21242 -0.02316 0.24257
 H945 H 0.25812 0.02270 0.29021
 H946 H 0.24238 0.03790 0.27417
 H947 H 0.25921 -0.03789 0.22674
 H948 H 0.24306 -0.02291 0.21255
 H949 H 0.21245 0.00752 0.27395
 H950 H 0.22671 -0.00888 0.28912
 H951 H 0.27306 0.00757 0.21256
 H952 H 0.28938 -0.00777 0.22785
 O953 O 0.53774 0.73202 0.24774
 O954 O 0.53277 0.73353 0.27304
 O955 O 0.50050 0.71251 0.23080
 O956 O 0.47676 0.71649 0.23118
 O957 O 0.51811 0.74955 0.21093
 O958 O 0.51689 0.77475 0.21602
 O959 O 0.46287 0.75247 0.26802
 O960 O 0.46647 0.72727 0.26533
 O961 O 0.49895 0.76954 0.28613
 O962 O 0.52489 0.76808 0.28117
 O963 O 0.48138 0.78788 0.25022
 O964 O 0.48276 0.78291 0.22411
 O965 O 0.46282 0.76934 0.25054
 O966 O 0.46762 0.76725 0.22410
 O967 O 0.49839 0.78792 0.26756
 O968 O 0.52509 0.78293 0.26518
 O969 O 0.48128 0.75286 0.28620
 O970 O 0.48362 0.72636 0.28190
 O971 O 0.53785 0.74935 0.23065
 O972 O 0.53280 0.77481 0.23219
 O973 O 0.50103 0.73220 0.21104
 O974 O 0.47520 0.73505 0.21648
 O975 O 0.51800 0.71253 0.24771
 O976 O 0.51640 0.71772 0.27317
 Zr977 Zr 0.51713 0.73320 0.25673
 O978 O 0.50479 0.74605 0.27051
 Zr979 Zr 0.49194 0.73329 0.23164
 O980 O 0.47829 0.74588 0.24444
 Zr981 Zr 0.51726 0.75838 0.23160
 O982 O 0.50469 0.77225 0.24409
 Zr983 Zr 0.48301 0.74269 0.26616
 O984 O 0.49532 0.72854 0.25343
 Zr985 Zr 0.50828 0.76776 0.26579
 O986 O 0.52211 0.75493 0.25330
 Zr987 Zr 0.48296 0.76757 0.24075
 O988 O 0.49553 0.75500 0.22678
 O989 O 0.51353 0.73680 0.23517
 O990 O 0.48660 0.76429 0.26240
 C991 C 0.54377 0.73899 0.23752
 C992 C 0.51088 0.70653 0.23755
 C993 C 0.51121 0.73922 0.20499
 C994 C 0.45708 0.76294 0.26126
 C995 C 0.48818 0.76330 0.29193
 C996 C 0.48787 0.79369 0.26085
 H997 H 0.50719 0.74387 0.28055
 H998 H 0.50697 0.78230 0.24173
 H999 H 0.51957 0.73064 0.22908
 H1000 H 0.46817 0.74357 0.24240
 H1001 H 0.47059 0.71862 0.26079
 H1002 H 0.46841 0.71965 0.23682
 H1003 H 0.52289 0.78997 0.25760
 H1004 H 0.53769 0.77402 0.24155
 H1005 H 0.49152 0.72847 0.28861
 H1006 H 0.50694 0.71303 0.27248
 H1007 H 0.49116 0.78922 0.22540
 H1008 H 0.50735 0.77433 0.21147
 H1009 H 0.53752 0.74298 0.27246
 H1010 H 0.52390 0.75942 0.28716
 H1011 H 0.47705 0.74381 0.21083
 H1012 H 0.46092 0.75928 0.22599
 O1013 O -0.01864 0.78773 0.75091
 O1014 O -0.01758 0.78235 0.72567
 O1015 O -0.03736 0.75041 0.76868
 O1016 O -0.03301 0.72665 0.76843
 O1017 O -0.00025 0.76879 0.78778
 O1018 O 0.02478 0.76801 0.78229
 O1019 O 0.00253 0.71278 0.73127
 O1020 O -0.02263 0.71602 0.73436
 O1021 O 0.01868 0.74890 0.71253
 O1022 O 0.01686 0.77492 0.71711
 O1023 O 0.03789 0.73198 0.74805
 O1024 O 0.03345 0.73387 0.77439
 O1025 O 0.01969 0.71321 0.74847
 O1026 O 0.01806 0.71838 0.77486
 O1027 O 0.03743 0.74919 0.73092
 O1028 O 0.03185 0.77574 0.73287
 O1029 O 0.00229 0.73094 0.71289
 O1030 O -0.02411 0.73295 0.71757
 O1031 O -0.00132 0.78828 0.76800
 O1032 O 0.02427 0.78369 0.76583
 O1033 O -0.01731 0.75143 0.78811
 O1034 O -0.01423 0.72558 0.78294
 O1035 O -0.03789 0.76765 0.75151
 O1036 O -0.03313 0.76577 0.72604
 Zr1037 Zr -0.01739 0.76696 0.74222
 O1038 O -0.00460 0.75461 0.72840
 Zr1039 Zr -0.01647 0.74208 0.76759
 O1040 O -0.00387 0.72844 0.75477
 Zr1041 Zr 0.00816 0.76785 0.76697
 O1042 O 0.02201 0.75532 0.75441
 Zr1043 Zr -0.00752 0.73281 0.73305
 O1044 O -0.02163 0.74509 0.74584
 Zr1045 Zr 0.01708 0.75855 0.73275
 O1046 O 0.00427 0.77237 0.74527
 Zr1047 Zr 0.01780 0.73351 0.75802
 O1048 O 0.00524 0.74608 0.77204
 O1049 O -0.01338 0.76370 0.76376
 O1050 O 0.01406 0.73683 0.73640
 C1051 C -0.01177 0.79398 0.76109
 C1052 C -0.04361 0.76061 0.76186
 C1053 C -0.01036 0.76180 0.79395
 C1054 C 0.01320 0.70722 0.73793
 C1055 C 0.01251 0.73795 0.70693
 C1056 C 0.04345 0.73869 0.73743
 H1057 H -0.00699 0.75684 0.71836
 H1058 H 0.03205 0.75780 0.75657
 H1059 H -0.01953 0.76973 0.76989
 H1060 H -0.00597 0.71831 0.75697
 H1061 H -0.03127 0.72008 0.73893
 H1062 H -0.02977 0.71823 0.76290
 H1063 H 0.03893 0.77392 0.74052
 H1064 H 0.02298 0.78864 0.75656
 H1065 H -0.02222 0.74077 0.71070
 H1066 H -0.03761 0.75621 0.72688
 H1067 H 0.03977 0.74219 0.77268
 H1068 H 0.02477 0.75842 0.78679
 H1069 H -0.00821 0.78725 0.72603
 H1070 H 0.00815 0.77366 0.71124
 H1071 H -0.00536 0.72758 0.78835
 H1072 H 0.01014 0.71154 0.77321
 O1073 O -0.01789 -0.03874 -0.00153
 O1074 O -0.01612 -0.03378 0.02379
 O1075 O -0.03734 -0.00149 -0.01822
 O1076 O -0.03329 0.02230 -0.01793
 O1077 O -0.00063 -0.01932 -0.03840
 O1078 O 0.02464 -0.01787 -0.03352
 O1079 O 0.00290 0.03614 0.01882
 O1080 O -0.02229 0.03264 0.01614
 O1081 O 0.01985 -0.00003 0.03673
 O1082 O 0.01812 -0.02615 0.03156
 O1083 O 0.03813 0.01753 0.00087
 O1084 O 0.03312 0.01626 -0.02521
 O1085 O 0.01963 0.03621 0.00123
 O1086 O 0.01745 0.03135 -0.02522
 O1087 O 0.03814 0.00044 0.01813
 O1088 O 0.03321 -0.02610 0.01583
 O1089 O 0.00314 0.01761 0.03695
 O1090 O -0.02324 0.01552 0.03270
 O1091 O -0.00067 -0.03893 -0.01870
 O1092 O 0.02479 -0.03388 -0.01735
 O1093 O -0.01765 -0.00194 -0.03819
 O1094 O -0.01490 0.02389 -0.03267
 O1095 O -0.03727 -0.01899 -0.00132
 O1096 O -0.03194 -0.01741 0.02403
 Zr1097 Zr -0.01657 -0.01813 0.00749
 O1098 O -0.00365 -0.00579 0.02122
 Zr1099 Zr -0.01654 0.00710 -0.01755
 O1100 O -0.00385 0.02074 -0.00480
 Zr1101 Zr 0.00841 -0.01832 -0.01782
 O1102 O 0.02236 -0.00577 -0.00534
 Zr1103 Zr -0.00697 0.01602 0.01691
 O1104 O -0.02119 0.00372 0.00425
 Zr1105 Zr 0.01797 -0.00936 0.01638
 O1106 O 0.00508 -0.02317 0.00390
 Zr1107 Zr 0.01779 0.01602 -0.00857
 O1108 O 0.00510 0.00347 -0.02252
 O1109 O -0.01310 -0.01452 -0.01409
 O1110 O 0.01458 0.01237 0.01308
 C1111 C -0.01101 -0.04480 -0.01178
 C1112 C -0.04331 -0.01185 -0.01141
 C1113 C -0.01085 -0.01225 -0.04429
 C1114 C 0.01332 0.04195 0.01200
 C1115 C 0.01358 0.01070 0.04261
 C1116 C 0.04393 0.01098 0.01147
 H1117 H -0.00580 -0.00820 0.03127
 H1118 H 0.03239 -0.00807 -0.00774
 H1119 H -0.01932 -0.02056 -0.02015
 H1120 H -0.00613 0.03088 -0.00681
 H1121 H -0.03097 0.02854 0.01167
 H1122 H -0.03011 0.03065 -0.01226
 H1123 H 0.03997 -0.02411 0.00795
 H1124 H 0.02409 -0.03872 -0.00796
 H1125 H -0.02134 0.00739 0.03921
 H1126 H -0.03664 -0.00795 0.02336
 H1127 H 0.03921 0.00768 -0.02414
 H1128 H 0.02409 -0.00835 -0.03812
 H1129 H -0.00675 -0.03864 0.02304
 H1130 H 0.00976 -0.02487 0.03789
 H1131 H -0.00614 0.02209 -0.03833
 H1132 H 0.00953 0.03809 -0.02329
 O1133 O 0.03816 0.51804 0.50168
 O1134 O 0.03345 0.51694 0.47633
 O1135 O 0.00087 0.53746 0.51851
 O1136 O -0.02291 0.53356 0.51781
 O1137 O 0.01809 0.50011 0.53805
 O1138 O 0.01677 0.47500 0.53262
 O1139 O -0.03664 0.49860 0.48040
 O1140 O -0.03271 0.52360 0.48325
 O1141 O -0.00061 0.48119 0.46238
 O1142 O 0.02551 0.48278 0.46760
 O1143 O -0.01857 0.46248 0.49747
 O1144 O -0.01743 0.46693 0.52374
 O1145 O -0.03692 0.48106 0.49721
 O1146 O -0.03246 0.48280 0.52385
 O1147 O -0.00095 0.46254 0.48077
 O1148 O 0.02549 0.46754 0.48316
 O1149 O -0.01817 0.49799 0.46239
 O1150 O -0.01532 0.52451 0.46698
 O1151 O 0.03802 0.50055 0.51861
 O1152 O 0.03280 0.47503 0.51654
 O1153 O 0.00108 0.51751 0.53795
 O1154 O -0.02472 0.51480 0.53217
 O1155 O 0.01852 0.53761 0.50177
 O1156 O 0.01722 0.53282 0.47624
 Zr1157 Zr 0.01765 0.51709 0.49246
 O1158 O 0.00540 0.50453 0.47832
 Zr1159 Zr -0.00781 0.51672 0.51725
 O1160 O -0.02138 0.50441 0.50408
 Zr1161 Zr 0.01738 0.49156 0.51724
 O1162 O 0.00486 0.47794 0.50435
 Zr1163 Zr -0.01638 0.50797 0.48249
 O1164 O -0.00415 0.52183 0.49560
 Zr1165 Zr 0.00873 0.48276 0.48277
 O1166 O 0.02249 0.49530 0.49565
 Zr1167 Zr -0.01691 0.48261 0.50742
 O1168 O -0.00441 0.49491 0.52178
 O1169 O 0.01379 0.51319 0.51392
 O1170 O -0.01296 0.48628 0.48590
 C1171 C 0.04404 0.51098 0.51192
 C1172 C 0.01136 0.54350 0.51195
 C1173 C 0.01119 0.51042 0.54403
 C1174 C -0.04254 0.48790 0.48669
 C1175 C -0.01134 0.48755 0.45660
 C1176 C -0.01171 0.45673 0.48704
 H1177 H 0.00791 0.50686 0.46834
 H1178 H 0.00707 0.46785 0.50658
 H1179 H 0.01981 0.51924 0.52017
 H1180 H -0.03150 0.50675 0.50602
 H1181 H -0.02855 0.53213 0.48798
 H1182 H -0.03116 0.53057 0.51190
 H1183 H 0.02350 0.46069 0.49097
 H1184 H 0.03794 0.47610 0.50736
 H1185 H -0.00778 0.52208 0.45998
 H1186 H 0.00773 0.53747 0.47681
 H1187 H -0.00901 0.46065 0.52248
 H1188 H 0.00710 0.47529 0.53692
 H1189 H 0.03801 0.50739 0.47671
 H1190 H 0.02420 0.49118 0.46131
 H1191 H -0.02297 0.50594 0.53770
 H1192 H -0.03914 0.49077 0.52192
 O1193 O 0.50197 0.03806 0.51743
 O1194 O 0.47674 0.03296 0.51642
 O1195 O 0.51931 0.00123 0.53737
 O1196 O 0.51923 -0.02257 0.53381
 O1197 O 0.53863 0.01835 0.49985
 O1198 O 0.53321 0.01650 0.47474
 O1199 O 0.48170 -0.03739 0.49887
 O1200 O 0.48477 -0.03327 0.52386
 O1201 O 0.46328 -0.00204 0.48110
 O1202 O 0.46794 0.02412 0.48222
 O1203 O 0.49906 -0.01944 0.46269
 O1204 O 0.52507 -0.01812 0.46735
 O1205 O 0.49854 -0.03762 0.48138
 O1206 O 0.52528 -0.03287 0.48350
 O1207 O 0.48164 -0.00252 0.46261
 O1208 O 0.48382 0.02430 0.46720
 O1209 O 0.46344 -0.01900 0.49849
 O1210 O 0.46826 -0.01606 0.52478
 O1211 O 0.51886 0.03793 0.49994
 O1212 O 0.51689 0.03231 0.47458
 O1213 O 0.53886 0.00151 0.51739
 O1214 O 0.53343 -0.02450 0.51504
 O1215 O 0.50239 0.01872 0.53731
 O1216 O 0.47682 0.01686 0.53247
 Zr1217 Zr 0.49309 0.01736 0.51680
 O1218 O 0.47916 0.00467 0.50441
 Zr1219 Zr 0.51829 -0.00773 0.51677
 O1220 O 0.50533 -0.02174 0.50470
 Zr1221 Zr 0.51785 0.01712 0.49129
 O1222 O 0.50519 0.00415 0.47788
 Zr1223 Zr 0.48366 -0.01702 0.50817
 O1224 O 0.49657 -0.00435 0.52183
 Zr1225 Zr 0.48352 0.00770 0.48259
 O1226 O 0.49616 0.02189 0.49495
 Zr1227 Zr 0.50864 -0.01752 0.48289
 O1228 O 0.52277 -0.00456 0.49496
 O1229 O 0.51460 0.01379 0.51294
 O1230 O 0.48705 -0.01389 0.48646
 C1231 C 0.51211 0.04401 0.51028
 C1232 C 0.51262 0.01170 0.54329
 C1233 C 0.54475 0.01166 0.51019
 C1234 C 0.48803 -0.04329 0.48819
 C1235 C 0.45757 -0.01257 0.48785
 C1236 C 0.48835 -0.01308 0.45691
 H1237 H 0.46914 0.00706 0.50670
 H1238 H 0.50740 0.00624 0.46777
 H1239 H 0.52075 0.02000 0.51891
 H1240 H 0.50741 -0.03181 0.50717
 H1241 H 0.48944 -0.02896 0.53234
 H1242 H 0.51337 -0.03094 0.53103
 H1243 H 0.49138 0.02208 0.46016
 H1244 H 0.50759 0.03727 0.47552
 H1245 H 0.46144 -0.00828 0.52260
 H1246 H 0.47778 0.00759 0.53750
 H1247 H 0.52398 -0.00959 0.46119
 H1248 H 0.53788 0.00701 0.47534
 H1249 H 0.47699 0.03732 0.50678
 H1250 H 0.46194 0.02309 0.49086
 H1251 H 0.53897 -0.02275 0.50620
 H1252 H 0.52307 -0.03980 0.49118
 O1253 O 0.53834 0.51748 0.00106
 O1254 O 0.53370 0.51581 -0.02420
 O1255 O 0.50153 0.53799 0.01746
 O1256 O 0.47769 0.53465 0.01681
 O1257 O 0.51793 0.50076 0.03780
 O1258 O 0.51610 0.47557 0.03295
 O1259 O 0.46323 0.49901 -0.02001
 O1260 O 0.46755 0.52399 -0.01752
 O1261 O 0.49901 0.48062 -0.03744
 O1262 O 0.52486 0.48129 -0.03218
 O1263 O 0.48047 0.46296 -0.00161
 O1264 O 0.48142 0.46811 0.02429
 O1265 O 0.46254 0.48191 -0.00277
 O1266 O 0.46697 0.48453 0.02403
 O1267 O 0.49768 0.46239 -0.01872
 O1268 O 0.52450 0.46667 -0.01600
 O1269 O 0.48185 0.49782 -0.03790
 O1270 O 0.48501 0.52432 -0.03373
 O1271 O 0.53787 0.50035 0.01834
 O1272 O 0.53210 0.47490 0.01688
 O1273 O 0.50132 0.51854 0.03734
 O1274 O 0.47543 0.51618 0.03158
 O1275 O 0.51898 0.53745 0.00053
 O1276 O 0.51774 0.53190 -0.02487
 Zr1277 Zr 0.51783 0.51668 -0.00816
 O1278 O 0.50533 0.50403 -0.02198
 Zr1279 Zr 0.49239 0.51744 0.01665
 O1280 O 0.47852 0.50517 0.00372
 Zr1281 Zr 0.51703 0.49175 0.01720
 O1282 O 0.50416 0.47811 0.00469
 Zr1283 Zr 0.48363 0.50809 -0.01794
 O1284 O 0.49615 0.52197 -0.00513
 Zr1285 Zr 0.50813 0.48229 -0.01700
 O1286 O 0.52219 0.49486 -0.00447
 Zr1287 Zr 0.48249 0.48337 0.00761
 O1288 O 0.49532 0.49568 0.02167
 O1289 O 0.51391 0.51337 0.01339
 O1290 O 0.48653 0.48641 -0.01399
 C1291 C 0.54410 0.51051 0.01142
 C1292 C 0.51201 0.54370 0.01062
 C1293 C 0.51127 0.51134 0.04356
 C1294 C 0.45712 0.48856 -0.01352
 C1295 C 0.48851 0.48714 -0.04345
 C1296 C 0.48694 0.45691 -0.01212
 H1297 H 0.50792 0.50605 -0.03201
 H1298 H 0.50611 0.46802 0.00717
 H1299 H 0.52005 0.51946 0.01948
 H1300 H 0.46845 0.50777 0.00558
 H1301 H 0.47183 0.53252 -0.01290
 H1302 H 0.46932 0.53168 0.01106
 H1303 H 0.52196 0.45974 -0.00843
 H1304 H 0.53719 0.47559 0.00763
 H1305 H 0.49278 0.52182 -0.04045
 H1306 H 0.50848 0.53698 -0.02427
 H1307 H 0.48995 0.46190 0.02353
 H1308 H 0.50649 0.47622 0.03732
 H1309 H 0.53814 0.50621 -0.02351
 H1310 H 0.52432 0.49001 -0.03814
 H1311 H 0.47704 0.50746 0.03736
 H1312 H 0.46016 0.49224 0.02156
 O1313 O 0.75163 0.26882 0.46265
 O1314 O 0.72645 0.26765 0.46779
 O1315 O 0.76892 0.28843 0.49990
 O1316 O 0.76883 0.28442 0.52360
 O1317 O 0.78854 0.25147 0.48194
 O1318 O 0.78333 0.22609 0.48353
 O1319 O 0.73185 0.24893 0.53767
 O1320 O 0.73477 0.27407 0.53403
 O1321 O 0.71332 0.23177 0.50207
 O1322 O 0.71822 0.23350 0.47570
 O1323 O 0.74925 0.21311 0.51900
 O1324 O 0.77523 0.21791 0.51771
 O1325 O 0.74883 0.23154 0.53758
 O1326 O 0.77545 0.23377 0.53276
 O1327 O 0.73177 0.21319 0.50213
 O1328 O 0.73358 0.21802 0.47573
 O1329 O 0.71340 0.24903 0.51921
 O1330 O 0.71808 0.27514 0.51711
 O1331 O 0.76887 0.25166 0.46251
 O1332 O 0.76706 0.22619 0.46750
 O1333 O 0.78866 0.26858 0.49927
 O1334 O 0.78335 0.26578 0.52507
 O1335 O 0.75194 0.28846 0.48245
 O1336 O 0.72647 0.28340 0.48409
 Zr1337 Zr 0.74285 0.26784 0.48335
 O1338 O 0.72906 0.25517 0.49581
 Zr1339 Zr 0.76811 0.26763 0.50842
 O1340 O 0.75531 0.25517 0.52216
 Zr1341 Zr 0.76786 0.24257 0.48309
 O1342 O 0.75528 0.22881 0.49574
 Zr1343 Zr 0.73363 0.25862 0.51752
 O1344 O 0.74635 0.27259 0.50511
 Zr1345 Zr 0.73355 0.23341 0.49236
 O1346 O 0.74612 0.24607 0.47841
 Zr1347 Zr 0.75874 0.23342 0.51747
 O1348 O 0.77277 0.24588 0.50481
 O1349 O 0.76441 0.26415 0.48685
 O1350 O 0.73710 0.23694 0.51399
 C1351 C 0.76190 0.26195 0.45661
 C1352 C 0.76211 0.29444 0.48956
 C1353 C 0.79458 0.26171 0.48891
 C1354 C 0.73833 0.23824 0.54340
 C1355 C 0.70755 0.23847 0.51261
 C1356 C 0.73855 0.20735 0.51256
 H1357 H 0.71902 0.25745 0.49346
 H1358 H 0.75755 0.21874 0.49346
 H1359 H 0.77047 0.27031 0.48077
 H1360 H 0.75742 0.25746 0.53226
 H1361 H 0.73932 0.28268 0.52986
 H1362 H 0.76322 0.28132 0.53200
 H1363 H 0.74178 0.21153 0.47730
 H1364 H 0.75765 0.22703 0.46273
 H1365 H 0.71167 0.27349 0.50887
 H1366 H 0.72738 0.28830 0.49344
 H1367 H 0.77426 0.21203 0.50897
 H1368 H 0.78822 0.22681 0.49289
 H1369 H 0.72674 0.25808 0.46324
 H1370 H 0.71170 0.24168 0.47732
 H1371 H 0.78887 0.25692 0.52324
 H1372 H 0.77337 0.24146 0.53972
 O1373 O 0.78739 0.75106 -0.01933
 O1374 O 0.78176 0.72592 -0.01836
 O1375 O 0.75033 0.76924 -0.03839
 O1376 O 0.72663 0.76931 -0.03420
 O1377 O 0.76891 0.78822 -0.00142
 O1378 O 0.76753 0.78285 0.02383
 O1379 O 0.71225 0.73233 0.00133
 O1380 O 0.71563 0.73544 -0.02390
 O1381 O 0.74759 0.71317 0.01788
 O1382 O 0.77395 0.71745 0.01591
 O1383 O 0.73152 0.74922 0.03684
 O1384 O 0.73346 0.77539 0.03221
 O1385 O 0.71274 0.74956 0.01848
 O1386 O 0.71814 0.77593 0.01676
 O1387 O 0.74813 0.73151 0.03647
 O1388 O 0.77465 0.73305 0.03122
 O1389 O 0.73024 0.71363 0.00088
 O1390 O 0.73220 0.71834 -0.02523
 O1391 O 0.78797 0.76817 -0.00199
 O1392 O 0.78321 0.76631 0.02344
 O1393 O 0.75140 0.78874 -0.01831
 O1394 O 0.72556 0.78381 -0.01547
 O1395 O 0.76746 0.75196 -0.03878
 O1396 O 0.76528 0.72639 -0.03397
 Zr1397 Zr 0.76653 0.74263 -0.01826
 O1398 O 0.75395 0.72894 -0.00554
 Zr1399 Zr 0.74193 0.76830 -0.01756
 O1400 O 0.72811 0.75566 -0.00504
 Zr1401 Zr 0.76749 0.76747 0.00724
 O1402 O 0.75478 0.75501 0.02102
 Zr1403 Zr 0.73228 0.73388 -0.00867
 O1404 O 0.74478 0.74649 -0.02270
 Zr1405 Zr 0.75772 0.73324 0.01618
 O1406 O 0.77174 0.74565 0.00346
 Zr1407 Zr 0.73309 0.75892 0.01665
 O1408 O 0.74585 0.77280 0.00415
 O1409 O 0.76347 0.76424 -0.01432
 O1410 O 0.73612 0.73721 0.01295
 C1411 C 0.79367 0.76119 -0.01239
 C1412 C 0.76050 0.76234 -0.04458
 C1413 C 0.76189 0.79447 -0.01148
 C1414 C 0.70672 0.73905 0.01196
 C1415 C 0.73682 0.70764 0.01135
 C1416 C 0.73786 0.73840 0.04245
 H1417 H 0.75608 0.71886 -0.00791
 H1418 H 0.75722 0.75718 0.03107
 H1419 H 0.76960 0.77028 -0.02045
 H1420 H 0.71802 0.75797 -0.00720
 H1421 H 0.71983 0.73987 -0.03255
 H1422 H 0.71815 0.76385 -0.03103
 H1423 H 0.77302 0.74093 0.03809
 H1424 H 0.78782 0.75682 0.02247
 H1425 H 0.74033 0.71176 -0.02370
 H1426 H 0.75587 0.72748 -0.03869
 H1427 H 0.74201 0.77395 0.03827
 H1428 H 0.75821 0.78783 0.02333
 H1429 H 0.78635 0.72603 -0.00882
 H1430 H 0.77222 0.71114 0.00759
 H1431 H 0.72754 0.78926 -0.00661
 H1432 H 0.71133 0.77432 0.00883
 O1433 O 1.00013 0.21149 0.23095
 O1434 O 0.97484 0.21631 0.23254
 O1435 O 1.01671 0.24863 0.21096
 O1436 O 1.01585 0.27258 0.21471
 O1437 O 1.03703 0.23154 0.24764
 O1438 O 1.03229 0.23320 0.27297
 O1439 O 0.97948 0.28645 0.25075
 O1440 O 0.98202 0.28264 0.22564
 O1441 O 0.96191 0.25049 0.26834
 O1442 O 0.96714 0.22420 0.26658
 O1443 O 0.99751 0.26837 0.28632
 O1444 O 1.02375 0.26717 0.28113
 O1445 O 0.99674 0.28676 0.26785
 O1446 O 1.02328 0.28244 0.26548
 O1447 O 0.98077 0.25074 0.28660
 O1448 O 0.98281 0.22442 0.28167
 O1449 O 0.96149 0.26787 0.25137
 O1450 O 0.96557 0.26536 0.22498
 O1451 O 1.01764 0.21177 0.24785
 O1452 O 1.01624 0.21699 0.27332
 O1453 O 1.03661 0.24874 0.23045
 O1454 O 1.03096 0.27444 0.23306
 O1455 O 0.99971 0.23118 0.21118
 O1456 O 0.97442 0.23242 0.21661
 Zr1457 Zr 0.99104 0.23208 0.23193
 O1458 O 0.97727 0.24442 0.24474
 Zr1459 Zr 1.01590 0.25756 0.23163
 O1460 O 1.00311 0.27121 0.24426
 Zr1461 Zr 1.01650 0.23242 0.25681
 O1462 O 1.00394 0.24495 0.27068
 Zr1463 Zr 0.98144 0.26623 0.24118
 O1464 O 0.99412 0.25389 0.22706
 Zr1465 Zr 0.98224 0.24109 0.26637
 O1466 O 0.99481 0.22729 0.25361
 Zr1467 Zr 1.00694 0.26676 0.26597
 O1468 O 1.02096 0.25424 0.25331
 O1469 O 1.01261 0.23594 0.23529
 O1470 O 0.98533 0.26281 0.26277
 C1471 C 1.01059 0.20565 0.23772
 C1472 C 1.00984 0.23822 0.20508
 C1473 C 1.04280 0.23852 0.23729
 C1474 C 0.98601 0.29235 0.26132
 C1475 C 0.95594 0.26110 0.26196
 C1476 C 0.98720 0.26149 0.29228
 H1477 H 0.96723 0.24191 0.24264
 H1478 H 1.00641 0.24275 0.28071
 H1479 H 1.01867 0.22988 0.22911
 H1480 H 1.00501 0.28134 0.24189
 H1481 H 0.98650 0.27846 0.21700
 H1482 H 1.01044 0.28106 0.21801
 H1483 H 0.99109 0.22613 0.28803
 H1484 H 1.00699 0.21189 0.27254
 H1485 H 0.95895 0.25740 0.22716
 H1486 H 0.97488 0.24189 0.21191
 H1487 H 1.02258 0.25879 0.28748
 H1488 H 1.03680 0.24277 0.27231
 H1489 H 0.97549 0.21172 0.24205
 H1490 H 0.96042 0.22571 0.25855
 H1491 H 1.03649 0.27292 0.24196
 H1492 H 1.02124 0.28903 0.25747
 O1493 O 0.71197 1.01816 0.74891
 O1494 O 0.71716 1.01677 0.77405
 O1495 O 0.74866 1.03839 0.73159
 O1496 O 0.77251 1.03488 0.73190
 O1497 O 0.73142 1.00129 0.71180
 O1498 O 0.73337 0.97598 0.71675
 O1499 O 0.78737 0.99936 0.76847
 O1500 O 0.78323 1.02443 0.76577
 O1501 O 0.75205 0.98139 0.78681
 O1502 O 0.72571 0.98261 0.78197
 O1503 O 0.76939 0.96332 0.75083
 O1504 O 0.76782 0.96828 0.72478
 O1505 O 0.78756 0.98210 0.75134
 O1506 O 0.78264 0.98437 0.72473
 O1507 O 0.75251 0.96299 0.76826
 O1508 O 0.72592 0.96736 0.76628
 O1509 O 0.76895 0.99888 0.78686
 O1510 O 0.76634 1.02504 0.78248
 O1511 O 0.71204 1.00111 0.73151
 O1512 O 0.71751 0.97562 0.73315
 O1513 O 0.74849 1.01865 0.71183
 O1514 O 0.77430 1.01634 0.71709
 O1515 O 0.73152 1.03811 0.74884
 O1516 O 0.73322 1.03279 0.77424
 Zr1517 Zr 0.73269 1.01739 0.75766
 O1518 O 0.74539 1.00480 0.77131
 Zr1519 Zr 0.75767 1.01778 0.73237
 O1520 O 0.77167 1.00545 0.74504
 Zr1521 Zr 0.73278 0.99229 0.73241
 O1522 O 0.74574 0.97864 0.74483
 Zr1523 Zr 0.76703 1.00866 0.76676
 O1524 O 0.75435 1.02253 0.75417
 Zr1525 Zr 0.74231 0.98302 0.76659
 O1526 O 0.72811 0.99557 0.75419
 Zr1527 Zr 0.76739 0.98365 0.74142
 O1528 O 0.75444 0.99600 0.72753
 O1529 O 0.73618 1.01391 0.73606
 O1530 O 0.76387 0.98695 0.76308
 C1531 C 0.70600 1.01128 0.73857
 C1532 C 0.73837 1.04425 0.73860
 C1533 C 0.73823 1.01166 0.70584
 C1534 C 0.79327 0.98882 0.76191
 C1535 C 0.76251 0.98818 0.79262
 C1536 C 0.76308 0.95739 0.76149
 H1537 H 0.74303 1.00695 0.78137
 H1538 H 0.74363 0.96855 0.74246
 H1539 H 0.72998 1.02001 0.73005
 H1540 H 0.78173 1.00794 0.74295
 H1541 H 0.77889 1.03299 0.76127
 H1542 H 0.78105 1.03181 0.73733
 H1543 H 0.72785 0.96074 0.75826
 H1544 H 0.71270 0.97638 0.74254
 H1545 H 0.75823 1.02310 0.78897
 H1546 H 0.74250 1.03783 0.77340
 H1547 H 0.75938 0.96201 0.72592
 H1548 H 0.74285 0.97666 0.71210
 H1549 H 0.71278 1.00713 0.77365
 H1550 H 0.72712 0.99084 0.78848
 H1551 H 0.77268 1.00743 0.71158
 H1552 H 0.78944 0.99221 0.72686
 O1553 O 0.74900 0.53864 0.23199
 O1554 O 0.77429 0.53358 0.23371
 O1555 O 0.73211 0.50154 0.21201
 O1556 O 0.73240 0.47771 0.21583
 O1557 O 0.71203 0.51885 0.24914
 O1558 O 0.71706 0.51746 0.27432
 O1559 O 0.76878 0.46325 0.25170
 O1560 O 0.76619 0.46755 0.22633
 O1561 O 0.78704 0.49922 0.26929
 O1562 O 0.78234 0.52517 0.26787
 O1563 O 0.75095 0.48175 0.28730
 O1564 O 0.72484 0.48323 0.28210
 O1565 O 0.75139 0.46324 0.26863
 O1566 O 0.72499 0.46810 0.26642
 O1567 O 0.76832 0.49876 0.28755
 O1568 O 0.76624 0.52548 0.28267
 O1569 O 0.78704 0.48149 0.25265
 O1570 O 0.78462 0.48477 0.22794
 O1571 O 0.73173 0.53862 0.24911
 O1572 O 0.73324 0.53338 0.27452
 O1573 O 0.71221 0.50192 0.23164
 O1574 O 0.71772 0.47597 0.23405
 O1575 O 0.74875 0.51930 0.21242
 O1576 O 0.77475 0.51783 0.21786
 Zr1577 Zr 0.75794 0.51797 0.23298
 O1578 O 0.77156 0.50534 0.24574
 Zr1579 Zr 0.73283 0.49279 0.23270
 O1580 O 0.74544 0.47895 0.24527
 Zr1581 Zr 0.73267 0.51793 0.25800
 O1582 O 0.74505 0.50518 0.27180
 Zr1583 Zr 0.76719 0.48359 0.24228
 O1584 O 0.75470 0.49614 0.22805
 Zr1585 Zr 0.76679 0.50871 0.26743
 O1586 O 0.75440 0.52275 0.25472
 Zr1587 Zr 0.74164 0.48346 0.26695
 O1588 O 0.72782 0.49621 0.25437
 O1589 O 0.73636 0.51437 0.23645
 O1590 O 0.76331 0.48704 0.26384
 C1591 C 0.73869 0.54461 0.23887
 C1592 C 0.73874 0.51213 0.20625
 C1593 C 0.70611 0.51203 0.23875
 C1594 C 0.76203 0.45744 0.26215
 C1595 C 0.79278 0.48836 0.26312
 C1596 C 0.76153 0.48823 0.29322
 H1597 H 0.78166 0.50751 0.24348
 H1598 H 0.74265 0.50740 0.28184
 H1599 H 0.73026 0.52048 0.23036
 H1600 H 0.74337 0.46886 0.24285
 H1601 H 0.76295 0.47230 0.21744
 H1602 H 0.73871 0.46972 0.21864
 H1603 H 0.75848 0.52339 0.28953
 H1604 H 0.74260 0.53829 0.27376
 H1605 H 0.78108 0.48964 0.21927
 H1606 H 0.77257 0.51025 0.21078
 H1607 H 0.72618 0.49152 0.28855
 H1608 H 0.71243 0.50794 0.27377
 H1609 H 0.77355 0.53830 0.24316
 H1610 H 0.78828 0.52420 0.25918
 H1611 H 0.71203 0.47766 0.24281
 H1612 H 0.72690 0.46148 0.25839
 O1613 O 0.53724 0.23166 0.74767
 O1614 O 0.53249 0.23294 0.77292
 O1615 O 0.50019 0.21135 0.73092
 O1616 O 0.47634 0.21494 0.73157
 O1617 O 0.51705 0.24864 0.71103
 O1618 O 0.51518 0.27393 0.71617
 O1619 O 0.46203 0.25027 0.76832
 O1620 O 0.46658 0.22498 0.76555
 O1621 O 0.49777 0.26836 0.78639
 O1622 O 0.52382 0.26700 0.78143
 O1623 O 0.47998 0.28642 0.75062
 O1624 O 0.48114 0.28136 0.72449
 O1625 O 0.46172 0.26771 0.75140
 O1626 O 0.46607 0.26554 0.72483
 O1627 O 0.49713 0.28671 0.76783
 O1628 O 0.52378 0.28207 0.76551
 O1629 O 0.48062 0.25113 0.78650
 O1630 O 0.48390 0.22662 0.78376
 O1631 O 0.53687 0.24891 0.73052
 O1632 O 0.53136 0.27424 0.73218
 O1633 O 0.50001 0.23123 0.71121
 O1634 O 0.47423 0.23327 0.71709
 O1635 O 0.51810 0.21180 0.74738
 O1636 O 0.51688 0.21704 0.77350
 Zr1637 Zr 0.51669 0.23229 0.75678
 O1638 O 0.50414 0.24482 0.77065
 Zr1639 Zr 0.49125 0.23197 0.73197
 O1640 O 0.47746 0.24432 0.74484
 Zr1641 Zr 0.51610 0.25754 0.73170
 O1642 O 0.50340 0.27113 0.74438
 Zr1643 Zr 0.48243 0.24113 0.76647
 O1644 O 0.49493 0.22712 0.75373
 Zr1645 Zr 0.50720 0.26664 0.76606
 O1646 O 0.52118 0.25414 0.75337
 Zr1647 Zr 0.48171 0.26611 0.74120
 O1648 O 0.49439 0.25375 0.72710
 O1649 O 0.51280 0.23590 0.73527
 O1650 O 0.48557 0.26281 0.76280
 C1651 C 0.54303 0.23869 0.73737
 C1652 C 0.51089 0.20562 0.73740
 C1653 C 0.51013 0.23830 0.70511
 C1654 C 0.45610 0.26091 0.76194
 C1655 C 0.48724 0.26175 0.79224
 C1656 C 0.48650 0.29234 0.76118
 H1657 H 0.50644 0.24249 0.78070
 H1658 H 0.50549 0.28123 0.74203
 H1659 H 0.51891 0.22990 0.72907
 H1660 H 0.46738 0.24182 0.74287
 H1661 H 0.47139 0.21615 0.76221
 H1662 H 0.46844 0.21761 0.73806
 H1663 H 0.52163 0.28889 0.75772
 H1664 H 0.53632 0.27353 0.74150
 H1665 H 0.48894 0.21808 0.78013
 H1666 H 0.50947 0.20981 0.77128
 H1667 H 0.48947 0.28777 0.72567
 H1668 H 0.50571 0.27312 0.71151
 H1669 H 0.53689 0.24258 0.77245
 H1670 H 0.52273 0.25843 0.78754
 H1671 H 0.47566 0.24218 0.71155
 H1672 H 0.45947 0.25753 0.72689
 O1673 O 0.25111 0.76811 0.46118
 O1674 O 0.22591 0.76684 0.46631
 O1675 O 0.26836 0.78809 0.49817
 O1676 O 0.26809 0.78435 0.52196
 O1677 O 0.28810 0.75100 0.48073
 O1678 O 0.28310 0.72578 0.48238
 O1679 O 0.23137 0.74872 0.53637
 O1680 O 0.23386 0.77378 0.53244
 O1681 O 0.21304 0.73112 0.50053
 O1682 O 0.21791 0.73239 0.47448
 O1683 O 0.24901 0.71286 0.51801
 O1684 O 0.27501 0.71783 0.51675
 O1685 O 0.24845 0.73143 0.53644
 O1686 O 0.27508 0.73386 0.53164
 O1687 O 0.23161 0.71272 0.50105
 O1688 O 0.23379 0.71746 0.47441
 O1689 O 0.21305 0.74795 0.51807
 O1690 O 0.21731 0.77449 0.51529
 O1691 O 0.26844 0.75101 0.46122
 O1692 O 0.26676 0.72552 0.46649
 O1693 O 0.28807 0.76850 0.49765
 O1694 O 0.28277 0.76577 0.52363
 O1695 O 0.25119 0.78797 0.48091
 O1696 O 0.22580 0.78270 0.48248
 Zr1697 Zr 0.24230 0.76726 0.48188
 O1698 O 0.22858 0.75454 0.49438
 Zr1699 Zr 0.26754 0.76740 0.50695
 O1700 O 0.25477 0.75497 0.52077
 Zr1701 Zr 0.26748 0.74210 0.48187
 O1702 O 0.25503 0.72836 0.49463
 Zr1703 Zr 0.23304 0.75815 0.51609
 O1704 O 0.24573 0.77214 0.50362
 Zr1705 Zr 0.23332 0.73282 0.49107
 O1706 O 0.24575 0.74549 0.47707
 Zr1707 Zr 0.25840 0.73321 0.51633
 O1708 O 0.27236 0.74565 0.50356
 O1709 O 0.26387 0.76371 0.48541
 O1710 O 0.23676 0.73650 0.51270
 C1711 C 0.26142 0.76121 0.45521
 C1712 C 0.26144 0.79402 0.48786
 C1713 C 0.29404 0.76146 0.48744
 C1714 C 0.23789 0.73810 0.54218
 C1715 C 0.20729 0.73745 0.51128
 C1716 C 0.23836 0.70701 0.51156
 H1717 H 0.21852 0.75670 0.49200
 H1718 H 0.25739 0.71829 0.49243
 H1719 H 0.26989 0.76984 0.47927
 H1720 H 0.25683 0.75738 0.53086
 H1721 H 0.23841 0.78238 0.52822
 H1722 H 0.26239 0.78131 0.53032
 H1723 H 0.24158 0.71060 0.47649
 H1724 H 0.25746 0.72639 0.46153
 H1725 H 0.21038 0.77211 0.50766
 H1726 H 0.22649 0.78749 0.49190
 H1727 H 0.27402 0.71177 0.50814
 H1728 H 0.28780 0.72643 0.49184
 H1729 H 0.22634 0.75728 0.46175
 H1730 H 0.21173 0.74091 0.47560
 H1731 H 0.28847 0.75704 0.52176
 H1732 H 0.27295 0.74166 0.53847
 O1733 O 0.25078 0.26934 0.96275
 O1734 O 0.22569 0.26850 0.96859
 O1735 O 0.26951 0.28772 0.99989
 O1736 O 0.26958 0.28319 1.02362
 O1737 O 0.28789 0.25068 0.98089
 O1738 O 0.28217 0.22551 0.98178
 O1739 O 0.23238 0.24778 1.03773
 O1740 O 0.23595 0.27307 1.03475
 O1741 O 0.21286 0.23201 1.00232
 O1742 O 0.21696 0.23444 0.97587
 O1743 O 0.24842 0.21243 1.01804
 O1744 O 0.27478 0.21665 1.01572
 O1745 O 0.24939 0.23045 1.03694
 O1746 O 0.27567 0.23188 1.03139
 O1747 O 0.23097 0.21317 1.00115
 O1748 O 0.23211 0.21880 0.97491
 O1749 O 0.21364 0.24884 1.01986
 O1750 O 0.21876 0.27493 1.01830
 O1751 O 0.26766 0.25183 0.96182
 O1752 O 0.26555 0.22628 0.96627
 O1753 O 0.28869 0.26761 0.99837
 O1754 O 0.28411 0.26427 1.02417
 O1755 O 0.25208 0.28848 0.98293
 O1756 O 0.22657 0.28398 0.98519
 Zr1757 Zr 0.24254 0.26806 0.98366
 O1758 O 0.22882 0.25536 0.99618
 Zr1759 Zr 0.26838 0.26677 1.00806
 O1760 O 0.25573 0.25416 1.02182
 Zr1761 Zr 0.26703 0.24228 0.98220
 O1762 O 0.25449 0.22846 0.99479
 Zr1763 Zr 0.23400 0.25812 1.01786
 O1764 O 0.24665 0.27219 1.00544
 Zr1765 Zr 0.23280 0.23363 0.99203
 O1766 O 0.24527 0.24637 0.97810
 Zr1767 Zr 0.25859 0.23246 1.01653
 O1768 O 0.27252 0.24501 1.00385
 O1769 O 0.26410 0.26384 0.98652
 O1770 O 0.23696 0.23650 1.01366
 C1771 C 0.26075 0.26238 0.95630
 C1772 C 0.26260 0.29408 0.98984
 C1773 C 0.29426 0.26074 0.98783
 C1774 C 0.23897 0.23697 1.04308
 C1775 C 0.20748 0.23850 1.01319
 C1776 C 0.23761 0.20701 1.01148
 H1777 H 0.21877 0.25788 0.99416
 H1778 H 0.25648 0.21841 0.99219
 H1779 H 0.27014 0.26998 0.98041
 H1780 H 0.25814 0.25614 1.03192
 H1781 H 0.24050 0.28173 1.03066
 H1782 H 0.26446 0.27978 1.03222
 H1783 H 0.24015 0.21204 0.97613
 H1784 H 0.25610 0.22747 0.96166
 H1785 H 0.21210 0.27362 1.01019
 H1786 H 0.22775 0.28854 0.99468
 H1787 H 0.27290 0.21048 1.00733
 H1788 H 0.28705 0.22565 0.99117
 H1789 H 0.22573 0.25906 0.96377
 H1790 H 0.21063 0.24265 0.97793
 H1791 H 0.28930 0.25529 1.02205
 H1792 H 0.27431 0.23982 1.03824
 C1793 C 0.28914 0.40590 0.78475
 C1794 C 0.28337 0.40069 0.79772
 C1795 C 0.28945 0.38870 0.80442
 C1796 C 0.30131 0.38168 0.79844
 C1797 C 0.30707 0.38699 0.78564
 C1798 C 0.30111 0.39890 0.77889
 C1799 C 0.28229 0.41871 0.77793
 C1800 C 0.28719 0.42473 0.76502
 C1801 C 0.28073 0.43694 0.75935
 C1802 C 0.26915 0.44346 0.76633
 C1803 C 0.26397 0.43732 0.77901
 C1804 C 0.27045 0.42510 0.78486
 C1805 C 0.27157 0.40747 0.80397
 C1806 C 0.26527 0.41943 0.79770
 H1807 H 0.26716 0.40350 0.81392
 H1808 H 0.25622 0.42433 0.80301
 H1809 H 0.28486 0.38491 0.81433
 H1810 H 0.31622 0.38194 0.78070
 H1811 H 0.28502 0.44144 0.74959
 H1812 H 0.25511 0.44227 0.78461
 H1813 H 0.30607 0.40242 0.76911
 H1814 H 0.29610 0.42032 0.75920
 C1815 C 0.28579 -0.09412 0.28746
 C1816 C 0.29921 -0.09887 0.28234
 C1817 C 0.30594 -0.11075 0.28865
 C1818 C 0.29955 -0.11803 0.30015
 C1819 C 0.28634 -0.11311 0.30529
 C1820 C 0.27955 -0.10138 0.29907
 C1821 C 0.27895 -0.08142 0.28046
 C1822 C 0.26551 -0.07604 0.28463
 C1823 C 0.25989 -0.06378 0.27827
 C1824 C 0.26742 -0.05655 0.26749
 C1825 C 0.28058 -0.06214 0.26287
 C1826 C 0.28637 -0.07446 0.26927
 C1827 C 0.30587 -0.09167 0.27102
 C1828 C 0.29963 -0.07969 0.26468
 H1829 H 0.31615 -0.09527 0.26708
 H1830 H 0.30530 -0.07443 0.25606
 H1831 H 0.31617 -0.11426 0.28456
 H1832 H 0.28107 -0.11830 0.31415
 H1833 H 0.24970 -0.05979 0.28205
 H1834 H 0.28656 -0.05668 0.25459
 H1835 H 0.26945 -0.09818 0.30359
 H1836 H 0.25922 -0.08100 0.29291
 C1837 C 0.78895 0.90586 0.78493
 C1838 C 0.78322 0.90051 0.79786
 C1839 C 0.78924 0.88834 0.80436
 C1840 C 0.80114 0.88133 0.79830
 C1841 C 0.80691 0.88696 0.78560
 C1842 C 0.80095 0.89897 0.77902
 C1843 C 0.78208 0.91874 0.77822
 C1844 C 0.78674 0.92466 0.76518
 C1845 C 0.78025 0.93688 0.75957
 C1846 C 0.76888 0.94356 0.76674
 C1847 C 0.76393 0.93753 0.77959
 C1848 C 0.77041 0.92524 0.78534
 C1849 C 0.77155 0.90738 0.80428
 C1850 C 0.76536 0.91952 0.79821
 H1851 H 0.76718 0.90335 0.81422
 H1852 H 0.75643 0.92447 0.80368
 H1853 H 0.78458 0.88449 0.81421
 H1854 H 0.81608 0.88214 0.78050
 H1855 H 0.78436 0.94125 0.74967
 H1856 H 0.75522 0.94258 0.78533
 H1857 H 0.80595 0.90268 0.76933
 H1858 H 0.79545 0.92010 0.75916
 C1859 C 0.46188 0.84476 0.28476
 C1860 C 0.46684 0.84936 0.29830
 C1861 C 0.46049 0.86119 0.30506
 C1862 C 0.44912 0.86858 0.29858
 C1863 C 0.44414 0.86385 0.28523
 C1864 C 0.45039 0.85214 0.27841
 C1865 C 0.46897 0.83212 0.27788
 C1866 C 0.46492 0.82683 0.26436
 C1867 C 0.47147 0.81470 0.25864
 C1868 C 0.48229 0.80754 0.26617
 C1869 C 0.48670 0.81299 0.27947
 C1870 C 0.48012 0.82514 0.28536
 C1871 C 0.47804 0.84207 0.30507
 C1872 C 0.48449 0.83019 0.29877
 H1873 H 0.48183 0.84556 0.31546
 H1874 H 0.49302 0.82485 0.30452
 H1875 H 0.46439 0.86452 0.31544
 H1876 H 0.43543 0.86923 0.27987
 H1877 H 0.46780 0.81077 0.24837
 H1878 H 0.49496 0.80751 0.28548
 H1879 H 0.44601 0.84906 0.26820
 H1880 H 0.45661 0.83174 0.25807
 C1881 C -0.03684 0.84587 0.78425
 C1882 C -0.03133 0.85092 0.79742
 C1883 C -0.03766 0.86273 0.80425
 C1884 C -0.04956 0.86965 0.79823
 C1885 C -0.05503 0.86449 0.78521
 C1886 C -0.04881 0.85281 0.77832
 C1887 C -0.02986 0.83316 0.77735
 C1888 C -0.03450 0.82736 0.76422
 C1889 C -0.02818 0.81503 0.75865
 C1890 C -0.01700 0.80816 0.76594
 C1891 C -0.01191 0.81422 0.77873
 C1892 C -0.01826 0.82657 0.78448
 C1893 C -0.01962 0.84407 0.80376
 C1894 C -0.01327 0.83213 0.79747
 H1895 H -0.01537 0.84792 0.81385
 H1896 H -0.00436 0.82711 0.80292
 H1897 H -0.03333 0.86641 0.81434
 H1898 H -0.06417 0.86947 0.78019
 H1899 H -0.03235 0.81066 0.74876
 H1900 H -0.00332 0.80904 0.78454
 H1901 H -0.05360 0.84939 0.76841
 H1902 H -0.04313 0.83201 0.75817
 C1903 C -0.03412 -0.09723 -0.03575
 C1904 C -0.04794 -0.10137 -0.03120
 C1905 C -0.05468 -0.11332 -0.03739
 C1906 C -0.04793 -0.12123 -0.04824
 C1907 C -0.03423 -0.11702 -0.05271
 C1908 C -0.02742 -0.10523 -0.04659
 C1909 C -0.02736 -0.08431 -0.02902
 C1910 C -0.01364 -0.07933 -0.03278
 C1911 C -0.00812 -0.06682 -0.02675
 C1912 C -0.01605 -0.05900 -0.01671
 C1913 C -0.02952 -0.06416 -0.01251
 C1914 C -0.03522 -0.07666 -0.01860
 C1915 C -0.05504 -0.09347 -0.02064
 C1916 C -0.04885 -0.08134 -0.01453
 H1917 H -0.06563 -0.09661 -0.01715
 H1918 H -0.05487 -0.07548 -0.00655
 H1919 H -0.06528 -0.11629 -0.03384
 H1920 H -0.02862 -0.12279 -0.06100
 H1921 H 0.00229 -0.06312 -0.03020
 H1922 H -0.03585 -0.05815 -0.00487
 H1923 H -0.01696 -0.10255 -0.05061
 H1924 H -0.00705 -0.08477 -0.04052
 C1925 C -0.03539 0.40542 0.46105
 C1926 C -0.04871 0.40053 0.46626
 C1927 C -0.05533 0.38852 0.46006
 C1928 C -0.04903 0.38127 0.44844
 C1929 C -0.03595 0.38647 0.44313
 C1930 C -0.02923 0.39829 0.44932
 C1931 C -0.02857 0.41815 0.46809
 C1932 C -0.01511 0.42355 0.46400
 C1933 C -0.00946 0.43575 0.47051
 C1934 C -0.01699 0.44288 0.48135
 C1935 C -0.03021 0.43730 0.48583
 C1936 C -0.03601 0.42506 0.47931
 C1937 C -0.05542 0.40773 0.47756
 C1938 C -0.04927 0.41979 0.48386
 H1939 H -0.06567 0.40406 0.48153
 H1940 H -0.05498 0.42507 0.49245
 H1941 H -0.06550 0.38501 0.46431
 H1942 H -0.03064 0.38143 0.43419
 H1943 H 0.00077 0.43975 0.46683
 H1944 H -0.03621 0.44270 0.49415
 H1945 H -0.01925 0.40169 0.44467
 H1946 H -0.00880 0.41861 0.45571
 C1947 C 0.46179 -0.09437 0.46420
 C1948 C 0.46723 -0.09941 0.45102
 C1949 C 0.46102 -0.11137 0.44431
 C1950 C 0.44919 -0.11845 0.45039
 C1951 C 0.44365 -0.11310 0.46333
 C1952 C 0.44983 -0.10131 0.47012
 C1953 C 0.46887 -0.08171 0.47112
 C1954 C 0.46457 -0.07617 0.48446
 C1955 C 0.47116 -0.06405 0.49021
 C1956 C 0.48228 -0.05713 0.48289
 C1957 C 0.48696 -0.06285 0.46980
 C1958 C 0.48037 -0.07502 0.46390
 C1959 C 0.47879 -0.09241 0.44453
 C1960 C 0.48513 -0.08042 0.45077
 H1961 H 0.48292 -0.09619 0.43439
 H1962 H 0.49392 -0.07531 0.44523
 H1963 H 0.46546 -0.11500 0.43427
 H1964 H 0.43453 -0.11799 0.46845
 H1965 H 0.46730 -0.05993 0.50032
 H1966 H 0.49549 -0.05761 0.46396
 H1967 H 0.44500 -0.09779 0.47998
 H1968 H 0.45605 -0.08093 0.49059
 C1969 C 0.46095 0.40570 -0.03613
 C1970 C 0.46662 0.40056 -0.04917
 C1971 C 0.46055 0.38852 -0.05587
 C1972 C 0.44871 0.38139 -0.04987
 C1973 C 0.44299 0.38680 -0.03703
 C1974 C 0.44898 0.39871 -0.03028
 C1975 C 0.46786 0.41847 -0.02923
 C1976 C 0.46319 0.42426 -0.01612
 C1977 C 0.46971 0.43642 -0.01037
 C1978 C 0.48112 0.44312 -0.01744
 C1979 C 0.48609 0.43720 -0.03033
 C1980 C 0.47956 0.42502 -0.03625
 C1981 C 0.47830 0.40748 -0.05551
 C1982 C 0.48457 0.41948 -0.04923
 H1983 H 0.48262 0.40361 -0.06553
 H1984 H 0.49351 0.42451 -0.05463
 H1985 H 0.46517 0.38482 -0.06580
 H1986 H 0.43385 0.38187 -0.03197
 H1987 H 0.46560 0.44072 -0.00043
 H1988 H 0.49482 0.44229 -0.03600
 H1989 H 0.44403 0.40225 -0.02050
 H1990 H 0.45444 0.41969 -0.01019
 C1991 C 0.78733 0.34601 0.46613
 C1992 C 0.78221 0.35059 0.45266
 C1993 C 0.78869 0.36220 0.44569
 C1994 C 0.80036 0.36940 0.45187
 C1995 C 0.80551 0.36469 0.46515
 C1996 C 0.79912 0.35318 0.47219
 C1997 C 0.78016 0.33349 0.47317
 C1998 C 0.78435 0.32816 0.48662
 C1999 C 0.77797 0.31590 0.49227
 C2000 C 0.76716 0.30868 0.48473
 C2001 C 0.76241 0.31435 0.47167
 C2002 C 0.76884 0.32660 0.46583
 C2003 C 0.77073 0.34350 0.44613
 C2004 C 0.76424 0.33172 0.45254
 H2005 H 0.76681 0.34701 0.43581
 H2006 H 0.75555 0.32646 0.44694
 H2007 H 0.78464 0.36550 0.43537
 H2008 H 0.81448 0.36991 0.47026
 H2009 H 0.78182 0.31184 0.50240
 H2010 H 0.75409 0.30891 0.46568
 H2011 H 0.80364 0.35007 0.48233
 H2012 H 0.79271 0.33310 0.49284
 C2013 C 0.78515 0.84625 -0.03639
 C2014 C 0.79908 0.85035 -0.03209
 C2015 C 0.80587 0.86204 -0.03866
 C2016 C 0.79907 0.86972 -0.04964
 C2017 C 0.78532 0.86550 -0.05393
 C2018 C 0.77845 0.85397 -0.04744
 C2019 C 0.77831 0.83364 -0.02922
 C2020 C 0.76444 0.82883 -0.03262
 C2021 C 0.75888 0.81650 -0.02633
 C2022 C 0.76693 0.80867 -0.01638
 C2023 C 0.78049 0.81378 -0.01238
 C2024 C 0.78623 0.82612 -0.01875
 C2025 C 0.80621 0.84266 -0.02140
 C2026 C 0.79996 0.83075 -0.01493
 H2027 H 0.81687 0.84578 -0.01809
 H2028 H 0.80601 0.82504 -0.00687
 H2029 H 0.81655 0.86499 -0.03530
 H2030 H 0.77969 0.87114 -0.06231
 H2031 H 0.74836 0.81289 -0.02957
 H2032 H 0.78687 0.80783 -0.00475
 H2033 H 0.76794 0.85126 -0.05132
 H2034 H 0.75776 0.83425 -0.04030
 C2035 C 0.78481 0.28696 0.40471
 C2036 C 0.79843 0.28216 0.40020
 C2037 C 0.80518 0.28861 0.38843
 C2038 C 0.79862 0.29993 0.38104
 C2039 C 0.78516 0.30471 0.38564
 C2040 C 0.77835 0.29835 0.39728
 C2041 C 0.77802 0.27989 0.41740
 C2042 C 0.76448 0.28385 0.42269
 C2043 C 0.75900 0.27755 0.43504
 C2044 C 0.76677 0.26704 0.44241
 C2045 C 0.78000 0.26258 0.43686
 C2046 C 0.78568 0.26895 0.42452
 C2047 C 0.80530 0.27106 0.40754
 C2048 C 0.79910 0.26464 0.41947
 H2049 H 0.81573 0.26736 0.40410
 H2050 H 0.80495 0.25623 0.42489
 H2051 H 0.81563 0.28486 0.38517
 H2052 H 0.77973 0.31336 0.38023
 H2053 H 0.74876 0.28120 0.43902
 H2054 H 0.78619 0.25453 0.44246
 H2055 H 0.76807 0.30259 0.40027
 H2056 H 0.75804 0.29195 0.41763
 C2057 C 0.78333 0.78754 -0.09654
 C2058 C 0.79667 0.78229 -0.10137
 C2059 C 0.80348 0.78869 -0.11313
 C2060 C 0.79732 0.80041 -0.12025
 C2061 C 0.78415 0.80567 -0.11531
 C2062 C 0.77725 0.79936 -0.10365
 C2063 C 0.77649 0.78045 -0.08385
 C2064 C 0.76318 0.78474 -0.07826
 C2065 C 0.75769 0.77838 -0.06591
 C2066 C 0.76525 0.76750 -0.05883
 C2067 C 0.77821 0.76271 -0.06471
 C2068 C 0.78387 0.76910 -0.07707
 C2069 C 0.80323 0.77079 -0.09437
 C2070 C 0.79702 0.76439 -0.08245
 H2071 H 0.81344 0.76676 -0.09808
 H2072 H 0.80266 0.75568 -0.07729
 H2073 H 0.81369 0.78452 -0.11659
 H2074 H 0.77905 0.81468 -0.12045
 H2075 H 0.74764 0.78228 -0.06170
 H2076 H 0.78422 0.75435 -0.05938
 H2077 H 0.76720 0.80395 -0.10037
 H2078 H 0.75693 0.79313 -0.08309
 C2079 C 0.28534 0.46119 0.84409
 C2080 C 0.29844 0.46680 0.84921
 C2081 C 0.30512 0.46066 0.86119
 C2082 C 0.29899 0.44890 0.86827
 C2083 C 0.28607 0.44330 0.86304
 C2084 C 0.27934 0.44931 0.85115
 C2085 C 0.27851 0.46811 0.83132
 C2086 C 0.26547 0.46336 0.82542
 C2087 C 0.25977 0.46989 0.81327
 C2088 C 0.26684 0.48139 0.80668
 C2089 C 0.27968 0.48640 0.81268
 C2090 C 0.28556 0.47985 0.82485
 C2091 C 0.30482 0.47849 0.84235
 C2092 C 0.29854 0.48485 0.83042
 H2093 H 0.31487 0.48278 0.84623
 H2094 H 0.30396 0.49382 0.82546
 H2095 H 0.31515 0.46509 0.86492
 H2096 H 0.28099 0.43425 0.86814
 H2097 H 0.24990 0.46571 0.80887
 H2098 H 0.28536 0.49518 0.80766
 H2099 H 0.26946 0.44448 0.84771
 H2100 H 0.25957 0.45453 0.82988
 C2101 C 0.28624 -0.03725 0.34458
 C2102 C 0.29975 -0.03214 0.34912
 C2103 C 0.30656 -0.03831 0.36105
 C2104 C 0.30011 -0.04961 0.36858
 C2105 C 0.28671 -0.05461 0.36396
 C2106 C 0.27989 -0.04858 0.35218
 C2107 C 0.27935 -0.03046 0.33178
 C2108 C 0.26596 -0.03484 0.32639
 C2109 C 0.26019 -0.02850 0.31418
 C2110 C 0.26754 -0.01755 0.30703
 C2111 C 0.28075 -0.01289 0.31251
 C2112 C 0.28670 -0.01928 0.32473
 C2113 C 0.30643 -0.02096 0.34171
 C2114 C 0.30006 -0.01469 0.32977
 H2115 H 0.31678 -0.01704 0.34515
 H2116 H 0.30571 -0.00614 0.32435
 H2117 H 0.31692 -0.03433 0.36435
 H2118 H 0.28131 -0.06323 0.36945
 H2119 H 0.25003 -0.03238 0.31021
 H2120 H 0.28666 -0.00454 0.30703
 H2121 H 0.26965 -0.05298 0.34924
 H2122 H 0.25981 -0.04327 0.33129
 C2123 C -0.03586 -0.03503 -0.09631
 C2124 C -0.03047 -0.04821 -0.10146
 C2125 C -0.03684 -0.05487 -0.11337
 C2126 C -0.04883 -0.04878 -0.12018
 C2127 C -0.05428 -0.03584 -0.11469
 C2128 C -0.04791 -0.02908 -0.10302
 C2129 C -0.02876 -0.02822 -0.08363
 C2130 C -0.03296 -0.01484 -0.07808
 C2131 C -0.02667 -0.00938 -0.06570
 C2132 C -0.01592 -0.01702 -0.05855
 C2133 C -0.01112 -0.03001 -0.06444
 C2134 C -0.01743 -0.03563 -0.07688
 C2135 C -0.01892 -0.05478 -0.09455
 C2136 C -0.01265 -0.04871 -0.08243
 H2137 H -0.01480 -0.06491 -0.09841
 H2138 H -0.00393 -0.05437 -0.07731
 H2139 H -0.03249 -0.06493 -0.11711
 H2140 H -0.06348 -0.03068 -0.11937
 H2141 H -0.03051 0.00073 -0.06152
 H2142 H -0.00280 -0.03605 -0.05908
 H2143 H -0.05273 -0.01926 -0.09936
 H2144 H -0.04122 -0.00848 -0.08300
 C2145 C -0.03551 0.46127 0.40569
 C2146 C -0.04876 0.46663 0.40077
 C2147 C -0.05550 0.46037 0.38886
 C2148 C -0.04940 0.44855 0.38175
 C2149 C -0.03641 0.44306 0.38702
 C2150 C -0.02958 0.44930 0.39874
 C2151 C -0.02853 0.46842 0.41827
 C2152 C -0.01508 0.46424 0.42364
 C2153 C -0.00929 0.47085 0.43571
 C2154 C -0.01668 0.48187 0.44276
 C2155 C -0.02986 0.48644 0.43719
 C2156 C -0.03580 0.47983 0.42506
 C2157 C -0.05529 0.47813 0.40784
 C2158 C -0.04903 0.48449 0.41979
 H2159 H -0.06550 0.48219 0.40415
 H2160 H -0.05461 0.49323 0.42497
 H2161 H -0.06560 0.46475 0.38531
 H2162 H -0.03127 0.43395 0.38211
 H2163 H 0.00090 0.46709 0.43971
 H2164 H -0.03575 0.49489 0.44252
 H2165 H -0.01969 0.44451 0.40221
 H2166 H -0.00890 0.45582 0.41877
 C2167 C 0.46418 -0.03934 0.40605
 C2168 C 0.45080 -0.03412 0.40131
 C2169 C 0.44403 -0.04039 0.38944
 C2170 C 0.45038 -0.05187 0.38210
 C2171 C 0.46354 -0.05715 0.38699
 C2172 C 0.47036 -0.05101 0.39877
 C2173 C 0.47111 -0.03228 0.41869
 C2174 C 0.48446 -0.03660 0.42416
 C2175 C 0.49025 -0.03000 0.43623
 C2176 C 0.48295 -0.01885 0.44316
 C2177 C 0.46982 -0.01420 0.43755
 C2178 C 0.46385 -0.02084 0.42546
 C2179 C 0.44423 -0.02269 0.40844
 C2180 C 0.45059 -0.01622 0.42027
 H2181 H 0.43396 -0.01869 0.40483
 H2182 H 0.44504 -0.00745 0.42544
 H2183 H 0.43379 -0.03627 0.38599
 H2184 H 0.46878 -0.06596 0.38164
 H2185 H 0.50037 -0.03387 0.44030
 H2186 H 0.46399 -0.00568 0.44283
 H2187 H 0.48045 -0.05556 0.40194
 H2188 H 0.49056 -0.04516 0.41943
 C2189 C 0.46453 0.46088 -0.09439
 C2190 C 0.45159 0.46666 -0.09969
 C2191 C 0.44481 0.46038 -0.11155
 C2192 C 0.45066 0.44827 -0.11828
 C2193 C 0.46338 0.44246 -0.11282
 C2194 C 0.47021 0.44863 -0.10108
 C2195 C 0.47148 0.46796 -0.08178
 C2196 C 0.48447 0.46316 -0.07584
 C2197 C 0.49023 0.46977 -0.06377
 C2198 C 0.48327 0.48139 -0.05727
 C2199 C 0.47055 0.48653 -0.06338
 C2200 C 0.46463 0.47992 -0.07551
 C2201 C 0.44546 0.47865 -0.09311
 C2202 C 0.45179 0.48509 -0.08123
 H2203 H 0.43553 0.48307 -0.09713
 H2204 H 0.44654 0.49425 -0.07645
 H2205 H 0.43494 0.46497 -0.11545
 H2206 H 0.46822 0.43312 -0.11762
 H2207 H 0.50004 0.46551 -0.05933
 H2208 H 0.46499 0.49545 -0.05846
 H2209 H 0.47991 0.44360 -0.09742
 H2210 H 0.49028 0.45422 -0.08022
 C2211 C 0.46468 0.78949 0.34320
 C2212 C 0.45138 0.78421 0.34810
 C2213 C 0.44475 0.79044 0.36005
 C2214 C 0.45112 0.80196 0.36734
 C2215 C 0.46425 0.80724 0.36235
 C2216 C 0.47094 0.80114 0.35047
 C2217 C 0.47143 0.78249 0.33042
 C2218 C 0.48465 0.78690 0.32472
 C2219 C 0.49027 0.78032 0.31256
 C2220 C 0.48294 0.76910 0.30575
 C2221 C 0.46992 0.76439 0.31156
 C2222 C 0.46412 0.77100 0.32375
 C2223 C 0.44474 0.77275 0.34104
 C2224 C 0.45096 0.76631 0.32913
 H2225 H 0.43454 0.76871 0.34477
 H2226 H 0.44537 0.75751 0.32405
 H2227 H 0.43456 0.78625 0.36359
 H2228 H 0.46952 0.81609 0.36763
 H2229 H 0.50030 0.78427 0.30833
 H2230 H 0.46405 0.75582 0.30639
 H2231 H 0.48100 0.80571 0.34720
 H2232 H 0.49075 0.79554 0.32935
 C2233 C -0.03373 0.78652 0.84574
 C2234 C -0.04652 0.78045 0.85106
 C2235 C -0.05355 0.78676 0.86274
 C2236 C -0.04812 0.79919 0.86922
 C2237 C -0.03552 0.80527 0.86377
 C2238 C -0.02842 0.79905 0.85223
 C2239 C -0.02663 0.77955 0.83316
 C2240 C -0.01375 0.78461 0.82721
 C2241 C -0.00812 0.77837 0.81489
 C2242 C -0.01509 0.76685 0.80821
 C2243 C -0.02751 0.76125 0.81451
 C2244 C -0.03332 0.76750 0.82685
 C2245 C -0.05234 0.76823 0.84460
 C2246 C -0.04594 0.76196 0.83269
 H2247 H -0.06214 0.76357 0.84867
 H2248 H -0.05103 0.75269 0.82792
 H2249 H -0.06335 0.78199 0.86664
 H2250 H -0.03097 0.81483 0.86844
 H2251 H 0.00154 0.78288 0.81037
 H2252 H -0.03303 0.75234 0.80950
 H2253 H -0.01884 0.80430 0.84854
 H2254 H -0.00798 0.79353 0.83172
 C2255 C 0.40569 0.78844 0.28503
 C2256 C 0.40107 0.78334 0.29849
 C2257 C 0.38916 0.78955 0.30522
 C2258 C 0.38169 0.80090 0.29878
 C2259 C 0.38640 0.80596 0.28547
 C2260 C 0.39819 0.79986 0.27869
 C2261 C 0.41846 0.78154 0.27820
 C2262 C 0.42388 0.78583 0.26482
 C2263 C 0.43609 0.77943 0.25915
 C2264 C 0.44323 0.76852 0.26658
 C2265 C 0.43768 0.76390 0.27975
 C2266 C 0.42544 0.77034 0.28561
 C2267 C 0.40838 0.77211 0.30520
 C2268 C 0.42031 0.76577 0.29891
 H2269 H 0.40487 0.76819 0.31551
 H2270 H 0.42563 0.75717 0.30457
 H2271 H 0.38582 0.78555 0.31555
 H2272 H 0.38094 0.81464 0.28012
 H2273 H 0.44010 0.78325 0.24898
 H2274 H 0.44311 0.75556 0.28570
 H2275 H 0.40123 0.80429 0.26850
 H2276 H 0.41899 0.79422 0.25861
 C2277 C -0.09556 0.78367 0.78688
 C2278 C -0.10053 0.79687 0.78138
 C2279 C -0.11234 0.80372 0.78766
 C2280 C -0.11938 0.79769 0.79948
 C2281 C -0.11431 0.78465 0.80496
 C2282 C -0.10260 0.77774 0.79879
 C2283 C -0.08284 0.77677 0.77992
 C2284 C -0.07706 0.76362 0.78452
 C2285 C -0.06472 0.75806 0.77821
 C2286 C -0.05784 0.76537 0.76706
 C2287 C -0.06389 0.77816 0.76198
 C2288 C -0.07622 0.78392 0.76834
 C2289 C -0.09364 0.80324 0.76972
 C2290 C -0.08172 0.79693 0.76338
 H2291 H -0.09743 0.81335 0.76550
 H2292 H -0.07668 0.80240 0.75450
 H2293 H -0.11592 0.81382 0.78331
 H2294 H -0.11938 0.77964 0.81405
 H2295 H -0.06036 0.74816 0.78236
 H2296 H -0.05871 0.78400 0.75342
 H2297 H -0.09922 0.76780 0.80357
 H2298 H -0.08173 0.75757 0.79315
 C2299 C 0.84613 0.28710 0.46555
 C2300 C 0.85029 0.28259 0.45172
 C2301 C 0.86189 0.28918 0.44483
 C2302 C 0.86949 0.30036 0.45143
 C2303 C 0.86522 0.30490 0.46508
 C2304 C 0.85374 0.29839 0.47206
 C2305 C 0.83358 0.27986 0.47247
 C2306 C 0.82863 0.28347 0.48623
 C2307 C 0.81636 0.27707 0.49183
 C2308 C 0.80875 0.26679 0.48393
 C2309 C 0.81399 0.26263 0.47049
 C2310 C 0.82625 0.26910 0.46471
 C2311 C 0.84276 0.27164 0.44476
 C2312 C 0.83096 0.26510 0.45107
 H2313 H 0.84594 0.26817 0.43417
 H2314 H 0.82539 0.25682 0.44515
 H2315 H 0.86483 0.28563 0.43422
 H2316 H 0.87081 0.31347 0.47052
 H2317 H 0.81263 0.28046 0.50225
 H2318 H 0.80821 0.25476 0.46421
 H2319 H 0.85098 0.30241 0.48250
 H2320 H 0.83390 0.29138 0.49277
 C2321 C 0.84565 0.78392 -0.03735
 C2322 C 0.85018 0.79756 -0.03254
 C2323 C 0.86202 0.80426 -0.03889
 C2324 C 0.86951 0.79763 -0.05010
 C2325 C 0.86484 0.78418 -0.05494
 C2326 C 0.85311 0.77741 -0.04868
 C2327 C 0.83292 0.77715 -0.03033
 C2328 C 0.82755 0.76361 -0.03432
 C2329 C 0.81517 0.75815 -0.02804
 C2330 C 0.80788 0.76595 -0.01750
 C2331 C 0.81351 0.77915 -0.01299
 C2332 C 0.82585 0.78482 -0.01936
 C2333 C 0.84284 0.80447 -0.02146
 C2334 C 0.83092 0.79826 -0.01505
 H2335 H 0.84629 0.81492 -0.01777
 H2336 H 0.82552 0.80412 -0.00664
 H2337 H 0.86535 0.81466 -0.03502
 H2338 H 0.87018 0.77876 -0.06363
 H2339 H 0.81111 0.74793 -0.03171
 H2340 H 0.80797 0.78536 -0.00492
 H2341 H 0.85008 0.76712 -0.05294
 H2342 H 0.83257 0.75716 -0.04245
 C2343 C -0.09536 -0.03475 -0.03620
 C2344 C -0.09999 -0.04831 -0.03131
 C2345 C -0.11173 -0.05511 -0.03782
 C2346 C -0.11892 -0.04869 -0.04935
 C2347 C -0.11416 -0.03530 -0.05422
 C2348 C -0.10259 -0.02843 -0.04779
 C2349 C -0.08270 -0.02791 -0.02910
 C2350 C -0.07742 -0.01433 -0.03303
 C2351 C -0.06503 -0.00884 -0.02677
 C2352 C -0.05761 -0.01665 -0.01633
 C2353 C -0.06321 -0.02986 -0.01181
 C2354 C -0.07561 -0.03553 -0.01812
 C2355 C -0.09275 -0.05511 -0.02009
 C2356 C -0.08076 -0.04891 -0.01372
 H2357 H -0.09627 -0.06549 -0.01631
 H2358 H -0.07539 -0.05472 -0.00526
 H2359 H -0.11511 -0.06550 -0.03396
 H2360 H -0.11935 -0.02996 -0.06305
 H2361 H -0.06105 0.00141 -0.03043
 H2362 H -0.05760 -0.03606 -0.00378
 H2363 H -0.09944 -0.01823 -0.05215
 H2364 H -0.08252 -0.00787 -0.04110
 C2365 C -0.09376 0.46429 0.46068
 C2366 C -0.09907 0.45131 0.46638
 C2367 C -0.11105 0.44467 0.46019
 C2368 C -0.11792 0.45072 0.44828
 C2369 C -0.11248 0.46350 0.44256
 C2370 C -0.10060 0.47019 0.44863
 C2371 C -0.08101 0.47109 0.46764
 C2372 C -0.07504 0.48408 0.46288
 C2373 C -0.06289 0.48975 0.46941
 C2374 C -0.05635 0.48268 0.48092
 C2375 C -0.06245 0.46991 0.48600
 C2376 C -0.07466 0.46408 0.47946
 C2377 C -0.09237 0.44499 0.47820
 C2378 C -0.08039 0.45121 0.48456
 H2379 H -0.09640 0.43504 0.48257
 H2380 H -0.07555 0.44585 0.49361
 H2381 H -0.11495 0.43475 0.46471
 H2382 H -0.11740 0.46851 0.43339
 H2383 H -0.05844 0.49959 0.46521
 H2384 H -0.05750 0.46426 0.49483
 H2385 H -0.09698 0.47995 0.44369
 H2386 H -0.07946 0.48999 0.45403
 C2387 C 0.40615 -0.03824 0.46394
 C2388 C 0.40096 -0.03256 0.45092
 C2389 C 0.38893 -0.03870 0.44423
 C2390 C 0.38192 -0.05064 0.45021
 C2391 C 0.38739 -0.05634 0.46303
 C2392 C 0.39924 -0.05027 0.46978
 C2393 C 0.41892 -0.03133 0.47083
 C2394 C 0.42467 -0.03597 0.48397
 C2395 C 0.43687 -0.02953 0.48968
 C2396 C 0.44369 -0.01823 0.48253
 C2397 C 0.43779 -0.01324 0.46963
 C2398 C 0.42552 -0.01968 0.46377
 C2399 C 0.40787 -0.02086 0.44460
 C2400 C 0.41992 -0.01462 0.45083
 H2401 H 0.40396 -0.01650 0.43460
 H2402 H 0.42493 -0.00567 0.44542
 H2403 H 0.38516 -0.03409 0.43431
 H2404 H 0.38258 -0.06554 0.46809
 H2405 H 0.44112 -0.03364 0.49964
 H2406 H 0.44293 -0.00456 0.46392
 H2407 H 0.40283 -0.05525 0.47953
 H2408 H 0.42000 -0.04464 0.48997
 C2409 C 0.40589 0.46486 -0.03962
 C2410 C 0.40055 0.45195 -0.03381
 C2411 C 0.38854 0.44530 -0.03991
 C2412 C 0.38160 0.45120 -0.05192
 C2413 C 0.38717 0.46391 -0.05777
 C2414 C 0.39908 0.47063 -0.05174
 C2415 C 0.41865 0.47170 -0.03266
 C2416 C 0.42464 0.48467 -0.03746
 C2417 C 0.43679 0.49037 -0.03090
 C2418 C 0.44330 0.48335 -0.01933
 C2419 C 0.43717 0.47060 -0.01424
 C2420 C 0.42499 0.46475 -0.02080
 C2421 C 0.40725 0.44569 -0.02196
 C2422 C 0.41924 0.45191 -0.01565
 H2423 H 0.40321 0.43576 -0.01754
 H2424 H 0.42409 0.44657 -0.00658
 H2425 H 0.38472 0.43546 -0.03517
 H2426 H 0.38237 0.46887 -0.06703
 H2427 H 0.44126 0.50019 -0.03513
 H2428 H 0.44210 0.46498 -0.00538
 H2429 H 0.40278 0.48032 -0.05678
 H2430 H 0.42023 0.49054 -0.04634
 C2431 C 0.34380 0.46484 0.78941
 C2432 C 0.34888 0.45180 0.78364
 C2433 C 0.36074 0.44495 0.78978
 C2434 C 0.36775 0.45085 0.80170
 C2435 C 0.36255 0.46370 0.80749
 C2436 C 0.35076 0.47060 0.80147
 C2437 C 0.33117 0.47187 0.78247
 C2438 C 0.32528 0.48486 0.78736
 C2439 C 0.31324 0.49073 0.78079
 C2440 C 0.30677 0.48387 0.76910
 C2441 C 0.31277 0.47110 0.76393
 C2442 C 0.32481 0.46505 0.77052
 C2443 C 0.34212 0.44565 0.77176
 C2444 C 0.33033 0.45211 0.76536
 H2445 H 0.34598 0.43564 0.76735
 H2446 H 0.32543 0.44687 0.75625
 H2447 H 0.36445 0.43499 0.78518
 H2448 H 0.36757 0.46858 0.81669
 H2449 H 0.30883 0.50055 0.78509
 H2450 H 0.30783 0.46557 0.75500
 H2451 H 0.34733 0.48043 0.80644
 H2452 H 0.32967 0.49059 0.79637
 C2453 C 0.34358 -0.03542 0.28931
 C2454 C 0.34840 -0.04875 0.28396
 C2455 C 0.36025 -0.05552 0.29020
 C2456 C 0.36751 -0.04925 0.30179
 C2457 C 0.36252 -0.03614 0.30718
 C2458 C 0.35076 -0.02932 0.30107
 C2459 C 0.33099 -0.02846 0.28224
 C2460 C 0.32544 -0.01516 0.28669
 C2461 C 0.31343 -0.00934 0.28006
 C2462 C 0.30664 -0.01653 0.26876
 C2463 C 0.31232 -0.02961 0.26399
 C2464 C 0.32435 -0.03561 0.27066
 C2465 C 0.34138 -0.05524 0.27241
 C2466 C 0.32961 -0.04882 0.26592
 H2467 H 0.34504 -0.06546 0.26833
 H2468 H 0.32453 -0.05430 0.25705
 H2469 H 0.36379 -0.06567 0.28591
 H2470 H 0.36772 -0.03099 0.31614
 H2471 H 0.30929 0.00073 0.28404
 H2472 H 0.30714 -0.03537 0.25536
 H2473 H 0.34752 -0.01928 0.30573
 H2474 H 0.33007 -0.00915 0.29539
 C2475 C 0.15427 0.53331 0.71268
 C2476 C 0.14921 0.54646 0.71824
 C2477 C 0.13739 0.55325 0.71197
 C2478 C 0.13043 0.54722 0.70009
 C2479 C 0.13557 0.53423 0.69454
 C2480 C 0.14729 0.52737 0.70072
 C2481 C 0.16699 0.52646 0.71964
 C2482 C 0.17282 0.51335 0.71500
 C2483 C 0.18517 0.50784 0.72131
 C2484 C 0.19199 0.51518 0.73251
 C2485 C 0.18589 0.52794 0.73761
 C2486 C 0.17356 0.53363 0.73126
 C2487 C 0.15606 0.55286 0.72993
 C2488 C 0.16801 0.54662 0.73626
 H2489 H 0.15221 0.56294 0.73418
 H2490 H 0.17303 0.55210 0.74516
 H2491 H 0.13372 0.56331 0.71637
 H2492 H 0.13057 0.52924 0.68538
 H2493 H 0.18959 0.49798 0.71714
 H2494 H 0.19105 0.53379 0.74620
 H2495 H 0.15074 0.51748 0.69589
 H2496 H 0.16818 0.50728 0.70635
 C2497 C 0.15417 0.03643 0.21576
 C2498 C 0.15013 0.03213 0.20181
 C2499 C 0.13843 0.03864 0.19502
 C2500 C 0.13065 0.04953 0.20183
 C2501 C 0.13479 0.05384 0.21560
 C2502 C 0.14635 0.04741 0.22248
 C2503 C 0.16682 0.02932 0.22258
 C2504 C 0.17168 0.03278 0.23643
 C2505 C 0.18404 0.02653 0.24195
 C2506 C 0.19184 0.01655 0.23389
 C2507 C 0.18670 0.01252 0.22035
 C2508 C 0.17436 0.01887 0.21464
 C2509 C 0.15787 0.02148 0.19466
 C2510 C 0.16977 0.01505 0.20090
 H2511 H 0.15479 0.01818 0.18398
 H2512 H 0.17553 0.00702 0.19483
 H2513 H 0.13556 0.03527 0.18432
 H2514 H 0.12906 0.06217 0.22122
 H2515 H 0.18770 0.02980 0.25244
 H2516 H 0.19264 0.00489 0.21395
 H2517 H 0.14900 0.05127 0.23302
 H2518 H 0.16626 0.04047 0.24310
 C2519 C 0.59579 0.71606 0.21279
 C2520 C 0.60004 0.70224 0.21730
 C2521 C 0.61186 0.69552 0.21092
 C2522 C 0.61956 0.70228 0.19994
 C2523 C 0.61521 0.71592 0.19542
 C2524 C 0.60352 0.72273 0.20172
 C2525 C 0.58306 0.72283 0.21982
 C2526 C 0.57805 0.73659 0.21622
 C2527 C 0.56566 0.74206 0.22245
 C2528 C 0.55797 0.73406 0.23253
 C2529 C 0.56323 0.72059 0.23666
 C2530 C 0.57562 0.71493 0.23037
 C2531 C 0.59238 0.69513 0.22802
 C2532 C 0.58039 0.70130 0.23435
 H2533 H 0.59562 0.68454 0.23147
 H2534 H 0.57472 0.69526 0.24245
 H2535 H 0.61489 0.68492 0.21445
 H2536 H 0.62086 0.72149 0.18701
 H2537 H 0.56191 0.75250 0.21909
 H2538 H 0.55737 0.71423 0.24438
 H2539 H 0.60071 0.73316 0.19770
 H2540 H 0.58338 0.74322 0.20845
 C2541 C 0.09493 0.71516 0.71186
 C2542 C 0.09988 0.70189 0.71723
 C2543 C 0.11182 0.69519 0.71102
 C2544 C 0.11897 0.70146 0.69939
 C2545 C 0.11394 0.71458 0.69407
 C2546 C 0.10213 0.72132 0.70017
 C2547 C 0.08215 0.72197 0.71877
 C2548 C 0.07646 0.73519 0.71427
 C2549 C 0.06423 0.74081 0.72068
 C2550 C 0.05734 0.73349 0.73181
 C2551 C 0.06317 0.72050 0.73664
 C2552 C 0.07543 0.71470 0.73020
 C2553 C 0.09282 0.69534 0.72869
 C2554 C 0.08084 0.70157 0.73501
 H2555 H 0.09657 0.68517 0.73281
 H2556 H 0.07570 0.69600 0.74376
 H2557 H 0.11541 0.68502 0.71523
 H2558 H 0.11912 0.71979 0.68517
 H2559 H 0.06000 0.75083 0.71668
 H2560 H 0.05793 0.71464 0.74516
 H2561 H 0.09882 0.73134 0.69552
 H2562 H 0.08116 0.74130 0.70570
 C2563 C 0.65567 0.21522 0.53763
 C2564 C 0.65103 0.20168 0.53263
 C2565 C 0.63902 0.19506 0.53879
 C2566 C 0.63148 0.20167 0.54998
 C2567 C 0.63621 0.21505 0.55494
 C2568 C 0.64810 0.22173 0.54890
 C2569 C 0.66856 0.22192 0.53081
 C2570 C 0.67400 0.23535 0.53501
 C2571 C 0.68634 0.24089 0.52873
 C2572 C 0.69358 0.23327 0.51802
 C2573 C 0.68799 0.22006 0.51345
 C2574 C 0.67563 0.21433 0.51979
 C2575 C 0.65844 0.19481 0.52157
 C2576 C 0.67048 0.20098 0.51531
 H2577 H 0.65491 0.18444 0.51773
 H2578 H 0.67587 0.19517 0.50686
 H2579 H 0.63567 0.18468 0.53486
 H2580 H 0.63072 0.22053 0.56351
 H2581 H 0.69036 0.25109 0.53250
 H2582 H 0.69350 0.21398 0.50526
 H2583 H 0.65115 0.23197 0.55325
 H2584 H 0.66904 0.24170 0.54326
 C2585 C 0.65524 0.71560 0.03745
 C2586 C 0.65042 0.70224 0.03217
 C2587 C 0.63844 0.69557 0.03829
 C2588 C 0.63107 0.70197 0.04970
 C2589 C 0.63598 0.71517 0.05497
 C2590 C 0.64787 0.72189 0.04897
 C2591 C 0.66805 0.72237 0.03060
 C2592 C 0.67365 0.73567 0.03501
 C2593 C 0.68590 0.74129 0.02861
 C2594 C 0.69286 0.73387 0.01758
 C2595 C 0.68714 0.72079 0.01286
 C2596 C 0.67488 0.71499 0.01928
 C2597 C 0.65761 0.69555 0.02087
 C2598 C 0.66960 0.70177 0.01459
 H2599 H 0.65395 0.68530 0.01683
 H2600 H 0.67484 0.69611 0.00594
 H2601 H 0.63496 0.68534 0.03412
 H2602 H 0.63063 0.72046 0.06375
 H2603 H 0.69007 0.75138 0.03253
 H2604 H 0.69245 0.71484 0.00444
 H2605 H 0.65107 0.73199 0.05355
 H2606 H 0.66889 0.74185 0.04350
 C2607 C 0.09503 0.03671 0.03562
 C2608 C 0.09950 0.03180 0.04923
 C2609 C 0.11131 0.03816 0.05606
 C2610 C 0.11878 0.04947 0.04957
 C2611 C 0.11420 0.05434 0.03613
 C2612 C 0.10253 0.04810 0.02926
 C2613 C 0.08240 0.02967 0.02867
 C2614 C 0.07718 0.03376 0.01513
 C2615 C 0.06504 0.02729 0.00935
 C2616 C 0.05778 0.01650 0.01684
 C2617 C 0.06315 0.01204 0.03015
 C2618 C 0.07531 0.01856 0.03611
 C2619 C 0.09210 0.02064 0.05596
 C2620 C 0.08024 0.01420 0.04957
 H2621 H 0.09547 0.01688 0.06639
 H2622 H 0.07482 0.00570 0.05528
 H2623 H 0.11457 0.03434 0.06649
 H2624 H 0.11966 0.06296 0.03071
 H2625 H 0.06117 0.03099 -0.00091
 H2626 H 0.05761 0.00380 0.03613
 H2627 H 0.09960 0.05240 0.01899
 H2628 H 0.08216 0.04206 0.00888
 C2629 C 0.09586 0.53425 0.53701
 C2630 C 0.10015 0.54802 0.53235
 C2631 C 0.11197 0.55481 0.53869
 C2632 C 0.11967 0.54817 0.54974
 C2633 C 0.11528 0.53458 0.55442
 C2634 C 0.10357 0.52771 0.54817
 C2635 C 0.08315 0.52739 0.52999
 C2636 C 0.07803 0.51371 0.53379
 C2637 C 0.06569 0.50813 0.52748
 C2638 C 0.05818 0.51595 0.51711
 C2639 C 0.06354 0.52934 0.51284
 C2640 C 0.07584 0.53511 0.51922
 C2641 C 0.09256 0.55498 0.52148
 C2642 C 0.08065 0.54869 0.51510
 H2643 H 0.09582 0.56553 0.51792
 H2644 H 0.07505 0.55460 0.50684
 H2645 H 0.11503 0.56537 0.53503
 H2646 H 0.12092 0.52910 0.56288
 H2647 H 0.06185 0.49777 0.53098
 H2648 H 0.05782 0.53557 0.50492
 H2649 H 0.10074 0.51732 0.55229
 H2650 H 0.08323 0.50723 0.54178
 C2651 C 0.59606 0.03729 0.53388
 C2652 C 0.60126 0.03152 0.54687
 C2653 C 0.61278 0.03807 0.55398
 C2654 C 0.61927 0.05044 0.54842
 C2655 C 0.61392 0.05623 0.53564
 C2656 C 0.60251 0.04979 0.52848
 C2657 C 0.58367 0.03004 0.52668
 C2658 C 0.57783 0.03480 0.51363
 C2659 C 0.56565 0.02832 0.50790
 C2660 C 0.55899 0.01686 0.51495
 C2661 C 0.56522 0.01152 0.52754
 C2662 C 0.57741 0.01803 0.53344
 C2663 C 0.59485 0.01933 0.55277
 C2664 C 0.58313 0.01279 0.54625
 H2665 H 0.59883 0.01488 0.56270
 H2666 H 0.57841 0.00353 0.55139
 H2667 H 0.61659 0.03351 0.56391
 H2668 H 0.61858 0.06574 0.53100
 H2669 H 0.56119 0.03263 0.49812
 H2670 H 0.56027 0.00263 0.53310
 H2671 H 0.59890 0.05482 0.51876
 H2672 H 0.58232 0.04367 0.50779
 C2673 C 0.59612 0.53371 0.03612
 C2674 C 0.60083 0.54712 0.03090
 C2675 C 0.61258 0.55405 0.03727
 C2676 C 0.61975 0.54787 0.04894
 C2677 C 0.61497 0.53459 0.05410
 C2678 C 0.60335 0.52761 0.04783
 C2679 C 0.58343 0.52675 0.02916
 C2680 C 0.57792 0.51340 0.03353
 C2681 C 0.56553 0.50783 0.02731
 C2682 C 0.55835 0.51532 0.01649
 C2683 C 0.56415 0.52831 0.01160
 C2684 C 0.57652 0.53408 0.01787
 C2685 C 0.59370 0.55365 0.01947
 C2686 C 0.58177 0.54730 0.01314
 H2687 H 0.59729 0.56391 0.01545
 H2688 H 0.57651 0.55290 0.00447
 H2689 H 0.61598 0.56433 0.03318
 H2690 H 0.62018 0.52942 0.06303
 H2691 H 0.56137 0.49776 0.03128
 H2692 H 0.55874 0.53428 0.00327
 H2693 H 0.60020 0.51750 0.05239
 H2694 H 0.58284 0.50719 0.04189
 C2695 C 0.03934 0.03439 0.09398
 C2696 C 0.03362 0.04742 0.09915
 C2697 C 0.03973 0.05416 0.11110
 C2698 C 0.05159 0.04817 0.11812
 C2699 C 0.05731 0.03531 0.11286
 C2700 C 0.05131 0.02851 0.10098
 C2701 C 0.03247 0.02754 0.08119
 C2702 C 0.03731 0.01456 0.07522
 C2703 C 0.03084 0.00887 0.06303
 C2704 C 0.01931 0.01590 0.05646
 C2705 C 0.01417 0.02865 0.06255
 C2706 C 0.02066 0.03451 0.07476
 C2707 C 0.02184 0.05370 0.09236
 C2708 C 0.01552 0.04740 0.08041
 H2709 H 0.01745 0.06368 0.09630
 H2710 H 0.00648 0.05273 0.07551
 H2711 H 0.03520 0.06413 0.11485
 H2712 H 0.06644 0.03034 0.11792
 H2713 H 0.03510 -0.00094 0.05858
 H2714 H 0.00535 0.03427 0.05757
 H2715 H 0.05623 0.01868 0.09749
 H2716 H 0.04619 0.00871 0.07966
 C2717 C 0.03569 0.53350 0.59614
 C2718 C 0.03085 0.54715 0.60058
 C2719 C 0.03723 0.55401 0.61234
 C2720 C 0.04856 0.54755 0.61979
 C2721 C 0.05339 0.53406 0.61526
 C2722 C 0.04709 0.52713 0.60363
 C2723 C 0.02869 0.52660 0.58344
 C2724 C 0.03263 0.51299 0.57826
 C2725 C 0.02644 0.50744 0.56585
 C2726 C 0.01606 0.51524 0.55832
 C2727 C 0.01157 0.52850 0.56381
 C2728 C 0.01782 0.53423 0.57621
 C2729 C 0.01979 0.55397 0.59313
 C2730 C 0.01348 0.54770 0.58117
 H2731 H 0.01606 0.56443 0.59651
 H2732 H 0.00512 0.55353 0.57565
 H2733 H 0.03342 0.56447 0.61554
 H2734 H 0.06207 0.52869 0.62068
 H2735 H 0.03009 0.49716 0.56194
 H2736 H 0.00361 0.53470 0.55810
 H2737 H 0.05139 0.51685 0.60066
 H2738 H 0.04065 0.50654 0.58345
 C2739 C 0.53780 0.03487 0.59514
 C2740 C 0.53225 0.04794 0.60035
 C2741 C 0.53844 0.05457 0.61236
 C2742 C 0.55041 0.04854 0.61926
 C2743 C 0.55609 0.03574 0.61370
 C2744 C 0.54990 0.02901 0.60190
 C2745 C 0.53077 0.02804 0.58242
 C2746 C 0.53510 0.01472 0.57684
 C2747 C 0.52874 0.00917 0.56453
 C2748 C 0.51782 0.01666 0.55745
 C2749 C 0.51299 0.02965 0.56333
 C2750 C 0.51934 0.03535 0.57571
 C2751 C 0.52065 0.05445 0.59344
 C2752 C 0.51445 0.04837 0.58129
 H2753 H 0.51642 0.06451 0.59736
 H2754 H 0.50567 0.05396 0.57620
 H2755 H 0.53392 0.06453 0.61613
 H2756 H 0.56533 0.03067 0.61844
 H2757 H 0.53266 -0.00091 0.56035
 H2758 H 0.50457 0.03559 0.55802
 H2759 H 0.55486 0.01928 0.59818
 H2760 H 0.54347 0.00847 0.58170
 C2761 C 0.53640 0.53435 0.09545
 C2762 C 0.53208 0.54825 0.09963
 C2763 C 0.53858 0.55497 0.11141
 C2764 C 0.54948 0.54811 0.11914
 C2765 C 0.55385 0.53440 0.11483
 C2766 C 0.54743 0.52761 0.10318
 C2767 C 0.52922 0.52756 0.08278
 C2768 C 0.53261 0.51370 0.07787
 C2769 C 0.52627 0.50820 0.06552
 C2770 C 0.51627 0.51629 0.05778
 C2771 C 0.51232 0.52984 0.06298
 C2772 C 0.51874 0.53552 0.07532
 C2773 C 0.52142 0.55544 0.09194
 C2774 C 0.51495 0.54925 0.08001
 H2775 H 0.51813 0.56610 0.09511
 H2776 H 0.50690 0.55534 0.07433
 H2777 H 0.53519 0.56564 0.11441
 H2778 H 0.56219 0.52876 0.12051
 H2779 H 0.52949 0.49770 0.06184
 H2780 H 0.50465 0.53625 0.05710
 H2781 H 0.55133 0.51711 0.10040
 H2782 H 0.54032 0.50701 0.08323
 C2783 C 0.21634 0.53686 0.65401
 C2784 C 0.20328 0.53120 0.64886
 C2785 C 0.19645 0.53749 0.63705
 C2786 C 0.20237 0.54952 0.63025
 C2787 C 0.21528 0.55514 0.63549
 C2788 C 0.22217 0.54894 0.64717
 C2789 C 0.22322 0.52993 0.66672
 C2790 C 0.23627 0.53470 0.67259
 C2791 C 0.24181 0.52845 0.68495
 C2792 C 0.23457 0.51720 0.69176
 C2793 C 0.22189 0.51194 0.68561
 C2794 C 0.21617 0.51823 0.67324
 C2795 C 0.19701 0.51938 0.65562
 C2796 C 0.20328 0.51309 0.66759
 H2797 H 0.18701 0.51503 0.65169
 H2798 H 0.19788 0.50412 0.67256
 H2799 H 0.18645 0.53304 0.63328
 H2800 H 0.22021 0.56439 0.63061
 H2801 H 0.25162 0.53272 0.68939
 H2802 H 0.21613 0.50329 0.69075
 H2803 H 0.23198 0.55387 0.65068
 H2804 H 0.24227 0.54340 0.66799
 C2805 C 0.21524 0.03715 0.15474
 C2806 C 0.20195 0.03182 0.14984
 C2807 C 0.19511 0.03821 0.13808
 C2808 C 0.20124 0.05002 0.13109
 C2809 C 0.21434 0.05538 0.13615
 C2810 C 0.22124 0.04908 0.14776
 C2811 C 0.22218 0.03007 0.16734
 C2812 C 0.23552 0.03442 0.17286
 C2813 C 0.24113 0.02807 0.18513
 C2814 C 0.23368 0.01714 0.19221
 C2815 C 0.22070 0.01226 0.18640
 C2816 C 0.21491 0.01865 0.17410
 C2817 C 0.19547 0.02023 0.15681
 C2818 C 0.20176 0.01386 0.16873
 H2819 H 0.18528 0.01613 0.15309
 H2820 H 0.19621 0.00507 0.17386
 H2821 H 0.18494 0.03400 0.13450
 H2822 H 0.21943 0.06446 0.13112
 H2823 H 0.25120 0.03204 0.18929
 H2824 H 0.21478 0.00384 0.19175
 H2825 H 0.23121 0.05379 0.15112
 H2826 H 0.24172 0.04286 0.16802
 C2827 C 0.71312 0.21460 0.59495
 C2828 C 0.71808 0.20105 0.59954
 C2829 C 0.71187 0.19438 0.61151
 C2830 C 0.70065 0.20098 0.61901
 C2831 C 0.69579 0.21441 0.61435
 C2832 C 0.70188 0.22111 0.60254
 C2833 C 0.71994 0.22136 0.58212
 C2834 C 0.71574 0.23480 0.57675
 C2835 C 0.72207 0.24043 0.56450
 C2836 C 0.73281 0.23289 0.55725
 C2837 C 0.73732 0.21962 0.56271
 C2838 C 0.73096 0.21381 0.57501
 C2839 C 0.72914 0.19421 0.59211
 C2840 C 0.73540 0.20042 0.58009
 H2841 H 0.73296 0.18382 0.59558
 H2842 H 0.74384 0.19463 0.57465
 H2843 H 0.71574 0.18399 0.61485
 H2844 H 0.68725 0.21992 0.61984
 H2845 H 0.71832 0.25066 0.56055
 H2846 H 0.74552 0.21358 0.55717
 H2847 H 0.69756 0.23137 0.59955
 H2848 H 0.70748 0.24111 0.58171
 C2849 C 0.71274 0.71493 0.09419
 C2850 C 0.71763 0.70134 0.09871
 C2851 C 0.71148 0.69469 0.11071
 C2852 C 0.70038 0.70135 0.11834
 C2853 C 0.69552 0.71480 0.11373
 C2854 C 0.70157 0.72149 0.10186
 C2855 C 0.71958 0.72167 0.08134
 C2856 C 0.71553 0.73520 0.07605
 C2857 C 0.72183 0.74079 0.06375
 C2858 C 0.73242 0.73312 0.05639
 C2859 C 0.73683 0.71980 0.06180
 C2860 C 0.73048 0.71404 0.07414
 C2861 C 0.72858 0.69441 0.09118
 C2862 C 0.73483 0.70060 0.07915
 H2863 H 0.73233 0.68399 0.09461
 H2864 H 0.74320 0.69476 0.07367
 H2865 H 0.71531 0.68426 0.11398
 H2866 H 0.68705 0.72032 0.11931
 H2867 H 0.71818 0.75107 0.05986
 H2868 H 0.74493 0.71369 0.05620
 H2869 H 0.69730 0.73178 0.09890
 H2870 H 0.70738 0.74159 0.08111
 C2871 C 0.53576 0.71615 0.15296
 C2872 C 0.53085 0.70254 0.14844
 C2873 C 0.53724 0.69571 0.13668
 C2874 C 0.54864 0.70216 0.12932
 C2875 C 0.55355 0.71559 0.13396
 C2876 C 0.54724 0.72249 0.14558
 C2877 C 0.52875 0.72302 0.16564
 C2878 C 0.53274 0.73661 0.17087
 C2879 C 0.52654 0.74213 0.18326
 C2880 C 0.51612 0.73435 0.19073
 C2881 C 0.51156 0.72112 0.18520
 C2882 C 0.51781 0.71541 0.17280
 C2883 C 0.51971 0.69574 0.15579
 C2884 C 0.51340 0.70199 0.16775
 H2885 H 0.51594 0.68532 0.15234
 H2886 H 0.50499 0.69618 0.17320
 H2887 H 0.53338 0.68528 0.13341
 H2888 H 0.56228 0.72094 0.12861
 H2889 H 0.53022 0.75240 0.18720
 H2890 H 0.50354 0.71495 0.19085
 H2891 H 0.55160 0.73274 0.14862
 H2892 H 0.54079 0.74306 0.16573
 C2893 C 0.03858 0.71435 0.65572
 C2894 C 0.03378 0.70073 0.65114
 C2895 C 0.04013 0.69407 0.63925
 C2896 C 0.05133 0.70074 0.63178
 C2897 C 0.05616 0.71417 0.63649
 C2898 C 0.04991 0.72088 0.64826
 C2899 C 0.03149 0.72112 0.66842
 C2900 C 0.03540 0.73469 0.67373
 C2901 C 0.02885 0.74031 0.68588
 C2902 C 0.01814 0.73265 0.69308
 C2903 C 0.01386 0.71929 0.68762
 C2904 C 0.02045 0.71349 0.67542
 C2905 C 0.02270 0.69380 0.65847
 C2906 C 0.01622 0.70002 0.67036
 H2907 H 0.01902 0.68335 0.65499
 H2908 H 0.00775 0.69417 0.67570
 H2909 H 0.03635 0.68363 0.63593
 H2910 H 0.06473 0.71968 0.63103
 H2911 H 0.03243 0.75062 0.68981
 H2912 H 0.00567 0.71318 0.69309
 H2913 H 0.05415 0.73118 0.65130
 H2914 H 0.04363 0.74108 0.66880
 C2915 C 0.53400 0.65475 0.21227
 C2916 C 0.54758 0.65023 0.21716
 C2917 C 0.55435 0.63844 0.21078
 C2918 C 0.54786 0.63096 0.19946
 C2919 C 0.53447 0.63561 0.19452
 C2920 C 0.52763 0.64731 0.20080
 C2921 C 0.52714 0.66741 0.21938
 C2922 C 0.51360 0.67270 0.21540
 C2923 C 0.50804 0.68500 0.22180
 C2924 C 0.51574 0.69231 0.23243
 C2925 C 0.52896 0.68676 0.23690
 C2926 C 0.53471 0.67447 0.23044
 C2927 C 0.55440 0.65756 0.22832
 C2928 C 0.54813 0.66945 0.23477
 H2929 H 0.56481 0.65413 0.23206
 H2930 H 0.55392 0.67484 0.24326
 H2931 H 0.56476 0.63519 0.21465
 H2932 H 0.52912 0.63017 0.18582
 H2933 H 0.49782 0.68899 0.21812
 H2934 H 0.53509 0.69230 0.24504
 H2935 H 0.51738 0.65034 0.19648
 H2936 H 0.50723 0.66768 0.20719
 C2937 C 0.03866 0.65561 0.71436
 C2938 C 0.03311 0.65055 0.70122
 C2939 C 0.03918 0.63849 0.69457
 C2940 C 0.05080 0.63129 0.70081
 C2941 C 0.05630 0.63643 0.71381
 C2942 C 0.05036 0.64839 0.72049
 C2943 C 0.03188 0.66850 0.72112
 C2944 C 0.03662 0.67438 0.73417
 C2945 C 0.03023 0.68663 0.73981
 C2946 C 0.01888 0.69336 0.73267
 C2947 C 0.01386 0.68739 0.71981
 C2948 C 0.02028 0.67511 0.71399
 C2949 C 0.02155 0.65755 0.69476
 C2950 C 0.01528 0.66956 0.70100
 H2951 H 0.01729 0.65369 0.68468
 H2952 H 0.00639 0.67460 0.69554
 H2953 H 0.03481 0.63481 0.68450
 H2954 H 0.06521 0.63122 0.71900
 H2955 H 0.03440 0.69098 0.74971
 H2956 H 0.00518 0.69251 0.71408
 H2957 H 0.05512 0.65175 0.73044
 H2958 H 0.04536 0.66981 0.74014
 C2959 C 0.03883 0.09362 0.03547
 C2960 C 0.03395 0.09818 0.04905
 C2961 C 0.04015 0.11019 0.05567
 C2962 C 0.05128 0.11779 0.04902
 C2963 C 0.05615 0.11312 0.03562
 C2964 C 0.05005 0.10124 0.02894
 C2965 C 0.03192 0.08077 0.02874
 C2966 C 0.03593 0.07544 0.01523
 C2967 C 0.02954 0.06315 0.00964
 C2968 C 0.01891 0.05584 0.01729
 C2969 C 0.01456 0.06129 0.03061
 C2970 C 0.02099 0.07361 0.03637
 C2971 C 0.02297 0.09071 0.05597
 C2972 C 0.01667 0.07867 0.04979
 H2973 H 0.01924 0.09417 0.06638
 H2974 H 0.00828 0.07321 0.05564
 H2975 H 0.03633 0.11350 0.06609
 H2976 H 0.06466 0.11870 0.03013
 H2977 H 0.03315 0.05923 -0.00064
 H2978 H 0.00643 0.05573 0.03671
 H2979 H 0.05432 0.09823 0.01867
 H2980 H 0.04409 0.08048 0.00884
 C2981 C 0.03472 0.59496 0.53776
 C2982 C 0.04829 0.59951 0.53286
 C2983 C 0.05513 0.61124 0.53932
 C2984 C 0.04871 0.61863 0.55072
 C2985 C 0.03532 0.61397 0.55565
 C2986 C 0.02841 0.60233 0.54930
 C2987 C 0.02781 0.58236 0.53058
 C2988 C 0.01431 0.57699 0.53460
 C2989 C 0.00869 0.56477 0.52809
 C2990 C 0.01629 0.55761 0.51730
 C2991 C 0.02948 0.56323 0.51283
 C2992 C 0.03529 0.57542 0.51940
 C2993 C 0.05502 0.59229 0.52160
 C2994 C 0.04869 0.58049 0.51505
 H2995 H 0.06542 0.59576 0.51785
 H2996 H 0.05442 0.57519 0.50648
 H2997 H 0.06552 0.61449 0.53544
 H2998 H 0.03002 0.61935 0.56440
 H2999 H -0.00150 0.56071 0.53179
 H3000 H 0.03555 0.55779 0.50458
 H3001 H 0.01817 0.59929 0.55361
 H3002 H 0.00802 0.58189 0.54292
 C3003 C 0.53722 0.09600 0.53315
 C3004 C 0.53256 0.10037 0.54686
 C3005 C 0.53904 0.11211 0.55366
 C3006 C 0.55023 0.11966 0.54708
 C3007 C 0.55491 0.11519 0.53354
 C3008 C 0.54852 0.10355 0.52666
 C3009 C 0.53009 0.08332 0.52632
 C3010 C 0.53386 0.07812 0.51268
 C3011 C 0.52753 0.06574 0.50719
 C3012 C 0.51716 0.05827 0.51506
 C3013 C 0.51284 0.06377 0.52836
 C3014 C 0.51925 0.07611 0.53405
 C3015 C 0.52158 0.09293 0.55381
 C3016 C 0.51511 0.08103 0.54757
 H3017 H 0.51802 0.09627 0.56432
 H3018 H 0.50681 0.07552 0.55348
 H3019 H 0.53539 0.11521 0.56420
 H3020 H 0.56349 0.12074 0.52812
 H3021 H 0.53105 0.06180 0.49689
 H3022 H 0.50490 0.05811 0.53462
 H3023 H 0.55265 0.10064 0.51630
 H3024 H 0.54186 0.08327 0.50619
 C3025 C 0.53710 0.59556 0.03374
 C3026 C 0.53212 0.60016 0.04727
 C3027 C 0.53851 0.61196 0.05407
 C3028 C 0.54990 0.61934 0.04764
 C3029 C 0.55487 0.61464 0.03428
 C3030 C 0.54860 0.60294 0.02743
 C3031 C 0.53006 0.58286 0.02688
 C3032 C 0.53421 0.57744 0.01344
 C3033 C 0.52788 0.56510 0.00788
 C3034 C 0.51716 0.55789 0.01548
 C3035 C 0.51252 0.56356 0.02860
 C3036 C 0.51892 0.57587 0.03436
 C3037 C 0.52088 0.59290 0.05400
 C3038 C 0.51445 0.58100 0.04770
 H3039 H 0.51706 0.59641 0.06436
 H3040 H 0.50590 0.57567 0.05342
 H3041 H 0.53461 0.61527 0.06445
 H3042 H 0.56359 0.62002 0.02894
 H3043 H 0.53168 0.56101 -0.00227
 H3044 H 0.50430 0.55807 0.03466
 H3045 H 0.55296 0.59987 0.01721
 H3046 H 0.54249 0.58239 0.00714
 C3047 C 0.71510 0.15559 0.53778
 C3048 C 0.70182 0.15067 0.53242
 C3049 C 0.69519 0.13863 0.53853
 C3050 C 0.70154 0.13137 0.55005
 C3051 C 0.71467 0.13635 0.55536
 C3052 C 0.72136 0.14826 0.54935
 C3053 C 0.72182 0.16849 0.53099
 C3054 C 0.73501 0.17419 0.53553
 C3055 C 0.74061 0.18648 0.52919
 C3056 C 0.73329 0.19343 0.51808
 C3057 C 0.72029 0.18763 0.51324
 C3058 C 0.71451 0.17529 0.51961
 C3059 C 0.69519 0.15783 0.52105
 C3060 C 0.70138 0.16989 0.51481
 H3061 H 0.68501 0.15410 0.51694
 H3062 H 0.69578 0.17508 0.50610
 H3063 H 0.68499 0.13506 0.53437
 H3064 H 0.71993 0.13099 0.56416
 H3065 H 0.75062 0.19069 0.53323
 H3066 H 0.71443 0.19291 0.50475
 H3067 H 0.73141 0.15151 0.55397
 H3068 H 0.74112 0.16948 0.54409
 C3069 C 0.71112 0.65628 0.03528
 C3070 C 0.71673 0.65123 0.04839
 C3071 C 0.71068 0.63918 0.05506
 C3072 C 0.69900 0.63195 0.04889
 C3073 C 0.69340 0.63712 0.03595
 C3074 C 0.69932 0.64908 0.02926
 C3075 C 0.71795 0.66910 0.02844
 C3076 C 0.71319 0.67493 0.01538
 C3077 C 0.71965 0.68710 0.00965
 C3078 C 0.73110 0.69382 0.01669
 C3079 C 0.73614 0.68789 0.02955
 C3080 C 0.72965 0.67569 0.03547
 C3081 C 0.72836 0.65823 0.05477
 C3082 C 0.73466 0.67019 0.04846
 H3083 H 0.73266 0.65440 0.06483
 H3084 H 0.74362 0.67521 0.05385
 H3085 H 0.71512 0.63549 0.06508
 H3086 H 0.68442 0.63194 0.03084
 H3087 H 0.71545 0.69141 -0.00025
 H3088 H 0.74490 0.69299 0.03520
 H3089 H 0.69448 0.65247 0.01937
 H3090 H 0.70438 0.67038 0.00949
 C3091 C 0.21269 0.59575 0.71562
 C3092 C 0.21832 0.60076 0.70251
 C3093 C 0.21207 0.61254 0.69559
 C3094 C 0.20011 0.61950 0.70145
 C3095 C 0.19449 0.61439 0.71440
 C3096 C 0.20065 0.60271 0.72138
 C3097 C 0.21965 0.58310 0.72264
 C3098 C 0.21494 0.57735 0.73575
 C3099 C 0.22129 0.56507 0.74143
 C3100 C 0.23257 0.55824 0.73428
 C3101 C 0.23773 0.56426 0.72152
 C3102 C 0.23135 0.57652 0.71565
 C3103 C 0.23009 0.59390 0.69629
 C3104 C 0.23642 0.58201 0.70268
 H3105 H 0.23441 0.59770 0.68624
 H3106 H 0.24539 0.57699 0.69733
 H3107 H 0.21653 0.61618 0.68556
 H3108 H 0.18528 0.61937 0.71928
 H3109 H 0.21707 0.56072 0.75129
 H3110 H 0.24639 0.55910 0.71580
 H3111 H 0.19576 0.59930 0.73124
 H3112 H 0.20623 0.58199 0.74168
 C3113 C 0.21329 0.09629 0.21619
 C3114 C 0.21816 0.10085 0.20261
 C3115 C 0.21161 0.11251 0.19577
 C3116 C 0.20011 0.11976 0.20217
 C3117 C 0.19521 0.11507 0.21555
 C3118 C 0.20168 0.10353 0.22247
 C3119 C 0.22051 0.08372 0.22308
 C3120 C 0.21660 0.07846 0.23665
 C3121 C 0.22298 0.06615 0.24217
 C3122 C 0.23351 0.05879 0.23442
 C3123 C 0.23800 0.06439 0.22123
 C3124 C 0.23157 0.07670 0.21551
 C3125 C 0.22942 0.09365 0.19586
 C3126 C 0.23592 0.08179 0.20212
 H3127 H 0.23315 0.09713 0.18546
 H3128 H 0.24442 0.07646 0.19634
 H3129 H 0.21544 0.11580 0.18536
 H3130 H 0.18639 0.12034 0.22084
 H3131 H 0.21935 0.06216 0.25242
 H3132 H 0.24610 0.05884 0.21508
 H3133 H 0.19735 0.10044 0.23269
 H3134 H 0.20847 0.08351 0.24306
 C3135 C 0.71352 1.09633 0.71577
 C3136 C 0.71854 1.10101 0.70228
 C3137 C 0.71211 1.11278 0.69548
 C3138 C 0.70058 1.12001 0.70184
 C3139 C 0.69561 1.11526 0.71518
 C3140 C 0.70195 1.10363 0.72205
 C3141 C 0.72054 1.08361 0.72259
 C3142 C 0.71638 1.07816 0.73601
 C3143 C 0.72265 1.06576 0.74148
 C3144 C 0.73330 1.05850 0.73381
 C3145 C 0.73797 1.06423 0.72074
 C3146 C 0.73166 1.07663 0.71507
 C3147 C 0.72982 1.09381 0.69558
 C3148 C 0.73619 1.08185 0.70180
 H3149 H 0.73369 1.09737 0.68526
 H3150 H 0.74474 1.07653 0.69606
 H3151 H 0.71606 1.11615 0.68515
 H3152 H 0.68679 1.12052 0.72047
 H3153 H 0.71886 1.06166 0.75162
 H3154 H 0.74615 1.05874 0.71464
 H3155 H 0.69754 1.10050 0.73222
 H3156 H 0.70815 1.08314 0.74235
 C3157 C 0.71371 0.59631 0.21540
 C3158 C 0.71832 0.60053 0.20162
 C3159 C 0.71184 0.61221 0.19473
 C3160 C 0.70068 0.61983 0.20130
 C3161 C 0.69608 0.61550 0.21492
 C3162 C 0.70247 0.60395 0.22187
 C3163 C 0.72082 0.58371 0.22234
 C3164 C 0.71706 0.57871 0.23605
 C3165 C 0.72336 0.56640 0.24168
 C3166 C 0.73368 0.55880 0.23388
 C3167 C 0.73798 0.56409 0.22049
 C3168 C 0.73160 0.57638 0.21467
 C3169 C 0.72927 0.59298 0.19473
 C3170 C 0.73572 0.58114 0.20109
 H3171 H 0.73281 0.59618 0.18418
 H3172 H 0.74401 0.57556 0.19523
 H3173 H 0.71545 0.61523 0.18416
 H3174 H 0.68756 0.62108 0.22037
 H3175 H 0.71986 0.56263 0.25204
 H3176 H 0.74589 0.55832 0.21429
 H3177 H 0.69837 0.60117 0.23226
 H3178 H 0.70910 0.58396 0.24252
 C3179 C 0.53440 0.15406 0.71198
 C3180 C 0.54788 0.14944 0.71701
 C3181 C 0.55463 0.13758 0.71072
 C3182 C 0.54833 0.13022 0.69915
 C3183 C 0.53509 0.13518 0.69397
 C3184 C 0.52823 0.14685 0.70028
 C3185 C 0.52748 0.16668 0.71911
 C3186 C 0.51381 0.17175 0.71531
 C3187 C 0.50818 0.18401 0.72172
 C3188 C 0.51594 0.19150 0.73218
 C3189 C 0.52929 0.18613 0.73651
 C3190 C 0.53507 0.17384 0.73009
 C3191 C 0.55467 0.15681 0.72817
 C3192 C 0.54849 0.16883 0.73446
 H3193 H 0.56505 0.15333 0.73200
 H3194 H 0.55430 0.17429 0.74288
 H3195 H 0.56492 0.13430 0.71485
 H3196 H 0.52981 0.13004 0.68506
 H3197 H 0.49782 0.18781 0.71821
 H3198 H 0.53545 0.19179 0.74455
 H3199 H 0.51814 0.15009 0.69574
 H3200 H 0.50736 0.16654 0.70729
 C3201 C 1.03393 0.15391 0.21273
 C3202 C 1.04777 0.14977 0.21724
 C3203 C 1.05461 0.13807 0.21077
 C3204 C 1.04795 0.13035 0.19972
 C3205 C 1.03430 0.13461 0.19518
 C3206 C 1.02738 0.14619 0.20156
 C3207 C 1.02703 0.16653 0.21985
 C3208 C 1.01326 0.17145 0.21622
 C3209 C 1.00767 0.18377 0.22252
 C3210 C 1.01558 0.19147 0.23271
 C3211 C 1.02903 0.18627 0.23689
 C3212 C 1.03482 0.17396 0.23052
 C3213 C 1.05476 0.15741 0.22809
 C3214 C 1.04846 0.16928 0.23453
 H3215 H 1.06536 0.15425 0.23155
 H3216 H 1.05440 0.17494 0.24273
 H3217 H 1.06523 0.13513 0.21430
 H3218 H 1.02880 0.12894 0.18671
 H3219 H 0.99725 0.18748 0.21912
 H3220 H 1.03532 0.19212 0.24470
 H3221 H 1.01693 0.14893 0.19753
 H3222 H 1.00671 0.16611 0.20837
 C3223 C 0.21461 0.65562 0.53712
 C3224 C 0.20128 0.65076 0.53183
 C3225 C 0.19458 0.63881 0.53803
 C3226 C 0.20094 0.63154 0.54954
 C3227 C 0.21412 0.63651 0.55479
 C3228 C 0.22085 0.64834 0.54872
 C3229 C 0.22144 0.66840 0.53023
 C3230 C 0.23469 0.67402 0.53472
 C3231 C 0.24037 0.68622 0.52829
 C3232 C 0.23308 0.69315 0.51716
 C3233 C 0.22003 0.68740 0.51236
 C3234 C 0.21417 0.67517 0.51882
 C3235 C 0.19470 0.65789 0.52042
 C3236 C 0.20098 0.66985 0.51408
 H3237 H 0.18448 0.65421 0.51636
 H3238 H 0.19540 0.67504 0.50535
 H3239 H 0.18437 0.63526 0.53389
 H3240 H 0.21943 0.63124 0.56359
 H3241 H 0.25042 0.69040 0.53228
 H3242 H 0.21419 0.69269 0.50386
 H3243 H 0.23092 0.65156 0.55330
 H3244 H 0.24078 0.66932 0.54329
 C3245 C 0.21191 0.15560 1.03511
 C3246 C 0.21759 0.15045 1.04815
 C3247 C 0.21143 0.13849 1.05487
 C3248 C 0.19957 0.13149 1.04883
 C3249 C 0.19392 0.13674 1.03594
 C3250 C 0.19996 0.14859 1.02918
 C3251 C 0.21880 0.16839 1.02828
 C3252 C 0.21397 0.17432 1.01529
 C3253 C 0.22042 0.18652 1.00963
 C3254 C 0.23192 0.19314 1.01667
 C3255 C 0.23705 0.18708 1.02942
 C3256 C 0.23057 0.17485 1.03527
 C3257 C 0.22935 0.15728 1.05446
 C3258 C 0.23568 0.16923 1.04818
 H3259 H 0.23370 0.15336 1.06446
 H3260 H 0.24468 0.17419 1.05355
 H3261 H 0.21591 0.13474 1.06485
 H3262 H 0.18480 0.13171 1.03092
 H3263 H 0.21617 0.19094 0.99980
 H3264 H 0.24584 0.19212 1.03508
 H3265 H 0.19507 0.15207 1.01935
 H3266 H 0.20512 0.16984 1.00942
 C3267 C 0.21250 0.71426 0.59360
 C3268 C 0.21794 0.70101 0.59854
 C3269 C 0.21179 0.69431 0.61052
 C3270 C 0.20018 0.70057 0.61772
 C3271 C 0.19480 0.71365 0.61266
 C3272 C 0.20082 0.72039 0.60082
 C3273 C 0.21934 0.72109 0.58081
 C3274 C 0.21474 0.73428 0.57514
 C3275 C 0.22112 0.73998 0.56294
 C3276 C 0.23232 0.73277 0.55604
 C3277 C 0.23724 0.71978 0.56183
 C3278 C 0.23083 0.71391 0.57408
 C3279 C 0.22943 0.69452 0.59146
 C3280 C 0.23570 0.70080 0.57948
 H3281 H 0.23361 0.68437 0.59521
 H3282 H 0.24450 0.69528 0.57434
 H3283 H 0.21605 0.68416 0.61414
 H3284 H 0.18591 0.71889 0.61786
 H3285 H 0.21704 0.74998 0.55875
 H3286 H 0.24580 0.71400 0.55658
 H3287 H 0.19612 0.73039 0.59753
 H3288 H 0.20611 0.74031 0.57982
 C3289 C 0.21519 0.21109 1.09431
 C3290 C 0.20215 0.21681 1.09943
 C3291 C 0.19544 0.21074 1.11140
 C3292 C 0.20147 0.19894 1.11850
 C3293 C 0.21433 0.19322 1.11328
 C3294 C 0.22109 0.19917 1.10138
 C3295 C 0.22203 0.21794 1.08152
 C3296 C 0.23501 0.21310 1.07558
 C3297 C 0.24072 0.21959 1.06342
 C3298 C 0.23373 0.23115 1.05687
 C3299 C 0.22096 0.23625 1.06290
 C3300 C 0.21507 0.22974 1.07506
 C3301 C 0.19586 0.22855 1.09257
 C3302 C 0.20216 0.23485 1.08065
 H3303 H 0.18586 0.23292 1.09647
 H3304 H 0.19681 0.24386 1.07569
 H3305 H 0.18549 0.21529 1.11513
 H3306 H 0.21931 0.18412 1.11838
 H3307 H 0.25054 0.21534 1.05900
 H3308 H 0.21534 0.24507 1.05790
 H3309 H 0.23093 0.19426 1.09793
 H3310 H 0.24084 0.20421 1.08003
 C3311 C 0.71376 0.53534 0.15443
 C3312 C 0.71845 0.54906 0.15007
 C3313 C 0.71204 0.55583 0.13828
 C3314 C 0.70086 0.54918 0.13074
 C3315 C 0.69621 0.53561 0.13520
 C3316 C 0.70253 0.52878 0.14684
 C3317 C 0.72079 0.52852 0.16713
 C3318 C 0.71692 0.51488 0.17228
 C3319 C 0.72324 0.50932 0.18459
 C3320 C 0.73365 0.51713 0.19209
 C3321 C 0.73798 0.53049 0.18671
 C3322 C 0.73161 0.53623 0.17439
 C3323 C 0.72941 0.55601 0.15757
 C3324 C 0.73581 0.54977 0.16949
 H3325 H 0.73302 0.56652 0.15425
 H3326 H 0.74412 0.55567 0.17502
 H3327 H 0.71571 0.56635 0.13512
 H3328 H 0.68768 0.53008 0.12967
 H3329 H 0.71966 0.49899 0.18844
 H3330 H 0.74594 0.53671 0.19242
 H3331 H 0.69839 0.51840 0.14970
 H3332 H 0.70888 0.50840 0.16713
 C3333 C 0.71497 1.03661 0.65401
 C3334 C 0.70151 1.03151 0.64931
 C3335 C 0.69472 1.03789 0.63750
 C3336 C 0.70104 1.04951 0.63037
 C3337 C 0.71431 1.05462 0.63518
 C3338 C 0.72120 1.04828 0.64679
 C3339 C 0.72183 1.02957 0.66669
 C3340 C 0.73531 1.03369 0.67204
 C3341 C 0.74088 1.02739 0.68436
 C3342 C 0.73324 1.01674 0.69167
 C3343 C 0.72008 1.01211 0.68606
 C3344 C 0.71433 1.01845 0.67371
 C3345 C 0.69480 1.02023 0.65654
 C3346 C 0.70102 1.01391 0.66853
 H3347 H 0.68447 1.01633 0.65298
 H3348 H 0.69528 1.00537 0.67387
 H3349 H 0.68439 1.03395 0.63405
 H3350 H 0.71953 1.06348 0.62988
 H3351 H 0.75107 1.03117 0.68836
 H3352 H 0.71401 1.00393 0.69160
 H3353 H 0.73134 1.05276 0.64995
 H3354 H 0.74166 1.04191 0.66702
 C3355 C 0.53324 0.21366 0.65310
 C3356 C 0.54673 0.21877 0.64852
 C3357 C 0.55364 0.21236 0.63682
 C3358 C 0.54739 0.20076 0.62954
 C3359 C 0.53407 0.19566 0.63422
 C3360 C 0.52709 0.20198 0.64580
 C3361 C 0.52630 0.22070 0.66574
 C3362 C 0.51284 0.21651 0.67107
 C3363 C 0.50730 0.22273 0.68345
 C3364 C 0.51493 0.23338 0.69081
 C3365 C 0.52800 0.23815 0.68515
 C3366 C 0.53374 0.23187 0.67278
 C3367 C 0.55334 0.23013 0.65575
 C3368 C 0.54703 0.23648 0.66765
 H3369 H 0.56367 0.23405 0.65225
 H3370 H 0.55270 0.24508 0.67300
 H3371 H 0.56397 0.21638 0.63354
 H3372 H 0.52890 0.18675 0.62894
 H3373 H 0.49714 0.21889 0.68748
 H3374 H 0.53405 0.24635 0.69071
 H3375 H 0.51695 0.19748 0.64889
 H3376 H 0.50653 0.20828 0.66601
 C3377 C 1.03340 0.21284 0.15363
 C3378 C 1.04696 0.21785 0.14916
 C3379 C 1.05394 0.21132 0.13758
 C3380 C 1.04771 0.19971 0.13030
 C3381 C 1.03434 0.19467 0.13491
 C3382 C 1.02728 0.20111 0.14638
 C3383 C 1.02635 0.22006 0.16611
 C3384 C 1.01281 0.21601 0.17133
 C3385 C 1.00714 0.22243 0.18356
 C3386 C 1.01473 0.23315 0.19087
 C3387 C 1.02789 0.23776 0.18532
 C3388 C 1.03376 0.23129 0.17311
 C3389 C 1.05355 0.22924 0.15634
 C3390 C 1.04713 0.23576 0.16810
 H3391 H 1.06394 0.23308 0.15292
 H3392 H 1.05279 0.24438 0.17342
 H3393 H 1.06432 0.21529 0.13437
 H3394 H 1.02919 0.18575 0.12964
 H3395 H 0.99692 0.21868 0.18752
 H3396 H 1.03393 0.24600 0.19085
 H3397 H 1.01708 0.19668 0.14941
 H3398 H 1.00653 0.20773 0.16631
 C3399 C 0.59507 0.21583 0.71263
 C3400 C 0.59962 0.20225 0.71757
 C3401 C 0.61143 0.19548 0.71125
 C3402 C 0.61888 0.20197 0.69994
 C3403 C 0.61426 0.21540 0.69504
 C3404 C 0.60256 0.22223 0.70126
 C3405 C 0.58232 0.22263 0.71957
 C3406 C 0.57691 0.23608 0.71542
 C3407 C 0.56452 0.24157 0.72165
 C3408 C 0.55724 0.23389 0.73228
 C3409 C 0.56290 0.22075 0.73691
 C3410 C 0.57526 0.21506 0.73060
 C3411 C 0.59229 0.19545 0.72871
 C3412 C 0.58035 0.20169 0.73505
 H3413 H 0.59576 0.18505 0.73250
 H3414 H 0.57495 0.19590 0.74351
 H3415 H 0.61469 0.18506 0.71511
 H3416 H 0.61971 0.22078 0.68639
 H3417 H 0.56043 0.25173 0.71786
 H3418 H 0.55737 0.21462 0.74504
 H3419 H 0.59956 0.23249 0.69694
 H3420 H 0.58190 0.24244 0.70721
 C3421 C 1.09479 0.21573 0.21221
 C3422 C 1.09944 0.20221 0.21717
 C3423 C 1.11130 0.19551 0.21085
 C3424 C 1.11871 0.20202 0.19952
 C3425 C 1.11396 0.21538 0.19456
 C3426 C 1.10220 0.22214 0.20078
 C3427 C 1.08201 0.22247 0.21920
 C3428 C 1.07654 0.23591 0.21509
 C3429 C 1.06418 0.24138 0.22141
 C3430 C 1.05697 0.23369 0.23209
 C3431 C 1.06268 0.22055 0.23665
 C3432 C 1.07503 0.21489 0.23027
 C3433 C 1.09217 0.19537 0.22834
 C3434 C 1.08021 0.20155 0.23471
 H3435 H 1.09572 0.18501 0.23214
 H3436 H 1.07488 0.19574 0.24320
 H3437 H 1.11463 0.18513 0.21475
 H3438 H 1.11936 0.22076 0.18587
 H3439 H 1.06007 0.25154 0.21765
 H3440 H 1.05721 0.21441 0.24482
 H3441 H 1.09910 0.23236 0.19643
 H3442 H 1.08148 0.24228 0.20685
 C3443 C 0.15617 0.71139 0.53513
 C3444 C 0.15132 0.71671 0.54844
 C3445 C 0.13941 0.71048 0.55514
 C3446 C 0.13214 0.69891 0.54884
 C3447 C 0.13710 0.69359 0.53570
 C3448 C 0.14892 0.69970 0.52895
 C3449 C 0.16890 0.71838 0.52830
 C3450 C 0.17451 0.71394 0.51504
 C3451 C 0.18663 0.72049 0.50933
 C3452 C 0.19350 0.73171 0.51662
 C3453 C 0.18778 0.73644 0.52967
 C3454 C 0.17562 0.72987 0.53555
 C3455 C 0.15840 0.72818 0.55501
 C3456 C 0.17031 0.73459 0.54873
 H3457 H 0.15472 0.73225 0.56522
 H3458 H 0.17545 0.74337 0.55431
 H3459 H 0.13589 0.71469 0.56533
 H3460 H 0.13184 0.68470 0.53048
 H3461 H 0.19079 0.71653 0.49928
 H3462 H 0.19302 0.74501 0.53551
 H3463 H 0.15216 0.69507 0.51890
 H3464 H 0.16983 0.70531 0.50896
 C3465 C 0.15614 0.21473 1.03888
 C3466 C 0.15095 0.20170 1.03315
 C3467 C 0.13895 0.19500 1.03924
 C3468 C 0.13193 0.20105 1.05107
 C3469 C 0.13723 0.21392 1.05678
 C3470 C 0.14913 0.22066 1.05081
 C3471 C 0.16894 0.22157 1.03203
 C3472 C 0.17489 0.23456 1.03689
 C3473 C 0.18708 0.24026 1.03043
 C3474 C 0.19366 0.23324 1.01891
 C3475 C 0.18759 0.22046 1.01377
 C3476 C 0.17538 0.21458 1.02025
 C3477 C 0.15777 0.19539 1.02140
 C3478 C 0.16974 0.20167 1.01512
 H3479 H 0.15384 0.18538 1.01702
 H3480 H 0.17467 0.19630 1.00611
 H3481 H 0.13516 0.18504 1.03469
 H3482 H 0.13220 0.21893 1.06590
 H3483 H 0.19150 0.25010 1.03470
 H3484 H 0.19259 0.21483 1.00496
 H3485 H 0.15263 0.23049 1.05574
 H3486 H 0.17044 0.24042 1.04575
 C3487 C 0.65380 0.53658 0.21616
 C3488 C 0.64915 0.53160 0.20264
 C3489 C 0.63734 0.53798 0.19590
 C3490 C 0.63003 0.54944 0.20232
 C3491 C 0.63476 0.55441 0.21569
 C3492 C 0.64645 0.54810 0.22252
 C3493 C 0.66657 0.52958 0.22291
 C3494 C 0.67196 0.53364 0.23640
 C3495 C 0.68442 0.52744 0.24180
 C3496 C 0.69181 0.51696 0.23398
 C3497 C 0.68613 0.51236 0.22085
 C3498 C 0.67365 0.51859 0.21527
 C3499 C 0.65642 0.52040 0.19583
 C3500 C 0.66845 0.51410 0.20196
 H3501 H 0.65286 0.51657 0.18548
 H3502 H 0.67382 0.50564 0.19613
 H3503 H 0.63402 0.53406 0.18553
 H3504 H 0.62944 0.56319 0.22100
 H3505 H 0.68845 0.53116 0.25200
 H3506 H 0.69171 0.50429 0.21466
 H3507 H 0.64958 0.55249 0.23271
 H3508 H 0.66689 0.54173 0.24285
 C3509 C 0.65409 1.03642 0.71573
 C3510 C 0.64985 1.03199 0.70189
 C3511 C 0.63811 1.03851 0.69514
 C3512 C 0.63047 1.04954 0.70190
 C3513 C 0.63481 1.05400 0.71557
 C3514 C 0.64643 1.04756 0.72240
 C3515 C 0.66675 1.02925 0.72251
 C3516 C 0.67178 1.03278 0.73628
 C3517 C 0.68413 1.02643 0.74174
 C3518 C 0.69176 1.01628 0.73372
 C3519 C 0.68645 1.01220 0.72026
 C3520 C 0.67411 1.01863 0.71460
 C3521 C 0.65742 1.02120 0.69477
 C3522 C 0.66933 1.01472 0.70095
 H3523 H 0.65419 1.01781 0.68416
 H3524 H 0.67494 1.00657 0.69491
 H3525 H 0.63510 1.03503 0.68452
 H3526 H 0.62919 1.06245 0.72113
 H3527 H 0.68792 1.02976 0.75217
 H3528 H 0.69224 1.00445 0.71388
 H3529 H 0.64924 1.05153 0.73285
 H3530 H 0.66650 1.04059 0.74291
 C3531 C 0.84373 0.46446 0.28955
 C3532 C 0.84867 0.45118 0.28420
 C3533 C 0.86054 0.44446 0.29049
 C3534 C 0.86770 0.45072 0.30215
 C3535 C 0.86267 0.46383 0.30749
 C3536 C 0.85088 0.47061 0.30132
 C3537 C 0.83104 0.47130 0.28249
 C3538 C 0.82533 0.48452 0.28696
 C3539 C 0.81325 0.49023 0.28033
 C3540 C 0.80651 0.48300 0.26900
 C3541 C 0.81234 0.46997 0.26425
 C3542 C 0.82446 0.46409 0.27090
 C3543 C 0.84173 0.44466 0.27262
 C3544 C 0.82988 0.45095 0.26614
 H3545 H 0.84549 0.43448 0.26852
 H3546 H 0.82487 0.44544 0.25725
 H3547 H 0.86411 0.43430 0.28624
 H3548 H 0.86786 0.46901 0.31644
 H3549 H 0.80901 0.50026 0.28431
 H3550 H 0.80722 0.46417 0.25560
 H3551 H 0.84758 0.48064 0.30594
 H3552 H 0.82989 0.49056 0.29566
 C3553 C 0.84489 0.96544 0.78736
 C3554 C 0.84963 0.95200 0.78223
 C3555 C 0.86160 0.94535 0.78843
 C3556 C 0.86900 0.95185 0.79980
 C3557 C 0.86414 0.96512 0.80492
 C3558 C 0.85229 0.97182 0.79883
 C3559 C 0.83208 0.97219 0.78044
 C3560 C 0.82658 0.98557 0.78471
 C3561 C 0.81431 0.99115 0.77832
 C3562 C 0.80720 0.98362 0.76743
 C3563 C 0.81284 0.97047 0.76281
 C3564 C 0.82514 0.96471 0.76924
 C3565 C 0.84237 0.94523 0.77099
 C3566 C 0.83036 0.95142 0.76468
 H3567 H 0.84597 0.93493 0.76706
 H3568 H 0.82506 0.94568 0.75610
 H3569 H 0.86504 0.93506 0.78439
 H3570 H 0.86951 0.97050 0.81364
 H3571 H 0.81024 1.00131 0.78214
 H3572 H 0.80743 0.96446 0.75449
 H3573 H 0.84913 0.98197 0.80331
 H3574 H 0.83144 0.99184 0.79308
 C3575 C 0.40497 0.28461 0.78804
 C3576 C 0.40023 0.29805 0.78293
 C3577 C 0.38836 0.30477 0.78922
 C3578 C 0.38104 0.29835 0.80066
 C3579 C 0.38590 0.28510 0.80578
 C3580 C 0.39767 0.27832 0.79960
 C3581 C 0.41766 0.27777 0.78099
 C3582 C 0.42317 0.26439 0.78522
 C3583 C 0.43531 0.25872 0.77867
 C3584 C 0.44227 0.26615 0.76766
 C3585 C 0.43662 0.27931 0.76309
 C3586 C 0.42446 0.28516 0.76968
 C3587 C 0.40738 0.30474 0.77160
 C3588 C 0.41925 0.29846 0.76515
 H3589 H 0.40378 0.31504 0.76769
 H3590 H 0.42447 0.30413 0.75650
 H3591 H 0.38493 0.31507 0.78519
 H3592 H 0.38058 0.27979 0.81456
 H3593 H 0.43941 0.24857 0.78247
 H3594 H 0.44193 0.28526 0.75468
 H3595 H 0.40083 0.26817 0.80406
 H3596 H 0.41841 0.25819 0.79369
 C3597 C 0.90499 0.28513 0.28813
 C3598 C 0.90035 0.29860 0.28302
 C3599 C 0.88852 0.30540 0.28929
 C3600 C 0.88111 0.29901 0.30069
 C3601 C 0.88588 0.28572 0.30581
 C3602 C 0.89762 0.27887 0.29966
 C3603 C 0.91764 0.27820 0.28109
 C3604 C 0.92308 0.26479 0.28534
 C3605 C 0.93519 0.25903 0.27877
 C3606 C 0.94216 0.26641 0.26773
 C3607 C 0.93657 0.27960 0.26316
 C3608 C 0.92447 0.28554 0.26976
 C3609 C 0.90755 0.30525 0.27170
 C3610 C 0.91936 0.29887 0.26524
 H3611 H 0.90403 0.31558 0.26779
 H3612 H 0.92461 0.30451 0.25658
 H3613 H 0.88516 0.31572 0.28525
 H3614 H 0.88051 0.28043 0.31456
 H3615 H 0.93925 0.24887 0.28258
 H3616 H 0.94188 0.28551 0.25472
 H3617 H 0.90071 0.26870 0.30412
 H3618 H 0.91830 0.25864 0.29382
 C3619 C 0.34556 0.78479 0.46195
 C3620 C 0.35008 0.79842 0.46679
 C3621 C 0.36183 0.80521 0.46037
 C3622 C 0.36925 0.79869 0.44905
 C3623 C 0.36462 0.78524 0.44418
 C3624 C 0.35297 0.77838 0.45050
 C3625 C 0.33293 0.77793 0.46907
 C3626 C 0.32766 0.76435 0.46513
 C3627 C 0.31542 0.75875 0.47157
 C3628 C 0.30814 0.76646 0.48220
 C3629 C 0.31365 0.77974 0.48661
 C3630 C 0.32589 0.78553 0.48011
 C3631 C 0.34277 0.80527 0.47793
 C3632 C 0.33091 0.79899 0.48441
 H3633 H 0.34621 0.81572 0.48164
 H3634 H 0.32555 0.80481 0.49287
 H3635 H 0.36507 0.81567 0.46418
 H3636 H 0.37004 0.77986 0.43550
 H3637 H 0.31146 0.74848 0.46793
 H3638 H 0.30812 0.78589 0.49473
 H3639 H 0.34995 0.76810 0.44622
 H3640 H 0.33265 0.75796 0.45694
 C3641 C 0.34592 0.28405 0.96262
 C3642 C 0.35095 0.29723 0.96816
 C3643 C 0.36267 0.30415 0.96179
 C3644 C 0.36951 0.29820 0.94981
 C3645 C 0.36439 0.28518 0.94430
 C3646 C 0.35279 0.27820 0.95058
 C3647 C 0.33329 0.27708 0.96963
 C3648 C 0.32748 0.26395 0.96496
 C3649 C 0.31520 0.25833 0.97130
 C3650 C 0.30841 0.26557 0.98256
 C3651 C 0.31450 0.27834 0.98771
 C3652 C 0.32677 0.28415 0.98132
 C3653 C 0.34418 0.30351 0.97996
 C3654 C 0.33232 0.29714 0.98635
 H3655 H 0.34801 0.31360 0.98422
 H3656 H 0.32735 0.30254 0.99532
 H3657 H 0.36633 0.31425 0.96615
 H3658 H 0.36933 0.28021 0.93512
 H3659 H 0.31080 0.24846 0.96710
 H3660 H 0.30937 0.28411 0.99636
 H3661 H 0.34938 0.26828 0.94576
 H3662 H 0.33208 0.25795 0.95625
 C3663 C 0.78496 0.46218 0.34442
 C3664 C 0.79854 0.46703 0.34899
 C3665 C 0.80522 0.46066 0.36083
 C3666 C 0.79861 0.44942 0.36830
 C3667 C 0.78521 0.44454 0.36360
 C3668 C 0.77847 0.45079 0.35185
 C3669 C 0.77818 0.46929 0.33175
 C3670 C 0.76466 0.46531 0.32640
 C3671 C 0.75905 0.47186 0.31423
 C3672 C 0.76670 0.48262 0.30709
 C3673 C 0.77998 0.48698 0.31260
 C3674 C 0.78577 0.48039 0.32478
 C3675 C 0.80543 0.47816 0.34171
 C3676 C 0.79920 0.48466 0.32984
 H3677 H 0.81585 0.48187 0.34519
 H3678 H 0.80503 0.49315 0.32450
 H3679 H 0.81564 0.46449 0.36412
 H3680 H 0.77977 0.43591 0.36903
 H3681 H 0.74879 0.46825 0.31025
 H3682 H 0.78608 0.49520 0.30715
 H3683 H 0.76821 0.44652 0.34880
 H3684 H 0.75830 0.45704 0.33130
 C3685 C 0.78799 0.96476 0.84414
 C3686 C 0.78313 0.95115 0.84867
 C3687 C 0.78937 0.94452 0.86062
 C3688 C 0.80050 0.95121 0.86821
 C3689 C 0.80533 0.96466 0.86359
 C3690 C 0.79921 0.97134 0.85176
 C3691 C 0.78107 0.97149 0.83134
 C3692 C 0.78513 0.98499 0.82601
 C3693 C 0.77874 0.99057 0.81376
 C3694 C 0.76804 0.98292 0.80650
 C3695 C 0.76363 0.96963 0.81196
 C3696 C 0.77008 0.96386 0.82423
 C3697 C 0.77212 0.94422 0.84123
 C3698 C 0.76575 0.95042 0.82927
 H3699 H 0.76839 0.93379 0.84468
 H3700 H 0.75733 0.94457 0.82384
 H3701 H 0.78558 0.93407 0.86389
 H3702 H 0.81383 0.97020 0.86915
 H3703 H 0.78240 1.00084 0.80982
 H3704 H 0.75545 0.96353 0.80643
 H3705 H 0.80345 0.98164 0.84879
 H3706 H 0.79335 0.99136 0.83099
 C3707 C 0.28470 0.78627 0.40358
 C3708 C 0.29839 0.78155 0.39922
 C3709 C 0.30524 0.78806 0.38754
 C3710 C 0.29871 0.79936 0.38009
 C3711 C 0.28522 0.80412 0.38464
 C3712 C 0.27831 0.79771 0.39618
 C3713 C 0.27776 0.77909 0.41612
 C3714 C 0.26409 0.78288 0.42119
 C3715 C 0.25850 0.77655 0.43348
 C3716 C 0.26631 0.76618 0.44099
 C3717 C 0.27962 0.76179 0.43560
 C3718 C 0.28540 0.76819 0.42332
 C3719 C 0.30523 0.77046 0.40660
 C3720 C 0.29891 0.76398 0.41844
 H3721 H 0.31572 0.76683 0.40328
 H3722 H 0.30475 0.75559 0.42392
 H3723 H 0.31571 0.78431 0.38436
 H3724 H 0.27982 0.81283 0.37929
 H3725 H 0.24817 0.78010 0.43731
 H3726 H 0.28581 0.75381 0.44128
 H3727 H 0.26801 0.80194 0.39913
 H3728 H 0.25762 0.79088 0.41600
 C3729 C 0.28353 0.28755 0.90441
 C3730 C 0.29660 0.28193 0.89928
 C3731 C 0.30345 0.28829 0.88753
 C3732 C 0.29753 0.30030 0.88070
 C3733 C 0.28462 0.30590 0.88591
 C3734 C 0.27771 0.29965 0.89757
 C3735 C 0.27665 0.28053 0.91709
 C3736 C 0.26363 0.28525 0.92301
 C3737 C 0.25814 0.27891 0.93536
 C3738 C 0.26539 0.26762 0.94208
 C3739 C 0.27803 0.26241 0.93586
 C3740 C 0.28372 0.26880 0.92353
 C3741 C 0.30287 0.27009 0.90598
 C3742 C 0.29660 0.26370 0.91787
 H3743 H 0.31288 0.26578 0.90206
 H3744 H 0.30199 0.25469 0.92278
 H3745 H 0.31346 0.28384 0.88383
 H3746 H 0.27972 0.31515 0.88101
 H3747 H 0.24835 0.28315 0.93985
 H3748 H 0.28380 0.25372 0.94092
 H3749 H 0.26787 0.30452 0.90107
 H3750 H 0.25763 0.29398 0.91846
 C3751 C 0.46242 0.28582 0.84386
 C3752 C 0.46753 0.29935 0.84840
 C3753 C 0.46139 0.30615 0.86034
 C3754 C 0.45012 0.29969 0.86789
 C3755 C 0.44511 0.28628 0.86327
 C3756 C 0.45112 0.27945 0.85148
 C3757 C 0.46916 0.27893 0.83103
 C3758 C 0.46479 0.26551 0.82568
 C3759 C 0.47102 0.25977 0.81341
 C3760 C 0.48185 0.26718 0.80614
 C3761 C 0.48655 0.28040 0.81161
 C3762 C 0.48027 0.28632 0.82391
 C3763 C 0.47867 0.30604 0.84095
 C3764 C 0.48489 0.29967 0.82897
 H3765 H 0.48261 0.31639 0.84439
 H3766 H 0.49342 0.30533 0.82355
 H3767 H 0.46537 0.31652 0.86365
 H3768 H 0.43652 0.28086 0.86879
 H3769 H 0.46713 0.24958 0.80948
 H3770 H 0.49483 0.28632 0.80607
 H3771 H 0.44670 0.26921 0.84853
 H3772 H 0.45645 0.25931 0.83066
 C3773 C 0.96194 0.28506 0.34388
 C3774 C 0.96687 0.29865 0.34842
 C3775 C 0.96067 0.30534 0.36035
 C3776 C 0.94949 0.29875 0.36793
 C3777 C 0.94455 0.28534 0.36327
 C3778 C 0.95065 0.27859 0.35144
 C3779 C 0.96886 0.27826 0.33110
 C3780 C 0.96479 0.26473 0.32580
 C3781 C 0.97114 0.25911 0.31354
 C3782 C 0.98180 0.26674 0.30623
 C3783 C 0.98627 0.28003 0.31170
 C3784 C 0.97986 0.28583 0.32399
 C3785 C 0.97792 0.30551 0.34099
 C3786 C 0.98425 0.29926 0.32903
 H3787 H 0.98170 0.31593 0.34445
 H3788 H 0.99270 0.30506 0.32362
 H3789 H 0.96454 0.31577 0.36362
 H3790 H 0.93599 0.27989 0.36880
 H3791 H 0.96746 0.24884 0.30961
 H3792 H 0.99443 0.28611 0.30616
 H3793 H 0.94632 0.26832 0.34844
 H3794 H 0.95659 0.25837 0.33081
 C3795 C 0.46062 0.34352 0.78502
 C3796 C 0.46611 0.34854 0.79821
 C3797 C 0.45988 0.36044 0.80494
 C3798 C 0.44816 0.36755 0.79877
 C3799 C 0.44268 0.36242 0.78576
 C3800 C 0.44878 0.35061 0.77898
 C3801 C 0.46759 0.33081 0.77816
 C3802 C 0.46296 0.32503 0.76503
 C3803 C 0.46947 0.31289 0.75931
 C3804 C 0.48083 0.30617 0.76646
 C3805 C 0.48578 0.31208 0.77937
 C3806 C 0.47924 0.32426 0.78526
 C3807 C 0.47775 0.34164 0.80463
 C3808 C 0.48416 0.32975 0.79831
 H3809 H 0.48196 0.34546 0.81473
 H3810 H 0.49309 0.32476 0.80374
 H3811 H 0.46422 0.36408 0.81504
 H3812 H 0.43367 0.36755 0.78066
 H3813 H 0.46536 0.30859 0.74937
 H3814 H 0.49447 0.30697 0.78509
 H3815 H 0.44403 0.34723 0.76904
 H3816 H 0.45421 0.32958 0.75906
 C3817 C 0.96028 0.34347 0.28569
 C3818 C 0.96598 0.34852 0.29877
 C3819 C 0.95991 0.36050 0.30556
 C3820 C 0.94813 0.36764 0.29953
 C3821 C 0.94245 0.36247 0.28662
 C3822 C 0.94839 0.35059 0.27980
 C3823 C 0.96711 0.33071 0.27874
 C3824 C 0.96228 0.32490 0.26570
 C3825 C 0.96875 0.31279 0.25986
 C3826 C 0.98027 0.30611 0.26679
 C3827 C 0.98537 0.31201 0.27965
 C3828 C 0.97888 0.32417 0.28566
 C3829 C 0.97769 0.34159 0.30503
 C3830 C 0.98398 0.32968 0.29863
 H3831 H 0.98206 0.34543 0.31507
 H3832 H 0.99300 0.32469 0.30394
 H3833 H 0.96442 0.36418 0.31556
 H3834 H 0.93340 0.36762 0.28161
 H3835 H 0.96450 0.30848 0.24997
 H3836 H 0.99417 0.30694 0.28523
 H3837 H 0.94348 0.34720 0.26993
 H3838 H 0.95342 0.32942 0.25988
 C3839 C 0.28491 0.84582 0.46308
 C3840 C 0.29870 0.85001 0.46772
 C3841 C 0.30562 0.86170 0.46128
 C3842 C 0.29906 0.86934 0.45015
 C3843 C 0.28542 0.86506 0.44553
 C3844 C 0.27844 0.85350 0.45187
 C3845 C 0.27795 0.83319 0.47013
 C3846 C 0.26426 0.82816 0.46629
 C3847 C 0.25862 0.81582 0.47255
 C3848 C 0.26640 0.80824 0.48289
 C3849 C 0.27977 0.81355 0.48725
 C3850 C 0.28561 0.82585 0.48092
 C3851 C 0.30558 0.84243 0.47866
 C3852 C 0.29920 0.83059 0.48508
 H3853 H 0.31614 0.84563 0.48222
 H3854 H 0.30505 0.82499 0.49337
 H3855 H 0.31620 0.86470 0.46490
 H3856 H 0.27997 0.87069 0.43703
 H3857 H 0.24827 0.81203 0.46899
 H3858 H 0.28596 0.80778 0.49517
 H3859 H 0.26802 0.85076 0.44777
 H3860 H 0.25781 0.83340 0.45831
 C3861 C 0.28805 0.34569 0.96652
 C3862 C 0.28245 0.35072 0.95340
 C3863 C 0.28883 0.36242 0.94646
 C3864 C 0.30086 0.36927 0.95231
 C3865 C 0.30646 0.36415 0.96527
 C3866 C 0.30018 0.35255 0.97228
 C3867 C 0.28097 0.33309 0.97352
 C3868 C 0.28566 0.32727 0.98661
 C3869 C 0.27924 0.31501 0.99224
 C3870 C 0.26789 0.30827 0.98507
 C3871 C 0.26274 0.31438 0.97235
 C3872 C 0.26920 0.32661 0.96652
 C3873 C 0.27058 0.34400 0.94719
 C3874 C 0.26415 0.33217 0.95357
 H3875 H 0.26629 0.34784 0.93714
 H3876 H 0.25512 0.32723 0.94822
 H3877 H 0.28438 0.36605 0.93642
 H3878 H 0.31572 0.36908 0.97013
 H3879 H 0.28345 0.31059 1.00208
 H3880 H 0.25403 0.30928 0.96661
 H3881 H 0.30504 0.34912 0.98215
 H3882 H 0.29444 0.33183 0.99255
 C3883 C 0.78564 0.40580 0.28741
 C3884 C 0.79914 0.40117 0.28237
 C3885 C 0.80586 0.38924 0.28862
 C3886 C 0.79936 0.38178 0.29993
 C3887 C 0.78599 0.38649 0.30488
 C3888 C 0.77924 0.39829 0.29876
 C3889 C 0.77884 0.41861 0.28053
 C3890 C 0.76545 0.42403 0.28478
 C3891 C 0.75981 0.43631 0.27844
 C3892 C 0.76730 0.44351 0.26762
 C3893 C 0.78048 0.43794 0.26301
 C3894 C 0.78630 0.42564 0.26940
 C3895 C 0.80588 0.40852 0.27120
 C3896 C 0.79961 0.42049 0.26487
 H3897 H 0.81622 0.40500 0.26732
 H3898 H 0.80531 0.42583 0.25632
 H3899 H 0.81621 0.38588 0.28469
 H3900 H 0.78057 0.38104 0.31350
 H3901 H 0.74965 0.44032 0.28225
 H3902 H 0.78646 0.44341 0.25474
 H3903 H 0.76902 0.40132 0.30313
 H3904 H 0.75920 0.41912 0.29311
   
