data_POSCAR
  _audit_creation_date              2014-09-24
  _audit_creation_method            'ToBaCCo'
  _symmetry_space_group_name_H-M    'P1'
  _symmetry_Int_Tables_number       1
  _symmetry_cell_setting            triclinic
  loop_
  _symmetry_equiv_pos_as_xyz
 x,y,z
_cell_length_a 68.3327
_cell_length_b 68.1163
_cell_length_c 68.2980
_cell_angle_alpha 90.291000
_cell_angle_beta 90.067900
_cell_angle_gamma 90.477400
loop_
  _atom_site_label
  _atom_site_type_symbol
  _atom_site_fract_x
  _atom_site_fract_y
  _atom_site_fract_z
C1 C 0.08848 0.00004 0.22795
 H2 H 0.08123 0.00300 0.24168
 C3 C 0.07791 0.00084 0.21041
 H4 H 0.06248 0.00433 0.21077
 C5 C 0.11735 -0.00820 0.21063
 H6 H 0.13281 -0.01149 0.21085
 C7 C 0.10735 -0.00772 0.19287
 H8 H 0.11528 -0.01054 0.17944
 N9 N 0.10791 -0.00416 0.22766
 C10 C 0.11024 -0.01994 0.28600
 H11 H 0.11941 -0.03222 0.28233
 C12 C 0.10039 -0.01997 0.30382
 H13 H 0.10210 -0.03235 0.31355
 C14 C 0.09790 0.01154 0.27848
 H15 H 0.09730 0.02390 0.26862
 C16 C 0.08783 0.01217 0.29631
 H17 H 0.07922 0.02494 0.29995
 Zn18 Zn 0.12378 -0.00449 0.25034
 N19 N 0.10877 -0.00441 0.27365
 C20 C 0.15172 0.02184 0.26634
 N21 N 0.14017 0.01802 0.25051
 C22 C 0.13922 0.03077 0.23528
 C23 C 0.15025 0.04805 0.23550
 C24 C 0.16295 0.03909 0.26722
 C25 C 0.12797 -0.04452 0.24604
 C26 C 0.13706 -0.06271 0.24609
 C27 C 0.16797 -0.04622 0.25180
 C28 C 0.15815 -0.02828 0.25167
 N29 N 0.13845 -0.02783 0.24923
 H30 H 0.15197 0.01161 0.27840
 H31 H 0.12961 0.02780 0.22305
 H32 H 0.14895 0.05817 0.22339
 H33 H 0.17205 0.04195 0.27992
 H34 H 0.11234 -0.04366 0.24367
 H35 H 0.12791 -0.07528 0.24272
 H36 H 0.18344 -0.04565 0.25497
 H37 H 0.16624 -0.01478 0.25402
 C38 C 0.08903 -0.00378 0.30922
 C39 C 0.08741 -0.00302 0.19258
 C40 C 0.15748 -0.06417 0.24943
 C41 C 0.16223 0.05246 0.25164
 C42 C 0.40795 0.01322 0.77071
 H43 H 0.41085 0.02446 0.75994
 C44 C 0.41908 0.01260 0.78786
 H45 H 0.43077 0.02323 0.78999
 C46 C 0.38901 -0.01408 0.78106
 H47 H 0.37714 -0.02433 0.77854
 C48 C 0.39967 -0.01516 0.79844
 H49 H 0.39560 -0.02612 0.80914
 N50 N 0.39291 0.00029 0.76784
 C51 C 0.38209 0.01293 0.70629
 H52 H 0.36707 0.01753 0.70681
 C53 C 0.39198 0.01328 0.68845
 H54 H 0.38434 0.01818 0.67549
 C55 C 0.40985 -0.00025 0.72215
 H56 H 0.41657 -0.00605 0.73520
 C57 C 0.42027 -0.00025 0.70454
 H58 H 0.43514 -0.00561 0.70432
 Zn59 Zn 0.37602 0.00353 0.74595
 N60 N 0.39106 0.00622 0.72270
 C61 C 0.34494 0.02990 0.73803
 N62 N 0.36047 0.02631 0.74995
 C63 C 0.36554 0.03918 0.76444
 C64 C 0.35581 0.05698 0.76646
 C65 C 0.33482 0.04762 0.73950
 C66 C 0.36480 -0.03237 0.72913
 C67 C 0.35507 -0.05038 0.72793
 C68 C 0.33482 -0.04055 0.75518
 C69 C 0.34493 -0.02260 0.75582
 N70 N 0.35991 -0.01907 0.74317
 H71 H 0.34058 0.01916 0.72713
 H72 H 0.37739 0.03595 0.77428
 H73 H 0.36034 0.06709 0.77792
 H74 H 0.32305 0.05055 0.72932
 H75 H 0.37675 -0.02933 0.71923
 H76 H 0.35941 -0.06084 0.71679
 H77 H 0.32352 -0.04347 0.76589
 H78 H 0.34139 -0.01180 0.76690
 C79 C 0.41125 0.00644 0.68736
 C80 C 0.41469 -0.00145 0.80223
 C81 C 0.34019 -0.05490 0.74136
 C82 C 0.34058 0.06165 0.75356
 C83 C 0.90607 0.51283 0.27311
 H84 H 0.90883 0.52443 0.26268
 C85 C 0.91677 0.51222 0.29052
 H86 H 0.92817 0.52312 0.29262
 C87 C 0.88823 0.48441 0.28208
 H88 H 0.87691 0.47372 0.27893
 C89 C 0.89853 0.48321 0.29967
 H90 H 0.89421 0.47175 0.30969
 N91 N 0.89170 0.49940 0.26949
 C92 C 0.88246 0.51312 0.20798
 H93 H 0.86739 0.51761 0.20815
 C94 C 0.89288 0.51400 0.19047
 H95 H 0.88559 0.51918 0.17741
 C96 C 0.90983 0.49975 0.22434
 H97 H 0.91620 0.49370 0.23746
 C98 C 0.92078 0.50026 0.20706
 H99 H 0.93569 0.49501 0.20715
 Zn100 Zn 0.87532 0.50262 0.24722
 N101 N 0.89097 0.50605 0.22448
 C102 C 0.84389 0.52837 0.23869
 N103 N 0.85906 0.52494 0.25111
 C104 C 0.86329 0.53765 0.26599
 C105 C 0.85314 0.55522 0.26789
 C106 C 0.83337 0.54587 0.24001
 C107 C 0.86527 0.46679 0.22948
 C108 C 0.85596 0.44858 0.22778
 C109 C 0.83503 0.45747 0.25484
 C110 C 0.84474 0.47560 0.25599
 N111 N 0.85984 0.47970 0.24367
 H112 H 0.84017 0.51771 0.22749
 H113 H 0.87482 0.53451 0.27624
 H114 H 0.85703 0.56525 0.27964
 H115 H 0.82196 0.54873 0.22942
 H116 H 0.87731 0.47028 0.21985
 H117 H 0.86071 0.43843 0.21653
 H118 H 0.82359 0.45410 0.26528
 H119 H 0.84078 0.48610 0.26721
 C120 C 0.91223 0.50733 0.18979
 C121 C 0.91279 0.49757 0.30459
 C122 C 0.84093 0.44352 0.24084
 C123 C 0.83834 0.55982 0.25445
 C124 C 0.59450 0.51669 0.72944
 H125 H 0.59376 0.52835 0.74023
 C126 C 0.58339 0.51780 0.71227
 H127 H 0.57379 0.53017 0.71020
 C128 C 0.60818 0.48658 0.71899
 H129 H 0.61820 0.47465 0.72136
 C130 C 0.59752 0.48719 0.70160
 H131 H 0.59964 0.47568 0.69084
 N132 N 0.60649 0.50116 0.73253
 C133 C 0.61849 0.49513 0.79479
 H134 H 0.63408 0.49267 0.79375
 C135 C 0.60911 0.49331 0.81281
 H136 H 0.61754 0.48958 0.82569
 C137 C 0.58851 0.50285 0.77921
 H138 H 0.58051 0.50623 0.76603
 C139 C 0.57860 0.50161 0.79708
 H140 H 0.56299 0.50417 0.79759
 Zn141 Zn 0.62280 0.50066 0.75497
 N142 N 0.60815 0.49977 0.77846
 C143 C 0.63708 0.53675 0.76968
 N144 N 0.63856 0.52363 0.75470
 C145 C 0.64992 0.52748 0.73883
 C146 C 0.66052 0.54509 0.73768
 C147 C 0.64723 0.55458 0.76905
 C148 C 0.62792 0.46070 0.75831
 C149 C 0.63738 0.44267 0.75812
 C150 C 0.66748 0.45948 0.74979
 C151 C 0.65746 0.47730 0.75046
 N152 N 0.63795 0.47752 0.75438
 H153 H 0.62758 0.53368 0.78194
 H154 H 0.65052 0.51699 0.72691
 H155 H 0.66962 0.54775 0.72499
 H156 H 0.64527 0.56502 0.78087
 H157 H 0.61245 0.46133 0.76160
 H158 H 0.62905 0.42958 0.76165
 H159 H 0.68286 0.45955 0.74603
 H160 H 0.66523 0.49085 0.74760
 C161 C 0.58896 0.49664 0.81407
 C162 C 0.58490 0.50294 0.69799
 C163 C 0.65739 0.44179 0.75353
 C164 C 0.65912 0.55903 0.75286
 C165 C 0.27831 0.09918 0.98052
 H166 H 0.26870 0.10157 0.96818
 C167 C 0.29578 0.08891 0.97791
 H168 H 0.29947 0.08349 0.96346
 C169 C 0.28581 0.10464 1.01398
 H170 H 0.28220 0.11113 1.02794
 C171 C 0.30323 0.09431 1.01209
 H172 H 0.31247 0.09260 1.02484
 N173 N 0.27383 0.10708 0.99828
 C174 C 0.21233 0.11947 1.00738
 H175 H 0.21411 0.13417 1.01322
 C176 C 0.19396 0.11052 1.00758
 H177 H 0.18180 0.11837 1.01396
 C178 C 0.22632 0.09138 0.99254
 H179 H 0.23902 0.08404 0.98672
 C180 C 0.20806 0.08188 0.99228
 H181 H 0.20685 0.06731 0.98599
 Zn182 Zn 0.25201 0.12401 1.00059
 N183 N 0.22803 0.10992 0.99986
 C184 C 0.23585 0.14610 0.96981
 N185 N 0.25271 0.14198 0.97949
 C186 C 0.27028 0.14884 0.97301
 C187 C 0.27143 0.15959 0.95564
 C188 C 0.23629 0.15696 0.95257
 C189 C 0.24823 0.12624 1.04088
 C190 C 0.24772 0.13467 1.05948
 C191 C 0.25706 0.16569 1.04519
 C192 C 0.25725 0.15656 1.02678
 N193 N 0.25297 0.13716 1.02502
 H194 H 0.22202 0.14053 0.97511
 H195 H 0.28351 0.14520 0.98086
 H196 H 0.28565 0.16408 0.95023
 H197 H 0.22267 0.15993 0.94510
 H198 H 0.24447 0.11089 1.03898
 H199 H 0.24272 0.12523 1.07112
 H200 H 0.26152 0.18091 1.04566
 H201 H 0.26097 0.16497 1.01390
 C202 C 0.19153 0.09154 0.99979
 C203 C 0.30872 0.08669 0.99376
 C204 C 0.25224 0.15485 1.06229
 C205 C 0.25430 0.16340 0.94492
 C206 C 0.72498 0.40567 0.98592
 H207 H 0.73595 0.40873 0.97492
 C208 C 0.70732 0.41591 0.98574
 H209 H 0.70513 0.42724 0.97492
 C210 C 0.71418 0.38661 1.01279
 H211 H 0.71649 0.37468 1.02284
 C212 C 0.69634 0.39638 1.01306
 H213 H 0.68528 0.39181 1.02346
 N214 N 0.72812 0.39134 0.99936
 C215 C 0.79120 0.38051 0.99956
 H216 H 0.79070 0.36474 1.00084
 C217 C 0.80921 0.39018 1.00054
 H218 H 0.82239 0.38153 1.00158
 C219 C 0.77456 0.41077 0.99760
 H220 H 0.76104 0.41881 0.99709
 C221 C 0.79234 0.42110 0.99869
 H222 H 0.79221 0.43699 0.99884
 Zn223 Zn 0.75092 0.37541 0.99804
 N224 N 0.77432 0.39077 0.99780
 C225 C 0.76390 0.34711 0.96964
 N226 N 0.74917 0.35939 0.97498
 C227 C 0.73301 0.36128 0.96349
 C228 C 0.73169 0.35160 0.94550
 C229 C 0.76315 0.33707 0.95173
 C230 C 0.75341 0.37099 1.03781
 C231 C 0.75429 0.36182 1.05593
 C232 C 0.75407 0.33045 1.03929
 C233 C 0.75267 0.34036 1.02142
 N234 N 0.75228 0.36027 1.02107
 H235 H 0.77641 0.34525 0.97903
 H236 H 0.72110 0.37053 0.96806
 H237 H 0.71880 0.35357 0.93651
 H238 H 0.77531 0.32791 0.94746
 H239 H 0.75355 0.38686 1.03703
 H240 H 0.75584 0.37126 1.06862
 H241 H 0.75359 0.31460 1.03880
 H242 H 0.75180 0.33212 1.00787
 C243 C 0.81001 0.41076 1.00023
 C244 C 0.69262 0.41117 0.99934
 C245 C 0.75457 0.34109 1.05722
 C246 C 0.74707 0.33962 0.93921
 C247 C 0.22274 0.90087 0.48259
 H248 H 0.23224 0.90016 0.46996
 C249 C 0.20500 0.91089 0.48137
 H250 H 0.20110 0.91784 0.46771
 C251 C 0.21556 0.89112 0.51503
 H252 H 0.21928 0.88295 0.52797
 C253 C 0.19792 0.90125 0.51458
 H254 H 0.18876 0.90118 0.52750
 N255 N 0.22751 0.89091 0.49913
 C256 C 0.28974 0.87953 0.50366
 H257 H 0.28853 0.86475 0.50927
 C258 C 0.30791 0.88891 0.50342
 H259 H 0.32047 0.88123 0.50913
 C260 C 0.27451 0.90759 0.49037
 H261 H 0.26143 0.91486 0.48545
 C262 C 0.29254 0.91749 0.48965
 H263 H 0.29312 0.93223 0.48382
 Zn264 Zn 0.24982 0.87429 0.49905
 N265 N 0.27349 0.88886 0.49715
 C266 C 0.26405 0.84783 0.47027
 N267 N 0.24778 0.85677 0.47737
 C268 C 0.23018 0.85467 0.46822
 C269 C 0.22869 0.84424 0.45064
 C270 C 0.26318 0.83709 0.45278
 C271 C 0.25446 0.87124 0.53931
 C272 C 0.25548 0.86225 0.55755
 C273 C 0.25032 0.83083 0.54167
 C274 C 0.24909 0.84049 0.52368
 N275 N 0.25100 0.86036 0.52290
 H276 H 0.27788 0.84959 0.47776
 H277 H 0.21730 0.86148 0.47430
 H278 H 0.21465 0.84312 0.44332
 H279 H 0.27642 0.83072 0.44693
 H280 H 0.25625 0.88699 0.53818
 H281 H 0.25811 0.87116 0.57049
 H282 H 0.24859 0.81502 0.54220
 H283 H 0.24658 0.83215 0.51038
 C284 C 0.30959 0.90811 0.49621
 C285 C 0.19212 0.91088 0.49741
 C286 C 0.25334 0.84182 0.55889
 C287 C 0.24542 0.83565 0.44249
 C288 C 0.77421 0.59839 0.48304
 H289 H 0.76436 0.59948 0.47069
 C290 C 0.79193 0.58839 0.48101
 H291 H 0.79554 0.58187 0.46701
 C292 C 0.78210 0.60690 0.51578
 H293 H 0.77863 0.61454 0.52917
 C294 C 0.79973 0.59685 0.51450
 H295 H 0.80917 0.59646 0.52723
 N296 N 0.76977 0.60762 0.50016
 C297 C 0.70798 0.61922 0.50858
 H298 H 0.70960 0.63429 0.51343
 C299 C 0.68972 0.61009 0.50943
 H300 H 0.67751 0.61820 0.51534
 C301 C 0.72227 0.59041 0.49553
 H302 H 0.73504 0.58287 0.49013
 C303 C 0.70411 0.58072 0.49592
 H304 H 0.70304 0.56577 0.49053
 Zn305 Zn 0.74743 0.62402 0.50134
 N306 N 0.72378 0.60939 0.50166
 C307 C 0.73110 0.64253 0.46830
 N308 N 0.74771 0.64046 0.47906
 C309 C 0.76496 0.64854 0.47314
 C310 C 0.76610 0.65863 0.45538
 C311 C 0.73152 0.65270 0.45064
 C312 C 0.74495 0.62875 0.54157
 C313 C 0.74410 0.63849 0.55951
 C314 C 0.74876 0.66924 0.54259
 C315 C 0.74972 0.65883 0.52490
 N316 N 0.74788 0.63894 0.52476
 H317 H 0.71754 0.63596 0.47318
 H318 H 0.77801 0.64648 0.48185
 H319 H 0.78016 0.66419 0.45055
 H320 H 0.71807 0.65418 0.44241
 H321 H 0.74325 0.61295 0.54098
 H322 H 0.74220 0.62994 0.57270
 H323 H 0.74990 0.68510 0.54241
 H324 H 0.75165 0.66664 0.51128
 C325 C 0.68748 0.59065 0.50283
 C326 C 0.80514 0.58782 0.49681
 C327 C 0.74585 0.65904 0.56023
 C328 C 0.74927 0.66054 0.44368
 C329 C 0.02187 0.22486 0.10309
 H330 H 0.03531 0.23236 0.10710
 C331 C 0.02258 0.20710 0.09281
 H332 H 0.03662 0.20107 0.08876
 C333 C -0.01279 0.22322 0.10412
 H334 H -0.02650 0.22937 0.10897
 C335 C -0.01276 0.20559 0.09358
 H336 H -0.02652 0.19823 0.09040
 N337 N 0.00438 0.23230 0.10888
 C338 C 0.00419 0.29491 0.12233
 H339 H 0.00319 0.29432 0.13813
 C340 C 0.00347 0.31297 0.11292
 H341 H 0.00297 0.32594 0.12206
 C342 C 0.00674 0.27823 0.09202
 H343 H 0.00760 0.26455 0.08396
 C344 C 0.00598 0.29603 0.08191
 H345 H 0.00593 0.29538 0.06610
 Zn346 Zn 0.00421 0.25414 0.12606
 N347 N 0.00569 0.27800 0.11187
 C348 C 0.03875 0.26734 0.14583
 N349 N 0.02616 0.25195 0.14318
 C350 C 0.02996 0.23407 0.15112
 C351 C 0.04709 0.23109 0.16189
 C352 C 0.05579 0.26512 0.15687
 C353 C -0.03375 0.26699 0.13474
 C354 C -0.05181 0.26734 0.14415
 C355 C -0.04135 0.24034 0.16429
 C356 C -0.02331 0.24063 0.15458
 N357 N -0.01978 0.25396 0.14020
 H358 H 0.03601 0.28126 0.13899
 H359 H 0.02009 0.22187 0.14838
 H360 H 0.05015 0.21668 0.16772
 H361 H 0.06579 0.27743 0.15853
 H362 H -0.03113 0.27691 0.12274
 H363 H -0.06275 0.27771 0.13941
 H364 H -0.04392 0.22974 0.17578
 H365 H -0.01221 0.23015 0.15847
 C366 C 0.00399 0.31396 0.09227
 C367 C 0.00511 0.19712 0.08821
 C368 C -0.05580 0.25393 0.15915
 C369 C 0.06024 0.24675 0.16478
 C370 C 0.02035 0.78095 0.39181
 H371 H 0.03247 0.77524 0.38348
 C372 C 0.02264 0.79873 0.40185
 H373 H 0.03647 0.80655 0.40102
 C374 C -0.01217 0.77769 0.40333
 H375 H -0.02580 0.76965 0.40376
 C376 C -0.01046 0.79535 0.41371
 H377 H -0.02293 0.80073 0.42185
 N378 N 0.00292 0.77113 0.39214
 C379 C -0.00996 0.70970 0.38033
 H380 H -0.01553 0.71124 0.36559
 C381 C -0.01071 0.69149 0.38945
 H382 H -0.01730 0.67919 0.38172
 C383 C 0.00516 0.72412 0.40822
 H384 H 0.01150 0.73691 0.41530
 C385 C 0.00488 0.70603 0.41787
 H386 H 0.01119 0.70503 0.43237
 Zn387 Zn -0.00082 0.74901 0.37528
 N388 N -0.00204 0.72550 0.38972
 C389 C 0.03149 0.73095 0.35719
 N390 N 0.02049 0.74749 0.35750
 C391 C 0.02556 0.76343 0.34664
 C392 C 0.04298 0.76358 0.33594
 C393 C 0.04878 0.73033 0.34641
 C394 C -0.04131 0.74753 0.37236
 C395 C -0.05968 0.74749 0.36355
 C396 C -0.04412 0.75456 0.33267
 C397 C -0.02599 0.75454 0.34223
 N398 N -0.02493 0.75113 0.36175
 H399 H 0.02726 0.71838 0.36581
 H400 H 0.01663 0.77647 0.34722
 H401 H 0.04730 0.77687 0.32842
 H402 H 0.05731 0.71701 0.34654
 H403 H -0.04012 0.74420 0.38777
 H404 H -0.07201 0.74549 0.37321
 H405 H -0.04380 0.75640 0.31699
 H406 H -0.01276 0.75678 0.33387
 C407 C -0.00298 0.68936 0.40837
 C408 C 0.00695 0.80635 0.41261
 C409 C -0.06169 0.75079 0.34316
 C410 C 0.05513 0.74702 0.33612
 C411 C 0.52063 0.28150 0.88826
 H412 H 0.53174 0.27819 0.87756
 C413 C 0.52176 0.29917 0.89856
 H414 H 0.53402 0.30899 0.89596
 C415 C 0.49096 0.27311 0.90419
 H416 H 0.47877 0.26304 0.90591
 C417 C 0.49150 0.29073 0.91483
 H418 H 0.47962 0.29412 0.92473
 N419 N 0.50532 0.26894 0.89108
 C420 C 0.50246 0.20635 0.87755
 H421 H 0.50173 0.20757 0.86178
 C422 C 0.50204 0.18791 0.88622
 H423 H 0.50060 0.17510 0.87689
 C424 C 0.50431 0.22193 0.90859
 H425 H 0.50527 0.23528 0.91718
 C426 C 0.50433 0.20367 0.91793
 H427 H 0.50552 0.20320 0.93372
 Zn428 Zn 0.50285 0.24663 0.87459
 N429 N 0.50316 0.22287 0.88875
 C430 C 0.54180 0.24118 0.86626
 N431 N 0.52458 0.24577 0.85750
 C432 C 0.52362 0.24968 0.83800
 C433 C 0.54069 0.24971 0.82668
 C434 C 0.55908 0.24088 0.85552
 C435 C 0.46496 0.23432 0.86346
 C436 C 0.44709 0.23525 0.85372
 C437 C 0.45745 0.26592 0.83931
 C438 C 0.47528 0.26434 0.84928
 N439 N 0.47882 0.24852 0.86081
 H440 H 0.54211 0.23811 0.88179
 H441 H 0.50976 0.25300 0.83125
 H442 H 0.53982 0.25305 0.81122
 H443 H 0.57270 0.23769 0.86293
 H444 H 0.46754 0.22233 0.87334
 H445 H 0.43626 0.22382 0.85614
 H446 H 0.45493 0.27844 0.82996
 H447 H 0.48630 0.27572 0.84784
 C448 C 0.50302 0.18629 0.90670
 C449 C 0.50690 0.30418 0.91178
 C450 C 0.44319 0.25110 0.84135
 C451 C 0.55871 0.24536 0.83550
 C452 C 0.51577 0.71783 0.61391
 H453 H 0.52798 0.72147 0.62330
 C454 C 0.51509 0.69943 0.60495
 H455 H 0.52705 0.68936 0.60724
 C456 C 0.48522 0.72620 0.59993
 H457 H 0.47342 0.73658 0.59845
 C458 C 0.48398 0.70788 0.59060
 H459 H 0.47118 0.70426 0.58190
 N460 N 0.50096 0.73080 0.61133
 C461 C 0.50715 0.79413 0.61847
 H462 H 0.50999 0.79432 0.63406
 C463 C 0.50768 0.81159 0.60797
 H464 H 0.51083 0.82522 0.61561
 C465 C 0.49902 0.77608 0.58979
 H466 H 0.49571 0.76219 0.58279
 C467 C 0.49922 0.79330 0.57870
 H468 H 0.49612 0.79254 0.56316
 Zn469 Zn 0.50160 0.75463 0.62580
 N470 N 0.50268 0.77688 0.60936
 C471 C 0.54148 0.75822 0.63143
 N472 N 0.52451 0.75518 0.64136
 C473 C 0.52447 0.75204 0.66101
 C474 C 0.54216 0.75108 0.67130
 C475 C 0.55940 0.75748 0.64109
 C476 C 0.46658 0.77146 0.63947
 C477 C 0.44881 0.77197 0.64944
 C478 C 0.45590 0.74006 0.66285
 C479 C 0.47365 0.74021 0.65267
 N480 N 0.47862 0.75576 0.64123
 H481 H 0.54106 0.76081 0.61582
 H482 H 0.51080 0.74978 0.66863
 H483 H 0.54194 0.74792 0.68682
 H484 H 0.57271 0.75989 0.63284
 H485 H 0.47047 0.78347 0.62995
 H486 H 0.43927 0.78441 0.64744
 H487 H 0.45212 0.72755 0.67184
 H488 H 0.48332 0.72774 0.65356
 C489 C 0.50353 0.81135 0.58785
 C490 C 0.49896 0.69414 0.59331
 C491 C 0.44318 0.75608 0.66120
 C492 C 0.55996 0.75349 0.66123
 C493 C 0.90326 0.98749 0.72293
 H494 H 0.90502 0.97553 0.73313
 C495 C 0.91273 0.98721 0.70574
 H496 H 0.92182 0.97472 0.70239
 C497 C 0.88732 1.01747 0.71535
 H498 H 0.87712 1.02899 0.71871
 C499 C 0.89731 1.01777 0.69631
 H500 H 0.89480 1.03036 0.68709
 N501 N 0.89026 1.00330 0.72768
 C502 C 0.88096 1.01017 0.79132
 H503 H 0.86567 1.01408 0.79051
 C504 C 0.89008 1.01020 0.80859
 H505 H 0.88162 1.01379 0.82147
 C506 C 0.90937 0.99930 0.77432
 H507 H 0.91669 0.99483 0.76106
 C508 C 0.92002 0.99881 0.79317
 H509 H 0.93527 0.99468 0.79285
 Zn510 Zn 0.87526 1.00296 0.75110
 N511 N 0.89106 1.00437 0.77384
 C512 C 0.86305 0.96727 0.76758
 N513 N 0.86058 0.97924 0.75191
 C514 C 0.84902 0.97375 0.73656
 C515 C 0.83950 0.95546 0.73659
 C516 C 0.85391 0.94893 0.76818
 C517 C 0.86861 1.04260 0.75518
 C518 C 0.85857 1.06028 0.75490
 C519 C 0.82886 1.04231 0.74723
 C520 C 0.83951 1.02484 0.74784
 N521 N 0.85908 1.02537 0.75152
 H522 H 0.87242 0.97169 0.77957
 H523 H 0.84757 0.98338 0.72410
 H524 H 0.83069 0.95110 0.72410
 H525 H 0.85612 0.93966 0.78082
 H526 H 0.88420 1.04258 0.75795
 H527 H 0.86657 1.07385 0.75740
 H528 H 0.81333 1.04177 0.74409
 H529 H 0.83221 1.01097 0.74506
 C530 C 0.91089 1.00392 0.81000
 C531 C 0.90955 1.00317 0.69115
 C532 C 0.83847 1.06031 0.75073
 C533 C 0.84215 0.94269 0.75247
 C534 C 0.40195 0.48296 0.22763
 H535 H 0.40338 0.47103 0.23792
 C536 C 0.41196 0.48232 0.20975
 H537 H 0.42111 0.46985 0.20638
 C538 C 0.38747 0.51319 0.21900
 H539 H 0.37765 0.52505 0.22235
 C540 C 0.39709 0.51311 0.20104
 H541 H 0.39485 0.52517 0.19103
 N542 N 0.38998 0.49826 0.23189
 C543 C 0.38043 0.50372 0.29470
 H544 H 0.36487 0.50645 0.29407
 C545 C 0.39003 0.50397 0.31268
 H546 H 0.38172 0.50684 0.32586
 C547 C 0.40990 0.49588 0.27823
 H548 H 0.41752 0.49270 0.26475
 C549 C 0.42009 0.49580 0.29602
 H550 H 0.43560 0.49267 0.29611
 Zn551 Zn 0.37474 0.49819 0.25510
 N552 N 0.39035 0.49950 0.27798
 C553 C 0.36204 0.46240 0.27118
 N554 N 0.35972 0.47466 0.25570
 C555 C 0.34802 0.46960 0.24032
 C556 C 0.33811 0.45151 0.24015
 C557 C 0.35250 0.44427 0.27159
 C558 C 0.36847 0.53796 0.25891
 C559 C 0.35852 0.55570 0.25860
 C560 C 0.32869 0.53786 0.25108
 C561 C 0.33924 0.52035 0.25172
 N562 N 0.35883 0.52078 0.25531
 H563 H 0.37164 0.46640 0.28312
 H564 H 0.34672 0.47941 0.22800
 H565 H 0.32919 0.44750 0.22763
 H566 H 0.35458 0.43477 0.28408
 H567 H 0.38406 0.53785 0.26168
 H568 H 0.36659 0.56924 0.26105
 H569 H 0.31314 0.53739 0.24804
 H570 H 0.33183 0.50652 0.24906
 C571 C 0.41007 0.49978 0.31354
 C572 C 0.40934 0.49744 0.19609
 C573 C 0.33840 0.55583 0.25449
 C574 C 0.34053 0.43850 0.25586
 C575 C 0.59783 0.98540 0.27516
 H576 H 0.59720 0.97244 0.26595
 C577 C 0.58836 0.98568 0.29235
 H578 H 0.57976 0.97294 0.29638
 C579 C 0.60977 1.01807 0.27957
 H580 H 0.61853 1.03047 0.27504
 C581 C 0.59936 1.01921 0.29835
 H582 H 0.60144 1.03246 0.30691
 N583 N 0.60886 1.00225 0.26884
 C584 C 0.61557 1.00490 0.20573
 H585 H 0.63116 1.00777 0.20526
 C586 C 0.60471 1.00489 0.18848
 H587 H 0.61208 1.00764 0.17472
 C588 C 0.58721 0.99738 0.22429
 H589 H 0.58051 0.99451 0.23832
 C590 C 0.57576 0.99702 0.20728
 H591 H 0.56022 0.99397 0.20832
 Zn592 Zn 0.62345 1.00123 0.24524
 N593 N 0.60677 1.00110 0.22314
 C594 C 0.63600 0.96507 0.22996
 N595 N 0.63854 0.97798 0.24504
 C596 C 0.65056 0.97378 0.26032
 C597 C 0.66056 0.95593 0.26082
 C598 C 0.64564 0.94714 0.22989
 C599 C 0.62952 1.04084 0.23925
 C600 C 0.63913 1.05892 0.23964
 C601 C 0.66905 1.04229 0.24796
 C602 C 0.65875 1.02444 0.24744
 N603 N 0.63924 1.02413 0.24361
 H604 H 0.62619 0.96843 0.21808
 H605 H 0.65203 0.98410 0.27234
 H606 H 0.66974 0.95261 0.27328
 H607 H 0.64340 0.93713 0.21771
 H608 H 0.61404 1.04015 0.23596
 H609 H 0.63076 1.07172 0.23570
 H610 H 0.68431 1.04197 0.25213
 H611 H 0.66625 1.01095 0.25076
 C612 C 0.58455 1.00085 0.18910
 C613 C 0.58902 1.00365 0.30502
 C614 C 0.65917 1.06013 0.24458
 C615 C 0.65794 0.94225 0.24554
 C616 C 0.09750 0.48721 0.77527
 H617 H 0.09652 0.47462 0.76558
 C618 C 0.08736 0.48720 0.79306
 H619 H 0.07835 0.47464 0.79687
 C620 C 0.11071 0.51874 0.78227
 H621 H 0.12016 0.53085 0.77832
 C622 C 0.10077 0.51939 0.80006
 H623 H 0.10275 0.53203 0.80956
 N624 N 0.10887 0.50287 0.77021
 C625 C 0.11676 0.50581 0.70707
 H626 H 0.13241 0.50837 0.70697
 C627 C 0.10636 0.50562 0.68953
 H628 H 0.11415 0.50794 0.67593
 C629 C 0.08781 0.49908 0.72500
 H630 H 0.08068 0.49655 0.73888
 C631 C 0.07681 0.49859 0.70769
 H632 H 0.06121 0.49581 0.70839
 Zn633 Zn 0.12372 0.50206 0.74678
 N634 N 0.10746 0.50239 0.72432
 C635 C 0.13596 0.46575 0.73142
 N636 N 0.13851 0.47860 0.74654
 C637 C 0.15045 0.47427 0.76186
 C638 C 0.16046 0.45643 0.76227
 C639 C 0.14560 0.44781 0.73127
 C640 C 0.13064 0.54178 0.74163
 C641 C 0.14099 0.55948 0.74134
 C642 C 0.17051 0.54179 0.74899
 C643 C 0.15958 0.52432 0.74898
 N644 N 0.13995 0.52470 0.74563
 H645 H 0.12617 0.46918 0.71954
 H646 H 0.15192 0.48453 0.77392
 H647 H 0.16963 0.45305 0.77472
 H648 H 0.14338 0.43787 0.71902
 H649 H 0.11502 0.54165 0.73904
 H650 H 0.13318 0.57296 0.73862
 H651 H 0.18608 0.54133 0.75186
 H652 H 0.16674 0.51057 0.75191
 C653 C 0.08614 0.50184 0.68966
 C654 C 0.08896 0.50347 0.80571
 C655 C 0.16115 0.55967 0.74524
 C656 C 0.15792 0.44286 0.74689
 C657 C 0.78101 0.89468 0.01943
 H658 H 0.77546 0.88846 0.03288
 C659 C 0.79856 0.90537 0.01966
 H660 H 0.80621 0.90743 0.03341
 C661 C 0.77762 0.89976 -0.01466
 H662 H 0.76956 0.89739 -0.02807
 C663 C 0.79517 0.91037 -0.01515
 H664 H 0.80044 0.91576 -0.02907
 N665 N 0.77111 0.89177 0.00236
 C666 C 0.70912 0.87922 -0.00481
 H667 H 0.71008 0.86377 -0.00840
 C668 C 0.69096 0.88833 -0.00455
 H669 H 0.67803 0.87985 -0.00838
 C670 C 0.72495 0.90887 0.00469
 H671 H 0.73827 0.91663 0.00862
 C672 C 0.70699 0.91860 0.00519
 H673 H 0.70661 0.93390 0.00955
 Zn674 Zn 0.74891 0.87483 0.00166
 N675 N 0.72559 0.88946 0.00004
 C676 C 0.73195 0.86162 0.03679
 N677 N 0.74790 0.85966 0.02504
 C678 C 0.76327 0.84836 0.03056
 C679 C 0.76299 0.83864 0.04859
 C680 C 0.73108 0.85225 0.05484
 C681 C 0.74423 0.86762 -0.03801
 C682 C 0.74504 0.85763 -0.05581
 C683 C 0.75821 0.82960 -0.03893
 C684 C 0.75704 0.84016 -0.02132
 N685 N 0.75030 0.85891 -0.02122
 H686 H 0.71997 0.87085 0.03247
 H687 H 0.77604 0.84740 0.02127
 H688 H 0.77555 0.83013 0.05299
 H689 H 0.71824 0.85409 0.06392
 H690 H 0.73882 0.88249 -0.03760
 H691 H 0.74047 0.86506 -0.06901
 H692 H 0.76360 0.81470 -0.03882
 H693 H 0.76164 0.83339 -0.00784
 C694 C 0.68965 0.90818 0.00086
 C695 C 0.80611 0.91304 0.00211
 C696 C 0.75214 0.83838 -0.05648
 C697 C 0.74682 0.84078 0.06110
 C698 C 0.27277 0.40071 0.51623
 H699 H 0.26262 0.40236 0.52826
 C700 C 0.29087 0.41052 0.51670
 H701 H 0.29453 0.41976 0.52915
 C702 C 0.28081 0.38587 0.48588
 H703 H 0.27713 0.37600 0.47401
 C704 C 0.29898 0.39530 0.48579
 H705 H 0.30881 0.39284 0.47362
 N706 N 0.26811 0.38864 0.50096
 C707 C 0.20504 0.37973 0.49603
 H708 H 0.20529 0.36408 0.49330
 C709 C 0.18729 0.38963 0.49588
 H710 H 0.17392 0.38144 0.49309
 C711 C 0.22222 0.40915 0.50372
 H712 H 0.23588 0.41665 0.50679
 C713 C 0.20468 0.41965 0.50389
 H714 H 0.20499 0.43526 0.50697
 Zn715 Zn 0.24459 0.37357 0.50123
 N716 N 0.22201 0.38949 0.50010
 C717 C 0.22841 0.36144 0.53710
 N718 N 0.24384 0.35889 0.52480
 C719 C 0.25915 0.34733 0.52989
 C720 C 0.25931 0.33784 0.54804
 C721 C 0.22799 0.35230 0.55530
 C722 C 0.24024 0.36665 0.46159
 C723 C 0.24082 0.35652 0.44384
 C724 C 0.24911 0.32705 0.46145
 C725 C 0.24820 0.33776 0.47898
 N726 N 0.24411 0.35727 0.47867
 H727 H 0.21651 0.37092 0.53308
 H728 H 0.27146 0.34587 0.52006
 H729 H 0.27181 0.32906 0.55206
 H730 H 0.21554 0.35457 0.56481
 H731 H 0.23717 0.38220 0.46176
 H732 H 0.23821 0.36443 0.43039
 H733 H 0.25261 0.31158 0.46183
 H734 H 0.25115 0.33056 0.49272
 C735 C 0.18691 0.40982 0.50002
 C736 C 0.30433 0.40764 0.50143
 C737 C 0.24551 0.33651 0.44357
 C738 C 0.24367 0.34051 0.56111
 C739 C 0.22431 0.59736 0.01067
 H740 H 0.23411 0.59502 0.02287
 C741 C 0.20616 0.58769 0.01003
 H742 H 0.20234 0.57826 0.02215
 C743 C 0.21724 0.61376 -0.01890
 H744 H 0.22140 0.62405 -0.03013
 C745 C 0.19898 0.60461 -0.02006
 H746 H 0.19010 0.60762 -0.03278
 N747 N 0.22954 0.61003 -0.00374
 C748 C 0.29299 0.61677 -0.00554
 H749 H 0.29341 0.63244 -0.00802
 C750 C 0.31038 0.60637 -0.00419
 H751 H 0.32415 0.61412 -0.00604
 C752 C 0.27440 0.58780 -0.00001
 H753 H 0.26034 0.58068 0.00178
 C754 C 0.29153 0.57677 0.00150
 H755 H 0.29049 0.56123 0.00460
 Zn756 Zn 0.25351 0.62427 -0.00236
 N757 N 0.27549 0.60752 -0.00296
 C758 C 0.26879 0.63526 0.03438
 N759 N 0.25404 0.63874 0.02149
 C760 C 0.23926 0.65120 0.02611
 C761 C 0.23903 0.66076 0.04432
 C762 C 0.26913 0.64444 0.05264
 C763 C 0.25882 0.63114 -0.04173
 C764 C 0.25827 0.64118 -0.05942
 C765 C 0.25118 0.67100 -0.04159
 C766 C 0.25195 0.66035 -0.02412
 N767 N 0.25526 0.64068 -0.02460
 H768 H 0.28021 0.62503 0.03077
 H769 H 0.22744 0.65340 0.01582
 H770 H 0.22698 0.67033 0.04793
 H771 H 0.28108 0.64146 0.06258
 H772 H 0.26147 0.61551 -0.04167
 H773 H 0.26094 0.63319 -0.07289
 H774 H 0.24777 0.68649 -0.04107
 H775 H 0.24926 0.66767 -0.01033
 C776 C 0.30984 0.58619 -0.00015
 C777 C 0.19289 0.59137 -0.00541
 C778 C 0.25392 0.66128 -0.05958
 C779 C 0.25403 0.65722 0.05793
 C780 C 0.72388 0.09897 0.51009
 H781 H 0.73388 0.09715 0.52223
 C782 C 0.70568 0.08935 0.51017
 H783 H 0.70177 0.08010 0.52243
 C784 C 0.71636 0.11400 0.47983
 H785 H 0.72027 0.12388 0.46816
 C786 C 0.69811 0.10476 0.47935
 H787 H 0.68847 0.10735 0.46705
 N788 N 0.72888 0.11100 0.49502
 C789 C 0.79222 0.11834 0.49139
 H790 H 0.79233 0.13390 0.48829
 C791 C 0.80980 0.10823 0.49253
 H792 H 0.82338 0.11608 0.48988
 C793 C 0.77425 0.08939 0.49873
 H794 H 0.76036 0.08219 0.50133
 C795 C 0.79160 0.07866 0.50005
 H796 H 0.79090 0.06325 0.50381
 Zn797 Zn 0.75278 0.12548 0.49557
 N798 N 0.77495 0.10898 0.49491
 C799 C 0.76888 0.13776 0.53156
 N800 N 0.75369 0.14058 0.51902
 C801 C 0.73883 0.15294 0.52370
 C802 C 0.73896 0.16303 0.54163
 C803 C 0.76958 0.14750 0.54953
 C804 C 0.75713 0.13162 0.45590
 C805 C 0.75650 0.14146 0.43809
 C806 C 0.75011 0.17161 0.45566
 C807 C 0.75093 0.16115 0.47324
 N808 N 0.75396 0.14143 0.47296
 H809 H 0.78039 0.12765 0.52791
 H810 H 0.72670 0.15464 0.51368
 H811 H 0.72684 0.17249 0.54531
 H812 H 0.78188 0.14503 0.55920
 H813 H 0.75963 0.11597 0.45613
 H814 H 0.75892 0.13328 0.42469
 H815 H 0.74699 0.18716 0.45604
 H816 H 0.74859 0.16869 0.48697
 C817 C 0.80971 0.08823 0.49737
 C818 C 0.69246 0.09239 0.49472
 C819 C 0.75252 0.16164 0.43775
 C820 C 0.75441 0.16016 0.55489
 C821 C 0.98736 0.72411 0.90203
 H822 H 0.97443 0.73315 0.90272
 C823 C 0.98779 0.70698 0.91157
 H824 H 0.97527 0.70291 0.92037
 C825 C 1.01974 0.72008 0.88989
 H826 H 1.03192 0.72473 0.88096
 C827 C 1.02105 0.70132 0.90041
 H828 H 1.03421 0.69290 0.89825
 N829 N 1.00386 0.73047 0.89060
 C830 C 1.00520 0.79452 0.88055
 H831 H 1.01057 0.79413 0.86566
 C832 C 1.00330 0.81172 0.88974
 H833 H 1.00769 0.82486 0.88201
 C834 C 0.99553 0.77642 0.90873
 H835 H 0.99229 0.76272 0.91596
 C836 C 0.99341 0.79514 0.91962
 H837 H 0.98808 0.79434 0.93449
 Zn838 Zn 1.00218 0.75336 0.87485
 N839 N 1.00057 0.77649 0.89035
 C840 C 0.97309 0.76840 0.84997
 N841 N 0.97965 0.75173 0.85857
 C842 C 0.96970 0.73445 0.85653
 C843 C 0.95202 0.73371 0.84623
 C844 C 0.95542 0.76837 0.83973
 C845 C 1.04161 0.76179 0.86833
 C846 C 1.05929 0.76216 0.85818
 C847 C 1.04244 0.74935 0.82965
 C848 C 1.02500 0.74933 0.84035
 N849 N 1.02499 0.75530 0.85938
 H850 H 0.98122 0.78194 0.85152
 H851 H 0.97534 0.72124 0.86309
 H852 H 0.94432 0.71982 0.84487
 H853 H 0.95013 0.78207 0.83386
 H854 H 1.04119 0.76623 0.88355
 H855 H 1.07246 0.76687 0.86575
 H856 H 1.04230 0.74439 0.81456
 H857 H 1.01158 0.74412 0.83362
 C858 C 0.99656 0.81247 0.91049
 C859 C 1.00559 0.69438 0.91066
 C860 C 1.05991 0.75569 0.83864
 C861 C 0.94443 0.75093 0.83800
 C862 C 0.48892 0.22445 0.39954
 H863 H 0.47652 0.23412 0.40100
 C864 C 0.48885 0.20628 0.40902
 H865 H 0.47632 0.20205 0.41778
 C866 C 0.51989 0.21777 0.38558
 H867 H 0.53187 0.22207 0.37621
 C868 C 0.52040 0.19953 0.39470
 H869 H 0.53298 0.19022 0.39251
 N870 N 0.50432 0.22985 0.38811
 C871 C 0.50771 0.29341 0.38203
 H872 H 0.51064 0.29388 0.36647
 C873 C 0.50721 0.31079 0.39284
 H874 H 0.50968 0.32461 0.38545
 C875 C 0.50021 0.27476 0.41029
 H876 H 0.49748 0.26068 0.41700
 C877 C 0.49942 0.29188 0.42168
 H878 H 0.49620 0.29082 0.43716
 Zn879 Zn 0.50360 0.25371 0.37392
 N880 N 0.50399 0.27589 0.39077
 C881 C 0.46794 0.26954 0.36074
 N882 N 0.48024 0.25403 0.35887
 C883 C 0.47545 0.23833 0.34740
 C884 C 0.45766 0.23786 0.33721
 C885 C 0.45015 0.26974 0.35075
 C886 C 0.54323 0.25950 0.36718
 C887 C 0.56080 0.25996 0.35685
 C888 C 0.54289 0.25203 0.32728
 C889 C 0.52556 0.25190 0.33819
 N890 N 0.52611 0.25532 0.35783
 H891 H 0.47167 0.28169 0.37026
 H892 H 0.48532 0.22603 0.34641
 H893 H 0.45404 0.22525 0.32817
 H894 H 0.44044 0.28207 0.35277
 H895 H 0.54324 0.26209 0.38282
 H896 H 0.57431 0.26283 0.36469
 H897 H 0.54230 0.24908 0.31170
 H898 H 0.51179 0.24873 0.33102
 C899 C 0.50283 0.31020 0.41290
 C900 C 0.50468 0.19348 0.40647
 C901 C 0.56081 0.25600 0.33667
 C902 C 0.44474 0.25373 0.33888
 C903 C 0.98719 0.27684 0.59939
 H904 H 0.97557 0.26614 0.59731
 C905 C 0.98666 0.29471 0.58935
 H906 H 0.97429 0.29737 0.57986
 C907 C 1.01632 0.28654 0.61557
 H908 H 1.02778 0.28356 0.62599
 C909 C 1.01629 0.30457 0.60609
 H910 H 1.02843 0.31446 0.60893
 N911 N 1.00197 0.27304 0.61211
 C912 C 1.00645 0.20982 0.62098
 H913 H 1.00934 0.21037 0.63655
 C914 C 1.00577 0.19179 0.61131
 H915 H 1.00852 0.17854 0.61952
 C916 C 0.99944 0.22659 0.59151
 H917 H 0.99690 0.24019 0.58389
 C918 C 0.99855 0.20878 0.58121
 H919 H 0.99511 0.20885 0.56574
 Zn920 Zn 1.00212 0.24956 0.62702
 N921 N 1.00288 0.22671 0.61114
 C922 C 0.96655 0.23326 0.64030
 N923 N 0.97904 0.24879 0.64242
 C924 C 0.97452 0.26423 0.65424
 C925 C 0.95680 0.26440 0.66451
 C926 C 0.94883 0.23276 0.65035
 C927 C 1.04194 0.24725 0.63241
 C928 C 1.05995 0.24838 0.64190
 C929 C 1.04294 0.25308 0.67251
 C930 C 1.02516 0.25191 0.66232
 N931 N 1.02505 0.24944 0.64257
 H932 H 0.97001 0.22137 0.63045
 H933 H 0.98453 0.27657 0.65542
 H934 H 0.95336 0.27682 0.67381
 H935 H 0.93895 0.22044 0.64808
 H936 H 1.04139 0.24496 0.61673
 H937 H 1.07290 0.24606 0.63315
 H938 H 1.04238 0.25602 0.68806
 H939 H 1.01152 0.25349 0.67014
 C940 C 1.00135 0.19103 0.59124
 C941 C 1.00124 0.30918 0.59277
 C942 C 1.06089 0.25177 0.66229
 C943 C 0.94367 0.24850 0.66256
 C944 C 0.48128 0.78223 0.11221
 H945 H 0.46961 0.77918 0.12238
 C946 C 0.48091 0.79963 0.10150
 H947 H 0.46913 0.80986 0.10402
 C948 C 0.51094 0.77298 0.09703
 H949 H 0.52259 0.76253 0.09524
 C950 C 0.51104 0.79010 0.08587
 H951 H 0.52279 0.79251 0.07551
 N952 N 0.49647 0.76957 0.11029
 C953 C 0.50600 0.70776 0.12196
 H954 H 0.51040 0.70886 0.13714
 C955 C 0.50629 0.68962 0.11243
 H956 H 0.51086 0.67678 0.12045
 C957 C 0.49389 0.72316 0.09339
 H958 H 0.48887 0.73629 0.08618
 C959 C 0.49387 0.70524 0.08330
 H960 H 0.48907 0.70474 0.06819
 Zn961 Zn 0.49857 0.74748 0.12719
 N962 N 0.49978 0.72402 0.11241
 C963 C 0.46439 0.72994 0.14242
 N964 N 0.47634 0.74596 0.14402
 C965 C 0.47191 0.76097 0.15645
 C966 C 0.45465 0.76043 0.16743
 C967 C 0.44711 0.72874 0.15319
 C968 C 0.53909 0.74646 0.13150
 C969 C 0.55724 0.74818 0.14070
 C970 C 0.54068 0.75606 0.17089
 C971 C 0.52277 0.75412 0.16109
 N972 N 0.52230 0.74973 0.14163
 H973 H 0.46789 0.71825 0.13232
 H974 H 0.48144 0.77370 0.15734
 H975 H 0.45121 0.77264 0.17700
 H976 H 0.43755 0.71614 0.15117
 H977 H 0.53841 0.74219 0.11627
 H978 H 0.57036 0.74527 0.13234
 H979 H 0.54076 0.76000 0.18627
 H980 H 0.50934 0.75624 0.16908
 C981 C 0.50004 0.68816 0.09289
 C982 C 0.49613 0.80397 0.08836
 C983 C 0.55825 0.75325 0.16062
 C984 C 0.44190 0.74423 0.16570
 O985 O 0.03653 1.00045 1.04434
 O986 O 0.03967 0.97010 1.02976
 O987 O 0.04198 1.04055 0.99572
 O988 O 0.02616 1.04755 0.96833
 O989 O -0.00442 1.04733 1.03894
 O990 O -0.03528 1.03129 1.04319
 O991 O -0.01162 0.98998 0.94608
 O992 O 0.01989 1.00097 0.94506
 O993 O -0.01463 0.94795 0.99122
 O994 O -0.00510 0.94765 1.02568
 O995 O -0.05694 0.99261 0.98949
 O996 O -0.05796 1.02641 0.99716
 O997 O -0.03894 1.00466 0.95804
 O998 O -0.04278 1.03791 0.97486
 O999 O -0.04508 0.96548 1.00444
 O1000 O -0.02805 0.96201 1.03669
 O1001 O -0.00008 0.95972 0.96377
 O1002 O 0.03332 0.97451 0.96358
 O1003 O 0.00921 1.01491 1.05655
 O1004 O -0.02494 1.00618 1.05692
 O1005 O 0.01006 1.05903 1.01139
 O1006 O -0.00133 1.05768 0.97682
 O1007 O 0.05373 1.01441 1.01247
 O1008 O 0.05256 0.97998 1.00069
 Zr1009 Zr 0.02952 0.99523 1.01483
 O1010 O 0.01220 0.97602 0.99771
 Zr1011 Zr 0.01191 1.03459 0.99253
 O1012 O -0.00553 1.01696 0.97401
 Zr1013 Zr -0.00983 1.01752 1.03241
 O1014 O -0.02879 0.99959 1.01560
 Zr1015 Zr 0.00684 0.98908 0.97054
 O1016 O 0.02577 1.00764 0.98688
 Zr1017 Zr -0.01557 0.97234 1.01028
 O1018 O 0.00259 0.98961 1.02882
 Zr1019 Zr -0.03260 1.01160 0.98756
 O1020 O -0.01583 1.03100 1.00542
 O1021 O 0.01739 1.02271 1.01990
 O1022 O -0.02076 0.98395 0.98262
 C1023 C 0.02646 1.00772 1.05848
 C1024 C 0.05593 1.03104 1.00389
 C1025 C 0.00306 1.06128 1.02870
 C1026 C -0.02900 0.99675 0.94411
 C1027 C -0.00803 0.94584 0.97372
 C1028 C -0.05899 0.97528 0.99658
 H1029 H 0.01907 0.96339 0.99611
 H1030 H -0.04137 0.99817 1.02260
 H1031 H 0.02596 1.03120 1.02809
 H1032 H -0.00695 1.02358 0.96125
 H1033 H 0.03234 1.00725 0.94926
 H1034 H 0.02438 1.03840 0.95718
 H1035 H -0.03938 0.97039 1.03985
 H1036 H -0.01985 0.99280 1.05910
 H1037 H 0.03157 0.96784 0.95074
 H1038 H 0.06479 0.98191 1.00833
 H1039 H -0.05994 1.02300 1.01108
 H1040 H -0.03979 1.04025 1.03277
 H1041 H 0.02858 0.96509 1.03765
 H1042 H 0.00761 0.94395 1.01987
 H1043 H -0.01338 1.06126 0.98399
 H1044 H -0.03512 1.04032 0.96282
 O1045 O 0.53327 0.49789 0.54994
 O1046 O 0.53737 0.46775 0.53523
 O1047 O 0.53829 0.53822 0.50123
 O1048 O 0.52239 0.54516 0.47392
 O1049 O 0.49052 0.54388 0.54386
 O1050 O 0.46066 0.52649 0.54837
 O1051 O 0.48630 0.48662 0.45111
 O1052 O 0.51757 0.49854 0.45045
 O1053 O 0.48423 0.44433 0.49610
 O1054 O 0.49318 0.44412 0.53056
 O1055 O 0.44068 0.48784 0.49389
 O1056 O 0.43873 0.52176 0.50200
 O1057 O 0.45864 0.50082 0.46281
 O1058 O 0.45357 0.53358 0.47978
 O1059 O 0.45291 0.46119 0.50933
 O1060 O 0.46994 0.45786 0.54150
 O1061 O 0.49845 0.45671 0.46873
 O1062 O 0.53148 0.47228 0.46893
 O1063 O 0.50584 0.51257 0.56172
 O1064 O 0.47207 0.50172 0.56199
 O1065 O 0.50583 0.55595 0.51694
 O1066 O 0.49465 0.55451 0.48228
 O1067 O 0.55050 0.51244 0.51820
 O1068 O 0.55028 0.47803 0.50635
 Zr1069 Zr 0.52673 0.49267 0.52029
 O1070 O 0.51007 0.47314 0.50291
 Zr1071 Zr 0.50835 0.53166 0.49795
 O1072 O 0.49151 0.51370 0.47920
 Zr1073 Zr 0.48667 0.51385 0.53754
 O1074 O 0.46833 0.49553 0.52048
 Zr1075 Zr 0.50460 0.48616 0.47573
 O1076 O 0.52291 0.50509 0.49235
 Zr1077 Zr 0.48229 0.46865 0.51521
 O1078 O 0.49984 0.48629 0.53400
 Zr1079 Zr 0.46446 0.50756 0.49247
 O1080 O 0.48058 0.52729 0.51055
 O1081 O 0.51387 0.51983 0.52531
 O1082 O 0.47702 0.48023 0.48754
 C1083 C 0.52313 0.50551 0.56386
 C1084 C 0.55240 0.52904 0.50951
 C1085 C 0.49805 0.55803 0.53393
 C1086 C 0.46884 0.49312 0.44895
 C1087 C 0.49098 0.44254 0.47862
 C1088 C 0.43887 0.47057 0.50119
 H1089 H 0.51728 0.46070 0.50132
 H1090 H 0.45573 0.49376 0.52737
 H1091 H 0.52213 0.52858 0.53355
 H1092 H 0.49005 0.52034 0.46645
 H1093 H 0.52984 0.50506 0.45479
 H1094 H 0.52106 0.53597 0.46275
 H1095 H 0.45865 0.46622 0.54486
 H1096 H 0.47803 0.48875 0.56437
 H1097 H 0.53002 0.46567 0.45603
 H1098 H 0.56240 0.48025 0.51409
 H1099 H 0.43622 0.51755 0.51561
 H1100 H 0.45557 0.53496 0.53781
 H1101 H 0.52636 0.46247 0.54306
 H1102 H 0.50616 0.44095 0.52506
 H1103 H 0.48246 0.55773 0.48937
 H1104 H 0.46154 0.53652 0.46805
 O1105 O 0.45779 -0.03714 0.49144
 O1106 O 0.47334 -0.04078 0.46189
 O1107 O 0.50474 -0.04132 0.53361
 O1108 O 0.53251 -0.02563 0.54058
 O1109 O 0.46220 0.00537 0.53865
 O1110 O 0.45750 0.03530 0.52195
 O1111 O 0.55598 0.01247 0.48398
 O1112 O 0.55713 -0.01887 0.49538
 O1113 O 0.51188 0.01389 0.44103
 O1114 O 0.47755 0.00399 0.43962
 O1115 O 0.51261 0.05701 0.48528
 O1116 O 0.50363 0.05843 0.51899
 O1117 O 0.54358 0.03963 0.49880
 O1118 O 0.52585 0.04397 0.53103
 O1119 O 0.49792 0.04463 0.45803
 O1120 O 0.46606 0.02700 0.45349
 O1121 O 0.53901 -0.00064 0.45333
 O1122 O 0.53928 -0.03349 0.46874
 O1123 O 0.44523 -0.01005 0.50634
 O1124 O 0.44474 0.02398 0.49653
 O1125 O 0.48921 -0.00919 0.55114
 O1126 O 0.52364 0.00232 0.55089
 O1127 O 0.48952 -0.05390 0.50668
 O1128 O 0.50213 -0.05306 0.47270
 Zr1129 Zr 0.48745 -0.02993 0.48742
 O1130 O 0.50492 -0.01259 0.46883
 Zr1131 Zr 0.50859 -0.01138 0.52732
 O1132 O 0.52746 0.00612 0.51031
 Zr1133 Zr 0.46908 0.00967 0.50897
 O1134 O 0.48622 0.02866 0.49164
 Zr1135 Zr 0.53176 -0.00663 0.48263
 O1136 O 0.51504 -0.02558 0.50066
 Zr1137 Zr 0.49226 0.01502 0.46471
 O1138 O 0.47343 -0.00321 0.48132
 Zr1139 Zr 0.51390 0.03301 0.50448
 O1140 O 0.49567 0.01623 0.52326
 O1141 O 0.48158 -0.01739 0.51462
 O1142 O 0.51961 0.02081 0.47707
 C1143 C 0.44352 -0.02733 0.49874
 C1144 C 0.49718 -0.05564 0.52378
 C1145 C 0.47204 -0.00186 0.55291
 C1146 C 0.55773 0.02992 0.49108
 C1147 C 0.52926 0.00705 0.43927
 C1148 C 0.50572 0.05878 0.46788
 H1149 H 0.50683 -0.01968 0.45631
 H1150 H 0.47919 0.04117 0.48997
 H1151 H 0.47321 -0.02586 0.52292
 H1152 H 0.54003 0.00784 0.51731
 H1153 H 0.55295 -0.03126 0.50170
 H1154 H 0.54410 -0.02279 0.53240
 H1155 H 0.46242 0.03823 0.46193
 H1156 H 0.44274 0.01814 0.48337
 H1157 H 0.55229 -0.03177 0.46251
 H1158 H 0.49459 -0.06544 0.47447
 H1159 H 0.49015 0.06080 0.51433
 H1160 H 0.46787 0.04069 0.53063
 H1161 H 0.46559 -0.02983 0.45652
 H1162 H 0.48352 -0.00873 0.43611
 H1163 H 0.51653 0.01454 0.55404
 H1164 H 0.53760 0.03619 0.53412
 O1165 O -0.04212 0.46415 0.99582
 O1166 O -0.02774 0.46031 0.96543
 O1167 O 0.00547 0.46016 1.03643
 O1168 O 0.03365 0.47546 1.04256
 O1169 O -0.03622 0.50750 1.04145
 O1170 O -0.04058 0.53739 1.02456
 O1171 O 0.05663 0.51208 0.98500
 O1172 O 0.05733 0.48080 0.99658
 O1173 O 0.01163 0.51389 0.94278
 O1174 O -0.02247 0.50478 0.94187
 O1175 O 0.01428 0.55745 0.98638
 O1176 O 0.00582 0.55958 1.02026
 O1177 O 0.04495 0.53979 0.99939
 O1178 O 0.02811 0.54488 1.03202
 O1179 O -0.00172 0.54522 0.95980
 O1180 O -0.03399 0.52750 0.95625
 O1181 O 0.03882 0.49925 0.95480
 O1182 O 0.03866 0.46638 0.97044
 O1183 O -0.05406 0.49218 1.00942
 O1184 O -0.05406 0.52617 0.99963
 O1185 O -0.00916 0.49280 1.05371
 O1186 O 0.02550 0.50373 1.05254
 O1187 O -0.01019 0.44731 1.00988
 O1188 O 0.00121 0.44751 0.97553
 Zr1189 Zr -0.01260 0.47109 0.99040
 O1190 O 0.00475 0.48785 0.97115
 Zr1191 Zr 0.00971 0.48990 1.02954
 O1192 O 0.02854 0.50674 1.01185
 Zr1193 Zr -0.02978 0.51139 1.01162
 O1194 O -0.01267 0.52981 0.99369
 Zr1195 Zr 0.03199 0.49351 0.98427
 O1196 O 0.01534 0.47515 1.00297
 Zr1197 Zr -0.00748 0.51566 0.96685
 O1198 O -0.02626 0.49798 0.98411
 Zr1199 Zr 0.01535 0.53377 1.00591
 O1200 O -0.00281 0.51766 1.02531
 O1201 O -0.01764 0.48420 1.01749
 O1202 O 0.02022 0.52109 0.97856
 C1203 C -0.05613 0.47454 1.00283
 C1204 C -0.00235 0.44577 1.02692
 C1205 C -0.02623 0.50034 1.05565
 C1206 C 0.05877 0.52966 0.99164
 C1207 C 0.02894 0.50691 0.94081
 C1208 C 0.00677 0.55926 0.96925
 H1209 H 0.00629 0.48057 0.95868
 H1210 H -0.01952 0.54241 0.99199
 H1211 H -0.02595 0.47599 1.02611
 H1212 H 0.04129 0.50832 1.01856
 H1213 H 0.05300 0.46860 1.00316
 H1214 H 0.04505 0.47775 1.03396
 H1215 H -0.03702 0.53925 0.96422
 H1216 H -0.05657 0.52021 0.98660
 H1217 H 0.05152 0.46782 0.96385
 H1218 H -0.00658 0.43533 0.97758
 H1219 H -0.00767 0.56217 1.01578
 H1220 H -0.02994 0.54267 1.03296
 H1221 H -0.03572 0.47125 0.96041
 H1222 H -0.01762 0.49139 0.93919
 H1223 H 0.01862 0.51608 1.05570
 H1224 H 0.03983 0.53698 1.03492
 O1225 O -0.04702 0.53615 0.49982
 O1226 O -0.03319 0.53974 0.53086
 O1227 O 0.00204 0.54059 0.46094
 O1228 O 0.02965 0.52481 0.45478
 O1229 O -0.04068 0.49282 0.45430
 O1230 O -0.04581 0.46283 0.47126
 O1231 O 0.05087 0.48847 0.51275
 O1232 O 0.05209 0.51989 0.50127
 O1233 O 0.00493 0.48686 0.55431
 O1234 O -0.02933 0.49588 0.55404
 O1235 O 0.00750 0.44288 0.51057
 O1236 O -0.00009 0.44089 0.47647
 O1237 O 0.03901 0.46069 0.49825
 O1238 O 0.02271 0.45547 0.46535
 O1239 O -0.00800 0.45546 0.53714
 O1240 O -0.04027 0.47246 0.53991
 O1241 O 0.03281 0.50076 0.54251
 O1242 O 0.03333 0.53390 0.52737
 O1243 O -0.05909 0.50812 0.48586
 O1244 O -0.05986 0.47423 0.49571
 O1245 O -0.01334 0.50814 0.44293
 O1246 O 0.02104 0.49680 0.44471
 O1247 O -0.01499 0.55298 0.48669
 O1248 O -0.00397 0.55297 0.52112
 Zr1249 Zr -0.01776 0.52923 0.50610
 O1250 O -0.00091 0.51259 0.52569
 Zr1251 Zr 0.00517 0.51063 0.46745
 O1252 O 0.02333 0.49370 0.48547
 Zr1253 Zr -0.03503 0.48895 0.48435
 O1254 O -0.01857 0.47062 0.50275
 Zr1255 Zr 0.02646 0.50694 0.51310
 O1256 O 0.01040 0.52532 0.49417
 Zr1257 Zr -0.01365 0.48480 0.52973
 O1258 O -0.03191 0.50231 0.51199
 Zr1259 Zr 0.00960 0.46664 0.49112
 O1260 O -0.00785 0.48281 0.47131
 O1261 O -0.02236 0.51618 0.47885
 O1262 O 0.01416 0.47936 0.51856
 C1263 C -0.06100 0.52579 0.49234
 C1264 C -0.00628 0.55477 0.47013
 C1265 C -0.03038 0.50038 0.44047
 C1266 C 0.05288 0.47089 0.50618
 C1267 C 0.02251 0.49342 0.55642
 C1268 C 0.00010 0.44130 0.52778
 H1269 H 0.00053 0.51988 0.53817
 H1270 H -0.02563 0.45801 0.50433
 H1271 H -0.03034 0.52442 0.47005
 H1272 H 0.03618 0.49215 0.47902
 H1273 H 0.04799 0.53218 0.49481
 H1274 H 0.04077 0.52282 0.46380
 H1275 H -0.04336 0.46085 0.53169
 H1276 H -0.06228 0.47993 0.50884
 H1277 H 0.04607 0.53239 0.53415
 H1278 H -0.01175 0.56502 0.51907
 H1279 H -0.01370 0.43827 0.48067
 H1280 H -0.03516 0.45775 0.46288
 H1281 H -0.04183 0.52891 0.53529
 H1282 H -0.02402 0.50910 0.55711
 H1283 H 0.01393 0.48450 0.44137
 H1284 H 0.03447 0.46355 0.46255
 O1285 O 0.50909 0.93946 0.00850
 O1286 O 0.49988 0.93783 -0.02408
 O1287 O 0.55268 0.98543 0.01005
 O1288 O 0.55482 1.01724 0.00361
 O1289 O 0.50514 0.98459 0.05284
 O1290 O 0.47182 0.99362 0.05134
 O1291 O 0.50400 1.03676 -0.04226
 O1292 O 0.53370 1.02194 -0.04356
 O1293 O 0.46188 0.99081 -0.04812
 O1294 O 0.45582 0.95994 -0.03136
 O1295 O 0.45525 1.03304 -0.00407
 O1296 O 0.46964 1.03897 0.02779
 O1297 O 0.48680 1.04933 -0.01663
 O1298 O 0.49523 1.05071 0.01934
 O1299 O 0.44331 1.00524 -0.01834
 O1300 O 0.44245 0.97027 -0.00755
 O1301 O 0.48909 1.00682 -0.05884
 O1302 O 0.52207 0.99160 -0.05714
 O1303 O 0.49185 0.95185 0.03419
 O1304 O 0.46107 0.96882 0.03694
 O1305 O 0.53296 0.99918 0.04172
 O1306 O 0.53661 1.03092 0.02434
 O1307 O 0.54109 0.95740 -0.00411
 O1308 O 0.52577 0.95464 -0.03686
 Zr1309 Zr 0.51162 0.96342 -0.01061
 O1310 O 0.49463 0.97976 -0.03033
 Zr1311 Zr 0.52811 1.00370 0.01171
 O1312 O 0.51241 1.02169 -0.00753
 Zr1313 Zr 0.48765 0.98176 0.02755
 O1314 O 0.47000 0.99928 0.00942
 Zr1315 Zr 0.50783 1.00734 -0.03441
 O1316 O 0.52597 0.99034 -0.01609
 Zr1317 Zr 0.46715 0.98585 -0.01819
 O1318 O 0.48319 0.96734 0.00062
 Zr1319 Zr 0.48416 1.02615 0.00361
 O1320 O 0.50059 1.00968 0.02405
 O1321 O 0.51552 0.97639 0.01679
 O1322 O 0.47986 1.01318 -0.02373
 C1323 C 0.50035 0.93769 0.02507
 C1324 C 0.55494 0.96791 0.00338
 C1325 C 0.52231 0.99201 0.05548
 C1326 C 0.49538 1.05090 -0.03332
 C1327 C 0.47202 0.99925 -0.06156
 C1328 C 0.44147 1.02300 -0.01223
 H1329 H 0.49351 0.97251 -0.04287
 H1330 H 0.45717 1.00120 0.01579
 H1331 H 0.52350 0.96825 0.02566
 H1332 H 0.51973 1.03414 -0.00930
 H1333 H 0.54478 1.01348 -0.03976
 H1334 H 0.55249 1.02372 -0.00909
 H1335 H 0.43745 0.97743 0.00402
 H1336 H 0.45712 0.95928 0.02666
 H1337 H 0.52190 0.99979 -0.06910
 H1338 H 0.53310 0.94239 -0.03437
 H1339 H 0.45973 1.02942 0.03245
 H1340 H 0.47637 1.00738 0.05288
 H1341 H 0.48604 0.93680 -0.01993
 H1342 H 0.46568 0.95510 -0.04076
 H1343 H 0.52676 1.03413 0.03445
 H1344 H 0.50726 1.05529 0.01267
 O1345 O 0.48880 0.50633 0.06021
 O1346 O 0.52107 0.49686 0.06103
 O1347 O 0.48792 0.55048 0.01488
 O1348 O 0.49423 0.55247 -0.01691
 O1349 O 0.44363 0.50391 0.01571
 O1350 O 0.44394 0.47035 0.00634
 O1351 O 0.53792 0.50014 -0.03790
 O1352 O 0.54022 0.53012 -0.02292
 O1353 O 0.54299 0.45806 0.00724
 O1354 O 0.52635 0.45254 0.03844
 O1355 O 0.49751 0.45216 -0.03382
 O1356 O 0.46645 0.46791 -0.03920
 O1357 O 0.51162 0.48331 -0.05005
 O1358 O 0.47611 0.49296 -0.05101
 O1359 O 0.51245 0.44017 -0.00676
 O1360 O 0.50222 0.43944 0.02819
 O1361 O 0.55437 0.48512 -0.00852
 O1362 O 0.55395 0.51824 0.00699
 O1363 O 0.46214 0.49027 0.04786
 O1364 O 0.45820 0.45941 0.03084
 O1365 O 0.45552 0.53157 0.00140
 O1366 O 0.47252 0.53473 -0.03048
 O1367 O 0.50199 0.53853 0.04246
 O1368 O 0.53432 0.52247 0.04431
 Zr1369 Zr 0.50752 0.50883 0.03591
 O1370 O 0.52644 0.49134 0.01903
 Zr1371 Zr 0.48525 0.52590 -0.00369
 O1372 O 0.50365 0.50962 -0.02218
 Zr1373 Zr 0.46834 0.48575 0.01795
 O1374 O 0.48562 0.46756 0.00003
 Zr1375 Zr 0.53054 0.50442 -0.00841
 O1376 O 0.51311 0.52306 0.00913
 Zr1377 Zr 0.51333 0.46407 0.01286
 O1378 O 0.49528 0.48061 0.03181
 Zr1379 Zr 0.49148 0.48155 -0.02671
 O1380 O 0.47188 0.49861 -0.00978
 O1381 O 0.48012 0.51342 0.02350
 O1382 O 0.51885 0.47662 -0.01435
 C1383 C 0.47184 0.49820 0.06206
 C1384 C 0.49484 0.55259 0.03228
 C1385 C 0.44151 0.52122 0.00864
 C1386 C 0.52859 0.49144 -0.05185
 C1387 C 0.55663 0.46793 -0.00128
 C1388 C 0.50557 0.43824 -0.02418
 H1389 H 0.53904 0.48993 0.02601
 H1390 H 0.47876 0.45486 -0.00188
 H1391 H 0.47164 0.52162 0.03190
 H1392 H 0.50552 0.51685 -0.03456
 H1393 H 0.53697 0.54133 -0.01427
 H1394 H 0.50646 0.54966 -0.02406
 H1395 H 0.49023 0.43487 0.02137
 H1396 H 0.46855 0.45515 0.04001
 H1397 H 0.56574 0.51785 -0.00146
 H1398 H 0.53226 0.52996 0.05663
 H1399 H 0.46153 0.45812 -0.02971
 H1400 H 0.44213 0.47518 -0.00719
 H1401 H 0.51678 0.48297 0.06182
 H1402 H 0.53653 0.46196 0.04290
 H1403 H 0.46219 0.52496 -0.03373
 H1404 H 0.48316 0.50485 -0.05550
 O1405 O -0.00992 0.01044 0.55659
 O1406 O 0.02240 0.00128 0.55731
 O1407 O -0.01106 0.05448 0.51091
 O1408 O -0.00498 0.05625 0.47908
 O1409 O -0.05531 0.00771 0.51211
 O1410 O -0.05486 -0.02592 0.50305
 O1411 O 0.03907 0.00335 0.45843
 O1412 O 0.04102 0.03380 0.47272
 O1413 O 0.04395 -0.03815 0.50306
 O1414 O 0.02783 -0.04290 0.53513
 O1415 O -0.00101 -0.04419 0.46281
 O1416 O -0.03247 -0.02883 0.45761
 O1417 O 0.01230 -0.01267 0.44633
 O1418 O -0.02322 -0.00378 0.44558
 O1419 O 0.01348 -0.05594 0.49022
 O1420 O 0.00370 -0.05640 0.52511
 O1421 O 0.05568 -0.01061 0.48837
 O1422 O 0.05478 0.02273 0.50303
 O1423 O -0.03678 -0.00537 0.54432
 O1424 O -0.04051 -0.03652 0.52774
 O1425 O -0.04356 0.03536 0.49769
 O1426 O -0.02664 0.03833 0.46571
 O1427 O 0.00289 0.04265 0.53862
 O1428 O 0.03539 0.02687 0.54040
 Zr1429 Zr 0.00866 0.01300 0.53218
 O1430 O 0.02761 -0.00453 0.51538
 Zr1431 Zr -0.01379 0.02975 0.49253
 O1432 O 0.00459 0.01334 0.47412
 Zr1433 Zr -0.03053 -0.01030 0.51451
 O1434 O -0.01324 -0.02860 0.49671
 Zr1435 Zr 0.03158 0.00836 0.48782
 O1436 O 0.01413 0.02706 0.50528
 Zr1437 Zr 0.01452 -0.03186 0.50947
 O1438 O -0.00354 -0.01526 0.52834
 Zr1439 Zr -0.00752 -0.01481 0.46984
 O1440 O -0.02711 0.00237 0.48668
 O1441 O -0.01880 0.01744 0.51981
 O1442 O 0.01991 -0.01951 0.48215
 C1443 C -0.02698 0.00252 0.55847
 C1444 C -0.00424 0.05665 0.52835
 C1445 C -0.05753 0.02498 0.50497
 C1446 C 0.02945 -0.00498 0.44444
 C1447 C 0.05772 -0.02808 0.49500
 C1448 C 0.00694 -0.05802 0.47271
 H1449 H 0.04024 -0.00585 0.52231
 H1450 H -0.02004 -0.04135 0.49493
 H1451 H -0.02730 0.02567 0.52817
 H1452 H 0.00639 0.02047 0.46167
 H1453 H 0.03777 0.04516 0.48118
 H1454 H 0.00719 0.05342 0.47184
 H1455 H -0.00852 -0.06087 0.51864
 H1456 H -0.03017 -0.04057 0.53702
 H1457 H 0.06657 0.02245 0.49458
 H1458 H 0.03332 0.03444 0.55267
 H1459 H -0.03709 -0.03878 0.46707
 H1460 H -0.05661 -0.02134 0.48943
 H1461 H 0.01848 -0.01271 0.55800
 H1462 H 0.03864 -0.03386 0.53884
 H1463 H -0.03704 0.02859 0.46264
 H1464 H -0.01654 0.00835 0.44119
 O1465 O 0.74064 0.19527 0.25890
 O1466 O 0.77288 0.19413 0.24889
 O1467 O 0.74076 0.24189 0.30214
 O1468 O 0.74772 0.27378 0.30342
 O1469 O 0.69604 0.24014 0.25638
 O1470 O 0.69616 0.24849 0.22277
 O1471 O 0.79115 0.29318 0.24926
 O1472 O 0.79336 0.27953 0.27982
 O1473 O 0.79496 0.24657 0.20874
 O1474 O 0.77790 0.21527 0.20422
 O1475 O 0.75074 0.28809 0.20311
 O1476 O 0.71894 0.29340 0.21907
 O1477 O 0.76429 0.30515 0.23383
 O1478 O 0.72923 0.30653 0.24324
 O1479 O 0.76412 0.26008 0.19111
 O1480 O 0.75369 0.22507 0.19149
 O1481 O 0.80695 0.26284 0.23533
 O1482 O 0.80648 0.24884 0.26883
 O1483 O 0.71400 0.20735 0.24313
 O1484 O 0.70979 0.22349 0.21217
 O1485 O 0.70832 0.25521 0.28353
 O1486 O 0.72590 0.28706 0.28591
 O1487 O 0.75420 0.21384 0.29032
 O1488 O 0.78645 0.21157 0.27404
 Zr1489 Zr 0.75968 0.21964 0.26060
 O1490 O 0.77862 0.23595 0.24250
 Zr1491 Zr 0.73814 0.25990 0.27733
 O1492 O 0.75658 0.27789 0.26034
 Zr1493 Zr 0.72052 0.23715 0.23794
 O1494 O 0.73783 0.25444 0.21911
 Zr1495 Zr 0.78325 0.26387 0.25488
 O1496 O 0.76582 0.24689 0.27416
 Zr1497 Zr 0.76529 0.24130 0.21541
 O1498 O 0.74718 0.22292 0.23261
 Zr1499 Zr 0.74417 0.28161 0.23247
 O1500 O 0.72458 0.26528 0.25023
 O1501 O 0.73250 0.23234 0.26544
 O1502 O 0.77131 0.26895 0.22725
 C1503 C 0.72359 0.19329 0.25108
 C1504 C 0.74733 0.22440 0.30432
 C1505 C 0.69411 0.24781 0.27350
 C1506 C 0.78163 0.30709 0.24097
 C1507 C 0.80890 0.25509 0.21828
 C1508 C 0.75807 0.27776 0.18920
 H1509 H 0.79110 0.22884 0.24105
 H1510 H 0.73088 0.25600 0.20653
 H1511 H 0.72394 0.22420 0.27389
 H1512 H 0.75871 0.29052 0.26724
 H1513 H 0.79015 0.27134 0.29134
 H1514 H 0.75984 0.28106 0.30017
 H1515 H 0.74168 0.23173 0.18704
 H1516 H 0.71991 0.21408 0.20790
 H1517 H 0.81840 0.25721 0.26807
 H1518 H 0.78431 0.19939 0.28169
 H1519 H 0.71475 0.28424 0.20856
 H1520 H 0.69487 0.26233 0.22706
 H1521 H 0.76828 0.19281 0.23520
 H1522 H 0.78806 0.21101 0.21358
 H1523 H 0.71555 0.29013 0.27627
 H1524 H 0.73580 0.31083 0.25546
 O1525 O 0.75274 0.71230 0.70778
 O1526 O 0.78330 0.70846 0.72208
 O1527 O 0.71298 0.70773 0.75636
 O1528 O 0.70682 0.72341 0.78421
 O1529 O 0.70759 0.75507 0.71411
 O1530 O 0.72449 0.78535 0.70980
 O1531 O 0.76536 0.75997 0.80645
 O1532 O 0.75338 0.72858 0.80726
 O1533 O 0.80696 0.76163 0.76076
 O1534 O 0.80705 0.75290 0.72656
 O1535 O 0.76362 0.80553 0.76364
 O1536 O 0.72979 0.80748 0.75608
 O1537 O 0.75105 0.78763 0.79491
 O1538 O 0.71819 0.79261 0.77841
 O1539 O 0.79011 0.79316 0.74800
 O1540 O 0.79295 0.77587 0.71555
 O1541 O 0.79501 0.74763 0.78844
 O1542 O 0.77936 0.71450 0.78838
 O1543 O 0.73925 0.74032 0.69599
 O1544 O 0.74912 0.77435 0.69589
 O1545 O 0.69551 0.74037 0.74138
 O1546 O 0.69729 0.75146 0.77611
 O1547 O 0.73870 0.69540 0.73933
 O1548 O 0.77300 0.69544 0.75106
 Zr1549 Zr 0.75853 0.71912 0.73727
 O1550 O 0.77818 0.73587 0.75442
 Zr1551 Zr 0.71989 0.73767 0.76008
 O1552 O 0.73801 0.75458 0.77866
 Zr1553 Zr 0.73744 0.75937 0.72033
 O1554 O 0.75580 0.77778 0.73720
 Zr1555 Zr 0.76551 0.74147 0.78181
 O1556 O 0.74642 0.72306 0.76539
 Zr1557 Zr 0.78257 0.76369 0.74209
 O1558 O 0.76487 0.74605 0.72349
 Zr1559 Zr 0.74402 0.78167 0.76536
 O1560 O 0.72420 0.76550 0.74747
 O1561 O 0.73151 0.73213 0.73257
 O1562 O 0.77131 0.76909 0.76992
 C1563 C 0.74565 0.72272 0.69385
 C1564 C 0.72202 0.69359 0.74784
 C1565 C 0.69347 0.74777 0.72422
 C1566 C 0.75890 0.77751 0.80867
 C1567 C 0.80900 0.75500 0.77821
 C1568 C 0.78078 0.80729 0.75618
 H1569 H 0.79058 0.72861 0.75582
 H1570 H 0.75752 0.79040 0.73031
 H1571 H 0.72273 0.72389 0.72434
 H1572 H 0.73151 0.75610 0.79150
 H1573 H 0.74681 0.71627 0.80299
 H1574 H 0.71592 0.72511 0.79535
 H1575 H 0.78505 0.78761 0.71267
 H1576 H 0.76215 0.76864 0.69335
 H1577 H 0.78607 0.71599 0.80120
 H1578 H 0.77081 0.68333 0.74319
 H1579 H 0.73363 0.80979 0.74232
 H1580 H 0.71595 0.79027 0.72042
 H1581 H 0.78817 0.71932 0.71377
 H1582 H 0.80977 0.73955 0.73146
 H1583 H 0.69405 0.76371 0.76911
 H1584 H 0.71543 0.78471 0.79022
 O1585 O 0.28952 0.21078 0.74936
 O1586 O 0.29226 0.22568 0.71917
 O1587 O 0.29481 0.25922 0.79016
 O1588 O 0.27904 0.28668 0.79731
 O1589 O 0.24874 0.21537 0.79670
 O1590 O 0.21788 0.21052 0.78102
 O1591 O 0.24000 0.30841 0.74072
 O1592 O 0.27162 0.31021 0.75164
 O1593 O 0.23786 0.26320 0.69843
 O1594 O 0.24735 0.22890 0.69757
 O1595 O 0.19558 0.26440 0.74348
 O1596 O 0.19494 0.25591 0.77735
 O1597 O 0.21321 0.29584 0.75609
 O1598 O 0.20966 0.27879 0.78877
 O1599 O 0.20741 0.24946 0.71624
 O1600 O 0.22464 0.21745 0.71200
 O1601 O 0.25208 0.29108 0.71027
 O1602 O 0.28538 0.29205 0.72492
 O1603 O 0.26249 0.19811 0.76426
 O1604 O 0.22833 0.19702 0.75565
 O1605 O 0.26330 0.24304 0.80865
 O1606 O 0.25149 0.27745 0.80803
 O1607 O 0.30647 0.24315 0.76344
 O1608 O 0.30503 0.25494 0.72931
 Zr1609 Zr 0.28219 0.24032 0.74464
 O1610 O 0.26460 0.25728 0.72603
 Zr1611 Zr 0.26472 0.26216 0.78452
 O1612 O 0.24691 0.28047 0.76746
 Zr1613 Zr 0.24317 0.22188 0.76716
 O1614 O 0.22393 0.23841 0.74979
 Zr1615 Zr 0.25899 0.28439 0.73950
 O1616 O 0.27824 0.26823 0.75748
 Zr1617 Zr 0.23698 0.24409 0.72256
 O1618 O 0.25540 0.22577 0.73922
 Zr1619 Zr 0.21995 0.26636 0.76228
 O1620 O 0.23706 0.24874 0.78114
 O1621 O 0.27031 0.23490 0.77213
 O1622 O 0.23153 0.27167 0.73459
 C1623 C 0.27970 0.19646 0.75682
 C1624 C 0.30875 0.25142 0.78025
 C1625 C 0.25639 0.22556 0.81068
 C1626 C 0.22270 0.30999 0.74792
 C1627 C 0.24432 0.28085 0.69639
 C1628 C 0.19351 0.25728 0.72614
 H1629 H 0.27140 0.25905 0.71338
 H1630 H 0.21141 0.23116 0.74841
 H1631 H 0.27900 0.22681 0.78036
 H1632 H 0.24536 0.29322 0.77425
 H1633 H 0.28412 0.30628 0.75776
 H1634 H 0.27632 0.29802 0.78879
 H1635 H 0.21343 0.21401 0.72050
 H1636 H 0.23348 0.19495 0.74226
 H1637 H 0.28348 0.30492 0.71848
 H1638 H 0.31733 0.24747 0.73094
 H1639 H 0.19259 0.24220 0.77306
 H1640 H 0.21322 0.22091 0.79003
 H1641 H 0.28132 0.21731 0.71442
 H1642 H 0.26013 0.23476 0.69396
 H1643 H 0.23951 0.27003 0.81160
 H1644 H 0.21751 0.29076 0.79152
 O1645 O 0.20463 0.74336 0.28754
 O1646 O 0.21904 0.71281 0.29090
 O1647 O 0.25173 0.78450 0.29350
 O1648 O 0.28024 0.79098 0.27903
 O1649 O 0.21079 0.78938 0.24536
 O1650 O 0.20699 0.77276 0.21505
 O1651 O 0.30392 0.73394 0.24157
 O1652 O 0.30422 0.74550 0.27304
 O1653 O 0.25916 0.69113 0.23828
 O1654 O 0.22504 0.68978 0.24635
 O1655 O 0.26193 0.73547 0.19540
 O1656 O 0.25343 0.76953 0.19405
 O1657 O 0.29263 0.74880 0.21409
 O1658 O 0.27573 0.78110 0.20910
 O1659 O 0.24646 0.70832 0.20700
 O1660 O 0.21379 0.70432 0.22368
 O1661 O 0.28625 0.70357 0.25328
 O1662 O 0.28563 0.71879 0.28647
 O1663 O 0.19296 0.75692 0.25948
 O1664 O 0.19345 0.74751 0.22542
 O1665 O 0.23748 0.80193 0.26098
 O1666 O 0.27224 0.80144 0.25082
 O1667 O 0.23626 0.75737 0.30529
 O1668 O 0.24776 0.72315 0.30463
 Zr1669 Zr 0.23422 0.73816 0.28112
 O1670 O 0.25194 0.71929 0.26443
 Zr1671 Zr 0.25652 0.77795 0.26375
 O1672 O 0.27565 0.76065 0.24693
 Zr1673 Zr 0.21748 0.75965 0.24096
 O1674 O 0.23490 0.74208 0.22264
 Zr1675 Zr 0.27912 0.73290 0.25961
 O1676 O 0.26212 0.75119 0.27797
 Zr1677 Zr 0.24007 0.71511 0.23637
 O1678 O 0.22094 0.73198 0.25388
 Zr1679 Zr 0.26287 0.75478 0.21953
 O1680 O 0.24443 0.77382 0.23566
 O1681 O 0.22920 0.76539 0.26849
 O1682 O 0.26774 0.72729 0.23174
 C1683 C 0.19073 0.75027 0.27694
 C1684 C 0.24384 0.77458 0.30744
 C1685 C 0.22049 0.80366 0.25311
 C1686 C 0.30632 0.74094 0.22429
 C1687 C 0.27648 0.68942 0.24537
 C1688 C 0.25474 0.71810 0.19323
 H1689 H 0.25347 0.70675 0.27147
 H1690 H 0.22821 0.74041 0.20990
 H1691 H 0.22073 0.77383 0.27667
 H1692 H 0.28838 0.76754 0.24576
 H1693 H 0.29971 0.75185 0.28528
 H1694 H 0.29180 0.78274 0.27642
 H1695 H 0.21101 0.71226 0.21192
 H1696 H 0.19100 0.73432 0.23096
 H1697 H 0.29854 0.71239 0.28512
 H1698 H 0.23973 0.72487 0.31661
 H1699 H 0.24011 0.76468 0.19093
 H1700 H 0.21759 0.78149 0.21029
 H1701 H 0.21094 0.70804 0.27980
 H1702 H 0.22951 0.68719 0.25986
 H1703 H 0.26558 0.80451 0.23834
 H1704 H 0.28704 0.78435 0.21761
 O1705 O 0.19590 0.73998 0.76000
 O1706 O 0.19522 0.74978 0.72780
 O1707 O 0.24154 0.69619 0.76066
 O1708 O 0.27338 0.69464 0.75473
 O1709 O 0.24015 0.74233 0.80547
 O1710 O 0.24925 0.77596 0.80549
 O1711 O 0.29402 0.74846 0.71119
 O1712 O 0.27994 0.71794 0.70891
 O1713 O 0.24915 0.78962 0.70669
 O1714 O 0.21739 0.79423 0.72299
 O1715 O 0.28951 0.79528 0.75219
 O1716 O 0.29478 0.77923 0.78327
 O1717 O 0.30609 0.76412 0.73817
 O1718 O 0.30685 0.75448 0.77355
 O1719 O 0.26237 0.80706 0.73729
 O1720 O 0.22744 0.80732 0.74732
 O1721 O 0.26396 0.76235 0.69469
 O1722 O 0.24954 0.72888 0.69530
 O1723 O 0.20799 0.75578 0.78690
 O1724 O 0.22471 0.78676 0.79123
 O1725 O 0.25469 0.71493 0.79350
 O1726 O 0.28669 0.71233 0.77655
 O1727 O 0.21391 0.70815 0.74672
 O1728 O 0.21216 0.72446 0.71448
 Zr1729 Zr 0.22032 0.73792 0.74142
 O1730 O 0.23713 0.75581 0.72272
 Zr1731 Zr 0.25988 0.72097 0.76377
 O1732 O 0.27832 0.73773 0.74559
 Zr1733 Zr 0.23787 0.76071 0.78090
 O1734 O 0.25571 0.77933 0.76388
 Zr1735 Zr 0.26468 0.74309 0.71863
 O1736 O 0.24722 0.72404 0.73584
 Zr1737 Zr 0.24301 0.78298 0.73613
 O1738 O 0.22412 0.76603 0.75393
 Zr1739 Zr 0.28258 0.76570 0.75804
 O1740 O 0.26570 0.74818 0.77740
 O1741 O 0.23260 0.73312 0.76886
 O1742 O 0.27033 0.77081 0.73063
 C1743 C 0.19390 0.74789 0.77702
 C1744 C 0.22416 0.69406 0.75368
 C1745 C 0.24735 0.72509 0.80755
 C1746 C 0.30799 0.75675 0.72089
 C1747 C 0.25715 0.77975 0.69279
 C1748 C 0.27975 0.80915 0.74417
 H1749 H 0.23019 0.75728 0.71011
 H1750 H 0.25749 0.79197 0.77085
 H1751 H 0.22422 0.72473 0.77724
 H1752 H 0.29078 0.73068 0.74370
 H1753 H 0.27156 0.70645 0.71204
 H1754 H 0.28058 0.69765 0.74256
 H1755 H 0.23410 0.81178 0.75944
 H1756 H 0.21559 0.79106 0.78086
 H1757 H 0.25797 0.72938 0.68350
 H1758 H 0.19987 0.71685 0.71642
 H1759 H 0.28527 0.78897 0.78811
 H1760 H 0.26282 0.77132 0.80728
 H1761 H 0.19440 0.76366 0.73206
 H1762 H 0.21342 0.78514 0.71234
 H1763 H 0.28974 0.72194 0.78707
 H1764 H 0.31129 0.74251 0.76665
 O1765 O 0.25546 0.20627 0.21047
 O1766 O 0.28555 0.20369 0.22527
 O1767 O 0.21489 0.20111 0.25875
 O1768 O 0.20826 0.21692 0.28641
 O1769 O 0.20788 0.24678 0.21541
 O1770 O 0.22350 0.27776 0.21062
 O1771 O 0.26480 0.25661 0.30809
 O1772 O 0.25421 0.22491 0.30969
 O1773 O 0.30665 0.25908 0.26273
 O1774 O 0.30710 0.24897 0.22838
 O1775 O 0.26171 0.30096 0.26424
 O1776 O 0.22798 0.30147 0.25627
 O1777 O 0.24940 0.28333 0.29578
 O1778 O 0.21652 0.28655 0.27872
 O1779 O 0.28873 0.28921 0.24903
 O1780 O 0.29265 0.27164 0.21720
 O1781 O 0.29526 0.24471 0.29045
 O1782 O 0.28066 0.21122 0.29129
 O1783 O 0.24016 0.23301 0.19799
 O1784 O 0.24879 0.26738 0.19704
 O1785 O 0.19626 0.23277 0.24325
 O1786 O 0.19742 0.24441 0.27765
 O1787 O 0.24147 0.18939 0.24267
 O1788 O 0.27571 0.19120 0.25443
 Zr1789 Zr 0.26027 0.21384 0.23995
 O1790 O 0.27908 0.23180 0.25679
 Zr1791 Zr 0.22069 0.23131 0.26201
 O1792 O 0.23797 0.24943 0.28025
 Zr1793 Zr 0.23751 0.25263 0.22180
 O1794 O 0.25505 0.27222 0.23830
 Zr1795 Zr 0.26596 0.23753 0.28394
 O1796 O 0.24777 0.21796 0.26786
 Zr1797 Zr 0.28236 0.25942 0.24375
 O1798 O 0.26549 0.24063 0.22551
 Zr1799 Zr 0.24297 0.27639 0.26629
 O1800 O 0.22391 0.25895 0.24872
 O1801 O 0.23271 0.22550 0.23472
 O1802 O 0.27071 0.26504 0.27138
 C1803 C 0.24782 0.21588 0.19625
 C1804 C 0.22471 0.18710 0.25091
 C1805 C 0.19401 0.23944 0.22583
 C1806 C 0.25751 0.27386 0.30986
 C1807 C 0.30896 0.25263 0.28023
 C1808 C 0.27890 0.30314 0.25693
 H1809 H 0.29176 0.22510 0.25844
 H1810 H 0.25631 0.28472 0.23111
 H1811 H 0.22437 0.21669 0.22663
 H1812 H 0.23130 0.25101 0.29299
 H1813 H 0.24805 0.21229 0.30574
 H1814 H 0.21696 0.21973 0.29767
 H1815 H 0.28395 0.28261 0.21370
 H1816 H 0.26210 0.26220 0.19482
 H1817 H 0.28726 0.21326 0.30409
 H1818 H 0.27395 0.17875 0.24701
 H1819 H 0.23158 0.30337 0.24239
 H1820 H 0.21463 0.28249 0.22105
 H1821 H 0.29044 0.21470 0.21718
 H1822 H 0.31106 0.23646 0.23445
 H1823 H 0.19378 0.25644 0.27049
 H1824 H 0.21402 0.27894 0.29077
 O1825 O 0.78672 0.70857 0.24870
 O1826 O 0.79009 0.72369 0.21867
 O1827 O 0.79163 0.75591 0.29029
 O1828 O 0.77646 0.78385 0.29713
 O1829 O 0.74506 0.71295 0.29523
 O1830 O 0.71445 0.70868 0.27890
 O1831 O 0.73856 0.80689 0.24029
 O1832 O 0.76998 0.80815 0.25181
 O1833 O 0.73666 0.76223 0.19739
 O1834 O 0.74554 0.72781 0.19630
 O1835 O 0.69356 0.76349 0.24179
 O1836 O 0.69207 0.75464 0.27538
 O1837 O 0.71137 0.79451 0.25508
 O1838 O 0.70708 0.77697 0.28755
 O1839 O 0.70561 0.74892 0.21444
 O1840 O 0.72237 0.71655 0.21023
 O1841 O 0.75098 0.78978 0.20986
 O1842 O 0.78401 0.79011 0.22513
 O1843 O 0.75923 0.69598 0.26282
 O1844 O 0.72520 0.69547 0.25346
 O1845 O 0.75951 0.74041 0.30780
 O1846 O 0.74847 0.77499 0.30740
 O1847 O 0.80382 0.74067 0.26332
 O1848 O 0.80301 0.75273 0.22927
 Zr1849 Zr 0.77978 0.73822 0.24410
 O1850 O 0.76272 0.75562 0.22541
 Zr1851 Zr 0.76182 0.75974 0.28393
 O1852 O 0.74461 0.77854 0.26681
 Zr1853 Zr 0.74011 0.71995 0.26566
 O1854 O 0.72139 0.73700 0.24822
 Zr1855 Zr 0.75725 0.78264 0.23912
 O1856 O 0.77595 0.76599 0.25725
 Zr1857 Zr 0.73497 0.74287 0.22128
 O1858 O 0.75289 0.72409 0.23800
 Zr1859 Zr 0.71759 0.76484 0.26100
 O1860 O 0.73408 0.74670 0.27989
 O1861 O 0.76730 0.73258 0.27129
 O1862 O 0.72971 0.77036 0.23359
 C1863 C 0.77661 0.69425 0.25578
 C1864 C 0.80573 0.74835 0.28045
 C1865 C 0.75244 0.72295 0.30948
 C1866 C 0.72118 0.80863 0.24723
 C1867 C 0.74340 0.77981 0.19570
 C1868 C 0.69167 0.75677 0.22428
 H1869 H 0.76976 0.75745 0.21290
 H1870 H 0.70879 0.72997 0.24652
 H1871 H 0.77571 0.72427 0.27959
 H1872 H 0.74311 0.79121 0.27374
 H1873 H 0.78232 0.80398 0.25811
 H1874 H 0.77380 0.79540 0.28887
 H1875 H 0.71088 0.71327 0.21840
 H1876 H 0.73061 0.69352 0.24016
 H1877 H 0.78240 0.80308 0.21882
 H1878 H 0.81520 0.74509 0.23100
 H1879 H 0.68979 0.74092 0.27112
 H1880 H 0.70974 0.71900 0.28796
 H1881 H 0.77915 0.71547 0.21368
 H1882 H 0.75854 0.73340 0.19309
 H1883 H 0.73627 0.76777 0.31065
 H1884 H 0.71485 0.78895 0.29046
 O1885 O 0.70620 0.24768 0.78368
 O1886 O 0.72090 0.21754 0.78718
 O1887 O 0.75379 0.28901 0.78988
 O1888 O 0.78195 0.29587 0.77493
 O1889 O 0.71234 0.29465 0.74178
 O1890 O 0.70800 0.27803 0.71164
 O1891 O 0.80516 0.23891 0.73720
 O1892 O 0.80575 0.25020 0.76870
 O1893 O 0.76025 0.19617 0.73400
 O1894 O 0.72592 0.19510 0.74243
 O1895 O 0.76292 0.24068 0.69133
 O1896 O 0.75448 0.27470 0.69013
 O1897 O 0.79380 0.25408 0.70992
 O1898 O 0.77669 0.28638 0.70524
 O1899 O 0.74748 0.21352 0.70297
 O1900 O 0.71500 0.20944 0.71956
 O1901 O 0.78749 0.20843 0.74887
 O1902 O 0.78720 0.22349 0.78212
 O1903 O 0.69437 0.26208 0.75614
 O1904 O 0.69459 0.25277 0.72201
 O1905 O 0.73887 0.30679 0.75804
 O1906 O 0.77350 0.30642 0.74695
 O1907 O 0.73773 0.26216 0.80148
 O1908 O 0.74964 0.22799 0.80062
 Zr1909 Zr 0.73582 0.24298 0.77725
 O1910 O 0.75334 0.22417 0.76033
 Zr1911 Zr 0.75802 0.28282 0.75999
 O1912 O 0.77698 0.26560 0.74291
 Zr1913 Zr 0.71876 0.26482 0.73739
 O1914 O 0.73602 0.24730 0.71883
 Zr1915 Zr 0.78051 0.23776 0.75539
 O1916 O 0.76371 0.25598 0.77400
 Zr1917 Zr 0.74123 0.22023 0.73235
 O1918 O 0.72230 0.23705 0.75009
 Zr1919 Zr 0.76401 0.25992 0.71555
 O1920 O 0.74573 0.27891 0.73195
 O1921 O 0.73069 0.27031 0.76487
 O1922 O 0.76891 0.23235 0.72757
 C1923 C 0.69220 0.25481 0.77339
 C1924 C 0.74567 0.27920 0.80374
 C1925 C 0.72200 0.30872 0.74999
 C1926 C 0.80752 0.24611 0.72000
 C1927 C 0.77760 0.19434 0.74099
 C1928 C 0.75571 0.22331 0.68918
 H1929 H 0.75489 0.21159 0.76730
 H1930 H 0.72925 0.24571 0.70612
 H1931 H 0.72226 0.27865 0.77319
 H1932 H 0.78971 0.27249 0.74171
 H1933 H 0.80135 0.25655 0.78099
 H1934 H 0.79341 0.28750 0.77237
 H1935 H 0.71201 0.21767 0.70806
 H1936 H 0.69221 0.23954 0.72748
 H1937 H 0.80009 0.21705 0.78063
 H1938 H 0.74177 0.22973 0.81271
 H1939 H 0.74109 0.26996 0.68713
 H1940 H 0.71866 0.28658 0.70667
 H1941 H 0.71299 0.21254 0.77604
 H1942 H 0.73108 0.19189 0.75556
 H1943 H 0.76649 0.30972 0.73473
 H1944 H 0.78803 0.28961 0.71371
 C1945 C 0.05959 1.00219 1.13631
 C1946 C 0.05585 1.01599 1.15120
 C1947 C 0.06441 1.01401 1.16970
 C1948 C 0.07691 0.99824 1.17363
 C1949 C 0.08019 0.98417 1.15893
 C1950 C 0.07160 0.98610 1.14050
 C1951 C 0.05131 1.00462 1.11636
 C1952 C 0.06263 1.00014 1.09979
 C1953 C 0.05470 1.00157 1.08101
 C1954 C 0.03526 1.00759 1.07833
 C1955 C 0.02409 1.01259 1.09488
 C1956 C 0.03202 1.01110 1.11370
 H1957 H 0.06179 1.02517 1.18072
 H1958 H 0.08949 0.97168 1.16166
 H1959 H 0.06379 0.99776 1.06861
 H1960 H 0.00904 1.01722 1.09336
 H1961 H 0.07438 0.97496 1.12951
 H1962 H 0.07767 0.99552 1.10133
 H1963 H 0.04678 1.02863 1.14838
 H1964 H 0.02289 1.01452 1.12618
 C1965 C 0.55614 0.50555 0.64183
 C1966 C 0.56226 0.52289 0.65129
 C1967 C 0.57122 0.52214 0.66970
 C1968 C 0.57403 0.50404 0.67912
 C1969 C 0.56716 0.48680 0.66988
 C1970 C 0.55846 0.48754 0.65140
 C1971 C 0.54794 0.50605 0.62178
 C1972 C 0.55503 0.49320 0.60735
 C1973 C 0.54723 0.49334 0.58846
 C1974 C 0.53195 0.50614 0.58365
 C1975 C 0.52491 0.51909 0.59808
 C1976 C 0.53296 0.51916 0.61693
 H1977 H 0.57654 0.53568 0.67623
 H1978 H 0.56860 0.47266 0.67687
 H1979 H 0.55292 0.48314 0.57771
 H1980 H 0.51320 0.52917 0.59479
 H1981 H 0.55356 0.47400 0.64453
 H1982 H 0.56671 0.48310 0.61070
 H1983 H 0.56071 0.53694 0.64413
 H1984 H 0.52724 0.52917 0.62784
 C1985 C 0.43844 0.00256 0.63063
 C1986 C 0.42783 0.01932 0.63603
 C1987 C 0.41940 0.02077 0.65459
 C1988 C 0.42141 0.00550 0.66819
 C1989 C 0.43238 -0.01107 0.66296
 C1990 C 0.44080 -0.01253 0.64437
 C1991 C 0.44682 0.00080 0.61065
 C1992 C 0.46555 -0.00708 0.60781
 C1993 C 0.47359 -0.00827 0.58904
 C1994 C 0.46308 -0.00161 0.57267
 C1995 C 0.44421 0.00596 0.57551
 C1996 C 0.43619 0.00715 0.59427
 H1997 H 0.41129 0.03385 0.65832
 H1998 H 0.43393 -0.02320 0.67302
 H1999 H 0.48818 -0.01414 0.58742
 H2000 H 0.43566 0.01115 0.56324
 H2001 H 0.44871 -0.02572 0.64057
 H2002 H 0.47418 -0.01192 0.62016
 H2003 H 0.42610 0.03138 0.62592
 H2004 H 0.42158 0.01297 0.59595
 C2005 C -0.05943 0.50470 1.13357
 C2006 C -0.07006 0.52138 1.13917
 C2007 C -0.07880 0.52246 1.15761
 C2008 C -0.07709 0.50688 1.17090
 C2009 C -0.06600 0.49042 1.16553
 C2010 C -0.05728 0.48934 1.14706
 C2011 C -0.05101 0.50319 1.11359
 C2012 C -0.03236 0.49518 1.11062
 C2013 C -0.02442 0.49401 1.09180
 C2014 C -0.03495 0.50082 1.07552
 C2015 C -0.05371 0.50862 1.07850
 C2016 C -0.06164 0.50978 1.09730
 H2017 H -0.08698 0.53546 1.16146
 H2018 H -0.06465 0.47808 1.17536
 H2019 H -0.00991 0.48797 1.09007
 H2020 H -0.06228 0.51394 1.06631
 H2021 H -0.04936 0.47620 1.14310
 H2022 H -0.02375 0.49014 1.12290
 H2023 H -0.07163 0.53364 1.12927
 H2024 H -0.07619 0.51570 1.09906
 C2025 C -0.06154 0.49857 0.36158
 C2026 C -0.06881 0.48098 0.35358
 C2027 C -0.07677 0.48050 0.33473
 C2028 C -0.07788 0.49769 0.32326
 C2029 C -0.07005 0.51524 0.33138
 C2030 C -0.06204 0.51563 0.35021
 C2031 C -0.05366 0.49918 0.38182
 C2032 C -0.03648 0.50979 0.38613
 C2033 C -0.02901 0.51029 0.40517
 C2034 C -0.03863 0.50027 0.42039
 C2035 C -0.05595 0.48980 0.41610
 C2036 C -0.06334 0.48922 0.39701
 H2037 H -0.08152 0.46636 0.32916
 H2038 H -0.07098 0.52910 0.32383
 H2039 H -0.01564 0.51850 0.40793
 H2040 H -0.06372 0.48190 0.42744
 H2041 H -0.05678 0.52948 0.35612
 H2042 H -0.02862 0.51747 0.37468
 H2043 H -0.06814 0.46748 0.36185
 H2044 H -0.07676 0.48112 0.39416
 C2045 C 0.44120 0.99948 -0.14048
 C2046 C 0.43678 0.98156 -0.14978
 C2047 C 0.42878 0.98122 -0.16861
 C2048 C 0.42484 0.99882 -0.17849
 C2049 C 0.42968 1.01675 -0.16929
 C2050 C 0.43785 1.01707 -0.15053
 C2051 C 0.44887 0.99981 -0.12018
 C2052 C 0.46466 1.01211 -0.11502
 C2053 C 0.47206 1.01211 -0.09593
 C2054 C 0.46366 0.99996 -0.08155
 C2055 C 0.44761 0.98794 -0.08668
 C2056 C 0.44037 0.98780 -0.10581
 H2057 H 0.42560 0.96715 -0.17540
 H2058 H 0.42654 1.03059 -0.17631
 H2059 H 0.48442 1.02156 -0.09245
 H2060 H 0.44084 0.97838 -0.07599
 H2061 H 0.44097 1.03109 -0.14361
 H2062 H 0.47152 1.02145 -0.12586
 H2063 H 0.43954 0.96778 -0.14248
 H2064 H 0.42801 0.97837 -0.10935
 C2065 C 0.56188 0.49295 -0.12943
 C2066 C 0.57233 0.47697 -0.13696
 C2067 C 0.58100 0.47811 -0.15545
 C2068 C 0.57896 0.49507 -0.16685
 C2069 C 0.56802 0.51084 -0.15954
 C2070 C 0.55973 0.50987 -0.14087
 C2071 C 0.55368 0.49220 -0.10945
 C2072 C 0.55831 0.50703 -0.09585
 C2073 C 0.55057 0.50645 -0.07694
 C2074 C 0.53773 0.49124 -0.07143
 C2075 C 0.53312 0.47637 -0.08507
 C2076 C 0.54122 0.47673 -0.10386
 H2077 H 0.58935 0.46578 -0.16087
 H2078 H 0.56638 0.52409 -0.16807
 H2079 H 0.55427 0.51816 -0.06677
 H2080 H 0.52329 0.46446 -0.08117
 H2081 H 0.55163 0.52231 -0.13533
 H2082 H 0.56801 0.51901 -0.09985
 H2083 H 0.57421 0.46382 -0.12832
 H2084 H 0.53748 0.46516 -0.11417
 C2085 C 0.06258 -0.00398 0.36641
 C2086 C 0.07140 0.01321 0.35911
 C2087 C 0.07954 0.01347 0.34033
 C2088 C 0.07912 -0.00349 0.32853
 C2089 C 0.06999 -0.02055 0.33572
 C2090 C 0.06182 -0.02079 0.35443
 C2091 C 0.05430 -0.00447 0.38648
 C2092 C 0.03645 -0.01414 0.39011
 C2093 C 0.02859 -0.01458 0.40896
 C2094 C 0.03839 -0.00537 0.42467
 C2095 C 0.05638 0.00413 0.42108
 C2096 C 0.06423 0.00459 0.40219
 H2097 H 0.08663 0.02677 0.33525
 H2098 H 0.06927 -0.03378 0.32688
 H2099 H 0.01468 -0.02199 0.41114
 H2100 H 0.06434 0.01137 0.43282
 H2101 H 0.05526 -0.03430 0.35969
 H2102 H 0.02836 -0.02108 0.37828
 H2103 H 0.07197 0.02647 0.36791
 H2104 H 0.07816 0.01191 0.39989
 C2105 C 0.13399 1.06485 1.00047
 C2106 C 0.13642 1.08500 0.99676
 C2107 C 0.15506 1.09348 0.99615
 C2108 C 0.17181 1.08212 0.99951
 C2109 C 0.16944 1.06192 1.00306
 C2110 C 0.15075 1.05338 1.00348
 C2111 C 0.11403 1.05598 1.00130
 C2112 C 0.10953 1.04112 1.01485
 C2113 C 0.09068 1.03303 1.01574
 C2114 C 0.07583 1.03976 1.00326
 C2115 C 0.08030 1.05464 0.98977
 C2116 C 0.09917 1.06255 0.98872
 H2117 H 0.15631 1.10900 0.99303
 H2118 H 0.18200 1.05277 1.00586
 H2119 H 0.08768 1.02164 1.02636
 H2120 H 0.06926 1.05998 0.97977
 H2121 H 0.14945 1.03776 1.00610
 H2122 H 0.12050 1.03594 1.02498
 H2123 H 0.12388 1.09436 0.99463
 H2124 H 0.10217 1.07368 0.97784
 C2125 C 0.63011 0.56359 0.50504
 C2126 C 0.63239 0.58354 0.50034
 C2127 C 0.65096 0.59210 0.49924
 C2128 C 0.66782 0.58107 0.50312
 C2129 C 0.66560 0.56107 0.50769
 C2130 C 0.64697 0.55242 0.50858
 C2131 C 0.61020 0.55462 0.50626
 C2132 C 0.60584 0.54023 0.52034
 C2133 C 0.58706 0.53197 0.52150
 C2134 C 0.57216 0.53809 0.50877
 C2135 C 0.57647 0.55254 0.49479
 C2136 C 0.59527 0.56059 0.49346
 H2137 H 0.65208 0.60745 0.49530
 H2138 H 0.67824 0.55216 0.51092
 H2139 H 0.58418 0.52090 0.53248
 H2140 H 0.56540 0.55738 0.48458
 H2141 H 0.64580 0.53694 0.51195
 H2142 H 0.61685 0.53551 0.53066
 H2143 H 0.61978 0.59270 0.49778
 H2144 H 0.59815 0.57132 0.48216
 C2145 C 0.63498 0.43640 -0.00230
 C2146 C 0.64402 0.43226 0.01567
 C2147 C 0.66292 0.42463 0.01620
 C2148 C 0.67316 0.42078 -0.00124
 C2149 C 0.66422 0.42530 -0.01921
 C2150 C 0.64536 0.43311 -0.01973
 C2151 C 0.61470 0.44395 -0.00276
 C2152 C 0.60978 0.45978 -0.01484
 C2153 C 0.59084 0.46738 -0.01461
 C2154 C 0.57636 0.45915 -0.00245
 C2155 C 0.58119 0.44296 0.00923
 C2156 C 0.60018 0.43552 0.00915
 H2157 H 0.66950 0.42172 0.03030
 H2158 H 0.67154 0.42224 -0.03293
 H2159 H 0.58759 0.47982 -0.02383
 H2160 H 0.57041 0.43628 0.01878
 H2161 H 0.63866 0.43606 -0.03378
 H2162 H 0.62073 0.46661 -0.02409
 H2163 H 0.63648 0.43502 0.02933
 H2164 H 0.60353 0.42313 0.01841
 C2165 C 0.13466 -0.06320 0.49361
 C2166 C 0.13780 -0.08019 0.50473
 C2167 C 0.15632 -0.08859 0.50579
 C2168 C 0.17238 -0.08005 0.49606
 C2169 C 0.16929 -0.06303 0.48493
 C2170 C 0.15064 -0.05477 0.48364
 C2171 C 0.11486 -0.05420 0.49280
 C2172 C 0.11273 -0.03369 0.49213
 C2173 C 0.09416 -0.02524 0.49232
 C2174 C 0.07728 -0.03709 0.49352
 C2175 C 0.07932 -0.05757 0.49389
 C2176 C 0.09787 -0.06603 0.49335
 H2177 H 0.15796 -0.10193 0.51414
 H2178 H 0.18130 -0.05594 0.47736
 H2179 H 0.09304 -0.00939 0.49215
 H2180 H 0.06655 -0.06708 0.49455
 H2181 H 0.14876 -0.04184 0.47472
 H2182 H 0.12542 -0.02407 0.49201
 H2183 H 0.12599 -0.08695 0.51289
 H2184 H 0.09886 -0.08188 0.49338
 C2185 C 0.36638 -0.06343 0.49626
 C2186 C 0.34933 -0.05251 0.49978
 C2187 C 0.33089 -0.06164 0.49958
 C2188 C 0.32904 -0.08187 0.49571
 C2189 C 0.34607 -0.09266 0.49183
 C2190 C 0.36447 -0.08362 0.49227
 C2191 C 0.38610 -0.05393 0.49685
 C2192 C 0.40097 -0.06019 0.48409
 C2193 C 0.41963 -0.05172 0.48493
 C2194 C 0.42384 -0.03655 0.49833
 C2195 C 0.40897 -0.03008 0.51094
 C2196 C 0.39035 -0.03876 0.51030
 H2197 H 0.31814 -0.05288 0.50282
 H2198 H 0.34524 -0.10818 0.48843
 H2199 H 0.43069 -0.05685 0.47482
 H2200 H 0.41180 -0.01847 0.52149
 H2201 H 0.37723 -0.09259 0.48976
 H2202 H 0.39817 -0.07151 0.47324
 H2203 H 0.35018 -0.03688 0.50261
 H2204 H 0.37939 -0.03378 0.52057
 C2205 C -0.13363 0.43961 1.00344
 C2206 C -0.14868 0.44756 0.99199
 C2207 C -0.16707 0.43841 0.99113
 C2208 C -0.17082 0.42119 1.00183
 C2209 C -0.15587 0.41365 1.01374
 C2210 C -0.13747 0.42267 1.01444
 C2211 C -0.11381 0.44861 1.00359
 C2212 C -0.09718 0.43678 1.00156
 C2213 C -0.07846 0.44519 1.00136
 C2214 C -0.07595 0.46559 1.00343
 C2215 C -0.09260 0.47740 1.00569
 C2216 C -0.11135 0.46900 1.00563
 H2217 H -0.17816 0.44450 0.98166
 H2218 H -0.15838 0.40073 1.02259
 H2219 H -0.06595 0.43568 0.99963
 H2220 H -0.09117 0.49318 1.00723
 H2221 H -0.12623 0.41645 1.02365
 H2222 H -0.09869 0.42103 0.99979
 H2223 H -0.14603 0.46054 0.98326
 H2224 H -0.12393 0.47841 1.00735
 C2225 C -0.13771 0.56148 0.49161
 C2226 C -0.14051 0.57845 0.50302
 C2227 C -0.15892 0.58702 0.50444
 C2228 C -0.17521 0.57870 0.49478
 C2229 C -0.17245 0.56176 0.48328
 C2230 C -0.15391 0.55329 0.48167
 C2231 C -0.11802 0.55227 0.49052
 C2232 C -0.11607 0.53173 0.48982
 C2233 C -0.09754 0.52313 0.48993
 C2234 C -0.08056 0.53486 0.49102
 C2235 C -0.08245 0.55537 0.49134
 C2236 C -0.10094 0.56397 0.49092
 H2237 H -0.16033 0.60030 0.51308
 H2238 H -0.18466 0.55488 0.47573
 H2239 H -0.09654 0.50727 0.48977
 H2240 H -0.06962 0.56480 0.49188
 H2241 H -0.15227 0.54037 0.47254
 H2242 H -0.12885 0.52223 0.48978
 H2243 H -0.12852 0.58503 0.51115
 H2244 H -0.10181 0.57982 0.49096
 C2245 C 0.36544 1.05987 -0.01311
 C2246 C 0.36285 1.07606 -0.00057
 C2247 C 0.34456 1.08477 0.00144
 C2248 C 0.32820 1.07739 -0.00881
 C2249 C 0.33074 1.06125 -0.02146
 C2250 C 0.34915 1.05261 -0.02360
 C2251 C 0.38497 1.05043 -0.01471
 C2252 C 0.38661 1.02991 -0.01631
 C2253 C 0.40500 1.02102 -0.01620
 C2254 C 0.42213 1.03243 -0.01427
 C2255 C 0.42054 1.05295 -0.01331
 C2256 C 0.40220 1.06185 -0.01367
 H2257 H 0.34330 1.09742 0.01100
 H2258 H 0.31845 1.05512 -0.02950
 H2259 H 0.40576 1.00515 -0.01689
 H2260 H 0.43349 1.06216 -0.01210
 H2261 H 0.35064 1.04029 -0.03355
 H2262 H 0.37368 1.02064 -0.01692
 H2263 H 0.37492 1.08188 0.00800
 H2264 H 0.40154 1.07771 -0.01294
 C2265 C 0.00525 1.13946 1.06219
 C2266 C 0.01769 1.14401 1.07798
 C2267 C 0.01794 1.16287 1.08612
 C2268 C 0.00552 1.17747 1.07883
 C2269 C -0.00693 1.17293 1.06304
 C2270 C -0.00694 1.15414 1.05468
 C2271 C 0.00487 1.11942 1.05367
 C2272 C 0.00592 1.11669 1.03332
 C2273 C 0.00557 1.09780 1.02526
 C2274 C 0.00384 1.08124 1.03737
 C2275 C 0.00269 1.08399 1.05775
 C2276 C 0.00337 1.10290 1.06583
 H2277 H 0.02753 1.16596 1.09841
 H2278 H -0.01660 1.18395 1.05715
 H2279 H 0.00639 1.09616 1.00950
 H2280 H 0.00141 1.07152 1.06746
 H2281 H -0.01674 1.15095 1.04259
 H2282 H 0.00721 1.12920 1.02366
 H2283 H 0.02731 1.13297 1.08393
 H2284 H 0.00242 1.10465 1.08157
 C2285 C 0.49676 0.63614 0.56792
 C2286 C 0.50276 0.63898 0.58740
 C2287 C 0.50323 0.65777 0.59564
 C2288 C 0.49769 0.67417 0.58459
 C2289 C 0.49137 0.67134 0.56520
 C2290 C 0.49098 0.65250 0.55691
 C2291 C 0.49683 0.61618 0.55910
 C2292 C 0.50384 0.61320 0.54000
 C2293 C 0.50437 0.59433 0.53189
 C2294 C 0.49782 0.57801 0.54267
 C2295 C 0.49075 0.58103 0.56177
 C2296 C 0.49029 0.59989 0.56989
 H2297 H 0.50792 0.65946 0.61071
 H2298 H 0.48710 0.68372 0.55633
 H2299 H 0.50988 0.59257 0.51713
 H2300 H 0.48553 0.56883 0.57048
 H2301 H 0.48609 0.65072 0.54192
 H2302 H 0.50921 0.62544 0.53143
 H2303 H 0.50745 0.62670 0.59620
 H2304 H 0.48462 0.60175 0.58458
 C2305 C -0.00362 0.63215 0.43531
 C2306 C -0.00659 0.64916 0.44667
 C2307 C -0.00628 0.66774 0.43802
 C2308 C -0.00288 0.66974 0.41783
 C2309 C 0.00039 0.65274 0.40656
 C2310 C -0.00010 0.63421 0.41515
 C2311 C -0.00428 0.61233 0.44433
 C2312 C 0.00840 0.59748 0.43787
 C2313 C 0.00757 0.57875 0.44606
 C2314 C -0.00580 0.57446 0.46108
 C2315 C -0.01843 0.58930 0.46763
 C2316 C -0.01773 0.60798 0.45928
 H2317 H -0.00900 0.68049 0.44710
 H2318 H 0.00341 0.65373 0.39104
 H2319 H 0.01764 0.56771 0.44083
 H2320 H -0.02899 0.58643 0.47910
 H2321 H 0.00202 0.62146 0.40590
 H2322 H 0.01919 0.60039 0.42664
 H2323 H -0.00907 0.64814 0.46228
 H2324 H -0.02795 0.61894 0.46437
 C2325 C 0.49993 1.12859 -0.06723
 C2326 C 0.49219 1.14500 -0.05741
 C2327 C 0.49331 1.16371 -0.06572
 C2328 C 0.50247 1.16657 -0.08393
 C2329 C 0.51062 1.15023 -0.09348
 C2330 C 0.50914 1.13151 -0.08540
 C2331 C 0.49849 1.10853 -0.05866
 C2332 C 0.51336 1.09472 -0.06196
 C2333 C 0.51199 1.07586 -0.05419
 C2334 C 0.49597 1.07045 -0.04251
 C2335 C 0.48115 1.08416 -0.03902
 C2336 C 0.48228 1.10293 -0.04719
 H2337 H 0.48666 1.17585 -0.05799
 H2338 H 0.51818 1.15181 -0.10730
 H2339 H 0.52379 1.06566 -0.05684
 H2340 H 0.46860 1.08030 -0.03012
 H2341 H 0.51502 1.11930 -0.09362
 H2342 H 0.52631 1.09854 -0.07026
 H2343 H 0.48531 1.14346 -0.04323
 H2344 H 0.47034 1.11296 -0.04463
 C2345 C 0.50732 0.36119 -0.06049
 C2346 C 0.50178 0.34441 -0.04985
 C2347 C 0.50160 0.32588 -0.05879
 C2348 C 0.50708 0.32373 -0.07850
 C2349 C 0.51266 0.34052 -0.08908
 C2350 C 0.51280 0.35901 -0.08018
 C2351 C 0.50720 0.38096 -0.05122
 C2352 C 0.50018 0.39722 -0.06159
 C2353 C 0.49990 0.41582 -0.05292
 C2354 C 0.50665 0.41863 -0.03364
 C2355 C 0.51385 0.40238 -0.02332
 C2356 C 0.51408 0.38375 -0.03201
 H2357 H 0.49734 0.31320 -0.05024
 H2358 H 0.51669 0.33942 -0.10437
 H2359 H 0.49421 0.42797 -0.06130
 H2360 H 0.51917 0.40400 -0.00846
 H2361 H 0.51733 0.37161 -0.08871
 H2362 H 0.49455 0.39550 -0.07634
 H2363 H 0.49729 0.34567 -0.03470
 H2364 H 0.51981 0.37154 -0.02375
 C2365 C 0.00948 -0.13586 0.43838
 C2366 C 0.00137 -0.15168 0.44883
 C2367 C 0.00075 -0.17050 0.44060
 C2368 C 0.00838 -0.17392 0.42181
 C2369 C 0.01676 -0.15815 0.41149
 C2370 C 0.01723 -0.13930 0.41966
 C2371 C 0.00956 -0.11578 0.44690
 C2372 C 0.00418 -0.09957 0.43551
 C2373 C 0.00352 -0.08075 0.44377
 C2374 C 0.00838 -0.07775 0.46358
 C2375 C 0.01414 -0.09397 0.47484
 C2376 C 0.01464 -0.11276 0.46661
 H2377 H -0.00570 -0.18239 0.44891
 H2378 H 0.02255 -0.16031 0.39689
 H2379 H -0.00094 -0.06860 0.43468
 H2380 H 0.01800 -0.09222 0.49013
 H2381 H 0.02371 -0.12741 0.41135
 H2382 H 0.00003 -0.10151 0.42031
 H2383 H -0.00486 -0.14941 0.46323
 H2384 H 0.01907 -0.12496 0.47566
 C2385 C 0.50111 -0.13305 0.55831
 C2386 C 0.51676 -0.13742 0.57088
 C2387 C 0.51779 -0.15565 0.58004
 C2388 C 0.50325 -0.16999 0.57678
 C2389 C 0.48793 -0.16592 0.56372
 C2390 C 0.48684 -0.14761 0.55460
 C2391 C 0.49952 -0.11322 0.54951
 C2392 C 0.49313 -0.11087 0.53010
 C2393 C 0.49204 -0.09217 0.52183
 C2394 C 0.49737 -0.07540 0.53277
 C2395 C 0.50348 -0.07776 0.55227
 C2396 C 0.50449 -0.09642 0.56054
 H2397 H 0.52994 -0.15852 0.58979
 H2398 H 0.47642 -0.17664 0.56110
 H2399 H 0.48734 -0.09090 0.50674
 H2400 H 0.50755 -0.06518 0.56118
 H2401 H 0.47450 -0.14465 0.54514
 H2402 H 0.48936 -0.12352 0.52117
 H2403 H 0.52824 -0.12671 0.57368
 H2404 H 0.50906 -0.09768 0.57566
 C2405 C -0.00035 0.36926 1.06346
 C2406 C -0.00778 0.36671 1.08238
 C2407 C -0.00655 0.34858 1.09169
 C2408 C 0.00233 0.33229 1.08245
 C2409 C 0.00943 0.33497 1.06317
 C2410 C 0.00807 0.35316 1.05386
 C2411 C -0.00110 0.38880 1.05402
 C2412 C -0.00659 0.39067 1.03429
 C2413 C -0.00729 0.40918 1.02553
 C2414 C -0.00231 0.42618 1.03628
 C2415 C 0.00317 0.42425 1.05602
 C2416 C 0.00371 0.40579 1.06479
 H2417 H -0.01331 0.34744 1.10594
 H2418 H 0.01690 0.32340 1.05539
 H2419 H -0.01153 0.41013 1.01029
 H2420 H 0.00710 0.43701 1.06474
 H2421 H 0.01414 0.35480 1.03931
 H2422 H -0.01054 0.37783 1.02570
 H2423 H -0.01482 0.37875 1.08995
 H2424 H 0.00820 0.40478 1.07996
 C2425 C 0.75776 0.31351 0.11245
 C2426 C 0.76410 0.30375 0.09545
 C2427 C 0.76268 0.31263 0.07706
 C2428 C 0.75536 0.33192 0.07503
 C2429 C 0.74891 0.34145 0.09232
 C2430 C 0.74990 0.33235 0.11052
 C2431 C 0.75900 0.30410 0.13210
 C2432 C 0.76195 0.31560 0.14908
 C2433 C 0.76180 0.30703 0.16761
 C2434 C 0.75924 0.28669 0.16960
 C2435 C 0.75703 0.27504 0.15272
 C2436 C 0.75670 0.28366 0.13418
 H2437 H 0.76858 0.30458 0.06477
 H2438 H 0.74191 0.35562 0.09198
 H2439 H 0.76378 0.31630 0.18041
 H2440 H 0.75486 0.25932 0.15389
 H2441 H 0.74405 0.34007 0.12308
 H2442 H 0.76436 0.33129 0.14811
 H2443 H 0.77061 0.28936 0.09633
 H2444 H 0.75408 0.27432 0.12158
 C2445 C 0.25647 0.81496 0.61574
 C2446 C 0.26721 0.80730 0.59989
 C2447 C 0.26593 0.81576 0.58131
 C2448 C 0.25411 0.83221 0.57826
 C2449 C 0.24333 0.83984 0.59399
 C2450 C 0.24438 0.83124 0.61246
 C2451 C 0.25768 0.80600 0.63555
 C2452 C 0.25651 0.81777 0.65251
 C2453 C 0.25660 0.80929 0.67110
 C2454 C 0.25818 0.78887 0.67319
 C2455 C 0.25995 0.77713 0.65632
 C2456 C 0.25958 0.78558 0.63772
 H2457 H 0.27453 0.80975 0.56943
 H2458 H 0.23391 0.85237 0.59192
 H2459 H 0.25542 0.81874 0.68384
 H2460 H 0.26104 0.76133 0.65746
 H2461 H 0.23551 0.83725 0.62413
 H2462 H 0.25553 0.83358 0.65146
 H2463 H 0.27689 0.79497 0.60190
 H2464 H 0.26023 0.77601 0.62504
 C2465 C 0.74361 0.68800 0.61646
 C2466 C 0.73151 0.67173 0.61243
 C2467 C 0.73189 0.66271 0.59405
 C2468 C 0.74458 0.66956 0.57933
 C2469 C 0.75641 0.68612 0.58327
 C2470 C 0.75585 0.69530 0.60163
 C2471 C 0.74379 0.69694 0.63625
 C2472 C 0.74283 0.71739 0.63865
 C2473 C 0.74311 0.72575 0.65739
 C2474 C 0.74468 0.71383 0.67406
 C2475 C 0.74567 0.69337 0.67162
 C2476 C 0.74510 0.68501 0.65291
 H2477 H 0.72220 0.65032 0.59138
 H2478 H 0.76651 0.69165 0.57238
 H2479 H 0.74240 0.74158 0.65880
 H2480 H 0.74683 0.68380 0.68417
 H2481 H 0.76542 0.70775 0.60445
 H2482 H 0.74168 0.72687 0.62603
 H2483 H 0.72171 0.66603 0.62352
 H2484 H 0.74602 0.66921 0.65142
 C2485 C 0.25022 0.18082 0.11876
 C2486 C 0.25114 0.16042 0.11648
 C2487 C 0.25203 0.15186 0.09790
 C2488 C 0.25180 0.16337 0.08061
 C2489 C 0.25098 0.18405 0.08325
 C2490 C 0.25021 0.19253 0.10194
 C2491 C 0.24941 0.18978 0.13865
 C2492 C 0.23768 0.20624 0.14238
 C2493 C 0.23700 0.21462 0.16110
 C2494 C 0.24795 0.20666 0.17655
 C2495 C 0.25955 0.19012 0.17284
 C2496 C 0.26034 0.18184 0.15412
 H2497 H 0.25376 0.13614 0.09763
 H2498 H 0.25001 0.19407 0.07112
 H2499 H 0.22784 0.22731 0.16347
 H2500 H 0.26833 0.18373 0.18434
 H2501 H 0.24967 0.20837 0.10318
 H2502 H 0.22884 0.21252 0.13088
 H2503 H 0.25112 0.15091 0.12913
 H2504 H 0.26980 0.16939 0.15170
 C2505 C 0.25700 0.19029 0.88779
 C2506 C 0.24338 0.17529 0.89180
 C2507 C 0.24255 0.16668 0.91028
 C2508 C 0.25518 0.17296 0.92537
 C2509 C 0.26876 0.18805 0.92143
 C2510 C 0.26968 0.19661 0.90285
 C2511 C 0.25781 0.19928 0.86797
 C2512 C 0.26120 0.21953 0.86570
 C2513 C 0.26109 0.22802 0.84709
 C2514 C 0.25744 0.21648 0.83033
 C2515 C 0.25437 0.19619 0.83257
 C2516 C 0.25466 0.18769 0.85113
 H2517 H 0.23215 0.15485 0.91261
 H2518 H 0.27861 0.19335 0.93275
 H2519 H 0.26344 0.24371 0.84588
 H2520 H 0.25175 0.18683 0.81995
 H2521 H 0.28048 0.20800 0.90022
 H2522 H 0.26345 0.22893 0.87835
 H2523 H 0.23317 0.17026 0.88069
 H2524 H 0.25243 0.17199 0.85227
 C2525 C 0.75218 0.68716 0.38638
 C2526 C 0.73958 0.67117 0.38999
 C2527 C 0.73874 0.66258 0.40848
 C2528 C 0.75027 0.66987 0.42401
 C2529 C 0.76285 0.68591 0.42045
 C2530 C 0.76385 0.69440 0.40186
 C2531 C 0.75295 0.69629 0.36661
 C2532 C 0.75536 0.71671 0.36456
 C2533 C 0.75550 0.72531 0.34601
 C2534 C 0.75300 0.71374 0.32907
 C2535 C 0.75075 0.69333 0.33108
 C2536 C 0.75086 0.68470 0.34960
 H2537 H 0.72915 0.65002 0.41051
 H2538 H 0.77182 0.69203 0.43208
 H2539 H 0.75714 0.74109 0.34497
 H2540 H 0.74902 0.68398 0.31831
 H2541 H 0.77390 0.70653 0.39958
 H2542 H 0.75670 0.72614 0.37730
 H2543 H 0.73016 0.66537 0.37856
 H2544 H 0.74940 0.66890 0.35057
 C2545 C 0.24369 0.80908 0.38514
 C2546 C 0.25344 0.79975 0.40061
 C2547 C 0.25397 0.80830 0.41928
 C2548 C 0.24453 0.82619 0.42289
 C2549 C 0.23459 0.83538 0.40745
 C2550 C 0.23426 0.82696 0.38876
 C2551 C 0.24350 0.80029 0.36522
 C2552 C 0.24728 0.81197 0.34872
 C2553 C 0.24736 0.80366 0.32996
 C2554 C 0.24343 0.78353 0.32727
 C2555 C 0.23943 0.77192 0.34379
 C2556 C 0.23959 0.78019 0.36256
 H2557 H 0.26166 0.80088 0.43093
 H2558 H 0.22738 0.84930 0.40976
 H2559 H 0.25046 0.81302 0.31755
 H2560 H 0.23640 0.75636 0.34226
 H2561 H 0.22652 0.83438 0.37714
 H2562 H 0.25049 0.82748 0.35038
 H2563 H 0.26095 0.78601 0.39817
 H2564 H 0.23645 0.77090 0.37502
 C2565 C 0.74588 0.31352 0.88158
 C2566 C 0.73965 0.33290 0.88456
 C2567 C 0.73995 0.34126 0.90327
 C2568 C 0.74655 0.33046 0.91944
 C2569 C 0.75281 0.31108 0.91648
 C2570 C 0.75240 0.30266 0.89775
 C2571 C 0.74568 0.30475 0.86164
 C2572 C 0.73911 0.28538 0.85862
 C2573 C 0.73890 0.27716 0.83982
 C2574 C 0.74539 0.28809 0.82361
 C2575 C 0.75193 0.30750 0.82667
 C2576 C 0.75203 0.31574 0.84545
 H2577 H 0.73526 0.35631 0.90504
 H2578 H 0.75785 0.30237 0.92868
 H2579 H 0.73377 0.26217 0.83803
 H2580 H 0.75704 0.31635 0.81455
 H2581 H 0.75745 0.28774 0.89587
 H2582 H 0.73391 0.27664 0.87078
 H2583 H 0.73438 0.34156 0.87242
 H2584 H 0.75737 0.33064 0.84736
 C2585 C 0.81599 0.38515 0.23980
 C2586 C 0.80402 0.40156 0.24296
 C2587 C 0.81205 0.42052 0.24328
 C2588 C 0.83220 0.42347 0.24038
 C2589 C 0.84415 0.40704 0.23724
 C2590 C 0.83614 0.38812 0.23694
 C2591 C 0.80752 0.36499 0.23958
 C2592 C 0.81738 0.34940 0.24859
 C2593 C 0.80920 0.33052 0.24874
 C2594 C 0.79094 0.32680 0.23989
 C2595 C 0.78126 0.34235 0.23059
 C2596 C 0.78945 0.36121 0.23045
 H2597 H 0.80245 0.43288 0.24563
 H2598 H 0.85979 0.40878 0.23525
 H2599 H 0.81704 0.31892 0.25608
 H2600 H 0.76723 0.34003 0.22352
 H2601 H 0.84572 0.37580 0.23429
 H2602 H 0.83125 0.35189 0.25592
 H2603 H 0.78847 0.39973 0.24544
 H2604 H 0.78166 0.37283 0.22310
 C2605 C 0.31435 0.88711 0.74194
 C2606 C 0.30269 0.90376 0.74506
 C2607 C 0.31100 0.92261 0.74487
 C2608 C 0.33114 0.92520 0.74148
 C2609 C 0.34276 0.90853 0.73839
 C2610 C 0.33447 0.88973 0.73859
 C2611 C 0.30563 0.86706 0.74224
 C2612 C 0.31557 0.85149 0.75118
 C2613 C 0.30733 0.83265 0.75159
 C2614 C 0.28892 0.82893 0.74307
 C2615 C 0.27906 0.84449 0.73397
 C2616 C 0.28732 0.86332 0.73357
 H2617 H 0.30165 0.93516 0.74719
 H2618 H 0.35837 0.90998 0.73605
 H2619 H 0.31530 0.82106 0.75879
 H2620 H 0.26489 0.84217 0.72719
 H2621 H 0.34382 0.87724 0.73594
 H2622 H 0.32961 0.85395 0.75820
 H2623 H 0.28717 0.90221 0.74789
 H2624 H 0.27943 0.87493 0.72630
 C2625 C 0.18483 0.88048 0.25206
 C2626 C 0.16465 0.88220 0.25492
 C2627 C 0.15564 0.90046 0.25413
 C2628 C 0.16649 0.91791 0.25042
 C2629 C 0.18700 0.91590 0.24795
 C2630 C 0.19594 0.89751 0.24872
 C2631 C 0.19412 0.86087 0.25236
 C2632 C 0.21230 0.85811 0.26152
 C2633 C 0.22086 0.83954 0.26188
 C2634 C 0.21140 0.82333 0.25306
 C2635 C 0.19322 0.82615 0.24388
 C2636 C 0.18471 0.84469 0.24352
 H2637 H 0.14021 0.90059 0.25750
 H2638 H 0.19638 0.92817 0.24429
 H2639 H 0.23486 0.83790 0.26910
 H2640 H 0.18557 0.81406 0.23682
 H2641 H 0.21154 0.89659 0.24614
 H2642 H 0.21979 0.87027 0.26865
 H2643 H 0.15577 0.86938 0.25814
 H2644 H 0.17083 0.84640 0.23608
 C2645 C 0.68604 0.38547 0.75128
 C2646 C 0.69630 0.40233 0.75766
 C2647 C 0.68709 0.42059 0.75838
 C2648 C 0.66745 0.42250 0.75253
 C2649 C 0.65734 0.40568 0.74586
 C2650 C 0.66643 0.38742 0.74542
 C2651 C 0.69562 0.36590 0.75080
 C2652 C 0.69075 0.35208 0.73616
 C2653 C 0.69918 0.33348 0.73604
 C2654 C 0.71299 0.32836 0.75032
 C2655 C 0.71817 0.34220 0.76477
 C2656 C 0.70946 0.36071 0.76511
 H2657 H 0.69530 0.43315 0.76379
 H2658 H 0.64234 0.40657 0.74085
 H2659 H 0.69511 0.32320 0.72457
 H2660 H 0.72870 0.33860 0.77604
 H2661 H 0.65792 0.37478 0.74072
 H2662 H 0.68053 0.35565 0.72463
 H2663 H 0.71150 0.40149 0.76200
 H2664 H 0.71334 0.37079 0.77681
 C2665 C 0.68705 0.61599 0.74968
 C2666 C 0.68027 0.60661 0.73260
 C2667 C 0.67142 0.58805 0.73357
 C2668 C 0.66939 0.57837 0.75163
 C2669 C 0.67669 0.58764 0.76862
 C2670 C 0.68528 0.60628 0.76768
 C2671 C 0.69571 0.63598 0.74884
 C2672 C 0.68978 0.65051 0.76218
 C2673 C 0.69806 0.66932 0.76160
 C2674 C 0.71265 0.67391 0.74784
 C2675 C 0.71852 0.65938 0.73443
 C2676 C 0.71002 0.64064 0.73483
 H2677 H 0.66570 0.58156 0.72023
 H2678 H 0.67580 0.58047 0.78271
 H2679 H 0.69326 0.68016 0.77217
 H2680 H 0.72968 0.66249 0.72360
 H2681 H 0.69069 0.61309 0.78101
 H2682 H 0.67863 0.64732 0.77300
 H2683 H 0.68133 0.61388 0.71857
 H2684 H 0.71488 0.62965 0.72444
 C2685 C 0.19149 0.10863 0.25270
 C2686 C 0.19160 0.09696 0.23568
 C2687 C 0.18256 0.07851 0.23551
 C2688 C 0.17324 0.07130 0.25237
 C2689 C 0.17359 0.08271 0.26955
 C2690 C 0.18258 0.10122 0.26970
 C2691 C 0.20016 0.12867 0.25250
 C2692 C 0.19045 0.14437 0.26156
 C2693 C 0.19834 0.16335 0.26095
 C2694 C 0.21616 0.16704 0.25131
 C2695 C 0.22589 0.15128 0.24230
 C2696 C 0.21796 0.13232 0.24287
 H2697 H 0.18268 0.06994 0.22211
 H2698 H 0.16638 0.07759 0.28271
 H2699 H 0.19044 0.17512 0.26805
 H2700 H 0.23967 0.15354 0.23481
 H2701 H 0.18248 0.10980 0.28309
 H2702 H 0.17656 0.14205 0.26885
 H2703 H 0.19822 0.10233 0.22232
 H2704 H 0.22586 0.12047 0.23593
 C2705 C 0.31435 0.11903 0.75560
 C2706 C 0.33456 0.11675 0.75851
 C2707 C 0.34296 0.09816 0.75788
 C2708 C 0.33138 0.08134 0.75440
 C2709 C 0.31116 0.08358 0.75151
 C2710 C 0.30273 0.10222 0.75213
 C2711 C 0.30553 0.13889 0.75608
 C2712 C 0.28735 0.14198 0.76511
 C2713 C 0.27906 0.16067 0.76552
 C2714 C 0.28877 0.17674 0.75689
 C2715 C 0.30702 0.17365 0.74794
 C2716 C 0.31528 0.15496 0.74753
 H2717 H 0.35863 0.09699 0.75988
 H2718 H 0.30182 0.07090 0.74893
 H2719 H 0.26502 0.16250 0.77260
 H2720 H 0.31486 0.18564 0.74106
 H2721 H 0.28714 0.10351 0.74964
 H2722 H 0.27961 0.12997 0.77207
 H2723 H 0.34388 0.12936 0.76142
 H2724 H 0.32918 0.15302 0.74022
 C2725 C 0.81144 0.61689 0.25563
 C2726 C 0.83152 0.61480 0.25942
 C2727 C 0.84012 0.59630 0.25912
 C2728 C 0.82887 0.57937 0.25508
 C2729 C 0.80876 0.58142 0.25135
 C2730 C 0.80012 0.59998 0.25166
 C2731 C 0.80245 0.63669 0.25568
 C2732 C 0.78390 0.63969 0.26398
 C2733 C 0.77556 0.65836 0.26412
 C2734 C 0.78558 0.67449 0.25595
 C2735 C 0.80414 0.67146 0.24766
 C2736 C 0.81246 0.65279 0.24752
 H2737 H 0.85571 0.59529 0.26176
 H2738 H 0.79967 0.56866 0.24832
 H2739 H 0.76126 0.66014 0.27067
 H2740 H 0.81224 0.68348 0.24114
 H2741 H 0.78465 0.60113 0.24850
 H2742 H 0.77594 0.62763 0.27061
 H2743 H 0.84059 0.62749 0.26275
 H2744 H 0.82665 0.65091 0.24076
 C2745 C 0.88694 0.25464 0.18535
 C2746 C 0.89746 0.27219 0.18251
 C2747 C 0.91617 0.27190 0.17432
 C2748 C 0.92484 0.25403 0.16893
 C2749 C 0.91451 0.23643 0.17215
 C2750 C 0.89570 0.23674 0.18019
 C2751 C 0.86684 0.25505 0.19351
 C2752 C 0.85189 0.24340 0.18524
 C2753 C 0.83296 0.24375 0.19298
 C2754 C 0.82862 0.25564 0.20928
 C2755 C 0.84358 0.26741 0.21743
 C2756 C 0.86245 0.26717 0.20958
 H2757 H 0.92387 0.28567 0.17214
 H2758 H 0.92079 0.22248 0.16798
 H2759 H 0.82181 0.23446 0.18637
 H2760 H 0.84076 0.27674 0.22999
 H2761 H 0.88799 0.22297 0.18241
 H2762 H 0.85482 0.23411 0.17268
 H2763 H 0.89103 0.28620 0.18625
 H2764 H 0.87373 0.27621 0.21633
 C2765 C 0.38588 0.75666 0.68744
 C2766 C 0.39322 0.73935 0.67901
 C2767 C 0.41199 0.73903 0.67090
 C2768 C 0.42379 0.75603 0.67097
 C2769 C 0.41655 0.77324 0.67966
 C2770 C 0.39782 0.77355 0.68783
 C2771 C 0.36581 0.75712 0.69573
 C2772 C 0.36215 0.76689 0.71349
 C2773 C 0.34334 0.76706 0.72147
 C2774 C 0.32771 0.75749 0.71185
 C2775 C 0.33133 0.74798 0.69390
 C2776 C 0.35018 0.74777 0.68596
 H2777 H 0.41709 0.72560 0.66414
 H2778 H 0.42537 0.78652 0.68008
 H2779 H 0.34111 0.77451 0.73532
 H2780 H 0.31966 0.74047 0.68607
 H2781 H 0.39253 0.78713 0.69410
 H2782 H 0.37393 0.77408 0.72145
 H2783 H 0.38445 0.72604 0.67872
 H2784 H 0.35250 0.74037 0.67210
 C2785 C 0.38687 0.25285 0.81321
 C2786 C 0.39502 0.26997 0.82157
 C2787 C 0.41356 0.26959 0.83028
 C2788 C 0.42419 0.25204 0.83094
 C2789 C 0.41616 0.23504 0.82228
 C2790 C 0.39773 0.23544 0.81350
 C2791 C 0.36695 0.25294 0.80457
 C2792 C 0.36309 0.24286 0.78697
 C2793 C 0.34422 0.24237 0.77912
 C2794 C 0.32873 0.25189 0.78871
 C2795 C 0.33263 0.26205 0.80629
 C2796 C 0.35155 0.26260 0.81410
 H2797 H 0.41935 0.28287 0.83696
 H2798 H 0.42412 0.22136 0.82240
 H2799 H 0.34179 0.23447 0.76552
 H2800 H 0.32108 0.26958 0.81405
 H2801 H 0.39176 0.22199 0.80733
 H2802 H 0.37472 0.23546 0.77919
 H2803 H 0.38705 0.28364 0.82138
 H2804 H 0.35406 0.27027 0.82781
 C2805 C 0.88271 0.74924 0.31587
 C2806 C 0.89877 0.75783 0.30638
 C2807 C 0.91720 0.75835 0.31531
 C2808 C 0.92030 0.75016 0.33414
 C2809 C 0.90383 0.74121 0.34323
 C2810 C 0.88547 0.74087 0.33430
 C2811 C 0.86305 0.74906 0.30670
 C2812 C 0.84645 0.75367 0.31786
 C2813 C 0.82786 0.75342 0.30935
 C2814 C 0.82544 0.74840 0.28950
 C2815 C 0.84207 0.74371 0.27835
 C2816 C 0.86070 0.74413 0.28684
 H2817 H 0.92854 0.76618 0.30752
 H2818 H 0.90484 0.73343 0.35691
 H2819 H 0.81539 0.75711 0.31837
 H2820 H 0.84074 0.73983 0.26300
 H2821 H 0.87341 0.73366 0.34172
 H2822 H 0.84788 0.75771 0.33316
 H2823 H 0.89695 0.76466 0.29222
 H2824 H 0.87324 0.74034 0.27796
 C2825 C 0.11275 0.74929 0.31014
 C2826 C 0.10921 0.73835 0.32718
 C2827 C 0.09058 0.73761 0.33547
 C2828 C 0.07482 0.74749 0.32678
 C2829 C 0.07827 0.75823 0.30958
 C2830 C 0.09702 0.75920 0.30141
 C2831 C 0.13277 0.75025 0.30159
 C2832 C 0.13548 0.75077 0.28118
 C2833 C 0.15430 0.75114 0.27321
 C2834 C 0.17085 0.75071 0.28543
 C2835 C 0.16820 0.75035 0.30580
 C2836 C 0.14939 0.75030 0.31379
 H2837 H 0.08866 0.72951 0.34894
 H2838 H 0.06648 0.76587 0.30236
 H2839 H 0.15590 0.75127 0.25743
 H2840 H 0.18068 0.75026 0.31559
 H2841 H 0.09922 0.76796 0.28841
 H2842 H 0.12307 0.75043 0.27132
 H2843 H 0.12083 0.73022 0.33413
 H2844 H 0.14791 0.75040 0.32956
 C2845 C 0.61423 0.24919 0.80614
 C2846 C 0.59975 0.26330 0.80265
 C2847 C 0.58140 0.26170 0.81162
 C2848 C 0.57724 0.24601 0.82427
 C2849 C 0.59147 0.23155 0.82715
 C2850 C 0.60973 0.23310 0.81816
 C2851 C 0.63419 0.25145 0.79782
 C2852 C 0.65066 0.24683 0.80920
 C2853 C 0.66946 0.24829 0.80137
 C2854 C 0.67229 0.25449 0.78197
 C2855 C 0.65585 0.25956 0.77071
 C2856 C 0.63699 0.25805 0.77856
 H2857 H 0.57075 0.27315 0.80929
 H2858 H 0.58853 0.21912 0.83655
 H2859 H 0.68176 0.24441 0.81053
 H2860 H 0.65749 0.26433 0.75570
 H2861 H 0.62040 0.22174 0.82074
 H2862 H 0.64902 0.24212 0.82423
 H2863 H 0.60282 0.27593 0.79357
 H2864 H 0.62459 0.26161 0.76941
 C2865 C 0.61610 0.74891 0.68960
 C2866 C 0.60035 0.75776 0.69938
 C2867 C 0.58202 0.75906 0.69034
 C2868 C 0.57907 0.75146 0.67138
 C2869 C 0.59472 0.74212 0.66188
 C2870 C 0.61302 0.74092 0.67085
 C2871 C 0.63586 0.74844 0.69858
 C2872 C 0.65245 0.75294 0.68728
 C2873 C 0.67111 0.75265 0.69560
 C2874 C 0.67364 0.74774 0.71540
 C2875 C 0.65703 0.74313 0.72669
 C2876 C 0.63832 0.74357 0.71838
 H2877 H 0.57030 0.76646 0.69798
 H2878 H 0.59282 0.73567 0.64747
 H2879 H 0.68355 0.75629 0.68646
 H2880 H 0.65846 0.73934 0.74200
 H2881 H 0.62478 0.73367 0.66313
 H2882 H 0.65096 0.75698 0.67204
 H2883 H 0.60238 0.76418 0.71379
 H2884 H 0.62579 0.73990 0.72737
 C2885 C 0.11623 0.24014 0.19257
 C2886 C 0.10337 0.25488 0.19879
 C2887 C 0.08503 0.25685 0.18997
 C2888 C 0.07907 0.24385 0.17505
 C2889 C 0.09169 0.22875 0.16922
 C2890 C 0.11021 0.22703 0.17777
 C2891 C 0.13611 0.23892 0.20107
 C2892 C 0.15261 0.23845 0.18884
 C2893 C 0.17145 0.23851 0.19685
 C2894 C 0.17413 0.23864 0.21726
 C2895 C 0.15758 0.23859 0.22947
 C2896 C 0.13875 0.23893 0.22145
 H2897 H 0.07551 0.26859 0.19469
 H2898 H 0.08746 0.21867 0.15762
 H2899 H 0.18393 0.23847 0.18709
 H2900 H 0.15919 0.23878 0.24525
 H2901 H 0.11987 0.21551 0.17280
 H2902 H 0.15090 0.23857 0.17307
 H2903 H 0.10776 0.26523 0.21010
 H2904 H 0.12623 0.23923 0.23115
 C2905 C -0.06281 0.99951 0.86641
 C2906 C -0.05622 0.98781 0.85080
 C2907 C -0.06440 0.98957 0.83212
 C2908 C -0.07971 1.00291 0.82853
 C2909 C -0.08594 1.01485 0.84425
 C2910 C -0.07757 1.01323 0.86280
 C2911 C -0.05433 0.99759 0.88637
 C2912 C -0.06617 0.99982 0.90307
 C2913 C -0.05804 0.99914 0.92183
 C2914 C -0.03792 0.99597 0.92436
 C2915 C -0.02617 0.99309 0.90771
 C2916 C -0.03426 0.99399 0.88894
 H2917 H -0.05933 0.97959 0.82088
 H2918 H -0.09687 1.02605 0.84226
 H2919 H -0.06752 1.00123 0.93436
 H2920 H -0.01058 0.99075 0.90914
 H2921 H -0.08254 1.02298 0.87430
 H2922 H -0.08176 1.00215 0.90166
 H2923 H -0.04505 0.97688 0.85312
 H2924 H -0.02466 0.99244 0.87644
 C2925 C 0.43648 0.49587 0.37062
 C2926 C 0.44081 0.48191 0.35604
 C2927 C 0.43273 0.48349 0.33729
 C2928 C 0.42010 0.49900 0.33278
 C2929 C 0.41617 0.51320 0.34720
 C2930 C 0.42430 0.51168 0.36587
 C2931 C 0.44447 0.49398 0.39076
 C2932 C 0.43289 0.49875 0.40709
 C2933 C 0.44063 0.49797 0.42600
 C2934 C 0.46012 0.49231 0.42907
 C2935 C 0.47152 0.48694 0.41278
 C2936 C 0.46379 0.48780 0.39385
 H2937 H 0.43581 0.47221 0.32652
 H2938 H 0.40673 0.52548 0.34402
 H2939 H 0.43138 0.50206 0.43820
 H2940 H 0.48661 0.48256 0.41459
 H2941 H 0.42107 0.52295 0.37661
 H2942 H 0.41782 0.50316 0.40524
 H2943 H 0.45000 0.46947 0.35928
 H2944 H 0.47314 0.48417 0.38159
 C2945 C 0.56261 0.00549 0.36147
 C2946 C 0.56803 -0.01248 0.35303
 C2947 C 0.57624 -0.01316 0.33430
 C2948 C 0.57962 0.00421 0.32357
 C2949 C 0.57371 0.02217 0.33212
 C2950 C 0.56530 0.02276 0.35072
 C2951 C 0.55433 0.00629 0.38150
 C2952 C 0.53792 0.01790 0.38556
 C2953 C 0.52997 0.01844 0.40440
 C2954 C 0.53839 0.00752 0.41962
 C2955 C 0.55505 -0.00379 0.41559
 C2956 C 0.56287 -0.00447 0.39671
 H2957 H 0.58079 -0.02732 0.32882
 H2958 H 0.57499 0.03592 0.32436
 H2959 H 0.51714 0.02730 0.40700
 H2960 H 0.56186 -0.01243 0.42695
 H2961 H 0.56117 0.03682 0.35685
 H2962 H 0.53100 0.02626 0.37407
 H2963 H 0.56594 -0.02606 0.36098
 H2964 H 0.57569 -0.01333 0.39402
 C2965 C 0.06216 0.50511 0.86278
 C2966 C 0.06183 0.52167 0.85061
 C2967 C 0.07018 0.52101 0.83196
 C2968 C 0.07898 0.50374 0.82501
 C2969 C 0.07895 0.48705 0.83701
 C2970 C 0.07067 0.48774 0.85571
 C2971 C 0.05387 0.50602 0.88285
 C2972 C 0.06372 0.49734 0.89862
 C2973 C 0.05585 0.49800 0.91748
 C2974 C 0.03787 0.50727 0.92102
 C2975 C 0.02814 0.51617 0.90526
 C2976 C 0.03607 0.51558 0.88640
 H2977 H 0.06982 0.53405 0.82297
 H2978 H 0.08577 0.47359 0.83213
 H2979 H 0.06376 0.49100 0.92925
 H2980 H 0.01426 0.52342 0.90741
 H2981 H 0.07093 0.47467 0.86467
 H2982 H 0.07762 0.49014 0.89638
 H2983 H 0.05548 0.53529 0.85568
 H2984 H 0.02807 0.52227 0.87452
 C2985 C 0.05678 0.49755 0.63396
 C2986 C 0.06991 0.51306 0.63793
 C2987 C 0.07901 0.51471 0.65617
 C2988 C 0.07514 0.50094 0.67093
 C2989 C 0.06150 0.48580 0.66725
 C2990 C 0.05242 0.48410 0.64893
 C2991 C 0.04809 0.49530 0.61410
 C2992 C 0.02837 0.48978 0.61161
 C2993 C 0.02013 0.48861 0.59285
 C2994 C 0.03145 0.49299 0.57621
 C2995 C 0.05131 0.49795 0.57874
 C2996 C 0.05952 0.49905 0.59742
 H2997 H 0.08917 0.52674 0.65872
 H2998 H 0.05838 0.47489 0.67831
 H2999 H 0.00478 0.48479 0.59144
 H3000 H 0.06053 0.50121 0.56626
 H3001 H 0.04248 0.47192 0.64628
 H3002 H 0.01916 0.48690 0.62418
 H3003 H 0.07321 0.52395 0.62689
 H3004 H 0.07487 0.50288 0.59881
 C3005 C 0.55445 0.99754 0.13384
 C3006 C 0.56696 1.01345 0.13824
 C3007 C 0.57620 1.01481 0.15641
 C3008 C 0.57307 1.00036 0.17068
 C3009 C 0.55988 0.98492 0.16669
 C3010 C 0.55066 0.98350 0.14840
 C3011 C 0.54615 0.99534 0.11384
 C3012 C 0.52673 0.98903 0.11087
 C3013 C 0.51900 0.98757 0.09191
 C3014 C 0.53056 0.99239 0.07556
 C3015 C 0.55010 0.99827 0.07859
 C3016 C 0.55779 0.99968 0.09746
 H3017 H 0.58601 1.02707 0.15925
 H3018 H 0.55731 0.97352 0.17740
 H3019 H 0.50388 0.98303 0.09009
 H3020 H 0.55951 1.00191 0.06637
 H3021 H 0.54118 0.97103 0.14541
 H3022 H 0.51738 0.98566 0.12322
 H3023 H 0.56979 1.02477 0.12751
 H3024 H 0.57295 1.00412 0.09921
 C3025 C 0.43644 0.49661 0.13914
 C3026 C 0.44713 0.49110 0.15582
 C3027 C 0.43831 0.49108 0.17432
 C3028 C 0.41870 0.49674 0.17650
 C3029 C 0.40803 0.50210 0.15979
 C3030 C 0.41678 0.50203 0.14134
 C3031 C 0.44568 0.49682 0.11948
 C3032 C 0.43533 0.48983 0.10304
 C3033 C 0.44379 0.49036 0.08444
 C3034 C 0.46280 0.49796 0.08180
 C3035 C 0.47316 0.50495 0.09827
 C3036 C 0.46471 0.50434 0.11690
 H3037 H 0.44691 0.48698 0.18696
 H3038 H 0.39282 0.50629 0.16096
 H3039 H 0.43539 0.48477 0.07214
 H3040 H 0.48784 0.51086 0.09680
 H3041 H 0.40822 0.50652 0.12881
 H3042 H 0.42073 0.48373 0.10459
 H3043 H 0.46225 0.48667 0.15454
 H3044 H 0.47294 0.51004 0.12927
 C3045 C -0.06287 0.00238 0.63519
 C3046 C -0.08066 0.01208 0.63790
 C3047 C -0.08966 0.01240 0.65621
 C3048 C -0.08122 0.00288 0.67250
 C3049 C -0.06338 -0.00704 0.66953
 C3050 C -0.05426 -0.00711 0.65117
 C3051 C -0.05351 0.00215 0.61563
 C3052 C -0.03344 0.00623 0.61356
 C3053 C -0.02483 0.00657 0.59499
 C3054 C -0.03608 0.00258 0.57814
 C3055 C -0.05613 -0.00167 0.58030
 C3056 C -0.06475 -0.00179 0.59882
 H3057 H -0.10371 0.01953 0.65717
 H3058 H -0.05590 -0.01418 0.68145
 H3059 H -0.00933 0.00980 0.59384
 H3060 H -0.06523 -0.00481 0.56765
 H3061 H -0.04054 -0.01476 0.64943
 H3062 H -0.02449 0.00948 0.62629
 H3063 H -0.08762 0.01953 0.62581
 H3064 H -0.08022 -0.00515 0.60003
 C3065 C -0.13662 0.94033 0.99917
 C3066 C -0.15205 0.94708 0.98741
 C3067 C -0.17070 0.93857 0.98867
 C3068 C -0.17438 0.92295 1.00159
 C3069 C -0.15899 0.91634 1.01348
 C3070 C -0.14041 0.92498 1.01236
 C3071 C -0.11668 0.94920 0.99772
 C3072 C -0.09992 0.93752 0.99982
 C3073 C -0.08120 0.94593 0.99916
 C3074 C -0.07876 0.96619 0.99614
 C3075 C -0.09545 0.97781 0.99354
 C3076 C -0.11418 0.96944 0.99443
 H3077 H -0.18223 0.94424 0.97947
 H3078 H -0.16115 0.90418 1.02341
 H3079 H -0.06863 0.93654 1.00103
 H3080 H -0.09408 0.99350 0.99136
 H3081 H -0.12900 0.91962 1.02191
 H3082 H -0.10124 0.92183 1.00191
 H3083 H -0.14967 0.95875 0.97695
 H3084 H -0.12672 0.97895 0.99302
 C3085 C 0.36174 0.43444 0.50161
 C3086 C 0.34530 0.44525 0.50752
 C3087 C 0.32667 0.43654 0.50774
 C3088 C 0.32409 0.41688 0.50190
 C3089 C 0.34057 0.40605 0.49614
 C3090 C 0.35915 0.41472 0.49601
 C3091 C 0.38153 0.44362 0.50123
 C3092 C 0.39792 0.43323 0.50786
 C3093 C 0.41654 0.44185 0.50758
 C3094 C 0.41925 0.46108 0.50060
 C3095 C 0.40286 0.47139 0.49377
 C3096 C 0.38422 0.46278 0.49413
 H3097 H 0.31424 0.44526 0.51214
 H3098 H 0.33909 0.39080 0.49181
 H3099 H 0.42880 0.43349 0.51301
 H3100 H 0.40438 0.48622 0.48831
 H3101 H 0.37149 0.40604 0.49124
 H3102 H 0.39629 0.41852 0.51360
 H3103 H 0.34687 0.46042 0.51212
 H3104 H 0.37191 0.47105 0.48867
 C3105 C 0.36461 0.55621 0.00712
 C3106 C 0.36173 0.57489 0.01534
 C3107 C 0.34383 0.58434 0.01330
 C3108 C 0.32837 0.57539 0.00291
 C3109 C 0.33098 0.55639 -0.00475
 C3110 C 0.34895 0.54688 -0.00265
 C3111 C 0.38420 0.54706 0.00796
 C3112 C 0.38636 0.52704 0.01224
 C3113 C 0.40499 0.51863 0.01281
 C3114 C 0.42177 0.53005 0.00889
 C3115 C 0.41951 0.55008 0.00465
 C3116 C 0.40098 0.55847 0.00423
 H3117 H 0.34212 0.59874 0.01983
 H3118 H 0.31935 0.54916 -0.01288
 H3119 H 0.40622 0.50315 0.01607
 H3120 H 0.43209 0.55934 0.00156
 H3121 H 0.35082 0.53253 -0.00924
 H3122 H 0.37366 0.51795 0.01530
 H3123 H 0.37341 0.58226 0.02330
 H3124 H 0.39975 0.57388 0.00063
 C3125 C -0.13483 0.05926 0.50377
 C3126 C -0.15072 0.04935 0.49497
 C3127 C -0.16889 0.05855 0.49316
 C3128 C -0.17149 0.07780 0.50014
 C3129 C -0.15575 0.08737 0.50955
 C3130 C -0.13766 0.07824 0.51130
 C3131 C -0.11511 0.05031 0.50441
 C3132 C -0.09852 0.06169 0.49986
 C3133 C -0.07989 0.05348 0.50020
 C3134 C -0.07736 0.03366 0.50518
 C3135 C -0.09396 0.02227 0.50988
 C3136 C -0.11267 0.03050 0.50940
 H3137 H -0.18071 0.05084 0.48577
 H3138 H -0.15742 0.10201 0.51555
 H3139 H -0.06747 0.06270 0.49649
 H3140 H -0.09253 0.00694 0.51373
 H3141 H -0.12581 0.08607 0.51852
 H3142 H -0.09997 0.07693 0.49570
 H3143 H -0.14891 0.03476 0.48891
 H3144 H -0.12520 0.02143 0.51311
 C3145 C 0.63500 0.06573 0.49326
 C3146 C 0.63775 0.08545 0.48794
 C3147 C 0.65634 0.09407 0.48863
 C3148 C 0.67266 0.08321 0.49466
 C3149 C 0.66991 0.06354 0.50021
 C3150 C 0.65128 0.05487 0.49945
 C3151 C 0.61518 0.05661 0.49236
 C3152 C 0.61255 0.03742 0.48514
 C3153 C 0.59387 0.02888 0.48434
 C3154 C 0.57740 0.03932 0.49084
 C3155 C 0.58006 0.05859 0.49791
 C3156 C 0.59871 0.06712 0.49864
 H3157 H 0.65793 0.10933 0.48451
 H3158 H 0.68223 0.05478 0.50481
 H3159 H 0.59239 0.01401 0.47882
 H3160 H 0.56776 0.06706 0.50310
 H3161 H 0.64957 0.03970 0.50385
 H3162 H 0.62492 0.02905 0.47994
 H3163 H 0.62555 0.09416 0.48295
 H3164 H 0.60029 0.08186 0.50447
 C3165 C 0.13622 0.56474 0.99218
 C3166 C 0.13981 0.58283 0.98316
 C3167 C 0.15836 0.59151 0.98392
 C3168 C 0.17401 0.58242 0.99386
 C3169 C 0.17017 0.56422 1.00302
 C3170 C 0.15158 0.55548 1.00205
 C3171 C 0.11638 0.55577 0.99151
 C3172 C 0.11386 0.53566 0.98751
 C3173 C 0.09513 0.52725 0.98707
 C3174 C 0.07853 0.53875 0.99081
 C3175 C 0.08108 0.55891 0.99464
 C3176 C 0.09979 0.56733 0.99491
 H3177 H 0.15998 0.60581 0.97730
 H3178 H 0.18158 0.55620 1.01038
 H3179 H 0.09368 0.51166 0.98413
 H3180 H 0.06863 0.56820 0.99758
 H3181 H 0.14917 0.54152 1.00922
 H3182 H 0.12640 0.52646 0.98463
 H3183 H 0.12822 0.59030 0.97543
 H3184 H 0.10131 0.58284 0.99819
 C3185 C 0.13053 0.43741 0.50378
 C3186 C 0.14520 0.44184 0.51761
 C3187 C 0.16373 0.43335 0.51610
 C3188 C 0.16793 0.42021 0.50077
 C3189 C 0.15343 0.41620 0.48668
 C3190 C 0.13498 0.42472 0.48814
 C3191 C 0.11056 0.44574 0.50564
 C3192 C 0.09401 0.43423 0.50102
 C3193 C 0.07527 0.44224 0.50171
 C3194 C 0.07259 0.46197 0.50715
 C3195 C 0.08909 0.47332 0.51241
 C3196 C 0.10786 0.46531 0.51164
 H3197 H 0.17456 0.43654 0.52728
 H3198 H 0.15636 0.40639 0.47452
 H3199 H 0.06291 0.43300 0.49773
 H3200 H 0.08758 0.48859 0.51661
 H3201 H 0.12419 0.42139 0.47696
 H3202 H 0.09553 0.41898 0.49678
 H3203 H 0.14220 0.45143 0.52992
 H3204 H 0.12031 0.47461 0.51517
 C3205 C 0.63269 0.93467 0.00441
 C3206 C 0.63572 0.91552 0.01123
 C3207 C 0.65425 0.90712 0.01031
 C3208 C 0.67020 0.91762 0.00248
 C3209 C 0.66728 0.93694 -0.00395
 C3210 C 0.64870 0.94538 -0.00299
 C3211 C 0.61276 0.94316 0.00460
 C3212 C 0.60980 0.96277 0.01023
 C3213 C 0.59101 0.97074 0.01015
 C3214 C 0.57477 0.95929 0.00430
 C3215 C 0.57776 0.93962 -0.00121
 C3216 C 0.59652 0.93166 -0.00103
 H3217 H 0.65611 0.89238 0.01584
 H3218 H 0.67924 0.94534 -0.01019
 H3219 H 0.58925 0.98594 0.01447
 H3220 H 0.56562 0.93037 -0.00582
 H3221 H 0.64675 0.96011 -0.00852
 H3222 H 0.62202 0.97191 0.01484
 H3223 H 0.62375 0.90705 0.01736
 H3224 H 0.59837 0.91656 -0.00567
 C3225 C -0.00971 0.86837 0.93811
 C3226 C -0.00642 0.85156 0.94942
 C3227 C -0.00481 0.83306 0.94055
 C3228 C -0.00625 0.83087 0.91998
 C3229 C -0.01026 0.84782 0.90890
 C3230 C -0.01201 0.86618 0.91781
 C3231 C -0.00993 0.88826 0.94719
 C3232 C -0.00101 0.90417 0.93755
 C3233 C -0.00074 0.92283 0.94603
 C3234 C -0.00928 0.92612 0.96446
 C3235 C -0.01835 0.91026 0.97408
 C3236 C -0.01866 0.89153 0.96553
 H3237 H -0.00133 0.82080 0.94988
 H3238 H -0.01266 0.84705 0.89326
 H3239 H 0.00649 0.93463 0.93821
 H3240 H -0.02511 0.91228 0.98828
 H3241 H -0.01521 0.87874 0.90872
 H3242 H 0.00617 0.90212 0.92357
 H3243 H -0.00435 0.85278 0.96510
 H3244 H -0.02584 0.87963 0.97323
 C3245 C 0.49680 0.36541 0.44320
 C3246 C 0.48359 0.34992 0.44682
 C3247 C 0.48586 0.33175 0.43745
 C3248 C 0.50135 0.32875 0.42427
 C3249 C 0.51490 0.34403 0.42119
 C3250 C 0.51267 0.36212 0.43056
 C3251 C 0.49395 0.38512 0.45212
 C3252 C 0.49750 0.40209 0.44104
 C3253 C 0.49596 0.42068 0.44951
 C3254 C 0.49074 0.42282 0.46931
 C3255 C 0.48648 0.40587 0.48026
 C3256 C 0.48807 0.38720 0.47174
 H3257 H 0.47509 0.32028 0.43996
 H3258 H 0.52719 0.34203 0.41141
 H3259 H 0.49914 0.43339 0.44057
 H3260 H 0.48246 0.40699 0.49555
 H3261 H 0.52338 0.37360 0.42785
 H3262 H 0.50159 0.40100 0.42576
 H3263 H 0.47116 0.35204 0.45638
 H3264 H 0.48530 0.37440 0.48068
 C3265 C 0.00041 0.36507 0.56492
 C3266 C 0.00944 0.36276 0.58317
 C3267 C 0.00968 0.34448 0.59227
 C3268 C 0.00077 0.32782 0.58346
 C3269 C -0.00853 0.33039 0.56516
 C3270 C -0.00855 0.34872 0.55598
 C3271 C 0.00035 0.38456 0.55534
 C3272 C 0.00480 0.38638 0.53536
 C3273 C 0.00503 0.40483 0.52647
 C3274 C 0.00061 0.42182 0.53733
 C3275 C -0.00387 0.41995 0.55733
 C3276 C -0.00392 0.40154 0.56624
 H3277 H 0.01630 0.34381 0.60664
 H3278 H -0.01518 0.31818 0.55738
 H3279 H 0.00847 0.40574 0.51102
 H3280 H -0.00735 0.43272 0.56613
 H3281 H -0.01570 0.35014 0.54190
 H3282 H 0.00834 0.37355 0.52668
 H3283 H 0.01646 0.37513 0.59040
 H3284 H -0.00755 0.40053 0.58164
 C3285 C 0.49819 0.86047 0.06004
 C3286 C 0.51551 0.85117 0.06579
 C3287 C 0.51484 0.83277 0.07475
 C3288 C 0.49684 0.82314 0.07797
 C3289 C 0.47954 0.83233 0.07182
 C3290 C 0.48020 0.85083 0.06306
 C3291 C 0.49887 0.88028 0.05118
 C3292 C 0.48599 0.89495 0.05753
 C3293 C 0.48668 0.91367 0.04927
 C3294 C 0.50010 0.91805 0.03430
 C3295 C 0.51298 0.90334 0.02794
 C3296 C 0.51245 0.88469 0.03639
 H3297 H 0.52844 0.82636 0.07962
 H3298 H 0.46545 0.82522 0.07371
 H3299 H 0.47651 0.92464 0.05445
 H3300 H 0.52353 0.90625 0.01647
 H3301 H 0.46665 0.85757 0.05850
 H3302 H 0.47552 0.89198 0.06906
 H3303 H 0.52955 0.85838 0.06383
 H3304 H 0.52247 0.87360 0.03115
 C3305 C 0.49743 0.63091 0.06582
 C3306 C 0.51368 0.63660 0.07720
 C3307 C 0.51469 0.65529 0.08565
 C3308 C 0.49948 0.66876 0.08289
 C3309 C 0.48342 0.66325 0.07117
 C3310 C 0.48239 0.64452 0.06273
 C3311 C 0.49615 0.61079 0.05739
 C3312 C 0.48893 0.60766 0.03835
 C3313 C 0.48820 0.58875 0.03030
 C3314 C 0.49469 0.57252 0.04112
 C3315 C 0.50162 0.57564 0.06029
 C3316 C 0.50232 0.59454 0.06832
 H3317 H 0.52740 0.65923 0.09434
 H3318 H 0.47136 0.67323 0.06899
 H3319 H 0.48282 0.58691 0.01548
 H3320 H 0.50664 0.56350 0.06910
 H3321 H 0.46958 0.64051 0.05422
 H3322 H 0.48424 0.61989 0.02949
 H3323 H 0.52570 0.62661 0.07951
 H3324 H 0.50762 0.59641 0.08317
 C3325 C -0.00350 0.13444 0.56302
 C3326 C -0.01111 0.13749 0.58186
 C3327 C -0.00981 0.15591 0.59079
 C3328 C -0.00075 0.17175 0.58115
 C3329 C 0.00646 0.16885 0.56210
 C3330 C 0.00508 0.15037 0.55311
 C3331 C -0.00403 0.11455 0.55408
 C3332 C -0.00905 0.11188 0.53429
 C3333 C -0.00940 0.09306 0.52597
 C3334 C -0.00458 0.07655 0.53725
 C3335 C 0.00039 0.07929 0.55706
 C3336 C 0.00062 0.09805 0.56537
 H3337 H -0.01596 0.15777 0.60528
 H3338 H 0.01364 0.18072 0.55435
 H3339 H -0.01327 0.09150 0.51066
 H3340 H 0.00420 0.06693 0.56618
 H3341 H 0.01122 0.14840 0.53863
 H3342 H -0.01286 0.12432 0.52530
 H3343 H -0.01815 0.12558 0.58970
 H3344 H 0.00477 0.09969 0.58061
 C3345 C 0.50555 0.13607 0.43274
 C3346 C 0.49882 0.15237 0.44343
 C3347 C 0.49835 0.17099 0.43490
 C3348 C 0.50473 0.17372 0.41554
 C3349 C 0.51141 0.15740 0.40487
 C3350 C 0.51180 0.13880 0.41335
 C3351 C 0.50597 0.11625 0.44168
 C3352 C 0.50002 0.09966 0.43083
 C3353 C 0.50020 0.08101 0.43924
 C3354 C 0.50640 0.07847 0.45870
 C3355 C 0.51258 0.09506 0.46948
 C3356 C 0.51232 0.11374 0.46108
 H3357 H 0.49325 0.18331 0.44352
 H3358 H 0.51619 0.15898 0.38984
 H3359 H 0.49531 0.06859 0.43050
 H3360 H 0.51744 0.09367 0.48450
 H3361 H 0.51721 0.12658 0.40480
 H3362 H 0.49486 0.10114 0.41592
 H3363 H 0.49371 0.15067 0.45834
 H3364 H 0.51723 0.12622 0.46971
 C3365 C 0.00673 0.63727 0.93596
 C3366 C 0.02414 0.64793 0.93323
 C3367 C 0.02381 0.66673 0.92517
 C3368 C 0.00598 0.67558 0.91965
 C3369 C -0.01149 0.66487 0.92296
 C3370 C -0.01108 0.64597 0.93084
 C3371 C 0.00717 0.61714 0.94412
 C3372 C -0.00436 0.60207 0.93584
 C3373 C -0.00412 0.58315 0.94368
 C3374 C 0.00752 0.57894 0.96010
 C3375 C 0.01922 0.59399 0.96824
 C3376 C 0.01910 0.61285 0.96028
 H3377 H 0.03767 0.67440 0.92388
 H3378 H -0.02558 0.67051 0.91864
 H3379 H -0.01334 0.57192 0.93708
 H3380 H 0.02837 0.59126 0.98087
 H3381 H -0.02476 0.63813 0.93296
 H3382 H -0.01350 0.60491 0.92322
 H3383 H 0.03810 0.64161 0.93711
 H3384 H 0.02804 0.62421 0.96704
 C3385 C 0.24850 0.69022 0.88472
 C3386 C 0.24081 0.67127 0.88751
 C3387 C 0.24230 0.66213 0.90566
 C3388 C 0.25161 0.67165 0.92148
 C3389 C 0.25884 0.69084 0.91888
 C3390 C 0.25728 0.70005 0.90066
 C3391 C 0.24792 0.69929 0.86502
 C3392 C 0.24295 0.71911 0.86266
 C3393 C 0.24247 0.72748 0.84398
 C3394 C 0.24713 0.71621 0.82732
 C3395 C 0.25209 0.69639 0.82977
 C3396 C 0.25243 0.68803 0.84837
 H3397 H 0.23610 0.64755 0.90732
 H3398 H 0.26617 0.69851 0.93075
 H3399 H 0.23865 0.74280 0.84263
 H3400 H 0.25578 0.68727 0.81729
 H3401 H 0.26346 0.71462 0.89887
 H3402 H 0.23926 0.72808 0.87524
 H3403 H 0.23361 0.66351 0.87561
 H3404 H 0.25656 0.67278 0.84976
 C3405 C 0.74767 0.19019 0.38180
 C3406 C 0.73955 0.17145 0.38477
 C3407 C 0.74084 0.16243 0.40300
 C3408 C 0.75038 0.17188 0.41873
 C3409 C 0.75803 0.19089 0.41594
 C3410 C 0.75668 0.19997 0.39764
 C3411 C 0.74730 0.19910 0.36202
 C3412 C 0.74284 0.21902 0.35949
 C3413 C 0.74258 0.22724 0.34075
 C3414 C 0.74696 0.21572 0.32418
 C3415 C 0.75141 0.19579 0.32679
 C3416 C 0.75153 0.18759 0.34547
 H3417 H 0.73433 0.14800 0.40480
 H3418 H 0.76556 0.19850 0.42773
 H3419 H 0.73913 0.24265 0.33926
 H3420 H 0.75486 0.18647 0.31440
 H3421 H 0.76319 0.21437 0.39572
 H3422 H 0.73937 0.22819 0.37199
 H3423 H 0.73217 0.16374 0.37294
 H3424 H 0.75527 0.17225 0.34699
 C3425 C 0.25196 0.30851 0.38727
 C3426 C 0.26542 0.30486 0.40240
 C3427 C 0.26303 0.31347 0.42089
 C3428 C 0.24718 0.32595 0.42460
 C3429 C 0.23348 0.32919 0.40964
 C3430 C 0.23580 0.32054 0.39123
 C3431 C 0.25469 0.29997 0.36739
 C3432 C 0.25019 0.31100 0.35065
 C3433 C 0.25166 0.30272 0.33197
 C3434 C 0.25777 0.28321 0.32952
 C3435 C 0.26294 0.27238 0.34621
 C3436 C 0.26138 0.28066 0.36493
 H3437 H 0.27394 0.31090 0.43208
 H3438 H 0.22095 0.33849 0.41219
 H3439 H 0.24773 0.31156 0.31945
 H3440 H 0.26763 0.25729 0.34489
 H3441 H 0.22489 0.32325 0.38008
 H3442 H 0.24543 0.32607 0.35200
 H3443 H 0.27810 0.29580 0.39979
 H3444 H 0.26483 0.27171 0.37751
 C3445 C 0.75667 0.81069 0.88687
 C3446 C 0.73983 0.82118 0.89212
 C3447 C 0.73819 0.82965 0.91068
 C3448 C 0.75333 0.82785 0.92447
 C3449 C 0.76991 0.81682 0.91950
 C3450 C 0.77156 0.80832 0.90086
 C3451 C 0.75860 0.80257 0.86674
 C3452 C 0.76616 0.78370 0.86353
 C3453 C 0.76681 0.77574 0.84461
 C3454 C 0.75994 0.78650 0.82849
 C3455 C 0.75302 0.80563 0.83169
 C3456 C 0.75237 0.81355 0.85056
 H3457 H 0.72505 0.83771 0.91422
 H3458 H 0.78188 0.81533 0.92977
 H3459 H 0.77225 0.76097 0.84270
 H3460 H 0.74775 0.81442 0.81964
 H3461 H 0.78475 0.80039 0.89720
 H3462 H 0.77100 0.77486 0.87572
 H3463 H 0.72789 0.82285 0.88185
 H3464 H 0.74686 0.82829 0.85251
 C3465 C 0.74494 0.81475 0.11849
 C3466 C 0.75215 0.80404 0.10241
 C3467 C 0.75299 0.81251 0.08379
 C3468 C 0.74648 0.83178 0.08085
 C3469 C 0.73937 0.84248 0.09697
 C3470 C 0.73862 0.83407 0.11555
 C3471 C 0.74409 0.80589 0.13831
 C3472 C 0.74959 0.81693 0.15489
 C3473 C 0.74903 0.80859 0.17353
 C3474 C 0.74289 0.78900 0.17606
 C3475 C 0.73711 0.77805 0.15947
 C3476 C 0.73776 0.78639 0.14081
 H3477 H 0.75844 0.80389 0.07163
 H3478 H 0.73449 0.85746 0.09523
 H3479 H 0.75362 0.81745 0.18594
 H3480 H 0.73232 0.76293 0.16085
 H3481 H 0.73286 0.84264 0.12760
 H3482 H 0.75471 0.83193 0.15341
 H3483 H 0.75733 0.78919 0.10428
 H3484 H 0.73319 0.77761 0.12833
 C3485 C 0.24339 0.31499 0.61879
 C3486 C 0.24987 0.30404 0.60256
 C3487 C 0.25015 0.31232 0.58384
 C3488 C 0.24383 0.33167 0.58095
 C3489 C 0.23743 0.34261 0.59721
 C3490 C 0.23722 0.33437 0.61589
 C3491 C 0.24317 0.30633 0.63872
 C3492 C 0.24931 0.31750 0.65499
 C3493 C 0.24936 0.30935 0.67373
 C3494 C 0.24321 0.28982 0.67666
 C3495 C 0.23681 0.27874 0.66040
 C3496 C 0.23684 0.28689 0.64164
 H3497 H 0.25505 0.30351 0.57158
 H3498 H 0.23271 0.35764 0.59552
 H3499 H 0.25443 0.31831 0.68588
 H3500 H 0.23199 0.26366 0.66209
 H3501 H 0.23200 0.34313 0.62806
 H3502 H 0.25446 0.33245 0.65319
 H3503 H 0.25492 0.28913 0.60437
 H3504 H 0.23178 0.27801 0.62942
 C3505 C 0.75562 0.18759 0.61195
 C3506 C 0.76104 0.16788 0.60950
 C3507 C 0.76050 0.15904 0.59104
 C3508 C 0.75456 0.16968 0.57451
 C3509 C 0.74904 0.18938 0.57691
 C3510 C 0.74964 0.19827 0.59544
 C3511 C 0.75600 0.19677 0.63172
 C3512 C 0.76299 0.21605 0.63447
 C3513 C 0.76327 0.22459 0.65316
 C3514 C 0.75647 0.21404 0.66949
 C3515 C 0.74960 0.19471 0.66669
 C3516 C 0.74937 0.18619 0.64806
 H3517 H 0.76459 0.14377 0.58972
 H3518 H 0.74452 0.19798 0.56443
 H3519 H 0.76864 0.23951 0.65476
 H3520 H 0.74418 0.18615 0.67889
 H3521 H 0.74518 0.21342 0.59691
 H3522 H 0.76841 0.22448 0.62218
 H3523 H 0.76589 0.15931 0.62188
 H3524 H 0.74367 0.17140 0.64640
 C3525 C 0.25455 0.68330 0.11559
 C3526 C 0.25947 0.66351 0.11285
 C3527 C 0.25910 0.65508 0.09418
 C3528 C 0.25382 0.66624 0.07777
 C3529 C 0.24871 0.68600 0.08049
 C3530 C 0.24913 0.69447 0.09921
 C3531 C 0.25498 0.69216 0.13551
 C3532 C 0.26248 0.71120 0.13858
 C3533 C 0.26279 0.71949 0.15735
 C3534 C 0.25552 0.70895 0.17349
 C3535 C 0.24819 0.68983 0.17041
 C3536 C 0.24793 0.68154 0.15166
 H3537 H 0.26287 0.63974 0.09261
 H3538 H 0.24469 0.69499 0.06811
 H3539 H 0.26853 0.73425 0.15917
 H3540 H 0.24241 0.68129 0.18245
 H3541 H 0.24504 0.70971 0.10090
 H3542 H 0.26826 0.71963 0.12646
 H3543 H 0.26387 0.65456 0.12513
 H3544 H 0.24186 0.66692 0.14975
 C3545 C 0.19025 0.61590 0.74877
 C3546 C 0.17743 0.61149 0.73322
 C3547 C 0.16841 0.59308 0.73182
 C3548 C 0.17206 0.57858 0.74587
 C3549 C 0.18538 0.58270 0.76107
 C3550 C 0.19436 0.60119 0.76253
 C3551 C 0.19888 0.63591 0.75078
 C3552 C 0.21841 0.63864 0.75679
 C3553 C 0.22654 0.65753 0.75813
 C3554 C 0.21533 0.67409 0.75345
 C3555 C 0.19570 0.67134 0.74781
 C3556 C 0.18758 0.65251 0.74654
 H3557 H 0.15847 0.59020 0.71976
 H3558 H 0.18831 0.57187 0.77222
 H3559 H 0.24172 0.65910 0.76246
 H3560 H 0.18657 0.68374 0.74424
 H3561 H 0.20403 0.60417 0.77477
 H3562 H 0.22754 0.62616 0.76002
 H3563 H 0.17432 0.62232 0.72211
 H3564 H 0.17238 0.65095 0.74229
 C3565 C 0.68741 0.11605 0.24941
 C3566 C 0.69837 0.09917 0.24542
 C3567 C 0.68923 0.08074 0.24399
 C3568 C 0.66877 0.07867 0.24641
 C3569 C 0.65803 0.09578 0.25087
 C3570 C 0.66720 0.11408 0.25235
 C3571 C 0.69678 0.13578 0.25008
 C3572 C 0.68731 0.15194 0.24172
 C3573 C 0.69592 0.17057 0.24228
 C3574 C 0.71428 0.17354 0.25117
 C3575 C 0.72378 0.15738 0.25957
 C3576 C 0.71512 0.13869 0.25902
 H3577 H 0.69827 0.06838 0.24006
 H3578 H 0.64254 0.09518 0.25402
 H3579 H 0.68821 0.18261 0.23553
 H3580 H 0.73794 0.15913 0.26654
 H3581 H 0.65842 0.12673 0.25604
 H3582 H 0.67332 0.15013 0.23445
 H3583 H 0.71397 0.10027 0.24283
 H3584 H 0.72268 0.12656 0.26576
 C3585 C 0.81087 0.11661 0.74548
 C3586 C 0.82318 0.11253 0.76143
 C3587 C 0.83165 0.09408 0.76340
 C3588 C 0.82796 0.07922 0.74953
 C3589 C 0.81516 0.08302 0.73391
 C3590 C 0.80672 0.10155 0.73189
 C3591 C 0.80264 0.13657 0.74306
 C3592 C 0.78325 0.13912 0.73674
 C3593 C 0.77529 0.15792 0.73546
 C3594 C 0.78653 0.17459 0.74053
 C3595 C 0.80610 0.17205 0.74628
 C3596 C 0.81406 0.15328 0.74748
 H3597 H 0.84121 0.09145 0.77576
 H3598 H 0.81223 0.07189 0.72290
 H3599 H 0.76015 0.15933 0.73103
 H3600 H 0.81524 0.18456 0.75013
 H3601 H 0.79742 0.10427 0.71936
 H3602 H 0.77403 0.12655 0.73336
 H3603 H 0.82627 0.12363 0.77244
 H3604 H 0.82918 0.15185 0.75197
 C3605 C 0.31056 0.61203 0.24954
 C3606 C 0.32310 0.60802 0.26533
 C3607 C 0.33172 0.58963 0.26717
 C3608 C 0.32794 0.57476 0.25332
 C3609 C 0.31496 0.57851 0.23785
 C3610 C 0.30639 0.59699 0.23594
 C3611 C 0.30209 0.63191 0.24728
 C3612 C 0.28261 0.63426 0.24117
 C3613 C 0.27444 0.65297 0.23998
 C3614 C 0.28557 0.66975 0.24494
 C3615 C 0.30521 0.66741 0.25054
 C3616 C 0.31337 0.64872 0.25164
 H3617 H 0.34141 0.58703 0.27942
 H3618 H 0.31197 0.56737 0.22685
 H3619 H 0.25925 0.65423 0.23568
 H3620 H 0.31426 0.68000 0.25429
 H3621 H 0.29692 0.59965 0.22353
 H3622 H 0.27348 0.62160 0.23785
 H3623 H 0.32623 0.61912 0.27632
 H3624 H 0.32855 0.64745 0.25597
 C3625 C 0.31381 0.38096 0.25627
 C3626 C 0.30315 0.39729 0.24984
 C3627 C 0.31182 0.41598 0.24949
 C3628 C 0.33127 0.41871 0.25571
 C3629 C 0.34190 0.40235 0.26206
 C3630 C 0.33329 0.38372 0.26234
 C3631 C 0.30479 0.36106 0.25657
 C3632 C 0.31552 0.34469 0.25032
 C3633 C 0.30719 0.32592 0.25065
 C3634 C 0.28790 0.32303 0.25727
 C3635 C 0.27719 0.33942 0.26365
 C3636 C 0.28554 0.35824 0.26325
 H3637 H 0.30325 0.42833 0.24462
 H3638 H 0.35700 0.40394 0.26670
 H3639 H 0.31586 0.31367 0.24559
 H3640 H 0.26230 0.33775 0.26882
 H3641 H 0.34182 0.37147 0.26754
 H3642 H 0.33032 0.34643 0.24490
 H3643 H 0.28817 0.39557 0.24490
 H3644 H 0.27700 0.37056 0.26837
 C3645 C 0.81620 0.88484 0.75404
 C3646 C 0.80531 0.90092 0.74735
 C3647 C 0.81377 0.91968 0.74656
 C3648 C 0.83322 0.92276 0.75260
 C3649 C 0.84411 0.90664 0.75914
 C3650 C 0.83572 0.88791 0.75983
 C3651 C 0.80727 0.86493 0.75502
 C3652 C 0.81787 0.84838 0.74896
 C3653 C 0.80942 0.82965 0.74966
 C3654 C 0.79018 0.82700 0.75652
 C3655 C 0.77970 0.84355 0.76287
 C3656 C 0.78813 0.86229 0.76207
 H3657 H 0.80500 0.93184 0.74156
 H3658 H 0.85921 0.90851 0.76366
 H3659 H 0.81791 0.81726 0.74461
 H3660 H 0.76485 0.84208 0.76822
 H3661 H 0.84442 0.87585 0.76517
 H3662 H 0.83259 0.84997 0.74330
 H3663 H 0.79030 0.89895 0.74259
 H3664 H 0.77972 0.87474 0.76709
 C3665 C 0.68524 0.88542 0.24627
 C3666 C 0.69580 0.90226 0.25214
 C3667 C 0.68694 0.92072 0.25211
 C3668 C 0.66740 0.92271 0.24606
 C3669 C 0.65686 0.90584 0.24027
 C3670 C 0.66567 0.88743 0.24037
 C3671 C 0.69449 0.86577 0.24636
 C3672 C 0.68402 0.84930 0.25308
 C3673 C 0.69261 0.83076 0.25316
 C3674 C 0.71189 0.82823 0.24648
 C3675 C 0.72233 0.84471 0.23963
 C3676 C 0.71373 0.86327 0.23962
 H3677 H 0.69546 0.93347 0.25653
 H3678 H 0.64170 0.90685 0.23578
 H3679 H 0.68413 0.81844 0.25858
 H3680 H 0.73720 0.84331 0.23439
 H3681 H 0.65721 0.87477 0.23560
 H3682 H 0.66924 0.85078 0.25857
 H3683 H 0.71086 0.90113 0.25695
 H3684 H 0.72207 0.87566 0.23413
 C3685 C 0.18579 0.38631 0.74709
 C3686 C 0.19618 0.40321 0.75308
 C3687 C 0.18713 0.42157 0.75322
 C3688 C 0.16755 0.42340 0.74723
 C3689 C 0.15718 0.40648 0.74130
 C3690 C 0.16619 0.38816 0.74124
 C3691 C 0.19525 0.36676 0.74705
 C3692 C 0.18499 0.35014 0.75374
 C3693 C 0.19381 0.33173 0.75380
 C3694 C 0.21313 0.32945 0.74712
 C3695 C 0.22334 0.34606 0.74025
 C3696 C 0.21451 0.36452 0.74027
 H3697 H 0.19552 0.43437 0.75774
 H3698 H 0.14201 0.40737 0.73683
 H3699 H 0.18550 0.31930 0.75922
 H3700 H 0.23824 0.34486 0.73501
 H3701 H 0.15785 0.37545 0.73639
 H3702 H 0.17020 0.35144 0.75925
 H3703 H 0.21125 0.40220 0.75786
 H3704 H 0.22269 0.37701 0.73480
 C3705 C 0.11615 0.75217 0.81048
 C3706 C 0.11109 0.76881 0.82157
 C3707 C 0.09268 0.77015 0.83029
 C3708 C 0.07886 0.75491 0.82810
 C3709 C 0.08369 0.73850 0.81658
 C3710 C 0.10215 0.73714 0.80787
 C3711 C 0.13609 0.75042 0.80205
 C3712 C 0.13888 0.74260 0.78318
 C3713 C 0.15767 0.74143 0.77517
 C3714 C 0.17408 0.74806 0.78584
 C3715 C 0.17128 0.75555 0.80485
 C3716 C 0.15253 0.75669 0.81284
 H3717 H 0.08925 0.78312 0.83882
 H3718 H 0.07344 0.72641 0.81483
 H3719 H 0.15927 0.73563 0.76047
 H3720 H 0.18356 0.76069 0.81355
 H3721 H 0.10567 0.72404 0.79958
 H3722 H 0.12650 0.73779 0.77444
 H3723 H 0.12138 0.78084 0.82349
 H3724 H 0.15091 0.76242 0.82757
 C3725 C 0.61658 0.25277 0.30752
 C3726 C 0.61240 0.26838 0.32036
 C3727 C 0.59415 0.26967 0.32942
 C3728 C 0.57958 0.25545 0.32578
 C3729 C 0.58347 0.24018 0.31246
 C3730 C 0.60180 0.23883 0.30346
 C3731 C 0.63643 0.25088 0.29883
 C3732 C 0.63889 0.24461 0.27934
 C3733 C 0.65762 0.24326 0.27119
 C3734 C 0.67429 0.24820 0.28232
 C3735 C 0.67181 0.25416 0.30190
 C3736 C 0.65313 0.25543 0.31005
 H3737 H 0.59144 0.28178 0.33936
 H3738 H 0.57258 0.22890 0.30955
 H3739 H 0.65899 0.23870 0.25604
 H3740 H 0.68431 0.25792 0.31097
 H3741 H 0.60460 0.22652 0.29379
 H3742 H 0.62632 0.24116 0.27026
 H3743 H 0.62328 0.27963 0.32344
 H3744 H 0.65180 0.25988 0.32522
 C3745 C 0.61479 0.75785 0.18849
 C3746 C 0.59874 0.74981 0.19861
 C3747 C 0.58033 0.74855 0.18971
 C3748 C 0.57756 0.75535 0.17051
 C3749 C 0.59354 0.76380 0.16059
 C3750 C 0.61194 0.76498 0.16945
 C3751 C 0.63455 0.75829 0.19753
 C3752 C 0.65106 0.75301 0.18651
 C3753 C 0.66961 0.75275 0.19511
 C3754 C 0.67211 0.75786 0.21494
 C3755 C 0.65562 0.76347 0.22588
 C3756 C 0.63704 0.76361 0.21728
 H3757 H 0.56839 0.74174 0.19766
 H3758 H 0.59182 0.76956 0.14595
 H3759 H 0.68197 0.74837 0.18624
 H3760 H 0.65700 0.76750 0.24118
 H3761 H 0.62396 0.77155 0.16143
 H3762 H 0.64956 0.74864 0.17131
 H3763 H 0.60055 0.74399 0.21322
 H3764 H 0.62461 0.76794 0.22607
 C3765 C 0.11646 0.25690 0.69053
 C3766 C 0.09983 0.25126 0.70122
 C3767 C 0.08149 0.24982 0.69212
 C3768 C 0.07927 0.25389 0.67195
 C3769 C 0.09608 0.26014 0.66157
 C3770 C 0.11429 0.26159 0.67070
 C3771 C 0.13616 0.25736 0.69974
 C3772 C 0.15243 0.25028 0.68939
 C3773 C 0.17100 0.25049 0.69789
 C3774 C 0.17382 0.25776 0.71700
 C3775 C 0.15756 0.26497 0.72735
 C3776 C 0.13892 0.26472 0.71881
 H3777 H 0.06939 0.24452 0.70085
 H3778 H 0.09530 0.26462 0.64643
 H3779 H 0.18313 0.24476 0.68949
 H3780 H 0.15920 0.27068 0.74209
 H3781 H 0.12674 0.26657 0.66221
 H3782 H 0.15074 0.24424 0.67479
 H3783 H 0.10109 0.24733 0.71651
 H3784 H 0.12670 0.27046 0.72707
 C3785 C 0.88628 0.24751 0.68859
 C3786 C 0.89803 0.23069 0.68877
 C3787 C 0.91683 0.23116 0.68076
 C3788 C 0.92434 0.24849 0.67245
 C3789 C 0.91279 0.26545 0.67269
 C3790 C 0.89393 0.26496 0.68063
 C3791 C 0.86602 0.24678 0.69641
 C3792 C 0.85068 0.25605 0.68645
 C3793 C 0.83162 0.25548 0.69387
 C3794 C 0.82748 0.24568 0.71148
 C3795 C 0.84281 0.23620 0.72131
 C3796 C 0.86184 0.23672 0.71385
 H3797 H 0.92546 0.21791 0.68095
 H3798 H 0.91811 0.27897 0.66624
 H3799 H 0.82020 0.26294 0.68590
 H3800 H 0.84018 0.22853 0.73492
 H3801 H 0.88531 0.27822 0.68052
 H3802 H 0.85339 0.26365 0.67282
 H3803 H 0.89250 0.21701 0.69468
 H3804 H 0.87338 0.22956 0.72193
 C3805 C 0.38491 0.74238 0.19254
 C3806 C 0.39683 0.72567 0.19249
 C3807 C 0.41552 0.72638 0.18422
 C3808 C 0.42274 0.74385 0.17591
 C3809 C 0.41101 0.76068 0.17644
 C3810 C 0.39229 0.75995 0.18462
 C3811 C 0.36469 0.74143 0.20044
 C3812 C 0.34928 0.75056 0.19047
 C3813 C 0.33028 0.75002 0.19799
 C3814 C 0.32625 0.74040 0.21572
 C3815 C 0.34164 0.73099 0.22554
 C3816 C 0.36064 0.73146 0.21795
 H3817 H 0.42430 0.71322 0.18417
 H3818 H 0.41608 0.77429 0.16999
 H3819 H 0.31881 0.75740 0.19001
 H3820 H 0.33908 0.72344 0.23923
 H3821 H 0.38353 0.77312 0.18469
 H3822 H 0.35189 0.75807 0.17677
 H3823 H 0.39150 0.71191 0.19840
 H3824 H 0.37225 0.72439 0.22601
 C3825 C 0.38741 0.25370 0.31254
 C3826 C 0.39929 0.27062 0.31205
 C3827 C 0.41805 0.27050 0.32023
 C3828 C 0.42538 0.25343 0.32899
 C3829 C 0.41368 0.23638 0.32907
 C3830 C 0.39488 0.23653 0.32098
 C3831 C 0.36721 0.25402 0.30453
 C3832 C 0.35177 0.24490 0.31467
 C3833 C 0.33279 0.24488 0.30702
 C3834 C 0.32881 0.25390 0.28898
 C3835 C 0.34423 0.26331 0.27899
 C3836 C 0.36319 0.26340 0.28671
 H3837 H 0.42681 0.28381 0.31979
 H3838 H 0.41886 0.22306 0.33586
 H3839 H 0.32131 0.23751 0.31513
 H3840 H 0.34171 0.27039 0.26507
 H3841 H 0.38615 0.22319 0.32134
 H3842 H 0.35436 0.23783 0.32859
 H3843 H 0.39391 0.28410 0.30574
 H3844 H 0.37482 0.27045 0.27850
 C3845 C 0.88692 0.75280 0.81173
 C3846 C 0.90236 0.76427 0.80423
 C3847 C 0.92109 0.76330 0.81239
 C3848 C 0.92483 0.75099 0.82843
 C3849 C 0.90944 0.73937 0.83578
 C3850 C 0.89077 0.74018 0.82749
 C3851 C 0.86690 0.75402 0.80322
 C3852 C 0.85025 0.75248 0.81524
 C3853 C 0.83146 0.75306 0.80719
 C3854 C 0.82884 0.75545 0.78693
 C3855 C 0.84544 0.75742 0.77495
 C3856 C 0.86423 0.75660 0.78297
 H3857 H 0.93263 0.77225 0.80614
 H3858 H 0.91168 0.72992 0.84827
 H3859 H 0.81896 0.75165 0.81684
 H3860 H 0.84393 0.75909 0.75926
 H3861 H 0.87934 0.73087 0.83343
 H3862 H 0.85172 0.75092 0.83094
 H3863 H 0.89993 0.77430 0.79224
 H3864 H 0.87667 0.75753 0.77321
   
