data_POSCAR
  _audit_creation_date              2014-09-24
  _audit_creation_method            'ToBaCCo'
  _symmetry_space_group_name_H-M    'P1'
  _symmetry_Int_Tables_number       1
  _symmetry_cell_setting            triclinic
  loop_
  _symmetry_equiv_pos_as_xyz
 x,y,z
_cell_length_a 63.6713
_cell_length_b 63.0630
_cell_length_c 62.7961
_cell_angle_alpha 90.149900
_cell_angle_beta 89.863000
_cell_angle_gamma 89.733000
loop_
  _atom_site_label
  _atom_site_type_symbol
  _atom_site_fract_x
  _atom_site_fract_y
  _atom_site_fract_z
C1 C 0.35266 1.35289 0.32838
 C2 C 0.36058 1.33506 0.33928
 C3 C 0.35131 1.32795 0.35819
 C4 C 0.33387 1.33881 0.36651
 C5 C 0.32521 1.35659 0.35608
 C6 C 0.33495 1.36342 0.33705
 H7 H 0.37434 1.32676 0.33343
 H8 H 0.32775 1.33368 0.38172
 H9 H 0.32759 1.37581 0.32785
 C10 C 0.35878 0.85628 0.83203
 C11 C 0.36631 0.83818 0.84252
 C12 C 0.35622 0.83051 0.86078
 C13 C 0.33844 0.84124 0.86864
 C14 C 0.33036 0.85948 0.85844
 C15 C 0.34095 0.86683 0.84009
 H16 H 0.37999 0.82993 0.83635
 H17 H 0.33163 0.83572 0.88339
 H18 H 0.33474 0.88004 0.83110
 C19 C 0.85407 1.35592 0.82956
 C20 C 0.83600 1.36417 0.83955
 C21 C 0.82853 1.35565 0.85895
 C22 C 0.84026 1.33907 0.86832
 C23 C 0.85812 1.33049 0.85837
 C24 C 0.86499 1.33909 0.83907
 H25 H 0.82719 1.37626 0.83123
 H26 H 0.83605 1.33301 0.88383
 H27 H 0.87871 1.33246 0.83124
 C28 C 0.86656 0.86837 0.34019
 C29 C 0.84811 0.87666 0.34939
 C30 C 0.83923 0.86728 0.36759
 C31 C 0.84904 0.84939 0.37652
 C32 C 0.86742 0.84083 0.36747
 C33 C 0.87608 0.85048 0.34937
 H34 H 0.84086 0.89066 0.34259
 H35 H 0.84221 0.84194 0.39041
 H36 H 0.88985 0.84354 0.34191
 C37 C 0.63797 0.63645 0.33512
 C38 C 0.65626 0.62755 0.34420
 C39 C 0.66694 0.63772 0.36087
 C40 C 0.65922 0.65710 0.36872
 C41 C 0.64114 0.66635 0.36001
 C42 C 0.63056 0.65591 0.34346
 H43 H 0.66226 0.61245 0.33863
 H44 H 0.66748 0.66515 0.38144
 H45 H 0.61701 0.66367 0.33659
 C46 C 0.64096 0.13588 0.83406
 C47 C 0.65745 0.12564 0.84478
 C48 C 0.66675 0.13464 0.86305
 C49 C 0.65862 0.15414 0.87059
 C50 C 0.64196 0.16447 0.86019
 C51 C 0.63316 0.15518 0.84199
 H52 H 0.66356 0.11107 0.83806
 H53 H 0.66457 0.16111 0.88512
 H54 H 0.62080 0.16340 0.83348
 C55 C 1.15203 0.64587 0.82699
 C56 C 1.14284 0.66498 0.83403
 C57 C 1.15154 0.67629 0.85113
 C58 C 1.16937 0.66818 0.86139
 C59 C 1.17874 0.64914 0.85466
 C60 C 1.16993 0.63803 0.83748
 H61 H 1.12937 0.67145 0.82573
 H62 H 1.17578 0.67658 0.87496
 H63 H 1.17713 0.62335 0.83217
 C64 C 1.14048 0.14124 0.33287
 C65 C 1.13315 0.15979 0.34310
 C66 C 1.14358 0.16832 0.36077
 C67 C 1.16161 0.15812 0.36853
 C68 C 1.16950 0.13945 0.35893
 C69 C 1.15862 0.13124 0.34114
 H70 H 1.12001 0.16857 0.33664
 H71 H 1.16878 0.16436 0.38282
 H72 H 1.16441 0.11699 0.33359
 C73 C 0.64835 1.35623 0.67037
 C74 C 0.63971 1.33711 0.66313
 C75 C 0.64826 1.32659 0.64542
 C76 C 0.66548 1.33548 0.63476
 C77 C 0.67452 1.35473 0.64155
 C78 C 0.66554 1.36498 0.65945
 H79 H 0.62678 1.33000 0.67176
 H80 H 0.67107 1.32764 0.62048
 H81 H 0.67229 1.37945 0.66559
 C82 C 0.64726 0.85818 1.16996
 C83 C 0.63695 0.83987 1.16278
 C84 C 0.64446 0.82854 1.14503
 C85 C 0.66240 0.83583 1.13431
 C86 C 0.67288 0.85416 1.14118
 C87 C 0.66516 0.86524 1.15901
 H88 H 0.62349 0.83396 1.17150
 H89 H 0.66802 0.82741 1.12034
 H90 H 0.67323 0.87931 1.16449
 C91 C 1.14273 1.35665 1.16873
 C92 C 1.13432 1.33806 1.15952
 C93 C 1.14458 1.32749 1.14276
 C94 C 1.16340 1.33570 1.13479
 C95 C 1.17226 1.35405 1.14354
 C96 C 1.16189 1.36443 1.16042
 H97 H 1.12044 1.33078 1.16620
 H98 H 1.17105 1.32790 1.12145
 H99 H 1.16872 1.37883 1.16664
 C100 C 1.13925 0.86415 0.66059
 C101 C 1.13166 0.84495 0.65246
 C102 C 1.14121 0.83529 0.63481
 C103 C 1.15836 0.84519 0.62499
 C104 C 1.16649 0.86452 0.63278
 C105 C 1.15665 0.87376 0.65079
 H106 H 1.11877 0.83707 0.66041
 H107 H 1.16582 0.83713 0.61174
 H108 H 1.16176 0.88898 0.65678
 C109 C 0.35382 0.64164 0.67148
 C110 C 0.33569 0.63421 0.66121
 C111 C 0.32764 0.64461 0.64320
 C112 C 0.33805 0.66263 0.63544
 C113 C 0.35623 0.67027 0.64545
 C114 C 0.36402 0.65964 0.66342
 H115 H 0.32771 0.62039 0.66737
 H116 H 0.33220 0.67050 0.62132
 H117 H 0.37764 0.66584 0.67161
 C118 C 0.35527 0.13739 1.16819
 C119 C 0.33757 0.12922 1.15749
 C120 C 0.32902 0.13945 1.13963
 C121 C 0.33815 0.15831 1.13235
 C122 C 0.35571 0.16689 1.14267
 C123 C 0.36422 0.15629 1.16034
 H124 H 0.33052 0.11452 1.16261
 H125 H 0.33152 0.16637 1.11870
 H126 H 0.37746 0.16340 1.16834
 C127 C 0.85101 0.64630 1.17271
 C128 C 0.83264 0.63816 1.16307
 C129 C 0.82337 0.64811 1.14543
 C130 C 0.83245 0.66656 1.13724
 C131 C 0.85052 0.67518 1.14644
 C132 C 0.85980 0.66493 1.16391
 H133 H 0.82455 0.62476 1.16989
 H134 H 0.82561 0.67409 1.12339
 H135 H 0.87409 0.67154 1.17027
 C136 C 0.85607 0.14341 0.66648
 C137 C 0.83649 0.13608 0.65884
 C138 C 0.82598 0.14611 0.64176
 C139 C 0.83574 0.16368 0.63213
 C140 C 0.85518 0.17116 0.63920
 C141 C 0.86521 0.16101 0.65623
 H142 H 0.82928 0.12258 0.66635
 H143 H 0.82855 0.17149 0.61866
 H144 H 0.87986 0.16755 0.66186
 C145 C 1.35773 0.36349 0.66546
 C146 C 1.33986 0.37197 0.65565
 C147 C 1.33141 0.36250 0.63738
 C148 C 1.34112 0.34429 0.62886
 C149 C 1.35930 0.33539 0.63828
 C150 C 1.36736 0.34537 0.65671
 H151 H 1.33205 0.38559 0.66270
 H152 H 1.33492 0.33785 0.61420
 H153 H 1.38078 0.33878 0.66492
 C154 C 1.35786 0.86155 1.16667
 C155 C 1.34047 0.87126 1.15663
 C156 C 1.33095 0.86216 1.13868
 C157 C 1.33901 0.84313 1.13041
 C158 C 1.35618 0.83299 1.13999
 C159 C 1.36551 0.84226 1.15801
 H160 H 1.33325 0.88526 1.16347
 H161 H 1.33205 0.83632 1.11625
 H162 H 1.37903 0.83445 1.16489
 C163 C 0.86338 0.36220 1.16487
 C164 C 0.84484 0.37124 1.15631
 C165 C 0.83508 0.36256 1.13821
 C166 C 0.84410 0.34476 1.12827
 C167 C 0.86245 0.33546 1.13631
 C168 C 0.87182 0.34413 1.15452
 H169 H 0.83794 0.38529 1.16335
 H170 H 0.83700 0.33830 1.11401
 H171 H 0.88507 0.33572 1.16121
 C172 C 0.86412 0.86744 0.65971
 C173 C 0.87341 0.85005 0.64930
 C174 C 0.86334 0.84006 0.63215
 C175 C 0.84376 0.84784 0.62528
 C176 C 0.83423 0.86523 0.63556
 C177 C 0.84460 0.87499 0.65265
 H178 H 0.88836 0.84398 0.65488
 H179 H 0.83576 0.84013 0.61220
 H180 H 0.83724 0.88827 0.66076
 C181 C 0.64067 0.63854 0.66820
 C182 C 0.65809 0.62954 0.65774
 C183 C 0.66565 0.63814 0.63862
 C184 C 0.65548 0.65591 0.62989
 C185 C 0.63801 0.66513 0.64011
 C186 C 0.63067 0.65627 0.65921
 H187 H 0.66595 0.61595 0.66466
 H188 H 0.66100 0.66239 0.61495
 H189 H 0.61763 0.66368 0.66754
 C190 C 0.63622 1.13461 1.16257
 C191 C 0.65410 1.12461 1.15413
 C192 C 0.66402 1.13262 1.13593
 C193 C 0.65574 1.15075 1.12597
 C194 C 0.63787 1.16132 1.13423
 C195 C 0.62820 1.15277 1.15256
 H196 H 0.66055 1.11077 1.16200
 H197 H 0.66403 1.15704 1.11235
 H198 H 0.61418 1.16002 1.15914
 C199 C 0.14896 0.64646 1.17369
 C200 C 0.13833 0.66425 1.16523
 C201 C 0.14505 0.67435 1.14634
 C202 C 0.16298 0.66608 1.13594
 C203 C 0.17402 0.64865 1.14411
 C204 C 0.16693 0.63894 1.16283
 H205 H 0.12588 0.67142 1.17448
 H206 H 0.16809 0.67247 1.12084
 H207 H 0.17535 0.62516 1.16853
 C208 C 0.14244 1.14196 0.66509
 C209 C 0.13360 1.16019 0.65576
 C210 C 0.14376 1.17078 0.63883
 C211 C 0.16292 1.16222 0.63128
 C212 C 0.17194 1.14408 0.64043
 C213 C 0.16156 1.13400 0.65725
 H214 H 0.11915 1.16640 0.66241
 H215 H 0.17064 1.16897 0.61754
 H216 H 0.16879 1.12036 0.66477
 C217 C 1.35733 0.63910 0.33576
 C218 C 1.34054 0.62918 0.34611
 C219 C 1.33260 0.63716 0.36532
 C220 C 1.34179 0.65522 0.37441
 C221 C 1.35877 0.66567 0.36444
 C222 C 1.36639 0.65720 0.34498
 H223 H 1.33343 0.61529 0.33901
 H224 H 1.33493 0.66147 0.38890
 H225 H 1.37966 0.66431 0.33698
 C226 C 1.35598 1.13980 0.83432
 C227 C 1.33722 1.13215 0.84308
 C228 C 1.32848 1.14152 0.86130
 C229 C 1.33889 1.15849 0.87109
 C230 C 1.35781 1.16664 0.86271
 C231 C 1.36608 1.15705 0.84409
 H232 H 1.32896 1.11938 0.83519
 H233 H 1.33154 1.16581 0.88482
 H234 H 1.38094 1.16221 0.83757
 C235 C 0.85482 0.64219 0.83376
 C236 C 0.83803 0.63162 0.84353
 C237 C 0.82971 0.63881 0.86297
 C238 C 0.83848 0.65676 0.87271
 C239 C 0.85527 0.66760 0.86317
 C240 C 0.86347 0.66008 0.84374
 H241 H 0.83120 0.61793 0.83579
 H242 H 0.83234 0.66219 0.88789
 H243 H 0.87600 0.66866 0.83594
 C244 C 0.85904 1.14147 0.33392
 C245 C 0.84169 1.13204 0.34390
 C246 C 0.83164 1.14196 0.36125
 C247 C 0.83923 1.16157 0.36861
 C248 C 0.85650 1.17128 0.35871
 C249 C 0.86634 1.16105 0.34147
 H250 H 0.83586 1.11704 0.33800
 H251 H 0.83156 1.16940 0.38190
 H252 H 0.87962 1.16848 0.33373
 C253 C 0.64533 0.35790 0.33244
 C254 C 0.63505 0.34080 0.34258
 C255 C 0.64277 0.33173 0.36162
 C256 C 0.66117 0.34034 0.37052
 C257 C 0.67177 0.35715 0.36077
 C258 C 0.66379 0.36582 0.34192
 H259 H 0.62098 0.33443 0.33555
 H260 H 0.66796 0.33354 0.38473
 H261 H 0.67193 0.37917 0.33504
 C262 C 0.64753 0.85487 0.82849
 C263 C 0.63727 0.83676 0.83624
 C264 C 0.64489 0.82593 0.85418
 C265 C 0.66300 0.83344 0.86441
 C266 C 0.67349 0.85151 0.85691
 C267 C 0.66561 0.86213 0.83897
 H268 H 0.62336 0.83102 0.82823
 H269 H 0.66902 0.82514 0.87820
 H270 H 0.67364 0.87605 0.83307
 C271 C 0.14508 0.35669 0.83034
 C272 C 0.13708 0.33776 0.83923
 C273 C 0.14743 0.32739 0.85602
 C274 C 0.16599 0.33605 0.86414
 C275 C 0.17442 0.35468 0.85564
 C276 C 0.16388 0.36493 0.83893
 H277 H 0.12252 0.33110 0.83354
 H278 H 0.17378 0.32843 0.87742
 H279 H 0.17127 0.37863 0.83187
 C280 C 0.14842 0.85626 0.32674
 C281 C 0.13798 0.83861 0.33563
 C282 C 0.14561 0.82846 0.35394
 C283 C 0.16378 0.83615 0.36378
 C284 C 0.17446 0.85367 0.35548
 C285 C 0.16672 0.86360 0.33707
 H286 H 0.12463 0.83167 0.32764
 H287 H 0.16944 0.82866 0.37819
 H288 H 0.17494 0.87737 0.33119
 O289 O 1.07540 1.02193 1.10512
 O290 O 1.10007 1.02213 1.12971
 C291 C 1.08285 1.02926 1.12237
 C292 C 1.07171 1.04667 1.13364
 C293 C 1.07954 1.05477 1.15287
 H294 H 1.09322 1.04749 1.16006
 O295 O 0.92339 0.97857 1.10552
 O296 O 0.89866 0.97844 1.13017
 C297 C 0.91591 0.97133 1.12279
 C298 C 0.92715 0.95411 1.13406
 C299 C 0.91969 0.94654 1.15364
 H300 H 0.90613 0.95399 1.16101
 O301 O 1.01834 1.10510 1.07648
 O302 O 1.01797 1.13021 1.10100
 C303 C 1.02511 1.12263 1.08363
 C304 C 1.04172 1.13404 1.07179
 C305 C 1.04843 1.15415 1.07852
 H306 H 1.04119 1.16154 1.09231
 O307 O 0.97983 0.89513 1.07654
 O308 O 0.98031 0.87028 1.10117
 C309 C 0.97299 0.87774 1.08391
 C310 C 0.95605 0.86637 1.07251
 C311 C 0.94902 0.84656 1.07972
 H312 H 0.95628 0.83937 1.09354
 O313 O 1.10209 1.07770 1.01934
 O314 O 1.12607 1.10282 1.01916
 C315 C 1.11899 1.08555 1.02659
 C316 C 1.13022 1.07479 1.04419
 C317 C 1.14923 1.08292 1.05191
 H318 H 1.15618 1.09663 1.04433
 O319 O 0.89581 0.92246 1.01956
 O320 O 0.87168 0.89749 1.01962
 C321 C 0.87880 0.91488 1.02683
 C322 C 0.86755 0.92619 1.04416
 C323 C 0.84769 0.91938 1.05109
 H324 H 0.84015 0.90620 1.04316
 O325 O 0.97808 1.07585 1.10615
 O326 O 0.97760 1.10072 1.13089
 C327 C 0.97067 1.08337 1.12339
 C328 C 0.95334 1.07213 1.13433
 C329 C 0.94518 1.07972 1.15374
 H330 H 0.95202 1.09359 1.16115
 O331 O 1.02055 0.92454 1.10551
 O332 O 1.02109 0.89986 1.13032
 C333 C 1.02799 0.91717 1.12273
 C334 C 1.04516 0.92860 1.13370
 C335 C 1.05253 0.92172 1.15360
 H336 H 1.04535 0.90813 1.16115
 O337 O 1.10447 0.98076 1.07556
 O338 O 1.12918 0.98087 1.10010
 C339 C 1.12167 0.97357 1.08286
 C340 C 1.13265 0.95610 1.07151
 C341 C 1.15187 0.94810 1.07909
 H342 H 1.15908 0.95516 1.09299
 O343 O 0.89434 1.01959 1.07625
 O344 O 0.86951 1.01958 1.10080
 C345 C 0.87707 1.02676 1.08355
 C346 C 0.86606 1.04399 1.07204
 C347 C 0.84636 1.05149 1.07899
 H348 H 0.83886 1.04433 1.09268
 O349 O 0.92316 1.10400 1.01997
 O350 O 0.89849 1.12867 1.01983
 C351 C 0.91553 1.12122 1.02724
 C352 C 0.92619 1.13239 1.04491
 C353 C 0.91833 1.15183 1.05246
 H354 H 0.90503 1.15919 1.04462
 O355 O 1.07581 0.89586 1.01949
 O356 O 1.10038 0.87109 1.01939
 C357 C 1.08329 0.87863 1.02674
 C358 C 1.07227 0.86748 1.04421
 C359 C 1.07947 0.84763 1.05127
 H360 H 1.09303 0.84042 1.04368
 O361 O 0.92315 1.01991 1.10529
 O362 O 0.89843 1.01985 1.12995
 C363 C 0.91552 1.02717 1.12255
 C364 C 0.92632 1.04468 1.13379
 C365 C 0.91843 1.05248 1.15318
 H366 H 0.90496 1.04496 1.16047
 O367 O 1.07568 0.98059 1.10480
 O368 O 1.10026 0.98073 1.12949
 C369 C 1.08318 0.97342 1.12208
 C370 C 1.07215 0.95609 1.13336
 C371 C 1.07920 0.94904 1.15331
 H372 H 1.09223 0.95700 1.16093
 O373 O 1.02072 0.89536 1.07641
 O374 O 1.02129 0.87051 1.10105
 C375 C 1.02817 0.87812 1.08368
 C376 C 1.04535 0.86716 1.07202
 C377 C 1.05268 0.84721 1.07873
 H378 H 1.04506 0.83936 1.09196
 O379 O 0.97754 1.10481 1.07705
 O380 O 0.97705 1.12984 1.10165
 C381 C 0.97007 1.12207 1.08438
 C382 C 0.95277 1.13285 1.07292
 C383 C 0.94468 1.15235 1.08024
 H384 H 0.95143 1.15983 1.09416
 O385 O 0.89470 1.07477 1.01981
 O386 O 0.87002 1.09944 1.01970
 C387 C 0.87750 1.08222 1.02697
 C388 C 0.86637 1.07106 1.04430
 C389 C 0.84669 1.07828 1.05137
 H390 H 0.83917 1.09145 1.04334
 O391 O 1.10447 0.92489 1.01920
 O392 O 1.12909 0.90018 1.01918
 C393 C 1.12158 0.91745 1.02645
 C394 C 1.13251 0.92864 1.04395
 C395 C 1.15169 0.92087 1.05177
 H396 H 1.15902 0.90723 1.04427
 O397 O 0.97951 0.92373 1.10621
 O398 O 0.97993 0.89904 1.13100
 C399 C 0.97243 0.91617 1.12353
 C400 C 0.95488 0.92715 1.13459
 C401 C 0.94720 0.91980 1.15425
 H402 H 0.95455 0.90626 1.16181
 O403 O 1.01912 1.07673 1.10621
 O404 O 1.01883 1.10164 1.13091
 C405 C 1.02634 1.08449 1.12338
 C406 C 1.04407 1.07371 1.13422
 C407 C 1.05218 1.08165 1.15345
 H408 H 1.04507 1.09551 1.16077
 O409 O 0.89511 0.97827 1.07594
 O410 O 0.87026 0.97822 1.10046
 C411 C 0.87797 0.97100 1.08320
 C412 C 0.86716 0.95369 1.07168
 C413 C 0.84732 0.94669 1.07835
 H414 H 0.83972 0.95425 1.09185
 O415 O 1.10385 1.02219 1.07561
 O416 O 1.12861 1.02241 1.10009
 C417 C 1.12087 1.02966 1.08294
 C418 C 1.13129 1.04740 1.07168
 C419 C 1.15035 1.05576 1.07915
 H420 H 1.15786 1.04882 1.09295
 O421 O 0.92509 0.89384 1.01970
 O422 O 0.90111 0.86873 1.01978
 C423 C 0.91800 0.87654 1.02708
 C424 C 0.92921 0.86577 1.04470
 C425 C 0.92243 0.84596 1.05215
 H426 H 0.90950 0.83805 1.04432
 O427 O 1.07252 1.10603 1.01892
 O428 O 1.09643 1.13122 1.01867
 C429 C 1.07952 1.12348 1.02605
 C430 C 1.06822 1.13450 1.04355
 C431 C 1.07469 1.15460 1.05050
 H432 H 1.08739 1.16256 1.04231
 Cu433 Cu 1.08741 1.00134 1.08779
 Cu434 Cu 1.11702 1.00152 1.11730
 Cu435 Cu 0.91147 0.99910 1.08828
 Cu436 Cu 0.88174 0.99900 1.11784
 Cu437 Cu 0.99832 1.08809 1.08907
 Cu438 Cu 0.99785 1.11807 1.11864
 Cu439 Cu 1.00009 0.91219 1.08874
 Cu440 Cu 1.00072 0.88245 1.11839
 C441 C 1.05384 1.05610 1.12457
 H442 H 1.04791 1.05012 1.10957
 C443 C 1.06999 1.07232 1.16284
 C444 C 0.94485 0.94444 1.12478
 H445 H 0.95047 0.95002 1.10950
 C446 C 0.92954 0.92937 1.16383
 C447 C 1.05158 1.12444 1.05416
 H448 H 1.04670 1.10880 1.04908
 C449 C 1.06492 1.16454 1.06798
 C450 C 0.94616 0.87574 1.05487
 H451 H 0.95130 0.89115 1.04940
 C452 C 0.93222 0.83623 1.06967
 C453 C 1.12147 1.05692 1.05407
 H454 H 1.10664 1.05077 1.04840
 C455 C 1.15938 1.07359 1.06940
 C456 C 0.87704 0.94348 1.05444
 H457 H 0.89246 0.94864 1.04937
 C458 C 0.83742 0.92960 1.06813
 C459 C 0.94391 1.05447 1.12460
 H460 H 0.94986 1.04874 1.10947
 C461 C 0.92767 1.07003 1.16323
 C462 C 1.05498 0.94590 1.12380
 H463 H 1.04961 0.95109 1.10830
 C464 C 1.06952 0.93185 1.16356
 C465 C 1.12322 0.94638 1.05380
 H466 H 1.10824 0.95222 1.04808
 C467 C 1.16143 0.93042 1.06937
 C468 C 0.87583 1.05377 1.05458
 H469 H 0.89116 1.04832 1.04936
 C470 C 0.83660 1.06871 1.06876
 C471 C 0.94352 1.12311 1.05512
 H472 H 0.94945 1.10794 1.04956
 C473 C 0.92740 1.16188 1.07013
 C474 C 1.05510 0.87703 1.05458
 H475 H 1.04968 0.89250 1.04945
 C476 C 1.06975 0.83731 1.06845
 O477 O 1.07542 0.97954 0.89170
 O478 O 1.10017 0.97971 0.86708
 C479 C 1.08310 0.97232 0.87447
 C480 C 1.07240 0.95474 0.86330
 C481 C 1.08024 0.94694 0.84391
 H482 H 1.09362 0.95456 0.83653
 O483 O 0.92270 1.01960 0.89212
 O484 O 0.89797 1.01927 0.86760
 C485 C 0.91501 1.02672 0.87490
 C486 C 0.92569 1.04425 0.86360
 C487 C 0.91757 1.05218 0.84443
 H488 H 0.90399 1.04473 0.83731
 O489 O 0.97779 1.10357 0.92062
 O490 O 0.97726 1.12852 0.89608
 C491 C 0.97041 1.12086 0.91344
 C492 C 0.95334 1.13186 0.92515
 C493 C 0.94542 1.15133 0.91783
 H494 H 0.95215 1.15860 0.90378
 O495 O 1.02103 0.89528 0.92126
 O496 O 1.02135 0.87021 0.89670
 C497 C 1.02830 0.87793 0.91401
 C498 C 1.04530 0.86686 0.92560
 C499 C 1.05246 0.84690 0.91873
 H500 H 1.04522 0.83940 0.90508
 O501 O 1.10438 0.92461 0.97758
 O502 O 1.12900 0.89990 0.97759
 C503 C 1.12147 0.91707 0.97024
 C504 C 1.13233 0.92800 0.95253
 C505 C 1.15153 0.92018 0.94466
 H506 H 1.15894 0.90672 0.95231
 O507 O 0.89474 1.07476 0.97830
 O508 O 0.87009 1.09945 0.97834
 C509 C 0.87759 1.08218 0.97109
 C510 C 0.86652 1.07097 0.95374
 C511 C 0.84700 1.07838 0.94652
 H512 H 0.83956 1.09175 0.95441
 O513 O 1.01889 1.07516 0.89080
 O514 O 1.01849 1.10002 0.86618
 C515 C 1.02602 1.08287 0.87360
 C516 C 1.04375 1.07219 0.86261
 C517 C 1.05175 1.08027 0.84346
 H518 H 1.04413 1.09375 0.83603
 O519 O 0.97994 0.92372 0.89186
 O520 O 0.98021 0.89880 0.86714
 C521 C 0.97285 0.91605 0.87462
 C522 C 0.95545 0.92702 0.86353
 C523 C 0.94832 0.91969 0.84373
 H524 H 0.95626 0.90651 0.83602
 O525 O 1.10324 1.02101 0.92132
 O526 O 1.12827 1.02114 0.89698
 C527 C 1.12045 1.02825 0.91424
 C528 C 1.13124 1.04537 0.92604
 C529 C 1.15142 1.05193 0.91999
 H530 H 1.15928 1.04421 0.90674
 O531 O 0.89499 0.97788 0.92168
 O532 O 0.87016 0.97759 0.89726
 C533 C 0.87790 0.97046 0.91446
 C534 C 0.86718 0.95309 0.92595
 C535 C 0.84746 0.94586 0.91921
 H536 H 0.83989 0.95330 0.90570
 O537 O 1.07304 1.10577 0.97724
 O538 O 1.09708 1.13083 0.97700
 C539 C 1.08021 1.12298 0.96972
 C540 C 1.06913 1.13364 0.95195
 C541 C 1.07609 1.15332 0.94430
 H542 H 1.08912 1.16120 0.95200
 O543 O 0.92528 0.89375 0.97807
 O544 O 0.90134 0.86859 0.97809
 C545 C 0.91826 0.87637 0.97078
 C546 C 0.92963 0.86544 0.95326
 C547 C 0.92321 0.84534 0.94619
 H548 H 0.91044 0.83736 0.95424
 O549 O 0.92347 0.97833 0.89218
 O550 O 0.89881 0.97788 0.86759
 C551 C 0.91612 0.97097 0.87492
 C552 C 0.92764 0.95386 0.86364
 C553 C 0.92071 0.94631 0.84382
 H554 H 0.90700 0.95335 0.83644
 O555 O 1.07544 1.02087 0.89122
 O556 O 1.10030 1.02117 0.86672
 C557 C 1.08299 1.02822 0.87402
 C558 C 1.07174 1.04552 0.86281
 C559 C 1.07953 1.05383 0.84361
 H560 H 1.09366 1.04720 0.83657
 O561 O 0.98018 0.89472 0.92099
 O562 O 0.98048 0.86968 0.89640
 C563 C 0.97327 0.87728 0.91372
 C564 C 0.95646 0.86593 0.92533
 C565 C 0.94980 0.84583 0.91850
 H566 H 0.95721 0.83847 0.90478
 O567 O 1.01860 1.10417 0.92004
 O568 O 1.01811 1.12912 0.89550
 C569 C 1.02542 1.12160 0.91273
 C570 C 1.04234 1.13297 0.92413
 C571 C 1.04947 1.15269 0.91678
 H572 H 1.04227 1.15983 0.90291
 O573 O 0.89583 0.92220 0.97803
 O574 O 0.87173 0.89720 0.97805
 C575 C 0.87886 0.91453 0.97078
 C576 C 0.86764 0.92568 0.95341
 C577 C 0.84790 0.91864 0.94640
 H578 H 0.84042 0.90540 0.95429
 O579 O 1.10209 1.07686 0.97783
 O580 O 1.12626 1.10181 0.97768
 C581 C 1.11917 1.08434 0.97064
 C582 C 1.13062 1.07279 0.95361
 C583 C 1.15082 1.07912 0.94736
 H584 H 1.15844 1.09204 0.95566
 O585 O 1.02095 0.92352 0.89138
 O586 O 1.02131 0.89858 0.86669
 C587 C 1.02831 0.91591 0.87412
 C588 C 1.04559 0.92710 0.86304
 C589 C 1.05368 0.91950 0.84358
 H590 H 1.04687 0.90559 0.83622
 O591 O 0.97777 1.07513 0.89081
 O592 O 0.97729 1.09995 0.86615
 C593 C 0.97028 1.08269 0.87368
 C594 C 0.95277 1.07160 0.86289
 C595 C 0.94438 1.07936 0.84371
 H596 H 0.95116 1.09327 0.83637
 O597 O 0.89436 1.01923 0.92172
 O598 O 0.86951 1.01902 0.89732
 C599 C 0.87710 1.02633 0.91453
 C600 C 0.86615 1.04368 0.92605
 C601 C 0.84661 1.05136 0.91901
 H602 H 0.83917 1.04421 0.90527
 O603 O 1.10416 0.97968 0.92072
 O604 O 1.12903 0.97977 0.89621
 C605 C 1.12141 0.97248 0.91340
 C606 C 1.13235 0.95505 0.92471
 C607 C 1.15155 0.94696 0.91704
 H608 H 1.15867 0.95384 0.90300
 O609 O 1.07586 0.89545 0.97789
 O610 O 1.10042 0.87067 0.97787
 C611 C 1.08330 0.87813 0.97065
 C612 C 1.07221 0.86692 0.95328
 C613 C 1.07920 0.84696 0.94613
 H614 H 1.09231 0.83926 0.95397
 O615 O 0.92350 1.10370 0.97829
 O616 O 0.89886 1.12840 0.97828
 C617 C 0.91596 1.12087 0.97097
 C618 C 0.92680 1.13186 0.95332
 C619 C 0.91911 1.15131 0.94576
 H620 H 0.90584 1.15883 0.95358
 Cu621 Cu 1.08707 1.00029 0.90868
 Cu622 Cu 1.11693 1.00050 0.87927
 Cu623 Cu 0.91135 0.99879 0.90938
 Cu624 Cu 0.88161 0.99838 0.87998
 Cu625 Cu 1.08501 1.08910 0.99834
 Cu626 Cu 1.11384 1.11921 0.99809
 Cu627 Cu 1.08767 0.91269 0.99853
 Cu628 Cu 1.11721 0.88299 0.99852
 Cu629 Cu 0.91153 1.08684 0.99910
 Cu630 Cu 0.88192 1.11650 0.99903
 Cu631 Cu 0.91291 0.91055 0.99883
 Cu632 Cu 0.88408 0.88046 0.99889
 Cu633 Cu 0.99830 1.08696 0.90797
 Cu634 Cu 0.99774 1.11686 0.87846
 Cu635 Cu 1.00050 0.91185 0.90879
 Cu636 Cu 1.00086 0.88183 0.87923
 C637 C 1.05495 0.94485 0.87263
 H638 H 1.04903 0.95060 0.88777
 C639 C 1.07108 0.92930 0.83396
 C640 C 0.94342 1.05393 0.87257
 H641 H 0.94956 1.04807 0.88752
 C642 C 0.92671 1.06980 0.83441
 C643 C 0.94406 1.12234 0.94305
 H644 H 0.94985 1.10715 0.94858
 C645 C 0.92825 1.16109 0.92798
 C646 C 1.05512 0.87664 0.94303
 H647 H 1.04984 0.89217 0.94823
 C648 C 1.06938 0.83683 0.92888
 C649 C 1.12298 0.94556 0.94257
 H650 H 1.10801 0.95148 0.94837
 C651 C 1.16121 0.92946 0.92686
 C652 C 0.87588 1.05348 0.94355
 H653 H 0.89109 1.04789 0.94887
 C654 C 0.83698 1.06878 0.92912
 C655 C 1.05373 1.05468 0.87203
 H656 H 1.04783 1.04859 0.88700
 C657 C 1.06968 1.07129 0.83389
 C658 C 0.94516 0.94424 0.87325
 H659 H 0.95040 0.94977 0.88868
 C660 C 0.93095 0.92921 0.83378
 C661 C 1.12105 1.05577 0.94299
 H662 H 1.10536 1.05097 0.94756
 C663 C 1.16137 1.06874 0.93061
 C664 C 0.87704 0.94303 0.94320
 H665 H 0.89237 0.94837 0.94832
 C666 C 0.83765 0.92869 0.92935
 C667 C 1.05214 1.12368 0.94186
 H668 H 1.04689 1.10835 0.94746
 C669 C 1.06635 1.16297 0.92673
 C670 C 0.94639 0.87551 0.94285
 H671 H 0.95126 0.89112 0.94803
 C672 C 0.93321 0.83540 0.92883
 O673 O 0.97880 0.42626 0.39270
 O674 O 0.97842 0.40174 0.36761
 C675 C 0.97167 0.41919 0.37521
 C676 C 0.95496 0.43120 0.36399
 C677 C 0.94809 0.42495 0.34366
 H678 H 0.95576 0.41180 0.33565
 O679 O 1.02260 0.57816 0.39511
 O680 O 1.02357 0.60292 0.37041
 C681 C 1.03018 0.58542 0.37790
 C682 C 1.04717 0.57359 0.36682
 C683 C 1.05461 0.58030 0.34689
 H684 H 1.04761 0.59407 0.33939
 O685 O 0.89566 0.48413 0.42209
 O686 O 0.87134 0.48479 0.39715
 C687 C 0.87851 0.47730 0.41445
 C688 C 0.86710 0.46014 0.42558
 C689 C 0.84744 0.45329 0.41823
 H690 H 0.84038 0.46088 0.40453
 O691 O 1.10520 0.52010 0.42484
 O692 O 1.13014 0.51968 0.40043
 C693 C 1.12253 0.52702 0.41766
 C694 C 1.13359 0.54418 0.42919
 C695 C 1.15292 0.55194 0.42171
 H696 H 1.16014 0.54497 0.40769
 O697 O 0.92228 0.39846 0.47834
 O698 O 0.89741 0.37423 0.47803
 C699 C 0.91472 0.38135 0.47096
 C700 C 0.92593 0.36991 0.45368
 C701 C 0.91924 0.34978 0.44705
 H702 H 0.90600 0.34240 0.45492
 O703 O 1.07745 0.60505 0.48160
 O704 O 1.10235 0.62924 0.48203
 C705 C 1.08528 0.62213 0.47447
 C706 C 1.07479 0.63351 0.45681
 C707 C 1.08291 0.65275 0.44931
 H708 H 1.09626 0.65982 0.45724
 O709 O 0.92535 0.52504 0.39347
 O710 O 0.90113 0.52583 0.36844
 C711 C 0.91827 0.53261 0.37617
 C712 C 0.92983 0.54986 0.36532
 C713 C 0.92301 0.55768 0.34557
 H714 H 0.90984 0.55024 0.33769
 O715 O 1.07612 0.47938 0.39512
 O716 O 1.10111 0.47884 0.37075
 C717 C 1.08377 0.47195 0.37793
 C718 C 1.07272 0.45471 0.36651
 C719 C 1.08076 0.44672 0.34726
 H720 H 1.09450 0.45397 0.34021
 O721 O 1.01852 0.39584 0.42222
 O722 O 1.01822 0.37109 0.39735
 C723 C 1.02532 0.37835 0.41479
 C724 C 1.04201 0.36667 0.42636
 C725 C 1.04898 0.34671 0.41919
 H726 H 1.04180 0.33959 0.40530
 O727 O 0.98211 0.60835 0.42407
 O728 O 0.98297 0.63331 0.39956
 C729 C 0.97540 0.62585 0.41671
 C730 C 0.95816 0.63718 0.42790
 C731 C 0.95062 0.65677 0.42037
 H732 H 0.95787 0.66404 0.40659
 O733 O 0.89690 0.58058 0.47917
 O734 O 0.87288 0.60590 0.47912
 C735 C 0.88004 0.58850 0.47181
 C736 C 0.86893 0.57764 0.45426
 C737 C 0.84940 0.58517 0.44714
 H738 H 0.84201 0.59846 0.45520
 O739 O 1.10170 0.42233 0.48034
 O740 O 1.12570 0.39700 0.48040
 C741 C 1.11877 0.41453 0.47326
 C742 C 1.13043 0.42579 0.45630
 C743 C 1.15022 0.41849 0.44954
 H744 H 1.15706 0.40461 0.45697
 O745 O 0.98163 0.57957 0.39464
 O746 O 0.98253 0.60439 0.36999
 C747 C 0.97481 0.58735 0.37733
 C748 C 0.95741 0.57670 0.36595
 C749 C 0.95021 0.58445 0.34631
 H750 H 0.95765 0.59820 0.33934
 O751 O 1.01978 0.42489 0.39326
 O752 O 1.01959 0.40031 0.36822
 C753 C 1.02715 0.41725 0.37605
 C754 C 1.04508 0.42791 0.36548
 C755 C 1.05343 0.42008 0.34623
 H756 H 1.04640 0.40638 0.33870
 O757 O 1.10418 0.47876 0.42490
 O758 O 1.12928 0.47829 0.40064
 C759 C 1.12133 0.47118 0.41777
 C760 C 1.13175 0.45356 0.42925
 C761 C 1.15162 0.44614 0.42283
 H762 H 1.15984 0.45406 0.41002
 O763 O 0.89619 0.52546 0.42232
 O764 O 0.87182 0.52618 0.39742
 C765 C 0.87924 0.53310 0.41486
 C766 C 0.86844 0.55054 0.42639
 C767 C 0.84887 0.55829 0.41947
 H768 H 0.84132 0.55117 0.40578
 O769 O 0.92625 0.60893 0.47976
 O770 O 0.90227 0.63428 0.47968
 C771 C 0.91928 0.62639 0.47253
 C772 C 0.93071 0.63731 0.45520
 C773 C 0.92340 0.65683 0.44743
 H774 H 0.90995 0.66442 0.45487
 O775 O 1.07249 0.39385 0.47957
 O776 O 1.09637 0.36841 0.47967
 C777 C 1.07961 0.37644 0.47221
 C778 C 1.06857 0.36577 0.45442
 C779 C 1.07532 0.34582 0.44701
 H780 H 1.08813 0.33775 0.45496
 O781 O 1.07671 0.52077 0.39544
 O782 O 1.10154 0.52026 0.37090
 C783 C 1.08445 0.52785 0.37823
 C784 C 1.07371 0.54544 0.36698
 C785 C 1.08088 0.55234 0.34700
 H786 H 1.09380 0.54409 0.33932
 O787 O 0.92469 0.48367 0.39317
 O788 O 0.90051 0.48442 0.36808
 C789 C 0.91738 0.47674 0.37570
 C790 C 0.92840 0.45931 0.36436
 C791 C 0.92162 0.45272 0.34417
 H792 H 0.90834 0.46062 0.33686
 O793 O 1.02305 0.60708 0.42444
 O794 O 1.02405 0.63200 0.39990
 C795 C 1.03081 0.62413 0.41720
 C796 C 1.04824 0.63453 0.42876
 C797 C 1.05668 0.65374 0.42142
 H798 H 1.05012 0.66126 0.40743
 O799 O 0.97764 0.39720 0.42182
 O800 O 0.97721 0.37244 0.39697
 C801 C 0.97015 0.38012 0.41432
 C802 C 0.95286 0.36935 0.42582
 C803 C 0.94589 0.34921 0.41939
 H804 H 0.95363 0.34115 0.40627
 O805 O 1.10547 0.57523 0.48188
 O806 O 1.13041 0.59938 0.48229
 C807 C 1.12273 0.58237 0.47479
 C808 C 1.13362 0.57119 0.45718
 C809 C 1.15287 0.57871 0.44946
 H810 H 1.16030 0.59210 0.45718
 O811 O 0.89396 0.42808 0.47801
 O812 O 0.86896 0.40400 0.47755
 C813 C 0.87685 0.42107 0.47046
 C814 C 0.86632 0.43262 0.45293
 C815 C 0.84667 0.42600 0.44533
 H816 H 0.83875 0.41286 0.45294
 Cu817 Cu 0.99869 0.41352 0.40996
 Cu818 Cu 0.99828 0.38394 0.38000
 Cu819 Cu 1.00226 0.59081 0.41202
 Cu820 Cu 1.00339 0.62066 0.38249
 Cu821 Cu 0.91289 0.50452 0.41026
 Cu822 Cu 0.88377 0.50536 0.38025
 Cu823 Cu 1.08806 0.49982 0.41252
 Cu824 Cu 1.11802 0.49921 0.38322
 C825 C 0.94518 0.44856 0.37406
 H826 H 0.95024 0.45336 0.38980
 C827 C 0.93142 0.43567 0.33357
 C828 C 1.05671 0.55604 0.37664
 H829 H 1.05126 0.55097 0.39216
 C830 C 1.07142 0.56975 0.33682
 C831 C 0.87631 0.44983 0.44306
 H832 H 0.89159 0.45484 0.44864
 C833 C 0.83711 0.43623 0.42800
 C834 C 1.12419 0.55379 0.44707
 H835 H 1.10914 0.54814 0.45272
 C836 C 1.16257 0.56930 0.43169
 C837 C 0.94288 0.37946 0.44310
 H838 H 0.94798 0.39510 0.44799
 C839 C 0.92915 0.33925 0.43000
 C840 C 1.05731 0.62464 0.44657
 H841 H 1.05114 0.60964 0.45210
 C842 C 1.07409 0.66293 0.43156
 C843 C 0.94719 0.55932 0.37524
 H844 H 0.95241 0.55351 0.39056
 C845 C 0.93304 0.57504 0.33593
 C846 C 1.05476 0.44534 0.37538
 H847 H 1.04867 0.45125 0.39039
 C848 C 1.07135 0.42934 0.33706
 C849 C 1.05178 0.37595 0.44411
 H850 H 1.04669 0.39146 0.44955
 C851 C 1.06562 0.33616 0.42941
 C852 C 0.94821 0.62771 0.44546
 H853 H 0.95369 0.61246 0.45116
 C854 C 0.93316 0.66661 0.42998
 C855 C 0.87822 0.56021 0.44391
 H856 H 0.89343 0.55452 0.44916
 C857 C 0.83926 0.57564 0.42976
 C858 C 1.12141 0.44343 0.44616
 H859 H 1.10599 0.44892 0.45106
 C860 C 1.16100 0.42860 0.43288
 O861 O 1.01732 0.42474 0.60701
 O862 O 1.01642 0.39988 0.63162
 C863 C 1.02420 0.41687 0.62426
 C864 C 1.04185 0.42723 0.63550
 C865 C 1.04943 0.41899 0.65478
 H866 H 1.04159 0.40562 0.66204
 O867 O 0.97936 0.57816 0.60740
 O868 O 0.97967 0.60267 0.63251
 C869 C 0.97226 0.58565 0.62478
 C870 C 0.95485 0.57467 0.63577
 C871 C 0.94803 0.58136 0.65598
 H872 H 0.95585 0.59445 0.66379
 O873 O 0.89418 0.52509 0.57685
 O874 O 0.86925 0.52564 0.60129
 C875 C 0.87709 0.53270 0.58411
 C876 C 0.86657 0.55026 0.57265
 C877 C 0.84704 0.55819 0.57957
 H878 H 0.83936 0.55113 0.59321
 O879 O 1.10281 0.47776 0.57841
 O880 O 1.12724 0.47694 0.60324
 C881 C 1.11967 0.46994 0.58587
 C882 C 1.13016 0.45217 0.57449
 C883 C 1.14946 0.44398 0.58166
 H884 H 1.15703 0.45102 0.59538
 O885 O 1.07172 0.39377 0.52120
 O886 O 1.09555 0.36829 0.52131
 C887 C 1.07858 0.37629 0.52846
 C888 C 1.06699 0.36555 0.54582
 C889 C 1.07343 0.34554 0.55319
 H890 H 1.08640 0.33742 0.54545
 O891 O 0.92572 0.60850 0.52138
 O892 O 0.90176 0.63387 0.52124
 C893 C 0.91851 0.62585 0.52874
 C894 C 0.92934 0.63650 0.54662
 C895 C 0.92173 0.65589 0.55454
 H896 H 0.90848 0.66354 0.54691
 O897 O 0.92179 0.48304 0.60605
 O898 O 0.89699 0.48351 0.63063
 C899 C 0.91408 0.47598 0.62330
 C900 C 0.92493 0.45857 0.63465
 C901 C 0.91771 0.45168 0.65459
 H902 H 0.90426 0.45941 0.66189
 O903 O 1.07476 0.51986 0.60759
 O904 O 1.09899 0.51919 0.63262
 C905 C 1.08213 0.52692 0.62498
 C906 C 1.07125 0.54466 0.63604
 C907 C 1.07840 0.55201 0.65587
 H908 H 1.09143 0.54407 0.66359
 O909 O 0.97563 0.39747 0.57728
 O910 O 0.97465 0.37265 0.60193
 C911 C 0.96787 0.38046 0.58461
 C912 C 0.95045 0.36991 0.57319
 C913 C 0.94212 0.35085 0.58089
 H914 H 0.94910 0.34335 0.59468
 O915 O 1.02082 0.60641 0.57855
 O916 O 1.02102 0.63125 0.60335
 C917 C 1.02810 0.62360 0.58601
 C918 C 1.04524 0.63448 0.57454
 C919 C 1.05176 0.65482 0.58073
 H920 H 1.04397 0.66277 0.59388
 O921 O 0.89337 0.42821 0.51956
 O922 O 0.86829 0.40421 0.51913
 C923 C 0.87600 0.42124 0.52656
 C924 C 0.86498 0.43276 0.54393
 C925 C 0.84513 0.42614 0.55101
 H926 H 0.83736 0.41310 0.54306
 O927 O 1.10525 0.57542 0.52346
 O928 O 1.13016 0.59960 0.52387
 C929 C 1.12239 0.58248 0.53094
 C930 C 1.13311 0.57089 0.54833
 C931 C 1.15278 0.57755 0.55584
 H932 H 1.16059 0.59077 0.54827
 O933 O 1.02034 0.57717 0.60740
 O934 O 1.02072 0.60182 0.63238
 C935 C 1.02761 0.58442 0.62476
 C936 C 1.04459 0.57274 0.63590
 C937 C 1.05197 0.57982 0.65573
 H938 H 1.04494 0.59370 0.66308
 O939 O 0.97630 0.42622 0.60679
 O940 O 0.97540 0.40149 0.63154
 C941 C 0.96877 0.41896 0.62403
 C942 C 0.95173 0.43072 0.63506
 C943 C 0.94431 0.42405 0.65502
 H944 H 0.95178 0.41076 0.66290
 O945 O 1.10406 0.51915 0.57896
 O946 O 1.12845 0.51842 0.60382
 C947 C 1.12125 0.52594 0.58655
 C948 C 1.13262 0.54315 0.57545
 C949 C 1.15229 0.55004 0.58275
 H950 H 1.15945 0.54238 0.59635
 O951 O 0.89374 0.48378 0.57628
 O952 O 0.86879 0.48423 0.60070
 C953 C 0.87639 0.47692 0.58343
 C954 C 0.86522 0.45996 0.57175
 C955 C 0.84540 0.45308 0.57862
 H956 H 0.83810 0.46050 0.59236
 O957 O 1.07675 0.60498 0.52311
 O958 O 1.10155 0.62928 0.52348
 C959 C 1.08420 0.62217 0.53040
 C960 C 1.07272 0.63374 0.54735
 C961 C 1.07901 0.65410 0.55369
 H962 H 1.09192 0.66174 0.54553
 O963 O 0.92136 0.39831 0.51998
 O964 O 0.89639 0.37421 0.51968
 C965 C 0.91345 0.38133 0.52725
 C966 C 0.92390 0.37020 0.54512
 C967 C 0.91577 0.35108 0.55309
 H968 H 0.90206 0.34408 0.54576
 O969 O 1.07422 0.47847 0.60778
 O970 O 1.09850 0.47768 0.63275
 C971 C 1.08134 0.47091 0.62507
 C972 C 1.06982 0.45365 0.63593
 C973 C 1.07722 0.44514 0.65519
 H974 H 1.09123 0.45159 0.66244
 O975 O 0.92267 0.52427 0.60622
 O976 O 0.89790 0.52480 0.63083
 C977 C 0.91527 0.53155 0.62358
 C978 C 0.92687 0.54829 0.63513
 C979 C 0.92027 0.55516 0.65537
 H980 H 0.90701 0.54758 0.66299
 O981 O 0.97994 0.60732 0.57849
 O982 O 0.98005 0.63199 0.60345
 C983 C 0.97292 0.62468 0.58604
 C984 C 0.95591 0.63608 0.57467
 C985 C 0.94812 0.65559 0.58231
 H986 H 0.95497 0.66279 0.59634
 O987 O 1.01653 0.39593 0.57752
 O988 O 1.01555 0.37099 0.60205
 C989 C 1.02304 0.37833 0.58482
 C990 C 1.03982 0.36658 0.57338
 C991 C 1.04648 0.34657 0.58052
 H992 H 1.03899 0.33950 0.59426
 O993 O 1.10123 0.42191 0.52188
 O994 O 1.12517 0.39652 0.52192
 C995 C 1.11807 0.41394 0.52926
 C996 C 1.12925 0.42476 0.54686
 C997 C 1.14853 0.41683 0.55427
 H998 H 1.15567 0.40324 0.54647
 O999 O 0.89613 0.58052 0.52071
 O1000 O 0.87213 0.60585 0.52056
 C1001 C 0.87908 0.58840 0.52780
 C1002 C 0.86758 0.57747 0.54505
 C1003 C 0.84805 0.58518 0.55217
 H1004 H 0.84089 0.59864 0.54428
 Cu1005 Cu 0.99655 0.41361 0.58971
 Cu1006 Cu 0.99541 0.38376 0.61927
 Cu1007 Cu 1.00009 0.58980 0.59047
 Cu1008 Cu 1.00042 0.61939 0.62046
 Cu1009 Cu 0.91025 0.41566 0.49901
 Cu1010 Cu 0.88027 0.38673 0.49853
 Cu1011 Cu 1.08437 0.41048 0.50073
 Cu1012 Cu 1.11308 0.37999 0.50082
 Cu1013 Cu 0.91366 0.59208 0.50025
 Cu1014 Cu 0.88488 0.62255 0.50012
 Cu1015 Cu 1.08874 0.58774 0.50253
 Cu1016 Cu 1.11864 0.61679 0.50300
 Cu1017 Cu 0.91057 0.50402 0.58889
 Cu1018 Cu 0.88071 0.50459 0.61832
 Cu1019 Cu 1.08655 0.49888 0.59070
 Cu1020 Cu 1.11573 0.49799 0.62061
 C1021 C 1.05202 0.44470 0.62634
 H1022 H 1.04643 0.45093 0.61131
 C1023 C 1.06716 0.42775 0.66471
 C1024 C 0.94429 0.55800 0.62558
 H1025 H 0.94931 0.55296 0.60985
 C1026 C 0.93079 0.57167 0.66594
 C1027 C 0.87659 0.55989 0.55525
 H1028 H 0.89179 0.55406 0.55003
 C1029 C 0.83768 0.57568 0.56943
 C1030 C 1.12029 0.44254 0.55695
 H1031 H 1.10528 0.44855 0.55150
 C1032 C 1.15873 0.42628 0.57166
 C1033 C 1.05003 0.37582 0.55589
 H1034 H 1.04518 0.39139 0.55051
 C1035 C 1.06327 0.33593 0.57054
 C1036 C 0.94653 0.62680 0.55668
 H1037 H 0.95222 0.61164 0.55086
 C1038 C 0.93093 0.66549 0.57239
 C1039 C 0.94208 0.44813 0.62512
 H1040 H 0.94753 0.45317 0.60960
 C1041 C 0.92730 0.43445 0.66492
 C1042 C 1.05421 0.55502 0.62629
 H1043 H 1.04879 0.54965 0.61086
 C1044 C 1.06885 0.56957 0.66584
 C1045 C 0.94136 0.37937 0.55518
 H1046 H 0.94752 0.39426 0.54936
 C1047 C 0.92473 0.34137 0.57105
 C1048 C 1.05570 0.62416 0.55772
 H1049 H 1.05092 0.60836 0.55306
 C1050 C 1.06859 0.66479 0.57033
 C1051 C 0.87479 0.44983 0.55427
 H1052 H 0.89023 0.45484 0.54909
 C1053 C 0.83522 0.43620 0.56836
 C1054 C 1.12327 0.55356 0.55812
 H1055 H 1.10797 0.54852 0.55260
 C1056 C 1.16252 0.56722 0.57304
 O1057 O 0.57347 1.02129 0.60659
 O1058 O 0.59727 1.02169 0.63204
 C1059 C 0.58030 1.02874 0.62405
 C1060 C 0.56866 1.04615 0.63480
 C1061 C 0.57480 1.05333 0.65503
 H1062 H 0.58757 1.04545 0.66325
 O1063 O 0.42391 0.98001 0.60544
 O1064 O 0.39913 0.98026 0.63004
 C1065 C 0.41635 0.97296 0.62275
 C1066 C 0.42744 0.95569 0.63414
 C1067 C 0.42046 0.94890 0.65421
 H1068 H 0.40712 0.95669 0.66164
 O1069 O 0.51840 1.10695 0.57555
 O1070 O 0.51801 1.13187 0.60025
 C1071 C 0.52543 1.12424 0.58306
 C1072 C 0.54278 1.13525 0.57198
 C1073 C 0.54983 1.15505 0.57923
 H1074 H 0.54219 1.16255 0.59275
 O1075 O 0.47884 0.89397 0.57683
 O1076 O 0.47854 0.86941 0.60175
 C1077 C 0.47150 0.87685 0.58437
 C1078 C 0.45415 0.86594 0.57308
 C1079 C 0.44581 0.84685 0.58092
 H1080 H 0.45244 0.83969 0.59506
 O1081 O 0.60409 1.07719 0.52163
 O1082 O 0.62852 1.10186 0.52208
 C1083 C 0.62097 1.08466 0.52926
 C1084 C 0.63159 1.07344 0.54698
 C1085 C 0.65126 1.08020 0.55439
 H1086 H 0.65915 1.09318 0.54648
 O1087 O 0.39537 0.92329 0.51971
 O1088 O 0.37076 0.89880 0.51959
 C1089 C 0.37822 0.91599 0.52694
 C1090 C 0.36725 0.92736 0.54446
 C1091 C 0.34769 0.92031 0.55206
 H1092 H 0.34030 0.90668 0.54475
 O1093 O 0.47721 1.07808 0.60440
 O1094 O 0.47686 1.10294 0.62917
 C1095 C 0.46987 1.08563 0.62167
 C1096 C 0.45268 1.07449 0.63285
 C1097 C 0.44496 1.08226 0.65231
 H1098 H 0.45237 1.09585 0.65966
 O1099 O 0.51950 0.92331 0.60604
 O1100 O 0.51936 0.89883 0.63106
 C1101 C 0.52653 0.91602 0.62348
 C1102 C 0.54356 0.92740 0.63476
 C1103 C 0.55081 0.92020 0.65458
 H1104 H 0.54364 0.90645 0.66184
 O1105 O 0.60377 0.98024 0.57828
 O1106 O 0.62786 0.98065 0.60344
 C1107 C 0.62092 0.97335 0.58595
 C1108 C 0.63259 0.95641 0.57451
 C1109 C 0.65303 0.95056 0.58063
 H1110 H 0.66069 0.95895 0.59350
 O1111 O 0.39527 1.02076 0.57531
 O1112 O 0.37027 1.02094 0.59968
 C1113 C 0.37790 1.02790 0.58234
 C1114 C 0.36671 1.04474 0.57045
 C1115 C 0.34658 1.05139 0.57679
 H1116 H 0.33904 1.04389 0.59028
 O1117 O 0.42289 1.10571 0.51887
 O1118 O 0.39806 1.13021 0.51838
 C1119 C 0.41510 1.12295 0.52596
 C1120 C 0.42567 1.13433 0.54358
 C1121 C 0.41772 1.15375 0.55114
 H1122 H 0.40433 1.16096 0.54333
 O1123 O 0.57716 0.89483 0.52251
 O1124 O 0.60184 0.87019 0.52322
 C1125 C 0.58454 0.87769 0.53009
 C1126 C 0.57315 0.86661 0.54738
 C1127 C 0.58074 0.84727 0.55534
 H1128 H 0.59450 0.83999 0.54817
 O1129 O 0.42304 1.02149 0.60538
 O1130 O 0.39818 1.02177 0.62988
 C1131 C 0.41526 1.02903 0.62246
 C1132 C 0.42593 1.04684 0.63337
 C1133 C 0.41832 1.05493 0.65285
 H1134 H 0.40475 1.04776 0.66032
 O1135 O 0.57428 0.97981 0.60680
 O1136 O 0.59820 0.98014 0.63212
 C1137 C 0.58143 0.97263 0.62424
 C1138 C 0.57041 0.95503 0.63513
 C1139 C 0.57743 0.94757 0.65496
 H1140 H 0.59047 0.95530 0.66278
 O1141 O 0.51997 0.89401 0.57715
 O1142 O 0.51980 0.86939 0.60202
 C1143 C 0.52725 0.87688 0.58483
 C1144 C 0.54505 0.86604 0.57401
 C1145 C 0.55293 0.84668 0.58175
 H1146 H 0.54555 0.83926 0.59538
 O1147 O 0.47734 1.10707 0.57530
 O1148 O 0.47692 1.13200 0.59999
 C1149 C 0.46991 1.12432 0.58269
 C1150 C 0.45252 1.13510 0.57132
 C1151 C 0.44429 1.15451 0.57873
 H1152 H 0.45107 1.16198 0.59264
 O1153 O 0.39501 1.07590 0.51837
 O1154 O 0.37007 1.10029 0.51791
 C1155 C 0.37766 1.08315 0.52533
 C1156 C 0.36656 1.07177 0.54260
 C1157 C 0.34643 1.07822 0.54921
 H1158 H 0.33856 1.09110 0.54104
 O1159 O 0.60543 0.92424 0.52243
 O1160 O 0.63028 0.89976 0.52298
 C1161 C 0.62256 0.91710 0.52988
 C1162 C 0.63336 0.92896 0.54698
 C1163 C 0.65376 0.92336 0.55324
 H1164 H 0.66178 0.91037 0.54529
 O1165 O 0.47859 0.92329 0.60586
 O1166 O 0.47838 0.89888 0.63093
 C1167 C 0.47133 0.91612 0.62325
 C1168 C 0.45421 0.92777 0.63434
 C1169 C 0.44700 0.92118 0.65442
 H1170 H 0.45454 0.90792 0.66228
 O1171 O 0.51808 1.07791 0.60470
 O1172 O 0.51772 1.10271 0.62952
 C1173 C 0.52492 1.08534 0.62216
 C1174 C 0.54165 1.07385 0.63381
 C1175 C 0.54802 1.08076 0.65404
 H1176 H 0.54044 1.09440 0.66129
 O1177 O 0.39547 0.97946 0.57601
 O1178 O 0.37059 0.97965 0.60051
 C1179 C 0.37830 0.97227 0.58332
 C1180 C 0.36743 0.95485 0.57202
 C1181 C 0.34788 0.94763 0.57929
 H1182 H 0.34034 0.95550 0.59264
 O1183 O 0.60297 1.02155 0.57815
 O1184 O 0.62693 1.02197 0.60345
 C1185 C 0.61980 1.02901 0.58594
 C1186 C 0.63097 1.04627 0.57470
 C1187 C 0.65060 1.05332 0.58192
 H1188 H 0.65772 1.04590 0.59568
 O1189 O 0.42425 0.89431 0.52004
 O1190 O 0.39977 0.86969 0.51983
 C1191 C 0.41674 0.87716 0.52732
 C1192 C 0.42745 0.86618 0.54512
 C1193 C 0.41945 0.84710 0.55311
 H1194 H 0.40609 0.83981 0.54542
 O1195 O 0.57529 1.10633 0.52078
 O1196 O 0.59956 1.13117 0.52122
 C1197 C 0.58234 1.12369 0.52810
 C1198 C 0.57066 1.13496 0.54517
 C1199 C 0.57747 1.15478 0.55263
 H1200 H 0.59084 1.16234 0.54518
 Cu1201 Cu 0.58622 1.00066 0.58995
 Cu1202 Cu 0.61492 1.00115 0.62035
 Cu1203 Cu 0.41196 1.00043 0.58814
 Cu1204 Cu 0.38206 1.00067 0.61750
 Cu1205 Cu 0.49780 1.09006 0.58746
 Cu1206 Cu 0.49738 1.11991 0.61720
 Cu1207 Cu 0.49921 0.91104 0.58894
 Cu1208 Cu 0.49899 0.88163 0.61891
 C1209 C 0.55193 1.05640 0.62440
 H1210 H 0.54728 1.05116 0.60867
 C1211 C 0.56455 1.07060 0.66478
 C1212 C 0.44445 0.94516 0.62445
 H1213 H 0.44973 0.95014 0.60884
 C1214 C 0.43016 0.93170 0.66451
 C1215 C 0.55316 1.12544 0.55481
 H1216 H 0.54800 1.11001 0.54935
 C1217 C 0.56717 1.16494 0.56968
 C1218 C 0.44494 0.87537 0.55508
 H1219 H 0.45099 0.89026 0.54917
 C1220 C 0.42836 0.83739 0.57109
 C1221 C 0.62168 1.05633 0.55712
 H1222 H 0.60641 1.05116 0.55164
 C1223 C 0.66092 1.07022 0.57184
 C1224 C 0.37690 0.94474 0.55448
 H1225 H 0.39211 0.95008 0.54896
 C1226 C 0.33792 0.93034 0.56952
 C1227 C 0.44321 1.05667 0.62362
 H1228 H 0.44895 1.05078 0.60845
 C1229 C 0.42771 1.07272 0.66238
 C1230 C 0.55334 0.94495 0.62526
 H1231 H 0.54802 0.95041 0.60984
 C1232 C 0.56772 0.93017 0.66482
 C1233 C 0.62299 0.94563 0.55756
 H1234 H 0.60715 0.94988 0.55291
 C1235 C 0.66380 0.93415 0.56993
 C1236 C 0.37648 1.05488 0.55320
 H1237 H 0.39213 1.05001 0.54840
 C1238 C 0.33630 1.06808 0.56626
 C1239 C 0.44319 1.12527 0.55363
 H1240 H 0.44922 1.11015 0.54804
 C1241 C 0.42684 1.16395 0.56876
 C1242 C 0.55517 0.87577 0.55669
 H1243 H 0.54942 0.89085 0.55084
 C1244 C 0.57083 0.83723 0.57256
 O1245 O 0.57867 0.97867 0.39627
 O1246 O 0.60317 0.97841 0.37138
 C1247 C 0.58607 0.97130 0.37895
 C1248 C 0.57486 0.95400 0.36778
 C1249 C 0.58156 0.94705 0.34760
 H1250 H 0.59455 0.95490 0.33979
 O1251 O 0.42613 1.01935 0.39253
 O1252 O 0.40234 1.01903 0.36706
 C1253 C 0.41921 1.02634 0.37493
 C1254 C 0.43063 1.04353 0.36387
 C1255 C 0.42419 1.05052 0.34369
 H1256 H 0.41135 1.04260 0.33569
 O1257 O 0.48057 1.10476 0.42229
 O1258 O 0.48076 1.12926 0.39729
 C1259 C 0.47340 1.12192 0.41459
 C1260 C 0.45600 1.13313 0.42566
 C1261 C 0.44893 1.15300 0.41853
 H1262 H 0.45652 1.16040 0.40501
 O1263 O 0.52248 0.89358 0.42488
 O1264 O 0.52326 0.86866 0.40018
 C1265 C 0.52994 0.87627 0.41763
 C1266 C 0.54689 0.86522 0.42937
 C1267 C 0.55377 0.84495 0.42307
 H1268 H 0.54599 0.83691 0.41004
 O1269 O 0.60671 0.92306 0.48096
 O1270 O 0.63132 0.89834 0.48147
 C1271 C 0.62395 0.91550 0.47395
 C1272 C 0.63515 0.92658 0.45654
 C1273 C 0.65461 0.91906 0.44887
 H1274 H 0.66182 0.90524 0.45608
 O1275 O 0.39540 1.07613 0.47675
 O1276 O 0.37063 1.10067 0.47628
 C1277 C 0.37841 1.08349 0.46911
 C1278 C 0.36791 1.07235 0.45129
 C1279 C 0.34889 1.08008 0.44306
 H1280 H 0.34134 1.09363 0.45052
 O1281 O 0.52220 1.07553 0.39400
 O1282 O 0.52248 1.09983 0.36881
 C1283 C 0.52963 1.08273 0.37669
 C1284 C 0.54713 1.07131 0.36602
 C1285 C 0.55477 1.07806 0.34613
 H1286 H 0.54753 1.09150 0.33827
 O1287 O 0.48193 0.92246 0.39483
 O1288 O 0.48278 0.89761 0.37006
 C1289 C 0.47523 0.91484 0.37738
 C1290 C 0.45805 0.92575 0.36583
 C1291 C 0.45106 0.91792 0.34615
 H1292 H 0.45908 0.90454 0.33890
 O1293 O 0.60724 1.02040 0.42497
 O1294 O 0.63188 1.02024 0.40024
 C1295 C 0.62427 1.02770 0.41743
 C1296 C 0.63482 1.04551 0.42848
 C1297 C 0.65383 1.05381 0.42075
 H1298 H 0.66128 1.04672 0.40691
 O1299 O 0.39676 0.97862 0.42166
 O1300 O 0.37271 0.97834 0.39645
 C1301 C 0.37979 0.97137 0.41401
 C1302 C 0.36851 0.95434 0.42545
 C1303 C 0.34880 0.94740 0.41837
 H1304 H 0.34162 0.95484 0.40465
 O1305 O 0.57628 1.10589 0.47927
 O1306 O 0.60048 1.13078 0.47961
 C1307 C 0.58365 1.12310 0.47201
 C1308 C 0.57278 1.13389 0.45418
 C1309 C 0.58021 1.15324 0.44611
 H1310 H 0.59380 1.16064 0.45329
 O1311 O 0.42450 0.89386 0.47849
 O1312 O 0.40007 0.86920 0.47815
 C1313 C 0.41726 0.87660 0.47111
 C1314 C 0.42881 0.86544 0.45382
 C1315 C 0.42176 0.84588 0.44581
 H1316 H 0.40790 0.83860 0.45259
 O1317 O 0.42589 0.97798 0.39281
 O1318 O 0.40202 0.97755 0.36744
 C1319 C 0.41893 0.97041 0.37545
 C1320 C 0.43042 0.95279 0.36485
 C1321 C 0.42357 0.94462 0.34520
 H1322 H 0.40995 0.95150 0.33752
 O1323 O 0.57833 1.01998 0.39601
 O1324 O 0.60289 1.01969 0.37118
 C1325 C 0.58571 1.02696 0.37858
 C1326 C 0.57449 1.04402 0.36706
 C1327 C 0.58181 1.05091 0.34717
 H1328 H 0.59511 1.04298 0.33983
 O1329 O 0.48144 0.89369 0.42416
 O1330 O 0.48226 0.86880 0.39943
 C1331 C 0.47454 0.87640 0.41651
 C1332 C 0.45694 0.86539 0.42723
 C1333 C 0.44975 0.84583 0.41954
 H1334 H 0.45788 0.83823 0.40639
 O1335 O 0.52157 1.10493 0.42282
 O1336 O 0.52179 1.12935 0.39774
 C1337 C 0.52877 1.12208 0.41521
 C1338 C 0.54588 1.13333 0.42646
 C1339 C 0.55347 1.15269 0.41870
 H1340 H 0.54601 1.15997 0.40504
 O1341 O 0.39583 0.92317 0.47810
 O1342 O 0.37123 0.89868 0.47791
 C1343 C 0.37879 0.91584 0.47069
 C1344 C 0.36801 0.92714 0.45313
 C1345 C 0.34828 0.92040 0.44580
 H1346 H 0.34045 0.90734 0.45362
 O1347 O 0.60526 1.07699 0.48006
 O1348 O 0.62958 1.10178 0.48043
 C1349 C 0.62242 1.08448 0.47305
 C1350 C 0.63380 1.07332 0.45569
 C1351 C 0.65276 1.08138 0.44773
 H1352 H 0.65965 1.09528 0.45505
 O1353 O 0.52294 0.92281 0.39590
 O1354 O 0.52372 0.89800 0.37108
 C1355 C 0.53053 0.91535 0.37870
 C1356 C 0.54769 0.92673 0.36767
 C1357 C 0.55463 0.92001 0.34750
 H1358 H 0.54716 0.90661 0.33987
 O1359 O 0.48123 1.07538 0.39336
 O1360 O 0.48149 1.09973 0.36822
 C1361 C 0.47435 1.08255 0.37581
 C1362 C 0.45756 1.07103 0.36436
 C1363 C 0.45084 1.07784 0.34421
 H1364 H 0.45823 1.09143 0.33688
 O1365 O 0.39643 1.01996 0.42075
 O1366 O 0.37249 1.01978 0.39543
 C1367 C 0.37954 1.02724 0.41281
 C1368 C 0.36839 1.04492 0.42369
 C1369 C 0.34935 1.05295 0.41564
 H1370 H 0.34246 1.04587 0.40158
 O1371 O 0.60734 0.97894 0.42543
 O1372 O 0.63196 0.97871 0.40067
 C1373 C 0.62445 0.97158 0.41797
 C1374 C 0.63534 0.95409 0.42919
 C1375 C 0.65471 0.94635 0.42173
 H1376 H 0.66225 0.95394 0.40830
 O1377 O 0.57753 0.89456 0.48104
 O1378 O 0.60199 0.86970 0.48168
 C1379 C 0.58496 0.87712 0.47417
 C1380 C 0.57383 0.86566 0.45701
 C1381 C 0.58051 0.84541 0.45050
 H1382 H 0.59377 0.83797 0.45831
 O1383 O 0.42419 1.10498 0.47737
 O1384 O 0.39952 1.12964 0.47685
 C1385 C 0.41683 1.12218 0.46993
 C1386 C 0.42832 1.13324 0.45272
 C1387 C 0.42150 1.15311 0.44539
 H1388 H 0.40824 1.16086 0.45302
 Cu1389 Cu 0.59048 0.99953 0.41320
 Cu1390 Cu 0.61997 0.99924 0.38340
 Cu1391 Cu 0.41369 0.99900 0.40946
 Cu1392 Cu 0.38499 0.99863 0.37904
 Cu1393 Cu 0.58781 1.08912 0.50040
 Cu1394 Cu 0.61699 1.11887 0.50091
 Cu1395 Cu 0.58926 0.91165 0.50165
 Cu1396 Cu 0.61883 0.88200 0.50243
 Cu1397 Cu 0.41184 1.08822 0.49790
 Cu1398 Cu 0.38206 1.11764 0.49731
 Cu1399 Cu 0.41242 0.91111 0.49906
 Cu1400 Cu 0.38300 0.88162 0.49884
 Cu1401 Cu 0.50135 1.08772 0.41063
 Cu1402 Cu 0.50163 1.11700 0.38051
 Cu1403 Cu 0.50215 0.91061 0.41244
 Cu1404 Cu 0.50312 0.88078 0.38270
 C1405 C 0.55778 0.94386 0.37760
 H1406 H 0.55268 0.94896 0.39327
 C1407 C 0.57149 0.93010 0.33730
 C1408 C 0.44748 1.05374 0.37397
 H1409 H 0.45237 1.04862 0.38965
 C1410 C 0.43420 1.06767 0.33372
 C1411 C 0.44571 1.12348 0.44289
 H1412 H 0.45088 1.10802 0.44828
 C1413 C 0.43171 1.16313 0.42831
 C1414 C 0.55689 0.87534 0.44648
 H1415 H 0.55184 0.89108 0.45124
 C1416 C 0.57054 0.83489 0.43358
 C1417 C 0.62580 0.94423 0.44671
 H1418 H 0.61069 0.94993 0.45231
 C1419 C 0.66445 0.92881 0.43140
 C1420 C 0.37743 1.05465 0.44162
 H1421 H 0.39226 1.04879 0.44771
 C1422 C 0.33953 1.07061 0.42519
 C1423 C 0.55702 1.05418 0.37626
 H1424 H 0.55147 1.04910 0.39174
 C1425 C 0.57216 1.06797 0.33664
 C1426 C 0.44777 0.94332 0.37494
 H1427 H 0.45293 0.94926 0.39024
 C1428 C 0.43377 0.92712 0.33576
 C1429 C 0.62508 1.05527 0.44609
 H1430 H 0.61027 1.04920 0.45194
 C1431 C 0.66284 1.07183 0.43022
 C1432 C 0.37787 0.94426 0.44297
 H1433 H 0.39320 0.94935 0.44833
 C1434 C 0.33853 0.93048 0.42847
 C1435 C 0.55550 1.12417 0.44433
 H1436 H 0.54989 1.10908 0.45020
 C1437 C 0.57068 1.16274 0.42832
 C1438 C 0.44651 0.87496 0.44450
 H1439 H 0.45184 0.89019 0.45032
 C1440 C 0.43212 0.83597 0.42861
 O1441 O 0.57553 0.51584 1.10706
 O1442 O 0.59976 0.51529 1.13209
 C1443 C 0.58287 0.52290 1.12447
 C1444 C 0.57206 0.54057 1.13566
 C1445 C 0.57951 0.54773 1.15540
 H1446 H 0.59250 0.53956 1.16295
 O1447 O 0.42422 0.47876 1.10705
 O1448 O 0.39983 0.47906 1.13204
 C1449 C 0.41675 0.47151 1.12431
 C1450 C 0.42760 0.45376 1.13517
 C1451 C 0.42059 0.44658 1.15509
 H1452 H 0.40735 0.45435 1.16273
 O1453 O 0.52208 0.60383 1.07933
 O1454 O 0.52264 0.62824 1.10453
 C1455 C 0.52965 0.62078 1.08710
 C1456 C 0.54720 0.63142 1.07597
 C1457 C 0.55555 0.65055 1.08374
 H1458 H 0.54875 0.65794 1.09775
 O1459 O 0.47741 0.39161 1.07690
 O1460 O 0.47692 0.36667 1.10144
 C1461 C 0.46990 0.37446 1.08422
 C1462 C 0.45251 0.36385 1.07278
 C1463 C 0.44504 0.34396 1.07937
 H1464 H 0.45257 0.33584 1.09250
 O1465 O 0.60527 0.57243 1.02293
 O1466 O 0.63036 0.59641 1.02313
 C1467 C 0.62251 0.57934 1.03027
 C1468 C 0.63321 0.56773 1.04768
 C1469 C 0.65260 0.57477 1.05557
 H1470 H 0.66025 0.58823 1.04824
 O1471 O 0.39409 0.42365 1.02160
 O1472 O 0.36897 0.39970 1.02143
 C1473 C 0.37684 0.41665 1.02888
 C1474 C 0.36617 0.42813 1.04653
 C1475 C 0.34649 0.42147 1.05410
 H1476 H 0.33863 0.40828 1.04648
 O1477 O 0.48067 0.57513 1.10791
 O1478 O 0.48116 0.59941 1.13324
 C1479 C 0.47371 0.58243 1.12544
 C1480 C 0.45650 0.57129 1.13660
 C1481 C 0.44971 0.57816 1.15674
 H1482 H 0.45739 0.59148 1.16432
 O1483 O 0.51896 0.41964 1.10609
 O1484 O 0.51846 0.39485 1.13079
 C1485 C 0.52596 0.41195 1.12338
 C1486 C 0.54329 0.42280 1.13469
 C1487 C 0.55025 0.41546 1.15457
 H1488 H 0.54266 0.40194 1.16183
 O1489 O 0.60443 0.47417 1.07799
 O1490 O 0.62875 0.47369 1.10293
 C1491 C 0.62142 0.46668 1.08550
 C1492 C 0.63242 0.44928 1.07407
 C1493 C 0.65185 0.44151 1.08131
 H1494 H 0.65913 0.44862 1.09515
 O1495 O 0.39609 0.52095 1.07846
 O1496 O 0.37154 0.52125 1.10329
 C1497 C 0.37907 0.52843 1.08600
 C1498 C 0.36820 0.54593 1.07476
 C1499 C 0.34839 0.55307 1.08162
 H1500 H 0.34086 0.54549 1.09507
 O1501 O 0.42592 0.60601 1.02351
 O1502 O 0.40163 0.63105 1.02368
 C1503 C 0.41864 0.62329 1.03093
 C1504 C 0.42987 0.63411 1.04851
 C1505 C 0.42317 0.65402 1.05608
 H1506 H 0.41010 0.66199 1.04844
 O1507 O 0.57488 0.39076 1.02121
 O1508 O 0.59899 0.36555 1.02092
 C1509 C 0.58198 0.37330 1.02828
 C1510 C 0.57047 0.36227 1.04552
 C1511 C 0.57735 0.34247 1.05310
 H1512 H 0.59107 0.33500 1.04608
 O1513 O 0.42465 0.52018 1.10779
 O1514 O 0.40023 0.52050 1.13276
 C1515 C 0.41741 0.52745 1.12524
 C1516 C 0.42889 0.54448 1.13654
 C1517 C 0.42225 0.55165 1.15670
 H1518 H 0.40904 0.54414 1.16448
 O1519 O 0.57521 0.47440 1.10684
 O1520 O 0.59942 0.47386 1.13189
 C1521 C 0.58233 0.46693 1.12416
 C1522 C 0.57086 0.44966 1.13509
 C1523 C 0.57757 0.44212 1.15500
 H1524 H 0.59073 0.44960 1.16287
 O1525 O 0.51845 0.39122 1.07628
 O1526 O 0.51800 0.36631 1.10086
 C1527 C 0.52537 0.37381 1.08363
 C1528 C 0.54260 0.36252 1.07239
 C1529 C 0.54955 0.34266 1.07957
 H1530 H 0.54139 0.33505 1.09260
 O1531 O 0.48110 0.60453 1.07920
 O1532 O 0.48155 0.62897 1.10437
 C1533 C 0.47421 0.62183 1.08697
 C1534 C 0.45715 0.63341 1.07587
 C1535 C 0.45025 0.65333 1.08319
 H1536 H 0.45776 0.66051 1.09686
 O1537 O 0.39683 0.57745 1.02314
 O1538 O 0.37236 0.60231 1.02323
 C1539 C 0.37968 0.58496 1.03037
 C1540 C 0.36848 0.57360 1.04758
 C1541 C 0.34864 0.58053 1.05466
 H1542 H 0.34105 0.59382 1.04689
 O1543 O 0.60423 0.41899 1.02151
 O1544 O 0.62853 0.39395 1.02112
 C1545 C 0.62126 0.41121 1.02865
 C1546 C 0.63231 0.42210 1.04626
 C1547 C 0.65173 0.41453 1.05372
 H1548 H 0.65918 0.40113 1.04588
 O1549 O 0.47804 0.42098 1.10587
 O1550 O 0.47751 0.39618 1.13056
 C1551 C 0.47076 0.41368 1.12320
 C1552 C 0.45397 0.42546 1.13461
 C1553 C 0.44681 0.41859 1.15460
 H1554 H 0.45427 0.40510 1.16214
 O1555 O 0.52156 0.57401 1.10757
 O1556 O 0.52212 0.59829 1.13291
 C1557 C 0.52890 0.58097 1.12502
 C1558 C 0.54582 0.56902 1.13594
 C1559 C 0.55360 0.57599 1.15568
 H1560 H 0.54692 0.58999 1.16315
 O1561 O 0.39537 0.47959 1.07808
 O1562 O 0.37086 0.47990 1.10296
 C1563 C 0.37817 0.47265 1.08553
 C1564 C 0.36682 0.45561 1.07411
 C1565 C 0.34710 0.44878 1.08134
 H1566 H 0.33995 0.45635 1.09508
 O1567 O 0.60455 0.51555 1.07814
 O1568 O 0.62888 0.51508 1.10307
 C1569 C 0.62163 0.52255 1.08579
 C1570 C 0.63281 0.53994 1.07477
 C1571 C 0.65222 0.54721 1.08240
 H1572 H 0.65930 0.53972 1.09615
 O1573 O 0.42216 0.39379 1.02113
 O1574 O 0.39719 0.36967 1.02082
 C1575 C 0.41444 0.37662 1.02813
 C1576 C 0.42544 0.36493 1.04526
 C1577 C 0.41824 0.34504 1.05200
 H1578 H 0.40472 0.33802 1.04432
 O1579 O 0.57717 0.60231 1.02326
 O1580 O 0.60222 0.62635 1.02345
 C1581 C 0.58497 0.61930 1.03068
 C1582 C 0.57423 0.63060 1.04830
 C1583 C 0.58228 0.64973 1.05619
 H1584 H 0.59579 0.65682 1.04853
 Cu1585 Cu 0.58750 0.49499 1.09001
 Cu1586 Cu 0.61662 0.49443 1.12002
 Cu1587 Cu 0.41255 0.49987 1.09037
 Cu1588 Cu 0.38316 0.50021 1.12027
 Cu1589 Cu 0.50131 0.58698 1.09095
 Cu1590 Cu 0.50190 0.61618 1.12130
 Cu1591 Cu 0.49823 0.40833 1.08881
 Cu1592 Cu 0.49767 0.37849 1.11837
 C1593 C 0.55506 0.55118 1.12614
 H1594 H 0.54942 0.54592 1.11076
 C1595 C 0.57050 0.56549 1.16547
 C1596 C 0.44441 0.44320 1.12515
 H1597 H 0.44969 0.44844 1.10962
 C1598 C 0.43011 0.42903 1.16496
 C1599 C 0.55656 0.62170 1.05814
 H1600 H 0.55046 0.60678 1.05230
 C1601 C 0.57317 0.65976 1.07398
 C1602 C 0.44271 0.37408 1.05560
 H1603 H 0.44818 0.38954 1.05062
 C1604 C 0.42795 0.33438 1.06898
 C1605 C 0.62355 0.55017 1.05727
 H1606 H 0.60844 0.54485 1.05150
 C1607 C 0.66220 0.56464 1.07294
 C1608 C 0.37612 0.44534 1.05655
 H1609 H 0.39144 0.45037 1.05105
 C1610 C 0.33682 0.43174 1.07146
 C1611 C 0.44615 0.55430 1.12673
 H1612 H 0.45118 0.54908 1.11107
 C1613 C 0.43265 0.56844 1.16695
 C1614 C 0.55358 0.44002 1.12518
 H1615 H 0.54848 0.44557 1.10972
 C1616 C 0.56735 0.42503 1.16489
 C1617 C 0.62291 0.43960 1.05642
 H1618 H 0.60780 0.44532 1.05095
 C1619 C 0.66163 0.42413 1.07124
 C1620 C 0.37802 0.55617 1.05761
 H1621 H 0.39342 0.55090 1.05242
 C1622 C 0.33844 0.57031 1.07164
 C1623 C 0.44699 0.62406 1.05841
 H1624 H 0.45207 0.60859 1.05285
 C1625 C 0.43330 0.66378 1.07338
 C1626 C 0.55301 0.37209 1.05521
 H1627 H 0.54785 0.38754 1.04975
 C1628 C 0.56700 0.33256 1.07017
 O1629 O 0.57545 0.47666 0.89489
 O1630 O 0.59995 0.47627 0.87002
 C1631 C 0.58281 0.46927 0.87756
 C1632 C 0.57154 0.45201 0.86642
 C1633 C 0.57841 0.44465 0.84643
 H1634 H 0.59156 0.45226 0.83865
 O1635 O 0.42555 0.52080 0.89507
 O1636 O 0.40111 0.52153 0.87026
 C1637 C 0.41826 0.52839 0.87787
 C1638 C 0.42955 0.54578 0.86699
 C1639 C 0.42275 0.55328 0.84711
 H1640 H 0.40972 0.54562 0.83919
 O1641 O 0.48117 0.60548 0.92574
 O1642 O 0.48166 0.63040 0.90118
 C1643 C 0.47434 0.62296 0.91844
 C1644 C 0.45737 0.63441 0.92992
 C1645 C 0.45050 0.65442 0.92300
 H1646 H 0.45797 0.66174 0.90938
 O1647 O 0.51938 0.39211 0.92408
 O1648 O 0.51906 0.36741 0.89916
 C1649 C 0.52629 0.37472 0.91652
 C1650 C 0.54325 0.36319 0.92777
 C1651 C 0.54988 0.34305 0.92080
 H1652 H 0.54224 0.33571 0.90728
 O1653 O 0.60381 0.41977 0.98000
 O1654 O 0.62818 0.39481 0.97947
 C1655 C 0.62085 0.41226 0.97254
 C1656 C 0.63193 0.42387 0.95540
 C1657 C 0.65201 0.41748 0.94853
 H1658 H 0.65981 0.40422 0.95616
 O1659 O 0.39750 0.57730 0.98161
 O1660 O 0.37301 0.60215 0.98161
 C1661 C 0.38047 0.58485 0.97429
 C1662 C 0.36953 0.57360 0.95682
 C1663 C 0.34975 0.58056 0.94975
 H1664 H 0.34208 0.59384 0.95758
 O1665 O 0.52152 0.57556 0.89630
 O1666 O 0.52199 0.60028 0.87153
 C1667 C 0.52873 0.58279 0.87891
 C1668 C 0.54533 0.57086 0.86740
 C1669 C 0.55187 0.57717 0.84703
 H1670 H 0.54452 0.59076 0.83954
 O1671 O 0.47899 0.42221 0.89510
 O1672 O 0.47870 0.39759 0.87009
 C1673 C 0.47177 0.41495 0.87771
 C1674 C 0.45474 0.42649 0.86658
 C1675 C 0.44706 0.41901 0.84705
 H1676 H 0.45441 0.40536 0.83958
 O1677 O 0.60447 0.51765 0.92414
 O1678 O 0.62896 0.51752 0.89924
 C1679 C 0.62159 0.52476 0.91663
 C1680 C 0.63268 0.54199 0.92800
 C1681 C 0.65178 0.54996 0.92018
 H1682 H 0.65879 0.54314 0.90598
 O1683 O 0.39601 0.47988 0.92393
 O1684 O 0.37144 0.48071 0.89925
 C1685 C 0.37870 0.47321 0.91650
 C1686 C 0.36718 0.45626 0.92781
 C1687 C 0.34734 0.44965 0.92070
 H1688 H 0.34024 0.45728 0.90704
 O1689 O 0.57722 0.60267 0.98172
 O1690 O 0.60219 0.62679 0.98195
 C1691 C 0.58497 0.61979 0.97462
 C1692 C 0.57409 0.63135 0.95730
 C1693 C 0.58154 0.65103 0.95018
 H1694 H 0.59514 0.65804 0.95772
 O1695 O 0.42215 0.39413 0.97964
 O1696 O 0.39714 0.37007 0.97924
 C1697 C 0.41443 0.37716 0.97211
 C1698 C 0.42551 0.36595 0.95455
 C1699 C 0.41795 0.34659 0.94652
 H1700 H 0.40406 0.33954 0.95347
 O1701 O 0.42490 0.47933 0.89478
 O1702 O 0.40043 0.48001 0.87000
 C1703 C 0.41734 0.47228 0.87746
 C1704 C 0.42807 0.45449 0.86634
 C1705 C 0.42051 0.44670 0.84680
 H1706 H 0.40697 0.45409 0.83944
 O1707 O 0.57548 0.51805 0.89529
 O1708 O 0.59984 0.51770 0.87027
 C1709 C 0.58285 0.52517 0.87793
 C1710 C 0.57177 0.54264 0.86688
 C1711 C 0.57811 0.54918 0.84650
 H1712 H 0.59068 0.54078 0.83839
 O1713 O 0.47833 0.39321 0.92418
 O1714 O 0.47805 0.36853 0.89924
 C1715 C 0.47086 0.37618 0.91654
 C1716 C 0.45322 0.36551 0.92751
 C1717 C 0.44550 0.34616 0.91980
 H1718 H 0.45323 0.33849 0.90645
 O1719 O 0.52215 0.60454 0.92560
 O1720 O 0.52272 0.62942 0.90100
 C1721 C 0.52971 0.62164 0.91825
 C1722 C 0.54711 0.63222 0.92967
 C1723 C 0.55478 0.65190 0.92277
 H1724 H 0.54734 0.65986 0.90949
 O1725 O 0.39417 0.42405 0.98001
 O1726 O 0.36900 0.40014 0.97975
 C1727 C 0.37691 0.41720 0.97266
 C1728 C 0.36629 0.42889 0.95529
 C1729 C 0.34647 0.42252 0.94796
 H1730 H 0.33845 0.40954 0.95573
 O1731 O 0.60517 0.57273 0.98130
 O1732 O 0.63020 0.59679 0.98152
 C1733 C 0.62236 0.57987 0.97401
 C1734 C 0.63299 0.56884 0.95613
 C1735 C 0.65204 0.57656 0.94809
 H1736 H 0.65951 0.58997 0.95573
 O1737 O 0.51992 0.42136 0.89516
 O1738 O 0.51962 0.39676 0.87013
 C1739 C 0.52698 0.41386 0.87775
 C1740 C 0.54422 0.42492 0.86654
 C1741 C 0.55129 0.41778 0.84655
 H1742 H 0.54384 0.40425 0.83913
 O1743 O 0.48068 0.57661 0.89631
 O1744 O 0.48111 0.60140 0.87160
 C1745 C 0.47371 0.58423 0.87898
 C1746 C 0.45660 0.57316 0.86758
 C1747 C 0.44958 0.58043 0.84770
 H1748 H 0.45695 0.59410 0.84047
 O1749 O 0.39733 0.52116 0.92480
 O1750 O 0.37274 0.52196 0.90013
 C1751 C 0.38033 0.52882 0.91753
 C1752 C 0.36948 0.54615 0.92920
 C1753 C 0.34970 0.55330 0.92247
 H1754 H 0.34222 0.54584 0.90892
 O1755 O 0.60373 0.47636 0.92445
 O1756 O 0.62841 0.47619 0.89973
 C1757 C 0.62088 0.46906 0.91705
 C1758 C 0.63194 0.45183 0.92847
 C1759 C 0.65208 0.44538 0.92202
 H1760 H 0.65976 0.45336 0.90889
 O1761 O 0.57500 0.39091 0.97976
 O1762 O 0.59915 0.36573 0.97932
 C1763 C 0.58210 0.37355 0.97230
 C1764 C 0.57060 0.36266 0.95500
 C1765 C 0.57698 0.34251 0.94785
 H1766 H 0.58990 0.33449 0.95566
 O1767 O 0.42601 0.60642 0.98197
 O1768 O 0.40171 0.63146 0.98201
 C1769 C 0.41879 0.62379 0.97478
 C1770 C 0.43015 0.63482 0.95744
 C1771 C 0.42347 0.65483 0.95029
 H1772 H 0.41042 0.66272 0.95811
 Cu1773 Cu 0.58731 0.49722 0.91216
 Cu1774 Cu 0.61675 0.49687 0.88231
 Cu1775 Cu 0.41345 0.50018 0.91207
 Cu1776 Cu 0.38399 0.50115 0.88240
 Cu1777 Cu 0.58870 0.58512 1.00230
 Cu1778 Cu 0.61878 0.61397 1.00254
 Cu1779 Cu 0.58708 0.40762 1.00066
 Cu1780 Cu 0.61616 0.37749 1.00013
 Cu1781 Cu 0.41401 0.58932 1.00256
 Cu1782 Cu 0.38473 0.61925 1.00263
 Cu1783 Cu 0.41063 0.41131 1.00062
 Cu1784 Cu 0.38054 0.38250 1.00029
 Cu1785 Cu 0.50133 0.58809 0.91348
 Cu1786 Cu 0.50192 0.61790 0.88387
 Cu1787 Cu 0.49921 0.40968 0.91215
 Cu1788 Cu 0.49884 0.38008 0.88216
 C1789 C 0.55432 0.44216 0.87623
 H1790 H 0.54912 0.44757 0.89177
 C1791 C 0.56835 0.42756 0.83635
 C1792 C 0.44661 0.55570 0.87699
 H1793 H 0.45175 0.55019 0.89245
 C1794 C 0.43267 0.57059 0.83733
 C1795 C 0.44724 0.62485 0.94729
 H1796 H 0.45227 0.60929 0.95252
 C1797 C 0.43358 0.66477 0.93309
 C1798 C 0.55359 0.37276 0.94500
 H1799 H 0.54876 0.38841 0.95026
 C1800 C 0.56671 0.33256 0.93075
 C1801 C 0.62210 0.44117 0.94535
 H1802 H 0.60647 0.44598 0.95029
 C1803 C 0.66224 0.42828 0.93196
 C1804 C 0.37919 0.55625 0.94654
 H1805 H 0.39458 0.55096 0.95167
 C1806 C 0.33971 0.57044 0.93264
 C1807 C 0.55523 0.55345 0.87710
 H1808 H 0.55044 0.54867 0.89293
 C1809 C 0.56820 0.56640 0.83642
 C1810 C 0.44529 0.44436 0.87598
 H1811 H 0.45098 0.45002 0.89120
 C1812 C 0.42988 0.42888 0.83709
 C1813 C 0.62352 0.55142 0.94611
 H1814 H 0.60863 0.54561 0.95203
 C1815 C 0.66146 0.56736 0.93006
 C1816 C 0.37641 0.44591 0.94524
 H1817 H 0.39183 0.45072 0.95062
 C1818 C 0.33687 0.43279 0.93066
 C1819 C 0.55675 0.62219 0.94707
 H1820 H 0.55110 0.60688 0.95229
 C1821 C 0.57198 0.66145 0.93294
 C1822 C 0.44326 0.37517 0.94502
 H1823 H 0.44899 0.39024 0.95086
 C1824 C 0.42783 0.33662 0.92909
 C1825 C 1.10839 1.13668 1.31121
 C1826 C 1.09828 1.12890 1.29308
 C1827 C 1.10947 1.11764 1.27748
 C1828 C 1.13097 1.11371 1.28070
 C1829 C 1.14111 1.12135 1.29884
 C1830 C 1.13010 1.13313 1.31451
 C1831 C 1.09816 1.10968 1.25845
 C1832 C 1.10766 1.10645 1.23960
 C1833 C 1.09717 1.09800 1.22024
 C1834 C 1.10991 1.09154 1.20312
 C1835 C 1.10109 1.08330 1.18456
 C1836 C 1.07921 1.08135 1.18258
 C1837 C 1.06635 1.08812 1.19952
 C1838 C 1.07519 1.09637 1.21816
 H1839 H 1.09882 1.14476 1.32297
 H1840 H 1.08160 1.13179 1.29119
 H1841 H 1.14006 1.10454 1.26935
 H1842 H 1.15785 1.11862 1.29990
 H1843 H 1.08153 1.10686 1.26023
 H1844 H 1.12421 1.10999 1.23811
 H1845 H 1.12685 1.09278 1.20413
 H1846 H 1.11142 1.07865 1.17163
 H1847 H 1.04943 1.08678 1.19845
 H1848 H 1.06465 1.10154 1.23065
 C1849 C 1.15677 0.62559 0.79288
 C1850 C 1.14861 0.61511 0.77513
 C1851 C 1.12683 0.61336 0.77227
 C1852 C 1.11332 0.62189 0.78792
 C1853 C 1.12150 0.63239 0.80569
 C1854 C 1.14331 0.63444 0.80831
 C1855 C 1.11906 0.60236 0.75293
 C1856 C 1.09977 0.60524 0.74483
 C1857 C 1.09243 0.59507 0.72486
 C1858 C 1.07074 0.59336 0.72137
 C1859 C 1.06307 0.58475 0.70240
 C1860 C 1.07696 0.57779 0.68640
 C1861 C 1.09868 0.57944 0.68988
 C1862 C 1.10636 0.58806 0.70884
 H1863 H 1.17364 0.62710 0.79431
 H1864 H 1.15938 0.60862 0.76340
 H1865 H 1.09647 0.62027 0.78679
 H1866 H 1.11076 0.63867 0.81755
 H1867 H 1.13004 0.59195 0.74485
 H1868 H 1.08871 0.61556 0.75291
 H1869 H 1.05966 0.59875 0.73336
 H1870 H 1.04625 0.58353 0.70025
 H1871 H 1.10977 0.57466 0.67766
 H1872 H 1.12316 0.58976 0.71049
 C1873 C 0.64652 1.11849 0.79858
 C1874 C 0.63887 1.10978 0.77971
 C1875 C 0.61723 1.10937 0.77560
 C1876 C 0.60329 1.11767 0.79099
 C1877 C 0.61098 1.12639 0.80993
 C1878 C 0.63267 1.12683 0.81394
 C1879 C 0.61010 1.09979 0.75529
 C1880 C 0.59138 1.10370 0.74634
 C1881 C 0.58499 1.09461 0.72555
 C1882 C 0.56351 1.09282 0.72098
 C1883 C 0.55684 1.08479 0.70138
 C1884 C 0.57156 1.07853 0.68584
 C1885 C 0.59306 1.08047 0.69034
 C1886 C 0.59973 1.08851 0.70991
 H1887 H 0.66334 1.11891 0.80104
 H1888 H 0.64995 1.10349 0.76817
 H1889 H 0.58647 1.11713 0.78878
 H1890 H 0.59994 1.13245 0.82164
 H1891 H 0.62114 1.08939 0.74726
 H1892 H 0.58013 1.11386 0.75436
 H1893 H 0.55184 1.09756 0.73267
 H1894 H 0.54016 1.08337 0.69840
 H1895 H 0.60474 1.07628 0.67848
 H1896 H 0.61641 1.09042 0.71241
 C1897 C 0.60600 0.62979 1.31389
 C1898 C 0.59615 0.62085 1.29618
 C1899 C 0.60760 0.60864 1.28153
 C1900 C 0.62895 0.60464 1.28547
 C1901 C 0.63883 0.61344 1.30322
 C1902 C 0.62766 0.62654 1.31767
 C1903 C 0.59679 0.60017 1.26248
 C1904 C 0.60678 0.59687 1.24392
 C1905 C 0.59668 0.58876 1.22425
 C1906 C 0.60975 0.58193 1.20755
 C1907 C 0.60125 0.57438 1.18855
 C1908 C 0.57939 0.57352 1.18575
 C1909 C 0.56622 0.58054 1.20233
 C1910 C 0.57474 0.58812 1.22139
 H1911 H 0.59628 0.63874 1.32487
 H1912 H 0.57954 0.62375 1.29374
 H1913 H 0.63815 0.59471 1.27488
 H1914 H 0.65552 0.61068 1.30478
 H1915 H 0.58011 0.59740 1.26384
 H1916 H 0.62339 0.60031 1.24287
 H1917 H 0.62668 0.58243 1.20918
 H1918 H 0.61182 0.56948 1.17591
 H1919 H 0.54931 0.58002 1.20061
 H1920 H 0.56400 0.59366 1.23354
 C1921 C 0.89749 0.88006 1.31841
 C1922 C 0.90615 0.88783 1.29953
 C1923 C 0.89322 0.89333 1.28233
 C1924 C 0.87128 0.89172 1.28475
 C1925 C 0.86262 0.88401 1.30367
 C1926 C 0.87564 0.87783 1.32060
 C1927 C 0.90318 0.90093 1.26238
 C1928 C 0.89407 0.89933 1.24320
 C1929 C 0.90385 0.90682 1.22313
 C1930 C 0.89070 0.91156 1.20588
 C1931 C 0.89906 0.91875 1.18666
 C1932 C 0.92085 0.92117 1.18415
 C1933 C 0.93413 0.91592 1.20119
 C1934 C 0.92574 0.90882 1.22052
 H1935 H 0.90791 0.87577 1.33132
 H1936 H 0.92306 0.88921 1.29822
 H1937 H 0.86070 0.89652 1.27219
 H1938 H 0.84573 0.88245 1.30488
 H1939 H 0.91875 0.90760 1.26369
 H1940 H 0.87854 0.89255 1.24194
 H1941 H 0.87383 0.90989 1.20735
 H1942 H 0.88847 0.92228 1.17366
 H1943 H 0.95098 0.91760 1.19967
 H1944 H 0.93648 0.90468 1.23316
 C1945 C 0.86710 0.35019 0.79234
 C1946 C 0.87431 0.35790 0.77285
 C1947 C 0.87598 0.37978 0.76934
 C1948 C 0.86958 0.39390 0.78554
 C1949 C 0.86223 0.38616 0.80503
 C1950 C 0.86115 0.36423 0.80870
 C1951 C 0.88409 0.38707 0.74848
 C1952 C 0.89351 0.40582 0.74555
 C1953 C 0.90230 0.41263 0.72478
 C1954 C 0.90479 0.43438 0.72092
 C1955 C 0.91299 0.44149 0.70156
 C1956 C 0.91909 0.42694 0.68570
 C1957 C 0.91700 0.40515 0.68970
 C1958 C 0.90879 0.39804 0.70904
 H1959 H 0.86606 0.33321 0.79458
 H1960 H 0.87887 0.34670 0.76055
 H1961 H 0.86997 0.41088 0.78321
 H1962 H 0.85767 0.39732 0.81737
 H1963 H 0.88269 0.37611 0.73528
 H1964 H 0.89483 0.41682 0.75872
 H1965 H 0.90020 0.44594 0.73287
 H1966 H 0.91472 0.45837 0.69906
 H1967 H 0.92147 0.39355 0.67776
 H1968 H 0.90787 0.38113 0.71162
 C1969 C 0.37599 0.84929 0.79667
 C1970 C 0.38560 0.85637 0.77799
 C1971 C 0.38846 0.87811 0.77432
 C1972 C 0.38193 0.89267 0.79007
 C1973 C 0.37231 0.88558 0.80877
 C1974 C 0.36917 0.86382 0.81225
 C1975 C 0.39861 0.88474 0.75411
 C1976 C 0.39634 0.90411 0.74557
 C1977 C 0.40585 0.91053 0.72497
 C1978 C 0.40817 0.93224 0.72073
 C1979 C 0.41634 0.93910 0.70127
 C1980 C 0.42224 0.92438 0.68550
 C1981 C 0.41994 0.90264 0.68969
 C1982 C 0.41176 0.89576 0.70916
 H1983 H 0.37360 0.83243 0.79876
 H1984 H 0.39056 0.84480 0.76620
 H1985 H 0.38449 0.90950 0.78828
 H1986 H 0.36761 0.89711 0.82069
 H1987 H 0.40787 0.87287 0.74585
 H1988 H 0.38710 0.91599 0.75384
 H1989 H 0.40365 0.94396 0.73255
 H1990 H 0.41809 0.95596 0.69858
 H1991 H 0.42392 0.89094 0.67767
 H1992 H 0.40957 0.87893 0.71138
 C1993 C 0.37258 0.34547 1.29534
 C1994 C 0.38147 0.35228 1.27621
 C1995 C 0.38041 0.37362 1.27021
 C1996 C 0.36984 0.38806 1.28356
 C1997 C 0.36077 0.38128 1.30264
 C1998 C 0.36197 0.35982 1.30900
 C1999 C 0.38968 0.37998 1.24954
 C2000 C 0.39681 0.39959 1.24563
 C2001 C 0.40579 0.40643 1.22491
 C2002 C 0.40804 0.42824 1.22115
 C2003 C 0.41607 0.43559 1.20182
 C2004 C 0.42214 0.42125 1.18577
 C2005 C 0.42027 0.39940 1.18962
 C2006 C 0.41230 0.39204 1.20897
 H2007 H 0.37330 0.32868 1.29874
 H2008 H 0.38920 0.34076 1.26600
 H2009 H 0.36821 0.40457 1.27922
 H2010 H 0.35344 0.39321 1.31264
 H2011 H 0.39079 0.36779 1.23747
 H2012 H 0.39586 0.41145 1.25808
 H2013 H 0.40338 0.43970 1.23317
 H2014 H 0.41765 0.45251 1.19949
 H2015 H 0.42468 0.38794 1.17752
 H2016 H 0.41149 0.37510 1.21123
 C2017 C 0.88818 1.13436 0.68670
 C2018 C 0.89797 1.12536 0.70444
 C2019 C 0.88614 1.11564 0.72047
 C2020 C 0.86425 1.11441 0.71802
 C2021 C 0.85440 1.12329 0.70025
 C2022 C 0.86611 1.13370 0.68425
 C2023 C 0.89720 1.10661 0.73918
 C2024 C 0.88808 1.10439 0.75835
 C2025 C 0.89872 1.09546 0.77739
 C2026 C 0.88618 1.08878 0.79449
 C2027 C 0.89526 1.08045 0.81290
 C2028 C 0.91719 1.07868 0.81474
 C2029 C 0.92983 1.08562 0.79778
 C2030 C 0.92073 1.09395 0.77930
 H2031 H 0.89821 1.14115 0.67462
 H2032 H 0.91492 1.12614 0.70571
 H2033 H 0.85457 1.10648 0.72970
 H2034 H 0.83744 1.12270 0.69980
 H2035 H 0.91348 1.10217 0.73696
 H2036 H 0.87187 1.10920 0.76038
 H2037 H 0.86922 1.08996 0.79361
 H2038 H 0.88508 1.07565 0.82584
 H2039 H 0.94677 1.08444 0.79873
 H2040 H 0.93108 1.09942 0.76684
 C2041 C 0.85642 0.61462 0.19536
 C2042 C 0.86467 0.60504 0.21358
 C2043 C 0.87715 0.61655 0.22776
 C2044 C 0.88107 0.63801 0.22352
 C2045 C 0.87267 0.64773 0.20544
 C2046 C 0.86004 0.63630 0.19091
 C2047 C 0.88488 0.60606 0.24733
 C2048 C 0.90273 0.61163 0.25711
 C2049 C 0.91013 0.60146 0.27697
 C2050 C 0.93174 0.60054 0.28113
 C2051 C 0.93921 0.59164 0.30004
 C2052 C 0.92517 0.58380 0.31543
 C2053 C 0.90348 0.58490 0.31129
 C2054 C 0.89604 0.59358 0.29228
 H2055 H 0.84775 0.60458 0.18457
 H2056 H 0.86146 0.58844 0.21648
 H2057 H 0.89002 0.64758 0.23455
 H2058 H 0.87536 0.66454 0.20373
 H2059 H 0.87595 0.59277 0.25332
 H2060 H 0.91278 0.62344 0.24992
 H2061 H 0.94290 0.60661 0.26963
 H2062 H 0.95601 0.59082 0.30256
 H2063 H 0.89219 0.57953 0.32298
 H2064 H 0.87924 0.59468 0.28991
 C2065 C 0.35082 1.11466 0.19987
 C2066 C 0.35896 1.10505 0.21811
 C2067 C 0.38012 1.10745 0.22366
 C2068 C 0.39317 1.11936 0.21017
 C2069 C 0.38505 1.12910 0.19198
 C2070 C 0.36365 1.12711 0.18647
 C2071 C 0.38766 1.09724 0.24357
 C2072 C 0.40611 1.10149 0.25293
 C2073 C 0.41280 1.09182 0.27332
 C2074 C 0.43434 1.09036 0.27779
 C2075 C 0.44130 1.08218 0.29720
 C2076 C 0.42684 1.07550 0.31271
 C2077 C 0.40526 1.07699 0.30826
 C2078 C 0.39829 1.08510 0.28881
 H2079 H 0.33416 1.11304 0.19707
 H2080 H 0.34848 1.09599 0.22817
 H2081 H 0.40976 1.12107 0.21323
 H2082 H 0.39598 1.13748 0.18187
 H2083 H 0.37721 1.08593 0.25096
 H2084 H 0.41700 1.11236 0.24562
 H2085 H 0.44583 1.09556 0.26619
 H2086 H 0.45803 1.08106 0.30006
 H2087 H 0.39371 1.07244 0.32007
 H2088 H 0.38156 1.08668 0.28633
 C2089 C 0.34785 0.62391 0.70672
 C2090 C 0.35538 0.61430 0.72523
 C2091 C 0.37704 0.61169 0.72851
 C2092 C 0.39105 0.61840 0.71253
 C2093 C 0.38349 0.62800 0.69400
 C2094 C 0.36182 0.63098 0.69094
 C2095 C 0.38420 0.60167 0.74860
 C2096 C 0.40340 0.60451 0.75691
 C2097 C 0.41032 0.59516 0.77742
 C2098 C 0.43193 0.59329 0.78140
 C2099 C 0.43921 0.58514 0.80072
 C2100 C 0.42499 0.57879 0.81659
 C2101 C 0.40335 0.58076 0.81269
 C2102 C 0.39606 0.58892 0.79338
 H2103 H 0.33107 0.62616 0.70496
 H2104 H 0.34424 0.60918 0.73720
 H2105 H 0.40780 0.61600 0.71402
 H2106 H 0.39462 0.63287 0.68191
 H2107 H 0.37287 0.59205 0.75698
 H2108 H 0.41473 0.61412 0.74851
 H2109 H 0.44326 0.59810 0.76947
 H2110 H 0.45598 0.58368 0.80319
 H2111 H 0.39202 0.57647 0.82481
 H2112 H 0.37931 0.59080 0.79138
 C2113 C 1.10724 0.87417 0.68181
 C2114 C 1.09781 0.88228 0.70025
 C2115 C 1.11011 0.88995 0.71706
 C2116 C 1.13212 0.89017 0.71469
 C2117 C 1.14154 0.88214 0.69620
 C2118 C 1.12922 0.87381 0.67968
 C2119 C 1.09945 0.89786 0.73657
 C2120 C 1.10856 0.89780 0.75582
 C2121 C 1.09825 0.90564 0.77555
 C2122 C 1.11102 0.91142 0.79276
 C2123 C 1.10218 0.91897 0.81169
 C2124 C 1.08029 0.92076 0.81394
 C2125 C 1.06740 0.91452 0.79694
 C2126 C 1.07626 0.90702 0.77791
 H2127 H 1.09733 0.86818 0.66918
 H2128 H 1.08084 0.88222 0.70153
 H2129 H 1.14213 0.89666 0.72694
 H2130 H 1.15851 0.88206 0.69502
 H2131 H 1.08345 0.90341 0.73488
 H2132 H 1.12452 0.89203 0.75736
 H2133 H 1.12796 0.91026 0.79150
 H2134 H 1.11251 0.92326 0.82467
 H2135 H 1.05048 0.91570 0.79826
 H2136 H 1.06580 0.90210 0.76532
 C2137 C 1.11047 0.36495 0.18913
 C2138 C 1.10046 0.37404 0.20677
 C2139 C 1.11198 0.38497 0.22221
 C2140 C 1.13370 0.38750 0.21917
 C2141 C 1.14376 0.37858 0.20144
 C2142 C 1.13243 0.36675 0.18619
 C2143 C 1.10080 0.39374 0.24104
 C2144 C 1.11001 0.39609 0.26009
 C2145 C 1.09932 0.40447 0.27945
 C2146 C 1.11183 0.41053 0.29677
 C2147 C 1.10275 0.41847 0.31542
 C2148 C 1.08083 0.42050 0.31728
 C2149 C 1.06820 0.41410 0.30014
 C2150 C 1.07730 0.40614 0.28142
 H2151 H 1.10069 0.35706 0.17753
 H2152 H 1.08362 0.37228 0.20849
 H2153 H 1.14303 0.39642 0.23041
 H2154 H 1.16062 0.38024 0.20047
 H2155 H 1.08437 0.39760 0.23904
 H2156 H 1.12637 0.39168 0.26179
 H2157 H 1.12878 0.40920 0.29586
 H2158 H 1.11291 0.42284 0.32850
 H2159 H 1.05126 0.41549 0.30111
 H2160 H 1.06694 0.40116 0.26878
 C2161 C 0.65396 0.87692 0.20457
 C2162 C 0.64680 0.88701 0.22306
 C2163 C 0.62521 0.88978 0.22679
 C2164 C 0.61090 0.88282 0.21122
 C2165 C 0.61808 0.87272 0.19273
 C2166 C 0.63967 0.86951 0.18928
 C2167 C 0.61842 0.90007 0.24695
 C2168 C 0.59936 0.89736 0.25567
 C2169 C 0.59285 0.90673 0.27637
 C2170 C 0.57131 0.90879 0.28076
 C2171 C 0.56438 0.91668 0.30037
 C2172 C 0.57887 0.92254 0.31615
 C2173 C 0.60044 0.92053 0.31178
 C2174 C 0.60739 0.91264 0.29215
 H2175 H 0.67069 0.87452 0.20247
 H2176 H 0.65816 0.89232 0.23470
 H2177 H 0.59419 0.88535 0.21303
 H2178 H 0.60673 0.86759 0.18100
 H2179 H 0.62994 0.90967 0.25509
 H2180 H 0.58784 0.88777 0.24753
 H2181 H 0.55978 0.90426 0.26895
 H2182 H 0.54766 0.91823 0.30319
 H2183 H 0.61197 0.92448 0.32379
 H2184 H 0.62410 0.91063 0.28978
 C2185 C 0.65366 0.37500 0.70521
 C2186 C 0.64581 0.38462 0.72365
 C2187 C 0.62409 0.38601 0.72731
 C2188 C 0.61031 0.37794 0.71179
 C2189 C 0.61818 0.36830 0.69332
 C2190 C 0.63994 0.36668 0.68985
 C2191 C 0.61669 0.39624 0.74730
 C2192 C 0.59758 0.39320 0.75582
 C2193 C 0.59066 0.40280 0.77628
 C2194 C 0.56906 0.40491 0.78028
 C2195 C 0.56181 0.41320 0.79962
 C2196 C 0.57604 0.41944 0.81550
 C2197 C 0.59767 0.41729 0.81155
 C2198 C 0.60493 0.40900 0.79221
 H2199 H 0.67051 0.37376 0.70314
 H2200 H 0.65679 0.39076 0.73527
 H2201 H 0.59347 0.37928 0.71356
 H2202 H 0.60724 0.36236 0.68157
 H2203 H 0.62779 0.40630 0.75547
 H2204 H 0.58635 0.38329 0.74766
 H2205 H 0.55773 0.40014 0.76837
 H2206 H 0.54504 0.41482 0.80213
 H2207 H 0.60901 0.42149 0.82366
 H2208 H 0.62168 0.40692 0.79015
 C2209 C 1.30892 1.10850 1.12509
 C2210 C 1.29089 1.09983 1.11597
 C2211 C 1.27375 1.11279 1.11056
 C2212 C 1.27539 1.13486 1.11372
 C2213 C 1.29346 1.14354 1.12282
 C2214 C 1.31031 1.13043 1.12886
 C2215 C 1.25473 1.10267 1.10151
 C2216 C 1.23552 1.11152 1.10221
 C2217 C 1.21642 1.10120 1.09363
 C2218 C 1.19929 1.11405 1.08796
 C2219 C 1.18085 1.10509 1.08007
 C2220 C 1.17902 1.08299 1.07786
 C2221 C 1.19600 1.07004 1.08388
 C2222 C 1.21452 1.07902 1.09169
 H2223 H 1.32181 1.09803 1.12920
 H2224 H 1.29020 1.08284 1.11344
 H2225 H 1.26289 1.14554 1.10911
 H2226 H 1.29409 1.16049 1.12552
 H2227 H 1.25673 1.08709 1.09453
 H2228 H 1.23347 1.12710 1.10915
 H2229 H 1.20021 1.13113 1.08956
 H2230 H 1.16789 1.11545 1.07594
 H2231 H 1.19502 1.05297 1.08237
 H2232 H 1.22708 1.06850 1.09653
 C2233 C 1.29279 0.65120 0.62571
 C2234 C 1.27429 0.64388 0.61632
 C2235 C 1.27066 0.62207 0.61389
 C2236 C 1.28629 0.60768 0.62055
 C2237 C 1.30479 0.61500 0.62994
 C2238 C 1.30820 0.63684 0.63275
 C2239 C 1.25063 0.61515 0.60405
 C2240 C 1.24228 0.59583 0.60683
 C2241 C 1.22192 0.58911 0.59754
 C2242 C 1.21782 0.56733 0.59557
 C2243 C 1.19867 0.56022 0.58746
 C2244 C 1.18307 0.57475 0.58125
 C2245 C 1.18708 0.59656 0.58333
 C2246 C 1.20623 0.60368 0.59145
 H2247 H 1.29485 0.66811 0.62781
 H2248 H 1.26262 0.65533 0.61122
 H2249 H 1.28454 0.59078 0.61827
 H2250 H 1.31658 0.60357 0.63476
 H2251 H 1.24235 0.62677 0.59457
 H2252 H 1.25056 0.58420 0.61630
 H2253 H 1.22954 0.55575 0.60026
 H2254 H 1.19613 0.54332 0.58590
 H2255 H 1.17518 0.60814 0.57915
 H2256 H 1.20834 0.62057 0.59340
 C2257 C 0.79154 1.15307 0.62514
 C2258 C 0.77206 1.14608 0.61788
 C2259 C 0.76649 1.12469 0.61934
 C2260 C 0.78064 1.11042 0.62882
 C2261 C 0.80011 1.11740 0.63631
 C2262 C 0.80609 1.13889 0.63447
 C2263 C 0.74559 1.11814 0.61138
 C2264 C 0.74136 1.09851 0.60432
 C2265 C 0.72059 1.09191 0.59589
 C2266 C 0.71621 1.07016 0.59442
 C2267 C 0.69694 1.06311 0.58656
 C2268 C 0.68157 1.07769 0.57986
 C2269 C 0.68602 1.09946 0.58102
 C2270 C 0.70532 1.10652 0.58883
 H2271 H 0.79465 1.16989 0.62415
 H2272 H 0.76128 1.15749 0.61100
 H2273 H 0.77670 1.09386 0.63074
 H2274 H 0.81068 1.10558 0.64274
 H2275 H 0.73358 1.13029 0.61094
 H2276 H 0.75358 1.08654 0.60472
 H2277 H 0.72773 1.05853 0.59947
 H2278 H 0.69414 1.04622 0.58554
 H2279 H 0.67448 1.11111 0.57611
 H2280 H 0.70813 1.12340 0.58899
 C2281 C 0.78769 0.65315 1.12923
 C2282 C 0.76949 0.64508 1.11992
 C2283 C 0.76693 0.62316 1.11711
 C2284 C 0.78321 0.60942 1.12354
 C2285 C 0.80145 0.61751 1.13283
 C2286 C 0.80390 0.63946 1.13577
 C2287 C 0.74736 0.61551 1.10692
 C2288 C 0.73987 0.59578 1.10919
 C2289 C 0.72000 0.58838 1.09937
 C2290 C 0.71687 0.56649 1.09685
 C2291 C 0.69823 0.55876 1.08810
 C2292 C 0.68223 0.57279 1.08176
 C2293 C 0.68527 0.59469 1.08440
 C2294 C 0.70387 0.60242 1.09318
 H2295 H 0.78898 0.67012 1.13149
 H2296 H 0.75726 0.65603 1.11505
 H2297 H 0.78223 0.59249 1.12102
 H2298 H 0.81385 0.60660 1.13734
 H2299 H 0.73873 0.62692 1.09751
 H2300 H 0.74853 0.58434 1.11855
 H2301 H 0.72894 0.55531 1.10161
 H2302 H 0.69638 0.54181 1.08617
 H2303 H 0.67301 0.60585 1.08014
 H2304 H 0.70520 0.61934 1.09556
 C2305 C 1.30826 0.89168 0.86234
 C2306 C 1.29013 0.90178 0.86997
 C2307 C 1.27498 0.89049 0.88144
 C2308 C 1.27862 0.86893 0.88568
 C2309 C 1.29673 0.85880 0.87817
 C2310 C 1.31198 0.86990 0.86624
 C2311 C 1.25599 0.90179 0.88933
 C2312 C 1.23766 0.89196 0.89289
 C2313 C 1.21840 0.90240 0.90139
 C2314 C 1.20191 0.88939 0.90828
 C2315 C 1.18343 0.89817 0.91652
 C2316 C 1.18093 0.92026 0.91804
 C2317 C 1.19727 0.93338 0.91092
 C2318 C 1.21581 0.92459 0.90266
 H2319 H 1.31964 0.90136 0.85412
 H2320 H 1.28791 0.91852 0.86684
 H2321 H 1.26764 0.85976 0.89502
 H2322 H 1.29815 0.84198 0.88118
 H2323 H 1.25738 0.91867 0.89189
 H2324 H 1.23654 0.87515 0.88959
 H2325 H 1.20332 0.87228 0.90734
 H2326 H 1.17097 0.88763 0.92147
 H2327 H 1.19580 0.95046 0.91193
 H2328 H 1.22782 0.93532 0.89717
 C2329 C 1.30243 0.38841 0.35921
 C2330 C 1.28419 0.39835 0.36673
 C2331 C 1.27004 0.38744 0.37973
 C2332 C 1.27428 0.36621 0.38487
 C2333 C 1.29240 0.35616 0.37727
 C2334 C 1.30694 0.36700 0.36420
 C2335 C 1.25052 0.39824 0.38679
 C2336 C 1.24054 0.39329 0.40492
 C2337 C 1.22058 0.40340 0.41168
 C2338 C 1.21563 0.40420 0.43344
 C2339 C 1.19651 0.41275 0.44035
 C2340 C 1.18174 0.42039 0.42560
 C2341 C 1.18671 0.41957 0.40378
 C2342 C 1.20591 0.41117 0.39687
 H2343 H 1.31320 0.39797 0.35004
 H2344 H 1.28125 0.41476 0.36255
 H2345 H 1.26328 0.35704 0.39418
 H2346 H 1.29422 0.33951 0.38090
 H2347 H 1.24471 0.41116 0.37709
 H2348 H 1.24755 0.38189 0.41567
 H2349 H 1.22663 0.39821 0.44513
 H2350 H 1.19329 0.41338 0.45728
 H2351 H 1.17550 0.42486 0.39196
 H2352 H 1.20889 0.41017 0.37993
 C2353 C 0.81701 0.87716 0.39927
 C2354 C 0.79819 0.88453 0.40818
 C2355 C 0.78132 0.89053 0.39513
 C2356 C 0.78395 0.88964 0.37286
 C2357 C 0.80279 0.88230 0.36396
 C2358 C 0.81948 0.87581 0.37706
 C2359 C 0.76158 0.89809 0.40534
 C2360 C 0.74278 0.89748 0.39572
 C2361 C 0.72297 0.90530 0.40559
 C2362 C 0.70628 0.91087 0.39214
 C2363 C 0.68733 0.91840 0.40054
 C2364 C 0.68452 0.92036 0.42266
 C2365 C 0.70102 0.91433 0.43621
 C2366 C 0.72007 0.90688 0.42779
 H2367 H 0.82971 0.87262 0.40979
 H2368 H 0.79673 0.88534 0.42535
 H2369 H 0.77167 0.89481 0.36219
 H2370 H 0.80418 0.88140 0.34679
 H2371 H 0.76274 0.90407 0.42145
 H2372 H 0.74165 0.89138 0.37966
 H2373 H 0.70796 0.90956 0.37501
 H2374 H 0.67477 0.92253 0.38969
 H2375 H 0.69928 0.91564 0.45332
 H2376 H 0.73227 0.90213 0.43876
 C2377 C 0.79773 0.34967 0.88210
 C2378 C 0.77901 0.35662 0.89137
 C2379 C 0.77123 0.37704 0.88750
 C2380 C 0.78263 0.39041 0.87384
 C2381 C 0.80149 0.38352 0.86458
 C2382 C 0.80952 0.36297 0.86853
 C2383 C 0.75089 0.38314 0.89746
 C2384 C 0.74320 0.40298 0.89811
 C2385 C 0.72260 0.40869 0.90774
 C2386 C 0.71840 0.43013 0.91214
 C2387 C 0.69896 0.43645 0.92038
 C2388 C 0.68325 0.42143 0.92444
 C2389 C 0.68741 0.39995 0.92027
 C2390 C 0.70679 0.39363 0.91184
 H2391 H 0.80222 0.33338 0.88500
 H2392 H 0.77041 0.34579 0.90150
 H2393 H 0.77713 0.40616 0.86998
 H2394 H 0.80993 0.39476 0.85485
 H2395 H 0.74226 0.37055 0.90512
 H2396 H 0.75246 0.41589 0.89190
 H2397 H 0.73018 0.44209 0.90906
 H2398 H 0.69615 0.45312 0.92354
 H2399 H 0.67540 0.38812 0.92287
 H2400 H 0.70892 0.37704 0.90807
 C2401 C 0.70743 0.84692 1.12320
 C2402 C 0.72570 0.85388 1.11307
 C2403 C 0.72911 0.87557 1.10962
 C2404 C 0.71349 0.89018 1.11596
 C2405 C 0.69523 0.88321 1.12610
 C2406 C 0.69206 0.86152 1.12997
 C2407 C 0.74898 0.88216 1.09920
 C2408 C 0.75729 0.90157 1.10140
 C2409 C 0.77760 0.90806 1.09183
 C2410 C 0.78170 0.92979 1.08964
 C2411 C 0.80094 0.93677 1.08161
 C2412 C 0.81663 0.92214 1.07572
 C2413 C 0.81254 0.90036 1.07779
 C2414 C 0.79329 0.89337 1.08583
 H2415 H 0.70552 0.83011 1.12610
 H2416 H 0.73738 0.84228 1.10823
 H2417 H 0.71507 0.90695 1.11288
 H2418 H 0.68343 0.89478 1.13070
 H2419 H 0.75719 0.87025 1.08993
 H2420 H 0.74907 0.91343 1.11073
 H2421 H 0.76997 0.94145 1.09420
 H2422 H 0.80355 0.95365 1.08000
 H2423 H 0.82448 0.88873 1.07379
 H2424 H 0.79113 0.87651 1.08790
 C2425 C 0.70653 0.35010 0.61970
 C2426 C 0.72416 0.35846 0.60955
 C2427 C 0.72830 0.38024 0.61021
 C2428 C 0.71404 0.39366 0.62090
 C2429 C 0.69640 0.38533 0.63115
 C2430 C 0.69228 0.36333 0.63088
 C2431 C 0.74754 0.38806 0.59946
 C2432 C 0.75630 0.40699 0.60334
 C2433 C 0.77620 0.41397 0.59334
 C2434 C 0.78019 0.43577 0.59169
 C2435 C 0.79914 0.44301 0.58320
 C2436 C 0.81465 0.42856 0.57638
 C2437 C 0.81068 0.40673 0.57803
 C2438 C 0.79171 0.39949 0.58646
 H2439 H 0.70482 0.33305 0.61948
 H2440 H 0.73487 0.34772 0.60147
 H2441 H 0.71608 0.41066 0.62113
 H2442 H 0.68563 0.39647 0.63850
 H2443 H 0.75502 0.37738 0.58823
 H2444 H 0.74888 0.41799 0.61427
 H2445 H 0.76857 0.44724 0.59699
 H2446 H 0.80167 0.45993 0.58198
 H2447 H 0.82251 0.39522 0.57339
 H2448 H 0.78961 0.38257 0.58819
 C2449 C 0.18897 0.87051 0.60126
 C2450 C 0.20704 0.87890 0.59194
 C2451 C 0.22122 0.89074 0.60404
 C2452 C 0.21646 0.89497 0.62550
 C2453 C 0.19828 0.88679 0.63484
 C2454 C 0.18432 0.87398 0.62303
 C2455 C 0.24063 0.89859 0.59370
 C2456 C 0.25866 0.90134 0.60435
 C2457 C 0.27867 0.90858 0.59460
 C2458 C 0.29511 0.91436 0.60826
 C2459 C 0.31430 0.92125 0.60012
 C2460 C 0.31761 0.92251 0.57803
 C2461 C 0.30134 0.91642 0.56427
 C2462 C 0.28208 0.90950 0.57242
 H2463 H 0.17840 0.86183 0.59102
 H2464 H 0.21011 0.87583 0.57523
 H2465 H 0.22673 0.90464 0.63517
 H2466 H 0.19591 0.88975 0.65165
 H2467 H 0.23996 0.90126 0.57673
 H2468 H 0.25898 0.89800 0.62126
 H2469 H 0.29308 0.91361 0.62538
 H2470 H 0.32666 0.92543 0.61116
 H2471 H 0.30341 0.91728 0.54717
 H2472 H 0.27017 0.90477 0.56119
 C2473 C 0.20874 0.34798 1.12967
 C2474 C 0.22738 0.35532 1.12063
 C2475 C 0.23031 0.37700 1.11678
 C2476 C 0.21405 0.39129 1.12216
 C2477 C 0.19534 0.38392 1.13120
 C2478 C 0.19243 0.36216 1.13492
 C2479 C 0.25017 0.38375 1.10645
 C2480 C 0.25792 0.40347 1.10766
 C2481 C 0.27803 0.41004 1.09762
 C2482 C 0.28181 0.43178 1.09484
 C2483 C 0.30072 0.43882 1.08606
 C2484 C 0.31636 0.42425 1.07990
 C2485 C 0.31263 0.40249 1.08261
 C2486 C 0.29376 0.39544 1.09147
 H2487 H 0.20709 0.33115 1.13258
 H2488 H 0.23959 0.34396 1.11662
 H2489 H 0.21536 0.40805 1.11889
 H2490 H 0.18290 0.39518 1.13472
 H2491 H 0.25873 0.37164 1.09779
 H2492 H 0.24930 0.41553 1.11633
 H2493 H 0.27007 0.44340 1.09950
 H2494 H 0.30310 0.45569 1.08403
 H2495 H 0.32459 0.39093 1.07844
 H2496 H 0.29197 0.37860 1.09395
 C2497 C 0.68750 1.10254 0.87159
 C2498 C 0.70540 1.09301 0.88022
 C2499 C 0.72074 1.10527 0.89029
 C2500 C 0.71732 1.12717 0.89260
 C2501 C 0.69938 1.13674 0.88412
 C2502 C 0.68425 1.12470 0.87300
 C2503 C 0.73999 1.09472 0.89827
 C2504 C 0.75857 1.10463 0.89919
 C2505 C 0.77832 1.09467 0.90677
 C2506 C 0.79498 1.10801 0.91241
 C2507 C 0.81398 1.09959 0.91957
 C2508 C 0.81683 1.07755 0.92115
 C2509 C 0.80034 1.06410 0.91515
 C2510 C 0.78126 1.07254 0.90799
 H2511 H 0.67602 1.09224 0.86431
 H2512 H 0.70743 1.07601 0.87870
 H2513 H 0.72848 1.13705 0.90092
 H2514 H 0.69816 1.15380 0.88544
 H2515 H 0.73873 1.07824 0.90274
 H2516 H 0.75952 1.12103 0.89425
 H2517 H 0.79327 1.12508 0.91138
 H2518 H 0.82655 1.11035 0.92367
 H2519 H 0.80212 1.04705 0.91620
 H2520 H 0.76911 1.06162 0.90323
 C2521 C 0.68816 0.60649 0.37338
 C2522 C 0.70698 0.59761 0.38063
 C2523 C 0.72457 0.61041 0.38439
 C2524 C 0.72298 0.63235 0.38054
 C2525 C 0.70416 0.64121 0.37329
 C2526 C 0.68658 0.62838 0.36954
 C2527 C 0.74442 0.60018 0.39138
 C2528 C 0.75959 0.61054 0.40188
 C2529 C 0.77983 0.60082 0.40853
 C2530 C 0.79633 0.61439 0.41417
 C2531 C 0.81562 0.60621 0.42083
 C2532 C 0.81887 0.58421 0.42215
 C2533 C 0.80242 0.57056 0.41652
 C2534 C 0.78305 0.57874 0.40987
 H2535 H 0.67482 0.59621 0.37080
 H2536 H 0.70779 0.58067 0.38334
 H2537 H 0.73634 0.64270 0.38245
 H2538 H 0.70355 0.65806 0.37002
 H2539 H 0.74628 0.58352 0.38772
 H2540 H 0.75738 0.62714 0.40570
 H2541 H 0.79432 0.63144 0.41333
 H2542 H 0.82809 0.61715 0.42481
 H2543 H 0.80438 0.55353 0.41772
 H2544 H 0.77067 0.56764 0.40629
 C2545 C 0.19125 1.10724 0.36430
 C2546 C 0.20952 1.09743 0.37182
 C2547 C 0.22521 1.10927 0.38187
 C2548 C 0.22195 1.13112 0.38489
 C2549 C 0.20366 1.14097 0.37751
 C2550 C 0.18793 1.12930 0.36686
 C2551 C 0.24436 1.09820 0.38959
 C2552 C 0.26297 1.10790 0.39176
 C2553 C 0.28234 1.09753 0.39994
 C2554 C 0.29893 1.11057 0.40650
 C2555 C 0.31745 1.10182 0.41454
 C2556 C 0.31992 1.07973 0.41615
 C2557 C 0.30355 1.06658 0.40919
 C2558 C 0.28494 1.07535 0.40115
 H2559 H 0.17946 1.09713 0.35727
 H2560 H 0.21142 1.08048 0.36970
 H2561 H 0.23338 1.14074 0.39315
 H2562 H 0.20246 1.15796 0.37953
 H2563 H 0.24288 1.08154 0.39321
 H2564 H 0.26420 1.12450 0.38763
 H2565 H 0.29751 1.12767 0.40554
 H2566 H 0.32994 1.11238 0.41935
 H2567 H 0.30501 1.04950 0.41024
 H2568 H 0.27287 1.06462 0.39577
 C2569 C 0.21383 0.65520 0.87151
 C2570 C 0.23165 0.64783 0.88209
 C2571 C 0.23406 0.62621 0.88672
 C2572 C 0.21801 0.61208 0.88084
 C2573 C 0.20013 0.61948 0.87026
 C2574 C 0.19785 0.64112 0.86550
 C2575 C 0.25330 0.61928 0.89801
 C2576 C 0.26107 0.59950 0.89688
 C2577 C 0.28091 0.59276 0.90725
 C2578 C 0.28451 0.57101 0.91027
 C2579 C 0.30339 0.56378 0.91896
 C2580 C 0.31915 0.57818 0.92473
 C2581 C 0.31554 0.59997 0.92193
 C2582 C 0.29668 0.60721 0.91318
 H2583 H 0.21263 0.67193 0.86786
 H2584 H 0.24374 0.65905 0.88650
 H2585 H 0.21890 0.59541 0.88474
 H2586 H 0.18787 0.60833 0.86620
 H2587 H 0.26153 0.63126 0.90702
 H2588 H 0.25279 0.58758 0.88783
 H2589 H 0.27270 0.55953 0.90576
 H2590 H 0.30570 0.54690 0.92109
 H2591 H 0.32760 0.61138 0.92583
 H2592 H 0.29496 0.62405 0.91049
 C2593 C 1.14950 1.29030 1.12947
 C2594 C 1.14154 1.27132 1.12144
 C2595 C 1.11996 1.26901 1.11763
 C2596 C 1.10639 1.28610 1.12237
 C2597 C 1.11438 1.30511 1.13045
 C2598 C 1.13603 1.30742 1.13402
 C2599 C 1.11244 1.24838 1.10931
 C2600 C 1.09384 1.24557 1.09970
 C2601 C 1.08688 1.22476 1.09136
 C2602 C 1.06529 1.22075 1.08968
 C2603 C 1.05811 1.20125 1.08206
 C2604 C 1.07243 1.18542 1.07571
 C2605 C 1.09405 1.18958 1.07697
 C2606 C 1.10122 1.20904 1.08462
 H2607 H 1.16621 1.29146 1.13243
 H2608 H 1.15232 1.25837 1.11815
 H2609 H 1.08960 1.28487 1.12028
 H2610 H 1.10363 1.31805 1.13379
 H2611 H 1.12297 1.23499 1.11107
 H2612 H 1.08303 1.25873 1.09809
 H2613 H 1.05392 1.23269 1.09450
 H2614 H 1.04136 1.19860 1.08096
 H2615 H 1.10547 1.17766 1.07229
 H2616 H 1.11797 1.21175 1.08493
 C2617 C 1.14835 0.79824 0.62215
 C2618 C 1.14146 0.77838 0.61536
 C2619 C 1.11995 0.77418 0.61324
 C2620 C 1.10536 0.79025 0.61844
 C2621 C 1.11227 0.81013 0.62530
 C2622 C 1.13383 0.81434 0.62717
 C2623 C 1.11351 0.75270 0.60630
 C2624 C 1.09492 0.74840 0.59731
 C2625 C 1.08871 0.72685 0.59035
 C2626 C 1.06726 0.72218 0.58854
 C2627 C 1.06070 0.70206 0.58207
 C2628 C 1.07550 0.68621 0.57709
 C2629 C 1.09698 0.69096 0.57857
 C2630 C 1.10354 0.71106 0.58502
 H2631 H 1.16506 0.80090 0.62385
 H2632 H 1.15301 0.76622 0.61170
 H2633 H 1.08864 0.78750 0.61768
 H2634 H 1.10075 0.82225 0.62910
 H2635 H 1.12485 0.74008 0.60857
 H2636 H 1.08351 0.76097 0.59512
 H2637 H 1.05551 0.73412 0.59228
 H2638 H 1.04404 0.69898 0.58073
 H2639 H 1.10876 0.67904 0.57491
 H2640 H 1.12022 0.71416 0.58547
 C2641 C 0.65300 1.28935 0.63233
 C2642 C 0.64493 1.27021 0.62483
 C2643 C 0.62319 1.26742 0.62264
 C2644 C 0.60959 1.28402 0.62880
 C2645 C 0.61769 1.30317 0.63644
 C2646 C 0.63949 1.30609 0.63805
 C2647 C 0.61553 1.24689 0.61424
 C2648 C 0.59700 1.24449 0.60441
 C2649 C 0.58986 1.22400 0.59535
 C2650 C 0.56826 1.22070 0.59256
 C2651 C 0.56087 1.20161 0.58412
 C2652 C 0.57498 1.18547 0.57808
 C2653 C 0.59663 1.18893 0.58046
 C2654 C 0.60402 1.20799 0.58891
 H2655 H 0.66986 1.29103 0.63376
 H2656 H 0.65573 1.25760 0.62045
 H2657 H 0.59272 1.28227 0.62800
 H2658 H 0.60693 1.31581 0.64078
 H2659 H 0.62601 1.23343 0.61580
 H2660 H 0.58644 1.25789 0.60294
 H2661 H 0.55704 1.23288 0.59710
 H2662 H 0.54411 1.19954 0.58217
 H2663 H 0.60789 1.17676 0.57605
 H2664 H 0.62081 1.21013 0.59004
 C2665 C 0.61186 0.80764 1.13722
 C2666 C 0.60200 0.78901 1.13054
 C2667 C 0.61390 0.77121 1.12440
 C2668 C 0.63596 0.77228 1.12561
 C2669 C 0.64580 0.79092 1.13220
 C2670 C 0.63388 0.80882 1.13798
 C2671 C 0.60279 0.75176 1.11740
 C2672 C 0.61175 0.73685 1.10503
 C2673 C 0.60111 0.71718 1.09799
 C2674 C 0.61367 0.70008 1.09129
 C2675 C 0.60459 0.68141 1.08385
 C2676 C 0.58265 0.67943 1.08268
 C2677 C 0.56999 0.69647 1.08948
 C2678 C 0.57910 0.71521 1.09701
 H2679 H 0.60227 0.82122 1.14152
 H2680 H 0.58500 0.78856 1.12996
 H2681 H 0.64577 0.75872 1.12193
 H2682 H 0.66278 0.79120 1.13315
 H2683 H 0.58665 0.74999 1.12248
 H2684 H 0.62782 0.73882 1.09982
 H2685 H 0.63064 0.70115 1.09186
 H2686 H 0.61478 0.66844 1.07907
 H2687 H 0.55305 0.69551 1.08847
 H2688 H 0.56884 0.72820 1.10143
 C2689 C 0.89099 1.31031 0.86772
 C2690 C 0.90096 1.29238 0.87610
 C2691 C 0.88913 1.27560 0.88444
 C2692 C 0.86710 1.27743 0.88492
 C2693 C 0.85717 1.29528 0.87654
 C2694 C 0.86897 1.31187 0.86775
 C2695 C 0.90016 1.25670 0.89291
 C2696 C 0.89124 1.23748 0.89354
 C2697 C 0.90143 1.21838 0.90253
 C2698 C 0.88855 1.20157 0.90897
 C2699 C 0.89727 1.18310 0.91738
 C2700 C 0.91913 1.18093 0.91937
 C2701 C 0.93211 1.19761 0.91270
 C2702 C 0.92337 1.21618 0.90434
 H2703 H 0.90051 1.32300 0.86134
 H2704 H 0.91796 1.29149 0.87584
 H2705 H 0.85741 1.26526 0.89196
 H2706 H 0.84017 1.29595 0.87669
 H2707 H 0.91606 1.25884 0.89850
 H2708 H 0.87544 1.23550 0.88758
 H2709 H 0.87163 1.20277 0.90754
 H2710 H 0.88690 1.17033 0.92201
 H2711 H 0.94902 1.19631 0.91404
 H2712 H 0.93388 1.22849 0.89901
 C2713 C 0.89914 0.81951 0.37795
 C2714 C 0.90834 0.80084 0.38553
 C2715 C 0.89585 0.78355 0.39146
 C2716 C 0.87385 0.78560 0.39037
 C2717 C 0.86466 0.80427 0.38282
 C2718 C 0.87719 0.82136 0.37635
 C2719 C 0.90627 0.76391 0.39910
 C2720 C 0.89735 0.74472 0.39786
 C2721 C 0.90725 0.72498 0.40586
 C2722 C 0.89417 0.70791 0.41104
 C2723 C 0.90261 0.68901 0.41879
 C2724 C 0.92441 0.68664 0.42134
 C2725 C 0.93762 0.70350 0.41568
 C2726 C 0.92914 0.72252 0.40802
 H2727 H 0.90920 0.83254 0.37340
 H2728 H 0.92530 0.79979 0.38651
 H2729 H 0.86361 0.77297 0.39552
 H2730 H 0.84771 0.80518 0.38170
 H2731 H 0.92189 0.76549 0.40566
 H2732 H 0.88180 0.74323 0.39112
 H2733 H 0.87729 0.70928 0.40928
 H2734 H 0.89208 0.67613 0.42263
 H2735 H 0.95448 0.70206 0.41744
 H2736 H 0.93981 0.73505 0.40357
 C2737 C 0.34601 1.29350 0.37723
 C2738 C 0.35387 1.27523 0.38696
 C2739 C 0.37560 1.27188 0.38874
 C2740 C 0.38937 1.28759 0.38118
 C2741 C 0.38148 1.30587 0.37145
 C2742 C 0.35973 1.30893 0.36919
 C2743 C 0.38310 1.25194 0.39870
 C2744 C 0.40222 1.24356 0.39523
 C2745 C 0.40924 1.22306 0.40437
 C2746 C 0.43086 1.21912 0.40633
 C2747 C 0.43818 1.19978 0.41428
 C2748 C 0.42399 1.18386 0.42028
 C2749 C 0.40235 1.18771 0.41816
 C2750 C 0.39503 1.20705 0.41023
 H2751 H 0.32917 1.29535 0.37559
 H2752 H 0.34292 1.26348 0.39277
 H2753 H 0.40618 1.28605 0.38295
 H2754 H 0.39242 1.31773 0.36585
 H2755 H 0.37204 1.24365 0.40875
 H2756 H 0.41337 1.25183 0.38528
 H2757 H 0.44214 1.23111 0.40178
 H2758 H 0.45494 1.19733 0.41587
 H2759 H 0.39106 1.17556 0.42215
 H2760 H 0.37828 1.20907 0.40819
 C2761 C 0.34999 0.79576 0.87905
 C2762 C 0.35736 0.77736 0.88892
 C2763 C 0.37898 0.77376 0.89142
 C2764 C 0.39314 0.78932 0.88429
 C2765 C 0.38575 0.80775 0.87442
 C2766 C 0.36411 0.81112 0.87158
 C2767 C 0.38595 0.75380 0.90176
 C2768 C 0.40512 0.74525 0.89908
 C2769 C 0.41180 0.72482 0.90869
 C2770 C 0.43337 0.72062 0.91072
 C2771 C 0.44044 0.70129 0.91893
 C2772 C 0.42607 0.68563 0.92515
 C2773 C 0.40447 0.68980 0.92313
 C2774 C 0.39739 0.70912 0.91492
 H2775 H 0.33323 0.79781 0.87694
 H2776 H 0.34611 0.76571 0.89435
 H2777 H 0.40988 0.78761 0.88659
 H2778 H 0.39698 0.81952 0.86925
 H2779 H 0.37447 0.74571 0.91148
 H2780 H 0.41662 0.75335 0.88940
 H2781 H 0.44481 0.73235 0.90594
 H2782 H 0.45718 0.69862 0.92045
 H2783 H 0.39304 0.67786 0.92735
 H2784 H 0.38066 0.71133 0.91294
 C2785 C 1.15552 0.71392 0.86300
 C2786 C 1.14714 0.73292 0.87072
 C2787 C 1.12546 0.73513 0.87410
 C2788 C 1.11216 0.71814 0.86877
 C2789 C 1.12057 0.69913 0.86091
 C2790 C 1.14236 0.69674 0.85826
 C2791 C 1.11753 0.75544 0.88296
 C2792 C 1.09944 0.75736 0.89378
 C2793 C 1.09222 0.77767 0.90325
 C2794 C 1.07062 0.78105 0.90621
 C2795 C 1.06319 0.80015 0.91477
 C2796 C 1.07727 0.81616 0.92080
 C2797 C 1.09893 0.81254 0.91844
 C2798 C 1.10635 0.79349 0.90982
 H2799 H 1.17235 0.71264 0.86074
 H2800 H 1.15769 0.74584 0.87441
 H2801 H 1.09530 0.71945 0.87047
 H2802 H 1.11008 0.68613 0.85731
 H2803 H 1.12748 0.76916 0.88097
 H2804 H 1.08930 0.74378 0.89568
 H2805 H 1.05943 0.76900 0.90158
 H2806 H 1.04642 0.80239 0.91671
 H2807 H 1.11014 0.82461 0.92290
 H2808 H 1.12315 0.79118 0.90855
 C2809 C 1.14989 0.20395 0.37756
 C2810 C 1.14254 0.22278 0.38675
 C2811 C 1.12092 0.22645 0.38937
 C2812 C 1.10677 0.21053 0.38309
 C2813 C 1.11413 0.19167 0.37392
 C2814 C 1.13577 0.18820 0.37093
 C2815 C 1.11394 0.24681 0.39906
 C2816 C 1.09477 0.25528 0.39612
 C2817 C 1.08790 0.27595 0.40526
 C2818 C 1.06629 0.28029 0.40668
 C2819 C 1.05904 0.29972 0.41466
 C2820 C 1.07328 0.31533 0.42131
 C2821 C 1.09491 0.31108 0.41980
 C2822 C 1.10217 0.29167 0.41179
 H2823 H 1.16664 0.20186 0.37531
 H2824 H 1.15379 0.23469 0.39156
 H2825 H 1.09004 0.21233 0.38554
 H2826 H 1.10289 0.17964 0.36941
 H2827 H 1.12538 0.25521 0.40853
 H2828 H 1.08339 0.24685 0.38660
 H2829 H 1.05494 0.26857 0.40165
 H2830 H 1.04227 0.30246 0.41577
 H2831 H 1.10627 0.32298 0.42434
 H2832 H 1.11894 0.28939 0.41029
 C2833 C 0.62776 0.70304 0.35289
 C2834 C 0.62049 0.72278 0.35989
 C2835 C 0.61869 0.72724 0.38171
 C2836 C 0.62490 0.71166 0.39649
 C2837 C 0.63230 0.69192 0.38946
 C2838 C 0.63363 0.68736 0.36759
 C2839 C 0.61081 0.74844 0.38824
 C2840 C 0.60163 0.75242 0.40709
 C2841 C 0.59345 0.77362 0.41332
 C2842 C 0.59123 0.77838 0.43505
 C2843 C 0.58371 0.79820 0.44164
 C2844 C 0.57804 0.81365 0.42660
 C2845 C 0.57982 0.80875 0.40483
 C2846 C 0.58736 0.78895 0.39824
 H2847 H 0.62902 0.70011 0.33593
 H2848 H 0.61607 0.73457 0.34818
 H2849 H 0.62440 0.71470 0.41344
 H2850 H 0.63678 0.68012 0.40112
 H2851 H 0.61236 0.76104 0.37670
 H2852 H 0.60015 0.73985 0.41867
 H2853 H 0.59553 0.76679 0.44699
 H2854 H 0.58218 0.80138 0.45853
 H2855 H 0.57565 0.82035 0.39286
 H2856 H 0.58808 0.78571 0.38134
 C2857 C 0.64850 0.20094 0.87458
 C2858 C 0.64133 0.22061 0.88191
 C2859 C 0.61976 0.22507 0.88313
 C2860 C 0.60541 0.20950 0.87640
 C2861 C 0.61260 0.18983 0.86896
 C2862 C 0.63422 0.18531 0.86808
 C2863 C 0.61305 0.24628 0.89088
 C2864 C 0.59411 0.25036 0.89944
 C2865 C 0.58765 0.27157 0.90749
 C2866 C 0.56613 0.27618 0.90939
 C2867 C 0.55931 0.29592 0.91694
 C2868 C 0.57390 0.31148 0.92294
 C2869 C 0.59544 0.30677 0.92135
 C2870 C 0.60226 0.28704 0.91382
 H2871 H 0.66526 0.19805 0.87372
 H2872 H 0.65272 0.23238 0.88675
 H2873 H 0.58868 0.21251 0.87645
 H2874 H 0.60124 0.17808 0.86404
 H2875 H 0.62451 0.25883 0.88974
 H2876 H 0.58264 0.23781 0.90052
 H2877 H 0.55453 0.26448 0.90490
 H2878 H 0.54261 0.29894 0.91830
 H2879 H 0.60708 0.31846 0.92574
 H2880 H 0.61897 0.28398 0.91335
 C2881 C 0.84606 0.71216 1.13270
 C2882 C 0.85423 0.73102 1.12465
 C2883 C 0.87592 0.73333 1.12143
 C2884 C 0.88938 0.71641 1.12689
 C2885 C 0.88118 0.69753 1.13504
 C2886 C 0.85942 0.69518 1.13793
 C2887 C 0.88364 0.75380 1.11289
 C2888 C 0.90238 0.75633 1.10340
 C2889 C 0.90954 0.77690 1.09461
 C2890 C 0.93118 0.78058 1.09260
 C2891 C 0.93857 0.79978 1.08447
 C2892 C 0.92444 0.81565 1.07793
 C2893 C 0.90277 0.81182 1.07954
 C2894 C 0.89538 0.79265 1.08770
 H2895 H 0.82926 0.71095 1.13509
 H2896 H 0.84352 0.74384 1.12080
 H2897 H 0.90622 0.71769 1.12527
 H2898 H 0.89185 0.68469 1.13888
 H2899 H 0.87309 0.76723 1.11428
 H2900 H 0.91314 0.74308 1.10214
 H2901 H 0.94242 0.76863 1.09753
 H2902 H 0.95535 0.80215 1.08311
 H2903 H 0.89148 0.82377 1.07473
 H2904 H 0.87860 0.79021 1.08824
 C2905 C 0.86518 0.19199 0.60674
 C2906 C 0.87354 0.21010 0.59719
 C2907 C 0.88141 0.22673 0.60969
 C2908 C 0.88144 0.22454 0.63200
 C2909 C 0.87315 0.20640 0.64154
 C2910 C 0.86476 0.19003 0.62902
 C2911 C 0.88984 0.24580 0.59892
 C2912 C 0.89028 0.26500 0.60816
 C2913 C 0.89890 0.28427 0.59790
 C2914 C 0.90477 0.30127 0.61101
 C2915 C 0.91306 0.31977 0.60228
 C2916 C 0.91555 0.32178 0.58014
 C2917 C 0.90926 0.30498 0.56690
 C2918 C 0.90101 0.28640 0.57566
 H2919 H 0.85912 0.17946 0.59669
 H2920 H 0.87360 0.21125 0.57998
 H2921 H 0.88805 0.23663 0.64219
 H2922 H 0.87299 0.20534 0.65875
 H2923 H 0.89547 0.24379 0.58277
 H2924 H 0.88437 0.26685 0.62423
 H2925 H 0.90308 0.30019 0.62815
 H2926 H 0.91737 0.33260 0.61287
 H2927 H 0.91097 0.30612 0.54978
 H2928 H 0.89609 0.27398 0.56491
 C2929 C 0.38886 0.69070 0.63643
 C2930 C 0.39878 0.70906 0.62917
 C2931 C 0.38695 0.72673 0.62265
 C2932 C 0.36488 0.72574 0.62395
 C2933 C 0.35497 0.70736 0.63115
 C2934 C 0.36683 0.68963 0.63745
 C2935 C 0.39819 0.74598 0.61530
 C2936 C 0.38933 0.76081 0.60288
 C2937 C 0.40009 0.78034 0.59560
 C2938 C 0.38764 0.79733 0.58858
 C2939 C 0.39682 0.81588 0.58097
 C2940 C 0.41878 0.81785 0.57996
 C2941 C 0.43134 0.80092 0.58709
 C2942 C 0.42212 0.78231 0.59477
 H2943 H 0.39842 0.67725 0.64107
 H2944 H 0.41577 0.70942 0.62851
 H2945 H 0.35512 0.73921 0.61994
 H2946 H 0.33800 0.70719 0.63224
 H2947 H 0.41435 0.74769 0.62023
 H2948 H 0.37323 0.75890 0.59782
 H2949 H 0.37066 0.79628 0.58903
 H2950 H 0.38669 0.82875 0.57594
 H2951 H 0.44830 0.80188 0.58623
 H2952 H 0.43234 0.76942 0.59946
 C2953 C 0.37133 0.20262 1.15007
 C2954 C 0.38063 0.22144 1.14325
 C2955 C 0.38376 0.22538 1.12149
 C2956 C 0.37752 0.20986 1.10662
 C2957 C 0.36821 0.19100 1.11348
 C2958 C 0.36508 0.18714 1.13528
 C2959 C 0.39408 0.24551 1.11521
 C2960 C 0.39253 0.25415 1.09576
 C2961 C 0.40250 0.27452 1.08961
 C2962 C 0.40503 0.27895 1.06786
 C2963 C 0.41362 0.29818 1.06119
 C2964 C 0.41979 0.31354 1.07614
 C2965 C 0.41736 0.30913 1.09792
 C2966 C 0.40873 0.28990 1.10461
 H2967 H 0.36888 0.20025 1.16697
 H2968 H 0.38530 0.23304 1.15505
 H2969 H 0.38022 0.21188 1.08975
 H2970 H 0.36389 0.17920 1.10173
 H2971 H 0.40300 0.25352 1.12742
 H2972 H 0.38360 0.24611 1.08357
 H2973 H 0.40032 0.26747 1.05594
 H2974 H 0.41546 0.30103 1.04429
 H2975 H 0.42157 0.32084 1.10980
 H2976 H 0.40646 0.28755 1.12150
 C2977 C 1.13124 1.10945 0.68509
 C2978 C 1.12232 1.09978 0.70294
 C2979 C 1.11437 1.11205 0.71982
 C2980 C 1.11484 1.13431 0.71814
 C2981 C 1.12374 1.14397 0.70028
 C2982 C 1.13219 1.13167 0.68364
 C2983 C 1.10542 1.10110 0.73865
 C2984 C 1.10433 1.11001 0.75805
 C2985 C 1.09538 1.09940 0.77705
 C2986 C 1.08850 1.11211 0.79408
 C2987 C 1.08012 1.10298 0.81243
 C2988 C 1.07860 1.08084 0.81429
 C2989 C 1.08579 1.06803 0.79742
 C2990 C 1.09411 1.07718 0.77897
 H2991 H 1.13734 1.09956 0.67236
 H2992 H 1.12190 1.08262 0.70369
 H2993 H 1.10822 1.14439 0.73040
 H2994 H 1.12432 1.16112 0.69969
 H2995 H 1.09997 1.08504 0.73631
 H2996 H 1.10996 1.12601 0.76032
 H2997 H 1.08952 1.12923 0.79315
 H2998 H 1.07509 1.11325 0.82533
 H2999 H 1.08483 1.05092 0.79844
 H3000 H 1.09982 1.06677 0.76652
 C3001 C 1.15599 0.62592 0.20645
 C3002 C 1.14904 0.61674 0.22542
 C3003 C 1.12782 0.61769 0.23129
 C3004 C 1.11364 0.62834 0.21791
 C3005 C 1.12055 0.63765 0.19900
 C3006 C 1.14191 0.63670 0.19283
 C3007 C 1.12130 0.60830 0.25189
 C3008 C 1.10172 0.60151 0.25582
 C3009 C 1.09464 0.59285 0.27661
 C3010 C 1.07297 0.59166 0.28061
 C3011 C 1.06543 0.58404 0.30003
 C3012 C 1.07942 0.57730 0.31593
 C3013 C 1.10111 0.57808 0.31183
 C3014 C 1.10866 0.58566 0.29238
 H3015 H 1.17266 0.62531 0.20319
 H3016 H 1.16036 0.60893 0.23563
 H3017 H 1.09723 0.62992 0.22211
 H3018 H 1.10881 0.64501 0.18899
 H3019 H 1.13327 0.60700 0.26398
 H3020 H 1.09001 0.60264 0.24341
 H3021 H 1.06179 0.59685 0.26871
 H3022 H 1.04862 0.58330 0.30256
 H3023 H 1.11230 0.57311 0.32380
 H3024 H 1.12545 0.58565 0.28988
 C3025 C 0.60451 1.12521 0.18439
 C3026 C 0.59539 1.11841 0.20345
 C3027 C 0.60797 1.11283 0.22091
 C3028 C 0.62995 1.11448 0.21898
 C3029 C 0.63905 1.12120 0.19992
 C3030 C 0.62644 1.12667 0.18245
 C3031 C 0.59761 1.10622 0.24100
 C3032 C 0.60731 1.09466 0.25599
 C3033 C 0.59755 1.08855 0.27651
 C3034 C 0.61084 1.08308 0.29342
 C3035 C 0.60258 1.07674 0.31297
 C3036 C 0.58076 1.07549 0.31602
 C3037 C 0.56737 1.08101 0.29915
 C3038 C 0.57565 1.08742 0.27955
 H3039 H 0.59442 1.12925 0.17114
 H3040 H 0.57844 1.11745 0.20454
 H3041 H 0.64025 1.11120 0.23224
 H3042 H 0.65597 1.12267 0.19903
 H3043 H 0.58146 1.11111 0.24331
 H3044 H 0.62339 1.08963 0.25351
 H3045 H 0.62775 1.08380 0.29153
 H3046 H 0.61332 1.07290 0.32576
 H3047 H 0.55049 1.07988 0.30096
 H3048 H 0.56484 1.09090 0.26676
 C3049 C 0.64796 0.62388 0.70452
 C3050 C 0.64115 0.61586 0.72405
 C3051 C 0.61966 0.61341 0.72832
 C3052 C 0.60502 0.61954 0.71270
 C3053 C 0.61184 0.62762 0.69317
 C3054 C 0.63338 0.62982 0.68885
 C3055 C 0.61332 0.60516 0.74946
 C3056 C 0.59468 0.59611 0.75343
 C3057 C 0.58846 0.58814 0.77471
 C3058 C 0.56700 0.58659 0.77958
 C3059 C 0.56041 0.57944 0.79954
 C3060 C 0.57518 0.57347 0.81503
 C3061 C 0.59666 0.57455 0.81001
 C3062 C 0.60325 0.58172 0.79006
 H3063 H 0.66465 0.62576 0.70182
 H3064 H 0.65276 0.61152 0.73587
 H3065 H 0.58830 0.61856 0.71555
 H3066 H 0.60025 0.63206 0.68138
 H3067 H 0.62472 0.60654 0.76213
 H3068 H 0.58320 0.59479 0.74084
 H3069 H 0.55527 0.59116 0.76796
 H3070 H 0.54374 0.57845 0.80282
 H3071 H 0.60841 0.57011 0.82163
 H3072 H 0.61992 0.58195 0.78674
 C3073 C 0.87439 0.89911 0.68156
 C3074 C 0.88301 0.90798 0.69997
 C3075 C 0.89139 0.89496 0.71594
 C3076 C 0.89179 0.87286 0.71274
 C3077 C 0.88320 0.86401 0.69435
 C3078 C 0.87421 0.87701 0.67867
 C3079 C 0.89969 0.90490 0.73556
 C3080 C 0.90007 0.89486 0.75437
 C3081 C 0.90815 0.90435 0.77431
 C3082 C 0.91411 0.89068 0.79083
 C3083 C 0.92157 0.89876 0.81007
 C3084 C 0.92309 0.92074 0.81327
 C3085 C 0.91688 0.93449 0.79687
 C3086 C 0.90945 0.92641 0.77757
 H3087 H 0.86786 0.90953 0.66957
 H3088 H 0.88279 0.92506 0.70192
 H3089 H 0.89882 0.86232 0.72429
 H3090 H 0.88322 0.84692 0.69261
 H3091 H 0.90510 0.92108 0.73437
 H3092 H 0.89437 0.87876 0.75539
 H3093 H 0.91304 0.87365 0.78884
 H3094 H 0.92588 0.88778 0.82257
 H3095 H 0.91790 0.95151 0.79893
 H3096 H 0.90443 0.93753 0.76552
 C3097 C 0.89454 0.36674 0.18791
 C3098 C 0.90377 0.37388 0.20674
 C3099 C 0.89209 0.38550 0.22164
 C3100 C 0.87086 0.38983 0.21743
 C3101 C 0.86147 0.38249 0.19872
 C3102 C 0.87304 0.37054 0.18356
 C3103 C 0.90223 0.39194 0.24182
 C3104 C 0.89678 0.40953 0.25252
 C3105 C 0.90678 0.41579 0.27282
 C3106 C 0.90811 0.43737 0.27798
 C3107 C 0.91667 0.44383 0.29739
 C3108 C 0.92368 0.42878 0.31232
 C3109 C 0.92240 0.40713 0.30709
 C3110 C 0.91407 0.40069 0.28754
 H3111 H 0.90470 0.35873 0.17664
 H3112 H 0.92022 0.37048 0.20957
 H3113 H 0.86123 0.39822 0.22895
 H3114 H 0.84482 0.38534 0.19697
 H3115 H 0.91523 0.38235 0.24745
 H3116 H 0.88529 0.42027 0.24576
 H3117 H 0.90256 0.44929 0.26691
 H3118 H 0.91772 0.46064 0.30073
 H3119 H 0.92722 0.39511 0.31836
 H3120 H 0.91272 0.38389 0.28430
 C3121 C 0.36561 0.89274 0.18918
 C3122 C 0.37387 0.90162 0.20775
 C3123 C 0.38382 0.88894 0.22301
 C3124 C 0.38536 0.86698 0.21922
 C3125 C 0.37721 0.85805 0.20060
 C3126 C 0.36695 0.87070 0.18523
 C3127 C 0.39154 0.89921 0.24283
 C3128 C 0.40490 0.89004 0.25655
 C3129 C 0.41185 0.90018 0.27666
 C3130 C 0.41857 0.88710 0.29336
 C3131 C 0.42546 0.89584 0.31255
 C3132 C 0.42605 0.91794 0.31542
 C3133 C 0.41944 0.93110 0.29867
 C3134 C 0.41246 0.92234 0.27945
 H3135 H 0.35878 0.90349 0.17771
 H3136 H 0.37252 0.91860 0.21014
 H3137 H 0.39222 0.85637 0.23078
 H3138 H 0.37804 0.84099 0.19906
 H3139 H 0.38570 0.91501 0.24620
 H3140 H 0.41071 0.87420 0.25350
 H3141 H 0.41831 0.87000 0.29163
 H3142 H 0.43013 0.88524 0.32523
 H3143 H 0.42007 0.94819 0.30026
 H3144 H 0.40807 0.93300 0.26674
 C3145 C 0.36744 0.39539 0.68727
 C3146 C 0.37466 0.40457 0.70616
 C3147 C 0.38061 0.39186 0.72347
 C3148 C 0.37887 0.36967 0.72156
 C3149 C 0.37171 0.36050 0.70265
 C3150 C 0.36592 0.37325 0.68531
 C3151 C 0.38781 0.40236 0.74335
 C3152 C 0.39951 0.39258 0.75814
 C3153 C 0.40650 0.40265 0.77828
 C3154 C 0.41251 0.38941 0.79513
 C3155 C 0.41976 0.39795 0.81425
 C3156 C 0.42141 0.42001 0.81694
 C3157 C 0.41532 0.43335 0.80014
 C3158 C 0.40800 0.42479 0.78096
 H3159 H 0.36316 0.40561 0.67413
 H3160 H 0.37568 0.42168 0.70723
 H3161 H 0.38246 0.35926 0.73471
 H3162 H 0.37020 0.34342 0.70178
 H3163 H 0.38330 0.41877 0.74560
 H3164 H 0.40413 0.37622 0.75575
 H3165 H 0.41153 0.37233 0.79352
 H3166 H 0.42400 0.38724 0.82701
 H3167 H 0.41671 0.45039 0.80165
 H3168 H 0.40412 0.43558 0.76820
 C3169 C 1.15481 0.87655 1.29374
 C3170 C 1.14758 0.88546 1.27476
 C3171 C 1.12631 0.88446 1.26923
 C3172 C 1.11235 0.87408 1.28301
 C3173 C 1.11954 0.86502 1.30195
 C3174 C 1.14097 0.86597 1.30774
 C3175 C 1.11958 0.89347 1.24853
 C3176 C 1.09990 0.90008 1.24455
 C3177 C 1.09278 0.90858 1.22370
 C3178 C 1.07110 0.90997 1.21983
 C3179 C 1.06354 0.91759 1.20041
 C3180 C 1.07751 0.92411 1.18438
 C3181 C 1.09920 0.92304 1.18834
 C3182 C 1.10678 0.91549 1.20778
 H3183 H 1.17152 0.87714 1.29667
 H3184 H 1.15874 0.89308 1.26425
 H3185 H 1.09590 0.87249 1.27912
 H3186 H 1.10797 0.85782 1.31224
 H3187 H 1.13154 0.89468 1.23637
 H3188 H 1.08818 0.89902 1.25701
 H3189 H 1.05993 0.90499 1.23184
 H3190 H 1.04673 0.91854 1.19800
 H3191 H 1.11040 0.92780 1.17627
 H3192 H 1.12357 0.91534 1.21012
 C3193 C 1.13710 0.38896 0.80951
 C3194 C 1.12749 0.39891 0.79220
 C3195 C 1.11553 0.38727 0.77764
 C3196 C 1.11271 0.36547 0.78118
 C3197 C 1.12220 0.35547 0.79854
 C3198 C 1.13484 0.36694 0.81301
 C3199 C 1.10598 0.39845 0.75926
 C3200 C 1.10165 0.38880 0.74071
 C3201 C 1.09254 0.39955 0.72178
 C3202 C 1.08499 0.38685 0.70510
 C3203 C 1.07666 0.39598 0.68671
 C3204 C 1.07570 0.41813 0.68449
 C3205 C 1.08331 0.43091 0.70110
 C3206 C 1.09168 0.42177 0.71953
 H3207 H 1.14569 0.39890 0.82048
 H3208 H 1.12956 0.41582 0.79009
 H3209 H 1.10308 0.35602 0.77068
 H3210 H 1.12021 0.33852 0.79986
 H3211 H 1.10314 0.41526 0.76114
 H3212 H 1.10504 0.37204 0.73904
 H3213 H 1.08560 0.36971 0.70625
 H3214 H 1.07131 0.38566 0.67405
 H3215 H 1.08272 0.44803 0.69988
 H3216 H 1.09769 0.43228 0.73164
 C3217 C 0.65348 0.87327 0.79358
 C3218 C 0.64593 0.88341 0.77535
 C3219 C 0.62429 0.88636 0.77227
 C3220 C 0.61031 0.87941 0.78818
 C3221 C 0.61786 0.86926 0.80642
 C3222 C 0.63952 0.86597 0.80928
 C3223 C 0.61710 0.89701 0.75249
 C3224 C 0.59774 0.89480 0.74436
 C3225 C 0.59069 0.90478 0.72417
 C3226 C 0.56904 0.90676 0.72044
 C3227 C 0.56159 0.91528 0.70136
 C3228 C 0.57564 0.92191 0.68546
 C3229 C 0.59733 0.91997 0.68916
 C3230 C 0.60480 0.91144 0.70824
 H3231 H 0.67024 0.87082 0.79521
 H3232 H 0.65706 0.88871 0.76345
 H3233 H 0.59357 0.88204 0.78688
 H3234 H 0.60676 0.86424 0.81845
 H3235 H 0.62854 0.90657 0.74420
 H3236 H 0.58633 0.88521 0.75267
 H3237 H 0.55782 0.90168 0.73235
 H3238 H 0.54479 0.91673 0.69906
 H3239 H 0.60854 0.92451 0.67702
 H3240 H 0.62158 0.90956 0.71006
 C3241 C 0.65096 0.37666 1.29840
 C3242 C 0.64322 0.38539 1.27954
 C3243 C 0.62178 0.38462 1.27469
 C3244 C 0.60808 0.37510 1.28940
 C3245 C 0.61578 0.36626 1.30827
 C3246 C 0.63742 0.36682 1.31322
 C3247 C 0.61455 0.39428 1.25439
 C3248 C 0.59576 0.39063 1.24546
 C3249 C 0.58905 0.40012 1.22494
 C3250 C 0.56749 0.40207 1.22075
 C3251 C 0.56044 0.41040 1.20142
 C3252 C 0.57483 0.41677 1.18571
 C3253 C 0.59643 0.41471 1.18983
 C3254 C 0.60349 0.40642 1.20919
 H3255 H 0.66777 0.37696 1.30070
 H3256 H 0.65419 0.39257 1.26851
 H3257 H 0.59132 0.37479 1.28682
 H3258 H 0.60439 0.35992 1.31932
 H3259 H 0.62548 0.40471 1.24643
 H3260 H 0.58456 0.38049 1.25334
 H3261 H 0.55603 0.39723 1.23253
 H3262 H 0.54370 0.41195 1.19881
 H3263 H 0.60791 0.41901 1.17787
 H3264 H 0.62022 0.40447 1.21142
 C3265 C 0.89118 1.13087 1.31317
 C3266 C 0.90069 1.12197 1.29514
 C3267 C 0.88845 1.11350 1.27866
 C3268 C 0.86645 1.11339 1.28094
 C3269 C 0.85695 1.12223 1.29899
 C3270 C 0.86919 1.13126 1.31520
 C3271 C 0.89917 1.10466 1.25959
 C3272 C 0.89008 1.10377 1.24035
 C3273 C 0.90041 1.09506 1.22100
 C3274 C 0.88765 1.08884 1.20393
 C3275 C 0.89651 1.08070 1.18525
 C3276 C 0.91840 1.07873 1.18314
 C3277 C 0.93126 1.08525 1.20007
 C3278 C 0.92238 1.09336 1.21882
 H3279 H 0.90103 1.13739 1.32557
 H3280 H 0.91766 1.12198 1.29392
 H3281 H 0.85647 1.10633 1.26897
 H3282 H 0.83997 1.12234 1.30008
 H3283 H 0.91517 1.09922 1.26159
 H3284 H 0.87414 1.10949 1.23850
 H3285 H 0.87072 1.09021 1.20506
 H3286 H 0.88621 1.07621 1.17232
 H3287 H 0.94818 1.08392 1.19886
 H3288 H 0.93284 1.09855 1.23129
 C3289 C 0.84858 0.62930 0.79659
 C3290 C 0.85591 0.62219 0.77686
 C3291 C 0.87753 0.62031 0.77288
 C3292 C 0.89176 0.62629 0.78892
 C3293 C 0.88441 0.63353 0.80866
 C3294 C 0.86274 0.63492 0.81274
 C3295 C 0.88443 0.61255 0.75169
 C3296 C 0.90295 0.60293 0.74816
 C3297 C 0.90954 0.59474 0.72700
 C3298 C 0.93105 0.59199 0.72286
 C3299 C 0.93796 0.58440 0.70311
 C3300 C 0.92346 0.57923 0.68710
 C3301 C 0.90191 0.58156 0.69137
 C3302 C 0.89499 0.58913 0.71111
 H3303 H 0.83180 0.63060 0.79916
 H3304 H 0.84463 0.61795 0.76470
 H3305 H 0.90854 0.62572 0.78625
 H3306 H 0.89565 0.63782 0.82083
 H3307 H 0.87343 0.61449 0.73874
 H3308 H 0.91396 0.60105 0.76112
 H3309 H 0.94257 0.59589 0.73491
 H3310 H 0.95466 0.58244 0.70042
 H3311 H 0.89036 0.57778 0.67933
 H3312 H 0.87826 0.59027 0.71384
 C3313 C 0.36478 1.10785 0.81204
 C3314 C 0.37212 1.09865 0.79315
 C3315 C 0.37961 1.11131 0.77644
 C3316 C 0.37951 1.13352 0.77908
 C3317 C 0.37225 1.14270 0.79802
 C3318 C 0.36469 1.12998 0.81465
 C3319 C 0.38656 1.10072 0.75643
 C3320 C 0.39853 1.11008 0.74159
 C3321 C 0.40507 1.09976 0.72135
 C3322 C 0.41099 1.11277 0.70431
 C3323 C 0.41791 1.10397 0.68511
 C3324 C 0.41932 1.08187 0.68253
 C3325 C 0.41326 1.06875 0.69950
 C3326 C 0.40626 1.07758 0.71876
 H3327 H 0.35919 1.09762 0.82465
 H3328 H 0.37191 1.08154 0.79157
 H3329 H 0.38443 1.14402 0.76647
 H3330 H 0.37196 1.15982 0.79942
 H3331 H 0.38147 1.08455 0.75399
 H3332 H 0.40365 1.12623 0.74393
 H3333 H 0.41023 1.12988 0.70583
 H3334 H 0.42213 1.11452 0.67223
 H3335 H 0.41448 1.05167 0.69809
 H3336 H 0.40243 1.06696 0.73167
 C3337 C 0.35084 0.62388 1.29949
 C3338 C 0.35799 0.61490 1.28046
 C3339 C 0.37956 0.61243 1.27650
 C3340 C 0.39392 0.61916 1.29215
 C3341 C 0.38674 0.62818 1.31123
 C3342 C 0.36512 0.63050 1.31515
 C3343 C 0.38614 0.60218 1.25622
 C3344 C 0.40544 0.60379 1.24776
 C3345 C 0.41172 0.59377 1.22726
 C3346 C 0.43319 0.59064 1.22314
 C3347 C 0.43995 0.58201 1.20378
 C3348 C 0.42537 0.57642 1.18799
 C3349 C 0.40386 0.57942 1.19209
 C3350 C 0.39709 0.58810 1.21146
 H3351 H 0.33409 0.62569 1.30195
 H3352 H 0.34657 0.60986 1.26875
 H3353 H 0.41065 0.61702 1.29011
 H3354 H 0.39808 0.63281 1.32318
 H3355 H 0.37429 0.59313 1.24794
 H3356 H 0.41737 0.61271 1.25604
 H3357 H 0.44480 0.59493 1.23495
 H3358 H 0.45662 0.57972 1.20114
 H3359 H 0.39230 0.57568 1.18005
 H3360 H 0.38045 0.59088 1.21358
 C3361 C 1.15266 1.29067 0.87036
 C3362 C 1.14494 1.27205 0.87939
 C3363 C 1.12337 1.26958 0.88320
 C3364 C 1.10963 1.28633 0.87798
 C3365 C 1.11738 1.30502 0.86898
 C3366 C 1.13899 1.30741 0.86511
 C3367 C 1.11612 1.24962 0.89323
 C3368 C 1.09651 1.24211 0.89143
 C3369 C 1.08940 1.22186 0.90106
 C3370 C 1.06774 1.21837 0.90331
 C3371 C 1.06024 1.19939 0.91183
 C3372 C 1.07426 1.18339 0.91824
 C3373 C 1.09593 1.18678 0.91595
 C3374 C 1.10344 1.20572 0.90736
 H3375 H 1.16937 1.29191 0.86735
 H3376 H 1.15588 1.25945 0.88331
 H3377 H 1.09299 1.28537 0.88129
 H3378 H 1.10651 1.31780 0.86552
 H3379 H 1.12774 1.24075 0.90207
 H3380 H 1.08497 1.25105 0.88253
 H3381 H 1.05655 1.23042 0.89850
 H3382 H 1.04345 1.19726 0.91351
 H3383 H 1.10709 1.17454 0.92030
 H3384 H 1.12021 1.20727 0.90525
 C3385 C 1.11296 0.80839 0.36364
 C3386 C 1.10305 0.79028 0.37155
 C3387 C 1.11491 0.77281 0.37850
 C3388 C 1.13696 0.77365 0.37691
 C3389 C 1.14684 0.79175 0.36907
 C3390 C 1.13497 0.80934 0.36242
 C3391 C 1.10376 0.75383 0.38659
 C3392 C 1.11269 0.73960 0.39964
 C3393 C 1.10209 0.72019 0.40739
 C3394 C 1.11466 0.70334 0.41455
 C3395 C 1.10557 0.68477 0.42223
 C3396 C 1.08362 0.68268 0.42317
 C3397 C 1.07098 0.69957 0.41612
 C3398 C 1.08009 0.71818 0.40836
 H3399 H 1.10341 0.82175 0.35870
 H3400 H 1.08606 0.78999 0.37240
 H3401 H 1.14670 0.76026 0.38121
 H3402 H 1.16380 0.79182 0.36780
 H3403 H 1.08764 0.75178 0.38161
 H3404 H 1.12874 0.74186 0.40472
 H3405 H 1.13162 0.70447 0.41403
 H3406 H 1.11576 0.67194 0.42723
 H3407 H 1.05402 0.69855 0.41698
 H3408 H 1.06981 0.73102 0.40363
 C3409 C 0.63412 1.31063 0.39354
 C3410 C 0.62499 1.29288 0.40300
 C3411 C 0.61438 1.27785 0.39066
 C3412 C 0.61227 1.28141 0.36869
 C3413 C 0.62124 1.29925 0.35919
 C3414 C 0.63269 1.31411 0.37135
 C3415 C 0.60551 1.25892 0.40131
 C3416 C 0.60313 1.24022 0.39136
 C3417 C 0.59477 1.22077 0.40160
 C3418 C 0.58854 1.20396 0.38839
 C3419 C 0.58077 1.18520 0.39706
 C3420 C 0.57909 1.18272 0.41923
 C3421 C 0.58555 1.19939 0.43253
 C3422 C 0.59335 1.21821 0.42385
 H3423 H 0.64172 1.32191 0.40396
 H3424 H 0.62644 1.29076 0.42005
 H3425 H 0.60363 1.27050 0.35872
 H3426 H 0.61994 1.30059 0.34208
 H3427 H 0.60158 1.26052 0.41798
 H3428 H 0.60754 1.23888 0.37475
 H3429 H 0.58967 1.20534 0.37123
 H3430 H 0.57632 1.17249 0.38637
 H3431 H 0.58441 1.19796 0.44967
 H3432 H 0.59845 1.23043 0.43473
 C3433 C 0.62676 0.79123 0.84773
 C3434 C 0.61703 0.77286 0.85518
 C3435 C 0.61457 0.76932 0.87711
 C3436 C 0.62160 0.78492 0.89148
 C3437 C 0.63135 0.80330 0.88402
 C3438 C 0.63416 0.80660 0.86207
 C3439 C 0.60434 0.74942 0.88417
 C3440 C 0.60693 0.74098 0.90361
 C3441 C 0.59726 0.72073 0.91050
 C3442 C 0.59527 0.71676 0.93240
 C3443 C 0.58687 0.69767 0.93969
 C3444 C 0.58037 0.68200 0.92521
 C3445 C 0.58241 0.68591 0.90328
 C3446 C 0.59082 0.70500 0.89598
 H3447 H 0.62885 0.79321 0.83073
 H3448 H 0.61165 0.76119 0.84375
 H3449 H 0.61934 0.78328 0.90846
 H3450 H 0.63646 0.81508 0.89543
 H3451 H 0.59473 0.74131 0.87257
 H3452 H 0.61654 0.74909 0.91521
 H3453 H 0.60021 0.72851 0.94393
 H3454 H 0.58534 0.69520 0.95668
 H3455 H 0.57799 0.67395 0.89174
 H3456 H 0.59274 0.70702 0.87900
 C3457 C 0.89349 1.31423 1.12368
 C3458 C 0.90225 1.29572 1.11512
 C3459 C 0.88941 1.27874 1.10906
 C3460 C 0.86746 1.28099 1.11094
 C3461 C 0.85870 1.29953 1.11946
 C3462 C 0.87163 1.31624 1.12617
 C3463 C 0.89950 1.25917 1.10068
 C3464 C 0.89047 1.24002 1.10154
 C3465 C 0.90055 1.22034 1.09348
 C3466 C 0.88766 1.20327 1.08779
 C3467 C 0.89639 1.18435 1.08022
 C3468 C 0.91827 1.18197 1.07840
 C3469 C 0.93125 1.19886 1.08450
 C3470 C 0.92251 1.21787 1.09198
 H3471 H 0.90383 1.32700 1.12837
 H3472 H 0.91917 1.29453 1.11357
 H3473 H 0.85695 1.26861 1.10575
 H3474 H 0.84180 1.30062 1.12119
 H3475 H 0.91513 1.26072 1.09409
 H3476 H 0.87486 1.23847 1.10818
 H3477 H 0.87074 1.20464 1.08906
 H3478 H 0.88600 1.17145 1.07602
 H3479 H 0.94817 1.19744 1.08328
 H3480 H 0.93303 1.23038 1.09686
 C3481 C 0.89459 0.81958 0.61867
 C3482 C 0.90375 0.80084 0.61108
 C3483 C 0.89143 0.78287 0.60718
 C3484 C 0.86953 0.78435 0.61007
 C3485 C 0.86037 0.80309 0.61766
 C3486 C 0.87283 0.82080 0.62236
 C3487 C 0.90195 0.76306 0.59995
 C3488 C 0.89371 0.74373 0.60282
 C3489 C 0.90394 0.72389 0.59543
 C3490 C 0.89120 0.70641 0.59082
 C3491 C 0.90002 0.68744 0.58353
 C3492 C 0.92186 0.68543 0.58098
 C3493 C 0.93475 0.70266 0.58623
 C3494 C 0.92589 0.72178 0.59335
 H3495 H 0.90456 0.83309 0.62180
 H3496 H 0.92060 0.80026 0.60865
 H3497 H 0.85933 0.77116 0.60648
 H3498 H 0.84357 0.80351 0.62038
 H3499 H 0.91716 0.76459 0.59240
 H3500 H 0.87854 0.74215 0.61042
 H3501 H 0.87429 0.70754 0.59256
 H3502 H 0.88975 0.67427 0.57992
 H3503 H 0.95164 0.70146 0.58447
 H3504 H 0.93627 0.73469 0.59742
 C3505 C 0.39074 1.31280 0.63274
 C3506 C 0.40027 1.29452 0.62449
 C3507 C 0.38858 1.27956 0.61311
 C3508 C 0.36716 1.28359 0.60954
 C3509 C 0.35758 1.30193 0.61764
 C3510 C 0.36910 1.31690 0.62961
 C3511 C 0.39942 1.26034 0.60476
 C3512 C 0.38953 1.24192 0.60109
 C3513 C 0.39988 1.22232 0.59285
 C3514 C 0.38702 1.20558 0.58609
 C3515 C 0.39575 1.18673 0.57831
 C3516 C 0.41765 1.18406 0.57712
 C3517 C 0.43059 1.20067 0.58408
 C3518 C 0.42186 1.21958 0.59189
 H3519 H 0.40075 1.32400 0.64084
 H3520 H 0.41691 1.29202 0.62712
 H3521 H 0.35769 1.27276 0.60031
 H3522 H 0.34088 1.30373 0.61509
 H3523 H 0.41614 1.26157 0.60218
 H3524 H 0.37285 1.24094 0.60427
 H3525 H 0.37007 1.20709 0.58681
 H3526 H 0.38531 1.17409 0.57349
 H3527 H 0.44752 1.19913 0.58329
 H3528 H 0.43249 1.23173 0.59729
 C3529 C 0.35007 0.79686 1.12446
 C3530 C 0.35744 0.77776 1.11590
 C3531 C 0.37907 0.77375 1.11405
 C3532 C 0.39325 0.78951 1.12072
 C3533 C 0.38584 0.80866 1.12927
 C3534 C 0.36417 0.81256 1.13122
 C3535 C 0.38596 0.75327 1.10453
 C3536 C 0.40510 0.74471 1.10735
 C3537 C 0.41172 0.72402 1.09809
 C3538 C 0.43328 0.71968 1.09602
 C3539 C 0.44029 0.70026 1.08782
 C3540 C 0.42587 0.68463 1.08161
 C3541 C 0.40428 0.68888 1.08377
 C3542 C 0.39726 0.70829 1.09200
 H3543 H 0.33328 0.79928 1.12595
 H3544 H 0.34616 0.76597 1.11084
 H3545 H 0.41002 0.78743 1.11895
 H3546 H 0.39709 0.82062 1.13395
 H3547 H 0.37448 0.74491 1.09508
 H3548 H 0.41664 0.75309 1.11672
 H3549 H 0.44477 0.73142 1.10070
 H3550 H 0.45702 0.69752 1.08621
 H3551 H 0.39280 0.67697 1.07958
 H3552 H 0.38054 0.71057 1.09402
 C3553 C 0.84997 0.70225 0.88215
 C3554 C 0.85776 0.72088 0.89116
 C3555 C 0.87939 0.72503 0.89120
 C3556 C 0.89319 0.70981 0.88242
 C3557 C 0.88538 0.69115 0.87339
 C3558 C 0.86368 0.68720 0.87308
 C3559 C 0.88669 0.74524 0.90077
 C3560 C 0.90535 0.75411 0.89653
 C3561 C 0.91199 0.77481 0.90549
 C3562 C 0.93352 0.77928 0.90679
 C3563 C 0.94044 0.79882 0.91457
 C3564 C 0.92593 0.81442 0.92106
 C3565 C 0.90437 0.81002 0.91962
 C3566 C 0.89745 0.79049 0.91186
 H3567 H 0.83315 0.69981 0.88194
 H3568 H 0.84677 0.73225 0.89787
 H3569 H 0.91002 0.71198 0.88273
 H3570 H 0.89636 0.67965 0.86688
 H3571 H 0.87583 0.75328 0.91136
 H3572 H 0.91640 0.74610 0.88614
 H3573 H 0.94505 0.76756 0.90184
 H3574 H 0.95716 0.80167 0.91563
 H3575 H 0.89280 0.82191 0.92401
 H3576 H 0.88072 0.78806 0.91035
 C3577 C 0.86943 0.20795 0.35106
 C3578 C 0.87702 0.22760 0.35775
 C3579 C 0.87969 0.23203 0.37948
 C3580 C 0.87398 0.21650 0.39449
 C3581 C 0.86628 0.19684 0.38778
 C3582 C 0.86411 0.19230 0.36599
 C3583 C 0.88793 0.25312 0.38567
 C3584 C 0.89763 0.25703 0.40421
 C3585 C 0.90601 0.27814 0.41020
 C3586 C 0.90864 0.28288 0.43187
 C3587 C 0.91628 0.30262 0.43828
 C3588 C 0.92168 0.31803 0.42312
 C3589 C 0.91955 0.31314 0.40140
 C3590 C 0.91185 0.29340 0.39498
 H3591 H 0.86755 0.20506 0.33417
 H3592 H 0.88101 0.23935 0.34587
 H3593 H 0.87514 0.21950 0.41141
 H3594 H 0.86229 0.18508 0.39963
 H3595 H 0.88618 0.26573 0.37415
 H3596 H 0.89934 0.24446 0.41578
 H3597 H 0.90455 0.27134 0.44392
 H3598 H 0.91809 0.30580 0.45514
 H3599 H 0.92353 0.32470 0.38935
 H3600 H 0.91078 0.29016 0.37810
 C3601 C 0.36632 0.68842 0.39563
 C3602 C 0.37411 0.70719 0.40437
 C3603 C 0.38344 0.72261 0.39146
 C3604 C 0.38483 0.71877 0.36942
 C3605 C 0.37714 0.69994 0.36063
 C3606 C 0.36749 0.68441 0.37349
 C3607 C 0.39067 0.74263 0.40160
 C3608 C 0.40371 0.75648 0.39228
 C3609 C 0.41035 0.77674 0.40225
 C3610 C 0.41727 0.79312 0.38894
 C3611 C 0.42404 0.81237 0.39748
 C3612 C 0.42430 0.81564 0.41963
 C3613 C 0.41739 0.79926 0.43303
 C3614 C 0.41055 0.77997 0.42446
 H3615 H 0.36000 0.67686 0.40656
 H3616 H 0.37290 0.70962 0.42142
 H3617 H 0.39120 0.73043 0.35865
 H3618 H 0.37781 0.69835 0.34349
 H3619 H 0.38477 0.74599 0.41743
 H3620 H 0.40959 0.75334 0.37642
 H3621 H 0.41732 0.79107 0.37180
 H3622 H 0.42895 0.82477 0.38669
 H3623 H 0.41775 0.80117 0.45016
 H3624 H 0.40598 0.76755 0.43534
 C3625 C 0.36535 0.18833 0.89458
 C3626 C 0.37427 0.20620 0.90405
 C3627 C 0.38566 0.22074 0.89190
 C3628 C 0.38889 0.21652 0.87015
 C3629 C 0.38017 0.19852 0.86063
 C3630 C 0.36781 0.18424 0.87255
 C3631 C 0.39410 0.23991 0.90250
 C3632 C 0.39670 0.25840 0.89232
 C3633 C 0.40450 0.27813 0.90252
 C3634 C 0.41106 0.29472 0.88926
 C3635 C 0.41847 0.31368 0.89789
 C3636 C 0.41946 0.31657 0.92006
 C3637 C 0.41256 0.30017 0.93340
 C3638 C 0.40512 0.28115 0.92477
 H3639 H 0.35706 0.17747 0.90486
 H3640 H 0.37197 0.20883 0.92096
 H3641 H 0.39817 0.22706 0.86038
 H3642 H 0.38238 0.19658 0.84365
 H3643 H 0.39740 0.23870 0.91932
 H3644 H 0.39291 0.25931 0.87555
 H3645 H 0.41053 0.29299 0.87210
 H3646 H 0.42327 0.32618 0.88716
 H3647 H 0.41315 0.30194 0.95055
 H3648 H 0.39970 0.26913 0.93566
 C3649 C 1.11295 0.69651 1.14333
 C3650 C 1.10264 0.71463 1.13587
 C3651 C 1.11308 0.72915 1.12284
 C3652 C 1.13422 0.72543 1.11765
 C3653 C 1.14467 0.70746 1.12523
 C3654 C 1.13430 0.69253 1.13830
 C3655 C 1.10185 0.74848 1.11574
 C3656 C 1.10625 0.75823 1.09734
 C3657 C 1.09564 0.77797 1.09040
 C3658 C 1.09427 0.78230 1.06856
 C3659 C 1.08538 0.80128 1.06142
 C3660 C 1.07799 0.81655 1.07602
 C3661 C 1.07929 0.81215 1.09793
 C3662 C 1.08801 0.79307 1.10505
 H3663 H 1.10374 0.68541 1.15247
 H3664 H 1.08630 0.71716 1.14008
 H3665 H 1.14299 0.73675 1.10828
 H3666 H 1.16121 0.70607 1.12155
 H3667 H 1.08907 0.75427 1.12561
 H3668 H 1.11754 0.75116 1.08649
 H3669 H 1.10012 0.77096 1.05697
 H3670 H 1.08436 0.80402 1.04445
 H3671 H 1.07418 0.82374 1.10961
 H3672 H 1.08940 0.79054 1.12203
 C3673 C 1.14832 0.20465 0.61978
 C3674 C 1.14003 0.22303 0.61073
 C3675 C 1.11843 0.22721 0.61137
 C3676 C 1.10513 0.21236 0.62113
 C3677 C 1.11340 0.19390 0.63026
 C3678 C 1.13520 0.18957 0.62973
 C3679 C 1.11068 0.24704 0.60136
 C3680 C 1.09188 0.25590 0.60535
 C3681 C 1.08501 0.27625 0.59577
 C3682 C 1.06344 0.28047 0.59391
 C3683 C 1.05635 0.29969 0.58545
 C3684 C 1.07072 0.31521 0.57884
 C3685 C 1.09232 0.31106 0.58085
 C3686 C 1.09941 0.29186 0.58929
 H3687 H 1.16522 0.20291 0.61961
 H3688 H 1.15068 0.23424 0.60343
 H3689 H 1.08829 0.21454 0.62138
 H3690 H 1.10237 0.18267 0.63682
 H3691 H 1.12133 0.25483 0.59046
 H3692 H 1.08091 0.24816 0.61591
 H3693 H 1.05203 0.26880 0.59893
 H3694 H 1.03960 0.30238 0.58399
 H3695 H 1.10376 0.32292 0.57642
 H3696 H 1.11614 0.28964 0.59125
 C3697 C 0.60586 0.68659 0.63123
 C3698 C 0.59637 0.70495 0.62322
 C3699 C 0.60862 0.72159 0.61524
 C3700 C 0.63062 0.71922 0.61483
 C3701 C 0.64009 0.70087 0.62279
 C3702 C 0.62784 0.68440 0.63120
 C3703 C 0.59794 0.74085 0.60699
 C3704 C 0.60713 0.75995 0.60646
 C3705 C 0.59708 0.77940 0.59786
 C3706 C 0.61007 0.79642 0.59222
 C3707 C 0.60154 0.81511 0.58404
 C3708 C 0.57974 0.81732 0.58141
 C3709 C 0.56663 0.80048 0.58739
 C3710 C 0.57518 0.78170 0.59554
 H3711 H 0.59599 0.67403 0.63730
 H3712 H 0.57940 0.70624 0.62345
 H3713 H 0.64061 0.73132 0.60813
 H3714 H 0.65706 0.69969 0.62262
 H3715 H 0.58197 0.73903 0.60151
 H3716 H 0.62302 0.76159 0.61228
 H3717 H 0.62695 0.79521 0.59405
 H3718 H 0.61203 0.82797 0.57999
 H3719 H 0.54977 0.80175 0.58555
 H3720 H 0.56451 0.76927 0.60024
 C3721 C 0.63330 0.18470 1.10299
 C3722 C 0.62603 0.20362 1.09401
 C3723 C 0.61555 0.21884 1.10646
 C3724 C 0.61272 0.21479 1.12829
 C3725 C 0.61978 0.19584 1.13726
 C3726 C 0.63026 0.18035 1.12485
 C3727 C 0.60856 0.23890 1.09626
 C3728 C 0.59454 0.25226 1.10507
 C3729 C 0.58829 0.27274 1.09548
 C3730 C 0.58123 0.28896 1.10906
 C3731 C 0.57469 0.30842 1.10085
 C3732 C 0.57469 0.31202 1.07877
 C3733 C 0.58177 0.29578 1.06510
 C3734 C 0.58850 0.27630 1.07336
 H3735 H 0.64061 0.17326 1.09245
 H3736 H 0.62849 0.20631 1.07715
 H3737 H 0.60564 0.22635 1.13883
 H3738 H 0.61791 0.19407 1.15428
 H3739 H 0.61543 0.24277 1.08098
 H3740 H 0.58758 0.24862 1.12033
 H3741 H 0.58092 0.28662 1.12614
 H3742 H 0.56972 0.32071 1.11186
 H3743 H 0.58164 0.29795 1.04801
 H3744 H 0.59327 0.26396 1.06236
 C3745 C 1.29242 1.14894 0.87555
 C3746 C 1.27298 1.14212 0.88314
 C3747 C 1.26870 1.12042 0.88520
 C3748 C 1.28420 1.10559 0.87910
 C3749 C 1.30364 1.11244 0.87142
 C3750 C 1.30797 1.13418 0.86965
 C3751 C 1.24768 1.11405 0.89300
 C3752 C 1.24371 1.09530 0.90217
 C3753 C 1.22257 1.08905 0.90980
 C3754 C 1.21798 1.06740 0.91168
 C3755 C 1.19817 1.06079 0.91852
 C3756 C 1.18257 1.07573 0.92383
 C3757 C 1.18730 1.09742 0.92243
 C3758 C 1.20710 1.10404 0.91559
 H3759 H 1.29516 1.16580 0.87396
 H3760 H 1.26123 1.15385 0.88747
 H3761 H 1.28132 1.08872 0.87979
 H3762 H 1.31535 1.10073 0.86694
 H3763 H 1.23515 1.12555 0.89121
 H3764 H 1.25621 1.08376 0.90389
 H3765 H 1.22969 1.05554 0.90760
 H3766 H 1.19511 1.04396 0.91980
 H3767 H 1.17559 1.10931 0.92635
 H3768 H 1.21019 1.12087 0.91512
 C3769 C 1.31244 0.60491 0.37649
 C3770 C 1.29440 0.59545 0.38480
 C3771 C 1.27747 0.60793 0.39190
 C3772 C 1.27932 0.63017 0.39135
 C3773 C 1.29736 0.63962 0.38307
 C3774 C 1.31401 0.62710 0.37532
 C3775 C 1.25835 0.59727 0.39996
 C3776 C 1.23924 0.60630 0.39938
 C3777 C 1.21992 0.59610 0.40752
 C3778 C 1.20293 0.60916 0.41326
 C3779 C 1.18436 0.60043 0.42104
 C3780 C 1.18227 0.57836 0.42308
 C3781 C 1.19906 0.56518 0.41689
 C3782 C 1.21774 0.57394 0.40919
 H3783 H 1.32517 0.59487 0.37092
 H3784 H 1.29351 0.57830 0.38534
 H3785 H 1.26697 0.64037 0.39740
 H3786 H 1.29808 0.65675 0.38231
 H3787 H 1.26020 0.58137 0.40612
 H3788 H 1.23750 0.62213 0.39301
 H3789 H 1.20409 0.62624 0.41188
 H3790 H 1.17152 0.61095 0.42530
 H3791 H 1.19781 0.54812 0.41825
 H3792 H 1.23021 0.56329 0.40430
 C3793 C 0.81211 1.11006 0.37455
 C3794 C 0.79412 1.10066 0.38307
 C3795 C 0.77641 1.11297 0.38827
 C3796 C 0.77736 1.13510 0.38541
 C3797 C 0.79535 1.14450 0.37689
 C3798 C 0.81287 1.13207 0.37117
 C3799 C 0.75755 1.10219 0.39695
 C3800 C 0.73812 1.11051 0.39615
 C3801 C 0.71922 1.09993 0.40491
 C3802 C 0.70185 1.11256 0.41049
 C3803 C 0.68363 1.10342 0.41870
 C3804 C 0.68224 1.08136 0.42132
 C3805 C 0.69943 1.06860 0.41534
 C3806 C 0.71776 1.07777 0.40723
 H3807 H 0.82548 1.10009 0.37066
 H3808 H 0.79396 1.08364 0.38538
 H3809 H 0.76440 1.14532 0.38989
 H3810 H 0.79541 1.16148 0.37442
 H3811 H 0.75990 1.08670 0.40394
 H3812 H 0.73573 1.12597 0.38913
 H3813 H 0.70244 1.12962 0.40861
 H3814 H 0.67049 1.11363 0.42278
 H3815 H 0.69876 1.05154 0.41715
 H3816 H 0.73053 1.06741 0.40250
 C3817 C 0.80993 0.60582 0.87262
 C3818 C 0.79209 0.59580 0.88074
 C3819 C 0.77519 0.60777 0.88872
 C3820 C 0.77685 0.63002 0.88926
 C3821 C 0.79468 0.64003 0.88119
 C3822 C 0.81131 0.62806 0.87257
 C3823 C 0.75632 0.59660 0.89667
 C3824 C 0.73713 0.60546 0.89668
 C3825 C 0.71804 0.59495 0.90497
 C3826 C 0.70102 0.60777 0.91112
 C3827 C 0.68269 0.59878 0.91918
 C3828 C 0.68088 0.57668 0.92109
 C3829 C 0.69768 0.56373 0.91447
 C3830 C 0.71612 0.57275 0.90648
 H3831 H 0.82266 0.59617 0.86640
 H3832 H 0.79135 0.57864 0.88045
 H3833 H 0.76452 0.63981 0.89603
 H3834 H 0.79526 0.65719 0.88132
 H3835 H 0.75845 0.58053 0.90229
 H3836 H 0.73517 0.62145 0.89077
 H3837 H 0.70197 0.62488 0.90988
 H3838 H 0.66983 0.60913 0.92377
 H3839 H 0.69665 0.54664 0.91572
 H3840 H 0.72862 0.56227 0.90129
 C3841 C 1.31065 0.89431 1.12681
 C3842 C 1.29258 0.90369 1.11834
 C3843 C 1.27545 0.89122 1.11213
 C3844 C 1.27704 0.86902 1.11395
 C3845 C 1.29508 0.85965 1.12242
 C3846 C 1.31204 0.87217 1.12908
 C3847 C 1.25649 0.90187 1.10345
 C3848 C 1.23733 0.89308 1.10372
 C3849 C 1.21830 0.90332 1.09482
 C3850 C 1.20144 0.89035 1.08889
 C3851 C 1.18307 0.89916 1.08057
 C3852 C 1.18105 0.92121 1.07817
 C3853 C 1.19775 0.93429 1.08443
 C3854 C 1.21622 0.92546 1.09267
 H3855 H 1.32360 0.90436 1.13148
 H3856 H 1.29190 0.92079 1.11685
 H3857 H 1.26456 0.85872 1.10865
 H3858 H 1.29563 0.84256 1.12404
 H3859 H 1.25853 0.91758 1.09690
 H3860 H 1.23531 0.87743 1.11041
 H3861 H 1.20252 0.87329 1.09061
 H3862 H 1.17031 0.88871 1.07627
 H3863 H 1.19658 0.95135 1.08279
 H3864 H 1.22857 0.93606 1.09765
 C3865 C 1.30984 0.39367 0.62540
 C3866 C 1.29143 0.40231 0.61693
 C3867 C 1.27490 0.38914 0.61050
 C3868 C 1.27750 0.36700 0.61199
 C3869 C 1.29596 0.35835 0.62042
 C3870 C 1.31223 0.37160 0.62744
 C3871 C 1.25546 0.39913 0.60210
 C3872 C 1.23661 0.38969 0.60249
 C3873 C 1.21702 0.39970 0.59449
 C3874 C 1.20020 0.38653 0.58888
 C3875 C 1.18135 0.39515 0.58148
 C3876 C 1.17878 0.41722 0.57968
 C3877 C 1.19546 0.43048 0.58563
 C3878 C 1.21438 0.42185 0.59298
 H3879 H 1.32225 0.40427 0.63033
 H3880 H 1.28997 0.41938 0.61568
 H3881 H 1.26547 0.35624 0.60654
 H3882 H 1.29735 0.34129 0.62180
 H3883 H 1.25685 0.41504 0.59589
 H3884 H 1.23525 0.37380 0.60876
 H3885 H 1.20169 0.36946 0.59015
 H3886 H 1.16865 0.38453 0.57740
 H3887 H 1.19393 0.44754 0.58441
 H3888 H 1.22666 0.43262 0.59777
 C3889 C 0.79791 0.87779 0.64455
 C3890 C 0.77812 0.88527 0.63860
 C3891 C 0.77312 0.88819 0.61706
 C3892 C 0.78822 0.88287 0.60148
 C3893 C 0.80802 0.87527 0.60745
 C3894 C 0.81312 0.87284 0.62905
 C3895 C 0.75186 0.89617 0.61164
 C3896 C 0.74733 0.90626 0.59343
 C3897 C 0.72598 0.91402 0.58805
 C3898 C 0.72074 0.91660 0.56653
 C3899 C 0.70065 0.92337 0.56067
 C3900 C 0.68540 0.92794 0.57626
 C3901 C 0.69081 0.92602 0.59784
 C3902 C 0.71090 0.91918 0.60371
 H3903 H 0.80125 0.87568 0.66131
 H3904 H 0.76670 0.88897 0.65090
 H3905 H 0.78477 0.88421 0.58468
 H3906 H 0.81945 0.87153 0.59518
 H3907 H 0.73966 0.89380 0.62340
 H3908 H 0.75950 0.90859 0.58163
 H3909 H 0.73213 0.91304 0.55417
 H3910 H 0.69705 0.92507 0.54392
 H3911 H 0.67938 0.92943 0.61019
 H3912 H 0.71452 0.91815 0.62049
 C3913 C 0.81258 0.39398 1.12843
 C3914 C 0.79392 0.40261 1.12046
 C3915 C 0.77747 0.38941 1.11380
 C3916 C 0.78030 0.36728 1.11489
 C3917 C 0.79894 0.35866 1.12287
 C3918 C 0.81529 0.37189 1.12977
 C3919 C 0.75801 0.39932 1.10526
 C3920 C 0.73941 0.38937 1.10445
 C3921 C 0.71993 0.39896 1.09567
 C3922 C 0.70368 0.38538 1.08931
 C3923 C 0.68489 0.39353 1.08123
 C3924 C 0.68180 0.41552 1.07949
 C3925 C 0.69794 0.42918 1.08603
 C3926 C 0.71680 0.42102 1.09407
 H3927 H 0.82502 0.40459 1.13327
 H3928 H 0.79229 0.41969 1.11956
 H3929 H 0.76840 0.35645 1.10930
 H3930 H 0.80050 0.34158 1.12377
 H3931 H 0.75925 0.41546 1.09964
 H3932 H 0.73819 0.37328 1.11019
 H3933 H 0.70555 0.36834 1.09056
 H3934 H 0.67261 0.38259 1.07669
 H3935 H 0.69602 0.44621 1.08485
 H3936 H 0.72861 0.43211 1.09933
 C3937 C 0.68587 1.10063 1.12664
 C3938 C 0.70479 1.09145 1.11988
 C3939 C 0.72198 1.10419 1.11434
 C3940 C 0.71992 1.12638 1.11604
 C3941 C 0.70101 1.13553 1.12272
 C3942 C 0.68379 1.12278 1.12808
 C3943 C 0.74192 1.09379 1.10771
 C3944 C 0.75663 1.10359 1.09604
 C3945 C 0.77700 1.09388 1.08984
 C3946 C 0.79343 1.10743 1.08399
 C3947 C 0.81280 1.09924 1.07750
 C3948 C 0.81618 1.07723 1.07648
 C3949 C 0.79981 1.06358 1.08243
 C3950 C 0.78037 1.07179 1.08898
 H3951 H 0.67283 1.09042 1.13066
 H3952 H 0.70599 1.07434 1.11891
 H3953 H 0.73297 1.13681 1.11284
 H3954 H 0.70004 1.15262 1.12424
 H3955 H 0.74432 1.07755 1.11266
 H3956 H 0.75400 1.11975 1.09094
 H3957 H 0.79129 1.12448 1.08450
 H3958 H 0.82520 1.11019 1.07336
 H3959 H 0.80187 1.04655 1.08149
 H3960 H 0.76798 1.06076 1.09278
 C3961 C 0.68727 0.60680 0.62688
 C3962 C 0.70548 0.59814 0.61785
 C3963 C 0.72144 0.61133 0.61011
 C3964 C 0.71844 0.63346 0.61083
 C3965 C 0.70022 0.64212 0.61982
 C3966 C 0.68453 0.62889 0.62815
 C3967 C 0.74075 0.60143 0.60122
 C3968 C 0.75941 0.61125 0.60080
 C3969 C 0.77901 0.60148 0.59244
 C3970 C 0.79558 0.61489 0.58661
 C3971 C 0.81453 0.60652 0.57905
 C3972 C 0.81742 0.58449 0.57728
 C3973 C 0.80095 0.57101 0.58331
 C3974 C 0.78195 0.57938 0.59085
 H3975 H 0.67529 0.59620 0.63283
 H3976 H 0.70725 0.58106 0.61721
 H3977 H 0.73000 0.64419 0.60435
 H3978 H 0.69857 0.65920 0.62061
 H3979 H 0.73945 0.58533 0.59543
 H3980 H 0.76060 0.62731 0.60678
 H3981 H 0.79385 0.63194 0.58791
 H3982 H 0.82706 0.61731 0.57491
 H3983 H 0.80273 0.55396 0.58210
 H3984 H 0.76988 0.56842 0.59576
 C3985 C 0.20875 1.15015 0.62784
 C3986 C 0.22795 1.14271 0.62003
 C3987 C 0.23125 1.12097 0.61649
 C3988 C 0.21504 1.10669 0.62153
 C3989 C 0.19582 1.11416 0.62943
 C3990 C 0.19243 1.13598 0.63250
 C3991 C 0.25192 1.11400 0.60807
 C3992 C 0.25513 1.09559 0.59779
 C3993 C 0.27590 1.08905 0.58927
 C3994 C 0.28028 1.06736 0.58687
 C3995 C 0.29981 1.06053 0.57924
 C3996 C 0.31529 1.07531 0.57360
 C3997 C 0.31072 1.09704 0.57544
 C3998 C 0.29122 1.10387 0.58313
 H3999 H 0.20672 1.16703 0.63041
 H4000 H 0.24024 1.15402 0.61654
 H4001 H 0.21714 1.08977 0.61970
 H4002 H 0.18351 1.10289 0.63291
 H4003 H 0.26489 1.12483 0.61019
 H4004 H 0.24230 1.08459 0.59575
 H4005 H 0.26865 1.05564 0.59120
 H4006 H 0.30278 1.04367 0.57766
 H4007 H 0.32236 1.10880 0.57127
 H4008 H 0.28821 1.12074 0.58399
 C4009 C 0.20820 0.65486 1.12526
 C4010 C 0.22641 0.64739 1.11527
 C4011 C 0.23009 0.62554 1.11294
 C4012 C 0.21477 0.61126 1.12033
 C4013 C 0.19655 0.61876 1.13035
 C4014 C 0.19313 0.64063 1.13306
 C4015 C 0.24990 0.61847 1.10256
 C4016 C 0.25839 0.59914 1.10524
 C4017 C 0.27868 0.59239 1.09566
 C4018 C 0.28281 0.57062 1.09345
 C4019 C 0.30203 0.56346 1.08534
 C4020 C 0.31768 0.57794 1.07940
 C4021 C 0.31357 0.59976 1.08156
 C4022 C 0.29434 0.60693 1.08966
 H4023 H 0.20606 0.67180 1.12724
 H4024 H 0.23785 0.65874 1.10961
 H4025 H 0.21653 0.59434 1.11817
 H4026 H 0.18498 0.60743 1.13575
 H4027 H 0.25795 0.63000 1.09282
 H4028 H 0.25035 0.58756 1.11493
 H4029 H 0.27110 0.55907 1.09804
 H4030 H 0.30465 0.54655 1.08368
 H4031 H 0.32549 0.61129 1.07755
 H4032 H 0.29215 0.62381 1.09178
 C4033 C 0.70826 0.84466 0.87446
 C4034 C 0.72657 0.85183 0.88431
 C4035 C 0.72999 0.87358 0.88746
 C4036 C 0.71435 0.88806 0.88100
 C4037 C 0.69604 0.88088 0.87112
 C4038 C 0.69283 0.85911 0.86765
 C4039 C 0.74982 0.88036 0.89780
 C4040 C 0.75801 0.89983 0.89570
 C4041 C 0.77820 0.90652 0.90535
 C4042 C 0.78211 0.92830 0.90758
 C4043 C 0.80122 0.93548 0.91571
 C4044 C 0.81697 0.92101 0.92168
 C4045 C 0.81307 0.89919 0.91957
 C4046 C 0.79395 0.89199 0.91143
 H4047 H 0.70634 0.82780 0.87185
 H4048 H 0.73826 0.84032 0.88924
 H4049 H 0.71591 0.90489 0.88382
 H4050 H 0.68422 0.89235 0.86647
 H4051 H 0.75809 0.86853 0.90703
 H4052 H 0.74974 0.91162 0.88642
 H4053 H 0.77033 0.93985 0.90296
 H4054 H 0.80366 0.95238 0.91734
 H4055 H 0.82507 0.88767 0.92363
 H4056 H 0.79195 0.87511 0.90935
 C4057 C 0.70699 0.35135 0.37762
 C4058 C 0.72558 0.35905 0.38645
 C4059 C 0.72923 0.38093 0.38788
 C4060 C 0.71362 0.39505 0.38061
 C4061 C 0.69500 0.38733 0.37178
 C4062 C 0.69151 0.36540 0.37016
 C4063 C 0.74924 0.38818 0.39745
 C4064 C 0.75760 0.40739 0.39408
 C4065 C 0.77793 0.41424 0.40326
 C4066 C 0.78194 0.43603 0.40522
 C4067 C 0.80105 0.44319 0.41339
 C4068 C 0.81665 0.42869 0.41967
 C4069 C 0.81275 0.40688 0.41753
 C4070 C 0.79366 0.39971 0.40935
 H4071 H 0.70486 0.33437 0.37637
 H4072 H 0.73727 0.34782 0.39199
 H4073 H 0.71543 0.41202 0.38206
 H4074 H 0.68316 0.39853 0.36654
 H4075 H 0.75749 0.37689 0.40735
 H4076 H 0.74935 0.41879 0.38431
 H4077 H 0.77019 0.44756 0.40051
 H4078 H 0.80355 0.46010 0.41497
 H4079 H 0.82467 0.39533 0.42174
 H4080 H 0.79162 0.38281 0.40735
 C4081 C 0.20906 0.84705 0.37334
 C4082 C 0.22735 0.85430 0.38316
 C4083 C 0.23096 0.87610 0.38571
 C4084 C 0.21557 0.89055 0.37863
 C4085 C 0.19726 0.88328 0.36880
 C4086 C 0.19384 0.86146 0.36598
 C4087 C 0.25071 0.88291 0.39616
 C4088 C 0.25916 0.90222 0.39371
 C4089 C 0.27929 0.90882 0.40354
 C4090 C 0.28341 0.93057 0.40563
 C4091 C 0.30246 0.93760 0.41403
 C4092 C 0.31793 0.92300 0.42041
 C4093 C 0.31385 0.90121 0.41838
 C4094 C 0.29479 0.89417 0.40997
 H4095 H 0.20696 0.83014 0.37124
 H4096 H 0.23885 0.84282 0.38856
 H4097 H 0.21730 0.90744 0.38095
 H4098 H 0.18560 0.89473 0.36372
 H4099 H 0.25869 0.87123 0.40582
 H4100 H 0.25118 0.91391 0.38407
 H4101 H 0.27183 0.94220 0.40072
 H4102 H 0.30508 0.95449 0.41556
 H4103 H 0.32564 0.88959 0.42274
 H4104 H 0.29265 0.87729 0.40798
 C4105 C 0.21133 0.34919 0.86835
 C4106 C 0.23033 0.35696 0.87614
 C4107 C 0.23305 0.37873 0.87980
 C4108 C 0.21640 0.39271 0.87503
 C4109 C 0.19738 0.38492 0.86718
 C4110 C 0.19461 0.36307 0.86386
 C4111 C 0.25363 0.38602 0.88805
 C4112 C 0.25666 0.40472 0.89779
 C4113 C 0.27732 0.41143 0.90629
 C4114 C 0.28143 0.43317 0.90851
 C4115 C 0.30072 0.44014 0.91644
 C4116 C 0.31624 0.42547 0.92255
 C4117 C 0.31199 0.40370 0.92070
 C4118 C 0.29274 0.39673 0.91275
 H4119 H 0.20982 0.33231 0.86559
 H4120 H 0.24294 0.34585 0.87943
 H4121 H 0.21798 0.40966 0.87699
 H4122 H 0.18475 0.39599 0.86387
 H4123 H 0.26671 0.37516 0.88621
 H4124 H 0.24377 0.41581 0.89951
 H4125 H 0.26974 0.44481 0.90393
 H4126 H 0.30342 0.45701 0.91797
 H4127 H 0.32367 0.39201 0.92519
 H4128 H 0.28997 0.37984 0.91203
   
