data_POSCAR
  _audit_creation_date              2014-09-24
  _audit_creation_method            'ToBaCCo'
  _symmetry_space_group_name_H-M    'P1'
  _symmetry_Int_Tables_number       1
  _symmetry_cell_setting            triclinic
  loop_
  _symmetry_equiv_pos_as_xyz
 x,y,z
_cell_length_a 70.7450
_cell_length_b 71.4267
_cell_length_c 72.9842
_cell_angle_alpha 89.195600
_cell_angle_beta 89.326800
_cell_angle_gamma 89.164300
loop_
  _atom_site_label
  _atom_site_type_symbol
  _atom_site_fract_x
  _atom_site_fract_y
  _atom_site_fract_z
C1 C 0.33858 0.43260 0.90908
 C2 C 0.32947 0.44027 0.89370
 C3 C 0.31216 0.43319 0.88774
 C4 C 0.30474 0.41729 0.89669
 C5 C 0.31387 0.40926 0.91203
 C6 C 0.33068 0.41720 0.91844
 C7 C 0.35517 0.44065 0.91548
 C8 C 0.36413 0.43391 0.93156
 C9 C 0.35588 0.41847 0.94090
 C10 C 0.33940 0.40997 0.93435
 C11 C 0.33138 0.39452 0.94360
 C12 C 0.31483 0.38598 0.93709
 C13 C 0.30622 0.39370 0.92129
 H14 H 0.33586 0.45198 0.88648
 H15 H 0.29154 0.41154 0.89209
 H16 H 0.36020 0.45288 0.90820
 H17 H 0.36232 0.41287 0.95326
 H18 H 0.33810 0.38949 0.95596
 H19 H 0.29342 0.38763 0.91611
 C20 C 0.45872 0.82469 0.43692
 C21 C 0.46753 0.83849 0.44701
 C22 C 0.45846 0.84689 0.46224
 C23 C 0.44021 0.84059 0.46728
 C24 C 0.43136 0.82638 0.45744
 C25 C 0.44062 0.81856 0.44209
 C26 C 0.46763 0.81747 0.42124
 C27 C 0.45844 0.80462 0.41011
 C28 C 0.44066 0.79793 0.41581
 C29 C 0.43171 0.80481 0.43172
 C30 C 0.41381 0.79845 0.43712
 C31 C 0.40421 0.80612 0.45241
 C32 C 0.41324 0.82012 0.46247
 H33 H 0.48101 0.84333 0.44192
 H34 H 0.43281 0.84670 0.47888
 H35 H 0.48171 0.82212 0.41772
 H36 H 0.43346 0.78781 0.40755
 H37 H 0.40763 0.78741 0.42932
 H38 H 0.40612 0.82630 0.47419
 C39 C 0.93341 0.89719 0.85446
 C40 C 0.93943 0.88021 0.84699
 C41 C 0.93415 0.87509 0.82918
 C42 C 0.92150 0.88700 0.81951
 C43 C 0.91490 0.90385 0.82713
 C44 C 0.92131 0.90919 0.84446
 C45 C 0.94049 0.90280 0.87131
 C46 C 0.93648 0.92082 0.87803
 C47 C 0.92400 0.93262 0.86804
 C48 C 0.91620 0.92681 0.85151
 C49 C 0.90387 0.93861 0.84166
 C50 C 0.89647 0.93301 0.82478
 C51 C 0.90240 0.91571 0.81748
 H52 H 0.94957 0.87199 0.85473
 H53 H 0.91691 0.88331 0.80593
 H54 H 0.95044 0.89356 0.87818
 H55 H 0.92038 0.94645 0.87304
 H56 H 0.90036 0.95227 0.84708
 H57 H 0.89719 0.91137 0.80432
 C58 C 0.45461 -0.07443 0.33383
 C59 C 0.46067 -0.09051 0.32445
 C60 C 0.45204 -0.09573 0.30801
 C61 C 0.43742 -0.08427 0.30090
 C62 C 0.43092 -0.06847 0.31035
 C63 C 0.43964 -0.06340 0.32675
 C64 C 0.46289 -0.06954 0.35046
 C65 C 0.45657 -0.05356 0.36001
 C66 C 0.44178 -0.04256 0.35259
 C67 C 0.43314 -0.04748 0.33622
 C68 C 0.41767 -0.03705 0.32956
 C69 C 0.40812 -0.04265 0.31377
 C70 C 0.41533 -0.05808 0.30395
 H71 H 0.47191 -0.09916 0.33018
 H72 H 0.43090 -0.08753 0.28803
 H73 H 0.47384 -0.07857 0.35609
 H74 H 0.43668 -0.03025 0.35974
 H75 H 0.41306 -0.02479 0.33699
 H76 H 0.40837 -0.06255 0.29165
 C77 C 0.82255 0.28760 0.32203
 C78 C 0.81580 0.28064 0.33884
 C79 C 0.80232 0.29078 0.34918
 C80 C 0.79498 0.30780 0.34197
 C81 C 0.80146 0.31489 0.32495
 C82 C 0.81527 0.30466 0.31498
 C83 C 0.83718 0.27819 0.31259
 C84 C 0.84463 0.28566 0.29616
 C85 C 0.83668 0.30219 0.28881
 C86 C 0.82226 0.31177 0.29818
 C87 C 0.81558 0.32894 0.29139
 C88 C 0.80244 0.33968 0.30142
 C89 C 0.79504 0.33238 0.31803
 H90 H 0.82123 0.26730 0.34386
 H91 H 0.78466 0.31578 0.34984
 H92 H 0.84332 0.26547 0.31840
 H93 H 0.84263 0.30845 0.27647
 H94 H 0.82088 0.33404 0.27829
 H95 H 0.78479 0.34054 0.32581
 C96 C -0.20687 0.81397 0.81731
 C97 C -0.21318 0.83182 0.81155
 C98 C -0.20607 0.84029 0.79523
 C99 C -0.19252 0.83012 0.78481
 C100 C -0.18620 0.81228 0.79036
 C101 C -0.19347 0.80413 0.80659
 C102 C -0.21310 0.80613 0.83408
 C103 C -0.20593 0.78869 0.84025
 C104 C -0.19328 0.77867 0.82901
 C105 C -0.18679 0.78639 0.81245
 C106 C -0.17282 0.77702 0.80229
 C107 C -0.16499 0.78530 0.78643
 C108 C -0.17202 0.80281 0.78036
 H109 H -0.22303 0.83911 0.82042
 H110 H -0.18663 0.83609 0.77229
 H111 H -0.22296 0.81391 0.84266
 H112 H -0.18814 0.76495 0.83327
 H113 H -0.16713 0.76389 0.80757
 H114 H -0.16593 0.80937 0.76822
 C115 C 0.92425 0.33389 0.44830
 C116 C 0.93287 0.34992 0.45476
 C117 C 0.94742 0.35891 0.44473
 C118 C 0.95441 0.35005 0.42869
 C119 C 0.94615 0.33350 0.42226
 C120 C 0.93075 0.32567 0.43199
 C121 C 0.90877 0.32635 0.45782
 C122 C 0.89884 0.31119 0.45079
 C123 C 0.90587 0.30249 0.43486
 C124 C 0.92180 0.30959 0.42549
 C125 C 0.92860 0.30109 0.40950
 C126 C 0.94388 0.30869 0.39942
 C127 C 0.95263 0.32490 0.40603
 H128 H 0.92800 0.35508 0.46784
 H129 H 0.96584 0.35629 0.42083
 H130 H 0.90431 0.33265 0.47058
 H131 H 0.89861 0.29057 0.42940
 H132 H 0.92198 0.28838 0.40513
 H133 H 0.96433 0.33098 0.39842
 C134 C 0.39592 0.42265 0.85935
 C135 C 0.40374 0.42874 0.87578
 C136 C 0.41962 0.41951 0.88319
 C137 C 0.42707 0.40355 0.87457
 C138 C 0.41966 0.39757 0.85804
 C139 C 0.40417 0.40721 0.85022
 C140 C 0.38085 0.43253 0.85129
 C141 C 0.37412 0.42745 0.83402
 C142 C 0.38260 0.41218 0.82490
 C143 C 0.39763 0.40206 0.83284
 C144 C 0.40686 0.38750 0.82333
 C145 C 0.42247 0.37800 0.83107
 C146 C 0.42855 0.38300 0.84855
 H147 H 0.39806 0.44115 0.88236
 H148 H 0.43965 0.39667 0.87990
 H149 H 0.37501 0.44471 0.85812
 H150 H 0.37767 0.40834 0.81147
 H151 H 0.40219 0.38383 0.80977
 H152 H 0.44101 0.37639 0.85440
 C153 C 0.83490 0.91475 0.93606
 C154 C 0.82668 0.90000 0.94626
 C155 C 0.81090 0.89019 0.93958
 C156 C 0.80345 0.89600 0.92250
 C157 C 0.81154 0.91056 0.91221
 C158 C 0.82741 0.91986 0.91890
 C159 C 0.85045 0.92455 0.94282
 C160 C 0.85906 0.93910 0.93245
 C161 C 0.85132 0.94382 0.91519
 C162 C 0.83558 0.93447 0.90851
 C163 C 0.82769 0.93979 0.89165
 C164 C 0.81174 0.93071 0.88494
 C165 C 0.80378 0.91604 0.89532
 H166 H 0.83272 0.89659 0.95941
 H167 H 0.79133 0.88906 0.91689
 H168 H 0.85604 0.92051 0.95609
 H169 H 0.85675 0.95535 0.90709
 H170 H 0.83398 0.95109 0.88372
 H171 H 0.79123 0.90919 0.89057
 C172 C 0.32172 0.82149 0.30788
 C173 C 0.31306 0.83804 0.30110
 C174 C 0.29760 0.84658 0.31048
 C175 C 0.29143 0.83822 0.32716
 C176 C 0.29999 0.82187 0.33409
 C177 C 0.31500 0.81335 0.32438
 C178 C 0.33721 0.81308 0.29865
 C179 C 0.34579 0.79657 0.30565
 C180 C 0.33875 0.78862 0.32204
 C181 C 0.32358 0.79691 0.33146
 C182 C 0.31730 0.78925 0.34820
 C183 C 0.30284 0.79811 0.35838
 C184 C 0.29403 0.81425 0.35099
 H185 H 0.31836 0.84413 0.28839
 H186 H 0.28051 0.84463 0.33549
 H187 H 0.34266 0.81941 0.28612
 H188 H 0.34563 0.77639 0.32803
 H189 H 0.32385 0.77642 0.35321
 H190 H 0.28280 0.82122 0.35861
 C191 C 0.83296 0.42591 0.44653
 C192 C 0.82423 0.41230 0.45762
 C193 C 0.80851 0.40252 0.45135
 C194 C 0.80063 0.40786 0.43444
 C195 C 0.80891 0.42187 0.42352
 C196 C 0.82539 0.43073 0.42937
 C197 C 0.84956 0.43419 0.45225
 C198 C 0.85972 0.44663 0.44074
 C199 C 0.85141 0.45222 0.42388
 C200 C 0.83431 0.44428 0.41808
 C201 C 0.82619 0.44911 0.40102
 C202 C 0.80968 0.44018 0.39514
 C203 C 0.80116 0.42672 0.40659
 H204 H 0.83010 0.40912 0.47093
 H205 H 0.78838 0.40066 0.42941
 H206 H 0.85429 0.43077 0.46593
 H207 H 0.85856 0.46212 0.41490
 H208 H 0.83287 0.45946 0.39220
 H209 H 0.78825 0.42008 0.40241
 C210 C 0.93296 0.84192 -0.08964
 C211 C 0.94013 0.85786 -0.08092
 C212 C 0.92956 0.86685 -0.06701
 C213 C 0.91198 0.85969 -0.06174
 C214 C 0.90489 0.84376 -0.06996
 C215 C 0.91529 0.83481 -0.08399
 C216 C 0.94318 0.83294 -0.10376
 C217 C 0.93618 0.81672 -0.11238
 C218 C 0.91844 0.80988 -0.10627
 C219 C 0.90808 0.81864 -0.09214
 C220 C 0.89068 0.81139 -0.08583
 C221 C 0.88035 0.82032 -0.07173
 C222 C 0.88766 0.83650 -0.06395
 H223 H 0.95379 0.86333 -0.08497
 H224 H 0.90398 0.86627 -0.05075
 H225 H 0.95636 0.83913 -0.10802
 H226 H 0.91261 0.79749 -0.11233
 H227 H 0.88517 0.79884 -0.09186
 H228 H 0.88025 0.84320 -0.05268
 C229 C 0.31483 0.31519 0.79248
 C230 C 0.30652 0.32965 0.78199
 C231 C 0.28845 0.33673 0.78653
 C232 C 0.27853 0.32881 0.80146
 C233 C 0.28673 0.31450 0.81212
 C234 C 0.30498 0.30770 0.80771
 C235 C 0.33313 0.30866 0.78840
 C236 C 0.34194 0.29471 0.79933
 C237 C 0.33182 0.28718 0.81443
 C238 C 0.31357 0.29379 0.81882
 C239 C 0.30403 0.28721 0.83455
 C240 C 0.28607 0.29446 0.83941
 C241 C 0.27727 0.30762 0.82768
 H242 H 0.31433 0.33576 0.77057
 H243 H 0.26490 0.33452 0.80561
 H244 H 0.34062 0.31478 0.77681
 H245 H 0.33795 0.27622 0.82291
 H246 H 0.31094 0.27697 0.84340
 H247 H 0.26316 0.31283 0.83073
 C248 C 0.18287 0.55455 0.57133
 C249 C 0.16974 0.54481 0.56109
 C250 C 0.15981 0.55379 0.54683
 C251 C 0.16497 0.57206 0.54150
 C252 C 0.17867 0.58176 0.55130
 C253 C 0.18719 0.57319 0.56668
 C254 C 0.19087 0.54615 0.58682
 C255 C 0.20201 0.55649 0.59875
 C256 C 0.20700 0.57490 0.59370
 C257 C 0.19976 0.58329 0.57759
 C258 C 0.20422 0.60181 0.57255
 C259 C 0.19609 0.61041 0.55695
 C260 C 0.18341 0.60013 0.54638
 H261 H 0.16678 0.53041 0.56480
 H262 H 0.15772 0.57908 0.53029
 H263 H 0.18772 0.53165 0.58992
 H264 H 0.21588 0.58291 0.60261
 H265 H 0.21378 0.60963 0.58093
 H266 H 0.17726 0.60626 0.53414
 C267 C 0.56809 0.69392 0.08351
 C268 C 0.58408 0.70218 0.07569
 C269 C 0.59420 0.69342 0.06143
 C270 C 0.58728 0.67664 0.05423
 C271 C 0.57095 0.66829 0.06177
 C272 C 0.56148 0.67693 0.07663
 C273 C 0.55899 0.70219 0.09855
 C274 C 0.54351 0.69357 0.10723
 C275 C 0.53673 0.67676 0.10010
 C276 C 0.54556 0.66848 0.08484
 C277 C 0.53899 0.65159 0.07803
 C278 C 0.54829 0.64265 0.06334
 C279 C 0.56418 0.65124 0.05513
 H280 H 0.58868 0.71546 0.08090
 H281 H 0.59488 0.66985 0.04312
 H282 H 0.56435 0.71517 0.10383
 H283 H 0.52511 0.66960 0.10677
 H284 H 0.52645 0.64552 0.08418
 H285 H 0.57149 0.64446 0.04384
 C286 C 0.70816 0.17725 0.68283
 C287 C 0.71539 0.18394 0.66611
 C288 C 0.70563 0.19780 0.65596
 C289 C 0.68891 0.20573 0.66338
 C290 C 0.68167 0.19940 0.68038
 C291 C 0.69133 0.18500 0.69005
 C292 C 0.71723 0.16236 0.69201
 C293 C 0.70957 0.15451 0.70830
 C294 C 0.69320 0.16317 0.71589
 C295 C 0.68403 0.17814 0.70680
 C296 C 0.66721 0.18581 0.71394
 C297 C 0.65706 0.19978 0.70424
 C298 C 0.66461 0.20673 0.68757
 H299 H 0.72863 0.17815 0.66100
 H300 H 0.68128 0.21647 0.65573
 H301 H 0.72996 0.15645 0.68587
 H302 H 0.68681 0.15812 0.72846
 H303 H 0.66203 0.18071 0.72707
 H304 H 0.65695 0.21748 0.67995
 C305 C 1.07218 0.04639 0.17991
 C306 C 1.08880 0.03884 0.18733
 C307 C 1.09895 0.04857 0.20048
 C308 C 1.09141 0.06553 0.20720
 C309 C 1.07450 0.07315 0.20008
 C310 C 1.06506 0.06368 0.18609
 C311 C 1.06307 0.03701 0.16593
 C312 C 1.04687 0.04469 0.15738
 C313 C 1.03992 0.06223 0.16360
 C314 C 1.04875 0.07161 0.17805
 C315 C 1.04169 0.08889 0.18441
 C316 C 1.05053 0.09826 0.19891
 C317 C 1.06709 0.09024 0.20644
 H318 H 1.09391 0.02535 0.18263
 H319 H 1.09899 0.07305 0.21755
 H320 H 1.06967 0.02424 0.16114
 H321 H 1.02753 0.06860 0.15735
 H322 H 1.02946 0.09501 0.17775
 H323 H 1.07429 0.09729 0.21735
 C324 C 0.03301 0.17870 1.07338
 C325 C 0.02453 0.16374 1.06476
 C326 C 0.03325 0.15487 1.04964
 C327 C 0.05066 0.16202 1.04296
 C328 C 0.05904 0.17759 1.05115
 C329 C 0.05020 0.18577 1.06656
 C330 C 0.02492 0.18599 1.08942
 C331 C 0.03410 0.19992 1.09917
 C332 C 0.05062 0.20778 1.09168
 C333 C 0.05874 0.20075 1.07550
 C334 C 0.07571 0.20797 1.06865
 C335 C 0.08498 0.19990 1.05345
 C336 C 0.07640 0.18476 1.04465
 H337 H 0.01185 0.15823 1.07106
 H338 H 0.05774 0.15549 1.03139
 H339 H 0.01168 0.18040 1.09449
 H340 H 0.05775 0.21873 1.09893
 H341 H 0.08162 0.21994 1.07533
 H342 H 0.08340 0.17834 1.03298
 C343 C 0.18519 0.68238 0.71357
 C344 C 0.16814 0.69009 0.72028
 C345 C 0.15939 0.70540 0.71127
 C346 C 0.16789 0.71281 0.69523
 C347 C 0.18496 0.70535 0.68844
 C348 C 0.19372 0.69018 0.69770
 C349 C 0.19353 0.66661 0.72210
 C350 C 0.21034 0.65862 0.71504
 C351 C 0.21898 0.66688 0.69952
 C352 C 0.21074 0.68247 0.69078
 C353 C 0.21890 0.68992 0.67473
 C354 C 0.20990 0.70458 0.66494
 C355 C 0.19305 0.71241 0.67215
 H356 H 0.16161 0.68406 0.73247
 H357 H 0.16099 0.72400 0.68759
 H358 H 0.18673 0.66030 0.73401
 H359 H 0.23156 0.66056 0.69351
 H360 H 0.23220 0.68407 0.66993
 H361 H 0.18593 0.72374 0.66485
 C362 C 1.21120 0.17846 0.17713
 C363 C 1.22181 0.16446 0.18619
 C364 C 1.21609 0.15738 0.20355
 C365 C 1.20022 0.16586 0.21214
 C366 C 1.18965 0.18001 0.20326
 C367 C 1.19487 0.18604 0.18552
 C368 C 1.21623 0.18424 0.15936
 C369 C 1.20471 0.19685 0.14937
 C370 C 1.18856 0.20467 0.15798
 C371 C 1.18355 0.19934 0.17602
 C372 C 1.16700 0.20644 0.18444
 C373 C 1.16162 0.20038 0.20219
 C374 C 1.17344 0.18757 0.21164
 H375 H 1.23365 0.15840 0.17881
 H376 H 1.19560 0.16110 0.22561
 H377 H 1.22912 0.17864 0.15330
 H378 H 1.17960 0.21445 0.15047
 H379 H 1.15803 0.21626 0.17699
 H380 H 1.17002 0.18321 0.22553
 C381 C 0.68275 1.06705 0.54355
 C382 C 0.66752 1.05695 0.53666
 C383 C 0.66376 1.03873 0.54317
 C384 C 0.67649 1.03010 0.55535
 C385 C 0.69109 1.04031 0.56293
 C386 C 0.69412 1.05896 0.55729
 C387 C 0.68604 1.08542 0.53755
 C388 C 0.70060 1.09622 0.54511
 C389 C 0.71122 1.08810 0.55967
 C390 C 0.70799 1.06965 0.56588
 C391 C 0.71767 1.06195 0.58111
 C392 C 0.71378 1.04361 0.58735
 C393 C 0.70160 1.03253 0.57721
 H394 H 0.65805 1.06367 0.52695
 H395 H 0.67444 1.01576 0.55984
 H396 H 0.67665 1.09109 0.52729
 H397 H 0.72208 1.09606 0.56627
 H398 H 0.72739 1.07048 0.58861
 H399 H 0.69922 1.01809 0.58124
 C400 C 0.54454 0.57549 0.17022
 C401 C 0.53904 0.56760 0.15376
 C402 C 0.54993 0.55332 0.14547
 C403 C 0.56575 0.54588 0.15481
 C404 C 0.57120 0.55334 0.17173
 C405 C 0.56066 0.56840 0.17925
 C406 C 0.53448 0.59085 0.17741
 C407 C 0.54065 0.59966 0.19332
 C408 C 0.55633 0.59204 0.20263
 C409 C 0.56634 0.57657 0.19570
 C410 C 0.58231 0.56960 0.20474
 C411 C 0.59308 0.55475 0.19744
 C412 C 0.58731 0.54649 0.18100
 H413 H 0.52632 0.57291 0.14728
 H414 H 0.57412 0.53474 0.14868
 H415 H 0.52206 0.59605 0.17035
 H416 H 0.56125 0.59856 0.21499
 H417 H 0.58634 0.57579 0.21756
 H418 H 0.59560 0.53509 0.17523
 C419 C 0.68112 0.69766 0.17361
 C420 C 0.66478 0.70598 0.18124
 C421 C 0.65730 0.69965 0.19823
 C422 C 0.66620 0.68435 0.20720
 C423 C 0.68248 0.67578 0.19968
 C424 C 0.69011 0.68269 0.18300
 C425 C 0.68833 0.70369 0.15647
 C426 C 0.70447 0.69496 0.14871
 C427 C 0.71377 0.68071 0.15869
 C428 C 0.70649 0.67427 0.17545
 C429 C 0.71499 0.65892 0.18429
 C430 C 0.70720 0.65145 0.20052
 C431 C 0.69102 0.66010 0.20828
 H432 H 0.65773 0.71709 0.17362
 H433 H 0.66048 0.67910 0.22009
 H434 H 0.68112 0.71483 0.14898
 H435 H 0.72665 0.67434 0.15337
 H436 H 0.72703 0.65210 0.17779
 H437 H 0.68487 0.65438 0.22079
 C438 C 0.17264 0.04497 1.08075
 C439 C 0.15688 0.03814 1.07147
 C440 C 0.15035 0.04679 1.05510
 C441 C 0.16015 0.06258 1.04835
 C442 C 0.17579 0.06951 1.05749
 C443 C 0.18212 0.06072 1.07368
 C444 C 0.17878 0.03650 1.09719
 C445 C 0.19433 0.04361 1.10689
 C446 C 0.20374 0.05929 1.09926
 C447 C 0.19772 0.06790 1.08294
 C448 C 0.20683 0.08390 1.07599
 C449 C 0.20021 0.09315 1.06008
 C450 C 0.18482 0.08557 1.05084
 H451 H 0.14971 0.02602 1.07714
 H452 H 0.15543 0.07030 1.03641
 H453 H 0.17101 0.02458 1.10221
 H454 H 0.21572 0.06520 1.10614
 H455 H 0.21897 0.08905 1.08312
 H456 H 0.17947 0.09243 1.03857
 C457 C 0.56129 0.18286 0.54395
 C458 C 0.57867 0.18879 0.53684
 C459 C 0.58946 0.20192 0.54619
 C460 C 0.58192 0.21006 0.56221
 C461 C 0.56427 0.20457 0.56927
 C462 C 0.55399 0.19080 0.56014
 C463 C 0.55170 0.16824 0.53569
 C464 C 0.53514 0.16099 0.54370
 C465 C 0.52739 0.16969 0.55931
 C466 C 0.53673 0.18448 0.56756
 C467 C 0.52964 0.19217 0.58380
 C468 C 0.54002 0.20546 0.59338
 C469 C 0.55718 0.21187 0.58580
 H470 H 0.58382 0.18282 0.52415
 H471 H 0.59006 0.22021 0.56955
 H472 H 0.55777 0.16175 0.52359
 H473 H 0.51487 0.16419 0.56598
 H474 H 0.51612 0.18747 0.58903
 H475 H 0.56535 0.22204 0.59307
 C476 C 0.07773 0.55221 0.66120
 C477 C 0.09327 0.54547 0.67138
 C478 C 0.09757 0.55316 0.68851
 C479 C 0.08550 0.56717 0.69564
 C480 C 0.07024 0.57426 0.68552
 C481 C 0.06633 0.56686 0.66822
 C482 C 0.07364 0.54476 0.64400
 C483 C 0.05856 0.55204 0.63337
 C484 C 0.04733 0.56671 0.64067
 C485 C 0.05109 0.57417 0.65795
 C486 C 0.04007 0.58906 0.66499
 C487 C 0.04422 0.59689 0.68213
 C488 C 0.05915 0.58902 0.69236
 H489 H 0.10228 0.53454 0.66572
 H490 H 0.08786 0.57275 0.70911
 H491 H 0.08225 0.53320 0.63915
 H492 H 0.03573 0.57257 0.63279
 H493 H 0.02833 0.59442 0.65703
 H494 H 0.06264 0.59478 0.70554
 C495 C 0.68231 0.56104 0.04475
 C496 C 0.66897 0.54991 0.03625
 C497 C 0.66211 0.53362 0.04490
 C498 C 0.66997 0.52785 0.06175
 C499 C 0.68376 0.53864 0.07017
 C500 C 0.68967 0.55552 0.06186
 C501 C 0.68760 0.57809 0.03674
 C502 C 0.69957 0.59029 0.04590
 C503 C 0.70735 0.58450 0.06279
 C504 C 0.70246 0.56714 0.07085
 C505 C 0.70958 0.56151 0.08803
 C506 C 0.70409 0.54437 0.09631
 C507 C 0.69110 0.53315 0.08719
 H508 H 0.66321 0.55454 0.02323
 H509 H 0.66482 0.51556 0.06891
 H510 H 0.68202 0.58198 0.02344
 H511 H 0.71673 0.59373 0.06991
 H512 H 0.71893 0.57080 0.09503
 H513 H 0.68653 0.52008 0.09340
 C514 C 0.04189 0.68101 0.56823
 C515 C 0.03484 0.68567 0.58561
 C516 C 0.04506 0.69734 0.59721
 C517 C 0.06218 0.70494 0.59075
 C518 C 0.06926 0.70064 0.57325
 C519 C 0.05906 0.68864 0.56195
 C520 C 0.03239 0.66818 0.55739
 C521 C 0.03982 0.66283 0.54022
 C522 C 0.05650 0.67127 0.53372
 C523 C 0.06626 0.68389 0.54453
 C524 C 0.08356 0.69114 0.53848
 C525 C 0.09417 0.70264 0.54987
 C526 C 0.08671 0.70761 0.56711
 H527 H 0.02135 0.68011 0.58996
 H528 H 0.07026 0.71391 0.59951
 H529 H 0.01985 0.66165 0.56298
 H530 H 0.06240 0.66739 0.52050
 H531 H 0.08876 0.68763 0.52493
 H532 H 0.09474 0.71647 0.57601
 C533 C 0.56581 1.09027 0.67353
 C534 C 0.55698 1.08369 0.65785
 C535 C 0.56459 1.06842 0.64784
 C536 C 0.58149 1.05979 0.65435
 C537 C 0.59055 1.06628 0.67011
 C538 C 0.58246 1.08143 0.67980
 C539 C 0.55834 1.10588 0.68287
 C540 C 0.56724 1.11274 0.69852
 C541 C 0.58322 1.10307 0.70524
 C542 C 0.59107 1.08785 0.69578
 C543 C 0.60779 1.07938 0.70187
 C544 C 0.61681 1.06514 0.69178
 C545 C 0.60780 1.05823 0.67615
 H546 H 0.54388 1.09049 0.65405
 H547 H 0.58787 1.04817 0.64702
 H548 H 0.54585 1.11300 0.67762
 H549 H 0.58987 1.10745 0.71771
 H550 H 0.61397 1.08424 0.71442
 H551 H 0.61445 1.04702 0.66844
 C552 C 0.40641 0.33702 0.93543
 C553 C 0.41488 0.35202 0.94394
 C554 C 0.43119 0.36045 0.93650
 C555 C 0.43922 0.35288 0.92028
 C556 C 0.43064 0.33779 0.91140
 C557 C 0.41414 0.32987 0.91911
 C558 C 0.39028 0.32902 0.94329
 C559 C 0.38133 0.31406 0.93491
 C560 C 0.38915 0.30671 0.91869
 C561 C 0.40546 0.31460 0.91070
 C562 C 0.41318 0.30747 0.89445
 C563 C 0.42935 0.31547 0.88623
 C564 C 0.43814 0.33051 0.89496
 H565 H 0.40899 0.35640 0.95696
 H566 H 0.45185 0.35898 0.91430
 H567 H 0.38486 0.33438 0.95617
 H568 H 0.38240 0.29505 0.91218
 H569 H 0.40667 0.29544 0.88841
 H570 H 0.45066 0.33667 0.88884
 C571 C 0.93346 0.46420 0.30756
 C572 C 0.94212 0.47448 0.32126
 C573 C 0.95880 0.46783 0.32975
 C574 C 0.96698 0.45093 0.32341
 C575 C 0.95847 0.44062 0.30963
 C576 C 0.94151 0.44713 0.30177
 C577 C 0.91630 0.47045 0.30024
 C578 C 0.90683 0.45988 0.28721
 C579 C 0.91492 0.44274 0.28146
 C580 C 0.93230 0.43631 0.28862
 C581 C 0.94042 0.41907 0.28327
 C582 C 0.95760 0.41261 0.29089
 C583 C 0.96638 0.42350 0.30415
 H584 H 0.93499 0.48709 0.32570
 H585 H 0.97989 0.44542 0.32942
 H586 H 0.90990 0.48323 0.30540
 H587 H 0.90761 0.43437 0.27157
 H588 H 0.93337 0.41067 0.27323
 H589 H 0.97909 0.41840 0.31081
 C590 C 0.32127 0.96987 0.44010
 C591 C 0.31475 0.97587 0.42293
 C592 C 0.30063 0.96603 0.41381
 C593 C 0.29337 0.94963 0.42208
 C594 C 0.29992 0.94331 0.43925
 C595 C 0.31378 0.95364 0.44833
 C596 C 0.33583 0.97946 0.44871
 C597 C 0.34331 0.97296 0.46558
 C598 C 0.33498 0.95716 0.47398
 C599 C 0.32059 0.94743 0.46542
 C600 C 0.31362 0.93101 0.47339
 C601 C 0.30060 0.92000 0.46414
 C602 C 0.29338 0.92651 0.44725
 H603 H 0.32125 0.98793 0.41647
 H604 H 0.28274 0.94171 0.41509
 H605 H 0.34176 0.99132 0.44148
 H606 H 0.34012 0.95186 0.48703
 H607 H 0.31872 0.92664 0.48674
 H608 H 0.28321 0.91821 0.44006
 O609 O 0.24468 0.54960 0.73475
 O610 O 0.27652 0.54562 0.74032
 O611 O 0.23205 0.50598 0.69732
 O612 O 0.23569 0.47448 0.69640
 O613 O 0.19570 0.51573 0.74280
 O614 O 0.19718 0.50721 0.77466
 O615 O 0.27856 0.45007 0.74367
 O616 O 0.27940 0.46228 0.71373
 O617 O 0.29174 0.49120 0.77960
 O618 O 0.28256 0.52574 0.78174
 O619 O 0.24730 0.46079 0.78948
 O620 O 0.21307 0.46208 0.77974
 O621 O 0.25218 0.44307 0.76051
 O622 O 0.21744 0.44770 0.75626
 O623 O 0.26385 0.48613 0.79824
 O624 O 0.25889 0.52084 0.79725
 O625 O 0.29863 0.47465 0.75392
 O626 O 0.29826 0.48868 0.72212
 O627 O 0.21855 0.54290 0.75212
 O628 O 0.21539 0.52888 0.78243
 O629 O 0.20209 0.49786 0.71786
 O630 O 0.21373 0.46546 0.71523
 O631 O 0.25130 0.52990 0.70485
 O632 O 0.28414 0.52639 0.71660
 Zr633 Zr 0.25880 0.52367 0.73222
 O634 O 0.27609 0.50562 0.74808
 Zr635 Zr 0.23035 0.48904 0.72100
 O636 O 0.24669 0.46945 0.73589
 Zr637 Zr 0.22085 0.51398 0.75807
 O638 O 0.23648 0.49527 0.77489
 Zr639 Zr 0.27473 0.47857 0.73740
 O640 O 0.25892 0.49695 0.72032
 Zr641 Zr 0.26492 0.50328 0.77474
 O642 O 0.24891 0.52315 0.75959
 Zr643 Zr 0.23701 0.46848 0.76325
 O644 O 0.21918 0.48667 0.74776
 O645 O 0.23057 0.51596 0.73122
 O646 O 0.26499 0.47640 0.76432
 C647 C 0.22919 0.55427 0.74301
 C648 C 0.24070 0.52131 0.69361
 C649 C 0.19109 0.50834 0.72752
 C650 C 0.26812 0.43870 0.75292
 C651 C 0.30229 0.48003 0.77019
 C652 C 0.25762 0.46952 0.80091
 H653 H 0.28926 0.51008 0.74802
 H654 H 0.23105 0.49508 0.78743
 H655 H 0.22288 0.52490 0.72387
 H656 H 0.24606 0.45714 0.72992
 H657 H 0.27695 0.47064 0.70305
 H658 H 0.24557 0.46494 0.69906
 H659 H 0.24706 0.51645 0.80312
 H660 H 0.22681 0.53629 0.78477
 H661 H 0.30818 0.47873 0.72221
 H662 H 0.28326 0.53797 0.70896
 H663 H 0.21316 0.47023 0.79058
 H664 H 0.19409 0.49409 0.77189
 H665 H 0.27473 0.54690 0.75370
 H666 H 0.29400 0.52518 0.77384
 H667 H 0.20448 0.46414 0.72544
 H668 H 0.22164 0.44236 0.74444
 O669 O 0.20255 0.02590 0.25933
 O670 O 0.20880 0.02069 0.29007
 O671 O 0.25181 0.05323 0.23821
 O672 O 0.28277 0.04774 0.23588
 O673 O 0.22871 0.00617 0.20940
 O674 O 0.23004 -0.02662 0.21411
 O675 O 0.30250 -0.00163 0.28131
 O676 O 0.29724 0.03025 0.27989
 O677 O 0.25531 -0.02695 0.30378
 O678 O 0.22163 -0.02577 0.29816
 O679 O 0.27930 -0.04699 0.25548
 O680 O 0.27774 -0.03854 0.22357
 O681 O 0.30334 -0.02119 0.25693
 O682 O 0.29536 -0.01653 0.22315
 O683 O 0.25643 -0.04946 0.27746
 O684 O 0.22093 -0.04238 0.27596
 O685 O 0.27701 -0.00387 0.30550
 O686 O 0.27101 0.03026 0.30113
 O687 O 0.20272 0.00539 0.23567
 O688 O 0.20998 -0.02843 0.23561
 O689 O 0.25088 0.02887 0.21045
 O690 O 0.28546 0.02532 0.21733
 O691 O 0.22857 0.05140 0.25995
 O692 O 0.23323 0.04107 0.29246
 Zr693 Zr 0.23008 0.02340 0.26959
 O694 O 0.24677 0.00504 0.28565
 Zr695 Zr 0.26294 0.02590 0.23668
 O696 O 0.28139 0.00854 0.25190
 Zr697 Zr 0.23011 -0.00683 0.23536
 O698 O 0.24757 -0.02611 0.24964
 Zr699 Zr 0.27532 0.01037 0.28008
 O700 O 0.25872 0.02996 0.26503
 Zr701 Zr 0.24305 -0.02288 0.27788
 O702 O 0.22426 -0.00473 0.26354
 Zr703 Zr 0.27617 -0.01944 0.24546
 O704 O 0.25875 -0.00196 0.22888
 O705 O 0.23451 0.02102 0.24150
 O706 O 0.27161 -0.01764 0.27361
 C707 C 0.19462 0.01780 0.24587
 C708 C 0.23830 0.06043 0.24782
 C709 C 0.23790 0.01988 0.20223
 C710 C 0.31088 -0.01358 0.27090
 C711 C 0.26817 -0.01805 0.31219
 C712 C 0.27046 -0.05610 0.26811
 H713 H 0.24366 0.00696 0.29874
 H714 H 0.24488 -0.03897 0.24570
 H715 H 0.22638 0.02972 0.23432
 H716 H 0.29460 0.01209 0.24920
 H717 H 0.29134 0.04248 0.27662
 H718 H 0.29185 0.04502 0.24578
 H719 H 0.22384 -0.05065 0.26551
 H720 H 0.20322 -0.02776 0.24754
 H721 H 0.28168 0.02905 0.30977
 H722 H 0.22319 0.05091 0.29209
 H723 H 0.26565 -0.04530 0.22336
 H724 H 0.24285 -0.02645 0.20850
 H725 H 0.20385 0.00786 0.28917
 H726 H 0.22177 -0.01445 0.30581
 H727 H 0.28291 0.01503 0.20879
 H728 H 0.30449 -0.00674 0.22627
 O729 O 0.48590 0.80305 0.26119
 O730 O 0.49119 0.79892 0.22942
 O731 O 0.45287 0.75659 0.27775
 O732 O 0.45504 0.72519 0.27713
 O733 O 0.50223 0.77134 0.30838
 O734 O 0.53559 0.76575 0.30360
 O735 O 0.50274 0.70381 0.23164
 O736 O 0.47096 0.71270 0.23375
 O737 O 0.53283 0.74923 0.21200
 O738 O 0.53440 0.78284 0.22035
 O739 O 0.55108 0.72018 0.25746
 O740 O 0.54253 0.72113 0.29095
 O741 O 0.52261 0.69932 0.25568
 O742 O 0.52022 0.70421 0.28911
 O743 O 0.55576 0.74455 0.23767
 O744 O 0.55260 0.77916 0.24123
 O745 O 0.50788 0.72975 0.20946
 O746 O 0.47435 0.73962 0.21371
 O747 O 0.50736 0.79889 0.28402
 O748 O 0.53962 0.78784 0.28462
 O749 O 0.47735 0.75176 0.30565
 O750 O 0.47690 0.71880 0.29654
 O751 O 0.45777 0.78108 0.25806
 O752 O 0.46724 0.77795 0.22553
 Zr753 Zr 0.48557 0.77690 0.24836
 O754 O 0.50184 0.75965 0.23093
 Zr755 Zr 0.47916 0.74222 0.27857
 O756 O 0.49502 0.72349 0.26232
 Zr757 Zr 0.51580 0.77052 0.28251
 O758 O 0.53340 0.75293 0.26652
 Zr759 Zr 0.49357 0.73174 0.23468
 O760 O 0.47572 0.74920 0.25069
 Zr761 Zr 0.53028 0.75998 0.23867
 O762 O 0.51439 0.77901 0.25484
 Zr763 Zr 0.52385 0.72528 0.26874
 O764 O 0.50768 0.74253 0.28659
 O765 O 0.48735 0.76986 0.27603
 O766 O 0.52219 0.73217 0.24105
 C767 C 0.49540 0.80890 0.27485
 C768 C 0.44739 0.77160 0.26924
 C769 C 0.48754 0.76298 0.31480
 C770 C 0.51405 0.69366 0.24140
 C771 C 0.52290 0.73750 0.20317
 C772 C 0.56105 0.72917 0.24548
 H773 H 0.50011 0.76382 0.21807
 H774 H 0.54665 0.75399 0.27044
 H775 H 0.47952 0.77821 0.28383
 H776 H 0.49017 0.71068 0.26417
 H777 H 0.45935 0.71984 0.23710
 H778 H 0.45787 0.71551 0.26791
 H779 H 0.55988 0.77552 0.25224
 H780 H 0.54086 0.79458 0.27273
 H781 H 0.47428 0.72945 0.20460
 H782 H 0.45902 0.78928 0.22647
 H783 H 0.55248 0.73069 0.28994
 H784 H 0.53335 0.75292 0.30837
 H785 H 0.50431 0.80293 0.23155
 H786 H 0.52370 0.78323 0.21174
 H787 H 0.48825 0.71871 0.30436
 H788 H 0.50809 0.69800 0.28676
 O789 O 0.02869 0.74453 0.70555
 O790 O 0.02792 0.77571 0.71317
 O791 O 0.04479 0.71583 0.75528
 O792 O 0.03416 0.71426 0.78453
 O793 O -0.00116 0.69625 0.72383
 O794 O -0.03364 0.70530 0.72160
 O795 O -0.01050 0.76624 0.79895
 O796 O 0.02204 0.75970 0.79800
 O797 O -0.02558 0.79450 0.75154
 O798 O -0.01737 0.79066 0.71849
 O799 O -0.05625 0.74806 0.76552
 O800 O -0.05146 0.71466 0.76558
 O801 O -0.03569 0.74764 0.79376
 O802 O -0.03346 0.71192 0.78707
 O803 O -0.05065 0.77224 0.74565
 O804 O -0.03776 0.77150 0.71340
 O805 O -0.00762 0.79063 0.77700
 O806 O 0.02770 0.78338 0.77484
 O807 O 0.00462 0.72427 0.70101
 O808 O -0.02968 0.72798 0.70327
 O809 O 0.01677 0.69231 0.74929
 O810 O 0.00873 0.69812 0.78214
 O811 O 0.04999 0.73970 0.73490
 O812 O 0.04413 0.77371 0.73988
 Zr813 Zr 0.02376 0.75372 0.73248
 O814 O 0.00562 0.77217 0.74679
 Zr815 Zr 0.01587 0.71865 0.76214
 O816 O -0.00210 0.73592 0.77818
 Zr817 Zr -0.01121 0.72399 0.72561
 O818 O -0.03073 0.74088 0.74003
 Zr819 Zr 0.00518 0.76410 0.77452
 O820 O 0.02487 0.74667 0.76059
 Zr821 Zr -0.02221 0.76891 0.73793
 O822 O -0.00377 0.75219 0.72196
 Zr823 Zr -0.02980 0.73448 0.76829
 O824 O -0.01216 0.71561 0.75338
 O825 O 0.01642 0.72567 0.73448
 O826 O -0.02258 0.76236 0.76577
 C827 C 0.01948 0.73308 0.69567
 C828 C 0.05549 0.72537 0.74436
 C829 C 0.00958 0.68638 0.73436
 C830 C -0.02672 0.75959 0.80341
 C831 C -0.01957 0.79981 0.76712
 C832 C -0.06141 0.76279 0.75646
 H833 H 0.00989 0.78523 0.74526
 H834 H -0.04345 0.73902 0.73495
 H835 H 0.02520 0.71759 0.72735
 H836 H -0.00138 0.73221 0.79125
 H837 H 0.03457 0.75524 0.79354
 H838 H 0.03045 0.72350 0.79390
 H839 H -0.04755 0.76175 0.71366
 H840 H -0.02656 0.74023 0.69760
 H841 H 0.02548 0.79174 0.78539
 H842 H 0.05547 0.77219 0.73187
 H843 H -0.05549 0.71519 0.75265
 H844 H -0.03527 0.69821 0.73325
 H845 H 0.01570 0.77779 0.70695
 H846 H -0.00674 0.79820 0.72282
 H847 H -0.00310 0.69231 0.77809
 H848 H -0.02629 0.71465 0.79825
 O849 O 0.04739 0.01635 0.01280
 O850 O 0.04471 0.01074 -0.01922
 O851 O -0.00244 0.04840 0.02541
 O852 O -0.03419 0.04489 0.02284
 O853 O 0.01340 0.00061 0.05917
 O854 O 0.00964 -0.03301 0.05516
 O855 O -0.04956 -0.00560 -0.02164
 O856 O -0.04455 0.02756 -0.01873
 O857 O -0.00394 -0.03270 -0.03638
 O858 O 0.03192 -0.02982 -0.02801
 O859 O -0.03255 -0.04915 0.00375
 O860 O -0.03082 -0.04289 0.03982
 O861 O -0.05482 -0.02328 0.00406
 O862 O -0.05163 -0.02214 0.03673
 O863 O -0.00422 -0.05479 -0.01015
 O864 O 0.02896 -0.04958 -0.00750
 O865 O -0.02247 -0.00694 -0.04172
 O866 O -0.01584 0.02655 -0.03748
 O867 O 0.04275 -0.00403 0.03672
 O868 O 0.03382 -0.03610 0.03838
 O869 O -0.00666 0.02526 0.05403
 O870 O -0.03942 0.02364 0.04444
 O871 O 0.02359 0.04387 0.00730
 O872 O 0.02304 0.03421 -0.02464
 Zr873 Zr 0.02152 0.01615 -0.00132
 O874 O 0.00584 -0.00041 -0.01909
 Zr875 Zr -0.01544 0.02188 0.02688
 O876 O -0.03257 0.00504 0.01055
 Zr877 Zr 0.01490 -0.01338 0.03382
 O878 O -0.00035 -0.03174 0.01727
 Zr879 Zr -0.02305 0.00673 -0.01671
 O880 O -0.00712 0.02509 -0.00072
 Zr881 Zr 0.00799 -0.02837 -0.01033
 O882 O 0.02510 -0.01211 0.00660
 Zr883 Zr -0.02892 -0.02347 0.01769
 O884 O -0.01399 -0.00629 0.03594
 O885 O 0.01301 0.01461 0.02601
 O886 O -0.02051 -0.02134 -0.00944
 C887 C 0.05292 0.00751 0.02734
 C888 C 0.01280 0.05411 0.01738
 C889 C 0.00457 0.01559 0.06428
 C890 C -0.05957 -0.01701 -0.01184
 C891 C -0.01541 -0.02283 -0.04627
 C892 C -0.02126 -0.05921 -0.00618
 H893 H 0.01046 0.00135 -0.03184
 H894 H 0.00144 -0.04480 0.02166
 H895 H 0.02065 0.02276 0.03378
 H896 H -0.04596 0.00906 0.01167
 H897 H -0.03865 0.03954 -0.01547
 H898 H -0.04467 0.04059 0.01518
 H899 H 0.02747 -0.05503 0.00495
 H900 H 0.04160 -0.03728 0.02709
 H901 H -0.02578 0.02634 -0.04695
 H902 H 0.03416 0.04241 -0.02348
 H903 H -0.02540 -0.05499 0.03570
 H904 H -0.00344 -0.03057 0.05955
 H905 H 0.04979 -0.00185 -0.01600
 H906 H 0.02881 -0.02310 -0.03956
 H907 H -0.03914 0.01233 0.05245
 H908 H -0.05694 -0.00928 0.03594
 O909 O 0.00934 0.56026 0.50037
 O910 O -0.02241 0.55381 0.49654
 O911 O 0.03193 0.51262 0.52896
 O912 O 0.03283 0.48139 0.52511
 O913 O 0.06110 0.53423 0.48149
 O914 O 0.05661 0.53222 0.44956
 O915 O -0.01240 0.46089 0.47763
 O916 O -0.01129 0.46652 0.50899
 O917 O -0.03582 0.50737 0.45167
 O918 O -0.03046 0.54070 0.45194
 O919 O 0.01473 0.48424 0.43199
 O920 O 0.04816 0.48594 0.44092
 O921 O 0.01211 0.46017 0.45713
 O922 O 0.04663 0.46683 0.46164
 O923 O -0.00815 0.50677 0.42936
 O924 O -0.00735 0.54177 0.43543
 O925 O -0.03696 0.48522 0.47432
 O926 O -0.03376 0.49204 0.50780
 O927 O 0.03380 0.55989 0.47974
 O928 O 0.03458 0.55208 0.44724
 O929 O 0.06002 0.51252 0.50457
 O930 O 0.05327 0.47843 0.50290
 O931 O 0.00857 0.53476 0.52674
 O932 O -0.02479 0.52986 0.51740
 Zr933 Zr -0.00110 0.53290 0.49955
 O934 O -0.01745 0.51608 0.48256
 Zr935 Zr 0.03303 0.50054 0.50277
 O936 O 0.01768 0.48196 0.48658
 Zr937 Zr 0.03449 0.53252 0.46927
 O938 O 0.01993 0.51513 0.45137
 Zr939 Zr -0.01142 0.48786 0.48856
 O940 O 0.00371 0.50462 0.50694
 Zr941 Zr -0.00926 0.51971 0.45502
 O942 O 0.00539 0.53844 0.47173
 Zr943 Zr 0.02445 0.48686 0.45886
 O944 O 0.04124 0.50427 0.47516
 O945 O 0.02791 0.52859 0.49683
 O946 O -0.00459 0.49148 0.46096
 C947 C 0.02313 0.56807 0.49169
 C948 C 0.02149 0.52578 0.53569
 C949 C 0.06842 0.52537 0.49515
 C950 C -0.00228 0.45277 0.46523
 C951 C -0.04399 0.49393 0.46038
 C952 C 0.00185 0.49312 0.42303
 H953 H -0.03103 0.51899 0.48454
 H954 H 0.02413 0.51781 0.43865
 H955 H 0.03520 0.53688 0.50478
 H956 H 0.02041 0.46887 0.49038
 H957 H -0.00815 0.47263 0.52065
 H958 H 0.02390 0.47143 0.52201
 H959 H 0.00363 0.53908 0.42731
 H960 H 0.02228 0.55885 0.44772
 H961 H -0.04254 0.48141 0.50683
 H962 H -0.02457 0.53991 0.52665
 H963 H 0.04731 0.49696 0.43259
 H964 H 0.06259 0.51962 0.45036
 H965 H -0.02151 0.55853 0.48375
 H966 H -0.03853 0.54041 0.46309
 H967 H 0.06143 0.48024 0.49193
 H968 H 0.04342 0.45838 0.47204
 O969 O 0.44931 0.00080 0.49468
 O970 O 0.45671 0.03204 0.49317
 O971 O 0.49426 -0.02624 0.46428
 O972 O 0.52541 -0.03014 0.46598
 O973 O 0.47531 -0.04816 0.51706
 O974 O 0.48242 -0.03995 0.54780
 O975 O 0.55208 0.02158 0.50144
 O976 O 0.54209 0.01646 0.47239
 O977 O 0.50787 0.05046 0.52867
 O978 O 0.47461 0.04491 0.53477
 O979 O 0.53410 0.00287 0.55396
 O980 O 0.53185 -0.02952 0.55147
 O981 O 0.55488 0.00075 0.52518
 O982 O 0.54555 -0.03439 0.52716
 O983 O 0.51299 0.02709 0.55525
 O984 O 0.47725 0.02586 0.55492
 O985 O 0.52844 0.04735 0.50468
 O986 O 0.51696 0.03949 0.47350
 O987 O 0.45108 -0.02005 0.51855
 O988 O 0.46341 -0.01674 0.54967
 O989 O 0.49547 -0.05123 0.49273
 O990 O 0.53042 -0.04539 0.49003
 O991 O 0.47171 -0.00329 0.46618
 O992 O 0.47824 0.03061 0.46988
 Zr993 Zr 0.47698 0.01003 0.49112
 O994 O 0.49612 0.02794 0.50348
 Zr995 Zr 0.50841 -0.02500 0.48941
 O996 O 0.52925 -0.00812 0.50073
 Zr997 Zr 0.48001 -0.02063 0.52572
 O998 O 0.50017 -0.00436 0.53918
 Zr999 Zr 0.52352 0.02028 0.49504
 O1000 O 0.50428 0.00321 0.48131
 Zr1001 Zr 0.49584 0.02393 0.53204
 O1002 O 0.47461 0.00783 0.51990
 Zr1003 Zr 0.52763 -0.01051 0.52938
 O1004 O 0.50771 -0.02893 0.51803
 O1005 O 0.48096 -0.01822 0.49735
 O1006 O 0.52339 0.01781 0.52355
 C1007 C 0.44191 -0.01091 0.50606
 C1008 C 0.48017 -0.01680 0.45783
 C1009 C 0.48289 -0.05759 0.50395
 C1010 C 0.56166 0.01297 0.51383
 C1011 C 0.52048 0.05681 0.51753
 C1012 C 0.52713 0.01759 0.56154
 H1013 H 0.49296 0.04101 0.49985
 H1014 H 0.49920 -0.00651 0.55256
 H1015 H 0.47152 -0.02607 0.49131
 H1016 H 0.54180 -0.01193 0.49582
 H1017 H 0.53430 0.01207 0.46216
 H1018 H 0.53419 -0.01954 0.46486
 H1019 H 0.48095 0.01605 0.56393
 H1020 H 0.45731 -0.00423 0.54845
 H1021 H 0.52794 0.04782 0.47167
 H1022 H 0.46710 0.02929 0.46189
 H1023 H 0.51952 -0.03084 0.55783
 H1024 H 0.49435 -0.04707 0.54575
 H1025 H 0.45315 0.03299 0.50629
 H1026 H 0.47346 0.05140 0.52276
 H1027 H 0.52890 -0.05265 0.50160
 H1028 H 0.55423 -0.03230 0.51663
 O1029 O 0.55331 0.51992 -0.00534
 O1030 O 0.54399 0.51927 -0.03601
 O1031 O 0.50595 0.54202 0.02377
 O1032 O 0.47439 0.53568 0.02561
 O1033 O 0.53336 0.49268 0.04408
 O1034 O 0.53271 0.46039 0.03565
 O1035 O 0.45414 0.49020 -0.02293
 O1036 O 0.45600 0.52287 -0.01546
 O1037 O 0.49653 0.47062 -0.04886
 O1038 O 0.53302 0.47767 -0.04885
 O1039 O 0.48192 0.44500 -0.00594
 O1040 O 0.48825 0.44828 0.02882
 O1041 O 0.45678 0.46735 -0.00097
 O1042 O 0.46606 0.46713 0.03192
 O1043 O 0.50496 0.44615 -0.02790
 O1044 O 0.53792 0.45555 -0.03055
 O1045 O 0.47557 0.49503 -0.04741
 O1046 O 0.47993 0.52844 -0.03929
 O1047 O 0.55687 0.49580 0.01522
 O1048 O 0.55152 0.46254 0.01329
 O1049 O 0.50984 0.51457 0.04714
 O1050 O 0.47562 0.51046 0.04382
 O1051 O 0.52616 0.54446 -0.00063
 O1052 O 0.51867 0.53930 -0.03327
 Zr1053 Zr 0.52500 0.51823 -0.01338
 O1054 O 0.50767 0.50210 -0.03009
 Zr1055 Zr 0.49538 0.51459 0.02218
 O1056 O 0.47654 0.49840 0.00698
 Zr1057 Zr 0.53014 0.48316 0.01700
 O1058 O 0.51301 0.46550 0.00157
 Zr1059 Zr 0.47953 0.50511 -0.02098
 O1060 O 0.49655 0.52302 -0.00555
 Zr1061 Zr 0.51443 0.47368 -0.02620
 O1062 O 0.53330 0.48981 -0.01104
 Zr1063 Zr 0.48449 0.46994 0.00904
 O1064 O 0.50191 0.48594 0.02615
 O1065 O 0.52349 0.51142 0.01438
 O1066 O 0.48639 0.47688 -0.01845
 C1067 C 0.56316 0.50991 0.00594
 C1068 C 0.51794 0.55106 0.01374
 C1069 C 0.52421 0.50527 0.05317
 C1070 C 0.44807 0.47559 -0.01430
 C1071 C 0.48215 0.48005 -0.05472
 C1072 C 0.49086 0.43830 -0.01992
 H1073 H 0.50905 0.50610 -0.04306
 H1074 H 0.51708 0.45231 0.00342
 H1075 H 0.53200 0.51914 0.02171
 H1076 H 0.46334 0.50051 0.01115
 H1077 H 0.46119 0.53498 -0.01159
 H1078 H 0.46290 0.53144 0.01940
 H1079 H 0.53892 0.44726 -0.01962
 H1080 H 0.55680 0.46454 0.00081
 H1081 H 0.46822 0.52820 -0.04661
 H1082 H 0.52842 0.54913 -0.03275
 H1083 H 0.49745 0.43909 0.02378
 H1084 H 0.52040 0.45947 0.04215
 H1085 H 0.54968 0.50660 -0.03715
 H1086 H 0.52608 0.48464 -0.05853
 H1087 H 0.47859 0.49808 0.04942
 H1088 H 0.45735 0.47809 0.03188
 O1089 O 0.77035 0.30322 0.49757
 O1090 O 0.77006 0.29918 0.52920
 O1091 O 0.79578 0.25207 0.47789
 O1092 O 0.78950 0.22140 0.47873
 O1093 O 0.74458 0.27508 0.45323
 O1094 O 0.71221 0.27420 0.46179
 O1095 O 0.74766 0.20654 0.53133
 O1096 O 0.77929 0.21176 0.52610
 O1097 O 0.72419 0.25616 0.55278
 O1098 O 0.72515 0.28911 0.54404
 O1099 O 0.69747 0.23046 0.51012
 O1100 O 0.70156 0.22846 0.47764
 O1101 O 0.72377 0.20509 0.51081
 O1102 O 0.72356 0.21034 0.47609
 O1103 O 0.69793 0.25507 0.52952
 O1104 O 0.70534 0.28908 0.52449
 O1105 O 0.74600 0.23246 0.55301
 O1106 O 0.78040 0.23861 0.54535
 O1107 O 0.74601 0.30247 0.47739
 O1108 O 0.71250 0.29551 0.48126
 O1109 O 0.76797 0.25289 0.45344
 O1110 O 0.76454 0.21895 0.46334
 O1111 O 0.79633 0.27702 0.49691
 O1112 O 0.79100 0.27459 0.53077
 Zr1113 Zr 0.76984 0.27682 0.51045
 O1114 O 0.75388 0.26208 0.53026
 Zr1115 Zr 0.76802 0.24217 0.48062
 O1116 O 0.75282 0.22553 0.49959
 Zr1117 Zr 0.73474 0.27541 0.48050
 O1118 O 0.71765 0.25990 0.49874
 Zr1119 Zr 0.75846 0.23332 0.52662
 O1120 O 0.77593 0.24804 0.50772
 Zr1121 Zr 0.72491 0.26640 0.52570
 O1122 O 0.74084 0.28322 0.50742
 Zr1123 Zr 0.72382 0.23109 0.49651
 O1124 O 0.73893 0.24653 0.47620
 O1125 O 0.76355 0.27071 0.48347
 O1126 O 0.72948 0.23763 0.52352
 C1127 C 0.75985 0.31067 0.48512
 C1128 C 0.80398 0.26615 0.48494
 C1129 C 0.75782 0.26557 0.44536
 C1130 C 0.73396 0.19806 0.52380
 C1131 C 0.73300 0.24251 0.56068
 C1132 C 0.68986 0.24101 0.52235
 H1133 H 0.75755 0.26586 0.54270
 H1134 H 0.70422 0.26280 0.49620
 H1135 H 0.77119 0.27818 0.47469
 H1136 H 0.75610 0.21220 0.49766
 H1137 H 0.79094 0.21741 0.52097
 H1138 H 0.78870 0.21383 0.49014
 H1139 H 0.69595 0.28630 0.51500
 H1140 H 0.71449 0.30318 0.49225
 H1141 H 0.77994 0.22878 0.55507
 H1142 H 0.80072 0.28419 0.52818
 H1143 H 0.69534 0.24089 0.47641
 H1144 H 0.71226 0.26127 0.45707
 H1145 H 0.75705 0.30446 0.52962
 H1146 H 0.73723 0.28850 0.55073
 H1147 H 0.75313 0.22157 0.45595
 H1148 H 0.73410 0.20144 0.47856
 O1149 O 0.69401 0.71989 -0.00181
 O1150 O 0.69900 0.72001 -0.03274
 O1151 O 0.74705 0.69865 0.01982
 O1152 O 0.77717 0.70686 0.02018
 O1153 O 0.72076 0.74925 0.04377
 O1154 O 0.71499 0.77848 0.03571
 O1155 O 0.79034 0.74899 -0.03341
 O1156 O 0.78736 0.71742 -0.02786
 O1157 O 0.73886 0.76859 -0.05546
 O1158 O 0.70650 0.76788 -0.04704
 O1159 O 0.76393 0.79703 -0.01128
 O1160 O 0.76381 0.79323 0.02003
 O1161 O 0.78904 0.77388 -0.01423
 O1162 O 0.78542 0.77036 0.02154
 O1163 O 0.74161 0.79455 -0.03324
 O1164 O 0.70584 0.78695 -0.02621
 O1165 O 0.76424 0.74867 -0.05534
 O1166 O 0.76058 0.71425 -0.04741
 O1167 O 0.69307 0.74304 0.01936
 O1168 O 0.69795 0.77819 0.01247
 O1169 O 0.74353 0.72643 0.04403
 O1170 O 0.77794 0.73194 0.03457
 O1171 O 0.72238 0.69610 0.00034
 O1172 O 0.72554 0.70185 -0.03393
 Zr1173 Zr 0.72099 0.72234 -0.01352
 O1174 O 0.73499 0.73949 -0.03288
 Zr1175 Zr 0.75498 0.72671 0.01712
 O1176 O 0.77129 0.74247 -0.00165
 Zr1177 Zr 0.71911 0.75726 0.01614
 O1178 O 0.73464 0.77540 -0.00124
 Zr1179 Zr 0.76415 0.73644 -0.02879
 O1180 O 0.75024 0.71824 -0.01006
 Zr1181 Zr 0.72910 0.76806 -0.02833
 O1182 O 0.71253 0.75069 -0.01093
 Zr1183 Zr 0.76391 0.77074 0.00152
 O1184 O 0.74840 0.75515 0.02134
 O1185 O 0.72598 0.72907 0.01359
 O1186 O 0.75808 0.76476 -0.02554
 C1187 C 0.68576 0.72911 0.01103
 C1188 C 0.73370 0.68941 0.01258
 C1189 C 0.73062 0.73648 0.05188
 C1190 C 0.79696 0.76417 -0.02702
 C1191 C 0.75317 0.76068 -0.06321
 C1192 C 0.75503 0.80329 -0.02532
 H1193 H 0.73149 0.73573 -0.04538
 H1194 H 0.73124 0.78860 0.00128
 H1195 H 0.71894 0.72105 0.02239
 H1196 H 0.78491 0.74004 0.00040
 H1197 H 0.78247 0.70554 -0.02266
 H1198 H 0.78422 0.70690 0.00841
 H1199 H 0.71013 0.79825 -0.01985
 H1200 H 0.68908 0.77351 0.00325
 H1201 H 0.77056 0.71533 -0.05700
 H1202 H 0.71715 0.69112 -0.03125
 H1203 H 0.75732 0.78872 0.03131
 H1204 H 0.72565 0.78715 0.03405
 H1205 H 0.69298 0.73257 -0.03384
 H1206 H 0.70630 0.75524 -0.05238
 H1207 H 0.77417 0.74266 0.04231
 H1208 H 0.79659 0.76362 0.01651
 O1209 O 1.05982 0.23538 0.24885
 O1210 O 1.05704 0.23859 0.28056
 O1211 O 1.01288 0.20305 0.23365
 O1212 O 0.98147 0.20453 0.23588
 O1213 O 1.02562 0.25443 0.20364
 O1214 O 1.02164 0.28626 0.20929
 O1215 O 0.96066 0.24818 0.28397
 O1216 O 0.97146 0.21761 0.28240
 O1217 O 1.00646 0.28041 0.30102
 O1218 O 1.03788 0.28403 0.29255
 O1219 O 0.97463 0.29803 0.25678
 O1220 O 0.97331 0.29119 0.22493
 O1221 O 0.95451 0.26877 0.26061
 O1222 O 0.95941 0.26685 0.22589
 O1223 O 1.00014 0.30368 0.27442
 O1224 O 1.03637 0.29954 0.26887
 O1225 O 0.98609 0.25624 0.30431
 O1226 O 0.99866 0.22293 0.30090
 O1227 O 1.05470 0.25706 0.22616
 O1228 O 1.04307 0.28982 0.22837
 O1229 O 1.00714 0.22878 0.20685
 O1230 O 0.97361 0.22691 0.21850
 O1231 O 1.03798 0.20691 0.25236
 O1232 O 1.03550 0.21543 0.28578
 Zr1233 Zr 1.03392 0.23420 0.26304
 O1234 O 1.01713 0.24996 0.28153
 Zr1235 Zr 0.99821 0.22877 0.23458
 O1236 O 0.97961 0.24291 0.25247
 Zr1237 Zr 1.02614 0.26567 0.22991
 O1238 O 1.00792 0.28194 0.24647
 Zr1239 Zr 0.98911 0.24119 0.27966
 O1240 O 1.00610 0.22428 0.26213
 Zr1241 Zr 1.01618 0.27842 0.27381
 O1242 O 1.03545 0.26318 0.25706
 Zr1243 Zr 0.98021 0.27155 0.24586
 O1244 O 0.99787 0.25726 0.22692
 O1245 O 1.02603 0.23716 0.23580
 O1246 O 0.98828 0.26966 0.27311
 C1247 C 1.06518 0.24499 0.23474
 C1248 C 1.02822 0.19721 0.24119
 C1249 C 1.01744 0.24005 0.19727
 C1250 C 0.94964 0.25925 0.27497
 C1251 C 0.99412 0.27103 0.31016
 C1252 C 0.98418 0.30845 0.26731
 H1253 H 1.02185 0.24824 0.29416
 H1254 H 1.00847 0.29516 0.24236
 H1255 H 1.03418 0.22990 0.22730
 H1256 H 0.96686 0.23756 0.25136
 H1257 H 0.97918 0.20659 0.27869
 H1258 H 0.97478 0.20484 0.24784
 H1259 H 1.03111 0.30833 0.25959
 H1260 H 1.05214 0.28888 0.23858
 H1261 H 0.98889 0.22298 0.31076
 H1262 H 1.04638 0.20674 0.28382
 H1263 H 0.98428 0.29948 0.22318
 H1264 H 1.00821 0.28535 0.20580
 H1265 H 1.06065 0.25185 0.27892
 H1266 H 1.04265 0.27180 0.29719
 H1267 H 0.97373 0.23765 0.20978
 H1268 H 0.95201 0.25587 0.22994
 O1269 O 0.71880 1.02400 0.73361
 O1270 O 0.72135 1.01961 0.76543
 O1271 O 0.77009 1.04899 0.71639
 O1272 O 0.80120 1.04273 0.71845
 O1273 O 0.74860 1.00194 0.68837
 O1274 O 0.74984 0.96845 0.69432
 O1275 O 0.81453 0.99416 0.76723
 O1276 O 0.81144 1.02680 0.76219
 O1277 O 0.76654 0.97218 0.78592
 O1278 O 0.73221 0.97542 0.77762
 O1279 O 0.79179 0.94843 0.74061
 O1280 O 0.79409 0.95651 0.70789
 O1281 O 0.81679 0.97266 0.74452
 O1282 O 0.81398 0.97640 0.71001
 O1283 O 0.76732 0.94837 0.76108
 O1284 O 0.73318 0.95630 0.75733
 O1285 O 0.78801 0.99541 0.78814
 O1286 O 0.78331 1.02929 0.78139
 O1287 O 0.72003 1.00105 0.71221
 O1288 O 0.72699 0.96810 0.71293
 O1289 O 0.77178 1.02360 0.69007
 O1290 O 0.80480 1.01915 0.69974
 O1291 O 0.74550 1.04867 0.73680
 O1292 O 0.74558 1.03980 0.76957
 Zr1293 Zr 0.74482 1.02114 0.74721
 O1294 O 0.75961 1.00364 0.76570
 Zr1295 Zr 0.78090 1.02133 0.71737
 O1296 O 0.79733 1.00403 0.73480
 Zr1297 Zr 0.74745 0.98926 0.71457
 O1298 O 0.76251 0.97039 0.73160
 Zr1299 Zr 0.78869 1.00787 0.76207
 O1300 O 0.77393 1.02693 0.74490
 Zr1301 Zr 0.75557 0.97549 0.75921
 O1302 O 0.73885 0.99292 0.74197
 Zr1303 Zr 0.79160 0.97583 0.72953
 O1304 O 0.77666 0.99313 0.71062
 O1305 O 0.75198 1.01728 0.71983
 O1306 O 0.78445 0.97965 0.75692
 C1307 C 0.71161 1.01467 0.72049
 C1308 C 0.75624 1.05693 0.72502
 C1309 C 0.75888 1.01501 0.68141
 C1310 C 0.82286 0.98045 0.75908
 C1311 C 0.77902 0.98133 0.79469
 C1312 C 0.78139 0.94044 0.75290
 H1313 H 0.75554 1.00647 0.77838
 H1314 H 0.75961 0.95744 0.72808
 H1315 H 0.74473 1.02582 0.71166
 H1316 H 0.81091 1.00678 0.73325
 H1317 H 0.80627 1.03906 0.75798
 H1318 H 0.81099 1.03850 0.72719
 H1319 H 0.73572 0.94840 0.74653
 H1320 H 0.71990 0.96820 0.72471
 H1321 H 0.79332 1.02851 0.79078
 H1322 H 0.73568 1.04963 0.76786
 H1323 H 0.78214 0.94953 0.70749
 H1324 H 0.76269 0.96949 0.68892
 H1325 H 0.71625 1.00684 0.76449
 H1326 H 0.73364 0.98596 0.78610
 H1327 H 0.80335 1.00756 0.69264
 H1328 H 0.82286 0.98624 0.71357
 O1329 O 0.73910 0.54021 0.22456
 O1330 O 0.77218 0.53338 0.22518
 O1331 O 0.71551 0.48996 0.20367
 O1332 O 0.71753 0.45875 0.21121
 O1333 O 0.69152 0.51592 0.25038
 O1334 O 0.70026 0.51457 0.28325
 O1335 O 0.76678 0.44229 0.25496
 O1336 O 0.76073 0.44537 0.22312
 O1337 O 0.79344 0.49095 0.27022
 O1338 O 0.78550 0.52564 0.26589
 O1339 O 0.74898 0.47031 0.29999
 O1340 O 0.71217 0.47461 0.29607
 O1341 O 0.74449 0.44404 0.27767
 O1342 O 0.71213 0.45099 0.28051
 O1343 O 0.76983 0.49408 0.29687
 O1344 O 0.76821 0.52649 0.28789
 O1345 O 0.79111 0.46578 0.25168
 O1346 O 0.78359 0.46991 0.21877
 O1347 O 0.71751 0.54108 0.24801
 O1348 O 0.72004 0.53647 0.28009
 O1349 O 0.69061 0.49154 0.23069
 O1350 O 0.69790 0.45875 0.23534
 O1351 O 0.73772 0.51263 0.20094
 O1352 O 0.77172 0.50868 0.20571
 Zr1353 Zr 0.75091 0.51280 0.22653
 O1354 O 0.77014 0.49690 0.24241
 Zr1355 Zr 0.71803 0.48007 0.23105
 O1356 O 0.73560 0.46323 0.24778
 Zr1357 Zr 0.71938 0.51474 0.26076
 O1358 O 0.73783 0.49989 0.27840
 Zr1359 Zr 0.76393 0.46823 0.24092
 O1360 O 0.74631 0.48388 0.22290
 Zr1361 Zr 0.76613 0.50360 0.26997
 O1362 O 0.74780 0.52066 0.25408
 Zr1363 Zr 0.73317 0.47120 0.27541
 O1364 O 0.71334 0.48615 0.25897
 O1365 O 0.72270 0.50851 0.23324
 O1366 O 0.76143 0.47498 0.26849
 C1367 C 0.72616 0.54849 0.23423
 C1368 C 0.72434 0.50280 0.19452
 C1369 C 0.68303 0.50569 0.23871
 C1370 C 0.75774 0.43545 0.26889
 C1371 C 0.80022 0.47607 0.26265
 C1372 C 0.76246 0.48049 0.30590
 H1373 H 0.78319 0.49932 0.23810
 H1374 H 0.73565 0.50390 0.29116
 H1375 H 0.71424 0.51616 0.22535
 H1376 H 0.73244 0.44992 0.24618
 H1377 H 0.75641 0.45071 0.21127
 H1378 H 0.72451 0.44778 0.21624
 H1379 H 0.75651 0.52692 0.29543
 H1380 H 0.73266 0.54218 0.27885
 H1381 H 0.79209 0.45876 0.21949
 H1382 H 0.77018 0.51858 0.19614
 H1383 H 0.71719 0.48297 0.30548
 H1384 H 0.69295 0.50290 0.28246
 H1385 H 0.77140 0.54046 0.23673
 H1386 H 0.79402 0.52223 0.25559
 H1387 H 0.69173 0.46113 0.24735
 H1388 H 0.70989 0.44470 0.26876
 O1389 O 0.55269 0.23907 0.74308
 O1390 O 0.54653 0.24088 0.77483
 O1391 O 0.50361 0.21387 0.72160
 O1392 O 0.47258 0.21971 0.72016
 O1393 O 0.52663 0.26438 0.69609
 O1394 O 0.52471 0.29657 0.70356
 O1395 O 0.45212 0.26275 0.76874
 O1396 O 0.45909 0.23075 0.76591
 O1397 O 0.50085 0.28535 0.79376
 O1398 O 0.53406 0.28624 0.78623
 O1399 O 0.47483 0.31111 0.74793
 O1400 O 0.47792 0.30716 0.71485
 O1401 O 0.45163 0.28532 0.74636
 O1402 O 0.46035 0.28506 0.71237
 O1403 O 0.49595 0.30969 0.77119
 O1404 O 0.53280 0.30609 0.76513
 O1405 O 0.47582 0.26586 0.79209
 O1406 O 0.48406 0.23128 0.78789
 O1407 O 0.55279 0.26293 0.72197
 O1408 O 0.54491 0.29621 0.72458
 O1409 O 0.50490 0.24119 0.69610
 O1410 O 0.47016 0.24374 0.70347
 O1411 O 0.52723 0.21364 0.74250
 O1412 O 0.52226 0.21987 0.77583
 Zr1413 Zr 0.52531 0.24027 0.75462
 O1414 O 0.50837 0.25644 0.77254
 Zr1415 Zr 0.49250 0.24127 0.72243
 O1416 O 0.47386 0.25675 0.73914
 Zr1417 Zr 0.52510 0.27442 0.72306
 O1418 O 0.50752 0.29184 0.73929
 Zr1419 Zr 0.47978 0.25180 0.76699
 O1420 O 0.49668 0.23407 0.75022
 Zr1421 Zr 0.51202 0.28506 0.76698
 O1422 O 0.53099 0.26897 0.75082
 Zr1423 Zr 0.47904 0.28537 0.73480
 O1424 O 0.49656 0.26989 0.71668
 O1425 O 0.52087 0.24593 0.72700
 O1426 O 0.48363 0.28015 0.76244
 C1427 C 0.56077 0.24909 0.73054
 C1428 C 0.51742 0.20586 0.73006
 C1429 C 0.51772 0.25119 0.68828
 C1430 C 0.44383 0.27583 0.75945
 C1431 C 0.48561 0.27819 0.80031
 C1432 C 0.48180 0.31719 0.76283
 H1433 H 0.51140 0.25317 0.78540
 H1434 H 0.51010 0.30517 0.73667
 H1435 H 0.52909 0.23817 0.71900
 H1436 H 0.46074 0.25333 0.73626
 H1437 H 0.46581 0.21906 0.76236
 H1438 H 0.46432 0.22049 0.73114
 H1439 H 0.52698 0.31741 0.75945
 H1440 H 0.55123 0.29470 0.73655
 H1441 H 0.47323 0.23222 0.79659
 H1442 H 0.53252 0.21036 0.77450
 H1443 H 0.48929 0.31488 0.71621
 H1444 H 0.51179 0.29699 0.69849
 H1445 H 0.55225 0.25344 0.77405
 H1446 H 0.53467 0.27390 0.79254
 H1447 H 0.47277 0.25485 0.69564
 H1448 H 0.45137 0.27476 0.71457
 O1449 O 0.26990 0.81652 0.50867
 O1450 O 0.26767 0.81238 0.54068
 O1451 O 0.29829 0.76828 0.48905
 O1452 O 0.29497 0.73699 0.49135
 O1453 O 0.24677 0.78705 0.46378
 O1454 O 0.21417 0.78466 0.47179
 O1455 O 0.25122 0.71792 0.54076
 O1456 O 0.28286 0.72496 0.53628
 O1457 O 0.22492 0.76584 0.56267
 O1458 O 0.22395 0.79900 0.55446
 O1459 O 0.20064 0.73981 0.51825
 O1460 O 0.20704 0.73939 0.48492
 O1461 O 0.22743 0.71630 0.52013
 O1462 O 0.22852 0.72068 0.48592
 O1463 O 0.19927 0.76349 0.53872
 O1464 O 0.20458 0.79808 0.53449
 O1465 O 0.24815 0.74348 0.56298
 O1466 O 0.28205 0.75141 0.55626
 O1467 O 0.24602 0.81460 0.48808
 O1468 O 0.21322 0.80617 0.49101
 O1469 O 0.27113 0.76591 0.46442
 O1470 O 0.27075 0.73256 0.47391
 O1471 O 0.29738 0.79152 0.51008
 O1472 O 0.29025 0.78935 0.54323
 Zr1473 Zr 0.27011 0.79011 0.52189
 O1474 O 0.25456 0.77387 0.54091
 Zr1475 Zr 0.27158 0.75575 0.49162
 O1476 O 0.25653 0.73789 0.50959
 Zr1477 Zr 0.23626 0.78698 0.49084
 O1478 O 0.21947 0.77038 0.50840
 Zr1479 Zr 0.26091 0.74542 0.53688
 O1480 O 0.27806 0.76172 0.51901
 Zr1481 Zr 0.22554 0.77665 0.53573
 O1482 O 0.24091 0.79472 0.51808
 Zr1483 Zr 0.22740 0.74207 0.50572
 O1484 O 0.24248 0.75851 0.48627
 O1485 O 0.26519 0.78394 0.49462
 O1486 O 0.23187 0.74827 0.53303
 C1487 C 0.25930 0.82346 0.49597
 C1488 C 0.30579 0.78194 0.49753
 C1489 C 0.26042 0.77791 0.45613
 C1490 C 0.23759 0.70935 0.53312
 C1491 C 0.23446 0.75264 0.57056
 C1492 C 0.19219 0.74932 0.53078
 H1493 H 0.25765 0.77758 0.55352
 H1494 H 0.20600 0.77262 0.50552
 H1495 H 0.27263 0.79183 0.48603
 H1496 H 0.26049 0.72475 0.50757
 H1497 H 0.29432 0.73137 0.53167
 H1498 H 0.29246 0.72729 0.50082
 H1499 H 0.19574 0.79498 0.52462
 H1500 H 0.21402 0.81323 0.50254
 H1501 H 0.28211 0.74119 0.56560
 H1502 H 0.29921 0.79977 0.54128
 H1503 H 0.19834 0.75033 0.48564
 H1504 H 0.21518 0.77187 0.46679
 H1505 H 0.25454 0.81730 0.53992
 H1506 H 0.23608 0.79927 0.56105
 H1507 H 0.25857 0.73343 0.46740
 H1508 H 0.23990 0.71284 0.48827
 O1509 O 0.23729 0.19632 1.01955
 O1510 O 0.26957 0.20195 1.01743
 O1511 O 0.21354 0.24751 1.04028
 O1512 O 0.21311 0.27964 1.02988
 O1513 O 0.18852 0.22089 0.99353
 O1514 O 0.19629 0.21991 0.96204
 O1515 O 0.26461 0.29226 0.98684
 O1516 O 0.25908 0.29002 1.01822
 O1517 O 0.28876 0.24340 0.96832
 O1518 O 0.28271 0.20984 0.97330
 O1519 O 0.24229 0.26457 0.94208
 O1520 O 0.20757 0.26461 0.94816
 O1521 O 0.24268 0.29123 0.96431
 O1522 O 0.20756 0.28600 0.96611
 O1523 O 0.26424 0.24109 0.94421
 O1524 O 0.26193 0.20746 0.95462
 O1525 O 0.28777 0.26804 0.98775
 O1526 O 0.28137 0.26389 1.02188
 O1527 O 0.21587 0.19468 0.99653
 O1528 O 0.21773 0.19971 0.96346
 O1529 O 0.18778 0.24421 1.01449
 O1530 O 0.19430 0.27757 1.00869
 O1531 O 0.23552 0.22401 1.04222
 O1532 O 0.26989 0.22778 1.03561
 Zr1533 Zr 0.24845 0.22322 1.01614
 O1534 O 0.26718 0.23792 0.99877
 Zr1535 Zr 0.21494 0.25621 1.01253
 O1536 O 0.23258 0.27270 0.99549
 Zr1537 Zr 0.21636 0.22109 0.98320
 O1538 O 0.23348 0.23618 0.96462
 Zr1539 Zr 0.26114 0.26664 1.00075
 O1540 O 0.24354 0.25213 1.01971
 Zr1541 Zr 0.26194 0.23141 0.97137
 O1542 O 0.24485 0.21487 0.98882
 Zr1543 Zr 0.22906 0.26516 0.96807
 O1544 O 0.20990 0.24991 0.98493
 O1545 O 0.21999 0.22765 1.01052
 O1546 O 0.25741 0.26015 0.97337
 C1547 C 0.22487 0.18764 1.01031
 C1548 C 0.22249 0.23454 1.04915
 C1549 C 0.18011 0.23069 1.00589
 C1550 C 0.25642 0.29911 0.97258
 C1551 C 0.29586 0.25807 0.97531
 C1552 C 0.25567 0.25428 0.93541
 H1553 H 0.28041 0.23511 1.00221
 H1554 H 0.23069 0.23224 0.95202
 H1555 H 0.21176 0.22022 1.01882
 H1556 H 0.22979 0.28613 0.99750
 H1557 H 0.25563 0.28513 1.03055
 H1558 H 0.22504 0.27985 1.03678
 H1559 H 0.25173 0.20917 0.94556
 H1560 H 0.22979 0.19281 0.96541
 H1561 H 0.29037 0.27431 1.02033
 H1562 H 0.26842 0.21860 1.04584
 H1563 H 0.20915 0.25283 0.94130
 H1564 H 0.19081 0.23269 0.96076
 H1565 H 0.26995 0.19593 1.00530
 H1566 H 0.29049 0.21223 0.98417
 H1567 H 0.18822 0.27516 0.99682
 H1568 H 0.20921 0.29480 0.97628
 C1569 C 0.28759 0.38393 0.76477
 C1570 C 0.26821 0.38837 0.76514
 N1571 N 0.25564 0.37524 0.77065
 C1572 C 0.26160 0.35802 0.77645
 C1573 C 0.28111 0.35387 0.77725
 N1574 N 0.29358 0.36691 0.77097
 N1575 N 0.30016 0.39709 0.75922
 C1576 C 0.29423 0.41464 0.75437
 C1577 C 0.27488 0.41935 0.75554
 N1578 N 0.26234 0.40598 0.76074
 H1579 H 0.25119 0.34788 0.78074
 H1580 H 0.30458 0.42500 0.75043
 C1581 C 0.29105 -0.10993 0.28365
 C1582 C 0.27440 -0.10251 0.29138
 N1583 N 0.26510 -0.11237 0.30453
 C1584 C 0.27188 -0.12915 0.31071
 C1585 C 0.28916 -0.13656 0.30362
 N1586 N 0.29799 -0.12665 0.28991
 N1587 N 0.30029 -0.10004 0.27038
 C1588 C 0.29371 -0.08295 0.26466
 C1589 C 0.27719 -0.07526 0.27270
 N1590 N 0.26791 -0.08540 0.28584
 H1591 H 0.26340 -0.13649 0.32077
 H1592 H 0.30155 -0.07530 0.25424
 C1593 C 0.79424 0.88472 0.76939
 C1594 C 0.77961 0.89487 0.77786
 N1595 N 0.76958 0.88683 0.79172
 C1596 C 0.77359 0.86911 0.79771
 C1597 C 0.78853 0.85869 0.78944
 N1598 N 0.79826 0.86704 0.77531
 N1599 N 0.80436 0.89275 0.75553
 C1600 C 0.80051 0.91060 0.74979
 C1601 C 0.78583 0.92090 0.75829
 N1602 N 0.77572 0.91266 0.77214
 H1603 H 0.76481 0.86346 0.80855
 H1604 H 0.80888 0.91666 0.73876
 C1605 C 0.48097 0.86220 0.29551
 C1606 C 0.46922 0.85320 0.28318
 N1607 N 0.45223 0.86097 0.27891
 C1608 C 0.44638 0.87740 0.28640
 C1609 C 0.45813 0.88667 0.29877
 N1610 N 0.47519 0.87865 0.30296
 N1611 N 0.49768 0.85404 0.30028
 C1612 C 0.50307 0.83714 0.29343
 C1613 C 0.49120 0.82799 0.28117
 N1614 N 0.47459 0.83639 0.27629
 H1615 H 0.43244 0.88264 0.28304
 H1616 H 0.51633 0.83081 0.29769
 C1617 C -0.04830 0.84444 0.79285
 C1618 C -0.03783 0.83114 0.80286
 N1619 N -0.03797 0.83161 0.82136
 C1620 C -0.04763 0.84518 0.83045
 C1621 C -0.05749 0.85937 0.82054
 N1622 N -0.05781 0.85821 0.80187
 N1623 N -0.04862 0.84346 0.77426
 C1624 C -0.03895 0.82965 0.76530
 C1625 C -0.02831 0.81641 0.77542
 N1626 N -0.02811 0.81755 0.79397
 H1627 H -0.04771 0.84442 0.84522
 H1628 H -0.03974 0.82889 0.75053
 C1629 C -0.03974 -0.10396 -0.03820
 C1630 C -0.05194 -0.08888 -0.03401
 N1631 N -0.06929 -0.08788 -0.04171
 C1632 C -0.07516 -0.10145 -0.05311
 C1633 C -0.06319 -0.11687 -0.05701
 N1634 N -0.04563 -0.11764 -0.04951
 N1635 N -0.02227 -0.10477 -0.03072
 C1636 C -0.01635 -0.09109 -0.01942
 C1637 C -0.02851 -0.07593 -0.01521
 N1638 N -0.04607 -0.07524 -0.02267
 H1639 H -0.08919 -0.10042 -0.05884
 H1640 H -0.00214 -0.09179 -0.01410
 C1641 C -0.02179 0.39988 0.44843
 C1642 C -0.03149 0.41041 0.46168
 N1643 N -0.04794 0.40411 0.46882
 C1644 C -0.05516 0.38758 0.46359
 C1645 C -0.04542 0.37640 0.45048
 N1646 N -0.02896 0.38322 0.44310
 N1647 N -0.00544 0.40660 0.44107
 C1648 C 0.00152 0.42339 0.44635
 C1649 C -0.00830 0.43397 0.45966
 N1650 N -0.02460 0.42707 0.46692
 H1651 H -0.06877 0.38396 0.46927
 H1652 H 0.01446 0.42847 0.44012
 C1653 C 0.46259 -0.11055 0.48942
 C1654 C 0.48123 -0.10538 0.48544
 N1655 N 0.49259 -0.11693 0.47559
 C1656 C 0.48600 -0.13311 0.46877
 C1657 C 0.46675 -0.13787 0.47137
 N1658 N 0.45577 -0.12655 0.48225
 N1659 N 0.45134 -0.09896 0.49954
 C1660 C 0.45782 -0.08224 0.50546
 C1661 C 0.47624 -0.07665 0.50064
 N1662 N 0.48752 -0.08855 0.49090
 H1663 H 0.49597 -0.14195 0.46156
 H1664 H 0.44841 -0.07304 0.51307
 C1665 C 0.46679 0.39329 -0.04782
 C1666 C 0.45634 0.40371 -0.03497
 N1667 N 0.43770 0.40047 -0.03255
 C1668 C 0.42903 0.38689 -0.04197
 C1669 C 0.43950 0.37566 -0.05447
 N1670 N 0.45817 0.37959 -0.05729
 N1671 N 0.48537 0.39710 -0.05061
 C1672 C 0.49387 0.41095 -0.04122
 C1673 C 0.48334 0.42141 -0.02833
 N1674 N 0.46479 0.41743 -0.02560
 H1675 H 0.41397 0.38550 -0.03997
 H1676 H 0.50857 0.41399 -0.04403
 C1677 C 0.77680 0.36338 0.46465
 C1678 C 0.78784 0.35330 0.47730
 N1679 N 0.80499 0.35977 0.48198
 C1680 C 0.81178 0.37584 0.47447
 C1681 C 0.80090 0.38603 0.46153
 N1682 N 0.78357 0.37942 0.45709
 N1683 N 0.75991 0.35652 0.45949
 C1684 C 0.75367 0.33984 0.46625
 C1685 C 0.76491 0.32954 0.47869
 N1686 N 0.78167 0.33669 0.48399
 H1687 H 0.82585 0.37996 0.47809
 H1688 H 0.74028 0.33456 0.46171
 C1689 C 0.77784 0.85227 -0.04959
 C1690 C 0.78547 0.84443 -0.03363
 N1691 N 0.80123 0.85187 -0.02646
 C1692 C 0.80983 0.86685 -0.03451
 C1693 C 0.80240 0.87490 -0.05081
 N1694 N 0.78644 0.86714 -0.05772
 N1695 N 0.76221 0.84463 -0.05696
 C1696 C 0.75398 0.82931 -0.04913
 C1697 C 0.76180 0.82118 -0.03321
 N1698 N 0.77737 0.82910 -0.02587
 H1699 H 0.82247 0.87183 -0.02823
 H1700 H 0.74178 0.82331 -0.05550
 C1701 C 0.77307 0.28229 0.39137
 C1702 C 0.78535 0.27124 0.40210
 N1703 N 0.80284 0.26689 0.39557
 C1704 C 0.80865 0.27294 0.37873
 C1705 C 0.79634 0.28387 0.36769
 N1706 N 0.77882 0.28834 0.37447
 N1707 N 0.75574 0.28705 0.39815
 C1708 C 0.75019 0.28140 0.41526
 C1709 C 0.76253 0.27042 0.42613
 N1710 N 0.77983 0.26557 0.41915
 H1711 H 0.82290 0.26957 0.37429
 H1712 H 0.73638 0.28563 0.42038
 C1713 C 0.76657 0.77895 -0.11701
 C1714 C 0.77941 0.76793 -0.10687
 N1715 N 0.79672 0.76390 -0.11405
 C1716 C 0.80177 0.77030 -0.13099
 C1717 C 0.78889 0.78124 -0.14135
 N1718 N 0.77159 0.78536 -0.13395
 N1719 N 0.74940 0.78328 -0.10967
 C1720 C 0.74452 0.77721 -0.09256
 C1721 C 0.75742 0.76627 -0.08227
 N1722 N 0.77458 0.76186 -0.08978
 H1723 H 0.81587 0.76719 -0.13605
 H1724 H 0.73077 0.78104 -0.08700
 C1725 C 0.28112 0.44168 0.84713
 C1726 C 0.28313 0.46100 0.84429
 N1727 N 0.29390 0.47091 0.85578
 C1728 C 0.30307 0.46237 0.86990
 C1729 C 0.30168 0.44284 0.87263
 N1730 N 0.29042 0.43301 0.86121
 N1731 N 0.27028 0.43188 0.83545
 C1732 C 0.26162 0.44051 0.82094
 C1733 C 0.26403 0.45984 0.81783
 N1734 N 0.27470 0.46952 0.82976
 H1735 H 0.31120 0.47088 0.87897
 H1736 H 0.25350 0.43226 0.81161
 C1737 C 0.28214 -0.03525 0.36612
 C1738 C 0.28447 -0.01665 0.36020
 N1739 N 0.29100 -0.00386 0.37201
 C1740 C 0.29571 -0.00885 0.38940
 C1741 C 0.29421 -0.02769 0.39530
 N1742 N 0.28716 -0.04037 0.38343
 N1743 N 0.27506 -0.04791 0.35439
 C1744 C 0.27026 -0.04279 0.33699
 C1745 C 0.27297 -0.02422 0.33092
 N1746 N 0.28001 -0.01161 0.34277
 H1747 H 0.30045 0.00191 0.39846
 H1748 H 0.26468 -0.05316 0.32791
 C1749 C -0.04252 -0.04570 -0.09135
 C1750 C -0.03336 -0.05739 -0.07856
 N1751 N -0.03493 -0.07621 -0.07982
 C1752 C -0.04495 -0.08393 -0.09350
 C1753 C -0.05405 -0.07223 -0.10664
 N1754 N -0.05264 -0.05335 -0.10487
 N1755 N -0.04113 -0.02687 -0.09013
 C1756 C -0.03126 -0.01914 -0.07641
 C1757 C -0.02248 -0.03077 -0.06321
 N1758 N -0.02366 -0.04970 -0.06469
 H1759 H -0.04612 -0.09898 -0.09361
 H1760 H -0.03081 -0.00404 -0.07548
 C1761 C -0.01311 0.47419 0.37083
 C1762 C -0.02045 0.49105 0.37761
 N1763 N -0.03342 0.50086 0.36776
 C1764 C -0.03993 0.49430 0.35167
 C1765 C -0.03342 0.47672 0.34514
 N1766 N -0.01976 0.46749 0.35494
 N1767 N -0.00013 0.46431 0.38069
 C1768 C 0.00559 0.47042 0.39726
 C1769 C -0.00226 0.48704 0.40439
 N1770 N -0.01498 0.49704 0.39422
 H1771 H -0.05002 0.50296 0.34439
 H1772 H 0.01569 0.46207 0.40498
 C1773 C 0.46004 -0.03194 0.40591
 C1774 C 0.47753 -0.03871 0.41214
 N1775 N 0.48818 -0.05005 0.40124
 C1776 C 0.48206 -0.05505 0.38441
 C1777 C 0.46432 -0.04851 0.37815
 N1778 N 0.45389 -0.03702 0.38922
 N1779 N 0.44947 -0.02034 0.41659
 C1780 C 0.45563 -0.01518 0.43332
 C1781 C 0.47313 -0.02202 0.43973
 N1782 N 0.48366 -0.03369 0.42891
 H1783 H 0.49118 -0.06377 0.37604
 H1784 H 0.44686 -0.00594 0.44155
 C1785 C 0.44508 0.45559 -0.09152
 C1786 C 0.45588 0.44460 -0.07937
 N1787 N 0.45330 0.42584 -0.07836
 C1788 C 0.44073 0.41744 -0.08938
 C1789 C 0.43048 0.42829 -0.10221
 N1790 N 0.43276 0.44719 -0.10274
 N1791 N 0.44735 0.47443 -0.09216
 C1792 C 0.45992 0.48280 -0.08107
 C1793 C 0.47096 0.47176 -0.06909
 N1794 N 0.46857 0.45290 -0.06852
 H1795 H 0.43913 0.40241 -0.08845
 H1796 H 0.46111 0.49789 -0.08140
 C1797 C 0.46799 0.77705 0.36787
 C1798 C 0.48132 0.78812 0.35857
 N1799 N 0.48712 0.80420 0.36619
 C1800 C 0.48026 0.80976 0.38273
 C1801 C 0.46696 0.79864 0.39232
 N1802 N 0.46116 0.78252 0.38445
 N1803 N 0.46173 0.76124 0.35996
 C1804 C 0.46809 0.75612 0.34307
 C1805 C 0.48137 0.76728 0.33364
 N1806 N 0.48772 0.78300 0.34175
 H1807 H 0.48482 0.82302 0.38790
 H1808 H 0.46270 0.74354 0.33703
 C1809 C -0.05371 0.78427 0.84970
 C1810 C -0.03540 0.78922 0.84438
 N1811 N -0.02647 0.80280 0.85358
 C1812 C -0.03506 0.81191 0.86775
 C1813 C -0.05379 0.80738 0.87315
 N1814 N -0.06239 0.79337 0.86384
 N1815 N -0.06268 0.77068 0.84041
 C1816 C -0.05418 0.76197 0.82590
 C1817 C -0.03584 0.76712 0.82028
 N1818 N -0.02693 0.78066 0.82984
 H1819 H -0.02695 0.82232 0.87458
 H1820 H -0.06184 0.75145 0.81861
 C1821 C 0.39300 0.79298 0.28279
 C1822 C 0.39741 0.77388 0.28521
 N1823 N 0.38429 0.76230 0.29263
 C1824 C 0.36716 0.76901 0.29828
 C1825 C 0.36302 0.78836 0.29690
 N1826 N 0.37603 0.79981 0.28880
 N1827 N 0.40607 0.80451 0.27516
 C1828 C 0.42344 0.79787 0.27008
 C1829 C 0.42816 0.77885 0.27311
 N1830 N 0.41489 0.76730 0.28054
 H1831 H 0.35704 0.75933 0.30410
 H1832 H 0.43366 0.80747 0.26427
 C1833 C -0.11697 0.78260 0.76595
 C1834 C -0.11240 0.76354 0.76826
 N1835 N -0.12578 0.75155 0.77447
 C1836 C -0.14337 0.75787 0.77914
 C1837 C -0.14764 0.77720 0.77802
 N1838 N -0.13435 0.78898 0.77103
 N1839 N -0.10364 0.79460 0.75963
 C1840 C -0.08580 0.78844 0.75580
 C1841 C -0.08096 0.76948 0.75883
 N1842 N -0.09447 0.75744 0.76486
 H1843 H -0.15368 0.74794 0.78412
 H1844 H -0.07535 0.79838 0.75107
 C1845 C 0.85764 0.28151 0.46395
 C1846 C 0.84673 0.29383 0.47465
 N1847 N 0.85287 0.31140 0.47747
 C1848 C 0.86952 0.31728 0.47016
 C1849 C 0.88081 0.30495 0.45955
 N1850 N 0.87438 0.28731 0.45667
 N1851 N 0.85109 0.26410 0.46068
 C1852 C 0.83406 0.25852 0.46754
 C1853 C 0.82307 0.27092 0.47824
 N1854 N 0.82982 0.28827 0.48155
 H1855 H 0.87345 0.33164 0.47224
 H1856 H 0.82911 0.24464 0.46455
 C1857 C 0.84513 0.78599 -0.05412
 C1858 C 0.83132 0.79787 -0.04636
 N1859 N 0.83299 0.81667 -0.04821
 C1860 C 0.84810 0.82421 -0.05708
 C1861 C 0.86252 0.81243 -0.06419
 N1862 N 0.86046 0.79350 -0.06273
 N1863 N 0.84310 0.76715 -0.05266
 C1864 C 0.82788 0.75966 -0.04380
 C1865 C 0.81423 0.77155 -0.03569
 N1866 N 0.81632 0.79042 -0.03726
 H1867 H 0.84889 0.83929 -0.05839
 H1868 H 0.82649 0.74460 -0.04301
 C1869 C -0.10720 -0.04307 -0.03441
 C1870 C -0.09546 -0.03188 -0.04544
 N1871 N -0.09872 -0.03058 -0.06368
 C1872 C -0.11329 -0.03976 -0.07140
 C1873 C -0.12534 -0.05110 -0.06039
 N1874 N -0.12162 -0.05243 -0.04209
 N1875 N -0.10399 -0.04450 -0.01617
 C1876 C -0.08937 -0.03544 -0.00847
 C1877 C -0.07719 -0.02449 -0.01951
 N1878 N -0.08064 -0.02296 -0.03783
 H1879 H -0.11477 -0.03859 -0.08607
 H1880 H -0.08704 -0.03718 0.00609
 C1881 C -0.09717 0.47488 0.44261
 C1882 C -0.08730 0.46578 0.45677
 N1883 N -0.09461 0.45037 0.46490
 C1884 C -0.11159 0.44373 0.45987
 C1885 C -0.12219 0.45304 0.44598
 N1886 N -0.11431 0.46831 0.43749
 N1887 N -0.08948 0.49020 0.43433
 C1888 C -0.07241 0.49679 0.43966
 C1889 C -0.06259 0.48768 0.45400
 N1890 N -0.07039 0.47233 0.46210
 H1891 H -0.11608 0.43086 0.46635
 H1892 H -0.06663 0.50899 0.43280
 C1893 C 0.38567 -0.02381 0.49356
 C1894 C 0.39436 -0.00800 0.48600
 N1895 N 0.38532 0.00237 0.47303
 C1896 C 0.36820 -0.00272 0.46668
 C1897 C 0.35973 -0.01936 0.47335
 N1898 N 0.36872 -0.02908 0.48706
 N1899 N 0.39488 -0.03434 0.50640
 C1900 C 0.41266 -0.02997 0.51167
 C1901 C 0.42173 -0.01455 0.50346
 N1902 N 0.41214 -0.00382 0.49100
 H1903 H 0.36165 0.00627 0.45654
 H1904 H 0.41989 -0.03889 0.52153
 C1905 C 0.40081 0.44795 -0.03610
 C1906 C 0.41060 0.46148 -0.04634
 N1907 N 0.40564 0.46502 -0.06391
 C1908 C 0.39103 0.45603 -0.07169
 C1909 C 0.38041 0.44280 -0.06134
 N1910 N 0.38604 0.43899 -0.04377
 N1911 N 0.40617 0.44408 -0.01861
 C1912 C 0.42092 0.45311 -0.01096
 C1913 C 0.43071 0.46684 -0.02118
 N1914 N 0.42523 0.47058 -0.03871
 H1915 H 0.38834 0.45911 -0.08593
 H1916 H 0.42506 0.44949 0.00289
 C1917 C 0.34636 0.45089 0.79712
 C1918 C 0.33223 0.46039 0.80710
 N1919 N 0.33176 0.45883 0.82565
 C1920 C 0.34489 0.44828 0.83472
 C1921 C 0.35923 0.43881 0.82479
 N1922 N 0.35947 0.44038 0.80615
 N1923 N 0.34654 0.45205 0.77854
 C1924 C 0.33305 0.46210 0.76944
 C1925 C 0.31874 0.47150 0.77938
 N1926 N 0.31878 0.47043 0.79803
 H1927 H 0.34389 0.44709 0.84949
 H1928 H 0.33328 0.46242 0.75461
 C1929 C 0.36603 -0.03109 0.28540
 C1930 C 0.35507 -0.01990 0.29714
 N1931 N 0.36182 -0.01554 0.31383
 C1932 C 0.37900 -0.02201 0.31944
 C1933 C 0.39009 -0.03348 0.30777
 N1934 N 0.38315 -0.03757 0.29096
 N1935 N 0.35909 -0.03594 0.26890
 C1936 C 0.34152 -0.03022 0.26369
 C1937 C 0.33036 -0.01917 0.27554
 N1938 N 0.33754 -0.01418 0.29198
 H1939 H 0.38338 -0.01868 0.33310
 H1940 H 0.33630 -0.03444 0.25051
 C1941 C 0.13916 0.52396 0.70313
 C1942 C 0.14732 0.53518 0.71644
 N1943 N 0.13925 0.55195 0.72049
 C1944 C 0.12331 0.55805 0.71192
 C1945 C 0.11480 0.54678 0.69864
 N1946 N 0.12315 0.52997 0.69461
 N1947 N 0.14766 0.50748 0.69860
 C1948 C 0.16407 0.50181 0.70664
 C1949 C 0.17237 0.51309 0.71993
 N1950 N 0.16365 0.52950 0.72455
 H1951 H 0.11785 0.57180 0.71519
 H1952 H 0.17067 0.48873 0.70256
 C1953 C 0.14065 0.03780 0.22988
 C1954 C 0.15203 0.02701 0.21807
 N1955 N 0.14619 0.02377 0.20082
 C1956 C 0.12935 0.03064 0.19483
 C1957 C 0.11758 0.04117 0.20669
 N1958 N 0.12370 0.04463 0.22396
 N1959 N 0.14686 0.04143 0.24699
 C1960 C 0.16398 0.03484 0.25276
 C1961 C 0.17540 0.02402 0.24090
 N1962 N 0.16902 0.02037 0.22383
 H1963 H 0.12545 0.02813 0.18081
 H1964 H 0.16866 0.03814 0.26639
 C1965 C 0.61282 0.70586 0.22590
 C1966 C 0.60719 0.72414 0.22107
 N1967 N 0.61814 0.73435 0.20941
 C1968 C 0.63437 0.72705 0.20211
 C1969 C 0.63992 0.70846 0.20643
 N1970 N 0.62895 0.69845 0.21848
 N1971 N 0.60188 0.69573 0.23771
 C1972 C 0.58547 0.70300 0.24475
 C1973 C 0.57956 0.72123 0.23962
 N1974 N 0.59074 0.73133 0.22790
 H1975 H 0.64284 0.73585 0.19321
 H1976 H 0.57693 0.69448 0.25389
 C1977 C 0.11144 0.70718 0.73296
 C1978 C 0.10532 0.72538 0.72838
 N1979 N 0.11720 0.73711 0.71932
 C1980 C 0.13484 0.73134 0.71421
 C1981 C 0.14085 0.71279 0.71801
 N1982 N 0.12897 0.70128 0.72760
 N1983 N 0.09954 0.69552 0.74217
 C1984 C 0.08166 0.70118 0.74677
 C1985 C 0.07528 0.71924 0.74164
 N1986 N 0.08743 0.73091 0.73266
 H1987 H 0.14396 0.74122 0.70725
 H1988 H 0.07236 0.69148 0.75381
 C1989 C 0.63435 0.22787 0.53954
 C1990 C 0.64504 0.21555 0.52862
 N1991 N 0.63761 0.19902 0.52370
 C1992 C 0.61986 0.19426 0.52905
 C1993 C 0.60882 0.20670 0.53974
 N1994 N 0.61655 0.22320 0.54480
 N1995 N 0.64199 0.24423 0.54480
 C1996 C 0.65987 0.24885 0.53959
 C1997 C 0.67056 0.23657 0.52850
 N1998 N 0.66279 0.22019 0.52331
 H1999 H 0.61477 0.18068 0.52528
 H2000 H 0.66559 0.26200 0.54396
 C2001 C 0.63383 0.70700 0.02995
 C2002 C 0.64503 0.71778 0.04143
 N2003 N 0.63976 0.72007 0.05916
 C2004 C 0.62370 0.71227 0.06594
 C2005 C 0.61211 0.70175 0.05443
 N2006 N 0.61767 0.69928 0.03666
 N2007 N 0.63945 0.70425 0.01234
 C2008 C 0.65582 0.71165 0.00574
 C2009 C 0.66711 0.72243 0.01723
 N2010 N 0.66132 0.72526 0.03483
 H2011 H 0.62029 0.71406 0.08029
 H2012 H 0.66007 0.70902 -0.00830
 C2013 C 0.10627 0.02153 0.04833
 C2014 C 0.10020 0.02873 0.03142
 N2015 N 0.11125 0.04094 0.02203
 C2016 C 0.12790 0.04670 0.02893
 C2017 C 0.13387 0.04019 0.04642
 N2018 N 0.12280 0.02740 0.05538
 N2019 N 0.09526 0.00921 0.05772
 C2020 C 0.07830 0.00398 0.05104
 C2021 C 0.07192 0.01156 0.03425
 N2022 N 0.08320 0.02370 0.02480
 H2023 H 0.13618 0.05603 0.02047
 H2024 H 0.06974 -0.00568 0.05898
 C2025 C 0.12099 0.54385 0.51438
 C2026 C 0.11041 0.53061 0.52431
 N2027 N 0.11638 0.52467 0.54099
 C2028 C 0.13243 0.53140 0.54830
 C2029 C 0.14316 0.54482 0.53850
 N2030 N 0.13702 0.55067 0.52169
 N2031 N 0.11466 0.55019 0.49790
 C2032 C 0.09810 0.54405 0.49103
 C2033 C 0.08729 0.53101 0.50113
 N2034 N 0.09388 0.52454 0.51751
 H2035 H 0.13617 0.52679 0.56196
 H2036 H 0.09329 0.54956 0.47797
 C2037 C 0.61829 0.02919 0.52029
 C2038 C 0.60979 0.01656 0.53265
 N2039 N 0.61937 0.01057 0.54762
 C2040 C 0.63704 0.01677 0.55095
 C2041 C 0.64561 0.02972 0.53875
 N2042 N 0.63588 0.03551 0.52365
 N2043 N 0.60848 0.03559 0.50558
 C2044 C 0.59043 0.03015 0.50281
 C2045 C 0.58170 0.01782 0.51544
 N2046 N 0.59174 0.01121 0.52999
 H2047 H 0.64376 0.01223 0.56350
 H2048 H 0.58289 0.03568 0.49106
 C2049 C 0.61775 0.52799 0.01904
 C2050 C 0.61125 0.51065 0.02546
 N2051 N 0.62215 0.50022 0.03701
 C2052 C 0.63906 0.50659 0.04287
 C2053 C 0.64522 0.52448 0.03719
 N2054 N 0.63437 0.53448 0.02513
 N2055 N 0.60694 0.53851 0.00750
 C2056 C 0.58966 0.53262 0.00234
 C2057 C 0.58271 0.51555 0.00932
 N2058 N 0.59384 0.50488 0.02060
 H2059 H 0.64732 0.49778 0.05197
 H2060 H 0.58122 0.54150 -0.00660
 C2061 C 0.01973 0.03796 0.11541
 C2062 C 0.02510 0.01969 0.11063
 N2063 N 0.03619 0.00944 0.12206
 C2064 C 0.04277 0.01678 0.13777
 C2065 C 0.03850 0.03565 0.14228
 N2066 N 0.02654 0.04549 0.13100
 N2067 N 0.00845 0.04814 0.10400
 C2068 C 0.00260 0.04099 0.08786
 C2069 C 0.00857 0.02287 0.08268
 N2070 N 0.01958 0.01263 0.09439
 H2071 H 0.05100 0.00762 0.14654
 H2072 H -0.00608 0.04962 0.07891
 C2073 C 0.03311 0.54339 0.58964
 C2074 C 0.04605 0.53214 0.57996
 N2075 N 0.06286 0.52753 0.58767
 C2076 C 0.06735 0.53354 0.60467
 C2077 C 0.05433 0.54471 0.61470
 N2078 N 0.03750 0.54932 0.60667
 N2079 N 0.01648 0.54845 0.58173
 C2080 C 0.01225 0.54283 0.56453
 C2081 C 0.02518 0.53149 0.55473
 N2082 N 0.04181 0.52640 0.56282
 H2083 H 0.08113 0.52987 0.60989
 H2084 H -0.00107 0.54720 0.55857
 C2085 C 0.55344 0.03808 0.60911
 C2086 C 0.53837 0.04783 0.60092
 N2087 N 0.53238 0.06430 0.60802
 C2088 C 0.54055 0.07149 0.62308
 C2089 C 0.55567 0.06171 0.63180
 N2090 N 0.56169 0.04520 0.62422
 N2091 N 0.55957 0.02165 0.60182
 C2092 C 0.55130 0.01458 0.58668
 C2093 C 0.53614 0.02437 0.57838
 N2094 N 0.53011 0.04082 0.58582
 H2095 H 0.53535 0.08493 0.62754
 H2096 H 0.55659 0.00150 0.58115
 C2097 C 0.54335 0.52263 0.10490
 C2098 C 0.53349 0.53481 0.09306
 N2099 N 0.53013 0.55276 0.09793
 C2100 C 0.53577 0.55909 0.11437
 C2101 C 0.54486 0.54680 0.12688
 N2102 N 0.54873 0.52883 0.12162
 N2103 N 0.54719 0.50480 0.09949
 C2104 C 0.54147 0.49863 0.08284
 C2105 C 0.53110 0.51076 0.07125
 N2106 N 0.52750 0.52858 0.07674
 H2107 H 0.53321 0.57366 0.11748
 H2108 H 0.54470 0.48439 0.07884
 C2109 C 0.22806 0.54601 0.64211
 C2110 C 0.21649 0.53237 0.65025
 N2111 N 0.20041 0.52731 0.64194
 C2112 C 0.19542 0.53502 0.62562
 C2113 C 0.20723 0.54826 0.61687
 N2114 N 0.22324 0.55364 0.62557
 N2115 N 0.24384 0.55142 0.65098
 C2116 C 0.24851 0.54377 0.66759
 C2117 C 0.23698 0.52990 0.67556
 N2118 N 0.22125 0.52463 0.66658
 H2119 H 0.18213 0.53099 0.61980
 H2120 H 0.26108 0.54838 0.67441
 C2121 C 0.22124 0.03820 0.14937
 C2122 C 0.21246 0.02303 0.15804
 N2123 N 0.19806 0.01445 0.14960
 C2124 C 0.19186 0.02042 0.13290
 C2125 C 0.20042 0.03598 0.12402
 N2126 N 0.21505 0.04424 0.13277
 N2127 N 0.23562 0.04690 0.15780
 C2128 C 0.24153 0.04115 0.17465
 C2129 C 0.23260 0.02601 0.18356
 N2130 N 0.21827 0.01728 0.17491
 H2131 H 0.18036 0.01291 0.12704
 H2132 H 0.25294 0.04846 0.18108
 C2133 C 0.71477 0.22690 0.61403
 C2134 C 0.72571 0.21464 0.60327
 N2135 N 0.72969 0.19714 0.60965
 C2136 C 0.72340 0.19135 0.62640
 C2137 C 0.71269 0.20368 0.63751
 N2138 N 0.70854 0.22119 0.63086
 N2139 N 0.71036 0.24425 0.60738
 C2140 C 0.71633 0.24983 0.59040
 C2141 C 0.72731 0.23754 0.57958
 N2142 N 0.73175 0.22022 0.58639
 H2143 H 0.72645 0.17710 0.63070
 H2144 H 0.71244 0.26368 0.58539
 C2145 C 0.71416 0.72305 0.10624
 C2146 C 0.72407 0.71005 0.09538
 N2147 N 0.72721 0.69245 0.10189
 C2148 C 0.72105 0.68723 0.11885
 C2149 C 0.71137 0.70028 0.13005
 N2150 N 0.70807 0.71791 0.12329
 N2151 N 0.71048 0.74048 0.09941
 C2152 C 0.71611 0.74542 0.08215
 C2153 C 0.72598 0.73237 0.07121
 N2154 N 0.72977 0.71499 0.07820
 H2155 H 0.72336 0.67288 0.12325
 H2156 H 0.71275 0.75933 0.07696
 C2157 C 0.54123 0.71954 0.15099
 C2158 C 0.52319 0.71516 0.15773
 N2159 N 0.51165 0.70448 0.14762
 C2160 C 0.51745 0.69769 0.13114
 C2161 C 0.53580 0.70156 0.12451
 N2162 N 0.54709 0.71261 0.13467
 N2163 N 0.55275 0.73031 0.16103
 C2164 C 0.54710 0.73678 0.17769
 C2165 C 0.52915 0.73207 0.18469
 N2166 N 0.51762 0.72140 0.17442
 H2167 H 0.50774 0.68946 0.12340
 H2168 H 0.55667 0.74513 0.18551
 C2169 C 0.03889 0.72117 0.64206
 C2170 C 0.02587 0.70960 0.65116
 N2171 N 0.01954 0.69413 0.64280
 C2172 C 0.02545 0.68974 0.62560
 C2173 C 0.03819 0.70153 0.61610
 N2174 N 0.04468 0.71692 0.62479
 N2175 N 0.04558 0.73641 0.65068
 C2176 C 0.03976 0.74061 0.66801
 C2177 C 0.02649 0.72915 0.67705
 N2178 N 0.01992 0.71389 0.66831
 H2179 H 0.02044 0.67696 0.61974
 H2180 H 0.04528 0.75286 0.67455
 C2181 C 0.52835 0.63912 0.22406
 C2182 C 0.51903 0.65174 0.21223
 N2183 N 0.51596 0.64681 0.19464
 C2184 C 0.52201 0.62992 0.18825
 C2185 C 0.53171 0.61730 0.20000
 N2186 N 0.53446 0.62236 0.21769
 N2187 N 0.53196 0.64415 0.24149
 C2188 C 0.52694 0.66141 0.24759
 C2189 C 0.51794 0.67430 0.23568
 N2190 N 0.51403 0.66903 0.21828
 H2191 H 0.51991 0.62689 0.17397
 H2192 H 0.53022 0.66509 0.26152
 C2193 C 0.02836 0.63381 0.71475
 C2194 C 0.01831 0.64630 0.70343
 N2195 N 0.01599 0.64215 0.68551
 C2196 C 0.02345 0.62615 0.67829
 C2197 C 0.03390 0.61362 0.68952
 N2198 N 0.03586 0.61791 0.70756
 N2199 N 0.03124 0.63818 0.73254
 C2200 C 0.02476 0.65468 0.73948
 C2201 C 0.01497 0.66746 0.72808
 N2202 N 0.01187 0.66280 0.71031
 H2203 H 0.02178 0.62380 0.66383
 H2204 H 0.02755 0.65791 0.75362
 C2205 C 0.03096 0.10909 0.02790
 C2206 C 0.01259 0.10350 0.03262
 N2207 N 0.00077 0.11566 0.04122
 C2208 C 0.00665 0.13290 0.04602
 C2209 C 0.02559 0.13828 0.04248
 N2210 N 0.03701 0.12623 0.03292
 N2211 N 0.04275 0.09696 0.01913
 C2212 C 0.03708 0.07939 0.01512
 C2213 C 0.01883 0.07352 0.02036
 N2214 N 0.00697 0.08588 0.02888
 H2215 H -0.00360 0.14216 0.05236
 H2216 H 0.04693 0.06998 0.00831
 C2217 C 0.03804 0.62148 0.51005
 C2218 C 0.02027 0.61410 0.51435
 N2219 N 0.00835 0.62363 0.52567
 C2220 C 0.01363 0.63994 0.53340
 C2221 C 0.03196 0.64685 0.53003
 N2222 N 0.04348 0.63748 0.51808
 N2223 N 0.04999 0.61203 0.49870
 C2224 C 0.04513 0.59526 0.49174
 C2225 C 0.02766 0.58736 0.49669
 N2226 N 0.01555 0.59715 0.50776
 H2227 H 0.00364 0.64713 0.54223
 H2228 H 0.05514 0.58785 0.48305
 C2229 C 0.53546 0.11301 0.52498
 C2230 C 0.51752 0.10663 0.53016
 N2231 N 0.50490 0.11859 0.53806
 C2232 C 0.50961 0.13655 0.54158
 C2233 C 0.52802 0.14276 0.53740
 N2234 N 0.54031 0.13077 0.52887
 N2235 N 0.54801 0.10112 0.51681
 C2236 C 0.54346 0.08300 0.51380
 C2237 C 0.52572 0.07641 0.51960
 N2238 N 0.51313 0.08849 0.52754
 H2239 H 0.49912 0.14566 0.54782
 H2240 H 0.55375 0.07375 0.50740
 C2241 C 0.53698 0.60340 0.03218
 C2242 C 0.52763 0.59095 0.04412
 N2243 N 0.52562 0.59525 0.06207
 C2244 C 0.53231 0.61155 0.06863
 C2245 C 0.54136 0.62439 0.05667
 N2246 N 0.54359 0.61979 0.03868
 N2247 N 0.53940 0.59882 0.01430
 C2248 C 0.53301 0.58230 0.00786
 C2249 C 0.52362 0.56977 0.01980
 N2250 N 0.52116 0.57451 0.03769
 H2251 H 0.53077 0.61425 0.08311
 H2252 H 0.53536 0.57894 -0.00641
 C2253 C 0.72157 0.14300 0.54220
 C2254 C 0.71247 0.15096 0.52698
 N2255 N 0.69976 0.14080 0.51783
 C2256 C 0.69553 0.12304 0.52319
 C2257 C 0.70443 0.11477 0.53873
 N2258 N 0.71737 0.12525 0.54766
 N2259 N 0.73450 0.15313 0.55125
 C2260 C 0.73875 0.17086 0.54571
 C2261 C 0.72963 0.17892 0.53038
 N2262 N 0.71665 0.16866 0.52143
 H2263 H 0.68562 0.11575 0.51491
 H2264 H 0.74912 0.17857 0.55323
 C2265 C 0.72395 0.63492 0.03395
 C2266 C 0.71039 0.64422 0.02311
 N2267 N 0.69359 0.63601 0.02014
 C2268 C 0.68973 0.61884 0.02735
 C2269 C 0.70338 0.60921 0.03800
 N2270 N 0.72017 0.61769 0.04114
 N2271 N 0.74062 0.64336 0.03722
 C2272 C 0.74430 0.66070 0.03023
 C2273 C 0.73070 0.67010 0.01938
 N2274 N 0.71406 0.66151 0.01608
 H2275 H 0.67597 0.61300 0.02501
 H2276 H 0.75766 0.66711 0.03322
 C2277 C 0.21104 0.61023 0.73435
 C2278 C 0.23006 0.60497 0.73188
 N2279 N 0.24263 0.61775 0.72560
 C2280 C 0.23695 0.63546 0.72111
 C2281 C 0.21766 0.64055 0.72254
 N2282 N 0.20526 0.62779 0.72951
 N2283 N 0.19849 0.59741 0.74071
 C2284 C 0.20406 0.57945 0.74439
 C2285 C 0.22298 0.57395 0.74121
 N2286 N 0.23555 0.58698 0.73517
 H2287 H 0.24738 0.64530 0.71618
 H2288 H 0.19367 0.56945 0.74912
 C2289 C 0.22166 0.11544 0.23254
 C2290 C 0.23795 0.10708 0.22506
 N2291 N 0.24777 0.11619 0.21171
 C2292 C 0.24172 0.13303 0.20497
 C2293 C 0.22465 0.14120 0.21164
 N2294 N 0.21545 0.13215 0.22568
 N2295 N 0.21172 0.10624 0.24582
 C2296 C 0.21717 0.08884 0.25170
 C2297 C 0.23317 0.08011 0.24373
 N2298 N 0.24327 0.08965 0.23072
 H2299 H 0.25036 0.13969 0.19458
 H2300 H 0.20876 0.08170 0.26203
 C2301 C 0.73943 1.11227 0.71138
 C2302 C 0.73167 1.10295 0.72659
 N2303 N 0.71765 1.11130 0.73643
 C2304 C 0.71060 1.12843 0.73152
 C2305 C 0.71768 1.13770 0.71562
 N2306 N 0.73225 1.12923 0.70629
 N2307 N 0.75342 1.10386 0.70144
 C2308 C 0.75977 1.08632 0.70588
 C2309 C 0.75153 1.07665 0.72080
 N2310 N 0.73777 1.08538 0.73088
 H2311 H 0.69945 1.13418 0.73998
 H2312 H 0.77069 1.07982 0.69752
 C2313 C 0.70811 0.60344 0.22053
 C2314 C 0.72700 0.59782 0.21752
 N2315 N 0.73945 0.61030 0.21043
 C2316 C 0.73379 0.62799 0.20577
 C2317 C 0.71465 0.63343 0.20799
 N2318 N 0.70238 0.62097 0.21560
 N2319 N 0.69566 0.59112 0.22788
 C2320 C 0.70123 0.57340 0.23235
 C2321 C 0.72006 0.56758 0.22910
 N2322 N 0.73255 0.57998 0.22173
 H2323 H 0.74412 0.63759 0.20019
 H2324 H 0.69096 0.56385 0.23818
 C2325 C 0.53541 0.15278 0.71114
 C2326 C 0.54725 0.16370 0.72180
 N2327 N 0.56522 0.15781 0.72495
 C2328 C 0.57196 0.14147 0.71796
 C2329 C 0.56015 0.13028 0.70728
 N2330 N 0.54209 0.13641 0.70417
 N2331 N 0.51761 0.15901 0.70747
 C2332 C 0.51120 0.17579 0.71382
 C2333 C 0.52312 0.18687 0.72438
 N2334 N 0.54086 0.18041 0.72818
 H2335 H 0.58659 0.13775 0.72031
 H2336 H 0.49703 0.18051 0.71047
 C2337 C 1.04822 0.14420 0.22312
 C2338 C 1.02978 0.15042 0.21950
 N2339 N 1.01821 0.13954 0.20963
 C2340 C 1.02429 0.12276 0.20300
 C2341 C 1.04302 0.11651 0.20613
 N2342 N 1.05441 0.12751 0.21635
 N2343 N 1.05970 0.15504 0.23322
 C2344 C 1.05357 0.17190 0.23973
 C2345 C 1.03514 0.17837 0.23582
 N2346 N 1.02373 0.16731 0.22578
 H2347 H 1.01436 0.11445 0.19563
 H2348 H 1.06313 0.18033 0.24750
 C2349 C 0.22301 0.65479 0.55127
 C2350 C 0.21057 0.66583 0.54074
 N2351 N 0.19346 0.65905 0.53632
 C2352 C 0.18827 0.64155 0.54164
 C2353 C 0.20092 0.63002 0.55169
 N2354 N 0.21796 0.63716 0.55643
 N2355 N 0.23999 0.66185 0.55599
 C2356 C 0.24511 0.67941 0.55056
 C2357 C 0.23278 0.69036 0.53968
 N2358 N 0.21575 0.68320 0.53513
 H2359 H 0.17432 0.63689 0.53816
 H2360 H 0.25873 0.68466 0.55449
 C2361 C 0.20974 0.13365 1.02895
 C2362 C 0.22057 0.14527 1.03985
 N2363 N 0.22531 0.13949 1.05701
 C2364 C 0.21957 0.12266 1.06385
 C2365 C 0.20848 0.11095 1.05300
 N2366 N 0.20403 0.11691 1.03574
 N2367 N 0.20449 0.13957 1.01199
 C2368 C 0.20943 0.15674 1.00548
 C2369 C 0.22015 0.16856 1.01644
 N2370 N 0.22557 0.16241 1.03337
 H2371 H 0.22316 0.11896 1.07778
 H2372 H 0.20492 0.16115 0.99195
 C2373 C 0.21757 0.73508 0.62371
 C2374 C 0.22992 0.72411 0.61306
 N2375 N 0.23576 0.70712 0.61944
 C2376 C 0.22984 0.70053 0.63606
 C2377 C 0.21750 0.71151 0.64700
 N2378 N 0.21170 0.72857 0.64036
 N2379 N 0.21127 0.75186 0.61705
 C2380 C 0.21669 0.75809 0.60011
 C2381 C 0.22904 0.74707 0.58936
 N2382 N 0.23539 0.73034 0.59622
 H2383 H 0.23437 0.68663 0.64023
 H2384 H 0.21132 0.77145 0.59508
 C2385 C 0.20781 0.22246 1.10442
 C2386 C 0.21829 0.20971 1.09380
 N2387 N 0.22364 0.19298 1.10113
 C2388 C 0.21927 0.18844 1.11877
 C2389 C 0.20927 0.20135 1.12984
 N2390 N 0.20358 0.21804 1.12219
 N2391 N 0.20209 0.23902 1.09676
 C2392 C 0.20645 0.24340 1.07898
 C2393 C 0.21722 0.23072 1.06842
 N2394 N 0.22281 0.21416 1.07620
 H2395 H 0.22336 0.17471 1.12387
 H2396 H 0.20172 0.25669 1.07323
 C2397 C 0.70678 0.51886 0.14125
 C2398 C 0.72314 0.52615 0.14884
 N2399 N 0.73328 0.53901 0.13921
 C2400 C 0.72772 0.54510 0.12234
 C2401 C 0.71105 0.53813 0.11468
 N2402 N 0.70113 0.52502 0.12447
 N2403 N 0.69671 0.50588 0.15085
 C2404 C 0.70221 0.49996 0.16783
 C2405 C 0.71847 0.50749 0.17564
 N2406 N 0.72853 0.52040 0.16580
 H2407 H 0.73646 0.55503 0.11502
 H2408 H 0.69377 0.48979 0.17525
 C2409 C 0.74352 1.03485 0.62872
 C2410 C 0.73200 1.02261 0.63891
 N2411 N 0.71496 1.01780 0.63242
 C2412 C 0.70890 1.02447 0.61604
 C2413 C 0.72051 1.03640 0.60536
 N2414 N 0.73755 1.04151 0.61214
 N2415 N 0.76035 1.04004 0.63573
 C2416 C 0.76605 1.03360 0.65249
 C2417 C 0.75443 1.02132 0.66266
 N2418 N 0.73770 1.01615 0.65547
 H2419 H 0.69493 1.02072 0.61165
 H2420 H 0.77939 1.03814 0.65787
 C2421 C 0.53384 0.23498 0.63483
 C2422 C 0.52212 0.22380 0.64590
 N2423 N 0.51648 0.20698 0.63985
 C2424 C 0.52191 0.20079 0.62309
 C2425 C 0.53345 0.21202 0.61165
 N2426 N 0.53922 0.22888 0.61798
 N2427 N 0.53989 0.25160 0.64125
 C2428 C 0.53479 0.25747 0.65832
 C2429 C 0.52302 0.24622 0.66941
 N2430 N 0.51698 0.22967 0.66281
 H2431 H 0.51760 0.18699 0.61911
 H2432 H 0.53993 0.27068 0.66317
 C2433 C 1.02814 0.22732 0.14180
 C2434 C 1.01825 0.21484 0.15327
 N2435 N 1.01299 0.19806 0.14674
 C2436 C 1.01728 0.19309 0.12927
 C2437 C 1.02738 0.20549 0.11768
 N2438 N 1.03250 0.22235 0.12439
 N2439 N 1.03381 0.24392 0.14843
 C2440 C 1.03022 0.24856 0.16612
 C2441 C 1.02056 0.23595 0.17778
 N2442 N 1.01470 0.21941 0.17097
 H2443 H 1.01345 0.17928 0.12487
 H2444 H 1.03504 0.26187 0.17105
 C2445 C 0.61507 0.23097 0.71267
 C2446 C 0.60374 0.21960 0.72396
 N2447 N 0.60976 0.20207 0.72848
 C2448 C 0.62671 0.19536 0.72237
 C2449 C 0.63842 0.20676 0.71125
 N2450 N 0.63211 0.22433 0.70659
 N2451 N 0.60871 0.24835 0.70776
 C2452 C 0.59147 0.25481 0.71357
 C2453 C 0.58008 0.24340 0.72490
 N2454 N 0.58663 0.22605 0.72982
 H2455 H 0.63067 0.18110 0.72588
 H2456 H 0.58669 0.26863 0.70928
 C2457 C 1.11852 0.22949 0.21246
 C2458 C 1.10945 0.21848 0.22585
 N2459 N 1.11722 0.20187 0.23112
 C2460 C 1.13384 0.19575 0.22377
 C2461 C 1.14340 0.20684 0.21056
 N2462 N 1.13529 0.22347 0.20514
 N2463 N 1.11023 0.24584 0.20681
 C2464 C 1.09322 0.25158 0.21391
 C2465 C 1.08416 0.24051 0.22738
 N2466 N 1.09264 0.22424 0.23297
 H2467 H 1.13913 0.18211 0.22797
 H2468 H 1.08681 0.26453 0.20902
 C2469 C 0.13753 0.73149 0.54633
 C2470 C 0.14879 0.72111 0.53410
 N2471 N 0.14221 0.70493 0.52728
 C2472 C 0.12477 0.69868 0.53202
 C2473 C 0.11320 0.70914 0.54410
 N2474 N 0.12006 0.72529 0.55104
 N2475 N 0.14428 0.74753 0.55336
 C2476 C 0.16183 0.75368 0.54868
 C2477 C 0.17312 0.74333 0.53633
 N2478 N 0.16623 0.72725 0.52938
 H2479 H 0.12028 0.68545 0.52667
 H2480 H 0.16684 0.76652 0.55449
 C2481 C 0.12621 0.21174 1.02302
 C2482 C 0.13796 0.22120 1.03507
 N2483 N 0.13260 0.22311 1.05282
 C2484 C 0.11590 0.21624 1.05910
 C2485 C 0.10367 0.20715 1.04703
 N2486 N 0.10935 0.20502 1.02922
 N2487 N 0.13198 0.20922 1.00541
 C2488 C 0.14903 0.21560 0.99935
 C2489 C 0.16083 0.22514 1.01140
 N2490 N 0.15488 0.22772 1.02900
 H2491 H 0.11254 0.21762 1.07350
 H2492 H 0.15340 0.21314 0.98531
 C2493 C 0.63112 0.52332 0.21581
 C2494 C 0.64254 0.53600 0.22500
 N2495 N 0.63777 0.55444 0.22492
 C2496 C 0.62205 0.56081 0.21615
 C2497 C 0.61046 0.54817 0.20694
 N2498 N 0.61542 0.52966 0.20699
 N2499 N 0.63615 0.50492 0.21555
 C2500 C 0.65225 0.49868 0.22376
 C2501 C 0.66397 0.51140 0.23265
 N2502 N 0.65867 0.52980 0.23314
 H2503 H 0.61889 0.57568 0.21610
 H2504 H 0.65613 0.48399 0.22294
 C2505 C 0.65839 1.03342 0.70081
 C2506 C 0.67037 1.04540 0.71019
 N2507 N 0.66521 1.06352 0.71255
 C2508 C 0.64841 1.07022 0.70631
 C2509 C 0.63583 1.05817 0.69755
 N2510 N 0.64135 1.04001 0.69476
 N2511 N 0.66400 1.01539 0.69800
 C2512 C 0.68101 1.00885 0.70418
 C2513 C 0.69285 1.02079 0.71389
 N2514 N 0.68714 1.03882 0.71658
 H2515 H 0.64506 1.08490 0.70814
 H2516 H 0.68517 0.99446 0.70168
 C2517 C 0.85636 0.45862 0.27352
 C2518 C 0.85134 0.47773 0.27328
 N2519 N 0.86477 0.49066 0.27619
 C2520 C 0.88289 0.48538 0.27979
 C2521 C 0.88786 0.46619 0.28090
 N2522 N 0.87440 0.45329 0.27745
 N2523 N 0.84303 0.44569 0.27021
 C2524 C 0.82489 0.45099 0.26668
 C2525 C 0.81972 0.47010 0.26676
 N2526 N 0.83315 0.48304 0.27006
 H2527 H 0.89324 0.49611 0.28190
 H2528 H 0.81454 0.44036 0.26407
 C2529 C 0.86768 0.95287 0.78651
 C2530 C 0.85597 0.96584 0.79557
 N2531 N 0.85780 0.96820 0.81385
 C2532 C 0.87081 0.95816 0.82357
 C2533 C 0.88267 0.94504 0.81460
 N2534 N 0.88069 0.94281 0.79618
 N2535 N 0.86537 0.95002 0.76832
 C2536 C 0.85165 0.95937 0.75883
 C2537 C 0.83966 0.97217 0.76795
 N2538 N 0.84228 0.97515 0.78613
 H2539 H 0.87134 0.96006 0.83821
 H2540 H 0.84985 0.95651 0.74443
 C2541 C 0.38722 0.28942 0.77329
 C2542 C 0.39849 0.27886 0.78536
 N2543 N 0.39125 0.27345 0.80186
 C2544 C 0.37321 0.27808 0.80686
 C2545 C 0.36168 0.28860 0.79469
 N2546 N 0.36923 0.29394 0.77820
 N2547 N 0.39450 0.29527 0.75696
 C2548 C 0.41264 0.29105 0.75213
 C2549 C 0.42403 0.28036 0.76415
 N2550 N 0.41659 0.27448 0.78051
 H2551 H 0.36831 0.27383 0.82031
 H2552 H 0.41807 0.29595 0.73902
 C2553 C 0.89359 0.26684 0.29392
 C2554 C 0.89834 0.26993 0.27541
 N2555 N 0.88490 0.27612 0.26361
 C2556 C 0.86703 0.27999 0.26959
 C2557 C 0.86248 0.27802 0.28837
 N2558 N 0.87589 0.27110 0.29997
 N2559 N 0.90701 0.26057 0.30572
 C2560 C 0.92509 0.25749 0.29989
 C2561 C 0.93004 0.26123 0.28149
 N2562 N 0.91645 0.26725 0.26967
 H2563 H 0.85667 0.28504 0.25985
 H2564 H 0.93558 0.25271 0.30964
 C2565 C 0.36064 0.79866 0.48095
 C2566 C 0.34944 0.78803 0.46942
 N2567 N 0.35598 0.78369 0.45246
 C2568 C 0.37330 0.78931 0.44649
 C2569 C 0.38494 0.79969 0.45814
 N2570 N 0.37804 0.80413 0.47511
 N2571 N 0.35386 0.80351 0.49773
 C2572 C 0.33634 0.79823 0.50348
 C2573 C 0.32509 0.78743 0.49200
 N2574 N 0.33202 0.78258 0.47520
 H2575 H 0.37753 0.78590 0.43268
 H2576 H 0.33128 0.80238 0.51690
 C2577 C 0.34523 0.27970 0.95048
 C2578 C 0.33286 0.29109 0.96074
 N2579 N 0.33601 0.30968 0.96178
 C2580 C 0.35118 0.31746 0.95326
 C2581 C 0.36403 0.30608 0.94338
 N2582 N 0.36056 0.28741 0.94209
 N2583 N 0.34162 0.26115 0.94904
 C2584 C 0.32612 0.25352 0.95730
 C2585 C 0.31378 0.26496 0.96765
 N2586 N 0.31755 0.28348 0.96908
 H2587 H 0.35302 0.33243 0.95414
 H2588 H 0.32339 0.23877 0.95569
 C2589 C 0.79020 0.46748 0.35558
 C2590 C 0.78143 0.45342 0.34556
 N2591 N 0.78293 0.43535 0.35131
 C2592 C 0.79250 0.43069 0.36680
 C2593 C 0.80089 0.44477 0.37722
 N2594 N 0.79965 0.46288 0.37117
 N2595 N 0.78900 0.48552 0.34960
 C2596 C 0.77960 0.49012 0.33399
 C2597 C 0.77080 0.47609 0.32390
 N2598 N 0.77193 0.45802 0.33001
 H2599 H 0.79347 0.41611 0.37096
 H2600 H 0.77914 0.50460 0.32941
 C2601 C 0.79787 0.96225 0.84637
 C2602 C 0.78811 0.95023 0.83487
 N2603 N 0.78606 0.93199 0.83990
 C2604 C 0.79332 0.92524 0.85592
 C2605 C 0.80319 0.93727 0.86748
 N2606 N 0.80514 0.95552 0.86227
 N2607 N 0.80031 0.98037 0.84129
 C2608 C 0.79366 0.98702 0.82505
 C2609 C 0.78415 0.97498 0.81327
 N2610 N 0.78148 0.95683 0.81857
 H2611 H 0.79176 0.91055 0.85929
 H2612 H 0.79609 1.00150 0.82126
 C2613 C 0.27447 0.79138 0.40118
 C2614 C 0.28671 0.78049 0.41205
 N2615 N 0.30381 0.77512 0.40522
 C2616 C 0.30930 0.78017 0.38796
 C2617 C 0.29708 0.79115 0.37690
 N2618 N 0.27991 0.79642 0.38396
 N2619 N 0.25757 0.79721 0.40821
 C2620 C 0.25244 0.79278 0.42573
 C2621 C 0.26478 0.78200 0.43675
 N2622 N 0.28161 0.77604 0.42952
 H2623 H 0.32330 0.77611 0.38335
 H2624 H 0.23895 0.79777 0.43103
 C2625 C 0.27541 0.26726 0.88202
 C2626 C 0.26251 0.27912 0.89108
 N2627 N 0.25715 0.29554 0.88305
 C2628 C 0.26411 0.30070 0.86635
 C2629 C 0.27711 0.28885 0.85711
 N2630 N 0.28239 0.27238 0.86534
 N2631 N 0.28118 0.25107 0.89028
 C2632 C 0.27474 0.24628 0.90730
 C2633 C 0.26194 0.25826 0.91651
 N2634 N 0.25608 0.27438 0.90805
 H2635 H 0.25997 0.31422 0.86079
 H2636 H 0.27974 0.23336 0.91362
 C2637 C 0.46369 0.30108 0.84954
 C2638 C 0.45191 0.29209 0.83719
 N2639 N 0.43305 0.29155 0.84057
 C2640 C 0.42541 0.29928 0.85592
 C2641 C 0.43718 0.30781 0.86876
 N2642 N 0.45611 0.30866 0.86503
 N2643 N 0.48251 0.30209 0.84582
 C2644 C 0.49006 0.29453 0.83029
 C2645 C 0.47831 0.28531 0.81797
 N2646 N 0.45946 0.28438 0.82180
 H2647 H 0.41026 0.29885 0.85790
 H2648 H 0.50507 0.29575 0.82758
 C2649 C 0.97548 0.29452 0.36033
 C2650 C 0.96371 0.28292 0.35030
 N2651 N 0.94568 0.28021 0.35611
 C2652 C 0.93888 0.28838 0.37160
 C2653 C 0.95072 0.29975 0.38209
 N2654 N 0.96878 0.30258 0.37595
 N2655 N 0.99332 0.29776 0.35413
 C2656 C 0.99987 0.29002 0.33829
 C2657 C 0.98812 0.27832 0.32820
 N2658 N 0.97027 0.27504 0.33457
 H2659 H 0.92425 0.28622 0.37533
 H2660 H 1.01407 0.29306 0.33356
 C2661 C 0.44724 0.35519 0.79187
 C2662 C 0.45784 0.34118 0.80087
 N2663 N 0.45570 0.33849 0.81918
 C2664 C 0.44374 0.34950 0.82908
 C2665 C 0.43366 0.36420 0.82034
 N2666 N 0.43552 0.36649 0.80181
 N2667 N 0.44884 0.35721 0.77337
 C2668 C 0.46050 0.34573 0.76347
 C2669 C 0.47132 0.33189 0.77256
 N2670 N 0.46963 0.33002 0.79107
 H2671 H 0.44225 0.34681 0.84364
 H2672 H 0.46115 0.34722 0.74869
 C2673 C 0.96134 0.36245 0.27758
 C2674 C 0.98082 0.35883 0.27916
 N2675 N 0.99246 0.37293 0.28357
 C2676 C 0.98551 0.39043 0.28682
 C2677 C 0.96587 0.39406 0.28590
 N2678 N 0.95432 0.37988 0.28105
 N2679 N 0.94973 0.34844 0.27278
 C2680 C 0.95671 0.33095 0.26947
 C2681 C 0.97622 0.32719 0.27124
 N2682 N 0.98780 0.34131 0.27608
 H2683 H 0.99531 0.40135 0.29003
 H2684 H 0.94710 0.32007 0.26564
 C2685 C 0.27281 0.87723 0.47524
 C2686 C 0.28548 0.86699 0.48629
 N2687 N 0.30277 0.87394 0.48965
 C2688 C 0.30798 0.89080 0.48265
 C2689 C 0.29523 0.90144 0.47184
 N2690 N 0.27794 0.89420 0.46829
 N2691 N 0.25569 0.86993 0.47150
 C2692 C 0.25073 0.85280 0.47824
 C2693 C 0.26344 0.84253 0.48933
 N2694 N 0.28051 0.84999 0.49308
 H2695 H 0.32212 0.89556 0.48524
 H2696 H 0.23706 0.84725 0.47490
 C2697 C 0.28026 0.34820 0.94896
 C2698 C 0.28948 0.33822 0.96295
 N2699 N 0.30675 0.34379 0.96840
 C2700 C 0.31529 0.35892 0.96055
 C2701 C 0.30609 0.36926 0.94651
 N2702 N 0.28870 0.36339 0.94116
 N2703 N 0.26315 0.34235 0.94320
 C2704 C 0.25489 0.32689 0.95075
 C2705 C 0.26411 0.31678 0.96481
 N2706 N 0.28124 0.32283 0.97055
 H2707 H 0.32920 0.36238 0.96519
 H2708 H 0.24136 0.32248 0.94571
 C2709 C 0.77350 0.38228 0.29031
 C2710 C 0.78636 0.39298 0.27991
 N2711 N 0.80428 0.38654 0.27739
 C2712 C 0.80989 0.36974 0.28452
 C2713 C 0.79692 0.35860 0.29449
 N2714 N 0.77903 0.36535 0.29731
 N2715 N 0.75569 0.38897 0.29320
 C2716 C 0.75018 0.40590 0.28621
 C2717 C 0.76299 0.41661 0.27568
 N2718 N 0.78082 0.40981 0.27278
 H2719 H 0.82442 0.36523 0.28248
 H2720 H 0.73592 0.41095 0.28885
   
