data_POSCAR
  _audit_creation_date              2014-09-24
  _audit_creation_method            'ToBaCCo'
  _symmetry_space_group_name_H-M    'P1'
  _symmetry_Int_Tables_number       1
  _symmetry_cell_setting            triclinic
  loop_
  _symmetry_equiv_pos_as_xyz
 x,y,z
_cell_length_a 51.9720
_cell_length_b 52.3403
_cell_length_c 53.7414
_cell_angle_alpha 89.873400
_cell_angle_beta 89.995900
_cell_angle_gamma 90.635900
loop_
  _atom_site_label
  _atom_site_type_symbol
  _atom_site_fract_x
  _atom_site_fract_y
  _atom_site_fract_z
C1 C 0.37644 0.30030 -0.01879
 C2 C 0.38570 0.29187 0.00436
 C3 C 0.37447 0.29901 0.02679
 C4 C 0.35356 0.31590 0.02673
 C5 C 0.34409 0.32545 0.00378
 C6 C 0.35548 0.31771 -0.01907
 C7 C 0.34626 0.32852 -0.04128
 C8 C 0.32507 0.34450 -0.04142
 C9 C 0.31333 0.35236 -0.01916
 C10 C 0.32299 0.34262 0.00372
 C11 C 0.34156 0.32299 0.04903
 C12 C 0.32081 0.33945 0.04896
 C13 C 0.31135 0.34963 0.02660
 C14 C 0.29002 0.36608 0.02652
 C15 C 0.27998 0.37449 0.00391
 C16 C 0.29137 0.36848 -0.01903
 H17 H 0.35532 0.32490 -0.05899
 H18 H 0.31793 0.35027 -0.05941
 H19 H 0.34797 0.31568 0.06681
 H20 H 0.31199 0.34379 0.06666
 H21 H 0.40105 0.27800 0.00513
 H22 H 0.26390 0.38753 0.00439
 C23 C 0.63377 0.70793 0.02651
 C24 C 0.62683 0.72021 0.00447
 C25 C 0.63444 0.71131 -0.01900
 C26 C 0.65056 0.68954 -0.02029
 C27 C 0.65838 0.67723 0.00210
 C28 C 0.64987 0.68641 0.02553
 C29 C 0.65858 0.67459 0.04740
 C30 C 0.67545 0.65419 0.04644
 C31 C 0.68422 0.64475 0.02356
 C32 C 0.67561 0.65632 0.00114
 C33 C 0.66090 0.68105 -0.04301
 C34 C 0.67754 0.66044 -0.04393
 C35 C 0.68509 0.64776 -0.02214
 C36 C 0.70289 0.62753 -0.02285
 C37 C 0.71113 0.61641 -0.00062
 C38 C 0.70224 0.62475 0.02247
 H39 H 0.65297 0.68141 0.06558
 H40 H 0.68193 0.64625 0.06392
 H41 H 0.65700 0.69075 -0.06034
 H42 H 0.68503 0.65502 -0.06193
 H43 H 0.61405 0.73642 0.00568
 H44 H 0.72499 0.60106 -0.00128
 C45 C 0.64812 0.27023 1.01962
 C46 C 0.64043 0.26080 0.99629
 C47 C 0.64794 0.27255 0.97407
 C48 C 0.66462 0.29394 0.97463
 C49 C 0.67350 0.30343 0.99786
 C50 C 0.66524 0.29166 1.02046
 C51 C 0.67606 0.30029 1.04298
 C52 C 0.69347 0.32067 1.04351
 C53 C 0.70120 0.33307 1.02151
 C54 C 0.69137 0.32421 0.99840
 C55 C 0.67343 0.30543 0.95252
 C56 C 0.69091 0.32572 0.95308
 C57 C 0.70012 0.33545 0.97577
 C58 C 0.71861 0.35548 0.97647
 C59 C 0.72785 0.36409 0.99942
 C60 C 0.71947 0.35330 1.02185
 H61 H 0.67196 0.29085 1.06045
 H62 H 0.70134 0.32614 1.06138
 H63 H 0.66730 0.29845 0.93451
 H64 H 0.69748 0.33335 0.93544
 H65 H 0.62706 0.24476 0.99527
 H66 H 0.74192 0.37956 0.99982
 C67 C 0.27588 0.64968 0.97242
 C68 C 0.26522 0.64150 0.99495
 C69 C 0.27648 0.64756 1.01800
 C70 C 0.29844 0.66413 1.01830
 C71 C 0.30923 0.67296 0.99547
 C72 C 0.29797 0.66558 0.97248
 C73 C 0.30869 0.67474 0.95015
 C74 C 0.33043 0.69045 0.95026
 C75 C 0.34225 0.69765 0.97272
 C76 C 0.33129 0.68932 0.99558
 C77 C 0.30905 0.67331 1.04069
 C78 C 0.33083 0.68897 1.04083
 C79 C 0.34223 0.69747 1.01853
 C80 C 0.36489 0.71296 1.01843
 C81 C 0.37594 0.71992 0.99557
 C82 C 0.36453 0.71331 0.97294
 H83 H 0.30024 0.67000 0.93232
 H84 H 0.33785 0.69692 0.93249
 H85 H 0.30049 0.66880 1.05851
 H86 H 0.33870 0.69412 1.05876
 H87 H 0.24895 0.62834 0.99422
 H88 H 0.39293 0.73219 0.99529
 C89 C -0.02159 0.27830 0.35554
 C90 C 0.00212 0.26760 0.36209
 C91 C 0.02555 0.27956 0.35642
 C92 C 0.02570 0.30205 0.34181
 C93 C 0.00205 0.31279 0.33396
 C94 C -0.02168 0.30126 0.34128
 C95 C -0.04471 0.31240 0.33316
 C96 C -0.04460 0.33477 0.31919
 C97 C -0.02147 0.34601 0.31077
 C98 C 0.00218 0.33514 0.31874
 C99 C 0.04893 0.31386 0.33460
 C100 C 0.04906 0.33601 0.32034
 C101 C 0.02601 0.34674 0.31187
 C102 C 0.02613 0.36907 0.29709
 C103 C 0.00280 0.37959 0.28966
 C104 C -0.02113 0.36855 0.29581
 H105 H -0.06327 0.30393 0.33733
 H106 H -0.06305 0.34317 0.31536
 H107 H 0.06733 0.30601 0.33978
 H108 H 0.06755 0.34464 0.31610
 H109 H 0.00239 0.25070 0.37383
 H110 H 0.00350 0.39602 0.27732
 C111 C -0.02533 0.64162 0.71559
 C112 C -0.00222 0.63036 0.72324
 C113 C 0.02142 0.63658 0.71238
 C114 C 0.02253 0.65487 0.69307
 C115 C -0.00026 0.66760 0.68573
 C116 C -0.02423 0.66113 0.69708
 C117 C -0.04585 0.67593 0.69123
 C118 C -0.04444 0.69553 0.67375
 C119 C -0.02134 0.70132 0.66123
 C120 C 0.00116 0.68757 0.66772
 C121 C 0.04595 0.66136 0.68149
 C122 C 0.04716 0.68019 0.66325
 C123 C 0.02523 0.69410 0.65666
 C124 C 0.02669 0.71442 0.63936
 C125 C 0.00458 0.72830 0.63393
 C126 C -0.01955 0.72190 0.64399
 H127 H -0.06393 0.67333 0.70090
 H128 H -0.06156 0.70671 0.67089
 H129 H 0.06370 0.65210 0.68653
 H130 H 0.06566 0.68406 0.65478
 H131 H -0.00258 0.61540 0.73725
 H132 H 0.00609 0.74372 0.62045
 C133 C 1.02304 0.69810 0.37131
 C134 C 1.00029 0.70747 0.38157
 C135 C 0.97621 0.70151 0.37151
 C136 C 0.97449 0.68532 0.35057
 C137 C 0.99735 0.67572 0.33969
 C138 C 1.02172 0.68218 0.35005
 C139 C 1.04401 0.67267 0.33879
 C140 C 1.04261 0.65825 0.31713
 C141 C 1.01876 0.65126 0.30658
 C142 C 0.99584 0.66013 0.31807
 C143 C 0.95062 0.67914 0.33978
 C144 C 0.94911 0.66374 0.31878
 C145 C 0.97142 0.65407 0.30762
 C146 C 0.96999 0.63926 0.28573
 C147 C 0.99266 0.63191 0.27392
 C148 C 1.01707 0.63721 0.28397
 H149 H 1.06291 0.67663 0.34633
 H150 H 1.06063 0.65317 0.30858
 H151 H 0.93284 0.68642 0.34731
 H152 H 0.93025 0.66005 0.31097
 H153 H 1.00135 0.72013 0.39751
 H154 H 0.99115 0.62037 0.25721
 C155 C 1.02622 0.36544 0.70627
 C156 C 1.00339 0.37494 0.71609
 C157 C 0.97963 0.37079 0.70447
 C158 C 0.97848 0.35571 0.68260
 C159 C 1.00154 0.34554 0.67258
 C160 C 1.02552 0.35076 0.68427
 C161 C 1.04814 0.34133 0.67361
 C162 C 1.04735 0.32705 0.65182
 C163 C 1.02381 0.32081 0.64022
 C164 C 1.00071 0.33060 0.65051
 C165 C 0.95516 0.35116 0.67005
 C166 C 0.95428 0.33614 0.64873
 C167 C 0.97677 0.32560 0.63874
 C168 C 0.97595 0.31074 0.61685
 C169 C 0.99889 0.30247 0.60614
 C170 C 1.02280 0.30646 0.61776
 H171 H 1.06677 0.34516 0.68188
 H172 H 1.06556 0.32141 0.64396
 H173 H 0.93732 0.35930 0.67641
 H174 H 0.93582 0.33335 0.63976
 H175 H 1.00425 0.38640 0.73289
 H176 H 0.99778 0.29061 0.58962
 C177 C 0.28799 -0.02725 0.36052
 C178 C 0.27757 -0.00493 0.37071
 C179 C 0.28726 0.01934 0.36504
 C180 C 0.30808 0.02196 0.34835
 C181 C 0.31841 -0.00013 0.33690
 C182 C 0.30824 -0.02478 0.34278
 C183 C 0.31688 -0.04583 0.32900
 C184 C 0.33594 -0.04313 0.31100
 C185 C 0.34750 -0.01925 0.30591
 C186 C 0.33814 0.00260 0.31865
 C187 C 0.31811 0.04615 0.34207
 C188 C 0.33766 0.04878 0.32459
 C189 C 0.34756 0.02737 0.31235
 C190 C 0.36629 0.03017 0.29354
 C191 C 0.37515 0.00868 0.28105
 C192 C 0.36630 -0.01610 0.28681
 H193 H 0.30815 -0.06455 0.33110
 H194 H 0.34070 -0.05998 0.30045
 H195 H 0.31067 0.06339 0.35033
 H196 H 0.34458 0.06789 0.32037
 H197 H 0.26225 -0.00634 0.38438
 H198 H 0.38959 0.01140 0.26666
 C199 C 0.64506 -0.02302 0.71566
 C200 C 0.63537 -0.00053 0.72614
 C201 C 0.64065 0.02360 0.71614
 C202 C 0.65700 0.02587 0.69526
 C203 C 0.66760 0.00354 0.68452
 C204 C 0.66173 -0.02097 0.69472
 C205 C 0.67436 -0.04240 0.68496
 C206 C 0.69097 -0.04016 0.66477
 C207 C 0.69614 -0.01632 0.65372
 C208 C 0.68476 0.00583 0.66400
 C209 C 0.66381 0.04992 0.68543
 C210 C 0.68049 0.05211 0.66530
 C211 C 0.69118 0.03034 0.65432
 C212 C 0.70884 0.03249 0.63444
 C213 C 0.71952 0.01049 0.62424
 C214 C 0.71336 -0.01384 0.63341
 H215 H 0.67223 -0.06112 0.69329
 H216 H 0.70028 -0.05732 0.65837
 H217 H 0.65673 0.06738 0.69353
 H218 H 0.68525 0.07112 0.65866
 H219 H 0.62201 -0.00182 0.74163
 H220 H 0.73291 0.01238 0.60883
 C221 C 0.36870 0.97311 0.70621
 C222 C 0.37284 0.99475 0.72091
 C223 C 0.36097 1.01820 0.71594
 C224 C 0.34298 1.01948 0.69600
 C225 C 0.33811 0.99741 0.68118
 C226 C 0.35130 0.97430 0.68608
 C227 C 0.34706 0.95317 0.67047
 C228 C 0.32909 0.95411 0.65132
 C229 C 0.31463 0.97621 0.64702
 C230 C 0.31980 0.99835 0.66153
 C231 C 0.32838 1.04153 0.69149
 C232 C 0.31094 1.04261 0.67190
 C233 C 0.30661 1.02138 0.65650
 C234 C 0.28875 1.02230 0.63669
 C235 C 0.28315 1.00007 0.62330
 C236 C 0.29549 0.97699 0.62827
 H237 H 0.35762 0.93565 0.67286
 H238 H 0.32685 0.93733 0.63978
 H239 H 0.32975 1.05809 0.70341
 H240 H 0.30033 1.06010 0.66934
 H241 H 0.38676 0.99348 0.73589
 H242 H 0.26884 1.00081 0.60863
 C243 C 0.70348 0.97084 0.37269
 C244 C 0.70876 0.99301 0.38612
 C245 C 0.69844 1.01683 0.37949
 C246 C 0.68075 1.01774 0.35920
 C247 C 0.67558 0.99527 0.34509
 C248 C 0.68727 0.97184 0.35175
 C249 C 0.68200 0.94982 0.33769
 C250 C 0.66513 0.95057 0.31769
 C251 C 0.65255 0.97324 0.31126
 C252 C 0.65805 0.99598 0.32475
 C253 C 0.66633 1.03971 0.35397
 C254 C 0.64911 1.04039 0.33414
 C255 C 0.64543 1.01914 0.31850
 C256 C 0.62776 1.01955 0.29819
 C257 C 0.62271 0.99661 0.28544
 C258 C 0.63452 0.97372 0.29170
 H259 H 0.69073 0.93170 0.34216
 H260 H 0.66189 0.93306 0.30743
 H261 H 0.66740 1.05638 0.36578
 H262 H 0.63800 1.05757 0.33187
 H263 H 0.72254 0.99167 0.40121
 H264 H 0.60957 0.99646 0.26975
 O265 O 0.86138 0.82321 0.47876
 O266 O 0.82635 0.86362 0.52276
 O267 O 0.86259 0.83008 0.52645
 O268 O 0.82582 0.85719 0.47493
 O269 O 0.79574 0.82750 0.47982
 O270 O 0.83372 0.79924 0.53112
 O271 O 0.79711 0.83317 0.52779
 O272 O 0.83191 0.79286 0.48295
 Cu273 Cu 0.84696 0.84652 0.50030
 Cu274 Cu 0.81167 0.81008 0.50586
 C275 C 0.85273 0.80113 0.47331
 C276 C 0.80567 0.85543 0.53273
 C277 C 0.85478 0.80999 0.53749
 C278 C 0.80438 0.84730 0.46873
 O279 O 0.14038 0.17418 0.47796
 O280 O 0.17424 0.14161 0.52868
 O281 O 0.14085 0.17820 0.52617
 O282 O 0.17363 0.13780 0.48052
 O283 O 0.20574 0.16563 0.47831
 O284 O 0.17181 0.20724 0.52265
 O285 O 0.20565 0.17022 0.52668
 O286 O 0.17216 0.20232 0.47485
 Cu287 Cu 0.15415 0.15511 0.50367
 Cu288 Cu 0.19210 0.18916 0.50048
 C289 C 0.15037 0.19382 0.46774
 C290 C 0.19580 0.15015 0.53627
 C291 C 0.15039 0.19988 0.53171
 C292 C 0.19528 0.14467 0.47166
 O293 O 0.18283 0.84736 0.46864
 O294 O 0.14941 0.81748 0.52122
 O295 O 0.18511 0.85295 0.51641
 O296 O 0.14780 0.81204 0.47422
 O297 O 0.17872 0.78338 0.47474
 O298 O 0.21457 0.82311 0.52014
 O299 O 0.17885 0.78743 0.52317
 O300 O 0.21420 0.81948 0.47169
 Cu301 Cu 0.16340 0.83550 0.49497
 Cu302 Cu 0.19969 0.80041 0.49766
 C303 C 0.20436 0.83896 0.46137
 C304 C 0.15774 0.79688 0.53055
 C305 C 0.20616 0.84512 0.52549
 C306 C 0.15671 0.79068 0.46747
 O307 O 0.85293 0.18679 0.52120
 O308 O 0.81598 0.14432 0.48003
 O309 O 0.85355 0.17729 0.47366
 O310 O 0.81694 0.15320 0.52690
 O311 O 0.78734 0.18248 0.52080
 O312 O 0.82566 0.20824 0.46802
 O313 O 0.78791 0.17485 0.47297
 O314 O 0.82436 0.21718 0.51564
 Cu315 Cu 0.83781 0.16248 0.50086
 Cu316 Cu 0.80345 0.19881 0.49379
 C317 C 0.84494 0.20916 0.52559
 C318 C 0.79543 0.15207 0.46983
 C319 C 0.84628 0.19700 0.46193
 C320 C 0.79568 0.16321 0.53270
 O321 O 0.48276 0.85752 0.81509
 O322 O 0.52637 0.82420 0.85699
 O323 O 0.53174 0.85589 0.82048
 O324 O 0.47693 0.82502 0.85159
 O325 O 0.47970 0.79200 0.82632
 O326 O 0.53295 0.82469 0.79298
 O327 O 0.52963 0.79235 0.83042
 O328 O 0.48285 0.82486 0.78914
 Cu329 Cu 0.50414 0.84380 0.83870
 Cu330 Cu 0.50642 0.80519 0.80702
 C331 C 0.47556 0.84721 0.79489
 C332 C 0.53568 0.80278 0.85101
 C333 C 0.54143 0.84595 0.80116
 C334 C 0.46935 0.80298 0.84480
 O335 O 0.52644 0.17114 0.14500
 O336 O 0.47317 0.14744 0.18333
 O337 O 0.47727 0.17885 0.14677
 O338 O 0.52219 0.14053 0.18330
 O339 O 0.52953 0.17305 0.20848
 O340 O 0.48255 0.21104 0.17279
 O341 O 0.47989 0.17853 0.21038
 O342 O 0.53216 0.20409 0.16998
 Cu343 Cu 0.49936 0.15632 0.16198
 Cu344 Cu 0.50664 0.19499 0.19298
 C345 C 0.53812 0.19181 0.15044
 C346 C 0.46764 0.15855 0.20354
 C347 C 0.47201 0.20140 0.15358
 C348 C 0.53326 0.14997 0.20230
 O349 O 0.51728 0.13484 0.82756
 O350 O 0.47390 0.17451 0.86441
 O351 O 0.46732 0.13866 0.83103
 O352 O 0.52279 0.16892 0.86121
 O353 O 0.52308 0.19960 0.83294
 O354 O 0.46914 0.16684 0.80046
 O355 O 0.47295 0.20320 0.83426
 O356 O 0.51911 0.16463 0.79846
 Cu357 Cu 0.49494 0.15120 0.84889
 Cu358 Cu 0.49601 0.18657 0.81355
 C359 C 0.52614 0.14317 0.80703
 C360 C 0.46632 0.19577 0.85587
 C361 C 0.45911 0.14702 0.81037
 C362 C 0.53236 0.18946 0.85250
 O363 O 0.47266 0.82490 0.13922
 O364 O 0.52452 0.85772 0.17351
 O365 O 0.52252 0.82192 0.14053
 O366 O 0.47502 0.86159 0.17172
 O367 O 0.47093 0.83319 0.20186
 O368 O 0.51984 0.79324 0.17060
 O369 O 0.52085 0.82960 0.20399
 O370 O 0.47013 0.79568 0.16886
 Cu371 Cu 0.49892 0.84435 0.15324
 Cu372 Cu 0.49498 0.81006 0.18940
 C373 C 0.46301 0.80434 0.14791
 C374 C 0.53141 0.84944 0.19470
 C375 C 0.52942 0.80089 0.15007
 C376 C 0.46505 0.85457 0.19219
 O377 O 0.85406 0.52836 0.82196
 O378 O 0.82502 0.47437 0.85553
 O379 O 0.85903 0.47949 0.82010
 O380 O 0.81989 0.52361 0.85660
 O381 O 0.78946 0.52214 0.82801
 O382 O 0.82768 0.47530 0.79265
 O383 O 0.79317 0.47267 0.82841
 O384 O 0.82444 0.52511 0.79269
 Cu385 Cu 0.84252 0.50161 0.84138
 Cu386 Cu 0.80559 0.49852 0.80756
 C387 C 0.84463 0.53574 0.80143
 C388 C 0.80388 0.46465 0.84817
 C389 C 0.85021 0.46997 0.80009
 C390 C 0.79808 0.53058 0.84859
 O391 O 0.13821 0.52734 0.17161
 O392 O 0.17415 0.47602 0.14196
 O393 O 0.13958 0.47875 0.17720
 O394 O 0.17335 0.52549 0.13770
 O395 O 0.20333 0.53021 0.16643
 O396 O 0.17092 0.48099 0.20491
 O397 O 0.20541 0.48054 0.16941
 O398 O 0.16760 0.53049 0.20111
 Cu399 Cu 0.15339 0.50139 0.15421
 Cu400 Cu 0.18994 0.50595 0.18831
 C401 C 0.14630 0.53735 0.19165
 C402 C 0.19608 0.46976 0.15018
 C403 C 0.14928 0.47212 0.19788
 C404 C 0.19398 0.53606 0.14535
 O405 O 0.81930 0.51796 0.14231
 O406 O 0.85886 0.47521 0.18011
 O407 O 0.82540 0.46892 0.14437
 O408 O 0.85311 0.52405 0.17699
 O409 O 0.82345 0.52044 0.20624
 O410 O 0.79323 0.46720 0.17113
 O411 O 0.82712 0.47061 0.20712
 O412 O 0.78871 0.51651 0.17076
 Cu413 Cu 0.84225 0.49669 0.15815
 Cu414 Cu 0.80502 0.49343 0.19170
 C415 C 0.79732 0.52471 0.15006
 C416 C 0.84982 0.46560 0.20002
 C417 C 0.80430 0.45903 0.15166
 C418 C 0.84339 0.53145 0.19735
 O419 O 0.17178 0.52477 0.85785
 O420 O 0.14270 0.47067 0.82485
 O421 O 0.17669 0.47558 0.85999
 O422 O 0.13897 0.51998 0.82215
 O423 O 0.17016 0.52189 0.79432
 O424 O 0.20793 0.47681 0.83222
 O425 O 0.17337 0.47243 0.79649
 O426 O 0.20354 0.52645 0.83062
 Cu427 Cu 0.15445 0.49750 0.84396
 Cu428 Cu 0.19196 0.49948 0.81064
 C429 C 0.19256 0.53489 0.85006
 C430 C 0.15264 0.46253 0.80486
 C431 C 0.19882 0.46871 0.85276
 C432 C 0.14805 0.52858 0.80181
 C433 C 0.25425 0.40188 0.08864
 C434 C 0.28095 0.40475 0.08516
 C435 C 0.29290 0.39207 0.06554
 C436 C 0.27842 0.37641 0.04958
 C437 C 0.25201 0.37341 0.05409
 N438 N 0.24073 0.38624 0.07306
 C439 C 0.23976 0.41750 0.10671
 N440 N 0.21432 0.42136 0.10234
 C441 C 0.19987 0.43706 0.11658
 C442 C 0.21103 0.45037 0.13656
 C443 C 0.23699 0.44592 0.14213
 C444 C 0.25141 0.42947 0.12730
 H445 H 0.31323 0.39528 0.06217
 H446 H 0.24023 0.36164 0.04197
 H447 H 0.17983 0.43963 0.11179
 H448 H 0.24630 0.45563 0.15752
 H449 H 0.29236 0.41763 0.09647
 H450 H 0.27141 0.42646 0.13188
 C451 C 0.73779 0.58693 0.08370
 C452 C 0.71102 0.58439 0.08040
 C453 C 0.69908 0.59738 0.06086
 C454 C 0.71371 0.61294 0.04487
 C455 C 0.74020 0.61536 0.04907
 N456 N 0.75142 0.60234 0.06795
 C457 C 0.75224 0.57183 0.10224
 N458 N 0.77772 0.56795 0.09803
 C459 C 0.79245 0.55353 0.11329
 C460 C 0.78164 0.54183 0.13441
 C461 C 0.75556 0.54609 0.13960
 C462 C 0.74078 0.56106 0.12357
 H463 H 0.67862 0.59476 0.05776
 H464 H 0.75205 0.62708 0.03692
 H465 H 0.81253 0.55100 0.10869
 H466 H 0.74650 0.53753 0.15579
 H467 H 0.69954 0.57176 0.09197
 H468 H 0.72075 0.56414 0.12796
 C469 C 0.75334 0.39447 0.91494
 C470 C 0.72651 0.39553 0.91802
 C471 C 0.71484 0.38215 0.93764
 C472 C 0.72982 0.36745 0.95383
 C473 C 0.75638 0.36624 0.94966
 N474 N 0.76732 0.37971 0.93074
 C475 C 0.76688 0.41049 0.89615
 N476 N 0.75334 0.42328 0.87841
 C477 C 0.76486 0.43965 0.86202
 C478 C 0.79145 0.44447 0.86342
 C479 C 0.80581 0.43103 0.88113
 C480 C 0.79368 0.41394 0.89733
 H481 H 0.69432 0.38379 0.94062
 H482 H 0.76850 0.35515 0.96189
 H483 H 0.75309 0.44967 0.84864
 H484 H 0.82638 0.43410 0.88277
 H485 H 0.71480 0.40726 0.90599
 H486 H 0.80511 0.40421 0.91119
 C487 C 0.23956 0.61184 0.91165
 C488 C 0.22618 0.63086 0.92461
 C489 C 0.23850 0.64429 0.94364
 C490 C 0.26422 0.63926 0.94938
 C491 C 0.27744 0.62136 0.93500
 N492 N 0.26489 0.60809 0.91688
 C493 C 0.22637 0.59425 0.89411
 N494 N 0.24039 0.58185 0.87653
 C495 C 0.22987 0.56364 0.86146
 C496 C 0.20394 0.55640 0.86423
 C497 C 0.18912 0.56917 0.88201
 C498 C 0.20018 0.58804 0.89689
 H499 H 0.22779 0.65800 0.95445
 H500 H 0.29731 0.61697 0.93908
 H501 H 0.24199 0.55419 0.84802
 H502 H 0.16904 0.56419 0.88481
 H503 H 0.20624 0.63493 0.92061
 H504 H 0.18849 0.59670 0.91115
 C505 C 0.08793 0.24651 0.39642
 C506 C 0.08334 0.27281 0.39865
 C507 C 0.06372 0.28388 0.38472
 C508 C 0.04901 0.26899 0.36823
 C509 C 0.05473 0.24296 0.36599
 N510 N 0.07352 0.23246 0.38017
 C511 C 0.10587 0.23313 0.41322
 N512 N 0.10041 0.20851 0.41969
 C513 C 0.11477 0.19542 0.43644
 C514 C 0.13609 0.20716 0.44787
 C515 C 0.14268 0.23222 0.44081
 C516 C 0.12759 0.24530 0.42354
 H517 H 0.05930 0.30384 0.38755
 H518 H 0.04356 0.23082 0.35369
 H519 H 0.10921 0.17601 0.44111
 H520 H 0.15906 0.24194 0.44909
 H521 H 0.09372 0.28444 0.41199
 H522 H 0.13284 0.26469 0.41848
 C523 C 0.09044 0.74234 0.59698
 C524 C 0.09267 0.74156 0.62300
 C525 C 0.07233 0.73144 0.63717
 C526 C 0.05034 0.72150 0.62531
 C527 C 0.04957 0.72157 0.59924
 N528 N 0.06909 0.73227 0.58596
 C529 C 0.10892 0.75649 0.58124
 N530 N 0.09937 0.77124 0.56265
 C531 C 0.11475 0.78470 0.54691
 C532 C 0.14158 0.78325 0.54894
 C533 C 0.15203 0.76793 0.56780
 C534 C 0.13568 0.75478 0.58432
 H535 H 0.07328 0.73226 0.65729
 H536 H 0.03284 0.71422 0.58947
 H537 H 0.10595 0.79599 0.53238
 H538 H 0.17268 0.76626 0.56979
 H539 H 0.10918 0.75002 0.63227
 H540 H 0.14378 0.74294 0.59883
 C541 C 0.91553 0.73947 0.40940
 C542 C 0.91667 0.71262 0.41042
 C543 C 0.93584 0.69994 0.39717
 C544 C 0.95365 0.71391 0.38291
 C545 C 0.95149 0.74052 0.38185
 N546 N 0.93292 0.75244 0.39507
 C547 C 0.89774 0.75455 0.42497
 N548 N 0.90376 0.77955 0.42912
 C549 C 0.88943 0.79475 0.44397
 C550 C 0.86744 0.78495 0.45593
 C551 C 0.86038 0.75939 0.45148
 C552 C 0.87543 0.74413 0.43601
 H553 H 0.93737 0.67937 0.39870
 H554 H 0.96510 0.75186 0.37116
 H555 H 0.89550 0.81440 0.44664
 H556 H 0.84344 0.75110 0.46019
 H557 H 0.90380 0.70151 0.42209
 H558 H 0.86951 0.72455 0.43281
 C559 C 0.91116 0.27336 0.58419
 C560 C 0.91669 0.26939 0.60946
 C561 C 0.93694 0.28286 0.62051
 C562 C 0.95161 0.30028 0.60648
 C563 C 0.94477 0.30459 0.58159
 N564 N 0.92499 0.29114 0.57115
 C565 C 0.89231 0.25703 0.57096
 N566 N 0.87777 0.26707 0.55233
 C567 C 0.86155 0.25238 0.53834
 C568 C 0.86015 0.22587 0.54219
 C569 C 0.87492 0.21520 0.56130
 C570 C 0.89080 0.23071 0.57586
 H571 H 0.94192 0.27889 0.63970
 H572 H 0.95579 0.31786 0.57025
 H573 H 0.85059 0.26124 0.52359
 H574 H 0.87441 0.19481 0.56478
 H575 H 0.90591 0.25554 0.62037
 H576 H 0.90259 0.22201 0.59009
 C577 C 0.39951 0.09767 0.26254
 C578 C 0.37370 0.09148 0.25724
 C579 C 0.36225 0.07018 0.26856
 C580 C 0.37640 0.05529 0.28520
 C581 C 0.40159 0.06288 0.29111
 N582 N 0.41246 0.08353 0.27967
 C583 C 0.41390 0.11711 0.24797
 N584 N 0.43427 0.12963 0.25854
 C585 C 0.45048 0.14493 0.24509
 C586 C 0.44733 0.14714 0.21926
 C587 C 0.42615 0.13496 0.20812
 C588 C 0.40926 0.12018 0.22240
 H589 H 0.34278 0.06467 0.26357
 H590 H 0.41297 0.05169 0.30392
 H591 H 0.46679 0.15385 0.25424
 H592 H 0.42325 0.13609 0.18819
 H593 H 0.36275 0.10247 0.24394
 H594 H 0.39381 0.10992 0.21316
 C595 C 0.59750 0.08115 0.75290
 C596 C 0.59509 0.07842 0.72701
 C597 C 0.61002 0.06039 0.71463
 C598 C 0.62770 0.04561 0.72793
 C599 C 0.63031 0.04973 0.75357
 N600 N 0.61519 0.06693 0.76527
 C601 C 0.58002 0.09779 0.76716
 N602 N 0.56650 0.11647 0.75545
 C603 C 0.54953 0.13149 0.76779
 C604 C 0.54499 0.12768 0.79329
 C605 C 0.55877 0.10860 0.80567
 C606 C 0.57640 0.09381 0.79275
 H607 H 0.60713 0.05729 0.69491
 H608 H 0.64365 0.03854 0.76443
 H609 H 0.53926 0.14602 0.75758
 H610 H 0.55598 0.10515 0.82537
 H611 H 0.58103 0.08923 0.71664
 H612 H 0.58666 0.07903 0.80264
 C613 C 0.41296 0.91078 0.73308
 C614 C 0.38618 0.90759 0.73084
 C615 C 0.37155 0.92743 0.72083
 C616 C 0.38368 0.95001 0.71262
 C617 C 0.41057 0.95176 0.71397
 N618 N 0.42426 0.93262 0.72443
 C619 C 0.42886 0.89302 0.74766
 N620 N 0.44823 0.90319 0.76159
 C621 C 0.46326 0.88874 0.77651
 C622 C 0.45943 0.86223 0.77785
 C623 C 0.44009 0.85104 0.76313
 C624 C 0.42447 0.86647 0.74818
 H625 H 0.35077 0.92568 0.72054
 H626 H 0.42055 0.96894 0.70790
 H627 H 0.47825 0.89802 0.78730
 H628 H 0.43670 0.83059 0.76366
 H629 H 0.37653 0.89076 0.73817
 H630 H 0.40935 0.85779 0.73710
 C631 C 0.60203 0.91212 0.25033
 C632 C 0.61712 0.93066 0.23804
 C633 C 0.62912 0.94995 0.25177
 C634 C 0.62632 0.95070 0.27768
 C635 C 0.61215 0.93118 0.28942
 N636 N 0.60033 0.91274 0.27563
 C637 C 0.58598 0.89379 0.23601
 N638 N 0.58230 0.89768 0.21121
 C639 C 0.56575 0.88319 0.19753
 C640 C 0.55137 0.86352 0.20886
 C641 C 0.55545 0.85858 0.23423
 C642 C 0.57266 0.87371 0.24788
 H643 H 0.63975 0.96490 0.24214
 H644 H 0.60939 0.93139 0.30939
 H645 H 0.56342 0.88748 0.17796
 H646 H 0.54477 0.84357 0.24370
 H647 H 0.61886 0.93083 0.21797
 H648 H 0.57504 0.87010 0.26758
 C649 C 0.41096 0.26177 0.92126
 C650 C 0.38440 0.26602 0.92057
 C651 C 0.37282 0.27956 0.93993
 C652 C 0.38778 0.28960 0.95960
 C653 C 0.41454 0.28559 0.95874
 N654 N 0.42514 0.27172 0.94018
 C655 C 0.42372 0.24463 0.90357
 N656 N 0.44132 0.22800 0.91263
 C657 C 0.45442 0.21183 0.89770
 C658 C 0.45067 0.21234 0.87189
 C659 C 0.43276 0.22949 0.86200
 C660 C 0.41891 0.24546 0.87789
 H661 H 0.35203 0.28064 0.94027
 H662 H 0.42709 0.29314 0.97310
 H663 H 0.46830 0.19910 0.90600
 H664 H 0.42947 0.23045 0.84213
 H665 H 0.37255 0.25765 0.90608
 H666 H 0.40518 0.25874 0.87019
 C667 C 0.60063 0.75198 0.92205
 C668 C 0.61460 0.76511 0.94046
 C669 C 0.62637 0.75152 0.95947
 C670 C 0.62530 0.72469 0.95994
 C671 C 0.61241 0.71217 0.94032
 N672 N 0.60034 0.72594 0.92231
 C673 C 0.58503 0.76583 0.90336
 N674 N 0.57829 0.75411 0.88164
 C675 C 0.56303 0.76555 0.86434
 C676 C 0.55334 0.79010 0.86866
 C677 C 0.56005 0.80238 0.89093
 C678 C 0.57567 0.79038 0.90826
 H679 H 0.63647 0.76204 0.97390
 H680 H 0.61048 0.69155 0.94016
 H681 H 0.55820 0.75532 0.84746
 H682 H 0.55287 0.82121 0.89525
 H683 H 0.61629 0.78572 0.94051
 H684 H 0.57953 0.80009 0.92561
 C685 C 0.40088 0.74710 0.08005
 C686 C 0.41516 0.73147 0.06426
 C687 C 0.40312 0.71984 0.04403
 C688 C 0.37656 0.72268 0.04017
 C689 C 0.36280 0.73798 0.05696
 N690 N 0.37523 0.75004 0.07597
 C691 C 0.41402 0.76173 0.09974
 N692 N 0.43150 0.74995 0.11459
 C693 C 0.44610 0.76309 0.13131
 C694 C 0.44436 0.78976 0.13283
 C695 C 0.42625 0.80224 0.11793
 C696 C 0.41067 0.78818 0.10166
 H697 H 0.41451 0.70847 0.03140
 H698 H 0.34250 0.74146 0.05416
 H699 H 0.46005 0.75289 0.14239
 H700 H 0.42451 0.82283 0.11858
 H701 H 0.43567 0.72920 0.06694
 H702 H 0.39714 0.79798 0.08976
 C703 C 0.61031 0.23369 0.07949
 C704 C 0.62331 0.21909 0.06167
 C705 C 0.63643 0.23127 0.04235
 C706 C 0.63766 0.25808 0.04098
 C707 C 0.62563 0.27201 0.06003
 N708 N 0.61225 0.25965 0.07832
 C709 C 0.59333 0.22166 0.09853
 N710 N 0.58646 0.23526 0.11905
 C711 C 0.56962 0.22593 0.13636
 C712 C 0.55823 0.20168 0.13327
 C713 C 0.56523 0.18731 0.11240
 C714 C 0.58257 0.19717 0.09505
 H715 H 0.64578 0.21964 0.02843
 H716 H 0.62541 0.29268 0.05950
 H717 H 0.56467 0.23772 0.15214
 H718 H 0.55683 0.16859 0.10908
 H719 H 0.62326 0.19845 0.06228
 H720 H 0.58654 0.18593 0.07868
 C721 C 0.25144 0.08662 0.60462
 C722 C 0.27846 0.08668 0.60658
 C723 C 0.29066 0.06635 0.61847
 C724 C 0.27610 0.04612 0.62846
 C725 C 0.24923 0.04728 0.62710
 N726 N 0.23779 0.06704 0.61518
 C727 C 0.23728 0.10529 0.58911
 N728 N 0.21277 0.09918 0.58224
 C729 C 0.19890 0.11375 0.56632
 C730 C 0.20977 0.13594 0.55583
 C731 C 0.23464 0.14327 0.56334
 C732 C 0.24842 0.12810 0.58002
 H733 H 0.31149 0.06576 0.61878
 H734 H 0.23741 0.03189 0.63451
 H735 H 0.17967 0.10748 0.56134
 H736 H 0.24367 0.16040 0.55590
 H737 H 0.29029 0.10132 0.59799
 H738 H 0.26757 0.13419 0.58535
 C739 C 0.73288 0.07860 0.41769
 C740 C 0.72507 0.05678 0.43085
 C741 C 0.71237 0.03706 0.41847
 C742 C 0.70743 0.03866 0.39273
 C743 C 0.71479 0.06147 0.38044
 N744 N 0.72726 0.08050 0.39301
 C745 C 0.74886 0.09826 0.43014
 N746 N 0.76531 0.09089 0.44843
 C747 C 0.78070 0.10771 0.46072
 C748 C 0.77973 0.13387 0.45519
 C749 C 0.76288 0.14203 0.43643
 C750 C 0.74767 0.12417 0.42356
 H751 H 0.70655 0.02038 0.42912
 H752 H 0.71237 0.06349 0.36054
 H753 H 0.79322 0.10066 0.47523
 H754 H 0.76159 0.16210 0.43169
 H755 H 0.72910 0.05482 0.45054
 H756 H 0.73477 0.13056 0.40906
 C757 C 0.74974 0.92494 0.59491
 C758 C 0.72271 0.92552 0.59623
 C759 C 0.71076 0.94515 0.60930
 C760 C 0.72562 0.96399 0.62121
 C761 C 0.75248 0.96265 0.61961
 N762 N 0.76368 0.94355 0.60658
 C763 C 0.76363 0.90586 0.57984
 N764 N 0.78766 0.91196 0.57150
 C765 C 0.80152 0.89604 0.55691
 C766 C 0.79127 0.87223 0.54979
 C767 C 0.76678 0.86522 0.55865
 C768 C 0.75291 0.88193 0.57367
 H769 H 0.68995 0.94600 0.60968
 H770 H 0.76452 0.97704 0.62838
 H771 H 0.82041 0.90217 0.55069
 H772 H 0.75821 0.84696 0.55376
 H773 H 0.71084 0.91165 0.58656
 H774 H 0.73417 0.87600 0.58042
 C775 C 0.25701 0.90575 0.39307
 C776 C 0.28371 0.90752 0.38893
 C777 C 0.29404 0.92915 0.37703
 C778 C 0.27792 0.94902 0.36908
 C779 C 0.25128 0.94580 0.37267
 N780 N 0.24180 0.92478 0.38440
 C781 C 0.24444 0.88539 0.40827
 N782 N 0.21852 0.88679 0.41147
 C783 C 0.20527 0.87120 0.42717
 C784 C 0.21822 0.85293 0.44142
 C785 C 0.24478 0.85017 0.43773
 C786 C 0.25800 0.86636 0.42121
 H787 H 0.31476 0.93098 0.37547
 H788 H 0.23791 0.96019 0.36643
 H789 H 0.18473 0.87378 0.42914
 H790 H 0.25548 0.83629 0.44839
 H791 H 0.29675 0.89304 0.39541
 H792 H 0.27858 0.86436 0.41949
 C793 C 0.09008 0.39352 0.74779
 C794 C 0.07513 0.37323 0.75742
 C795 C 0.05508 0.36299 0.74323
 C796 C 0.05032 0.37245 0.71932
 C797 C 0.06672 0.39143 0.70965
 N798 N 0.08578 0.40157 0.72403
 C799 C 0.10850 0.40811 0.76347
 N800 N 0.12743 0.42231 0.75237
 C801 C 0.14295 0.43859 0.76540
 C802 C 0.13914 0.44201 0.79103
 C803 C 0.12019 0.42712 0.80292
 C804 C 0.10494 0.41016 0.78931
 H805 H 0.04268 0.34834 0.75118
 H806 H 0.06345 0.39916 0.69123
 H807 H 0.15730 0.44980 0.75552
 H808 H 0.11656 0.42920 0.82266
 H809 H 0.07831 0.36579 0.77595
 H810 H 0.08963 0.39998 0.79884
 C811 C 0.07720 0.60400 0.24322
 C812 C 0.05978 0.62027 0.23128
 C813 C 0.04036 0.63169 0.24498
 C814 C 0.03859 0.62792 0.27082
 C815 C 0.05719 0.61248 0.28228
 N816 N 0.07559 0.60092 0.26835
 C817 C 0.09608 0.58885 0.22893
 N818 N 0.11725 0.57942 0.24062
 C819 C 0.13426 0.56388 0.22891
 C820 C 0.13003 0.55649 0.20412
 C821 C 0.10852 0.56624 0.19172
 C822 C 0.09157 0.58227 0.20397
 H823 H 0.02667 0.64365 0.23535
 H824 H 0.05619 0.60833 0.30200
 H825 H 0.15053 0.55664 0.23921
 H826 H 0.10437 0.56096 0.17265
 H827 H 0.06081 0.62404 0.21152
 H828 H 0.07459 0.58842 0.19411
 C829 C 0.91726 0.40548 0.26017
 C830 C 0.91717 0.37872 0.26120
 C831 C 0.93708 0.36620 0.27365
 C832 C 0.95664 0.38032 0.28577
 C833 C 0.95517 0.40719 0.28487
 N834 N 0.93613 0.41881 0.27204
 C835 C 0.89907 0.41970 0.24457
 N836 N 0.90832 0.43965 0.23086
 C837 C 0.89293 0.45407 0.21622
 C838 C 0.86639 0.44918 0.21532
 C839 C 0.85627 0.42890 0.22954
 C840 C 0.87266 0.41382 0.24395
 H841 H 0.93797 0.34559 0.27239
 H842 H 0.96944 0.41906 0.29409
 H843 H 0.90139 0.46972 0.20573
 H844 H 0.83583 0.42463 0.22930
 H845 H 0.90278 0.36764 0.25127
 H846 H 0.86479 0.39821 0.25491
 C847 C 0.90940 0.60677 0.74846
 C848 C 0.90889 0.61274 0.72292
 C849 C 0.92998 0.62541 0.71207
 C850 C 0.95155 0.63233 0.72653
 C851 C 0.95060 0.62691 0.75216
 N852 N 0.93005 0.61448 0.76216
 C853 C 0.88954 0.59085 0.76122
 N854 N 0.89199 0.58761 0.78624
 C855 C 0.87693 0.57123 0.79949
 C856 C 0.85815 0.55629 0.78752
 C857 C 0.85436 0.55994 0.76190
 C858 C 0.87003 0.57715 0.74864
 H859 H 0.93000 0.62838 0.69212
 H860 H 0.96637 0.63231 0.76430
 H861 H 0.88032 0.56931 0.81928
 H862 H 0.84009 0.54871 0.75196
 H863 H 0.89293 0.60724 0.71117
 H864 H 0.86739 0.57870 0.72877
 C865 C 0.73876 0.59371 0.91410
 C866 C 0.71180 0.59215 0.91646
 C867 C 0.69976 0.60424 0.93645
 C868 C 0.71447 0.61791 0.95385
 C869 C 0.74113 0.61972 0.95041
 N870 N 0.75243 0.60756 0.93107
 C871 C 0.75329 0.57880 0.89549
 N872 N 0.77856 0.57423 0.90015
 C873 C 0.79324 0.55957 0.88512
 C874 C 0.78257 0.54822 0.86381
 C875 C 0.75675 0.55324 0.85809
 C876 C 0.74204 0.56853 0.87385
 H877 H 0.67916 0.60212 0.93890
 H878 H 0.75304 0.63000 0.96363
 H879 H 0.81314 0.55649 0.89013
 H880 H 0.74782 0.54500 0.84173
 H881 H 0.70019 0.58078 0.90391
 H882 H 0.72220 0.57211 0.86906
 C883 C 0.25683 0.40607 0.92021
 C884 C 0.28380 0.40633 0.92232
 C885 C 0.29549 0.39320 0.94194
 C886 C 0.28047 0.37955 0.95938
 C887 C 0.25358 0.37975 0.95633
 N888 N 0.24273 0.39277 0.93727
 C889 C 0.24279 0.42134 0.90145
 N890 N 0.21761 0.42651 0.90593
 C891 C 0.20322 0.44104 0.89045
 C892 C 0.21410 0.45155 0.86878
 C893 C 0.23988 0.44602 0.86336
 C894 C 0.25430 0.43092 0.87961
 H895 H 0.31614 0.39493 0.94421
 H896 H 0.24111 0.36957 0.96920
 H897 H 0.18337 0.44458 0.89531
 H898 H 0.24898 0.45363 0.84675
 H899 H 0.29579 0.41744 0.90981
 H900 H 0.27406 0.42684 0.87494
 C901 C 0.24494 0.60599 0.07832
 C902 C 0.27178 0.60862 0.07629
 C903 C 0.28232 0.62310 0.05685
 C904 C 0.26628 0.63530 0.03947
 C905 C 0.23950 0.63230 0.04249
 N906 N 0.22976 0.61793 0.06139
 C907 C 0.23245 0.58896 0.09686
 N908 N 0.20839 0.57985 0.09180
 C909 C 0.19571 0.56340 0.10715
 C910 C 0.20727 0.55502 0.12926
 C911 C 0.23183 0.56460 0.13525
 C912 C 0.24449 0.58156 0.11912
 H913 H 0.30303 0.62348 0.05463
 H914 H 0.22622 0.64135 0.02979
 H915 H 0.17670 0.55672 0.10188
 H916 H 0.24138 0.55877 0.15221
 H917 H 0.28462 0.59865 0.08870
 H918 H 0.26333 0.58881 0.12420
 C919 C 0.75463 0.38882 0.08483
 C920 C 0.72767 0.38885 0.08268
 C921 C 0.71592 0.37637 0.06263
 C922 C 0.73095 0.36362 0.04504
 C923 C 0.75767 0.36318 0.04838
 N924 N 0.76868 0.37577 0.06775
 C925 C 0.76810 0.40446 0.10389
 N926 N 0.75447 0.41673 0.12185
 C927 C 0.76580 0.43313 0.13825
 C928 C 0.79226 0.43855 0.13661
 C929 C 0.80676 0.42553 0.11877
 C930 C 0.79483 0.40838 0.10256
 H931 H 0.69524 0.37736 0.06037
 H932 H 0.76983 0.35355 0.03508
 H933 H 0.75393 0.44278 0.15177
 H934 H 0.82725 0.42905 0.11696
 H935 H 0.71587 0.39921 0.09575
 H936 H 0.80635 0.39906 0.08854
 C937 C 0.92163 0.76355 0.60964
 C938 C 0.94186 0.77655 0.62168
 C939 C 0.96072 0.76274 0.63397
 C940 C 0.95913 0.73597 0.63542
 C941 C 0.93744 0.72381 0.62491
 N942 N 0.91976 0.73767 0.61211
 C943 C 0.90358 0.77697 0.59277
 N944 N 0.88124 0.76512 0.58576
 C945 C 0.86487 0.77552 0.56881
 C946 C 0.87091 0.79904 0.55747
 C947 C 0.89366 0.81164 0.56463
 C948 C 0.90999 0.80072 0.58206
 H949 H 0.97680 0.77300 0.64222
 H950 H 0.93556 0.70319 0.62515
 H951 H 0.84753 0.76512 0.56378
 H952 H 0.89925 0.82973 0.55631
 H953 H 0.94366 0.79713 0.62129
 H954 H 0.92789 0.81054 0.58611
 C955 C 0.91612 0.24089 0.39047
 C956 C 0.93309 0.22689 0.37559
 C957 C 0.95313 0.23947 0.36332
 C958 C 0.95598 0.26616 0.36493
 C959 C 0.93771 0.27961 0.37894
 N960 N 0.91871 0.26680 0.39134
 C961 C 0.89683 0.22814 0.40672
 N962 N 0.87638 0.24167 0.41521
 C963 C 0.85925 0.23180 0.43193
 C964 C 0.86265 0.20713 0.44160
 C965 C 0.88335 0.19275 0.43281
 C966 C 0.90041 0.20312 0.41548
 H967 H 0.96656 0.22829 0.35255
 H968 H 0.93953 0.30006 0.38148
 H969 H 0.84359 0.24357 0.43830
 H970 H 0.88680 0.17368 0.43983
 H971 H 0.93131 0.20639 0.37368
 H972 H 0.91682 0.19192 0.41003
 C973 C 0.08375 0.26593 0.58563
 C974 C 0.06941 0.28265 0.57090
 C975 C 0.04941 0.29634 0.58161
 C976 C 0.04440 0.29438 0.60726
 C977 C 0.05977 0.27783 0.62147
 N978 N 0.07850 0.26391 0.61038
 C979 C 0.10305 0.24928 0.57408
 N980 N 0.11816 0.25845 0.55530
 C981 C 0.13466 0.24327 0.54262
 C982 C 0.13571 0.21706 0.54792
 C983 C 0.12059 0.20728 0.56741
 C984 C 0.10456 0.22346 0.58085
 H985 H 0.03795 0.30865 0.56989
 H986 H 0.05598 0.27491 0.64109
 H987 H 0.14590 0.25141 0.52754
 H988 H 0.12088 0.18711 0.57194
 H989 H 0.07295 0.28431 0.55109
 H990 H 0.09253 0.21564 0.59553
 C991 C 0.08872 0.72885 0.40870
 C992 C 0.08703 0.73159 0.38278
 C993 C 0.06611 0.72068 0.37017
 C994 C 0.04752 0.70638 0.38327
 C995 C 0.05068 0.70316 0.40900
 N996 N 0.07060 0.71474 0.42096
 C997 C 0.10742 0.74375 0.42340
 N998 N 0.09885 0.75578 0.44415
 C999 C 0.11442 0.77076 0.45830
 C1000 C 0.14043 0.77392 0.45208
 C1001 C 0.15001 0.76119 0.43117
 C1002 C 0.13338 0.74633 0.41647
 H1003 H 0.06386 0.72425 0.35043
 H1004 H 0.03659 0.69247 0.41974
 H1005 H 0.10652 0.78007 0.47453
 H1006 H 0.17005 0.76324 0.42594
 H1007 H 0.10077 0.74336 0.37267
 H1008 H 0.14069 0.73682 0.40010
 C1009 C 0.61228 0.91111 0.74841
 C1010 C 0.61414 0.91258 0.72233
 C1011 C 0.62627 0.93376 0.71131
 C1012 C 0.63663 0.95349 0.72612
 C1013 C 0.63518 0.95061 0.75211
 N1014 N 0.62315 0.93002 0.76231
 C1015 C 0.59639 0.89165 0.76160
 N1016 N 0.59013 0.89647 0.78571
 C1017 C 0.57373 0.88142 0.79894
 C1018 C 0.56204 0.86004 0.78784
 C1019 C 0.56902 0.85386 0.76336
 C1020 C 0.58622 0.86959 0.75016
 H1021 H 0.62591 0.93550 0.69122
 H1022 H 0.64318 0.96504 0.76438
 H1023 H 0.56924 0.88671 0.81790
 H1024 H 0.56055 0.83742 0.75416
 H1025 H 0.60519 0.89848 0.71039
 H1026 H 0.59098 0.86461 0.73122
 C1027 C 0.40088 0.92625 0.24399
 C1028 C 0.38907 0.94706 0.23223
 C1029 C 0.37735 0.96576 0.24649
 C1030 C 0.37619 0.96356 0.27252
 C1031 C 0.38708 0.94177 0.28354
 N1032 N 0.39919 0.92410 0.26923
 C1033 C 0.41610 0.90738 0.22971
 N1034 N 0.42165 0.88428 0.24009
 C1035 C 0.43656 0.86672 0.22836
 C1036 C 0.44712 0.87215 0.20484
 C1037 C 0.44151 0.89577 0.19384
 C1038 C 0.42628 0.91336 0.20615
 H1039 H 0.36881 0.98191 0.23706
 H1040 H 0.38723 0.93950 0.30356
 H1041 H 0.44053 0.84880 0.23760
 H1042 H 0.44942 0.90101 0.17587
 H1043 H 0.38883 0.94918 0.21223
 H1044 H 0.42346 0.93173 0.19744
 C1045 C 0.59058 0.08179 0.26450
 C1046 C 0.61600 0.08512 0.27282
 C1047 C 0.62822 0.06499 0.28518
 C1048 C 0.61502 0.04172 0.28956
 C1049 C 0.58914 0.04000 0.28192
 N1050 N 0.57798 0.05953 0.26954
 C1051 C 0.57754 0.10046 0.24838
 N1052 N 0.56053 0.09129 0.23128
 C1053 C 0.54698 0.10677 0.21599
 C1054 C 0.54967 0.13338 0.21777
 C1055 C 0.56710 0.14342 0.23529
 C1056 C 0.58130 0.12698 0.25051
 H1057 H 0.64844 0.06705 0.28969
 H1058 H 0.57781 0.02286 0.28533
 H1059 H 0.53360 0.09819 0.20295
 H1060 H 0.56960 0.16387 0.23731
 H1061 H 0.62679 0.10239 0.26856
 H1062 H 0.59441 0.13490 0.26418
 C1063 C 0.39033 0.07908 0.75916
 C1064 C 0.38238 0.05623 0.77072
 C1065 C 0.37168 0.03663 0.75651
 C1066 C 0.36851 0.03944 0.73067
 C1067 C 0.37619 0.06287 0.71988
 N1068 N 0.38699 0.08162 0.73413
 C1069 C 0.40483 0.09915 0.77295
 N1070 N 0.42045 0.11554 0.76002
 C1071 C 0.43666 0.13237 0.77152
 C1072 C 0.43840 0.13269 0.79757
 C1073 C 0.42158 0.11697 0.81125
 C1074 C 0.40454 0.10051 0.79908
 H1075 H 0.36606 0.01905 0.76581
 H1076 H 0.37521 0.06570 0.69995
 H1077 H 0.44922 0.14436 0.76032
 H1078 H 0.42200 0.11702 0.83140
 H1079 H 0.38538 0.05274 0.79032
 H1080 H 0.39179 0.08870 0.81021
 C1081 C 0.59705 0.74152 0.08922
 C1082 C 0.59267 0.71549 0.08411
 C1083 C 0.60569 0.70400 0.06438
 C1084 C 0.62318 0.71830 0.05000
 C1085 C 0.62777 0.74389 0.05632
 N1086 N 0.61456 0.75476 0.07526
 C1087 C 0.58113 0.75597 0.10705
 N1088 N 0.57869 0.78154 0.10329
 C1089 C 0.56304 0.79622 0.11734
 C1090 C 0.54837 0.78524 0.13658
 C1091 C 0.55125 0.75909 0.14155
 C1092 C 0.56758 0.74435 0.12680
 H1093 H 0.60130 0.68434 0.05962
 H1094 H 0.64101 0.75551 0.04548
 H1095 H 0.56172 0.81638 0.11309
 H1096 H 0.54037 0.74993 0.15633
 H1097 H 0.57835 0.70444 0.09417
 H1098 H 0.56936 0.72418 0.13077
 C1099 C 0.40796 0.26011 0.08831
 C1100 C 0.41144 0.28672 0.08622
 C1101 C 0.39959 0.29987 0.06671
 C1102 C 0.38417 0.28655 0.04962
 C1103 C 0.38034 0.26027 0.05291
 N1104 N 0.39230 0.24787 0.07175
 C1105 C 0.42249 0.24485 0.10675
 N1106 N 0.43793 0.25657 0.12388
 C1107 C 0.45311 0.24316 0.13979
 C1108 C 0.45377 0.21639 0.13851
 C1109 C 0.43757 0.20397 0.12142
 C1110 C 0.42184 0.21806 0.10569
 H1111 H 0.40309 0.32018 0.06444
 H1112 H 0.36859 0.24946 0.03994
 H1113 H 0.46530 0.25345 0.15276
 H1114 H 0.43731 0.18334 0.11993
 H1115 H 0.42388 0.29708 0.09891
 H1116 H 0.40990 0.20800 0.09234
 C1117 C 0.60988 0.23803 0.91249
 C1118 C 0.63050 0.22537 0.92391
 C1119 C 0.64387 0.23723 0.94325
 C1120 C 0.63719 0.26184 0.95079
 C1121 C 0.61774 0.27459 0.93786
 N1122 N 0.60453 0.26243 0.91943
 C1123 C 0.59231 0.22473 0.89498
 N1124 N 0.57816 0.23859 0.87851
 C1125 C 0.55979 0.22767 0.86376
 C1126 C 0.55421 0.20146 0.86581
 C1127 C 0.56883 0.18682 0.88236
 C1128 C 0.58785 0.19829 0.89686
 H1129 H 0.65886 0.22695 0.95289
 H1130 H 0.61216 0.29364 0.94332
 H1131 H 0.54885 0.23963 0.85127
 H1132 H 0.56515 0.16653 0.88454
 H1133 H 0.63585 0.20625 0.91851
 H1134 H 0.59793 0.18664 0.91026
 C1135 C 0.40053 0.74969 0.91078
 C1136 C 0.40187 0.72295 0.91308
 C1137 C 0.38942 0.71071 0.93295
 C1138 C 0.37551 0.72507 0.95020
 C1139 C 0.37392 0.75151 0.94681
 N1140 N 0.38642 0.76301 0.92759
 C1141 C 0.41576 0.76381 0.89178
 N1142 N 0.42992 0.75092 0.87465
 C1143 C 0.44602 0.76309 0.85841
 C1144 C 0.44911 0.78976 0.85939
 C1145 C 0.43408 0.80344 0.87631
 C1146 C 0.41731 0.79061 0.89236
 H1147 H 0.39116 0.69024 0.93526
 H1148 H 0.36335 0.76310 0.95988
 H1149 H 0.45725 0.75183 0.84561
 H1150 H 0.43577 0.82404 0.87759
 H1151 H 0.41307 0.71174 0.90020
 H1152 H 0.40642 0.80157 0.90569
 C1153 C 0.74393 0.90756 0.40248
 C1154 C 0.75199 0.91826 0.37971
 C1155 C 0.73799 0.93818 0.36919
 C1156 C 0.71598 0.94714 0.38119
 C1157 C 0.70778 0.93512 0.40314
 N1158 N 0.72185 0.91597 0.41320
 C1159 C 0.75994 0.88924 0.41641
 N1160 N 0.74848 0.87296 0.43296
 C1161 C 0.76228 0.85799 0.44869
 C1162 C 0.78922 0.85980 0.44903
 C1163 C 0.80142 0.87597 0.43174
 C1164 C 0.78691 0.89056 0.41532
 H1165 H 0.74478 0.94720 0.35223
 H1166 H 0.69081 0.94168 0.41279
 H1167 H 0.75216 0.84583 0.46184
 H1168 H 0.82219 0.87794 0.43145
 H1169 H 0.76920 0.91179 0.37043
 H1170 H 0.79678 0.90381 0.40302
 C1171 C 0.26424 0.91480 0.58629
 C1172 C 0.26681 0.91213 0.61215
 C1173 C 0.27783 0.93206 0.62592
 C1174 C 0.28694 0.95420 0.61385
 C1175 C 0.28479 0.95562 0.58786
 N1176 N 0.27329 0.93637 0.57498
 C1177 C 0.24977 0.89600 0.57129
 N1178 N 0.23414 0.90475 0.55294
 C1179 C 0.21985 0.88881 0.53847
 C1180 C 0.22124 0.86228 0.54175
 C1181 C 0.23757 0.85273 0.56028
 C1182 C 0.25165 0.86958 0.57534
 H1183 H 0.27845 0.93059 0.64601
 H1184 H 0.29144 0.97245 0.57791
 H1185 H 0.20774 0.89688 0.52414
 H1186 H 0.23920 0.83234 0.56326
 H1187 H 0.25918 0.89548 0.62173
 H1188 H 0.26417 0.86208 0.58964
 C1189 C 0.24747 0.07769 0.40406
 C1190 C 0.23497 0.06422 0.38488
 C1191 C 0.24840 0.04595 0.37144
 C1192 C 0.27429 0.04131 0.37678
 C1193 C 0.28648 0.05588 0.39529
 N1194 N 0.27291 0.07345 0.40838
 C1195 C 0.23332 0.09539 0.42041
 N1196 N 0.24611 0.11526 0.43135
 C1197 C 0.23433 0.13154 0.44735
 C1198 C 0.20829 0.12791 0.45356
 C1199 C 0.19485 0.10747 0.44259
 C1200 C 0.20722 0.09125 0.42604
 H1201 H 0.23846 0.03497 0.35726
 H1202 H 0.30644 0.05261 0.39993
 H1203 H 0.24545 0.14698 0.45553
 H1204 H 0.17478 0.10387 0.44692
 H1205 H 0.21496 0.06749 0.38046
 H1206 H 0.19657 0.07522 0.41840
 C1207 C 0.73829 0.10027 0.60025
 C1208 C 0.71243 0.09310 0.59613
 C1209 C 0.70227 0.07155 0.60821
 C1210 C 0.71774 0.05733 0.62433
 C1211 C 0.74299 0.06561 0.62872
 N1212 N 0.75254 0.08638 0.61658
 C1213 C 0.75184 0.12004 0.58523
 N1214 N 0.77799 0.11944 0.58482
 C1215 C 0.79233 0.13444 0.56947
 C1216 C 0.78036 0.15111 0.55274
 C1217 C 0.75351 0.15334 0.55376
 C1218 C 0.73913 0.13784 0.57001
 H1219 H 0.68274 0.06535 0.60426
 H1220 H 0.75540 0.05495 0.64105
 H1221 H 0.81304 0.13245 0.56961
 H1222 H 0.74358 0.16607 0.54119
 H1223 H 0.70049 0.10300 0.58287
 H1224 H 0.71842 0.13947 0.57006
 C1225 C 0.90484 0.60423 0.25110
 C1226 C 0.90898 0.60034 0.27666
 C1227 C 0.92943 0.61296 0.28846
 C1228 C 0.94540 0.62973 0.27496
 C1229 C 0.93972 0.63419 0.24985
 N1230 N 0.92010 0.62130 0.23866
 C1231 C 0.88627 0.58811 0.23698
 N1232 N 0.86999 0.57171 0.24915
 C1233 C 0.85479 0.55454 0.23686
 C1234 C 0.85621 0.55258 0.21086
 C1235 C 0.87216 0.56984 0.19796
 C1236 C 0.88698 0.58774 0.21088
 H1237 H 0.93355 0.60874 0.30779
 H1238 H 0.95169 0.64697 0.23885
 H1239 H 0.84269 0.54155 0.24748
 H1240 H 0.87368 0.56908 0.17787
 H1241 H 0.89745 0.58673 0.28713
 H1242 H 0.89971 0.60034 0.20051
 C1243 C 0.91832 0.40959 0.74087
 C1244 C 0.91587 0.38317 0.73680
 C1245 C 0.93552 0.37031 0.72434
 C1246 C 0.95705 0.38390 0.71537
 C1247 C 0.95828 0.41037 0.71927
 N1248 N 0.93938 0.42229 0.73202
 C1249 C 0.89986 0.42381 0.75622
 N1250 N 0.90920 0.44231 0.77160
 C1251 C 0.89367 0.45670 0.78607
 C1252 C 0.86688 0.45334 0.78509
 C1253 C 0.85670 0.43455 0.76917
 C1254 C 0.87319 0.41948 0.75490
 H1255 H 0.93427 0.34976 0.72226
 H1256 H 0.97469 0.42145 0.71281
 H1257 H 0.90226 0.47118 0.79788
 H1258 H 0.83610 0.43149 0.76788
 H1259 H 0.89962 0.37246 0.74414
 H1260 H 0.86520 0.40513 0.74256
 C1261 C 0.08292 0.59507 0.74522
 C1262 C 0.07774 0.59182 0.71973
 C1263 C 0.05827 0.60609 0.70855
 C1264 C 0.04440 0.62375 0.72262
 C1265 C 0.05063 0.62688 0.74779
 N1266 N 0.06924 0.61248 0.75836
 C1267 C 0.10095 0.57855 0.75894
 N1268 N 0.09640 0.57418 0.78352
 C1269 C 0.11132 0.55861 0.79749
 C1270 C 0.13249 0.54637 0.78681
 C1271 C 0.13801 0.55104 0.76162
 C1272 C 0.12222 0.56704 0.74757
 H1273 H 0.05346 0.60278 0.68920
 H1274 H 0.04006 0.64014 0.75924
 H1275 H 0.10654 0.55578 0.81691
 H1276 H 0.15424 0.54204 0.75272
 H1277 H 0.08762 0.57762 0.70883
 H1278 H 0.12676 0.57046 0.72819
 C1279 C 0.08830 0.40889 0.26228
 C1280 C 0.08697 0.38222 0.26011
 C1281 C 0.06741 0.36877 0.27251
 C1282 C 0.04993 0.38182 0.28767
 C1283 C 0.05301 0.40833 0.29041
 N1284 N 0.07145 0.42110 0.27737
 C1285 C 0.10494 0.42429 0.24592
 N1286 N 0.09403 0.44335 0.23248
 C1287 C 0.10789 0.45834 0.21670
 C1288 C 0.13446 0.45496 0.21428
 C1289 C 0.14628 0.43568 0.22823
 C1290 C 0.13143 0.41992 0.24381
 H1291 H 0.06516 0.34844 0.26934
 H1292 H 0.03978 0.41906 0.30180
 H1293 H 0.09822 0.47328 0.20646
 H1294 H 0.16681 0.43266 0.22681
 H1295 H 0.09976 0.37220 0.24768
 H1296 H 0.14049 0.40489 0.25442
   
