data_POSCAR
  _audit_creation_date              2014-09-24
  _audit_creation_method            'ToBaCCo'
  _symmetry_space_group_name_H-M    'P1'
  _symmetry_Int_Tables_number       1
  _symmetry_cell_setting            triclinic
  loop_
  _symmetry_equiv_pos_as_xyz
 x,y,z
_cell_length_a 91.1139
_cell_length_b 85.2849
_cell_length_c 89.3894
_cell_angle_alpha 89.986800
_cell_angle_beta 90.004900
_cell_angle_gamma 89.974400
loop_
  _atom_site_label
  _atom_site_type_symbol
  _atom_site_fract_x
  _atom_site_fract_y
  _atom_site_fract_z
C1 C 0.35820 0.33542 0.33722
 C2 C 0.35117 0.34873 0.33131
 C3 C 0.33862 0.35504 0.33818
 C4 C 0.33319 0.34793 0.35123
 C5 C 0.34005 0.33464 0.35737
 C6 C 0.35256 0.32849 0.35027
 H7 H 0.35541 0.35412 0.32123
 H8 H 0.32350 0.35269 0.35658
 H9 H 0.35784 0.31819 0.35488
 C10 C 0.35978 0.83468 -0.16316
 C11 C 0.35268 0.84790 -0.16940
 C12 C 0.33951 0.85400 -0.16344
 C13 C 0.33368 0.84675 -0.15057
 C14 C 0.34066 0.83390 -0.14384
 C15 C 0.35360 0.82794 -0.15018
 H16 H 0.35805 0.85421 -0.17832
 H17 H 0.32320 0.85043 -0.14611
 H18 H 0.35848 0.81769 -0.14511
 C19 C 0.85951 0.33339 -0.16091
 C20 C 0.85215 0.34597 -0.16777
 C21 C 0.83929 0.35251 -0.16150
 C22 C 0.83391 0.34585 -0.14809
 C23 C 0.84109 0.33323 -0.14111
 C24 C 0.85394 0.32720 -0.14753
 H25 H 0.85610 0.34994 -0.17853
 H26 H 0.82425 0.35058 -0.14274
 H27 H 0.85974 0.31776 -0.14197
 C28 C 0.85800 0.83318 0.33789
 C29 C 0.85102 0.84598 0.33098
 C30 C 0.83794 0.85247 0.33682
 C31 C 0.83198 0.84555 0.34985
 C32 C 0.83884 0.83281 0.35695
 C33 C 0.85190 0.82681 0.35094
 H34 H 0.85611 0.85098 0.32116
 H35 H 0.82147 0.84938 0.35412
 H36 H 0.85745 0.81725 0.35656
 C37 C 0.64136 0.66423 0.33909
 C38 C 0.64868 0.65187 0.33184
 C39 C 0.66150 0.64530 0.33793
 C40 C 0.66708 0.65139 0.35139
 C41 C 0.66003 0.66384 0.35875
 C42 C 0.64707 0.67004 0.35260
 H43 H 0.64465 0.64770 0.32116
 H44 H 0.67705 0.64652 0.35607
 H45 H 0.64132 0.67930 0.35845
 C46 C 0.64391 0.16537 -0.16222
 C47 C 0.65061 0.15217 -0.16870
 C48 C 0.66377 0.14583 -0.16294
 C49 C 0.66982 0.15291 -0.15005
 C50 C 0.66310 0.16588 -0.14318
 C51 C 0.65018 0.17207 -0.14940
 H52 H 0.64506 0.14654 -0.17792
 H53 H 0.68028 0.14903 -0.14571
 H54 H 0.64507 0.18220 -0.14429
 C55 C 0.14303 0.66538 -0.16263
 C56 C 0.15024 0.65282 -0.16967
 C57 C 0.16322 0.64625 -0.16367
 C58 C 0.16886 0.65286 -0.15036
 C59 C 0.16184 0.66547 -0.14320
 C60 C 0.14886 0.67152 -0.14934
 H61 H 0.14608 0.64889 -0.18035
 H62 H 0.17862 0.64811 -0.14521
 H63 H 0.14317 0.68092 -0.14364
 C64 C 0.14209 0.16401 0.33963
 C65 C 0.14890 0.15128 0.33245
 C66 C 0.16209 0.14495 0.33795
 C67 C 0.16849 0.15158 0.35077
 C68 C 0.16181 0.16423 0.35820
 C69 C 0.14855 0.17026 0.35260
 H70 H 0.14399 0.14636 0.32248
 H71 H 0.17896 0.14721 0.35470
 H72 H 0.14313 0.17974 0.35847
 C73 C 0.64055 0.33445 0.66322
 C74 C 0.64599 0.32859 0.64961
 C75 C 0.65880 0.33478 0.64315
 C76 C 0.66600 0.34726 0.65033
 C77 C 0.66069 0.35339 0.66388
 C78 C 0.64801 0.34683 0.67026
 H79 H 0.64014 0.31929 0.64391
 H80 H 0.67585 0.35213 0.64542
 H81 H 0.64420 0.35104 0.68101
 C82 C 0.64287 0.83367 1.16392
 C83 C 0.64937 0.82726 1.15095
 C84 C 0.66200 0.83388 1.14461
 C85 C 0.66818 0.84725 1.15119
 C86 C 0.66236 0.85385 1.16436
 C87 C 0.64964 0.84691 1.17051
 H88 H 0.64452 0.81725 1.14544
 H89 H 0.67729 0.85278 1.14553
 H90 H 0.64574 0.85096 1.18123
 C91 C 0.14228 0.33490 1.16455
 C92 C 0.14808 0.32884 1.15107
 C93 C 0.16088 0.33506 1.14460
 C94 C 0.16786 0.34778 1.15152
 C95 C 0.16234 0.35419 1.16483
 C96 C 0.14966 0.34767 1.17126
 H97 H 0.14238 0.31968 1.14507
 H98 H 0.17770 0.35265 1.14658
 H99 H 0.14617 0.35209 1.18202
 C100 C 0.13939 0.83538 0.66256
 C101 C 0.14584 0.82918 0.64949
 C102 C 0.15899 0.83523 0.64375
 C103 C 0.16579 0.84782 0.65105
 C104 C 0.15967 0.85461 0.66402
 C105 C 0.14643 0.84820 0.66958
 H106 H 0.14038 0.82004 0.64324
 H107 H 0.17637 0.85165 0.64698
 H108 H 0.14164 0.85316 0.67951
 C109 C 0.35792 0.66656 0.66240
 C110 C 0.35205 0.67336 0.64938
 C111 C 0.33938 0.66718 0.64261
 C112 C 0.33259 0.65402 0.64905
 C113 C 0.33823 0.64706 0.66208
 C114 C 0.35094 0.65338 0.66862
 H115 H 0.35728 0.68357 0.64454
 H116 H 0.32278 0.64925 0.64395
 H117 H 0.35535 0.64809 0.67867
 C118 C 0.35699 0.16578 1.16075
 C119 C 0.35083 0.17204 1.14768
 C120 C 0.33769 0.16606 1.14184
 C121 C 0.33084 0.15342 1.14909
 C122 C 0.33688 0.14660 1.16214
 C123 C 0.35003 0.15309 1.16783
 H124 H 0.35637 0.18150 1.14192
 H125 H 0.32029 0.14960 1.14494
 H126 H 0.35517 0.14817 1.17765
 C127 C 0.85909 0.66558 1.15979
 C128 C 0.85270 0.67194 1.14683
 C129 C 0.83945 0.66600 1.14114
 C130 C 0.83269 0.65335 1.14848
 C131 C 0.83902 0.64660 1.16129
 C132 C 0.85221 0.65283 1.16687
 H133 H 0.85817 0.68143 1.14103
 H134 H 0.82222 0.64906 1.14449
 H135 H 0.85707 0.64783 1.17684
 C136 C 0.85816 0.16749 0.65941
 C137 C 0.85159 0.17393 0.64650
 C138 C 0.83836 0.16804 0.64080
 C139 C 0.83157 0.15537 0.64801
 C140 C 0.83778 0.14837 0.66083
 C141 C 0.85111 0.15462 0.66633
 H142 H 0.85704 0.18315 0.64032
 H143 H 0.82094 0.15165 0.64399
 H144 H 0.85599 0.14947 0.67614
 C145 C 0.33908 0.35313 0.66272
 C146 C 0.33372 0.34617 0.64957
 C147 C 0.34065 0.33299 0.64332
 C148 C 0.35315 0.32679 0.65039
 C149 C 0.35873 0.33359 0.66354
 C150 C 0.35163 0.34680 0.66957
 H151 H 0.32404 0.35095 0.64424
 H152 H 0.35849 0.31657 0.64570
 H153 H 0.35581 0.35210 0.67971
 C154 C 0.33951 0.85392 0.16187
 C155 C 0.35254 0.84778 0.16789
 C156 C 0.35928 0.83449 0.16163
 C157 C 0.35309 0.82767 0.14878
 C158 C 0.34021 0.83381 0.14238
 C159 C 0.33344 0.84684 0.14910
 H160 H 0.35753 0.85347 0.17744
 H161 H 0.35823 0.81747 0.14382
 H162 H 0.32316 0.85118 0.14466
 C163 C 0.83946 0.35344 0.16359
 C164 C 0.85249 0.34734 0.16964
 C165 C 0.85921 0.33398 0.16346
 C166 C 0.85297 0.32704 0.15069
 C167 C 0.84008 0.33314 0.14428
 C168 C 0.83335 0.34625 0.15091
 H169 H 0.85752 0.35311 0.17912
 H170 H 0.85809 0.31679 0.14581
 H171 H 0.82306 0.35056 0.14646
 C172 C 0.83928 0.85408 0.66120
 C173 C 0.83371 0.84717 0.64811
 C174 C 0.84039 0.83385 0.64184
 C175 C 0.85285 0.82746 0.64882
 C176 C 0.85863 0.83420 0.66191
 C177 C 0.85179 0.84754 0.66796
 H178 H 0.82405 0.85210 0.64286
 H179 H 0.85800 0.81714 0.64412
 H180 H 0.85612 0.85278 0.67807
 C181 C 0.66182 0.64379 0.66367
 C182 C 0.64887 0.65052 0.66928
 C183 C 0.64260 0.66378 0.66247
 C184 C 0.64947 0.67029 0.64982
 C185 C 0.66245 0.66376 0.64403
 C186 C 0.66848 0.65046 0.65101
 H187 H 0.64372 0.64550 0.67909
 H188 H 0.64478 0.68056 0.64456
 H189 H 0.67849 0.64537 0.64665
 C190 C 0.66164 0.14557 0.16343
 C191 C 0.64851 0.15175 0.16917
 C192 C 0.64187 0.16497 0.16266
 C193 C 0.64829 0.17169 0.14988
 C194 C 0.66129 0.16552 0.14378
 C195 C 0.66793 0.15254 0.15073
 H196 H 0.64334 0.14614 0.17867
 H197 H 0.64323 0.18184 0.14474
 H198 H 0.67829 0.14817 0.14651
 C199 C 0.16255 0.64708 0.16236
 C200 C 0.14950 0.65335 0.16821
 C201 C 0.14289 0.66663 0.16179
 C202 C 0.14924 0.67333 0.14896
 C203 C 0.16215 0.66707 0.14274
 C204 C 0.16877 0.65403 0.14961
 H205 H 0.14439 0.64775 0.17775
 H206 H 0.14420 0.68352 0.14389
 H207 H 0.17908 0.64961 0.14529
 C208 C 0.16176 0.14592 0.66293
 C209 C 0.16839 0.15249 0.65019
 C210 C 0.16192 0.16519 0.64265
 C211 C 0.14865 0.17137 0.64807
 C212 C 0.14196 0.16519 0.66094
 C213 C 0.14856 0.15239 0.66823
 H214 H 0.17887 0.14800 0.64639
 H215 H 0.14338 0.18089 0.64211
 H216 H 0.14346 0.14753 0.67813
 C217 C 0.33740 0.64880 0.33805
 C218 C 0.35019 0.65525 0.33177
 C219 C 0.35749 0.66782 0.33869
 C220 C 0.35178 0.67400 0.35204
 C221 C 0.33886 0.66794 0.35838
 C222 C 0.33183 0.65526 0.35135
 H223 H 0.35422 0.65077 0.32121
 H224 H 0.35752 0.68343 0.35766
 H225 H 0.32190 0.65048 0.35619
 C226 C 0.33690 0.14629 0.83818
 C227 C 0.33057 0.15350 0.85075
 C228 C 0.33722 0.16657 0.85752
 C229 C 0.35027 0.17259 0.85138
 C230 C 0.35671 0.16563 0.83873
 C231 C 0.35006 0.15233 0.83240
 H232 H 0.32018 0.14923 0.85499
 H233 H 0.35534 0.18280 0.85639
 H234 H 0.35525 0.14655 0.82301
 C235 C 0.83798 0.64559 0.83826
 C236 C 0.85083 0.65204 0.83210
 C237 C 0.85804 0.66464 0.83907
 C238 C 0.85219 0.67081 0.85237
 C239 C 0.83920 0.66476 0.85857
 C240 C 0.83227 0.65206 0.85149
 H241 H 0.85497 0.64756 0.82158
 H242 H 0.85785 0.68026 0.85803
 H243 H 0.82229 0.64729 0.85623
 C244 C 0.83733 0.14767 0.33748
 C245 C 0.83095 0.15490 0.35001
 C246 C 0.83751 0.16806 0.35672
 C247 C 0.85051 0.17416 0.35054
 C248 C 0.85700 0.16718 0.33792
 C249 C 0.85044 0.15379 0.33166
 H250 H 0.82060 0.15057 0.35429
 H251 H 0.85551 0.18443 0.35549
 H252 H 0.85567 0.14799 0.32230
 C253 C 0.66045 0.35493 0.33525
 C254 C 0.64777 0.34840 0.32884
 C255 C 0.64033 0.33596 0.33585
 C256 C 0.64578 0.33005 0.34943
 C257 C 0.65859 0.33621 0.35590
 C258 C 0.66577 0.34873 0.34878
 H259 H 0.64394 0.35267 0.31812
 H260 H 0.63993 0.32073 0.35510
 H261 H 0.67562 0.35358 0.35372
 C262 C 0.66337 0.85450 0.83503
 C263 C 0.65067 0.84793 0.82868
 C264 C 0.64333 0.83544 0.83568
 C265 C 0.64888 0.82950 0.84921
 C266 C 0.66172 0.83568 0.85562
 C267 C 0.66881 0.84826 0.84849
 H268 H 0.64676 0.85223 0.81800
 H269 H 0.64309 0.82015 0.85489
 H270 H 0.67868 0.85312 0.85338
 C271 C 0.16159 0.35370 0.83550
 C272 C 0.16698 0.34751 0.84900
 C273 C 0.15989 0.33493 0.85611
 C274 C 0.14711 0.32869 0.84966
 C275 C 0.14159 0.33459 0.83610
 C276 C 0.14893 0.34709 0.82910
 H277 H 0.17681 0.35242 0.85393
 H278 H 0.14132 0.31933 0.85532
 H279 H 0.14504 0.35137 0.81841
 C280 C 0.16156 0.85336 0.33638
 C281 C 0.16712 0.84724 0.34984
 C282 C 0.16008 0.83475 0.35716
 C283 C 0.14715 0.82855 0.35096
 C284 C 0.14145 0.83439 0.33746
 C285 C 0.14876 0.84678 0.33025
 H286 H 0.17706 0.85212 0.35457
 H287 H 0.14140 0.81927 0.35678
 H288 H 0.14474 0.85100 0.31958
 O289 O 0.24771 1.01447 0.26799
 O290 O 0.26878 0.98455 0.24752
 O291 O 0.26836 1.01515 0.24788
 O292 O 0.24820 0.98394 0.26755
 O293 O 0.23132 0.98415 0.24987
 O294 O 0.25179 1.01494 0.22989
 O295 O 0.25202 0.98443 0.22971
 O296 O 0.23117 1.01475 0.24997
 Cu297 Cu 0.25994 0.99954 0.25952
 Cu298 Cu 0.23989 0.99955 0.23807
 C299 C 0.23588 1.01982 0.26244
 C300 C 0.26397 0.97930 0.23516
 C301 C 0.26354 1.02039 0.23551
 C302 C 0.23631 0.97869 0.26208
 O303 O 0.25162 0.51537 0.72939
 O304 O 0.23142 0.48480 0.74992
 O305 O 0.23149 0.51529 0.75000
 O306 O 0.25162 0.48472 0.72935
 O307 O 0.26886 0.48480 0.74667
 O308 O 0.24868 0.51525 0.76737
 O309 O 0.24867 0.48457 0.76724
 O310 O 0.26883 0.51523 0.74675
 Cu311 Cu 0.23983 0.50005 0.73791
 Cu312 Cu 0.26046 0.49996 0.75877
 C313 C 0.26366 0.52057 0.73457
 C314 C 0.23662 0.47940 0.76206
 C315 C 0.23667 0.52055 0.76220
 C316 C 0.26368 0.47952 0.73448
 O317 O 0.74815 -0.01546 0.23260
 O318 O 0.76874 0.01522 0.25251
 O319 O 0.76889 -0.01541 0.25250
 O320 O 0.74808 0.01502 0.23242
 O321 O 0.73161 0.01528 0.25051
 O322 O 0.75217 -0.01557 0.27034
 O323 O 0.75227 0.01497 0.27060
 O324 O 0.73135 -0.01529 0.25036
 Cu325 Cu 0.76015 -0.00014 0.24073
 Cu326 Cu 0.74018 -0.00016 0.26225
 C327 C 0.73622 -0.02062 0.23805
 C328 C 0.76403 0.02036 0.26497
 C329 C 0.76405 -0.02079 0.26479
 C330 C 0.73631 0.02041 0.23805
 O331 O 0.75202 0.48299 0.77104
 O332 O 0.73143 0.51348 0.75083
 O333 O 0.73153 0.48298 0.75075
 O334 O 0.75190 0.51363 0.77098
 O335 O 0.76872 0.51374 0.75323
 O336 O 0.74857 0.48278 0.73322
 O337 O 0.74813 0.51334 0.73296
 O338 O 0.76902 0.48322 0.75347
 Cu339 Cu 0.74005 0.49825 0.76269
 Cu340 Cu 0.76030 0.49829 0.74144
 C341 C 0.76403 0.47786 0.76572
 C342 C 0.73624 0.51863 0.73843
 C343 C 0.73660 0.47758 0.73855
 C344 C 0.76375 0.51901 0.76552
 O345 O 0.24872 0.48565 0.23278
 O346 O 0.26853 0.51689 0.25278
 O347 O 0.26889 0.48642 0.25335
 O348 O 0.24831 0.51624 0.23214
 O349 O 0.23135 0.51660 0.24975
 O350 O 0.25157 0.48630 0.27060
 O351 O 0.25146 0.51693 0.27027
 O352 O 0.23139 0.48608 0.25000
 Cu353 Cu 0.26032 0.50129 0.24100
 Cu354 Cu 0.23973 0.50148 0.26191
 C355 C 0.23666 0.48051 0.23796
 C356 C 0.26338 0.52227 0.26495
 C357 C 0.26370 0.48118 0.26556
 C358 C 0.23636 0.52162 0.23739
 O359 O 0.74985 1.01586 0.76732
 O360 O 0.77054 0.98613 0.74612
 O361 O 0.77005 1.01667 0.74677
 O362 O 0.75029 0.98529 0.76661
 O363 O 0.73295 0.98581 0.74940
 O364 O 0.75322 1.01647 0.72904
 O365 O 0.75319 0.98589 0.72890
 O366 O 0.73301 1.01633 0.74959
 Cu367 Cu 0.76189 1.00097 0.75846
 Cu368 Cu 0.74139 1.00114 0.73748
 C369 C 0.73794 1.02128 0.76202
 C370 C 0.76533 0.98080 0.73395
 C371 C 0.76504 1.02193 0.73449
 C372 C 0.73821 0.98020 0.76142
 O373 O 0.73201 0.48538 0.25012
 O374 O 0.75275 0.51591 0.23011
 O375 O 0.75276 0.48539 0.23005
 O376 O 0.73206 0.51591 0.25025
 O377 O 0.74882 0.51584 0.26806
 O378 O 0.76940 0.48532 0.24797
 O379 O 0.76940 0.51590 0.24802
 O380 O 0.74875 0.48524 0.26795
 Cu381 Cu 0.74072 0.50066 0.23834
 Cu382 Cu 0.76076 0.50057 0.25979
 C383 C 0.73686 0.48003 0.26243
 C384 C 0.76460 0.52118 0.23567
 C385 C 0.76460 0.48009 0.23560
 C386 C 0.73695 0.52115 0.26259
 O387 O 0.26726 0.01492 0.75253
 O388 O 0.24648 -0.01568 0.73267
 O389 O 0.24643 0.01478 0.73265
 O390 O 0.26742 -0.01568 0.75245
 O391 O 0.25095 -0.01581 0.77053
 O392 O 0.23004 0.01491 0.75082
 O393 O 0.23000 -0.01575 0.75074
 O394 O 0.25089 0.01468 0.77072
 Cu395 Cu 0.25856 -0.00041 0.74078
 Cu396 Cu 0.23880 -0.00050 0.76250
 C397 C 0.26263 0.02006 0.76502
 C398 C 0.23469 -0.02097 0.73831
 C399 C 0.23468 0.02011 0.73836
 C400 C 0.26277 -0.02101 0.76484
 O401 O 0.24448 0.27141 0.98560
 O402 O 0.26665 0.25171 1.01450
 O403 O 0.26646 0.25195 0.98524
 O404 O 0.24473 0.27127 1.01467
 O405 O 0.22933 0.25132 1.01478
 O406 O 0.25107 0.23200 0.98535
 O407 O 0.25124 0.23177 1.01442
 O408 O 0.22909 0.25145 0.98555
 Cu409 Cu 0.25715 0.26357 1.00000
 Cu410 Cu 0.23862 0.23966 1.00003
 C411 C 0.23301 0.26477 0.98058
 C412 C 0.26271 0.23839 1.01944
 C413 C 0.26246 0.23869 0.98021
 C414 C 0.23333 0.26459 1.01980
 O415 O 0.24586 0.77209 0.48632
 O416 O 0.26812 0.75289 0.51544
 O417 O 0.26803 0.75284 0.48620
 O418 O 0.24590 0.77206 0.51541
 O419 O 0.23075 0.75189 0.51553
 O420 O 0.25285 0.73270 0.48633
 O421 O 0.25296 0.73273 0.51537
 O422 O 0.23069 0.75194 0.48629
 Cu423 Cu 0.25851 0.76448 0.50084
 Cu424 Cu 0.24027 0.74032 0.50088
 C425 C 0.23448 0.76529 0.48129
 C426 C 0.26433 0.73953 0.52041
 C427 C 0.26421 0.73948 0.48125
 C428 C 0.23457 0.76523 0.52052
 O429 O 0.24821 0.73006 0.01385
 O430 O 0.27026 0.74904 -0.01556
 O431 O 0.27039 0.74922 0.01371
 O432 O 0.24809 0.72981 -0.01522
 O433 O 0.23291 0.74996 -0.01537
 O434 O 0.25520 0.76938 0.01355
 O435 O 0.25507 0.76919 -0.01552
 O436 O 0.23304 0.75022 0.01386
 Cu437 Cu 0.26078 0.73753 -0.00081
 Cu438 Cu 0.24252 0.76169 -0.00089
 C439 C 0.23689 0.73692 0.01893
 C440 C 0.26641 0.76235 -0.02061
 C441 C 0.26656 0.76259 0.01865
 C442 C 0.23670 0.73658 -0.02028
 O443 O 0.23433 0.24825 0.48555
 O444 O 0.25646 0.26757 0.51465
 O445 O 0.25634 0.26766 0.48562
 O446 O 0.23441 0.24824 0.51478
 O447 O 0.24971 0.22820 0.51466
 O448 O 0.27166 0.24763 0.48541
 O449 O 0.27178 0.24754 0.51468
 O450 O 0.24964 0.22821 0.48556
 Cu451 Cu 0.24383 0.25991 0.50016
 Cu452 Cu 0.26225 0.23590 0.50007
 C453 C 0.23822 0.23494 0.48053
 C454 C 0.26788 0.26085 0.51969
 C455 C 0.26773 0.26097 0.48049
 C456 C 0.23833 0.23494 0.51978
 O457 O 0.73029 0.75149 1.01410
 O458 O 0.75203 0.73144 0.98507
 O459 O 0.75201 0.73161 1.01415
 O460 O 0.73035 0.75133 0.98489
 O461 O 0.74592 0.77113 0.98506
 O462 O 0.76784 0.75116 1.01395
 O463 O 0.76760 0.75123 0.98479
 O464 O 0.74625 0.77092 1.01421
 Cu465 Cu 0.73957 0.73951 0.99956
 Cu466 Cu 0.75847 0.76308 0.99947
 C467 C 0.73465 0.76457 1.01925
 C468 C 0.76351 0.73793 0.97992
 C469 C 0.76364 0.73801 1.01907
 C470 C 0.73443 0.76460 0.97996
 O471 O 0.74399 0.27241 0.48466
 O472 O 0.76629 0.25299 0.51360
 O473 O 0.76615 0.25317 0.48433
 O474 O 0.74411 0.27223 0.51372
 O475 O 0.72892 0.25210 0.51374
 O476 O 0.75096 0.23303 0.48441
 O477 O 0.75108 0.23287 0.51349
 O478 O 0.72881 0.25228 0.48453
 Cu479 Cu 0.75668 0.26470 0.49908
 Cu480 Cu 0.73841 0.24057 0.49904
 C481 C 0.73260 0.26565 0.47961
 C482 C 0.76247 0.23963 0.51855
 C483 C 0.76229 0.23986 0.47930
 C484 C 0.73275 0.26541 0.51878
 O485 O 0.73284 0.24952 -0.01385
 O486 O 0.75462 0.26852 0.01574
 O487 O 0.75501 0.26873 -0.01330
 O488 O 0.73245 0.24936 0.01543
 O489 O 0.74762 0.22920 0.01545
 O490 O 0.77019 0.24857 -0.01328
 O491 O 0.76979 0.24836 0.01595
 O492 O 0.74802 0.22937 -0.01365
 Cu493 Cu 0.74218 0.26103 0.00099
 Cu494 Cu 0.76044 0.23686 0.00112
 C495 C 0.73674 0.23622 -0.01887
 C496 C 0.76590 0.26168 0.02095
 C497 C 0.76645 0.26196 -0.01824
 C498 C 0.73622 0.23600 0.02043
 O499 O 0.76933 0.74744 0.48524
 O500 O 0.74850 0.72809 0.51528
 O501 O 0.74752 0.72774 0.48614
 O502 O 0.77017 0.74774 0.51444
 O503 O 0.75445 0.76742 0.51480
 O504 O 0.73207 0.74766 0.48620
 O505 O 0.73265 0.74765 0.51537
 O506 O 0.75386 0.76733 0.48572
 Cu507 Cu 0.76045 0.73578 0.50023
 Cu508 Cu 0.74168 0.75949 0.50055
 C509 C 0.76518 0.76071 0.48034
 C510 C 0.73702 0.73456 0.52049
 C511 C 0.73596 0.73432 0.48126
 C512 C 0.76613 0.76096 0.51954
 O513 O 1.01494 0.23009 0.25491
 O514 O 0.98697 0.25109 0.23284
 O515 O 1.01557 0.25069 0.23345
 O516 O 0.98631 0.23055 0.25429
 O517 O 0.98654 0.24933 0.27125
 O518 O 1.01520 0.26999 0.24986
 O519 O 0.98655 0.26988 0.24979
 O520 O 1.01515 0.24941 0.27131
 Cu521 Cu 1.00097 0.23869 0.24221
 Cu522 Cu 1.00086 0.26157 0.26222
 C523 C 1.01994 0.23624 0.26682
 C524 C 0.98184 0.26400 0.23765
 C525 C 1.02040 0.26379 0.23806
 C526 C 0.98139 0.23648 0.26632
 O527 O 0.48572 0.25025 0.73360
 O528 O 0.51429 0.22921 0.75471
 O529 O 0.48560 0.22937 0.75477
 O530 O 0.51427 0.24995 0.73355
 O531 O 0.51428 0.26896 0.75028
 O532 O 0.48592 0.24800 0.77189
 O533 O 0.51452 0.24808 0.77159
 O534 O 0.48559 0.26889 0.75071
 Cu535 Cu 0.49994 0.23780 0.74248
 Cu536 Cu 0.50010 0.26038 0.76281
 C537 C 0.48068 0.26311 0.73861
 C538 C 0.51940 0.23511 0.76668
 C539 C 0.48081 0.23516 0.76692
 C540 C 0.51922 0.26296 0.73828
 O541 O -0.01434 0.27013 0.75073
 O542 O 0.01421 0.25038 0.72840
 O543 O -0.01447 0.25049 0.72845
 O544 O 0.01423 0.27021 0.75049
 O545 O 0.01443 0.25040 0.76636
 O546 O -0.01439 0.23074 0.74439
 O547 O 0.01412 0.23058 0.74427
 O548 O -0.01426 0.25036 0.76663
 Cu549 Cu -0.00010 0.26227 0.73791
 Cu550 Cu -0.00001 0.23856 0.75703
 C551 C -0.01923 0.26358 0.76248
 C552 C 0.01908 0.23711 0.73255
 C553 C -0.01939 0.23727 0.73267
 C554 C 0.01931 0.26364 0.76215
 O555 O 0.48465 0.23101 0.24517
 O556 O 0.51319 0.25153 0.26677
 O557 O 0.48460 0.25175 0.26659
 O558 O 0.51326 0.23086 0.24556
 O559 O 0.51349 0.24974 0.22870
 O560 O 0.48473 0.27065 0.24973
 O561 O 0.51338 0.27055 0.25005
 O562 O 0.48487 0.25003 0.22844
 Cu563 Cu 0.49888 0.23939 0.25770
 Cu564 Cu 0.49916 0.26215 0.23755
 C565 C 0.47982 0.23705 0.23313
 C566 C 0.51824 0.26451 0.26207
 C567 C 0.47970 0.26474 0.26173
 C568 C 0.51836 0.23675 0.23359
 O569 O 0.98515 0.74965 0.73219
 O570 O 1.01413 0.72942 0.75355
 O571 O 0.98553 0.72925 0.75389
 O572 O 1.01377 0.74973 0.73184
 O573 O 1.01365 0.76916 0.74812
 O574 O 0.98573 0.74848 0.77039
 O575 O 1.01440 0.74887 0.76982
 O576 O 0.98508 0.76875 0.74883
 Cu577 Cu 0.99963 0.73757 0.74122
 Cu578 Cu 0.99974 0.76073 0.76095
 C579 C 0.98007 0.76261 0.73694
 C580 C 1.01932 0.73576 0.76528
 C581 C 0.98074 0.73540 0.76588
 C582 C 1.01855 0.76295 0.73620
 O583 O 0.51493 0.76965 0.24794
 O584 O 0.48612 0.74979 0.26968
 O585 O 0.51477 0.74947 0.26971
 O586 O 0.48633 0.76987 0.24793
 O587 O 0.48635 0.75065 0.23142
 O588 O 0.51447 0.72994 0.25354
 O589 O 0.48588 0.73045 0.25330
 O590 O 0.51500 0.75013 0.23175
 Cu591 Cu 0.50056 0.76163 0.26045
 Cu592 Cu 0.50040 0.73835 0.24086
 C593 C 0.51998 0.76325 0.23619
 C594 C 0.48097 0.73679 0.26516
 C595 C 0.51952 0.73623 0.26535
 C596 C 0.48143 0.76375 0.23598
 O597 O -0.01437 0.76972 0.25193
 O598 O 0.01441 0.74973 0.23003
 O599 O -0.01425 0.74981 0.22989
 O600 O 0.01421 0.76979 0.25201
 O601 O 0.01407 0.75031 0.26825
 O602 O -0.01408 0.73008 0.24584
 O603 O 0.01450 0.73037 0.24640
 O604 O -0.01459 0.74999 0.26788
 Cu605 Cu 0.00001 0.76172 0.23934
 Cu606 Cu -0.00005 0.73823 0.25872
 C607 C -0.01948 0.76320 0.26361
 C608 C 0.01948 0.73669 0.23458
 C609 C -0.01906 0.73654 0.23407
 C610 C 0.01906 0.76345 0.26389
 O611 O 0.51529 0.74947 0.72988
 O612 O 0.48671 0.77001 0.75134
 O613 O 0.51533 0.77008 0.75128
 O614 O 0.48665 0.74931 0.73000
 O615 O 0.48642 0.73061 0.74705
 O616 O 0.51575 0.75080 0.76772
 O617 O 0.48713 0.75128 0.76835
 O618 O 0.51506 0.73018 0.74632
 Cu619 Cu 0.50098 0.76162 0.73894
 Cu620 Cu 0.50111 0.73881 0.75903
 C621 C 0.52009 0.73632 0.73442
 C622 C 0.48201 0.76418 0.76351
 C623 C 0.52056 0.76390 0.76306
 C624 C 0.48149 0.73649 0.73500
 C625 C 0.39597 0.31554 0.31506
 C626 C 0.39522 0.31598 0.33076
 C627 C 0.38304 0.32252 0.33795
 C628 C 0.37127 0.32863 0.32961
 C629 C 0.37202 0.32813 0.31390
 C630 C 0.38425 0.32174 0.30672
 C631 C 0.40882 0.30854 0.30740
 N632 N 0.41104 0.31092 0.29255
 N633 N 0.42248 0.30447 0.28559
 C634 C 0.43214 0.29531 0.29318
 N635 N 0.42992 0.29294 0.30804
 N636 N 0.41852 0.29945 0.31501
 C637 C 0.44464 0.28783 0.28534
 C638 C 0.45253 0.27558 0.29213
 C639 C 0.46398 0.26814 0.28450
 C640 C 0.46789 0.27292 0.26999
 C641 C 0.46019 0.28537 0.26332
 C642 C 0.44864 0.29268 0.27088
 H643 H 0.40411 0.31140 0.33751
 H644 H 0.38294 0.32295 0.35005
 H645 H 0.36304 0.33244 0.30712
 H646 H 0.38442 0.32146 0.29461
 H647 H 0.44972 0.27154 0.30325
 H648 H 0.46974 0.25862 0.28995
 H649 H 0.46292 0.28930 0.25214
 H650 H 0.44283 0.30213 0.26536
 C651 C 0.39802 0.81519 0.81630
 C652 C 0.39534 0.81292 0.83161
 C653 C 0.38291 0.81938 0.83842
 C654 C 0.37266 0.82831 0.83010
 C655 C 0.37554 0.83050 0.81469
 C656 C 0.38800 0.82411 0.80796
 C657 C 0.41105 0.80817 0.80897
 N658 N 0.41472 0.81224 0.79476
 N659 N 0.42623 0.80575 0.78800
 C660 C 0.43457 0.79487 0.79514
 N661 N 0.43095 0.79083 0.80937
 N662 N 0.41945 0.79736 0.81615
 C663 C 0.44713 0.78736 0.78739
 C664 C 0.45431 0.77434 0.79369
 C665 C 0.46575 0.76690 0.78603
 C666 C 0.47032 0.77238 0.77195
 C667 C 0.46333 0.78558 0.76579
 C668 C 0.45185 0.79295 0.77339
 H669 H 0.40294 0.80624 0.83841
 H670 H 0.38178 0.81774 0.85035
 H671 H 0.36789 0.83654 0.80745
 H672 H 0.38961 0.82593 0.79609
 H673 H 0.45095 0.76972 0.80444
 H674 H 0.47093 0.75677 0.79109
 H675 H 0.46658 0.79010 0.75496
 H676 H 0.44662 0.80299 0.76823
 C677 C -0.10236 0.31308 0.81796
 C678 C -0.10449 0.32941 0.81794
 C679 C -0.11675 0.33601 0.82494
 C680 C -0.12722 0.32643 0.83202
 C681 C -0.12503 0.31011 0.83209
 C682 C -0.11272 0.30353 0.82520
 C683 C -0.08953 0.30603 0.81029
 N684 N -0.08629 0.29059 0.81208
 N685 N -0.07494 0.28417 0.80497
 C686 C -0.06637 0.29288 0.79573
 N687 N -0.06959 0.30832 0.79396
 N688 N -0.08091 0.31477 0.80111
 C689 C -0.05397 0.28559 0.78753
 C690 C -0.04674 0.29378 0.77603
 C691 C -0.03539 0.28668 0.76796
 C692 C -0.03093 0.27129 0.77130
 C693 C -0.03799 0.26321 0.78296
 C694 C -0.04941 0.27025 0.79094
 H695 H -0.09667 0.33712 0.81256
 H696 H -0.11799 0.34864 0.82488
 H697 H -0.13299 0.30237 0.83722
 H698 H -0.11147 0.29090 0.82535
 H699 H -0.04999 0.30560 0.77310
 H700 H -0.03015 0.29323 0.75907
 H701 H -0.03483 0.25133 0.78580
 H702 H -0.05469 0.26363 0.79976
 C703 C -0.10332 0.81288 0.31782
 C704 C -0.10516 0.82924 0.31826
 C705 C -0.11757 0.83585 0.32497
 C706 C -0.12848 0.82626 0.33128
 C707 C -0.12656 0.80990 0.33094
 C708 C -0.11410 0.80330 0.32435
 C709 C -0.09037 0.80581 0.31037
 N710 N -0.08738 0.79029 0.31193
 N711 N -0.07594 0.78384 0.30498
 C712 C -0.06704 0.79261 0.29612
 N713 N -0.07001 0.80814 0.29458
 N714 N -0.08142 0.81461 0.30158
 C715 C -0.05455 0.78530 0.28810
 C716 C -0.04706 0.79351 0.27679
 C717 C -0.03562 0.78638 0.26889
 C718 C -0.03133 0.77094 0.27220
 C719 C -0.03866 0.76282 0.28366
 C720 C -0.05017 0.76989 0.29147
 H721 H -0.09700 0.83696 0.31344
 H722 H -0.11857 0.84850 0.32528
 H723 H -0.13485 0.80216 0.33550
 H724 H -0.11308 0.79065 0.32415
 H725 H -0.05017 0.80539 0.27389
 H726 H -0.03016 0.79296 0.26015
 H727 H -0.03563 0.75090 0.28648
 H728 H -0.05566 0.76325 0.30015
 C729 C 0.60296 0.68504 0.31892
 C730 C 0.60516 0.66874 0.31839
 C731 C 0.61751 0.66196 0.32507
 C732 C 0.62800 0.67135 0.33234
 C733 C 0.62575 0.68765 0.33292
 C734 C 0.61336 0.69440 0.32635
 C735 C 0.59004 0.69230 0.31159
 N736 N 0.58681 0.70767 0.31381
 N737 N 0.57539 0.71430 0.30699
 C738 C 0.56672 0.70585 0.29762
 N739 N 0.56992 0.69046 0.29543
 N740 N 0.58132 0.68382 0.30229
 C741 C 0.55426 0.71338 0.28972
 C742 C 0.54688 0.70550 0.27814
 C743 C 0.53551 0.71285 0.27031
 C744 C 0.53119 0.72820 0.27397
 C745 C 0.53839 0.73597 0.28572
 C746 C 0.54983 0.72867 0.29347
 H747 H 0.59732 0.66117 0.31285
 H748 H 0.61879 0.64935 0.32462
 H749 H 0.63372 0.69525 0.33820
 H750 H 0.61206 0.70701 0.32689
 H751 H 0.55001 0.69372 0.27495
 H752 H 0.53015 0.70654 0.26133
 H753 H 0.53534 0.74781 0.28881
 H754 H 0.55523 0.73506 0.30237
 C755 C 0.60507 0.18522 0.81754
 C756 C 0.60655 0.18480 0.83319
 C757 C 0.61908 0.17831 0.83980
 C758 C 0.63047 0.17223 0.83090
 C759 C 0.62901 0.17281 0.81525
 C760 C 0.61644 0.17913 0.80866
 C761 C 0.59183 0.19203 0.81043
 N762 N 0.58899 0.18944 0.79572
 N763 N 0.57723 0.19571 0.78920
 C764 C 0.56784 0.20490 0.79708
 N765 N 0.57066 0.20748 0.81181
 N766 N 0.58239 0.20114 0.81835
 C767 C 0.55500 0.21220 0.78964
 C768 C 0.54729 0.22452 0.79653
 C769 C 0.53563 0.23187 0.78915
 C770 C 0.53132 0.22694 0.77480
 C771 C 0.53882 0.21439 0.76807
 C772 C 0.55057 0.20716 0.77537
 H773 H 0.59794 0.18933 0.84034
 H774 H 0.61975 0.17786 0.85188
 H775 H 0.63769 0.16856 0.80804
 H776 H 0.61574 0.17942 0.79657
 H777 H 0.55044 0.22870 0.80750
 H778 H 0.53004 0.24148 0.79465
 H779 H 0.53579 0.21032 0.75701
 H780 H 0.55622 0.19765 0.76978
 C781 C 1.10438 0.68581 0.81731
 C782 C 1.10655 0.66949 0.81710
 C783 C 1.11899 0.66285 0.82372
 C784 C 1.12961 0.67238 0.83061
 C785 C 1.12741 0.68870 0.83084
 C786 C 1.11493 0.69532 0.82433
 C787 C 1.09131 0.69292 0.81012
 N788 N 1.08805 0.70830 0.81223
 N789 N 1.07645 0.71478 0.80559
 C790 C 1.06763 0.70617 0.79651
 N791 N 1.07087 0.69077 0.79441
 N792 N 1.08244 0.68428 0.80110
 C793 C 1.05494 0.71351 0.78884
 C794 C 1.04741 0.70550 0.77744
 C795 C 1.03577 0.71266 0.76986
 C796 C 1.03132 0.72795 0.77360
 C797 C 1.03869 0.73586 0.78517
 C798 C 1.05039 0.72874 0.79266
 H799 H 1.09859 0.66182 0.81187
 H800 H 1.12023 0.65023 0.82354
 H801 H 1.13549 0.69641 0.83582
 H802 H 1.11366 0.70794 0.82461
 H803 H 1.05063 0.69376 0.77420
 H804 H 1.03030 0.70625 0.76102
 H805 H 1.03554 0.74765 0.78832
 H806 H 1.05590 0.73523 0.80142
 C807 C 1.10322 0.18476 0.32034
 C808 C 1.11402 0.19418 0.32706
 C809 C 1.12652 0.18743 0.33341
 C810 C 1.12849 0.17108 0.33333
 C811 C 1.11756 0.16163 0.32683
 C812 C 1.10510 0.16840 0.32036
 C813 C 1.09026 0.19202 0.31309
 N814 N 1.08134 0.18348 0.30404
 N815 N 1.06995 0.19014 0.29718
 C816 C 1.06696 0.20562 0.29913
 N817 N 1.07582 0.21412 0.30826
 N818 N 1.08724 0.20747 0.31507
 C819 C 1.05454 0.21319 0.29121
 C820 C 1.05018 0.22850 0.29495
 C821 C 1.03879 0.23587 0.28719
 C822 C 1.03158 0.22814 0.27542
 C823 C 1.03582 0.21277 0.27176
 C824 C 1.04714 0.20534 0.27962
 H825 H 1.11297 0.20683 0.32716
 H826 H 1.13483 0.19508 0.33808
 H827 H 1.11860 0.14899 0.32680
 H828 H 1.09694 0.16080 0.31538
 H829 H 1.05560 0.23486 0.30386
 H830 H 1.03580 0.24772 0.29028
 H831 H 1.03045 0.20649 0.26277
 H832 H 1.05023 0.19355 0.27643
 C833 C 0.60253 0.31384 0.68427
 C834 C 0.61274 0.30442 0.67663
 C835 C 0.62501 0.31111 0.66977
 C836 C 0.62732 0.32740 0.67026
 C837 C 0.61701 0.33684 0.67776
 C838 C 0.60479 0.33013 0.68473
 C839 C 0.58972 0.30665 0.69185
 N840 N 0.58129 0.31512 0.70144
 N841 N 0.56996 0.30854 0.70846
 C842 C 0.56654 0.29322 0.70614
 N843 N 0.57493 0.28479 0.69649
 N844 N 0.58629 0.29136 0.68952
 C845 C 0.55411 0.28576 0.71411
 C846 C 0.54935 0.27067 0.71004
 C847 C 0.53790 0.26341 0.71776
 C848 C 0.53098 0.27100 0.72980
 C849 C 0.53563 0.28613 0.73381
 C850 C 0.54703 0.29347 0.72600
 H851 H 0.61139 0.29182 0.67614
 H852 H 0.63284 0.30346 0.66432
 H853 H 0.61833 0.34945 0.67815
 H854 H 0.59709 0.33774 0.69042
 H855 H 0.55450 0.26442 0.70090
 H856 H 0.53459 0.25173 0.71439
 H857 H 0.53050 0.29230 0.74302
 H858 H 0.55044 0.30508 0.72944
 C859 C 0.60469 0.81327 0.18370
 C860 C 0.61414 0.80420 0.17482
 C861 C 0.62661 0.81084 0.16830
 C862 C 0.63007 0.82686 0.17040
 C863 C 0.62036 0.83590 0.17923
 C864 C 0.60793 0.82920 0.18578
 C865 C 0.59166 0.80612 0.19092
 N866 N 0.58353 0.81435 0.20095
 N867 N 0.57200 0.80784 0.20766
 C868 C 0.56805 0.79282 0.20460
 N869 N 0.57613 0.78461 0.19451
 N870 N 0.58769 0.79111 0.18783
 C871 C 0.55542 0.78546 0.21233
 C872 C 0.55052 0.77043 0.20820
 C873 C 0.53887 0.76332 0.21579
 C874 C 0.53191 0.77103 0.22774
 C875 C 0.53669 0.78611 0.23176
 C876 C 0.54828 0.79326 0.22413
 H877 H 0.61206 0.79183 0.17310
 H878 H 0.63380 0.80305 0.16220
 H879 H 0.62193 0.84836 0.18077
 H880 H 0.60078 0.83660 0.19241
 H881 H 0.55573 0.76411 0.19914
 H882 H 0.53546 0.75169 0.21242
 H883 H 0.53154 0.79238 0.24090
 H884 H 0.55176 0.80484 0.22761
 C885 C 1.10441 0.31466 0.18509
 C886 C 1.10818 0.33035 0.18779
 C887 C 1.12050 0.33704 0.18099
 C888 C 1.12954 0.32822 0.17126
 C889 C 1.12555 0.31244 0.16857
 C890 C 1.11321 0.30582 0.17534
 C891 C 1.09151 0.30747 0.19252
 N892 N 1.08714 0.29271 0.18894
 N893 N 1.07571 0.28614 0.19577
 C894 C 1.06815 0.29401 0.20650
 N895 N 1.07249 0.30879 0.21006
 N896 N 1.08391 0.31538 0.20320
 C897 C 1.05563 0.28652 0.21432
 C898 C 1.04880 0.29397 0.22651
 C899 C 1.03728 0.28666 0.23415
 C900 C 1.03229 0.27178 0.22973
 C901 C 1.03898 0.26443 0.21742
 C902 C 1.05053 0.27170 0.20983
 H903 H 1.10154 0.33758 0.19510
 H904 H 1.12249 0.34934 0.18307
 H905 H 1.13224 0.30478 0.16177
 H906 H 1.11072 0.29363 0.17312
 H907 H 1.05244 0.30539 0.23028
 H908 H 1.03235 0.29265 0.24357
 H909 H 1.03540 0.25296 0.21372
 H910 H 1.05549 0.26564 0.20047
 C911 C 1.10089 0.81501 0.68169
 C912 C 1.11022 0.80611 0.67255
 C913 C 1.12271 0.81282 0.66613
 C914 C 1.12631 0.82874 0.66860
 C915 C 1.11661 0.83767 0.67755
 C916 C 1.10416 0.83090 0.68400
 C917 C 1.08802 0.80768 0.68906
 N918 N 1.08010 0.81567 0.69944
 N919 N 1.06884 0.80891 0.70640
 C920 C 1.06498 0.79388 0.70327
 N921 N 1.07283 0.78593 0.69282
 N922 N 1.08412 0.79267 0.68588
 C923 C 1.05272 0.78620 0.71136
 C924 C 1.04798 0.77111 0.70725
 C925 C 1.03675 0.76366 0.71518
 C926 C 1.03006 0.77108 0.72745
 C927 C 1.03468 0.78623 0.73146
 C928 C 1.04586 0.79371 0.72348
 H929 H 1.10809 0.79379 0.67061
 H930 H 1.12986 0.80512 0.65987
 H931 H 1.11821 0.85009 0.67931
 H932 H 1.09707 0.83819 0.69080
 H933 H 1.05298 0.76500 0.69795
 H934 H 1.03344 0.75199 0.71180
 H935 H 1.02973 0.79228 0.74084
 H936 H 1.04924 0.80532 0.72696
 C937 C 0.39622 0.68651 0.68353
 C938 C 0.38465 0.68047 0.69218
 C939 C 0.37225 0.67407 0.68533
 C940 C 0.37117 0.67338 0.66965
 C941 C 0.38279 0.67934 0.66100
 C942 C 0.39514 0.68591 0.66786
 C943 C 0.40927 0.69348 0.69086
 N944 N 0.41889 0.70242 0.68298
 N945 N 0.43049 0.70886 0.68966
 C946 C 0.43300 0.70654 0.70448
 N947 N 0.42342 0.69753 0.71233
 N948 N 0.41179 0.69117 0.70567
 C949 C 0.44576 0.71387 0.71202
 C950 C 0.44996 0.70900 0.72642
 C951 C 0.46173 0.71616 0.73374
 C952 C 0.46947 0.72847 0.72690
 C953 C 0.46536 0.73327 0.71246
 C954 C 0.45368 0.72599 0.70506
 H955 H 0.38507 0.68088 0.70428
 H956 H 0.36339 0.66988 0.69235
 H957 H 0.38243 0.67878 0.64891
 H958 H 0.40390 0.69036 0.66088
 H959 H 0.44414 0.69966 0.73208
 H960 H 0.46460 0.71221 0.74488
 H961 H 0.47114 0.74270 0.70688
 H962 H 0.45071 0.73004 0.69398
 C963 C 0.39587 0.18625 0.18022
 C964 C 0.39398 0.16989 0.18006
 C965 C 0.38151 0.16321 0.17356
 C966 C 0.37056 0.17275 0.16719
 C967 C 0.37252 0.18910 0.16728
 C968 C 0.38505 0.19576 0.17365
 C969 C 0.40890 0.19341 0.18742
 N970 N 0.41201 0.20884 0.18540
 N971 N 0.42351 0.21539 0.19213
 C972 C 0.43237 0.20682 0.20121
 N973 N 0.42930 0.19137 0.20319
 N974 N 0.41782 0.18480 0.19641
 C975 C 0.44490 0.21428 0.20903
 C976 C 0.45223 0.20644 0.22068
 C977 C 0.46365 0.21377 0.22844
 C978 C 0.46808 0.22904 0.22463
 C979 C 0.46093 0.23676 0.21280
 C980 C 0.44944 0.22949 0.20513
 H981 H 0.40217 0.16223 0.18492
 H982 H 0.38047 0.15057 0.17345
 H983 H 0.36421 0.19680 0.16269
 H984 H 0.38610 0.20841 0.17366
 H985 H 0.44900 0.19472 0.22398
 H986 H 0.46897 0.20750 0.23748
 H987 H 0.46407 0.24854 0.20959
 H988 H 0.44408 0.23584 0.19618
 C989 C -0.10209 0.68605 0.17939
 C990 C -0.11284 0.69556 0.17269
 C991 C -0.12533 0.68890 0.16623
 C992 C -0.12732 0.67256 0.16619
 C993 C -0.11644 0.66302 0.17264
 C994 C -0.10399 0.66969 0.17922
 C995 C -0.08916 0.69320 0.18677
 N996 N -0.08025 0.68451 0.19572
 N997 N -0.06889 0.69107 0.20272
 C998 C -0.06593 0.70658 0.20103
 N999 N -0.07478 0.71524 0.19200
 N1000 N -0.08616 0.70869 0.18505
 C1001 C -0.05356 0.71401 0.20913
 C1002 C -0.04924 0.72943 0.20572
 C1003 C -0.03789 0.73664 0.21366
 C1004 C -0.03067 0.72865 0.22528
 C1005 C -0.03488 0.71318 0.22860
 C1006 C -0.04616 0.70592 0.22057
 H1007 H -0.11178 0.70820 0.17269
 H1008 H -0.13360 0.69661 0.16159
 H1009 H -0.11750 0.65038 0.17258
 H1010 H -0.09586 0.66202 0.18417
 H1011 H -0.05467 0.73598 0.19694
 H1012 H -0.03492 0.74857 0.21084
 H1013 H -0.02950 0.70670 0.23746
 H1014 H -0.04922 0.69404 0.22350
 C1015 C -0.10298 0.18722 0.67839
 C1016 C -0.10633 0.17132 0.68048
 C1017 C -0.11890 0.16476 0.67407
 C1018 C -0.12864 0.17392 0.66538
 C1019 C -0.12496 0.18986 0.66311
 C1020 C -0.11235 0.19636 0.66949
 C1021 C -0.08998 0.19431 0.68573
 N1022 N -0.08602 0.20936 0.68279
 N1023 N -0.07459 0.21586 0.68971
 C1024 C -0.06666 0.20761 0.69990
 N1025 N -0.07058 0.19255 0.70278
 N1026 N -0.08198 0.18603 0.69584
 C1027 C -0.05422 0.21501 0.70795
 C1028 C -0.04724 0.20714 0.71981
 C1029 C -0.03587 0.21432 0.72775
 C1030 C -0.03115 0.22949 0.72397
 C1031 C -0.03796 0.23727 0.71197
 C1032 C -0.04940 0.23013 0.70408
 H1033 H -0.09921 0.16385 0.68707
 H1034 H -0.12056 0.15232 0.67565
 H1035 H -0.13213 0.19772 0.65704
 H1036 H -0.11016 0.20870 0.66772
 H1037 H -0.05068 0.19549 0.72311
 H1038 H -0.03082 0.20799 0.73691
 H1039 H -0.03459 0.24898 0.70878
 H1040 H -0.05449 0.23651 0.69498
 C1041 C 0.31648 0.39462 0.31824
 C1042 C 0.30842 0.38239 0.32483
 C1043 C 0.31560 0.36961 0.33133
 C1044 C 0.33101 0.36882 0.33153
 C1045 C 0.33907 0.38117 0.32511
 C1046 C 0.33189 0.39388 0.31849
 C1047 C 0.30884 0.40793 0.31095
 N1048 N 0.31626 0.41801 0.30193
 N1049 N 0.30932 0.42977 0.29512
 C1050 C 0.29469 0.43199 0.29709
 N1051 N 0.28729 0.42197 0.30618
 N1052 N 0.29421 0.41017 0.31294
 C1053 C 0.28690 0.44488 0.28929
 C1054 C 0.27248 0.44893 0.29333
 C1055 C 0.26502 0.46086 0.28576
 C1056 C 0.27177 0.46890 0.27389
 C1057 C 0.28621 0.46491 0.26989
 C1058 C 0.29372 0.45309 0.27756
 H1059 H 0.29654 0.38253 0.32474
 H1060 H 0.30904 0.36018 0.33593
 H1061 H 0.35095 0.38107 0.32530
 H1062 H 0.33843 0.40317 0.31361
 H1063 H 0.26692 0.44288 0.30235
 H1064 H 0.25389 0.46364 0.28909
 H1065 H 0.29172 0.47092 0.26082
 H1066 H 0.30481 0.45024 0.27414
 C1067 C 0.31748 -0.10748 0.81578
 C1068 C 0.32692 -0.11715 0.80752
 C1069 C 0.33416 -0.12972 0.81431
 C1070 C 0.33227 -0.13303 0.82969
 C1071 C 0.32280 -0.12311 0.83792
 C1072 C 0.31553 -0.11059 0.83107
 C1073 C 0.30963 -0.09432 0.80845
 N1074 N 0.29909 -0.08615 0.81586
 N1075 N 0.29190 -0.07448 0.80918
 C1076 C 0.29498 -0.07044 0.79481
 N1077 N 0.30556 -0.07857 0.78743
 N1078 N 0.31271 -0.09027 0.79410
 C1079 C 0.28688 -0.05759 0.78729
 C1080 C 0.29112 -0.05241 0.77299
 C1081 C 0.28337 -0.04046 0.76578
 C1082 C 0.27115 -0.03345 0.77265
 C1083 C 0.26693 -0.03856 0.78697
 C1084 C 0.27473 -0.05046 0.79422
 H1085 H 0.32857 -0.11521 0.79566
 H1086 H 0.34072 -0.13717 0.80716
 H1087 H 0.32129 -0.12452 0.84985
 H1088 H 0.30845 -0.10325 0.83783
 H1089 H 0.30043 -0.05760 0.76733
 H1090 H 0.28690 -0.03680 0.75475
 H1091 H 0.25758 -0.03338 0.79258
 H1092 H 0.27115 -0.05416 0.80522
 C1093 C 0.81720 0.39077 0.81734
 C1094 C 0.80955 0.38048 0.82678
 C1095 C 0.81674 0.36794 0.83368
 C1096 C 0.83190 0.36527 0.83143
 C1097 C 0.83948 0.37575 0.82191
 C1098 C 0.83224 0.38825 0.81498
 C1099 C 0.80950 0.40400 0.80996
 N1100 N 0.81632 0.41273 0.79932
 N1101 N 0.80934 0.42452 0.79259
 C1102 C 0.79527 0.42812 0.79626
 N1103 N 0.78847 0.41942 0.80694
 N1104 N 0.79543 0.40761 0.81363
 C1105 C 0.78743 0.44111 0.78865
 C1106 C 0.77350 0.44594 0.79362
 C1107 C 0.76599 0.45800 0.78629
 C1108 C 0.77219 0.46543 0.77376
 C1109 C 0.78615 0.46067 0.76884
 C1110 C 0.79370 0.44869 0.77623
 H1111 H 0.79790 0.38196 0.82871
 H1112 H 0.81006 0.36005 0.84024
 H1113 H 0.85119 0.37486 0.82015
 H1114 H 0.83851 0.39606 0.80789
 H1115 H 0.76836 0.44041 0.80318
 H1116 H 0.75525 0.46137 0.79035
 H1117 H 0.79124 0.46618 0.75924
 H1118 H 0.80440 0.44526 0.77209
 C1119 C 0.81665 -0.10874 0.31569
 C1120 C 0.82584 -0.11874 0.30747
 C1121 C 0.83281 -0.13144 0.31434
 C1122 C 0.83087 -0.13457 0.32976
 C1123 C 0.82164 -0.12434 0.33792
 C1124 C 0.81464 -0.11169 0.33099
 C1125 C 0.80913 -0.09538 0.30833
 N1126 N 0.79880 -0.08692 0.31573
 N1127 N 0.79194 -0.07502 0.30906
 C1128 C 0.79515 -0.07105 0.29471
 N1129 N 0.80552 -0.07948 0.28733
 N1130 N 0.81235 -0.09140 0.29398
 C1131 C 0.78739 -0.05794 0.28721
 C1132 C 0.79183 -0.05275 0.27299
 C1133 C 0.78436 -0.04058 0.26580
 C1134 C 0.77222 -0.03337 0.27262
 C1135 C 0.76782 -0.03848 0.28688
 C1136 C 0.77534 -0.05059 0.29411
 H1137 H 0.82750 -0.11692 0.29560
 H1138 H 0.83917 -0.13910 0.30723
 H1139 H 0.82014 -0.12557 0.34986
 H1140 H 0.80777 -0.10411 0.33772
 H1141 H 0.80109 -0.05811 0.26736
 H1142 H 0.78803 -0.03693 0.25481
 H1143 H 0.75851 -0.03314 0.29245
 H1144 H 0.77161 -0.05429 0.30505
 C1145 C 0.31618 0.60775 0.68260
 C1146 C 0.30810 0.62002 0.67609
 C1147 C 0.31524 0.63273 0.66946
 C1148 C 0.33066 0.63342 0.66903
 C1149 C 0.33874 0.62108 0.67543
 C1150 C 0.33159 0.60843 0.68220
 C1151 C 0.30856 0.59444 0.68990
 N1152 N 0.31601 0.58430 0.69884
 N1153 N 0.30909 0.57250 0.70559
 C1154 C 0.29445 0.57029 0.70363
 N1155 N 0.28703 0.58038 0.69463
 N1156 N 0.29393 0.59222 0.68793
 C1157 C 0.28670 0.55731 0.71132
 C1158 C 0.27231 0.55323 0.70721
 C1159 C 0.26490 0.54117 0.71462
 C1160 C 0.27166 0.53303 0.72643
 C1161 C 0.28606 0.53706 0.73051
 C1162 C 0.29353 0.54901 0.72299
 H1163 H 0.29621 0.61994 0.67631
 H1164 H 0.30867 0.64217 0.66490
 H1165 H 0.35062 0.62111 0.67509
 H1166 H 0.33815 0.59912 0.68702
 H1167 H 0.26674 0.55935 0.69823
 H1168 H 0.25379 0.53836 0.71123
 H1169 H 0.29159 0.53097 0.73953
 H1170 H 0.30459 0.55187 0.72646
 C1171 C 0.31566 1.10812 0.18380
 C1172 C 0.31354 1.11092 0.16849
 C1173 C 0.32051 1.12347 0.16139
 C1174 C 0.32983 1.13375 0.16938
 C1175 C 0.33187 1.13077 0.18482
 C1176 C 0.32492 1.11817 0.19186
 C1177 C 0.30818 1.09484 0.19134
 N1178 N 0.31143 1.09104 0.20572
 N1179 N 0.30465 1.07919 0.21253
 C1180 C 0.29429 1.07064 0.20525
 N1181 N 0.29104 1.07444 0.19087
 N1182 N 0.29785 1.08627 0.18405
 C1183 C 0.28659 1.05758 0.21289
 C1184 C 0.27463 1.05005 0.20602
 C1185 C 0.26719 1.03795 0.21334
 C1186 C 0.27159 1.03302 0.22766
 C1187 C 0.28363 1.04043 0.23447
 C1188 C 0.29102 1.05260 0.22719
 H1189 H 0.30660 1.10329 0.16188
 H1190 H 0.31892 1.12459 0.14945
 H1191 H 0.33830 1.13848 0.19181
 H1192 H 0.32667 1.11646 0.20373
 H1193 H 0.27091 1.05360 0.19502
 H1194 H 0.25797 1.03247 0.20777
 H1195 H 0.28729 1.03692 0.24550
 H1196 H 0.30021 1.05810 0.23280
 C1197 C 0.81755 0.60796 0.18350
 C1198 C 0.82455 0.61976 0.19185
 C1199 C 0.83149 0.63228 0.18466
 C1200 C 0.83171 0.63324 0.16896
 C1201 C 0.82480 0.62137 0.16062
 C1202 C 0.81775 0.60892 0.16781
 C1203 C 0.80999 0.59481 0.19113
 N1204 N 0.80095 0.58507 0.18341
 N1205 N 0.79402 0.57337 0.19029
 C1206 C 0.79588 0.57086 0.20518
 N1207 N 0.80496 0.58057 0.21289
 N1208 N 0.81185 0.59231 0.20601
 C1209 C 0.78805 0.55794 0.21288
 C1210 C 0.79187 0.55363 0.22755
 C1211 C 0.78437 0.54158 0.23488
 C1212 C 0.77279 0.53366 0.22776
 C1213 C 0.76899 0.53794 0.21307
 C1214 C 0.77659 0.54989 0.20569
 H1215 H 0.82451 0.61944 0.20395
 H1216 H 0.83647 0.64135 0.19144
 H1217 H 0.82496 0.62161 0.14851
 H1218 H 0.81255 0.59997 0.16104
 H1219 H 0.80068 0.55955 0.23340
 H1220 H 0.78754 0.53858 0.24620
 H1221 H 0.76015 0.53204 0.20727
 H1222 H 0.77335 0.55293 0.19440
 C1223 C 0.81652 1.10991 0.68251
 C1224 C 0.82582 1.11994 0.69056
 C1225 C 0.83276 1.13254 0.68351
 C1226 C 0.83070 1.13554 0.66809
 C1227 C 0.82131 1.12532 0.66011
 C1228 C 0.81434 1.11276 0.66721
 C1229 C 0.80909 1.09661 0.69006
 N1230 N 0.79869 1.08807 0.68283
 N1231 N 0.79195 1.07621 0.68966
 C1232 C 0.79534 1.07235 0.70400
 N1233 N 0.80576 1.08086 0.71121
 N1234 N 0.81248 1.09275 0.70439
 C1235 C 0.78774 1.05924 0.71167
 C1236 C 0.79237 1.05419 0.72588
 C1237 C 0.78509 1.04198 0.73321
 C1238 C 0.77296 1.03460 0.72655
 C1239 C 0.76836 1.03959 0.71231
 C1240 C 0.77569 1.05174 0.70494
 H1241 H 0.82760 1.11821 0.70242
 H1242 H 0.83920 1.14024 0.69051
 H1243 H 0.81968 1.12649 0.64818
 H1244 H 0.80736 1.10517 0.66062
 H1245 H 0.80163 1.05967 0.73138
 H1246 H 0.78891 1.03843 0.74418
 H1247 H 0.75906 1.03412 0.70686
 H1248 H 0.77181 1.05533 0.69402
 C1249 C 0.68388 0.60753 0.31526
 C1250 C 0.69187 0.61945 0.32243
 C1251 C 0.68463 0.63172 0.32969
 C1252 C 0.66921 0.63230 0.33009
 C1253 C 0.66122 0.62035 0.32293
 C1254 C 0.66847 0.60815 0.31555
 C1255 C 0.69160 0.59454 0.30756
 N1256 N 0.68428 0.58474 0.29819
 N1257 N 0.69126 0.57312 0.29123
 C1258 C 0.70586 0.57076 0.29340
 N1259 N 0.71317 0.58053 0.30280
 N1260 N 0.70620 0.59219 0.30970
 C1261 C 0.71368 0.55788 0.28563
 C1262 C 0.72793 0.55358 0.29004
 C1263 C 0.73540 0.54154 0.28266
 C1264 C 0.72885 0.53363 0.27060
 C1265 C 0.71459 0.53790 0.26619
 C1266 C 0.70706 0.54984 0.27368
 H1267 H 0.70376 0.61941 0.32231
 H1268 H 0.69114 0.64088 0.33482
 H1269 H 0.64934 0.62031 0.32320
 H1270 H 0.66198 0.59910 0.31022
 H1271 H 0.73334 0.55948 0.29924
 H1272 H 0.74638 0.53855 0.28631
 H1273 H 0.70924 0.53200 0.25696
 H1274 H 0.69610 0.55289 0.26998
 C1275 C 0.68511 1.10735 0.81550
 C1276 C 0.68739 1.11028 0.83077
 C1277 C 0.68036 1.12280 0.83789
 C1278 C 0.67081 1.13289 0.82994
 C1279 C 0.66862 1.12977 0.81456
 C1280 C 0.67561 1.11721 0.80751
 C1281 C 0.69267 1.09418 0.80787
 N1282 N 0.68920 1.09033 0.79356
 N1283 N 0.69609 1.07866 0.78659
 C1284 C 0.70677 1.07033 0.79362
 N1285 N 0.71023 1.07416 0.80795
 N1286 N 0.70331 1.08582 0.81493
 C1287 C 0.71458 1.05752 0.78572
 C1288 C 0.72684 1.05018 0.79223
 C1289 C 0.73439 1.03837 0.78458
 C1290 C 0.72980 1.03356 0.77029
 C1291 C 0.71745 1.04077 0.76386
 C1292 C 0.70995 1.05263 0.77146
 H1293 H 0.69453 1.10279 0.83732
 H1294 H 0.68211 1.12407 0.84979
 H1295 H 0.66201 1.13735 0.80758
 H1296 H 0.67372 1.11542 0.79567
 H1297 H 0.73072 1.05367 0.80319
 H1298 H 0.74386 1.03303 0.78986
 H1299 H 0.71362 1.03735 0.75286
 H1300 H 0.70053 1.05797 0.76612
 C1301 C 0.18482 0.60796 0.81471
 C1302 C 0.19266 0.61821 0.82401
 C1303 C 0.18564 0.63076 0.83105
 C1304 C 0.17044 0.63349 0.82910
 C1305 C 0.16267 0.62304 0.81970
 C1306 C 0.16975 0.61054 0.81262
 C1307 C 0.19234 0.59470 0.80718
 N1308 N 0.18531 0.58602 0.79664
 N1309 N 0.19212 0.57420 0.78980
 C1310 C 0.20623 0.57052 0.79323
 N1311 N 0.21324 0.57916 0.80381
 N1312 N 0.20645 0.59100 0.81062
 C1313 C 0.21388 0.55748 0.78550
 C1314 C 0.22784 0.55251 0.79026
 C1315 C 0.23515 0.54040 0.78282
 C1316 C 0.22873 0.53305 0.77037
 C1317 C 0.21474 0.53795 0.76565
 C1318 C 0.20738 0.54998 0.77315
 H1319 H 0.20435 0.61669 0.82572
 H1320 H 0.19246 0.63862 0.83750
 H1321 H 0.15093 0.62398 0.81816
 H1322 H 0.16333 0.60276 0.80564
 H1323 H 0.23315 0.55799 0.79976
 H1324 H 0.24592 0.53692 0.78673
 H1325 H 0.20948 0.53250 0.75611
 H1326 H 0.19666 0.55352 0.76917
 C1327 C 0.18326 1.10629 0.31543
 C1328 C 0.17629 1.11820 0.30718
 C1329 C 0.16946 1.13073 0.31446
 C1330 C 0.16932 1.13160 0.33017
 C1331 C 0.17620 1.11962 0.33841
 C1332 C 0.18314 1.10716 0.33113
 C1333 C 0.19070 1.09313 0.30769
 N1334 N 0.19969 1.08325 0.31533
 N1335 N 0.20652 1.07154 0.30834
 C1336 C 0.20462 1.06918 0.29344
 N1337 N 0.19558 1.07902 0.28582
 N1338 N 0.18879 1.09076 0.29279
 C1339 C 0.21238 1.05628 0.28563
 C1340 C 0.20858 1.05217 0.27090
 C1341 C 0.21607 1.04018 0.26344
 C1342 C 0.22763 1.03215 0.27050
 C1343 C 0.23139 1.03621 0.28524
 C1344 C 0.22381 1.04809 0.29275
 H1345 H 0.17627 1.11796 0.29507
 H1346 H 0.16450 1.13988 0.30776
 H1347 H 0.17610 1.11979 0.35052
 H1348 H 0.18832 1.09814 0.33782
 H1349 H 0.19980 1.05819 0.26510
 H1350 H 0.21293 1.03735 0.25208
 H1351 H 0.24022 1.03022 0.29100
 H1352 H 0.22704 1.05098 0.30407
 C1353 C 0.68336 0.39128 0.68601
 C1354 C 0.66795 0.39065 0.68595
 C1355 C 0.66061 0.37842 0.67873
 C1356 C 0.66851 0.36645 0.67150
 C1357 C 0.68393 0.36705 0.67163
 C1358 C 0.69126 0.37936 0.67874
 C1359 C 0.69116 0.40426 0.69364
 N1360 N 0.70575 0.40654 0.69145
 N1361 N 0.71278 0.41817 0.69833
 C1362 C 0.70553 0.42799 0.70774
 N1363 N 0.69093 0.42570 0.70994
 N1364 N 0.68389 0.41410 0.70301
 C1365 C 0.71339 0.44083 0.71550
 C1366 C 0.70672 0.44898 0.72736
 C1367 C 0.71425 0.46091 0.73485
 C1368 C 0.72856 0.46506 0.73054
 C1369 C 0.73518 0.45704 0.71858
 C1370 C 0.72771 0.44501 0.71120
 H1371 H 0.66152 0.39970 0.69137
 H1372 H 0.64872 0.37844 0.67865
 H1373 H 0.69037 0.35789 0.66641
 H1374 H 0.70315 0.37941 0.67867
 H1375 H 0.69572 0.44604 0.73099
 H1376 H 0.70884 0.46690 0.74400
 H1377 H 0.74620 0.45994 0.71501
 H1378 H 0.73315 0.43901 0.70207
 C1379 C 0.68344 -0.10738 0.18567
 C1380 C 0.66840 -0.11014 0.18783
 C1381 C 0.66144 -0.12275 0.18080
 C1382 C 0.66932 -0.13312 0.17140
 C1383 C 0.68446 -0.13017 0.16935
 C1384 C 0.69135 -0.11752 0.17632
 C1385 C 0.69092 -0.09411 0.19319
 N1386 N 0.70494 -0.09029 0.18953
 N1387 N 0.71180 -0.07852 0.19637
 C1388 C 0.70495 -0.07008 0.20720
 N1389 N 0.69092 -0.07387 0.21085
 N1390 N 0.68404 -0.08563 0.20397
 C1391 C 0.71275 -0.05716 0.21494
 C1392 C 0.70657 -0.04985 0.22756
 C1393 C 0.71415 -0.03794 0.23505
 C1394 C 0.72803 -0.03302 0.23002
 C1395 C 0.73411 -0.04021 0.21732
 C1396 C 0.72659 -0.05216 0.20989
 H1397 H 0.66194 -0.10243 0.19485
 H1398 H 0.64973 -0.12390 0.18241
 H1399 H 0.69136 -0.13797 0.16291
 H1400 H 0.70301 -0.11587 0.17455
 H1401 H 0.69594 -0.05342 0.23176
 H1402 H 0.70915 -0.03261 0.24479
 H1403 H 0.74478 -0.03671 0.21316
 H1404 H 0.73166 -0.05749 0.20019
 C1405 C 0.18451 0.39285 0.18631
 C1406 C 0.19258 0.38079 0.17944
 C1407 C 0.18541 0.36824 0.17254
 C1408 C 0.16999 0.36752 0.17222
 C1409 C 0.16193 0.37963 0.17905
 C1410 C 0.16911 0.39211 0.18606
 C1411 C 0.19214 0.40608 0.19374
 N1412 N 0.18469 0.41611 0.20277
 N1413 N 0.19158 0.42792 0.20954
 C1414 C 0.20619 0.43024 0.20751
 N1415 N 0.21362 0.42024 0.19843
 N1416 N 0.20675 0.40840 0.19171
 C1417 C 0.21389 0.44330 0.21513
 C1418 C 0.22826 0.44744 0.21099
 C1419 C 0.23558 0.45963 0.21828
 C1420 C 0.22876 0.46787 0.22999
 C1421 C 0.21439 0.46376 0.23412
 C1422 C 0.20701 0.45166 0.22673
 H1423 H 0.20446 0.38093 0.17952
 H1424 H 0.19197 0.35898 0.16764
 H1425 H 0.15005 0.37956 0.17882
 H1426 H 0.16256 0.40125 0.19117
 H1427 H 0.23386 0.44128 0.20207
 H1428 H 0.24666 0.46250 0.21485
 H1429 H 0.20882 0.46990 0.24308
 H1430 H 0.19596 0.44875 0.23023
 C1431 C 0.18118 -0.10728 0.68596
 C1432 C 0.17196 -0.11742 0.69399
 C1433 C 0.16490 -0.12989 0.68685
 C1434 C 0.16678 -0.13264 0.67136
 C1435 C 0.17604 -0.12228 0.66340
 C1436 C 0.18312 -0.10986 0.67059
 C1437 C 0.18882 -0.09419 0.69360
 N1438 N 0.19916 -0.08561 0.68633
 N1439 N 0.20615 -0.07396 0.69324
 C1440 C 0.20308 -0.07037 0.70771
 N1441 N 0.19271 -0.07891 0.71497
 N1442 N 0.18575 -0.09058 0.70807
 C1443 C 0.21099 -0.05753 0.71545
 C1444 C 0.20674 -0.05268 0.72985
 C1445 C 0.21433 -0.04072 0.73721
 C1446 C 0.22642 -0.03339 0.73039
 C1447 C 0.23064 -0.03818 0.71598
 C1448 C 0.22299 -0.05007 0.70857
 H1449 H 0.17035 -0.11589 0.70590
 H1450 H 0.15854 -0.13770 0.69382
 H1451 H 0.17750 -0.12324 0.65143
 H1452 H 0.19003 -0.10216 0.66402
 H1453 H 0.19753 -0.05813 0.73546
 H1454 H 0.21081 -0.03731 0.74831
 H1455 H 0.23988 -0.03275 0.71040
 H1456 H 0.22659 -0.05351 0.69751
 C1457 C 0.32126 0.31257 0.39636
 C1458 C 0.32193 0.32899 0.39525
 C1459 C 0.32824 0.33613 0.38273
 C1460 C 0.33393 0.32703 0.37097
 C1461 C 0.33342 0.31060 0.37218
 C1462 C 0.32721 0.30345 0.38475
 C1463 C 0.31408 0.30502 0.40938
 N1464 N 0.31520 0.28931 0.41167
 N1465 N 0.30841 0.28250 0.42316
 C1466 C 0.30018 0.29109 0.43282
 N1467 N 0.29911 0.30680 0.43056
 N1468 N 0.30593 0.31362 0.41910
 C1469 C 0.29223 0.28348 0.44533
 C1470 C 0.28147 0.29176 0.45337
 C1471 C 0.27359 0.28447 0.46482
 C1472 C 0.27638 0.26876 0.46861
 C1473 C 0.28730 0.26053 0.46076
 C1474 C 0.29509 0.26778 0.44919
 H1475 H 0.31757 0.33637 0.40404
 H1476 H 0.32869 0.34881 0.38229
 H1477 H 0.33751 0.30323 0.36323
 H1478 H 0.32681 0.29077 0.38521
 H1479 H 0.27896 0.30385 0.45067
 H1480 H 0.26528 0.29115 0.47069
 H1481 H 0.28968 0.24840 0.46341
 H1482 H 0.30334 0.26108 0.44326
 C1483 C 0.32073 0.81238 -0.10514
 C1484 C 0.32124 0.82878 -0.10658
 C1485 C 0.32787 0.83572 -0.11902
 C1486 C 0.33408 0.82643 -0.13037
 C1487 C 0.33369 0.81003 -0.12886
 C1488 C 0.32714 0.80308 -0.11636
 C1489 C 0.31330 0.80504 -0.09215
 N1490 N 0.31447 0.78940 -0.08952
 N1491 N 0.30754 0.78280 -0.07801
 C1492 C 0.29908 0.79155 -0.06867
 N1493 N 0.29794 0.80719 -0.07129
 N1494 N 0.30491 0.81380 -0.08276
 C1495 C 0.29103 0.78416 -0.05610
 C1496 C 0.28022 0.79260 -0.04827
 C1497 C 0.27230 0.78554 -0.03672
 C1498 C 0.27509 0.76991 -0.03261
 C1499 C 0.28604 0.76153 -0.04027
 C1500 C 0.29388 0.76856 -0.05193
 H1501 H 0.31651 0.83630 -0.09810
 H1502 H 0.32819 0.84839 -0.11973
 H1503 H 0.33815 0.80253 -0.13751
 H1504 H 0.32687 0.79041 -0.11565
 H1505 H 0.27772 0.80463 -0.05120
 H1506 H 0.26396 0.79233 -0.03101
 H1507 H 0.28843 0.74946 -0.03738
 H1508 H 0.30217 0.76174 -0.05769
 C1509 C 0.82195 0.31233 -0.10171
 C1510 C 0.82225 0.32871 -0.10343
 C1511 C 0.82871 0.33552 -0.11604
 C1512 C 0.83493 0.32609 -0.12728
 C1513 C 0.83483 0.30972 -0.12544
 C1514 C 0.82847 0.30293 -0.11278
 C1515 C 0.81452 0.30508 -0.08867
 N1516 N 0.81584 0.28949 -0.08589
 N1517 N 0.80879 0.28289 -0.07445
 C1518 C 0.80008 0.29160 -0.06534
 N1519 N 0.79882 0.30721 -0.06808
 N1520 N 0.80591 0.31381 -0.07948
 C1521 C 0.79183 0.28416 -0.05293
 C1522 C 0.78078 0.29249 -0.04535
 C1523 C 0.77261 0.28531 -0.03403
 C1524 C 0.77538 0.26968 -0.02994
 C1525 C 0.78659 0.26142 -0.03733
 C1526 C 0.79468 0.26856 -0.04874
 H1527 H 0.81745 0.33631 -0.09505
 H1528 H 0.82885 0.34817 -0.11697
 H1529 H 0.83935 0.30212 -0.13397
 H1530 H 0.82838 0.29027 -0.11184
 H1531 H 0.77828 0.30451 -0.04830
 H1532 H 0.76408 0.29201 -0.02852
 H1533 H 0.78899 0.24936 -0.03445
 H1534 H 0.80315 0.26183 -0.05431
 C1535 C 0.81856 0.81153 0.39559
 C1536 C 0.81857 0.82790 0.39380
 C1537 C 0.82530 0.83481 0.38140
 C1538 C 0.83211 0.82550 0.37042
 C1539 C 0.83218 0.80913 0.37226
 C1540 C 0.82554 0.80223 0.38472
 C1541 C 0.81112 0.80417 0.40856
 N1542 N 0.81277 0.78863 0.41146
 N1543 N 0.80589 0.78196 0.42295
 C1544 C 0.79700 0.79052 0.43202
 N1545 N 0.79536 0.80607 0.42913
 N1546 N 0.80229 0.81275 0.41767
 C1547 C 0.78908 0.78302 0.44462
 C1548 C 0.77803 0.79117 0.45236
 C1549 C 0.77030 0.78395 0.46398
 C1550 C 0.77354 0.76846 0.46821
 C1551 C 0.78471 0.76037 0.46060
 C1552 C 0.79236 0.76754 0.44890
 H1553 H 0.81339 0.83542 0.40201
 H1554 H 0.82525 0.84747 0.38044
 H1555 H 0.83712 0.80160 0.36391
 H1556 H 0.82567 0.78958 0.38570
 H1557 H 0.77520 0.80309 0.44934
 H1558 H 0.76178 0.79051 0.46965
 H1559 H 0.78746 0.74841 0.46358
 H1560 H 0.80083 0.76094 0.44321
 C1561 C 0.67793 0.31460 0.60340
 C1562 C 0.67785 0.33093 0.60550
 C1563 C 0.67138 0.33751 0.61822
 C1564 C 0.66494 0.32790 0.62919
 C1565 C 0.66484 0.31159 0.62696
 C1566 C 0.67121 0.30502 0.61420
 C1567 C 0.68533 0.30756 0.59024
 N1568 N 0.68384 0.29205 0.58713
 N1569 N 0.69084 0.28563 0.57557
 C1570 C 0.69967 0.29442 0.56666
 N1571 N 0.70111 0.30994 0.56973
 N1572 N 0.69407 0.31638 0.58126
 C1573 C 0.70782 0.28716 0.55408
 C1574 C 0.71889 0.29553 0.54658
 C1575 C 0.72693 0.28850 0.53508
 C1576 C 0.72401 0.27298 0.53073
 C1577 C 0.71279 0.26468 0.53806
 C1578 C 0.70483 0.27167 0.54965
 H1579 H 0.68282 0.33867 0.59734
 H1580 H 0.67142 0.35014 0.61946
 H1581 H 0.66018 0.30382 0.63529
 H1582 H 0.67113 0.29239 0.61297
 H1583 H 0.72150 0.30747 0.54972
 H1584 H 0.73547 0.29522 0.52962
 H1585 H 0.71028 0.25270 0.53498
 H1586 H 0.69635 0.26490 0.55515
 C1587 C 0.68264 0.81343 1.10576
 C1588 C 0.69111 0.81954 1.11752
 C1589 C 0.68438 0.82602 1.13010
 C1590 C 0.66900 0.82676 1.13118
 C1591 C 0.66051 0.82064 1.11941
 C1592 C 0.66726 0.81397 1.10686
 C1593 C 0.68992 0.80658 1.09246
 N1594 N 0.68241 0.79735 1.08273
 N1595 N 0.68911 0.79105 1.07092
 C1596 C 0.70358 0.79380 1.06831
 N1597 N 0.71104 0.80309 1.07800
 N1598 N 0.70437 0.80932 1.08984
 C1599 C 0.71118 0.78665 1.05535
 C1600 C 0.72510 0.79209 1.05099
 C1601 C 0.73256 0.78509 1.03910
 C1602 C 0.72636 0.77238 1.03137
 C1603 C 0.71238 0.76701 1.03561
 C1604 C 0.70483 0.77413 1.04743
 H1605 H 0.70298 0.81917 1.11711
 H1606 H 0.69126 0.83032 1.13909
 H1607 H 0.64864 0.82121 1.11977
 H1608 H 0.66044 0.80944 1.09794
 H1609 H 0.73028 0.80176 1.05680
 H1610 H 0.74332 0.78950 1.03612
 H1611 H 0.70730 0.75725 1.02984
 H1612 H 0.69414 0.76965 1.05052
 C1613 C 0.17995 0.31447 1.10500
 C1614 C 0.17346 0.30498 1.11602
 C1615 C 0.16717 0.31167 1.12877
 C1616 C 0.16711 0.32803 1.13075
 C1617 C 0.17337 0.33753 1.11959
 C1618 C 0.17976 0.33083 1.10689
 C1619 C 0.18716 0.30731 1.09179
 N1620 N 0.19573 0.31606 1.08258
 N1621 N 0.20256 0.30953 1.07097
 C1622 C 0.20107 0.29398 1.06804
 N1623 N 0.19242 0.28525 1.07719
 N1624 N 0.18563 0.29177 1.08883
 C1625 C 0.20899 0.28662 1.05536
 C1626 C 0.20585 0.27113 1.05103
 C1627 C 0.21361 0.26405 1.03934
 C1628 C 0.22475 0.27226 1.03181
 C1629 C 0.22781 0.28778 1.03606
 C1630 C 0.21997 0.29491 1.04765
 H1631 H 0.17348 0.29233 1.11497
 H1632 H 0.16265 0.30400 1.13724
 H1633 H 0.17328 0.35018 1.12064
 H1634 H 0.18455 0.33849 1.09856
 H1635 H 0.19743 0.26443 1.05669
 H1636 H 0.21100 0.25207 1.03635
 H1637 H 0.23630 0.29444 1.03044
 H1638 H 0.22269 0.30684 1.05071
 C1639 C 0.17960 0.81461 0.60496
 C1640 C 0.17952 0.83096 0.60697
 C1641 C 0.17268 0.83765 0.61943
 C1642 C 0.16584 0.82815 0.63023
 C1643 C 0.16583 0.81181 0.62815
 C1644 C 0.17258 0.80512 0.61564
 C1645 C 0.18718 0.80749 0.59195
 N1646 N 0.18568 0.79197 0.58887
 N1647 N 0.19272 0.78551 0.57736
 C1648 C 0.20161 0.79427 0.56847
 N1649 N 0.20308 0.80979 0.57154
 N1650 N 0.19600 0.81626 0.58301
 C1651 C 0.20975 0.78698 0.55590
 C1652 C 0.22079 0.79535 0.54836
 C1653 C 0.22879 0.78832 0.53682
 C1654 C 0.22584 0.77281 0.53248
 C1655 C 0.21466 0.76451 0.53986
 C1656 C 0.20674 0.77150 0.55147
 H1657 H 0.18473 0.83862 0.59891
 H1658 H 0.17269 0.85029 0.62057
 H1659 H 0.16085 0.80414 0.63636
 H1660 H 0.17249 0.79249 0.61449
 H1661 H 0.22342 0.80729 0.55149
 H1662 H 0.23731 0.79505 0.53134
 H1663 H 0.21213 0.75253 0.53678
 H1664 H 0.19828 0.76473 0.55700
 C1665 C 0.31973 0.68883 0.60384
 C1666 C 0.32044 0.67242 0.60510
 C1667 C 0.32704 0.66541 0.61753
 C1668 C 0.33301 0.67465 0.62905
 C1669 C 0.33248 0.69106 0.62768
 C1670 C 0.32596 0.69807 0.61520
 C1671 C 0.31220 0.69623 0.59094
 N1672 N 0.31322 0.71192 0.58848
 N1673 N 0.30614 0.71860 0.57711
 C1674 C 0.29769 0.70990 0.56774
 N1675 N 0.29672 0.69421 0.57016
 N1676 N 0.30384 0.68752 0.58150
 C1677 C 0.28946 0.71739 0.55534
 C1678 C 0.27859 0.70900 0.54757
 C1679 C 0.27048 0.71618 0.53620
 C1680 C 0.27315 0.73186 0.53224
 C1681 C 0.28416 0.74019 0.53985
 C1682 C 0.29218 0.73306 0.55132
 H1683 H 0.31586 0.66494 0.59650
 H1684 H 0.32750 0.65274 0.61810
 H1685 H 0.33677 0.69852 0.63645
 H1686 H 0.32555 0.71074 0.61461
 H1687 H 0.27618 0.69693 0.55039
 H1688 H 0.26210 0.70942 0.53052
 H1689 H 0.28647 0.75231 0.53707
 H1690 H 0.30051 0.73984 0.55705
 C1691 C 0.31727 0.18730 1.10325
 C1692 C 0.31718 0.17093 1.10511
 C1693 C 0.32394 0.16403 1.11751
 C1694 C 0.33087 0.17334 1.12840
 C1695 C 0.33103 0.18971 1.12648
 C1696 C 0.32436 0.19660 1.11403
 C1697 C 0.30979 0.19467 1.09029
 N1698 N 0.31149 0.21019 1.08736
 N1699 N 0.30453 0.21688 1.07591
 C1700 C 0.29554 0.20835 1.06693
 N1701 N 0.29388 0.19282 1.06984
 N1702 N 0.30088 0.18611 1.08126
 C1703 C 0.28747 0.21589 1.05445
 C1704 C 0.27630 0.20776 1.04687
 C1705 C 0.26834 0.21503 1.03545
 C1706 C 0.27144 0.23056 1.03125
 C1707 C 0.28276 0.23862 1.03866
 C1708 C 0.29065 0.23139 1.05017
 H1709 H 0.31190 0.16342 1.09697
 H1710 H 0.32381 0.15138 1.11854
 H1711 H 0.33606 0.19724 1.13477
 H1712 H 0.32456 0.20924 1.11300
 H1713 H 0.27354 0.19582 1.04989
 H1714 H 0.25971 0.20849 1.02993
 H1715 H 0.28541 0.25060 1.03569
 H1716 H 0.29921 0.23797 1.05573
 C1717 C 0.81850 0.68711 1.10278
 C1718 C 0.81836 0.67076 1.10474
 C1719 C 0.82530 0.66390 1.11706
 C1720 C 0.83246 0.67324 1.12777
 C1721 C 0.83267 0.68959 1.12575
 C1722 C 0.82583 0.69644 1.11338
 C1723 C 0.81086 0.69444 1.08991
 N1724 N 0.81268 0.70990 1.08679
 N1725 N 0.80561 0.71656 1.07539
 C1726 C 0.79638 0.70804 1.06666
 N1727 N 0.79458 0.69257 1.06976
 N1728 N 0.80169 0.68590 1.08113
 C1729 C 0.78825 0.71555 1.05420
 C1730 C 0.77685 0.70754 1.04687
 C1731 C 0.76890 0.71480 1.03542
 C1732 C 0.77226 0.73018 1.03096
 C1733 C 0.78380 0.73812 1.03813
 C1734 C 0.79167 0.73091 1.04966
 H1735 H 0.81291 0.66322 1.09674
 H1736 H 0.82513 0.65126 1.11815
 H1737 H 0.83788 0.69715 1.13391
 H1738 H 0.82608 0.70907 1.11227
 H1739 H 0.77391 0.69571 1.05010
 H1740 H 0.76010 0.70836 1.03009
 H1741 H 0.78665 0.74999 1.03496
 H1742 H 0.80042 0.73740 1.05502
 C1743 C 0.81762 0.18922 0.60235
 C1744 C 0.81763 0.17285 0.60420
 C1745 C 0.82450 0.16598 0.61656
 C1746 C 0.83144 0.17532 0.62741
 C1747 C 0.83152 0.19168 0.62550
 C1748 C 0.82474 0.19855 0.61310
 C1749 C 0.81002 0.19653 0.58945
 N1750 N 0.81156 0.21207 0.58651
 N1751 N 0.80450 0.21869 0.57508
 C1752 C 0.79556 0.21006 0.56613
 N1753 N 0.79405 0.19451 0.56905
 N1754 N 0.80115 0.18788 0.58044
 C1755 C 0.78740 0.21750 0.55365
 C1756 C 0.77631 0.20922 0.54608
 C1757 C 0.76829 0.21638 0.53463
 C1758 C 0.77124 0.23193 0.53041
 C1759 C 0.78247 0.24014 0.53781
 C1760 C 0.79042 0.23302 0.54935
 H1761 H 0.81234 0.16530 0.59609
 H1762 H 0.82444 0.15333 0.61757
 H1763 H 0.83658 0.19923 0.63376
 H1764 H 0.82488 0.21120 0.61207
 H1765 H 0.77368 0.19726 0.54912
 H1766 H 0.75974 0.20973 0.52912
 H1767 H 0.78500 0.25214 0.53483
 H1768 H 0.79892 0.23971 0.55490
 C1769 C 0.67995 0.68412 0.39805
 C1770 C 0.67994 0.66778 0.39594
 C1771 C 0.67323 0.66117 0.38336
 C1772 C 0.66647 0.67074 0.37256
 C1773 C 0.66633 0.68705 0.37479
 C1774 C 0.67293 0.69366 0.38741
 C1775 C 0.68754 0.69122 0.41105
 N1776 N 0.68589 0.70670 0.41423
 N1777 N 0.69305 0.71321 0.42564
 C1778 C 0.70221 0.70455 0.43433
 N1779 N 0.70382 0.68905 0.43119
 N1780 N 0.69662 0.68253 0.41981
 C1781 C 0.71052 0.71194 0.44671
 C1782 C 0.72191 0.70379 0.45395
 C1783 C 0.73011 0.71101 0.46523
 C1784 C 0.72703 0.72650 0.46961
 C1785 C 0.71549 0.73455 0.46255
 C1786 C 0.70737 0.72738 0.45119
 H1787 H 0.68514 0.66009 0.40398
 H1788 H 0.67333 0.64854 0.38212
 H1789 H 0.66143 0.69479 0.36658
 H1790 H 0.67279 0.70628 0.38864
 H1791 H 0.72465 0.69190 0.45076
 H1792 H 0.73891 0.70448 0.47049
 H1793 H 0.71285 0.74649 0.46565
 H1794 H 0.69865 0.73398 0.44590
 C1795 C 0.68324 0.18692 -0.10434
 C1796 C 0.68286 0.17054 -0.10603
 C1797 C 0.67619 0.16375 -0.11853
 C1798 C 0.66983 0.17316 -0.12970
 C1799 C 0.67012 0.18955 -0.12795
 C1800 C 0.67671 0.19634 -0.11540
 C1801 C 0.69062 0.19411 -0.09124
 N1802 N 0.68929 0.20969 -0.08839
 N1803 N 0.69613 0.21617 -0.07675
 C1804 C 0.70463 0.20736 -0.06751
 N1805 N 0.70593 0.19178 -0.07035
 N1806 N 0.69905 0.18529 -0.08195
 C1807 C 0.71254 0.21463 -0.05478
 C1808 C 0.72333 0.20617 -0.04694
 C1809 C 0.73111 0.21315 -0.03524
 C1810 C 0.72820 0.22871 -0.03100
 C1811 C 0.71726 0.23710 -0.03867
 C1812 C 0.70956 0.23016 -0.05047
 H1813 H 0.68769 0.16292 -0.09768
 H1814 H 0.67594 0.15109 -0.11940
 H1815 H 0.66553 0.19716 -0.13644
 H1816 H 0.67687 0.20900 -0.11449
 H1817 H 0.72592 0.19419 -0.04997
 H1818 H 0.73945 0.20635 -0.02953
 H1819 H 0.71477 0.24912 -0.03569
 H1820 H 0.70128 0.23700 -0.05622
 C1821 C 0.18152 0.68627 -0.10403
 C1822 C 0.18127 0.66989 -0.10581
 C1823 C 0.17467 0.66312 -0.11836
 C1824 C 0.16825 0.67256 -0.12948
 C1825 C 0.16834 0.68893 -0.12758
 C1826 C 0.17484 0.69569 -0.11499
 C1827 C 0.18899 0.69350 -0.09101
 N1828 N 0.18759 0.70907 -0.08816
 N1829 N 0.19463 0.71566 -0.07671
 C1830 C 0.20340 0.70696 -0.06764
 N1831 N 0.20475 0.69137 -0.07046
 N1832 N 0.19768 0.68478 -0.08188
 C1833 C 0.21159 0.71438 -0.05519
 C1834 C 0.22264 0.70607 -0.04757
 C1835 C 0.23072 0.71325 -0.03619
 C1836 C 0.22787 0.72886 -0.03207
 C1837 C 0.21667 0.73709 -0.03951
 C1838 C 0.20867 0.72996 -0.05098
 H1839 H 0.18621 0.66228 -0.09752
 H1840 H 0.17456 0.65047 -0.11934
 H1841 H 0.16367 0.69655 -0.13602
 H1842 H 0.17488 0.70835 -0.11401
 H1843 H 0.22520 0.69407 -0.05054
 H1844 H 0.23925 0.70657 -0.03065
 H1845 H 0.21422 0.74914 -0.03660
 H1846 H 0.20021 0.73668 -0.05657
 C1847 C 0.18289 0.18501 0.39663
 C1848 C 0.17560 0.19443 0.38608
 C1849 C 0.16871 0.18769 0.37368
 C1850 C 0.16886 0.17135 0.37158
 C1851 C 0.17599 0.16191 0.38224
 C1852 C 0.18297 0.16867 0.39459
 C1853 C 0.19057 0.19221 0.40954
 N1854 N 0.19960 0.18354 0.41836
 N1855 N 0.20674 0.19009 0.42976
 C1856 C 0.20513 0.20558 0.43286
 N1857 N 0.19604 0.21424 0.42409
 N1858 N 0.18893 0.20770 0.41266
 C1859 C 0.21332 0.21295 0.44535
 C1860 C 0.21020 0.22841 0.44981
 C1861 C 0.21815 0.23547 0.46136
 C1862 C 0.22947 0.22729 0.46864
 C1863 C 0.23253 0.21180 0.46425
 C1864 C 0.22451 0.20470 0.45279
 H1865 H 0.17540 0.20706 0.38725
 H1866 H 0.16353 0.19533 0.36557
 H1867 H 0.17611 0.14928 0.38109
 H1868 H 0.18840 0.16105 0.40255
 H1869 H 0.20162 0.23509 0.44436
 H1870 H 0.21553 0.24743 0.46446
 H1871 H 0.24117 0.20517 0.46967
 H1872 H 0.22722 0.19279 0.44963
 C1873 C 0.31672 0.39256 0.68268
 C1874 C 0.30873 0.38031 0.67603
 C1875 C 0.31597 0.36757 0.66956
 C1876 C 0.33139 0.36682 0.66945
 C1877 C 0.33938 0.37916 0.67596
 C1878 C 0.33213 0.39185 0.68256
 C1879 C 0.30900 0.40588 0.68987
 N1880 N 0.31635 0.41602 0.69887
 N1881 N 0.30936 0.42781 0.70556
 C1882 C 0.29473 0.43000 0.70349
 N1883 N 0.28740 0.41991 0.69442
 N1884 N 0.29438 0.40809 0.68777
 C1885 C 0.28690 0.44294 0.71115
 C1886 C 0.27249 0.44697 0.70703
 C1887 C 0.26501 0.45898 0.71446
 C1888 C 0.27173 0.46712 0.72629
 C1889 C 0.28615 0.46315 0.73037
 C1890 C 0.29368 0.45125 0.72284
 H1891 H 0.29684 0.38043 0.67603
 H1892 H 0.30947 0.35814 0.66489
 H1893 H 0.35126 0.37909 0.67585
 H1894 H 0.33862 0.40114 0.68749
 H1895 H 0.26697 0.44085 0.69804
 H1896 H 0.25390 0.46176 0.71107
 H1897 H 0.29164 0.46923 0.73941
 H1898 H 0.30475 0.44843 0.72633
 C1899 C 0.31765 0.89286 0.18324
 C1900 C 0.31793 0.89164 0.16756
 C1901 C 0.32510 0.87910 0.16061
 C1902 C 0.33206 0.86742 0.16918
 C1903 C 0.33171 0.86865 0.18486
 C1904 C 0.32467 0.88124 0.19180
 C1905 C 0.31002 0.90607 0.19069
 N1906 N 0.31195 0.90880 0.20553
 N1907 N 0.30499 0.92055 0.21230
 C1908 C 0.29575 0.93005 0.20454
 N1909 N 0.29382 0.92734 0.18969
 N1910 N 0.30083 0.91561 0.18290
 C1911 C 0.28783 0.94294 0.21219
 C1912 C 0.27616 0.95076 0.20509
 C1913 C 0.26844 0.96261 0.21251
 C1914 C 0.27230 0.96699 0.22715
 C1915 C 0.28409 0.95932 0.23417
 C1916 C 0.29172 0.94739 0.22680
 H1917 H 0.31271 0.90044 0.16064
 H1918 H 0.32533 0.87863 0.14851
 H1919 H 0.33669 0.85972 0.19183
 H1920 H 0.32456 0.88174 0.20390
 H1921 H 0.27286 0.94760 0.19385
 H1922 H 0.25943 0.96832 0.20679
 H1923 H 0.28733 0.96240 0.24545
 H1924 H 0.30068 0.94165 0.23259
 C1925 C 0.81774 0.39269 0.18457
 C1926 C 0.81801 0.39129 0.16890
 C1927 C 0.82514 0.37865 0.16208
 C1928 C 0.83206 0.36705 0.17077
 C1929 C 0.83173 0.36846 0.18644
 C1930 C 0.82473 0.38115 0.19325
 C1931 C 0.81016 0.40602 0.19188
 N1932 N 0.81207 0.40888 0.20669
 N1933 N 0.80516 0.42074 0.21334
 C1934 C 0.79600 0.43023 0.20548
 N1935 N 0.79409 0.42738 0.19065
 N1936 N 0.80105 0.41555 0.18398
 C1937 C 0.78816 0.44326 0.21300
 C1938 C 0.77660 0.45115 0.20578
 C1939 C 0.76897 0.46315 0.21309
 C1940 C 0.77282 0.46761 0.22771
 C1941 C 0.78450 0.45986 0.23483
 C1942 C 0.79203 0.44778 0.22759
 H1943 H 0.81281 0.40003 0.16189
 H1944 H 0.82536 0.37805 0.14998
 H1945 H 0.83669 0.35959 0.19348
 H1946 H 0.82463 0.38179 0.20534
 H1947 H 0.77332 0.44794 0.19455
 H1948 H 0.76004 0.46893 0.20728
 H1949 H 0.78772 0.46299 0.24610
 H1950 H 0.80091 0.44200 0.23346
 C1951 C 0.81755 0.89373 0.68149
 C1952 C 0.80937 0.88163 0.67484
 C1953 C 0.81642 0.86882 0.66826
 C1954 C 0.83182 0.86787 0.66801
 C1955 C 0.84001 0.88007 0.67452
 C1956 C 0.83296 0.89281 0.68124
 C1957 C 0.81004 0.90710 0.68880
 N1958 N 0.81753 0.91709 0.69784
 N1959 N 0.81069 0.92892 0.70464
 C1960 C 0.79608 0.93131 0.70262
 N1961 N 0.78861 0.92138 0.69350
 N1962 N 0.79544 0.90951 0.68676
 C1963 C 0.78839 0.94429 0.71037
 C1964 C 0.77401 0.94845 0.70628
 C1965 C 0.76661 0.96046 0.71379
 C1966 C 0.77337 0.96847 0.72567
 C1967 C 0.78778 0.96438 0.72972
 C1968 C 0.79523 0.95247 0.72210
 H1969 H 0.79749 0.88190 0.67494
 H1970 H 0.80976 0.85951 0.66360
 H1971 H 0.85189 0.87984 0.67431
 H1972 H 0.83959 0.90200 0.68616
 H1973 H 0.76843 0.94244 0.69726
 H1974 H 0.75551 0.96331 0.71042
 H1975 H 0.79330 0.97036 0.73880
 H1976 H 0.80629 0.94954 0.72556
 C1977 C 0.68249 0.60454 0.68574
 C1978 C 0.67569 0.61646 0.69411
 C1979 C 0.66892 0.62910 0.68696
 C1980 C 0.66865 0.63007 0.67126
 C1981 C 0.67526 0.61802 0.66289
 C1982 C 0.68215 0.60544 0.67005
 C1983 C 0.69008 0.59140 0.69336
 N1984 N 0.69913 0.58166 0.68565
 N1985 N 0.70618 0.57005 0.69258
 C1986 C 0.70442 0.56765 0.70750
 N1987 N 0.69531 0.57734 0.71518
 N1988 N 0.68831 0.58899 0.70827
 C1989 C 0.71240 0.55488 0.71527
 C1990 C 0.70865 0.55067 0.72998
 C1991 C 0.71629 0.53880 0.73742
 C1992 C 0.72796 0.53095 0.73038
 C1993 C 0.73171 0.53512 0.71566
 C1994 C 0.72397 0.54690 0.70816
 H1995 H 0.67583 0.61618 0.70622
 H1996 H 0.66417 0.63830 0.69375
 H1997 H 0.67504 0.61826 0.65078
 H1998 H 0.68718 0.59640 0.66327
 H1999 H 0.69977 0.55653 0.73578
 H2000 H 0.71314 0.53588 0.74877
 H2001 H 0.74063 0.52927 0.70991
 H2002 H 0.72717 0.54988 0.69684
 C2003 C 0.68310 0.10675 0.18542
 C2004 C 0.67599 0.11844 0.19379
 C2005 C 0.66906 0.13099 0.18666
 C2006 C 0.66894 0.13210 0.17096
 C2007 C 0.67597 0.12034 0.16258
 C2008 C 0.68302 0.10784 0.16973
 C2009 C 0.69065 0.09359 0.19305
 N2010 N 0.69977 0.08389 0.18539
 N2011 N 0.70673 0.07222 0.19233
 C2012 C 0.70480 0.06972 0.20721
 N2013 N 0.69561 0.07937 0.21485
 N2014 N 0.68871 0.09107 0.20793
 C2015 C 0.71267 0.05688 0.21499
 C2016 C 0.70890 0.05269 0.22971
 C2017 C 0.71647 0.04074 0.23713
 C2018 C 0.72807 0.03281 0.23006
 C2019 C 0.73182 0.03696 0.21534
 C2020 C 0.72417 0.04881 0.20786
 H2021 H 0.67593 0.11804 0.20590
 H2022 H 0.66400 0.13999 0.19348
 H2023 H 0.67591 0.12071 0.15047
 H2024 H 0.68832 0.09898 0.16294
 H2025 H 0.70007 0.05862 0.23551
 H2026 H 0.71332 0.03783 0.24848
 H2027 H 0.74069 0.03104 0.20957
 H2028 H 0.72738 0.05177 0.19654
 C2029 C 0.18400 0.60816 0.18419
 C2030 C 0.18387 0.60928 0.16850
 C2031 C 0.17683 0.62181 0.16140
 C2032 C 0.16987 0.63358 0.16982
 C2033 C 0.17006 0.63247 0.18552
 C2034 C 0.17698 0.61988 0.19261
 C2035 C 0.19148 0.59494 0.19180
 N2036 N 0.18937 0.59233 0.20663
 N2037 N 0.19617 0.58057 0.21356
 C2038 C 0.20542 0.57094 0.20597
 N2039 N 0.20753 0.57354 0.19113
 N2040 N 0.20068 0.58528 0.18418
 C2041 C 0.21314 0.55803 0.21381
 C2042 C 0.22482 0.55004 0.20691
 C2043 C 0.23235 0.53817 0.21453
 C2044 C 0.22825 0.53394 0.22914
 C2045 C 0.21645 0.54179 0.23594
 C2046 C 0.20902 0.55373 0.22839
 H2047 H 0.18911 0.60039 0.16169
 H2048 H 0.17672 0.62219 0.14929
 H2049 H 0.16507 0.64147 0.19237
 H2050 H 0.17697 0.61947 0.20471
 H2051 H 0.22830 0.55308 0.19570
 H2052 H 0.24138 0.53232 0.20898
 H2053 H 0.21303 0.53883 0.24720
 H2054 H 0.20004 0.55960 0.23402
 C2055 C 0.18232 0.10699 0.68562
 C2056 C 0.18234 0.10788 0.66992
 C2057 C 0.17559 0.12043 0.66258
 C2058 C 0.16875 0.13246 0.67077
 C2059 C 0.16871 0.13156 0.68648
 C2060 C 0.17537 0.11894 0.69381
 C2061 C 0.18966 0.09377 0.69338
 N2062 N 0.18775 0.09143 0.70829
 N2063 N 0.19449 0.07965 0.71528
 C2064 C 0.20346 0.06974 0.70766
 N2065 N 0.20534 0.07207 0.69275
 N2066 N 0.19856 0.08381 0.68576
 C2067 C 0.21120 0.05681 0.71545
 C2068 C 0.22252 0.04855 0.70824
 C2069 C 0.23009 0.03662 0.71567
 C2070 C 0.22643 0.03255 0.73044
 C2071 C 0.21498 0.04066 0.73760
 C2072 C 0.20750 0.05271 0.73021
 H2073 H 0.18750 0.09883 0.66325
 H2074 H 0.17560 0.12062 0.65047
 H2075 H 0.16376 0.14074 0.69314
 H2076 H 0.17524 0.11867 0.70592
 H2077 H 0.22568 0.05142 0.69689
 H2078 H 0.23883 0.03057 0.70982
 H2079 H 0.21192 0.03782 0.74899
 H2080 H 0.19880 0.05880 0.73608
 C2081 C 0.31532 0.61015 0.31649
 C2082 C 0.33072 0.61091 0.31676
 C2083 C 0.33787 0.62339 0.32380
 C2084 C 0.32978 0.63549 0.33061
 C2085 C 0.31437 0.63476 0.33025
 C2086 C 0.30722 0.62220 0.32334
 C2087 C 0.30772 0.59689 0.30907
 N2088 N 0.29313 0.59450 0.31115
 N2089 N 0.28629 0.58262 0.30444
 C2090 C 0.29374 0.57267 0.29532
 N2091 N 0.30833 0.57507 0.29323
 N2092 N 0.31519 0.58691 0.29999
 C2093 C 0.28608 0.55958 0.28772
 C2094 C 0.29292 0.55132 0.27603
 C2095 C 0.28557 0.53920 0.26866
 C2096 C 0.27126 0.53494 0.27291
 C2097 C 0.26449 0.54305 0.28472
 C2098 C 0.27178 0.55529 0.29199
 H2099 H 0.33729 0.60177 0.31167
 H2100 H 0.34975 0.62346 0.32406
 H2101 H 0.30779 0.64401 0.33513
 H2102 H 0.29534 0.62205 0.32322
 H2103 H 0.30391 0.55435 0.27244
 H2104 H 0.29110 0.53314 0.25962
 H2105 H 0.25346 0.54007 0.28824
 H2106 H 0.26621 0.56136 0.30099
 C2107 C 0.31554 0.10712 0.81672
 C2108 C 0.31555 0.10848 0.83239
 C2109 C 0.32255 0.12111 0.83937
 C2110 C 0.32961 0.13272 0.83084
 C2111 C 0.32954 0.13136 0.81516
 C2112 C 0.32266 0.11869 0.80819
 C2113 C 0.30807 0.09382 0.80926
 N2114 N 0.31005 0.09109 0.79442
 N2115 N 0.30322 0.07927 0.78765
 C2116 C 0.29406 0.06969 0.79540
 N2117 N 0.29208 0.07240 0.81024
 N2118 N 0.29897 0.08420 0.81703
 C2119 C 0.28624 0.05672 0.78776
 C2120 C 0.27479 0.04868 0.79499
 C2121 C 0.26716 0.03675 0.78762
 C2122 C 0.27090 0.03248 0.77292
 C2123 C 0.28247 0.04037 0.76577
 C2124 C 0.29002 0.05239 0.77308
 H2125 H 0.31024 0.09973 0.83930
 H2126 H 0.32256 0.12168 0.85147
 H2127 H 0.33462 0.14024 0.80822
 H2128 H 0.32277 0.11808 0.79610
 H2129 H 0.27158 0.05173 0.80628
 H2130 H 0.25831 0.03087 0.79345
 H2131 H 0.28561 0.03737 0.75444
 H2132 H 0.29882 0.05830 0.76721
 C2133 C 0.81597 0.60695 0.81661
 C2134 C 0.83137 0.60768 0.81696
 C2135 C 0.83851 0.62018 0.82400
 C2136 C 0.83040 0.63231 0.83073
 C2137 C 0.81499 0.63162 0.83026
 C2138 C 0.80786 0.61906 0.82335
 C2139 C 0.80837 0.59366 0.80926
 N2140 N 0.79379 0.59126 0.81141
 N2141 N 0.78694 0.57935 0.80478
 C2142 C 0.79436 0.56937 0.79567
 N2143 N 0.80894 0.57177 0.79351
 N2144 N 0.81581 0.58365 0.80019
 C2145 C 0.78666 0.55625 0.78815
 C2146 C 0.79340 0.54802 0.77638
 C2147 C 0.78598 0.53590 0.76906
 C2148 C 0.77173 0.53163 0.77345
 C2149 C 0.76507 0.53970 0.78536
 C2150 C 0.77242 0.55192 0.79257
 H2151 H 0.83795 0.59850 0.81195
 H2152 H 0.85038 0.62022 0.82434
 H2153 H 0.80839 0.64091 0.83506
 H2154 H 0.79598 0.61894 0.82316
 H2155 H 0.80435 0.55107 0.77268
 H2156 H 0.79142 0.52988 0.75995
 H2157 H 0.75408 0.53670 0.78898
 H2158 H 0.76693 0.55797 0.80164
 C2159 C 0.81628 0.10814 0.31629
 C2160 C 0.81626 0.10963 0.33195
 C2161 C 0.82316 0.12237 0.33885
 C2162 C 0.83014 0.13398 0.33023
 C2163 C 0.83010 0.13249 0.31456
 C2164 C 0.82332 0.11970 0.30769
 C2165 C 0.80891 0.09471 0.30892
 N2166 N 0.81097 0.09186 0.29412
 N2167 N 0.80423 0.07992 0.28742
 C2168 C 0.79511 0.07034 0.29521
 N2169 N 0.79306 0.07317 0.31002
 N2170 N 0.79984 0.08509 0.31674
 C2171 C 0.78741 0.05725 0.28765
 C2172 C 0.77595 0.04920 0.29486
 C2173 C 0.76840 0.03718 0.28753
 C2174 C 0.77223 0.03283 0.27288
 C2175 C 0.78383 0.04071 0.26575
 C2176 C 0.79128 0.05283 0.27302
 H2177 H 0.81100 0.10089 0.33892
 H2178 H 0.82316 0.12304 0.35094
 H2179 H 0.83512 0.14135 0.30756
 H2180 H 0.82344 0.11899 0.29559
 H2181 H 0.77267 0.05233 0.30611
 H2182 H 0.75955 0.03130 0.29334
 H2183 H 0.78703 0.03766 0.25445
 H2184 H 0.80009 0.05873 0.26716
 C2185 C 0.68317 0.39307 0.31352
 C2186 C 0.69105 0.38107 0.32071
 C2187 C 0.68370 0.36867 0.32765
 C2188 C 0.66828 0.36804 0.32771
 C2189 C 0.66040 0.38006 0.32052
 C2190 C 0.66776 0.39239 0.31346
 C2191 C 0.69100 0.40619 0.30614
 N2192 N 0.68380 0.41613 0.29680
 N2193 N 0.69088 0.42786 0.29010
 C2194 C 0.70544 0.43018 0.29252
 N2195 N 0.71262 0.42027 0.30190
 N2196 N 0.70556 0.40851 0.30854
 C2197 C 0.71336 0.44315 0.28499
 C2198 C 0.72759 0.44734 0.28955
 C2199 C 0.73514 0.45944 0.28234
 C2200 C 0.72869 0.46752 0.27032
 C2201 C 0.71445 0.46337 0.26578
 C2202 C 0.70683 0.45137 0.27309
 H2203 H 0.70293 0.38115 0.32086
 H2204 H 0.69013 0.35946 0.33281
 H2205 H 0.64851 0.38006 0.32054
 H2206 H 0.66135 0.40149 0.30810
 H2207 H 0.73292 0.44130 0.29871
 H2208 H 0.74612 0.46234 0.28609
 H2209 H 0.70916 0.46940 0.25658
 H2210 H 0.69590 0.44842 0.26927
 C2211 C 0.68571 0.89282 0.81319
 C2212 C 0.69372 0.88084 0.82027
 C2213 C 0.68650 0.86839 0.82727
 C2214 C 0.67108 0.86769 0.82748
 C2215 C 0.66307 0.87970 0.82042
 C2216 C 0.67030 0.89208 0.81331
 C2217 C 0.69340 0.90598 0.80570
 N2218 N 0.68601 0.91596 0.79656
 N2219 N 0.69295 0.92772 0.78976
 C2220 C 0.70756 0.93003 0.79187
 N2221 N 0.71493 0.92008 0.80106
 N2222 N 0.70800 0.90829 0.80780
 C2223 C 0.71531 0.94305 0.78423
 C2224 C 0.72968 0.94716 0.78842
 C2225 C 0.73704 0.95933 0.78112
 C2226 C 0.73027 0.96757 0.76939
 C2227 C 0.71590 0.96348 0.76521
 C2228 C 0.70848 0.95141 0.77260
 H2229 H 0.70561 0.88098 0.82028
 H2230 H 0.69301 0.85920 0.83234
 H2231 H 0.65119 0.87964 0.82057
 H2232 H 0.66380 0.90116 0.80804
 H2233 H 0.73524 0.94100 0.79736
 H2234 H 0.74812 0.96218 0.78459
 H2235 H 0.71037 0.96963 0.75623
 H2236 H 0.69743 0.94852 0.76907
 C2237 C 0.18396 0.39212 0.81382
 C2238 C 0.16855 0.39132 0.81383
 C2239 C 0.16131 0.37890 0.82087
 C2240 C 0.16931 0.36691 0.82797
 C2241 C 0.18472 0.36767 0.82787
 C2242 C 0.19196 0.38016 0.82094
 C2243 C 0.19166 0.40532 0.80642
 N2244 N 0.20624 0.40769 0.80863
 N2245 N 0.21318 0.41951 0.80193
 C2246 C 0.20584 0.42944 0.79270
 N2247 N 0.19126 0.42707 0.79048
 N2248 N 0.18431 0.41529 0.79723
 C2249 C 0.21361 0.44245 0.78507
 C2250 C 0.20683 0.45074 0.77337
 C2251 C 0.21428 0.46277 0.76594
 C2252 C 0.22863 0.46688 0.77015
 C2253 C 0.23535 0.45875 0.78198
 C2254 C 0.22795 0.44662 0.78931
 H2255 H 0.16205 0.40038 0.80852
 H2256 H 0.14943 0.37880 0.82092
 H2257 H 0.19124 0.35850 0.83298
 H2258 H 0.20384 0.38034 0.82104
 H2259 H 0.19581 0.44782 0.76980
 H2260 H 0.20879 0.46884 0.75689
 H2261 H 0.24641 0.46162 0.78547
 H2262 H 0.23348 0.44052 0.79832
 C2263 C 0.18380 0.89139 0.31396
 C2264 C 0.16839 0.89068 0.31420
 C2265 C 0.16119 0.87839 0.32150
 C2266 C 0.16923 0.86644 0.32862
 C2267 C 0.18464 0.86711 0.32826
 C2268 C 0.19184 0.87946 0.32109
 C2269 C 0.19146 0.90447 0.30634
 N2270 N 0.20605 0.90686 0.30848
 N2271 N 0.21296 0.91862 0.30167
 C2272 C 0.20559 0.92846 0.29236
 N2273 N 0.19100 0.92606 0.29020
 N2274 N 0.18408 0.91434 0.29707
 C2275 C 0.21334 0.94147 0.28472
 C2276 C 0.20662 0.94967 0.27290
 C2277 C 0.21407 0.96176 0.26554
 C2278 C 0.22832 0.96603 0.26995
 C2279 C 0.23497 0.95795 0.28186
 C2280 C 0.22759 0.94577 0.28911
 H2281 H 0.16186 0.89972 0.30890
 H2282 H 0.14931 0.87837 0.32174
 H2283 H 0.19118 0.85796 0.33337
 H2284 H 0.20372 0.87958 0.32100
 H2285 H 0.19567 0.94663 0.26921
 H2286 H 0.20864 0.96778 0.25642
 H2287 H 0.24596 0.96093 0.28550
 H2288 H 0.23307 0.93975 0.29820
 C2289 C 0.39659 0.31371 0.68559
 C2290 C 0.39585 0.31430 0.66989
 C2291 C 0.38364 0.32083 0.66274
 C2292 C 0.37182 0.32679 0.67112
 C2293 C 0.37256 0.32613 0.68682
 C2294 C 0.38483 0.31975 0.69396
 C2295 C 0.40949 0.30674 0.69321
 N2296 N 0.41167 0.30898 0.70809
 N2297 N 0.42315 0.30257 0.71500
 C2298 C 0.43291 0.29359 0.70734
 N2299 N 0.43073 0.29136 0.69245
 N2300 N 0.41928 0.29784 0.68553
 C2301 C 0.44547 0.28616 0.71513
 C2302 C 0.45350 0.27408 0.70823
 C2303 C 0.46500 0.26667 0.71581
 C2304 C 0.46883 0.27130 0.73038
 C2305 C 0.46099 0.28358 0.73717
 C2306 C 0.44939 0.29086 0.72966
 H2307 H 0.40477 0.30984 0.66311
 H2308 H 0.38355 0.32137 0.65064
 H2309 H 0.36355 0.33031 0.69363
 H2310 H 0.38498 0.31936 0.70607
 H2311 H 0.45076 0.27015 0.69706
 H2312 H 0.47086 0.25727 0.71027
 H2313 H 0.46366 0.28739 0.74840
 H2314 H 0.44347 0.30018 0.73527
 C2315 C 0.39746 0.81423 0.18277
 C2316 C 0.38606 0.82068 0.19137
 C2317 C 0.37371 0.82716 0.18449
 C2318 C 0.37252 0.82755 0.16881
 C2319 C 0.38395 0.82115 0.16018
 C2320 C 0.39626 0.81449 0.16709
 C2321 C 0.41044 0.80724 0.19020
 N2322 N 0.41982 0.79777 0.18259
 N2323 N 0.43130 0.79127 0.18944
 C2324 C 0.43393 0.79406 0.20417
 N2325 N 0.42460 0.80362 0.21173
 N2326 N 0.41309 0.81004 0.20491
 C2327 C 0.44651 0.78666 0.21196
 C2328 C 0.45080 0.79195 0.22619
 C2329 C 0.46231 0.78468 0.23383
 C2330 C 0.46971 0.77185 0.22750
 C2331 C 0.46554 0.76664 0.21320
 C2332 C 0.45411 0.77403 0.20547
 H2333 H 0.38655 0.82053 0.20347
 H2334 H 0.36499 0.83165 0.19151
 H2335 H 0.38349 0.82144 0.14809
 H2336 H 0.40490 0.80969 0.16014
 H2337 H 0.44523 0.80170 0.23148
 H2338 H 0.46523 0.78897 0.24484
 H2339 H 0.47107 0.75680 0.20800
 H2340 H 0.45106 0.76965 0.19453
 C2341 C 0.89754 0.31405 0.18460
 C2342 C 0.88613 0.32050 0.19321
 C2343 C 0.87374 0.32686 0.18633
 C2344 C 0.87248 0.32713 0.17065
 C2345 C 0.88391 0.32071 0.16202
 C2346 C 0.89627 0.31417 0.16893
 C2347 C 0.91058 0.30718 0.19203
 N2348 N 0.92006 0.29784 0.18439
 N2349 N 0.93160 0.29145 0.19123
 C2350 C 0.93419 0.29421 0.20597
 N2351 N 0.92476 0.30362 0.21356
 N2352 N 0.91319 0.30994 0.20675
 C2353 C 0.94682 0.28687 0.21374
 C2354 C 0.95096 0.29198 0.22808
 C2355 C 0.96251 0.28475 0.23570
 C2356 C 0.97011 0.27213 0.22921
 C2357 C 0.96610 0.26711 0.21480
 C2358 C 0.95462 0.27446 0.20711
 H2359 H 0.88667 0.32046 0.20531
 H2360 H 0.86502 0.33138 0.19334
 H2361 H 0.88340 0.32090 0.14993
 H2362 H 0.90490 0.30937 0.16198
 H2363 H 0.94523 0.30156 0.23349
 H2364 H 0.96532 0.28888 0.24679
 H2365 H 0.97177 0.25744 0.20949
 H2366 H 0.95170 0.27022 0.19609
 C2367 C 0.89612 0.81342 0.68386
 C2368 C 0.89535 0.81400 0.66817
 C2369 C 0.88327 0.82084 0.66104
 C2370 C 0.87161 0.82711 0.66945
 C2371 C 0.87237 0.82644 0.68515
 C2372 C 0.88451 0.81976 0.69226
 C2373 C 0.90889 0.80620 0.69147
 N2374 N 0.91119 0.80855 0.70631
 N2375 N 0.92259 0.80198 0.71322
 C2376 C 0.93214 0.79271 0.70560
 N2377 N 0.92983 0.79035 0.69076
 N2378 N 0.91847 0.79698 0.68383
 C2379 C 0.94467 0.78524 0.71340
 C2380 C 0.95251 0.77291 0.70668
 C2381 C 0.96404 0.76557 0.71428
 C2382 C 0.96809 0.77054 0.72869
 C2383 C 0.96040 0.78302 0.73531
 C2384 C 0.94877 0.79023 0.72779
 H2385 H 0.90416 0.80932 0.66137
 H2386 H 0.88315 0.82137 0.64894
 H2387 H 0.86347 0.83085 0.69197
 H2388 H 0.88469 0.81938 0.70437
 H2389 H 0.94960 0.76876 0.69562
 H2390 H 0.96979 0.75601 0.70887
 H2391 H 0.96323 0.78710 0.74641
 H2392 H 0.94301 0.79973 0.73327
 C2393 C 0.60216 0.31532 0.31510
 C2394 C 0.60442 0.33162 0.31458
 C2395 C 0.61672 0.33833 0.32141
 C2396 C 0.62710 0.32890 0.32881
 C2397 C 0.62482 0.31260 0.32930
 C2398 C 0.61248 0.30591 0.32259
 C2399 C 0.58924 0.30813 0.30773
 N2400 N 0.58584 0.29283 0.31013
 N2401 N 0.57437 0.28626 0.30335
 C2402 C 0.56582 0.29470 0.29385
 N2403 N 0.56920 0.31001 0.29147
 N2404 N 0.58065 0.31660 0.29829
 C2405 C 0.55329 0.28724 0.28604
 C2406 C 0.54608 0.29498 0.27426
 C2407 C 0.53461 0.28767 0.26655
 C2408 C 0.53002 0.27251 0.27054
 C2409 C 0.53705 0.26488 0.28249
 C2410 C 0.54858 0.27213 0.29012
 H2411 H 0.59665 0.33922 0.30898
 H2412 H 0.61803 0.35094 0.32100
 H2413 H 0.63271 0.30496 0.33467
 H2414 H 0.61114 0.29330 0.32311
 H2415 H 0.54943 0.30662 0.27082
 H2416 H 0.52940 0.29388 0.25741
 H2417 H 0.53378 0.25318 0.28583
 H2418 H 0.55384 0.26585 0.29918
 C2419 C 0.60509 0.81473 0.81512
 C2420 C 0.60729 0.83104 0.81466
 C2421 C 0.61961 0.83778 0.82142
 C2422 C 0.63007 0.82835 0.82871
 C2423 C 0.62786 0.81205 0.82915
 C2424 C 0.61550 0.80533 0.82250
 C2425 C 0.59213 0.80751 0.80785
 N2426 N 0.58884 0.79218 0.81018
 N2427 N 0.57732 0.78560 0.80350
 C2428 C 0.56861 0.79405 0.79417
 N2429 N 0.57188 0.80940 0.79185
 N2430 N 0.58338 0.81600 0.79857
 C2431 C 0.55599 0.78658 0.78650
 C2432 C 0.54852 0.79440 0.77493
 C2433 C 0.53695 0.78710 0.76738
 C2434 C 0.53250 0.77187 0.77133
 C2435 C 0.53981 0.76416 0.78306
 C2436 C 0.55144 0.77141 0.79052
 H2437 H 0.59945 0.83863 0.80915
 H2438 H 0.62087 0.85039 0.82106
 H2439 H 0.63582 0.80441 0.83443
 H2440 H 0.61421 0.79272 0.82298
 H2441 H 0.55175 0.80609 0.77153
 H2442 H 0.53152 0.79337 0.75841
 H2443 H 0.53667 0.75242 0.78637
 H2444 H 0.55690 0.76507 0.79942
 C2445 C 0.10339 0.31384 0.81550
 C2446 C 0.10556 0.33016 0.81509
 C2447 C 0.11787 0.33690 0.82185
 C2448 C 0.12835 0.32748 0.82911
 C2449 C 0.12616 0.31117 0.82953
 C2450 C 0.11381 0.30444 0.82286
 C2451 C 0.09045 0.30664 0.80816
 N2452 N 0.08727 0.29123 0.81022
 N2453 N 0.07579 0.28468 0.80344
 C2454 C 0.06701 0.29326 0.79427
 N2455 N 0.07017 0.30868 0.79224
 N2456 N 0.08162 0.31524 0.79906
 C2457 C 0.05447 0.28586 0.78641
 C2458 C 0.04693 0.29398 0.77507
 C2459 C 0.03545 0.28681 0.76729
 C2460 C 0.03115 0.27140 0.77075
 C2461 C 0.03850 0.26338 0.78225
 C2462 C 0.05007 0.27050 0.78996
 H2463 H 0.09771 0.33776 0.80959
 H2464 H 0.11912 0.34952 0.82151
 H2465 H 0.13413 0.30354 0.83480
 H2466 H 0.11254 0.29183 0.82331
 H2467 H 0.05004 0.30581 0.77203
 H2468 H 0.02998 0.29333 0.75851
 H2469 H 0.03546 0.25149 0.78517
 H2470 H 0.05559 0.26393 0.79866
 C2471 C 0.10292 0.81380 0.31740
 C2472 C 0.10517 0.83009 0.31689
 C2473 C 0.11757 0.83679 0.32352
 C2474 C 0.12807 0.82734 0.33072
 C2475 C 0.12577 0.81105 0.33127
 C2476 C 0.11333 0.80437 0.32474
 C2477 C 0.08993 0.80663 0.31011
 N2478 N 0.08664 0.79127 0.31230
 N2479 N 0.07515 0.78474 0.30553
 C2480 C 0.06647 0.79328 0.29624
 N2481 N 0.06973 0.80866 0.29408
 N2482 N 0.08120 0.81520 0.30090
 C2483 C 0.05394 0.78588 0.28835
 C2484 C 0.04660 0.79387 0.27681
 C2485 C 0.03518 0.78665 0.26897
 C2486 C 0.03076 0.77132 0.27258
 C2487 C 0.03791 0.76344 0.28431
 C2488 C 0.04940 0.77061 0.29207
 H2489 H 0.09733 0.83771 0.31141
 H2490 H 0.11889 0.84940 0.32309
 H2491 H 0.13375 0.80339 0.33650
 H2492 H 0.11199 0.79176 0.32525
 H2493 H 0.04981 0.80563 0.27364
 H2494 H 0.02987 0.79305 0.26001
 H2495 H 0.03477 0.75161 0.28735
 H2496 H 0.05478 0.76414 0.30094
 C2497 C 0.60392 0.68494 0.68172
 C2498 C 0.61514 0.69431 0.67569
 C2499 C 0.62762 0.68746 0.66937
 C2500 C 0.62912 0.67106 0.66881
 C2501 C 0.61778 0.66169 0.67464
 C2502 C 0.60536 0.66855 0.68108
 C2503 C 0.59093 0.69225 0.68888
 N2504 N 0.58165 0.68361 0.69745
 N2505 N 0.57019 0.69028 0.70419
 C2506 C 0.56750 0.70586 0.70258
 N2507 N 0.57673 0.71447 0.69394
 N2508 N 0.58822 0.70782 0.68725
 C2509 C 0.55498 0.71339 0.71036
 C2510 C 0.55075 0.72878 0.70671
 C2511 C 0.53925 0.73609 0.71435
 C2512 C 0.53180 0.72825 0.72590
 C2513 C 0.53591 0.71281 0.72945
 C2514 C 0.54733 0.70543 0.72171
 H2515 H 0.61443 0.70698 0.67608
 H2516 H 0.63624 0.69504 0.66523
 H2517 H 0.61847 0.64903 0.67416
 H2518 H 0.59687 0.66099 0.68552
 H2519 H 0.55636 0.73522 0.69798
 H2520 H 0.53636 0.74801 0.71135
 H2521 H 0.53035 0.70644 0.73827
 H2522 H 0.55031 0.69358 0.72482
 C2523 C 0.60327 0.18540 0.18280
 C2524 C 0.60477 0.18497 0.16715
 C2525 C 0.61721 0.17824 0.16057
 C2526 C 0.62848 0.17195 0.16951
 C2527 C 0.62697 0.17250 0.18515
 C2528 C 0.61450 0.17905 0.19171
 C2529 C 0.59016 0.19250 0.18988
 N2530 N 0.58724 0.18994 0.20457
 N2531 N 0.57561 0.19647 0.21108
 C2532 C 0.56642 0.20591 0.20320
 N2533 N 0.56932 0.20847 0.18849
 N2534 N 0.58093 0.20186 0.18195
 C2535 C 0.55372 0.21345 0.21063
 C2536 C 0.54622 0.22595 0.20379
 C2537 C 0.53465 0.23346 0.21117
 C2538 C 0.53023 0.22851 0.22548
 C2539 C 0.53753 0.21581 0.23218
 C2540 C 0.54918 0.20842 0.22487
 H2541 H 0.59627 0.18968 0.15998
 H2542 H 0.61791 0.17782 0.14849
 H2543 H 0.63556 0.16809 0.19239
 H2544 H 0.61377 0.17933 0.20379
 H2545 H 0.54946 0.23012 0.19283
 H2546 H 0.52921 0.24319 0.20570
 H2547 H 0.53441 0.21172 0.24320
 H2548 H 0.55466 0.19877 0.23044
 C2549 C 0.10459 0.68716 0.18244
 C2550 C 0.10594 0.68683 0.16678
 C2551 C 0.11830 0.68010 0.16003
 C2552 C 0.12963 0.67370 0.16881
 C2553 C 0.12830 0.67421 0.18447
 C2554 C 0.11591 0.68076 0.19119
 C2555 C 0.09153 0.69414 0.18972
 N2556 N 0.08872 0.69134 0.20439
 N2557 N 0.07710 0.69769 0.21107
 C2558 C 0.06780 0.70718 0.20339
 N2559 N 0.07059 0.70999 0.18869
 N2560 N 0.08219 0.70357 0.18198
 C2561 C 0.05506 0.71444 0.21102
 C2562 C 0.04743 0.72703 0.20447
 C2563 C 0.03579 0.73422 0.21205
 C2564 C 0.03145 0.72885 0.22625
 C2565 C 0.03891 0.71608 0.23264
 C2566 C 0.05061 0.70901 0.22515
 H2567 H 0.09737 0.69160 0.15972
 H2568 H 0.11887 0.67973 0.14794
 H2569 H 0.13695 0.66973 0.19160
 H2570 H 0.11530 0.68097 0.20329
 H2571 H 0.05060 0.73151 0.19361
 H2572 H 0.03023 0.74402 0.20682
 H2573 H 0.03585 0.71167 0.24356
 H2574 H 0.05619 0.69929 0.23048
 C2575 C 0.10282 0.18615 0.67939
 C2576 C 0.11383 0.19553 0.67298
 C2577 C 0.12643 0.18871 0.66690
 C2578 C 0.12829 0.17235 0.66698
 C2579 C 0.11716 0.16295 0.67316
 C2580 C 0.10459 0.16978 0.67934
 C2581 C 0.08975 0.19344 0.68641
 N2582 N 0.08049 0.18481 0.69501
 N2583 N 0.06902 0.19147 0.70172
 C2584 C 0.06628 0.20704 0.70006
 N2585 N 0.07546 0.21564 0.69136
 N2586 N 0.08697 0.20899 0.68470
 C2587 C 0.05380 0.21455 0.70793
 C2588 C 0.04970 0.23006 0.70462
 C2589 C 0.03825 0.23731 0.71242
 C2590 C 0.03075 0.22924 0.72380
 C2591 C 0.03473 0.21368 0.72699
 C2592 C 0.04608 0.20639 0.71910
 H2593 H 0.11286 0.20818 0.67290
 H2594 H 0.13489 0.19632 0.66245
 H2595 H 0.11812 0.15030 0.67317
 H2596 H 0.09628 0.16220 0.68409
 H2597 H 0.05537 0.23666 0.69604
 H2598 H 0.03545 0.24932 0.70971
 H2599 H 0.02913 0.20713 0.73565
 H2600 H 0.04896 0.19444 0.72195
 C2601 C 0.39611 0.68783 0.31826
 C2602 C 0.39381 0.67154 0.31807
 C2603 C 0.38137 0.66503 0.32481
 C2604 C 0.37090 0.67468 0.33181
 C2605 C 0.37324 0.69097 0.33202
 C2606 C 0.38572 0.69746 0.32538
 C2607 C 0.40917 0.69479 0.31092
 N2608 N 0.41260 0.71013 0.31299
 N2609 N 0.42418 0.71647 0.30621
 C2610 C 0.43281 0.70775 0.29702
 N2611 N 0.42939 0.69240 0.29496
 N2612 N 0.41784 0.68604 0.30179
 C2613 C 0.44548 0.71494 0.28920
 C2614 C 0.45276 0.70685 0.27767
 C2615 C 0.46436 0.71388 0.26994
 C2616 C 0.46902 0.72910 0.27365
 C2617 C 0.46192 0.73707 0.28535
 C2618 C 0.45024 0.73010 0.29299
 H2619 H 0.40164 0.66378 0.31277
 H2620 H 0.38003 0.65242 0.32465
 H2621 H 0.36528 0.69877 0.33707
 H2622 H 0.38710 0.71007 0.32565
 H2623 H 0.44936 0.69517 0.27444
 H2624 H 0.46963 0.70742 0.26100
 H2625 H 0.46523 0.74881 0.28847
 H2626 H 0.44493 0.73663 0.30185
 C2627 C 0.39552 0.18535 0.81839
 C2628 C 0.38424 0.17901 0.80955
 C2629 C 0.37169 0.17272 0.81617
 C2630 C 0.37015 0.17242 0.83182
 C2631 C 0.38145 0.17874 0.84069
 C2632 C 0.39397 0.18520 0.83404
 C2633 C 0.40873 0.19214 0.81123
 N2634 N 0.41813 0.20139 0.81907
 N2635 N 0.42982 0.20772 0.81245
 C2636 C 0.43265 0.20500 0.79776
 N2637 N 0.42330 0.19567 0.78997
 N2638 N 0.41159 0.18941 0.79655
 C2639 C 0.44543 0.21229 0.79023
 C2640 C 0.44975 0.20723 0.77592
 C2641 C 0.46142 0.21446 0.76851
 C2642 C 0.46897 0.22701 0.77517
 C2643 C 0.46479 0.23196 0.78955
 C2644 C 0.45318 0.22462 0.79704
 H2645 H 0.38501 0.17908 0.79746
 H2646 H 0.36308 0.16828 0.80898
 H2647 H 0.38071 0.17852 0.85277
 H2648 H 0.40250 0.18992 0.84116
 H2649 H 0.44406 0.19771 0.77039
 H2650 H 0.46436 0.21037 0.75744
 H2651 H 0.47041 0.24157 0.79499
 H2652 H 0.45012 0.22881 0.80803
 C2653 C 0.89666 0.68501 0.81896
 C2654 C 0.89446 0.66870 0.81870
 C2655 C 0.88203 0.66207 0.82533
 C2656 C 0.87144 0.67161 0.83228
 C2657 C 0.87367 0.68792 0.83255
 C2658 C 0.88614 0.69453 0.82602
 C2659 C 0.90970 0.69211 0.81173
 N2660 N 0.91302 0.70746 0.81393
 N2661 N 0.92457 0.71395 0.80722
 C2662 C 0.93327 0.70539 0.79798
 N2663 N 0.92998 0.69002 0.79581
 N2664 N 0.91846 0.68351 0.80257
 C2665 C 0.94585 0.71277 0.79018
 C2666 C 0.95314 0.70489 0.77854
 C2667 C 0.96458 0.71215 0.77076
 C2668 C 0.96906 0.72742 0.77452
 C2669 C 0.96198 0.73518 0.78636
 C2670 C 0.95047 0.72796 0.79406
 H2671 H 0.90239 0.66101 0.81343
 H2672 H 0.88077 0.64945 0.82513
 H2673 H 0.86562 0.69564 0.83756
 H2674 H 0.88743 0.70714 0.82633
 H2675 H 0.94986 0.69318 0.77525
 H2676 H 0.96984 0.70585 0.76171
 H2677 H 0.96516 0.74695 0.78953
 H2678 H 0.94514 0.73435 0.80301
 C2679 C 0.89574 0.18704 0.31755
 C2680 C 0.88451 0.18057 0.30872
 C2681 C 0.87198 0.17424 0.31535
 C2682 C 0.87041 0.17402 0.33100
 C2683 C 0.88166 0.18046 0.33985
 C2684 C 0.89416 0.18696 0.33319
 C2685 C 0.90894 0.19386 0.31038
 N2686 N 0.91830 0.20315 0.31822
 N2687 N 0.93000 0.20948 0.31162
 C2688 C 0.93287 0.20671 0.29694
 N2689 N 0.92356 0.19734 0.28915
 N2690 N 0.91184 0.19107 0.29572
 C2691 C 0.94569 0.21395 0.28943
 C2692 C 0.95009 0.20881 0.27518
 C2693 C 0.96185 0.21594 0.26783
 C2694 C 0.96941 0.22849 0.27449
 C2695 C 0.96513 0.23354 0.28881
 C2696 C 0.95345 0.22629 0.29624
 H2697 H 0.88530 0.18058 0.29663
 H2698 H 0.86341 0.16970 0.30816
 H2699 H 0.88090 0.18030 0.35193
 H2700 H 0.90265 0.19178 0.34031
 H2701 H 0.94441 0.19928 0.26965
 H2702 H 0.96486 0.21178 0.25680
 H2703 H 0.97076 0.24315 0.29425
 H2704 H 0.95032 0.23055 0.30719
 C2705 C 0.32191 0.31142 0.60405
 C2706 C 0.32788 0.30215 0.61554
 C2707 C 0.33411 0.30913 0.62819
 C2708 C 0.33460 0.32554 0.62959
 C2709 C 0.32891 0.33480 0.61793
 C2710 C 0.32259 0.32783 0.60535
 C2711 C 0.31466 0.30405 0.59097
 N2712 N 0.30647 0.31278 0.58139
 N2713 N 0.29957 0.30612 0.56990
 C2714 C 0.30062 0.29044 0.56745
 N2715 N 0.30890 0.28172 0.57696
 N2716 N 0.31576 0.28837 0.58850
 C2717 C 0.29259 0.28299 0.55490
 C2718 C 0.29543 0.26734 0.55087
 C2719 C 0.28757 0.26022 0.53928
 C2720 C 0.27660 0.26853 0.53158
 C2721 C 0.27384 0.28420 0.53554
 C2722 C 0.28179 0.29137 0.54702
 H2723 H 0.32748 0.28948 0.61493
 H2724 H 0.33820 0.30165 0.63705
 H2725 H 0.32936 0.34747 0.61853
 H2726 H 0.31822 0.33532 0.59664
 H2727 H 0.30372 0.26057 0.55667
 H2728 H 0.28995 0.24812 0.53650
 H2729 H 0.26549 0.29094 0.52978
 H2730 H 0.27930 0.30342 0.54985
 C2731 C 0.32037 0.81256 0.10350
 C2732 C 0.32686 0.80320 0.11464
 C2733 C 0.33335 0.81006 0.12721
 C2734 C 0.33360 0.82646 0.12888
 C2735 C 0.32729 0.83581 0.11763
 C2736 C 0.32071 0.82895 0.10512
 C2737 C 0.31305 0.80529 0.09041
 N2738 N 0.30465 0.81406 0.08105
 N2739 N 0.29778 0.80749 0.06948
 C2740 C 0.29907 0.79189 0.06674
 N2741 N 0.30756 0.78313 0.07605
 N2742 N 0.31438 0.78969 0.08765
 C2743 C 0.29113 0.78453 0.05409
 C2744 C 0.29406 0.76895 0.04990
 C2745 C 0.28626 0.76190 0.03823
 C2746 C 0.27527 0.77023 0.03057
 C2747 C 0.27244 0.78585 0.03466
 C2748 C 0.28032 0.79294 0.04624
 H2749 H 0.32671 0.79054 0.11379
 H2750 H 0.33790 0.80250 0.13576
 H2751 H 0.32751 0.84847 0.11845
 H2752 H 0.31592 0.83651 0.09671
 H2753 H 0.30235 0.76215 0.05567
 H2754 H 0.28869 0.74984 0.03536
 H2755 H 0.26407 0.79260 0.02895
 H2756 H 0.27776 0.80495 0.04917
 C2757 C 0.81998 0.31165 0.10567
 C2758 C 0.82650 0.30235 0.11683
 C2759 C 0.83310 0.30929 0.12930
 C2760 C 0.83342 0.32569 0.13085
 C2761 C 0.82709 0.33498 0.11956
 C2762 C 0.82041 0.32804 0.10715
 C2763 C 0.81252 0.30432 0.09269
 N2764 N 0.80408 0.31306 0.08334
 N2765 N 0.79711 0.30646 0.07186
 C2766 C 0.79832 0.29084 0.06920
 N2767 N 0.80683 0.28210 0.07850
 N2768 N 0.81376 0.28869 0.09001
 C2769 C 0.79031 0.28346 0.05660
 C2770 C 0.79321 0.26788 0.05241
 C2771 C 0.78543 0.26086 0.04070
 C2772 C 0.77449 0.26923 0.03302
 C2773 C 0.77164 0.28483 0.03715
 C2774 C 0.77950 0.29189 0.04876
 H2775 H 0.82629 0.28968 0.11608
 H2776 H 0.83767 0.30178 0.13789
 H2777 H 0.82737 0.34765 0.12028
 H2778 H 0.81560 0.33557 0.09871
 H2779 H 0.80150 0.26107 0.05817
 H2780 H 0.78787 0.24881 0.03780
 H2781 H 0.76330 0.29161 0.03142
 H2782 H 0.77696 0.30390 0.05170
 C2783 C 0.82100 0.81223 0.60292
 C2784 C 0.82701 0.80298 0.61440
 C2785 C 0.83342 0.80998 0.62694
 C2786 C 0.83407 0.82640 0.62824
 C2787 C 0.82831 0.83563 0.61660
 C2788 C 0.82180 0.82864 0.60412
 C2789 C 0.81361 0.80482 0.58995
 N2790 N 0.80522 0.81349 0.58049
 N2791 N 0.79821 0.80676 0.56910
 C2792 C 0.79934 0.79109 0.56664
 N2793 N 0.80782 0.78244 0.57603
 N2794 N 0.81478 0.78915 0.58746
 C2795 C 0.79120 0.78354 0.55422
 C2796 C 0.79420 0.76796 0.55011
 C2797 C 0.78623 0.76071 0.53868
 C2798 C 0.77498 0.76883 0.53122
 C2799 C 0.77205 0.78445 0.53524
 C2800 C 0.78012 0.79175 0.54656
 H2801 H 0.82651 0.79031 0.61387
 H2802 H 0.83753 0.80251 0.63579
 H2803 H 0.82887 0.84830 0.61711
 H2804 H 0.81738 0.83611 0.59542
 H2805 H 0.80270 0.76133 0.55574
 H2806 H 0.78873 0.74866 0.53585
 H2807 H 0.76348 0.79104 0.52967
 H2808 H 0.77750 0.80375 0.54947
 C2809 C 0.31927 0.68894 0.39751
 C2810 C 0.32607 0.69830 0.38659
 C2811 C 0.33255 0.69147 0.37401
 C2812 C 0.33249 0.67510 0.37210
 C2813 C 0.32595 0.66572 0.38318
 C2814 C 0.31937 0.67256 0.39571
 C2815 C 0.31180 0.69623 0.41050
 N2816 N 0.30306 0.68758 0.41962
 N2817 N 0.29599 0.69422 0.43102
 C2818 C 0.29739 0.70981 0.43382
 N2819 N 0.30622 0.71844 0.42476
 N2820 N 0.31325 0.71181 0.41334
 C2821 C 0.28921 0.71728 0.44625
 C2822 C 0.29215 0.73285 0.45045
 C2823 C 0.28417 0.74000 0.46194
 C2824 C 0.27298 0.73179 0.46940
 C2825 C 0.27010 0.71619 0.46527
 C2826 C 0.27816 0.70900 0.45388
 H2827 H 0.32613 0.71095 0.38758
 H2828 H 0.33730 0.69906 0.36559
 H2829 H 0.32593 0.65307 0.38219
 H2830 H 0.31434 0.66499 0.40397
 H2831 H 0.30062 0.73955 0.44485
 H2832 H 0.28665 0.75204 0.46485
 H2833 H 0.26159 0.70952 0.47083
 H2834 H 0.27558 0.69700 0.45092
 C2835 C 0.31663 0.18819 0.89582
 C2836 C 0.32339 0.19744 0.88477
 C2837 C 0.33012 0.19045 0.87239
 C2838 C 0.33034 0.17405 0.87082
 C2839 C 0.32375 0.16481 0.88198
 C2840 C 0.31694 0.17179 0.89430
 C2841 C 0.30910 0.19558 0.90872
 N2842 N 0.30047 0.18692 0.91796
 N2843 N 0.29347 0.19359 0.92939
 C2844 C 0.29484 0.20918 0.93212
 N2845 N 0.30354 0.21783 0.92293
 N2846 N 0.31050 0.21117 0.91146
 C2847 C 0.28683 0.21663 0.94468
 C2848 C 0.28990 0.23216 0.94893
 C2849 C 0.28212 0.23926 0.96060
 C2850 C 0.27102 0.23103 0.96818
 C2851 C 0.26801 0.21549 0.96399
 C2852 C 0.27586 0.20835 0.95242
 H2853 H 0.32328 0.21010 0.88555
 H2854 H 0.33489 0.19793 0.86390
 H2855 H 0.32394 0.15213 0.88125
 H2856 H 0.31194 0.16430 0.90265
 H2857 H 0.29830 0.23886 0.94325
 H2858 H 0.28469 0.25126 0.96355
 H2859 H 0.25955 0.20882 0.96964
 H2860 H 0.27319 0.19638 0.94942
 C2861 C 0.81895 0.68609 0.89717
 C2862 C 0.82597 0.69535 0.88631
 C2863 C 0.83267 0.68841 0.87391
 C2864 C 0.83262 0.67203 0.87213
 C2865 C 0.82585 0.66275 0.88315
 C2866 C 0.81904 0.66971 0.89550
 C2867 C 0.81129 0.69354 0.90996
 N2868 N 0.80225 0.68505 0.91893
 N2869 N 0.79505 0.69185 0.93016
 C2870 C 0.79661 0.70742 0.93292
 N2871 N 0.80572 0.71589 0.92401
 N2872 N 0.81289 0.70910 0.91276
 C2873 C 0.78835 0.71509 0.94520
 C2874 C 0.79154 0.73061 0.94939
 C2875 C 0.78357 0.73796 0.96076
 C2876 C 0.77215 0.73001 0.96811
 C2877 C 0.76900 0.71448 0.96397
 C2878 C 0.77705 0.70708 0.95269
 H2879 H 0.82605 0.70801 0.88720
 H2880 H 0.83757 0.69592 0.86553
 H2881 H 0.82582 0.65009 0.88225
 H2882 H 0.81384 0.66222 0.90372
 H2883 H 0.80020 0.73711 0.94390
 H2884 H 0.78627 0.74994 0.96368
 H2885 H 0.76029 0.70802 0.96946
 H2886 H 0.77428 0.69513 0.94972
 C2887 C 0.81685 0.18966 0.39499
 C2888 C 0.82351 0.19893 0.38389
 C2889 C 0.83026 0.19195 0.37152
 C2890 C 0.83060 0.17554 0.37000
 C2891 C 0.82411 0.16629 0.38121
 C2892 C 0.81727 0.17326 0.39352
 C2893 C 0.80929 0.19703 0.40789
 N2894 N 0.80076 0.18833 0.41718
 N2895 N 0.79373 0.19496 0.42860
 C2896 C 0.79496 0.21058 0.43127
 N2897 N 0.80355 0.21929 0.42203
 N2898 N 0.81055 0.21266 0.41056
 C2899 C 0.78689 0.21799 0.44382
 C2900 C 0.78979 0.23357 0.44802
 C2901 C 0.78196 0.24061 0.45968
 C2902 C 0.77095 0.23228 0.46730
 C2903 C 0.76810 0.21668 0.46315
 C2904 C 0.77602 0.20960 0.45160
 H2905 H 0.82331 0.21160 0.38462
 H2906 H 0.83495 0.19944 0.36298
 H2907 H 0.82439 0.15362 0.38053
 H2908 H 0.81235 0.16576 0.40191
 H2909 H 0.79812 0.24035 0.44230
 H2910 H 0.78439 0.25266 0.46259
 H2911 H 0.75972 0.20992 0.46883
 H2912 H 0.77348 0.19759 0.44864
 C2913 C 0.67769 0.31572 0.39553
 C2914 C 0.67097 0.30623 0.38466
 C2915 C 0.66463 0.31290 0.37193
 C2916 C 0.66474 0.32923 0.36981
 C2917 C 0.67118 0.33875 0.38084
 C2918 C 0.67762 0.33207 0.39353
 C2919 C 0.68505 0.30857 0.40866
 N2920 N 0.69380 0.31730 0.41771
 N2921 N 0.70082 0.31075 0.42920
 C2922 C 0.69935 0.29521 0.43216
 N2923 N 0.69051 0.28650 0.42317
 N2924 N 0.68353 0.29304 0.41166
 C2925 C 0.70751 0.28782 0.44466
 C2926 C 0.70452 0.27228 0.44896
 C2927 C 0.71252 0.26516 0.46044
 C2928 C 0.72377 0.27337 0.46781
 C2929 C 0.72668 0.28894 0.46361
 C2930 C 0.71860 0.29610 0.45220
 H2931 H 0.67088 0.29359 0.38580
 H2932 H 0.65997 0.30520 0.36355
 H2933 H 0.67124 0.35139 0.37969
 H2934 H 0.68259 0.33974 0.40175
 H2935 H 0.69602 0.26558 0.44342
 H2936 H 0.71002 0.25314 0.46341
 H2937 H 0.73524 0.29560 0.46909
 H2938 H 0.72121 0.30807 0.44917
 C2939 C 0.68086 0.81512 0.89521
 C2940 C 0.67413 0.80565 0.88433
 C2941 C 0.66782 0.81234 0.87159
 C2942 C 0.66796 0.82868 0.86948
 C2943 C 0.67445 0.83818 0.88050
 C2944 C 0.68088 0.83147 0.89319
 C2945 C 0.68810 0.80794 0.90839
 N2946 N 0.69691 0.81659 0.91745
 N2947 N 0.70377 0.81000 0.92902
 C2948 C 0.70206 0.79450 0.93206
 N2949 N 0.69316 0.78588 0.92307
 N2950 N 0.68635 0.79245 0.91147
 C2951 C 0.71000 0.78705 0.94468
 C2952 C 0.70669 0.77162 0.94907
 C2953 C 0.71447 0.76442 0.96067
 C2954 C 0.72582 0.77244 0.96806
 C2955 C 0.72905 0.78791 0.96377
 C2956 C 0.72119 0.79516 0.95225
 H2957 H 0.67399 0.79302 0.88547
 H2958 H 0.66313 0.80466 0.86322
 H2959 H 0.67454 0.85081 0.87935
 H2960 H 0.68586 0.83912 0.90142
 H2961 H 0.69811 0.76506 0.94352
 H2962 H 0.71172 0.75249 0.96370
 H2963 H 0.73771 0.79442 0.96927
 H2964 H 0.72404 0.80705 0.94915
 C2965 C 0.17891 0.31463 0.89588
 C2966 C 0.17228 0.30508 0.88499
 C2967 C 0.16600 0.31169 0.87221
 C2968 C 0.16607 0.32802 0.87004
 C2969 C 0.17244 0.33759 0.88107
 C2970 C 0.17883 0.33098 0.89382
 C2971 C 0.18616 0.30755 0.90910
 N2972 N 0.19488 0.31630 0.91815
 N2973 N 0.20178 0.30981 0.92975
 C2974 C 0.20020 0.29429 0.93281
 N2975 N 0.19139 0.28557 0.92382
 N2976 N 0.18453 0.29205 0.91220
 C2977 C 0.20823 0.28695 0.94542
 C2978 C 0.20507 0.27149 0.94983
 C2979 C 0.21296 0.26438 0.96140
 C2980 C 0.22427 0.27252 0.96875
 C2981 C 0.22733 0.28803 0.96445
 C2982 C 0.21936 0.29518 0.95296
 H2983 H 0.17221 0.29245 0.88618
 H2984 H 0.16140 0.30395 0.86383
 H2985 H 0.17246 0.35023 0.87988
 H2986 H 0.18373 0.33868 0.90204
 H2987 H 0.19653 0.26482 0.94431
 H2988 H 0.21034 0.25241 0.96444
 H2989 H 0.23594 0.29463 0.96992
 H2990 H 0.22209 0.30710 0.94984
 C2991 C 0.17963 0.81459 0.39673
 C2992 C 0.17280 0.80501 0.38600
 C2993 C 0.16634 0.81157 0.37328
 C2994 C 0.16645 0.82789 0.37102
 C2995 C 0.17304 0.83749 0.38189
 C2996 C 0.17960 0.83092 0.39457
 C2997 C 0.18704 0.80755 0.40988
 N2998 N 0.19584 0.81635 0.41883
 N2999 N 0.20286 0.80991 0.43037
 C3000 C 0.20135 0.79441 0.43349
 N3001 N 0.19248 0.78563 0.42461
 N3002 N 0.18549 0.79206 0.41304
 C3003 C 0.20949 0.78713 0.44607
 C3004 C 0.20648 0.77164 0.45051
 C3005 C 0.21445 0.76463 0.46208
 C3006 C 0.22569 0.77290 0.46940
 C3007 C 0.22862 0.78842 0.46505
 C3008 C 0.22058 0.79548 0.45356
 H3009 H 0.17268 0.79238 0.38727
 H3010 H 0.16156 0.80380 0.36503
 H3011 H 0.17310 0.85012 0.38063
 H3012 H 0.18466 0.83866 0.40267
 H3013 H 0.19798 0.76489 0.44502
 H3014 H 0.21192 0.75265 0.46516
 H3015 H 0.23718 0.79512 0.47050
 H3016 H 0.22320 0.80741 0.45042
 C3017 C 0.68423 0.68475 0.60609
 C3018 C 0.69238 0.67852 0.61803
 C3019 C 0.68532 0.67182 0.63033
 C3020 C 0.66991 0.67100 0.63093
 C3021 C 0.66175 0.67722 0.61895
 C3022 C 0.66883 0.68409 0.60671
 C3023 C 0.69180 0.69190 0.59311
 N3024 N 0.68440 0.70112 0.58326
 N3025 N 0.69130 0.70766 0.57169
 C3026 C 0.70586 0.70516 0.56943
 N3027 N 0.71323 0.69589 0.57924
 N3028 N 0.70635 0.68943 0.59085
 C3029 C 0.71363 0.71248 0.55665
 C3030 C 0.72766 0.70722 0.55247
 C3031 C 0.73514 0.71425 0.54060
 C3032 C 0.72884 0.72683 0.53274
 C3033 C 0.71479 0.73208 0.53687
 C3034 C 0.70722 0.72492 0.54864
 H3035 H 0.70426 0.67897 0.61798
 H3036 H 0.69195 0.66746 0.63948
 H3037 H 0.64988 0.67659 0.61894
 H3038 H 0.66223 0.68871 0.59765
 H3039 H 0.73288 0.69762 0.55836
 H3040 H 0.74596 0.70996 0.53771
 H3041 H 0.70963 0.74173 0.53099
 H3042 H 0.69644 0.72927 0.55161
 C3043 C 0.68170 0.18649 0.10506
 C3044 C 0.68138 0.17011 0.10682
 C3045 C 0.67464 0.16334 0.11928
 C3046 C 0.66814 0.17277 0.13035
 C3047 C 0.66838 0.18915 0.12855
 C3048 C 0.67504 0.19592 0.11603
 C3049 C 0.68915 0.19367 0.09201
 N3050 N 0.68780 0.20924 0.08910
 N3051 N 0.69472 0.21572 0.07752
 C3052 C 0.70333 0.20692 0.06839
 N3053 N 0.70465 0.19135 0.07127
 N3054 N 0.69769 0.18486 0.08282
 C3055 C 0.71137 0.21421 0.05575
 C3056 C 0.72229 0.20578 0.04807
 C3057 C 0.73026 0.21281 0.03653
 C3058 C 0.72741 0.22839 0.03230
 C3059 C 0.71632 0.23674 0.03979
 C3060 C 0.70843 0.22974 0.05143
 H3061 H 0.68631 0.16249 0.09854
 H3062 H 0.67442 0.15068 0.12020
 H3063 H 0.66369 0.19677 0.13697
 H3064 H 0.67516 0.20858 0.11508
 H3065 H 0.72485 0.19380 0.05112
 H3066 H 0.73870 0.20605 0.03095
 H3067 H 0.71388 0.24877 0.03681
 H3068 H 0.70006 0.23655 0.05706
 C3069 C 0.18251 0.68793 0.10395
 C3070 C 0.17597 0.69740 0.11496
 C3071 C 0.16930 0.69066 0.12749
 C3072 C 0.16893 0.67429 0.12926
 C3073 C 0.17530 0.66482 0.11814
 C3074 C 0.18205 0.67155 0.10567
 C3075 C 0.19000 0.69506 0.09090
 N3076 N 0.19848 0.68619 0.08170
 N3077 N 0.20547 0.69263 0.07015
 C3078 C 0.20425 0.70822 0.06727
 N3079 N 0.19570 0.71708 0.07642
 N3080 N 0.18875 0.71064 0.08800
 C3081 C 0.21229 0.71543 0.05461
 C3082 C 0.20938 0.73096 0.05023
 C3083 C 0.21721 0.73787 0.03851
 C3084 C 0.22822 0.72944 0.03098
 C3085 C 0.23107 0.71389 0.03528
 C3086 C 0.22315 0.70694 0.04691
 H3087 H 0.17619 0.71006 0.11403
 H3088 H 0.16471 0.69831 0.13595
 H3089 H 0.17499 0.65216 0.11903
 H3090 H 0.18688 0.66390 0.09735
 H3091 H 0.20105 0.73782 0.05588
 H3092 H 0.21477 0.74988 0.03548
 H3093 H 0.23945 0.70707 0.02967
 H3094 H 0.22570 0.69497 0.05000
 C3095 C 0.18339 0.18562 0.60427
 C3096 C 0.18337 0.16929 0.60640
 C3097 C 0.17630 0.16265 0.61876
 C3098 C 0.16916 0.17220 0.62932
 C3099 C 0.16915 0.18853 0.62715
 C3100 C 0.17613 0.19515 0.61475
 C3101 C 0.19107 0.19270 0.59131
 N3102 N 0.18943 0.20817 0.58806
 N3103 N 0.19650 0.21460 0.57656
 C3104 C 0.20556 0.20586 0.56783
 N3105 N 0.20718 0.19039 0.57105
 N3106 N 0.20007 0.18394 0.58253
 C3107 C 0.21367 0.21313 0.55524
 C3108 C 0.22484 0.20484 0.54780
 C3109 C 0.23279 0.21188 0.53623
 C3110 C 0.22967 0.22732 0.53176
 C3111 C 0.21836 0.23553 0.53904
 C3112 C 0.21049 0.22854 0.55068
 H3113 H 0.18877 0.16159 0.59850
 H3114 H 0.17632 0.15002 0.61996
 H3115 H 0.16398 0.19624 0.63520
 H3116 H 0.17600 0.20778 0.61351
 H3117 H 0.22759 0.19296 0.55103
 H3118 H 0.24141 0.20522 0.53082
 H3119 H 0.21570 0.24745 0.53587
 H3120 H 0.20193 0.23525 0.55612
   
