data_POSCAR
  _audit_creation_date              2014-09-24
  _audit_creation_method            'ToBaCCo'
  _symmetry_space_group_name_H-M    'P1'
  _symmetry_Int_Tables_number       1
  _symmetry_cell_setting            triclinic
  loop_
  _symmetry_equiv_pos_as_xyz
 x,y,z
_cell_length_a 51.8492
_cell_length_b 51.6231
_cell_length_c 51.6620
_cell_angle_alpha 92.836500
_cell_angle_beta 92.201200
_cell_angle_gamma 91.762800
loop_
  _atom_site_label
  _atom_site_type_symbol
  _atom_site_fract_x
  _atom_site_fract_y
  _atom_site_fract_z
C1 C 0.12544 -0.00416 0.25680
 C2 C 0.37604 0.00591 0.74545
 C3 C 0.87424 0.50390 0.24473
 C4 C 0.62471 0.49273 0.75584
 C5 C 0.25612 0.12532 0.99154
 C6 C 0.74523 0.37629 1.00453
 C7 C 0.24637 0.87693 0.50950
 C8 C 0.75448 0.62398 0.49271
 C9 C -0.00515 0.25913 0.12555
 C10 C 0.00369 0.74155 0.37473
 C11 C 0.50466 0.24373 0.87421
 C12 C 0.49457 0.75703 0.62589
 C13 C 0.87508 0.99987 0.74754
 C14 C 0.37529 0.50293 0.24691
 C15 C 0.62501 0.99660 0.25454
 C16 C 0.12519 0.49859 0.75423
 C17 C 0.74909 0.87668 0.00468
 C18 C 0.24745 0.37653 0.50327
 C19 C 0.25228 0.62354 -0.00302
 C20 C 0.75247 0.12196 0.49204
 C21 C 1.00372 0.74718 0.87376
 C22 C 0.50387 0.24479 0.37328
 C23 C 0.99501 0.25328 0.62524
 C24 C 0.49420 0.75528 0.12588
 O25 O -0.01407 0.98559 0.92798
 O26 O 0.03022 0.99852 0.92811
 O27 O -0.01101 0.92817 0.98775
 O28 O -0.00315 0.92721 1.02947
 O29 O -0.07162 0.98692 0.98671
 O30 O -0.07098 1.03154 0.99998
 O31 O 0.05462 1.00144 1.05889
 O32 O 0.05780 0.95978 1.03728
 O33 O 0.05955 1.05382 0.99893
 O34 O 0.03485 1.05848 0.95742
 O35 O 0.00112 1.06083 1.05328
 O36 O -0.03965 1.03803 1.05975
 O37 O 0.01974 1.02068 1.07561
 O38 O -0.02609 1.00665 1.07547
 O39 O 0.01937 1.07677 1.01790
 O40 O 0.00526 1.07620 0.97273
 O41 O 0.07639 1.01919 1.01814
 O42 O 0.07745 0.97541 1.00457
 O43 O -0.04903 1.00485 0.94459
 O44 O -0.05371 1.04586 0.96765
 O45 O -0.05479 0.95183 1.00514
 O46 O -0.03084 0.95020 1.04750
 O47 O 0.00419 0.94415 0.95081
 O48 O 0.04499 0.96640 0.94594
 Zr49 Zr 0.01168 0.98382 0.96032
 O50 O 0.03735 1.00864 0.98316
 Zr51 Zr -0.01522 0.96137 1.01227
 O52 O 0.00966 0.98488 1.03737
 Zr53 Zr -0.03930 1.01230 0.98424
 O54 O -0.01583 1.03814 1.00839
 Zr55 Zr 0.04443 0.99318 1.01952
 O56 O 0.02094 0.96673 0.99555
 Zr57 Zr 0.02009 1.04413 0.99178
 O58 O -0.00454 1.02048 0.96608
 Zr59 Zr -0.00671 1.02129 1.04367
 O60 O -0.03301 0.99669 1.02073
 O61 O -0.02376 0.97625 0.97640
 O62 O 0.02897 1.02939 1.02789
 C63 C -0.03668 0.99493 0.92558
 C64 C -0.00355 0.92542 0.96437
 C65 C -0.07389 0.96432 0.99592
 C66 C 0.04245 1.01158 1.07790
 C67 C 0.07859 1.04168 1.00871
 C68 C 0.01068 1.07953 1.04080
 H69 H 0.05338 1.01107 0.97370
 H70 H -0.02496 1.05452 1.01103
 H71 H -0.03523 0.96451 0.96505
 H72 H 0.01273 0.97593 1.05363
 H73 H 0.05113 0.94454 1.02636
 H74 H 0.01259 0.93196 1.04028
 H75 H -0.01158 1.08014 0.98011
 H76 H -0.04059 1.05183 0.95565
 H77 H 0.07885 0.98014 0.98636
 H78 H 0.05090 0.95429 0.95905
 H79 H -0.04614 1.05084 1.04768
 H80 H -0.07266 1.02548 1.01774
 H81 H 0.02384 1.01621 0.92606
 H82 H 0.04906 1.04731 0.95204
 H83 H -0.04479 0.96225 1.05155
 H84 H -0.01752 0.99066 1.08042
 O85 O 0.48511 0.48412 0.42713
 O86 O 0.52925 0.49718 0.42746
 O87 O 0.48606 0.42616 0.48552
 O88 O 0.49654 0.42479 0.52713
 O89 O 0.42729 0.48521 0.48542
 O90 O 0.42785 0.52956 0.49914
 O91 O 0.55306 0.49875 0.55838
 O92 O 0.55644 0.45750 0.53671
 O93 O 0.55828 0.55189 0.49935
 O94 O 0.53448 0.55734 0.45803
 O95 O 0.49944 0.55841 0.55316
 O96 O 0.45821 0.53468 0.55871
 O97 O 0.51819 0.51799 0.57513
 O98 O 0.47287 0.50425 0.57523
 O99 O 0.51800 0.57461 0.51807
 O100 O 0.50390 0.57402 0.47235
 O101 O 0.57501 0.51697 0.51814
 O102 O 0.57583 0.47286 0.50375
 O103 O 0.45027 0.50359 0.44374
 O104 O 0.44544 0.54431 0.46724
 O105 O 0.44377 0.45001 0.50395
 O106 O 0.46739 0.44719 0.54572
 O107 O 0.50401 0.44237 0.45006
 O108 O 0.54431 0.46532 0.44506
 Zr109 Zr 0.51075 0.48218 0.45954
 O110 O 0.53624 0.50680 0.48277
 Zr111 Zr 0.48339 0.45908 0.51093
 O112 O 0.50810 0.48240 0.53644
 Zr113 Zr 0.45968 0.51051 0.48348
 O114 O 0.48295 0.53612 0.50805
 Zr115 Zr 0.54303 0.49088 0.51894
 O116 O 0.51970 0.46464 0.49457
 Zr117 Zr 0.51894 0.54222 0.49168
 O118 O 0.49454 0.51880 0.46560
 Zr119 Zr 0.49182 0.51883 0.54314
 O120 O 0.46571 0.49440 0.51977
 O121 O 0.47518 0.47450 0.47525
 O122 O 0.52759 0.52705 0.52763
 C123 C 0.46264 0.49374 0.42472
 C124 C 0.49499 0.42348 0.46269
 C125 C 0.42484 0.46265 0.49463
 C126 C 0.54087 0.50881 0.57740
 C127 C 0.57724 0.53964 0.50911
 C128 C 0.50909 0.57724 0.54088
 H129 H 0.55234 0.50936 0.47347
 H130 H 0.47377 0.55246 0.51078
 H131 H 0.46373 0.46291 0.46371
 H132 H 0.51107 0.47332 0.55264
 H133 H 0.54955 0.44226 0.52593
 H134 H 0.51087 0.42992 0.53970
 H135 H 0.48753 0.57860 0.48040
 H136 H 0.45860 0.55039 0.45534
 H137 H 0.57830 0.47904 0.48619
 H138 H 0.55052 0.45340 0.45820
 H139 H 0.45250 0.54851 0.54743
 H140 H 0.42609 0.52340 0.51685
 H141 H 0.52306 0.51499 0.42576
 H142 H 0.54810 0.54568 0.45212
 H143 H 0.45414 0.45981 0.55044
 H144 H 0.48076 0.48767 0.57936
 O145 O 0.43900 -0.04775 0.49722
 O146 O 0.45757 -0.05709 0.45599
 O147 O 0.50214 -0.05226 0.55075
 O148 O 0.54081 -0.03305 0.55907
 O149 O 0.45080 0.01181 0.55505
 O150 O 0.44791 0.05106 0.53230
 O151 O 0.57203 0.00988 0.48379
 O152 O 0.57052 -0.03174 0.49884
 O153 O 0.51146 0.00938 0.42542
 O154 O 0.46686 0.00007 0.42334
 O155 O 0.51863 0.07213 0.48295
 O156 O 0.50897 0.07692 0.52820
 O157 O 0.55844 0.04895 0.49922
 O158 O 0.53934 0.05855 0.54285
 O159 O 0.49772 0.05349 0.44702
 O160 O 0.45299 0.03112 0.44233
 O161 O 0.54728 -0.00806 0.44333
 O162 O 0.54918 -0.04985 0.46500
 O163 O 0.42537 -0.00881 0.51306
 O164 O 0.42790 0.03477 0.49930
 O165 O 0.48621 -0.00657 0.57283
 O166 O 0.53202 0.00591 0.57208
 O167 O 0.48067 -0.07094 0.51507
 O168 O 0.49045 -0.07501 0.47030
 Zr169 Zr 0.47801 -0.04070 0.48936
 O170 O 0.50175 -0.02134 0.46390
 Zr171 Zr 0.51003 -0.01365 0.54125
 O172 O 0.53561 0.00643 0.51799
 Zr173 Zr 0.45910 0.01501 0.51585
 O174 O 0.48241 0.03687 0.49195
 Zr175 Zr 0.53834 -0.01370 0.48197
 O176 O 0.51547 -0.03564 0.50650
 Zr177 Zr 0.48754 0.01546 0.45701
 O178 O 0.46171 -0.00537 0.47978
 Zr179 Zr 0.51984 0.04206 0.50890
 O180 O 0.49543 0.02313 0.53453
 O181 O 0.47323 -0.02090 0.52475
 O182 O 0.52468 0.02261 0.47320
 C183 C 0.42155 -0.03282 0.50585
 C184 C 0.49099 -0.07186 0.53801
 C185 C 0.46388 0.00340 0.57434
 C186 C 0.57579 0.03402 0.49037
 C187 C 0.53428 0.00053 0.42411
 C188 C 0.50917 0.07294 0.45969
 H189 H 0.50262 -0.03203 0.44758
 H190 H 0.47417 0.05357 0.48914
 H191 H 0.46209 -0.03073 0.53622
 H192 H 0.55271 0.00865 0.52709
 H193 H 0.56361 -0.04504 0.51014
 H194 H 0.55662 -0.02849 0.54996
 H195 H 0.45087 0.04816 0.45149
 H196 H 0.42398 0.02629 0.48193
 H197 H 0.53787 -0.05418 0.44945
 H198 H 0.50839 -0.07741 0.47680
 H199 H 0.49159 0.08096 0.52125
 H200 H 0.46202 0.05727 0.54474
 H201 H 0.44572 -0.04374 0.45000
 H202 H 0.46951 -0.01883 0.42224
 H203 H 0.52480 0.02334 0.57464
 H204 H 0.55446 0.04796 0.54671
 O205 O -0.00031 0.44893 1.04964
 O206 O 0.04132 0.47000 1.05627
 O207 O -0.05113 0.51230 1.05414
 O208 O -0.05697 0.54917 1.03411
 O209 O -0.06151 0.45282 0.99440
 O210 O -0.04192 0.44485 0.95361
 O211 O 0.01585 0.57491 0.98480
 O212 O 0.00456 0.57874 1.02750
 O213 O 0.07087 0.51338 0.98515
 O214 O 0.06959 0.46923 0.99671
 O215 O 0.01158 0.51398 0.92568
 O216 O -0.03354 0.50266 0.92296
 O217 O -0.00307 0.55637 0.94767
 O218 O -0.04740 0.53407 0.94171
 O219 O 0.04664 0.49525 0.94341
 O220 O 0.04938 0.45299 0.96621
 O221 O 0.05645 0.55210 1.00058
 O222 O 0.03763 0.55976 1.04400
 O223 O -0.01992 0.43016 1.01300
 O224 O -0.00889 0.42721 0.96825
 O225 O -0.07588 0.49098 1.01140
 O226 O -0.07314 0.53507 0.99635
 O227 O -0.01564 0.49414 1.07205
 O228 O 0.02938 0.50462 1.07311
 Zr229 Zr 0.00827 0.48746 1.04053
 O230 O 0.03387 0.50852 1.01830
 Zr231 Zr -0.04275 0.51569 1.01497
 O232 O -0.01925 0.53859 0.99214
 Zr233 Zr -0.02242 0.46083 0.98768
 O234 O 0.00148 0.48126 0.96305
 Zr235 Zr 0.01785 0.54413 1.00971
 O236 O -0.00673 0.52421 1.03440
 Zr237 Zr 0.03757 0.48917 0.98200
 O238 O 0.01463 0.46624 1.00561
 Zr239 Zr -0.01319 0.51808 0.95683
 O240 O -0.03908 0.49613 0.97864
 O241 O -0.02819 0.47985 1.02329
 O242 O 0.02359 0.52546 0.97376
 C243 C -0.01062 0.42926 1.03636
 C244 C -0.03808 0.50387 1.07347
 C245 C -0.07930 0.46718 1.00325
 C246 C 0.00728 0.57580 0.96124
 C247 C 0.07423 0.53746 0.99214
 C248 C 0.03427 0.50485 0.92430
 H249 H 0.05070 0.51078 1.02790
 H250 H 0.00299 0.47094 0.94658
 H251 H -0.03946 0.46981 1.03446
 H252 H -0.02757 0.55530 0.98963
 H253 H -0.00666 0.57357 1.04157
 H254 H -0.04752 0.56436 1.02774
 H255 H 0.03911 0.44883 0.94992
 H256 H 0.00870 0.42459 0.97559
 H257 H 0.05288 0.54926 1.04758
 H258 H 0.02451 0.52301 1.07450
 H259 H -0.02891 0.48429 0.92045
 H260 H -0.05343 0.45837 0.94737
 H261 H 0.04644 0.45672 1.04313
 H262 H 0.07363 0.47634 1.01458
 H263 H -0.07758 0.52518 0.97979
 H264 H -0.05007 0.55060 0.95160
 O265 O 0.01062 0.42390 0.51210
 O266 O -0.00039 0.42184 0.46734
 O267 O 0.07213 0.48435 0.51548
 O268 O 0.07590 0.52577 0.50788
 O269 O 0.01226 0.48422 0.57303
 O270 O -0.03143 0.49742 0.57170
 O271 O 0.00310 0.55127 0.44893
 O272 O 0.04453 0.53259 0.44691
 O273 O -0.05142 0.49229 0.44056
 O274 O -0.05830 0.45003 0.46200
 O275 O -0.05544 0.54758 0.50057
 O276 O -0.03369 0.55537 0.54358
 O277 O -0.01332 0.56952 0.48548
 O278 O -0.00116 0.57154 0.53190
 O279 O -0.07337 0.51072 0.48083
 O280 O -0.07582 0.46577 0.49252
 O281 O -0.01420 0.50907 0.42534
 O282 O 0.02969 0.49674 0.42608
 O283 O -0.00690 0.44179 0.54830
 O284 O -0.04730 0.46340 0.55196
 O285 O 0.04881 0.50269 0.55823
 O286 O 0.05350 0.54462 0.53723
 O287 O 0.05447 0.44712 0.49612
 O288 O 0.03242 0.43986 0.45430
 Zr289 Zr 0.01548 0.45528 0.48807
 O290 O -0.00733 0.47665 0.46282
 Zr291 Zr 0.04058 0.50873 0.51880
 O292 O 0.01923 0.53249 0.49449
 Zr293 Zr -0.01256 0.48058 0.53977
 O294 O -0.03639 0.50333 0.51678
 Zr295 Zr 0.01071 0.51305 0.45838
 O296 O 0.03511 0.49053 0.48142
 Zr297 Zr -0.04251 0.48520 0.47965
 O298 O -0.02102 0.46087 0.50364
 Zr299 Zr -0.01704 0.53860 0.51019
 O300 O 0.00553 0.51716 0.53608
 O301 O 0.02316 0.47286 0.52469
 O302 O -0.02514 0.52120 0.47335
 C303 C 0.00178 0.42257 0.53490
 C304 C 0.07377 0.46095 0.50613
 C305 C 0.03553 0.49341 0.57636
 C306 C -0.00549 0.57057 0.46228
 C307 C -0.03780 0.50094 0.42239
 C308 C -0.07464 0.53433 0.48965
 H309 H -0.01001 0.46657 0.44612
 H310 H -0.05279 0.50603 0.52550
 H311 H 0.03395 0.46207 0.53583
 H312 H 0.02909 0.54892 0.49247
 H313 H 0.05936 0.52320 0.45405
 H314 H 0.07180 0.53775 0.49406
 H315 H -0.07969 0.47370 0.50970
 H316 H -0.05320 0.45036 0.53813
 H317 H 0.02225 0.47908 0.42204
 H318 H 0.04559 0.45286 0.44947
 H319 H -0.04803 0.54368 0.54830
 H320 H -0.02408 0.51531 0.57459
 H321 H -0.01869 0.42032 0.47203
 H322 H -0.04803 0.44541 0.44680
 H323 H 0.04141 0.54877 0.55110
 H324 H 0.01562 0.57614 0.52456
 O325 O 0.51184 0.92635 0.01374
 O326 O 0.50144 0.92371 -0.03118
 O327 O 0.57434 0.98611 0.01632
 O328 O 0.57834 1.02738 0.00749
 O329 O 0.51363 0.98966 0.07376
 O330 O 0.46976 1.00068 0.07171
 O331 O 0.50627 1.05284 -0.05152
 O332 O 0.54760 1.03345 -0.05292
 O333 O 0.45110 0.99437 -0.05922
 O334 O 0.44392 0.95230 -0.03745
 O335 O 0.44712 1.05026 -0.00026
 O336 O 0.46955 1.05803 0.04349
 O337 O 0.48958 1.07170 -0.01540
 O338 O 0.50094 1.07503 0.03027
 O339 O 0.42903 1.01313 -0.01927
 O340 O 0.42640 0.96841 -0.00707
 O341 O 0.48856 1.01043 -0.07457
 O342 O 0.53209 0.99781 -0.07370
 O343 O 0.49506 0.94520 0.04986
 O344 O 0.45463 0.96676 0.05263
 O345 O 0.55133 1.00533 0.05854
 O346 O 0.55626 1.04680 0.03728
 O347 O 0.55633 0.94870 -0.00227
 O348 O 0.53456 0.94103 -0.04411
 Zr349 Zr 0.51750 0.95725 -0.01076
 O350 O 0.49504 0.97844 -0.03653
 Zr351 Zr 0.54300 1.01091 0.01908
 O352 O 0.52185 1.03451 -0.00561
 Zr353 Zr 0.48938 0.98380 0.04030
 O354 O 0.46582 1.00628 0.01680
 Zr355 Zr 0.51337 1.01462 -0.04149
 O356 O 0.53745 0.99215 -0.01801
 Zr357 Zr 0.45983 0.98755 -0.02006
 O358 O 0.48097 0.96349 0.00449
 Zr359 Zr 0.48550 1.04123 0.00972
 O360 O 0.50788 1.02006 0.03599
 O361 O 0.52515 0.97538 0.02563
 O362 O 0.47748 1.02329 -0.02688
 C363 C 0.50312 0.92553 0.03664
 C364 C 0.57577 0.96250 0.00748
 C365 C 0.53723 0.99780 0.07683
 C366 C 0.49768 1.07239 -0.03852
 C367 C 0.46485 1.00265 -0.07745
 C368 C 0.42783 1.03687 -0.01087
 H369 H 0.49236 0.96815 -0.05310
 H370 H 0.44940 1.00925 0.02542
 H371 H 0.53575 0.96474 0.03712
 H372 H 0.53182 1.05084 -0.00782
 H373 H 0.56221 1.02379 -0.04573
 H374 H 0.57421 1.03981 -0.00591
 H375 H 0.42263 0.97647 0.01008
 H376 H 0.44882 0.95348 0.03899
 H377 H 0.52500 0.97990 -0.07703
 H378 H 0.54781 0.95385 -0.04914
 H379 H 0.45367 1.04789 0.04697
 H380 H 0.47619 1.01894 0.07393
 H381 H 0.48306 0.92252 -0.02671
 H382 H 0.45410 0.94756 -0.05268
 H383 H 0.54387 1.05146 0.05072
 H384 H 0.51853 1.07835 0.02416
 O385 O 0.48372 0.51701 0.07304
 O386 O 0.52820 0.50750 0.07566
 O387 O 0.48504 0.57299 0.01165
 O388 O 0.49290 0.57297 -0.02993
 O389 O 0.42470 0.51046 0.01032
 O390 O 0.42479 0.46555 -0.00075
 O391 O 0.54946 0.50082 -0.05344
 O392 O 0.55268 0.54412 -0.03370
 O393 O 0.55458 0.45068 0.00624
 O394 O 0.53268 0.44734 0.04845
 O395 O 0.49743 0.43963 -0.04969
 O396 O 0.45437 0.45905 -0.05791
 O397 O 0.51369 0.47981 -0.07180
 O398 O 0.46817 0.49030 -0.07502
 O399 O 0.51385 0.42571 -0.01157
 O400 O 0.50146 0.42764 0.03335
 O401 O 0.57160 0.48694 -0.01076
 O402 O 0.57315 0.53128 0.00099
 O403 O 0.44790 0.49589 0.05482
 O404 O 0.44278 0.45355 0.03297
 O405 O 0.44160 0.54691 -0.00648
 O406 O 0.46333 0.54780 -0.04844
 O407 O 0.50061 0.55905 0.05014
 O408 O 0.54212 0.54020 0.05769
 Zr409 Zr 0.50861 0.51985 0.04204
 O410 O 0.53371 0.49600 0.02140
 Zr411 Zr 0.48055 0.53889 -0.01225
 O412 O 0.50466 0.51609 -0.03534
 Zr413 Zr 0.45693 0.48733 0.01599
 O414 O 0.47975 0.46215 -0.00595
 Zr415 Zr 0.53979 0.51077 -0.01512
 O416 O 0.51705 0.53649 0.00678
 Zr417 Zr 0.51598 0.45927 0.01311
 O418 O 0.49202 0.48212 0.03663
 Zr419 Zr 0.48807 0.47846 -0.04129
 O420 O 0.46242 0.50224 -0.02064
 O421 O 0.47286 0.52447 0.02362
 O422 O 0.52396 0.47346 -0.02297
 C423 C 0.46088 0.50688 0.07431
 C424 C 0.49236 0.57678 0.03560
 C425 C 0.42274 0.53327 0.00174
 C426 C 0.53680 0.48927 -0.07281
 C427 C 0.57337 0.46401 -0.00249
 C428 C 0.50662 0.42206 -0.03551
 H429 H 0.55005 0.49484 0.03170
 H430 H 0.47059 0.44509 -0.00855
 H431 H 0.46167 0.53571 0.03410
 H432 H 0.50741 0.52455 -0.05181
 H433 H 0.54626 0.55936 -0.02378
 H434 H 0.50732 0.56828 -0.04104
 H435 H 0.48459 0.42202 0.02500
 H436 H 0.45586 0.44920 0.04641
 H437 H 0.57473 0.52766 0.01958
 H438 H 0.54736 0.55257 0.04467
 H439 H 0.45015 0.44426 -0.04718
 H440 H 0.42341 0.46998 -0.01917
 H441 H 0.52253 0.48922 0.07747
 H442 H 0.54809 0.45866 0.05303
 H443 H 0.44919 0.53475 -0.05256
 H444 H 0.47574 0.50731 -0.07926
 O445 O -0.07544 0.00861 0.51000
 O446 O -0.07542 -0.03642 0.49905
 O447 O -0.01666 0.01407 0.57350
 O448 O 0.02496 0.00778 0.57855
 O449 O -0.01624 0.07068 0.51213
 O450 O -0.00425 0.06845 0.46838
 O451 O 0.05440 -0.05155 0.50737
 O452 O 0.03470 -0.05301 0.54843
 O453 O -0.00224 -0.06253 0.45068
 O454 O -0.04537 -0.04305 0.44216
 O455 O 0.04968 -0.00113 0.44742
 O456 O 0.05476 0.04282 0.46997
 O457 O 0.07142 -0.01521 0.49052
 O458 O 0.07198 0.03071 0.50196
 O459 O 0.01407 -0.02196 0.42856
 O460 O -0.03132 -0.01206 0.42496
 O461 O 0.01411 -0.07646 0.48884
 O462 O 0.00053 -0.07537 0.53231
 O463 O -0.05844 0.04491 0.49297
 O464 O -0.03680 0.04764 0.45256
 O465 O -0.00016 0.05689 0.55048
 O466 O 0.04264 0.03766 0.55641
 O467 O -0.05267 -0.00631 0.55483
 O468 O -0.05781 -0.04849 0.53278
 Zr469 Zr -0.04333 -0.01473 0.51601
 O470 O -0.02034 -0.03989 0.49421
 Zr471 Zr 0.00814 0.01772 0.54256
 O472 O 0.03340 -0.00629 0.52218
 Zr473 Zr -0.01948 0.03676 0.48795
 O474 O 0.00469 0.01393 0.46509
 Zr475 Zr 0.01572 -0.04296 0.51354
 O476 O -0.00837 -0.02011 0.53693
 Zr477 Zr -0.01171 -0.02369 0.45894
 O478 O -0.03751 0.00011 0.47935
 Zr479 Zr 0.03969 0.00869 0.48573
 O480 O 0.01670 0.03438 0.50739
 O481 O -0.02744 0.02238 0.52380
 O482 O 0.02405 -0.02865 0.47759
 C483 C -0.07734 0.03134 0.50118
 C484 C -0.03962 0.00420 0.57455
 C485 C -0.00870 0.07452 0.53600
 C486 C 0.07323 -0.03810 0.49888
 C487 C 0.00693 -0.08010 0.46489
 C488 C 0.03716 -0.01238 0.42780
 H489 H -0.02954 -0.05690 0.49143
 H490 H 0.00732 0.02244 0.44864
 H491 H -0.03882 0.03348 0.53420
 H492 H 0.04966 -0.00768 0.53258
 H493 H 0.02450 -0.04593 0.56282
 H494 H 0.03796 -0.00539 0.57486
 H495 H -0.02435 0.00535 0.42125
 H496 H -0.04944 0.03356 0.44680
 H497 H -0.01675 -0.07999 0.52436
 H498 H -0.04487 -0.05293 0.54630
 H499 H 0.04437 0.04595 0.45404
 H500 H 0.01362 0.07176 0.47549
 H501 H -0.07658 -0.03209 0.48059
 H502 H -0.04953 -0.05801 0.45267
 H503 H 0.04649 0.05116 0.54402
 H504 H 0.07546 0.02489 0.51968
 O505 O 0.67692 0.23226 0.26248
 O506 O 0.67456 0.24449 0.21854
 O507 O 0.73810 0.17586 0.25781
 O508 O 0.77925 0.17560 0.24882
 O509 O 0.73887 0.23515 0.32173
 O510 O 0.75004 0.28005 0.32482
 O511 O 0.80348 0.25034 0.19812
 O512 O 0.78343 0.20743 0.19179
 O513 O 0.74210 0.30111 0.19563
 O514 O 0.70132 0.30479 0.21873
 O515 O 0.79900 0.30917 0.25443
 O516 O 0.80696 0.28738 0.29599
 O517 O 0.82129 0.26973 0.23525
 O518 O 0.82422 0.25665 0.28007
 O519 O 0.76129 0.32439 0.23829
 O520 O 0.71657 0.32261 0.25095
 O521 O 0.76140 0.26644 0.17691
 O522 O 0.74955 0.22279 0.17166
 O523 O 0.69483 0.25160 0.29963
 O524 O 0.71633 0.29338 0.30769
 O525 O 0.75751 0.20015 0.30283
 O526 O 0.79816 0.19872 0.28004
 O527 O 0.69999 0.19109 0.24255
 O528 O 0.69256 0.21212 0.20241
 Zr529 Zr 0.70794 0.23059 0.23733
 O530 O 0.72861 0.25546 0.21394
 Zr531 Zr 0.76203 0.20941 0.26403
 O532 O 0.78511 0.23323 0.24164
 Zr533 Zr 0.73349 0.26013 0.29119
 O534 O 0.75538 0.28625 0.27018
 Zr535 Zr 0.76515 0.24068 0.20688
 O536 O 0.74320 0.21402 0.22771
 Zr537 Zr 0.73658 0.29128 0.23413
 O538 O 0.71309 0.26746 0.25647
 Zr539 Zr 0.79073 0.26995 0.26086
 O540 O 0.77009 0.24507 0.28472
 O541 O 0.72622 0.22384 0.27276
 O542 O 0.77268 0.27714 0.22527
 C543 C 0.67552 0.24131 0.28599
 C544 C 0.71433 0.17279 0.24999
 C545 C 0.74882 0.21271 0.32259
 C546 C 0.82261 0.26119 0.21159
 C547 C 0.75166 0.28896 0.17609
 C548 C 0.78503 0.32735 0.24612
 H549 H 0.71841 0.25751 0.19767
 H550 H 0.75787 0.30282 0.28052
 H551 H 0.71594 0.21214 0.28330
 H552 H 0.80157 0.22470 0.23835
 H553 H 0.77299 0.19211 0.19656
 H554 H 0.79041 0.18094 0.23480
 H555 H 0.72493 0.32728 0.26815
 H556 H 0.70319 0.29872 0.29478
 H557 H 0.73078 0.22557 0.17099
 H558 H 0.70559 0.19982 0.19635
 H559 H 0.79609 0.30196 0.30132
 H560 H 0.76830 0.27502 0.32610
 H561 H 0.67209 0.26215 0.22622
 H562 H 0.69582 0.29331 0.20349
 H563 H 0.80289 0.21144 0.29455
 H564 H 0.82898 0.24030 0.27093
 O565 O 0.69089 0.75072 0.69930
 O566 O 0.71422 0.79046 0.69427
 O567 O 0.75213 0.69607 0.69159
 O568 O 0.78842 0.68706 0.71259
 O569 O 0.69711 0.68992 0.75315
 O570 O 0.69229 0.71337 0.79330
 O571 O 0.82239 0.76235 0.76571
 O572 O 0.82190 0.74722 0.72223
 O573 O 0.76551 0.82056 0.76763
 O574 O 0.72057 0.82156 0.75491
 O575 O 0.76648 0.76323 0.82396
 O576 O 0.75253 0.71816 0.82386
 O577 O 0.80620 0.74404 0.80095
 O578 O 0.78174 0.70236 0.80562
 O579 O 0.74787 0.79858 0.80790
 O580 O 0.70536 0.80373 0.78422
 O581 O 0.80055 0.80342 0.74908
 O582 O 0.80496 0.78167 0.70721
 O583 O 0.67442 0.73210 0.73427
 O584 O 0.67552 0.74602 0.77903
 O585 O 0.73145 0.67300 0.73310
 O586 O 0.77639 0.67383 0.74906
 O587 O 0.73224 0.73089 0.67577
 O588 O 0.74618 0.77521 0.67680
 Zr589 Zr 0.73053 0.75666 0.70851
 O590 O 0.75500 0.78204 0.73203
 Zr591 Zr 0.75766 0.70484 0.73164
 O592 O 0.78367 0.72802 0.75589
 Zr593 Zr 0.70685 0.72959 0.75980
 O594 O 0.73060 0.75357 0.78561
 Zr595 Zr 0.79009 0.76425 0.74013
 O596 O 0.76668 0.73982 0.71409
 Zr597 Zr 0.73927 0.78868 0.76850
 O598 O 0.71306 0.76585 0.74376
 Zr599 Zr 0.76668 0.73684 0.79146
 O600 O 0.74163 0.71122 0.76816
 O601 O 0.72215 0.72102 0.72386
 O602 O 0.77511 0.77278 0.77642
 C603 C 0.67195 0.74161 0.71181
 C604 C 0.74227 0.70853 0.67285
 C605 C 0.70923 0.67078 0.74310
 C606 C 0.82497 0.75342 0.78840
 C607 C 0.78838 0.82256 0.75905
 C608 C 0.75796 0.78629 0.82660
 H609 H 0.75749 0.79839 0.72316
 H610 H 0.72170 0.75633 0.80205
 H611 H 0.71061 0.70966 0.71219
 H612 H 0.79996 0.71877 0.75807
 H613 H 0.81484 0.73626 0.70717
 H614 H 0.80457 0.69632 0.71899
 H615 H 0.70089 0.79342 0.79915
 H616 H 0.67352 0.76355 0.77242
 H617 H 0.79280 0.79480 0.70148
 H618 H 0.76365 0.76838 0.67469
 H619 H 0.73568 0.72557 0.82781
 H620 H 0.70578 0.70201 0.80001
 H621 H 0.70301 0.79739 0.70790
 H622 H 0.72706 0.82485 0.73758
 H623 H 0.76755 0.67061 0.76529
 H624 H 0.79605 0.69716 0.79458
 O625 O 0.24843 0.20130 0.80160
 O626 O 0.20715 0.19447 0.77964
 O627 O 0.30016 0.19656 0.73916
 O628 O 0.30659 0.21652 0.70262
 O629 O 0.30941 0.25804 0.79807
 O630 O 0.28819 0.29776 0.80621
 O631 O 0.23200 0.26588 0.67511
 O632 O 0.24624 0.22343 0.67150
 O633 O 0.17762 0.26574 0.73438
 O634 O 0.17796 0.25352 0.77863
 O635 O 0.23616 0.32474 0.73526
 O636 O 0.28129 0.32760 0.74780
 O637 O 0.25204 0.30234 0.69353
 O638 O 0.29561 0.30903 0.71687
 O639 O 0.20120 0.30720 0.75385
 O640 O 0.19745 0.28417 0.79550
 O641 O 0.19234 0.24747 0.69713
 O642 O 0.21287 0.20590 0.68928
 O643 O 0.26792 0.23794 0.82038
 O644 O 0.25550 0.28237 0.82299
 O645 O 0.32417 0.23903 0.76117
 O646 O 0.32215 0.25458 0.71720
 O647 O 0.26477 0.17870 0.75702
 O648 O 0.21985 0.17727 0.74555
 Zr649 Zr 0.24036 0.21012 0.76283
 O650 O 0.21487 0.23206 0.74090
 Zr651 Zr 0.29153 0.23570 0.73561
 O652 O 0.26815 0.25832 0.71196
 Zr653 Zr 0.26998 0.26329 0.78969
 O654 O 0.24609 0.28763 0.76851
 Zr655 Zr 0.23137 0.24048 0.70565
 O656 O 0.25585 0.21603 0.72640
 Zr657 Zr 0.21031 0.26849 0.75978
 O658 O 0.23320 0.24518 0.78349
 Zr659 Zr 0.26136 0.29367 0.73210
 O660 O 0.28712 0.27213 0.75479
 O661 O 0.27654 0.22759 0.77117
 O662 O 0.22485 0.27655 0.72384
 C663 C 0.25866 0.21462 0.82130
 C664 C 0.28725 0.17727 0.74752
 C665 C 0.32750 0.24855 0.78454
 C666 C 0.24103 0.28923 0.67411
 C667 C 0.17434 0.25691 0.71078
 C668 C 0.21351 0.32627 0.74433
 H669 H 0.19820 0.22232 0.73829
 H670 H 0.24425 0.30414 0.77869
 H671 H 0.28789 0.21662 0.78154
 H672 H 0.27660 0.26082 0.69540
 H673 H 0.25735 0.20925 0.67694
 H674 H 0.29789 0.22332 0.68712
 H675 H 0.20807 0.30004 0.80039
 H676 H 0.23805 0.27468 0.82523
 H677 H 0.19894 0.20067 0.70067
 H678 H 0.22555 0.17527 0.72751
 H679 H 0.27543 0.33095 0.76561
 H680 H 0.29932 0.30462 0.79280
 H681 H 0.20154 0.20784 0.79243
 H682 H 0.17401 0.23578 0.77112
 H683 H 0.32630 0.27106 0.72733
 H684 H 0.29903 0.29871 0.70079
 O685 O 0.19970 0.80393 0.25186
 O686 O 0.19227 0.78172 0.21046
 O687 O 0.19576 0.74000 0.30263
 O688 O 0.21722 0.70468 0.31018
 O689 O 0.25703 0.79972 0.31288
 O690 O 0.29611 0.80748 0.29122
 O691 O 0.26468 0.67663 0.23395
 O692 O 0.22266 0.67356 0.24871
 O693 O 0.26334 0.73556 0.17991
 O694 O 0.24986 0.78033 0.18088
 O695 O 0.32283 0.73722 0.23804
 O696 O 0.32603 0.74904 0.28372
 O697 O 0.30126 0.69487 0.25352
 O698 O 0.30863 0.71788 0.29730
 O699 O 0.30453 0.75592 0.20332
 O700 O 0.28091 0.79674 0.19955
 O701 O 0.24556 0.69860 0.19455
 O702 O 0.20471 0.69118 0.21523
 O703 O 0.23613 0.82228 0.27170
 O704 O 0.27995 0.82462 0.25900
 O705 O 0.23831 0.76315 0.32743
 O706 O 0.25469 0.71905 0.32481
 O707 O 0.17784 0.75991 0.26839
 O708 O 0.17559 0.74793 0.22336
 Zr709 Zr 0.20856 0.76497 0.24359
 O710 O 0.23009 0.74271 0.21757
 Zr711 Zr 0.23503 0.73748 0.29445
 O712 O 0.25747 0.71366 0.27055
 Zr713 Zr 0.26160 0.79134 0.27317
 O714 O 0.28554 0.76999 0.24864
 Zr715 Zr 0.23915 0.70742 0.23377
 O716 O 0.21502 0.72845 0.25870
 Zr717 Zr 0.26600 0.76133 0.21278
 O718 O 0.24309 0.78533 0.23631
 Zr719 Zr 0.29231 0.73353 0.26351
 O720 O 0.27102 0.75633 0.28988
 O721 O 0.22632 0.77315 0.27993
 O722 O 0.27474 0.72531 0.22694
 C723 C 0.21291 0.82349 0.26230
 C724 C 0.17638 0.74910 0.29018
 C725 C 0.24789 0.78635 0.33096
 C726 C 0.28814 0.67548 0.24262
 C727 C 0.25471 0.71201 0.17654
 C728 C 0.32393 0.74669 0.21556
 H729 H 0.22013 0.74009 0.20091
 H730 H 0.30177 0.78017 0.24680
 H731 H 0.21540 0.78357 0.29151
 H732 H 0.26028 0.69707 0.27883
 H733 H 0.20852 0.67922 0.25983
 H734 H 0.22316 0.68914 0.30047
 H735 H 0.29599 0.80241 0.21098
 H736 H 0.27207 0.82693 0.24155
 H737 H 0.19894 0.70278 0.20165
 H738 H 0.17394 0.72990 0.22892
 H739 H 0.32914 0.76681 0.27795
 H740 H 0.30310 0.79412 0.30243
 H741 H 0.20547 0.79414 0.20460
 H742 H 0.23284 0.77188 0.17615
 H743 H 0.27099 0.72917 0.32891
 H744 H 0.29822 0.70221 0.30099
 O745 O 0.24162 0.73774 0.82729
 O746 O 0.25350 0.78246 0.83009
 O747 O 0.17952 0.73606 0.76792
 O748 O 0.17466 0.74300 0.72652
 O749 O 0.23990 0.67816 0.76682
 O750 O 0.28295 0.67958 0.75212
 O751 O 0.24438 0.80278 0.70073
 O752 O 0.20453 0.80502 0.72138
 O753 O 0.30191 0.81098 0.75884
 O754 O 0.31033 0.78944 0.80046
 O755 O 0.30530 0.75141 0.70286
 O756 O 0.28378 0.70912 0.69435
 O757 O 0.26304 0.76764 0.68216
 O758 O 0.25027 0.72080 0.67949
 O759 O 0.32378 0.77104 0.73955
 O760 O 0.32723 0.75856 0.78464
 O761 O 0.26424 0.82618 0.74254
 O762 O 0.22081 0.82546 0.75654
 O763 O 0.26117 0.70298 0.80895
 O764 O 0.30004 0.69878 0.78555
 O765 O 0.20280 0.69307 0.74910
 O766 O 0.19707 0.71447 0.70725
 O767 O 0.19766 0.75516 0.80509
 O768 O 0.22010 0.79629 0.81309
 Zr769 Zr 0.23654 0.76264 0.79659
 O770 O 0.25845 0.78834 0.77517
 Zr771 Zr 0.21053 0.73254 0.74316
 O772 O 0.23086 0.75737 0.71941
 Zr773 Zr 0.26458 0.71143 0.76992
 O774 O 0.28747 0.73489 0.74707
 Zr775 Zr 0.23934 0.79324 0.73927
 O776 O 0.21594 0.76969 0.76185
 Zr777 Zr 0.29358 0.77180 0.76565
 O778 O 0.27307 0.74733 0.79001
 Zr779 Zr 0.26715 0.74200 0.71231
 O780 O 0.24554 0.71558 0.73377
 O781 O 0.22887 0.72620 0.77862
 O782 O 0.27516 0.77864 0.73013
 C783 C 0.25201 0.71551 0.82845
 C784 C 0.17816 0.74551 0.79129
 C785 C 0.21641 0.67490 0.75813
 C786 C 0.25356 0.79028 0.68121
 C787 C 0.28798 0.82912 0.75033
 C788 C 0.32466 0.76226 0.71592
 H789 H 0.26123 0.80494 0.78539
 H790 H 0.30389 0.72625 0.74394
 H791 H 0.21846 0.71498 0.78953
 H792 H 0.22050 0.75955 0.70325
 H793 H 0.19024 0.79748 0.73107
 H794 H 0.17815 0.75769 0.71544
 H795 H 0.33181 0.74208 0.77564
 H796 H 0.30663 0.71258 0.79832
 H797 H 0.22926 0.82973 0.77377
 H798 H 0.20705 0.80187 0.80021
 H799 H 0.29753 0.70333 0.70632
 H800 H 0.27480 0.67674 0.73452
 H801 H 0.27173 0.77734 0.83117
 H802 H 0.29948 0.80399 0.80594
 H803 H 0.20919 0.70063 0.70280
 H804 H 0.23378 0.72887 0.67483
 O805 O 0.25204 0.19802 0.18998
 O806 O 0.29180 0.19199 0.21287
 O807 O 0.19880 0.19241 0.25239
 O808 O 0.19070 0.21388 0.28892
 O809 O 0.19195 0.25350 0.19732
 O810 O 0.21549 0.29308 0.19225
 O811 O 0.26759 0.26554 0.32213
 O812 O 0.25167 0.22269 0.32207
 O813 O 0.32351 0.26537 0.26415
 O814 O 0.32336 0.25208 0.21886
 O815 O 0.26652 0.32307 0.26589
 O816 O 0.22164 0.32402 0.25304
 O817 O 0.24910 0.30095 0.30602
 O818 O 0.20654 0.30616 0.28250
 O819 O 0.30130 0.30612 0.24674
 O820 O 0.30555 0.28180 0.20400
 O821 O 0.30723 0.24719 0.29941
 O822 O 0.28487 0.20572 0.30383
 O823 O 0.23330 0.23333 0.17385
 O824 O 0.24737 0.27773 0.17481
 O825 O 0.17571 0.23436 0.23209
 O826 O 0.17792 0.25085 0.27744
 O827 O 0.23287 0.17539 0.23192
 O828 O 0.27730 0.17534 0.24518
 Zr829 Zr 0.25873 0.20742 0.22980
 O830 O 0.28473 0.23053 0.25402
 Zr831 Zr 0.20798 0.23224 0.25792
 O832 O 0.23185 0.25602 0.28381
 Zr833 Zr 0.23165 0.25922 0.20652
 O834 O 0.25618 0.28462 0.23008
 Zr835 Zr 0.26794 0.23940 0.28961
 O836 O 0.24285 0.21383 0.26641
 Zr837 Zr 0.29122 0.26674 0.23822
 O838 O 0.26774 0.24230 0.21220
 Zr839 Zr 0.24038 0.29116 0.26660
 O840 O 0.21419 0.26841 0.24174
 O841 O 0.22322 0.22364 0.22197
 O842 O 0.27624 0.27535 0.27447
 C843 C 0.24268 0.21064 0.17113
 C844 C 0.21083 0.17321 0.24231
 C845 C 0.17309 0.24416 0.20978
 C846 C 0.25910 0.28860 0.32474
 C847 C 0.32602 0.25673 0.28698
 C848 C 0.28922 0.32518 0.25700
 H849 H 0.30097 0.22123 0.25621
 H850 H 0.25876 0.30093 0.22114
 H851 H 0.21160 0.21215 0.21049
 H852 H 0.22315 0.25865 0.30039
 H853 H 0.24025 0.20797 0.31528
 H854 H 0.20039 0.22000 0.30503
 H855 H 0.29517 0.29685 0.19960
 H856 H 0.26474 0.27072 0.17259
 H857 H 0.29817 0.19998 0.29179
 H858 H 0.27082 0.17352 0.26279
 H859 H 0.22821 0.32738 0.23576
 H860 H 0.20433 0.30008 0.20587
 H861 H 0.29875 0.20543 0.20176
 H862 H 0.32677 0.23479 0.22541
 H863 H 0.17448 0.26698 0.26849
 H864 H 0.20216 0.29582 0.29744
 O865 O 0.79894 0.69475 0.24040
 O866 O 0.80323 0.71721 0.20128
 O867 O 0.80854 0.75614 0.29870
 O868 O 0.78970 0.79293 0.30977
 O869 O 0.74654 0.69901 0.30195
 O870 O 0.70527 0.69301 0.27958
 O871 O 0.73659 0.82396 0.23856
 O872 O 0.78005 0.82550 0.25230
 O873 O 0.73190 0.76583 0.17637
 O874 O 0.74300 0.72101 0.17207
 O875 O 0.67686 0.76526 0.23542
 O876 O 0.67727 0.75200 0.27970
 O877 O 0.70066 0.80604 0.25529
 O878 O 0.69655 0.78295 0.29651
 O879 O 0.69151 0.74720 0.19808
 O880 O 0.71336 0.70498 0.18952
 O881 O 0.75153 0.80220 0.19546
 O882 O 0.79416 0.80819 0.21663
 O883 O 0.76298 0.67680 0.25714
 O884 O 0.71813 0.67590 0.24551
 O885 O 0.76693 0.73508 0.32090
 O886 O 0.75274 0.77978 0.32341
 O887 O 0.82316 0.73703 0.26176
 O888 O 0.82213 0.75069 0.21825
 Zr889 Zr 0.79034 0.73388 0.23649
 O890 O 0.76746 0.75722 0.21329
 Zr891 Zr 0.76900 0.76103 0.29078
 O892 O 0.74553 0.78596 0.26990
 Zr893 Zr 0.73884 0.70841 0.26323
 O894 O 0.71368 0.73095 0.24143
 Zr895 Zr 0.76094 0.79245 0.23370
 O896 O 0.78638 0.77025 0.25600
 Zr897 Zr 0.73053 0.73984 0.20649
 O898 O 0.75455 0.71473 0.22699
 Zr899 Zr 0.70951 0.76722 0.26086
 O900 O 0.73208 0.74330 0.28427
 O901 O 0.77518 0.72543 0.27189
 O902 O 0.72424 0.77576 0.22512
 C903 C 0.78570 0.67539 0.24818
 C904 C 0.82657 0.74660 0.28512
 C905 C 0.75711 0.71198 0.32171
 C906 C 0.71370 0.82530 0.24706
 C907 C 0.74090 0.78926 0.17573
 C908 C 0.67356 0.75675 0.21173
 H909 H 0.77614 0.75982 0.19688
 H910 H 0.69696 0.72136 0.23848
 H911 H 0.78650 0.71438 0.28220
 H912 H 0.74396 0.80243 0.28022
 H913 H 0.79480 0.81917 0.26269
 H914 H 0.78325 0.80885 0.30223
 H915 H 0.69827 0.70031 0.19969
 H916 H 0.72381 0.67413 0.22745
 H917 H 0.79875 0.79634 0.20202
 H918 H 0.82504 0.76835 0.22641
 H919 H 0.67264 0.73476 0.27130
 H920 H 0.69984 0.70625 0.29261
 H921 H 0.78936 0.70486 0.19438
 H922 H 0.76052 0.72799 0.16895
 H923 H 0.73621 0.77045 0.32629
 H924 H 0.70767 0.79835 0.30182
 O925 O 0.76202 0.23300 0.67567
 O926 O 0.74873 0.27657 0.67714
 O927 O 0.82290 0.23638 0.73574
 O928 O 0.82705 0.24475 0.77785
 O929 O 0.76393 0.17325 0.73128
 O930 O 0.72038 0.17098 0.74370
 O931 O 0.75487 0.29742 0.80838
 O932 O 0.79521 0.30334 0.78905
 O933 O 0.69899 0.30080 0.74890
 O934 O 0.69147 0.27753 0.70561
 O935 O 0.69567 0.23993 0.79968
 O936 O 0.71901 0.19977 0.80439
 O937 O 0.73660 0.26074 0.82312
 O938 O 0.75107 0.21557 0.82195
 O939 O 0.67764 0.25869 0.76485
 O940 O 0.67465 0.24605 0.71898
 O941 O 0.73529 0.31906 0.76900
 O942 O 0.77898 0.32238 0.75544
 O943 O 0.74345 0.19625 0.69006
 O944 O 0.70401 0.18866 0.71185
 O945 O 0.80037 0.19154 0.75111
 O946 O 0.80534 0.21403 0.79438
 O947 O 0.80467 0.25420 0.70040
 O948 O 0.78165 0.29327 0.69614
 Zr949 Zr 0.76570 0.25818 0.70893
 O950 O 0.74284 0.28187 0.73234
 Zr951 Zr 0.79173 0.23051 0.75989
 O952 O 0.77029 0.25340 0.78564
 Zr953 Zr 0.73872 0.20441 0.72984
 O954 O 0.71487 0.22575 0.75448
 Zr955 Zr 0.76109 0.28846 0.76915
 O956 O 0.78552 0.26713 0.74476
 Zr957 Zr 0.70806 0.26208 0.73938
 O958 O 0.72955 0.23948 0.71311
 Zr959 Zr 0.73433 0.23466 0.79041
 O960 O 0.75701 0.21037 0.76682
 O961 O 0.77416 0.22242 0.72345
 O962 O 0.72554 0.27054 0.77599
 C963 C 0.75247 0.20979 0.67202
 C964 C 0.82419 0.24606 0.71336
 C965 C 0.78715 0.17199 0.74066
 C966 C 0.74534 0.28427 0.82641
 C967 C 0.71196 0.32020 0.75997
 C968 C 0.67639 0.24924 0.78731
 H969 H 0.73981 0.29818 0.72365
 H970 H 0.69866 0.21557 0.75637
 H971 H 0.78503 0.21198 0.71183
 H972 H 0.78024 0.25657 0.80226
 H973 H 0.80988 0.29738 0.77883
 H974 H 0.82291 0.25874 0.79064
 H975 H 0.67103 0.22871 0.72558
 H976 H 0.69740 0.20190 0.70031
 H977 H 0.77049 0.32607 0.73861
 H978 H 0.79413 0.30012 0.70998
 H979 H 0.70485 0.19327 0.79218
 H980 H 0.72777 0.16894 0.76141
 H981 H 0.73090 0.26920 0.67463
 H982 H 0.70211 0.29289 0.70146
 H983 H 0.79310 0.19962 0.79786
 H984 H 0.76728 0.22515 0.82761
 C985 C 0.08796 1.00253 1.18053
 C986 C 0.11055 0.98864 1.18325
 C987 C 0.12142 0.98566 1.20797
 C988 C 0.10991 0.99597 1.23057
 C989 C 0.08749 1.01067 1.22724
 C990 C 0.07621 1.01358 1.20230
 C991 C 0.07679 1.00607 1.15426
 C992 C 0.05411 1.01995 1.15130
 C993 C 0.04321 1.02254 1.12620
 C994 C 0.05502 1.01146 1.10424
 C995 C 0.07821 0.99830 1.10776
 C996 C 0.08903 0.99540 1.13262
 C997 C 0.05369 1.02768 1.19855
 C998 C 0.04275 1.03066 1.17353
 C999 C 0.12231 0.97836 1.16113
 C1000 C 0.11172 0.98167 1.13622
 H1001 H 0.04437 1.03639 1.21510
 H1002 H 0.02527 1.04149 1.17158
 H1003 H 0.13988 0.96766 1.16308
 H1004 H 0.12133 0.97335 1.11967
 H1005 H 0.13960 0.97596 1.20942
 H1006 H 0.07926 1.02042 1.24387
 H1007 H 0.02538 1.03275 1.12384
 H1008 H 0.08755 0.98961 1.09120
 C1009 C 0.58679 0.49951 0.67980
 C1010 C 0.57523 0.51063 0.70164
 C1011 C 0.58667 0.50772 0.72650
 C1012 C 0.60904 0.49291 0.72970
 C1013 C 0.62037 0.48256 0.70703
 C1014 C 0.60936 0.48554 0.68238
 C1015 C 0.57547 0.50306 0.65360
 C1016 C 0.58755 0.49233 0.63189
 C1017 C 0.57661 0.49528 0.60710
 C1018 C 0.55346 0.50854 0.60371
 C1019 C 0.54179 0.51965 0.62574
 C1020 C 0.55283 0.51702 0.65077
 C1021 C 0.62094 0.47520 0.66018
 C1022 C 0.61020 0.47852 0.63535
 C1023 C 0.55274 0.52481 0.69803
 C1024 C 0.54165 0.52780 0.67307
 H1025 H 0.63849 0.46444 0.66203
 H1026 H 0.61969 0.47016 0.61873
 H1027 H 0.54357 0.53359 0.71464
 H1028 H 0.52420 0.53870 0.67123
 H1029 H 0.57860 0.51756 0.74316
 H1030 H 0.63854 0.47282 0.70836
 H1031 H 0.58585 0.48657 0.59048
 H1032 H 0.52401 0.52995 0.62347
 C1033 C 0.41531 0.00698 0.67240
 C1034 C 0.42981 0.01397 0.69534
 C1035 C 0.41750 0.01467 0.71918
 C1036 C 0.39122 0.00670 0.72027
 C1037 C 0.37703 0.00092 0.69662
 C1038 C 0.38885 0.00089 0.67286
 C1039 C 0.42796 0.00624 0.64732
 C1040 C 0.41311 -0.00000 0.62441
 C1041 C 0.42509 -0.00057 0.60063
 C1042 C 0.45181 0.00443 0.59966
 C1043 C 0.46659 0.01040 0.62276
 C1044 C 0.45461 0.01173 0.64672
 C1045 C 0.37464 -0.00531 0.64958
 C1046 C 0.38656 -0.00565 0.62571
 C1047 C 0.45635 0.01994 0.69391
 C1048 C 0.46859 0.01858 0.67005
 H1049 H 0.35413 -0.00998 0.64982
 H1050 H 0.37494 -0.01052 0.60816
 H1051 H 0.46784 0.02536 0.71141
 H1052 H 0.48913 0.02304 0.66987
 H1053 H 0.42841 0.02158 0.73653
 H1054 H 0.35654 -0.00389 0.69683
 H1055 H 0.41373 -0.00537 0.58288
 H1056 H 0.48718 0.01446 0.62198
 C1057 C -0.08657 0.50594 1.17163
 C1058 C -0.07211 0.51291 1.19461
 C1059 C -0.08438 0.51321 1.21849
 C1060 C -0.11056 0.50485 1.21957
 C1061 C -0.12470 0.49904 1.19588
 C1062 C -0.11294 0.49943 1.17210
 C1063 C -0.07398 0.50568 1.14652
 C1064 C -0.08881 0.49949 1.12358
 C1065 C -0.07687 0.49936 1.09976
 C1066 C -0.05021 0.50470 1.09878
 C1067 C -0.03546 0.51065 1.12192
 C1068 C -0.04741 0.51157 1.14591
 C1069 C -0.12713 0.49328 1.14879
 C1070 C -0.11527 0.49343 1.12489
 C1071 C -0.04566 0.51930 1.19317
 C1072 C -0.03346 0.51838 1.16928
 H1073 H -0.14757 0.48830 1.14902
 H1074 H -0.12688 0.48859 1.10733
 H1075 H -0.03420 0.52472 1.21069
 H1076 H -0.01298 0.52314 1.16910
 H1077 H -0.07355 0.52019 1.23586
 H1078 H -0.14513 0.49397 1.19606
 H1079 H -0.08821 0.49458 1.08199
 H1080 H -0.01492 0.51497 1.12116
 C1081 C -0.08650 0.50242 0.32084
 C1082 C -0.07382 0.49248 0.29914
 C1083 C -0.08628 0.49243 0.27444
 C1084 C -0.11047 0.50407 0.27108
 C1085 C -0.12308 0.51278 0.29363
 C1086 C -0.11127 0.51218 0.31827
 C1087 C -0.07388 0.50208 0.34688
 C1088 C -0.08721 0.51095 0.36863
 C1089 C -0.07534 0.51024 0.39337
 C1090 C -0.05009 0.50144 0.39633
 C1091 C -0.03679 0.49289 0.37438
 C1092 C -0.04884 0.49273 0.34956
 C1093 C -0.12395 0.52105 0.34041
 C1094 C -0.11215 0.52034 0.36521
 C1095 C -0.04896 0.48276 0.30267
 C1096 C -0.03656 0.48317 0.32740
 H1097 H -0.14319 0.52855 0.33856
 H1098 H -0.12260 0.52726 0.38181
 H1099 H -0.03888 0.47504 0.28615
 H1100 H -0.01730 0.47573 0.32922
 H1101 H -0.07723 0.48310 0.25809
 H1102 H -0.14249 0.51991 0.29206
 H1103 H -0.08550 0.51690 0.41028
 H1104 H -0.01741 0.48584 0.37676
 C1105 C 0.41578 1.00464 -0.17870
 C1106 C 0.42799 0.99404 -0.20039
 C1107 C 0.41536 0.99402 -0.22500
 C1108 C 0.39152 1.00632 -0.22831
 C1109 C 0.37934 1.01575 -0.20576
 C1110 C 0.39131 1.01512 -0.18119
 C1111 C 0.42852 1.00418 -0.15274
 C1112 C 0.41561 1.01369 -0.13098
 C1113 C 0.42757 1.01284 -0.10631
 C1114 C 0.45251 1.00327 -0.10345
 C1115 C 0.46542 0.99410 -0.12540
 C1116 C 0.45325 0.99407 -0.15015
 C1117 C 0.37906 1.02463 -0.15903
 C1118 C 0.39097 1.02382 -0.13430
 C1119 C 0.45254 0.98359 -0.19696
 C1120 C 0.46509 0.98389 -0.17232
 H1121 H 0.36006 1.03269 -0.16082
 H1122 H 0.38085 1.03125 -0.11768
 H1123 H 0.46225 0.97536 -0.21349
 H1124 H 0.48410 0.97587 -0.17056
 H1125 H 0.42402 0.98422 -0.24133
 H1126 H 0.36013 1.02335 -0.20723
 H1127 H 0.41773 1.01999 -0.08937
 H1128 H 0.48457 0.98646 -0.12308
 C1129 C 0.58573 0.48844 -0.17112
 C1130 C 0.61190 0.49579 -0.17153
 C1131 C 0.62360 0.49694 -0.19528
 C1132 C 0.60946 0.49161 -0.21905
 C1133 C 0.58329 0.48319 -0.21820
 C1134 C 0.57127 0.48193 -0.19422
 C1135 C 0.57332 0.48750 -0.14594
 C1136 C 0.54710 0.48015 -0.14530
 C1137 C 0.53526 0.48001 -0.12126
 C1138 C 0.54952 0.48739 -0.09805
 C1139 C 0.57596 0.49414 -0.09917
 C1140 C 0.58792 0.49424 -0.12299
 C1141 C 0.54512 0.47430 -0.19277
 C1142 C 0.53323 0.47348 -0.16876
 C1143 C 0.62599 0.50200 -0.14817
 C1144 C 0.61417 0.50130 -0.12428
 H1145 H 0.53367 0.46911 -0.21035
 H1146 H 0.51297 0.46771 -0.16857
 H1147 H 0.64628 0.50765 -0.14836
 H1148 H 0.62564 0.50647 -0.10671
 H1149 H 0.64398 0.50228 -0.19538
 H1150 H 0.57238 0.47722 -0.23587
 H1151 H 0.51490 0.47478 -0.12070
 H1152 H 0.58723 0.49964 -0.08154
 C1153 C 0.08618 -0.00966 0.32961
 C1154 C 0.11215 -0.00150 0.32938
 C1155 C 0.12389 0.00032 0.30569
 C1156 C 0.10999 -0.00522 0.28181
 C1157 C 0.08399 -0.01428 0.28249
 C1158 C 0.07194 -0.01622 0.30638
 C1159 C 0.07379 -0.01156 0.35474
 C1160 C 0.04778 -0.01978 0.35520
 C1161 C 0.03595 -0.02085 0.37920
 C1162 C 0.05000 -0.01356 0.40257
 C1163 C 0.07625 -0.00594 0.40159
 C1164 C 0.08819 -0.00488 0.37782
 C1165 C 0.04600 -0.02469 0.30765
 C1166 C 0.03412 -0.02638 0.33160
 C1167 C 0.12603 0.00468 0.35286
 C1168 C 0.11423 0.00309 0.37669
 H1169 H 0.03472 -0.02992 0.28997
 H1170 H 0.01404 -0.03281 0.33164
 H1171 H 0.14617 0.01096 0.35282
 H1172 H 0.12555 0.00824 0.39436
 H1173 H 0.14416 0.00613 0.30575
 H1174 H 0.07330 -0.02036 0.26472
 H1175 H 0.01573 -0.02673 0.37962
 H1176 H 0.08736 -0.00044 0.41932
 C1177 C 0.18054 1.08713 0.99816
 C1178 C 0.18309 1.10926 0.98378
 C1179 C 0.20760 1.12033 0.98080
 C1180 C 0.23019 1.10945 0.99153
 C1181 C 0.22698 1.08750 1.00667
 C1182 C 0.20226 1.07603 1.00963
 C1183 C 0.15447 1.07587 1.00184
 C1184 C 0.15166 1.05373 1.01632
 C1185 C 0.12675 1.04281 1.01921
 C1186 C 0.10481 1.05411 1.00788
 C1187 C 0.10817 1.07672 0.99401
 C1188 C 0.13285 1.08754 0.99081
 C1189 C 0.19868 1.05401 1.02426
 C1190 C 0.17386 1.04297 1.02740
 C1191 C 0.16099 1.12042 0.97309
 C1192 C 0.13629 1.10972 0.97652
 H1193 H 0.21519 1.04519 1.03330
 H1194 H 0.17205 1.02592 1.03868
 H1195 H 0.16280 1.13761 0.96201
 H1196 H 0.11975 1.11889 0.96791
 H1197 H 0.20880 1.13826 0.97083
 H1198 H 0.24351 1.07981 1.01677
 H1199 H 0.12451 1.02544 1.02997
 H1200 H 0.09164 1.08565 0.98509
 C1201 C 0.67894 0.58589 0.49974
 C1202 C 0.68138 0.60840 0.48591
 C1203 C 0.70585 0.61952 0.48293
 C1204 C 0.72850 0.60831 0.49308
 C1205 C 0.72541 0.58607 0.50785
 C1206 C 0.70074 0.57453 0.51076
 C1207 C 0.65293 0.57444 0.50324
 C1208 C 0.65023 0.55186 0.51707
 C1209 C 0.62538 0.54071 0.51969
 C1210 C 0.60339 0.55223 0.50871
 C1211 C 0.60665 0.57531 0.49555
 C1212 C 0.63125 0.58635 0.49262
 C1213 C 0.69727 0.55210 0.52482
 C1214 C 0.67250 0.54088 0.52777
 C1215 C 0.65922 0.61982 0.47568
 C1216 C 0.63457 0.60896 0.47896
 H1217 H 0.71384 0.54307 0.53352
 H1218 H 0.67077 0.52349 0.53857
 H1219 H 0.66095 0.63732 0.46503
 H1220 H 0.61797 0.61831 0.47068
 H1221 H 0.70702 0.63766 0.47332
 H1222 H 0.74202 0.57816 0.51762
 H1223 H 0.62321 0.52299 0.52990
 H1224 H 0.59007 0.58444 0.48693
 C1225 C 0.67166 0.41600 -0.00047
 C1226 C 0.67306 0.38997 -0.00900
 C1227 C 0.69682 0.37796 -0.00754
 C1228 C 0.71973 0.39153 0.00202
 C1229 C 0.71713 0.41733 0.01225
 C1230 C 0.69353 0.42985 0.01019
 C1231 C 0.64656 0.42860 -0.00166
 C1232 C 0.64508 0.45471 0.00699
 C1233 C 0.62109 0.46657 0.00586
 C1234 C 0.59871 0.45211 -0.00288
 C1235 C 0.60045 0.42591 -0.01116
 C1236 C 0.62440 0.41412 -0.01088
 C1237 C 0.69124 0.45586 0.01899
 C1238 C 0.66749 0.46818 0.01712
 C1239 C 0.65057 0.37619 -0.01846
 C1240 C 0.62661 0.38805 -0.01931
 H1241 H 0.70797 0.46683 0.02727
 H1242 H 0.66659 0.48828 0.02402
 H1243 H 0.65145 0.35600 -0.02507
 H1244 H 0.60968 0.37670 -0.02651
 H1245 H 0.69697 0.35764 -0.01330
 H1246 H 0.73293 0.42746 0.02308
 H1247 H 0.61964 0.48669 0.01256
 H1248 H 0.58317 0.41483 -0.01793
 C1249 C 0.17222 -0.08462 0.50311
 C1250 C 0.19375 -0.07036 0.51399
 C1251 C 0.21753 -0.08248 0.51654
 C1252 C 0.22066 -0.10828 0.50655
 C1253 C 0.19806 -0.12227 0.49681
 C1254 C 0.17413 -0.11066 0.49487
 C1255 C 0.14693 -0.07243 0.50138
 C1256 C 0.12511 -0.08731 0.49194
 C1257 C 0.10097 -0.07590 0.49111
 C1258 C 0.09874 -0.04968 0.49907
 C1259 C 0.12080 -0.03483 0.50805
 C1260 C 0.14494 -0.04630 0.50973
 C1261 C 0.15196 -0.12486 0.48519
 C1262 C 0.12783 -0.11340 0.48383
 C1263 C 0.19094 -0.04434 0.52250
 C1264 C 0.16702 -0.03241 0.52011
 H1265 H 0.15324 -0.14508 0.47879
 H1266 H 0.11116 -0.12506 0.47646
 H1267 H 0.20740 -0.03305 0.53093
 H1268 H 0.16572 -0.01228 0.52678
 H1269 H 0.23304 -0.07204 0.52751
 H1270 H 0.19857 -0.14261 0.49127
 H1271 H 0.08394 -0.08728 0.48416
 H1272 H 0.11895 -0.01469 0.51451
 C1273 C 0.32090 -0.08019 0.51413
 C1274 C 0.29900 -0.06747 0.50537
 C1275 C 0.27480 -0.08056 0.50462
 C1276 C 0.27185 -0.10603 0.51367
 C1277 C 0.29468 -0.11804 0.52230
 C1278 C 0.31890 -0.10544 0.52258
 C1279 C 0.34664 -0.06750 0.51288
 C1280 C 0.36866 -0.08113 0.51992
 C1281 C 0.39312 -0.06956 0.51749
 C1282 C 0.39563 -0.04440 0.50854
 C1283 C 0.37345 -0.03064 0.50212
 C1284 C 0.34881 -0.04236 0.50379
 C1285 C 0.34131 -0.11819 0.53019
 C1286 C 0.36580 -0.10625 0.52882
 C1287 C 0.30190 -0.04228 0.49644
 C1288 C 0.32636 -0.02982 0.49594
 H1289 H 0.33994 -0.13777 0.53679
 H1290 H 0.38264 -0.11690 0.53444
 H1291 H 0.28515 -0.03216 0.48963
 H1292 H 0.32774 -0.01046 0.48882
 H1293 H 0.25896 -0.07151 0.49480
 H1294 H 0.29428 -0.13792 0.52759
 H1295 H 0.41022 -0.08004 0.52267
 H1296 H 0.37544 -0.01127 0.49508
 C1297 C -0.17987 0.41866 1.00875
 C1298 C -0.20175 0.43157 1.00025
 C1299 C -0.22597 0.41851 0.99932
 C1300 C -0.22900 0.39296 1.00814
 C1301 C -0.20615 0.38064 1.01624
 C1302 C -0.18189 0.39319 1.01662
 C1303 C -0.15414 0.43150 1.00798
 C1304 C -0.13212 0.41778 1.01484
 C1305 C -0.10767 0.42962 1.01308
 C1306 C -0.10518 0.45515 1.00504
 C1307 C -0.12738 0.46892 0.99872
 C1308 C -0.15198 0.45694 0.99968
 C1309 C -0.15948 0.38029 1.02393
 C1310 C -0.13498 0.39236 1.02299
 C1311 C -0.19885 0.45700 0.99196
 C1312 C -0.17442 0.46959 0.99197
 H1313 H -0.16084 0.36054 1.03006
 H1314 H -0.11815 0.38163 1.02844
 H1315 H -0.21560 0.46725 0.98536
 H1316 H -0.17305 0.48918 0.98542
 H1317 H -0.24183 0.42777 0.98976
 H1318 H -0.20664 0.36065 1.02116
 H1319 H -0.09055 0.41911 1.01817
 H1320 H -0.12542 0.48856 0.99235
 C1321 C -0.17267 0.58421 0.48775
 C1322 C -0.19565 0.56964 0.48169
 C1323 C -0.21955 0.58195 0.48286
 C1324 C -0.22046 0.60853 0.49084
 C1325 C -0.19680 0.62274 0.49558
 C1326 C -0.17313 0.61077 0.49447
 C1327 C -0.14758 0.57147 0.48709
 C1328 C -0.12478 0.58618 0.49344
 C1329 C -0.10106 0.57395 0.49364
 C1330 C -0.09986 0.54712 0.48761
 C1331 C -0.12293 0.53270 0.48064
 C1332 C -0.14689 0.54482 0.48047
 C1333 C -0.14990 0.62494 0.50025
 C1334 C -0.12611 0.61283 0.49980
 C1335 C -0.19415 0.54305 0.47472
 C1336 C -0.17022 0.53086 0.47418
 H1337 H -0.15012 0.64553 0.50542
 H1338 H -0.10864 0.62440 0.50465
 H1339 H -0.21163 0.53151 0.46990
 H1340 H -0.17001 0.51029 0.46895
 H1341 H -0.23712 0.57090 0.47731
 H1342 H -0.19696 0.64337 0.50065
 H1343 H -0.08355 0.58537 0.49880
 H1344 H -0.12232 0.51205 0.47593
 C1345 C 0.32935 1.08606 -0.01287
 C1346 C 0.30648 1.07131 -0.01895
 C1347 C 0.28246 1.08343 -0.01788
 C1348 C 0.28132 1.11003 -0.01005
 C1349 C 0.30488 1.12441 -0.00518
 C1350 C 0.32867 1.11262 -0.00617
 C1351 C 0.35457 1.07353 -0.01349
 C1352 C 0.37727 1.08842 -0.00712
 C1353 C 0.40111 1.07638 -0.00691
 C1354 C 0.40253 1.04957 -0.01297
 C1355 C 0.37955 1.03499 -0.01993
 C1356 C 0.35548 1.04690 -0.02011
 C1357 C 0.35179 1.12696 -0.00034
 C1358 C 0.37569 1.11505 -0.00075
 C1359 C 0.30822 1.04474 -0.02588
 C1360 C 0.33225 1.03276 -0.02640
 H1361 H 0.35140 1.14755 0.00481
 H1362 H 0.39307 1.12676 0.00412
 H1363 H 0.29083 1.03305 -0.03073
 H1364 H 0.33263 1.01219 -0.03162
 H1365 H 0.26498 1.07223 -0.02342
 H1366 H 0.30455 1.14503 -0.00016
 H1367 H 0.41853 1.08791 -0.00171
 H1368 H 0.38030 1.01434 -0.02464
 C1369 C 0.00189 1.18254 1.08736
 C1370 C 0.01308 1.20410 1.07600
 C1371 C 0.01025 1.22912 1.08762
 C1372 C -0.00463 1.23276 1.10989
 C1373 C -0.01493 1.21034 1.12109
 C1374 C -0.01201 1.18554 1.10993
 C1375 C 0.00527 1.15619 1.07581
 C1376 C -0.00552 1.13476 1.08772
 C1377 C -0.00272 1.10984 1.07659
 C1378 C 0.01044 1.10602 1.05342
 C1379 C 0.02157 1.12774 1.04188
 C1380 C 0.01912 1.15293 1.05314
 C1381 C -0.02240 1.16362 1.12134
 C1382 C -0.01922 1.13864 1.11041
 C1383 C 0.02716 1.20006 1.05349
 C1384 C 0.02998 1.17496 1.04216
 H1385 H -0.03310 1.16579 1.13889
 H1386 H -0.02762 1.12223 1.11976
 H1387 H 0.03598 1.21645 1.04446
 H1388 H 0.04080 1.17279 1.02470
 H1389 H 0.02010 1.24555 1.07970
 H1390 H -0.02468 1.21196 1.13924
 H1391 H -0.01147 1.09346 1.08573
 H1392 H 0.03180 1.12512 1.02408
 C1393 C 0.50026 0.68043 0.58729
 C1394 C 0.48631 0.68355 0.60981
 C1395 C 0.48366 0.70840 0.62105
 C1396 C 0.49433 0.73074 0.60997
 C1397 C 0.50906 0.72696 0.58762
 C1398 C 0.51167 0.70191 0.57598
 C1399 C 0.50353 0.65402 0.57578
 C1400 C 0.51755 0.65065 0.55322
 C1401 C 0.52002 0.62543 0.54206
 C1402 C 0.50872 0.60373 0.55353
 C1403 C 0.49532 0.60765 0.57655
 C1404 C 0.49255 0.63264 0.58762
 C1405 C 0.52584 0.69775 0.55354
 C1406 C 0.52859 0.67261 0.54228
 C1407 C 0.47567 0.66169 0.62114
 C1408 C 0.47871 0.63665 0.61021
 H1409 H 0.53483 0.71407 0.54455
 H1410 H 0.53953 0.67036 0.52491
 H1411 H 0.46491 0.66393 0.63864
 H1412 H 0.47014 0.62031 0.61952
 H1413 H 0.47395 0.71010 0.63921
 H1414 H 0.51909 0.74330 0.57973
 H1415 H 0.53042 0.62276 0.52437
 H1416 H 0.48644 0.59131 0.58561
 C1417 C -0.00297 0.66854 0.41450
 C1418 C 0.00819 0.69045 0.42818
 C1419 C 0.01063 0.71388 0.41567
 C1420 C 0.00036 0.71636 0.39005
 C1421 C -0.00990 0.69340 0.37668
 C1422 C -0.01172 0.66976 0.38867
 C1423 C -0.00439 0.64352 0.42703
 C1424 C -0.01403 0.62123 0.41266
 C1425 C -0.01444 0.59731 0.42435
 C1426 C -0.00588 0.59580 0.45035
 C1427 C 0.00324 0.61835 0.46469
 C1428 C 0.00452 0.64224 0.45292
 C1429 C -0.02167 0.64716 0.37503
 C1430 C -0.02272 0.62327 0.38680
 C1431 C 0.01720 0.68834 0.45399
 C1432 C 0.01509 0.66472 0.46626
 H1433 H -0.02846 0.64789 0.35499
 H1434 H -0.03026 0.60626 0.37553
 H1435 H 0.02585 0.70512 0.46484
 H1436 H 0.02219 0.66396 0.48620
 H1437 H 0.02190 0.72957 0.42561
 H1438 H -0.01585 0.69336 0.35649
 H1439 H -0.02149 0.57991 0.41336
 H1440 H 0.01017 0.61706 0.48464
 C1441 C 0.49946 1.17040 -0.08638
 C1442 C 0.51012 1.19246 -0.07255
 C1443 C 0.51207 1.21602 -0.08493
 C1444 C 0.50178 1.21843 -0.11055
 C1445 C 0.49201 1.19533 -0.12405
 C1446 C 0.49071 1.17158 -0.11220
 C1447 C 0.49853 1.14529 -0.07396
 C1448 C 0.48932 1.12289 -0.08842
 C1449 C 0.48920 1.09893 -0.07677
 C1450 C 0.49756 1.09751 -0.05070
 C1451 C 0.50636 1.12016 -0.03632
 C1452 C 0.50736 1.14408 -0.04804
 C1453 C 0.48126 1.14886 -0.12597
 C1454 C 0.48067 1.12489 -0.11430
 C1455 C 0.51913 1.19040 -0.04674
 C1456 C 0.51746 1.16669 -0.03458
 H1457 H 0.47447 1.14955 -0.14601
 H1458 H 0.47346 1.10780 -0.12565
 H1459 H 0.52741 1.20730 -0.03579
 H1460 H 0.52449 1.16598 -0.01462
 H1461 H 0.52302 1.23186 -0.07489
 H1462 H 0.48607 1.19530 -0.14425
 H1463 H 0.48237 1.08147 -0.08779
 H1464 H 0.51312 1.11896 -0.01630
 C1465 C 0.51089 0.31983 -0.08370
 C1466 C 0.50215 0.29837 -0.07053
 C1467 C 0.50053 0.27377 -0.08351
 C1468 C 0.50892 0.26989 -0.10926
 C1469 C 0.51723 0.29235 -0.12186
 C1470 C 0.51831 0.31700 -0.10938
 C1471 C 0.51079 0.34600 -0.07094
 C1472 C 0.51780 0.36764 -0.08491
 C1473 C 0.51648 0.39256 -0.07314
 C1474 C 0.50872 0.39582 -0.04746
 C1475 C 0.50231 0.37396 -0.03347
 C1476 C 0.50284 0.34896 -0.04532
 C1477 C 0.52583 0.33902 -0.12254
 C1478 C 0.52551 0.36394 -0.11053
 C1479 C 0.49428 0.30210 -0.04491
 C1480 C 0.49490 0.32693 -0.03241
 H1481 H 0.53161 0.33702 -0.14246
 H1482 H 0.53106 0.38046 -0.12147
 H1483 H 0.48749 0.28571 -0.03444
 H1484 H 0.48862 0.32895 -0.01267
 H1485 H 0.49076 0.25833 -0.07400
 H1486 H 0.52176 0.29128 -0.14200
 H1487 H 0.52153 0.40941 -0.08387
 H1488 H 0.49606 0.37652 -0.01374
 C1489 C 0.01068 -0.18239 0.41681
 C1490 C 0.00162 -0.20375 0.42994
 C1491 C -0.00023 -0.22833 0.41696
 C1492 C 0.00824 -0.23232 0.39125
 C1493 C 0.01689 -0.20996 0.37870
 C1494 C 0.01819 -0.18531 0.39118
 C1495 C 0.01078 -0.15621 0.42957
 C1496 C 0.01806 -0.13464 0.41562
 C1497 C 0.01689 -0.10969 0.42735
 C1498 C 0.00900 -0.10634 0.45298
 C1499 C 0.00234 -0.12813 0.46696
 C1500 C 0.00271 -0.15315 0.45513
 C1501 C 0.02601 -0.16337 0.37805
 C1502 C 0.02588 -0.13843 0.39005
 C1503 C -0.00634 -0.19992 0.45552
 C1504 C -0.00552 -0.17510 0.46801
 H1505 H 0.03188 -0.16544 0.35817
 H1506 H 0.03165 -0.12197 0.37913
 H1507 H -0.01336 -0.21625 0.46595
 H1508 H -0.01189 -0.17299 0.48771
 H1509 H -0.01024 -0.24364 0.42642
 H1510 H 0.02152 -0.21107 0.35858
 H1511 H 0.02212 -0.09289 0.41665
 H1512 H -0.00402 -0.12550 0.48664
 C1513 C 0.49104 -0.17002 0.58682
 C1514 C 0.48412 -0.19311 0.57230
 C1515 C 0.48511 -0.21703 0.58435
 C1516 C 0.49358 -0.21789 0.61066
 C1517 C 0.49928 -0.19409 0.62488
 C1518 C 0.49849 -0.17039 0.61311
 C1519 C 0.49032 -0.14490 0.57437
 C1520 C 0.49744 -0.12196 0.58903
 C1521 C 0.49731 -0.09820 0.57708
 C1522 C 0.49002 -0.09710 0.55062
 C1523 C 0.48246 -0.12032 0.53628
 C1524 C 0.48269 -0.14431 0.54808
 C1525 C 0.50514 -0.14704 0.62724
 C1526 C 0.50471 -0.12323 0.61537
 C1527 C 0.47632 -0.19169 0.54604
 C1528 C 0.47565 -0.16774 0.53415
 H1529 H 0.51091 -0.14719 0.64762
 H1530 H 0.51016 -0.10567 0.62691
 H1531 H 0.47083 -0.20924 0.53454
 H1532 H 0.46966 -0.16759 0.51383
 H1533 H 0.47890 -0.23465 0.57337
 H1534 H 0.50469 -0.19415 0.64535
 H1535 H 0.50298 -0.08057 0.58842
 H1536 H 0.47682 -0.11981 0.51590
 C1537 C -0.01004 0.33154 1.08582
 C1538 C -0.01596 0.30823 1.07131
 C1539 C -0.01459 0.28446 1.08357
 C1540 C -0.00662 0.28400 1.11006
 C1541 C -0.00193 0.30798 1.12423
 C1542 C -0.00319 0.33154 1.11228
 C1543 C -0.01111 0.35652 1.07315
 C1544 C -0.00500 0.37967 1.08783
 C1545 C -0.00536 0.40329 1.07570
 C1546 C -0.01177 0.40406 1.04901
 C1547 C -0.01840 0.38064 1.03462
 C1548 C -0.01801 0.35676 1.04664
 C1549 C 0.00242 0.35511 1.12640
 C1550 C 0.00160 0.37879 1.11436
 C1551 C -0.02312 0.30927 1.04485
 C1552 C -0.02407 0.33309 1.03273
 H1553 H 0.00769 0.35524 1.14691
 H1554 H 0.00627 0.39654 1.12589
 H1555 H -0.02785 0.29152 1.03335
 H1556 H -0.02949 0.33296 1.01226
 H1557 H -0.02012 0.26664 1.07259
 H1558 H 0.00306 0.30818 1.14481
 H1559 H -0.00043 0.42108 1.08709
 H1560 H -0.02339 0.38092 1.01407
 C1561 C 0.74527 0.33635 0.07747
 C1562 C 0.73502 0.36100 0.07608
 C1563 C 0.73430 0.37291 0.05236
 C1564 C 0.74315 0.36044 0.02940
 C1565 C 0.75372 0.33554 0.03167
 C1566 C 0.75464 0.32345 0.05544
 C1567 C 0.74719 0.32429 0.10274
 C1568 C 0.75819 0.29991 0.10434
 C1569 C 0.75999 0.28856 0.12844
 C1570 C 0.75087 0.30147 0.15086
 C1571 C 0.74016 0.32609 0.14884
 C1572 C 0.73830 0.33757 0.12487
 C1573 C 0.76552 0.29902 0.05779
 C1574 C 0.76719 0.28741 0.08180
 C1575 C 0.72626 0.37369 0.09863
 C1576 C 0.72778 0.36213 0.12260
 H1577 H 0.77292 0.28883 0.04094
 H1578 H 0.77574 0.26858 0.08275
 H1579 H 0.71827 0.39280 0.09776
 H1580 H 0.72086 0.37259 0.13952
 H1581 H 0.72756 0.39244 0.05233
 H1582 H 0.76307 0.32615 0.01556
 H1583 H 0.76830 0.26963 0.12966
 H1584 H 0.73310 0.33630 0.16585
 C1585 C 0.24626 0.83696 0.58232
 C1586 C 0.23571 0.86147 0.58083
 C1587 C 0.23492 0.87332 0.55710
 C1588 C 0.24407 0.86096 0.53424
 C1589 C 0.25486 0.83615 0.53658
 C1590 C 0.25581 0.82411 0.56035
 C1591 C 0.24837 0.82503 0.60764
 C1592 C 0.25970 0.80081 0.60935
 C1593 C 0.26172 0.78962 0.63352
 C1594 C 0.25254 0.80256 0.65587
 C1595 C 0.24149 0.82700 0.65373
 C1596 C 0.23938 0.83831 0.62971
 C1597 C 0.26701 0.79984 0.56280
 C1598 C 0.26883 0.78834 0.58686
 C1599 C 0.22680 0.87413 0.60332
 C1600 C 0.22852 0.86270 0.62735
 H1601 H 0.27455 0.78970 0.54600
 H1602 H 0.27763 0.76964 0.58789
 H1603 H 0.21858 0.89312 0.60238
 H1604 H 0.22150 0.87313 0.64424
 H1605 H 0.22797 0.89278 0.55696
 H1606 H 0.26447 0.82690 0.52057
 H1607 H 0.27030 0.77082 0.63484
 H1608 H 0.23436 0.83723 0.67071
 C1609 C 0.75031 0.66274 0.56938
 C1610 C 0.73817 0.67393 0.54810
 C1611 C 0.74023 0.66221 0.52303
 C1612 C 0.75509 0.63988 0.51903
 C1613 C 0.76643 0.62886 0.54120
 C1614 C 0.76441 0.64023 0.56605
 C1615 C 0.74763 0.67431 0.59582
 C1616 C 0.75933 0.66257 0.61702
 C1617 C 0.75692 0.67358 0.64206
 C1618 C 0.74307 0.69637 0.64621
 C1619 C 0.73116 0.70781 0.62469
 C1620 C 0.73332 0.69674 0.59942
 C1621 C 0.77583 0.62903 0.58773
 C1622 C 0.77337 0.64004 0.61279
 C1623 C 0.72382 0.69630 0.55248
 C1624 C 0.72155 0.70758 0.57765
 H1625 H 0.78672 0.61155 0.58531
 H1626 H 0.78249 0.63081 0.62899
 H1627 H 0.71427 0.70520 0.53631
 H1628 H 0.71039 0.72487 0.58010
 H1629 H 0.72972 0.67005 0.50685
 H1630 H 0.77624 0.61069 0.53940
 H1631 H 0.76625 0.66454 0.65827
 H1632 H 0.72039 0.72531 0.62755
 C1633 C 0.25099 0.16414 0.06805
 C1634 C 0.26539 0.14181 0.06491
 C1635 C 0.26768 0.13039 0.04012
 C1636 C 0.25630 0.14118 0.01784
 C1637 C 0.24105 0.16326 0.02168
 C1638 C 0.23876 0.17506 0.04666
 C1639 C 0.24811 0.17584 0.09441
 C1640 C 0.23360 0.19816 0.09781
 C1641 C 0.23136 0.20942 0.12299
 C1642 C 0.24337 0.19824 0.14460
 C1643 C 0.25738 0.17552 0.14065
 C1644 C 0.25991 0.16436 0.11570
 C1645 C 0.22414 0.19729 0.05085
 C1646 C 0.22174 0.20872 0.07594
 C1647 C 0.27686 0.13086 0.08669
 C1648 C 0.27419 0.14197 0.11167
 H1649 H 0.21453 0.20598 0.03459
 H1650 H 0.21041 0.22591 0.07823
 H1651 H 0.28797 0.11351 0.08441
 H1652 H 0.28338 0.13294 0.12797
 H1653 H 0.27776 0.11237 0.03845
 H1654 H 0.23048 0.17087 0.00541
 H1655 H 0.22047 0.22686 0.12572
 H1656 H 0.26683 0.16671 0.15694
 C1657 C 0.25928 0.16514 0.91908
 C1658 C 0.26558 0.17960 0.94234
 C1659 C 0.26475 0.16731 0.96610
 C1660 C 0.25699 0.14080 0.96663
 C1661 C 0.25186 0.12668 0.94269
 C1662 C 0.25257 0.13867 0.91913
 C1663 C 0.25987 0.17783 0.89410
 C1664 C 0.25343 0.16320 0.87099
 C1665 C 0.25345 0.17534 0.84737
 C1666 C 0.25987 0.20200 0.84655
 C1667 C 0.26675 0.21636 0.86994
 C1668 C 0.26669 0.20433 0.89381
 C1669 C 0.24657 0.12460 0.89560
 C1670 C 0.24692 0.13668 0.87193
 C1671 C 0.27260 0.20606 0.94125
 C1672 C 0.27310 0.21820 0.91744
 H1673 H 0.24138 0.10410 0.89549
 H1674 H 0.24199 0.12518 0.85421
 H1675 H 0.27760 0.21753 0.95896
 H1676 H 0.27846 0.23866 0.91755
 H1677 H 0.27055 0.17828 0.98385
 H1678 H 0.24697 0.10610 0.94254
 H1679 H 0.24831 0.16396 0.82962
 H1680 H 0.27174 0.23688 0.86963
 C1681 C 0.75723 0.66320 0.41988
 C1682 C 0.74998 0.63689 0.42020
 C1683 C 0.74935 0.62510 0.44388
 C1684 C 0.75509 0.63929 0.46769
 C1685 C 0.76328 0.66564 0.46687
 C1686 C 0.76408 0.67772 0.44298
 C1687 C 0.75785 0.67566 0.39477
 C1688 C 0.76529 0.70197 0.39422
 C1689 C 0.76547 0.71377 0.37025
 C1690 C 0.75810 0.69940 0.34699
 C1691 C 0.75098 0.67293 0.34805
 C1692 C 0.75087 0.66098 0.37180
 C1693 C 0.77166 0.70400 0.44162
 C1694 C 0.77222 0.71591 0.41769
 C1695 C 0.74341 0.62276 0.39682
 C1696 C 0.74377 0.63463 0.37302
 H1697 H 0.77709 0.71551 0.45920
 H1698 H 0.77805 0.73623 0.41758
 H1699 H 0.73780 0.60237 0.39693
 H1700 H 0.73842 0.62308 0.35544
 H1701 H 0.74412 0.60460 0.44392
 H1702 H 0.76948 0.67663 0.48450
 H1703 H 0.77097 0.73416 0.36978
 H1704 H 0.74543 0.66156 0.33040
 C1705 C 0.24952 0.83552 0.43352
 C1706 C 0.23941 0.82230 0.45409
 C1707 C 0.23893 0.83503 0.47874
 C1708 C 0.24901 0.86085 0.48334
 C1709 C 0.25822 0.87364 0.46166
 C1710 C 0.25894 0.86114 0.43716
 C1711 C 0.24925 0.82270 0.40737
 C1712 C 0.25881 0.83635 0.38675
 C1713 C 0.25831 0.82429 0.36191
 C1714 C 0.24820 0.79875 0.35744
 C1715 C 0.23858 0.78532 0.37838
 C1716 C 0.23902 0.79728 0.40341
 C1717 C 0.26842 0.87416 0.41607
 C1718 C 0.26846 0.86192 0.39128
 C1719 C 0.22935 0.79681 0.44942
 C1720 C 0.22924 0.78448 0.42453
 H1721 H 0.27578 0.89403 0.41872
 H1722 H 0.27587 0.87265 0.37551
 H1723 H 0.22141 0.78633 0.46510
 H1724 H 0.22125 0.76485 0.42176
 H1725 H 0.22922 0.82517 0.49377
 H1726 H 0.26425 0.89379 0.46325
 H1727 H 0.26573 0.83491 0.34606
 H1728 H 0.23069 0.76568 0.37523
 C1729 C 0.74653 0.33464 0.92849
 C1730 C 0.73690 0.32149 0.94933
 C1731 C 0.73690 0.33432 0.97399
 C1732 C 0.74714 0.36011 0.97832
 C1733 C 0.75579 0.37286 0.95639
 C1734 C 0.75594 0.36030 0.93186
 C1735 C 0.74590 0.32166 0.90239
 C1736 C 0.75507 0.33521 0.88153
 C1737 C 0.75453 0.32291 0.85680
 C1738 C 0.74488 0.29715 0.85267
 C1739 C 0.73545 0.28389 0.87380
 C1740 C 0.73589 0.29612 0.89873
 C1741 C 0.76491 0.37325 0.91051
 C1742 C 0.76457 0.36088 0.88576
 C1743 C 0.72689 0.29594 0.94494
 C1744 C 0.72650 0.28344 0.92010
 H1745 H 0.77222 0.39315 0.91294
 H1746 H 0.77167 0.37153 0.86979
 H1747 H 0.71930 0.28552 0.96082
 H1748 H 0.71867 0.26374 0.91759
 H1749 H 0.72747 0.32456 0.98924
 H1750 H 0.76185 0.39302 0.95786
 H1751 H 0.76176 0.33344 0.84080
 H1752 H 0.72790 0.26410 0.87091
 C1753 C 0.83428 0.42833 0.24519
 C1754 C 0.82189 0.45016 0.25539
 C1755 C 0.83461 0.47466 0.25577
 C1756 C 0.85876 0.47775 0.24421
 C1757 C 0.87111 0.45507 0.23526
 C1758 C 0.85904 0.43059 0.23551
 C1759 C 0.82140 0.40248 0.24522
 C1760 C 0.83447 0.38059 0.23613
 C1761 C 0.82240 0.35602 0.23664
 C1762 C 0.79724 0.35335 0.24550
 C1763 C 0.78416 0.37545 0.25421
 C1764 C 0.79641 0.40012 0.25456
 C1765 C 0.87143 0.40830 0.22640
 C1766 C 0.85938 0.38367 0.22680
 C1767 C 0.79707 0.44696 0.26504
 C1768 C 0.78443 0.42242 0.26436
 H1769 H 0.89064 0.40989 0.21896
 H1770 H 0.86961 0.36693 0.21972
 H1771 H 0.78722 0.46360 0.27295
 H1772 H 0.76521 0.42085 0.27179
 H1773 H 0.82576 0.49107 0.26527
 H1774 H 0.89051 0.45640 0.22823
 H1775 H 0.83240 0.33898 0.22985
 H1776 H 0.76485 0.37330 0.26132
 C1777 C 0.33658 0.93021 0.74730
 C1778 C 0.32435 0.95206 0.75766
 C1779 C 0.33689 0.97661 0.75747
 C1780 C 0.36064 0.97972 0.74519
 C1781 C 0.37284 0.95703 0.73599
 C1782 C 0.36098 0.93250 0.73684
 C1783 C 0.32395 0.90430 0.74801
 C1784 C 0.33690 0.88238 0.73876
 C1785 C 0.32505 0.85777 0.73986
 C1786 C 0.30017 0.85509 0.74941
 C1787 C 0.28722 0.87719 0.75831
 C1788 C 0.29929 0.90191 0.75810
 C1789 C 0.37327 0.91019 0.72759
 C1790 C 0.36147 0.88551 0.72865
 C1791 C 0.29987 0.94882 0.76810
 C1792 C 0.28742 0.92422 0.76802
 H1793 H 0.39221 0.91182 0.71956
 H1794 H 0.37162 0.86877 0.72143
 H1795 H 0.29015 0.96548 0.77614
 H1796 H 0.26846 0.92263 0.77603
 H1797 H 0.32822 0.99306 0.76711
 H1798 H 0.39201 0.95835 0.72841
 H1799 H 0.33494 0.84071 0.73293
 H1800 H 0.26813 0.87502 0.76594
 C1801 C 0.16436 0.92242 0.26122
 C1802 C 0.17866 0.94539 0.26839
 C1803 C 0.16665 0.96946 0.26704
 C1804 C 0.14065 0.97057 0.25785
 C1805 C 0.12665 0.94693 0.25179
 C1806 C 0.13834 0.92307 0.25307
 C1807 C 0.17674 0.89713 0.26242
 C1808 C 0.16225 0.87431 0.25518
 C1809 C 0.17413 0.85038 0.25573
 C1810 C 0.20040 0.84898 0.26340
 C1811 C 0.21458 0.87208 0.27112
 C1812 C 0.20280 0.89626 0.27060
 C1813 C 0.12439 0.89982 0.24629
 C1814 C 0.13617 0.87583 0.24727
 C1815 C 0.20466 0.94372 0.27680
 C1816 C 0.21653 0.91960 0.27782
 H1817 H 0.10423 0.90019 0.24001
 H1818 H 0.12480 0.85835 0.24170
 H1819 H 0.21598 0.96121 0.28248
 H1820 H 0.23665 0.91924 0.28423
 H1821 H 0.17741 0.98701 0.27356
 H1822 H 0.10639 0.94721 0.24586
 H1823 H 0.16290 0.83286 0.24991
 H1824 H 0.23480 0.87132 0.27707
 C1825 C 0.66345 0.41918 0.76000
 C1826 C 0.63736 0.41990 0.75215
 C1827 C 0.62576 0.44382 0.75090
 C1828 C 0.63991 0.46744 0.75672
 C1829 C 0.66600 0.46625 0.76556
 C1830 C 0.67792 0.44212 0.76688
 C1831 C 0.67573 0.39383 0.76116
 C1832 C 0.70187 0.39288 0.76899
 C1833 C 0.71360 0.36868 0.76934
 C1834 C 0.69931 0.34561 0.76174
 C1835 C 0.67294 0.34705 0.75452
 C1836 C 0.66110 0.37103 0.75416
 C1837 C 0.70399 0.44036 0.77498
 C1838 C 0.71577 0.41619 0.77595
 C1839 C 0.62325 0.39669 0.74565
 C1840 C 0.63494 0.37264 0.74658
 H1841 H 0.71545 0.45782 0.78044
 H1842 H 0.73596 0.41577 0.78210
 H1843 H 0.60303 0.39712 0.73961
 H1844 H 0.62345 0.35519 0.74119
 H1845 H 0.60544 0.44417 0.74521
 H1846 H 0.67690 0.48378 0.77187
 H1847 H 0.73391 0.36789 0.77493
 H1848 H 0.66164 0.32954 0.74880
 C1849 C 0.66317 0.56854 0.75108
 C1850 C 0.67453 0.54674 0.73950
 C1851 C 0.66290 0.52194 0.74175
 C1852 C 0.64048 0.51874 0.75627
 C1853 C 0.62930 0.54138 0.76702
 C1854 C 0.64058 0.56598 0.76480
 C1855 C 0.67471 0.59469 0.74823
 C1856 C 0.66285 0.61638 0.75942
 C1857 C 0.67391 0.64113 0.75697
 C1858 C 0.69686 0.64449 0.74361
 C1859 C 0.70836 0.62249 0.73213
 C1860 C 0.69726 0.59750 0.73434
 C1861 C 0.62923 0.58814 0.77566
 C1862 C 0.64021 0.61293 0.77305
 C1863 C 0.69700 0.55034 0.72551
 C1864 C 0.70824 0.57525 0.72310
 H1865 H 0.61168 0.58630 0.78624
 H1866 H 0.63090 0.62953 0.78176
 H1867 H 0.70601 0.53377 0.71640
 H1868 H 0.72563 0.57710 0.71227
 H1869 H 0.67086 0.50535 0.73165
 H1870 H 0.61109 0.54011 0.77654
 H1871 H 0.66482 0.65775 0.76595
 H1872 H 0.72600 0.62474 0.72176
 C1873 C 0.16442 0.07131 0.25164
 C1874 C 0.17563 0.04935 0.24025
 C1875 C 0.16383 0.02468 0.24269
 C1876 C 0.14135 0.02175 0.25717
 C1877 C 0.13031 0.04453 0.26775
 C1878 C 0.14178 0.06902 0.26536
 C1879 C 0.17612 0.09734 0.24856
 C1880 C 0.16439 0.11921 0.25953
 C1881 C 0.17556 0.14386 0.25678
 C1882 C 0.19850 0.14695 0.24332
 C1883 C 0.20990 0.12477 0.23211
 C1884 C 0.19869 0.09988 0.23462
 C1885 C 0.13058 0.09136 0.27601
 C1886 C 0.14173 0.11604 0.27319
 C1887 C 0.19814 0.05266 0.22625
 C1888 C 0.20954 0.07746 0.22360
 H1889 H 0.11300 0.08975 0.28660
 H1890 H 0.13251 0.13278 0.28173
 H1891 H 0.20705 0.03595 0.21729
 H1892 H 0.22693 0.07909 0.21275
 H1893 H 0.17172 0.00796 0.23272
 H1894 H 0.11207 0.04343 0.27724
 H1895 H 0.16652 0.16060 0.26554
 H1896 H 0.22752 0.12682 0.22167
 C1897 C 0.33645 0.07911 0.74405
 C1898 C 0.36297 0.07860 0.75007
 C1899 C 0.37492 0.05480 0.75007
 C1900 C 0.36079 0.03115 0.74440
 C1901 C 0.33444 0.03229 0.73645
 C1902 C 0.32202 0.05617 0.73712
 C1903 C 0.32366 0.10422 0.74483
 C1904 C 0.29696 0.10485 0.73941
 C1905 C 0.28484 0.12883 0.74077
 C1906 C 0.29952 0.15194 0.74669
 C1907 C 0.32630 0.15094 0.75162
 C1908 C 0.33843 0.12712 0.75103
 C1909 C 0.29541 0.05765 0.73122
 C1910 C 0.28305 0.08153 0.73260
 C1911 C 0.37710 0.10187 0.75622
 C1912 C 0.36504 0.12578 0.75658
 H1913 H 0.28398 0.04015 0.72584
 H1914 H 0.26247 0.08175 0.72820
 H1915 H 0.39766 0.10160 0.76083
 H1916 H 0.37660 0.14332 0.76140
 H1917 H 0.39544 0.05454 0.75487
 H1918 H 0.32357 0.01494 0.72960
 H1919 H 0.26422 0.12963 0.73671
 H1920 H 0.33760 0.16870 0.75634
 C1921 C 0.83479 0.57720 0.24399
 C1922 C 0.86121 0.57657 0.25048
 C1923 C 0.87314 0.55276 0.25021
 C1924 C 0.85907 0.52921 0.24388
 C1925 C 0.83288 0.53052 0.23540
 C1926 C 0.82046 0.55440 0.23632
 C1927 C 0.82201 0.60231 0.24504
 C1928 C 0.79540 0.60306 0.23911
 C1929 C 0.78328 0.62704 0.24067
 C1930 C 0.79789 0.65003 0.24731
 C1931 C 0.82458 0.64892 0.25279
 C1932 C 0.83669 0.62510 0.25198
 C1933 C 0.79396 0.55599 0.22993
 C1934 C 0.78159 0.57986 0.23155
 C1935 C 0.87526 0.59974 0.25736
 C1936 C 0.86320 0.62365 0.25800
 H1937 H 0.78261 0.53859 0.22398
 H1938 H 0.76109 0.58017 0.22675
 H1939 H 0.89573 0.59938 0.26234
 H1940 H 0.87470 0.64111 0.26338
 H1941 H 0.89359 0.55242 0.25535
 H1942 H 0.82212 0.51330 0.22798
 H1943 H 0.76274 0.62793 0.23618
 H1944 H 0.83582 0.66660 0.25805
 C1945 C 0.92134 0.26300 0.16376
 C1946 C 0.92229 0.25567 0.13739
 C1947 C 0.94617 0.25471 0.12596
 C1948 C 0.96956 0.26029 0.14053
 C1949 C 0.96814 0.26867 0.16693
 C1950 C 0.94403 0.26970 0.17868
 C1951 C 0.89603 0.26370 0.17590
 C1952 C 0.89485 0.27096 0.20233
 C1953 C 0.87071 0.27084 0.21390
 C1954 C 0.84792 0.26332 0.19916
 C1955 C 0.84958 0.25665 0.17252
 C1956 C 0.87350 0.25678 0.16083
 C1957 C 0.94202 0.27726 0.20504
 C1958 C 0.91790 0.27783 0.21666
 C1959 C 0.89933 0.24928 0.12285
 C1960 C 0.87534 0.24976 0.13439
 H1961 H 0.95927 0.28259 0.21686
 H1962 H 0.91730 0.28354 0.23709
 H1963 H 0.89994 0.24363 0.10240
 H1964 H 0.85810 0.24446 0.12255
 H1965 H 0.94670 0.24928 0.10545
 H1966 H 0.98546 0.27474 0.17822
 H1967 H 0.86978 0.27604 0.23441
 H1968 H 0.83230 0.25101 0.16087
 C1969 C 0.42205 0.76257 0.66566
 C1970 C 0.42229 0.75508 0.63926
 C1971 C 0.44587 0.75360 0.62727
 C1972 C 0.46961 0.75876 0.64133
 C1973 C 0.46889 0.76744 0.66771
 C1974 C 0.44513 0.76897 0.68003
 C1975 C 0.39710 0.76374 0.67842
 C1976 C 0.39665 0.77112 0.70490
 C1977 C 0.37284 0.77137 0.71708
 C1978 C 0.34966 0.76411 0.70290
 C1979 C 0.35059 0.75738 0.67620
 C1980 C 0.37417 0.75711 0.66391
 C1981 C 0.44387 0.77670 0.70643
 C1982 C 0.42008 0.77769 0.71866
 C1983 C 0.39895 0.74903 0.62528
 C1984 C 0.37527 0.74997 0.63742
 H1985 H 0.46144 0.78181 0.71781
 H1986 H 0.42005 0.78350 0.73909
 H1987 H 0.39899 0.74328 0.60482
 H1988 H 0.35771 0.74490 0.62601
 H1989 H 0.44586 0.74807 0.60675
 H1990 H 0.48650 0.77335 0.67858
 H1991 H 0.37244 0.77662 0.73763
 H1992 H 0.33299 0.75196 0.66497
 C1993 C 0.42910 0.24739 0.83353
 C1994 C 0.43279 0.25729 0.85912
 C1995 C 0.45711 0.25617 0.87145
 C1996 C 0.47858 0.24615 0.85847
 C1997 C 0.47389 0.23541 0.83279
 C1998 C 0.44942 0.23629 0.82023
 C1999 C 0.40319 0.24779 0.82081
 C2000 C 0.39919 0.23716 0.79540
 C2001 C 0.37440 0.23746 0.78348
 C2002 C 0.35373 0.24823 0.79692
 C2003 C 0.35822 0.25869 0.82245
 C2004 C 0.38283 0.25845 0.83448
 C2005 C 0.44468 0.22578 0.79479
 C2006 C 0.42001 0.22628 0.78256
 C2007 C 0.41195 0.26779 0.87221
 C2008 C 0.38740 0.26847 0.86005
 H2009 H 0.46015 0.21705 0.78426
 H2010 H 0.41720 0.21795 0.76296
 H2011 H 0.41464 0.27553 0.89205
 H2012 H 0.37183 0.27671 0.87081
 H2013 H 0.45881 0.26268 0.89158
 H2014 H 0.48873 0.22505 0.82288
 H2015 H 0.37123 0.22924 0.76387
 H2016 H 0.34256 0.26696 0.83309
 C2017 C 0.92829 0.74573 0.33387
 C2018 C 0.93204 0.75580 0.35940
 C2019 C 0.95634 0.75460 0.37176
 C2020 C 0.97772 0.74429 0.35887
 C2021 C 0.97301 0.73349 0.33322
 C2022 C 0.94855 0.73443 0.32064
 C2023 C 0.90237 0.74611 0.32117
 C2024 C 0.89829 0.73527 0.29585
 C2025 C 0.87348 0.73549 0.28398
 C2026 C 0.85286 0.74638 0.29739
 C2027 C 0.85743 0.75707 0.32283
 C2028 C 0.88206 0.75692 0.33481
 C2029 C 0.94375 0.72376 0.29527
 C2030 C 0.91908 0.72424 0.28306
 C2031 C 0.91126 0.76649 0.37243
 C2032 C 0.88669 0.76714 0.36029
 H2033 H 0.95918 0.71489 0.28479
 H2034 H 0.91621 0.71575 0.26352
 H2035 H 0.91399 0.77436 0.39222
 H2036 H 0.87116 0.77551 0.37102
 H2037 H 0.95806 0.76124 0.39185
 H2038 H 0.98779 0.72297 0.32339
 H2039 H 0.87025 0.72710 0.26444
 H2040 H 0.84181 0.76545 0.33345
 C2041 C 0.07656 0.73954 0.33471
 C2042 C 0.05481 0.74894 0.32177
 C2043 C 0.03092 0.74824 0.33368
 C2044 C 0.02831 0.73810 0.35856
 C2045 C 0.05091 0.72880 0.37088
 C2046 C 0.07473 0.72927 0.35913
 C2047 C 0.10203 0.74174 0.32311
 C2048 C 0.12390 0.73307 0.33657
 C2049 C 0.14813 0.73562 0.32575
 C2050 C 0.15069 0.74689 0.30165
 C2051 C 0.12848 0.75555 0.28842
 C2052 C 0.10412 0.75304 0.29911
 C2053 C 0.09699 0.72050 0.37191
 C2054 C 0.12116 0.72228 0.36077
 C2055 C 0.05760 0.75991 0.29761
 C2056 C 0.08182 0.76185 0.28644
 H2057 H 0.09577 0.71247 0.39082
 H2058 H 0.13788 0.71549 0.37134
 H2059 H 0.04097 0.76730 0.28738
 H2060 H 0.08314 0.77061 0.26788
 H2061 H 0.01508 0.75777 0.32433
 H2062 H 0.05060 0.72218 0.39032
 H2063 H 0.16497 0.72888 0.33618
 H2064 H 0.13011 0.76423 0.26985
 C2065 C 0.57738 0.24231 0.83384
 C2066 C 0.57582 0.23242 0.85846
 C2067 C 0.55209 0.23190 0.87036
 C2068 C 0.52930 0.24069 0.85799
 C2069 C 0.53166 0.25067 0.83300
 C2070 C 0.55546 0.25138 0.82091
 C2071 C 0.60271 0.24430 0.82192
 C2072 C 0.60450 0.25503 0.79760
 C2073 C 0.62870 0.25701 0.78644
 C2074 C 0.65099 0.24835 0.79951
 C2075 C 0.64875 0.23789 0.82404
 C2076 C 0.62471 0.23585 0.83531
 C2077 C 0.55798 0.26193 0.79651
 C2078 C 0.58206 0.26364 0.78502
 C2079 C 0.59824 0.22400 0.87122
 C2080 C 0.62227 0.22560 0.85979
 H2081 H 0.54123 0.26910 0.78629
 H2082 H 0.58315 0.27197 0.76623
 H2083 H 0.59724 0.21629 0.89030
 H2084 H 0.63911 0.21899 0.87031
 H2085 H 0.55196 0.22556 0.88991
 H2086 H 0.51568 0.25997 0.82365
 H2087 H 0.63011 0.26510 0.76756
 H2088 H 0.66567 0.23119 0.83438
 C2089 C 0.57012 0.75094 0.66491
 C2090 C 0.54845 0.73969 0.67601
 C2091 C 0.52379 0.74223 0.66410
 C2092 C 0.52057 0.75680 0.64173
 C2093 C 0.54309 0.76709 0.63071
 C2094 C 0.56756 0.76456 0.64225
 C2095 C 0.59612 0.74785 0.67677
 C2096 C 0.61768 0.75869 0.66514
 C2097 C 0.64230 0.75596 0.67645
 C2098 C 0.64568 0.74266 0.69945
 C2099 C 0.62382 0.73160 0.71078
 C2100 C 0.59895 0.73407 0.69940
 C2101 C 0.58960 0.77505 0.63114
 C2102 C 0.61425 0.77221 0.64242
 C2103 C 0.55204 0.72579 0.69856
 C2104 C 0.57681 0.72316 0.71012
 H2105 H 0.58777 0.78556 0.61355
 H2106 H 0.63076 0.78064 0.63327
 H2107 H 0.53556 0.71694 0.70738
 H2108 H 0.57865 0.71241 0.72755
 H2109 H 0.50729 0.73239 0.67189
 H2110 H 0.54182 0.77654 0.61248
 H2111 H 0.65879 0.76465 0.66747
 H2112 H 0.62610 0.72127 0.72844
 C2113 C 0.07061 0.25411 0.16442
 C2114 C 0.04913 0.24253 0.17556
 C2115 C 0.02432 0.24500 0.16390
 C2116 C 0.02078 0.25968 0.14163
 C2117 C 0.04313 0.27051 0.13072
 C2118 C 0.06772 0.26809 0.14203
 C2119 C 0.09678 0.25089 0.17587
 C2120 C 0.11816 0.26200 0.16415
 C2121 C 0.14295 0.25908 0.17503
 C2122 C 0.14668 0.24532 0.19769
 C2123 C 0.12497 0.23401 0.20911
 C2124 C 0.09995 0.23668 0.19816
 C2125 C 0.08957 0.27891 0.13087
 C2126 C 0.11438 0.27596 0.14177
 C2127 C 0.05306 0.22826 0.19780
 C2128 C 0.07799 0.22551 0.20898
 H2129 H 0.08750 0.28971 0.11348
 H2130 H 0.13073 0.28462 0.13255
 H2131 H 0.03674 0.21914 0.20667
 H2132 H 0.08009 0.21443 0.22616
 H2133 H 0.00799 0.23485 0.17166
 H2134 H 0.04168 0.28014 0.11260
 H2135 H 0.15931 0.26798 0.16602
 H2136 H 0.12750 0.22334 0.22653
 C2137 C -0.08522 0.99781 0.82341
 C2138 C -0.07332 0.98675 0.80172
 C2139 C -0.08550 0.98783 0.77692
 C2140 C -0.10905 1.00070 0.77362
 C2141 C -0.12084 1.01071 0.79617
 C2142 C -0.10899 1.00970 0.82075
 C2143 C -0.07291 0.99642 0.84953
 C2144 C -0.08520 1.00719 0.87110
 C2145 C -0.07343 1.00614 0.89582
 C2146 C -0.04939 0.99452 0.89927
 C2147 C -0.03743 0.98346 0.87739
 C2148 C -0.04918 0.98433 0.85244
 C2149 C -0.12077 1.02012 0.84280
 C2150 C -0.10904 1.01894 0.86756
 C2151 C -0.04965 0.97457 0.80544
 C2152 C -0.03775 0.97348 0.83032
 H2153 H -0.13921 1.02930 0.84089
 H2154 H -0.11872 1.02728 0.88406
 H2155 H -0.04020 0.96587 0.78897
 H2156 H -0.01946 0.96402 0.83224
 H2157 H -0.07694 0.97819 0.76043
 H2158 H -0.13975 1.01898 0.79471
 H2159 H -0.08293 1.01471 0.91234
 H2160 H -0.01897 0.97437 0.87971
 C2161 C 0.41474 0.49918 0.32263
 C2162 C 0.42645 0.48815 0.30083
 C2163 C 0.41438 0.48982 0.27607
 C2164 C 0.39116 0.50330 0.27294
 C2165 C 0.37956 0.51332 0.29558
 C2166 C 0.39128 0.51168 0.32013
 C2167 C 0.42688 0.49709 0.34872
 C2168 C 0.41472 0.50779 0.37040
 C2169 C 0.42632 0.50606 0.39509
 C2170 C 0.45008 0.49387 0.39841
 C2171 C 0.46191 0.48290 0.37643
 C2172 C 0.45030 0.48442 0.35149
 C2173 C 0.37964 0.52203 0.34228
 C2174 C 0.39120 0.52016 0.36701
 C2175 C 0.44981 0.47537 0.30439
 C2176 C 0.46158 0.47365 0.32924
 H2177 H 0.36144 0.53167 0.34048
 H2178 H 0.38164 0.52846 0.38361
 H2179 H 0.45911 0.46669 0.28781
 H2180 H 0.47964 0.46375 0.33106
 H2181 H 0.42273 0.48016 0.25947
 H2182 H 0.36084 0.52201 0.29425
 H2183 H 0.41692 0.51460 0.41169
 H2184 H 0.48016 0.47341 0.37866
 C2185 C 0.58451 -0.00337 0.32693
 C2186 C 0.61108 0.00230 0.32688
 C2187 C 0.62337 0.00171 0.30335
 C2188 C 0.60950 -0.00406 0.27951
 C2189 C 0.58309 -0.01168 0.28023
 C2190 C 0.57035 -0.01051 0.30382
 C2191 C 0.57138 -0.00208 0.35174
 C2192 C 0.54466 -0.00734 0.35191
 C2193 C 0.53227 -0.00578 0.37564
 C2194 C 0.54669 0.00021 0.39895
 C2195 C 0.57346 0.00516 0.39840
 C2196 C 0.58587 0.00430 0.37484
 C2197 C 0.54371 -0.01614 0.30482
 C2198 C 0.53104 -0.01435 0.32842
 C2199 C 0.62492 0.00869 0.35034
 C2200 C 0.61252 0.00959 0.37397
 H2201 H 0.53249 -0.02167 0.28718
 H2202 H 0.51045 -0.01863 0.32828
 H2203 H 0.64550 0.01307 0.35044
 H2204 H 0.62387 0.01455 0.39167
 H2205 H 0.64394 0.00621 0.30343
 H2206 H 0.57240 -0.01864 0.26277
 H2207 H 0.51166 -0.00988 0.37609
 H2208 H 0.58457 0.00991 0.41632
 C2209 C 0.08485 0.50309 0.82680
 C2210 C 0.11052 0.49554 0.82624
 C2211 C 0.12275 0.49440 0.80269
 C2212 C 0.10952 0.49973 0.77915
 C2213 C 0.08400 0.50863 0.78035
 C2214 C 0.07147 0.50990 0.80410
 C2215 C 0.07189 0.50417 0.85174
 C2216 C 0.04622 0.51191 0.85255
 C2217 C 0.03391 0.51247 0.87637
 C2218 C 0.04717 0.50521 0.89916
 C2219 C 0.07305 0.49787 0.89786
 C2220 C 0.08547 0.49734 0.87430
 C2221 C 0.04586 0.51787 0.80572
 C2222 C 0.03344 0.51880 0.82950
 C2223 C 0.12358 0.48917 0.84926
 C2224 C 0.11123 0.48998 0.87290
 H2225 H 0.03526 0.52328 0.78844
 H2226 H 0.01364 0.52490 0.82981
 H2227 H 0.14347 0.48335 0.84897
 H2228 H 0.12192 0.48475 0.89021
 H2229 H 0.14281 0.48909 0.80257
 H2230 H 0.07401 0.51499 0.76317
 H2231 H 0.01401 0.51824 0.87707
 H2232 H 0.08362 0.49247 0.91518
 C2233 C 0.08576 0.49398 0.67790
 C2234 C 0.11062 0.50521 0.68140
 C2235 C 0.12272 0.50616 0.70596
 C2236 C 0.11004 0.49707 0.72775
 C2237 C 0.08565 0.48416 0.72340
 C2238 C 0.07318 0.48314 0.69860
 C2239 C 0.07285 0.49333 0.65192
 C2240 C 0.04795 0.48204 0.64814
 C2241 C 0.03564 0.48194 0.62337
 C2242 C 0.04822 0.49301 0.60257
 C2243 C 0.07336 0.50391 0.60685
 C2244 C 0.08571 0.50412 0.63137
 C2245 C 0.04838 0.47162 0.69399
 C2246 C 0.03596 0.47116 0.66923
 C2247 C 0.12300 0.51549 0.66031
 C2248 C 0.11071 0.51502 0.63570
 H2249 H 0.03840 0.46309 0.70969
 H2250 H 0.01678 0.46226 0.66661
 H2251 H 0.14229 0.52417 0.66291
 H2252 H 0.12084 0.52332 0.61996
 H2253 H 0.14223 0.51432 0.70814
 H2254 H 0.07641 0.47490 0.73911
 H2255 H 0.01637 0.47332 0.62034
 H2256 H 0.08337 0.51240 0.59113
 C2257 C 0.58584 0.99763 0.17839
 C2258 C 0.57358 1.00857 0.19989
 C2259 C 0.58609 1.00880 0.22457
 C2260 C 0.60980 0.99631 0.22816
 C2261 C 0.62208 0.98667 0.20576
 C2262 C 0.61026 0.98708 0.18113
 C2263 C 0.57319 0.99773 0.15237
 C2264 C 0.58615 0.98781 0.13082
 C2265 C 0.57427 0.98823 0.10611
 C2266 C 0.54935 0.99779 0.10296
 C2267 C 0.53637 1.00739 0.12470
 C2268 C 0.54848 1.00784 0.14952
 C2269 C 0.62257 0.97721 0.15917
 C2270 C 0.61075 0.97767 0.13438
 C2271 C 0.54907 1.01905 0.19620
 C2272 C 0.53660 1.01841 0.17149
 H2273 H 0.64154 0.96910 0.16116
 H2274 H 0.62090 0.96995 0.11790
 H2275 H 0.53932 1.02755 0.21258
 H2276 H 0.51761 1.02645 0.16954
 H2277 H 0.57740 1.01881 0.24076
 H2278 H 0.64123 0.97895 0.20741
 H2279 H 0.58416 0.98073 0.08934
 H2280 H 0.51723 1.01500 0.12215
 C2281 C 0.41344 0.50637 0.17336
 C2282 C 0.38760 0.49793 0.17419
 C2283 C 0.37616 0.49702 0.19809
 C2284 C 0.39028 0.50361 0.22162
 C2285 C 0.41608 0.51310 0.22031
 C2286 C 0.42782 0.51415 0.19619
 C2287 C 0.42553 0.50727 0.14802
 C2288 C 0.45138 0.51585 0.14696
 C2289 C 0.46287 0.51619 0.12275
 C2290 C 0.44863 0.50787 0.09980
 C2291 C 0.42259 0.49973 0.10137
 C2292 C 0.41097 0.49940 0.12535
 C2293 C 0.45360 0.52291 0.19432
 C2294 C 0.46519 0.52369 0.17015
 C2295 C 0.37355 0.49052 0.15109
 C2296 C 0.38508 0.49117 0.12706
 H2297 H 0.46498 0.52908 0.21169
 H2298 H 0.48515 0.53042 0.16963
 H2299 H 0.35352 0.48401 0.15160
 H2300 H 0.37365 0.48513 0.10969
 H2301 H 0.35597 0.49097 0.19847
 H2302 H 0.42686 0.52010 0.23772
 H2303 H 0.48292 0.52252 0.12186
 H2304 H 0.41132 0.49346 0.08395
 C2305 C -0.08684 0.00281 0.67384
 C2306 C -0.07266 0.01133 0.69657
 C2307 C -0.08436 0.01032 0.72072
 C2308 C -0.10991 0.00017 0.72221
 C2309 C -0.12385 -0.00722 0.69875
 C2310 C -0.11244 -0.00636 0.67480
 C2311 C -0.07482 0.00382 0.64844
 C2312 C -0.08919 -0.00470 0.62584
 C2313 C -0.07766 -0.00416 0.60180
 C2314 C -0.05188 0.00484 0.60010
 C2315 C -0.03784 0.01373 0.62300
 C2316 C -0.04925 0.01320 0.64725
 C2317 C -0.12629 -0.01446 0.65177
 C2318 C -0.11483 -0.01372 0.62770
 C2319 C -0.04714 0.02084 0.69456
 C2320 C -0.03563 0.02170 0.67036
 H2321 H -0.14613 -0.02156 0.65238
 H2322 H -0.12613 -0.02028 0.61040
 H2323 H -0.03592 0.02757 0.71185
 H2324 H -0.01588 0.02905 0.66974
 H2325 H -0.07377 0.01791 0.73804
 H2326 H -0.14389 -0.01374 0.69919
 H2327 H -0.08877 -0.01093 0.58445
 H2328 H -0.01800 0.02074 0.62204
 C2329 C -0.17557 0.91638 1.00148
 C2330 C -0.19732 0.92829 0.99098
 C2331 C -0.22196 0.91618 0.99254
 C2332 C -0.22505 0.89267 1.00531
 C2333 C -0.20245 0.88091 1.01483
 C2334 C -0.17801 0.89270 1.01335
 C2335 C -0.14960 0.92856 0.99947
 C2336 C -0.12796 0.91623 1.00962
 C2337 C -0.10337 0.92785 1.00791
 C2338 C -0.10011 0.95177 0.99622
 C2339 C -0.12209 0.96378 0.98582
 C2340 C -0.14691 0.95217 0.98736
 C2341 C -0.15589 0.88091 1.02319
 C2342 C -0.13129 0.89251 1.02141
 C2343 C -0.19384 0.95186 0.97880
 C2344 C -0.16911 0.96364 0.97713
 H2345 H -0.15761 0.86253 1.03235
 H2346 H -0.11473 0.88280 1.02930
 H2347 H -0.21036 0.96132 0.97053
 H2348 H -0.16737 0.98184 0.96767
 H2349 H -0.23848 0.92472 0.98325
 H2350 H -0.20374 0.86201 1.02301
 H2351 H -0.08679 0.91831 1.01602
 H2352 H -0.11995 0.98215 0.97673
 C2353 C 0.32288 0.41581 0.50039
 C2354 C 0.30130 0.42765 0.48944
 C2355 C 0.27660 0.41573 0.49100
 C2356 C 0.27329 0.39252 0.50420
 C2357 C 0.29572 0.38086 0.51424
 C2358 C 0.32021 0.39243 0.51274
 C2359 C 0.34893 0.42770 0.49829
 C2360 C 0.37041 0.41539 0.50884
 C2361 C 0.39507 0.42671 0.50703
 C2362 C 0.39857 0.45034 0.49489
 C2363 C 0.37678 0.46234 0.48410
 C2364 C 0.35188 0.45101 0.48570
 C2365 C 0.34215 0.38066 0.52300
 C2366 C 0.36684 0.39198 0.52113
 C2367 C 0.30504 0.45090 0.47679
 C2368 C 0.32985 0.46244 0.47506
 H2369 H 0.34022 0.36251 0.53253
 H2370 H 0.38327 0.38230 0.52933
 H2371 H 0.28864 0.46030 0.46818
 H2372 H 0.33180 0.48041 0.46523
 H2373 H 0.26020 0.42414 0.48135
 H2374 H 0.29430 0.36212 0.52273
 H2375 H 0.41152 0.41721 0.51546
 H2376 H 0.37914 0.48049 0.47465
 C2377 C 0.32489 0.58211 0.00144
 C2378 C 0.30282 0.56884 -0.00954
 C2379 C 0.27940 0.58180 -0.01121
 C2380 C 0.27726 0.60748 -0.00040
 C2381 C 0.30037 0.62035 0.00961
 C2382 C 0.32387 0.60793 0.01074
 C2383 C 0.34984 0.56918 0.00206
 C2384 C 0.37216 0.58318 0.01160
 C2385 C 0.39595 0.57116 0.01136
 C2386 C 0.39743 0.54520 0.00221
 C2387 C 0.37490 0.53116 -0.00685
 C2388 C 0.35101 0.54330 -0.00744
 C2389 C 0.34654 0.62118 0.02054
 C2390 C 0.37031 0.60902 0.02090
 C2391 C 0.30478 0.54303 -0.01915
 C2392 C 0.32839 0.53037 -0.01783
 H2393 H 0.34593 0.64121 0.02776
 H2394 H 0.38739 0.61998 0.02836
 H2395 H 0.28790 0.53249 -0.02768
 H2396 H 0.32903 0.51045 -0.02537
 H2397 H 0.26348 0.57221 -0.02231
 H2398 H 0.30066 0.64056 0.01584
 H2399 H 0.41333 0.58189 0.01846
 H2400 H 0.37616 0.51120 -0.01414
 C2401 C -0.17491 0.08067 0.49802
 C2402 C -0.19667 0.06756 0.48623
 C2403 C -0.21996 0.08060 0.48390
 C2404 C -0.22240 0.10616 0.49490
 C2405 C -0.19955 0.11897 0.50564
 C2406 C -0.17610 0.10645 0.50742
 C2407 C -0.15007 0.06757 0.49951
 C2408 C -0.12799 0.08139 0.50991
 C2409 C -0.10426 0.06922 0.51045
 C2410 C -0.10265 0.04329 0.50121
 C2411 C -0.12497 0.02942 0.49133
 C2412 C -0.14875 0.04171 0.48996
 C2413 C -0.15368 0.11952 0.51806
 C2414 C -0.12998 0.10721 0.51921
 C2415 C -0.19456 0.04178 0.47659
 C2416 C -0.17109 0.02897 0.47870
 H2417 H -0.15440 0.13952 0.52536
 H2418 H -0.11308 0.11804 0.52732
 H2419 H -0.21123 0.03137 0.46744
 H2420 H -0.17033 0.00908 0.47111
 H2421 H -0.23565 0.07109 0.47235
 H2422 H -0.19945 0.13911 0.51210
 H2423 H -0.08703 0.07983 0.51813
 H2424 H -0.12358 0.00950 0.48395
 C2425 C 0.67718 0.08050 0.48495
 C2426 C 0.67978 0.10597 0.47721
 C2427 C 0.70420 0.11825 0.47838
 C2428 C 0.72662 0.10565 0.48722
 C2429 C 0.72300 0.08004 0.49568
 C2430 C 0.69865 0.06728 0.49398
 C2431 C 0.65123 0.06805 0.48515
 C2432 C 0.64850 0.04268 0.49353
 C2433 C 0.62369 0.03121 0.49433
 C2434 C 0.60182 0.04538 0.48779
 C2435 C 0.60486 0.07076 0.47948
 C2436 C 0.62956 0.08212 0.47790
 C2437 C 0.69518 0.04187 0.50217
 C2438 C 0.67056 0.02967 0.50167
 C2439 C 0.65773 0.11919 0.46935
 C2440 C 0.63301 0.10748 0.46977
 H2441 H 0.71161 0.03138 0.50916
 H2442 H 0.66871 0.01013 0.50826
 H2443 H 0.65954 0.13894 0.46330
 H2444 H 0.61647 0.11848 0.46401
 H2445 H 0.70508 0.13825 0.47351
 H2446 H 0.73848 0.07052 0.50561
 H2447 H 0.62131 0.01172 0.50098
 H2448 H 0.58799 0.08159 0.47429
 C2449 C 0.17625 0.58343 0.98979
 C2450 C 0.17927 0.60901 0.98250
 C2451 C 0.20388 0.62088 0.98387
 C2452 C 0.22610 0.60775 0.99237
 C2453 C 0.22204 0.58211 1.00059
 C2454 C 0.19747 0.56975 0.99869
 C2455 C 0.15012 0.57129 0.98952
 C2456 C 0.14698 0.54576 0.99728
 C2457 C 0.12204 0.53448 0.99737
 C2458 C 0.10040 0.54894 0.99067
 C2459 C 0.10384 0.57456 0.98314
 C2460 C 0.12871 0.58576 0.98227
 C2461 C 0.19356 0.54422 1.00639
 C2462 C 0.16878 0.53233 1.00542
 C2463 C 0.15747 0.62269 0.97477
 C2464 C 0.13260 0.61127 0.97473
 H2465 H 0.20978 0.53337 1.01329
 H2466 H 0.16660 0.51264 1.01156
 H2467 H 0.15962 0.64254 0.96908
 H2468 H 0.11627 0.62259 0.96899
 H2469 H 0.20508 0.64096 0.97932
 H2470 H 0.23736 0.57221 1.01035
 H2471 H 0.11936 0.51480 1.00345
 H2472 H 0.08718 0.58565 0.97786
 C2473 C 0.17349 0.41439 0.50594
 C2474 C 0.17489 0.38834 0.49743
 C2475 C 0.19891 0.37703 0.49680
 C2476 C 0.22202 0.39146 0.50380
 C2477 C 0.22011 0.41748 0.51333
 C2478 C 0.19585 0.42911 0.51408
 C2479 C 0.14800 0.42632 0.50658
 C2480 C 0.14633 0.45237 0.51524
 C2481 C 0.12198 0.46367 0.51544
 C2482 C 0.09947 0.44902 0.50694
 C2483 C 0.10167 0.42281 0.49864
 C2484 C 0.12578 0.41140 0.49843
 C2485 C 0.19338 0.45510 0.52288
 C2486 C 0.16908 0.46654 0.52340
 C2487 C 0.15224 0.37396 0.48967
 C2488 C 0.12809 0.38532 0.49010
 H2489 H 0.21038 0.46675 0.52931
 H2490 H 0.16810 0.48666 0.53020
 H2491 H 0.15322 0.35376 0.48309
 H2492 H 0.11108 0.37360 0.48382
 H2493 H 0.19972 0.35670 0.49065
 H2494 H 0.23717 0.42853 0.52058
 H2495 H 0.12063 0.48385 0.52192
 H2496 H 0.08462 0.41123 0.49218
 C2497 C 0.67522 0.91498 0.00755
 C2498 C 0.67650 0.88905 -0.00141
 C2499 C 0.70047 0.87756 -0.00212
 C2500 C 0.72367 0.89171 0.00524
 C2501 C 0.72183 0.91758 0.01530
 C2502 C 0.69764 0.92939 0.01610
 C2503 C 0.64979 0.92712 0.00821
 C2504 C 0.64826 0.95307 0.01728
 C2505 C 0.62399 0.96459 0.01742
 C2506 C 0.60140 0.95028 0.00850
 C2507 C 0.60348 0.92413 -0.00015
 C2508 C 0.62752 0.91251 -0.00034
 C2509 C 0.69529 0.95528 0.02534
 C2510 C 0.67107 0.96691 0.02585
 C2511 C 0.65378 0.87497 -0.00955
 C2512 C 0.62970 0.88652 -0.00909
 H2513 H 0.71232 0.96670 0.03209
 H2514 H 0.67021 0.98695 0.03298
 H2515 H 0.65463 0.85487 -0.01648
 H2516 H 0.61265 0.87502 -0.01568
 H2517 H 0.70114 0.85731 -0.00860
 H2518 H 0.73891 0.92838 0.02289
 H2519 H 0.62276 0.98471 0.02419
 H2520 H 0.58640 0.91278 -0.00697
 C2521 C -0.00102 0.82345 0.91487
 C2522 C 0.00810 0.80274 0.92878
 C2523 C 0.01026 0.77827 0.91592
 C2524 C 0.00155 0.77365 0.88962
 C2525 C -0.00611 0.79561 0.87608
 C2526 C -0.00776 0.82012 0.88845
 C2527 C -0.00237 0.84944 0.92786
 C2528 C -0.01009 0.87040 0.91337
 C2529 C -0.01059 0.89519 0.92556
 C2530 C -0.00391 0.89903 0.95212
 C2531 C 0.00339 0.87779 0.96655
 C2532 C 0.00464 0.85295 0.95435
 C2533 C -0.01566 0.84148 0.87464
 C2534 C -0.01677 0.86622 0.88689
 C2535 C 0.01531 0.80708 0.95521
 C2536 C 0.01332 0.83167 0.96784
 H2537 H -0.02089 0.83908 0.85413
 H2538 H -0.02277 0.88222 0.87552
 H2539 H 0.02241 0.79129 0.96627
 H2540 H 0.01897 0.83412 0.98825
 H2541 H 0.02013 0.76356 0.92623
 H2542 H -0.01018 0.79415 0.85548
 H2543 H -0.01625 0.91152 0.91443
 H2544 H 0.00890 0.88079 0.98696
 C2545 C 0.50004 0.32090 0.41358
 C2546 C 0.48938 0.29925 0.42524
 C2547 C 0.49094 0.27439 0.41283
 C2548 C 0.50398 0.27100 0.38935
 C2549 C 0.51354 0.29354 0.37780
 C2550 C 0.51201 0.31817 0.38984
 C2551 C 0.49816 0.34709 0.42611
 C2552 C 0.50849 0.36862 0.41401
 C2553 C 0.50692 0.39340 0.42594
 C2554 C 0.49522 0.39699 0.44997
 C2555 C 0.48465 0.37514 0.46178
 C2556 C 0.48602 0.35011 0.44983
 C2557 C 0.52200 0.34019 0.37827
 C2558 C 0.52032 0.36499 0.39018
 C2559 C 0.47713 0.30306 0.44891
 C2560 C 0.47559 0.32799 0.46104
 H2561 H 0.53125 0.33822 0.35984
 H2562 H 0.52834 0.38147 0.38065
 H2563 H 0.46874 0.28661 0.45819
 H2564 H 0.46610 0.32998 0.47931
 H2565 H 0.48159 0.25791 0.42118
 H2566 H 0.52188 0.29205 0.35890
 H2567 H 0.51515 0.40987 0.41654
 H2568 H 0.47552 0.37756 0.48023
 C2569 C -0.00012 0.32558 0.58420
 C2570 C -0.01107 0.30335 0.57094
 C2571 C -0.01311 0.28015 0.58391
 C2572 C -0.00255 0.27827 0.60951
 C2573 C 0.00728 0.30158 0.62249
 C2574 C 0.00872 0.32496 0.61007
 C2575 C 0.00102 0.35031 0.57118
 C2576 C 0.01052 0.37288 0.58513
 C2577 C 0.01075 0.39649 0.57299
 C2578 C 0.00212 0.39748 0.54697
 C2579 C -0.00688 0.37470 0.53299
 C2580 C -0.00796 0.35104 0.54524
 C2581 C 0.01846 0.34785 0.62329
 C2582 C 0.01927 0.37146 0.61105
 C2583 C -0.02020 0.30487 0.54510
 C2584 C -0.01837 0.32825 0.53235
 H2585 H 0.02531 0.34756 0.64336
 H2586 H 0.02668 0.38873 0.62198
 H2587 H -0.02869 0.28783 0.53458
 H2588 H -0.02552 0.32857 0.51239
 H2589 H -0.02419 0.26415 0.57430
 H2590 H 0.01326 0.30207 0.64270
 H2591 H 0.01774 0.41410 0.58368
 H2592 H -0.01382 0.37562 0.51300
 C2593 C 0.49886 0.82826 0.08578
 C2594 C 0.50723 0.82741 0.11176
 C2595 C 0.50566 0.80387 0.12393
 C2596 C 0.49624 0.78060 0.11055
 C2597 C 0.48595 0.78272 0.08488
 C2598 C 0.48814 0.80610 0.07217
 C2599 C 0.50039 0.85310 0.07293
 C2600 C 0.49202 0.85402 0.04683
 C2601 C 0.49367 0.87772 0.03469
 C2602 C 0.50266 0.90042 0.04886
 C2603 C 0.51058 0.89925 0.07509
 C2604 C 0.50978 0.87556 0.08715
 C2605 C 0.47951 0.80785 0.04619
 C2606 C 0.48172 0.83132 0.03364
 C2607 C 0.51676 0.85022 0.12530
 C2608 C 0.51795 0.87392 0.11322
 H2609 H 0.47118 0.79089 0.03540
 H2610 H 0.47502 0.83178 0.01355
 H2611 H 0.52325 0.84977 0.14546
 H2612 H 0.52526 0.89110 0.12438
 H2613 H 0.51134 0.80415 0.14421
 H2614 H 0.47511 0.76674 0.07496
 H2615 H 0.48725 0.87873 0.01455
 H2616 H 0.51756 0.91675 0.08596
 C2617 C 0.48864 0.67908 0.08389
 C2618 C 0.48155 0.68184 0.10968
 C2619 C 0.48253 0.70647 0.12217
 C2620 C 0.49031 0.72902 0.10944
 C2621 C 0.49841 0.72524 0.08356
 C2622 C 0.49697 0.70062 0.07061
 C2623 C 0.48879 0.65293 0.07108
 C2624 C 0.49641 0.65002 0.04534
 C2625 C 0.49688 0.62501 0.03342
 C2626 C 0.49071 0.60313 0.04749
 C2627 C 0.48328 0.60639 0.07329
 C2628 C 0.48207 0.63126 0.08512
 C2629 C 0.50454 0.69696 0.04486
 C2630 C 0.50399 0.67212 0.03235
 C2631 C 0.47439 0.65976 0.12292
 C2632 C 0.47469 0.63487 0.11085
 H2633 H 0.51100 0.71341 0.03431
 H2634 H 0.51001 0.67017 0.01252
 H2635 H 0.46886 0.66170 0.14292
 H2636 H 0.46937 0.61831 0.12184
 H2637 H 0.47827 0.70748 0.14238
 H2638 H 0.50779 0.74080 0.07389
 H2639 H 0.50282 0.62247 0.01358
 H2640 H 0.47834 0.58956 0.08407
 C2641 C -0.01157 0.17694 0.58376
 C2642 C -0.00276 0.19825 0.57043
 C2643 C -0.00094 0.22287 0.58328
 C2644 C -0.00920 0.22695 0.60906
 C2645 C -0.01750 0.20463 0.62186
 C2646 C -0.01880 0.17994 0.60949
 C2647 C -0.01178 0.15074 0.57107
 C2648 C -0.01892 0.12924 0.58517
 C2649 C -0.01794 0.10430 0.57348
 C2650 C -0.01035 0.10085 0.54776
 C2651 C -0.00380 0.12255 0.53362
 C2652 C -0.00401 0.14760 0.54540
 C2653 C -0.02644 0.15805 0.62279
 C2654 C -0.02643 0.13309 0.61084
 C2655 C 0.00492 0.19436 0.54476
 C2656 C 0.00403 0.16950 0.53235
 H2657 H -0.03208 0.16018 0.64274
 H2658 H -0.03208 0.11667 0.62187
 H2659 H 0.01175 0.21066 0.53419
 H2660 H 0.01016 0.16734 0.51257
 H2661 H 0.00878 0.23822 0.57360
 H2662 H -0.02194 0.20583 0.64202
 H2663 H -0.02314 0.08756 0.58429
 H2664 H 0.00229 0.11982 0.51385
 C2665 C 0.50867 0.17136 0.41139
 C2666 C 0.51620 0.19430 0.42588
 C2667 C 0.51470 0.21835 0.41414
 C2668 C 0.50501 0.21954 0.38825
 C2669 C 0.49870 0.19587 0.37400
 C2670 C 0.50006 0.17202 0.38544
 C2671 C 0.50996 0.14609 0.42352
 C2672 C 0.50225 0.12329 0.40892
 C2673 C 0.50271 0.09942 0.42068
 C2674 C 0.51078 0.09810 0.44692
 C2675 C 0.51910 0.12117 0.46112
 C2676 C 0.51862 0.14524 0.44951
 C2677 C 0.49290 0.14878 0.37133
 C2678 C 0.49390 0.12483 0.38289
 C2679 C 0.52512 0.19261 0.45177
 C2680 C 0.52625 0.16854 0.46339
 H2681 H 0.48627 0.14914 0.35120
 H2682 H 0.48797 0.10739 0.37140
 H2683 H 0.53110 0.21005 0.46323
 H2684 H 0.53304 0.16819 0.48347
 H2685 H 0.52151 0.23582 0.42503
 H2686 H 0.49253 0.19612 0.35373
 H2687 H 0.49641 0.08192 0.40944
 H2688 H 0.52536 0.12052 0.48133
 C2689 C 0.00828 0.67405 0.91364
 C2690 C 0.01495 0.67523 0.88777
 C2691 C 0.01384 0.69892 0.87585
 C2692 C 0.00641 0.72202 0.88929
 C2693 C -0.00193 0.71959 0.91496
 C2694 C -0.00016 0.69607 0.92742
 C2695 C 0.00885 0.64895 0.92609
 C2696 C 0.00192 0.64768 0.95200
 C2697 C 0.00236 0.62373 0.96368
 C2698 C 0.00866 0.60107 0.94928
 C2699 C 0.01522 0.60259 0.92324
 C2700 C 0.01565 0.62657 0.91162
 C2701 C -0.00725 0.69396 0.95325
 C2702 C -0.00591 0.67026 0.96543
 C2703 C 0.02209 0.65255 0.87402
 C2704 C 0.02235 0.62861 0.88572
 H2705 H -0.01380 0.71079 0.96418
 H2706 H -0.01147 0.66952 0.98539
 H2707 H 0.02727 0.65325 0.85394
 H2708 H 0.02770 0.61154 0.87435
 H2709 H 0.01798 0.69881 0.85559
 H2710 H -0.01149 0.73522 0.92494
 H2711 H -0.00309 0.62250 0.98365
 H2712 H 0.02008 0.58514 0.91215
 C2713 C 0.25607 0.66605 0.92584
 C2714 C 0.24605 0.67837 0.94784
 C2715 C 0.24562 0.66535 0.97102
 C2716 C 0.25550 0.64009 0.97276
 C2717 C 0.26497 0.62820 0.94984
 C2718 C 0.26562 0.64104 0.92670
 C2719 C 0.25545 0.67906 0.90110
 C2720 C 0.26483 0.66628 0.87895
 C2721 C 0.26378 0.67843 0.85538
 C2722 C 0.25326 0.70317 0.85370
 C2723 C 0.24394 0.71577 0.87615
 C2724 C 0.24495 0.70373 0.89992
 C2725 C 0.27503 0.62894 0.90417
 C2726 C 0.27474 0.64140 0.88069
 C2727 C 0.23585 0.70317 0.94601
 C2728 C 0.23538 0.71567 0.92246
 H2729 H 0.28251 0.60959 0.90464
 H2730 H 0.28203 0.63135 0.86371
 H2731 H 0.22799 0.71292 0.96286
 H2732 H 0.22722 0.73471 0.92184
 H2733 H 0.23588 0.67440 0.98707
 H2734 H 0.27119 0.60846 0.94941
 H2735 H 0.27098 0.66844 0.83830
 H2736 H 0.23578 0.73479 0.87514
 C2737 C 0.75506 0.16408 0.42054
 C2738 C 0.74508 0.17639 0.44258
 C2739 C 0.74526 0.16361 0.46595
 C2740 C 0.75561 0.13855 0.46780
 C2741 C 0.76524 0.12676 0.44489
 C2742 C 0.76527 0.13937 0.42157
 C2743 C 0.75370 0.17676 0.39559
 C2744 C 0.76303 0.16398 0.37341
 C2745 C 0.76135 0.17585 0.34967
 C2746 C 0.75029 0.20034 0.34787
 C2747 C 0.74096 0.21289 0.37037
 C2748 C 0.74258 0.20113 0.39428
 C2749 C 0.77464 0.12727 0.39901
 C2750 C 0.77363 0.13942 0.37534
 C2751 C 0.73424 0.20088 0.44058
 C2752 C 0.73308 0.21308 0.41686
 H2753 H 0.78262 0.10815 0.39959
 H2754 H 0.78091 0.12937 0.35836
 H2755 H 0.72639 0.21062 0.45744
 H2756 H 0.72445 0.23189 0.41614
 H2757 H 0.73547 0.17256 0.48201
 H2758 H 0.77196 0.10722 0.44457
 H2759 H 0.76861 0.16593 0.33259
 H2760 H 0.73239 0.23171 0.36931
 C2761 C 0.25400 0.33753 0.42706
 C2762 C 0.26400 0.32542 0.44886
 C2763 C 0.26167 0.33745 0.47375
 C2764 C 0.24835 0.36087 0.47698
 C2765 C 0.23950 0.37289 0.45435
 C2766 C 0.24193 0.36132 0.42968
 C2767 C 0.25654 0.32535 0.40087
 C2768 C 0.24679 0.33786 0.37923
 C2769 C 0.24862 0.32607 0.35448
 C2770 C 0.25981 0.30168 0.35103
 C2771 C 0.27004 0.28956 0.37295
 C2772 C 0.26849 0.30141 0.39798
 C2773 C 0.23265 0.37338 0.40756
 C2774 C 0.23502 0.36182 0.38274
 C2775 C 0.27627 0.30166 0.44517
 C2776 C 0.27833 0.28980 0.42021
 H2777 H 0.22337 0.39187 0.40947
 H2778 H 0.22746 0.37167 0.36616
 H2779 H 0.28417 0.29205 0.46173
 H2780 H 0.28770 0.27136 0.41831
 H2781 H 0.27060 0.32883 0.49039
 H2782 H 0.23098 0.39178 0.45581
 H2783 H 0.24069 0.33573 0.33794
 H2784 H 0.27878 0.27083 0.37063
 C2785 C 0.75457 0.83664 0.92867
 C2786 C 0.74327 0.86086 0.93110
 C2787 C 0.74132 0.87284 0.95569
 C2788 C 0.74984 0.86081 0.97843
 C2789 C 0.76242 0.83692 0.97538
 C2790 C 0.76428 0.82451 0.95057
 C2791 C 0.75656 0.82399 0.90257
 C2792 C 0.76775 0.79965 0.89987
 C2793 C 0.76885 0.78742 0.87493
 C2794 C 0.75891 0.79956 0.85289
 C2795 C 0.74840 0.82432 0.85616
 C2796 C 0.74706 0.83650 0.88082
 C2797 C 0.77578 0.80031 0.94708
 C2798 C 0.77735 0.78804 0.92222
 C2799 C 0.73424 0.87288 0.90886
 C2800 C 0.73607 0.86089 0.88413
 H2801 H 0.78345 0.79066 0.96371
 H2802 H 0.78613 0.76930 0.92049
 H2803 H 0.72555 0.89168 0.91059
 H2804 H 0.72872 0.87074 0.86748
 H2805 H 0.73331 0.89197 0.95704
 H2806 H 0.77109 0.82819 0.99208
 H2807 H 0.77705 0.76842 0.87277
 H2808 H 0.74072 0.83402 0.83954
 C2809 C 0.74312 0.83803 0.07764
 C2810 C 0.75188 0.86392 0.07734
 C2811 C 0.75368 0.87552 0.05363
 C2812 C 0.74764 0.86151 0.02977
 C2813 C 0.73768 0.83572 0.03060
 C2814 C 0.73582 0.82379 0.05450
 C2815 C 0.74139 0.82573 0.10276
 C2816 C 0.73264 0.79978 0.10328
 C2817 C 0.73176 0.78800 0.12725
 C2818 C 0.73969 0.80205 0.15055
 C2819 C 0.74783 0.82827 0.14952
 C2820 C 0.74876 0.84014 0.12577
 C2821 C 0.72677 0.79794 0.05583
 C2822 C 0.72529 0.78613 0.07976
 C2823 C 0.75872 0.87783 0.10077
 C2824 C 0.75725 0.86612 0.12458
 H2825 H 0.72096 0.78666 0.03821
 H2826 H 0.71842 0.76610 0.07983
 H2827 H 0.76546 0.89791 0.10069
 H2828 H 0.76293 0.87747 0.14220
 H2829 H 0.75995 0.89575 0.05368
 H2830 H 0.73095 0.82506 0.01296
 H2831 H 0.72544 0.76783 0.12768
 H2832 H 0.75386 0.83941 0.16717
 C2833 C 0.24168 0.33781 0.57607
 C2834 C 0.24940 0.36400 0.57582
 C2835 C 0.25106 0.37559 0.55214
 C2836 C 0.24585 0.36133 0.52828
 C2837 C 0.23690 0.33520 0.52900
 C2838 C 0.23523 0.32326 0.55289
 C2839 C 0.24025 0.32549 0.60117
 C2840 C 0.23263 0.29922 0.60166
 C2841 C 0.23213 0.28744 0.62564
 C2842 C 0.23936 0.30184 0.64892
 C2843 C 0.24631 0.32835 0.64793
 C2844 C 0.24685 0.34022 0.62420
 C2845 C 0.22724 0.29708 0.55419
 C2846 C 0.22605 0.28526 0.57813
 C2847 C 0.25544 0.37822 0.59925
 C2848 C 0.25423 0.36650 0.62306
 H2849 H 0.22209 0.28556 0.53655
 H2850 H 0.22005 0.26497 0.57819
 H2851 H 0.26135 0.39853 0.59918
 H2852 H 0.25928 0.37807 0.64070
 H2853 H 0.25666 0.39600 0.55219
 H2854 H 0.23084 0.32428 0.51130
 H2855 H 0.22672 0.26703 0.62610
 H2856 H 0.25171 0.33975 0.66560
 C2857 C 0.74993 0.16217 0.56870
 C2858 C 0.73957 0.13693 0.56451
 C2859 C 0.74001 0.12481 0.53978
 C2860 C 0.74999 0.13764 0.51846
 C2861 C 0.76093 0.16306 0.52362
 C2862 C 0.76068 0.17540 0.54846
 C2863 C 0.75047 0.17454 0.59507
 C2864 C 0.76158 0.19956 0.59954
 C2865 C 0.76224 0.21111 0.62474
 C2866 C 0.75199 0.19769 0.64538
 C2867 C 0.74102 0.17254 0.64043
 C2868 C 0.74026 0.16089 0.61538
 C2869 C 0.77162 0.20047 0.55366
 C2870 C 0.77198 0.21238 0.57874
 C2871 C 0.72944 0.12389 0.58530
 C2872 C 0.72969 0.13571 0.61030
 H2873 H 0.78007 0.21094 0.53823
 H2874 H 0.78065 0.23170 0.58190
 H2875 H 0.72135 0.10432 0.58224
 H2876 H 0.72176 0.12498 0.62582
 H2877 H 0.73315 0.10491 0.53772
 H2878 H 0.77114 0.17284 0.50886
 H2879 H 0.77080 0.23045 0.62826
 H2880 H 0.73308 0.16194 0.65604
 C2881 C 0.25155 0.66371 0.07367
 C2882 C 0.26191 0.67690 0.05322
 C2883 C 0.26156 0.66458 0.02837
 C2884 C 0.25035 0.63926 0.02341
 C2885 C 0.24075 0.62645 0.04489
 C2886 C 0.24097 0.63852 0.06967
 C2887 C 0.25270 0.67609 0.10001
 C2888 C 0.24286 0.66249 0.12052
 C2889 C 0.24394 0.67425 0.14550
 C2890 C 0.25477 0.69950 0.15016
 C2891 C 0.26484 0.71280 0.12937
 C2892 C 0.26389 0.70112 0.10423
 C2893 C 0.23128 0.62552 0.09068
 C2894 C 0.23213 0.63735 0.11569
 C2895 C 0.27305 0.70192 0.05816
 C2896 C 0.27392 0.71387 0.08323
 H2897 H 0.22305 0.60599 0.08778
 H2898 H 0.22448 0.62667 0.13139
 H2899 H 0.28120 0.71234 0.04255
 H2900 H 0.28266 0.73318 0.08620
 H2901 H 0.27161 0.67429 0.01348
 H2902 H 0.23372 0.60658 0.04288
 H2903 H 0.23614 0.66375 0.16125
 H2904 H 0.27329 0.73220 0.13269
 C2905 C 0.16557 0.57413 0.75973
 C2906 C 0.17938 0.55249 0.76706
 C2907 C 0.16672 0.52785 0.76618
 C2908 C 0.14069 0.52477 0.75694
 C2909 C 0.12707 0.54733 0.75139
 C2910 C 0.13936 0.57171 0.75224
 C2911 C 0.17872 0.59989 0.75990
 C2912 C 0.16470 0.62130 0.75240
 C2913 C 0.17724 0.64560 0.75200
 C2914 C 0.20370 0.64882 0.75905
 C2915 C 0.21748 0.62717 0.76693
 C2916 C 0.20501 0.60258 0.76734
 C2917 C 0.12588 0.59365 0.74527
 C2918 C 0.13837 0.61806 0.74530
 C2919 C 0.20561 0.55600 0.77482
 C2920 C 0.21822 0.58058 0.77490
 H2921 H 0.10557 0.59189 0.73949
 H2922 H 0.12736 0.63448 0.73958
 H2923 H 0.21658 0.53958 0.78062
 H2924 H 0.23850 0.58235 0.78080
 H2925 H 0.17711 0.51140 0.77274
 H2926 H 0.10675 0.54572 0.74561
 H2927 H 0.16627 0.66201 0.74612
 H2928 H 0.23781 0.62937 0.77253
 C2929 C 0.66521 0.07193 0.25276
 C2930 C 0.67717 0.04999 0.24224
 C2931 C 0.66440 0.02555 0.24246
 C2932 C 0.64070 0.02262 0.25491
 C2933 C 0.62878 0.04542 0.26423
 C2934 C 0.64087 0.06983 0.26340
 C2935 C 0.67806 0.09772 0.25202
 C2936 C 0.66536 0.11970 0.26145
 C2937 C 0.67738 0.14420 0.26036
 C2938 C 0.70217 0.14677 0.25057
 C2939 C 0.71492 0.12461 0.24149
 C2940 C 0.70266 0.09996 0.24172
 C2941 C 0.62885 0.09222 0.27282
 C2942 C 0.64086 0.11678 0.27176
 C2943 C 0.70159 0.05304 0.23162
 C2944 C 0.71425 0.07755 0.23164
 H2945 H 0.60996 0.09074 0.28099
 H2946 H 0.63092 0.13361 0.27912
 H2947 H 0.71110 0.03631 0.22344
 H2948 H 0.73314 0.07899 0.22348
 H2949 H 0.67285 0.00905 0.23268
 H2950 H 0.60963 0.04430 0.27186
 H2951 H 0.66767 0.16128 0.26752
 H2952 H 0.73397 0.12668 0.23375
 C2953 C 0.83596 0.07315 0.74204
 C2954 C 0.86192 0.07262 0.75039
 C2955 C 0.87365 0.04881 0.75194
 C2956 C 0.85976 0.02507 0.74601
 C2957 C 0.83388 0.02607 0.73642
 C2958 C 0.82178 0.05011 0.73486
 C2959 C 0.82351 0.09841 0.74067
 C2960 C 0.79748 0.09919 0.73236
 C2961 C 0.78562 0.12334 0.73176
 C2962 C 0.79970 0.14650 0.73953
 C2963 C 0.82595 0.14517 0.74728
 C2964 C 0.83790 0.12128 0.74793
 C2965 C 0.79583 0.05169 0.72624
 C2966 C 0.78388 0.07578 0.72510
 C2967 C 0.87578 0.09592 0.75714
 C2968 C 0.86395 0.11986 0.75599
 H2969 H 0.78460 0.03416 0.72053
 H2970 H 0.76379 0.07605 0.71857
 H2971 H 0.89591 0.09564 0.76356
 H2972 H 0.87525 0.13740 0.76156
 H2973 H 0.89389 0.04869 0.75801
 H2974 H 0.82326 0.00846 0.72983
 H2975 H 0.76541 0.12404 0.72573
 H2976 H 0.83713 0.16272 0.75314
 C2977 C 0.33662 0.57649 0.24224
 C2978 C 0.36264 0.57575 0.25030
 C2979 C 0.37420 0.55184 0.25165
 C2980 C 0.36009 0.52821 0.24575
 C2981 C 0.33412 0.52942 0.23654
 C2982 C 0.32220 0.55355 0.23517
 C2983 C 0.32435 0.60184 0.24109
 C2984 C 0.29825 0.60282 0.23312
 C2985 C 0.28651 0.62703 0.23287
 C2986 C 0.30077 0.65007 0.24068
 C2987 C 0.32711 0.64859 0.24799
 C2988 C 0.33894 0.62462 0.24829
 C2989 C 0.29619 0.55534 0.22687
 C2990 C 0.28441 0.57952 0.22594
 C2991 C 0.37673 0.59894 0.25696
 C2992 C 0.36506 0.62299 0.25602
 H2993 H 0.28477 0.53790 0.22125
 H2994 H 0.26425 0.57996 0.21968
 H2995 H 0.39691 0.59849 0.26315
 H2996 H 0.37652 0.64043 0.26155
 H2997 H 0.39449 0.55153 0.25751
 H2998 H 0.32330 0.51190 0.23004
 H2999 H 0.26623 0.62784 0.22718
 H3000 H 0.33840 0.66607 0.25386
 C3001 C 0.33690 0.42708 0.25206
 C3002 C 0.32489 0.44901 0.26256
 C3003 C 0.33664 0.47380 0.26050
 C3004 C 0.35976 0.47682 0.24707
 C3005 C 0.37168 0.45406 0.23762
 C3006 C 0.36033 0.42948 0.23971
 C3007 C 0.32506 0.40099 0.25444
 C3008 C 0.33747 0.37919 0.24420
 C3009 C 0.32601 0.35451 0.24595
 C3010 C 0.30207 0.35133 0.25761
 C3011 C 0.29007 0.37342 0.26829
 C3012 C 0.30156 0.39834 0.26678
 C3013 C 0.37229 0.40722 0.22991
 C3014 C 0.36102 0.38248 0.23208
 C3015 C 0.30154 0.44556 0.27515
 C3016 C 0.29001 0.42070 0.27709
 H3017 H 0.39049 0.40894 0.22040
 H3018 H 0.37079 0.36580 0.22414
 H3019 H 0.29200 0.46222 0.28344
 H3020 H 0.27190 0.41898 0.28676
 H3021 H 0.32809 0.49052 0.26981
 H3022 H 0.39035 0.45532 0.22899
 H3023 H 0.33554 0.33783 0.23766
 H3024 H 0.27168 0.37130 0.27739
 C3025 C 0.83661 0.92419 0.75371
 C3026 C 0.82440 0.94630 0.76354
 C3027 C 0.83623 0.97102 0.76123
 C3028 C 0.85961 0.97377 0.74817
 C3029 C 0.87172 0.95086 0.73946
 C3030 C 0.86031 0.92635 0.74182
 C3031 C 0.82463 0.89818 0.75629
 C3032 C 0.83721 0.87621 0.74670
 C3033 C 0.82560 0.85161 0.74856
 C3034 C 0.80135 0.84867 0.75968
 C3035 C 0.78919 0.87093 0.76975
 C3036 C 0.80083 0.89578 0.76813
 C3037 C 0.87243 0.90392 0.73270
 C3038 C 0.86105 0.87925 0.73506
 C3039 C 0.80076 0.94310 0.77568
 C3040 C 0.78912 0.91832 0.77779
 H3041 H 0.89085 0.90544 0.72355
 H3042 H 0.87095 0.86243 0.72762
 H3043 H 0.79108 0.95991 0.78344
 H3044 H 0.77078 0.91680 0.78706
 H3045 H 0.82750 0.98789 0.77004
 H3046 H 0.89056 0.95200 0.73113
 H3047 H 0.83527 0.83480 0.74076
 H3048 H 0.77057 0.86901 0.77842
 C3049 C 0.66439 0.92328 0.25403
 C3050 C 0.63775 0.92390 0.24871
 C3051 C 0.62577 0.94769 0.24980
 C3052 C 0.64003 0.97122 0.25566
 C3053 C 0.66646 0.96990 0.26315
 C3054 C 0.67890 0.94605 0.26146
 C3055 C 0.67724 0.89825 0.25188
 C3056 C 0.70404 0.89754 0.25667
 C3057 C 0.71617 0.87363 0.25424
 C3058 C 0.70146 0.85064 0.24784
 C3059 C 0.67462 0.85172 0.24336
 C3060 C 0.66244 0.87549 0.24510
 C3061 C 0.70561 0.94448 0.26667
 C3062 C 0.71800 0.92068 0.26409
 C3063 C 0.62358 0.90077 0.24197
 C3064 C 0.63572 0.87692 0.24029
 H3065 H 0.71710 0.96184 0.27242
 H3066 H 0.73866 0.92038 0.26803
 H3067 H 0.60294 0.90112 0.23788
 H3068 H 0.62412 0.85949 0.23506
 H3069 H 0.60519 0.94807 0.24533
 H3070 H 0.67745 0.98711 0.27020
 H3071 H 0.73683 0.87277 0.25805
 H3072 H 0.66328 0.83405 0.23838
 C3073 C 0.16414 0.42489 0.74843
 C3074 C 0.17652 0.44694 0.73912
 C3075 C 0.16434 0.47096 0.74095
 C3076 C 0.14044 0.47325 0.75312
 C3077 C 0.12798 0.45024 0.76088
 C3078 C 0.13980 0.42637 0.75908
 C3079 C 0.17666 0.39961 0.74662
 C3080 C 0.16397 0.37765 0.75576
 C3081 C 0.17601 0.35380 0.75450
 C3082 C 0.20071 0.35161 0.74428
 C3083 C 0.21303 0.37380 0.73475
 C3084 C 0.20103 0.39789 0.73587
 C3085 C 0.12757 0.40393 0.76773
 C3086 C 0.13949 0.37997 0.76615
 C3087 C 0.20077 0.44439 0.72811
 C3088 C 0.21285 0.42033 0.72662
 H3089 H 0.10868 0.40492 0.77593
 H3090 H 0.12949 0.36313 0.77319
 H3091 H 0.21058 0.46117 0.72076
 H3092 H 0.23162 0.41930 0.71818
 H3093 H 0.17334 0.48762 0.73260
 H3094 H 0.10873 0.45081 0.76830
 H3095 H 0.16617 0.33698 0.76178
 H3096 H 0.23197 0.37241 0.72671
 C3097 C 0.07793 0.74891 0.83587
 C3098 C 0.07593 0.75950 0.86111
 C3099 C 0.05183 0.75955 0.87230
 C3100 C 0.02908 0.74972 0.85857
 C3101 C 0.03190 0.73872 0.83312
 C3102 C 0.05610 0.73849 0.82170
 C3103 C 0.10357 0.74777 0.82448
 C3104 C 0.10578 0.73648 0.79944
 C3105 C 0.13025 0.73544 0.78874
 C3106 C 0.15243 0.74558 0.80297
 C3107 C 0.14976 0.75657 0.82820
 C3108 C 0.12543 0.75770 0.83903
 C3109 C 0.05908 0.72730 0.79666
 C3110 C 0.08346 0.72640 0.78568
 C3111 C 0.09822 0.76929 0.87508
 C3112 C 0.12255 0.76849 0.86418
 H3113 H 0.04244 0.71908 0.78547
 H3114 H 0.08487 0.71759 0.76634
 H3115 H 0.09687 0.77754 0.89466
 H3116 H 0.13925 0.77621 0.87562
 H3117 H 0.05123 0.76652 0.89228
 H3118 H 0.01584 0.72859 0.82270
 H3119 H 0.13195 0.72688 0.76932
 H3120 H 0.16655 0.76443 0.83942
 C3121 C 0.57702 0.24067 0.33438
 C3122 C 0.57627 0.24851 0.36064
 C3123 C 0.55252 0.24948 0.37231
 C3124 C 0.52902 0.24352 0.35806
 C3125 C 0.53027 0.23445 0.33183
 C3126 C 0.55426 0.23341 0.31982
 C3127 C 0.60221 0.23994 0.32200
 C3128 C 0.60321 0.23209 0.29568
 C3129 C 0.62727 0.23204 0.28392
 C3130 C 0.65014 0.23990 0.29838
 C3131 C 0.64860 0.24724 0.32489
 C3132 C 0.62480 0.24731 0.33675
 C3133 C 0.55607 0.22530 0.29357
 C3134 C 0.58008 0.22472 0.28171
 C3135 C 0.59930 0.25539 0.37486
 C3136 C 0.62317 0.25486 0.36309
 H3137 H 0.53877 0.21955 0.28203
 H3138 H 0.58053 0.21855 0.26138
 H3139 H 0.59886 0.26143 0.39522
 H3140 H 0.64048 0.26051 0.37468
 H3141 H 0.55223 0.25524 0.39276
 H3142 H 0.51290 0.22787 0.32087
 H3143 H 0.62812 0.22630 0.26351
 H3144 H 0.66593 0.25314 0.33636
 C3145 C 0.57094 0.75494 0.16471
 C3146 C 0.55046 0.76490 0.17862
 C3147 C 0.52558 0.76451 0.16674
 C3148 C 0.52067 0.75361 0.14115
 C3149 C 0.54222 0.74458 0.12761
 C3150 C 0.56697 0.74480 0.13923
 C3151 C 0.59725 0.75594 0.17669
 C3152 C 0.61773 0.74636 0.16242
 C3153 C 0.64264 0.74713 0.17386
 C3154 C 0.64729 0.75738 0.19946
 C3155 C 0.62654 0.76731 0.21339
 C3156 C 0.60145 0.76664 0.20204
 C3157 C 0.58795 0.73547 0.12552
 C3158 C 0.61290 0.73615 0.13696
 C3159 C 0.55543 0.77564 0.20394
 C3160 C 0.58047 0.77640 0.21549
 H3161 H 0.58505 0.72760 0.10575
 H3162 H 0.62855 0.72873 0.12574
 H3163 H 0.53984 0.78351 0.21493
 H3164 H 0.58343 0.78477 0.23506
 H3165 H 0.51058 0.77419 0.17706
 H3166 H 0.54025 0.73796 0.10753
 H3167 H 0.65834 0.73949 0.16286
 H3168 H 0.62981 0.77534 0.23306
 C3169 C 0.07157 0.25313 0.66423
 C3170 C 0.05109 0.26330 0.67798
 C3171 C 0.02622 0.26269 0.66611
 C3172 C 0.02134 0.25145 0.64065
 C3173 C 0.04285 0.24203 0.62732
 C3174 C 0.06759 0.24248 0.63894
 C3175 C 0.09790 0.25455 0.67611
 C3176 C 0.11840 0.24486 0.66195
 C3177 C 0.14336 0.24614 0.67327
 C3178 C 0.14801 0.25699 0.69863
 C3179 C 0.12724 0.26697 0.71248
 C3180 C 0.10212 0.26581 0.70125
 C3181 C 0.08857 0.23297 0.62535
 C3182 C 0.11356 0.23407 0.63671
 C3183 C 0.05605 0.27454 0.70310
 C3184 C 0.08111 0.27567 0.71459
 H3185 H 0.08567 0.22469 0.60573
 H3186 H 0.12923 0.22653 0.62560
 H3187 H 0.04045 0.28256 0.71397
 H3188 H 0.08409 0.28446 0.73400
 H3189 H 0.01124 0.27261 0.67623
 H3190 H 0.04089 0.23503 0.60735
 H3191 H 0.15908 0.23843 0.66234
 H3192 H 0.13054 0.27544 0.73199
 C3193 C 0.92299 0.25498 0.66673
 C3194 C 0.92421 0.26489 0.64209
 C3195 C 0.94773 0.26533 0.62981
 C3196 C 0.97065 0.25644 0.64183
 C3197 C 0.96867 0.24654 0.66689
 C3198 C 0.94506 0.24587 0.67935
 C3199 C 0.89783 0.25292 0.67895
 C3200 C 0.89631 0.24202 0.70322
 C3201 C 0.87219 0.23968 0.71451
 C3202 C 0.84972 0.24808 0.70155
 C3203 C 0.85175 0.25893 0.67718
 C3204 C 0.87568 0.26133 0.66580
 C3205 C 0.94286 0.23526 0.70376
 C3206 C 0.91891 0.23345 0.71553
 C3207 C 0.90166 0.27338 0.62964
 C3208 C 0.87780 0.27172 0.64135
 H3209 H 0.95973 0.22808 0.71375
 H3210 H 0.91805 0.22500 0.73427
 H3211 H 0.90242 0.28113 0.61056
 H3212 H 0.86083 0.27830 0.63104
 H3213 H 0.94756 0.27168 0.61026
 H3214 H 0.98482 0.23729 0.67602
 H3215 H 0.87093 0.23130 0.73326
 H3216 H 0.83472 0.26549 0.66694
 C3217 C 0.42213 0.75515 0.16745
 C3218 C 0.44446 0.74663 0.18009
 C3219 C 0.46805 0.74783 0.16760
 C3220 C 0.46978 0.75780 0.14253
 C3221 C 0.44660 0.76603 0.13047
 C3222 C 0.42307 0.76498 0.14275
 C3223 C 0.39704 0.75267 0.17980
 C3224 C 0.37465 0.76059 0.16669
 C3225 C 0.35086 0.75813 0.17835
 C3226 C 0.34919 0.74782 0.20303
 C3227 C 0.37186 0.73968 0.21582
 C3228 C 0.39586 0.74205 0.20423
 C3229 C 0.40026 0.77284 0.13029
 C3230 C 0.37646 0.77076 0.14210
 C3231 C 0.44256 0.73614 0.20459
 C3232 C 0.41870 0.73399 0.21650
 H3233 H 0.40077 0.78049 0.11115
 H3234 H 0.35931 0.77695 0.13180
 H3235 H 0.45963 0.72939 0.21459
 H3236 H 0.41811 0.72574 0.23535
 H3237 H 0.48441 0.73892 0.17673
 H3238 H 0.44632 0.77233 0.11088
 H3239 H 0.33366 0.76443 0.16819
 H3240 H 0.37090 0.73172 0.23480
 C3241 C 0.42806 0.25029 0.33452
 C3242 C 0.43072 0.23792 0.35792
 C3243 C 0.45529 0.23567 0.36936
 C3244 C 0.47779 0.24499 0.35758
 C3245 C 0.47448 0.25841 0.33446
 C3246 C 0.44971 0.26063 0.32262
 C3247 C 0.40196 0.25292 0.32262
 C3248 C 0.39903 0.26532 0.29918
 C3249 C 0.37411 0.26717 0.28769
 C3250 C 0.35227 0.25680 0.29967
 C3251 C 0.35576 0.24501 0.32353
 C3252 C 0.38044 0.24291 0.33498
 C3253 C 0.44599 0.27325 0.29930
 C3254 C 0.42114 0.27542 0.28772
 C3255 C 0.40872 0.22831 0.36978
 C3256 C 0.38399 0.23073 0.35848
 H3257 H 0.46243 0.28141 0.28984
 H3258 H 0.41923 0.28513 0.26966
 H3259 H 0.41063 0.21879 0.38795
 H3260 H 0.36752 0.22296 0.36820
 H3261 H 0.45675 0.22707 0.38805
 H3262 H 0.49095 0.26764 0.32601
 H3263 H 0.37177 0.27635 0.26936
 H3264 H 0.33930 0.23693 0.33306
 C3265 C 0.92765 0.74563 0.83376
 C3266 C 0.94912 0.75396 0.82035
 C3267 C 0.97397 0.75294 0.83214
 C3268 C 0.97775 0.74352 0.85737
 C3269 C 0.95538 0.73520 0.87007
 C3270 C 0.93065 0.73603 0.85849
 C3271 C 0.90140 0.74812 0.82225
 C3272 C 0.87996 0.74039 0.83613
 C3273 C 0.85506 0.74281 0.82521
 C3274 C 0.85138 0.75288 0.80052
 C3275 C 0.87317 0.76089 0.78699
 C3276 C 0.89823 0.75855 0.79781
 C3277 C 0.90874 0.72832 0.87173
 C3278 C 0.88382 0.73038 0.86069
 C3279 C 0.94520 0.76423 0.79584
 C3280 C 0.92021 0.76639 0.78473
 H3281 H 0.91086 0.72085 0.89090
 H3282 H 0.86744 0.72431 0.87159
 H3283 H 0.96156 0.77085 0.78523
 H3284 H 0.91808 0.77447 0.76583
 H3285 H 0.98981 0.76177 0.82241
 H3286 H 0.95673 0.72924 0.88975
 H3287 H 0.83859 0.73655 0.83589
 H3288 H 0.87069 0.76863 0.76796
   
