data_POSCAR
  _audit_creation_date              2014-09-24
  _audit_creation_method            'ToBaCCo'
  _symmetry_space_group_name_H-M    'P1'
  _symmetry_Int_Tables_number       1
  _symmetry_cell_setting            triclinic
  loop_
  _symmetry_equiv_pos_as_xyz
 x,y,z
_cell_length_a 37.1014
_cell_length_b 37.2953
_cell_length_c 36.7674
_cell_angle_alpha 89.580100
_cell_angle_beta 90.843700
_cell_angle_gamma 90.698800
loop_
  _atom_site_label
  _atom_site_type_symbol
  _atom_site_fract_x
  _atom_site_fract_y
  _atom_site_fract_z
C1 C 0.13678 -0.04670 0.24980
 C2 C 0.11881 -0.01521 0.25877
 C3 C 0.10374 -0.01224 0.29330
 C4 C 0.10610 -0.04061 0.31845
 C5 C 0.12317 -0.07254 0.30863
 C6 C 0.13777 -0.07584 0.27373
 C7 C 0.11505 0.01386 0.23144
 C8 C 0.10948 0.00556 0.19448
 C9 C 0.11197 0.03232 0.16788
 C10 C 0.11881 0.06778 0.17810
 C11 C 0.12328 0.07652 0.21492
 C12 C 0.12088 0.04971 0.24153
 H13 H 0.14787 -0.04974 0.22290
 H14 H 0.08967 0.01190 0.30057
 H15 H 0.10503 -0.02196 0.18612
 H16 H 0.12692 0.05642 0.26960
 H17 H 0.12266 -0.09540 0.32698
 H18 H 0.12290 0.08825 0.15743
 C19 C 0.35817 -0.04778 0.72254
 C20 C 0.38323 -0.01979 0.71770
 C21 C 0.39865 -0.01432 0.68352
 C22 C 0.38788 -0.03596 0.65417
 C23 C 0.36092 -0.06192 0.65856
 C24 C 0.34702 -0.06875 0.69292
 C25 C 0.39083 0.00500 0.74781
 C26 C 0.40257 -0.00815 0.78169
 C27 C 0.40270 0.01390 0.81232
 C28 C 0.39177 0.04972 0.80879
 C29 C 0.37937 0.06284 0.77501
 C30 C 0.37966 0.04058 0.74452
 H31 H 0.34668 -0.05277 0.74906
 H32 H 0.41870 0.00670 0.67972
 H33 H 0.40879 -0.03636 0.78481
 H34 H 0.36868 0.05023 0.71883
 H35 H 0.35298 -0.07882 0.63589
 H36 H 0.38944 0.06619 0.83279
 C37 C 0.86410 0.47716 0.24765
 C38 C 0.88494 0.50783 0.24008
 C39 C 0.89472 0.51528 0.20415
 C40 C 0.88342 0.49254 0.17577
 C41 C 0.86141 0.46275 0.18354
 C42 C 0.85231 0.45459 0.21954
 C43 C 0.89280 0.53386 0.26923
 C44 C 0.90235 0.52202 0.30435
 C45 C 0.89963 0.54502 0.33400
 C46 C 0.88851 0.58036 0.32842
 C47 C 0.87950 0.59254 0.29345
 C48 C 0.88290 0.56960 0.26376
 H49 H 0.85584 0.47149 0.27526
 H50 H 0.91138 0.53865 0.19843
 H51 H 0.90829 0.49396 0.30913
 H52 H 0.87347 0.57821 0.23711
 H53 H 0.85313 0.44477 0.16188
 H54 H 0.88330 0.59724 0.35160
 C55 C 0.65070 0.46000 0.76343
 C56 C 0.63647 0.49422 0.76777
 C57 C 0.62705 0.50584 0.80246
 C58 C 0.63333 0.48373 0.83283
 C59 C 0.65027 0.45092 0.82863
 C60 C 0.65766 0.43850 0.79392
 C61 C 0.63413 0.51847 0.73635
 C62 C 0.61609 0.50787 0.70443
 C63 C 0.61806 0.52938 0.67310
 C64 C 0.63897 0.56088 0.67350
 C65 C 0.65560 0.57228 0.70583
 C66 C 0.65295 0.55113 0.73726
 H67 H 0.65788 0.45073 0.73665
 H68 H 0.61440 0.53162 0.80577
 H69 H 0.60098 0.48283 0.70387
 H70 H 0.66699 0.55930 0.76196
 H71 H 0.65481 0.43367 0.85207
 H72 H 0.64069 0.57743 0.64923
 C73 C 0.23392 0.11318 1.03765
 C74 C 0.22162 0.09744 1.00505
 C75 C 0.18467 0.09923 0.99576
 C76 C 0.16092 0.11803 1.01773
 C77 C 0.17403 0.13501 1.04927
 C78 C 0.21060 0.13244 1.05928
 C79 C 0.24841 0.08558 0.97817
 C80 C 0.28103 0.06992 0.98965
 C81 C 0.31075 0.06931 0.96654
 C82 C 0.30685 0.08151 0.93052
 C83 C 0.27424 0.09645 0.91860
 C84 C 0.24515 0.09794 0.94221
 H85 H 0.26230 0.11323 1.04497
 H86 H 0.17464 0.08725 0.97075
 H87 H 0.28478 0.06219 1.01792
 H88 H 0.22117 0.11200 0.93331
 H89 H 0.15594 0.15020 1.06598
 H90 H 0.33024 0.08348 0.91326
 C91 C 0.76240 0.36813 1.05222
 C92 C 0.77391 0.37745 1.01729
 C93 C 0.81093 0.38051 1.01079
 C94 C 0.83617 0.37631 1.03939
 C95 C 0.82412 0.36784 1.07440
 C96 C 0.78711 0.36474 1.08087
 C97 C 0.74711 0.38722 0.98882
 C98 C 0.71617 0.40640 0.99786
 C99 C 0.68763 0.41013 0.97295
 C100 C 0.69140 0.39751 0.93740
 C101 C 0.72260 0.37917 0.92784
 C102 C 0.75039 0.37425 0.95350
 H103 H 0.73386 0.36629 1.05795
 H104 H 0.82011 0.38929 0.98430
 H105 H 0.71261 0.41544 1.02551
 H106 H 0.77353 0.35841 0.94644
 H107 H 0.84312 0.36796 1.09709
 H108 H 0.66865 0.39820 0.91857
 C109 C 0.26090 0.86756 0.54340
 C110 C 0.26623 0.87976 0.50778
 C111 C 0.30094 0.88929 0.49656
 C112 C 0.33029 0.88653 0.52071
 C113 C 0.32473 0.87463 0.55661
 C114 C 0.29006 0.86427 0.56771
 C115 C 0.23616 0.87731 0.48142
 C116 C 0.20346 0.89399 0.48876
 C117 C 0.17305 0.88685 0.46698
 C118 C 0.17500 0.86263 0.43843
 C119 C 0.20786 0.84740 0.42974
 C120 C 0.23864 0.85492 0.45103
 H121 H 0.23430 0.85869 0.55167
 H122 H 0.30545 0.89658 0.46837
 H123 H 0.20139 0.91167 0.51188
 H124 H 0.26383 0.84199 0.44499
 H125 H 0.34761 0.87033 0.57473
 H126 H 0.15140 0.85730 0.42162
 C127 C 0.73193 0.64688 0.53692
 C128 C 0.72567 0.62286 0.50837
 C129 C 0.69095 0.60896 0.50216
 C130 C 0.66239 0.61963 0.52413
 C131 C 0.66851 0.64519 0.55135
 C132 C 0.70349 0.65801 0.55859
 C133 C 0.75585 0.61324 0.48513
 C134 C 0.78621 0.59706 0.50068
 C135 C 0.81863 0.59587 0.48190
 C136 C 0.82022 0.60998 0.44616
 C137 C 0.78944 0.62596 0.43014
 C138 C 0.75733 0.62694 0.44975
 H139 H 0.75898 0.65710 0.54211
 H140 H 0.68627 0.58957 0.48075
 H141 H 0.78560 0.58858 0.52897
 H142 H 0.73412 0.64061 0.43830
 H143 H 0.64662 0.65288 0.56874
 H144 H 0.84570 0.61122 0.43216
 C145 C -0.05558 0.26889 0.12433
 C146 C -0.02087 0.27168 0.10987
 C147 C -0.00644 0.30626 0.10263
 C148 C -0.02513 0.33716 0.11248
 C149 C -0.05896 0.33362 0.12879
 C150 C -0.07420 0.29947 0.13447
 C151 C 0.00269 0.23948 0.11040
 C152 C -0.01105 0.20439 0.10413
 C153 C 0.01025 0.17427 0.11233
 C154 C 0.04502 0.17915 0.12668
 C155 C 0.05884 0.21349 0.13286
 C156 C 0.03803 0.24343 0.12411
 H157 H -0.06694 0.24289 0.13128
 H158 H 0.02040 0.30921 0.09169
 H159 H -0.03855 0.20044 0.09456
 H160 H 0.04840 0.26974 0.13122
 H161 H -0.07290 0.35717 0.13802
 H162 H 0.06086 0.15606 0.13465
 C163 C -0.04246 0.74299 0.37857
 C164 C -0.01112 0.73254 0.39707
 C165 C -0.00896 0.69834 0.41263
 C166 C -0.03807 0.67432 0.40936
 C167 C -0.06916 0.68452 0.39032
 C168 C -0.07150 0.71888 0.37509
 C169 C 0.01996 0.75685 0.39889
 C170 C 0.01799 0.78895 0.41805
 C171 C 0.04793 0.81215 0.41991
 C172 C 0.07976 0.80298 0.40243
 C173 C 0.08096 0.77186 0.38140
 C174 C 0.05123 0.74849 0.38023
 H175 H -0.04392 0.76954 0.36651
 H176 H 0.01550 0.69029 0.42678
 H177 H -0.00673 0.79579 0.43157
 H178 H 0.05220 0.72416 0.36434
 H179 H -0.09157 0.66579 0.38746
 H180 H 0.10255 0.82132 0.40286
 C181 C 0.44978 0.24200 0.89218
 C182 C 0.48420 0.23198 0.90508
 C183 C 0.49202 0.19540 0.90910
 C184 C 0.46649 0.16939 0.89882
 C185 C 0.43283 0.17968 0.88520
 C186 C 0.42448 0.21599 0.88174
 C187 C 0.51317 0.25951 0.90826
 C188 C 0.50487 0.29398 0.92025
 C189 C 0.52850 0.32268 0.91422
 C190 C 0.56265 0.31643 0.89987
 C191 C 0.57195 0.28186 0.88891
 C192 C 0.54707 0.25356 0.89285
 H193 H 0.44360 0.26988 0.88692
 H194 H 0.51868 0.18711 0.91792
 H195 H 0.47827 0.29940 0.93055
 H196 H 0.55349 0.22757 0.88188
 H197 H 0.41385 0.15955 0.87527
 H198 H 0.58050 0.33884 0.89380
 C199 C 0.45404 0.75748 0.63818
 C200 C 0.48724 0.76085 0.62063
 C201 C 0.49615 0.79290 0.60260
 C202 C 0.47281 0.82212 0.60324
 C203 C 0.44079 0.81940 0.62297
 C204 C 0.43084 0.78690 0.63975
 C205 C 0.51396 0.73206 0.62306
 C206 C 0.50623 0.69783 0.60915
 C207 C 0.53291 0.67143 0.60988
 C208 C 0.56649 0.67885 0.62610
 C209 C 0.57403 0.71257 0.64089
 C210 C 0.54798 0.73937 0.63870
 H211 H 0.44713 0.73271 0.65217
 H212 H 0.52153 0.79522 0.58850
 H213 H 0.48031 0.69238 0.59626
 H214 H 0.55378 0.76560 0.65001
 H215 H 0.42293 0.84212 0.62406
 H216 H 0.58694 0.65834 0.62698
 C217 C 0.85565 1.05133 0.76815
 C218 C 0.87086 1.01760 0.77404
 C219 C 0.87799 1.00563 0.80967
 C220 C 0.86997 1.02712 0.83931
 C221 C 0.85505 1.06117 0.83329
 C222 C 0.84737 1.07315 0.79765
 C223 C 0.87786 0.99403 0.74310
 C224 C 0.89800 1.00635 0.71374
 C225 C 0.90792 0.98305 0.68611
 C226 C 0.89618 0.94681 0.68723
 C227 C 0.87416 0.93466 0.71609
 C228 C 0.86567 0.95859 0.74389
 H229 H 0.84963 1.06027 0.74064
 H230 H 0.88903 0.97918 0.81440
 H231 H 0.90831 1.03370 0.71372
 H232 H 0.84953 0.94968 0.76662
 H233 H 0.84785 1.07760 0.85619
 H234 H 0.90437 0.92831 0.66644
 C235 C 0.36143 0.55184 0.25584
 C236 C 0.37385 0.51712 0.26256
 C237 C 0.38727 0.50794 0.29707
 C238 C 0.38826 0.53340 0.32490
 C239 C 0.37550 0.56804 0.31812
 C240 C 0.36184 0.57736 0.28370
 C241 C 0.37234 0.49030 0.23356
 C242 C 0.38818 0.49789 0.19999
 C243 C 0.38705 0.47237 0.17223
 C244 C 0.36971 0.43936 0.17817
 C245 C 0.35381 0.43156 0.21168
 C246 C 0.35518 0.45711 0.23940
 H247 H 0.35060 0.55860 0.22917
 H248 H 0.39699 0.48106 0.30214
 H249 H 0.40165 0.52348 0.19570
 H250 H 0.34294 0.45129 0.26539
 H251 H 0.37567 0.58756 0.33980
 H252 H 0.36893 0.41950 0.15680
 C253 C 0.66525 1.06701 0.22506
 C254 C 0.65166 1.03288 0.21838
 C255 C 0.63647 1.02460 0.18442
 C256 C 0.63411 1.05090 0.15696
 C257 C 0.64827 1.08552 0.16381
 C258 C 0.66396 1.09357 0.19801
 C259 C 0.65015 1.00682 0.24814
 C260 C 0.62754 1.01286 0.27738
 C261 C 0.61988 0.98547 0.30231
 C262 C 0.63653 0.95189 0.29855
 C263 C 0.66140 0.94694 0.27020
 C264 C 0.66794 0.97446 0.24537
 H265 H 0.67620 1.07295 0.25186
 H266 H 0.62533 0.99798 0.17995
 H267 H 0.61283 1.03780 0.27855
 H268 H 0.68572 0.96998 0.22274
 H269 H 0.64636 1.10619 0.14306
 H270 H 0.62959 0.92985 0.31658
 C271 C 0.14928 0.53885 0.74798
 C272 C 0.13785 0.50308 0.74185
 C273 C 0.12206 0.49395 0.70821
 C274 C 0.11754 0.51991 0.68085
 C275 C 0.12935 0.55525 0.68708
 C276 C 0.14513 0.56517 0.72049
 C277 C 0.13979 0.47548 0.77111
 C278 C 0.12514 0.48270 0.80518
 C279 C 0.12343 0.45600 0.83225
 C280 C 0.13722 0.42184 0.82514
 C281 C 0.15193 0.41391 0.79110
 C282 C 0.15317 0.44099 0.76418
 H283 H 0.16134 0.54604 0.77396
 H284 H 0.11243 0.46678 0.70369
 H285 H 0.11404 0.50890 0.81027
 H286 H 0.16412 0.43520 0.73775
 H287 H 0.12590 0.57529 0.66587
 H288 H 0.13581 0.40113 0.84590
 C289 C 0.75126 0.85684 -0.04811
 C290 C 0.74288 0.87135 -0.01395
 C291 C 0.70805 0.88464 -0.00851
 C292 C 0.68188 0.88332 -0.03654
 C293 C 0.69079 0.86903 -0.07023
 C294 C 0.72538 0.85606 -0.07640
 C295 C 0.77046 0.87277 0.01586
 C296 C 0.80658 0.88117 0.00796
 C297 C 0.83329 0.88031 0.03516
 C298 C 0.82365 0.87184 0.07117
 C299 C 0.78759 0.86348 0.07985
 C300 C 0.76116 0.86411 0.05197
 H301 H 0.77776 0.84606 -0.05267
 H302 H 0.70142 0.89636 0.01737
 H303 H 0.81428 0.88735 -0.01973
 H304 H 0.73365 0.85653 0.05813
 H305 H 0.67078 0.86841 -0.09199
 H306 H 0.84443 0.86976 0.09207
 C307 C 0.23154 0.34512 0.44803
 C308 C 0.22350 0.35897 0.48235
 C309 C 0.18886 0.37230 0.48864
 C310 C 0.16239 0.37239 0.46073
 C311 C 0.17093 0.35833 0.42662
 C312 C 0.20540 0.34468 0.42004
 C313 C 0.25178 0.36069 0.51119
 C314 C 0.28537 0.37700 0.50387
 C315 C 0.31245 0.37840 0.53093
 C316 C 0.30581 0.36355 0.56521
 C317 C 0.27268 0.34725 0.57301
 C318 C 0.24552 0.34588 0.54593
 H319 H 0.25824 0.33495 0.44308
 H320 H 0.18290 0.38339 0.51499
 H321 H 0.29034 0.38857 0.47728
 H322 H 0.21986 0.33302 0.55162
 H323 H 0.15089 0.35859 0.40489
 H324 H 0.32679 0.36447 0.58602
 C325 C 0.26744 0.65025 -0.04719
 C326 C 0.27463 0.63145 -0.01491
 C327 C 0.30996 0.62209 -0.00603
 C328 C 0.33803 0.63005 -0.03008
 C329 C 0.33051 0.64819 -0.06272
 C330 C 0.29518 0.65832 -0.07131
 C331 C 0.24489 0.62147 0.00916
 C332 C 0.21282 0.60777 -0.00565
 C333 C 0.18179 0.60554 0.01505
 C334 C 0.18328 0.61547 0.05207
 C335 C 0.21615 0.62789 0.06769
 C336 C 0.24688 0.63014 0.04594
 H337 H 0.24004 0.65781 -0.05398
 H338 H 0.31522 0.60718 0.01885
 H339 H 0.21112 0.60171 -0.03446
 H340 H 0.27184 0.64120 0.05695
 H341 H 0.35183 0.65322 -0.08199
 H342 H 0.15883 0.61595 0.06779
 C343 C 0.76033 0.14611 0.45708
 C344 C 0.76134 0.13210 0.49232
 C345 C 0.79128 0.11304 0.50424
 C346 C 0.81926 0.10531 0.48079
 C347 C 0.81840 0.11913 0.44477
 C348 C 0.78911 0.14084 0.43314
 C349 C 0.72983 0.13385 0.51599
 C350 C 0.69696 0.11844 0.50470
 C351 C 0.66822 0.11534 0.52893
 C352 C 0.67251 0.12861 0.56453
 C353 C 0.70537 0.14435 0.57601
 C354 C 0.73389 0.14680 0.55146
 H355 H 0.73682 0.16101 0.44837
 H356 H 0.79129 0.10114 0.53128
 H357 H 0.69434 0.10756 0.47753
 H358 H 0.75963 0.15815 0.56003
 H359 H 0.83974 0.11296 0.42612
 H360 H 0.65047 0.12620 0.58343
 C361 C 1.05191 0.76694 0.86660
 C362 C 1.01811 0.77262 0.88199
 C363 C 1.00839 0.80753 0.89189
 C364 C 1.03153 0.83676 0.88558
 C365 C 1.06557 0.83064 0.87011
 C366 C 1.07576 0.79566 0.86020
 C367 C 0.99096 0.74316 0.88190
 C368 C 1.00034 0.70789 0.89191
 C369 C 0.97562 0.67952 0.88694
 C370 C 0.94117 0.68665 0.87254
 C371 C 0.93195 0.72145 0.86151
 C372 C 0.95671 0.74958 0.86665
 H373 H 1.05900 0.74031 0.85786
 H374 H 0.98172 0.81233 0.90236
 H375 H 1.02737 0.70223 0.90177
 H376 H 0.94982 0.77622 0.85714
 H377 H 1.08314 0.85316 0.86372
 H378 H 0.92251 0.66466 0.86714
 C379 C 0.54696 0.25507 0.35875
 C380 C 0.51116 0.26044 0.36969
 C381 C 0.50225 0.29249 0.38717
 C382 C 0.52866 0.31903 0.39351
 C383 C 0.56405 0.31343 0.38229
 C384 C 0.57356 0.28167 0.36497
 C385 C 0.48307 0.23244 0.36358
 C386 C 0.48899 0.19714 0.37564
 C387 C 0.46188 0.17071 0.37175
 C388 C 0.42897 0.17975 0.35528
 C389 C 0.42257 0.21481 0.34307
 C390 C 0.44971 0.24117 0.34723
 H391 H 0.55388 0.23051 0.34509
 H392 H 0.47486 0.29667 0.39588
 H393 H 0.51441 0.19049 0.38874
 H394 H 0.44488 0.26837 0.33803
 H395 H 0.58433 0.33412 0.38684
 H396 H 0.40794 0.15950 0.35246
 C397 C 1.04062 0.22878 0.66089
 C398 C 1.00493 0.22670 0.64887
 C399 C 0.99427 0.19985 0.62459
 C400 C 1.01957 0.17708 0.60960
 C401 C 1.05594 0.17957 0.62115
 C402 C 1.06647 0.20525 0.64743
 C403 C 0.98167 0.25797 0.65213
 C404 C 0.99153 0.28895 0.63300
 C405 C 0.96573 0.31387 0.62226
 C406 C 0.93003 0.30965 0.63440
 C407 C 0.92060 0.28002 0.65662
 C408 C 0.94662 0.25397 0.66474
 H409 H 1.04854 0.25037 0.67898
 H410 H 0.96697 0.19977 0.61355
 H411 H 1.01816 0.29070 0.62120
 H412 H 0.93921 0.22947 0.67893
 H413 H 1.07603 0.16288 0.60884
 H414 H 0.90940 0.32808 0.62521
 C415 C 0.54690 0.74594 0.15507
 C416 C 0.51304 0.73751 0.13915
 C417 C 0.50706 0.70287 0.12495
 C418 C 0.53453 0.67708 0.12661
 C419 C 0.56771 0.68601 0.14258
 C420 C 0.57430 0.72018 0.15655
 C421 C 0.48460 0.76529 0.13592
 C422 C 0.49318 0.79961 0.12209
 C423 C 0.46652 0.82597 0.11828
 C424 C 0.43113 0.81782 0.12870
 C425 C 0.42193 0.78389 0.14269
 C426 C 0.44883 0.75760 0.14611
 H427 H 0.55199 0.77248 0.16591
 H428 H 0.48148 0.69631 0.11192
 H429 H 0.52047 0.80550 0.11363
 H430 H 0.44212 0.73138 0.15711
 H431 H 0.58901 0.66637 0.14337
 H432 H 0.41055 0.83805 0.12586
 O433 O 0.09302 1.01216 1.04322
 O434 O 0.10012 0.97313 0.99214
 O435 O 0.03664 1.10133 0.99863
 O436 O -0.01843 1.10568 0.96109
 O437 O -0.00591 1.05202 1.09494
 O438 O -0.03303 0.99423 1.10913
 O439 O -0.06497 1.00203 0.91217
 O440 O -0.01592 1.04633 0.89854
 O441 O 0.00329 0.91215 0.94795
 O442 O 0.04702 0.90702 1.00042
 O443 O -0.09206 0.94305 1.01117
 O444 O -0.10114 0.99613 1.05263
 O445 O -0.10221 0.99269 0.95989
 O446 O -0.11435 1.02722 1.01016
 O447 O -0.04503 0.90569 1.00313
 O448 O 0.00784 0.89687 1.03576
 O449 O -0.00905 0.95579 0.90637
 O450 O 0.02127 1.00663 0.89106
 O451 O 0.05429 1.01041 1.09067
 O452 O 0.01213 0.96401 1.10564
 O453 O -0.00971 1.09620 1.05216
 O454 O -0.05376 1.10252 1.00530
 O455 O 0.08385 1.06310 0.99732
 O456 O 0.09207 1.01810 0.95055
 Zr457 Zr 0.05919 1.01193 0.99699
 O458 O 0.02830 0.97624 0.96481
 Zr459 Zr -0.00941 1.06759 1.00305
 O460 O -0.04361 1.03345 0.97251
 Zr461 Zr 0.00278 1.00421 1.06588
 O462 O -0.02961 0.96695 1.03708
 Zr463 Zr -0.01282 1.00345 0.93649
 O464 O 0.02153 1.04031 0.96473
 Zr465 Zr 0.00067 0.93956 0.99830
 O466 O 0.03429 0.97342 1.03087
 Zr467 Zr -0.06832 0.99465 1.00605
 O468 O -0.03802 1.03208 1.03753
 O469 O 0.02951 1.04128 1.03369
 O470 O -0.03991 0.96494 0.96795
 C471 C 0.08620 1.01218 1.07731
 C472 C 0.07060 1.09477 0.99777
 C473 C -0.00974 1.08501 1.08527
 C474 C -0.09648 0.99793 0.92596
 C475 C -0.00073 0.92341 0.91496
 C476 C -0.07840 0.91161 1.00960
 H477 H 0.04485 0.96441 0.94795
 H478 H -0.04072 0.95033 1.05487
 H479 H 0.04404 1.05816 1.04868
 H480 H -0.06155 1.04845 0.95963
 H481 H -0.03647 1.06145 0.90528
 H482 H -0.00030 1.10128 0.94220
 H483 H 0.00048 0.90572 1.05978
 H484 H 0.03034 0.94780 1.09553
 H485 H 0.04559 1.01258 0.90077
 H486 H 0.11666 1.02567 0.95856
 H487 H -0.09519 0.97510 1.06805
 H488 H -0.05472 1.00874 1.10416
 H489 H 0.09683 0.95539 1.01202
 H490 H 0.06167 0.91296 0.97888
 H491 H -0.07057 1.09195 1.02321
 H492 H -0.10894 1.05006 0.99743
 O493 O 0.48113 0.56216 0.58465
 O494 O 0.42860 0.52863 0.59028
 O495 O 0.56582 0.48662 0.58225
 O496 O 0.57592 0.43462 0.55321
 O497 O 0.56413 0.56797 0.50414
 O498 O 0.53072 0.57863 0.44935
 O499 O 0.47254 0.39024 0.47892
 O500 O 0.49612 0.38395 0.53547
 O501 O 0.38961 0.46528 0.48330
 O502 O 0.38226 0.52314 0.50591
 O503 O 0.46692 0.47569 0.40343
 O504 O 0.52516 0.49611 0.39828
 O505 O 0.50016 0.41841 0.43164
 O506 O 0.55506 0.45964 0.42418
 O507 O 0.41863 0.50232 0.42854
 O508 O 0.40772 0.55421 0.47032
 O509 O 0.41520 0.41627 0.50954
 O510 O 0.44857 0.41133 0.56769
 O511 O 0.50644 0.59083 0.53622
 O512 O 0.48313 0.59650 0.47350
 O513 O 0.59177 0.51689 0.52286
 O514 O 0.59365 0.45492 0.50077
 O515 O 0.51458 0.50465 0.60968
 O516 O 0.45350 0.47596 0.60847
 Zr517 Zr 0.47620 0.50871 0.56704
 O518 O 0.44237 0.47743 0.53332
 Zr519 Zr 0.55000 0.47857 0.52786
 O520 O 0.51908 0.44467 0.49396
 Zr521 Zr 0.51027 0.55157 0.49552
 O522 O 0.47885 0.52102 0.45893
 Zr523 Zr 0.46964 0.43114 0.51791
 O524 O 0.50298 0.46089 0.55449
 Zr525 Zr 0.43108 0.50440 0.48433
 O526 O 0.46106 0.53797 0.52011
 Zr527 Zr 0.50468 0.47283 0.44647
 O528 O 0.53877 0.50611 0.47889
 O529 O 0.52417 0.52493 0.54305
 O530 O 0.45572 0.45686 0.46905
 C531 C 0.49419 0.59015 0.56880
 C532 C 0.54821 0.49691 0.61005
 C533 C 0.59210 0.55022 0.51402
 C534 C 0.48755 0.39023 0.44762
 C535 C 0.38799 0.43332 0.49641
 C536 C 0.43600 0.49058 0.40127
 H537 H 0.42021 0.47138 0.54680
 H538 H 0.47439 0.53598 0.43706
 H539 H 0.53943 0.54031 0.55894
 H540 H 0.53337 0.42310 0.48899
 H541 H 0.50941 0.39011 0.55816
 H542 H 0.56382 0.41264 0.54408
 H543 H 0.42135 0.56438 0.44966
 H544 H 0.46090 0.59933 0.48770
 H545 H 0.43765 0.38731 0.56327
 H546 H 0.45727 0.48796 0.63224
 H547 H 0.52027 0.52207 0.39934
 H548 H 0.54823 0.56229 0.43828
 H549 H 0.41716 0.54427 0.57168
 H550 H 0.38031 0.51349 0.53093
 H551 H 0.59830 0.46959 0.47875
 H552 H 0.56293 0.43685 0.43556
 O553 O 0.60101 0.03224 0.46004
 O554 O 0.61832 -0.02501 0.47318
 O555 O 0.51836 0.00824 0.37552
 O556 O 0.46267 -0.00957 0.37172
 O557 O 0.51060 0.09246 0.45727
 O558 O 0.48369 0.08836 0.51810
 O559 O 0.44713 -0.09883 0.47212
 O560 O 0.47455 -0.09531 0.41498
 O561 O 0.51522 -0.08452 0.55431
 O562 O 0.57169 -0.05546 0.55947
 O563 O 0.43500 -0.02111 0.55591
 O564 O 0.41147 0.02860 0.52437
 O565 O 0.41324 -0.05753 0.50089
 O566 O 0.39673 0.00605 0.47550
 O567 O 0.49002 -0.02992 0.58233
 O568 O 0.54923 -0.00269 0.58141
 O569 O 0.50357 -0.11387 0.50149
 O570 O 0.53257 -0.10915 0.44154
 O571 O 0.57088 0.06894 0.49762
 O572 O 0.53214 0.07998 0.54091
 O573 O 0.48355 0.06597 0.40847
 O574 O 0.43179 0.02118 0.40383
 O575 O 0.57372 -0.00698 0.39745
 O576 O 0.59601 -0.05647 0.43643
 Zr577 Zr 0.56570 -0.01257 0.45465
 O578 O 0.54284 -0.05265 0.48866
 Zr579 Zr 0.48540 0.01033 0.42068
 O580 O 0.45968 -0.03068 0.45074
 Zr581 Zr 0.51752 0.04999 0.49430
 O582 O 0.49101 0.01274 0.52798
 Zr583 Zr 0.49578 -0.07214 0.46327
 O584 O 0.51972 -0.03406 0.42822
 Zr585 Zr 0.52481 -0.03112 0.53776
 O586 O 0.55289 0.00768 0.50647
 Zr587 Zr 0.44551 -0.00980 0.50119
 O588 O 0.46890 0.03225 0.46985
 O589 O 0.53293 0.03117 0.44355
 O590 O 0.47895 -0.05239 0.51291
 C591 C 0.59958 0.05924 0.48156
 C592 C 0.55117 -0.00061 0.37117
 C593 C 0.49483 0.09376 0.42608
 C594 C 0.41861 -0.08931 0.48841
 C595 C 0.50778 -0.11307 0.53619
 C596 C 0.45563 -0.02699 0.58360
 H597 H 0.56010 -0.07224 0.49330
 H598 H 0.48469 0.02549 0.55045
 H599 H 0.54570 0.04868 0.42778
 H600 H 0.43850 -0.03998 0.43698
 H601 H 0.48985 -0.08656 0.39485
 H602 H 0.46047 -0.03586 0.37495
 H603 H 0.57012 0.01074 0.57143
 H604 H 0.53606 0.06244 0.56083
 H605 H 0.52091 -0.13323 0.44183
 H606 H 0.58102 -0.06896 0.41787
 H607 H 0.42738 0.04629 0.53674
 H608 H 0.46142 0.08946 0.50296
 H609 H 0.61959 -0.01850 0.49921
 H610 H 0.59211 -0.04576 0.54538
 H611 H 0.42292 0.04050 0.41957
 H612 H 0.38943 -0.01284 0.45802
 O613 O -0.06258 0.42397 1.01411
 O614 O -0.02669 0.40883 0.96193
 O615 O 0.01511 0.45646 1.09347
 O616 O 0.06606 0.49986 1.09212
 O617 O -0.07571 0.51789 1.07094
 O618 O -0.08756 0.56533 1.02410
 O619 O 0.09990 0.54382 0.98160
 O620 O 0.10872 0.48772 1.02072
 O621 O 0.02977 0.50093 0.89853
 O622 O -0.02863 0.47010 0.89893
 O623 O 0.00434 0.60038 0.94797
 O624 O -0.02120 0.61373 1.01093
 O625 O 0.06370 0.59238 0.98552
 O626 O 0.02893 0.61259 1.03282
 O627 O -0.00730 0.55674 0.90661
 O628 O -0.05963 0.51261 0.90676
 O629 O 0.08093 0.49202 0.93189
 O630 O 0.09814 0.45514 0.97675
 O631 O -0.09591 0.47478 1.01596
 O632 O -0.10716 0.52835 0.98696
 O633 O -0.02279 0.51639 1.10292
 O634 O 0.03452 0.54308 1.10314
 O635 O -0.00467 0.41456 1.05298
 O636 O 0.02471 0.40020 0.99627
 Zr637 Zr -0.01008 0.44415 1.00403
 O638 O 0.02052 0.46983 0.96334
 Zr639 Zr 0.01620 0.50545 1.06412
 O640 O 0.04602 0.53462 1.02561
 Zr641 Zr -0.05899 0.51736 1.01607
 O642 O -0.03226 0.54524 0.97419
 Zr643 Zr 0.06416 0.49906 0.98602
 O644 O 0.03659 0.46895 1.02657
 Zr645 Zr -0.01076 0.50900 0.93699
 O646 O -0.04251 0.48143 0.97577
 Zr647 Zr 0.01295 0.57107 0.99693
 O648 O -0.01554 0.54580 1.03970
 O649 O -0.02876 0.47879 1.04312
 O650 O 0.03383 0.53721 0.95752
 C651 C -0.09264 0.44068 1.01648
 C652 C 0.00591 0.42417 1.08495
 C653 C -0.05720 0.51813 1.10087
 C654 C 0.09448 0.57791 0.98212
 C655 C 0.06340 0.49363 0.90149
 C656 C -0.00229 0.58964 0.91534
 H657 H 0.02900 0.45136 0.94642
 H658 H -0.04910 0.56222 0.96242
 H659 H -0.04291 0.46565 1.06162
 H660 H 0.06611 0.54695 1.03851
 H661 H 0.11296 0.50873 1.03656
 H662 H 0.07718 0.47772 1.08302
 H663 H -0.07010 0.53640 0.91131
 H664 H -0.10436 0.51762 0.96264
 H665 H 0.08344 0.43340 0.98177
 H666 H 0.01202 0.37782 1.00379
 H667 H -0.04168 0.61389 0.99340
 H668 H -0.07435 0.57893 1.04321
 H669 H -0.04715 0.42021 0.94890
 H670 H -0.01298 0.44895 0.90177
 H671 H 0.02256 0.56595 1.09695
 H672 H 0.04504 0.60190 1.05149
 O673 O 0.09276 0.45696 0.51746
 O674 O 0.10051 0.51316 0.49414
 O675 O 0.03070 0.46186 0.60983
 O676 O -0.02276 0.47719 0.62741
 O677 O 0.00022 0.38733 0.52213
 O678 O -0.02791 0.39380 0.46542
 O679 O -0.06826 0.57313 0.53733
 O680 O -0.03312 0.56903 0.58859
 O681 O -0.01284 0.57296 0.44672
 O682 O 0.03720 0.54519 0.42459
 O683 O -0.09482 0.49781 0.45342
 O684 O -0.10591 0.44383 0.48733
 O685 O -0.10401 0.53193 0.50854
 O686 O -0.11237 0.46707 0.53749
 O687 O -0.04945 0.52144 0.41962
 O688 O 0.00896 0.49490 0.40370
 O689 O -0.01551 0.59562 0.50386
 O690 O 0.02308 0.58410 0.55941
 O691 O 0.05961 0.41598 0.48545
 O692 O 0.01912 0.41367 0.43853
 O693 O -0.01461 0.40673 0.57829
 O694 O -0.06153 0.44906 0.59946
 O695 O 0.07499 0.49200 0.58000
 O696 O 0.08477 0.54487 0.54174
 Zr697 Zr 0.05570 0.49780 0.52612
 O698 O 0.02354 0.53735 0.50112
 Zr699 Zr -0.01323 0.46350 0.57280
 O700 O -0.04740 0.50405 0.55224
 Zr701 Zr 0.00531 0.43351 0.49020
 O702 O -0.03107 0.47018 0.46604
 Zr703 Zr -0.01751 0.54979 0.53720
 O704 O 0.01559 0.51178 0.56315
 Zr705 Zr -0.00330 0.51802 0.45433
 O706 O 0.03383 0.48021 0.47585
 Zr707 Zr -0.07064 0.48599 0.50333
 O708 O -0.03805 0.44440 0.52498
 O709 O 0.02893 0.44981 0.53911
 O710 O -0.04328 0.53269 0.48962
 C711 C 0.08981 0.42831 0.49853
 C712 C 0.06149 0.47796 0.60883
 C713 C -0.01013 0.38184 0.55474
 C714 C -0.09823 0.56314 0.52272
 C715 C -0.01564 0.59899 0.46917
 C716 C -0.08266 0.51209 0.42438
 H717 H 0.03858 0.55866 0.49525
 H718 H -0.04173 0.45922 0.44389
 H719 H 0.04433 0.43150 0.55099
 H720 H -0.06580 0.51036 0.57022
 H721 H -0.01580 0.55916 0.60665
 H722 H -0.02618 0.50343 0.62753
 H723 H 0.03221 0.48239 0.40701
 H724 H 0.00601 0.42808 0.42005
 H725 H 0.01271 0.60833 0.56188
 H726 H 0.10835 0.53814 0.55278
 H727 H -0.09548 0.43278 0.46555
 H728 H -0.05083 0.39332 0.47884
 H729 H 0.09652 0.50315 0.46952
 H730 H 0.06017 0.54070 0.43764
 H731 H -0.07485 0.43229 0.58324
 H732 H -0.11969 0.48700 0.55328
 O733 O 0.52530 0.89708 0.03519
 O734 O 0.49497 0.88111 -0.01577
 O735 O 0.60654 0.96990 0.00613
 O736 O 0.60951 1.02256 -0.02878
 O737 O 0.54390 0.98998 0.09369
 O738 O 0.48450 1.01922 0.09985
 O739 O 0.49976 1.04800 -0.09657
 O740 O 0.54962 1.01570 -0.10436
 O741 O 0.41650 0.97707 -0.06565
 O742 O 0.40904 0.93205 -0.02549
 O743 O 0.43343 1.06974 -0.00271
 O744 O 0.47547 1.09097 0.03894
 O745 O 0.48313 1.08506 -0.05104
 O746 O 0.51869 1.10051 0.00806
 O747 O 0.40084 1.01874 -0.01278
 O748 O 0.40236 0.96341 0.02551
 O749 O 0.46065 0.99502 -0.10411
 O750 O 0.51817 0.95887 -0.10816
 O751 O 0.49610 0.92910 0.07772
 O752 O 0.46069 0.97098 0.09888
 O753 O 0.58531 1.01752 0.05793
 O754 O 0.59233 1.05840 0.00654
 O755 O 0.57750 0.91898 -0.01196
 O756 O 0.52959 0.90250 -0.05897
 Zr757 Zr 0.52175 0.93128 -0.01011
 O758 O 0.48255 0.95576 -0.04399
 Zr759 Zr 0.56566 1.00797 0.00451
 O760 O 0.53064 1.03482 -0.03174
 Zr761 Zr 0.49911 0.98308 0.05857
 O762 O 0.46146 1.01191 0.02668
 Zr763 Zr 0.50709 0.99947 -0.06992
 O764 O 0.54721 0.97376 -0.03770
 Zr765 Zr 0.44067 0.97835 -0.01406
 O766 O 0.47649 0.94854 0.01932
 Zr767 Zr 0.48714 1.05390 -0.00234
 O768 O 0.52346 1.02890 0.03466
 O769 O 0.54317 0.96369 0.03100
 O770 O 0.46402 1.02118 -0.04195
 C771 C 0.50913 0.89961 0.06558
 C772 C 0.60629 0.93721 -0.00415
 C773 C 0.57350 1.00748 0.08913
 C774 C 0.48973 1.07830 -0.08472
 C775 C 0.42795 0.98539 -0.09727
 C776 C 0.40359 1.05273 -0.00709
 H777 H 0.47294 0.93833 -0.06195
 H778 H 0.44226 1.02059 0.04267
 H779 H 0.56023 0.95068 0.04718
 H780 H 0.54418 1.05427 -0.04410
 H781 H 0.57001 0.99953 -0.09911
 H782 H 0.60746 1.00762 -0.05084
 H783 H 0.41248 0.94286 0.03933
 H784 H 0.43666 0.97312 0.08711
 H785 H 0.51220 0.96845 -0.13272
 H786 H 0.54666 0.88268 -0.05420
 H787 H 0.46556 1.07689 0.05946
 H788 H 0.50072 1.04040 0.09777
 H789 H 0.47148 0.88324 -0.00360
 H790 H 0.42597 0.91266 -0.03094
 H791 H 0.57889 1.07334 0.02372
 H792 H 0.53386 1.10523 -0.01340
 O793 O 0.56634 0.42272 0.00581
 O794 O 0.53000 0.41273 0.05371
 O795 O 0.49216 0.44313 -0.08355
 O796 O 0.44423 0.48223 -0.09267
 O797 O 0.58388 0.50901 -0.07043
 O798 O 0.60030 0.55750 -0.03165
 O799 O 0.40877 0.54253 0.01923
 O800 O 0.39214 0.49039 -0.00735
 O801 O 0.47845 0.52008 0.10164
 O802 O 0.53590 0.49297 0.10888
 O803 O 0.49403 0.60625 0.03199
 O804 O 0.52159 0.61703 -0.02125
 O805 O 0.43962 0.58788 -0.00829
 O806 O 0.48571 0.59701 -0.05984
 O807 O 0.51773 0.57526 0.07982
 O808 O 0.56870 0.53012 0.08867
 O809 O 0.42877 0.49884 0.07168
 O810 O 0.41480 0.45010 0.02268
 O811 O 0.60259 0.46893 -0.01247
 O812 O 0.61293 0.52831 0.01544
 O813 O 0.53152 0.50015 -0.10221
 O814 O 0.47230 0.52812 -0.10550
 O815 O 0.51067 0.40815 -0.03610
 O816 O 0.47699 0.40466 0.02326
 Zr817 Zr 0.51528 0.44451 0.00804
 O818 O 0.48736 0.47654 0.04480
 Zr819 Zr 0.49168 0.49498 -0.06271
 O820 O 0.46010 0.52731 -0.03004
 Zr821 Zr 0.56718 0.51360 -0.01628
 O822 O 0.53910 0.54950 0.01700
 Zr823 Zr 0.44358 0.49908 0.01669
 O824 O 0.46989 0.46472 -0.01958
 Zr825 Zr 0.51857 0.52122 0.06180
 O826 O 0.54882 0.48558 0.02978
 Zr827 Zr 0.49285 0.56903 -0.01003
 O828 O 0.52434 0.53820 -0.04538
 O829 O 0.53577 0.47189 -0.03654
 O830 O 0.47336 0.54285 0.03618
 C831 C 0.59702 0.43603 -0.00249
 C832 C 0.50086 0.41290 -0.06958
 C833 C 0.56575 0.50449 -0.10013
 C834 C 0.41083 0.57384 0.00495
 C835 C 0.44584 0.50828 0.10076
 C836 C 0.50634 0.60433 0.06456
 H837 H 0.47995 0.46098 0.06533
 H838 H 0.55542 0.56937 0.02446
 H839 H 0.55007 0.45640 -0.05245
 H840 H 0.43945 0.53574 -0.04497
 H841 H 0.39487 0.49417 -0.03382
 H842 H 0.42948 0.46650 -0.07681
 H843 H 0.57967 0.55215 0.07827
 H844 H 0.61284 0.51263 0.03727
 H845 H 0.42237 0.43928 0.04618
 H846 H 0.48631 0.38080 0.01660
 H847 H 0.54739 0.61079 -0.02157
 H848 H 0.58586 0.57210 -0.04896
 H849 H 0.54482 0.42834 0.06981
 H850 H 0.52253 0.46987 0.10941
 H851 H 0.48948 0.54849 -0.10790
 H852 H 0.46155 0.59047 -0.06967
 O853 O -0.09886 0.01757 0.52687
 O854 O -0.10108 -0.04068 0.51732
 O855 O -0.00533 0.02633 0.60142
 O856 O 0.05370 0.02251 0.59893
 O857 O -0.02110 0.10436 0.51124
 O858 O -0.01299 0.10188 0.44874
 O859 O 0.08160 -0.06390 0.50089
 O860 O 0.06245 -0.06556 0.56112
 O861 O -0.00885 -0.08032 0.43479
 O862 O -0.06792 -0.05301 0.42823
 O863 O 0.06468 0.00049 0.41465
 O864 O 0.07131 0.06386 0.43572
 O865 O 0.10055 -0.01373 0.47083
 O866 O 0.09923 0.05240 0.48179
 O867 O 0.01194 -0.02615 0.39705
 O868 O -0.05385 -0.00886 0.40109
 O869 O 0.02868 -0.09643 0.48132
 O870 O 0.00612 -0.09505 0.54571
 O871 O -0.08383 0.06527 0.49095
 O872 O -0.05708 0.07247 0.43324
 O873 O 0.01172 0.08803 0.56116
 O874 O 0.07165 0.05958 0.56204
 O875 O -0.05721 -0.00382 0.58762
 O876 O -0.06222 -0.06353 0.55769
 Zr877 Zr -0.05233 -0.01363 0.53108
 O878 O -0.02412 -0.04822 0.49674
 Zr879 Zr 0.02163 0.03320 0.55225
 O880 O 0.05345 -0.00075 0.52088
 Zr881 Zr -0.02841 0.05727 0.48092
 O882 O 0.00240 0.02583 0.44566
 Zr883 Zr 0.02919 -0.05174 0.51600
 O884 O 0.00032 -0.01942 0.55215
 Zr885 Zr -0.01972 -0.02616 0.44426
 O886 O -0.05214 0.00602 0.47710
 Zr887 Zr 0.05477 0.01909 0.46738
 O888 O 0.02544 0.05501 0.49963
 O889 O -0.03161 0.03857 0.53446
 O890 O 0.03293 -0.03225 0.46308
 C891 C -0.10680 0.04578 0.50832
 C892 C -0.03475 0.01049 0.61040
 C893 C -0.00393 0.11153 0.54091
 C894 C 0.10528 -0.04553 0.48350
 C895 C 0.01170 -0.10269 0.45129
 C896 C 0.04456 -0.01595 0.39131
 H897 H -0.03605 -0.07209 0.49627
 H898 H 0.00281 0.03691 0.42119
 H899 H -0.04608 0.05397 0.55037
 H900 H 0.07773 -0.00236 0.53222
 H901 H 0.04863 -0.06005 0.58319
 H902 H 0.06279 -0.00209 0.59610
 H903 H -0.04144 0.01097 0.38813
 H904 H -0.07278 0.05184 0.42654
 H905 H 0.02252 -0.11574 0.54392
 H906 H -0.08147 -0.06073 0.57588
 H907 H 0.05434 0.06625 0.41487
 H908 H 0.01362 0.10348 0.45056
 H909 H -0.10337 -0.03960 0.49050
 H910 H -0.07333 -0.07139 0.44698
 H911 H 0.07419 0.07846 0.54314
 H912 H 0.11035 0.04230 0.50418
 O913 O 0.73955 0.16899 0.26444
 O914 O 0.79616 0.17103 0.24233
 O915 O 0.74420 0.23203 0.36054
 O916 O 0.75634 0.28801 0.37675
 O917 O 0.65832 0.24163 0.28360
 O918 O 0.65405 0.27993 0.22755
 O919 O 0.83068 0.34873 0.27843
 O920 O 0.83926 0.31291 0.32916
 O921 O 0.83019 0.28504 0.18675
 O922 O 0.80103 0.23088 0.16820
 O923 O 0.74533 0.35740 0.20113
 O924 O 0.69197 0.35861 0.23866
 O925 O 0.78050 0.37422 0.25376
 O926 O 0.71879 0.37236 0.28619
 O927 O 0.77380 0.31618 0.16693
 O928 O 0.74901 0.25611 0.15308
 O929 O 0.85688 0.30241 0.23992
 O930 O 0.86135 0.26241 0.29564
 O931 O 0.69316 0.19566 0.23400
 O932 O 0.66867 0.23558 0.19925
 O933 O 0.68116 0.26740 0.33481
 O934 O 0.71879 0.31988 0.35366
 O935 O 0.77376 0.19006 0.32835
 O936 O 0.82738 0.19367 0.28942
 Zr937 Zr 0.77505 0.21211 0.27500
 O938 O 0.80646 0.24985 0.24602
 Zr939 Zr 0.73677 0.27514 0.32418
 O940 O 0.76853 0.31532 0.29896
 Zr941 Zr 0.69942 0.25045 0.24574
 O942 O 0.72765 0.29051 0.21678
 Zr943 Zr 0.81671 0.29414 0.27951
 O944 O 0.78761 0.25523 0.30982
 Zr945 Zr 0.77759 0.27058 0.20108
 O946 O 0.74801 0.22944 0.22706
 Zr947 Zr 0.74103 0.33305 0.25209
 O948 O 0.70783 0.29528 0.27930
 O949 O 0.72520 0.23052 0.29228
 O950 O 0.78982 0.31407 0.23385
 C951 C 0.71063 0.16795 0.24480
 C952 C 0.76095 0.20223 0.35810
 C953 C 0.65492 0.25397 0.31578
 C954 C 0.81361 0.37535 0.26458
 C955 C 0.85717 0.29707 0.20539
 C956 C 0.76034 0.34740 0.17190
 H957 H 0.82927 0.23875 0.23867
 H958 H 0.71311 0.29836 0.19548
 H959 H 0.71116 0.21164 0.30508
 H960 H 0.77382 0.33508 0.31610
 H961 H 0.83593 0.29342 0.34726
 H962 H 0.78189 0.29507 0.37380
 H963 H 0.73671 0.23294 0.15822
 H964 H 0.68156 0.24512 0.17784
 H965 H 0.88316 0.27802 0.29533
 H966 H 0.82553 0.16921 0.30013
 H967 H 0.68106 0.34558 0.21782
 H968 H 0.64835 0.29718 0.24693
 H969 H 0.78803 0.17602 0.21707
 H970 H 0.81950 0.21838 0.18301
 H971 H 0.69979 0.33134 0.33857
 H972 H 0.73797 0.38105 0.30301
 O973 O 0.76163 0.68231 0.66561
 O974 O 0.81428 0.67163 0.69881
 O975 O 0.68241 0.68345 0.75266
 O976 O 0.66651 0.71880 0.79817
 O977 O 0.68241 0.76793 0.66598
 O978 O 0.72104 0.81891 0.65581
 O979 O 0.77828 0.77686 0.84474
 O980 O 0.75031 0.72259 0.84813
 O981 O 0.85972 0.77038 0.76890
 O982 O 0.86120 0.74667 0.70371
 O983 O 0.78886 0.85458 0.76005
 O984 O 0.73086 0.86514 0.74210
 O985 O 0.75340 0.82651 0.81881
 O986 O 0.69923 0.83982 0.77708
 O987 O 0.83534 0.82841 0.73128
 O988 O 0.84651 0.79333 0.68221
 O989 O 0.83238 0.74455 0.81758
 O990 O 0.79651 0.68928 0.81883
 O991 O 0.73585 0.73146 0.63945
 O992 O 0.76497 0.79095 0.63505
 O993 O 0.65638 0.73967 0.71403
 O994 O 0.65556 0.76863 0.77620
 O995 O 0.72740 0.65706 0.72159
 O996 O 0.78842 0.65242 0.75111
 Zr997 Zr 0.76838 0.69653 0.72046
 O998 O 0.80445 0.72582 0.75370
 Zr999 Zr 0.69743 0.73789 0.75411
 O1000 O 0.73061 0.76799 0.78935
 Zr1001 Zr 0.73747 0.77047 0.68084
 O1002 O 0.77201 0.80273 0.71293
 Zr1003 Zr 0.77827 0.74048 0.80144
 O1004 O 0.74290 0.70798 0.76996
 Zr1005 Zr 0.81858 0.77440 0.72836
 O1006 O 0.78565 0.74316 0.69271
 Zr1007 Zr 0.74790 0.81495 0.76267
 O1008 O 0.71106 0.78666 0.72815
 O1009 O 0.72145 0.72325 0.70613
 O1010 O 0.79534 0.78883 0.77753
 C1011 C 0.74695 0.69890 0.63862
 C1012 C 0.69638 0.65663 0.73669
 C1013 C 0.65537 0.75314 0.68178
 C1014 C 0.76511 0.80846 0.84651
 C1015 C 0.86029 0.75637 0.80105
 C1016 C 0.81974 0.85573 0.74462
 H1017 H 0.82565 0.71078 0.75913
 H1018 H 0.77775 0.82454 0.69860
 H1019 H 0.70518 0.70831 0.69083
 H1020 H 0.71676 0.77284 0.81151
 H1021 H 0.73616 0.70109 0.84076
 H1022 H 0.68232 0.72003 0.81999
 H1023 H 0.82864 0.80578 0.66657
 H1024 H 0.78586 0.77520 0.63127
 H1025 H 0.80674 0.69150 0.84381
 H1026 H 0.78286 0.62999 0.73768
 H1027 H 0.73502 0.86501 0.71560
 H1028 H 0.70479 0.83061 0.67310
 H1029 H 0.82653 0.68980 0.68344
 H1030 H 0.86842 0.72677 0.72009
 H1031 H 0.65075 0.78852 0.75888
 H1032 H 0.68994 0.82717 0.79882
 O1033 O 0.32917 0.15960 0.74562
 O1034 O 0.33365 0.19152 0.68972
 O1035 O 0.32840 0.23592 0.82796
 O1036 O 0.29856 0.28556 0.84209
 O1037 O 0.24973 0.15286 0.82414
 O1038 O 0.19366 0.14567 0.79307
 O1039 O 0.22957 0.33407 0.73642
 O1040 O 0.28595 0.33803 0.75909
 O1041 O 0.22881 0.25937 0.65154
 O1042 O 0.24964 0.20361 0.64183
 O1043 O 0.15119 0.25079 0.72903
 O1044 O 0.14465 0.23114 0.78697
 O1045 O 0.18168 0.30811 0.76475
 O1046 O 0.17267 0.26510 0.81890
 O1047 O 0.17413 0.22263 0.68011
 O1048 O 0.21560 0.16983 0.66917
 O1049 O 0.25724 0.30726 0.67750
 O1050 O 0.31594 0.30966 0.71066
 O1051 O 0.27791 0.13085 0.76372
 O1052 O 0.21387 0.12848 0.74352
 O1053 O 0.26972 0.20280 0.85365
 O1054 O 0.24693 0.26595 0.85711
 O1055 O 0.35416 0.21486 0.77670
 O1056 O 0.35392 0.24438 0.71533
 Zr1057 Zr 0.31186 0.21265 0.73788
 O1058 O 0.27931 0.24505 0.70411
 Zr1059 Zr 0.27409 0.24293 0.81291
 O1060 O 0.24215 0.27852 0.78217
 Zr1061 Zr 0.23953 0.17156 0.77113
 O1062 O 0.20409 0.20393 0.74070
 Zr1063 Zr 0.26607 0.29163 0.73225
 O1064 O 0.30111 0.26050 0.76569
 Zr1065 Zr 0.22959 0.21986 0.69257
 O1066 O 0.26435 0.18489 0.72176
 Zr1067 Zr 0.19379 0.25247 0.76746
 O1068 O 0.22461 0.21715 0.80095
 O1069 O 0.28747 0.19668 0.78584
 O1070 O 0.21654 0.26783 0.71814
 C1071 C 0.31146 0.13135 0.75527
 C1072 C 0.35532 0.22394 0.81032
 C1073 C 0.26085 0.16936 0.85272
 C1074 C 0.19890 0.33569 0.75210
 C1075 C 0.24271 0.29099 0.65011
 C1076 C 0.14789 0.23568 0.69785
 H1077 H 0.29259 0.25081 0.68162
 H1078 H 0.18181 0.18971 0.73629
 H1079 H 0.30312 0.18102 0.80085
 H1080 H 0.23837 0.30012 0.79701
 H1081 H 0.30792 0.33075 0.77272
 H1082 H 0.29447 0.30753 0.82750
 H1083 H 0.19350 0.16095 0.68119
 H1084 H 0.22779 0.12416 0.72125
 H1085 H 0.31234 0.33367 0.69948
 H1086 H 0.37692 0.23136 0.71860
 H1087 H 0.14636 0.20477 0.78526
 H1088 H 0.18391 0.16215 0.81138
 H1089 H 0.31619 0.17336 0.68046
 H1090 H 0.27622 0.20497 0.64375
 H1091 H 0.22616 0.25002 0.86267
 H1092 H 0.18501 0.28723 0.82743
 O1093 O 0.16950 0.73855 0.32548
 O1094 O 0.20464 0.68786 0.33602
 O1095 O 0.24508 0.82446 0.31374
 O1096 O 0.28532 0.84504 0.27465
 O1097 O 0.15547 0.80619 0.23258
 O1098 O 0.14657 0.76744 0.18489
 O1099 O 0.34188 0.73349 0.22289
 O1100 O 0.34580 0.76422 0.27497
 O1101 O 0.27478 0.64764 0.23128
 O1102 O 0.22102 0.63314 0.25542
 O1103 O 0.25914 0.71410 0.14644
 O1104 O 0.23574 0.76841 0.13304
 O1105 O 0.31419 0.75630 0.17237
 O1106 O 0.26644 0.80557 0.15800
 O1107 O 0.23312 0.66639 0.17491
 O1108 O 0.18289 0.65383 0.22050
 O1109 O 0.31969 0.67888 0.25994
 O1110 O 0.32075 0.71972 0.31363
 O1111 O 0.13790 0.75036 0.27330
 O1112 O 0.13632 0.72006 0.21236
 O1113 O 0.19980 0.84194 0.25630
 O1114 O 0.26128 0.84922 0.22445
 O1115 O 0.22377 0.77632 0.34545
 O1116 O 0.25651 0.71814 0.35132
 Zr1117 Zr 0.22239 0.73421 0.30749
 O1118 O 0.25643 0.70102 0.27795
 Zr1119 Zr 0.24520 0.80706 0.25970
 O1120 O 0.28337 0.77728 0.23105
 Zr1121 Zr 0.17719 0.75517 0.23218
 O1122 O 0.21150 0.72602 0.19888
 Zr1123 Zr 0.30049 0.73194 0.26075
 O1124 O 0.26742 0.76533 0.29205
 Zr1125 Zr 0.23143 0.68297 0.22964
 O1126 O 0.19496 0.71095 0.26257
 Zr1127 Zr 0.25807 0.75576 0.18469
 O1128 O 0.21982 0.78749 0.21220
 O1129 O 0.20178 0.77718 0.27798
 O1130 O 0.27730 0.71131 0.21304
 C1131 C 0.14018 0.74522 0.30794
 C1132 C 0.23441 0.80919 0.34305
 C1133 C 0.16737 0.83633 0.24408
 C1134 C 0.34251 0.74626 0.19049
 C1135 C 0.30581 0.64988 0.24683
 C1136 C 0.24546 0.68231 0.14654
 H1137 H 0.26393 0.68082 0.29381
 H1138 H 0.19716 0.71853 0.17730
 H1139 H 0.18583 0.79204 0.29284
 H1140 H 0.30394 0.79328 0.22511
 H1141 H 0.33760 0.78101 0.29376
 H1142 H 0.30777 0.83141 0.27842
 H1143 H 0.17230 0.66249 0.19723
 H1144 H 0.13301 0.70096 0.23090
 H1145 H 0.34522 0.70965 0.31125
 H1146 H 0.24423 0.72312 0.37451
 H1147 H 0.20955 0.76350 0.13457
 H1148 H 0.16247 0.78222 0.16926
 H1149 H 0.18796 0.67466 0.31950
 H1150 H 0.22046 0.63784 0.28184
 H1151 H 0.24197 0.85187 0.20579
 H1152 H 0.28883 0.81638 0.16822
 O1153 O 0.22140 0.65096 0.77242
 O1154 O 0.27587 0.64313 0.74546
 O1155 O 0.23585 0.73451 0.84895
 O1156 O 0.25642 0.79061 0.84971
 O1157 O 0.14715 0.73842 0.77411
 O1158 O 0.14578 0.75854 0.70674
 O1159 O 0.32631 0.82158 0.74577
 O1160 O 0.33569 0.79242 0.79984
 O1161 O 0.31956 0.73639 0.66732
 O1162 O 0.28163 0.68126 0.66355
 O1163 O 0.24818 0.82027 0.66454
 O1164 O 0.18987 0.83171 0.69624
 O1165 O 0.27769 0.84684 0.71763
 O1166 O 0.21451 0.85467 0.74062
 O1167 O 0.26473 0.76734 0.64000
 O1168 O 0.23625 0.71044 0.63952
 O1169 O 0.34701 0.76868 0.71224
 O1170 O 0.35262 0.73709 0.77365
 O1171 O 0.17544 0.67371 0.73821
 O1172 O 0.15089 0.70633 0.69602
 O1173 O 0.17634 0.76873 0.81924
 O1174 O 0.21602 0.81980 0.82189
 O1175 O 0.26049 0.68433 0.82562
 O1176 O 0.31081 0.67144 0.78666
 Zr1177 Zr 0.26025 0.69212 0.76911
 O1178 O 0.29425 0.71911 0.73235
 Zr1179 Zr 0.23045 0.76835 0.80342
 O1180 O 0.26366 0.79850 0.76860
 Zr1181 Zr 0.18699 0.72980 0.73419
 O1182 O 0.21812 0.75878 0.69561
 Zr1183 Zr 0.30911 0.76885 0.75444
 O1184 O 0.27816 0.74039 0.79294
 Zr1185 Zr 0.26566 0.73141 0.68438
 O1186 O 0.23260 0.70060 0.71930
 Zr1187 Zr 0.23641 0.80739 0.71892
 O1188 O 0.20144 0.78033 0.75551
 O1189 O 0.21324 0.71884 0.78324
 O1190 O 0.28279 0.78031 0.70551
 C1191 C 0.19149 0.64753 0.75479
 C1192 C 0.25074 0.70380 0.85225
 C1193 C 0.14759 0.75625 0.80404
 C1194 C 0.31045 0.84766 0.72968
 C1195 C 0.34672 0.75358 0.68091
 C1196 C 0.25888 0.80115 0.63800
 H1197 H 0.31571 0.70453 0.72752
 H1198 H 0.20404 0.76262 0.67290
 H1199 H 0.19809 0.70504 0.80049
 H1200 H 0.27057 0.82110 0.78090
 H1201 H 0.33082 0.77662 0.82103
 H1202 H 0.27925 0.80154 0.84131
 H1203 H 0.21826 0.69345 0.64964
 H1204 H 0.16467 0.70312 0.67347
 H1205 H 0.37530 0.75054 0.76891
 H1206 H 0.30680 0.64973 0.80194
 H1207 H 0.18191 0.81746 0.67495
 H1208 H 0.14246 0.78100 0.72043
 H1209 H 0.26450 0.64209 0.72097
 H1210 H 0.30225 0.67267 0.67842
 H1211 H 0.19792 0.82926 0.80437
 H1212 H 0.23075 0.86288 0.76054
 O1213 O 0.24613 0.18318 0.15315
 O1214 O 0.30441 0.17739 0.18230
 O1215 O 0.17033 0.17652 0.23513
 O1216 O 0.15707 0.20402 0.28724
 O1217 O 0.16850 0.26686 0.15854
 O1218 O 0.20419 0.31979 0.15203
 O1219 O 0.26162 0.26877 0.33822
 O1220 O 0.23891 0.21231 0.33798
 O1221 O 0.34522 0.27119 0.26053
 O1222 O 0.35157 0.25610 0.20049
 O1223 O 0.26849 0.35227 0.25988
 O1224 O 0.20950 0.35984 0.24068
 O1225 O 0.23424 0.31845 0.31520
 O1226 O 0.17992 0.33078 0.27447
 O1227 O 0.31644 0.32972 0.23036
 O1228 O 0.32574 0.29513 0.17279
 O1229 O 0.31969 0.24143 0.30796
 O1230 O 0.28626 0.18419 0.30670
 O1231 O 0.22306 0.23496 0.12977
 O1232 O 0.25017 0.29581 0.13019
 O1233 O 0.14318 0.23485 0.20467
 O1234 O 0.14046 0.25647 0.26913
 O1235 O 0.22025 0.15342 0.20932
 O1236 O 0.28207 0.15159 0.23465
 Zr1237 Zr 0.25753 0.19595 0.20810
 O1238 O 0.29165 0.22499 0.24355
 Zr1239 Zr 0.18431 0.23067 0.24456
 O1240 O 0.21572 0.26032 0.28187
 Zr1241 Zr 0.22305 0.27081 0.17396
 O1242 O 0.25530 0.30291 0.20840
 Zr1243 Zr 0.26512 0.23517 0.29242
 O1244 O 0.23167 0.20274 0.25843
 Zr1245 Zr 0.30304 0.27575 0.22173
 O1246 O 0.27243 0.24504 0.18377
 Zr1247 Zr 0.23010 0.31001 0.25863
 O1248 O 0.19529 0.28184 0.22210
 O1249 O 0.20937 0.22128 0.19595
 O1250 O 0.27911 0.28578 0.27175
 C1251 C 0.23166 0.20177 0.12718
 C1252 C 0.18782 0.15088 0.22053
 C1253 C 0.14199 0.25025 0.17328
 C1254 C 0.24646 0.29940 0.34185
 C1255 C 0.34697 0.25524 0.29158
 C1256 C 0.29958 0.35548 0.24518
 H1257 H 0.31381 0.21101 0.24782
 H1258 H 0.25989 0.32595 0.19574
 H1259 H 0.19333 0.20673 0.18007
 H1260 H 0.20154 0.26284 0.30423
 H1261 H 0.22506 0.19126 0.32892
 H1262 H 0.17027 0.20979 0.31003
 H1263 H 0.31171 0.31624 0.16482
 H1264 H 0.27161 0.28116 0.12524
 H1265 H 0.29737 0.18577 0.33135
 H1266 H 0.27900 0.13017 0.21899
 H1267 H 0.21614 0.36284 0.21489
 H1268 H 0.18773 0.32975 0.17024
 H1269 H 0.31139 0.19572 0.16401
 H1270 H 0.35021 0.22965 0.20209
 H1271 H 0.13504 0.27799 0.25420
 H1272 H 0.17115 0.31591 0.29499
 O1273 O 0.76617 0.67831 0.33048
 O1274 O 0.71071 0.66645 0.30033
 O1275 O 0.84006 0.69781 0.24383
 O1276 O 0.84658 0.73538 0.19698
 O1277 O 0.83447 0.76817 0.33516
 O1278 O 0.79746 0.81808 0.34863
 O1279 O 0.73195 0.78689 0.15995
 O1280 O 0.75884 0.73459 0.15143
 O1281 O 0.65330 0.76776 0.24225
 O1282 O 0.65290 0.74084 0.29918
 O1283 O 0.71854 0.85628 0.25088
 O1284 O 0.77499 0.87170 0.26650
 O1285 O 0.75521 0.83659 0.18767
 O1286 O 0.80862 0.85193 0.23004
 O1287 O 0.67580 0.82266 0.27925
 O1288 O 0.67658 0.77831 0.33171
 O1289 O 0.67834 0.74956 0.18959
 O1290 O 0.71730 0.69650 0.18141
 O1291 O 0.77989 0.72970 0.36103
 O1292 O 0.75389 0.78950 0.36876
 O1293 O 0.86112 0.75542 0.28156
 O1294 O 0.85559 0.78557 0.22038
 O1295 O 0.79717 0.66341 0.27126
 O1296 O 0.73506 0.65454 0.24464
 Zr1297 Zr 0.75311 0.69761 0.27787
 O1298 O 0.71285 0.72607 0.24930
 Zr1299 Zr 0.81815 0.74937 0.24407
 O1300 O 0.78078 0.77825 0.21276
 Zr1301 Zr 0.77953 0.77126 0.32145
 O1302 O 0.74178 0.80303 0.29334
 Zr1303 Zr 0.73426 0.74745 0.20122
 O1304 O 0.77426 0.71625 0.22812
 Zr1305 Zr 0.69705 0.77092 0.27890
 O1306 O 0.73357 0.73960 0.30999
 Zr1307 Zr 0.76212 0.82139 0.24328
 O1308 O 0.80232 0.79411 0.27426
 O1309 O 0.79797 0.72829 0.29206
 O1310 O 0.71584 0.79188 0.22955
 C1311 C 0.77488 0.69549 0.35960
 C1312 C 0.82845 0.66818 0.25734
 C1313 C 0.86205 0.76143 0.31585
 C1314 C 0.74436 0.81924 0.15919
 C1315 C 0.65109 0.75753 0.20911
 C1316 C 0.68825 0.85252 0.26732
 H1317 H 0.69229 0.70973 0.24397
 H1318 H 0.73542 0.82311 0.30933
 H1319 H 0.81575 0.71394 0.30598
 H1320 H 0.79341 0.78572 0.19042
 H1321 H 0.77539 0.71452 0.15668
 H1322 H 0.82891 0.73566 0.17663
 H1323 H 0.68617 0.80146 0.34090
 H1324 H 0.73332 0.77300 0.37326
 H1325 H 0.70363 0.70015 0.15832
 H1326 H 0.74281 0.63174 0.25622
 H1327 H 0.77701 0.86765 0.29307
 H1328 H 0.81245 0.83173 0.33115
 H1329 H 0.69973 0.68119 0.31942
 H1330 H 0.65574 0.71582 0.29116
 H1331 H 0.86028 0.80490 0.23822
 H1332 H 0.81762 0.84283 0.20669
 O1333 O 0.66489 0.24703 0.83729
 O1334 O 0.69293 0.19073 0.84394
 O1335 O 0.74451 0.32541 0.83263
 O1336 O 0.79629 0.33555 0.80348
 O1337 O 0.66388 0.32287 0.74934
 O1338 O 0.65245 0.28720 0.69745
 O1339 O 0.83951 0.23094 0.73794
 O1340 O 0.84449 0.25589 0.79355
 O1341 O 0.76280 0.14840 0.74375
 O1342 O 0.70493 0.14067 0.76252
 O1343 O 0.75689 0.22281 0.65895
 O1344 O 0.73828 0.28008 0.64953
 O1345 O 0.81435 0.25797 0.68818
 O1346 O 0.77307 0.31161 0.67627
 O1347 O 0.72693 0.17567 0.68428
 O1348 O 0.67350 0.16607 0.72574
 O1349 O 0.81150 0.17482 0.77114
 O1350 O 0.81464 0.20943 0.82697
 O1351 O 0.63696 0.26511 0.78481
 O1352 O 0.63303 0.24130 0.72264
 O1353 O 0.71399 0.34926 0.77399
 O1354 O 0.77581 0.35148 0.74970
 O1355 O 0.72450 0.27513 0.86171
 O1356 O 0.74723 0.21284 0.86396
 Zr1357 Zr 0.71769 0.23667 0.82040
 O1358 O 0.74929 0.20215 0.78956
 Zr1359 Zr 0.75180 0.30856 0.77904
 O1360 O 0.78599 0.27714 0.74809
 Zr1361 Zr 0.67816 0.26854 0.74553
 O1362 O 0.70940 0.23640 0.71169
 Zr1363 Zr 0.79718 0.22881 0.77522
 O1364 O 0.76704 0.26269 0.80889
 Zr1365 Zr 0.72402 0.18943 0.73982
 O1366 O 0.68970 0.22018 0.77288
 Zr1367 Zr 0.75896 0.26166 0.70011
 O1368 O 0.72527 0.29630 0.72954
 O1369 O 0.70387 0.28369 0.79344
 O1370 O 0.77302 0.21356 0.72574
 C1371 C 0.63704 0.25748 0.81905
 C1372 C 0.73408 0.30832 0.86107
 C1373 C 0.68148 0.35005 0.76183
 C1374 C 0.84148 0.24567 0.70632
 C1375 C 0.79432 0.14736 0.75879
 C1376 C 0.74075 0.19226 0.65697
 H1377 H 0.75411 0.18042 0.80433
 H1378 H 0.69502 0.23146 0.68940
 H1379 H 0.68896 0.29957 0.80832
 H1380 H 0.80813 0.29137 0.74348
 H1381 H 0.83766 0.26987 0.81512
 H1382 H 0.81834 0.32368 0.79518
 H1383 H 0.66435 0.17875 0.70381
 H1384 H 0.62906 0.21944 0.73755
 H1385 H 0.83902 0.19914 0.82455
 H1386 H 0.73444 0.21729 0.88698
 H1387 H 0.71196 0.27566 0.64968
 H1388 H 0.67012 0.30306 0.68514
 H1389 H 0.67458 0.18188 0.82624
 H1390 H 0.70656 0.14326 0.78924
 H1391 H 0.76015 0.35627 0.72822
 H1392 H 0.79562 0.32011 0.68825
 N1393 N 0.11343 1.02348 1.13364
 N1394 N 0.11646 1.01541 1.10144
 N1395 N 0.59783 0.52055 0.64110
 N1396 N 0.56794 0.50363 0.64270
 N1397 N 0.40519 -0.03329 0.62006
 N1398 N 0.43921 -0.02982 0.61815
 N1399 N -0.10227 0.49672 1.14002
 N1400 N -0.07528 0.51729 1.13463
 N1401 N -0.10277 0.53104 0.36646
 N1402 N -0.10881 0.51719 0.39619
 N1403 N 0.40407 0.99873 -0.15553
 N1404 N 0.40179 0.98317 -0.12600
 N1405 N 0.61704 0.49087 -0.13332
 N1406 N 0.58463 0.50127 -0.13310
 N1407 N 0.09005 -0.03726 0.35341
 N1408 N 0.05927 -0.02290 0.35650
 N1409 N 0.12699 1.12124 1.00791
 N1410 N 0.09501 1.12474 0.99903
 N1411 N 0.62797 0.60226 0.52139
 N1412 N 0.62589 0.56860 0.51635
 N1413 N 0.65542 0.41354 -0.01380
 N1414 N 0.62599 0.41151 0.00106
 N1415 N 0.13994 -0.09576 0.47332
 N1416 N 0.13881 -0.06196 0.47693
 N1417 N 0.36267 -0.11348 0.50726
 N1418 N 0.39220 -0.11704 0.49302
 N1419 N -0.12822 0.39055 1.03540
 N1420 N -0.12540 0.42117 1.02035
 N1421 N -0.15199 0.59060 0.50134
 N1422 N -0.12592 0.58941 0.52249
 N1423 N 0.34292 1.06912 -0.01846
 N1424 N 0.37213 1.07375 -0.00278
 N1425 N -0.00335 1.14168 1.11167
 N1426 N -0.01469 1.11050 1.11356
 N1427 N 0.52767 0.63799 0.59180
 N1428 N 0.49713 0.62230 0.58930
 N1429 N -0.03607 0.63930 0.42483
 N1430 N -0.01923 0.63412 0.45469
 N1431 N 0.47642 1.13631 -0.10511
 N1432 N 0.48599 1.10565 -0.11162
 N1433 N 0.51479 0.35465 -0.08818
 N1434 N 0.50020 0.38357 -0.09406
 N1435 N 0.04521 -0.15373 0.43694
 N1436 N 0.01584 -0.13661 0.43463
 N1437 N 0.48086 -0.14561 0.58345
 N1438 N 0.50120 -0.14552 0.55582
 N1439 N -0.00876 0.36856 1.11186
 N1440 N 0.00693 0.39791 1.11354
 N1441 N 0.77502 0.36780 0.11375
 N1442 N 0.76213 0.37353 0.14370
 N1443 N 0.28509 0.84663 0.60200
 N1444 N 0.26524 0.81859 0.60406
 N1445 N 0.71029 0.67967 0.58992
 N1446 N 0.74062 0.67870 0.60648
 N1447 N 0.22472 0.15030 0.09075
 N1448 N 0.22063 0.18384 0.09462
 N1449 N 0.27268 0.11609 0.88518
 N1450 N 0.26452 0.14916 0.88552
 N1451 N 0.79132 0.64472 0.39592
 N1452 N 0.77782 0.67594 0.39312
 N1453 N 0.20958 0.82511 0.39859
 N1454 N 0.23335 0.83079 0.37468
 N1455 N 0.72351 0.36053 0.89420
 N1456 N 0.73193 0.32757 0.89410
 N1457 N 0.83209 0.42265 0.22728
 N1458 N 0.83360 0.40749 0.25839
 N1459 N 0.32465 0.90049 0.69805
 N1460 N 0.33121 0.87935 0.72444
 N1461 N 0.14218 0.89260 0.25940
 N1462 N 0.14144 0.86420 0.24260
 N1463 N 0.67271 0.40401 0.79017
 N1464 N 0.66348 0.38318 0.76440
 N1465 N 0.67516 0.60539 0.70664
 N1466 N 0.67566 0.62445 0.73515
 N1467 N 0.13819 0.11054 0.22447
 N1468 N 0.17008 0.11750 0.21433
 N1469 N 0.36138 0.09650 0.77297
 N1470 N 0.33025 0.09833 0.75804
 N1471 N 0.85950 0.62479 0.28973
 N1472 N 0.85246 0.63895 0.25894
 N1473 N 0.89283 0.29479 0.15350
 N1474 N 0.88992 0.30414 0.18654
 N1475 N 0.39785 0.78457 0.65946
 N1476 N 0.37860 0.75607 0.65966
 N1477 N 0.39240 0.22635 0.86289
 N1478 N 0.38806 0.21746 0.82979
 N1479 N 0.89660 0.72830 0.35553
 N1480 N 0.89506 0.75536 0.33441
 N1481 N 0.11164 0.76555 0.35958
 N1482 N 0.10872 0.75046 0.32872
 N1483 N 0.60473 0.27670 0.86971
 N1484 N 0.60435 0.26272 0.83820
 N1485 N 0.60775 0.71852 0.65926
 N1486 N 0.62265 0.74934 0.66143
 N1487 N 0.09245 0.21747 0.15183
 N1488 N 0.10959 0.24717 0.15253
 N1489 N -0.12783 1.01348 0.87220
 N1490 N -0.12778 0.99989 0.90287
 N1491 N 0.40253 0.52478 0.36010
 N1492 N 0.42134 0.49697 0.36594
 N1493 N 0.59086 -0.01070 0.32160
 N1494 N 0.56088 -0.00487 0.33402
 N1495 N 0.10607 0.46272 0.86622
 N1496 N 0.08181 0.48648 0.86845
 N1497 N 0.09948 0.51158 0.64714
 N1498 N 0.08049 0.48321 0.64249
 N1499 N 0.61528 1.04323 0.12336
 N1500 N 0.59388 1.01627 0.12119
 N1501 N 0.40435 0.47893 0.13830
 N1502 N 0.42833 0.50333 0.13465
 N1503 N -0.06686 -0.00539 0.66418
 N1504 N -0.04105 0.00875 0.64863
 N1505 N -0.13266 0.88189 1.02576
 N1506 N -0.10091 0.88073 1.01616
 N1507 N 0.34688 0.39502 0.52494
 N1508 N 0.35319 0.41671 0.49885
 N1509 N 0.37300 0.61544 -0.02409
 N1510 N 0.37799 0.59246 0.00109
 N1511 N -0.15887 0.08002 0.49199
 N1512 N -0.14425 0.05414 0.50692
 N1513 N 0.63535 0.09707 0.51865
 N1514 N 0.63237 0.07829 0.48984
 N1515 N 0.15120 0.60222 0.99719
 N1516 N 0.12399 0.60209 0.97759
 N1517 N 0.12775 0.38863 0.46587
 N1518 N 0.12272 0.40968 0.49241
 N1519 N 0.64671 0.89804 -0.03210
 N1520 N 0.64062 0.92086 -0.00749
 N1521 N 0.01845 0.86939 0.88712
 N1522 N 0.00493 0.89951 0.88510
 N1523 N 0.52051 0.35207 0.41107
 N1524 N 0.49281 0.35642 0.43056
 N1525 N -0.02682 0.33285 0.59321
 N1526 N -0.01789 0.34525 0.56349
 N1527 N 0.47406 0.86027 0.10171
 N1528 N 0.50339 0.86682 0.08522
 N1529 N 0.53082 0.64273 0.10963
 N1530 N 0.50821 0.63735 0.08393
 N1531 N 0.00982 0.16022 0.57985
 N1532 N -0.00211 0.14845 0.55075
 N1533 N 0.46652 0.13510 0.38598
 N1534 N 0.49018 0.12859 0.41045
 N1535 N -0.01330 0.64628 0.88836
 N1536 N -0.00333 0.61498 0.88597
 N1537 N 0.28728 0.67405 0.89409
 N1538 N 0.25813 0.69078 0.88787
 N1539 N 0.78823 0.15787 0.39769
 N1540 N 0.76485 0.18206 0.39120
 N1541 N 0.21332 0.33127 0.38453
 N1542 N 0.24067 0.31205 0.37796
 N1543 N 0.73302 0.84186 0.88843
 N1544 N 0.76063 0.82313 0.88193
 N1545 N 0.77937 0.85070 0.11600
 N1546 N 0.74963 0.83508 0.12391
 N1547 N 0.26839 0.33104 0.60818
 N1548 N 0.24382 0.30803 0.61519
 N1549 N 0.70947 0.15788 0.61238
 N1550 N 0.73674 0.17707 0.62156
 N1551 N 0.21735 0.64299 0.10359
 N1552 N 0.24283 0.66471 0.11229
 N1553 N 0.15764 0.60167 0.72502
 N1554 N 0.17675 0.61182 0.75222
 N1555 N 0.67744 0.12882 0.20611
 N1556 N 0.69753 0.13360 0.23412
 N1557 N 0.83007 0.10689 0.79186
 N1558 N 0.81067 0.11319 0.76366
 N1559 N 0.34563 0.61164 0.27834
 N1560 N 0.32477 0.61724 0.25121
 N1561 N 0.33676 0.39738 0.21680
 N1562 N 0.31552 0.39036 0.24287
 N1563 N 0.86006 0.89850 0.71754
 N1564 N 0.83658 0.89019 0.74133
 N1565 N 0.67974 0.91417 0.26436
 N1566 N 0.66763 0.88371 0.27411
 N1567 N 0.16535 0.37838 0.78468
 N1568 N 0.18432 0.37080 0.75716
 N1569 N 0.10928 0.78976 0.84188
 N1570 N 0.11386 0.76264 0.82142
 N1571 N 0.60986 0.27834 0.35235
 N1572 N 0.61921 0.25431 0.33007
 N1573 N 0.60932 0.72761 0.17176
 N1574 N 0.61574 0.75304 0.19384
 N1575 N 0.10344 0.20879 0.65922
 N1576 N 0.11223 0.23176 0.68341
 N1577 N 0.88437 0.27535 0.66922
 N1578 N 0.87664 0.25034 0.69173
 N1579 N 0.38573 0.77767 0.15513
 N1580 N 0.37752 0.75080 0.17504
 N1581 N 0.38813 0.22260 0.32686
 N1582 N 0.38190 0.25053 0.30776
 N1583 N 0.89846 0.72718 0.84262
 N1584 N 0.89434 0.75215 0.81908
   
