data_POSCAR
  _audit_creation_date              2014-09-24
  _audit_creation_method            'ToBaCCo'
  _symmetry_space_group_name_H-M    'P1'
  _symmetry_Int_Tables_number       1
  _symmetry_cell_setting            triclinic
  loop_
  _symmetry_equiv_pos_as_xyz
 x,y,z
_cell_length_a 86.7453
_cell_length_b 87.1749
_cell_length_c 87.2810
_cell_angle_alpha 90.000700
_cell_angle_beta 89.979800
_cell_angle_gamma 89.921300
loop_
  _atom_site_label
  _atom_site_type_symbol
  _atom_site_fract_x
  _atom_site_fract_y
  _atom_site_fract_z
N1 N 0.35769 0.31492 0.32664
 N2 N 0.35752 0.32556 0.31598
 C3 C 0.36971 0.32348 0.30664
 C4 C 0.37802 0.31088 0.31175
 C5 C 0.36998 0.30574 0.32447
 H6 H 0.37256 0.33081 0.29707
 H7 H 0.37285 0.29606 0.33168
 Cu8 Cu 0.34183 0.34156 0.31590
 Cu9 Cu 0.34239 0.31417 0.34298
 Cu10 Cu 0.31446 0.34265 0.34316
 N11 N 0.32602 0.35745 0.31606
 N12 N 0.31542 0.35785 0.32682
 C13 C 0.30638 0.37022 0.32465
 C14 C 0.31156 0.37804 0.31183
 C15 C 0.32404 0.36954 0.30666
 H16 H 0.29673 0.37326 0.33189
 H17 H 0.33135 0.37218 0.29698
 N18 N 0.31541 0.32626 0.35871
 N19 N 0.32599 0.31537 0.35856
 C20 C 0.32383 0.30616 0.37076
 C21 C 0.31133 0.31153 0.37907
 C22 C 0.30628 0.32428 0.37104
 H23 H 0.33107 0.29647 0.37359
 H24 H 0.29665 0.33159 0.37396
 H25 H 0.32498 0.32518 0.33104
 H26 H 0.33771 0.33746 0.34319
 N27 N 0.35735 0.81536 -0.17350
 N28 N 0.35691 0.82565 -0.18449
 C29 C 0.36903 0.82341 -0.19391
 C30 C 0.37764 0.81106 -0.18848
 C31 C 0.36973 0.80628 -0.17548
 H32 H 0.37155 0.83052 -0.20372
 H33 H 0.37266 0.79694 -0.16790
 Cu34 Cu 0.34099 0.84144 -0.18444
 Cu35 Cu 0.34227 0.81474 -0.15694
 Cu36 Cu 0.31448 0.84344 -0.15655
 N37 N 0.32544 0.85761 -0.18434
 N38 N 0.31539 0.85848 -0.17310
 C39 C 0.30656 0.87101 -0.17506
 C40 C 0.31120 0.87850 -0.18834
 C41 C 0.32323 0.86952 -0.19393
 H42 H 0.29733 0.87425 -0.16739
 H43 H 0.33017 0.87168 -0.20398
 N44 N 0.31556 0.82710 -0.14092
 N45 N 0.32606 0.81614 -0.14118
 C46 C 0.32394 0.80689 -0.12902
 C47 C 0.31151 0.81226 -0.12062
 C48 C 0.30648 0.82510 -0.12854
 H49 H 0.33111 0.79712 -0.12633
 H50 H 0.29687 0.83241 -0.12556
 H51 H 0.32445 0.82555 -0.16843
 H52 H 0.33759 0.83797 -0.15697
 N53 N 0.85730 0.31578 -0.17367
 N54 N 0.85704 0.32640 -0.18435
 C55 C 0.86921 0.32435 -0.19374
 C56 C 0.87759 0.31180 -0.18861
 C57 C 0.86962 0.30665 -0.17586
 H58 H 0.87200 0.33169 -0.20332
 H59 H 0.87259 0.29704 -0.16862
 Cu60 Cu 0.84126 0.34231 -0.18422
 Cu61 Cu 0.84216 0.31498 -0.15721
 Cu62 Cu 0.81425 0.34353 -0.15674
 N63 N 0.82548 0.35821 -0.18409
 N64 N 0.81512 0.35871 -0.17312
 C65 C 0.80610 0.37111 -0.17512
 C66 C 0.81098 0.37891 -0.18814
 C67 C 0.82333 0.37024 -0.19354
 H68 H 0.79671 0.37412 -0.16758
 H69 H 0.83049 0.37265 -0.20336
 N70 N 0.81534 0.32711 -0.14124
 N71 N 0.82589 0.31620 -0.14151
 C72 C 0.82380 0.30695 -0.12935
 C73 C 0.81137 0.31229 -0.12095
 C74 C 0.80628 0.32509 -0.12887
 H75 H 0.83103 0.29722 -0.12664
 H76 H 0.79666 0.33238 -0.12586
 H77 H 0.82458 0.32599 -0.16887
 H78 H 0.83744 0.33822 -0.15687
 N79 N 0.85733 0.81556 0.32693
 N80 N 0.85701 0.82616 0.31624
 C81 C 0.86919 0.82417 0.30686
 C82 C 0.87762 0.81164 0.31196
 C83 C 0.86969 0.80648 0.32473
 H84 H 0.87190 0.83148 0.29721
 H85 H 0.87262 0.79680 0.33191
 Cu86 Cu 0.84099 0.84185 0.31587
 Cu87 Cu 0.84207 0.81469 0.34327
 Cu88 Cu 0.81406 0.84306 0.34364
 N89 N 0.82529 0.85785 0.31643
 N90 N 0.81490 0.85831 0.32736
 C91 C 0.80583 0.87067 0.32533
 C92 C 0.81074 0.87851 0.31233
 C93 C 0.82316 0.86991 0.30700
 H94 H 0.79633 0.87358 0.33279
 H95 H 0.83032 0.87232 0.29717
 N96 N 0.81512 0.82664 0.35914
 N97 N 0.82572 0.81578 0.35890
 C98 C 0.82367 0.80654 0.37109
 C99 C 0.81119 0.81183 0.37948
 C100 C 0.80606 0.82460 0.37152
 H101 H 0.83097 0.79688 0.37385
 H102 H 0.79643 0.83188 0.37452
 H103 H 0.82440 0.82548 0.33146
 H104 H 0.83729 0.83791 0.34327
 N105 N 0.64196 0.68470 0.32732
 N106 N 0.64224 0.67411 0.31659
 C107 C 0.63005 0.67612 0.30725
 C108 C 0.62162 0.68861 0.31243
 C109 C 0.62958 0.69376 0.32519
 H110 H 0.62734 0.66886 0.29759
 H111 H 0.62663 0.70342 0.33238
 Cu112 Cu 0.65822 0.65845 0.31637
 Cu113 Cu 0.65740 0.68570 0.34352
 Cu114 Cu 0.68620 0.65803 0.34288
 N115 N 0.67426 0.64282 0.31614
 N116 N 0.68526 0.64285 0.32649
 C117 C 0.69457 0.63072 0.32411
 C118 C 0.68910 0.62255 0.31163
 C119 C 0.67618 0.63062 0.30685
 H120 H 0.70435 0.62787 0.33123
 H121 H 0.66871 0.62778 0.29737
 N122 N 0.68508 0.67430 0.35854
 N123 N 0.67405 0.68475 0.35887
 C124 C 0.67607 0.69375 0.37125
 C125 C 0.68899 0.68875 0.37913
 C126 C 0.69441 0.67642 0.37068
 H127 H 0.66867 0.70324 0.37431
 H128 H 0.70421 0.66925 0.37338
 H129 H 0.67486 0.67532 0.33122
 H130 H 0.66283 0.66262 0.34358
 N131 N 0.64180 0.18362 -0.17330
 N132 N 0.64164 0.17257 -0.18354
 C133 C 0.62928 0.17443 -0.19271
 C134 C 0.62126 0.18736 -0.18796
 C135 C 0.62960 0.19287 -0.17560
 H136 H 0.62643 0.16705 -0.20225
 H137 H 0.62694 0.20278 -0.16865
 Cu138 Cu 0.65777 0.15701 -0.18386
 Cu139 Cu 0.65755 0.18507 -0.15748
 Cu140 Cu 0.68649 0.15760 -0.15800
 N141 N 0.67378 0.14133 -0.18374
 N142 N 0.68528 0.14200 -0.17398
 C143 C 0.69483 0.13009 -0.17646
 C144 C 0.68898 0.12126 -0.18837
 C145 C 0.67554 0.12884 -0.19267
 H146 H 0.70505 0.12788 -0.16974
 H147 H 0.66768 0.12567 -0.20173
 N148 N 0.68555 0.17423 -0.14268
 N149 N 0.67445 0.18459 -0.14240
 C150 C 0.67646 0.19375 -0.13014
 C151 C 0.68944 0.18894 -0.12224
 C152 C 0.69492 0.17656 -0.13059
 H153 H 0.66894 0.20315 -0.12710
 H154 H 0.70474 0.16944 -0.12780
 H155 H 0.67474 0.17441 -0.16992
 H156 H 0.66310 0.16200 -0.15690
 N157 N 0.14287 0.68480 -0.17286
 N158 N 0.14288 0.67409 -0.18345
 C159 C 0.13064 0.67619 -0.19271
 C160 C 0.12248 0.68888 -0.18761
 C161 C 0.13064 0.69405 -0.17499
 H162 H 0.12770 0.66883 -0.20223
 H163 H 0.12790 0.70381 -0.16785
 Cu164 Cu 0.15853 0.65811 -0.18356
 Cu165 Cu 0.15832 0.68561 -0.15669
 Cu166 Cu 0.18643 0.65726 -0.15692
 N167 N 0.17430 0.64223 -0.18368
 N168 N 0.18523 0.64207 -0.17326
 C169 C 0.19439 0.62984 -0.17563
 C170 C 0.18891 0.62182 -0.18820
 C171 C 0.17613 0.63007 -0.19303
 H172 H 0.20412 0.62686 -0.16850
 H173 H 0.16872 0.62741 -0.20261
 N174 N 0.18558 0.67363 -0.14136
 N175 N 0.17491 0.68443 -0.14133
 C176 C 0.17710 0.69359 -0.12911
 C177 C 0.18974 0.68831 -0.12098
 C178 C 0.19483 0.67564 -0.12912
 H179 H 0.16980 0.70319 -0.12617
 H180 H 0.20454 0.66838 -0.12633
 H181 H 0.17560 0.67465 -0.16883
 H182 H 0.16320 0.66238 -0.15638
 N183 N 0.14193 0.18471 0.32686
 N184 N 0.14232 0.17414 0.31613
 C185 C 0.13016 0.17610 0.30674
 C186 C 0.12165 0.18856 0.31188
 C187 C 0.12953 0.19374 0.32468
 H188 H 0.12751 0.16883 0.29707
 H189 H 0.12650 0.20336 0.33188
 Cu190 Cu 0.15832 0.15849 0.31608
 Cu191 Cu 0.15721 0.18572 0.34321
 Cu192 Cu 0.18586 0.15787 0.34303
 N193 N 0.17433 0.14284 0.31603
 N194 N 0.18505 0.14266 0.32667
 C195 C 0.19428 0.13044 0.32446
 C196 C 0.18908 0.12246 0.31174
 C197 C 0.17641 0.13073 0.30667
 H198 H 0.20402 0.12757 0.33163
 H199 H 0.16903 0.12793 0.29711
 N200 N 0.18462 0.17420 0.35861
 N201 N 0.17368 0.18473 0.35873
 C202 C 0.17564 0.19382 0.37106
 C203 C 0.18843 0.18877 0.37912
 C204 C 0.19384 0.17633 0.37083
 H205 H 0.16830 0.20340 0.37397
 H206 H 0.20356 0.16912 0.37368
 H207 H 0.17483 0.17524 0.33119
 H208 H 0.16251 0.16261 0.34336
 N209 N 0.64231 0.31554 0.67357
 N210 N 0.64245 0.32614 0.68428
 C211 C 0.63021 0.32408 0.69356
 C212 C 0.62189 0.31155 0.68834
 C213 C 0.62998 0.30642 0.67564
 H214 H 0.62736 0.33137 0.70317
 H215 H 0.62714 0.29677 0.66841
 Cu216 Cu 0.65831 0.34190 0.68443
 Cu217 Cu 0.65776 0.31465 0.65735
 Cu218 Cu 0.68596 0.34287 0.65761
 N219 N 0.67401 0.35785 0.68455
 N220 N 0.68484 0.35803 0.67403
 C221 C 0.69401 0.37024 0.67634
 C222 C 0.68864 0.37826 0.68898
 C223 C 0.67590 0.37001 0.69391
 H224 H 0.70366 0.37321 0.66911
 H225 H 0.66858 0.37267 0.70357
 N226 N 0.68505 0.32652 0.64199
 N227 N 0.67436 0.31577 0.64194
 C228 C 0.67657 0.30661 0.62971
 C229 C 0.68922 0.31185 0.62158
 C230 C 0.69432 0.32449 0.62976
 H231 H 0.66927 0.29703 0.62675
 H232 H 0.70405 0.33170 0.62700
 H233 H 0.67519 0.32538 0.66937
 H234 H 0.66273 0.33783 0.65717
 N235 N 0.64295 0.81554 1.17388
 N236 N 0.64310 0.82628 1.18442
 C237 C 0.63081 0.82441 1.19369
 C238 C 0.62253 0.81176 1.18869
 C239 C 0.63064 0.80644 1.17609
 H240 H 0.62812 0.83167 1.20336
 H241 H 0.62765 0.79686 1.16883
 Cu242 Cu 0.65914 0.84189 1.18483
 Cu243 Cu 0.65823 0.81449 1.15761
 Cu244 Cu 0.68619 0.84275 1.15706
 N245 N 0.67473 0.85792 1.18398
 N246 N 0.68527 0.85815 1.17318
 C247 C 0.69431 0.87052 1.17512
 C248 C 0.68917 0.87858 1.18783
 C249 C 0.67670 0.87018 1.19316
 H250 H 0.70391 0.87341 1.16779
 H251 H 0.66944 0.87288 1.20285
 N252 N 0.68520 0.82621 1.14172
 N253 N 0.67460 0.81538 1.14201
 C254 C 0.67663 0.80609 1.12984
 C255 C 0.68908 0.81134 1.12141
 C256 C 0.69423 0.82411 1.12933
 H257 H 0.66932 0.79645 1.12710
 H258 H 0.70382 0.83139 1.12627
 H259 H 0.67579 0.82541 1.16938
 H260 H 0.66290 0.83778 1.15746
 N261 N 0.14213 0.31552 1.17343
 N262 N 0.14192 0.32647 1.18377
 C263 C 0.12950 0.32458 1.19286
 C264 C 0.12151 0.31173 1.18796
 C265 C 0.12993 0.30628 1.17560
 H266 H 0.12655 0.33195 1.20238
 H267 H 0.12725 0.29647 1.16852
 Cu268 Cu 0.15780 0.34220 1.18422
 Cu269 Cu 0.15777 0.31441 1.15747
 Cu270 Cu 0.18568 0.34278 1.15738
 N271 N 0.17343 0.35818 1.18384
 N272 N 0.18434 0.35825 1.17341
 C273 C 0.19346 0.37052 1.17563
 C274 C 0.18798 0.37867 1.18814
 C275 C 0.17523 0.37044 1.19306
 H276 H 0.20323 0.37335 1.16849
 H277 H 0.16785 0.37313 1.20266
 N278 N 0.18505 0.32614 1.14209
 N279 N 0.17447 0.31529 1.14220
 C280 C 0.17674 0.30601 1.13008
 C281 C 0.18931 0.31128 1.12185
 C282 C 0.19430 0.32406 1.12987
 H283 H 0.16947 0.29637 1.12720
 H284 H 0.20391 0.33138 1.12696
 H285 H 0.17497 0.32553 1.16958
 H286 H 0.16245 0.33767 1.15706
 N287 N 0.14291 0.81539 0.67311
 N288 N 0.14310 0.82610 0.68370
 C289 C 0.13096 0.82408 0.69311
 C290 C 0.12267 0.81145 0.68812
 C291 C 0.13065 0.80623 0.67539
 H292 H 0.12818 0.83145 0.70268
 H293 H 0.12777 0.79650 0.66827
 Cu294 Cu 0.15887 0.84196 0.68361
 Cu295 Cu 0.15818 0.81447 0.65674
 Cu296 Cu 0.18636 0.84271 0.65657
 N297 N 0.17469 0.85778 0.68352
 N298 N 0.18543 0.85794 0.67291
 C299 C 0.19460 0.87018 0.67510
 C300 C 0.18932 0.87823 0.68776
 C301 C 0.17665 0.86995 0.69282
 H302 H 0.20433 0.87301 0.66792
 H303 H 0.16923 0.87273 0.70238
 N304 N 0.18527 0.82632 0.64103
 N305 N 0.17460 0.81554 0.64115
 C306 C 0.17666 0.80635 0.62892
 C307 C 0.18920 0.81161 0.62063
 C308 C 0.19437 0.82428 0.62868
 H309 H 0.16935 0.79675 0.62607
 H310 H 0.20405 0.83150 0.62577
 H311 H 0.17567 0.82533 0.66861
 H312 H 0.16312 0.83766 0.65636
 N313 N 0.35777 0.68427 0.67334
 N314 N 0.35761 0.67349 0.68386
 C315 C 0.36984 0.67540 0.69320
 C316 C 0.37807 0.68811 0.68829
 C317 C 0.37001 0.69342 0.67565
 H318 H 0.37249 0.66816 0.70290
 H319 H 0.37295 0.70308 0.66847
 Cu320 Cu 0.34154 0.65792 0.68420
 Cu321 Cu 0.34245 0.68540 0.65711
 Cu322 Cu 0.31419 0.65738 0.65677
 N323 N 0.32581 0.64203 0.68351
 N324 N 0.31516 0.64188 0.67281
 C325 C 0.30604 0.62957 0.67487
 C326 C 0.31123 0.62152 0.68755
 C327 C 0.32381 0.62981 0.69274
 H328 H 0.29631 0.62673 0.66767
 H329 H 0.33112 0.62703 0.70237
 N330 N 0.31519 0.67400 0.64148
 N331 N 0.32600 0.68462 0.64157
 C332 C 0.32401 0.69387 0.62936
 C333 C 0.31133 0.68884 0.62115
 C334 C 0.30602 0.67623 0.62924
 H335 H 0.33131 0.70351 0.62660
 H336 H 0.29642 0.66895 0.62620
 H337 H 0.32491 0.67465 0.66899
 H338 H 0.33753 0.66220 0.65687
 N339 N 0.35795 0.18459 1.17331
 N340 N 0.35779 0.17388 1.18390
 C341 C 0.36999 0.17587 1.19325
 C342 C 0.37828 0.18849 1.18820
 C343 C 0.37023 0.19373 1.17553
 H344 H 0.37282 0.16849 1.20279
 H345 H 0.37309 0.20344 1.16839
 Cu346 Cu 0.34199 0.15804 1.18384
 Cu347 Cu 0.34264 0.18556 1.15700
 Cu348 Cu 0.31441 0.15740 1.15689
 N349 N 0.32614 0.14226 1.18378
 N350 N 0.31536 0.14216 1.17320
 C351 C 0.30618 0.12994 1.17537
 C352 C 0.31146 0.12182 1.18798
 C353 C 0.32416 0.13005 1.19304
 H354 H 0.29643 0.12716 1.16820
 H355 H 0.33160 0.12721 1.20256
 N356 N 0.31549 0.17380 1.14137
 N357 N 0.32619 0.18454 1.14146
 C358 C 0.32413 0.19374 1.12925
 C359 C 0.31155 0.18853 1.12099
 C360 C 0.30636 0.17587 1.12905
 H361 H 0.33147 0.20331 1.12638
 H362 H 0.29665 0.16868 1.12616
 H363 H 0.32517 0.17473 1.16893
 H364 H 0.33766 0.16239 1.15661
 N365 N 0.85743 0.68462 1.17383
 N366 N 0.85752 0.67365 1.18416
 C367 C 0.86974 0.67562 1.19348
 C368 C 0.87775 0.68854 1.18874
 C369 C 0.86953 0.69393 1.17624
 H370 H 0.87260 0.66822 1.20300
 H371 H 0.87231 0.70371 1.16915
 Cu372 Cu 0.84182 0.65771 1.18392
 Cu373 Cu 0.84216 0.68566 1.15749
 Cu374 Cu 0.81423 0.65724 1.15695
 N375 N 0.82601 0.64190 1.18370
 N376 N 0.81523 0.64185 1.17312
 C377 C 0.80605 0.62961 1.17523
 C378 C 0.81134 0.62145 1.18781
 C379 C 0.82403 0.62966 1.19291
 H380 H 0.79627 0.62687 1.16808
 H381 H 0.83144 0.62680 1.20244
 N382 N 0.81521 0.67381 1.14161
 N383 N 0.82578 0.68467 1.14187
 C384 C 0.82371 0.69393 1.12969
 C385 C 0.81128 0.68862 1.12128
 C386 C 0.80617 0.67585 1.12923
 H387 H 0.83098 0.70360 1.12693
 H388 H 0.79659 0.66855 1.12620
 H389 H 0.82483 0.67446 1.16927
 H390 H 0.83744 0.66245 1.15675
 N391 N 0.85753 0.18425 0.67374
 N392 N 0.85768 0.17322 0.68400
 C393 C 0.86992 0.17517 0.69331
 C394 C 0.87788 0.18814 0.68862
 C395 C 0.86961 0.19359 0.67618
 H396 H 0.87283 0.16772 0.70277
 H397 H 0.87233 0.20343 0.66915
 Cu398 Cu 0.84202 0.15722 0.68374
 Cu399 Cu 0.84220 0.18534 0.65747
 Cu400 Cu 0.81424 0.15697 0.65690
 N401 N 0.82612 0.14149 0.68352
 N402 N 0.81528 0.14151 0.67301
 C403 C 0.80605 0.12931 0.67516
 C404 C 0.81137 0.12111 0.68769
 C405 C 0.82414 0.12925 0.69272
 H406 H 0.79621 0.12664 0.66806
 H407 H 0.83160 0.12634 0.70220
 N408 N 0.81519 0.17358 0.64161
 N409 N 0.82577 0.18443 0.64190
 C410 C 0.82368 0.19376 0.62978
 C411 C 0.81121 0.18852 0.62137
 C412 C 0.80611 0.17571 0.62927
 H413 H 0.83096 0.20342 0.62706
 H414 H 0.79651 0.16844 0.62622
 H415 H 0.82493 0.17407 0.66930
 H416 H 0.83746 0.16212 0.65663
 N417 N 0.31548 0.35870 0.67330
 N418 N 0.32594 0.35829 0.68418
 C419 C 0.32400 0.37052 0.69341
 C420 C 0.31167 0.37909 0.68802
 C421 C 0.30655 0.37118 0.67523
 H422 H 0.33120 0.37312 0.70317
 H423 H 0.29700 0.37422 0.66789
 Cu424 Cu 0.34140 0.34211 0.68508
 Cu425 Cu 0.31448 0.34331 0.65721
 Cu426 Cu 0.34221 0.31473 0.65785
 N427 N 0.35735 0.32638 0.68468
 N428 N 0.35746 0.31564 0.67413
 C429 C 0.36974 0.30648 0.67632
 C430 C 0.37787 0.31174 0.68892
 C431 C 0.36964 0.32442 0.69394
 H432 H 0.37268 0.29689 0.66904
 H433 H 0.37237 0.33168 0.70360
 N434 N 0.32588 0.31577 0.64226
 N435 N 0.31539 0.32673 0.64193
 C436 C 0.30630 0.32465 0.62959
 C437 C 0.31133 0.31178 0.62175
 C438 C 0.32374 0.30643 0.63018
 H439 H 0.29674 0.33198 0.62653
 H440 H 0.33093 0.29666 0.62751
 H441 H 0.32467 0.32585 0.66955
 H442 H 0.33772 0.33809 0.65768
 N443 N 0.31570 0.85917 0.17342
 N444 N 0.32625 0.85881 0.18421
 C445 C 0.32432 0.87100 0.19349
 C446 C 0.31190 0.87950 0.18822
 C447 C 0.30671 0.87160 0.17545
 H448 H 0.33160 0.87365 0.20318
 H449 H 0.29708 0.87461 0.16819
 Cu450 Cu 0.34180 0.84274 0.18452
 Cu451 Cu 0.31462 0.84377 0.15722
 Cu452 Cu 0.34241 0.81505 0.15795
 N453 N 0.35759 0.82687 0.18479
 N454 N 0.35763 0.81600 0.17436
 C455 C 0.36985 0.80678 0.17666
 C456 C 0.37802 0.81216 0.18919
 C457 C 0.36985 0.82495 0.19407
 H458 H 0.37276 0.79712 0.16947
 H459 H 0.37267 0.83233 0.20361
 N460 N 0.32609 0.81617 0.14230
 N461 N 0.31559 0.82713 0.14192
 C462 C 0.30652 0.82502 0.12957
 C463 C 0.31155 0.81211 0.12177
 C464 C 0.32396 0.80680 0.13023
 H465 H 0.29695 0.83233 0.12648
 H466 H 0.33116 0.79702 0.12760
 H467 H 0.32489 0.82631 0.16946
 H468 H 0.33778 0.83832 0.15727
 N469 N 0.81539 0.35892 0.17315
 N470 N 0.82588 0.35848 0.18401
 C471 C 0.82392 0.37063 0.19334
 C472 C 0.81155 0.37920 0.18802
 C473 C 0.80642 0.37136 0.17519
 H474 H 0.83114 0.37322 0.20308
 H475 H 0.79686 0.37444 0.16787
 Cu476 Cu 0.84136 0.34233 0.18431
 Cu477 Cu 0.81436 0.34357 0.15689
 Cu478 Cu 0.84211 0.31480 0.15758
 N479 N 0.85718 0.32649 0.18455
 N480 N 0.85728 0.31567 0.17406
 C481 C 0.86950 0.30646 0.17637
 C482 C 0.87762 0.31177 0.18897
 C483 C 0.86941 0.32452 0.19387
 H484 H 0.87246 0.29684 0.16913
 H485 H 0.87217 0.33186 0.20347
 N486 N 0.82582 0.31599 0.14185
 N487 N 0.81534 0.32698 0.14150
 C488 C 0.80630 0.32495 0.12912
 C489 C 0.81131 0.31206 0.12126
 C490 C 0.82369 0.30668 0.12973
 H491 H 0.79675 0.33230 0.12606
 H492 H 0.83085 0.29689 0.12707
 H493 H 0.82455 0.32599 0.16903
 H494 H 0.83751 0.33805 0.15700
 N495 N 0.81601 0.85842 0.67394
 N496 N 0.82695 0.85851 0.68435
 C497 C 0.82499 0.87080 0.69353
 C498 C 0.81210 0.87884 0.68861
 C499 C 0.80672 0.87059 0.67615
 H500 H 0.83237 0.87366 0.70308
 H501 H 0.79694 0.87336 0.66899
 Cu502 Cu 0.84282 0.84270 0.68437
 Cu503 Cu 0.81490 0.84297 0.65782
 Cu504 Cu 0.84331 0.81492 0.65779
 N505 N 0.85876 0.82697 0.68437
 N506 N 0.85876 0.81609 0.67396
 C507 C 0.87101 0.80690 0.67619
 C508 C 0.87924 0.81230 0.68867
 C509 C 0.87109 0.82509 0.69358
 H510 H 0.87386 0.79718 0.66904
 H511 H 0.87391 0.83244 0.70314
 N512 N 0.82669 0.81577 0.64240
 N513 N 0.81585 0.82641 0.64247
 C514 C 0.80654 0.82421 0.63033
 C515 C 0.81177 0.81162 0.62216
 C516 C 0.82456 0.80656 0.63019
 H517 H 0.79688 0.83150 0.62744
 H518 H 0.83183 0.79690 0.62733
 H519 H 0.82597 0.82575 0.66980
 H520 H 0.83820 0.83803 0.65724
 N521 N 0.68425 0.64157 0.67419
 N522 N 0.67349 0.64172 0.68478
 C523 C 0.67537 0.62943 0.69396
 C524 C 0.68803 0.62114 0.68886
 C525 C 0.69336 0.62925 0.67629
 H526 H 0.66814 0.62677 0.70369
 H527 H 0.70299 0.62630 0.66900
 Cu528 Cu 0.65791 0.65783 0.68543
 Cu529 Cu 0.68542 0.65699 0.65811
 Cu530 Cu 0.65751 0.68539 0.65835
 N531 N 0.64196 0.67357 0.68491
 N532 N 0.64201 0.68438 0.67444
 C533 C 0.62974 0.69359 0.67657
 C534 C 0.62144 0.68826 0.68905
 C535 C 0.62959 0.67551 0.69405
 H536 H 0.62691 0.70325 0.66935
 H537 H 0.62674 0.66823 0.70366
 N538 N 0.67408 0.68443 0.64296
 N539 N 0.68466 0.67356 0.64279
 C540 C 0.69387 0.67565 0.63054
 C541 C 0.68886 0.68847 0.62259
 C542 C 0.67630 0.69375 0.63086
 H543 H 0.70350 0.66835 0.62759
 H544 H 0.66904 0.70343 0.62806
 H545 H 0.67484 0.67433 0.67034
 H546 H 0.66213 0.66208 0.65814
 N547 N 0.68434 0.14041 0.17247
 N548 N 0.67419 0.14107 0.18363
 C549 C 0.67659 0.12924 0.19325
 C550 C 0.68889 0.12064 0.18783
 C551 C 0.69352 0.12814 0.17460
 H552 H 0.66967 0.12688 0.20327
 H553 H 0.70287 0.12496 0.16705
 Cu554 Cu 0.65850 0.15708 0.18420
 Cu555 Cu 0.68421 0.15499 0.15557
 Cu556 Cu 0.65831 0.18517 0.15777
 N557 N 0.64259 0.17285 0.18406
 N558 N 0.64285 0.18399 0.17392
 C559 C 0.63069 0.19327 0.17627
 C560 C 0.62225 0.18769 0.18854
 C561 C 0.63020 0.17469 0.19320
 H562 H 0.62804 0.20319 0.16932
 H563 H 0.62721 0.16716 0.20257
 N564 N 0.67469 0.18396 0.14214
 N565 N 0.68444 0.17237 0.14114
 C566 C 0.69359 0.17451 0.12885
 C567 C 0.68933 0.18805 0.12167
 C568 C 0.67734 0.19373 0.13050
 H569 H 0.70262 0.16672 0.12534
 H570 H 0.67068 0.20398 0.12835
 H571 H 0.67559 0.17273 0.16861
 H572 H 0.66124 0.16196 0.15683
 N573 N 0.18449 0.64166 0.17413
 N574 N 0.17356 0.64180 0.18456
 C575 C 0.17542 0.62962 0.19389
 C576 C 0.18822 0.62139 0.18906
 C577 C 0.19368 0.62945 0.17649
 H578 H 0.16800 0.62694 0.20347
 H579 H 0.20342 0.62650 0.16935
 Cu580 Cu 0.15774 0.65766 0.18441
 Cu581 Cu 0.18569 0.65690 0.15781
 Cu582 Cu 0.15752 0.68521 0.15757
 N583 N 0.14201 0.67361 0.18429
 N584 N 0.14198 0.68432 0.17369
 C585 C 0.12973 0.69357 0.17584
 C586 C 0.12159 0.68841 0.18849
 C587 C 0.12978 0.67572 0.19357
 H588 H 0.12698 0.70334 0.16872
 H589 H 0.12687 0.66837 0.20311
 N590 N 0.17418 0.68410 0.14224
 N591 N 0.18486 0.67331 0.14227
 C592 C 0.19416 0.67536 0.13008
 C593 C 0.18911 0.68806 0.12196
 C594 C 0.17643 0.69330 0.13006
 H595 H 0.20389 0.66812 0.12730
 H596 H 0.16914 0.70291 0.12712
 H597 H 0.17480 0.67428 0.16972
 H598 H 0.16245 0.66201 0.15724
 N599 N 0.18444 0.14136 0.67378
 N600 N 0.17335 0.14112 0.68403
 C601 C 0.17526 0.12877 0.69313
 C602 C 0.18826 0.12085 0.68834
 C603 C 0.19379 0.12924 0.67603
 H604 H 0.16777 0.12579 0.70257
 H605 H 0.20369 0.12658 0.66899
 Cu606 Cu 0.15733 0.15678 0.68420
 Cu607 Cu 0.18558 0.15690 0.65778
 Cu608 Cu 0.15709 0.18478 0.65771
 N609 N 0.14146 0.17260 0.68409
 N610 N 0.14154 0.18356 0.67375
 C611 C 0.12934 0.19280 0.67603
 C612 C 0.12105 0.18737 0.68846
 C613 C 0.12912 0.17450 0.69329
 H614 H 0.12658 0.20260 0.66896
 H615 H 0.12626 0.16712 0.70282
 N616 N 0.17378 0.18409 0.64242
 N617 N 0.18469 0.17354 0.64250
 C618 C 0.19402 0.17581 0.63038
 C619 C 0.18869 0.18836 0.62219
 C620 C 0.17586 0.19332 0.63022
 H621 H 0.20373 0.16859 0.62748
 H622 H 0.16851 0.20292 0.62735
 H623 H 0.17430 0.17389 0.66995
 H624 H 0.16224 0.16162 0.65715
 N625 N 0.31611 0.64119 0.32588
 N626 N 0.32694 0.64125 0.31535
 C627 C 0.32506 0.62896 0.30617
 C628 C 0.31233 0.62077 0.31122
 C629 C 0.30697 0.62894 0.32375
 H630 H 0.33233 0.62623 0.29649
 H631 H 0.29728 0.62608 0.33098
 Cu632 Cu 0.34251 0.65731 0.31477
 Cu633 Cu 0.31483 0.65665 0.34190
 Cu634 Cu 0.34272 0.68498 0.34170
 N635 N 0.35842 0.67305 0.31524
 N636 N 0.35827 0.68390 0.32568
 C637 C 0.37046 0.69316 0.32355
 C638 C 0.37880 0.68786 0.31109
 C639 C 0.37079 0.67504 0.30611
 H640 H 0.37316 0.70288 0.33073
 H641 H 0.37370 0.66776 0.29651
 N642 N 0.32610 0.68411 0.35703
 N643 N 0.31552 0.67327 0.35719
 C644 C 0.30629 0.67539 0.36943
 C645 C 0.31131 0.68820 0.37739
 C646 C 0.32389 0.69342 0.36913
 H647 H 0.29669 0.66809 0.37239
 H648 H 0.33117 0.70305 0.37196
 H649 H 0.32545 0.67390 0.32965
 H650 H 0.33808 0.66170 0.34201
 N651 N 0.31520 0.14158 0.82638
 N652 N 0.32580 0.14180 0.81561
 C653 C 0.32377 0.12963 0.80633
 C654 C 0.31125 0.12127 0.81158
 C655 C 0.30610 0.12926 0.82432
 H656 H 0.33109 0.12686 0.79670
 H657 H 0.29646 0.12633 0.83161
 Cu658 Cu 0.34156 0.15765 0.81542
 Cu659 Cu 0.31434 0.15691 0.84266
 Cu660 Cu 0.34269 0.18501 0.84234
 N661 N 0.35757 0.17327 0.81526
 N662 N 0.35783 0.18398 0.82585
 C663 C 0.37012 0.19309 0.82354
 C664 C 0.37810 0.18781 0.81083
 C665 C 0.36975 0.17519 0.80586
 H666 H 0.37317 0.20264 0.83082
 H667 H 0.37236 0.16794 0.79616
 N668 N 0.32635 0.18403 0.85804
 N669 N 0.31553 0.17340 0.85810
 C670 C 0.30636 0.17560 0.87036
 C671 C 0.31166 0.18819 0.87846
 C672 C 0.32435 0.19324 0.87027
 H673 H 0.29671 0.16837 0.87333
 H674 H 0.33159 0.20294 0.87300
 H675 H 0.32503 0.17434 0.83068
 H676 H 0.33762 0.16188 0.84273
 N677 N 0.81619 0.64177 0.82603
 N678 N 0.82686 0.64206 0.81535
 C679 C 0.82495 0.62986 0.80605
 C680 C 0.81237 0.62149 0.81116
 C681 C 0.80712 0.62946 0.82387
 H682 H 0.83213 0.62730 0.79626
 H683 H 0.79758 0.62640 0.83123
 Cu684 Cu 0.84239 0.65818 0.81479
 Cu685 Cu 0.81508 0.65700 0.84230
 Cu686 Cu 0.84313 0.68515 0.84250
 N687 N 0.85841 0.67381 0.81559
 N688 N 0.85863 0.68427 0.82642
 C689 C 0.87103 0.69333 0.82446
 C690 C 0.87908 0.68829 0.81170
 C691 C 0.87068 0.67587 0.80636
 H692 H 0.87394 0.70289 0.83178
 H693 H 0.87342 0.66870 0.79663
 N694 N 0.82653 0.68413 0.85784
 N695 N 0.81588 0.67336 0.85784
 C696 C 0.80658 0.67543 0.87004
 C697 C 0.81162 0.68814 0.87814
 C698 C 0.82428 0.69336 0.87001
 H699 H 0.79686 0.66822 0.87283
 H700 H 0.83156 0.70297 0.87293
 H701 H 0.82567 0.67450 0.83034
 H702 H 0.83839 0.66188 0.84219
 N703 N 0.81526 0.14168 0.32645
 N704 N 0.82587 0.14189 0.31570
 C705 C 0.82385 0.12970 0.30643
 C706 C 0.81131 0.12136 0.31168
 C707 C 0.80615 0.12937 0.32440
 H708 H 0.83118 0.12691 0.29681
 H709 H 0.79651 0.12646 0.33169
 Cu710 Cu 0.84166 0.15770 0.31550
 Cu711 Cu 0.81440 0.15700 0.34273
 Cu712 Cu 0.84274 0.18509 0.34240
 N713 N 0.85764 0.17335 0.31533
 N714 N 0.85787 0.18406 0.32592
 C715 C 0.87013 0.19319 0.32361
 C716 C 0.87811 0.18794 0.31090
 C717 C 0.86981 0.17530 0.30593
 H718 H 0.87315 0.20274 0.33090
 H719 H 0.87243 0.16806 0.29622
 N720 N 0.82641 0.18411 0.35810
 N721 N 0.81559 0.17348 0.35817
 C722 C 0.80643 0.17569 0.37043
 C723 C 0.81174 0.18829 0.37853
 C724 C 0.82442 0.19333 0.37032
 H725 H 0.79678 0.16846 0.37341
 H726 H 0.83166 0.20303 0.37305
 H727 H 0.82511 0.17440 0.33071
 H728 H 0.83769 0.16196 0.34280
 N729 N 0.68458 0.35853 0.32609
 N730 N 0.67372 0.35845 0.31560
 C731 C 0.67556 0.37073 0.30640
 C732 C 0.68827 0.37894 0.31139
 C733 C 0.69371 0.37079 0.32391
 H734 H 0.66821 0.37348 0.29679
 H735 H 0.70339 0.37370 0.33113
 Cu736 Cu 0.65807 0.34246 0.31551
 Cu737 Cu 0.68580 0.34315 0.34228
 Cu738 Cu 0.65789 0.31467 0.34205
 N739 N 0.64233 0.32657 0.31543
 N740 N 0.64247 0.31567 0.32583
 C741 C 0.63030 0.30639 0.32359
 C742 C 0.62199 0.31176 0.31113
 C743 C 0.63002 0.32461 0.30623
 H744 H 0.62754 0.29667 0.33075
 H745 H 0.62709 0.33198 0.29671
 N746 N 0.67443 0.31571 0.35751
 N747 N 0.68499 0.32659 0.35767
 C748 C 0.69420 0.32450 0.36992
 C749 C 0.68920 0.31169 0.37789
 C750 C 0.67666 0.30642 0.36962
 H751 H 0.70383 0.33178 0.37285
 H752 H 0.66944 0.29672 0.37242
 H753 H 0.67517 0.32584 0.33020
 H754 H 0.66260 0.33791 0.34268
 N755 N 0.68444 0.85823 0.82626
 N756 N 0.67353 0.85831 0.81582
 C757 C 0.67543 0.87063 0.80669
 C758 C 0.68824 0.87871 0.81167
 C759 C 0.69365 0.87045 0.82412
 H760 H 0.66808 0.87346 0.79710
 H761 H 0.70338 0.87326 0.83132
 Cu762 Cu 0.65777 0.84242 0.81532
 Cu763 Cu 0.68555 0.84277 0.84231
 Cu764 Cu 0.65716 0.81491 0.84240
 N765 N 0.64169 0.82685 0.81582
 N766 N 0.64166 0.81606 0.82633
 C767 C 0.62938 0.80692 0.82419
 C768 C 0.62116 0.81224 0.81165
 C769 C 0.62935 0.82494 0.80664
 H770 H 0.62651 0.79727 0.83142
 H771 H 0.62659 0.83219 0.79697
 N772 N 0.67378 0.81566 0.85774
 N773 N 0.68466 0.82622 0.85765
 C774 C 0.69394 0.82403 0.86983
 C775 C 0.68864 0.81150 0.87804
 C776 C 0.67585 0.80649 0.86999
 H777 H 0.70358 0.83130 0.87274
 H778 H 0.66852 0.79691 0.87289
 H779 H 0.67453 0.82556 0.83022
 H780 H 0.66217 0.83807 0.84256
 N781 N 0.18395 0.35912 0.82699
 N782 N 0.17378 0.35851 0.81585
 C783 C 0.17630 0.37024 0.80614
 C784 C 0.18869 0.37873 0.81150
 C785 C 0.19326 0.37125 0.82476
 H786 H 0.16937 0.37266 0.79614
 H787 H 0.20256 0.37444 0.83235
 Cu788 Cu 0.15767 0.34295 0.81568
 Cu789 Cu 0.18364 0.34479 0.84409
 Cu790 Cu 0.15788 0.31456 0.84182
 N791 N 0.14219 0.32679 0.81543
 N792 N 0.14257 0.31561 0.82552
 C793 C 0.13054 0.30620 0.82309
 C794 C 0.12207 0.31174 0.81082
 C795 C 0.12987 0.32485 0.80623
 H796 H 0.12795 0.29630 0.83007
 H797 H 0.12678 0.33243 0.79693
 N798 N 0.17412 0.31585 0.85756
 N799 N 0.18380 0.32746 0.85858
 C800 C 0.19287 0.32540 0.87093
 C801 C 0.18865 0.31187 0.87814
 C802 C 0.17673 0.30613 0.86926
 H803 H 0.20184 0.33322 0.87445
 H804 H 0.17012 0.29586 0.87140
 H805 H 0.17496 0.32719 0.83094
 H806 H 0.16069 0.33776 0.84302
 N807 N 0.18436 0.85884 0.32601
 N808 N 0.17354 0.85877 0.31548
 C809 C 0.17540 0.87107 0.30631
 C810 C 0.18810 0.87928 0.31136
 C811 C 0.19348 0.87112 0.32389
 H812 H 0.16813 0.87379 0.29663
 H813 H 0.20316 0.87401 0.33112
 Cu814 Cu 0.15797 0.84270 0.31488
 Cu815 Cu 0.18560 0.84338 0.34205
 Cu816 Cu 0.15771 0.81506 0.34189
 N817 N 0.14204 0.82698 0.31541
 N818 N 0.14216 0.81613 0.32586
 C819 C 0.12994 0.80690 0.32373
 C820 C 0.12161 0.81223 0.31128
 C821 C 0.12967 0.82501 0.30628
 H822 H 0.12718 0.79720 0.33094
 H823 H 0.12679 0.83229 0.29667
 N824 N 0.17434 0.81594 0.35722
 N825 N 0.18492 0.82678 0.35735
 C826 C 0.19416 0.82468 0.36958
 C827 C 0.18916 0.81189 0.37758
 C828 C 0.17658 0.80664 0.36934
 H829 H 0.20377 0.83199 0.37250
 H830 H 0.16931 0.79700 0.37220
 H831 H 0.17497 0.82612 0.32981
 H832 H 0.16231 0.83836 0.34213
 C833 C 0.26021 1.03308 0.24022
 C834 C 0.25001 1.04095 0.24976
 C835 C 0.23978 1.03323 0.25938
 C836 C 0.23974 1.01702 0.25966
 C837 C 0.24997 1.00883 0.24991
 C838 C 0.26023 1.01689 0.24010
 C839 C 0.27031 1.00858 0.23062
 C840 C 0.27037 0.99259 0.23074
 C841 C 0.26033 0.98438 0.24035
 C842 C 0.25001 0.99255 0.25003
 C843 C 0.22972 1.00881 0.26929
 C844 C 0.22986 0.99282 0.26952
 C845 C 0.23990 0.98449 0.25998
 C846 C 0.24037 0.96828 0.26030
 C847 C 0.25063 0.96046 0.25077
 C848 C 0.26054 0.96819 0.24084
 H849 H 0.27831 1.01439 0.22307
 H850 H 0.27845 0.98672 0.22332
 H851 H 0.22173 1.01471 0.27679
 H852 H 0.22207 0.98702 0.27727
 H853 H 0.25004 1.05340 0.24968
 H854 H 0.25087 0.94801 0.25105
 C855 C 0.26022 0.53273 0.74025
 C856 C 0.25035 0.54052 0.75019
 C857 C 0.24015 0.53275 0.75979
 C858 C 0.23962 0.51656 0.75949
 C859 C 0.24971 0.50843 0.74955
 C860 C 0.26004 0.51654 0.73985
 C861 C 0.27011 0.50826 0.73032
 C862 C 0.27010 0.49227 0.73033
 C863 C 0.25995 0.48403 0.73979
 C864 C 0.24964 0.49216 0.74950
 C865 C 0.22953 0.50832 0.76902
 C866 C 0.22933 0.49233 0.76882
 C867 C 0.23935 0.48405 0.75924
 C868 C 0.23937 0.46784 0.75903
 C869 C 0.24967 0.46005 0.74953
 C870 C 0.25997 0.46783 0.74004
 H871 H 0.27821 0.51408 0.72290
 H872 H 0.27819 0.48642 0.72290
 H873 H 0.22173 0.51417 0.77675
 H874 H 0.22130 0.48650 0.77631
 H875 H 0.25059 0.55297 0.75044
 H876 H 0.24971 0.44760 0.74955
 C877 C 0.76072 -0.03293 0.25984
 C878 C 0.75063 -0.04072 0.25014
 C879 C 0.74047 -0.03290 0.24052
 C880 C 0.74032 -0.01670 0.24045
 C881 C 0.75050 -0.00859 0.25028
 C882 C 0.76075 -0.01673 0.26005
 C883 C 0.77079 -0.00848 0.26961
 C884 C 0.77078 0.00751 0.26962
 C885 C 0.76067 0.01579 0.26013
 C886 C 0.75043 0.00768 0.25035
 C887 C 0.73019 -0.00843 0.23098
 C888 C 0.73007 0.00756 0.23109
 C889 C 0.74013 0.01581 0.24063
 C890 C 0.74009 0.03201 0.24089
 C891 C 0.75030 0.03979 0.25047
 C892 C 0.76059 0.03199 0.25997
 H893 H 0.77880 -0.01436 0.27711
 H894 H 0.77880 0.01335 0.27712
 H895 H 0.72222 -0.01428 0.22344
 H896 H 0.72199 0.01340 0.22365
 H897 H 0.75065 -0.05317 0.25011
 H898 H 0.75026 0.05224 0.25050
 C899 C 0.76067 0.46747 0.75981
 C900 C 0.75101 0.45964 0.74973
 C901 C 0.74089 0.46739 0.74000
 C902 C 0.74041 0.48359 0.74019
 C903 C 0.75027 0.49175 0.75033
 C904 C 0.76038 0.48365 0.76026
 C905 C 0.77005 0.49193 0.77017
 C906 C 0.76987 0.50792 0.77031
 C907 C 0.76010 0.51617 0.76046
 C908 C 0.75015 0.50802 0.75040
 C909 C 0.73062 0.49184 0.73035
 C910 C 0.73052 0.50784 0.73041
 C911 C 0.74017 0.51612 0.74033
 C912 C 0.74036 0.53233 0.74032
 C913 C 0.75010 0.54014 0.75035
 C914 C 0.75987 0.53237 0.76041
 H915 H 0.77789 0.48609 0.77787
 H916 H 0.77751 0.51378 0.77817
 H917 H 0.72305 0.48598 0.72242
 H918 H 0.72285 0.51367 0.72254
 H919 H 0.75129 0.44719 0.74953
 H920 H 0.75011 0.55259 0.75031
 C921 C 0.26060 0.46705 0.25922
 C922 C 0.25072 0.45933 0.24924
 C923 C 0.24042 0.46717 0.23979
 C924 C 0.23994 0.48335 0.24010
 C925 C 0.24994 0.49143 0.25014
 C926 C 0.26024 0.48325 0.25985
 C927 C 0.27006 0.49149 0.26965
 C928 C 0.26977 0.50748 0.26997
 C929 C 0.25982 0.51578 0.26034
 C930 C 0.24978 0.50770 0.25034
 C931 C 0.22999 0.49165 0.23045
 C932 C 0.22990 0.50764 0.23057
 C933 C 0.23968 0.51586 0.24043
 C934 C 0.23985 0.53207 0.24052
 C935 C 0.24963 0.53981 0.25055
 C936 C 0.25951 0.53198 0.26044
 H937 H 0.27810 0.48564 0.27712
 H938 H 0.27749 0.51330 0.27778
 H939 H 0.22230 0.48583 0.22262
 H940 H 0.22214 0.51352 0.22283
 H941 H 0.25097 0.44688 0.24890
 H942 H 0.24960 0.55227 0.25061
 C943 C 0.75928 0.96761 0.73986
 C944 C 0.74967 0.95988 0.75008
 C945 C 0.74016 0.96772 0.76033
 C946 C 0.74006 0.98393 0.76039
 C947 C 0.74986 0.99199 0.75013
 C948 C 0.75956 0.98381 0.73984
 C949 C 0.76914 0.99201 0.72978
 C950 C 0.76940 1.00800 0.72995
 C951 C 0.76000 1.01632 0.74010
 C952 C 0.75006 1.00827 0.75024
 C953 C 0.73067 0.99226 0.77056
 C954 C 0.73085 1.00826 0.77064
 C955 C 0.74046 1.01646 0.76060
 C956 C 0.74101 1.03267 0.76082
 C957 C 0.75098 1.04037 0.75091
 C958 C 0.76040 1.03250 0.74060
 H959 H 0.77655 0.98612 0.72171
 H960 H 0.77708 1.01379 0.72208
 H961 H 0.72318 0.98645 0.77859
 H962 H 0.72349 1.01415 0.77875
 H963 H 0.74964 0.94742 0.75010
 H964 H 0.75132 1.05282 0.75113
 C965 C 0.75990 0.46793 0.24044
 C966 C 0.75009 0.46023 0.25048
 C967 C 0.74000 0.46807 0.26017
 C968 C 0.73959 0.48427 0.25991
 C969 C 0.74953 0.49233 0.24977
 C970 C 0.75967 0.48413 0.23991
 C971 C 0.76954 0.49234 0.23014
 C972 C 0.76955 0.50832 0.23007
 C973 C 0.75974 0.51665 0.23983
 C974 C 0.74959 0.50860 0.24976
 C975 C 0.72987 0.49261 0.26976
 C976 C 0.72996 0.50860 0.26977
 C977 C 0.73976 0.51680 0.25991
 C978 C 0.74035 0.53301 0.26017
 C979 C 0.75042 0.54070 0.25037
 C980 C 0.76003 0.53283 0.24025
 H981 H 0.77747 0.48646 0.22257
 H982 H 0.77747 0.51412 0.22244
 H983 H 0.72225 0.48681 0.27769
 H984 H 0.72240 0.51450 0.27769
 H985 H 0.75031 0.44777 0.25077
 H986 H 0.75077 0.55315 0.25059
 C987 C 0.26021 -0.03304 0.75977
 C988 C 0.25002 -0.04076 0.75011
 C989 C 0.23986 -0.03289 0.74055
 C990 C 0.23981 -0.01669 0.74044
 C991 C 0.24998 -0.00863 0.75033
 C992 C 0.26020 -0.01682 0.76009
 C993 C 0.27026 -0.00861 0.76966
 C994 C 0.27032 0.00738 0.76967
 C995 C 0.26035 0.01571 0.76008
 C996 C 0.25007 0.00765 0.75030
 C997 C 0.22992 -0.00838 0.73076
 C998 C 0.23010 0.00761 0.73063
 C999 C 0.24007 0.01583 0.74029
 C1000 C 0.24060 0.03203 0.74003
 C1001 C 0.25078 0.03974 0.74970
 C1002 C 0.26060 0.03192 0.75967
 H1003 H 0.27826 -0.01450 0.77716
 H1004 H 0.27837 0.01318 0.77716
 H1005 H 0.22201 -0.01419 0.72313
 H1006 H 0.22241 0.01348 0.72282
 H1007 H 0.25005 -0.05321 0.75001
 H1008 H 0.25107 0.05219 0.74947
 C1009 C 0.24004 0.26003 1.03210
 C1010 C 0.25036 0.25053 1.03987
 C1011 C 0.26059 0.24094 1.03208
 C1012 C 0.26054 0.24067 1.01590
 C1013 C 0.25022 0.25040 1.00779
 C1014 C 0.23995 0.26018 1.01591
 C1015 C 0.22975 0.26960 1.00767
 C1016 C 0.22962 0.26947 0.99169
 C1017 C 0.23967 0.25989 0.98342
 C1018 C 0.25007 0.25025 0.99153
 C1019 C 0.27054 0.23103 1.00764
 C1020 C 0.27028 0.23076 0.99168
 C1021 C 0.26016 0.24026 0.98342
 C1022 C 0.25957 0.23988 0.96725
 C1023 C 0.24928 0.24941 0.95949
 C1024 C 0.23939 0.25937 0.96724
 H1025 H 0.22171 0.27709 1.01352
 H1026 H 0.22147 0.27685 0.98587
 H1027 H 0.27860 0.22356 1.01347
 H1028 H 0.27806 0.22299 0.98585
 H1029 H 0.25040 0.25055 1.05231
 H1030 H 0.24898 0.24908 0.94705
 C1031 C 0.26094 0.74068 0.46664
 C1032 C 0.25073 0.75030 0.45886
 C1033 C 0.24052 0.75992 0.46664
 C1034 C 0.24053 0.76015 0.48283
 C1035 C 0.25077 0.75033 0.49094
 C1036 C 0.26097 0.74048 0.48283
 C1037 C 0.27095 0.73082 0.49108
 C1038 C 0.27076 0.73062 0.50705
 C1039 C 0.26073 0.74022 0.51531
 C1040 C 0.25070 0.75025 0.50720
 C1041 C 0.23044 0.76968 0.49109
 C1042 C 0.23040 0.76963 0.50706
 C1043 C 0.24040 0.76001 0.51531
 C1044 C 0.24019 0.75957 0.53149
 C1045 C 0.25002 0.74957 0.53925
 C1046 C 0.26020 0.73991 0.53149
 H1047 H 0.27892 0.72326 0.48523
 H1048 H 0.27852 0.72284 0.51288
 H1049 H 0.22243 0.77721 0.48525
 H1050 H 0.22233 0.77711 0.51289
 H1051 H 0.25070 0.75027 0.44642
 H1052 H 0.24975 0.74930 0.55169
 C1053 C 0.24052 0.74018 -0.03179
 C1054 C 0.25073 0.74977 -0.03956
 C1055 C 0.26094 0.75934 -0.03177
 C1056 C 0.26101 0.75947 -0.01559
 C1057 C 0.25073 0.74971 -0.00749
 C1058 C 0.24045 0.73998 -0.01561
 C1059 C 0.23030 0.73052 -0.00738
 C1060 C 0.23028 0.73049 0.00859
 C1061 C 0.24042 0.73993 0.01686
 C1062 C 0.25072 0.74967 0.00877
 C1063 C 0.27117 0.76888 -0.00731
 C1064 C 0.27118 0.76883 0.00866
 C1065 C 0.26101 0.75937 0.01690
 C1066 C 0.26096 0.75915 0.03308
 C1067 C 0.25071 0.74959 0.04084
 C1068 C 0.24046 0.74007 0.03304
 H1069 H 0.22224 0.72307 -0.01324
 H1070 H 0.22221 0.72304 0.01442
 H1071 H 0.27924 0.77633 -0.01314
 H1072 H 0.27926 0.77624 0.01451
 H1073 H 0.25072 0.74980 -0.05200
 H1074 H 0.25070 0.74957 0.05328
 C1075 C 0.25992 0.25981 0.46817
 C1076 C 0.25013 0.24980 0.46040
 C1077 C 0.24006 0.24006 0.46817
 C1078 C 0.23959 0.24028 0.48435
 C1079 C 0.24952 0.25037 0.49246
 C1080 C 0.25970 0.26023 0.48435
 C1081 C 0.26963 0.26989 0.49262
 C1082 C 0.26968 0.26982 0.50858
 C1083 C 0.25979 0.26010 0.51684
 C1084 C 0.24957 0.25030 0.50872
 C1085 C 0.22983 0.23043 0.49260
 C1086 C 0.22987 0.23037 0.50857
 C1087 C 0.23968 0.24015 0.51683
 C1088 C 0.24023 0.23980 0.53301
 C1089 C 0.25036 0.24947 0.54078
 C1090 C 0.26010 0.25955 0.53302
 H1091 H 0.27760 0.27745 0.48679
 H1092 H 0.27770 0.27732 0.51441
 H1093 H 0.22219 0.22255 0.48676
 H1094 H 0.22227 0.22244 0.51439
 H1095 H 0.25038 0.24955 0.44796
 H1096 H 0.25068 0.24915 0.55321
 C1097 C 0.76048 0.74047 0.96715
 C1098 C 0.75068 0.75051 0.95938
 C1099 C 0.74049 0.76017 0.96714
 C1100 C 0.73990 0.75980 0.98332
 C1101 C 0.74993 0.74977 0.99144
 C1102 C 0.76025 0.74003 0.98332
 C1103 C 0.77027 0.73043 0.99159
 C1104 C 0.77022 0.73039 1.00756
 C1105 C 0.76008 0.73988 1.01581
 C1106 C 0.74980 0.74965 1.00769
 C1107 C 0.72982 0.76934 0.99158
 C1108 C 0.72954 0.76907 1.00755
 C1109 C 0.73951 0.75942 1.01581
 C1110 C 0.73946 0.75915 1.03199
 C1111 C 0.74973 0.74960 1.03977
 C1112 C 0.76006 0.74010 1.03200
 H1113 H 0.77836 0.72299 0.98575
 H1114 H 0.77827 0.72291 1.01340
 H1115 H 0.72207 0.77714 0.98575
 H1116 H 0.72151 0.77658 1.01338
 H1117 H 0.75097 0.75080 0.94695
 H1118 H 0.74972 0.74960 1.05221
 C1119 C 0.75986 0.24005 0.46737
 C1120 C 0.74964 0.24964 0.45958
 C1121 C 0.73981 0.25968 0.46732
 C1122 C 0.74006 0.26019 0.48350
 C1123 C 0.75038 0.25047 0.49164
 C1124 C 0.76042 0.24043 0.48354
 C1125 C 0.77047 0.23087 0.49182
 C1126 C 0.77071 0.23115 0.50778
 C1127 C 0.76076 0.24084 0.51603
 C1128 C 0.75051 0.25063 0.50789
 C1129 C 0.73008 0.26985 0.49175
 C1130 C 0.73017 0.26997 0.50772
 C1131 C 0.74029 0.26048 0.51599
 C1132 C 0.74035 0.26034 0.53218
 C1133 C 0.75060 0.25078 0.53997
 C1134 C 0.76079 0.24113 0.53221
 H1135 H 0.77822 0.22306 0.48600
 H1136 H 0.77872 0.22363 0.51363
 H1137 H 0.72200 0.27729 0.48590
 H1138 H 0.72218 0.27752 0.51356
 H1139 H 0.74937 0.24932 0.44715
 H1140 H 0.75061 0.25082 0.55241
 C1141 C 0.74039 0.23981 -0.03241
 C1142 C 0.75057 0.24946 -0.04016
 C1143 C 0.76034 0.25949 -0.03239
 C1144 C 0.76012 0.25993 -0.01622
 C1145 C 0.74981 0.25022 -0.00811
 C1146 C 0.73979 0.24019 -0.01623
 C1147 C 0.72973 0.23067 -0.00796
 C1148 C 0.72947 0.23095 0.00801
 C1149 C 0.73944 0.24058 0.01627
 C1150 C 0.74970 0.25034 0.00815
 C1151 C 0.77014 0.26952 -0.00797
 C1152 C 0.77009 0.26958 0.00800
 C1153 C 0.75996 0.26012 0.01626
 C1154 C 0.75996 0.25992 0.03244
 C1155 C 0.74968 0.25041 0.04022
 C1156 C 0.73943 0.24085 0.03246
 H1157 H 0.72198 0.22290 -0.01379
 H1158 H 0.72144 0.22347 0.01386
 H1159 H 0.77823 0.27694 -0.01380
 H1160 H 0.77813 0.27705 0.01383
 H1161 H 0.75087 0.24919 -0.05260
 H1162 H 0.74969 0.25041 0.05267
 C1163 C 0.74106 0.73918 0.46852
 C1164 C 0.75116 0.74890 0.46076
 C1165 C 0.76076 0.75910 0.46852
 C1166 C 0.76039 0.75969 0.48469
 C1167 C 0.75023 0.74981 0.49281
 C1168 C 0.74044 0.73956 0.48469
 C1169 C 0.73054 0.72987 0.49296
 C1170 C 0.73014 0.73025 0.50892
 C1171 C 0.73977 0.74023 0.51718
 C1172 C 0.74993 0.75009 0.50906
 C1173 C 0.77002 0.76965 0.49295
 C1174 C 0.76966 0.77000 0.50891
 C1175 C 0.75975 0.76031 0.51717
 C1176 C 0.75916 0.76067 0.53334
 C1177 C 0.74902 0.75100 0.54111
 C1178 C 0.73938 0.74083 0.53335
 H1179 H 0.72300 0.72188 0.48713
 H1180 H 0.72222 0.72265 0.51475
 H1181 H 0.77795 0.77725 0.48712
 H1182 H 0.77722 0.77796 0.51474
 H1183 H 0.75149 0.74859 0.44833
 H1184 H 0.74871 0.75132 0.55354
 C1185 C 1.03255 0.23952 0.25913
 C1186 C 1.04036 0.24922 0.24908
 C1187 C 1.03254 0.25933 0.23942
 C1188 C 1.01627 0.25985 0.23970
 C1189 C 1.00811 0.25002 0.24984
 C1190 C 1.01628 0.23987 0.25968
 C1191 C 1.00796 0.23015 0.26950
 C1192 C 0.99190 0.23038 0.26971
 C1193 C 0.98360 0.24020 0.25997
 C1194 C 0.99176 0.25016 0.24995
 C1195 C 1.00795 0.26962 0.22990
 C1196 C 0.99188 0.26974 0.23000
 C1197 C 0.98359 0.26012 0.23993
 C1198 C 0.96730 0.25994 0.23998
 C1199 C 0.95948 0.25021 0.25000
 C1200 C 0.96733 0.24043 0.25997
 H1201 H 1.01382 0.22221 0.27706
 H1202 H 0.98602 0.22271 0.27752
 H1203 H 1.01382 0.27716 0.22196
 H1204 H 0.98600 0.27737 0.22215
 H1205 H 1.05287 0.24893 0.24879
 H1206 H 0.94697 0.25022 0.25001
 C1207 C 0.46738 0.25910 0.73945
 C1208 C 0.45960 0.24933 0.74945
 C1209 C 0.46747 0.23963 0.75947
 C1210 C 0.48376 0.23951 0.75952
 C1211 C 0.49188 0.24948 0.74948
 C1212 C 0.48366 0.25939 0.73945
 C1213 C 0.49192 0.26920 0.72967
 C1214 C 0.50799 0.26946 0.72986
 C1215 C 0.51635 0.25979 0.73972
 C1216 C 0.50823 0.24964 0.74958
 C1217 C 0.49210 0.22991 0.76945
 C1218 C 0.50817 0.23005 0.76953
 C1219 C 0.51644 0.23982 0.75971
 C1220 C 0.53271 0.24033 0.75996
 C1221 C 0.54048 0.25046 0.75029
 C1222 C 0.53262 0.26015 0.74025
 H1223 H 0.48601 0.27682 0.72183
 H1224 H 0.51381 0.27736 0.72226
 H1225 H 0.48625 0.22227 0.77730
 H1226 H 0.51406 0.22253 0.77747
 H1227 H 0.44708 0.24930 0.74947
 H1228 H 0.55299 0.25077 0.75056
 C1229 C 0.03232 0.25934 0.76058
 C1230 C 0.04013 0.24959 0.75055
 C1231 C 0.03229 0.23994 0.74047
 C1232 C 0.01601 0.23981 0.74041
 C1233 C 0.00785 0.24976 0.75046
 C1234 C 0.01603 0.25964 0.76054
 C1235 C 0.00772 0.26943 0.77031
 C1236 C -0.00835 0.26972 0.77006
 C1237 C -0.01666 0.26008 0.76016
 C1238 C -0.00851 0.24993 0.75031
 C1239 C 0.00770 0.23026 0.73042
 C1240 C -0.00837 0.23040 0.73031
 C1241 C -0.01668 0.24014 0.74014
 C1242 C -0.03296 0.24067 0.73986
 C1243 C -0.04076 0.25080 0.74950
 C1244 C -0.03294 0.26049 0.75957
 H1245 H 0.01360 0.27703 0.77819
 H1246 H -0.01421 0.27762 0.77766
 H1247 H 0.01357 0.22265 0.72254
 H1248 H -0.01424 0.22291 0.72233
 H1249 H 0.05265 0.24955 0.75055
 H1250 H -0.05327 0.25113 0.74920
 C1251 C 0.46759 0.23949 0.24035
 C1252 C 0.45974 0.24965 0.24994
 C1253 C 0.46753 0.25980 0.25955
 C1254 C 0.48382 0.25975 0.25984
 C1255 C 0.49202 0.24963 0.24998
 C1256 C 0.48388 0.23953 0.24010
 C1257 C 0.49221 0.22970 0.23038
 C1258 C 0.50828 0.22985 0.23024
 C1259 C 0.51657 0.23965 0.23999
 C1260 C 0.50838 0.24963 0.24999
 C1261 C 0.49211 0.26958 0.26956
 C1262 C 0.50818 0.26942 0.26973
 C1263 C 0.51652 0.25961 0.25999
 C1264 C 0.53280 0.25935 0.26005
 C1265 C 0.54065 0.24962 0.25002
 C1266 C 0.53286 0.23990 0.23997
 H1267 H 0.48636 0.22184 0.22275
 H1268 H 0.51417 0.22217 0.22244
 H1269 H 0.48622 0.27745 0.27717
 H1270 H 0.51403 0.27710 0.27754
 H1271 H 0.44722 0.24964 0.24993
 H1272 H 0.55317 0.24961 0.25004
 C1273 C 0.96826 0.75996 0.74022
 C1274 C 0.96044 0.74976 0.74976
 C1275 C 0.96825 0.73997 0.75974
 C1276 C 0.98453 0.74026 0.76026
 C1277 C 0.99269 0.75056 0.75058
 C1278 C 0.98453 0.76053 0.74058
 C1279 C 0.99283 0.77054 0.73103
 C1280 C 1.00889 0.77080 0.73129
 C1281 C 1.01720 0.76092 0.74096
 C1282 C 1.00904 0.75071 0.75072
 C1283 C 0.99286 0.73033 0.76988
 C1284 C 1.00892 0.73044 0.76998
 C1285 C 1.01721 0.74054 0.76051
 C1286 C 1.03349 0.74061 0.76035
 C1287 C 1.04132 0.75083 0.75084
 C1288 C 1.03349 0.76097 0.74124
 H1289 H 0.98696 0.77823 0.72322
 H1290 H 1.01475 0.77877 0.72377
 H1291 H 0.98700 0.72229 0.77731
 H1292 H 1.01481 0.72249 0.77750
 H1293 H 0.94793 0.74946 0.74945
 H1294 H 1.05384 0.75084 0.75087
 C1295 C 0.46773 0.76060 0.24029
 C1296 C 0.45989 0.75098 0.25040
 C1297 C 0.46770 0.74124 0.26043
 C1298 C 0.48399 0.74096 0.26041
 C1299 C 0.49216 0.75083 0.25031
 C1300 C 0.48401 0.76075 0.24024
 C1301 C 0.49233 0.77030 0.23025
 C1302 C 0.50839 0.77019 0.23017
 C1303 C 0.51669 0.76046 0.24001
 C1304 C 0.50852 0.75067 0.25019
 C1305 C 0.49228 0.73120 0.27022
 C1306 C 0.50834 0.73091 0.26997
 C1307 C 0.51667 0.74055 0.26007
 C1308 C 0.53294 0.74017 0.25950
 C1309 C 0.54077 0.74984 0.24943
 C1310 C 0.53297 0.75994 0.23976
 H1311 H 0.48645 0.77790 0.22236
 H1312 H 0.51428 0.77769 0.22220
 H1313 H 0.48640 0.72363 0.27812
 H1314 H 0.51419 0.72302 0.27758
 H1315 H 0.44737 0.75101 0.25040
 H1316 H 0.55328 0.74953 0.24916
 C1317 C -0.03294 0.76100 0.25921
 C1318 C -0.04074 0.75128 0.24917
 C1319 C -0.03293 0.74108 0.23960
 C1320 C -0.01665 0.74052 0.23992
 C1321 C -0.00849 0.75042 0.25000
 C1322 C -0.01666 0.76063 0.25977
 C1323 C -0.00835 0.77032 0.26963
 C1324 C 0.00771 0.76998 0.26996
 C1325 C 0.01603 0.76004 0.26033
 C1326 C 0.00787 0.75016 0.25023
 C1327 C -0.00834 0.73057 0.23030
 C1328 C 0.00773 0.73025 0.23061
 C1329 C 0.01603 0.73996 0.24045
 C1330 C 0.03231 0.73961 0.24099
 C1331 C 0.04012 0.74930 0.25105
 C1332 C 0.03231 0.75948 0.26065
 H1333 H -0.01422 0.77827 0.27717
 H1334 H 0.01357 0.77756 0.27785
 H1335 H -0.01420 0.72297 0.22243
 H1336 H 0.01360 0.72230 0.22307
 H1337 H -0.05325 0.75158 0.24888
 H1338 H 0.05263 0.74899 0.25134
 C1339 C 0.46681 0.76041 0.76009
 C1340 C 0.45895 0.75085 0.74995
 C1341 C 0.46674 0.74084 0.74015
 C1342 C 0.48303 0.74040 0.74029
 C1343 C 0.49122 0.75013 0.75049
 C1344 C 0.48308 0.76011 0.76053
 C1345 C 0.49141 0.76963 0.77053
 C1346 C 0.50748 0.76944 0.77065
 C1347 C 0.51576 0.75983 0.76067
 C1348 C 0.50758 0.75003 0.75052
 C1349 C 0.49132 0.73079 0.73031
 C1350 C 0.50739 0.73071 0.73032
 C1351 C 0.51573 0.74021 0.74033
 C1352 C 0.53202 0.74041 0.74030
 C1353 C 0.53986 0.75001 0.75043
 C1354 C 0.53205 0.75963 0.76058
 H1355 H 0.48554 0.77734 0.77832
 H1356 H 0.51337 0.77695 0.77859
 H1357 H 0.48543 0.72334 0.72230
 H1358 H 0.51325 0.72318 0.72234
 H1359 H 0.44644 0.75114 0.74976
 H1360 H 0.55238 0.75002 0.75039
 C1361 C 0.41981 0.29180 0.29255
 C1362 C 0.41063 0.30211 0.28394
 C1363 C 0.39718 0.30843 0.29034
 C1364 C 0.39247 0.30447 0.30521
 C1365 C 0.40160 0.29425 0.31372
 C1366 C 0.41509 0.28803 0.30754
 C1367 C 0.43375 0.28485 0.28505
 C1368 C 0.44359 0.27432 0.29252
 C1369 C 0.45544 0.26697 0.28448
 C1370 C 0.45785 0.27011 0.26896
 C1371 C 0.44880 0.28124 0.26167
 C1372 C 0.43678 0.28858 0.26954
 C1373 C 0.41467 0.30579 0.26885
 C1374 C 0.42741 0.29910 0.26178
 H1375 H 0.40765 0.31369 0.26226
 H1376 H 0.42979 0.30200 0.24994
 H1377 H 0.39019 0.31614 0.28353
 H1378 H 0.39839 0.29105 0.32527
 H1379 H 0.46225 0.25824 0.29018
 H1380 H 0.45061 0.28352 0.24958
 H1381 H 0.42153 0.28017 0.31462
 H1382 H 0.44204 0.27123 0.30438
 C1383 C 0.41893 0.79194 0.79316
 C1384 C 0.41106 0.80377 0.78528
 C1385 C 0.39759 0.81024 0.79151
 C1386 C 0.39140 0.80484 0.80543
 C1387 C 0.39927 0.79295 0.81309
 C1388 C 0.41281 0.78666 0.80712
 C1389 C 0.43298 0.78499 0.78587
 C1390 C 0.44177 0.77328 0.79285
 C1391 C 0.45369 0.76604 0.78484
 C1392 C 0.45721 0.77045 0.76984
 C1393 C 0.44927 0.78273 0.76315
 C1394 C 0.43723 0.79004 0.77103
 C1395 C 0.41639 0.80877 0.77097
 C1396 C 0.42907 0.80194 0.76393
 H1397 H 0.41036 0.81782 0.76490
 H1398 H 0.43242 0.80589 0.75264
 H1399 H 0.39181 0.81923 0.78518
 H1400 H 0.39514 0.78838 0.82383
 H1401 H 0.45967 0.75646 0.79007
 H1402 H 0.45198 0.78603 0.75147
 H1403 H 0.41814 0.77751 0.81353
 H1404 H 0.43934 0.76922 0.80426
 C1405 C -0.08054 0.29280 0.79237
 C1406 C -0.08980 0.30295 0.78364
 C1407 C -0.10327 0.30927 0.78999
 C1408 C -0.10791 0.30547 0.80492
 C1409 C -0.09867 0.29547 0.81356
 C1410 C -0.08517 0.28925 0.80743
 C1411 C -0.06661 0.28580 0.78493
 C1412 C -0.05675 0.27535 0.79249
 C1413 C -0.04494 0.26789 0.78450
 C1414 C -0.04258 0.27087 0.76893
 C1415 C -0.05162 0.28195 0.76156
 C1416 C -0.06363 0.28935 0.76938
 C1417 C -0.08580 0.30645 0.76850
 C1418 C -0.07304 0.29974 0.76150
 H1419 H -0.09287 0.31423 0.76182
 H1420 H -0.07068 0.30250 0.74962
 H1421 H -0.11034 0.31682 0.78308
 H1422 H -0.10182 0.29243 0.82517
 H1423 H -0.03813 0.25921 0.79027
 H1424 H -0.04984 0.28411 0.74945
 H1425 H -0.07866 0.28154 0.81461
 H1426 H -0.05827 0.27237 0.80438
 C1427 C -0.08064 0.79274 0.29250
 C1428 C -0.08999 0.80291 0.28390
 C1429 C -0.10344 0.80914 0.29036
 C1430 C -0.10797 0.80527 0.30531
 C1431 C -0.09869 0.79518 0.31381
 C1432 C -0.08520 0.78903 0.30755
 C1433 C -0.06670 0.78586 0.28493
 C1434 C -0.05673 0.77541 0.29235
 C1435 C -0.04489 0.76812 0.28424
 C1436 C -0.04261 0.77126 0.26869
 C1437 C -0.05179 0.78231 0.26145
 C1438 C -0.06382 0.78956 0.26939
 C1439 C -0.08609 0.80656 0.26877
 C1440 C -0.07333 0.79997 0.26165
 H1441 H -0.09323 0.81435 0.26219
 H1442 H -0.07105 0.80284 0.24978
 H1443 H -0.11056 0.81674 0.28355
 H1444 H -0.10176 0.79206 0.32542
 H1445 H -0.03799 0.75946 0.28992
 H1446 H -0.05008 0.78459 0.24935
 H1447 H -0.07863 0.78129 0.31464
 H1448 H -0.05819 0.77233 0.30422
 C1449 C 0.58011 0.70779 0.29289
 C1450 C 0.58952 0.69770 0.28424
 C1451 C 0.60286 0.69133 0.29077
 C1452 C 0.60724 0.69501 0.30580
 C1453 C 0.59786 0.70495 0.31437
 C1454 C 0.58446 0.71122 0.30806
 C1455 C 0.56633 0.71485 0.28524
 C1456 C 0.55632 0.72524 0.29270
 C1457 C 0.54464 0.73273 0.28456
 C1458 C 0.54256 0.72983 0.26894
 C1459 C 0.55176 0.71884 0.26164
 C1460 C 0.56363 0.71140 0.26961
 C1461 C 0.58582 0.69431 0.26900
 C1462 C 0.57320 0.70108 0.26182
 H1463 H 0.59301 0.68658 0.26239
 H1464 H 0.57107 0.69840 0.24988
 H1465 H 0.61005 0.68384 0.28391
 H1466 H 0.60082 0.70789 0.32605
 H1467 H 0.53770 0.74134 0.29028
 H1468 H 0.55019 0.71674 0.24949
 H1469 H 0.57781 0.71885 0.31519
 H1470 H 0.55764 0.72815 0.30463
 C1471 C 0.58003 0.20694 0.79222
 C1472 C 0.58927 0.21558 0.80242
 C1473 C 0.60254 0.20906 0.80892
 C1474 C 0.60700 0.19400 0.80533
 C1475 C 0.59783 0.18545 0.79523
 C1476 C 0.58451 0.19178 0.78877
 C1477 C 0.56625 0.21458 0.78510
 C1478 C 0.55638 0.20714 0.77461
 C1479 C 0.54464 0.21526 0.76717
 C1480 C 0.54240 0.23087 0.77020
 C1481 C 0.55151 0.23814 0.78124
 C1482 C 0.56341 0.23019 0.78864
 C1483 C 0.58544 0.23081 0.80585
 C1484 C 0.57284 0.23797 0.79905
 H1485 H 0.59252 0.23742 0.81366
 H1486 H 0.57059 0.24990 0.80179
 H1487 H 0.60957 0.21594 0.81651
 H1488 H 0.60087 0.17376 0.79231
 H1489 H 0.53778 0.20956 0.75852
 H1490 H 0.54981 0.25028 0.78344
 H1491 H 0.57800 0.18466 0.78103
 H1492 H 0.55782 0.19522 0.77162
 C1493 C 1.08088 0.70824 0.79326
 C1494 C 1.08999 0.69786 0.78464
 C1495 C 1.10335 0.69144 0.79104
 C1496 C 1.10808 0.69537 0.80590
 C1497 C 1.09904 0.70565 0.81443
 C1498 C 1.08561 0.71198 0.80824
 C1499 C 1.06701 0.71529 0.78577
 C1500 C 1.05724 0.72587 0.79326
 C1501 C 1.04548 0.73332 0.78523
 C1502 C 1.04311 0.73024 0.76970
 C1503 C 1.05206 0.71907 0.76238
 C1504 C 1.06399 0.71162 0.77025
 C1505 C 1.08594 0.69423 0.76955
 C1506 C 1.07328 0.70103 0.76247
 H1507 H 1.09290 0.68627 0.76296
 H1508 H 1.07089 0.69817 0.75062
 H1509 H 1.11029 0.68368 0.78422
 H1510 H 1.10229 0.70885 0.82596
 H1511 H 1.03871 0.74207 0.79094
 H1512 H 1.05025 0.71683 0.75028
 H1513 H 1.07925 0.71990 0.81532
 H1514 H 1.05879 0.72892 0.80513
 C1515 C 1.07993 0.20737 0.29243
 C1516 C 1.08941 0.19737 0.28376
 C1517 C 1.10283 0.19113 0.29024
 C1518 C 1.10721 0.19483 0.30527
 C1519 C 1.09776 0.20468 0.31387
 C1520 C 1.08429 0.21083 0.30759
 C1521 C 1.06607 0.21433 0.28482
 C1522 C 1.05601 0.22465 0.29230
 C1523 C 1.04428 0.23208 0.28418
 C1524 C 1.04219 0.22919 0.26855
 C1525 C 1.05145 0.21825 0.26124
 C1526 C 1.06338 0.21088 0.26919
 C1527 C 1.08570 0.19396 0.26853
 C1528 C 1.07300 0.20062 0.26138
 H1529 H 1.09294 0.18630 0.26189
 H1530 H 1.07087 0.19794 0.24944
 H1531 H 1.11007 0.18369 0.28337
 H1532 H 1.10070 0.20763 0.32555
 H1533 H 1.03730 0.24065 0.28992
 H1534 H 1.04988 0.21615 0.24909
 H1535 H 1.07758 0.21840 0.31475
 H1536 H 1.05732 0.22754 0.30424
 C1537 C 0.58014 0.29240 0.70736
 C1538 C 0.58935 0.30257 0.71607
 C1539 C 0.60278 0.30891 0.70973
 C1540 C 0.60744 0.30514 0.69480
 C1541 C 0.59827 0.29509 0.68616
 C1542 C 0.58480 0.28883 0.69230
 C1543 C 0.56623 0.28539 0.71482
 C1544 C 0.55640 0.27492 0.70728
 C1545 C 0.54460 0.26750 0.71529
 C1546 C 0.54222 0.27052 0.73085
 C1547 C 0.55124 0.28161 0.73819
 C1548 C 0.56323 0.28899 0.73036
 C1549 C 0.58535 0.30610 0.73121
 C1550 C 0.57261 0.29939 0.73822
 H1551 H 0.59238 0.31390 0.73787
 H1552 H 0.57024 0.30218 0.75010
 H1553 H 0.60980 0.31650 0.71663
 H1554 H 0.60144 0.29205 0.67456
 H1555 H 0.53781 0.25881 0.70954
 H1556 H 0.54945 0.28381 0.75030
 H1557 H 0.57833 0.28110 0.68513
 H1558 H 0.55795 0.27191 0.69540
 C1559 C 0.58079 0.79284 0.20797
 C1560 C 0.58990 0.78416 0.19766
 C1561 C 0.60335 0.79047 0.19136
 C1562 C 0.60812 0.80534 0.19525
 C1563 C 0.59909 0.81393 0.20547
 C1564 C 0.58559 0.80781 0.21173
 C1565 C 0.56680 0.78541 0.21488
 C1566 C 0.55702 0.79291 0.22544
 C1567 C 0.54514 0.78491 0.23275
 C1568 C 0.54264 0.76940 0.22951
 C1569 C 0.55161 0.76211 0.21834
 C1570 C 0.56367 0.76993 0.21107
 C1571 C 0.58577 0.76909 0.19393
 C1572 C 0.57297 0.76211 0.20055
 H1573 H 0.59273 0.76246 0.18602
 H1574 H 0.57050 0.75029 0.19761
 H1575 H 0.61029 0.78356 0.18368
 H1576 H 0.60237 0.82548 0.20863
 H1577 H 0.53838 0.79061 0.24151
 H1578 H 0.54972 0.75004 0.21599
 H1579 H 0.57920 0.81494 0.21958
 H1580 H 0.55867 0.80475 0.22861
 C1581 C 1.07998 0.29244 0.20728
 C1582 C 1.08932 0.28372 0.19721
 C1583 C 1.10270 0.29014 0.19086
 C1584 C 1.10715 0.30518 0.19447
 C1585 C 1.09785 0.31384 0.20440
 C1586 C 1.08444 0.30760 0.21071
 C1587 C 1.06612 0.28490 0.21430
 C1588 C 1.05619 0.29242 0.22470
 C1589 C 1.04442 0.28435 0.23211
 C1590 C 1.04219 0.26875 0.22913
 C1591 C 1.05133 0.26141 0.21813
 C1592 C 1.06329 0.26929 0.21078
 C1593 C 1.08551 0.26850 0.19379
 C1594 C 1.07281 0.26142 0.20048
 H1595 H 1.09266 0.26183 0.18609
 H1596 H 1.07058 0.24949 0.19778
 H1597 H 1.10983 0.28321 0.18339
 H1598 H 1.10086 0.32552 0.20729
 H1599 H 1.03752 0.29010 0.24073
 H1600 H 1.04965 0.24927 0.21597
 H1601 H 1.07784 0.31479 0.21833
 H1602 H 1.05762 0.30433 0.22766
 C1603 C 1.08109 0.79251 0.70774
 C1604 C 1.09033 0.80284 0.71623
 C1605 C 1.10370 0.80910 0.70969
 C1606 C 1.10829 0.80507 0.69480
 C1607 C 1.09911 0.79483 0.68640
 C1608 C 1.08568 0.78866 0.69274
 C1609 C 1.06719 0.78566 0.71539
 C1610 C 1.05728 0.77513 0.70805
 C1611 C 1.04545 0.76791 0.71620
 C1612 C 1.04314 0.77118 0.73172
 C1613 C 1.05229 0.78228 0.73889
 C1614 C 1.06428 0.78949 0.73089
 C1615 C 1.08642 0.80660 0.73133
 C1616 C 1.07373 0.80000 0.73854
 H1617 H 1.09349 0.81451 0.73783
 H1618 H 1.07144 0.80297 0.75038
 H1619 H 1.11074 0.81683 0.71642
 H1620 H 1.10223 0.79157 0.67485
 H1621 H 1.03858 0.75919 0.71059
 H1622 H 1.05057 0.78464 0.75097
 H1623 H 1.07919 0.78077 0.68575
 H1624 H 1.05876 0.77194 0.69620
 C1625 C 0.41934 0.70751 0.70811
 C1626 C 0.41020 0.71611 0.69776
 C1627 C 0.39692 0.70964 0.69127
 C1628 C 0.39233 0.69468 0.69502
 C1629 C 0.40137 0.68616 0.70530
 C1630 C 0.41471 0.69244 0.71174
 C1631 C 0.43315 0.71509 0.71517
 C1632 C 0.44297 0.70767 0.72575
 C1633 C 0.45474 0.71578 0.73312
 C1634 C 0.45707 0.73134 0.72995
 C1635 C 0.44803 0.73858 0.71881
 C1636 C 0.43611 0.73064 0.71147
 C1637 C 0.41414 0.73126 0.69417
 C1638 C 0.42677 0.73839 0.70093
 H1639 H 0.40714 0.73784 0.68625
 H1640 H 0.42909 0.75026 0.69807
 H1641 H 0.38998 0.71649 0.68356
 H1642 H 0.39821 0.67455 0.70836
 H1643 H 0.46156 0.71011 0.74185
 H1644 H 0.44980 0.75068 0.71650
 H1645 H 0.42112 0.68536 0.71962
 H1646 H 0.44145 0.69580 0.72886
 C1647 C 0.42001 0.20750 0.20739
 C1648 C 0.41086 0.19718 0.21600
 C1649 C 0.39744 0.19087 0.20959
 C1650 C 0.39272 0.19485 0.19473
 C1651 C 0.40183 0.20506 0.18622
 C1652 C 0.41529 0.21128 0.19241
 C1653 C 0.43394 0.21443 0.21488
 C1654 C 0.44376 0.22495 0.20740
 C1655 C 0.45557 0.23231 0.21542
 C1656 C 0.45797 0.22917 0.23095
 C1657 C 0.44897 0.21803 0.23824
 C1658 C 0.43698 0.21069 0.23038
 C1659 C 0.41491 0.19349 0.23108
 C1660 C 0.42763 0.20017 0.23815
 H1661 H 0.40791 0.18560 0.23768
 H1662 H 0.43002 0.19728 0.24999
 H1663 H 0.39046 0.18316 0.21641
 H1664 H 0.39861 0.20829 0.17469
 H1665 H 0.46236 0.24103 0.20972
 H1666 H 0.45079 0.21575 0.25033
 H1667 H 0.42170 0.21915 0.18534
 H1668 H 0.44220 0.22804 0.19554
 C1669 C -0.08067 0.70779 0.20807
 C1670 C -0.08984 0.71639 0.19775
 C1671 C -0.10324 0.70999 0.19146
 C1672 C -0.10791 0.69508 0.19534
 C1673 C -0.09881 0.68655 0.20556
 C1674 C -0.08536 0.69277 0.21182
 C1675 C -0.06673 0.71532 0.21495
 C1676 C -0.05691 0.70792 0.22555
 C1677 C -0.04505 0.71601 0.23279
 C1678 C -0.04259 0.73151 0.22945
 C1679 C -0.05162 0.73870 0.21827
 C1680 C -0.06366 0.73079 0.21107
 C1681 C -0.08580 0.73147 0.19399
 C1682 C -0.07303 0.73854 0.20056
 H1683 H -0.09281 0.73805 0.18609
 H1684 H -0.07063 0.75036 0.19758
 H1685 H -0.11021 0.71684 0.18377
 H1686 H -0.10200 0.67498 0.20872
 H1687 H -0.03826 0.71038 0.24158
 H1688 H -0.04979 0.75077 0.21585
 H1689 H -0.07891 0.68569 0.21967
 H1690 H -0.05853 0.69610 0.22880
 C1691 C -0.08061 0.20746 0.70807
 C1692 C -0.08986 0.21611 0.69786
 C1693 C -0.10323 0.20969 0.69151
 C1694 C -0.10780 0.19471 0.69525
 C1695 C -0.09863 0.18614 0.70538
 C1696 C -0.08521 0.19238 0.71168
 C1697 C -0.06670 0.21500 0.71500
 C1698 C -0.05681 0.20754 0.72548
 C1699 C -0.04497 0.21562 0.73278
 C1700 C -0.04262 0.23118 0.72962
 C1701 C -0.05173 0.23844 0.71855
 C1702 C -0.06375 0.23054 0.71130
 C1703 C -0.08592 0.23126 0.69426
 C1704 C -0.07319 0.23834 0.70089
 H1705 H -0.09300 0.23788 0.68644
 H1706 H -0.07087 0.25022 0.69803
 H1707 H -0.11026 0.21657 0.68390
 H1708 H -0.10175 0.17452 0.70842
 H1709 H -0.03811 0.20993 0.74147
 H1710 H -0.04997 0.25054 0.71625
 H1711 H -0.07871 0.18526 0.71945
 H1712 H -0.05833 0.19567 0.72858
 C1713 C 0.29273 0.41962 0.29236
 C1714 C 0.30267 0.41011 0.28365
 C1715 C 0.30892 0.39674 0.29014
 C1716 C 0.30526 0.39243 0.30520
 C1717 C 0.29543 0.40189 0.31382
 C1718 C 0.28929 0.41532 0.30754
 C1719 C 0.28580 0.43347 0.28477
 C1720 C 0.27558 0.44360 0.29230
 C1721 C 0.26819 0.45535 0.28423
 C1722 C 0.27099 0.45738 0.26857
 C1723 C 0.28184 0.44804 0.26120
 C1724 C 0.28919 0.43610 0.26911
 C1725 C 0.30603 0.41376 0.26839
 C1726 C 0.29937 0.42643 0.26126
 H1727 H 0.31365 0.40650 0.26172
 H1728 H 0.30200 0.42851 0.24930
 H1729 H 0.31633 0.38948 0.28326
 H1730 H 0.29250 0.39899 0.32551
 H1731 H 0.25970 0.46240 0.29001
 H1732 H 0.28386 0.44956 0.24902
 H1733 H 0.28174 0.42203 0.31472
 H1734 H 0.27275 0.44234 0.30427
 C1735 C 0.29232 -0.08056 0.79269
 C1736 C 0.30323 -0.08930 0.78435
 C1737 C 0.30969 -0.10261 0.79080
 C1738 C 0.30508 -0.10785 0.80537
 C1739 C 0.29406 -0.09917 0.81346
 C1740 C 0.28786 -0.08573 0.80730
 C1741 C 0.28537 -0.06667 0.78522
 C1742 C 0.27470 -0.05696 0.79267
 C1743 C 0.26731 -0.04517 0.78465
 C1744 C 0.27056 -0.04271 0.76915
 C1745 C 0.28187 -0.05160 0.76190
 C1746 C 0.28932 -0.06350 0.76980
 C1747 C 0.30724 -0.08502 0.76940
 C1748 C 0.30028 -0.07253 0.76221
 H1749 H 0.31553 -0.09173 0.76296
 H1750 H 0.30340 -0.07001 0.75045
 H1751 H 0.31795 -0.10908 0.78411
 H1752 H 0.29018 -0.10256 0.82473
 H1753 H 0.25851 -0.03844 0.79034
 H1754 H 0.28430 -0.04969 0.74985
 H1755 H 0.27940 -0.07972 0.81408
 H1756 H 0.27156 -0.05854 0.80451
 C1757 C 0.79216 0.41997 0.79316
 C1758 C 0.80386 0.41188 0.78526
 C1759 C 0.81026 0.39851 0.79163
 C1760 C 0.80488 0.39261 0.80568
 C1761 C 0.79312 0.40070 0.81336
 C1762 C 0.78692 0.41416 0.80726
 C1763 C 0.78529 0.43393 0.78575
 C1764 C 0.77377 0.44297 0.79277
 C1765 C 0.76653 0.45479 0.78468
 C1766 C 0.77077 0.45794 0.76955
 C1767 C 0.78290 0.44977 0.76281
 C1768 C 0.79021 0.43784 0.77078
 C1769 C 0.80878 0.41687 0.77081
 C1770 C 0.80196 0.42946 0.76364
 H1771 H 0.81773 0.41068 0.76472
 H1772 H 0.80582 0.43255 0.75224
 H1773 H 0.81914 0.39253 0.78528
 H1774 H 0.78857 0.39676 0.82419
 H1775 H 0.75707 0.46096 0.78995
 H1776 H 0.78606 0.45220 0.75103
 H1777 H 0.77783 0.41965 0.81367
 H1778 H 0.76986 0.44083 0.80430
 C1779 C 0.79182 -0.08056 0.29338
 C1780 C 0.80370 -0.08856 0.28565
 C1781 C 0.81008 -0.10191 0.29208
 C1782 C 0.80455 -0.10786 0.30605
 C1783 C 0.79257 -0.09992 0.31353
 C1784 C 0.78636 -0.08649 0.30737
 C1785 C 0.78502 -0.06660 0.28592
 C1786 C 0.77334 -0.05765 0.29280
 C1787 C 0.76622 -0.04579 0.28466
 C1788 C 0.77071 -0.04251 0.26963
 C1789 C 0.78298 -0.05060 0.26303
 C1790 C 0.79018 -0.06257 0.27107
 C1791 C 0.80884 -0.08346 0.27131
 C1792 C 0.80210 -0.07087 0.26409
 H1793 H 0.81791 -0.08959 0.26534
 H1794 H 0.80614 -0.06770 0.25278
 H1795 H 0.81912 -0.10778 0.28586
 H1796 H 0.78788 -0.10392 0.32428
 H1797 H 0.75665 -0.03968 0.28981
 H1798 H 0.78634 -0.04807 0.25133
 H1799 H 0.77714 -0.08107 0.31365
 H1800 H 0.76922 -0.05988 0.30424
 C1801 C 0.29211 0.58007 0.70694
 C1802 C 0.30248 0.58923 0.71548
 C1803 C 0.30878 0.60256 0.70902
 C1804 C 0.30479 0.60718 0.69413
 C1805 C 0.29451 0.59809 0.68568
 C1806 C 0.28827 0.58471 0.69194
 C1807 C 0.28519 0.56623 0.71451
 C1808 C 0.27462 0.55639 0.70712
 C1809 C 0.26730 0.54463 0.71522
 C1810 C 0.27051 0.54232 0.73076
 C1811 C 0.28168 0.55136 0.73797
 C1812 C 0.28899 0.56328 0.73002
 C1813 C 0.30622 0.58527 0.73058
 C1814 C 0.29955 0.57263 0.73772
 H1815 H 0.31416 0.59228 0.73712
 H1816 H 0.30251 0.57031 0.74956
 H1817 H 0.31652 0.60953 0.71581
 H1818 H 0.29126 0.60126 0.67414
 H1819 H 0.25855 0.53781 0.70958
 H1820 H 0.28402 0.54962 0.75006
 H1821 H 0.28036 0.57828 0.68491
 H1822 H 0.27148 0.55788 0.69526
 C1823 C 0.29224 1.08021 0.20692
 C1824 C 0.30363 1.08850 0.21505
 C1825 C 0.31002 1.10187 0.20872
 C1826 C 0.30507 1.10739 0.19442
 C1827 C 0.29381 1.09908 0.18638
 C1828 C 0.28750 1.08570 0.19249
 C1829 C 0.28522 1.06636 0.21438
 C1830 C 0.27371 1.05738 0.20731
 C1831 C 0.26634 1.04567 0.21541
 C1832 C 0.27042 1.04255 0.23058
 C1833 C 0.28251 1.05069 0.23741
 C1834 C 0.28992 1.06255 0.22945
 C1835 C 0.30829 1.08364 0.22963
 C1836 C 0.30151 1.07102 0.23672
 H1837 H 0.31704 1.08995 0.23585
 H1838 H 0.30518 1.06801 0.24820
 H1839 H 0.31857 1.10817 0.21518
 H1840 H 0.28978 1.10289 0.17529
 H1841 H 0.25690 1.03953 0.21009
 H1842 H 0.28552 1.04831 0.24923
 H1843 H 0.27878 1.07998 0.18581
 H1844 H 0.26987 1.05951 0.19576
 C1845 C 0.79205 0.57990 0.20680
 C1846 C 0.80327 0.58833 0.21501
 C1847 C 0.80967 0.60168 0.20866
 C1848 C 0.80491 0.60703 0.19425
 C1849 C 0.79383 0.59860 0.18611
 C1850 C 0.78750 0.58522 0.19225
 C1851 C 0.78501 0.56608 0.21429
 C1852 C 0.77362 0.55697 0.20720
 C1853 C 0.76625 0.54527 0.21532
 C1854 C 0.77021 0.54231 0.23056
 C1855 C 0.78218 0.55057 0.23742
 C1856 C 0.78957 0.56243 0.22944
 C1857 C 0.80778 0.58364 0.22970
 C1858 C 0.80100 0.57103 0.23679
 H1859 H 0.81640 0.59006 0.23597
 H1860 H 0.80456 0.56814 0.24834
 H1861 H 0.81808 0.60809 0.21520
 H1862 H 0.78996 0.60229 0.17492
 H1863 H 0.75689 0.53903 0.20998
 H1864 H 0.78510 0.54831 0.24929
 H1865 H 0.77893 0.57937 0.18549
 H1866 H 0.76987 0.55900 0.19560
 C1867 C 0.79204 1.07961 0.70682
 C1868 C 0.80348 1.08791 0.71487
 C1869 C 0.80986 1.10126 0.70848
 C1870 C 0.80490 1.10672 0.69417
 C1871 C 0.79361 1.09842 0.68619
 C1872 C 0.78728 1.08506 0.69238
 C1873 C 0.78505 1.06579 0.71436
 C1874 C 0.77345 1.05681 0.70744
 C1875 C 0.76616 1.04510 0.71563
 C1876 C 0.77043 1.04199 0.73076
 C1877 C 0.78259 1.05013 0.73743
 C1878 C 0.78989 1.06200 0.72939
 C1879 C 0.80823 1.08310 0.72944
 C1880 C 0.80152 1.07048 0.73657
 H1881 H 0.81701 1.08943 0.73559
 H1882 H 0.80528 1.06748 0.74803
 H1883 H 0.81843 1.10756 0.71492
 H1884 H 0.78957 1.10220 0.67509
 H1885 H 0.75664 1.03898 0.71044
 H1886 H 0.78575 1.04775 0.74922
 H1887 H 0.77854 1.07931 0.68574
 H1888 H 0.76947 1.05896 0.69593
 C1889 C 0.70784 0.58083 0.29231
 C1890 C 0.71671 0.58991 0.30247
 C1891 C 0.71047 0.60334 0.30881
 C1892 C 0.69548 0.60815 0.30508
 C1893 C 0.68670 0.59913 0.29503
 C1894 C 0.69275 0.58565 0.28875
 C1895 C 0.71518 0.56687 0.28534
 C1896 C 0.70748 0.55713 0.27492
 C1897 C 0.71538 0.54525 0.26753
 C1898 C 0.73102 0.54270 0.27054
 C1899 C 0.73852 0.55164 0.28157
 C1900 C 0.73079 0.56370 0.28892
 C1901 C 0.73190 0.58574 0.30598
 C1902 C 0.73881 0.57297 0.29928
 H1903 H 0.73869 0.59267 0.31376
 H1904 H 0.75073 0.57047 0.30205
 H1905 H 0.71751 0.61025 0.31639
 H1906 H 0.67507 0.60242 0.29200
 H1907 H 0.70951 0.53854 0.25888
 H1908 H 0.75068 0.54972 0.28374
 H1909 H 0.68546 0.57929 0.28103
 H1910 H 0.69554 0.55882 0.27193
 C1911 C 0.70795 1.08039 0.79255
 C1912 C 0.71642 1.08914 0.80328
 C1913 C 0.70997 1.10243 0.80975
 C1914 C 0.69523 1.10764 0.80538
 C1915 C 0.68698 1.09897 0.79452
 C1916 C 0.69317 1.08554 0.78829
 C1917 C 0.71543 1.06646 0.78566
 C1918 C 0.70792 1.05674 0.77510
 C1919 C 0.71596 1.04488 0.76783
 C1920 C 0.73155 1.04236 0.77107
 C1921 C 0.73886 1.05128 0.78224
 C1922 C 0.73095 1.06325 0.78956
 C1923 C 0.73150 1.08488 0.80718
 C1924 C 0.73867 1.07233 0.80032
 H1925 H 0.73803 1.09162 0.81533
 H1926 H 0.75052 1.06981 0.80335
 H1927 H 0.71680 1.10892 0.81784
 H1928 H 0.67559 1.10238 0.79083
 H1929 H 0.71022 1.03814 0.75910
 H1930 H 0.75099 1.04937 0.78463
 H1931 H 0.68627 1.07950 0.77998
 H1932 H 0.69600 1.05837 0.77198
 C1933 C 0.20754 0.58027 0.79213
 C1934 C 0.21636 0.58913 0.80252
 C1935 C 0.21014 0.60252 0.80897
 C1936 C 0.19523 0.60746 0.80515
 C1937 C 0.18649 0.59865 0.79487
 C1938 C 0.19252 0.58523 0.78847
 C1939 C 0.21487 0.56637 0.78505
 C1940 C 0.20725 0.55689 0.77434
 C1941 C 0.21517 0.54507 0.76689
 C1942 C 0.23072 0.54234 0.77012
 C1943 C 0.23812 0.55100 0.78142
 C1944 C 0.23039 0.56301 0.78882
 C1945 C 0.23146 0.58480 0.80618
 C1946 C 0.23835 0.57206 0.79943
 H1947 H 0.23820 0.59157 0.81415
 H1948 H 0.25021 0.56942 0.80233
 H1949 H 0.21714 0.60926 0.81671
 H1950 H 0.17491 0.60206 0.79176
 H1951 H 0.20939 0.53854 0.75803
 H1952 H 0.25023 0.54894 0.78376
 H1953 H 0.18529 0.57903 0.78057
 H1954 H 0.19538 0.55874 0.77117
 C1955 C 0.20799 1.08084 0.29248
 C1956 C 0.19770 1.09007 0.28388
 C1957 C 0.19146 1.10347 0.29030
 C1958 C 0.19546 1.10809 0.30518
 C1959 C 0.20566 1.09892 0.31368
 C1960 C 0.21181 1.08547 0.30747
 C1961 C 0.21486 1.06693 0.28495
 C1962 C 0.22536 1.05704 0.29240
 C1963 C 0.23266 1.04521 0.28434
 C1964 C 0.22948 1.04290 0.26880
 C1965 C 0.21838 1.05200 0.26153
 C1966 C 0.21110 1.06399 0.26943
 C1967 C 0.19398 1.08611 0.26878
 C1968 C 0.20061 1.07341 0.26168
 H1969 H 0.18610 1.09317 0.26221
 H1970 H 0.19768 1.07109 0.24983
 H1971 H 0.18377 1.11049 0.28349
 H1972 H 0.20887 1.10206 0.32524
 H1973 H 0.24136 1.03835 0.29002
 H1974 H 0.21608 1.05026 0.24944
 H1975 H 0.21966 1.07899 0.31454
 H1976 H 0.22848 1.05853 0.30426
 C1977 C 0.70770 0.41974 0.70838
 C1978 C 0.71636 0.41076 0.69795
 C1979 C 0.71000 0.39740 0.69161
 C1980 C 0.69510 0.39258 0.69559
 C1981 C 0.68652 0.40149 0.70594
 C1982 C 0.69269 0.41490 0.71223
 C1983 C 0.71519 0.43365 0.71530
 C1984 C 0.70773 0.44332 0.72597
 C1985 C 0.71578 0.45517 0.73321
 C1986 C 0.73133 0.45774 0.72982
 C1987 C 0.73859 0.44886 0.71857
 C1988 C 0.73070 0.43684 0.71136
 C1989 C 0.73146 0.41492 0.69413
 C1990 C 0.73850 0.42764 0.70074
 H1991 H 0.73807 0.40805 0.68613
 H1992 H 0.75034 0.43015 0.69770
 H1993 H 0.71689 0.39058 0.68382
 H1994 H 0.67495 0.39817 0.70917
 H1995 H 0.71011 0.46185 0.74204
 H1996 H 0.75069 0.45078 0.71611
 H1997 H 0.68557 0.42120 0.72018
 H1998 H 0.69587 0.44160 0.72926
 C1999 C 0.70853 -0.07992 0.20692
 C2000 C 0.69711 -0.08821 0.21501
 C2001 C 0.69068 -0.10153 0.20862
 C2002 C 0.69559 -0.10699 0.19428
 C2003 C 0.70685 -0.09868 0.18626
 C2004 C 0.71323 -0.08534 0.19245
 C2005 C 0.71559 -0.06614 0.21446
 C2006 C 0.72718 -0.05718 0.20749
 C2007 C 0.73454 -0.04551 0.21565
 C2008 C 0.73037 -0.04241 0.23081
 C2009 C 0.71825 -0.05055 0.23756
 C2010 C 0.71085 -0.06238 0.22954
 C2011 C 0.69243 -0.08341 0.22961
 C2012 C 0.69922 -0.07084 0.23675
 H2013 H 0.68364 -0.08972 0.23578
 H2014 H 0.69552 -0.06786 0.24824
 H2015 H 0.68210 -0.10781 0.21507
 H2016 H 0.71087 -0.10244 0.17515
 H2017 H 0.74402 -0.03938 0.21040
 H2018 H 0.71516 -0.04818 0.24937
 H2019 H 0.72195 -0.07960 0.18579
 H2020 H 0.73109 -0.05931 0.19596
 C2021 C 0.20691 0.42004 0.20790
 C2022 C 0.21518 0.41178 0.19660
 C2023 C 0.20886 0.39847 0.19011
 C2024 C 0.19438 0.39301 0.19479
 C2025 C 0.18618 0.40126 0.20595
 C2026 C 0.19232 0.41459 0.21241
 C2027 C 0.21439 0.43384 0.21499
 C2028 C 0.20728 0.44277 0.22650
 C2029 C 0.21541 0.45449 0.23385
 C2030 C 0.23066 0.45766 0.22973
 C2031 C 0.23752 0.44954 0.21771
 C2032 C 0.22956 0.43766 0.21035
 C2033 C 0.22989 0.41660 0.19208
 C2034 C 0.23695 0.42921 0.19887
 H2035 H 0.23621 0.41028 0.18341
 H2036 H 0.24852 0.43222 0.19527
 H2037 H 0.21547 0.39222 0.18165
 H2038 H 0.17495 0.39749 0.20976
 H2039 H 0.21007 0.46060 0.24327
 H2040 H 0.24940 0.45196 0.21467
 H2041 H 0.18551 0.42031 0.22103
 H2042 H 0.19568 0.44058 0.23035
 C2043 C 0.20836 -0.08014 0.70691
 C2044 C 0.19695 -0.08849 0.71496
 C2045 C 0.19066 -0.10188 0.70857
 C2046 C 0.19569 -0.10734 0.69427
 C2047 C 0.20697 -0.09899 0.68632
 C2048 C 0.21320 -0.08559 0.69249
 C2049 C 0.21526 -0.06627 0.71443
 C2050 C 0.22679 -0.05722 0.70748
 C2051 C 0.23402 -0.04548 0.71564
 C2052 C 0.22977 -0.04238 0.73078
 C2053 C 0.21767 -0.05058 0.73749
 C2054 C 0.21041 -0.06249 0.72947
 C2055 C 0.19217 -0.08369 0.72952
 C2056 C 0.19883 -0.07103 0.73666
 H2057 H 0.18341 -0.09005 0.73568
 H2058 H 0.19505 -0.06805 0.74812
 H2059 H 0.18208 -0.10820 0.71498
 H2060 H 0.21108 -0.10276 0.67524
 H2061 H 0.24350 -0.03930 0.71042
 H2062 H 0.21454 -0.04822 0.74929
 H2063 H 0.22194 -0.07981 0.68587
 H2064 H 0.23076 -0.05935 0.69597
 C2065 C 0.29222 0.29261 0.42073
 C2066 C 0.30236 0.28383 0.41150
 C2067 C 0.30867 0.29014 0.39810
 C2068 C 0.30492 0.30511 0.39349
 C2069 C 0.29491 0.31382 0.40268
 C2070 C 0.28867 0.30770 0.41612
 C2071 C 0.28524 0.28517 0.43462
 C2072 C 0.27480 0.29277 0.44447
 C2073 C 0.26736 0.28478 0.45625
 C2074 C 0.27035 0.26918 0.45857
 C2075 C 0.28141 0.26178 0.44952
 C2076 C 0.28880 0.26959 0.43756
 C2077 C 0.30587 0.26865 0.41546
 C2078 C 0.29918 0.26167 0.42817
 H2079 H 0.31365 0.26194 0.40841
 H2080 H 0.30196 0.24977 0.43050
 H2081 H 0.31620 0.28317 0.39106
 H2082 H 0.29189 0.32545 0.39956
 H2083 H 0.25870 0.29058 0.46306
 H2084 H 0.28358 0.24964 0.45127
 H2085 H 0.28097 0.31492 0.42262
 H2086 H 0.27183 0.30468 0.44297
 C2087 C 0.29255 0.79279 -0.07916
 C2088 C 0.30284 0.78423 -0.08842
 C2089 C 0.30906 0.79072 -0.10176
 C2090 C 0.30509 0.80566 -0.10629
 C2091 C 0.29488 0.81413 -0.09711
 C2092 C 0.28871 0.80783 -0.08372
 C2093 C 0.28572 0.78517 -0.06530
 C2094 C 0.27519 0.79256 -0.05539
 C2095 C 0.26795 0.78442 -0.04361
 C2096 C 0.27121 0.76886 -0.04135
 C2097 C 0.28235 0.76167 -0.05046
 C2098 C 0.28957 0.76964 -0.06241
 C2099 C 0.30662 0.76910 -0.08454
 C2100 C 0.30007 0.76194 -0.07186
 H2101 H 0.31452 0.76256 -0.09161
 H2102 H 0.30306 0.75008 -0.06957
 H2103 H 0.31673 0.78390 -0.10881
 H2104 H 0.29165 0.82571 -0.10020
 H2105 H 0.25920 0.79005 -0.03675
 H2106 H 0.28471 0.74956 -0.04876
 H2107 H 0.28085 0.81487 -0.07721
 H2108 H 0.27199 0.80442 -0.05686
 C2109 C 0.79235 0.29289 -0.07953
 C2110 C 0.80255 0.28426 -0.08883
 C2111 C 0.80882 0.29074 -0.10215
 C2112 C 0.80499 0.30573 -0.10660
 C2113 C 0.79493 0.31430 -0.09735
 C2114 C 0.78871 0.30801 -0.08398
 C2115 C 0.78541 0.28528 -0.06574
 C2116 C 0.77491 0.29271 -0.05583
 C2117 C 0.76754 0.28457 -0.04413
 C2118 C 0.77065 0.26897 -0.04196
 C2119 C 0.78176 0.26173 -0.05106
 C2120 C 0.78908 0.26969 -0.06293
 C2121 C 0.80617 0.26908 -0.08502
 C2122 C 0.79953 0.26193 -0.07239
 H2123 H 0.81400 0.26249 -0.09212
 H2124 H 0.80238 0.25003 -0.07016
 H2125 H 0.81640 0.28387 -0.10924
 H2126 H 0.79185 0.32594 -0.10037
 H2127 H 0.75883 0.29025 -0.03726
 H2128 H 0.78401 0.24959 -0.04941
 H2129 H 0.78095 0.31512 -0.07743
 H2130 H 0.77183 0.30461 -0.05724
 C2131 C 0.79238 0.79254 0.42109
 C2132 C 0.80259 0.78392 0.41178
 C2133 C 0.80878 0.79036 0.39840
 C2134 C 0.80488 0.80532 0.39389
 C2135 C 0.79483 0.81389 0.40316
 C2136 C 0.78868 0.80763 0.41658
 C2137 C 0.78553 0.78496 0.43495
 C2138 C 0.77500 0.79236 0.44486
 C2139 C 0.76774 0.78423 0.45664
 C2140 C 0.77099 0.76867 0.45891
 C2141 C 0.78213 0.76147 0.44980
 C2142 C 0.78933 0.76941 0.43784
 C2143 C 0.80630 0.76877 0.41565
 C2144 C 0.79977 0.76166 0.42836
 H2145 H 0.81413 0.76218 0.40854
 H2146 H 0.80271 0.74979 0.43064
 H2147 H 0.81636 0.78349 0.39131
 H2148 H 0.79169 0.82551 0.40010
 H2149 H 0.75899 0.78987 0.46349
 H2150 H 0.78448 0.74936 0.45150
 H2151 H 0.78093 0.81474 0.42315
 H2152 H 0.77182 0.80422 0.44337
 C2153 C 0.70836 0.29306 0.57985
 C2154 C 0.69793 0.28441 0.58884
 C2155 C 0.69164 0.29067 0.60228
 C2156 C 0.69570 0.30546 0.60717
 C2157 C 0.70605 0.31402 0.59825
 C2158 C 0.71227 0.30796 0.58477
 C2159 C 0.71526 0.28569 0.56588
 C2160 C 0.72590 0.29320 0.55621
 C2161 C 0.73324 0.28524 0.54435
 C2162 C 0.72997 0.26975 0.54177
 C2163 C 0.71870 0.26245 0.55062
 C2164 C 0.71139 0.27024 0.56266
 C2165 C 0.69411 0.26939 0.58461
 C2166 C 0.70076 0.26243 0.57186
 H2167 H 0.68612 0.26277 0.59148
 H2168 H 0.69775 0.25064 0.56932
 H2169 H 0.68384 0.28380 0.60910
 H2170 H 0.70936 0.32550 0.60161
 H2171 H 0.74208 0.29095 0.53769
 H2172 H 0.71633 0.25039 0.54868
 H2173 H 0.72025 0.31505 0.57849
 H2174 H 0.72910 0.30502 0.55792
 C2175 C 0.70768 0.79220 1.07960
 C2176 C 0.69759 0.78351 1.08894
 C2177 C 0.69144 0.78990 1.10239
 C2178 C 0.69532 0.80484 1.10694
 C2179 C 0.70529 0.81345 1.09765
 C2180 C 0.71136 0.80727 1.08416
 C2181 C 0.71449 0.78470 1.06566
 C2182 C 0.72485 0.79221 1.05569
 C2183 C 0.73215 0.78416 1.04387
 C2184 C 0.72909 0.76857 1.04160
 C2185 C 0.71808 0.76126 1.05075
 C2186 C 0.71083 0.76913 1.06277
 C2187 C 0.69398 0.76836 1.08504
 C2188 C 0.70051 0.76130 1.07228
 H2189 H 0.68624 0.76171 1.09218
 H2190 H 0.69767 0.74941 1.07000
 H2191 H 0.68392 0.78300 1.10950
 H2192 H 0.70841 0.82506 1.10073
 H2193 H 0.74079 0.78989 1.03698
 H2194 H 0.71586 0.74913 1.04904
 H2195 H 0.71905 0.81441 1.07759
 H2196 H 0.72790 0.80410 1.05716
 C2197 C 0.20816 0.29257 1.07995
 C2198 C 0.19794 0.28382 1.08909
 C2199 C 0.19174 0.29006 1.10259
 C2200 C 0.19570 0.30491 1.10739
 C2201 C 0.20584 0.31356 1.09831
 C2202 C 0.21196 0.30752 1.08478
 C2203 C 0.21498 0.28524 1.06593
 C2204 C 0.22543 0.29283 1.05612
 C2205 C 0.23274 0.28491 1.04422
 C2206 C 0.22961 0.26938 1.04172
 C2207 C 0.21850 0.26199 1.05070
 C2208 C 0.21123 0.26974 1.06278
 C2209 C 0.19423 0.26876 1.08494
 C2210 C 0.20079 0.26185 1.07212
 H2211 H 0.18639 0.26207 1.09192
 H2212 H 0.19787 0.25002 1.06964
 H2213 H 0.18410 0.28313 1.10953
 H2214 H 0.20905 0.32508 1.10160
 H2215 H 0.24146 0.29069 1.03746
 H2216 H 0.21623 0.24990 1.04881
 H2217 H 0.21977 0.31470 1.07838
 H2218 H 0.22852 0.30469 1.05776
 C2219 C 0.20812 0.79258 0.57894
 C2220 C 0.19796 0.78387 0.58819
 C2221 C 0.19172 0.79022 0.60160
 C2222 C 0.19555 0.80516 0.60620
 C2223 C 0.20558 0.81380 0.59700
 C2224 C 0.21176 0.80764 0.58354
 C2225 C 0.21504 0.78510 0.56504
 C2226 C 0.22549 0.79262 0.55517
 C2227 C 0.23288 0.78458 0.54339
 C2228 C 0.22982 0.76900 0.54108
 C2229 C 0.21873 0.76168 0.55013
 C2230 C 0.21139 0.76954 0.56210
 C2231 C 0.19437 0.76872 0.58423
 C2232 C 0.20099 0.76170 0.57151
 H2233 H 0.18657 0.76207 0.59129
 H2234 H 0.19816 0.74982 0.56917
 H2235 H 0.18418 0.78330 0.60866
 H2236 H 0.20866 0.82540 0.60013
 H2237 H 0.24157 0.79031 0.53657
 H2238 H 0.21651 0.74956 0.54839
 H2239 H 0.21948 0.81481 0.57703
 H2240 H 0.22852 0.80451 0.55667
 C2241 C 0.29277 0.70799 0.57934
 C2242 C 0.28393 0.69774 0.58834
 C2243 C 0.29012 0.69145 0.60181
 C2244 C 0.30503 0.69531 0.60670
 C2245 C 0.31378 0.70546 0.59775
 C2246 C 0.30778 0.71170 0.58425
 C2247 C 0.28547 0.71490 0.56533
 C2248 C 0.29311 0.72544 0.55568
 C2249 C 0.28521 0.73277 0.54377
 C2250 C 0.26964 0.72956 0.54111
 C2251 C 0.26222 0.71839 0.54994
 C2252 C 0.26994 0.71113 0.56204
 C2253 C 0.26882 0.69408 0.58408
 C2254 C 0.26196 0.70067 0.57126
 H2255 H 0.26205 0.68623 0.59097
 H2256 H 0.25009 0.69777 0.56868
 H2257 H 0.28311 0.68380 0.60866
 H2258 H 0.32536 0.70860 0.60111
 H2259 H 0.29101 0.74154 0.53714
 H2260 H 0.25011 0.71606 0.54794
 H2261 H 0.31503 0.71951 0.57795
 H2262 H 0.30499 0.72860 0.55746
 C2263 C 0.29258 0.20773 1.07942
 C2264 C 0.30285 0.21635 1.08861
 C2265 C 0.30912 0.20994 1.10198
 C2266 C 0.30518 0.19503 1.10660
 C2267 C 0.29503 0.18648 1.09745
 C2268 C 0.28883 0.19270 1.08404
 C2269 C 0.28566 0.21528 1.06556
 C2270 C 0.27511 0.20784 1.05575
 C2271 C 0.26775 0.21592 1.04399
 C2272 C 0.27093 0.23147 1.04165
 C2273 C 0.28209 0.23873 1.05067
 C2274 C 0.28941 0.23081 1.06261
 C2275 C 0.30655 0.23147 1.08465
 C2276 C 0.29992 0.23856 1.07197
 H2277 H 0.31444 0.23805 1.09167
 H2278 H 0.30284 0.25042 1.06963
 H2279 H 0.31677 0.21679 1.10898
 H2280 H 0.29185 0.17491 1.10060
 H2281 H 0.25899 0.21025 1.03721
 H2282 H 0.28439 0.25083 1.04891
 H2283 H 0.28101 0.18561 1.07758
 H2284 H 0.27197 0.19597 1.05727
 C2285 C 0.79247 0.70749 1.07948
 C2286 C 0.80251 0.71630 1.08876
 C2287 C 0.80876 0.70999 1.10220
 C2288 C 0.80500 0.69503 1.10680
 C2289 C 0.79510 0.68631 1.09755
 C2290 C 0.78894 0.69241 1.08407
 C2291 C 0.78551 0.71491 1.06557
 C2292 C 0.77520 0.70726 1.05566
 C2293 C 0.76773 0.71521 1.04389
 C2294 C 0.77057 0.73083 1.04160
 C2295 C 0.78155 0.73829 1.05068
 C2296 C 0.78897 0.73051 1.06265
 C2297 C 0.80596 0.73148 1.08481
 C2298 C 0.79928 0.73845 1.07208
 H2299 H 0.81367 0.73821 1.09189
 H2300 H 0.80199 0.75037 1.06977
 H2301 H 0.81623 0.71696 1.10928
 H2302 H 0.79208 0.67468 1.10067
 H2303 H 0.75913 0.70937 1.03705
 H2304 H 0.78362 0.75044 1.04894
 H2305 H 0.78129 0.68518 1.07755
 H2306 H 0.77232 0.69533 1.05714
 C2307 C 0.79250 0.20785 0.57972
 C2308 C 0.80261 0.21649 0.58907
 C2309 C 0.80879 0.21004 0.60247
 C2310 C 0.80492 0.19508 0.60697
 C2311 C 0.79494 0.18651 0.59766
 C2312 C 0.78884 0.19276 0.58421
 C2313 C 0.78567 0.21542 0.56583
 C2314 C 0.77526 0.20797 0.55587
 C2315 C 0.76798 0.21607 0.54408
 C2316 C 0.77110 0.23165 0.54184
 C2317 C 0.78212 0.23892 0.55101
 C2318 C 0.78936 0.23099 0.56299
 C2319 C 0.80624 0.23166 0.58523
 C2320 C 0.79970 0.23877 0.57252
 H2321 H 0.81399 0.23827 0.59239
 H2322 H 0.80255 0.25066 0.57027
 H2323 H 0.81632 0.21691 0.60959
 H2324 H 0.79183 0.17489 0.60070
 H2325 H 0.75932 0.21039 0.53718
 H2326 H 0.78438 0.25104 0.54933
 H2327 H 0.78115 0.18564 0.57762
 H2328 H 0.77218 0.19608 0.55732
 C2329 C 0.70805 0.70742 0.42090
 C2330 C 0.71690 0.69748 0.41153
 C2331 C 0.71054 0.69132 0.39808
 C2332 C 0.69546 0.69502 0.39358
 C2333 C 0.68668 0.70482 0.40292
 C2334 C 0.69285 0.71091 0.41640
 C2335 C 0.71554 0.71425 0.43483
 C2336 C 0.70791 0.72454 0.44479
 C2337 C 0.71595 0.73184 0.45661
 C2338 C 0.73163 0.72885 0.45890
 C2339 C 0.73906 0.71793 0.44974
 C2340 C 0.73121 0.71070 0.43771
 C2341 C 0.73216 0.69400 0.41540
 C2342 C 0.73918 0.70051 0.42818
 H2343 H 0.73893 0.68637 0.40824
 H2344 H 0.75116 0.69777 0.43045
 H2345 H 0.71756 0.68394 0.39094
 H2346 H 0.67496 0.70779 0.39987
 H2347 H 0.71013 0.74042 0.46349
 H2348 H 0.75126 0.71577 0.45144
 H2349 H 0.68556 0.71844 0.42302
 H2350 H 0.69594 0.72752 0.44331
 C2351 C 0.70797 0.20784 -0.08030
 C2352 C 0.71692 0.19780 -0.08947
 C2353 C 0.71075 0.19158 -0.10298
 C2354 C 0.69575 0.19530 -0.10774
 C2355 C 0.68688 0.20520 -0.09859
 C2356 C 0.69286 0.21136 -0.08506
 C2357 C 0.71526 0.21473 -0.06628
 C2358 C 0.70753 0.22513 -0.05652
 C2359 C 0.71541 0.23248 -0.04461
 C2360 C 0.73103 0.22943 -0.04205
 C2361 C 0.73854 0.21839 -0.05101
 C2362 C 0.73086 0.21112 -0.06312
 C2363 C 0.73210 0.19427 -0.08532
 C2364 C 0.73894 0.20083 -0.07247
 H2365 H 0.73894 0.18657 -0.09232
 H2366 H 0.75086 0.19804 -0.06998
 H2367 H 0.71784 0.18411 -0.10996
 H2368 H 0.67522 0.20820 -0.10182
 H2369 H 0.70952 0.24115 -0.03791
 H2370 H 0.75071 0.21618 -0.04910
 H2371 H 0.68550 0.21896 -0.07860
 H2372 H 0.69559 0.22816 -0.05821
 C2373 C 0.20875 0.70723 -0.07933
 C2374 C 0.19831 0.71585 -0.08836
 C2375 C 0.19208 0.70953 -0.10177
 C2376 C 0.19619 0.69473 -0.10660
 C2377 C 0.20653 0.68619 -0.09763
 C2378 C 0.21271 0.69231 -0.08417
 C2379 C 0.21562 0.71467 -0.06540
 C2380 C 0.22630 0.70721 -0.05572
 C2381 C 0.23360 0.71524 -0.04390
 C2382 C 0.23023 0.73072 -0.04138
 C2383 C 0.21893 0.73797 -0.05024
 C2384 C 0.21166 0.73012 -0.06224
 C2385 C 0.19442 0.73087 -0.08419
 C2386 C 0.20101 0.73788 -0.07146
 H2387 H 0.18641 0.73745 -0.09110
 H2388 H 0.19794 0.74967 -0.06896
 H2389 H 0.18429 0.71639 -0.10864
 H2390 H 0.20987 0.67470 -0.10095
 H2391 H 0.24247 0.70958 -0.03723
 H2392 H 0.21649 0.75003 -0.04833
 H2393 H 0.22068 0.68523 -0.07785
 H2394 H 0.22957 0.69540 -0.05739
 C2395 C 0.20728 0.20779 0.42079
 C2396 C 0.21614 0.19769 0.41160
 C2397 C 0.20984 0.19140 0.39820
 C2398 C 0.19481 0.19513 0.39355
 C2399 C 0.18602 0.20508 0.40270
 C2400 C 0.19212 0.21131 0.41614
 C2401 C 0.21470 0.21477 0.43466
 C2402 C 0.20704 0.22520 0.44445
 C2403 C 0.21502 0.23265 0.45620
 C2404 C 0.23069 0.22968 0.45858
 C2405 C 0.23815 0.21862 0.44962
 C2406 C 0.23035 0.21123 0.43767
 C2407 C 0.23137 0.19420 0.41561
 C2408 C 0.23834 0.20088 0.42832
 H2409 H 0.23814 0.18645 0.40860
 H2410 H 0.25029 0.19813 0.43070
 H2411 H 0.21687 0.18390 0.39118
 H2412 H 0.17435 0.20809 0.39953
 H2413 H 0.20918 0.24131 0.46296
 H2414 H 0.25034 0.21647 0.45142
 H2415 H 0.18484 0.21897 0.42261
 H2416 H 0.19507 0.22817 0.44289
 C2417 C 0.29258 0.42066 0.70719
 C2418 C 0.30272 0.41138 0.71590
 C2419 C 0.30909 0.39803 0.70949
 C2420 C 0.30535 0.39352 0.69451
 C2421 C 0.29535 0.40277 0.68588
 C2422 C 0.28907 0.41616 0.69208
 C2423 C 0.28551 0.43446 0.71470
 C2424 C 0.27511 0.44437 0.70713
 C2425 C 0.26759 0.45607 0.71515
 C2426 C 0.27045 0.45825 0.73076
 C2427 C 0.28146 0.44915 0.73817
 C2428 C 0.28895 0.43727 0.73031
 C2429 C 0.30614 0.41521 0.73110
 C2430 C 0.29933 0.42783 0.73818
 H2431 H 0.31392 0.40812 0.73777
 H2432 H 0.30202 0.43007 0.75010
 H2433 H 0.31664 0.39095 0.71640
 H2434 H 0.29234 0.39972 0.67425
 H2435 H 0.25897 0.46294 0.70935
 H2436 H 0.28352 0.45082 0.75032
 H2437 H 0.28136 0.42269 0.68491
 H2438 H 0.27223 0.44297 0.69520
 C2439 C 0.29291 0.92103 0.20759
 C2440 C 0.30300 0.91165 0.21626
 C2441 C 0.30931 0.89831 0.20979
 C2442 C 0.30558 0.89391 0.19478
 C2443 C 0.29565 0.90326 0.18617
 C2444 C 0.28943 0.91666 0.19244
 C2445 C 0.28588 0.93481 0.21520
 C2446 C 0.27549 0.94479 0.20772
 C2447 C 0.26801 0.95646 0.21583
 C2448 C 0.27091 0.95856 0.23145
 C2449 C 0.28193 0.94939 0.23876
 C2450 C 0.28936 0.93752 0.23082
 C2451 C 0.30644 0.91538 0.23148
 C2452 C 0.29971 0.92800 0.23862
 H2453 H 0.31419 0.90822 0.23810
 H2454 H 0.30242 0.93016 0.25055
 H2455 H 0.31680 0.89114 0.21667
 H2456 H 0.29267 0.90028 0.17451
 H2457 H 0.25938 0.96339 0.21010
 H2458 H 0.28404 0.95098 0.25091
 H2459 H 0.28178 0.92328 0.18529
 H2460 H 0.27256 0.94345 0.19579
 C2461 C 0.79250 0.42074 0.20735
 C2462 C 0.80248 0.41131 0.21610
 C2463 C 0.80883 0.39797 0.20964
 C2464 C 0.80524 0.39362 0.19458
 C2465 C 0.79543 0.40304 0.18590
 C2466 C 0.78918 0.41643 0.19215
 C2467 C 0.78541 0.43452 0.21493
 C2468 C 0.77509 0.44453 0.20738
 C2469 C 0.76755 0.45620 0.21544
 C2470 C 0.77032 0.45827 0.23109
 C2471 C 0.78125 0.44905 0.23849
 C2472 C 0.78873 0.43719 0.23059
 C2473 C 0.80576 0.41500 0.23136
 C2474 C 0.79898 0.42761 0.23847
 H2475 H 0.81343 0.40780 0.23805
 H2476 H 0.80157 0.42973 0.25044
 H2477 H 0.81624 0.39076 0.21657
 H2478 H 0.79256 0.40011 0.17420
 H2479 H 0.75899 0.46315 0.20964
 H2480 H 0.78326 0.45061 0.25066
 H2481 H 0.78165 0.42311 0.18494
 H2482 H 0.77228 0.44322 0.19542
 C2483 C 0.79266 0.92024 0.70789
 C2484 C 0.78401 0.91111 0.69760
 C2485 C 0.79049 0.89779 0.69126
 C2486 C 0.80550 0.89315 0.69512
 C2487 C 0.81406 0.90222 0.70532
 C2488 C 0.80777 0.91559 0.71160
 C2489 C 0.78505 0.93407 0.71486
 C2490 C 0.79253 0.94385 0.72539
 C2491 C 0.78440 0.95560 0.73275
 C2492 C 0.76876 0.95796 0.72960
 C2493 C 0.76146 0.94896 0.71850
 C2494 C 0.76943 0.93705 0.71116
 C2495 C 0.76881 0.91510 0.69395
 C2496 C 0.76165 0.92774 0.70064
 H2497 H 0.76219 0.90811 0.68607
 H2498 H 0.74972 0.93009 0.69776
 H2499 H 0.78362 0.89085 0.68358
 H2500 H 0.82570 0.89905 0.70846
 H2501 H 0.79011 0.96239 0.74145
 H2502 H 0.74930 0.95075 0.71621
 H2503 H 0.81489 0.92200 0.71944
 H2504 H 0.80447 0.94232 0.72847
 C2505 C 0.70716 0.57965 0.70822
 C2506 C 0.71582 0.58864 0.69781
 C2507 C 0.70943 0.60197 0.69142
 C2508 C 0.69450 0.60678 0.69537
 C2509 C 0.68591 0.59785 0.70568
 C2510 C 0.69211 0.58446 0.71199
 C2511 C 0.71468 0.56581 0.71523
 C2512 C 0.70719 0.55617 0.72588
 C2513 C 0.71526 0.54440 0.73326
 C2514 C 0.73086 0.54190 0.73003
 C2515 C 0.73816 0.55074 0.71880
 C2516 C 0.73025 0.56267 0.71144
 C2517 C 0.73098 0.58451 0.69410
 C2518 C 0.73806 0.57185 0.70083
 H2519 H 0.73761 0.59138 0.68613
 H2520 H 0.74995 0.56939 0.69789
 H2521 H 0.71632 0.60881 0.68366
 H2522 H 0.67432 0.60115 0.70888
 H2523 H 0.70956 0.53774 0.74207
 H2524 H 0.75030 0.54885 0.71645
 H2525 H 0.68498 0.57816 0.71992
 H2526 H 0.69529 0.55783 0.72904
 C2527 C 0.70816 0.07933 0.20750
 C2528 C 0.69788 0.08861 0.21605
 C2529 C 0.69157 0.10193 0.20953
 C2530 C 0.69545 0.10640 0.19456
 C2531 C 0.70564 0.09716 0.18611
 C2532 C 0.71189 0.08382 0.19244
 C2533 C 0.71510 0.06551 0.21513
 C2534 C 0.72561 0.05558 0.20774
 C2535 C 0.73294 0.04384 0.21587
 C2536 C 0.72978 0.04162 0.23143
 C2537 C 0.71867 0.05075 0.23865
 C2538 C 0.71136 0.06268 0.23068
 C2539 C 0.69422 0.08479 0.23120
 C2540 C 0.70087 0.07214 0.23838
 H2541 H 0.68634 0.09189 0.23775
 H2542 H 0.69796 0.06990 0.25025
 H2543 H 0.68387 0.10897 0.21631
 H2544 H 0.70878 0.10017 0.17451
 H2545 H 0.74165 0.03695 0.21022
 H2546 H 0.71637 0.04907 0.25075
 H2547 H 0.71975 0.07730 0.18540
 H2548 H 0.72872 0.05701 0.19586
 C2549 C 0.20702 0.57978 0.20859
 C2550 C 0.21571 0.58859 0.19804
 C2551 C 0.20944 0.60199 0.19165
 C2552 C 0.19461 0.60703 0.19570
 C2553 C 0.18602 0.59828 0.20616
 C2554 C 0.19208 0.58484 0.21249
 C2555 C 0.21440 0.56584 0.21557
 C2556 C 0.20688 0.55637 0.22636
 C2557 C 0.21485 0.54450 0.23370
 C2558 C 0.23036 0.54171 0.23028
 C2559 C 0.23766 0.55039 0.21891
 C2560 C 0.22986 0.56243 0.21160
 C2561 C 0.23075 0.58419 0.19418
 C2562 C 0.23769 0.57144 0.20087
 H2563 H 0.23739 0.59093 0.18610
 H2564 H 0.24950 0.56876 0.19779
 H2565 H 0.21635 0.60866 0.18377
 H2566 H 0.17451 0.60176 0.20947
 H2567 H 0.20915 0.53799 0.24262
 H2568 H 0.24973 0.54828 0.21642
 H2569 H 0.18495 0.57869 0.22052
 H2570 H 0.19506 0.55826 0.22968
 C2571 C 0.20751 0.07941 0.70771
 C2572 C 0.21636 0.08872 0.69774
 C2573 C 0.20995 0.10206 0.69136
 C2574 C 0.19480 0.10651 0.69485
 C2575 C 0.18602 0.09724 0.70468
 C2576 C 0.19224 0.08387 0.71100
 C2577 C 0.21505 0.06559 0.71477
 C2578 C 0.20742 0.05569 0.72509
 C2579 C 0.21547 0.04395 0.73255
 C2580 C 0.23118 0.04169 0.72970
 C2581 C 0.23864 0.05081 0.71878
 C2582 C 0.23076 0.06274 0.71139
 C2583 C 0.23169 0.08488 0.69444
 C2584 C 0.23875 0.07221 0.70116
 H2585 H 0.23846 0.09199 0.68680
 H2586 H 0.25075 0.06996 0.69854
 H2587 H 0.21698 0.10916 0.68396
 H2588 H 0.17425 0.10026 0.70748
 H2589 H 0.20962 0.03708 0.74111
 H2590 H 0.25085 0.04912 0.71672
 H2591 H 0.18495 0.07729 0.71855
 H2592 H 0.19541 0.05713 0.72795
 C2593 C 0.29303 0.57935 0.29201
 C2594 C 0.28444 0.58838 0.30246
 C2595 C 0.29088 0.60172 0.30875
 C2596 C 0.30579 0.60646 0.30470
 C2597 C 0.31430 0.59749 0.29435
 C2598 C 0.30805 0.58410 0.28812
 C2599 C 0.28545 0.56549 0.28512
 C2600 C 0.29283 0.55583 0.27439
 C2601 C 0.28469 0.54405 0.26714
 C2602 C 0.26914 0.54155 0.27059
 C2603 C 0.26196 0.55043 0.28188
 C2604 C 0.26993 0.56239 0.28910
 C2605 C 0.26933 0.58430 0.30632
 C2606 C 0.26221 0.57162 0.29974
 H2607 H 0.26276 0.59123 0.31432
 H2608 H 0.25035 0.56918 0.30280
 H2609 H 0.28404 0.60859 0.31654
 H2610 H 0.32587 0.60075 0.29107
 H2611 H 0.29029 0.53737 0.25827
 H2612 H 0.24986 0.54855 0.28438
 H2613 H 0.31512 0.57774 0.28017
 H2614 H 0.30468 0.55749 0.27106
 C2615 C 0.29246 0.07950 0.79258
 C2616 C 0.30259 0.08877 0.78387
 C2617 C 0.30880 0.10221 0.79021
 C2618 C 0.30494 0.10682 0.80513
 C2619 C 0.29491 0.09761 0.81376
 C2620 C 0.28878 0.08412 0.80762
 C2621 C 0.28561 0.06555 0.78514
 C2622 C 0.27518 0.05566 0.79266
 C2623 C 0.26787 0.04382 0.78465
 C2624 C 0.27097 0.04148 0.76910
 C2625 C 0.28204 0.05056 0.76178
 C2626 C 0.28930 0.06259 0.76960
 C2627 C 0.30621 0.08481 0.76874
 C2628 C 0.29965 0.07204 0.76174
 H2629 H 0.31397 0.09190 0.76208
 H2630 H 0.30249 0.06971 0.74988
 H2631 H 0.31635 0.10927 0.78330
 H2632 H 0.29178 0.10076 0.82534
 H2633 H 0.25918 0.03699 0.79039
 H2634 H 0.28429 0.04881 0.74967
 H2635 H 0.28107 0.07760 0.81479
 H2636 H 0.27210 0.05719 0.80453
 C2637 C 0.79322 0.58000 0.79186
 C2638 C 0.78466 0.58892 0.80242
 C2639 C 0.79106 0.60227 0.80874
 C2640 C 0.80589 0.60716 0.80460
 C2641 C 0.81437 0.59832 0.79410
 C2642 C 0.80817 0.58491 0.78784
 C2643 C 0.78570 0.56609 0.78499
 C2644 C 0.79309 0.55647 0.77422
 C2645 C 0.78499 0.54463 0.76701
 C2646 C 0.76949 0.54200 0.77054
 C2647 C 0.76231 0.55083 0.78188
 C2648 C 0.77024 0.56284 0.78907
 C2649 C 0.76961 0.58470 0.80639
 C2650 C 0.76253 0.57199 0.79980
 H2651 H 0.76306 0.59154 0.81447
 H2652 H 0.75071 0.56945 0.80294
 H2653 H 0.78423 0.60905 0.81663
 H2654 H 0.82587 0.60171 0.79072
 H2655 H 0.79060 0.53799 0.75811
 H2656 H 0.75024 0.54887 0.78444
 H2657 H 0.81520 0.57866 0.77978
 H2658 H 0.80491 0.55821 0.77084
 C2659 C 0.79251 0.07959 0.29274
 C2660 C 0.80274 0.08878 0.28406
 C2661 C 0.80896 0.10221 0.29038
 C2662 C 0.80500 0.10691 0.30525
 C2663 C 0.79487 0.09778 0.31384
 C2664 C 0.78874 0.08430 0.30773
 C2665 C 0.78564 0.06565 0.28532
 C2666 C 0.77515 0.05583 0.29285
 C2667 C 0.76782 0.04400 0.28487
 C2668 C 0.77097 0.04159 0.26934
 C2669 C 0.78208 0.05060 0.26200
 C2670 C 0.78937 0.06261 0.26981
 C2671 C 0.80642 0.08474 0.26896
 C2672 C 0.79982 0.07199 0.26197
 H2673 H 0.81426 0.09176 0.26232
 H2674 H 0.80271 0.06959 0.25012
 H2675 H 0.81660 0.10920 0.28349
 H2676 H 0.79167 0.10099 0.32539
 H2677 H 0.75909 0.03722 0.29060
 H2678 H 0.78435 0.04878 0.24991
 H2679 H 0.78094 0.07785 0.31487
 H2680 H 0.77204 0.05741 0.30470
 C2681 C 0.70708 0.42063 0.29225
 C2682 C 0.71587 0.41155 0.30248
 C2683 C 0.70958 0.39814 0.30878
 C2684 C 0.69463 0.39336 0.30493
 C2685 C 0.68592 0.40239 0.29481
 C2686 C 0.69202 0.41585 0.28857
 C2687 C 0.71451 0.43455 0.28530
 C2688 C 0.70692 0.44427 0.27477
 C2689 C 0.71492 0.45607 0.26740
 C2690 C 0.73053 0.45854 0.27053
 C2691 C 0.73791 0.44964 0.28167
 C2692 C 0.73009 0.43766 0.28900
 C2693 C 0.73103 0.41567 0.30613
 C2694 C 0.73801 0.42839 0.29947
 H2695 H 0.73774 0.40873 0.31399
 H2696 H 0.74991 0.43086 0.30234
 H2697 H 0.71656 0.39123 0.31641
 H2698 H 0.67431 0.39912 0.29169
 H2699 H 0.70914 0.46278 0.25866
 H2700 H 0.75007 0.45149 0.28394
 H2701 H 0.68480 0.42223 0.28079
 H2702 H 0.69500 0.44262 0.27168
 C2703 C 0.70728 0.92031 0.79251
 C2704 C 0.71603 0.91119 0.80274
 C2705 C 0.70969 0.89780 0.80906
 C2706 C 0.69472 0.89309 0.80520
 C2707 C 0.68606 0.90213 0.79505
 C2708 C 0.69220 0.91556 0.78881
 C2709 C 0.71473 0.93420 0.78555
 C2710 C 0.70712 0.94398 0.77510
 C2711 C 0.71512 0.95577 0.76770
 C2712 C 0.73077 0.95816 0.77073
 C2713 C 0.73819 0.94919 0.78180
 C2714 C 0.73034 0.93724 0.78918
 C2715 C 0.73122 0.91526 0.80634
 C2716 C 0.73825 0.92795 0.79964
 H2717 H 0.73793 0.90829 0.81418
 H2718 H 0.75017 0.93035 0.80247
 H2719 H 0.71665 0.89086 0.81668
 H2720 H 0.67445 0.89890 0.79192
 H2721 H 0.70931 0.96253 0.75903
 H2722 H 0.75036 0.95099 0.78399
 H2723 H 0.68501 0.92195 0.78101
 H2724 H 0.69517 0.94242 0.77210
 C2725 C 0.20769 0.42022 0.79206
 C2726 C 0.19764 0.41083 0.78339
 C2727 C 0.19143 0.39744 0.78983
 C2728 C 0.19518 0.39301 0.80484
 C2729 C 0.20516 0.40233 0.81341
 C2730 C 0.21130 0.41576 0.80716
 C2731 C 0.21449 0.43414 0.78454
 C2732 C 0.22479 0.44417 0.79205
 C2733 C 0.23204 0.45602 0.78400
 C2734 C 0.22901 0.45823 0.76842
 C2735 C 0.21810 0.44899 0.76109
 C2736 C 0.21088 0.43696 0.76896
 C2737 C 0.19409 0.41464 0.76821
 C2738 C 0.20063 0.42738 0.76113
 H2739 H 0.18639 0.40746 0.76157
 H2740 H 0.19783 0.42960 0.74923
 H2741 H 0.18392 0.39031 0.78296
 H2742 H 0.20822 0.39934 0.82504
 H2743 H 0.24062 0.46297 0.78974
 H2744 H 0.21592 0.45063 0.74895
 H2745 H 0.21895 0.42237 0.81430
 H2746 H 0.22781 0.44276 0.80395
 C2747 C 0.20717 0.92083 0.29215
 C2748 C 0.21590 0.91171 0.30241
 C2749 C 0.20954 0.89834 0.30872
 C2750 C 0.19457 0.89364 0.30486
 C2751 C 0.18592 0.90269 0.29472
 C2752 C 0.19208 0.91612 0.28848
 C2753 C 0.21466 0.93472 0.28521
 C2754 C 0.20714 0.94446 0.27465
 C2755 C 0.21521 0.95626 0.26733
 C2756 C 0.23081 0.95872 0.27055
 C2757 C 0.23811 0.94977 0.28172
 C2758 C 0.23023 0.93779 0.28898
 C2759 C 0.23107 0.91577 0.30608
 C2760 C 0.23810 0.92849 0.29946
 H2761 H 0.23775 0.90880 0.31394
 H2762 H 0.25000 0.93091 0.30235
 H2763 H 0.21649 0.89140 0.31636
 H2764 H 0.17429 0.89947 0.29160
 H2765 H 0.20948 0.96299 0.25857
 H2766 H 0.25026 0.95160 0.28404
 H2767 H 0.18489 0.92254 0.28069
 H2768 H 0.19524 0.94283 0.27150
 C2769 C 0.41956 0.29247 0.70808
 C2770 C 0.41046 0.28394 0.69766
 C2771 C 0.39704 0.29037 0.69139
 C2772 C 0.39227 0.30522 0.69543
 C2773 C 0.40130 0.31367 0.70576
 C2774 C 0.41477 0.30743 0.71198
 C2775 C 0.43351 0.28491 0.71493
 C2776 C 0.44326 0.29225 0.72560
 C2777 C 0.45516 0.28414 0.73279
 C2778 C 0.45769 0.26867 0.72934
 C2779 C 0.44872 0.26153 0.71810
 C2780 C 0.43665 0.26946 0.71094
 C2781 C 0.41457 0.26889 0.69379
 C2782 C 0.42734 0.26179 0.70035
 H2783 H 0.40760 0.26237 0.68581
 H2784 H 0.42980 0.24999 0.69728
 H2785 H 0.39013 0.28357 0.68361
 H2786 H 0.39802 0.32519 0.70903
 H2787 H 0.46190 0.28972 0.74162
 H2788 H 0.45062 0.24948 0.71560
 H2789 H 0.42115 0.31445 0.71992
 H2790 H 0.44159 0.30404 0.72893
 C2791 C 0.41992 0.79335 0.20834
 C2792 C 0.41088 0.78467 0.19799
 C2793 C 0.39739 0.79094 0.19171
 C2794 C 0.39249 0.80577 0.19569
 C2795 C 0.40147 0.81436 0.20593
 C2796 C 0.41501 0.80829 0.21215
 C2797 C 0.43393 0.78596 0.21525
 C2798 C 0.44364 0.79348 0.22584
 C2799 C 0.45552 0.78551 0.23319
 C2800 C 0.45810 0.77000 0.22997
 C2801 C 0.44923 0.76269 0.21876
 C2802 C 0.43716 0.77049 0.21144
 C2803 C 0.41512 0.76962 0.19424
 C2804 C 0.42793 0.76266 0.20089
 H2805 H 0.40821 0.76299 0.18631
 H2806 H 0.43048 0.75085 0.19792
 H2807 H 0.39053 0.78404 0.18398
 H2808 H 0.39811 0.82587 0.20916
 H2809 H 0.46221 0.79122 0.24197
 H2810 H 0.45119 0.75062 0.21641
 H2811 H 0.42133 0.81541 0.22005
 H2812 H 0.44191 0.80531 0.22901
 C2813 C 0.91946 0.29287 0.20820
 C2814 C 0.91050 0.28428 0.19772
 C2815 C 0.89704 0.29058 0.19141
 C2816 C 0.89207 0.30536 0.19549
 C2817 C 0.90096 0.31387 0.20588
 C2818 C 0.91448 0.30776 0.21213
 C2819 C 0.93345 0.28545 0.21512
 C2820 C 0.94308 0.29288 0.22584
 C2821 C 0.95498 0.28488 0.23314
 C2822 C 0.95765 0.26942 0.22974
 C2823 C 0.94883 0.26220 0.21843
 C2824 C 0.93676 0.27003 0.21115
 C2825 C 0.91481 0.26929 0.19383
 C2826 C 0.92761 0.26229 0.20047
 H2827 H 0.90797 0.26271 0.18579
 H2828 H 0.93021 0.25052 0.19739
 H2829 H 0.89024 0.28374 0.18357
 H2830 H 0.89755 0.32534 0.20921
 H2831 H 0.96161 0.29051 0.24201
 H2832 H 0.95085 0.25016 0.21596
 H2833 H 0.92075 0.31483 0.22013
 H2834 H 0.94129 0.30467 0.22915
 C2835 C 0.92083 0.79313 0.70807
 C2836 C 0.91166 0.78445 0.69783
 C2837 C 0.89826 0.79084 0.69147
 C2838 C 0.89362 0.80581 0.69522
 C2839 C 0.90274 0.81441 0.70533
 C2840 C 0.91617 0.80820 0.71166
 C2841 C 0.93470 0.78560 0.71510
 C2842 C 0.94448 0.79307 0.72565
 C2843 C 0.95625 0.78500 0.73308
 C2844 C 0.95864 0.76944 0.72995
 C2845 C 0.94968 0.76217 0.71879
 C2846 C 0.93771 0.77006 0.71143
 C2847 C 0.91567 0.76931 0.69425
 C2848 C 0.92838 0.76225 0.70095
 H2849 H 0.90865 0.76268 0.68640
 H2850 H 0.93076 0.75037 0.69811
 H2851 H 0.89128 0.78394 0.68385
 H2852 H 0.89957 0.82603 0.70835
 H2853 H 0.96303 0.79069 0.74181
 H2854 H 0.95150 0.75006 0.71651
 H2855 H 0.92262 0.81534 0.71944
 H2856 H 0.94293 0.80496 0.72871
 C2857 C 0.58032 0.29254 0.29197
 C2858 C 0.58955 0.28390 0.30220
 C2859 C 0.60295 0.29032 0.30851
 C2860 C 0.60757 0.30526 0.30467
 C2861 C 0.59840 0.31382 0.29455
 C2862 C 0.58495 0.30760 0.28831
 C2863 C 0.56643 0.28500 0.28502
 C2864 C 0.55657 0.29246 0.27450
 C2865 C 0.54477 0.28438 0.26715
 C2866 C 0.54242 0.26882 0.27031
 C2867 C 0.55148 0.26156 0.28142
 C2868 C 0.56347 0.26946 0.28872
 C2869 C 0.58560 0.26876 0.30582
 C2870 C 0.57288 0.26167 0.29916
 H2871 H 0.59265 0.26215 0.31366
 H2872 H 0.57055 0.24980 0.30202
 H2873 H 0.60996 0.28345 0.31615
 H2874 H 0.60154 0.32542 0.29144
 H2875 H 0.53796 0.29007 0.25844
 H2876 H 0.54972 0.24945 0.28370
 H2877 H 0.57845 0.31471 0.28052
 H2878 H 0.55810 0.30433 0.27140
 C2879 C 0.57963 0.79292 0.79232
 C2880 C 0.58875 0.78435 0.80271
 C2881 C 0.60212 0.79080 0.80906
 C2882 C 0.60680 0.80569 0.80511
 C2883 C 0.59776 0.81416 0.79480
 C2884 C 0.58434 0.80791 0.78851
 C2885 C 0.56573 0.78536 0.78539
 C2886 C 0.55593 0.79275 0.77479
 C2887 C 0.54411 0.78466 0.76750
 C2888 C 0.54171 0.76914 0.77078
 C2889 C 0.55071 0.76193 0.78196
 C2890 C 0.56270 0.76986 0.78923
 C2891 C 0.58473 0.76926 0.80646
 C2892 C 0.57203 0.76215 0.79981
 H2893 H 0.59172 0.76271 0.81441
 H2894 H 0.56964 0.75032 0.80279
 H2895 H 0.60906 0.78399 0.81681
 H2896 H 0.60098 0.82571 0.79159
 H2897 H 0.53731 0.79030 0.75874
 H2898 H 0.54889 0.74986 0.78436
 H2899 H 0.57795 0.81495 0.78059
 H2900 H 0.55749 0.80460 0.77161
 C2901 C 0.08027 0.29254 0.79185
 C2902 C 0.08947 0.28394 0.80214
 C2903 C 0.10295 0.29033 0.80832
 C2904 C 0.10766 0.30521 0.80434
 C2905 C 0.09852 0.31371 0.79413
 C2906 C 0.08500 0.30751 0.78799
 C2907 C 0.06625 0.28503 0.78508
 C2908 C 0.05641 0.29243 0.77451
 C2909 C 0.04449 0.28437 0.76735
 C2910 C 0.04200 0.26888 0.77073
 C2911 C 0.05104 0.26169 0.78190
 C2912 C 0.06315 0.26958 0.78902
 C2913 C 0.08539 0.26889 0.80599
 C2914 C 0.07256 0.26185 0.79952
 H2915 H 0.09243 0.26232 0.81388
 H2916 H 0.07012 0.25004 0.80257
 H2917 H 0.10992 0.28348 0.81601
 H2918 H 0.10173 0.32524 0.79088
 H2919 H 0.03769 0.28999 0.75857
 H2920 H 0.04918 0.24964 0.78436
 H2921 H 0.07854 0.31458 0.78014
 H2922 H 0.05805 0.30424 0.77123
 C2923 C 0.07997 0.79285 0.29224
 C2924 C 0.08929 0.78422 0.30240
 C2925 C 0.10270 0.79068 0.30865
 C2926 C 0.10722 0.80566 0.30484
 C2927 C 0.09796 0.81421 0.29479
 C2928 C 0.08450 0.80795 0.28860
 C2929 C 0.06605 0.78527 0.28536
 C2930 C 0.05610 0.79270 0.27491
 C2931 C 0.04426 0.78459 0.26766
 C2932 C 0.04198 0.76902 0.27083
 C2933 C 0.05115 0.76179 0.28188
 C2934 C 0.06316 0.76972 0.28908
 C2935 C 0.08541 0.76907 0.30602
 C2936 C 0.07267 0.76195 0.29945
 H2937 H 0.09254 0.76247 0.31381
 H2938 H 0.07040 0.75007 0.30232
 H2939 H 0.10980 0.78381 0.31621
 H2940 H 0.10104 0.82583 0.29170
 H2941 H 0.03736 0.79026 0.25899
 H2942 H 0.04945 0.74968 0.28417
 H2943 H 0.07792 0.81506 0.28089
 H2944 H 0.05758 0.80457 0.27179
 C2945 C 0.57968 0.70742 0.70820
 C2946 C 0.58889 0.71610 0.69799
 C2947 C 0.60232 0.70971 0.69167
 C2948 C 0.60700 0.69476 0.69549
 C2949 C 0.59785 0.68618 0.70560
 C2950 C 0.58436 0.69237 0.71184
 C2951 C 0.56574 0.71493 0.71515
 C2952 C 0.55586 0.70740 0.72559
 C2953 C 0.54402 0.71543 0.73296
 C2954 C 0.54166 0.73101 0.72994
 C2955 C 0.55073 0.73835 0.71889
 C2956 C 0.56275 0.73049 0.71154
 C2957 C 0.58489 0.73125 0.69443
 C2958 C 0.57215 0.73832 0.70112
 H2959 H 0.59193 0.73789 0.68661
 H2960 H 0.56979 0.75020 0.69830
 H2961 H 0.60934 0.71659 0.68406
 H2962 H 0.60104 0.67459 0.70870
 H2963 H 0.53719 0.70968 0.74162
 H2964 H 0.54895 0.75048 0.71668
 H2965 H 0.57790 0.68524 0.71962
 H2966 H 0.55740 0.69550 0.72860
 C2967 C 0.58060 0.20689 0.20796
 C2968 C 0.58982 0.21559 0.19779
 C2969 C 0.60324 0.20921 0.19144
 C2970 C 0.60787 0.19422 0.19514
 C2971 C 0.59870 0.18561 0.20521
 C2972 C 0.58525 0.19180 0.21151
 C2973 C 0.56667 0.21439 0.21494
 C2974 C 0.55681 0.20688 0.22540
 C2975 C 0.54497 0.21491 0.23277
 C2976 C 0.54256 0.23048 0.22969
 C2977 C 0.55162 0.23781 0.21863
 C2978 C 0.56366 0.22995 0.21132
 C2979 C 0.58584 0.23075 0.19426
 C2980 C 0.57308 0.23780 0.20093
 H2981 H 0.59290 0.23741 0.18647
 H2982 H 0.57072 0.24968 0.19812
 H2983 H 0.61024 0.21613 0.18385
 H2984 H 0.60185 0.17398 0.20820
 H2985 H 0.53815 0.20918 0.24145
 H2986 H 0.54980 0.24991 0.21638
 H2987 H 0.57877 0.18465 0.21927
 H2988 H 0.55837 0.19499 0.22845
 C2989 C 0.07997 0.70771 0.20779
 C2990 C 0.08917 0.69740 0.21639
 C2991 C 0.10257 0.69104 0.20996
 C2992 C 0.10721 0.69492 0.19505
 C2993 C 0.09808 0.70514 0.18654
 C2994 C 0.08464 0.71143 0.19277
 C2995 C 0.06606 0.71467 0.21533
 C2996 C 0.05620 0.72522 0.20790
 C2997 C 0.04436 0.73255 0.21598
 C2998 C 0.04197 0.72935 0.23151
 C2999 C 0.05104 0.71821 0.23874
 C3000 C 0.06306 0.71092 0.23084
 C3001 C 0.08518 0.69375 0.23150
 C3002 C 0.07246 0.70042 0.23859
 H3003 H 0.09222 0.68585 0.23807
 H3004 H 0.07010 0.69751 0.25043
 H3005 H 0.10957 0.68335 0.21678
 H3006 H 0.10126 0.70829 0.17497
 H3007 H 0.03754 0.74129 0.21032
 H3008 H 0.04926 0.71588 0.25082
 H3009 H 0.07818 0.71928 0.18570
 H3010 H 0.05775 0.72836 0.19606
 C3011 C 0.07961 0.20671 0.70810
 C3012 C 0.08878 0.21536 0.69783
 C3013 C 0.10210 0.20891 0.69137
 C3014 C 0.10671 0.19392 0.69508
 C3015 C 0.09760 0.18535 0.70524
 C3016 C 0.08423 0.19162 0.71165
 C3017 C 0.06579 0.21429 0.71520
 C3018 C 0.05598 0.20682 0.72573
 C3019 C 0.04424 0.21491 0.73320
 C3020 C 0.04192 0.23049 0.73016
 C3021 C 0.05093 0.23779 0.71903
 C3022 C 0.06284 0.22986 0.71160
 C3023 C 0.08483 0.23054 0.69432
 C3024 C 0.07219 0.23766 0.70111
 H3025 H 0.09185 0.23715 0.68645
 H3026 H 0.06986 0.24955 0.69832
 H3027 H 0.10908 0.21578 0.68372
 H3028 H 0.10075 0.17373 0.70826
 H3029 H 0.03744 0.20920 0.74190
 H3030 H 0.04916 0.24991 0.71682
 H3031 H 0.07779 0.18450 0.71947
 H3032 H 0.05748 0.19491 0.72874
 C3033 C 0.42028 0.70753 0.29199
 C3034 C 0.41099 0.71603 0.30229
 C3035 C 0.39764 0.70947 0.30856
 C3036 C 0.39313 0.69453 0.30462
 C3037 C 0.40235 0.68611 0.29442
 C3038 C 0.41576 0.69247 0.28822
 C3039 C 0.43412 0.71522 0.28510
 C3040 C 0.44404 0.70791 0.27454
 C3041 C 0.45581 0.71612 0.26728
 C3042 C 0.45804 0.73166 0.27056
 C3043 C 0.44890 0.73880 0.28168
 C3044 C 0.43696 0.73076 0.28892
 C3045 C 0.41483 0.73117 0.30603
 C3046 C 0.42749 0.73840 0.29943
 H3047 H 0.40772 0.73767 0.31392
 H3048 H 0.42974 0.75026 0.30239
 H3049 H 0.39058 0.71625 0.31624
 H3050 H 0.39928 0.67451 0.29123
 H3051 H 0.46270 0.71053 0.25855
 H3052 H 0.45058 0.75090 0.28406
 H3053 H 0.42231 0.68545 0.28038
 H3054 H 0.44259 0.69606 0.27134
 C3055 C 0.41981 0.20663 0.79134
 C3056 C 0.41102 0.21515 0.80204
 C3057 C 0.39759 0.20886 0.80843
 C3058 C 0.39251 0.19418 0.80421
 C3059 C 0.40124 0.18574 0.79359
 C3060 C 0.41471 0.19184 0.78726
 C3061 C 0.43377 0.21405 0.78437
 C3062 C 0.44326 0.20668 0.77346
 C3063 C 0.45512 0.21470 0.76614
 C3064 C 0.45788 0.23010 0.76970
 C3065 C 0.44921 0.23724 0.78118
 C3066 C 0.43718 0.22939 0.78849
 C3067 C 0.41543 0.23006 0.80607
 C3068 C 0.42817 0.23706 0.79938
 H3069 H 0.40870 0.23658 0.81428
 H3070 H 0.43085 0.24877 0.80257
 H3071 H 0.39092 0.21565 0.81643
 H3072 H 0.39772 0.17435 0.79015
 H3073 H 0.46164 0.20913 0.75713
 H3074 H 0.45129 0.24923 0.78378
 H3075 H 0.42085 0.18484 0.77909
 H3076 H 0.44140 0.19495 0.77004
 C3077 C 0.92074 0.70763 0.79262
 C3078 C 0.91158 0.69739 0.78393
 C3079 C 0.89820 0.69098 0.79030
 C3080 C 0.89352 0.69474 0.80523
 C3081 C 0.90264 0.70486 0.81384
 C3082 C 0.91607 0.71120 0.80767
 C3083 C 0.93462 0.71469 0.78514
 C3084 C 0.94443 0.72519 0.79267
 C3085 C 0.95622 0.73263 0.78467
 C3086 C 0.95861 0.72960 0.76911
 C3087 C 0.94960 0.71850 0.76176
 C3088 C 0.93764 0.71109 0.76961
 C3089 C 0.91561 0.69386 0.76880
 C3090 C 0.92830 0.70062 0.76177
 H3091 H 0.90862 0.68600 0.76215
 H3092 H 0.93067 0.69783 0.74989
 H3093 H 0.89121 0.68336 0.78340
 H3094 H 0.89945 0.70792 0.82543
 H3095 H 0.96300 0.74133 0.79042
 H3096 H 0.95139 0.71631 0.74966
 H3097 H 0.92250 0.71898 0.81483
 H3098 H 0.94287 0.72820 0.80455
 C3099 C 0.91971 0.20705 0.29147
 C3100 C 0.91086 0.21549 0.30219
 C3101 C 0.89747 0.20910 0.30854
 C3102 C 0.89248 0.19440 0.30428
 C3103 C 0.90126 0.18604 0.29365
 C3104 C 0.91470 0.19223 0.28735
 C3105 C 0.93363 0.21457 0.28455
 C3106 C 0.94315 0.20732 0.27360
 C3107 C 0.95500 0.21542 0.26637
 C3108 C 0.95771 0.23080 0.27006
 C3109 C 0.94900 0.23783 0.28157
 C3110 C 0.93698 0.22990 0.28878
 C3111 C 0.91519 0.23039 0.30630
 C3112 C 0.92792 0.23747 0.29969
 H3113 H 0.90841 0.23684 0.31453
 H3114 H 0.93055 0.24917 0.30295
 H3115 H 0.89076 0.21583 0.31656
 H3116 H 0.89781 0.17464 0.29018
 H3117 H 0.96157 0.20994 0.25733
 H3118 H 0.95105 0.24981 0.28426
 H3119 H 0.92090 0.18529 0.27917
 H3120 H 0.94132 0.19561 0.27007
 C3121 C 0.29245 0.29260 0.58018
 C3122 C 0.30243 0.28382 0.58958
 C3123 C 0.30867 0.29022 0.60296
 C3124 C 0.30501 0.30527 0.60736
 C3125 C 0.29520 0.31398 0.59798
 C3126 C 0.28903 0.30778 0.58456
 C3127 C 0.28547 0.28506 0.56637
 C3128 C 0.27514 0.29263 0.55640
 C3129 C 0.26766 0.28457 0.54472
 C3130 C 0.27051 0.26892 0.54260
 C3131 C 0.28148 0.26152 0.55176
 C3132 C 0.28890 0.26941 0.56364
 C3133 C 0.30583 0.26857 0.58583
 C3134 C 0.29915 0.26150 0.57317
 H3135 H 0.31350 0.26187 0.59300
 H3136 H 0.30182 0.24954 0.57100
 H3137 H 0.31607 0.28326 0.61014
 H3138 H 0.29227 0.32568 0.60096
 H3139 H 0.25907 0.29037 0.53781
 H3140 H 0.28354 0.24935 0.55017
 H3141 H 0.28149 0.31502 0.57791
 H3142 H 0.27227 0.30459 0.55775
 C3143 C 0.29279 0.79257 0.08030
 C3144 C 0.30288 0.78394 0.08972
 C3145 C 0.30907 0.79046 0.10306
 C3146 C 0.30523 0.80548 0.10743
 C3147 C 0.29526 0.81403 0.09807
 C3148 C 0.28915 0.80771 0.08468
 C3149 C 0.28593 0.78492 0.06649
 C3150 C 0.27556 0.79237 0.05647
 C3151 C 0.26824 0.78422 0.04476
 C3152 C 0.27127 0.76860 0.04267
 C3153 C 0.28226 0.76132 0.05189
 C3154 C 0.28954 0.76930 0.06378
 C3155 C 0.30646 0.76872 0.08600
 C3156 C 0.29987 0.76154 0.07336
 H3157 H 0.31420 0.76213 0.09320
 H3158 H 0.30268 0.74961 0.07122
 H3159 H 0.31658 0.78360 0.11023
 H3160 H 0.29217 0.82568 0.10104
 H3161 H 0.25961 0.78991 0.03781
 H3162 H 0.28445 0.74917 0.05031
 H3163 H 0.28148 0.81482 0.07804
 H3164 H 0.27255 0.80430 0.05779
 C3165 C 0.79233 0.29285 0.07970
 C3166 C 0.80239 0.28411 0.08903
 C3167 C 0.80868 0.29052 0.10239
 C3168 C 0.80495 0.30554 0.10687
 C3169 C 0.79502 0.31420 0.09757
 C3170 C 0.78882 0.30800 0.08416
 C3171 C 0.78535 0.28533 0.06587
 C3172 C 0.77502 0.29291 0.05591
 C3173 C 0.76756 0.28488 0.04419
 C3174 C 0.77041 0.26924 0.04203
 C3175 C 0.78138 0.26182 0.05119
 C3176 C 0.78880 0.26969 0.06308
 C3177 C 0.80583 0.26888 0.08522
 C3178 C 0.79912 0.26180 0.07258
 H3179 H 0.81356 0.26219 0.09234
 H3180 H 0.80181 0.24986 0.07037
 H3181 H 0.81617 0.28358 0.10951
 H3182 H 0.79201 0.32586 0.10060
 H3183 H 0.75897 0.29069 0.03729
 H3184 H 0.78344 0.24965 0.04956
 H3185 H 0.78117 0.31519 0.07759
 H3186 H 0.77213 0.30486 0.05728
 C3187 C 0.79248 0.79247 0.58073
 C3188 C 0.78379 0.80275 0.58988
 C3189 C 0.79022 0.80904 0.60322
 C3190 C 0.80522 0.80516 0.60784
 C3191 C 0.81383 0.79500 0.59874
 C3192 C 0.80759 0.78875 0.58537
 C3193 C 0.78492 0.78556 0.56688
 C3194 C 0.79241 0.77501 0.55710
 C3195 C 0.78431 0.76770 0.54533
 C3196 C 0.76869 0.77092 0.54294
 C3197 C 0.76140 0.78208 0.55192
 C3198 C 0.76933 0.78934 0.56387
 C3199 C 0.76861 0.80645 0.58588
 C3200 C 0.76151 0.79984 0.57320
 H3201 H 0.76198 0.81434 0.59287
 H3202 H 0.74961 0.80278 0.57082
 H3203 H 0.78332 0.81669 0.61020
 H3204 H 0.82548 0.79187 0.60189
 H3205 H 0.79002 0.75894 0.53858
 H3206 H 0.74925 0.78442 0.55013
 H3207 H 0.81473 0.78092 0.57895
 H3208 H 0.80434 0.77186 0.55865
 C3209 C 0.29244 0.70744 0.41902
 C3210 C 0.30273 0.71603 0.40981
 C3211 C 0.30891 0.70962 0.39639
 C3212 C 0.30491 0.69473 0.39176
 C3213 C 0.29471 0.68623 0.40091
 C3214 C 0.28858 0.69245 0.41436
 C3215 C 0.28566 0.71497 0.43296
 C3216 C 0.27512 0.70756 0.44281
 C3217 C 0.26789 0.71564 0.45465
 C3218 C 0.27120 0.73116 0.45704
 C3219 C 0.28238 0.73836 0.44801
 C3220 C 0.28956 0.73045 0.43598
 C3221 C 0.30655 0.73111 0.41381
 C3222 C 0.30005 0.73818 0.42658
 H3223 H 0.31444 0.73768 0.40677
 H3224 H 0.30308 0.75000 0.42896
 H3225 H 0.31657 0.71646 0.38938
 H3226 H 0.29146 0.67468 0.39775
 H3227 H 0.25911 0.71001 0.46145
 H3228 H 0.28477 0.75044 0.44981
 H3229 H 0.28072 0.68539 0.42082
 H3230 H 0.27189 0.69572 0.44125
 C3231 C 0.29268 0.20763 0.91994
 C3232 C 0.28393 0.19732 0.91092
 C3233 C 0.29027 0.19092 0.89757
 C3234 C 0.30523 0.19473 0.89282
 C3235 C 0.31391 0.20491 0.90180
 C3236 C 0.30777 0.21125 0.91518
 C3237 C 0.28520 0.21469 0.93378
 C3238 C 0.29273 0.22533 0.94340
 C3239 C 0.28469 0.23278 0.95515
 C3240 C 0.26909 0.22958 0.95767
 C3241 C 0.26177 0.21834 0.94885
 C3242 C 0.26963 0.21096 0.93691
 C3243 C 0.26877 0.19370 0.91504
 C3244 C 0.26175 0.20042 0.92772
 H3245 H 0.26208 0.18579 0.90814
 H3246 H 0.24986 0.19755 0.93018
 H3247 H 0.28332 0.18324 0.89070
 H3248 H 0.32554 0.20799 0.89854
 H3249 H 0.29041 0.24159 0.96178
 H3250 H 0.24964 0.21602 0.95075
 H3251 H 0.31497 0.21907 0.92153
 H3252 H 0.30464 0.22847 0.94172
 C3253 C 0.79234 0.70731 0.91963
 C3254 C 0.80269 0.71592 0.91052
 C3255 C 0.80901 0.70953 0.89716
 C3256 C 0.80507 0.69465 0.89247
 C3257 C 0.79480 0.68612 0.90151
 C3258 C 0.78854 0.69231 0.91492
 C3259 C 0.78542 0.71481 0.93353
 C3260 C 0.77483 0.70737 0.94331
 C3261 C 0.76752 0.71544 0.95512
 C3262 C 0.77078 0.73096 0.95755
 C3263 C 0.78199 0.73819 0.94857
 C3264 C 0.78926 0.73030 0.93658
 C3265 C 0.80644 0.73101 0.91456
 C3266 C 0.79981 0.73806 0.92726
 H3267 H 0.81437 0.73759 0.90758
 H3268 H 0.80278 0.74989 0.92967
 H3269 H 0.81674 0.71638 0.89023
 H3270 H 0.79161 0.67457 0.89830
 H3271 H 0.75872 0.70978 0.96188
 H3272 H 0.78437 0.75027 0.95040
 H3273 H 0.78063 0.68524 0.92131
 H3274 H 0.77164 0.69553 0.94172
 C3275 C 0.79284 0.20774 0.42003
 C3276 C 0.78407 0.19742 0.41104
 C3277 C 0.79038 0.19102 0.39768
 C3278 C 0.80533 0.19483 0.39289
 C3279 C 0.81403 0.20503 0.40184
 C3280 C 0.80791 0.21137 0.41523
 C3281 C 0.78540 0.21480 0.43389
 C3282 C 0.79296 0.22543 0.44350
 C3283 C 0.78494 0.23288 0.45526
 C3284 C 0.76935 0.22971 0.45781
 C3285 C 0.76200 0.21847 0.44900
 C3286 C 0.76983 0.21108 0.43705
 C3287 C 0.76892 0.19381 0.41519
 C3288 C 0.76193 0.20054 0.42788
 H3289 H 0.76222 0.18590 0.40831
 H3290 H 0.75004 0.19767 0.43037
 H3291 H 0.78342 0.18334 0.39082
 H3292 H 0.82564 0.20812 0.39855
 H3293 H 0.79069 0.24169 0.46188
 H3294 H 0.74986 0.21617 0.45092
 H3295 H 0.81512 0.21921 0.42155
 H3296 H 0.80487 0.22854 0.44181
 C3297 C 0.70810 0.29263 0.41958
 C3298 C 0.69797 0.28392 0.41031
 C3299 C 0.69177 0.29027 0.39688
 C3300 C 0.69562 0.30520 0.39228
 C3301 C 0.70566 0.31382 0.40148
 C3302 C 0.71180 0.30767 0.41495
 C3303 C 0.71493 0.28516 0.43354
 C3304 C 0.72532 0.29269 0.44346
 C3305 C 0.73259 0.28468 0.45532
 C3306 C 0.72948 0.26911 0.45768
 C3307 C 0.71846 0.26178 0.44855
 C3308 C 0.71123 0.26962 0.43650
 C3309 C 0.69434 0.26878 0.41428
 C3310 C 0.70089 0.26177 0.42704
 H3311 H 0.68658 0.26212 0.40719
 H3312 H 0.69804 0.24989 0.42937
 H3313 H 0.68421 0.28335 0.38984
 H3314 H 0.70877 0.32542 0.39834
 H3315 H 0.74126 0.29041 0.46217
 H3316 H 0.71621 0.24967 0.45030
 H3317 H 0.71951 0.31483 0.42147
 H3318 H 0.72840 0.30457 0.44193
 C3319 C 0.70760 0.79231 0.91965
 C3320 C 0.71640 0.80249 0.91052
 C3321 C 0.71009 0.80881 0.89712
 C3322 C 0.69509 0.80505 0.89243
 C3323 C 0.68637 0.79499 0.90151
 C3324 C 0.69250 0.78871 0.91493
 C3325 C 0.71503 0.78534 0.93355
 C3326 C 0.70742 0.77485 0.94329
 C3327 C 0.71542 0.76744 0.95508
 C3328 C 0.73104 0.77052 0.95755
 C3329 C 0.73844 0.78165 0.94863
 C3330 C 0.73062 0.78899 0.93664
 C3331 C 0.73158 0.80606 0.91461
 C3332 C 0.73856 0.79942 0.92735
 H3333 H 0.73832 0.81387 0.90764
 H3334 H 0.75047 0.80226 0.92980
 H3335 H 0.71707 0.81638 0.89016
 H3336 H 0.67472 0.79195 0.89832
 H3337 H 0.70962 0.75873 0.96179
 H3338 H 0.75059 0.78390 0.95051
 H3339 H 0.68527 0.78095 0.92132
 H3340 H 0.69549 0.77182 0.94168
 C3341 C 0.20751 0.29245 0.91970
 C3342 C 0.19773 0.28367 0.91013
 C3343 C 0.19157 0.29010 0.89672
 C3344 C 0.19507 0.30523 0.89246
 C3345 C 0.20473 0.31393 0.90200
 C3346 C 0.21085 0.30767 0.91543
 C3347 C 0.21433 0.28490 0.93361
 C3348 C 0.22447 0.29247 0.94375
 C3349 C 0.23180 0.28441 0.95555
 C3350 C 0.22898 0.26875 0.95762
 C3351 C 0.21818 0.26136 0.94828
 C3352 C 0.21093 0.26924 0.93628
 C3353 C 0.19438 0.26839 0.91380
 C3354 C 0.20088 0.26132 0.92656
 H3355 H 0.18686 0.26168 0.90650
 H3356 H 0.19824 0.24936 0.92868
 H3357 H 0.18430 0.28312 0.88945
 H3358 H 0.20757 0.32567 0.89916
 H3359 H 0.24029 0.29021 0.96257
 H3360 H 0.21615 0.24918 0.94983
 H3361 H 0.21827 0.31491 0.92219
 H3362 H 0.22733 0.30443 0.94244
 C3363 C 0.20835 0.79283 0.41917
 C3364 C 0.19806 0.78416 0.41005
 C3365 C 0.19173 0.79051 0.39666
 C3366 C 0.19563 0.80541 0.39196
 C3367 C 0.20583 0.81399 0.40103
 C3368 C 0.21208 0.80783 0.41446
 C3369 C 0.21531 0.78536 0.43306
 C3370 C 0.22584 0.79288 0.44285
 C3371 C 0.23323 0.78487 0.45463
 C3372 C 0.23012 0.76932 0.45704
 C3373 C 0.21897 0.76199 0.44807
 C3374 C 0.21160 0.76984 0.43610
 C3375 C 0.19441 0.76905 0.41409
 C3376 C 0.20109 0.76202 0.42679
 H3377 H 0.18652 0.76241 0.40711
 H3378 H 0.19820 0.75017 0.42919
 H3379 H 0.18406 0.78363 0.38972
 H3380 H 0.20900 0.82555 0.39783
 H3381 H 0.24198 0.79060 0.46138
 H3382 H 0.21670 0.74989 0.44989
 H3383 H 0.21993 0.81495 0.42085
 H3384 H 0.22892 0.80475 0.44127
 C3385 C 0.70779 0.70765 0.58097
 C3386 C 0.69759 0.71632 0.59024
 C3387 C 0.69139 0.70993 0.60365
 C3388 C 0.69528 0.69499 0.60822
 C3389 C 0.70538 0.68640 0.59901
 C3390 C 0.71153 0.69260 0.58557
 C3391 C 0.71462 0.71516 0.56705
 C3392 C 0.72512 0.70770 0.55716
 C3393 C 0.73238 0.71576 0.54533
 C3394 C 0.72912 0.73131 0.54297
 C3395 C 0.71799 0.73856 0.55205
 C3396 C 0.71081 0.73068 0.56408
 C3397 C 0.69388 0.73144 0.58629
 C3398 C 0.70039 0.73849 0.57353
 H3399 H 0.68606 0.73807 0.59337
 H3400 H 0.69745 0.75035 0.57119
 H3401 H 0.68379 0.71682 0.61070
 H3402 H 0.70852 0.67480 0.60213
 H3403 H 0.74112 0.71008 0.53850
 H3404 H 0.71564 0.75066 0.55029
 H3405 H 0.71929 0.68547 0.57904
 H3406 H 0.72831 0.69584 0.55870
 C3407 C 0.70801 0.20761 0.08010
 C3408 C 0.69814 0.21631 0.08967
 C3409 C 0.69206 0.20983 0.10309
 C3410 C 0.69573 0.19474 0.10736
 C3411 C 0.70551 0.18612 0.09784
 C3412 C 0.71155 0.19242 0.08440
 C3413 C 0.71472 0.21520 0.06617
 C3414 C 0.72491 0.20769 0.05600
 C3415 C 0.73211 0.21579 0.04417
 C3416 C 0.72912 0.23142 0.04209
 C3417 C 0.71828 0.23875 0.05146
 C3418 C 0.71115 0.23083 0.06349
 C3419 C 0.69462 0.23156 0.08600
 C3420 C 0.70104 0.23867 0.07323
 H3421 H 0.68704 0.23821 0.09331
 H3422 H 0.69827 0.25062 0.07112
 H3423 H 0.68470 0.21676 0.11034
 H3424 H 0.70850 0.17442 0.10069
 H3425 H 0.74064 0.21005 0.03713
 H3426 H 0.71614 0.25092 0.04991
 H3427 H 0.71906 0.18525 0.07763
 H3428 H 0.72790 0.19575 0.05732
 C3429 C 0.20841 0.70710 0.08046
 C3430 C 0.19797 0.71573 0.08949
 C3431 C 0.19162 0.70937 0.10285
 C3432 C 0.19564 0.69452 0.10762
 C3433 C 0.20600 0.68599 0.09866
 C3434 C 0.21229 0.69215 0.08525
 C3435 C 0.21536 0.71457 0.06658
 C3436 C 0.22602 0.70709 0.05687
 C3437 C 0.23338 0.71512 0.04509
 C3438 C 0.23011 0.73064 0.04261
 C3439 C 0.21884 0.73791 0.05151
 C3440 C 0.21150 0.73005 0.06346
 C3441 C 0.19416 0.73079 0.08537
 C3442 C 0.20085 0.73782 0.07269
 H3443 H 0.18615 0.73738 0.09227
 H3444 H 0.19784 0.74964 0.07023
 H3445 H 0.18383 0.71623 0.10972
 H3446 H 0.20927 0.67447 0.10193
 H3447 H 0.24223 0.70944 0.03840
 H3448 H 0.21647 0.74999 0.04964
 H3449 H 0.22027 0.68507 0.07894
 H3450 H 0.22922 0.69525 0.05850
 C3451 C 0.20752 0.20757 0.58054
 C3452 C 0.21637 0.19739 0.58964
 C3453 C 0.21009 0.19105 0.60305
 C3454 C 0.19510 0.19482 0.60778
 C3455 C 0.18633 0.20487 0.59872
 C3456 C 0.19241 0.21114 0.58528
 C3457 C 0.21491 0.21456 0.56664
 C3458 C 0.20725 0.22504 0.55690
 C3459 C 0.21520 0.23245 0.54509
 C3460 C 0.23084 0.22941 0.54261
 C3461 C 0.23830 0.21832 0.55154
 C3462 C 0.23053 0.21096 0.56353
 C3463 C 0.23157 0.19386 0.58554
 C3464 C 0.23852 0.20055 0.57282
 H3465 H 0.23834 0.18605 0.59250
 H3466 H 0.25045 0.19776 0.57037
 H3467 H 0.21711 0.18347 0.60998
 H3468 H 0.17467 0.20790 0.60193
 H3469 H 0.20936 0.24115 0.53838
 H3470 H 0.25047 0.21611 0.54967
 H3471 H 0.18514 0.21887 0.57889
 H3472 H 0.19531 0.22806 0.55854
   
