data_POSCAR
  _audit_creation_date              2014-09-24
  _audit_creation_method            'ToBaCCo'
  _symmetry_space_group_name_H-M    'P1'
  _symmetry_Int_Tables_number       1
  _symmetry_cell_setting            triclinic
  loop_
  _symmetry_equiv_pos_as_xyz
 x,y,z
_cell_length_a 65.2795
_cell_length_b 65.2456
_cell_length_c 65.2651
_cell_angle_alpha 89.997300
_cell_angle_beta 90.046200
_cell_angle_gamma 90.016400
loop_
  _atom_site_label
  _atom_site_type_symbol
  _atom_site_fract_x
  _atom_site_fract_y
  _atom_site_fract_z
C1 C 0.09655 0.01799 0.22529
 H2 H 0.09600 0.02982 0.23689
 C3 C 0.08535 0.02022 0.20716
 H4 H 0.07601 0.03374 0.20480
 C5 C 0.11007 -0.01371 0.21371
 H6 H 0.12014 -0.02663 0.21601
 C7 C 0.09913 -0.01208 0.19541
 H8 H 0.10062 -0.02389 0.18383
 N9 N 0.10860 0.00121 0.22822
 C10 C 0.12038 -0.00338 0.29380
 H11 H 0.13693 -0.00420 0.29330
 C12 C 0.11020 -0.00507 0.31249
 H13 H 0.11891 -0.00709 0.32648
 C14 C 0.08879 -0.00009 0.27609
 H15 H 0.08054 0.00153 0.26183
 C16 C 0.07797 -0.00173 0.29452
 H17 H 0.06139 -0.00116 0.29446
 Zn18 Zn 0.12536 0.00012 0.25186
 N19 N 0.10963 -0.00079 0.27612
 C20 C 0.14077 0.03774 0.26710
 N21 N 0.14203 0.02383 0.25160
 C22 C 0.15386 0.02740 0.23481
 C23 C 0.16506 0.04559 0.23316
 C24 C 0.15171 0.05608 0.26606
 C25 C 0.13056 -0.04189 0.25359
 C26 C 0.14080 -0.06062 0.25421
 C27 C 0.17295 -0.04240 0.25120
 C28 C 0.16204 -0.02395 0.25063
 N29 N 0.14122 -0.02409 0.25166
 H30 H 0.13087 0.03492 0.28004
 H31 H 0.15425 0.01627 0.22253
 H32 H 0.17422 0.04846 0.21963
 H33 H 0.15039 0.06720 0.27832
 H34 H 0.11403 -0.04148 0.25467
 H35 H 0.13206 -0.07468 0.25569
 H36 H 0.18953 -0.04217 0.25034
 H37 H 0.17022 -0.00959 0.24953
 C38 C 0.08882 -0.00425 0.31286
 C39 C 0.08678 0.00509 0.19204
 C40 C 0.16219 -0.06091 0.25299
 C41 C 0.16384 0.06010 0.24888
 C42 C 0.40311 0.01679 0.77482
 H43 H 0.40404 0.02900 0.76364
 C44 C 0.41373 0.01843 0.79338
 H45 H 0.42301 0.03185 0.79646
 C46 C 0.38917 -0.01521 0.78498
 H47 H 0.37914 -0.02802 0.78198
 C48 C 0.39952 -0.01419 0.80366
 H49 H 0.39763 -0.02635 0.81480
 N50 N 0.39111 0.00015 0.77100
 C51 C 0.38063 -0.00275 0.70506
 H52 H 0.36410 -0.00395 0.70532
 C53 C 0.39105 -0.00357 0.68645
 H54 H 0.38254 -0.00532 0.67230
 C55 C 0.41192 0.00076 0.72324
 H56 H 0.41996 0.00220 0.73765
 C57 C 0.42298 0.00001 0.70489
 H58 H 0.43954 0.00104 0.70516
 Zn59 Zn 0.37490 -0.00024 0.74692
 N60 N 0.39110 -0.00044 0.72294
 C61 C 0.35997 0.03772 0.73220
 N62 N 0.35825 0.02351 0.74738
 C63 C 0.34599 0.02680 0.76392
 C64 C 0.33483 0.04501 0.76562
 C65 C 0.34907 0.05607 0.73329
 C66 C 0.36982 -0.04217 0.74380
 C67 C 0.35967 -0.06094 0.74283
 C68 C 0.32745 -0.04300 0.74627
 C69 C 0.33824 -0.02448 0.74717
 N70 N 0.35907 -0.02447 0.74615
 H71 H 0.37019 0.03513 0.71947
 H72 H 0.34524 0.01545 0.77597
 H73 H 0.32532 0.04766 0.77895
 H74 H 0.35077 0.06741 0.72128
 H75 H 0.38635 -0.04165 0.74277
 H76 H 0.36839 -0.07496 0.74112
 H77 H 0.31089 -0.04299 0.74722
 H78 H 0.32999 -0.01021 0.74864
 C79 C 0.41240 -0.00215 0.68635
 C80 C 0.41178 0.00284 0.80797
 C81 C 0.33832 -0.06137 0.74414
 C82 C 0.33651 0.05982 0.75021
 C83 C 0.90262 0.51832 0.27633
 H84 H 0.90363 0.53064 0.26529
 C85 C 0.91320 0.51969 0.29492
 H86 H 0.92253 0.53305 0.29813
 C87 C 0.88855 0.48623 0.28604
 H88 H 0.87850 0.47348 0.28282
 C89 C 0.89885 0.48698 0.30476
 H90 H 0.89688 0.47464 0.31571
 N91 N 0.89059 0.50176 0.27226
 C92 C 0.88109 0.49980 0.20616
 H93 H 0.86454 0.49879 0.20608
 C94 C 0.89187 0.49914 0.18775
 H95 H 0.88362 0.49769 0.17340
 C96 C 0.91206 0.50265 0.22500
 H97 H 0.91983 0.50376 0.23958
 C98 C 0.92347 0.50204 0.20686
 H99 H 0.94004 0.50284 0.20747
 Zn100 Zn 0.87466 0.50173 0.24800
 N101 N 0.89124 0.50171 0.22427
 C102 C 0.86034 0.54006 0.23363
 N103 N 0.85821 0.52563 0.24855
 C104 C 0.84579 0.52884 0.26498
 C105 C 0.83491 0.54721 0.26687
 C106 C 0.84974 0.55858 0.23492
 C107 C 0.86937 0.45985 0.24433
 C108 C 0.85913 0.44115 0.24301
 C109 C 0.82697 0.45921 0.24625
 C110 C 0.83784 0.47766 0.24751
 N111 N 0.85869 0.47758 0.24676
 H112 H 0.87069 0.53752 0.22100
 H113 H 0.84471 0.51731 0.27685
 H114 H 0.82529 0.54980 0.28014
 H115 H 0.85178 0.57009 0.22313
 H116 H 0.88591 0.46029 0.24352
 H117 H 0.86781 0.42710 0.24124
 H118 H 0.81039 0.45929 0.24700
 H119 H 0.82965 0.49196 0.24906
 C120 C 0.91323 0.50029 0.18808
 C121 C 0.91118 0.50391 0.30931
 C122 C 0.83776 0.44080 0.24404
 C123 C 0.83705 0.56226 0.25175
 C124 C 0.59674 0.51885 0.72440
 H125 H 0.59619 0.53074 0.73594
 C126 C 0.58560 0.52104 0.70623
 H127 H 0.57631 0.53458 0.70378
 C128 C 0.61016 0.48705 0.71302
 H129 H 0.62017 0.47410 0.71543
 C130 C 0.59929 0.48863 0.69468
 H131 H 0.60076 0.47675 0.68317
 N132 N 0.60870 0.50204 0.72745
 C133 C 0.62007 0.49775 0.79314
 H134 H 0.63661 0.49678 0.79275
 C135 C 0.60977 0.49639 0.81178
 H136 H 0.61838 0.49445 0.82585
 C137 C 0.58862 0.50117 0.77521
 H138 H 0.58047 0.50274 0.76089
 C139 C 0.57768 0.49987 0.79360
 H140 H 0.56110 0.50062 0.79343
 Zn141 Zn 0.62534 0.50102 0.75119
 N142 N 0.60945 0.50026 0.77537
 C143 C 0.64065 0.53870 0.76640
 N144 N 0.64199 0.52476 0.75094
 C145 C 0.65391 0.52830 0.73421
 C146 C 0.66511 0.54649 0.73258
 C147 C 0.65159 0.55704 0.76538
 C148 C 0.63065 0.45897 0.75308
 C149 C 0.64099 0.44029 0.75376
 C150 C 0.67304 0.45863 0.75087
 C151 C 0.66207 0.47704 0.75023
 N152 N 0.64124 0.47683 0.75116
 H153 H 0.63068 0.53590 0.77930
 H154 H 0.65437 0.51715 0.72195
 H155 H 0.67435 0.54933 0.71909
 H156 H 0.65020 0.56818 0.77762
 H157 H 0.61411 0.45931 0.75408
 H158 H 0.63240 0.42615 0.75522
 H159 H 0.68962 0.45884 0.75009
 H160 H 0.67020 0.49142 0.74915
 C161 C 0.58840 0.49747 0.81203
 C162 C 0.58701 0.50583 0.69119
 C163 C 0.66236 0.44011 0.75263
 C164 C 0.66382 0.56103 0.74827
 C165 C 0.27485 0.09667 0.98236
 H166 H 0.26322 0.09613 0.97055
 C167 C 0.29287 0.08530 0.98017
 H168 H 0.29510 0.07584 0.96672
 C169 C 0.28663 0.11030 1.01394
 H170 H 0.28444 0.12047 1.02680
 C171 C 0.30482 0.09920 1.01236
 H172 H 0.31643 0.10066 1.02414
 N173 N 0.27207 0.10885 0.99907
 C174 C 0.20657 0.12089 1.00383
 H175 H 0.20716 0.13744 1.00470
 C176 C 0.18783 0.11078 1.00538
 H177 H 0.17388 0.11956 1.00735
 C178 C 0.22411 0.08921 1.00044
 H179 H 0.23832 0.08090 0.99879
 C180 C 0.20561 0.07847 1.00193
 H181 H 0.20557 0.06188 1.00123
 Zn182 Zn 0.24852 0.12572 1.00013
 N183 N 0.22419 0.11007 1.00123
 C184 C 0.23310 0.14071 0.96244
 N185 N 0.24868 0.14216 0.97624
 C186 C 0.26546 0.15395 0.97241
 C187 C 0.26700 0.16490 0.95406
 C188 C 0.23403 0.15140 0.94395
 C189 C 0.24699 0.13131 1.04209
 C190 C 0.24648 0.14173 1.06073
 C191 C 0.24955 0.17372 1.04223
 C192 C 0.25002 0.16264 1.02387
 N193 N 0.24890 0.14181 1.02419
 H194 H 0.22017 0.13084 0.96546
 H195 H 0.27781 0.15449 0.98345
 H196 H 0.28052 0.17402 0.95098
 H197 H 0.22169 0.14992 0.93293
 H198 H 0.24584 0.11477 1.04183
 H199 H 0.24501 0.13312 1.07487
 H200 H 0.25047 0.19031 1.04184
 H201 H 0.25110 0.17068 1.00944
 C202 C 0.18733 0.08940 1.00440
 C203 C 0.30803 0.08670 0.99527
 C204 C 0.24778 0.16313 1.06083
 C205 C 0.25119 0.16347 0.93966
 C206 C 0.72583 0.40222 0.98388
 H207 H 0.73691 0.40307 0.97159
 C208 C 0.70736 0.41299 0.98240
 H209 H 0.70423 0.42228 0.96900
 C210 C 0.71590 0.38843 1.01601
 H211 H 0.71898 0.37844 1.02883
 C212 C 0.69730 0.39893 1.01514
 H213 H 0.68627 0.39716 1.02741
 N214 N 0.72974 0.39026 1.00052
 C215 C 0.79574 0.38054 1.00298
 H216 H 0.79576 0.36400 1.00412
 C217 C 0.81418 0.39129 1.00365
 H218 H 0.82849 0.38302 1.00523
 C219 C 0.77703 0.41155 0.99976
 H220 H 0.76249 0.41936 0.99850
 C221 C 0.79520 0.42293 1.00037
 H222 H 0.79465 0.43950 0.99941
 Zn223 Zn 0.75390 0.37422 1.00079
 N224 N 0.77769 0.39073 1.00087
 C225 C 0.76849 0.35957 0.96270
 N226 N 0.75344 0.35760 0.97700
 C227 C 0.73699 0.34519 0.97373
 C228 C 0.73523 0.33414 0.95545
 C229 C 0.76734 0.34880 0.94427
 C230 C 0.75732 0.36915 1.04270
 C231 C 0.75850 0.35902 1.06146
 C232 C 0.75520 0.32673 1.04352
 C233 C 0.75409 0.33753 1.02503
 N234 N 0.75494 0.35838 1.02501
 H235 H 0.78114 0.36991 0.96526
 H236 H 0.72503 0.34425 0.98516
 H237 H 0.72196 0.32453 0.95281
 H238 H 0.77923 0.35071 0.93286
 H239 H 0.75821 0.38570 1.04217
 H240 H 0.76023 0.36785 1.07543
 H241 H 0.75436 0.31013 1.04342
 H242 H 0.75258 0.32927 1.01076
 C243 C 0.81392 0.41265 1.00230
 C244 C 0.69294 0.41120 0.99815
 C245 C 0.75736 0.33761 1.06192
 C246 C 0.75050 0.33610 0.94054
 C247 C 0.22553 0.90256 0.48399
 H248 H 0.23673 0.90361 0.47182
 C249 C 0.20690 0.91300 0.48231
 H250 H 0.20377 0.92228 0.46890
 C251 C 0.21543 0.88845 0.51592
 H252 H 0.21849 0.87841 0.52870
 C253 C 0.19666 0.89862 0.51485
 H254 H 0.18550 0.89659 0.52696
 N255 N 0.22942 0.89055 0.50060
 C256 C 0.29543 0.88055 0.50317
 H257 H 0.29533 0.86400 0.50411
 C258 C 0.31394 0.89116 0.50412
 H259 H 0.32818 0.88277 0.50570
 C260 C 0.27695 0.91173 0.50024
 H261 H 0.26246 0.91964 0.49900
 C262 C 0.29519 0.92297 0.50114
 H263 H 0.29476 0.93955 0.50041
 Zn264 Zn 0.25358 0.87449 0.50084
 N265 N 0.27745 0.89088 0.50110
 C266 C 0.26809 0.85990 0.46266
 N267 N 0.25305 0.85802 0.47698
 C268 C 0.23648 0.84577 0.47371
 C269 C 0.23457 0.83481 0.45539
 C270 C 0.26678 0.84921 0.44418
 C271 C 0.25679 0.86904 0.54274
 C272 C 0.25796 0.85869 0.56139
 C273 C 0.25488 0.82661 0.54310
 C274 C 0.25376 0.83760 0.52472
 N275 N 0.25451 0.85845 0.52493
 H276 H 0.28084 0.87012 0.46524
 H277 H 0.22454 0.84489 0.48516
 H278 H 0.22120 0.82533 0.45276
 H279 H 0.27866 0.85105 0.43275
 H280 H 0.25762 0.88560 0.54240
 H281 H 0.25963 0.86729 0.57550
 H282 H 0.25415 0.81003 0.54291
 H283 H 0.25235 0.82948 0.51036
 C284 C 0.31384 0.91255 0.50308
 C285 C 0.19228 0.91086 0.49783
 C286 C 0.25695 0.83731 0.56159
 C287 C 0.24981 0.83669 0.44045
 C288 C 0.77420 0.59558 0.48161
 H289 H 0.76267 0.59511 0.46970
 C290 C 0.79216 0.58409 0.47958
 H291 H 0.79445 0.57460 0.46615
 C292 C 0.78583 0.60921 0.51324
 H293 H 0.78363 0.61945 0.52605
 C294 C 0.80396 0.59799 0.51182
 H295 H 0.81550 0.59943 0.52368
 N296 N 0.77139 0.60784 0.49825
 C297 C 0.70605 0.62095 0.50220
 H298 H 0.70687 0.63749 0.50285
 C299 C 0.68715 0.61113 0.50382
 H300 H 0.67332 0.62013 0.50562
 C301 C 0.72314 0.58897 0.49939
 H302 H 0.73725 0.58044 0.49798
 C303 C 0.70449 0.57852 0.50097
 H304 H 0.70423 0.56192 0.50057
 Zn305 Zn 0.74811 0.62507 0.49896
 N306 N 0.72352 0.60983 0.49988
 C307 C 0.73345 0.64032 0.46105
 N308 N 0.74889 0.64141 0.47504
 C309 C 0.76597 0.65281 0.47144
 C310 C 0.76798 0.66377 0.45314
 C311 C 0.73484 0.65104 0.44260
 C312 C 0.74625 0.63094 0.54088
 C313 C 0.74586 0.64149 0.55943
 C314 C 0.74975 0.67327 0.54077
 C315 C 0.75008 0.66208 0.52248
 N316 N 0.74852 0.64128 0.52292
 H317 H 0.72026 0.63075 0.46391
 H318 H 0.77820 0.65306 0.48264
 H319 H 0.78173 0.67261 0.45026
 H320 H 0.72260 0.64988 0.43144
 H321 H 0.74476 0.61442 0.54071
 H322 H 0.74413 0.63310 0.57365
 H323 H 0.75104 0.68982 0.54039
 H324 H 0.75144 0.67002 0.50802
 C325 C 0.68636 0.58974 0.50321
 C326 C 0.80722 0.58545 0.49478
 C327 C 0.74765 0.66283 0.55938
 C328 C 0.75231 0.66275 0.43856
 C329 C 0.01763 0.22542 0.09649
 H330 H 0.02980 0.23666 0.09573
 C331 C 0.01942 0.20694 0.08579
 H332 H 0.03292 0.20396 0.07662
 C333 C -0.01444 0.21507 0.11007
 H334 H -0.02734 0.21799 0.11999
 C335 C -0.01327 0.19645 0.09963
 H336 H -0.02540 0.18525 0.10134
 N337 N 0.00089 0.22912 0.10834
 C338 C -0.00211 0.29503 0.11880
 H339 H -0.00339 0.29478 0.13533
 C340 C -0.00277 0.31364 0.10835
 H341 H -0.00449 0.32780 0.11688
 C342 C 0.00152 0.27680 0.08756
 H343 H 0.00296 0.26238 0.07956
 C344 C 0.00093 0.29515 0.07645
 H345 H 0.00208 0.29481 0.05989
 Zn346 Zn 0.00038 0.25315 0.12459
 N347 N 0.00020 0.27714 0.10837
 C348 C 0.03833 0.26788 0.13951
 N349 N 0.02412 0.25270 0.14126
 C350 C 0.02746 0.23612 0.15347
 C351 C 0.04573 0.23435 0.16454
 C352 C 0.05674 0.26672 0.15031
 C353 C -0.04157 0.25614 0.12967
 C354 C -0.06029 0.25723 0.13986
 C355 C -0.04226 0.25403 0.17207
 C356 C -0.02379 0.25300 0.16124
 N357 N -0.02384 0.25386 0.14040
 H358 H 0.03571 0.28064 0.12932
 H359 H 0.01610 0.22407 0.15424
 H360 H 0.04842 0.22097 0.17399
 H361 H 0.06809 0.27872 0.14857
 H362 H -0.04110 0.25707 0.11313
 H363 H -0.07433 0.25892 0.13116
 H364 H -0.04219 0.25324 0.18865
 H365 H -0.00949 0.25159 0.16948
 C366 C -0.00119 0.31373 0.08699
 C367 C 0.00387 0.19228 0.08751
 C368 C -0.06065 0.25613 0.16123
 C369 C 0.06055 0.24975 0.16280
 C370 C 0.01564 0.77298 0.40325
 H371 H 0.02748 0.76139 0.40365
 C372 C 0.01805 0.79113 0.41440
 H373 H 0.03170 0.79348 0.42356
 C374 C -0.01621 0.78458 0.39013
 H375 H -0.02926 0.78227 0.38022
 C376 C -0.01441 0.80289 0.40103
 H377 H -0.02622 0.81448 0.39967
 N378 N -0.00128 0.77007 0.39140
 C379 C -0.00576 0.70447 0.37941
 H380 H -0.00685 0.70506 0.36288
 C381 C -0.00707 0.68570 0.38951
 H382 H -0.00908 0.67173 0.38075
 C383 C -0.00209 0.72202 0.41105
 H384 H -0.00043 0.73625 0.41934
 C385 C -0.00334 0.70350 0.42179
 H386 H -0.00245 0.70346 0.43836
 Zn387 Zn -0.00246 0.74647 0.37456
 N388 N -0.00315 0.72211 0.39021
 C389 C 0.03516 0.73144 0.35905
 N390 N 0.02119 0.74688 0.35781
 C391 C 0.02471 0.76375 0.34606
 C392 C 0.04294 0.76558 0.33498
 C393 C 0.05354 0.73265 0.34822
 C394 C -0.04452 0.74466 0.36947
 C395 C -0.06327 0.74396 0.35926
 C396 C -0.04515 0.74706 0.32707
 C397 C -0.02668 0.74771 0.33796
 N398 N -0.02675 0.74666 0.35879
 H399 H 0.03238 0.71843 0.36889
 H400 H 0.01354 0.77599 0.34569
 H401 H 0.04579 0.77919 0.32592
 H402 H 0.06472 0.72044 0.34956
 H403 H -0.04406 0.74356 0.38601
 H404 H -0.07730 0.74242 0.36801
 H405 H -0.04496 0.74794 0.31049
 H406 H -0.01236 0.74887 0.32976
 C407 C -0.00584 0.68519 0.41088
 C408 C 0.00293 0.80627 0.41314
 C409 C -0.06362 0.74518 0.33785
 C410 C 0.05754 0.74993 0.33621
 C411 C 0.51682 0.27281 0.90364
 H412 H 0.52881 0.26138 0.90423
 C413 C 0.51862 0.29084 0.91508
 H414 H 0.53197 0.29328 0.92465
 C415 C 0.48515 0.28407 0.88979
 H416 H 0.47241 0.28171 0.87951
 C417 C 0.48635 0.30226 0.90097
 H418 H 0.47440 0.31368 0.89943
 N419 N 0.50026 0.26978 0.89131
 C420 C 0.49659 0.20423 0.87888
 H421 H 0.49590 0.20485 0.86233
 C422 C 0.49512 0.18542 0.88891
 H423 H 0.49339 0.17147 0.88007
 C424 C 0.49938 0.22171 0.91064
 H425 H 0.50075 0.23593 0.91902
 C426 C 0.49795 0.20317 0.92131
 H427 H 0.49842 0.20309 0.93790
 Zn428 Zn 0.49970 0.24630 0.87429
 N429 N 0.49884 0.22185 0.88979
 C430 C 0.53766 0.23157 0.85932
 N431 N 0.52367 0.24698 0.85801
 C432 C 0.52729 0.26394 0.84641
 C433 C 0.54561 0.26584 0.83550
 C434 C 0.55613 0.23285 0.84865
 C435 C 0.45781 0.24414 0.86838
 C436 C 0.43925 0.24372 0.85783
 C437 C 0.45786 0.24764 0.82606
 C438 C 0.47616 0.24799 0.83724
 N439 N 0.47575 0.24646 0.85804
 H440 H 0.53479 0.21849 0.86903
 H441 H 0.51609 0.27616 0.84599
 H442 H 0.54851 0.27949 0.82650
 H443 H 0.56729 0.22064 0.84999
 H444 H 0.45799 0.24267 0.88489
 H445 H 0.42504 0.24199 0.86623
 H446 H 0.45822 0.24896 0.80952
 H447 H 0.49061 0.24941 0.82930
 C448 C 0.49581 0.18488 0.91030
 C449 C 0.50328 0.30573 0.91361
 C450 C 0.43926 0.24553 0.83651
 C451 C 0.56019 0.25019 0.83674
 C452 C 0.51744 0.72663 0.59759
 H453 H 0.52958 0.73788 0.59657
 C454 C 0.51898 0.70818 0.58680
 H455 H 0.53225 0.70523 0.57730
 C456 C 0.48568 0.71626 0.61188
 H457 H 0.47300 0.71915 0.62208
 C458 C 0.48661 0.69767 0.60136
 H459 H 0.47451 0.68647 0.60331
 N460 N 0.50096 0.73031 0.60982
 C461 C 0.49798 0.79627 0.61999
 H462 H 0.49716 0.79615 0.63655
 C463 C 0.49686 0.81479 0.60940
 H464 H 0.49525 0.82902 0.61781
 C465 C 0.50083 0.77781 0.58880
 H466 H 0.50211 0.76334 0.58087
 C467 C 0.49976 0.79606 0.57757
 H468 H 0.50040 0.79564 0.56100
 Zn469 Zn 0.50068 0.75441 0.62598
 N470 N 0.50011 0.77831 0.60964
 C471 C 0.53884 0.76929 0.64024
 N472 N 0.52468 0.75410 0.64228
 C473 C 0.52823 0.73760 0.65454
 C474 C 0.54666 0.73592 0.66535
 C475 C 0.55742 0.76822 0.65077
 C476 C 0.45884 0.75734 0.63158
 C477 C 0.44022 0.75831 0.64195
 C478 C 0.45858 0.75511 0.67398
 C479 C 0.47695 0.75420 0.66297
 N480 N 0.47669 0.75511 0.64213
 H481 H 0.53605 0.78198 0.63001
 H482 H 0.51690 0.72553 0.65555
 H483 H 0.54951 0.72260 0.67485
 H484 H 0.56872 0.78023 0.64880
 H485 H 0.45914 0.75828 0.61503
 H486 H 0.42609 0.75993 0.63339
 H487 H 0.45881 0.75425 0.69055
 H488 H 0.49133 0.75282 0.67106
 C489 C 0.49778 0.81469 0.58802
 C490 C 0.50345 0.69353 0.58883
 C491 C 0.44007 0.75713 0.66332
 C492 C 0.56143 0.75132 0.66331
 C493 C 0.90649 0.98359 0.72416
 H494 H 0.90762 0.97142 0.73537
 C495 C 0.91721 0.98253 0.70668
 H496 H 0.92709 0.96952 0.70378
 C497 C 0.89122 1.01549 0.71466
 H498 H 0.88073 1.02795 0.71737
 C499 C 0.90278 1.01501 0.69530
 H500 H 0.90079 1.02735 0.68435
 N501 N 0.89322 1.00079 0.72805
 C502 C 0.88226 1.00589 0.79494
 H503 H 0.86586 1.00825 0.79451
 C504 C 0.89213 1.00570 0.81287
 H505 H 0.88371 1.00797 0.82699
 C506 C 0.91307 1.00017 0.77599
 H507 H 0.92106 0.99785 0.76170
 C508 C 0.92463 0.99983 0.79549
 H509 H 0.94102 0.99718 0.79524
 Zn510 Zn 0.87695 1.00127 0.75217
 N511 N 0.89324 1.00256 0.77613
 C512 C 0.86327 0.96388 0.76903
 N513 N 0.86107 0.97689 0.75287
 C514 C 0.84872 0.97207 0.73675
 C515 C 0.83782 0.95358 0.73663
 C516 C 0.85268 0.94533 0.76953
 C517 C 0.87036 1.04316 0.75433
 C518 C 0.85972 1.06166 0.75328
 C519 C 0.82837 1.04263 0.74812
 C520 C 0.83962 1.02440 0.74928
 N521 N 0.86030 1.02504 0.75197
 H522 H 0.87355 0.96760 0.78144
 H523 H 0.84755 0.98246 0.72389
 H524 H 0.82814 0.94975 0.72371
 H525 H 0.85469 0.93503 0.78240
 H526 H 0.88678 1.04320 0.75659
 H527 H 0.86795 1.07600 0.75480
 H528 H 0.81197 1.04208 0.74562
 H529 H 0.83189 1.00985 0.74773
 C530 C 0.91448 1.00221 0.81321
 C531 C 0.91521 0.99916 0.69138
 C532 C 0.83858 1.06141 0.74993
 C533 C 0.83989 0.94008 0.75319
 C534 C 0.40356 0.48578 0.22373
 H535 H 0.40493 0.47354 0.23483
 C536 C 0.41489 0.48507 0.20553
 H537 H 0.42511 0.47233 0.20264
 C538 C 0.38807 0.51701 0.21346
 H539 H 0.37727 0.52920 0.21625
 C540 C 0.39908 0.51690 0.19516
 H541 H 0.39685 0.52912 0.18414
 N542 N 0.39055 0.50167 0.22740
 C543 C 0.37981 0.50606 0.29329
 H544 H 0.36334 0.50788 0.29283
 C545 C 0.39000 0.50603 0.31206
 H546 H 0.38139 0.50790 0.32612
 C547 C 0.41109 0.50099 0.27552
 H548 H 0.41922 0.49899 0.26125
 C549 C 0.42192 0.50084 0.29404
 H550 H 0.43837 0.49868 0.29401
 Zn551 Zn 0.37421 0.50174 0.25147
 N552 N 0.39035 0.50317 0.27555
 C553 C 0.36108 0.46399 0.26800
 N554 N 0.35866 0.47714 0.25197
 C555 C 0.34626 0.47234 0.23588
 C556 C 0.33549 0.45378 0.23568
 C557 C 0.35061 0.44536 0.26841
 C558 C 0.36707 0.54350 0.25364
 C559 C 0.35619 0.56186 0.25267
 C560 C 0.32506 0.54243 0.24761
 C561 C 0.33655 0.52436 0.24870
 N562 N 0.35723 0.52526 0.25130
 H563 H 0.37140 0.46767 0.28038
 H564 H 0.34493 0.48283 0.22311
 H565 H 0.32573 0.44999 0.22279
 H566 H 0.35277 0.43498 0.28119
 H567 H 0.38349 0.54375 0.25584
 H568 H 0.36424 0.57631 0.25418
 H569 H 0.30866 0.54168 0.24519
 H570 H 0.32899 0.50971 0.24717
 C571 C 0.41120 0.50316 0.31247
 C572 C 0.41257 0.50080 0.19112
 C573 C 0.33504 0.56134 0.24941
 C574 C 0.33774 0.44018 0.25212
 C575 C 0.59603 0.98659 0.27659
 H576 H 0.59454 0.97389 0.26603
 C577 C 0.58577 0.98645 0.29437
 H578 H 0.57591 0.97364 0.29817
 C579 C 0.61167 1.01884 0.28410
 H580 H 0.62211 1.03112 0.28048
 C581 C 0.60064 1.01937 0.30377
 H582 H 0.60295 1.03224 0.31403
 N583 N 0.60922 1.00354 0.27149
 C584 C 0.61669 1.00509 0.20504
 H585 H 0.63314 1.00703 0.20442
 C586 C 0.60538 1.00405 0.18694
 H587 H 0.61310 1.00527 0.17231
 C588 C 0.58656 1.00073 0.22489
 H589 H 0.57932 0.99942 0.23970
 C590 C 0.57464 0.99959 0.20709
 H591 H 0.55824 0.99734 0.20824
 Zn592 Zn 0.62457 1.00280 0.24680
 N593 N 0.60725 1.00301 0.22351
 C594 C 0.63769 0.96458 0.23129
 N595 N 0.64035 0.97836 0.24674
 C596 C 0.65323 0.97436 0.26266
 C597 C 0.66431 0.95599 0.26325
 C598 C 0.64843 0.94611 0.23129
 C599 C 0.63145 1.04458 0.24264
 C600 C 0.64228 1.06300 0.24296
 C601 C 0.67357 1.04379 0.24792
 C602 C 0.66211 1.02567 0.24748
 N603 N 0.64137 1.02644 0.24533
 H604 H 0.62699 0.96765 0.21907
 H605 H 0.65475 0.98535 0.27498
 H606 H 0.67447 0.95286 0.27600
 H607 H 0.64611 0.93523 0.21897
 H608 H 0.61497 1.04472 0.24083
 H609 H 0.63411 1.07736 0.24130
 H610 H 0.69001 1.04309 0.25013
 H611 H 0.66974 1.01110 0.24930
 C612 C 0.58421 1.00102 0.18796
 C613 C 0.58823 1.00381 0.30876
 C614 C 0.66350 1.06264 0.24591
 C615 C 0.66184 0.94176 0.24740
 C616 C 0.09615 0.48553 0.77684
 H617 H 0.09412 0.47284 0.76636
 C618 C 0.08568 0.48576 0.79556
 H619 H 0.07547 0.47328 0.79948
 C620 C 0.11235 0.51704 0.78495
 H621 H 0.12307 0.52901 0.78111
 C622 C 0.10222 0.51786 0.80373
 H623 H 0.10504 0.53056 0.81406
 N624 N 0.10906 0.50114 0.77183
 C625 C 0.11577 0.50299 0.70529
 H626 H 0.13224 0.50477 0.70462
 C627 C 0.10439 0.50224 0.68722
 H628 H 0.11207 0.50352 0.67257
 C629 C 0.08568 0.49873 0.72521
 H630 H 0.07849 0.49734 0.74003
 C631 C 0.07369 0.49788 0.70744
 H632 H 0.05727 0.49577 0.70862
 Zn633 Zn 0.12396 0.50023 0.74687
 N634 N 0.10639 0.50083 0.72377
 C635 C 0.13641 0.46201 0.73086
 N636 N 0.13948 0.47563 0.74637
 C637 C 0.15273 0.47142 0.76194
 C638 C 0.16382 0.45306 0.76204
 C639 C 0.14716 0.44355 0.73037
 C640 C 0.13116 0.54191 0.74280
 C641 C 0.14212 0.56024 0.74318
 C642 C 0.17331 0.54080 0.74771
 C643 C 0.16174 0.52275 0.74722
 N644 N 0.14099 0.52368 0.74527
 H645 H 0.12543 0.46523 0.71893
 H646 H 0.15458 0.48228 0.77433
 H647 H 0.17432 0.44979 0.77447
 H648 H 0.14454 0.43282 0.71797
 H649 H 0.11467 0.54217 0.74117
 H650 H 0.13408 0.57469 0.74175
 H651 H 0.18976 0.54003 0.74979
 H652 H 0.16929 0.50812 0.74887
 C653 C 0.08320 0.49941 0.68829
 C654 C 0.08878 0.50211 0.80910
 C655 C 0.16334 0.55970 0.74596
 C656 C 0.16099 0.43903 0.74606
 C657 C 0.77551 0.90474 0.01496
 H658 H 0.76446 0.90576 0.02726
 C659 C 0.79362 0.91622 0.01583
 H660 H 0.79649 0.92621 0.02877
 C661 C 0.78577 0.88996 -0.01661
 H662 H 0.78302 0.87938 -0.02900
 C663 C 0.80397 0.90114 -0.01634
 H664 H 0.81496 0.89925 -0.02863
 N665 N 0.77189 0.89200 -0.00118
 C666 C 0.70612 0.88064 -0.00562
 H667 H 0.70670 0.86420 -0.00770
 C668 C 0.68729 0.89068 -0.00538
 H669 H 0.67328 0.88199 -0.00735
 C670 C 0.72368 0.91201 -0.00009
 H671 H 0.73790 0.92022 0.00200
 C672 C 0.70509 0.92268 0.00027
 H673 H 0.70502 0.93911 0.00270
 Zn674 Zn 0.74802 0.87539 -0.00145
 N675 N 0.72379 0.89129 -0.00260
 C676 C 0.73173 0.86137 0.03607
 N677 N 0.74779 0.85949 0.02290
 C678 C 0.76413 0.84736 0.02752
 C679 C 0.76456 0.83632 0.04591
 C680 C 0.73154 0.85062 0.05452
 C681 C 0.74581 0.86868 -0.04330
 C682 C 0.74704 0.85801 -0.06176
 C683 C 0.75268 0.82677 -0.04265
 C684 C 0.75133 0.83806 -0.02447
 N685 N 0.74834 0.85870 -0.02517
 H686 H 0.71915 0.87149 0.03252
 H687 H 0.77691 0.84646 0.01702
 H688 H 0.77764 0.82678 0.04956
 H689 H 0.71873 0.85235 0.06493
 H690 H 0.74332 0.88507 -0.04338
 H691 H 0.74541 0.86617 -0.07613
 H692 H 0.75544 0.81041 -0.04206
 H693 H 0.75299 0.83038 -0.00991
 C694 C 0.68674 0.91185 -0.00216
 C695 C 0.80797 0.91433 0.00002
 C696 C 0.75074 0.83692 -0.06145
 C697 C 0.74808 0.83802 0.05952
 C698 C 0.27478 0.40410 0.51527
 H699 H 0.26360 0.40512 0.52746
 C700 C 0.29278 0.41574 0.51623
 H701 H 0.29545 0.42584 0.52913
 C702 C 0.28540 0.38927 0.48386
 H703 H 0.28281 0.37863 0.47147
 C704 C 0.30351 0.40059 0.48422
 H705 H 0.31460 0.39876 0.47201
 N706 N 0.27136 0.39130 0.49914
 C707 C 0.20558 0.38040 0.49391
 H708 H 0.20604 0.36396 0.49179
 C709 C 0.18681 0.39058 0.49405
 H710 H 0.17275 0.38199 0.49198
 C711 C 0.22332 0.41161 0.49966
 H712 H 0.23758 0.41972 0.50188
 C713 C 0.20481 0.42243 0.49993
 H714 H 0.20484 0.43884 0.50243
 Zn715 Zn 0.24739 0.37480 0.49855
 N716 N 0.22330 0.39090 0.49710
 C717 C 0.23049 0.36111 0.53591
 N718 N 0.24666 0.35889 0.52292
 C719 C 0.26272 0.34647 0.52776
 C720 C 0.26273 0.33549 0.54620
 C721 C 0.22990 0.35043 0.55440
 C722 C 0.24564 0.36828 0.45665
 C723 C 0.24688 0.35770 0.43814
 C724 C 0.25198 0.32629 0.45712
 C725 C 0.25063 0.33750 0.47536
 N726 N 0.24788 0.35818 0.47475
 H727 H 0.21814 0.37145 0.53221
 H728 H 0.27560 0.34530 0.51741
 H729 H 0.27560 0.32573 0.55002
 H730 H 0.21701 0.35245 0.56466
 H731 H 0.24333 0.38470 0.45664
 H732 H 0.24545 0.36596 0.42381
 H733 H 0.25451 0.30989 0.45764
 H734 H 0.25207 0.32972 0.48989
 C735 C 0.18640 0.41173 0.49736
 C736 C 0.30726 0.41393 0.50053
 C737 C 0.25029 0.33656 0.43835
 C738 C 0.24615 0.33755 0.55963
 C739 C 0.22412 0.59564 0.01479
 H740 H 0.23448 0.59384 0.02762
 C741 C 0.20543 0.58511 0.01454
 H742 H 0.20144 0.57507 0.02715
 C743 C 0.21626 0.61139 -0.01700
 H744 H 0.22020 0.62198 -0.02906
 C745 C 0.19751 0.60120 -0.01787
 H746 H 0.18732 0.60386 -0.03072
 N747 N 0.22923 0.60838 -0.00092
 C748 C 0.29573 0.61574 -0.00190
 H749 H 0.29630 0.63221 -0.00375
 C750 C 0.31387 0.60450 -0.00090
 H751 H 0.32847 0.61232 -0.00206
 C752 C 0.27600 0.58548 0.00222
 H753 H 0.26122 0.57815 0.00343
 C754 C 0.29384 0.57363 0.00331
 H755 H 0.29276 0.55720 0.00541
 Zn756 Zn 0.25404 0.62354 0.00020
 N757 N 0.27730 0.60619 0.00005
 C758 C 0.26938 0.63644 0.03857
 N759 N 0.25404 0.63923 0.02470
 C760 C 0.23821 0.65224 0.02862
 C761 C 0.23765 0.66335 0.04696
 C762 C 0.26941 0.64721 0.05702
 C763 C 0.25857 0.63054 -0.04146
 C764 C 0.25830 0.64140 -0.05985
 C765 C 0.25318 0.67266 -0.04066
 C766 C 0.25357 0.66118 -0.02254
 N767 N 0.25576 0.64045 -0.02333
 H768 H 0.28152 0.62564 0.03557
 H769 H 0.22597 0.65386 0.01756
 H770 H 0.22500 0.67364 0.05002
 H771 H 0.28167 0.64481 0.06796
 H772 H 0.26038 0.61406 -0.04161
 H773 H 0.25999 0.63329 -0.07424
 H774 H 0.25090 0.68909 -0.04001
 H775 H 0.25165 0.66880 -0.00798
 C776 C 0.31294 0.58330 0.00196
 C777 C 0.19200 0.58796 -0.00198
 C778 C 0.25528 0.66259 -0.05948
 C779 C 0.25343 0.66078 0.06127
 C780 C 0.72488 0.09729 0.51460
 H781 H 0.73551 0.09563 0.52721
 C782 C 0.70631 0.08655 0.51474
 H783 H 0.70265 0.07650 0.52743
 C784 C 0.71623 0.11283 0.48290
 H785 H 0.71983 0.12339 0.47071
 C786 C 0.69758 0.10242 0.48245
 H787 H 0.68709 0.10486 0.46981
 N788 N 0.72955 0.10999 0.49872
 C789 C 0.79600 0.11724 0.49639
 H790 H 0.79664 0.13372 0.49464
 C791 C 0.81409 0.10588 0.49701
 H792 H 0.82872 0.11361 0.49568
 C793 C 0.77615 0.08707 0.50062
 H794 H 0.76135 0.07982 0.50202
 C795 C 0.79393 0.07511 0.50134
 H796 H 0.79277 0.05867 0.50336
 Zn797 Zn 0.75434 0.12520 0.49924
 N798 N 0.77755 0.10780 0.49859
 C799 C 0.77044 0.13804 0.53734
 N800 N 0.75486 0.14089 0.52375
 C801 C 0.73911 0.15389 0.52799
 C802 C 0.73884 0.16489 0.54640
 C803 C 0.77076 0.14871 0.55585
 C804 C 0.75793 0.13214 0.45748
 C805 C 0.75744 0.14301 0.43909
 C806 C 0.75295 0.17431 0.45837
 C807 C 0.75355 0.16283 0.47648
 N808 N 0.75556 0.14208 0.47566
 H809 H 0.78252 0.12725 0.53409
 H810 H 0.72668 0.15555 0.51714
 H811 H 0.72623 0.17515 0.54972
 H812 H 0.78318 0.14624 0.56659
 H813 H 0.75962 0.11565 0.45730
 H814 H 0.75884 0.13488 0.42468
 H815 H 0.75088 0.19077 0.45905
 H816 H 0.75198 0.17047 0.49107
 C817 C 0.81306 0.08467 0.49975
 C818 C 0.69256 0.08917 0.49848
 C819 C 0.75465 0.16424 0.43951
 C820 C 0.75483 0.16223 0.56045
 C821 C 0.98632 0.72321 0.90579
 H822 H 0.97364 0.73371 0.90769
 C823 C 0.98659 0.70540 0.91604
 H824 H 0.97413 0.70153 0.92629
 C825 C 1.01806 0.71586 0.88913
 H826 H 1.02999 0.71955 0.87833
 C827 C 1.01902 0.69617 0.90012
 H828 H 1.03186 0.68598 0.89740
 N829 N 1.00281 0.72842 0.89209
 C830 C 1.00446 0.79595 0.88395
 H831 H 1.00635 0.79638 0.86748
 C832 C 1.00376 0.81338 0.89464
 H833 H 1.00514 0.82797 0.88682
 C834 C 1.00053 0.77535 0.91400
 H835 H 0.99914 0.76062 0.92139
 C836 C 0.99966 0.79427 0.92645
 H837 H 0.99756 0.79315 0.94289
 Zn838 Zn 1.00175 0.75322 0.87684
 N839 N 1.00231 0.77651 0.89414
 C840 C 0.96351 0.76903 0.86422
 N841 N 0.97710 0.75346 0.86137
 C842 C 0.97287 0.73771 0.84835
 C843 C 0.95450 0.73747 0.83727
 C844 C 0.94504 0.76938 0.85348
 C845 C 1.04334 0.75753 0.86947
 C846 C 1.06163 0.75711 0.85848
 C847 C 1.04214 0.75194 0.82740
 C848 C 1.02413 0.75247 0.83901
 N849 N 1.02511 0.75477 0.85973
 H850 H 0.96678 0.78112 0.87502
 H851 H 0.98371 0.72529 0.84667
 H852 H 0.95121 0.72490 0.82693
 H853 H 0.93434 0.78184 0.85591
 H854 H 1.04365 0.75942 0.88594
 H855 H 1.07610 0.75877 0.86647
 H856 H 1.04134 0.74958 0.81099
 H857 H 1.00950 0.75059 0.83152
 C858 C 1.00094 0.81253 0.91708
 C859 C 1.00392 0.69109 0.91303
 C860 C 1.06105 0.75398 0.83731
 C861 C 0.94049 0.75351 0.83987
 C862 C 0.48537 0.22575 0.40332
 H863 H 0.47278 0.23641 0.40483
 C864 C 0.48512 0.20723 0.41415
 H865 H 0.47236 0.20363 0.42412
 C866 C 0.51715 0.21699 0.38808
 H867 H 0.52942 0.22052 0.37759
 C868 C 0.51750 0.19839 0.39859
 H869 H 0.53013 0.18786 0.39630
 N870 N 0.50135 0.23034 0.39072
 C871 C 0.50390 0.29675 0.38314
 H872 H 0.50580 0.29727 0.36668
 C873 C 0.50320 0.31491 0.39437
 H874 H 0.50463 0.32950 0.38657
 C875 C 0.49934 0.27708 0.41338
 H876 H 0.49784 0.26232 0.42070
 C877 C 0.49854 0.29494 0.42522
 H878 H 0.49634 0.29390 0.44164
 Zn879 Zn 0.50098 0.25505 0.37540
 N880 N 0.50157 0.27835 0.39267
 C881 C 0.46303 0.27115 0.36222
 N882 N 0.47659 0.25552 0.35955
 C883 C 0.47241 0.23971 0.34658
 C884 C 0.45408 0.23942 0.33544
 C885 C 0.44460 0.27145 0.35140
 C886 C 0.54277 0.25856 0.36873
 C887 C 0.56121 0.25806 0.35799
 C888 C 0.54209 0.25353 0.32658
 C889 C 0.52393 0.25413 0.33794
 N890 N 0.52465 0.25618 0.35869
 H891 H 0.46624 0.28328 0.37298
 H892 H 0.48323 0.22725 0.34506
 H893 H 0.45080 0.22676 0.32521
 H894 H 0.43389 0.28391 0.35373
 H895 H 0.54286 0.26029 0.38522
 H896 H 0.57558 0.25948 0.36619
 H897 H 0.54149 0.25144 0.31012
 H898 H 0.50938 0.25257 0.33022
 C899 C 0.50025 0.31401 0.41555
 C900 C 0.50137 0.19345 0.41173
 C901 C 0.56089 0.25525 0.33677
 C902 C 0.44007 0.25546 0.33791
 C903 C 0.98389 0.27436 0.59569
 H904 H 0.97164 0.26324 0.59458
 C905 C 0.98296 0.29252 0.58430
 H906 H 0.97000 0.29534 0.57430
 C907 C 1.01541 0.28467 0.61055
 H908 H 1.02781 0.28190 0.62112
 C909 C 1.01509 0.30294 0.59948
 H910 H 1.02739 0.31394 0.60146
 N911 N 1.00003 0.27072 0.60840
 C912 C 1.00467 0.20479 0.61900
 H913 H 1.00671 0.20517 0.63544
 C914 C 1.00456 0.18607 0.60871
 H915 H 1.00658 0.17196 0.61724
 C916 C 0.99918 0.22271 0.58784
 H917 H 0.99709 0.23703 0.57980
 C918 C 0.99895 0.20425 0.57693
 H919 H 0.99661 0.20436 0.56049
 Zn920 Zn 1.00048 0.24664 0.62476
 N921 N 1.00162 0.22259 0.60856
 C922 C 0.96303 0.23006 0.63869
 N923 N 0.97622 0.24611 0.64080
 C924 C 0.97166 0.26224 0.65323
 C925 C 0.95332 0.26247 0.66434
 C926 C 0.94462 0.22968 0.64949
 C927 C 1.04238 0.24453 0.63108
 C928 C 1.06096 0.24562 0.64158
 C929 C 1.04218 0.25074 0.67309
 C930 C 1.02388 0.24954 0.66195
 N931 N 1.02435 0.24686 0.64127
 H932 H 0.96652 0.21766 0.62834
 H933 H 0.98217 0.27502 0.65431
 H934 H 0.94972 0.27539 0.67410
 H935 H 0.93421 0.21689 0.64757
 H936 H 1.04228 0.24228 0.61466
 H937 H 1.07521 0.24411 0.63320
 H938 H 1.04171 0.25323 0.68950
 H939 H 1.00939 0.25105 0.66979
 C940 C 1.00144 0.18576 0.58753
 C941 C 0.99873 0.30696 0.58626
 C942 C 1.06089 0.24897 0.66274
 C943 C 0.93968 0.24601 0.66240
 C944 C 0.48243 0.77364 0.09663
 H945 H 0.47007 0.76265 0.09549
 C946 C 0.48171 0.79182 0.08524
 H947 H 0.46883 0.79481 0.07521
 C948 C 0.51401 0.78365 0.11157
 H949 H 0.52636 0.78076 0.12218
 C950 C 0.51389 0.80192 0.10050
 H951 H 0.52625 0.81284 0.10248
 N952 N 0.49850 0.76985 0.10939
 C953 C 0.50250 0.70390 0.12014
 H954 H 0.50456 0.70431 0.13659
 C955 C 0.50215 0.68514 0.10992
 H956 H 0.50402 0.67104 0.11849
 C957 C 0.49715 0.72177 0.08893
 H958 H 0.49518 0.73608 0.08085
 C959 C 0.49669 0.70327 0.07809
 H960 H 0.49431 0.70336 0.06166
 Zn961 Zn 0.49862 0.74579 0.12579
 N962 N 0.49963 0.72169 0.10965
 C963 C 0.46094 0.72956 0.13940
 N964 N 0.47423 0.74549 0.14164
 C965 C 0.46969 0.76167 0.15401
 C966 C 0.45123 0.76206 0.16492
 C967 C 0.44241 0.72934 0.15001
 C968 C 0.54046 0.74327 0.13244
 C969 C 0.55897 0.74421 0.14307
 C970 C 0.54002 0.74963 0.17441
 C971 C 0.52178 0.74857 0.16315
 N972 N 0.52238 0.74581 0.14248
 H973 H 0.46442 0.71712 0.12910
 H974 H 0.48029 0.77436 0.15519
 H975 H 0.44764 0.77503 0.17464
 H976 H 0.43190 0.71664 0.14798
 H977 H 0.54047 0.74097 0.11602
 H978 H 0.57329 0.74257 0.13485
 H979 H 0.53951 0.75220 0.19080
 H980 H 0.50726 0.75026 0.17088
 C981 C 0.49898 0.68479 0.08875
 C982 C 0.49761 0.80609 0.08725
 C983 C 0.55877 0.74764 0.16420
 C984 C 0.43747 0.74573 0.16284
 O985 O -0.06002 0.99188 0.98974
 O986 O -0.05996 1.02593 0.99890
 O987 O -0.01098 0.98764 0.94536
 O988 O 0.02251 0.99295 0.94422
 O989 O -0.01545 0.94301 0.99513
 O990 O -0.00693 0.94416 1.03036
 O991 O 0.04405 1.04013 0.99913
 O992 O 0.03013 1.04168 0.96689
 O993 O -0.00423 1.04815 1.04085
 O994 O -0.03775 1.03220 1.04583
 O995 O 0.03671 0.99938 1.04928
 O996 O 0.04153 0.96605 1.03389
 O997 O 0.05543 1.01214 1.01668
 O998 O 0.05509 0.97464 1.00788
 O999 O 0.00846 1.01636 1.06057
 O1000 O -0.02858 1.00682 1.06029
 O1001 O 0.01310 1.05886 1.01255
 O1002 O -0.00141 1.05742 0.97738
 O1003 O -0.04885 0.96409 1.00779
 O1004 O -0.03228 0.96045 1.04061
 O1005 O 0.00137 0.95374 0.96653
 O1006 O 0.03531 0.97058 0.96377
 O1007 O -0.03963 1.00413 0.95648
 O1008 O -0.04095 1.03844 0.97258
 Zr1009 Zr -0.03378 1.01046 0.98760
 O1010 O -0.01607 1.03020 1.00601
 Zr1011 Zr 0.00737 0.98501 0.97171
 O1012 O 0.02678 1.00421 0.98888
 Zr1013 Zr -0.01749 0.96959 1.01329
 O1014 O 0.00131 0.98759 1.03241
 Zr1015 Zr 0.01326 1.03307 0.99322
 O1016 O -0.00500 1.01478 0.97360
 Zr1017 Zr -0.01114 1.01717 1.03498
 O1018 O -0.03106 0.99849 1.01748
 Zr1019 Zr 0.03003 0.99222 1.01857
 O1020 O 0.01213 0.97178 1.00073
 O1021 O -0.02173 0.98114 0.98392
 O1022 O 0.01798 1.02149 1.02267
 C1023 C -0.06284 0.97458 0.99871
 C1024 C -0.02868 0.99572 0.94249
 C1025 C -0.00719 0.93990 0.97757
 C1026 C 0.05800 1.02984 1.00843
 C1027 C 0.00524 1.06179 1.03031
 C1028 C 0.02634 1.00866 1.06315
 H1029 H -0.02293 1.04368 1.00694
 H1030 H 0.00258 0.98079 1.04588
 H1031 H -0.03052 0.97228 0.97528
 H1032 H 0.04007 1.00549 0.98173
 H1033 H 0.02149 1.03825 0.95488
 H1034 H 0.03023 1.00567 0.94703
 H1035 H -0.02194 0.99433 1.06572
 H1036 H -0.04165 0.97174 1.04444
 H1037 H 0.00782 1.06949 0.97768
 H1038 H -0.05363 1.03655 0.96440
 H1039 H 0.03109 0.96166 1.04395
 H1040 H 0.00736 0.94168 1.02596
 H1041 H -0.06141 1.02202 1.01348
 H1042 H -0.04168 1.04265 1.03557
 H1043 H 0.03792 0.95991 0.97423
 H1044 H 0.06046 0.98132 0.99538
 O1045 O 0.48641 0.48877 0.44543
 O1046 O 0.52029 0.49840 0.44488
 O1047 O 0.48358 0.44487 0.49509
 O1048 O 0.48951 0.44425 0.52855
 O1049 O 0.43815 0.49378 0.49062
 O1050 O 0.43880 0.52915 0.49879
 O1051 O 0.53615 0.50039 0.54856
 O1052 O 0.53791 0.46792 0.53524
 O1053 O 0.54266 0.54136 0.49941
 O1054 O 0.52587 0.54571 0.46618
 O1055 O 0.49449 0.54964 0.54125
 O1056 O 0.46145 0.53377 0.54678
 O1057 O 0.50804 0.51753 0.56019
 O1058 O 0.47070 0.50807 0.56059
 O1059 O 0.51093 0.56076 0.51262
 O1060 O 0.50062 0.56001 0.47581
 O1061 O 0.55413 0.51347 0.51694
 O1062 O 0.55288 0.47802 0.50319
 O1063 O 0.45854 0.50656 0.45674
 O1064 O 0.45445 0.53943 0.47307
 O1065 O 0.44958 0.46561 0.50771
 O1066 O 0.46698 0.46362 0.54145
 O1067 O 0.49936 0.45598 0.46604
 O1068 O 0.53341 0.47248 0.46407
 Zr1069 Zr 0.50536 0.48722 0.47143
 O1070 O 0.52506 0.50617 0.48856
 Zr1071 Zr 0.48085 0.47142 0.51318
 O1072 O 0.50007 0.48917 0.53206
 Zr1073 Zr 0.46435 0.51243 0.48801
 O1074 O 0.48234 0.53211 0.50626
 Zr1075 Zr 0.52861 0.49380 0.51801
 O1076 O 0.51036 0.47364 0.50032
 Zr1077 Zr 0.51164 0.53499 0.49328
 O1078 O 0.49293 0.51692 0.47392
 Zr1079 Zr 0.48767 0.51872 0.53509
 O1080 O 0.46724 0.50029 0.51777
 O1081 O 0.47631 0.48321 0.48397
 O1082 O 0.51665 0.52313 0.52250
 C1083 C 0.46899 0.49750 0.44271
 C1084 C 0.49136 0.44197 0.47727
 C1085 C 0.43546 0.47627 0.49914
 C1086 C 0.52595 0.50969 0.56255
 C1087 C 0.55665 0.53113 0.50869
 C1088 C 0.50349 0.56347 0.53059
 H1089 H 0.53838 0.50721 0.48143
 H1090 H 0.47536 0.54549 0.50746
 H1091 H 0.46746 0.47433 0.47541
 H1092 H 0.50170 0.48224 0.54543
 H1093 H 0.53450 0.45570 0.52691
 H1094 H 0.50221 0.44743 0.53617
 H1095 H 0.48818 0.56534 0.48263
 H1096 H 0.46558 0.54345 0.46358
 H1097 H 0.56511 0.47863 0.51220
 H1098 H 0.53146 0.46413 0.45151
 H1099 H 0.45675 0.54362 0.53627
 H1100 H 0.43664 0.52485 0.51317
 H1101 H 0.51606 0.51288 0.44322
 H1102 H 0.53648 0.53564 0.46224
 H1103 H 0.45620 0.47395 0.54408
 H1104 H 0.47767 0.49575 0.56601
 O1105 O 0.51180 0.01639 0.43976
 O1106 O 0.47799 0.00637 0.43946
 O1107 O 0.51430 0.06122 0.48857
 O1108 O 0.50847 0.06244 0.52200
 O1109 O 0.56022 0.01261 0.48510
 O1110 O 0.55988 -0.02262 0.49372
 O1111 O 0.46257 0.00628 0.54328
 O1112 O 0.46038 0.03844 0.52926
 O1113 O 0.45622 -0.03578 0.49499
 O1114 O 0.47275 -0.04055 0.46176
 O1115 O 0.50475 -0.04277 0.53667
 O1116 O 0.53766 -0.02632 0.54179
 O1117 O 0.49087 -0.01045 0.55509
 O1118 O 0.52801 -0.00067 0.55531
 O1119 O 0.48835 -0.05463 0.50827
 O1120 O 0.49832 -0.05432 0.47137
 O1121 O 0.44456 -0.00767 0.51202
 O1122 O 0.44533 0.02748 0.49750
 O1123 O 0.53990 -0.00082 0.45141
 O1124 O 0.54425 -0.03339 0.46820
 O1125 O 0.54858 0.04102 0.50163
 O1126 O 0.53122 0.04359 0.53524
 O1127 O 0.49847 0.04946 0.45977
 O1128 O 0.46463 0.03252 0.45816
 Zr1129 Zr 0.49287 0.01824 0.46576
 O1130 O 0.47342 -0.00057 0.48332
 Zr1131 Zr 0.51737 0.03506 0.50716
 O1132 O 0.49842 0.01747 0.52642
 Zr1133 Zr 0.53417 -0.00625 0.48274
 O1134 O 0.51645 -0.02576 0.50137
 Zr1135 Zr 0.46986 0.01229 0.51256
 O1136 O 0.48783 0.03229 0.49441
 Zr1137 Zr 0.48712 -0.02917 0.48854
 O1138 O 0.50558 -0.01129 0.46879
 Zr1139 Zr 0.51113 -0.01189 0.52996
 O1140 O 0.53128 0.00642 0.51225
 O1141 O 0.52193 0.02278 0.47817
 O1142 O 0.48213 -0.01683 0.51755
 C1143 C 0.52933 0.00784 0.43722
 C1144 C 0.50637 0.06374 0.47074
 C1145 C 0.56280 0.03027 0.49335
 C1146 C 0.47294 -0.00269 0.55740
 C1147 C 0.44218 -0.02553 0.50416
 C1148 C 0.49595 -0.05693 0.52624
 H1149 H 0.46007 -0.00188 0.47626
 H1150 H 0.52359 -0.03904 0.50278
 H1151 H 0.53068 0.03159 0.46946
 H1152 H 0.49679 0.02464 0.53965
 H1153 H 0.46360 0.05051 0.52064
 H1154 H 0.49583 0.05928 0.52971
 H1155 H 0.51088 -0.05937 0.47819
 H1156 H 0.53316 -0.03763 0.45875
 H1157 H 0.43316 0.02692 0.50657
 H1158 H 0.46645 0.04064 0.44543
 H1159 H 0.54227 -0.03651 0.53158
 H1160 H 0.56206 -0.01808 0.50803
 H1161 H 0.48235 -0.00809 0.43809
 H1162 H 0.46210 -0.03060 0.45763
 H1163 H 0.54203 0.03335 0.53813
 H1164 H 0.52103 0.01177 0.56041
 O1165 O 0.00626 0.45613 1.03820
 O1166 O 0.03826 0.47105 1.04135
 O1167 O -0.03543 0.50683 1.04554
 O1168 O -0.04201 0.53658 1.03028
 O1169 O -0.04348 0.46375 0.99530
 O1170 O -0.02695 0.45946 0.96320
 O1171 O 0.01704 0.56016 0.98996
 O1172 O 0.00600 0.56065 1.02310
 O1173 O 0.06046 0.51235 0.98568
 O1174 O 0.06079 0.47626 0.99441
 O1175 O 0.01306 0.51604 0.94173
 O1176 O -0.02272 0.50788 0.94109
 O1177 O 0.00043 0.54855 0.96149
 O1178 O -0.03379 0.53138 0.95704
 O1179 O 0.04125 0.49912 0.95329
 O1180 O 0.04516 0.46523 0.97065
 O1181 O 0.04881 0.54093 1.00192
 O1182 O 0.03359 0.54061 1.03672
 O1183 O -0.00990 0.44436 1.00951
 O1184 O -0.00077 0.44461 0.97372
 O1185 O -0.05518 0.49203 1.01202
 O1186 O -0.05385 0.52836 1.00111
 O1187 O -0.00759 0.48932 1.05721
 O1188 O 0.02835 0.50119 1.05586
 Zr1189 Zr 0.01184 0.48718 1.03155
 O1190 O 0.03156 0.50535 1.01364
 Zr1191 Zr -0.02947 0.51142 1.01421
 O1192 O -0.01132 0.53102 0.99617
 Zr1193 Zr -0.01232 0.47008 0.99008
 O1194 O 0.00610 0.48793 0.97052
 Zr1195 Zr 0.01808 0.53413 1.00884
 O1196 O -0.00098 0.51668 1.02847
 Zr1197 Zr 0.03481 0.49281 0.98423
 O1198 O 0.01706 0.47315 1.00293
 Zr1199 Zr -0.00637 0.51749 0.96740
 O1200 O -0.02635 0.49863 0.98476
 O1201 O -0.01710 0.48251 1.01898
 O1202 O 0.02281 0.52206 0.97957
 C1203 C -0.00201 0.44190 1.02739
 C1204 C -0.02506 0.49799 1.05972
 C1205 C -0.05768 0.47434 1.00380
 C1206 C 0.00922 0.56265 0.97208
 C1207 C 0.06291 0.53033 0.99329
 C1208 C 0.03082 0.50802 0.93921
 H1209 H 0.04487 0.50668 1.02077
 H1210 H 0.00727 0.48086 0.95718
 H1211 H -0.02590 0.47381 1.02775
 H1212 H -0.01819 0.54447 0.99507
 H1213 H -0.00045 0.55606 1.03604
 H1214 H -0.03310 0.54849 1.02740
 H1215 H 0.03599 0.46205 0.95899
 H1216 H 0.01307 0.44182 0.97926
 H1217 H 0.04053 0.55405 1.03526
 H1218 H 0.02664 0.49283 1.06845
 H1219 H -0.01821 0.49379 0.93782
 H1220 H -0.03595 0.47071 0.95847
 H1221 H 0.04292 0.46270 1.02959
 H1222 H 0.06458 0.48158 1.00810
 H1223 H -0.05767 0.52137 0.98820
 H1224 H -0.03669 0.54324 0.96603
 O1225 O 0.00878 0.43766 0.50858
 O1226 O -0.00053 0.43768 0.47454
 O1227 O 0.05332 0.48663 0.51259
 O1228 O 0.05457 0.52012 0.50729
 O1229 O 0.00364 0.48240 0.55735
 O1230 O -0.03157 0.49097 0.55622
 O1231 O -0.00031 0.54175 0.46018
 O1232 O 0.03186 0.52768 0.45859
 O1233 O -0.04228 0.49358 0.45229
 O1234 O -0.04731 0.46004 0.46826
 O1235 O -0.05042 0.53460 0.50097
 O1236 O -0.03494 0.53944 0.53428
 O1237 O -0.01777 0.55323 0.48816
 O1238 O -0.00890 0.55292 0.52564
 O1239 O -0.06185 0.50632 0.48408
 O1240 O -0.06169 0.46928 0.49365
 O1241 O -0.01396 0.51084 0.44154
 O1242 O 0.02114 0.49616 0.44290
 O1243 O -0.00915 0.44895 0.53637
 O1244 O -0.04192 0.46560 0.53999
 O1245 O 0.03228 0.49909 0.54654
 O1246 O 0.03514 0.53301 0.52965
 O1247 O 0.04205 0.45797 0.49617
 O1248 O 0.02584 0.45658 0.46194
 Zr1249 Zr 0.01094 0.46387 0.48993
 O1250 O -0.00743 0.48163 0.47019
 Zr1251 Zr 0.02705 0.50506 0.51527
 O1252 O 0.00992 0.52450 0.49609
 Zr1253 Zr -0.01457 0.48033 0.53080
 O1254 O -0.03366 0.49916 0.51280
 Zr1255 Zr 0.00546 0.51093 0.46727
 O1256 O 0.02504 0.49262 0.48554
 Zr1257 Zr -0.03634 0.48665 0.48325
 O1258 O -0.01889 0.46671 0.50194
 Zr1259 Zr -0.01973 0.52785 0.50811
 O1260 O -0.00191 0.50992 0.52855
 O1261 O 0.01475 0.47598 0.51921
 O1262 O -0.02393 0.51575 0.47888
 C1263 C -0.00014 0.43490 0.52590
 C1264 C 0.05610 0.46891 0.50452
 C1265 C 0.02124 0.49062 0.56041
 C1266 C -0.00953 0.55575 0.47046
 C1267 C -0.03176 0.50305 0.43865
 C1268 C -0.06434 0.52424 0.49174
 H1269 H -0.00842 0.47475 0.45672
 H1270 H -0.04710 0.50047 0.51962
 H1271 H 0.02338 0.46719 0.52807
 H1272 H 0.01712 0.53776 0.49478
 H1273 H 0.04382 0.51898 0.46200
 H1274 H 0.05178 0.52780 0.49454
 H1275 H -0.06705 0.47594 0.50616
 H1276 H -0.04579 0.45619 0.52873
 H1277 H 0.02084 0.50538 0.43082
 H1278 H 0.03396 0.44387 0.46384
 H1279 H -0.04505 0.52904 0.53867
 H1280 H -0.02713 0.50527 0.55866
 H1281 H -0.01509 0.43629 0.47850
 H1282 H -0.03711 0.45608 0.45779
 H1283 H 0.02472 0.53567 0.54033
 H1284 H 0.00360 0.55824 0.51894
 O1285 O 0.50875 0.93770 0.00897
 O1286 O 0.49939 0.93757 -0.02503
 O1287 O 0.55357 0.98645 0.01262
 O1288 O 0.55500 1.01990 0.00712
 O1289 O 0.50398 0.98274 0.05750
 O1290 O 0.46881 0.99150 0.05639
 O1291 O 0.50014 1.04155 -0.04000
 O1292 O 0.53224 1.02730 -0.04156
 O1293 O 0.45790 0.99359 -0.04755
 O1294 O 0.45269 0.96017 -0.03136
 O1295 O 0.45009 1.03493 0.00095
 O1296 O 0.46564 1.03988 0.03417
 O1297 O 0.48280 1.05329 -0.01206
 O1298 O 0.49177 1.05313 0.02543
 O1299 O 0.43845 1.00664 -0.01578
 O1300 O 0.43842 0.96965 -0.00601
 O1301 O 0.48632 1.01061 -0.05844
 O1302 O 0.52132 0.99575 -0.05706
 O1303 O 0.49094 0.94923 0.03673
 O1304 O 0.45828 0.96609 0.04034
 O1305 O 0.53268 0.99921 0.04652
 O1306 O 0.53568 1.03302 0.02945
 O1307 O 0.54213 0.95775 -0.00361
 O1308 O 0.52582 0.95626 -0.03781
 Zr1309 Zr 0.51102 0.96379 -0.00983
 O1310 O 0.49270 0.98153 -0.02963
 Zr1311 Zr 0.52741 1.00503 0.01524
 O1312 O 0.51035 1.02446 -0.00401
 Zr1313 Zr 0.48569 0.98062 0.03100
 O1314 O 0.46666 0.99945 0.01293
 Zr1315 Zr 0.50577 1.01075 -0.03275
 O1316 O 0.52527 0.99243 -0.01441
 Zr1317 Zr 0.46384 0.98681 -0.01655
 O1318 O 0.48123 0.96687 0.00222
 Zr1319 Zr 0.48075 1.02804 0.00805
 O1320 O 0.49851 1.01013 0.02855
 O1321 O 0.51496 0.97604 0.01938
 O1322 O 0.47642 1.01580 -0.02111
 C1323 C 0.49984 0.93508 0.02632
 C1324 C 0.55625 0.96868 0.00465
 C1325 C 0.52164 0.99088 0.06047
 C1326 C 0.49102 1.05566 -0.02979
 C1327 C 0.46847 1.00291 -0.06127
 C1328 C 0.43608 1.02462 -0.00819
 H1329 H 0.49165 0.97458 -0.04305
 H1330 H 0.45324 1.00088 0.01977
 H1331 H 0.52356 0.96725 0.02827
 H1332 H 0.51762 1.03768 -0.00541
 H1333 H 0.54416 1.01856 -0.03813
 H1334 H 0.55221 1.02754 -0.00565
 H1335 H 0.43313 0.97640 0.00648
 H1336 H 0.45432 0.95667 0.02913
 H1337 H 0.52107 1.00491 -0.06918
 H1338 H 0.53388 0.94352 -0.03585
 H1339 H 0.45553 1.02953 0.03868
 H1340 H 0.47335 1.00579 0.05876
 H1341 H 0.48481 0.93629 -0.02106
 H1342 H 0.46285 0.95609 -0.04182
 H1343 H 0.52530 1.03579 0.04014
 H1344 H 0.50426 1.05837 0.01865
 O1345 O 0.54851 0.45717 0.00506
 O1346 O 0.53401 0.45378 0.03726
 O1347 O 0.49783 0.44865 -0.03623
 O1348 O 0.46760 0.46306 -0.04250
 O1349 O 0.53942 0.50005 -0.04456
 O1350 O 0.54323 0.53214 -0.02793
 O1351 O 0.44355 0.50297 0.01678
 O1352 O 0.44376 0.46975 0.00564
 O1353 O 0.49149 0.50860 0.05973
 O1354 O 0.52775 0.50061 0.05989
 O1355 O 0.48634 0.55223 0.01235
 O1356 O 0.49430 0.55297 -0.02357
 O1357 O 0.45436 0.53170 0.00011
 O1358 O 0.47098 0.53648 -0.03435
 O1359 O 0.50379 0.54116 0.04042
 O1360 O 0.53817 0.52461 0.04409
 O1361 O 0.46325 0.49162 0.04829
 O1362 O 0.46434 0.45671 0.03317
 O1363 O 0.55946 0.48610 -0.01125
 O1364 O 0.55848 0.52188 -0.00186
 O1365 O 0.51149 0.48261 -0.05607
 O1366 O 0.47491 0.49246 -0.05441
 O1367 O 0.51573 0.43740 -0.00846
 O1368 O 0.50414 0.43851 0.02759
 Zr1369 Zr 0.51741 0.46313 0.01096
 O1370 O 0.49899 0.48063 0.03083
 Zr1371 Zr 0.49243 0.47984 -0.03019
 O1372 O 0.47255 0.49741 -0.01190
 Zr1373 Zr 0.53331 0.50498 -0.01331
 O1374 O 0.51514 0.52415 0.00521
 Zr1375 Zr 0.47000 0.48469 0.01754
 O1376 O 0.48775 0.46547 -0.00165
 Zr1377 Zr 0.51083 0.51035 0.03397
 O1378 O 0.53078 0.49209 0.01609
 Zr1379 Zr 0.48543 0.52650 -0.00706
 O1380 O 0.50454 0.50959 -0.02716
 O1381 O 0.52152 0.47580 -0.01802
 O1382 O 0.48142 0.51425 0.02215
 C1383 C 0.56239 0.46826 -0.00342
 C1384 C 0.50707 0.43468 -0.02591
 C1385 C 0.52891 0.49133 -0.05871
 C1386 C 0.44061 0.52083 0.00907
 C1387 C 0.47369 0.50064 0.06229
 C1388 C 0.49440 0.55497 0.03005
 H1389 H 0.49793 0.47350 0.04416
 H1390 H 0.52188 0.53766 0.00633
 H1391 H 0.53034 0.46726 -0.02693
 H1392 H 0.45901 0.49818 -0.01865
 H1393 H 0.44862 0.45689 -0.00078
 H1394 H 0.45571 0.46566 -0.03352
 H1395 H 0.54096 0.53634 0.03491
 H1396 H 0.56155 0.51631 0.01191
 H1397 H 0.45093 0.45786 0.04020
 H1398 H 0.51279 0.42613 0.02583
 H1399 H 0.50823 0.55676 -0.01897
 H1400 H 0.53177 0.53670 -0.03676
 H1401 H 0.54212 0.46576 0.04183
 H1402 H 0.52281 0.48680 0.06369
 H1403 H 0.48148 0.50559 -0.05826
 H1404 H 0.45927 0.52725 -0.03707
 O1405 O -0.05683 0.00381 0.51611
 O1406 O -0.05665 -0.03007 0.50613
 O1407 O -0.00769 0.00730 0.56042
 O1408 O 0.02583 0.00177 0.56137
 O1409 O -0.01238 0.05294 0.51176
 O1410 O -0.00408 0.05270 0.47650
 O1411 O 0.04737 -0.04385 0.50500
 O1412 O 0.03375 -0.04620 0.53732
 O1413 O -0.00118 -0.05095 0.46344
 O1414 O -0.03465 -0.03506 0.45891
 O1415 O 0.03955 -0.00166 0.45603
 O1416 O 0.04434 0.03130 0.47252
 O1417 O 0.05853 -0.01537 0.48812
 O1418 O 0.05832 0.02174 0.49795
 O1419 O 0.01133 -0.01852 0.44444
 O1420 O -0.02579 -0.00920 0.44520
 O1421 O 0.01624 -0.06237 0.49142
 O1422 O 0.00212 -0.06176 0.52672
 O1423 O -0.04577 0.03208 0.49876
 O1424 O -0.02942 0.03660 0.46597
 O1425 O 0.00469 0.04166 0.54002
 O1426 O 0.03859 0.02477 0.54238
 O1427 O -0.03630 -0.00908 0.54897
 O1428 O -0.03744 -0.04305 0.53215
 Zr1429 Zr -0.03050 -0.01472 0.51773
 O1430 O -0.01281 -0.03391 0.49876
 Zr1431 Zr 0.01066 0.01048 0.53412
 O1432 O 0.03004 -0.00821 0.51637
 Zr1433 Zr -0.01444 0.02682 0.49299
 O1434 O 0.00429 0.00939 0.47335
 Zr1435 Zr 0.01660 -0.03701 0.51134
 O1436 O -0.00162 -0.01929 0.53150
 Zr1437 Zr -0.00810 -0.02015 0.47010
 O1438 O -0.02797 -0.00200 0.48814
 Zr1439 Zr 0.03309 0.00453 0.48698
 O1440 O 0.01524 0.02443 0.50542
 O1441 O -0.01851 0.01455 0.52208
 O1442 O 0.02111 -0.02468 0.48217
 C1443 C -0.05971 0.02133 0.50759
 C1444 C -0.02538 -0.00086 0.56311
 C1445 C -0.00399 0.05570 0.52933
 C1446 C 0.06121 -0.03328 0.49585
 C1447 C 0.00826 -0.06487 0.47363
 C1448 C 0.02912 -0.01057 0.44196
 H1449 H -0.01966 -0.04738 0.49753
 H1450 H 0.00545 0.01657 0.46007
 H1451 H -0.02727 0.02319 0.53094
 H1452 H 0.04338 -0.00964 0.52342
 H1453 H 0.02522 -0.04309 0.54947
 H1454 H 0.03381 -0.01068 0.55813
 H1455 H -0.01920 0.00343 0.44001
 H1456 H -0.03883 0.02540 0.46192
 H1457 H 0.01137 -0.07379 0.52609
 H1458 H -0.05012 -0.04143 0.54038
 H1459 H 0.03396 0.03575 0.46241
 H1460 H 0.01023 0.05516 0.48093
 H1461 H -0.05825 -0.02573 0.49169
 H1462 H -0.03863 -0.04563 0.46902
 H1463 H 0.04123 0.03559 0.53207
 H1464 H 0.06365 0.01483 0.51035
 O1465 O 0.69231 0.23736 0.25909
 O1466 O 0.69226 0.24690 0.22515
 O1467 O 0.74146 0.19297 0.26270
 O1468 O 0.77495 0.19199 0.25716
 O1469 O 0.73713 0.24219 0.30793
 O1470 O 0.74549 0.27747 0.30719
 O1471 O 0.79619 0.24770 0.21073
 O1472 O 0.78246 0.21537 0.20887
 O1473 O 0.74769 0.28925 0.20336
 O1474 O 0.71422 0.29394 0.21949
 O1475 O 0.78876 0.29730 0.25221
 O1476 O 0.79370 0.28128 0.28540
 O1477 O 0.80759 0.26495 0.23890
 O1478 O 0.80758 0.25568 0.27615
 O1479 O 0.76042 0.30866 0.23538
 O1480 O 0.72345 0.30814 0.24496
 O1481 O 0.76504 0.26112 0.19225
 O1482 O 0.75078 0.22587 0.19334
 O1483 O 0.70356 0.25505 0.28707
 O1484 O 0.72004 0.28782 0.29118
 O1485 O 0.75401 0.21377 0.29681
 O1486 O 0.78780 0.21125 0.27983
 O1487 O 0.71274 0.20429 0.24644
 O1488 O 0.71132 0.22074 0.21234
 Zr1489 Zr 0.71851 0.23547 0.24046
 O1490 O 0.73610 0.25418 0.22092
 Zr1491 Zr 0.75980 0.21934 0.26558
 O1492 O 0.77909 0.23686 0.24658
 Zr1493 Zr 0.73489 0.26067 0.28159
 O1494 O 0.75352 0.28011 0.26379
 Zr1495 Zr 0.76546 0.24151 0.21782
 O1496 O 0.74732 0.22160 0.23588
 Zr1497 Zr 0.74094 0.28300 0.23428
 O1498 O 0.72118 0.26520 0.25280
 Zr1499 Zr 0.78227 0.26643 0.25892
 O1500 O 0.76453 0.24822 0.27915
 O1501 O 0.73068 0.23144 0.26969
 O1502 O 0.77010 0.27085 0.22974
 C1503 C 0.68954 0.24614 0.27648
 C1504 C 0.72373 0.19020 0.25464
 C1505 C 0.74550 0.22463 0.31081
 C1506 C 0.81012 0.25695 0.22109
 C1507 C 0.75709 0.27889 0.18956
 C1508 C 0.77829 0.31124 0.24313
 H1509 H 0.72917 0.25524 0.20747
 H1510 H 0.75475 0.29349 0.27077
 H1511 H 0.72195 0.22267 0.27848
 H1512 H 0.79241 0.22978 0.24517
 H1513 H 0.77391 0.20328 0.21216
 H1514 H 0.78280 0.19506 0.24460
 H1515 H 0.73008 0.31341 0.25754
 H1516 H 0.71067 0.29183 0.27995
 H1517 H 0.75997 0.22633 0.18126
 H1518 H 0.69865 0.21253 0.21414
 H1519 H 0.78338 0.29148 0.28975
 H1520 H 0.75981 0.27308 0.30958
 H1521 H 0.69076 0.26142 0.22927
 H1522 H 0.71032 0.28383 0.20889
 H1523 H 0.79052 0.22169 0.29050
 H1524 H 0.81282 0.24316 0.26941
 O1525 O 0.75552 0.71208 0.70251
 O1526 O 0.78747 0.70860 0.71738
 O1527 O 0.71375 0.70427 0.75301
 O1528 O 0.70727 0.71916 0.78297
 O1529 O 0.70595 0.75505 0.71059
 O1530 O 0.72265 0.78718 0.70674
 O1531 O 0.76658 0.75892 0.80706
 O1532 O 0.75527 0.72580 0.80711
 O1533 O 0.80992 0.76382 0.75948
 O1534 O 0.81024 0.75536 0.72321
 O1535 O 0.76277 0.80778 0.76362
 O1536 O 0.72700 0.80867 0.75544
 O1537 O 0.75016 0.78764 0.79581
 O1538 O 0.71585 0.79242 0.77875
 O1539 O 0.79091 0.79634 0.74656
 O1540 O 0.79477 0.77940 0.71248
 O1541 O 0.79815 0.74721 0.78779
 O1542 O 0.78287 0.71238 0.78693
 O1543 O 0.73948 0.74097 0.69107
 O1544 O 0.74877 0.77673 0.69177
 O1545 O 0.69418 0.73803 0.73866
 O1546 O 0.69557 0.74850 0.77512
 O1547 O 0.74154 0.69270 0.73539
 O1548 O 0.77750 0.69377 0.74733
 Zr1549 Zr 0.76112 0.71832 0.73361
 O1550 O 0.78094 0.73592 0.75201
 Zr1551 Zr 0.71987 0.73551 0.75803
 O1552 O 0.73811 0.75323 0.77786
 Zr1553 Zr 0.73715 0.76010 0.71701
 O1554 O 0.75567 0.77937 0.73513
 Zr1555 Zr 0.76744 0.74038 0.78082
 O1556 O 0.74829 0.72105 0.76312
 Zr1557 Zr 0.78432 0.76549 0.73985
 O1558 O 0.76647 0.74710 0.71996
 Zr1559 Zr 0.74321 0.78215 0.76470
 O1560 O 0.72314 0.76511 0.74562
 O1561 O 0.73224 0.73106 0.72909
 O1562 O 0.77231 0.76979 0.76912
 C1563 C 0.74729 0.72308 0.68841
 C1564 C 0.72405 0.69015 0.74399
 C1565 C 0.69171 0.74646 0.72107
 C1566 C 0.75893 0.77684 0.80975
 C1567 C 0.81228 0.75604 0.77739
 C1568 C 0.78055 0.81033 0.75566
 H1569 H 0.79422 0.72874 0.75327
 H1570 H 0.75691 0.79280 0.72823
 H1571 H 0.72340 0.72244 0.72027
 H1572 H 0.73126 0.75418 0.79133
 H1573 H 0.74880 0.71292 0.80234
 H1574 H 0.71618 0.72186 0.79492
 H1575 H 0.78563 0.79109 0.70941
 H1576 H 0.76260 0.77119 0.68893
 H1577 H 0.78980 0.71364 0.80040
 H1578 H 0.77572 0.68128 0.73883
 H1579 H 0.73149 0.81208 0.74139
 H1580 H 0.71364 0.79178 0.71804
 H1581 H 0.79227 0.72049 0.70927
 H1582 H 0.81408 0.74169 0.72851
 H1583 H 0.69182 0.76152 0.76829
 H1584 H 0.71298 0.78334 0.79055
 O1585 O 0.28798 0.20354 0.74547
 O1586 O 0.29070 0.21835 0.71333
 O1587 O 0.29612 0.25419 0.78695
 O1588 O 0.28116 0.28404 0.79369
 O1589 O 0.24574 0.21142 0.79564
 O1590 O 0.21340 0.20729 0.77944
 O1591 O 0.24013 0.30776 0.73495
 O1592 O 0.27342 0.30815 0.74578
 O1593 O 0.23511 0.25998 0.69172
 O1594 O 0.24356 0.22380 0.69138
 O1595 O 0.19179 0.26407 0.73967
 O1596 O 0.19157 0.25583 0.77547
 O1597 O 0.21186 0.29634 0.75196
 O1598 O 0.20784 0.27929 0.78635
 O1599 O 0.20288 0.24712 0.71131
 O1600 O 0.21983 0.21303 0.70724
 O1601 O 0.25167 0.28847 0.70318
 O1602 O 0.28664 0.28799 0.71806
 O1603 O 0.25945 0.19193 0.76197
 O1604 O 0.22355 0.19235 0.75313
 O1605 O 0.26280 0.23962 0.80711
 O1606 O 0.25208 0.27602 0.80587
 O1607 O 0.30731 0.23661 0.75897
 O1608 O 0.30556 0.24841 0.72303
 Zr1609 Zr 0.28139 0.23458 0.73985
 O1610 O 0.26334 0.25285 0.72032
 Zr1611 Zr 0.26476 0.25898 0.78136
 O1612 O 0.24661 0.27867 0.76340
 Zr1613 Zr 0.24017 0.21774 0.76451
 O1614 O 0.22047 0.23571 0.74631
 Zr1615 Zr 0.25891 0.28167 0.73385
 O1616 O 0.27867 0.26412 0.75269
 Zr1617 Zr 0.23382 0.24048 0.71742
 O1618 O 0.25263 0.22072 0.73497
 Zr1619 Zr 0.21771 0.26529 0.75880
 O1620 O 0.23521 0.24634 0.77860
 O1621 O 0.26918 0.23003 0.76894
 O1622 O 0.22953 0.26976 0.72948
 C1623 C 0.27723 0.18938 0.75392
 C1624 C 0.31010 0.24525 0.77641
 C1625 C 0.25451 0.22198 0.80973
 C1626 C 0.22235 0.31034 0.74293
 C1627 C 0.24280 0.27791 0.68917
 C1628 C 0.18901 0.25615 0.72190
 H1629 H 0.27031 0.25412 0.70693
 H1630 H 0.20707 0.22874 0.74529
 H1631 H 0.27801 0.22130 0.77766
 H1632 H 0.24567 0.29215 0.77026
 H1633 H 0.28642 0.30350 0.75208
 H1634 H 0.27821 0.29597 0.78484
 H1635 H 0.20829 0.20996 0.71657
 H1636 H 0.22890 0.18955 0.73922
 H1637 H 0.28518 0.30144 0.71112
 H1638 H 0.31811 0.23996 0.72458
 H1639 H 0.18810 0.24179 0.77094
 H1640 H 0.20885 0.21858 0.78848
 H1641 H 0.27885 0.20998 0.70889
 H1642 H 0.25723 0.22901 0.68743
 H1643 H 0.23919 0.26909 0.80986
 H1644 H 0.21687 0.29116 0.78905
 O1645 O 0.20947 0.79724 0.24648
 O1646 O 0.20614 0.78248 0.21449
 O1647 O 0.20135 0.74653 0.28808
 O1648 O 0.21620 0.71658 0.29463
 O1649 O 0.25214 0.78893 0.29634
 O1650 O 0.28432 0.79285 0.27988
 O1651 O 0.25626 0.69266 0.23544
 O1652 O 0.22308 0.69258 0.24655
 O1653 O 0.26148 0.74041 0.19231
 O1654 O 0.25304 0.77667 0.19200
 O1655 O 0.30510 0.73605 0.23975
 O1656 O 0.30575 0.74411 0.27559
 O1657 O 0.28488 0.70383 0.25209
 O1658 O 0.28945 0.72072 0.28651
 O1659 O 0.29384 0.75323 0.21158
 O1660 O 0.27695 0.78738 0.20772
 O1661 O 0.24476 0.71206 0.20386
 O1662 O 0.20985 0.71289 0.21891
 O1663 O 0.23826 0.80859 0.26274
 O1664 O 0.27407 0.80789 0.25371
 O1665 O 0.23503 0.76084 0.30794
 O1666 O 0.24545 0.72435 0.30651
 O1667 O 0.18997 0.76427 0.26025
 O1668 O 0.19126 0.75248 0.22425
 Zr1669 Zr 0.21569 0.76613 0.24086
 O1670 O 0.23339 0.74779 0.22111
 Zr1671 Zr 0.23262 0.74155 0.28217
 O1672 O 0.25041 0.72176 0.26399
 Zr1673 Zr 0.25733 0.78262 0.26516
 O1674 O 0.27669 0.76455 0.24674
 Zr1675 Zr 0.23774 0.71892 0.23455
 O1676 O 0.21833 0.73656 0.25363
 Zr1677 Zr 0.26298 0.75995 0.21797
 O1678 O 0.24451 0.77979 0.23574
 Zr1679 Zr 0.27937 0.73491 0.25913
 O1680 O 0.26223 0.75395 0.27913
 O1681 O 0.22827 0.77055 0.26985
 O1682 O 0.26717 0.73062 0.22993
 C1683 C 0.22044 0.81130 0.25480
 C1684 C 0.18730 0.75558 0.27769
 C1685 C 0.24349 0.77841 0.31051
 C1686 C 0.27414 0.68993 0.24317
 C1687 C 0.25371 0.72251 0.18984
 C1688 C 0.30775 0.74407 0.22200
 H1689 H 0.22630 0.74658 0.20777
 H1690 H 0.29012 0.77144 0.24561
 H1691 H 0.21960 0.77935 0.27866
 H1692 H 0.25131 0.70826 0.27080
 H1693 H 0.21017 0.69733 0.25293
 H1694 H 0.21886 0.70468 0.28565
 H1695 H 0.28863 0.79036 0.21692
 H1696 H 0.26860 0.81079 0.23986
 H1697 H 0.21114 0.69944 0.21194
 H1698 H 0.17876 0.76097 0.22598
 H1699 H 0.30926 0.75815 0.27110
 H1700 H 0.28889 0.78149 0.28884
 H1701 H 0.21807 0.79055 0.20976
 H1702 H 0.23939 0.77140 0.18805
 H1703 H 0.25845 0.73115 0.31036
 H1704 H 0.28035 0.70891 0.28927
 O1705 O 0.24148 0.69101 0.76456
 O1706 O 0.27542 0.69108 0.75513
 O1707 O 0.23768 0.74028 0.80886
 O1708 O 0.24306 0.77380 0.80980
 O1709 O 0.19252 0.73567 0.75953
 O1710 O 0.19331 0.74394 0.72425
 O1711 O 0.28953 0.79513 0.75415
 O1712 O 0.29137 0.78148 0.78653
 O1713 O 0.29712 0.74655 0.71275
 O1714 O 0.28109 0.71298 0.70809
 O1715 O 0.24819 0.78743 0.70454
 O1716 O 0.21491 0.79223 0.72046
 O1717 O 0.26135 0.80636 0.73682
 O1718 O 0.22411 0.80624 0.74602
 O1719 O 0.26513 0.75914 0.69326
 O1720 O 0.25563 0.72210 0.69379
 O1721 O 0.30812 0.76402 0.74087
 O1722 O 0.30702 0.74982 0.77614
 O1723 O 0.21351 0.70212 0.74679
 O1724 O 0.20939 0.71852 0.71401
 O1725 O 0.20355 0.75265 0.78794
 O1726 O 0.22043 0.78653 0.79047
 O1727 O 0.25403 0.71158 0.79764
 O1728 O 0.28814 0.71024 0.78126
 Zr1729 Zr 0.26003 0.71731 0.76647
 O1730 O 0.27954 0.73495 0.74779
 Zr1731 Zr 0.23477 0.75855 0.78246
 O1732 O 0.25372 0.77790 0.76497
 Zr1733 Zr 0.21889 0.73348 0.74114
 O1734 O 0.23667 0.75215 0.72172
 Zr1735 Zr 0.28252 0.76437 0.76041
 O1736 O 0.26449 0.74617 0.78030
 Zr1737 Zr 0.26621 0.73968 0.71893
 O1738 O 0.24773 0.71987 0.73671
 Zr1739 Zr 0.24142 0.78096 0.73538
 O1740 O 0.22122 0.76316 0.75355
 O1741 O 0.23075 0.72937 0.77041
 O1742 O 0.27063 0.76889 0.73105
 C1743 C 0.22412 0.68815 0.75574
 C1744 C 0.24580 0.72259 0.81169
 C1745 C 0.18959 0.74408 0.77705
 C1746 C 0.27914 0.80899 0.74483
 C1747 C 0.31087 0.75604 0.72313
 C1748 C 0.25735 0.77699 0.69065
 H1749 H 0.29300 0.72807 0.74677
 H1750 H 0.22972 0.75332 0.70832
 H1751 H 0.22198 0.72062 0.77916
 H1752 H 0.25508 0.79124 0.77202
 H1753 H 0.28810 0.77292 0.79863
 H1754 H 0.25563 0.78167 0.80676
 H1755 H 0.24306 0.72869 0.68846
 H1756 H 0.22068 0.70920 0.71002
 H1757 H 0.31907 0.75907 0.77570
 H1758 H 0.28636 0.69758 0.78950
 H1759 H 0.21067 0.78191 0.71020
 H1760 H 0.19088 0.75827 0.72859
 H1761 H 0.27135 0.68954 0.74060
 H1762 H 0.29170 0.70915 0.71822
 H1763 H 0.20977 0.78919 0.78000
 H1764 H 0.23081 0.81154 0.75855
 O1765 O 0.25462 0.21154 0.20227
 O1766 O 0.28665 0.20839 0.21703
 O1767 O 0.21314 0.20351 0.25304
 O1768 O 0.20667 0.21845 0.28297
 O1769 O 0.20465 0.25402 0.21045
 O1770 O 0.22097 0.28630 0.20639
 O1771 O 0.26571 0.25886 0.30662
 O1772 O 0.25474 0.22562 0.30684
 O1773 O 0.30874 0.26402 0.25876
 O1774 O 0.30897 0.25543 0.22254
 O1775 O 0.26122 0.30752 0.26302
 O1776 O 0.22543 0.30807 0.25506
 O1777 O 0.24894 0.28737 0.29537
 O1778 O 0.21448 0.29173 0.27841
 O1779 O 0.28936 0.29628 0.24585
 O1780 O 0.29318 0.27926 0.21178
 O1781 O 0.29731 0.24742 0.28721
 O1782 O 0.28237 0.21243 0.28657
 O1783 O 0.23826 0.24023 0.19081
 O1784 O 0.24716 0.27611 0.19136
 O1785 O 0.19318 0.23701 0.23865
 O1786 O 0.19465 0.24764 0.27507
 O1787 O 0.24094 0.19214 0.23530
 O1788 O 0.27695 0.19359 0.24708
 Zr1789 Zr 0.26027 0.21793 0.23334
 O1790 O 0.28001 0.23580 0.25156
 Zr1791 Zr 0.21899 0.23482 0.25790
 O1792 O 0.23716 0.25279 0.27758
 Zr1793 Zr 0.23582 0.25941 0.21670
 O1794 O 0.25423 0.27894 0.23466
 Zr1795 Zr 0.26663 0.24024 0.28043
 O1796 O 0.24757 0.22066 0.26291
 Zr1797 Zr 0.28304 0.26535 0.23928
 O1798 O 0.26528 0.24671 0.21955
 Zr1799 Zr 0.24191 0.28171 0.26430
 O1800 O 0.22191 0.26441 0.24537
 O1801 O 0.23125 0.23038 0.22891
 O1802 O 0.27115 0.26965 0.26860
 C1803 C 0.24625 0.22242 0.18817
 C1804 C 0.22352 0.18946 0.24400
 C1805 C 0.19055 0.24534 0.22104
 C1806 C 0.25790 0.27671 0.30930
 C1807 C 0.31129 0.25634 0.27668
 C1808 C 0.27893 0.31021 0.25496
 H1809 H 0.29337 0.22876 0.25278
 H1810 H 0.25530 0.29235 0.22771
 H1811 H 0.22246 0.22164 0.22016
 H1812 H 0.23036 0.25372 0.29108
 H1813 H 0.24838 0.21267 0.30214
 H1814 H 0.21563 0.22125 0.29485
 H1815 H 0.28395 0.29089 0.20876
 H1816 H 0.26101 0.27068 0.18846
 H1817 H 0.28937 0.21381 0.29999
 H1818 H 0.27523 0.18105 0.23865
 H1819 H 0.22974 0.31141 0.24093
 H1820 H 0.21201 0.29087 0.21773
 H1821 H 0.29131 0.22030 0.20887
 H1822 H 0.31298 0.24182 0.22787
 H1823 H 0.19072 0.26059 0.26820
 H1824 H 0.21180 0.28271 0.29028
 O1825 O 0.73950 0.80987 0.23651
 O1826 O 0.77341 0.81005 0.24628
 O1827 O 0.73637 0.76106 0.19179
 O1828 O 0.74196 0.72759 0.19052
 O1829 O 0.69097 0.76478 0.24091
 O1830 O 0.69167 0.75615 0.27609
 O1831 O 0.78852 0.70613 0.24624
 O1832 O 0.79038 0.72012 0.21402
 O1833 O 0.79544 0.75438 0.28819
 O1834 O 0.77910 0.78766 0.29316
 O1835 O 0.74688 0.71285 0.29561
 O1836 O 0.71378 0.70787 0.27954
 O1837 O 0.76034 0.69441 0.26322
 O1838 O 0.72306 0.69438 0.25372
 O1839 O 0.76351 0.74117 0.30732
 O1840 O 0.75360 0.77815 0.30714
 O1841 O 0.80675 0.73732 0.25996
 O1842 O 0.80564 0.75185 0.22480
 O1843 O 0.71155 0.79835 0.25404
 O1844 O 0.70759 0.78158 0.28673
 O1845 O 0.70222 0.74820 0.21238
 O1846 O 0.71944 0.71445 0.20963
 O1847 O 0.75246 0.78978 0.20338
 O1848 O 0.78646 0.79129 0.22002
 Zr1849 Zr 0.75834 0.78379 0.23455
 O1850 O 0.77792 0.76614 0.25316
 Zr1851 Zr 0.73349 0.74249 0.21798
 O1852 O 0.75257 0.72314 0.23535
 Zr1853 Zr 0.71725 0.76699 0.25947
 O1854 O 0.73509 0.74824 0.27877
 Zr1855 Zr 0.78124 0.73688 0.24025
 O1856 O 0.76311 0.75511 0.22045
 Zr1857 Zr 0.76450 0.76096 0.28189
 O1858 O 0.74594 0.78081 0.26421
 Zr1859 Zr 0.74017 0.71963 0.26483
 O1860 O 0.71987 0.73745 0.24676
 O1861 O 0.72919 0.77150 0.23031
 O1862 O 0.76925 0.73193 0.26948
 C1863 C 0.72205 0.81249 0.24521
 C1864 C 0.74436 0.77885 0.18919
 C1865 C 0.68816 0.75656 0.22328
 C1866 C 0.77822 0.69205 0.25532
 C1867 C 0.80933 0.74515 0.27780
 C1868 C 0.75589 0.72321 0.30967
 H1869 H 0.79131 0.77314 0.25434
 H1870 H 0.72809 0.74684 0.29212
 H1871 H 0.72038 0.78025 0.22158
 H1872 H 0.75410 0.70989 0.22816
 H1873 H 0.78705 0.72875 0.20199
 H1874 H 0.75468 0.71994 0.19349
 H1875 H 0.74111 0.77133 0.31235
 H1876 H 0.71873 0.79105 0.29078
 H1877 H 0.81779 0.74273 0.22525
 H1878 H 0.78461 0.80404 0.21192
 H1879 H 0.70929 0.71812 0.28975
 H1880 H 0.68940 0.74183 0.27162
 H1881 H 0.76916 0.81145 0.26077
 H1882 H 0.78959 0.79181 0.28305
 H1883 H 0.70869 0.71164 0.21994
 H1884 H 0.72997 0.68918 0.24128
 O1885 O 0.70395 0.24680 0.78862
 O1886 O 0.71873 0.21469 0.79156
 O1887 O 0.75464 0.28833 0.79642
 O1888 O 0.78453 0.29480 0.78139
 O1889 O 0.71187 0.29682 0.74603
 O1890 O 0.70754 0.28048 0.71386
 O1891 O 0.80797 0.23591 0.74060
 O1892 O 0.80844 0.24679 0.77386
 O1893 O 0.76003 0.19274 0.73578
 O1894 O 0.72391 0.19249 0.74448
 O1895 O 0.76419 0.24037 0.69232
 O1896 O 0.75596 0.27630 0.69192
 O1897 O 0.79653 0.25280 0.71223
 O1898 O 0.77956 0.28713 0.70797
 O1899 O 0.74711 0.21216 0.70360
 O1900 O 0.71304 0.20835 0.72071
 O1901 O 0.78861 0.20420 0.75217
 O1902 O 0.78827 0.21912 0.78716
 O1903 O 0.69231 0.26322 0.76003
 O1904 O 0.69261 0.25424 0.72415
 O1905 O 0.74014 0.30833 0.76293
 O1906 O 0.77648 0.30693 0.75225
 O1907 O 0.73706 0.26042 0.80782
 O1908 O 0.74886 0.22443 0.80624
 Zr1909 Zr 0.73496 0.24114 0.78201
 O1910 O 0.75308 0.22147 0.76400
 Zr1911 Zr 0.75939 0.28251 0.76507
 O1912 O 0.77896 0.26441 0.74696
 Zr1913 Zr 0.71806 0.26564 0.74066
 O1914 O 0.73590 0.24730 0.72100
 Zr1915 Zr 0.78192 0.23490 0.75941
 O1916 O 0.76451 0.25389 0.77914
 Zr1917 Zr 0.74060 0.21847 0.73453
 O1918 O 0.72099 0.23616 0.75331
 Zr1919 Zr 0.76550 0.25970 0.71810
 O1920 O 0.74668 0.27963 0.73556
 O1921 O 0.73044 0.27019 0.76963
 O1922 O 0.76989 0.23042 0.73008
 C1923 C 0.68979 0.25521 0.77785
 C1924 C 0.74572 0.27788 0.81049
 C1925 C 0.72250 0.31094 0.75464
 C1926 C 0.81053 0.24381 0.72277
 C1927 C 0.77799 0.19019 0.74336
 C1928 C 0.75619 0.22260 0.68967
 H1929 H 0.75435 0.20809 0.77102
 H1930 H 0.72888 0.24623 0.70762
 H1931 H 0.72175 0.27898 0.77842
 H1932 H 0.79245 0.27124 0.74595
 H1933 H 0.80384 0.25314 0.78684
 H1934 H 0.79642 0.28591 0.77843
 H1935 H 0.71003 0.21755 0.70905
 H1936 H 0.68975 0.24038 0.72961
 H1937 H 0.80167 0.21212 0.78567
 H1938 H 0.74048 0.22608 0.81881
 H1939 H 0.74198 0.27163 0.68839
 H1940 H 0.71889 0.28935 0.70913
 H1941 H 0.71038 0.21014 0.77974
 H1942 H 0.72923 0.18854 0.75811
 H1943 H 0.76960 0.31083 0.73930
 H1944 H 0.79138 0.28993 0.71705
 C1945 C 0.07637 1.00740 1.17274
 C1946 C 0.06813 1.00889 1.15627
 C1947 C 0.05893 1.01009 1.13674
 C1948 C 0.05133 1.01061 1.11991
 C1949 C 0.04263 1.01060 1.10011
 C1950 C 0.03522 1.01004 1.08320
 C1951 C 0.57662 0.50808 0.67187
 C1952 C 0.56837 0.50956 0.65541
 C1953 C 0.55910 0.51079 0.63590
 C1954 C 0.55142 0.51136 0.61912
 C1955 C 0.54257 0.51144 0.59938
 C1956 C 0.53503 0.51096 0.58253
 C1957 C 0.42316 -0.00288 0.66713
 C1958 C 0.43151 -0.00344 0.65068
 C1959 C 0.44067 -0.00395 0.63111
 C1960 C 0.44815 -0.00417 0.61424
 C1961 C 0.45671 -0.00411 0.59439
 C1962 C 0.46403 -0.00369 0.57745
 C1963 C -0.07561 0.49961 1.16909
 C1964 C -0.06692 0.49905 1.15281
 C1965 C -0.05739 0.49845 1.13342
 C1966 C -0.04967 0.49805 1.11667
 C1967 C -0.04096 0.49776 1.09688
 C1968 C -0.03368 0.49772 1.07992
 C1969 C -0.07953 0.50521 0.32797
 C1970 C -0.07174 0.50598 0.34471
 C1971 C -0.06304 0.50638 0.36451
 C1972 C -0.05584 0.50628 0.38152
 C1973 C -0.04753 0.50567 0.40149
 C1974 C -0.04041 0.50471 0.41850
 C1975 C 0.42151 1.00450 -0.17231
 C1976 C 0.42915 1.00541 -0.15551
 C1977 C 0.43765 1.00593 -0.13562
 C1978 C 0.44469 1.00591 -0.11854
 C1979 C 0.45283 1.00537 -0.09850
 C1980 C 0.45985 1.00448 -0.08143
 C1981 C 0.57771 0.49603 -0.16876
 C1982 C 0.56937 0.49484 -0.15233
 C1983 C 0.56021 0.49354 -0.13280
 C1984 C 0.55276 0.49259 -0.11595
 C1985 C 0.54434 0.49175 -0.09606
 C1986 C 0.53728 0.49135 -0.07901
 C1987 C 0.07826 -0.00610 0.33211
 C1988 C 0.07001 -0.00759 0.34855
 C1989 C 0.06091 -0.00916 0.36809
 C1990 C 0.05346 -0.01022 0.38494
 C1991 C 0.04497 -0.01099 0.40480
 C1992 C 0.03777 -0.01114 0.42179
 C1993 C 0.16800 1.07892 1.00588
 C1994 C 0.15149 1.07072 1.00704
 C1995 C 0.13190 1.06167 1.00818
 C1996 C 0.11502 1.05424 1.00888
 C1997 C 0.09514 1.04576 1.00929
 C1998 C 0.07815 1.03855 1.00919
 C1999 C 0.66690 0.57955 0.50495
 C2000 C 0.65031 0.57156 0.50634
 C2001 C 0.63065 0.56270 0.50777
 C2002 C 0.61372 0.55541 0.50870
 C2003 C 0.59380 0.54703 0.50933
 C2004 C 0.57680 0.53985 0.50937
 C2005 C 0.67333 0.42118 -0.00335
 C2006 C 0.65665 0.42905 -0.00422
 C2007 C 0.63689 0.43779 -0.00481
 C2008 C 0.61988 0.44497 -0.00497
 C2009 C 0.59986 0.45314 -0.00478
 C2010 C 0.58274 0.46004 -0.00431
 C2011 C 0.17246 -0.07963 0.49604
 C2012 C 0.15561 -0.07217 0.49494
 C2013 C 0.13566 -0.06384 0.49413
 C2014 C 0.11855 -0.05692 0.49384
 C2015 C 0.09847 -0.04887 0.49401
 C2016 C 0.08139 -0.04189 0.49460
 C2017 C 0.33294 -0.07647 0.50402
 C2018 C 0.34929 -0.06792 0.50473
 C2019 C 0.36875 -0.05850 0.50540
 C2020 C 0.38553 -0.05079 0.50572
 C2021 C 0.40529 -0.04200 0.50571
 C2022 C 0.42217 -0.03454 0.50529
 C2023 C -0.16706 0.42378 1.00291
 C2024 C -0.15077 0.43245 1.00340
 C2025 C -0.13137 0.44197 1.00390
 C2026 C -0.11461 0.44969 1.00419
 C2027 C -0.09482 0.45840 1.00434
 C2028 C -0.07786 0.46570 1.00424
 C2029 C -0.17359 0.57482 0.49262
 C2030 C -0.15720 0.56644 0.49124
 C2031 C -0.13774 0.55711 0.49014
 C2032 C -0.12097 0.54943 0.48968
 C2033 C -0.10122 0.54064 0.48975
 C2034 C -0.08435 0.53319 0.49035
 C2035 C 0.32719 1.07604 -0.00698
 C2036 C 0.34354 1.06758 -0.00844
 C2037 C 0.36293 1.05810 -0.00962
 C2038 C 0.37964 1.05027 -0.01014
 C2039 C 0.39930 1.04129 -0.01014
 C2040 C 0.41612 1.03369 -0.00958
 C2041 C 0.00572 1.17263 1.07767
 C2042 C 0.00683 1.15590 1.06992
 C2043 C 0.00762 1.13608 1.06128
 C2044 C 0.00783 1.11905 1.05414
 C2045 C 0.00752 1.09904 1.04591
 C2046 C 0.00676 1.08198 1.03886
 C2047 C 0.50500 0.67394 0.57881
 C2048 C 0.50586 0.65727 0.57091
 C2049 C 0.50636 0.63753 0.56209
 C2050 C 0.50636 0.62055 0.55480
 C2051 C 0.50585 0.60062 0.54641
 C2052 C 0.50501 0.58361 0.53925
 C2053 C -0.00715 0.66583 0.42136
 C2054 C -0.00819 0.64931 0.42955
 C2055 C -0.00925 0.62969 0.43860
 C2056 C -0.00992 0.61280 0.44602
 C2057 C -0.01032 0.59291 0.45451
 C2058 C -0.01024 0.57591 0.46173
 C2059 C 0.49428 1.16551 -0.07928
 C2060 C 0.49306 1.14900 -0.07109
 C2061 C 0.49181 1.12942 -0.06201
 C2062 C 0.49100 1.11256 -0.05452
 C2063 C 0.49045 1.09272 -0.04594
 C2064 C 0.49042 1.07576 -0.03863
 C2065 C 0.50519 0.32497 -0.07577
 C2066 C 0.50640 0.34139 -0.06740
 C2067 C 0.50739 0.36089 -0.05811
 C2068 C 0.50787 0.37770 -0.05049
 C2069 C 0.50801 0.39752 -0.04184
 C2070 C 0.50777 0.41449 -0.03456
 C2071 C 0.00546 -0.17440 0.42346
 C2072 C 0.00719 -0.15793 0.43165
 C2073 C 0.00872 -0.13839 0.44082
 C2074 C 0.00953 -0.12157 0.44843
 C2075 C 0.00984 -0.10179 0.45718
 C2076 C 0.00949 -0.08489 0.46464
 C2077 C 0.49671 -0.16621 0.57706
 C2078 C 0.49590 -0.14986 0.56850
 C2079 C 0.49513 -0.13042 0.55908
 C2080 C 0.49473 -0.11364 0.55137
 C2081 C 0.49464 -0.09388 0.54261
 C2082 C 0.49497 -0.07697 0.53518
 C2083 C -0.00168 0.33190 1.07674
 C2084 C -0.00209 0.34833 1.06829
 C2085 C -0.00248 0.36787 1.05906
 C2086 C -0.00268 0.38475 1.05157
 C2087 C -0.00272 0.40465 1.04310
 C2088 C -0.00254 0.42168 1.03596
 C2089 C 0.75814 0.32804 0.07951
 C2090 C 0.75874 0.31978 0.09602
 C2091 C 0.75920 0.31071 0.11565
 C2092 C 0.75931 0.30330 0.13256
 C2093 C 0.75904 0.29484 0.15246
 C2094 C 0.75841 0.28763 0.16945
 C2095 C 0.25789 0.82660 0.58083
 C2096 C 0.25854 0.81825 0.59729
 C2097 C 0.25908 0.80906 0.61685
 C2098 C 0.25927 0.80156 0.63372
 C2099 C 0.25910 0.79300 0.65357
 C2100 C 0.25855 0.78574 0.67054
 C2101 C 0.74726 0.67376 0.57851
 C2102 C 0.74693 0.68227 0.59488
 C2103 C 0.74661 0.69159 0.61437
 C2104 C 0.74645 0.69914 0.63121
 C2105 C 0.74645 0.70762 0.65109
 C2106 C 0.74668 0.71471 0.66813
 C2107 C 0.24723 0.17299 0.07826
 C2108 C 0.24672 0.18152 0.09464
 C2109 C 0.24617 0.19085 0.11413
 C2110 C 0.24582 0.19840 0.13097
 C2111 C 0.24564 0.20690 0.15084
 C2112 C 0.24574 0.21401 0.16788
 C2113 C 0.25282 0.17357 0.92012
 C2114 C 0.25388 0.18155 0.90350
 C2115 C 0.25476 0.19045 0.88381
 C2116 C 0.25519 0.19780 0.86688
 C2117 C 0.25533 0.20623 0.84696
 C2118 C 0.25513 0.21339 0.82994
 C2119 C 0.75435 0.67297 0.41914
 C2120 C 0.75572 0.68113 0.40263
 C2121 C 0.75688 0.69031 0.38310
 C2122 C 0.75743 0.69794 0.36629
 C2123 C 0.75753 0.70673 0.34654
 C2124 C 0.75709 0.71421 0.32967
 C2125 C 0.24773 0.82660 0.42095
 C2126 C 0.24626 0.81864 0.40434
 C2127 C 0.24489 0.80976 0.38467
 C2128 C 0.24403 0.80244 0.36773
 C2129 C 0.24342 0.79406 0.34780
 C2130 C 0.24325 0.78694 0.33076
 C2131 C 0.74860 0.32594 0.92105
 C2132 C 0.74736 0.31794 0.90444
 C2133 C 0.74630 0.30907 0.88474
 C2134 C 0.74570 0.30178 0.86779
 C2135 C 0.74536 0.29344 0.84783
 C2136 C 0.74537 0.28637 0.83076
 C2137 C 0.82719 0.42147 0.24300
 C2138 C 0.81899 0.40493 0.24228
 C2139 C 0.80998 0.38527 0.24167
 C2140 C 0.80261 0.36833 0.24142
 C2141 C 0.79420 0.34840 0.24151
 C2142 C 0.78702 0.33139 0.24199
 C2143 C 0.32783 0.91925 0.74347
 C2144 C 0.31968 0.90268 0.74304
 C2145 C 0.31073 0.88301 0.74274
 C2146 C 0.30341 0.86606 0.74272
 C2147 C 0.29503 0.84613 0.74303
 C2148 C 0.28786 0.82912 0.74364
 C2149 C 0.17188 0.92157 0.25361
 C2150 C 0.18025 0.90512 0.25418
 C2151 C 0.18941 0.88556 0.25478
 C2152 C 0.19682 0.86865 0.25515
 C2153 C 0.20516 0.84872 0.25537
 C2154 C 0.21214 0.83163 0.25528
 C2155 C 0.67308 0.42087 0.75335
 C2156 C 0.68148 0.40443 0.75394
 C2157 C 0.69073 0.38491 0.75455
 C2158 C 0.69828 0.36806 0.75493
 C2159 C 0.70681 0.34820 0.75515
 C2160 C 0.71398 0.33118 0.75509
 C2161 C 0.67422 0.58040 0.74654
 C2162 C 0.68247 0.59688 0.74536
 C2163 C 0.69170 0.61641 0.74432
 C2164 C 0.69930 0.63323 0.74373
 C2165 C 0.70799 0.65304 0.74342
 C2166 C 0.71532 0.66999 0.74349
 C2167 C 0.17421 0.07949 0.24710
 C2168 C 0.18243 0.09598 0.24586
 C2169 C 0.19160 0.11553 0.24473
 C2170 C 0.19915 0.13238 0.24406
 C2171 C 0.20774 0.15222 0.24364
 C2172 C 0.21496 0.16922 0.24361
 C2173 C 0.32616 0.07921 0.75200
 C2174 C 0.31800 0.09574 0.75314
 C2175 C 0.30892 0.11535 0.75408
 C2176 C 0.30147 0.13224 0.75453
 C2177 C 0.29297 0.15212 0.75469
 C2178 C 0.28579 0.16914 0.75451
 C2179 C 0.82702 0.58181 0.25376
 C2180 C 0.81911 0.59845 0.25506
 C2181 C 0.81026 0.61817 0.25612
 C2182 C 0.80292 0.63511 0.25661
 C2183 C 0.79443 0.65501 0.25670
 C2184 C 0.78712 0.67198 0.25632
 C2185 C 0.92003 0.25706 0.17179
 C2186 C 0.90353 0.25773 0.18002
 C2187 C 0.88393 0.25831 0.18910
 C2188 C 0.86704 0.25856 0.19655
 C2189 C 0.84718 0.25849 0.20505
 C2190 C 0.83022 0.25804 0.21231
 C2191 C 0.42083 0.75783 0.67403
 C2192 C 0.40435 0.75828 0.68232
 C2193 C 0.38475 0.75858 0.69141
 C2194 C 0.36785 0.75858 0.69881
 C2195 C 0.34796 0.75819 0.70725
 C2196 C 0.33097 0.75746 0.71443
 C2197 C 0.42011 0.24522 0.82560
 C2198 C 0.40371 0.24496 0.81713
 C2199 C 0.38419 0.24472 0.80785
 C2200 C 0.36733 0.24461 0.80034
 C2201 C 0.34744 0.24462 0.79189
 C2202 C 0.33039 0.24480 0.78481
 C2203 C 0.91885 0.74452 0.32817
 C2204 C 0.90242 0.74395 0.31972
 C2205 C 0.88292 0.74344 0.31039
 C2206 C 0.86612 0.74324 0.30274
 C2207 C 0.84633 0.74338 0.29403
 C2208 C 0.82941 0.74391 0.28665
 C2209 C 0.07700 0.75191 0.32605
 C2210 C 0.09357 0.75330 0.31803
 C2211 C 0.11321 0.75458 0.30910
 C2212 C 0.13012 0.75536 0.30174
 C2213 C 0.15003 0.75587 0.29333
 C2214 C 0.16706 0.75595 0.28621
 C2215 C 0.57966 0.25216 0.82660
 C2216 C 0.59621 0.25350 0.81854
 C2217 C 0.61582 0.25470 0.80953
 C2218 C 0.63270 0.25538 0.80210
 C2219 C 0.65257 0.25577 0.79359
 C2220 C 0.66957 0.25573 0.78641
 C2221 C 0.58104 0.74952 0.67325
 C2222 C 0.59772 0.74831 0.68108
 C2223 C 0.61748 0.74724 0.68981
 C2224 C 0.63447 0.74663 0.69703
 C2225 C 0.65444 0.74624 0.70535
 C2226 C 0.67149 0.74619 0.71246
 C2227 C 0.08002 0.24785 0.17296
 C2228 C 0.09663 0.24661 0.18094
 C2229 C 0.11633 0.24557 0.18981
 C2230 C 0.13329 0.24501 0.19709
 C2231 C 0.15324 0.24475 0.20543
 C2232 C 0.17030 0.24485 0.21251
 C2233 C -0.07568 1.00088 0.83157
 C2234 C -0.06759 0.99960 0.84814
 C2235 C -0.05876 0.99811 0.86783
 C2236 C -0.05161 0.99699 0.88483
 C2237 C -0.04354 0.99600 0.90488
 C2238 C -0.03676 0.99557 0.92205
 C2239 C 0.42161 0.50201 0.33189
 C2240 C 0.42964 0.50091 0.34849
 C2241 C 0.43843 0.49959 0.36822
 C2242 C 0.44557 0.49859 0.38523
 C2243 C 0.45370 0.49770 0.40526
 C2244 C 0.46061 0.49733 0.42239
 C2245 C 0.57843 0.00386 0.32718
 C2246 C 0.57019 0.00436 0.34370
 C2247 C 0.56102 0.00534 0.36326
 C2248 C 0.55350 0.00627 0.38009
 C2249 C 0.54496 0.00726 0.39993
 C2250 C 0.53780 0.00780 0.41694
 C2251 C 0.07874 0.50272 0.82872
 C2252 C 0.07084 0.50373 0.84538
 C2253 C 0.06204 0.50524 0.86508
 C2254 C 0.05479 0.50652 0.88201
 C2255 C 0.04646 0.50775 0.90193
 C2256 C 0.03937 0.50829 0.91897
 C2257 C 0.07156 0.49754 0.66964
 C2258 C 0.06254 0.49584 0.65361
 C2259 C 0.05273 0.49388 0.63442
 C2260 C 0.04489 0.49241 0.61776
 C2261 C 0.03625 0.49110 0.59797
 C2262 C 0.02924 0.49051 0.58089
 C2263 C 0.57261 0.99887 0.16931
 C2264 C 0.56355 0.99695 0.15333
 C2265 C 0.55362 0.99475 0.13423
 C2266 C 0.54565 0.99309 0.11765
 C2267 C 0.53685 0.99159 0.09794
 C2268 C 0.52971 0.99086 0.08092
 C2269 C 0.42333 0.50030 0.17188
 C2270 C 0.43180 0.50037 0.15546
 C2271 C 0.44119 0.50078 0.13597
 C2272 C 0.44888 0.50118 0.11918
 C2273 C 0.45761 0.50150 0.09939
 C2274 C 0.46496 0.50142 0.08245
 C2275 C -0.07465 -0.00178 0.67316
 C2276 C -0.06618 -0.00208 0.65675
 C2277 C -0.05683 -0.00193 0.63725
 C2278 C -0.04924 -0.00157 0.62042
 C2279 C -0.04070 -0.00109 0.60054
 C2280 C -0.03363 -0.00082 0.58349
 C2281 C -0.17284 0.92520 1.00069
 C2282 C -0.15644 0.93370 1.00067
 C2283 C -0.13694 0.94306 1.00022
 C2284 C -0.12011 0.95064 0.99965
 C2285 C -0.10024 0.95917 0.99900
 C2286 C -0.08319 0.96626 0.99865
 C2287 C 0.32625 0.42514 0.50119
 C2288 C 0.34248 0.43397 0.50117
 C2289 C 0.36178 0.44374 0.50070
 C2290 C 0.37846 0.45167 0.50013
 C2291 C 0.39818 0.46054 0.49946
 C2292 C 0.41515 0.46784 0.49910
 C2293 C 0.33164 0.57179 0.00392
 C2294 C 0.34771 0.56283 0.00562
 C2295 C 0.36690 0.55303 0.00747
 C2296 C 0.38354 0.54514 0.00875
 C2297 C 0.40328 0.53635 0.00970
 C2298 C 0.42029 0.52915 0.00987
 C2299 C -0.16830 0.07301 0.50145
 C2300 C -0.15232 0.06389 0.50299
 C2301 C -0.13323 0.05388 0.50477
 C2302 C -0.11667 0.04583 0.50611
 C2303 C -0.09701 0.03690 0.50728
 C2304 C -0.08005 0.02963 0.50778
 C2305 C 0.67308 0.07884 0.49827
 C2306 C 0.65652 0.07068 0.49758
 C2307 C 0.63692 0.06161 0.49640
 C2308 C 0.62005 0.05417 0.49531
 C2309 C 0.60016 0.04572 0.49415
 C2310 C 0.58312 0.03864 0.49349
 C2311 C 0.17340 0.57848 0.99751
 C2312 C 0.15673 0.57056 0.99661
 C2313 C 0.13702 0.56174 0.99528
 C2314 C 0.12008 0.55446 0.99416
 C2315 C 0.10015 0.54610 0.99315
 C2316 C 0.08312 0.53896 0.99280
 C2317 C 0.16699 0.42210 0.49875
 C2318 C 0.15042 0.43013 0.50009
 C2319 C 0.13072 0.43889 0.50168
 C2320 C 0.11373 0.44600 0.50291
 C2321 C 0.09369 0.45404 0.50403
 C2322 C 0.07652 0.46081 0.50457
 C2323 C 0.66726 0.92209 -0.00079
 C2324 C 0.65063 0.93001 0.00050
 C2325 C 0.63088 0.93867 0.00202
 C2326 C 0.61386 0.94571 0.00318
 C2327 C 0.59380 0.95370 0.00423
 C2328 C 0.57663 0.96049 0.00472
 C2329 C -0.00079 0.83036 0.92781
 C2330 C -0.00242 0.84649 0.93667
 C2331 C -0.00428 0.86576 0.94633
 C2332 C -0.00565 0.88248 0.95407
 C2333 C -0.00685 0.90231 0.96263
 C2334 C -0.00737 0.91941 0.96959
 C2335 C 0.49842 0.33274 0.42704
 C2336 C 0.49674 0.34881 0.43599
 C2337 C 0.49480 0.36800 0.44577
 C2338 C 0.49333 0.38466 0.45359
 C2339 C 0.49199 0.40444 0.46224
 C2340 C 0.49135 0.42151 0.46926
 C2341 C -0.00192 0.32512 0.57596
 C2342 C -0.00197 0.34149 0.56737
 C2343 C -0.00157 0.36094 0.55788
 C2344 C -0.00104 0.37773 0.55017
 C2345 C -0.00041 0.39755 0.54150
 C2346 C -0.00008 0.41458 0.53431
 C2347 C 0.49714 0.82530 0.07640
 C2348 C 0.49729 0.84170 0.06787
 C2349 C 0.49789 0.86117 0.05843
 C2350 C 0.49856 0.87796 0.05074
 C2351 C 0.49933 0.89778 0.04205
 C2352 C 0.49978 0.91479 0.03482
 C2353 C 0.49760 0.66541 0.07831
 C2354 C 0.49637 0.64885 0.07021
 C2355 C 0.49502 0.62918 0.06130
 C2356 C 0.49411 0.61222 0.05403
 C2357 C 0.49349 0.59225 0.04571
 C2358 C 0.49352 0.57519 0.03863
 C2359 C 0.00030 0.16640 0.57702
 C2360 C -0.00079 0.14985 0.56888
 C2361 C -0.00206 0.13017 0.55997
 C2362 C -0.00302 0.11320 0.55273
 C2363 C -0.00385 0.09320 0.54453
 C2364 C -0.00419 0.07607 0.53761
 C2365 C 0.50147 0.17402 0.42215
 C2366 C 0.50209 0.15748 0.43037
 C2367 C 0.50321 0.13791 0.43950
 C2368 C 0.50428 0.12104 0.44696
 C2369 C 0.50545 0.10116 0.45540
 C2370 C 0.50614 0.08410 0.46245
 C2371 C 0.00443 0.67266 0.92284
 C2372 C 0.00535 0.65613 0.93106
 C2373 C 0.00678 0.63657 0.94020
 C2374 C 0.00799 0.61973 0.94770
 C2375 C 0.00914 0.59988 0.95626
 C2376 C 0.00960 0.58288 0.96348
 C2377 C 0.25356 0.67365 0.92152
 C2378 C 0.25189 0.68224 0.90525
 C2379 C 0.24987 0.69162 0.88587
 C2380 C 0.24828 0.69917 0.86909
 C2381 C 0.24677 0.70759 0.84922
 C2382 C 0.24596 0.71452 0.83213
 C2383 C 0.75289 0.17534 0.42053
 C2384 C 0.75122 0.18397 0.40429
 C2385 C 0.74924 0.19341 0.38492
 C2386 C 0.74770 0.20102 0.36816
 C2387 C 0.74628 0.20951 0.34831
 C2388 C 0.74556 0.21650 0.33123
 C2389 C 0.25238 0.32573 0.41925
 C2390 C 0.25413 0.31734 0.40288
 C2391 C 0.25601 0.30816 0.38339
 C2392 C 0.25731 0.30070 0.36654
 C2393 C 0.25830 0.29227 0.34664
 C2394 C 0.25854 0.28517 0.32958
 C2395 C 0.75292 0.82602 0.91951
 C2396 C 0.75477 0.81757 0.90320
 C2397 C 0.75678 0.80830 0.88377
 C2398 C 0.75818 0.80079 0.86696
 C2399 C 0.75927 0.79233 0.84709
 C2400 C 0.75955 0.78524 0.83004
 C2401 C 0.74821 0.82751 0.07891
 C2402 C 0.74777 0.81924 0.09542
 C2403 C 0.74685 0.81008 0.11500
 C2404 C 0.74595 0.80261 0.13187
 C2405 C 0.74497 0.79418 0.15176
 C2406 C 0.74442 0.78713 0.16883
 C2407 C 0.24588 0.32713 0.57909
 C2408 C 0.24517 0.31894 0.59563
 C2409 C 0.24404 0.30984 0.61524
 C2410 C 0.24310 0.30236 0.63210
 C2411 C 0.24228 0.29381 0.65197
 C2412 C 0.24210 0.28657 0.66897
 C2413 C 0.75480 0.17275 0.57984
 C2414 C 0.75518 0.18107 0.59633
 C2415 C 0.75587 0.19035 0.61587
 C2416 C 0.75646 0.19797 0.63269
 C2417 C 0.75693 0.20665 0.65250
 C2418 C 0.75693 0.21395 0.66947
 C2419 C 0.25315 0.67149 0.08055
 C2420 C 0.25336 0.67999 0.09695
 C2421 C 0.25389 0.68948 0.11639
 C2422 C 0.25436 0.69729 0.13312
 C2423 C 0.25469 0.70619 0.15284
 C2424 C 0.25457 0.71367 0.16973
 C2425 C 0.17452 0.57862 0.74776
 C2426 C 0.18322 0.59483 0.74951
 C2427 C 0.19272 0.61415 0.75161
 C2428 C 0.20037 0.63088 0.75325
 C2429 C 0.20890 0.65070 0.75480
 C2430 C 0.21593 0.66776 0.75561
 C2431 C 0.67401 0.08062 0.24746
 C2432 C 0.68271 0.09684 0.24903
 C2433 C 0.69226 0.11617 0.25093
 C2434 C 0.69995 0.13290 0.25242
 C2435 C 0.70853 0.15272 0.25382
 C2436 C 0.71558 0.16978 0.25454
 C2437 C 0.82770 0.08050 0.74801
 C2438 C 0.81925 0.09685 0.74640
 C2439 C 0.80997 0.11632 0.74467
 C2440 C 0.80242 0.13314 0.74350
 C2441 C 0.79386 0.15299 0.74265
 C2442 C 0.78663 0.16999 0.74255
 C2443 C 0.32392 0.58030 0.24759
 C2444 C 0.31530 0.59656 0.24606
 C2445 C 0.30588 0.61597 0.24442
 C2446 C 0.29827 0.63276 0.24331
 C2447 C 0.28972 0.65261 0.24251
 C2448 C 0.28258 0.66965 0.24241
 C2449 C 0.32749 0.42063 0.25222
 C2450 C 0.31942 0.40401 0.25279
 C2451 C 0.31045 0.38434 0.25376
 C2452 C 0.30307 0.36742 0.25461
 C2453 C 0.29463 0.34750 0.25536
 C2454 C 0.28748 0.33046 0.25555
 C2455 C 0.82960 0.92056 0.75331
 C2456 C 0.82149 0.90396 0.75387
 C2457 C 0.81247 0.88430 0.75479
 C2458 C 0.80503 0.86740 0.75557
 C2459 C 0.79651 0.84752 0.75624
 C2460 C 0.78926 0.83051 0.75635
 C2461 C 0.67245 0.92242 0.24772
 C2462 C 0.68083 0.90595 0.24750
 C2463 C 0.69013 0.88643 0.24687
 C2464 C 0.69774 0.86961 0.24622
 C2465 C 0.70637 0.84978 0.24551
 C2466 C 0.71357 0.83277 0.24514
 C2467 C 0.17172 0.41976 0.74581
 C2468 C 0.18023 0.40337 0.74516
 C2469 C 0.18971 0.38395 0.74412
 C2470 C 0.19749 0.36722 0.74325
 C2471 C 0.20631 0.34748 0.74249
 C2472 C 0.21368 0.33054 0.74232
 C2473 C 0.07995 0.75211 0.82612
 C2474 C 0.09615 0.75032 0.81746
 C2475 C 0.11547 0.74818 0.80801
 C2476 C 0.13222 0.74652 0.80044
 C2477 C 0.15206 0.74496 0.79201
 C2478 C 0.16915 0.74417 0.78509
 C2479 C 0.57991 0.25350 0.32578
 C2480 C 0.59618 0.25184 0.31722
 C2481 C 0.61556 0.24988 0.30785
 C2482 C 0.63232 0.24836 0.30027
 C2483 C 0.65214 0.24694 0.29178
 C2484 C 0.66919 0.24622 0.28473
 C2485 C 0.57788 0.74957 0.17506
 C2486 C 0.59426 0.75125 0.18345
 C2487 C 0.61378 0.75316 0.19260
 C2488 C 0.63065 0.75458 0.19997
 C2489 C 0.65061 0.75588 0.20825
 C2490 C 0.66774 0.75652 0.21514
 C2491 C 0.07902 0.25084 0.67293
 C2492 C 0.09539 0.25251 0.68133
 C2493 C 0.11490 0.25432 0.69052
 C2494 C 0.13175 0.25558 0.69797
 C2495 C 0.15166 0.25656 0.70639
 C2496 C 0.16872 0.25678 0.71346
 C2497 C 0.92032 0.24598 0.67296
 C2498 C 0.90385 0.24549 0.68129
 C2499 C 0.88432 0.24463 0.69056
 C2500 C 0.86751 0.24389 0.69817
 C2501 C 0.84770 0.24325 0.70683
 C2502 C 0.83073 0.24315 0.71412
 C2503 C 0.41799 0.74586 0.17318
 C2504 C 0.40141 0.74547 0.18130
 C2505 C 0.38177 0.74470 0.19033
 C2506 C 0.36487 0.74402 0.19775
 C2507 C 0.34498 0.74343 0.20622
 C2508 C 0.32797 0.74336 0.21340
 C2509 C 0.42076 0.25541 0.32724
 C2510 C 0.40433 0.25578 0.31880
 C2511 C 0.38486 0.25644 0.30939
 C2512 C 0.36810 0.25699 0.30166
 C2513 C 0.34834 0.25737 0.29286
 C2514 C 0.33142 0.25726 0.28545
 C2515 C 0.92125 0.75364 0.82907
 C2516 C 0.90490 0.75420 0.82048
 C2517 C 0.88554 0.75513 0.81085
 C2518 C 0.86887 0.75592 0.80291
 C2519 C 0.84922 0.75659 0.79388
 C2520 C 0.83237 0.75670 0.78630
   
