data_POSCAR
  _audit_creation_date              2014-09-24
  _audit_creation_method            'ToBaCCo'
  _symmetry_space_group_name_H-M    'P1'
  _symmetry_Int_Tables_number       1
  _symmetry_cell_setting            triclinic
  loop_
  _symmetry_equiv_pos_as_xyz
 x,y,z
_cell_length_a 55.8426
_cell_length_b 56.5043
_cell_length_c 55.0403
_cell_angle_alpha 90.858200
_cell_angle_beta 89.191200
_cell_angle_gamma 88.763200
loop_
  _atom_site_label
  _atom_site_type_symbol
  _atom_site_fract_x
  _atom_site_fract_y
  _atom_site_fract_z
C1 C 0.73906 0.66205 0.97819
 H2 H 0.75491 0.65867 0.96704
 C3 C 0.71948 0.67439 0.96867
 H4 H 0.72047 0.68023 0.95006
 C5 C 0.71803 0.65675 1.01532
 H6 H 0.71722 0.64939 1.03327
 C7 C 0.69821 0.66933 1.00668
 H8 H 0.68267 0.67194 1.01847
 N9 N 0.73788 0.65320 1.00100
 C10 C 0.81035 0.63910 1.02658
 H11 H 0.80973 0.62019 1.02918
 C12 C 0.83076 0.65140 1.03303
 H13 H 0.84586 0.64186 1.04061
 C14 C 0.79091 0.67471 1.01466
 H15 H 0.77519 0.68372 1.00782
 C16 C 0.81082 0.68777 1.02131
 H17 H 0.81040 0.70682 1.01936
 Zn18 Zn 0.76340 0.63312 1.01099
 N19 N 0.79104 0.65082 1.01744
 C20 C 0.79186 0.60736 0.97595
 N21 N 0.76939 0.61083 0.98540
 C22 C 0.75012 0.60073 0.97488
 C23 C 0.75295 0.58729 0.95346
 C24 C 0.79555 0.59363 0.95490
 C25 C 0.75316 0.63242 1.06022
 C26 C 0.74478 0.62377 1.08223
 C27 C 0.74078 0.58541 1.06298
 C28 C 0.74911 0.59499 1.04121
 N29 N 0.75449 0.61826 1.04014
 H30 H 0.80690 0.61595 0.98409
 H31 H 0.73239 0.60407 0.98252
 H32 H 0.73738 0.58009 0.94475
 H33 H 0.81345 0.59169 0.94717
 H34 H 0.75818 0.65076 1.05897
 H35 H 0.74481 0.63583 1.09764
 H36 H 0.73532 0.56720 1.06226
 H37 H 0.75051 0.58400 1.02498
 C38 C 0.83103 0.67607 1.03065
 C39 C 0.69850 0.67790 0.98285
 C40 C 0.73759 0.59996 1.08410
 C41 C 0.77588 0.58391 0.94310
 C42 C 0.73624 0.32410 0.51360
 H43 H 0.75378 0.31582 0.51128
 C44 C 0.71732 0.31118 0.52313
 H45 H 0.72036 0.29285 0.52792
 C46 C 0.71092 0.35812 0.51038
 H47 H 0.70871 0.37652 0.50556
 C48 C 0.69151 0.34583 0.51963
 H49 H 0.67437 0.35494 0.52208
 N50 N 0.73271 0.34715 0.50758
 C51 C 0.78016 0.32963 0.46586
 H52 H 0.76245 0.32765 0.45869
 C53 C 0.79927 0.31666 0.45533
 H54 H 0.79600 0.30493 0.44006
 C55 C 0.80598 0.34702 0.49446
 H56 H 0.80863 0.35884 0.50972
 C57 C 0.82563 0.33434 0.48451
 H58 H 0.84324 0.33699 0.49192
 Zn59 Zn 0.75798 0.36534 0.49535
 N60 N 0.78390 0.34511 0.48452
 C61 C 0.78665 0.40122 0.51589
 N62 N 0.76852 0.38610 0.52039
 C63 C 0.75862 0.38451 0.54302
 C64 C 0.76720 0.39812 0.56228
 C65 C 0.79571 0.41521 0.53461
 C66 C 0.73367 0.36989 0.45167
 C67 C 0.72511 0.38067 0.43080
 C68 C 0.74091 0.41769 0.44513
 C69 C 0.74928 0.40614 0.46576
 N70 N 0.74603 0.38249 0.46839
 H71 H 0.79452 0.40193 0.49786
 H72 H 0.74448 0.37219 0.54640
 H73 H 0.75959 0.39592 0.58028
 H74 H 0.81021 0.42704 0.53063
 H75 H 0.73014 0.35144 0.45464
 H76 H 0.71533 0.37026 0.41775
 H77 H 0.74412 0.43639 0.44305
 H78 H 0.75847 0.41613 0.47948
 C79 C 0.82249 0.31945 0.46421
 C80 C 0.69461 0.32208 0.52625
 C81 C 0.72897 0.40481 0.42715
 C82 C 0.78619 0.41354 0.55828
 C83 C 0.22831 -0.14897 0.00710
 H84 H 0.24515 -0.14816 0.01649
 C85 C 0.20927 -0.16115 0.01745
 H86 H 0.21204 -0.17036 0.03432
 C87 C 0.20400 -0.13709 -0.02564
 H88 H 0.20167 -0.12716 -0.04206
 C89 C 0.18448 -0.14884 -0.01583
 H90 H 0.16745 -0.14767 -0.02494
 N91 N 0.22540 -0.13722 -0.01410
 C92 C 0.29294 -0.12626 -0.05212
 H93 H 0.28751 -0.10992 -0.06064
 C94 C 0.31491 -0.13691 -0.05850
 H95 H 0.32589 -0.12887 -0.07234
 C96 C 0.28508 -0.15643 -0.02389
 H97 H 0.27354 -0.16395 -0.01031
 C98 C 0.30709 -0.16764 -0.02964
 H99 H 0.31224 -0.18357 -0.02016
 Zn100 Zn 0.25032 -0.11804 -0.02637
 N101 N 0.27856 -0.13594 -0.03494
 C102 C 0.27994 -0.08489 -0.00413
 N103 N 0.25834 -0.09541 -0.00228
 C104 C 0.24380 -0.09162 0.01752
 C105 C 0.25148 -0.07785 0.03711
 C106 C 0.28840 -0.07121 0.01508
 C107 C 0.23718 -0.11678 -0.07475
 C108 C 0.22815 -0.10739 -0.09608
 C109 C 0.22432 -0.06929 -0.07581
 C110 C 0.23359 -0.07952 -0.05485
 N111 N 0.23945 -0.10293 -0.05464
 H112 H 0.29111 -0.08794 -0.02010
 H113 H 0.22657 -0.09994 0.01853
 H114 H 0.24019 -0.07588 0.05321
 H115 H 0.30604 -0.06370 0.01370
 H116 H 0.24236 -0.13532 -0.07414
 H117 H 0.22791 -0.11924 -0.11164
 H118 H 0.21865 -0.05094 -0.07425
 H119 H 0.23544 -0.06889 -0.03850
 C120 C 0.32247 -0.15771 -0.04697
 C121 C 0.18685 -0.16093 0.00614
 C122 C 0.22089 -0.08321 -0.09714
 C123 C 0.27437 -0.06812 0.03629
 C124 C 0.23313 0.14399 0.45422
 H125 H 0.24453 0.13582 0.44033
 C126 C 0.21332 0.15769 0.44738
 H127 H 0.20952 0.15959 0.42826
 C128 C 0.22370 0.15088 0.49584
 H129 H 0.22762 0.14824 0.51471
 C130 C 0.20358 0.16456 0.48980
 H131 H 0.19231 0.17228 0.50414
 N132 N 0.23762 0.14028 0.47813
 C133 C 0.30644 0.11825 0.50777
 H134 H 0.30488 0.09932 0.50526
 C135 C 0.32635 0.12733 0.51929
 H136 H 0.34026 0.11523 0.52529
 C137 C 0.29005 0.15688 0.50264
 H138 H 0.27566 0.16819 0.49628
 C139 C 0.30971 0.16678 0.51422
 H140 H 0.31024 0.18578 0.51687
 Zn141 Zn 0.26227 0.11794 0.48610
 N142 N 0.28880 0.13299 0.49978
 C143 C 0.29422 0.10588 0.44771
 N144 N 0.27215 0.10147 0.45719
 C145 C 0.25646 0.08768 0.44499
 C146 C 0.26285 0.07761 0.42238
 C147 C 0.30111 0.09657 0.42503
 C148 C 0.24744 0.10725 0.53259
 C149 C 0.23714 0.09464 0.55139
 C150 C 0.23565 0.06047 0.52459
 C151 C 0.24574 0.07395 0.50606
 N152 N 0.25062 0.09718 0.51015
 H153 H 0.30618 0.11744 0.45723
 H154 H 0.23866 0.08522 0.45237
 H155 H 0.25011 0.06705 0.41257
 H156 H 0.31848 0.10073 0.41739
 H157 H 0.25281 0.12526 0.53588
 H158 H 0.23407 0.10319 0.56893
 H159 H 0.23109 0.04223 0.52102
 H160 H 0.24927 0.06587 0.48846
 C161 C 0.32807 0.15188 0.52294
 C162 C 0.19791 0.16766 0.46530
 C163 C 0.23066 0.07114 0.54732
 C164 C 0.28526 0.08244 0.41210
 C165 C 0.15799 0.47068 0.24225
 H166 H 0.15779 0.46309 0.26018
 C167 C 0.16996 0.45879 0.22306
 H168 H 0.17937 0.44225 0.22650
 C169 C 0.14504 0.50095 0.21583
 H170 H 0.13458 0.51690 0.21283
 C171 C 0.15675 0.48967 0.19616
 H172 H 0.15514 0.49721 0.17828
 N173 N 0.14560 0.49121 0.23827
 C174 C 0.13009 0.52449 0.30901
 H175 H 0.11094 0.52694 0.30708
 C176 C 0.14111 0.53224 0.33014
 H177 H 0.13014 0.54025 0.34453
 C178 C 0.16727 0.51043 0.29260
 H179 H 0.17736 0.50211 0.27778
 C180 C 0.17913 0.51820 0.31339
 H181 H 0.19839 0.51590 0.31428
 Zn182 Zn 0.12555 0.50391 0.26348
 N183 N 0.14312 0.51351 0.29094
 C184 C 0.10264 0.47266 0.29561
 N185 N 0.10406 0.47988 0.27219
 C186 C 0.09170 0.46883 0.25431
 C187 C 0.07730 0.44960 0.25972
 C188 C 0.08820 0.45384 0.30186
 C189 C 0.12255 0.55029 0.24818
 C190 C 0.11203 0.57121 0.23996
 C191 C 0.07350 0.55257 0.24139
 C192 C 0.08480 0.53192 0.24964
 N193 N 0.10896 0.53111 0.25251
 H194 H 0.11314 0.48101 0.30947
 H195 H 0.09350 0.47464 0.23574
 H196 H 0.06780 0.44073 0.24531
 H197 H 0.08767 0.44807 0.32054
 H198 H 0.14167 0.54923 0.25102
 H199 H 0.12321 0.58629 0.23666
 H200 H 0.05434 0.55280 0.23863
 H201 H 0.07431 0.51656 0.25356
 C202 C 0.16600 0.52927 0.33257
 C203 C 0.16902 0.46804 0.19952
 C204 C 0.08723 0.57249 0.23620
 C205 C 0.07548 0.44195 0.28380
 C206 C -0.16193 0.02132 0.23731
 H207 H -0.16607 0.02767 0.25557
 C208 C -0.17543 0.02948 0.21786
 H209 H -0.18964 0.04236 0.22174
 C210 C -0.13694 -0.00162 0.21062
 H211 H -0.12165 -0.01343 0.20780
 C212 C -0.14959 0.00646 0.19057
 H213 H -0.14422 -0.00032 0.17279
 N214 N -0.14327 0.00585 0.23344
 C215 C -0.13067 -0.01998 0.30672
 H216 H -0.11152 -0.01752 0.30733
 C217 C -0.14287 -0.02802 0.32717
 H218 H -0.13291 -0.03136 0.34354
 C219 C -0.16674 -0.01777 0.28467
 H220 H -0.17592 -0.01412 0.26795
 C221 C -0.17965 -0.02607 0.30465
 H222 H -0.19869 -0.02874 0.30298
 Zn223 Zn -0.12412 -0.00277 0.26016
 N224 N -0.14275 -0.01452 0.28621
 C225 C -0.11427 0.03538 0.29205
 N226 N -0.10839 0.02496 0.27027
 C227 C -0.09294 0.03527 0.25451
 C228 C -0.08249 0.05679 0.26060
 C229 C -0.10433 0.05688 0.29880
 C230 C -0.11226 -0.04742 0.24227
 C231 C -0.09791 -0.06657 0.23438
 C232 C -0.06292 -0.04437 0.24481
 C233 C -0.07802 -0.02546 0.25233
 N234 N -0.10220 -0.02727 0.25065
 H235 H -0.12719 0.02742 0.30399
 H236 H -0.08907 0.02694 0.23703
 H237 H -0.07051 0.06493 0.24771
 H238 H -0.10920 0.06482 0.31625
 H239 H -0.13155 -0.04841 0.24131
 H240 H -0.10643 -0.08206 0.22696
 H241 H -0.04373 -0.04270 0.24640
 H242 H -0.07041 -0.00947 0.25959
 C243 C -0.16775 -0.03110 0.32640
 C244 C -0.16923 0.02240 0.19382
 C245 C -0.07285 -0.06527 0.23555
 C246 C -0.08835 0.06795 0.28293
 C247 C 0.35429 0.51371 0.73311
 H248 H 0.35171 0.52267 0.75049
 C249 C 0.34225 0.52197 0.71266
 H250 H 0.33040 0.53734 0.71443
 C251 C 0.37409 0.48375 0.70932
 H252 H 0.38704 0.46933 0.70781
 C253 C 0.36255 0.49144 0.68849
 H254 H 0.36637 0.48244 0.67132
 N255 N 0.36996 0.49499 0.73106
 C256 C 0.38291 0.47010 0.80455
 H257 H 0.40227 0.47054 0.80397
 C258 C 0.37125 0.46136 0.82493
 H259 H 0.38186 0.45576 0.84020
 C260 C 0.34589 0.47690 0.78507
 H261 H 0.33619 0.48245 0.76921
 C262 C 0.33344 0.46788 0.80505
 H263 H 0.31415 0.46659 0.80429
 Zn264 Zn 0.38896 0.48638 0.75794
 N265 N 0.37022 0.47777 0.78521
 C266 C 0.40761 0.52227 0.78838
 N267 N 0.40843 0.51245 0.76566
 C268 C 0.42186 0.52201 0.74761
 C269 C 0.43511 0.54232 0.75211
 C270 C 0.42093 0.54221 0.79377
 C271 C 0.39444 0.43944 0.74555
 C272 C 0.40573 0.41790 0.73967
 C273 C 0.44398 0.43682 0.74292
 C274 C 0.43185 0.45819 0.74867
 N275 N 0.40749 0.45906 0.74967
 H276 H 0.39626 0.51504 0.80231
 H277 H 0.42188 0.51410 0.72959
 H278 H 0.44551 0.54996 0.73756
 H279 H 0.41986 0.54994 0.81190
 H280 H 0.37509 0.44066 0.74664
 H281 H 0.39481 0.40274 0.73579
 H282 H 0.46337 0.43631 0.74232
 H283 H 0.44185 0.47397 0.75243
 C284 C 0.34618 0.45970 0.82527
 C285 C 0.34672 0.51103 0.68990
 C286 C 0.43084 0.41629 0.73835
 C287 C 0.43475 0.55255 0.77549
 C288 C 0.65564 0.96541 0.73910
 H289 H 0.65806 0.95735 0.75663
 C290 C 0.66952 0.95754 0.71912
 H291 H 0.68291 0.94368 0.72158
 C292 C 0.63500 0.99305 0.71464
 H293 H 0.62102 1.00635 0.71270
 C294 C 0.64825 0.98557 0.69420
 H295 H 0.64417 0.99331 0.67683
 N296 N 0.63894 0.98305 0.73659
 C297 C 0.62433 1.00954 0.81025
 H298 H 0.60497 1.00938 0.80976
 C299 C 0.63572 1.01767 0.83103
 H300 H 0.62454 1.02285 0.84649
 C301 C 0.66163 1.00166 0.79057
 H302 H 0.67165 0.99601 0.77451
 C303 C 0.67385 1.00954 0.81107
 H304 H 0.69318 1.01003 0.80992
 Zn305 Zn 0.61914 0.99237 0.76346
 N306 N 0.63730 1.00170 0.79060
 C307 C 0.60515 0.95450 0.79249
 N308 N 0.60027 0.96609 0.77159
 C309 C 0.58398 0.95770 0.75561
 C310 C 0.57163 0.93698 0.76059
 C311 C 0.59359 0.93359 0.79793
 C312 C 0.61359 1.03849 0.74944
 C313 C 0.60246 1.05890 0.74080
 C314 C 0.56423 1.04004 0.74512
 C315 C 0.57618 1.01979 0.75357
 N316 N 0.60051 1.01923 0.75489
 H317 H 0.61866 0.96097 0.80460
 H318 H 0.58094 0.96684 0.73876
 H319 H 0.55892 0.93028 0.74765
 H320 H 0.59798 0.92437 0.81446
 H321 H 0.63287 1.03765 0.75104
 H322 H 0.61327 1.07384 0.73594
 H323 H 0.54494 1.04006 0.74330
 H324 H 0.56607 1.00447 0.75854
 C325 C 0.66098 1.01804 0.83184
 C326 C 0.66580 0.96756 0.69620
 C327 C 0.57754 1.05966 0.73804
 C328 C 0.57676 0.92452 0.78180
 C329 C 0.02083 0.22693 -0.14925
 H330 H 0.03278 0.23461 -0.13624
 C331 C 0.02909 0.20819 -0.16417
 H332 H 0.04720 0.20141 -0.16198
 C333 C -0.01736 0.22583 -0.16734
 H334 H -0.03561 0.23257 -0.16813
 C335 C -0.00984 0.20712 -0.18265
 H336 H -0.02232 0.19984 -0.19550
 N337 N -0.00235 0.23468 -0.15038
 C338 C -0.05403 0.28701 -0.14279
 H339 H -0.06543 0.27665 -0.13128
 C340 C -0.06391 0.30605 -0.15542
 H341 H -0.08279 0.31039 -0.15310
 C342 C -0.01569 0.29406 -0.15982
 H343 H 0.00311 0.28917 -0.16145
 C344 C -0.02478 0.31331 -0.17267
 H345 H -0.01289 0.32308 -0.18434
 Zn346 Zn -0.01597 0.25657 -0.12728
 N347 N -0.03022 0.28167 -0.14485
 C348 C 0.01087 0.29232 -0.10439
 N349 N 0.00765 0.26856 -0.10614
 C350 C 0.02099 0.25318 -0.09284
 C351 C 0.03952 0.26142 -0.07838
 C352 C 0.02888 0.30135 -0.08983
 C353 C -0.04260 0.21746 -0.11207
 C354 C -0.06011 0.20557 -0.09911
 C355 C -0.06976 0.24187 -0.07718
 C356 C -0.05197 0.25304 -0.09070
 N357 N -0.03922 0.24090 -0.10817
 H358 H -0.00039 0.30438 -0.11439
 H359 H 0.01761 0.23441 -0.09396
 H360 H 0.05047 0.24894 -0.06843
 H361 H 0.03161 0.32026 -0.08915
 H362 H -0.03192 0.20780 -0.12551
 H363 H -0.06272 0.18740 -0.10454
 H364 H -0.07871 0.25238 -0.06311
 H365 H -0.04844 0.27156 -0.08738
 C366 C -0.04916 0.31964 -0.17038
 C367 C 0.01345 0.19755 -0.18065
 C368 C -0.07461 0.21757 -0.08128
 C369 C 0.04376 0.28579 -0.07699
 C370 C 0.45478 0.23633 0.14852
 H371 H 0.44232 0.24849 0.14013
 C372 C 0.44616 0.21645 0.16030
 H373 H 0.42709 0.21337 0.16052
 C374 C 0.49472 0.22509 0.15759
 H375 H 0.51366 0.22830 0.15633
 C376 C 0.48688 0.20497 0.16952
 H377 H 0.49993 0.19308 0.17752
 N378 N 0.47875 0.23995 0.14679
 C379 C 0.51240 0.30718 0.13307
 H380 H 0.51617 0.30477 0.11385
 C381 C 0.52085 0.32695 0.14535
 H382 H 0.53095 0.33986 0.13537
 C383 C 0.49445 0.29319 0.16926
 H384 H 0.48426 0.27982 0.17841
 C385 C 0.50250 0.31287 0.18231
 H386 H 0.49860 0.31451 0.20160
 Zn387 Zn 0.49008 0.26437 0.12647
 N388 N 0.49952 0.29080 0.14509
 C389 C 0.45858 0.29696 0.10402
 N390 N 0.46544 0.27374 0.10488
 C391 C 0.45404 0.25698 0.09159
 C392 C 0.43460 0.26332 0.07713
 C393 C 0.43960 0.30410 0.08945
 C394 C 0.53833 0.25202 0.12177
 C395 C 0.55944 0.24337 0.11083
 C396 C 0.53805 0.23796 0.07337
 C397 C 0.51721 0.24668 0.08512
 N398 N 0.51764 0.25307 0.10905
 H399 H 0.46748 0.31001 0.11495
 H400 H 0.45963 0.23859 0.09278
 H401 H 0.42539 0.24978 0.06699
 H402 H 0.43414 0.32261 0.08930
 H403 H 0.53842 0.25792 0.14055
 H404 H 0.57566 0.24256 0.12136
 H405 H 0.53733 0.23234 0.05451
 H406 H 0.50072 0.24803 0.07518
 C407 C 0.51609 0.32992 0.17033
 C408 C 0.46235 0.20013 0.17047
 C409 C 0.55941 0.23589 0.08642
 C410 C 0.42720 0.28715 0.07602
 C411 C 0.95464 0.73602 0.65908
 H412 H 0.94315 0.75093 0.65456
 C413 C 0.94549 0.71749 0.67263
 H414 H 0.92684 0.71832 0.67825
 C415 C 0.99239 0.71624 0.65547
 H416 H 1.01054 0.71567 0.64835
 C417 C 0.98408 0.69745 0.66923
 H418 H 0.99619 0.68278 0.67296
 N419 N 0.97756 0.73487 0.65046
 C420 C 1.00213 0.80537 0.63294
 H421 H 1.00561 0.80325 0.61364
 C422 C 1.00820 0.82633 0.64485
 H423 H 1.01639 0.84028 0.63457
 C424 C 0.98867 0.78908 0.67001
 H425 H 0.98142 0.77435 0.67978
 C426 C 0.99471 0.80966 0.68270
 H427 H 0.99183 0.81072 0.70218
 Zn428 Zn 0.98729 0.75845 0.62867
 N429 N 0.99257 0.78727 0.64559
 C430 C 0.95369 0.78401 0.60013
 N431 N 0.96251 0.76216 0.60571
 C432 C 0.95218 0.74218 0.59705
 C433 C 0.93175 0.74372 0.58275
 C434 C 0.93356 0.78635 0.58555
 C435 C 1.03709 0.75386 0.62475
 C436 C 1.05917 0.74656 0.61474
 C437 C 1.03837 0.72861 0.58124
 C438 C 1.01666 0.73650 0.59177
 N439 N 1.01642 0.74872 0.61324
 H440 H 0.96170 0.79968 0.60757
 H441 H 0.95926 0.72501 0.60210
 H442 H 0.92331 0.72768 0.57658
 H443 H 0.92633 0.80386 0.58191
 H444 H 1.03642 0.76352 0.64186
 H445 H 1.07537 0.75115 0.62413
 H446 H 1.03808 0.71830 0.56452
 H447 H 1.00003 0.73253 0.58297
 C448 C 1.00478 0.82854 0.67010
 C449 C 0.96015 0.69764 0.67759
 C450 C 1.06006 0.73350 0.59280
 C451 C 0.92208 0.76604 0.57710
 C452 C 0.49659 0.72581 0.33599
 H453 H 0.48672 0.73762 0.32431
 C454 C 0.50850 0.70575 0.32608
 H455 H 0.50799 0.70239 0.30668
 C456 C 0.50959 0.71586 0.37544
 H457 H 0.50983 0.71992 0.39470
 C458 C 0.52172 0.69579 0.36636
 H459 H 0.53113 0.68437 0.37882
 N460 N 0.49750 0.73048 0.36028
 C461 C 0.44749 0.78670 0.35461
 H462 H 0.43582 0.77925 0.36813
 C463 C 0.43848 0.80443 0.33965
 H464 H 0.42019 0.81052 0.34280
 C465 C 0.48538 0.78809 0.33515
 H466 H 0.50331 0.78096 0.33255
 C467 C 0.47732 0.80626 0.32015
 H468 H 0.48950 0.81265 0.30640
 Zn469 Zn 0.48298 0.75727 0.37576
 N470 N 0.47079 0.77934 0.35270
 C471 C 0.52596 0.78130 0.38344
 N472 N 0.50721 0.77115 0.39503
 C473 C 0.50712 0.76857 0.41961
 C474 C 0.52639 0.77636 0.43338
 C475 C 0.54530 0.78964 0.39648
 C476 C 0.45029 0.72427 0.39389
 C477 C 0.43127 0.71629 0.40800
 C478 C 0.42723 0.75525 0.42646
 C479 C 0.44646 0.76249 0.41203
 N480 N 0.45753 0.74702 0.39609
 H481 H 0.52645 0.78230 0.36396
 H482 H 0.49260 0.75965 0.42852
 H483 H 0.52623 0.77388 0.45285
 H484 H 0.56020 0.79725 0.38675
 H485 H 0.45899 0.71233 0.38086
 H486 H 0.42553 0.69823 0.40561
 H487 H 0.41865 0.76775 0.43908
 H488 H 0.45248 0.78052 0.41339
 C489 C 0.45360 0.81516 0.32247
 C490 C 0.52149 0.69061 0.34136
 C491 C 0.41942 0.73185 0.42452
 C492 C 0.54581 0.78701 0.42174
 C493 C 0.41835 -0.02338 0.25260
 H494 H 0.42041 -0.00609 0.26092
 C495 C 0.42986 -0.04318 0.26246
 H496 H 0.44096 -0.04104 0.27829
 C497 C 0.40003 -0.04755 0.22293
 H498 H 0.38783 -0.04936 0.20800
 C499 C 0.41085 -0.06780 0.23244
 H500 H 0.40722 -0.08496 0.22445
 N501 N 0.40369 -0.02591 0.23323
 C502 C 0.38999 0.04498 0.20531
 H503 H 0.37087 0.04330 0.20320
 C504 C 0.40090 0.06610 0.19943
 H505 H 0.39006 0.08050 0.19241
 C506 C 0.42722 0.02793 0.21679
 H507 H 0.43735 0.01298 0.22357
 C508 C 0.43894 0.04884 0.21104
 H509 H 0.45807 0.04990 0.21366
 Zn510 Zn 0.38472 0.00018 0.22299
 N511 N 0.40308 0.02661 0.21425
 C512 C 0.36765 0.03032 0.26056
 N513 N 0.36415 0.00907 0.24941
 C514 C 0.34791 -0.00630 0.25833
 C515 C 0.33399 -0.00020 0.27894
 C516 C 0.35442 0.03698 0.28124
 C517 C 0.38166 -0.01273 0.17480
 C518 C 0.37158 -0.02047 0.15319
 C519 C 0.33273 -0.01940 0.17311
 C520 C 0.34358 -0.01138 0.19439
 N521 N 0.36773 -0.00875 0.19495
 H522 H 0.38135 0.04190 0.25399
 H523 H 0.34598 -0.02343 0.24963
 H524 H 0.32098 -0.01255 0.28560
 H525 H 0.35825 0.05365 0.29015
 H526 H 0.40077 -0.01017 0.17570
 H527 H 0.38310 -0.02347 0.13741
 H528 H 0.31362 -0.02225 0.17323
 H529 H 0.33275 -0.00772 0.21046
 C530 C 0.42563 0.06839 0.20259
 C531 C 0.42569 -0.06577 0.25265
 C532 C 0.34686 -0.02441 0.15222
 C533 C 0.33721 0.02174 0.29073
 C534 C 0.07922 1.04108 0.75850
 H535 H 0.07439 1.02490 0.76743
 C536 C 0.06911 1.06272 0.76652
 H537 H 0.05658 1.06300 0.78171
 C538 C 0.10256 1.06048 0.72889
 H539 H 0.11601 1.05969 0.71459
 C540 C 0.09288 1.08242 0.73625
 H541 H 0.09864 1.09820 0.72711
 N542 N 0.09591 1.04037 0.74023
 C543 C 0.09936 0.96462 0.72183
 H544 H 0.11832 0.96116 0.72299
 C545 C 0.08442 0.94606 0.71587
 H546 H 0.09218 0.92854 0.71265
 C547 C 0.06641 0.99172 0.72296
 H548 H 0.05954 1.00965 0.72516
 C549 C 0.05080 0.97364 0.71662
 H550 H 0.03193 0.97773 0.71438
 Zn551 Zn 0.11229 1.01150 0.73162
 N552 N 0.09026 0.98693 0.72546
 C553 C 0.14974 0.98487 0.75354
 N554 N 0.13334 1.00279 0.75722
 C555 C 0.13143 1.01426 0.77912
 C556 C 0.14535 1.00699 0.79865
 C557 C 0.16396 0.97700 0.77257
 C558 C 0.11607 1.01982 0.68242
 C559 C 0.12681 1.02609 0.66051
 C560 C 0.16538 1.02398 0.67987
 C561 C 0.15384 1.01804 0.70157
 N562 N 0.12957 1.01636 0.70247
 H563 H 0.15195 0.97666 0.73580
 H564 H 0.11878 1.02877 0.78177
 H565 H 0.14288 1.01579 0.81614
 H566 H 0.17670 0.96253 0.76932
 H567 H 0.09680 1.01853 0.68374
 H568 H 0.11576 1.02949 0.64488
 H569 H 0.18461 1.02611 0.67953
 H570 H 0.16419 1.01576 0.71783
 C571 C 0.05984 0.95046 0.71303
 C572 C 0.07626 1.08382 0.75562
 C573 C 0.15172 1.02859 0.65920
 C574 C 0.16152 0.98780 0.79562
 C575 C 0.61609 0.55352 0.26939
 H576 H 0.63515 0.55478 0.26615
 C577 C 0.60296 0.57355 0.27709
 H578 H 0.61218 0.59002 0.27983
 C579 C 0.58089 0.53093 0.26810
 H580 H 0.57233 0.51435 0.26434
 C581 C 0.56702 0.55058 0.27597
 H582 H 0.54791 0.54874 0.27862
 N583 N 0.60504 0.53267 0.26527
 C584 C 0.61002 0.47670 0.21654
 H585 H 0.62183 0.48709 0.20548
 C586 C 0.59923 0.45703 0.20626
 H587 H 0.60258 0.45281 0.18724
 C588 C 0.59147 0.46948 0.25461
 H589 H 0.58903 0.47414 0.27363
 C590 C 0.58041 0.44946 0.24506
 H591 H 0.56948 0.43884 0.25688
 Zn592 Zn 0.62487 0.50689 0.25416
 N593 N 0.60643 0.48229 0.24045
 C594 C 0.64401 0.47111 0.28416
 N595 N 0.64310 0.49485 0.28038
 C596 C 0.65474 0.51005 0.29530
 C597 C 0.66707 0.50163 0.31544
 C598 C 0.65609 0.46194 0.30406
 C599 C 0.63699 0.53490 0.21464
 C600 C 0.65125 0.54329 0.19581
 C601 C 0.68313 0.51663 0.20810
 C602 C 0.66832 0.50895 0.22699
 N603 N 0.64574 0.51818 0.22986
 H604 H 0.63528 0.45915 0.27182
 H605 H 0.65428 0.52878 0.29181
 H606 H 0.67610 0.51404 0.32714
 H607 H 0.65591 0.44305 0.30708
 H608 H 0.61879 0.54156 0.21700
 H609 H 0.64393 0.55648 0.18375
 H610 H 0.70107 0.50916 0.20593
 H611 H 0.67470 0.49543 0.23915
 C612 C 0.58473 0.44271 0.22069
 C613 C 0.57809 0.57224 0.28071
 C614 C 0.67460 0.53408 0.19232
 C615 C 0.66761 0.47728 0.32020
 C616 C 0.89984 0.48509 0.77656
 H617 H 0.89938 0.50164 0.78671
 C618 C 0.91260 0.46558 0.78539
 H619 H 0.92194 0.46726 0.80241
 C620 C 0.88687 0.46243 0.74282
 H621 H 0.87654 0.46119 0.72641
 C622 C 0.89930 0.44247 0.75103
 H623 H 0.89865 0.42607 0.74066
 N624 N 0.88703 0.48309 0.75582
 C625 C 0.87267 0.55431 0.72897
 H626 H 0.85336 0.55411 0.72781
 C627 C 0.88502 0.57413 0.72134
 H628 H 0.87510 0.58923 0.71447
 C629 C 0.90913 0.53442 0.73824
 H630 H 0.91847 0.51881 0.74460
 C631 C 0.92224 0.55376 0.73039
 H632 H 0.94161 0.55301 0.73101
 Zn633 Zn 0.86661 0.50862 0.74704
 N634 N 0.88477 0.53509 0.73755
 C635 C 0.84251 0.53919 0.78177
 N636 N 0.84704 0.51631 0.77474
 C637 C 0.84013 0.49805 0.78890
 C638 C 0.82902 0.50247 0.81148
 C639 C 0.83098 0.54438 0.80394
 C640 C 0.85577 0.50432 0.69771
 C641 C 0.84423 0.49554 0.67728
 C642 C 0.81641 0.47589 0.70381
 C643 C 0.82852 0.48509 0.72380
 N644 N 0.84790 0.49889 0.72041
 H645 H 0.84850 0.55355 0.77074
 H646 H 0.84421 0.48001 0.78314
 H647 H 0.82440 0.48780 0.82294
 H648 H 0.82818 0.56269 0.80960
 H649 H 0.87150 0.51490 0.69539
 H650 H 0.85090 0.49997 0.65939
 H651 H 0.80147 0.46434 0.70682
 H652 H 0.82285 0.48067 0.74201
 C653 C 0.91011 0.57397 0.72197
 C654 C 0.91201 0.44378 0.77283
 C655 C 0.82451 0.48080 0.68015
 C656 C 0.82462 0.52591 0.81930
 C657 C 0.26890 0.39956 -0.02268
 H658 H 0.27917 0.39641 -0.00652
 C659 C 0.27922 0.41180 -0.04187
 H660 H 0.29717 0.41845 -0.04010
 C661 C 0.23387 0.39333 -0.04547
 H662 H 0.21654 0.38552 -0.04729
 C663 C 0.24335 0.40587 -0.06494
 H664 H 0.23316 0.40764 -0.08144
 N665 N 0.24668 0.39036 -0.02481
 C666 C 0.20615 0.38579 0.04102
 H667 H 0.19419 0.37248 0.03437
 C668 C 0.20025 0.39822 0.06246
 H669 H 0.18346 0.39475 0.07168
 C670 C 0.24273 0.40599 0.03760
 H671 H 0.25950 0.40866 0.02820
 C672 C 0.23746 0.41893 0.05893
 H673 H 0.25027 0.43147 0.06565
 Zn674 Zn 0.23526 0.37108 0.00094
 N675 N 0.22708 0.38987 0.02897
 C676 C 0.26043 0.34138 0.03261
 N677 N 0.26004 0.34953 0.00950
 C678 C 0.27792 0.34383 -0.00674
 C679 C 0.29787 0.33054 0.00050
 C680 C 0.27992 0.32781 0.04054
 C681 C 0.18778 0.36665 -0.01475
 C682 C 0.16757 0.35500 -0.02288
 C683 C 0.18893 0.31772 -0.01850
 C684 C 0.20887 0.33014 -0.01068
 N685 N 0.20801 0.35419 -0.00917
 H686 H 0.24596 0.34612 0.04515
 H687 H 0.27704 0.35018 -0.02514
 H688 H 0.31231 0.32675 -0.01240
 H689 H 0.28040 0.32227 0.05928
 H690 H 0.18748 0.38576 -0.01315
 H691 H 0.15201 0.36543 -0.02800
 H692 H 0.18995 0.29857 -0.01939
 H693 H 0.22505 0.32055 -0.00593
 C694 C 0.21602 0.41500 0.07172
 C695 C 0.26646 0.41489 -0.06338
 C696 C 0.16794 0.33017 -0.02496
 C697 C 0.29923 0.32277 0.02455
 C698 C 0.77641 0.08937 1.03043
 H699 H 0.78126 0.08630 1.01153
 C700 C 0.78742 0.07594 1.04844
 H701 H 0.80025 0.06214 1.04306
 C702 C 0.75398 0.11128 1.06022
 H703 H 0.74149 0.12556 1.06485
 C704 C 0.76482 0.09860 1.07877
 H705 H 0.76042 0.10345 1.09743
 N706 N 0.75969 0.10636 1.03656
 C707 C 0.72111 0.12046 0.96978
 H708 H 0.72067 0.13956 0.97155
 C709 C 0.70960 0.10957 0.95047
 H710 H 0.70047 0.12040 0.93727
 C711 C 0.73340 0.08320 0.98509
 H712 H 0.74215 0.07298 0.99895
 C713 C 0.72233 0.07153 0.96578
 H714 H 0.72278 0.05237 0.96481
 Zn715 Zn 0.74579 0.12537 1.01217
 N716 N 0.73270 0.10728 0.98659
 C717 C 0.77852 0.14066 0.97671
 N718 N 0.77002 0.14486 0.99968
 C719 C 0.77992 0.16147 1.01437
 C720 C 0.79903 0.17485 1.00593
 C721 C 0.79777 0.15333 0.96771
 C722 C 0.70214 0.13037 1.03584
 C723 C 0.68190 0.14154 1.04615
 C724 C 0.69759 0.17923 1.03417
 C725 C 0.71781 0.16730 1.02436
 N726 N 0.71977 0.14331 1.02564
 H727 H 0.77084 0.12698 0.96554
 H728 H 0.77316 0.16409 1.03275
 H729 H 0.80695 0.18784 1.01786
 H730 H 0.80448 0.14960 0.94946
 H731 H 0.70396 0.11127 1.03610
 H732 H 0.66810 0.13094 1.05434
 H733 H 0.69623 0.19834 1.03326
 H734 H 0.73173 0.17718 1.01555
 C735 C 0.71006 0.08482 0.94834
 C736 C 0.78173 0.08051 1.07308
 C737 C 0.67949 0.16626 1.04546
 C738 C 0.80834 0.17056 0.98243
 C739 C 0.28230 0.60502 0.55329
 H740 H 0.29356 0.61852 0.54590
 C741 C 0.29106 0.59085 0.57180
 H742 H 0.30899 0.59369 0.57833
 C743 C 0.24486 0.58616 0.55502
 H744 H 0.22664 0.58484 0.54881
 C745 C 0.25291 0.57161 0.57372
 H746 H 0.24094 0.55880 0.58142
 N747 N 0.25947 0.60272 0.54542
 C748 C 0.22744 0.62547 0.47710
 H749 H 0.23068 0.64416 0.47873
 C750 C 0.21697 0.61668 0.45611
 H751 H 0.21204 0.62886 0.44193
 C752 C 0.23139 0.58685 0.49286
 H753 H 0.23743 0.57522 0.50700
 C754 C 0.22097 0.57724 0.47203
 H755 H 0.21860 0.55830 0.47064
 Zn756 Zn 0.24809 0.62536 0.52268
 N757 N 0.23403 0.61068 0.49520
 C758 C 0.28958 0.62956 0.49564
 N759 N 0.27461 0.64217 0.51087
 C760 C 0.27913 0.66497 0.51727
 C761 C 0.29963 0.67590 0.50826
 C762 C 0.31018 0.63971 0.48630
 C763 C 0.21598 0.64048 0.56038
 C764 C 0.19705 0.65365 0.57093
 C765 C 0.19785 0.67955 0.53649
 C766 C 0.21663 0.66567 0.52645
 N767 N 0.22497 0.64617 0.53817
 H768 H 0.28551 0.61146 0.49088
 H769 H 0.26711 0.67455 0.52965
 H770 H 0.30325 0.69393 0.51377
 H771 H 0.32171 0.62937 0.47403
 H772 H 0.22292 0.62529 0.56980
 H773 H 0.18954 0.64792 0.58803
 H774 H 0.19150 0.69492 0.52679
 H775 H 0.22443 0.67051 0.50923
 C776 C 0.21337 0.59229 0.45342
 C777 C 0.27623 0.57408 0.58252
 C778 C 0.18739 0.67327 0.55879
 C779 C 0.31556 0.66312 0.49272
 C780 C 0.77610 0.89306 0.48599
 H781 H 0.78484 0.88834 0.50271
 C782 C 0.78871 0.90518 0.46812
 H783 H 0.80698 0.91022 0.47146
 C784 C 0.74221 0.89091 0.46070
 H785 H 0.72447 0.88451 0.45737
 C786 C 0.75408 0.90311 0.44244
 H787 H 0.74519 0.90603 0.42535
 N788 N 0.75342 0.88585 0.48185
 C789 C 0.71674 0.86723 0.54889
 H790 H 0.70943 0.85071 0.54255
 C791 C 0.71019 0.87625 0.57176
 H792 H 0.69743 0.86671 0.58265
 C793 C 0.74157 0.89995 0.54174
 H794 H 0.75374 0.90913 0.52990
 C795 C 0.73565 0.90956 0.56468
 H796 H 0.74361 0.92599 0.57039
 Zn797 Zn 0.73944 0.86452 0.50395
 N798 N 0.73222 0.87904 0.53443
 C799 C 0.76740 0.83240 0.53100
 N800 N 0.76207 0.83958 0.50819
 C801 C 0.77567 0.83238 0.48864
 C802 C 0.79654 0.81874 0.49186
 C803 C 0.78784 0.81847 0.53498
 C804 C 0.69209 0.86983 0.49074
 C805 C 0.66992 0.86363 0.48164
 C806 C 0.68543 0.82379 0.47469
 C807 C 0.70745 0.83081 0.48389
 N808 N 0.71037 0.85360 0.49139
 H809 H 0.75665 0.83858 0.54635
 H810 H 0.77124 0.83862 0.47074
 H811 H 0.80794 0.81426 0.47632
 H812 H 0.79253 0.81411 0.55344
 H813 H 0.69488 0.88774 0.49718
 H814 H 0.65561 0.87686 0.48121
 H815 H 0.68344 0.80574 0.46827
 H816 H 0.72223 0.81819 0.48483
 C817 C 0.71976 0.89763 0.58007
 C818 C 0.77784 0.90990 0.44579
 C819 C 0.66643 0.84042 0.47325
 C820 C 0.80318 0.81227 0.51539
 C821 C -0.02345 0.27726 0.38082
 H822 H -0.01739 0.28892 0.36677
 C823 C -0.04380 0.28364 0.39449
 H824 H -0.05280 0.30044 0.39117
 C825 C -0.01989 0.24089 0.40150
 H826 H -0.01077 0.22398 0.40364
 C827 C -0.04017 0.24671 0.41581
 H828 H -0.04656 0.23426 0.42905
 N829 N -0.01192 0.25619 0.38446
 C830 C 0.06160 0.23431 0.36558
 H831 H 0.05998 0.23450 0.34602
 C832 C 0.08354 0.22853 0.37591
 H833 H 0.09861 0.22383 0.36409
 C834 C 0.04354 0.23976 0.40454
 H835 H 0.02798 0.24452 0.41557
 C836 C 0.06527 0.23417 0.41569
 H837 H 0.06618 0.23463 0.43532
 Zn838 Zn 0.01377 0.24729 0.36308
 N839 N 0.04208 0.23942 0.37988
 C840 C 0.03020 0.29202 0.35586
 N841 N 0.02128 0.27329 0.34346
 C842 C 0.01836 0.27384 0.31896
 C843 C 0.02392 0.29426 0.30610
 C844 C 0.03586 0.31267 0.34383
 C845 C 0.01581 0.19988 0.34556
 C846 C 0.00717 0.17992 0.33362
 C847 C -0.02609 0.20374 0.31943
 C848 C -0.01674 0.22330 0.33155
 N849 N 0.00379 0.22103 0.34438
 H850 H 0.03263 0.29093 0.37528
 H851 H 0.01159 0.25858 0.30943
 H852 H 0.02120 0.29469 0.28667
 H853 H 0.04301 0.32733 0.35412
 H854 H 0.03168 0.19818 0.35642
 H855 H 0.01660 0.16310 0.33541
 H856 H -0.04260 0.20580 0.30951
 H857 H -0.02616 0.24023 0.33125
 C858 C 0.08563 0.22835 0.40130
 C859 C -0.05255 0.26821 0.41207
 C860 C -0.01421 0.18163 0.32061
 C861 C 0.03249 0.31411 0.31868
 C862 C 1.03730 0.78481 0.09250
 H863 H 1.01921 0.79020 0.08801
 C864 C 1.05677 0.79484 0.08048
 H865 H 1.05363 0.80788 0.06659
 C866 C 1.06359 0.76193 0.11666
 H867 H 1.06626 0.74948 0.13112
 C868 C 1.08347 0.77185 0.10550
 H869 H 1.10129 0.76659 0.11113
 N870 N 1.04103 0.76836 0.10994
 C871 C 0.97233 0.73333 0.11823
 H872 H 0.97190 0.73283 0.13787
 C873 C 0.95337 0.72428 0.10510
 H874 H 0.93833 0.71679 0.11470
 C875 C 0.99269 0.74338 0.08187
 H876 H 1.00820 0.75054 0.07291
 C877 C 0.97425 0.73402 0.06794
 H878 H 0.97547 0.73433 0.04829
 Zn879 Zn 1.01495 0.75539 0.12732
 N880 N 0.99115 0.74328 0.10658
 C881 C 0.97807 0.78597 0.14618
 N882 N 1.00157 0.77948 0.14813
 C883 C 1.01604 0.79070 0.16411
 C884 C 1.00686 0.80901 0.17918
 C885 C 0.96808 0.80373 0.16122
 C886 C 1.03568 0.71116 0.13105
 C887 C 1.04537 0.69104 0.14177
 C888 C 1.03491 0.70793 0.18122
 C889 C 1.02552 0.72794 0.16968
 N890 N 1.02640 0.72924 0.14502
 H891 H 0.96698 0.77767 0.13279
 H892 H 1.03476 0.78550 0.16502
 H893 H 1.01850 0.81786 0.19181
 H894 H 0.94934 0.80865 0.15946
 H895 H 1.03583 0.71260 0.11147
 H896 H 1.05282 0.67691 0.13030
 H897 H 1.03457 0.70722 0.20087
 H898 H 1.01773 0.74242 0.18038
 C899 C 0.95414 0.72472 0.07967
 C900 C 1.08017 0.78844 0.08714
 C901 C 1.04530 0.68934 0.16717
 C902 C 0.98252 0.81546 0.17793
 C903 C 0.53108 0.27017 0.58900
 H904 H 0.51419 0.27981 0.59091
 C905 C 0.54981 0.27968 0.57548
 H906 H 0.54717 0.29676 0.56715
 C907 C 0.55542 0.23698 0.59901
 H908 H 0.55783 0.22065 0.60868
 C909 C 0.57453 0.24571 0.58551
 H910 H 0.59119 0.23557 0.58448
 N911 N 0.53423 0.24927 0.60057
 C912 C 0.46372 0.22099 0.61602
 H913 H 0.46506 0.21893 0.63547
 C914 C 0.44323 0.21373 0.60408
 H915 H 0.42870 0.20648 0.61464
 C916 C 0.48113 0.23320 0.57889
 H917 H 0.49611 0.24050 0.56913
 C918 C 0.46101 0.22595 0.56614
 H919 H 0.46081 0.22763 0.54658
 Zn920 Zn 0.50925 0.23919 0.62135
 N921 N 0.48203 0.23072 0.60340
 C922 C 0.47865 0.27270 0.64592
 N923 N 0.50167 0.26469 0.64300
 C924 C 0.52007 0.27591 0.65393
 C925 C 0.51566 0.29630 0.66815
 C926 C 0.47341 0.29266 0.66037
 C927 C 0.52364 0.19203 0.62501
 C928 C 0.53190 0.17144 0.63605
 C929 C 0.52974 0.19200 0.67488
 C930 C 0.52177 0.21236 0.66301
 N931 N 0.51931 0.21208 0.63845
 H932 H 0.46431 0.26401 0.63666
 H933 H 0.53825 0.26937 0.65102
 H934 H 0.53046 0.30537 0.67638
 H935 H 0.45503 0.29904 0.66218
 H936 H 0.52109 0.19223 0.60556
 H937 H 0.53569 0.15574 0.62501
 H938 H 0.53220 0.19256 0.69436
 H939 H 0.51782 0.22841 0.67337
 C940 C 0.44171 0.21599 0.57876
 C941 C 0.57203 0.26754 0.57383
 C942 C 0.53530 0.17136 0.66125
 C943 C 0.49206 0.30485 0.67141
 C944 C 0.48247 0.76621 0.90796
 H945 H 0.49957 0.77386 0.91202
 C946 C 0.46149 0.77567 0.91878
 H947 H 0.46268 0.79040 0.93147
 C948 C 0.46019 0.73787 0.88626
 H949 H 0.45961 0.72359 0.87304
 C950 C 0.43882 0.74682 0.89652
 H951 H 0.42208 0.73923 0.89099
 N952 N 0.48147 0.74755 0.89214
 C953 C 0.55450 0.71882 0.88799
 H954 H 0.55601 0.71770 0.86839
 C955 C 0.57396 0.71239 0.90215
 H956 H 0.59042 0.70609 0.89337
 C957 C 0.53103 0.72830 0.92319
 H958 H 0.51421 0.73443 0.93123
 C959 C 0.55003 0.72159 0.93814
 H960 H 0.54784 0.72276 0.95770
 Zn961 Zn 0.50990 0.73621 0.87629
 N962 N 0.53378 0.72712 0.89858
 C963 C 0.54232 0.77136 0.86419
 N964 N 0.52189 0.76092 0.85681
 C965 C 0.50970 0.76908 0.83728
 C966 C 0.51846 0.78809 0.82394
 C967 C 0.55168 0.79019 0.85144
 C968 C 0.49618 0.69023 0.87229
 C969 C 0.49115 0.66836 0.86187
 C970 C 0.50149 0.68388 0.82251
 C971 C 0.50630 0.70566 0.83378
 N972 N 0.50337 0.70840 0.85826
 H973 H 0.55119 0.76557 0.88041
 H974 H 0.49312 0.76094 0.83215
 H975 H 0.50872 0.79429 0.80832
 H976 H 0.56775 0.79839 0.85800
 H977 H 0.49420 0.69288 0.89173
 H978 H 0.48486 0.65442 0.87347
 H979 H 0.50404 0.68184 0.80305
 H980 H 0.51253 0.72020 0.82302
 C981 C 0.57192 0.71390 0.92752
 C982 C 0.43923 0.76604 0.91297
 C983 C 0.49387 0.66484 0.83667
 C984 C 0.53986 0.79875 0.83094
 C985 C 0.42088 -0.16281 0.30261
 C986 C 0.44534 -0.16547 0.30845
 C987 C 0.46121 -0.14782 0.30066
 C988 C 0.45275 -0.12781 0.28829
 C989 C 0.42822 -0.12562 0.28269
 C990 C 0.41252 -0.14330 0.28972
 C991 C 0.41969 -0.10556 0.27055
 C992 C 0.43523 -0.08727 0.26448
 C993 C 0.45956 -0.08941 0.27034
 C994 C 0.46831 -0.10963 0.28193
 H995 H 0.47995 -0.14872 0.30543
 H996 H 0.39366 -0.14194 0.28544
 H997 H 0.40080 -0.10382 0.26643
 H998 H 0.48717 -0.11092 0.28619
 H999 H 0.40807 -0.17616 0.30728
 H1000 H 0.47179 -0.07549 0.26577
 C1001 C 0.91845 0.33949 0.80567
 C1002 C 0.94091 0.34052 0.81681
 C1003 C 0.95360 0.36175 0.81612
 C1004 C 0.94383 0.38179 0.80482
 C1005 C 0.92117 0.38057 0.79383
 C1006 C 0.90869 0.35931 0.79423
 C1007 C 0.91116 0.40072 0.78297
 C1008 C 0.92338 0.42223 0.78313
 C1009 C 0.94597 0.42322 0.79399
 C1010 C 0.95616 0.40316 0.80466
 H1011 H 0.97080 0.36285 0.82492
 H1012 H 0.89132 0.35805 0.78585
 H1013 H 0.89355 0.39982 0.77502
 H1014 H 0.97356 0.40442 0.81297
 H1015 H 0.90846 0.32328 0.80570
 H1016 H 0.95580 0.43953 0.79417
 C1017 C 0.00479 1.15703 0.80284
 C1018 C 0.02090 1.17567 0.80564
 C1019 C 0.04446 1.17266 0.79657
 C1020 C 0.05203 1.15115 0.78558
 C1021 C 0.03580 1.13241 0.78331
 C1022 C 0.01214 1.13566 0.79171
 C1023 C 0.04361 1.11062 0.77309
 C1024 C 0.06753 1.10722 0.76521
 C1025 C 0.08339 1.12614 0.76727
 C1026 C 0.07571 1.14790 0.77728
 H1027 H 0.05699 1.18695 0.79830
 H1028 H -0.00055 1.12149 0.79016
 H1029 H 0.03112 1.09630 0.77136
 H1030 H 0.08841 1.16204 0.77892
 H1031 H -0.01335 1.15868 0.80996
 H1032 H 0.10199 1.12395 0.76170
 C1033 C 0.55814 0.66439 0.34044
 C1034 C 0.53519 0.66970 0.33155
 C1035 C 0.52534 0.65463 0.31391
 C1036 C 0.53810 0.63428 0.30564
 C1037 C 0.56103 0.62907 0.31500
 C1038 C 0.57092 0.64428 0.33228
 C1039 C 0.57374 0.60871 0.30698
 C1040 C 0.56405 0.59340 0.28950
 C1041 C 0.54119 0.59867 0.28033
 C1042 C 0.52833 0.61892 0.28834
 H1043 H 0.50758 0.65843 0.30707
 H1044 H 0.58853 0.64060 0.33953
 H1045 H 0.59113 0.60468 0.31458
 H1046 H 0.51079 0.62262 0.28092
 H1047 H 0.56629 0.67590 0.35373
 H1048 H 0.53340 0.58735 0.26665
 C1049 C 0.51130 0.36392 0.20016
 C1050 C 0.52568 0.35063 0.18356
 C1051 C 0.54922 0.35772 0.17880
 C1052 C 0.55808 0.37819 0.18978
 C1053 C 0.54335 0.39184 0.20598
 C1054 C 0.52005 0.38439 0.21125
 C1055 C 0.55210 0.41281 0.21631
 C1056 C 0.57536 0.42028 0.21053
 C1057 C 0.58993 0.40616 0.19481
 C1058 C 0.58138 0.38537 0.18451
 H1059 H 0.56061 0.34736 0.16636
 H1060 H 0.50850 0.39456 0.22367
 H1061 H 0.54064 0.42353 0.22834
 H1062 H 0.59297 0.37498 0.17229
 H1063 H 0.49307 0.35883 0.20403
 H1064 H 0.60811 0.41113 0.19053
 C1065 C 0.02710 0.84702 0.70432
 C1066 C 0.01339 0.84972 0.68329
 C1067 C 0.00945 0.87252 0.67403
 C1068 C 0.01994 0.89226 0.68502
 C1069 C 0.03456 0.88916 0.70554
 C1070 C 0.03761 0.86656 0.71535
 C1071 C 0.04659 0.90853 0.71537
 C1072 C 0.04432 0.93100 0.70493
 C1073 C 0.02885 0.93417 0.68528
 C1074 C 0.01677 0.91494 0.67538
 H1075 H -0.00134 0.87480 0.65797
 H1076 H 0.04867 0.86390 0.73113
 H1077 H 0.05829 0.90601 0.73072
 H1078 H 0.00552 0.91768 0.65974
 H1079 H 0.03052 0.82963 0.71168
 H1080 H 0.02695 0.95130 0.67687
 C1081 C 0.93230 0.67985 0.70834
 C1082 C 0.95010 0.67680 0.69013
 C1083 C 0.95738 0.65364 0.68311
 C1084 C 0.94667 0.63393 0.69360
 C1085 C 0.92822 0.63730 0.71122
 C1086 C 0.92141 0.66031 0.71870
 C1087 C 0.91664 0.61762 0.72077
 C1088 C 0.92342 0.59458 0.71310
 C1089 C 0.94229 0.59136 0.69615
 C1090 C 0.95374 0.61088 0.68637
 H1091 H 0.97081 0.65086 0.66889
 H1092 H 0.90747 0.66322 0.73239
 H1093 H 0.90224 0.62020 0.73403
 H1094 H 0.96790 0.60796 0.67293
 H1095 H 0.92665 0.69739 0.71454
 H1096 H 0.94768 0.57375 0.68992
 C1097 C 0.43240 0.17720 0.19448
 C1098 C 0.45375 0.17760 0.18067
 C1099 C 0.46622 0.15613 0.17551
 C1100 C 0.45708 0.13453 0.18335
 C1101 C 0.43530 0.13437 0.19670
 C1102 C 0.42330 0.15580 0.20248
 C1103 C 0.42559 0.11275 0.20356
 C1104 C 0.43716 0.09116 0.19703
 C1105 C 0.45915 0.09154 0.18432
 C1106 C 0.46903 0.11304 0.17753
 H1107 H 0.48254 0.15612 0.16462
 H1108 H 0.40664 0.15599 0.21284
 H1109 H 0.40883 0.11271 0.21375
 H1110 H 0.48576 0.11284 0.16732
 H1111 H 0.42264 0.19349 0.19896
 H1112 H 0.46833 0.07517 0.17896
 C1113 C 0.34483 0.42967 -0.14163
 C1114 C 0.33377 0.44869 -0.15372
 C1115 C 0.31106 0.45701 -0.14550
 C1116 C 0.29981 0.44670 -0.12536
 C1117 C 0.31153 0.42805 -0.11309
 C1118 C 0.33393 0.41960 -0.12145
 C1119 C 0.30061 0.41802 -0.09273
 C1120 C 0.27788 0.42604 -0.08462
 C1121 C 0.26609 0.44426 -0.09713
 C1122 C 0.27705 0.45467 -0.11722
 H1123 H 0.30230 0.47169 -0.15448
 H1124 H 0.34300 0.40510 -0.11244
 H1125 H 0.30962 0.40368 -0.08338
 H1126 H 0.26772 0.46887 -0.12643
 H1127 H 0.36194 0.42235 -0.14788
 H1128 H 0.24851 0.45062 -0.09114
 C1129 C 0.79565 0.96932 0.35366
 C1130 C 0.81890 0.96054 0.34815
 C1131 C 0.82947 0.94390 0.36374
 C1132 C 0.81711 0.93622 0.38443
 C1133 C 0.79368 0.94499 0.38960
 C1134 C 0.78314 0.96157 0.37413
 C1135 C 0.78112 0.93684 0.41001
 C1136 C 0.79170 0.92003 0.42537
 C1137 C 0.81519 0.91177 0.42025
 C1138 C 0.82776 0.91976 0.39997
 H1139 H 0.84720 0.93661 0.35962
 H1140 H 0.76523 0.96859 0.37787
 H1141 H 0.76309 0.94348 0.41388
 H1142 H 0.84572 0.91284 0.39627
 H1143 H 0.78719 0.98246 0.34230
 H1144 H 0.82361 0.89856 0.43155
 C1145 C 0.79389 0.03890 1.17593
 C1146 C 0.81818 0.03159 1.17366
 C1147 C 0.82977 0.03429 1.15086
 C1148 C 0.81774 0.04467 1.13134
 C1149 C 0.79352 0.05190 1.13412
 C1150 C 0.78169 0.04868 1.15637
 C1151 C 0.78164 0.06272 1.11477
 C1152 C 0.79386 0.06724 1.09281
 C1153 C 0.81801 0.05984 1.09028
 C1154 C 0.82976 0.04851 1.10926
 H1155 H 0.84859 0.02972 1.14849
 H1156 H 0.76304 0.05399 1.15877
 H1157 H 0.76291 0.06782 1.11699
 H1158 H 0.84842 0.04322 1.10684
 H1159 H 0.78384 0.03646 1.19262
 H1160 H 0.82812 0.06337 1.07386
 C1161 C 0.35084 0.52318 0.64657
 C1162 C 0.33630 0.52087 0.66744
 C1163 C 0.31216 0.52846 0.66677
 C1164 C 0.30276 0.53843 0.64559
 C1165 C 0.31771 0.54095 0.62489
 C1166 C 0.34164 0.53309 0.62551
 C1167 C 0.30866 0.55174 0.60406
 C1168 C 0.28486 0.56033 0.60360
 C1169 C 0.26992 0.55715 0.62402
 C1170 C 0.27879 0.54628 0.64483
 H1171 H 0.30075 0.52658 0.68269
 H1172 H 0.35335 0.53492 0.60981
 H1173 H 0.32026 0.55377 0.58830
 H1174 H 0.26703 0.54444 0.66048
 H1175 H 0.36956 0.51779 0.64671
 H1176 H 0.25160 0.56381 0.62424
 C1177 C 0.19727 0.52515 0.36493
 C1178 C 0.17797 0.53791 0.35491
 C1179 C 0.16975 0.55890 0.36667
 C1180 C 0.18025 0.56680 0.38820
 C1181 C 0.19959 0.55384 0.39814
 C1182 C 0.20802 0.53307 0.38630
 C1183 C 0.21020 0.56196 0.41964
 C1184 C 0.20171 0.58293 0.43128
 C1185 C 0.18223 0.59542 0.42130
 C1186 C 0.17165 0.58748 0.39997
 H1187 H 0.15525 0.56926 0.35898
 H1188 H 0.22279 0.52285 0.39366
 H1189 H 0.22533 0.55227 0.42701
 H1190 H 0.15672 0.59753 0.39269
 H1191 H 0.20381 0.50879 0.35649
 H1192 H 0.17505 0.61136 0.43011
 C1193 C 0.69652 0.01969 0.85814
 C1194 C 0.67288 0.02706 0.85260
 C1195 C 0.66145 0.04403 0.86824
 C1196 C 0.67317 0.05339 0.88845
 C1197 C 0.69674 0.04572 0.89366
 C1198 C 0.70820 0.02880 0.87844
 C1199 C 0.70857 0.05547 0.91372
 C1200 C 0.69723 0.07318 0.92824
 C1201 C 0.67373 0.08056 0.92293
 C1202 C 0.66176 0.07069 0.90330
 H1203 H 0.64380 0.05109 0.86423
 H1204 H 0.72625 0.02261 0.88220
 H1205 H 0.72680 0.04987 0.91758
 H1206 H 0.64367 0.07678 0.89957
 H1207 H 0.70595 0.00620 0.84738
 H1208 H 0.66460 0.09404 0.93403
 C1209 C 0.68522 0.97404 0.65539
 C1210 C 0.67906 0.95856 0.67417
 C1211 C 0.68437 0.93423 0.67113
 C1212 C 0.69474 0.92541 0.64937
 C1213 C 0.69989 0.94103 0.63028
 C1214 C 0.69545 0.96536 0.63364
 C1215 C 0.70876 0.93201 0.60793
 C1216 C 0.71258 0.90749 0.60437
 C1217 C 0.70833 0.89227 0.62391
 C1218 C 0.69941 0.90111 0.64613
 H1219 H 0.67953 0.92198 0.68524
 H1220 H 0.69953 0.97765 0.61931
 H1221 H 0.71175 0.94400 0.59306
 H1222 H 0.69583 0.88889 0.66066
 H1223 H 0.68188 0.99292 0.65739
 H1224 H 0.71169 0.87339 0.62196
 C1225 C 0.17603 0.42979 0.17654
 C1226 C 0.17901 0.45441 0.17824
 C1227 C 0.19011 0.46606 0.15879
 C1228 C 0.19740 0.45344 0.13769
 C1229 C 0.19375 0.42880 0.13602
 C1230 C 0.18337 0.41711 0.15568
 C1231 C 0.20017 0.41633 0.11459
 C1232 C 0.21018 0.42813 0.09469
 C1233 C 0.21421 0.45255 0.09673
 C1234 C 0.20787 0.46510 0.11803
 H1235 H 0.19280 0.48498 0.15996
 H1236 H 0.18046 0.39822 0.15471
 H1237 H 0.19734 0.39743 0.11339
 H1238 H 0.21083 0.48398 0.11898
 H1239 H 0.16725 0.42040 0.19105
 H1240 H 0.22177 0.46206 0.08161
 C1241 C -0.15537 0.30909 0.42563
 C1242 C -0.15656 0.30847 0.45115
 C1243 C -0.13720 0.29850 0.46387
 C1244 C -0.11673 0.28974 0.45124
 C1245 C -0.11562 0.29106 0.42563
 C1246 C -0.13512 0.30048 0.41300
 C1247 C -0.09484 0.28342 0.41304
 C1248 C -0.07498 0.27444 0.42560
 C1249 C -0.07646 0.27239 0.45098
 C1250 C -0.09716 0.28006 0.46373
 H1251 H -0.13800 0.29774 0.48353
 H1252 H -0.13454 0.30159 0.39336
 H1253 H -0.09399 0.28466 0.39340
 H1254 H -0.09770 0.27878 0.48335
 H1255 H -0.16986 0.31695 0.41542
 H1256 H -0.06134 0.26553 0.46100
 C1257 C 0.36609 0.84581 0.94236
 C1258 C 0.34637 0.83137 0.94706
 C1259 C 0.34958 0.80662 0.94551
 C1260 C 0.37194 0.79650 0.93872
 C1261 C 0.39139 0.81126 0.93343
 C1262 C 0.38833 0.83587 0.93556
 C1263 C 0.41345 0.80122 0.92566
 C1264 C 0.41643 0.77653 0.92302
 C1265 C 0.39711 0.76199 0.92895
 C1266 C 0.37508 0.77187 0.93668
 H1267 H 0.33455 0.79524 0.94888
 H1268 H 0.40309 0.84746 0.93178
 H1269 H 0.42801 0.81272 0.92087
 H1270 H 0.36044 0.76025 0.94083
 H1271 H 0.36435 0.86489 0.94397
 H1272 H 0.39898 0.74291 0.92752
 C1273 C 1.14832 0.81692 0.00329
 C1274 C 1.16573 0.82782 0.01764
 C1275 C 1.16243 0.82863 0.04304
 C1276 C 1.14210 0.81886 0.05390
 C1277 C 1.12454 0.80836 0.03923
 C1278 C 1.12789 0.80739 0.01396
 C1279 C 1.10403 0.79888 0.05012
 C1280 C 1.10118 0.79931 0.07551
 C1281 C 1.11883 0.80958 0.08993
 C1282 C 1.13903 0.81945 0.07923
 H1283 H 1.17542 0.83728 0.05440
 H1284 H 1.11473 0.79921 0.00243
 H1285 H 1.09056 0.79074 0.03894
 H1286 H 1.15232 0.82740 0.09075
 H1287 H 1.15051 0.81565 -0.01626
 H1288 H 1.11687 0.81010 0.10954
 C1289 C 0.67783 0.29530 0.55774
 C1290 C 0.67438 0.30908 0.53700
 C1291 C 0.65135 0.31108 0.52710
 C1292 C 0.63192 0.29979 0.53803
 C1293 C 0.63552 0.28637 0.55917
 C1294 C 0.65856 0.28409 0.56878
 C1295 C 0.61598 0.27572 0.57057
 C1296 C 0.59279 0.27810 0.56106
 C1297 C 0.58953 0.29113 0.53974
 C1298 C 0.60890 0.30190 0.52835
 H1299 H 0.64857 0.32146 0.51093
 H1300 H 0.66164 0.27385 0.58497
 H1301 H 0.61879 0.26610 0.58721
 H1302 H 0.60584 0.31200 0.51206
 H1303 H 0.69536 0.29369 0.56580
 H1304 H 0.57198 0.29296 0.53179
 C1305 C 0.35777 0.14961 0.55651
 C1306 C 0.34873 0.16157 0.53625
 C1307 C 0.35977 0.18244 0.52870
 C1308 C 0.37982 0.19095 0.54098
 C1309 C 0.38889 0.17848 0.56105
 C1310 C 0.37768 0.15792 0.56873
 C1311 C 0.40908 0.18669 0.57312
 C1312 C 0.42037 0.20743 0.56566
 C1313 C 0.41115 0.21978 0.54572
 C1314 C 0.39109 0.21160 0.53347
 H1315 H 0.35312 0.19174 0.51301
 H1316 H 0.38431 0.14825 0.58419
 H1317 H 0.41620 0.17667 0.58813
 H1318 H 0.38437 0.22145 0.51817
 H1319 H 0.34934 0.13379 0.56304
 H1320 H 0.41927 0.23596 0.53975
 C1321 C 0.84799 0.70875 0.05561
 C1322 C 0.85171 0.68953 0.03944
 C1323 C 0.87523 0.68237 0.03293
 C1324 C 0.89487 0.69389 0.04302
 C1325 C 0.89089 0.71259 0.06006
 C1326 C 0.86741 0.72012 0.06594
 C1327 C 0.91042 0.72304 0.07140
 C1328 C 0.93393 0.71525 0.06577
 C1329 C 0.93782 0.69742 0.04805
 C1330 C 0.91842 0.68671 0.03684
 H1331 H 0.87819 0.66767 0.02027
 H1332 H 0.86406 0.73451 0.07887
 H1333 H 0.90739 0.73698 0.08493
 H1334 H 0.92181 0.67252 0.02370
 H1335 H 0.82999 0.71441 0.06095
 H1336 H 0.95585 0.69119 0.04357
 C1337 C 0.67868 0.70722 0.95515
 C1338 C 0.67668 0.68916 0.97235
 C1339 C 0.65370 0.68114 0.97862
 C1340 C 0.63322 0.69045 0.96741
 C1341 C 0.63566 0.70788 0.94946
 C1342 C 0.65839 0.71641 0.94375
 C1343 C 0.61539 0.71605 0.93710
 C1344 C 0.59267 0.70712 0.94251
 C1345 C 0.59024 0.69055 0.96107
 C1346 C 0.61038 0.68218 0.97336
 H1347 H 0.65173 0.66703 0.99156
 H1348 H 0.66053 0.72998 0.93023
 H1349 H 0.61731 0.72905 0.92294
 H1350 H 0.60817 0.66890 0.98717
 H1351 H 0.69599 0.71418 0.95034
 H1352 H 0.57287 0.68342 0.96540
 C1353 C 0.15365 0.17438 0.47026
 C1354 C 0.17526 0.17976 0.45836
 C1355 C 0.17482 0.19546 0.43880
 C1356 C 0.15300 0.20498 0.43065
 C1357 C 0.13130 0.19878 0.44221
 C1358 C 0.13187 0.18378 0.46225
 C1359 C 0.10938 0.20710 0.43308
 C1360 C 0.10882 0.22150 0.41246
 C1361 C 0.13060 0.22828 0.40173
 C1362 C 0.15246 0.22008 0.41071
 H1363 H 0.19141 0.19992 0.42968
 H1364 H 0.11542 0.17888 0.47138
 H1365 H 0.09278 0.20155 0.44144
 H1366 H 0.16893 0.22522 0.40179
 H1367 H 0.15352 0.16216 0.48523
 H1368 H 0.13074 0.23978 0.38618
 C1369 C 0.54515 0.09122 0.73671
 C1370 C 0.56596 0.08043 0.72659
 C1371 C 0.57611 0.08970 0.70537
 C1372 C 0.56590 0.10969 0.69451
 C1373 C 0.54526 0.12081 0.70505
 C1374 C 0.53495 0.11136 0.72610
 C1375 C 0.53534 0.14112 0.69429
 C1376 C 0.54560 0.15010 0.67293
 C1377 C 0.56595 0.13868 0.66255
 C1378 C 0.57607 0.11872 0.67328
 H1379 H 0.59193 0.08122 0.69720
 H1380 H 0.51907 0.11957 0.73438
 H1381 H 0.51950 0.14973 0.70227
 H1382 H 0.59189 0.11037 0.66500
 H1383 H 0.53709 0.08435 0.75309
 H1384 H 0.57425 0.14545 0.64623
 C1385 C 1.05381 0.60309 0.23532
 C1386 C 1.07602 0.59432 0.22632
 C1387 C 1.08770 0.60655 0.20770
 C1388 C 1.07748 0.62724 0.19823
 C1389 C 1.05520 0.63601 0.20743
 C1390 C 1.04351 0.62378 0.22599
 C1391 C 1.04491 0.65664 0.19767
 C1392 C 1.05652 0.66836 0.17861
 C1393 C 1.07877 0.65953 0.16984
 C1394 C 1.08918 0.63920 0.17956
 H1395 H 1.10461 0.59976 0.20028
 H1396 H 1.02641 0.63021 0.23328
 H1397 H 1.02765 0.66322 0.20441
 H1398 H 1.10631 0.63275 0.17238
 H1399 H 1.04456 0.59410 0.24981
 H1400 H 1.08818 0.66844 0.15539
 C1401 C 0.96398 0.91857 0.21355
 C1402 C 0.94258 0.91456 0.22650
 C1403 C 0.93516 0.89111 0.22946
 C1404 C 0.94802 0.87215 0.21847
 C1405 C 0.96915 0.87645 0.20494
 C1406 C 0.97723 0.89968 0.20302
 C1407 C 0.98125 0.85756 0.19281
 C1408 C 0.97197 0.83466 0.19343
 C1409 C 0.95126 0.83052 0.20734
 C1410 C 0.93953 0.84905 0.21999
 H1411 H 0.91902 0.88762 0.23984
 H1412 H 0.99336 0.90333 0.19270
 H1413 H 0.99710 0.86085 0.18188
 H1414 H 0.92337 0.84545 0.23030
 H1415 H 0.97006 0.93640 0.21077
 H1416 H 0.94395 0.81294 0.20804
 C1417 C 0.43315 0.37198 0.73953
 C1418 C 0.44280 0.39335 0.73149
 C1419 C 0.46268 0.39249 0.71546
 C1420 C 0.47174 0.37065 0.70640
 C1421 C 0.46086 0.34943 0.71354
 C1422 C 0.44203 0.35025 0.73059
 C1423 C 0.46838 0.32782 0.70285
 C1424 C 0.48669 0.32706 0.68512
 C1425 C 0.49830 0.34801 0.67904
 C1426 C 0.49084 0.36967 0.68954
 H1427 H 0.47029 0.40877 0.70903
 H1428 H 0.43373 0.33413 0.73653
 H1429 H 0.45952 0.31163 0.70774
 H1430 H 0.49951 0.38571 0.68395
 H1431 H 0.41831 0.37207 0.75240
 H1432 H 0.51242 0.34774 0.66533
 C1433 C 0.44424 0.59474 0.76684
 C1434 C 0.44779 0.57448 0.78092
 C1435 C 0.46226 0.57576 0.80152
 C1436 C 0.47213 0.59731 0.80873
 C1437 C 0.46747 0.61796 0.79521
 C1438 C 0.45394 0.61636 0.77397
 C1439 C 0.47560 0.63992 0.80371
 C1440 C 0.48820 0.64147 0.82563
 C1441 C 0.49386 0.62054 0.83807
 C1442 C 0.48585 0.59871 0.82975
 H1443 H 0.46524 0.56009 0.81231
 H1444 H 0.45029 0.63193 0.76328
 H1445 H 0.47106 0.65587 0.79394
 H1446 H 0.48988 0.58301 0.84013
 H1447 H 0.43307 0.59408 0.75093
 H1448 H 0.50412 0.62111 0.85461
 C1449 C -0.09299 0.10882 0.30084
 C1450 C -0.07830 0.09122 0.28960
 C1451 C -0.05396 0.09580 0.28529
 C1452 C -0.04428 0.11741 0.29277
 C1453 C -0.05918 0.13479 0.30443
 C1454 C -0.08354 0.13041 0.30814
 C1455 C -0.04939 0.15603 0.31270
 C1456 C -0.02478 0.16010 0.30980
 C1457 C -0.01018 0.14287 0.29783
 C1458 C -0.01986 0.12176 0.28930
 H1459 H -0.04242 0.08229 0.27682
 H1460 H -0.09524 0.14358 0.31695
 H1461 H -0.06077 0.16901 0.32223
 H1462 H -0.00817 0.10868 0.28034
 H1463 H -0.11187 0.10589 0.30397
 H1464 H 0.00879 0.14571 0.29519
 C1465 C 0.04660 0.42155 0.31094
 C1466 C 0.06159 0.42088 0.29023
 C1467 C 0.06507 0.39944 0.27722
 C1468 C 0.05496 0.37854 0.28579
 C1469 C 0.04072 0.37930 0.30724
 C1470 C 0.03610 0.40097 0.31928
 C1471 C 0.03227 0.35827 0.31699
 C1472 C 0.03834 0.33628 0.30602
 C1473 C 0.05157 0.33572 0.28410
 C1474 C 0.05976 0.35671 0.27402
 H1475 H 0.07678 0.39877 0.26133
 H1476 H 0.02510 0.40186 0.33566
 H1477 H 0.02167 0.35892 0.33365
 H1478 H 0.07058 0.35578 0.25752
 H1479 H 0.04353 0.43796 0.32105
 H1480 H 0.05648 0.31899 0.27535
 C1481 C 0.54059 0.89957 0.78784
 C1482 C 0.56560 0.90160 0.78689
 C1483 C 0.58020 0.88187 0.79215
 C1484 C 0.57005 0.86060 0.79936
 C1485 C 0.54487 0.85893 0.80144
 C1486 C 0.53028 0.87840 0.79517
 C1487 C 0.53485 0.83817 0.81057
 C1488 C 0.54977 0.81922 0.81783
 C1489 C 0.57470 0.82075 0.81439
 C1490 C 0.58474 0.84123 0.80529
 H1491 H 0.59953 0.88330 0.79111
 H1492 H 0.51095 0.87745 0.79650
 H1493 H 0.51563 0.83725 0.81319
 H1494 H 0.60405 0.84213 0.80350
 H1495 H 0.52909 0.91463 0.78378
 H1496 H 0.58653 0.80622 0.81932
 C1497 C 0.71637 0.60753 0.12241
 C1498 C 0.72735 0.59172 0.10509
 C1499 C 0.72657 0.56715 0.11013
 C1500 C 0.71491 0.55889 0.13106
 C1501 C 0.70355 0.57514 0.14740
 C1502 C 0.70464 0.59934 0.14306
 C1503 C 0.69093 0.56693 0.16766
 C1504 C 0.68961 0.54257 0.17200
 C1505 C 0.70171 0.52648 0.15620
 C1506 C 0.71420 0.53456 0.13584
 H1507 H 0.73569 0.55418 0.09848
 H1508 H 0.69592 0.61204 0.15541
 H1509 H 0.68194 0.57947 0.18000
 H1510 H 0.72295 0.52177 0.12362
 H1511 H 0.71510 0.62639 0.11962
 H1512 H 0.70084 0.50761 0.15918
 C1513 C 0.22650 1.03693 0.57547
 C1514 C 0.21775 1.05855 0.56661
 C1515 C 0.19697 1.06902 0.57702
 C1516 C 0.18531 1.05842 0.59656
 C1517 C 0.19467 1.03709 0.60610
 C1518 C 0.21512 1.02632 0.59522
 C1519 C 0.18355 1.02715 0.62650
 C1520 C 0.16301 1.03810 0.63707
 C1521 C 0.15355 1.05891 0.62696
 C1522 C 0.16466 1.06905 0.60696
 H1523 H 0.19004 1.08561 0.57000
 H1524 H 0.22246 1.00990 0.60216
 H1525 H 0.19081 1.01100 0.63416
 H1526 H 0.15725 1.08535 0.59979
 H1527 H 0.24254 1.02867 0.56759
 H1528 H 0.13786 1.06769 0.63500
 C1529 C 0.20059 0.91108 0.86437
 C1530 C 0.21067 0.92601 0.88236
 C1531 C 0.20927 0.95080 0.87833
 C1532 C 0.19813 0.96006 0.85769
 C1533 C 0.18825 0.94463 0.84036
 C1534 C 0.18968 0.92025 0.84382
 C1535 C 0.17677 0.95380 0.81996
 C1536 C 0.17486 0.97836 0.81661
 C1537 C 0.18495 0.99367 0.83383
 C1538 C 0.19658 0.98460 0.85413
 H1539 H 0.21755 0.96326 0.89051
 H1540 H 0.18192 0.90816 0.83080
 H1541 H 0.16874 0.94181 0.80701
 H1542 H 0.20415 0.99679 0.86717
 H1543 H 0.19959 0.89215 0.86635
 H1544 H 0.18389 1.01266 0.83155
 C1545 C 0.72326 0.40448 0.38213
 C1546 C 0.72043 0.41627 0.40470
 C1547 C 0.70886 0.43863 0.40571
 C1548 C 0.69962 0.44875 0.38455
 C1549 C 0.70223 0.43650 0.36205
 C1550 C 0.71432 0.41452 0.36100
 C1551 C 0.69235 0.44621 0.34103
 C1552 C 0.67955 0.46791 0.34215
 C1553 C 0.67740 0.48014 0.36456
 C1554 C 0.68738 0.47067 0.38554
 H1555 H 0.70640 0.44780 0.42304
 H1556 H 0.71660 0.40495 0.34389
 H1557 H 0.69450 0.43676 0.32383
 H1558 H 0.68516 0.48031 0.40262
 H1559 H 0.73243 0.38741 0.38083
 H1560 H 0.66741 0.49675 0.36602
 C1561 C 0.82175 0.42921 0.58020
 C1562 C 0.79677 0.42681 0.57891
 C1563 C 0.78216 0.43632 0.59787
 C1564 C 0.79237 0.44770 0.61796
 C1565 C 0.81749 0.44980 0.61905
 C1566 C 0.83199 0.44063 0.60003
 C1567 C 0.82776 0.46078 0.63927
 C1568 C 0.81331 0.46971 0.65859
 C1569 C 0.78832 0.46761 0.65731
 C1570 C 0.77793 0.45676 0.63714
 H1571 H 0.76287 0.43486 0.59702
 H1572 H 0.85130 0.44203 0.60062
 H1573 H 0.84708 0.46190 0.64020
 H1574 H 0.75862 0.45535 0.63661
 H1575 H 0.83348 0.42172 0.56612
 H1576 H 0.77678 0.47453 0.67184
 C1577 C 0.27112 -0.03993 0.07203
 C1578 C 0.28450 -0.05672 0.05814
 C1579 C 0.30751 -0.06352 0.06572
 C1580 C 0.31707 -0.05384 0.08694
 C1581 C 0.30365 -0.03680 0.10076
 C1582 C 0.28070 -0.02989 0.09308
 C1583 C 0.31337 -0.02711 0.12203
 C1584 C 0.33627 -0.03445 0.12977
 C1585 C 0.34918 -0.05169 0.11594
 C1586 C 0.33976 -0.06117 0.09469
 H1587 H 0.31776 -0.07682 0.05537
 H1588 H 0.27010 -0.01690 0.10344
 H1589 H 0.30324 -0.01374 0.13237
 H1590 H 0.35016 -0.07439 0.08443
 H1591 H 0.25333 -0.03448 0.06649
 H1592 H 0.36656 -0.05814 0.12170
 C1593 C 0.29588 0.09092 0.36923
 C1594 C 0.29171 0.07422 0.38730
 C1595 C 0.29500 0.04999 0.38192
 C1596 C 0.30350 0.04258 0.35882
 C1597 C 0.30794 0.05959 0.34082
 C1598 C 0.30365 0.08367 0.34606
 C1599 C 0.31750 0.05241 0.31817
 C1600 C 0.32377 0.02852 0.31342
 C1601 C 0.31871 0.01164 0.33121
 C1602 C 0.30847 0.01858 0.35363
 H1603 H 0.29192 0.03712 0.39597
 H1604 H 0.30699 0.09693 0.33247
 H1605 H 0.32072 0.06561 0.30448
 H1606 H 0.30523 0.00528 0.36720
 H1607 H 0.29333 0.10966 0.37319
 H1608 H 0.32350 -0.00685 0.32821
 C1609 C 0.76596 0.58025 0.89915
 C1610 C 0.77927 0.57228 0.91900
 C1611 C 0.79724 0.55479 0.91526
 C1612 C 0.80253 0.54599 0.89177
 C1613 C 0.78986 0.55502 0.87172
 C1614 C 0.77127 0.57177 0.87567
 C1615 C 0.79654 0.54773 0.84804
 C1616 C 0.81551 0.53131 0.84418
 C1617 C 0.82717 0.52155 0.86425
 C1618 C 0.82082 0.52891 0.88786
 H1619 H 0.80746 0.54848 0.93057
 H1620 H 0.76128 0.57876 0.86055
 H1621 H 0.78738 0.55517 0.83258
 H1622 H 0.83061 0.52169 0.90302
 H1623 H 0.75214 0.59385 0.90167
 H1624 H 0.84193 0.50898 0.86161
 C1625 C 0.08724 0.72297 0.55718
 C1626 C 0.08336 0.72444 0.58248
 C1627 C 0.10173 0.71669 0.59794
 C1628 C 0.12336 0.70728 0.58834
 C1629 C 0.12675 0.70530 0.56291
 C1630 C 0.10868 0.71342 0.54749
 C1631 C 0.14794 0.69479 0.55335
 C1632 C 0.16591 0.68628 0.56887
 C1633 C 0.16260 0.68915 0.59415
 C1634 C 0.14152 0.69945 0.60378
 H1635 H 0.09900 0.71733 0.61746
 H1636 H 0.11107 0.71229 0.52793
 H1637 H 0.14998 0.69249 0.53384
 H1638 H 0.13933 0.70107 0.62333
 H1639 H 0.07370 0.72925 0.54481
 H1640 H 0.17627 0.68327 0.60658
 C1641 C 0.58882 0.23156 1.05154
 C1642 C 0.58148 0.22535 1.07508
 C1643 C 0.59539 0.20895 1.08803
 C1644 C 0.61638 0.19890 1.07772
 C1645 C 0.62380 0.20539 1.05412
 C1646 C 0.60988 0.22174 1.04118
 C1647 C 0.64481 0.19516 1.04381
 C1648 C 0.65815 0.17821 1.05666
 C1649 C 0.65057 0.17195 1.08010
 C1650 C 0.62994 0.18229 1.09059
 H1651 H 0.58967 0.20374 1.10604
 H1652 H 0.61524 0.22689 1.02305
 H1653 H 0.65044 0.19987 1.02562
 H1654 H 0.62449 0.17714 1.10870
 H1655 H 0.57845 0.24427 1.04130
 H1656 H 0.66071 0.15904 1.09034
 C1657 C 0.90657 0.18111 0.93137
 C1658 C 0.90734 0.20623 0.93089
 C1659 C 0.88829 0.21894 0.94303
 C1660 C 0.86903 0.20715 0.95384
 C1661 C 0.86845 0.18223 0.95285
 C1662 C 0.88745 0.16943 0.94197
 C1663 C 0.84876 0.17045 0.96255
 C1664 C 0.82953 0.18325 0.97342
 C1665 C 0.83047 0.20803 0.97505
 C1666 C 0.85000 0.21991 0.96521
 H1667 H 0.88717 0.23804 0.94300
 H1668 H 0.88755 0.15024 0.94163
 H1669 H 0.84831 0.15128 0.96157
 H1670 H 0.85009 0.23907 0.96625
 H1671 H 0.92103 0.16988 0.92438
 H1672 H 0.81579 0.21821 0.98337
 C1673 C 0.37786 0.73786 0.44191
 C1674 C 0.39873 0.72365 0.43911
 C1675 C 0.39937 0.70102 0.44935
 C1676 C 0.37919 0.69229 0.46138
 C1677 C 0.35804 0.70642 0.46349
 C1678 C 0.35769 0.72933 0.45402
 C1679 C 0.33747 0.69715 0.47447
 C1680 C 0.33773 0.67383 0.48310
 C1681 C 0.35914 0.66028 0.48154
 C1682 C 0.37967 0.66941 0.47081
 H1683 H 0.41550 0.69006 0.44765
 H1684 H 0.34167 0.74045 0.45552
 H1685 H 0.32104 0.70772 0.47543
 H1686 H 0.39579 0.65842 0.46951
 H1687 H 0.37687 0.75530 0.43405
 H1688 H 0.35995 0.64245 0.48848
 C1689 C 0.57780 0.77928 0.45235
 C1690 C 0.56713 0.79442 0.43539
 C1691 C 0.57786 0.81607 0.43025
 C1692 C 0.59934 0.82225 0.44128
 C1693 C 0.61034 0.80664 0.45782
 C1694 C 0.59925 0.78532 0.46345
 C1695 C 0.63229 0.81255 0.46822
 C1696 C 0.64324 0.83397 0.46244
 C1697 C 0.63193 0.84944 0.44621
 C1698 C 0.61021 0.84364 0.43572
 H1699 H 0.56959 0.82798 0.41741
 H1700 H 0.60736 0.77315 0.47612
 H1701 H 0.64074 0.80063 0.48092
 H1702 H 0.60200 0.85580 0.42310
 H1703 H 0.56996 0.76240 0.45640
 H1704 H 0.64012 0.86593 0.44132
 C1705 C 0.06085 0.31468 -0.04737
 C1706 C 0.06414 0.29502 -0.06308
 C1707 C 0.08725 0.28514 -0.06666
 C1708 C 0.10702 0.29535 -0.05539
 C1709 C 0.10356 0.31531 -0.03986
 C1710 C 0.08036 0.32461 -0.03567
 C1711 C 0.12339 0.32603 -0.02928
 C1712 C 0.14682 0.31752 -0.03450
 C1713 C 0.14997 0.29744 -0.04975
 C1714 C 0.13026 0.28638 -0.05996
 H1715 H 0.08995 0.27015 -0.07899
 H1716 H 0.07736 0.33989 -0.02380
 H1717 H 0.12055 0.34120 -0.01722
 H1718 H 0.13326 0.27115 -0.07190
 H1719 H 0.04314 0.32245 -0.04430
 H1720 H 0.16773 0.29063 -0.05442
 C1721 C 0.40721 0.31389 0.04637
 C1722 C 0.40601 0.29444 0.06189
 C1723 C 0.38408 0.28309 0.06521
 C1724 C 0.36330 0.29176 0.05397
 C1725 C 0.36466 0.31158 0.03866
 C1726 C 0.38677 0.32226 0.03467
 C1727 C 0.34377 0.32092 0.02829
 C1728 C 0.32138 0.31113 0.03349
 C1729 C 0.32023 0.29127 0.04848
 C1730 C 0.34104 0.28152 0.05847
 H1731 H 0.38299 0.26826 0.07742
 H1732 H 0.38812 0.33747 0.02300
 H1733 H 0.34479 0.33648 0.01707
 H1734 H 0.33965 0.26635 0.07016
 H1735 H 0.42400 0.32278 0.04353
 H1736 H 0.30316 0.28340 0.05260
 C1737 C 0.87906 0.75580 0.57246
 C1738 C 0.89901 0.76835 0.56434
 C1739 C 0.89625 0.78467 0.54552
 C1740 C 0.87357 0.78934 0.53581
 C1741 C 0.85336 0.77758 0.54507
 C1742 C 0.85640 0.76040 0.56294
 C1743 C 0.83037 0.78402 0.53715
 C1744 C 0.82732 0.80213 0.52016
 C1745 C 0.84764 0.81268 0.51002
 C1746 C 0.87057 0.80635 0.51778
 H1747 H 0.91163 0.79424 0.53902
 H1748 H 0.84115 0.75110 0.57013
 H1749 H 0.81479 0.77568 0.54492
 H1750 H 0.88587 0.81542 0.51036
 H1751 H 0.88080 0.74323 0.58703
 H1752 H 0.84572 0.82682 0.49707
   
