data_POSCAR
  _audit_creation_date              2014-09-24
  _audit_creation_method            'ToBaCCo'
  _symmetry_space_group_name_H-M    'P1'
  _symmetry_Int_Tables_number       1
  _symmetry_cell_setting            triclinic
  loop_
  _symmetry_equiv_pos_as_xyz
 x,y,z
_cell_length_a 56.6653
_cell_length_b 56.8562
_cell_length_c 55.9665
_cell_angle_alpha 89.580800
_cell_angle_beta 90.233500
_cell_angle_gamma 89.363800
loop_
  _atom_site_label
  _atom_site_type_symbol
  _atom_site_fract_x
  _atom_site_fract_y
  _atom_site_fract_z
C1 C 0.72533 0.66853 0.96938
 H2 H 0.74250 0.66958 0.96109
 C3 C 0.70575 0.67926 0.95826
 H4 H 0.70810 0.68844 0.94144
 C5 C 0.70100 0.65322 0.99991
 H6 H 0.69880 0.64245 1.01566
 C7 C 0.68121 0.66410 0.98982
 H8 H 0.66428 0.66195 0.99842
 N9 N 0.72241 0.65474 0.98914
 C10 C 0.78862 0.63642 1.02518
 H11 H 0.78399 0.61862 1.02994
 C12 C 0.80999 0.64540 1.03298
 H13 H 0.82178 0.63433 1.04353
 C14 C 0.77857 0.67262 1.00629
 H15 H 0.76630 0.68306 0.99574
 C16 C 0.79985 0.68247 1.01400
 H17 H 0.80393 0.70047 1.00926
 Zn18 Zn 0.74669 0.63378 1.00031
 N19 N 0.77365 0.64978 1.01159
 C20 C 0.77339 0.59677 0.98014
 N21 N 0.75642 0.61324 0.97523
 C22 C 0.74756 0.61579 0.95270
 C23 C 0.75691 0.60273 0.93387
 C24 C 0.78293 0.58302 0.96194
 C25 C 0.73144 0.62722 1.04720
 C26 C 0.72133 0.61562 1.06658
 C27 C 0.71923 0.58050 1.04270
 C28 C 0.72914 0.59297 1.02369
 N29 N 0.73476 0.61595 1.02619
 H30 H 0.77975 0.59436 0.99819
 H31 H 0.73358 0.62831 0.94902
 H32 H 0.75035 0.60606 0.91596
 H33 H 0.79640 0.57006 0.96641
 H34 H 0.73642 0.64546 1.04879
 H35 H 0.71993 0.62536 1.08303
 H36 H 0.71390 0.56269 1.03913
 H37 H 0.73167 0.58443 1.00668
 C38 C 0.81604 0.66853 1.02705
 C39 C 0.68313 0.67617 0.96797
 C40 C 0.71457 0.59176 1.06476
 C41 C 0.77521 0.58636 0.93825
 C42 C 0.72839 0.34108 0.52189
 H43 H 0.74544 0.33816 0.53024
 C44 C 0.70832 0.33051 0.53150
 H45 H 0.71010 0.31979 0.54748
 C46 C 0.70529 0.35971 0.49178
 H47 H 0.70406 0.37104 0.47626
 C48 C 0.68494 0.34919 0.50045
 H49 H 0.66834 0.35256 0.49134
 N50 N 0.72630 0.35644 0.50322
 C51 C 0.77176 0.34076 0.46288
 H52 H 0.75392 0.33985 0.45600
 C53 C 0.78997 0.32851 0.45149
 H54 H 0.78610 0.31814 0.43583
 C55 C 0.79869 0.35603 0.49113
 H56 H 0.80211 0.36697 0.50643
 C57 C 0.81734 0.34375 0.48057
 H58 H 0.83503 0.34562 0.48765
 Zn59 Zn 0.75229 0.37501 0.49343
 N60 N 0.77659 0.35505 0.48163
 C61 C 0.78051 0.40961 0.51413
 N62 N 0.76386 0.39329 0.51921
 C63 C 0.75571 0.39044 0.54187
 C64 C 0.76516 0.40342 0.56060
 C65 C 0.79020 0.42326 0.53229
 C66 C 0.74819 0.39376 0.44598
 C67 C 0.73763 0.40765 0.42818
 C68 C 0.71566 0.42818 0.45867
 C69 C 0.72633 0.41359 0.47587
 N70 N 0.74178 0.39635 0.46923
 H71 H 0.78639 0.41189 0.49589
 H72 H 0.74200 0.37799 0.54564
 H73 H 0.75897 0.40008 0.57857
 H74 H 0.80328 0.43624 0.52772
 H75 H 0.76094 0.38049 0.44099
 H76 H 0.74223 0.40483 0.40965
 H77 H 0.70274 0.44125 0.46409
 H78 H 0.72162 0.41538 0.49448
 C79 C 0.81318 0.33042 0.46002
 C80 C 0.68605 0.33527 0.52126
 C81 C 0.72083 0.42478 0.43446
 C82 C 0.78277 0.42005 0.55602
 C83 C 0.22303 -0.15415 0.00010
 H84 H 0.22994 -0.15925 -0.01711
 C85 C 0.20302 -0.16527 0.00922
 H86 H 0.19472 -0.17916 -0.00082
 C87 C 0.22401 -0.12854 0.03332
 H88 H 0.23150 -0.11355 0.04219
 C89 C 0.20391 -0.13884 0.04280
 H90 H 0.19641 -0.13204 0.05917
 N91 N 0.23316 -0.13621 0.01229
 C92 C 0.29891 -0.12243 -0.02572
 H93 H 0.29756 -0.10345 -0.02493
 C94 C 0.31729 -0.13292 -0.03830
 H95 H 0.33022 -0.12192 -0.04700
 C96 C 0.28347 -0.15972 -0.01545
 H97 H 0.27024 -0.17004 -0.00648
 C98 C 0.30187 -0.17103 -0.02768
 H99 H 0.30258 -0.19006 -0.02830
 Zn100 Zn 0.25721 -0.11784 -0.00173
 N101 N 0.28206 -0.13579 -0.01526
 C102 C 0.27254 -0.07493 0.01951
 N103 N 0.27097 -0.09869 0.02196
 C104 C 0.27938 -0.11002 0.04177
 C105 C 0.28874 -0.09730 0.06072
 C106 C 0.28233 -0.06154 0.03786
 C107 C 0.24762 -0.10360 -0.04930
 C108 C 0.23589 -0.09129 -0.06750
 C109 C 0.21325 -0.07082 -0.03756
 C110 C 0.22551 -0.08361 -0.01995
 N111 N 0.24246 -0.09947 -0.02605
 H112 H 0.26624 -0.06635 0.00338
 H113 H 0.27821 -0.12896 0.04306
 H114 H 0.29490 -0.10649 0.07662
 H115 H 0.28333 -0.04261 0.03591
 H116 H 0.26030 -0.11710 -0.05394
 H117 H 0.23997 -0.09653 -0.08553
 H118 H 0.20084 -0.05768 -0.03141
 H119 H 0.22151 -0.08085 -0.00129
 C120 C 0.31868 -0.15748 -0.03978
 C121 C 0.19308 -0.15722 0.03059
 C122 C 0.21812 -0.07438 -0.06214
 C123 C 0.29015 -0.07278 0.05889
 C124 C 0.22354 0.16406 0.47029
 H125 H 0.24017 0.16148 0.46120
 C126 C 0.20423 0.17384 0.45790
 H127 H 0.20618 0.17881 0.43931
 C128 C 0.20012 0.15860 0.50482
 H129 H 0.19826 0.15203 0.52283
 C130 C 0.18049 0.16830 0.49319
 H131 H 0.16384 0.16939 0.50258
 N132 N 0.22094 0.15602 0.49308
 C133 C 0.28325 0.13908 0.53584
 H134 H 0.28010 0.12041 0.53750
 C135 C 0.30228 0.14898 0.54767
 H136 H 0.31385 0.13771 0.55825
 C137 C 0.27231 0.17610 0.51915
 H138 H 0.26054 0.18644 0.50790
 C139 C 0.29141 0.18678 0.53063
 H140 H 0.29421 0.20546 0.52827
 Zn141 Zn 0.24446 0.13591 0.50652
 N142 N 0.26881 0.15259 0.52183
 C143 C 0.28147 0.11859 0.47781
 N144 N 0.25778 0.11772 0.48151
 C145 C 0.24353 0.10528 0.46673
 C146 C 0.25313 0.09265 0.44766
 C147 C 0.29175 0.10631 0.45901
 C148 C 0.22663 0.12660 0.55178
 C149 C 0.21587 0.11402 0.57013
 C150 C 0.21338 0.08058 0.54391
 C151 C 0.22439 0.09380 0.52606
 N152 N 0.23044 0.11651 0.53017
 H153 H 0.29249 0.12912 0.48918
 H154 H 0.22467 0.10535 0.46963
 H155 H 0.24156 0.08260 0.43627
 H156 H 0.31059 0.10761 0.45624
 H157 H 0.23183 0.14460 0.55470
 H158 H 0.21322 0.12243 0.58722
 H159 H 0.20810 0.06276 0.54009
 H160 H 0.22777 0.08595 0.50889
 C161 C 0.30666 0.17310 0.54512
 C162 C 0.18214 0.17518 0.46913
 C163 C 0.20880 0.09077 0.56627
 C164 C 0.27759 0.09302 0.44367
 C165 C 0.15973 0.46913 0.22486
 H166 H 0.16113 0.46124 0.24247
 C167 C 0.17135 0.45863 0.20559
 H168 H 0.18151 0.44265 0.20862
 C169 C 0.14294 0.49813 0.19922
 H170 H 0.13141 0.51316 0.19652
 C171 C 0.15459 0.48856 0.17964
 H172 H 0.15216 0.49673 0.16225
 N173 N 0.14481 0.48774 0.22112
 C174 C 0.12515 0.51987 0.28906
 H175 H 0.10656 0.52244 0.28558
 C176 C 0.13482 0.52835 0.31015
 H177 H 0.12343 0.53718 0.32281
 C178 C 0.16272 0.50662 0.27611
 H179 H 0.17354 0.49829 0.26269
 C180 C 0.17322 0.51498 0.29706
 H181 H 0.19204 0.51275 0.29976
 Zn182 Zn 0.12320 0.49786 0.24507
 N183 N 0.13899 0.50890 0.27270
 C184 C 0.10746 0.45034 0.24624
 N185 N 0.10296 0.47258 0.25404
 C186 C 0.08465 0.47697 0.26913
 C187 C 0.07101 0.45854 0.27800
 C188 C 0.09458 0.43139 0.25500
 C189 C 0.11456 0.54490 0.23286
 C190 C 0.10278 0.56393 0.22219
 C191 C 0.07144 0.53776 0.21073
 C192 C 0.08378 0.51920 0.22177
 N193 N 0.10498 0.52309 0.23242
 H194 H 0.12129 0.44700 0.23356
 H195 H 0.08070 0.49475 0.27453
 H196 H 0.05695 0.46224 0.29052
 H197 H 0.09889 0.41374 0.24917
 H198 H 0.13165 0.54739 0.24108
 H199 H 0.11096 0.58105 0.22224
 H200 H 0.05463 0.53440 0.20221
 H201 H 0.07672 0.50162 0.22137
 C202 C 0.15910 0.52574 0.31453
 C203 C 0.16797 0.46778 0.18241
 C204 C 0.08103 0.56045 0.21073
 C205 C 0.07641 0.43537 0.27141
 C206 C -0.15431 0.01677 0.23511
 H207 H -0.15581 0.02502 0.25241
 C208 C -0.16458 0.02757 0.21495
 H209 H -0.17368 0.04419 0.21736
 C210 C -0.13844 -0.01363 0.21125
 H211 H -0.12792 -0.02946 0.20961
 C212 C -0.14829 -0.00355 0.19076
 H213 H -0.14593 -0.01277 0.17409
 N214 N -0.14099 -0.00310 0.23280
 C215 C -0.12623 -0.03933 0.30011
 H216 H -0.10720 -0.03950 0.29861
 C217 C -0.13695 -0.05155 0.31865
 H218 H -0.12604 -0.06088 0.33161
 C219 C -0.16348 -0.02702 0.28478
 H220 H -0.17364 -0.01769 0.27125
 C221 C -0.17501 -0.03888 0.30335
 H222 H -0.19410 -0.03861 0.30412
 Zn223 Zn -0.12185 -0.01410 0.25849
 N224 N -0.13950 -0.02754 0.28356
 C225 C -0.10679 0.01827 0.29335
 N226 N -0.10456 0.01184 0.27009
 C227 C -0.09144 0.02470 0.25456
 C228 C -0.07950 0.04463 0.26239
 C229 C -0.09538 0.03817 0.30186
 C230 C -0.11198 -0.05952 0.24376
 C231 C -0.09952 -0.07797 0.23326
 C232 C -0.06561 -0.05277 0.23021
 C233 C -0.07871 -0.03480 0.24103
 N234 N -0.10166 -0.03830 0.24700
 H235 H -0.11774 0.00821 0.30532
 H236 H -0.09053 0.01967 0.23598
 H237 H -0.06926 0.05478 0.24978
 H238 H -0.09730 0.04296 0.32044
 H239 H -0.13023 -0.06189 0.24876
 H240 H -0.10822 -0.09463 0.23073
 H241 H -0.04771 -0.04932 0.22461
 H242 H -0.07071 -0.01791 0.24393
 C243 C -0.16163 -0.05162 0.32033
 C244 C -0.16077 0.01802 0.19200
 C245 C -0.07619 -0.07457 0.22575
 C246 C -0.08154 0.05163 0.28630
 C247 C 0.34509 0.52773 0.73336
 H248 H 0.34745 0.53766 0.74959
 C249 C 0.33447 0.53842 0.71336
 H250 H 0.32864 0.55659 0.71434
 C251 C 0.35183 0.49272 0.71158
 H252 H 0.35916 0.47518 0.71061
 C253 C 0.34136 0.50266 0.69129
 H254 H 0.34050 0.49248 0.67504
 N255 N 0.35415 0.50552 0.73186
 C256 C 0.37267 0.46773 0.79718
 H257 H 0.39162 0.46770 0.79485
 C258 C 0.36280 0.45509 0.81592
 H259 H 0.37431 0.44560 0.82822
 C260 C 0.33477 0.48022 0.78377
 H261 H 0.32404 0.48984 0.77092
 C262 C 0.32408 0.46787 0.80253
 H263 H 0.30504 0.46801 0.80409
 Zn264 Zn 0.37490 0.49419 0.75601
 N265 N 0.35867 0.47985 0.78152
 C266 C 0.39226 0.52492 0.79126
 N267 N 0.39261 0.51989 0.76754
 C268 C 0.40438 0.53376 0.75178
 C269 C 0.41695 0.55321 0.75981
 C270 C 0.40451 0.54417 0.80003
 C271 C 0.38523 0.44889 0.74081
 C272 C 0.39775 0.43070 0.72995
 C273 C 0.43017 0.45725 0.72374
 C274 C 0.41702 0.47498 0.73490
 N275 N 0.39479 0.47063 0.74275
 H276 H 0.38222 0.51422 0.80346
 H277 H 0.40386 0.52980 0.73291
 H278 H 0.42653 0.56382 0.74705
 H279 H 0.40371 0.54799 0.81894
 H280 H 0.36757 0.44582 0.74730
 H281 H 0.38970 0.41357 0.72858
 H282 H 0.44751 0.46124 0.71687
 H283 H 0.42445 0.49226 0.73678
 C284 C 0.33822 0.45486 0.81866
 C285 C 0.33338 0.52609 0.69175
 C286 C 0.42037 0.43484 0.72083
 C287 C 0.41720 0.55857 0.78428
 C288 C 0.66002 0.97039 0.72983
 H289 H 0.65837 0.96181 0.74705
 C290 C 0.67075 0.95845 0.71088
 H291 H 0.67738 0.94071 0.71373
 C292 C 0.65118 1.00294 0.70455
 H293 H 0.64286 1.01990 0.70180
 C294 C 0.66188 0.99179 0.68528
 H295 H 0.66206 1.00061 0.66806
 N296 N 0.64985 0.99190 0.72613
 C297 C 0.62987 1.02841 0.79127
 H298 H 0.61115 1.02935 0.78744
 C299 C 0.63854 1.03773 0.81239
 H300 H 0.62612 1.04652 0.82404
 C301 C 0.66826 1.01654 0.77957
 H302 H 0.67962 1.00793 0.76676
 C303 C 0.67787 1.02611 0.80045
 H304 H 0.69667 1.02423 0.80348
 Zn305 Zn 0.62889 1.00398 0.74941
 N306 N 0.64457 1.01749 0.77571
 C307 C 0.61082 0.97301 0.78431
 N308 N 0.61022 0.97861 0.76064
 C309 C 0.59753 0.96559 0.74494
 C310 C 0.58409 0.94666 0.75307
 C311 C 0.59767 0.95436 0.79317
 C312 C 0.62060 1.04920 0.73190
 C313 C 0.60825 1.06799 0.72147
 C314 C 0.57383 1.04342 0.71892
 C315 C 0.58682 1.02510 0.72963
 N316 N 0.60990 1.02819 0.73552
 H317 H 0.62175 0.98275 0.79647
 H318 H 0.59787 0.96992 0.72609
 H319 H 0.57377 0.93672 0.74041
 H320 H 0.59859 0.95017 0.81206
 H321 H 0.63892 1.05124 0.73693
 H322 H 0.61724 1.08443 0.71832
 H323 H 0.55551 1.04070 0.71422
 H324 H 0.57845 1.00847 0.73306
 C325 C 0.66286 1.03633 0.81773
 C326 C 0.67094 0.96884 0.68803
 C327 C 0.58460 1.06517 0.71466
 C328 C 0.58389 0.94102 0.77755
 C329 C 0.02885 0.23461 -0.15308
 H330 H 0.03863 0.25015 -0.14844
 C331 C 0.04013 0.21624 -0.16506
 H332 H 0.05850 0.21802 -0.16995
 C333 C -0.00666 0.21305 -0.15141
 H334 H -0.02474 0.21169 -0.14548
 C335 C 0.00398 0.19418 -0.16323
 H336 H -0.00605 0.17835 -0.16607
 N337 N 0.00612 0.23236 -0.14581
 C338 C -0.02557 0.29905 -0.12422
 H339 H -0.02319 0.29735 -0.10509
 C340 C -0.03522 0.31966 -0.13381
 H341 H -0.04069 0.33351 -0.12180
 C342 C -0.02160 0.28267 -0.16283
 H343 H -0.01610 0.26816 -0.17398
 C344 C -0.03111 0.30317 -0.17327
 H345 H -0.03273 0.30436 -0.19252
 Zn346 Zn -0.00562 0.25420 -0.12335
 N347 N -0.01909 0.28102 -0.13868
 C348 C 0.03023 0.28522 -0.11023
 N349 N 0.02031 0.26425 -0.10447
 C350 C 0.02968 0.25030 -0.08691
 C351 C 0.04965 0.25743 -0.07423
 C352 C 0.05012 0.29300 -0.09803
 C353 C -0.05014 0.24945 -0.10056
 C354 C -0.06760 0.23803 -0.08754
 C355 C -0.04107 0.20498 -0.08232
 C356 C -0.02396 0.21736 -0.09500
 N357 N -0.02874 0.23913 -0.10402
 H358 H 0.02306 0.29578 -0.12469
 H359 H 0.02190 0.23351 -0.08287
 H360 H 0.05707 0.24595 -0.06055
 H361 H 0.05752 0.30986 -0.10280
 H362 H -0.05395 0.26664 -0.10793
 H363 H -0.08353 0.24808 -0.08447
 H364 H -0.03636 0.18722 -0.07721
 H365 H -0.00710 0.20905 -0.09860
 C366 C -0.03798 0.32206 -0.15866
 C367 C 0.02796 0.19529 -0.16941
 C368 C -0.06379 0.21498 -0.07829
 C369 C 0.06020 0.27900 -0.07986
 C370 C 0.48107 0.23180 0.17060
 H371 H 0.47292 0.24908 0.17122
 C372 C 0.47000 0.21275 0.18174
 H373 H 0.45342 0.21566 0.19085
 C374 C 0.51098 0.20660 0.15562
 H375 H 0.52648 0.20392 0.14480
 C376 C 0.50089 0.18728 0.16689
 H377 H 0.50916 0.17015 0.16495
 N378 N 0.50036 0.22813 0.15662
 C379 C 0.53422 0.29348 0.13490
 H380 H 0.53812 0.28849 0.11675
 C381 C 0.54225 0.31486 0.14344
 H382 H 0.55210 0.32627 0.13165
 C383 C 0.51760 0.28416 0.17253
 H384 H 0.50794 0.27212 0.18375
 C385 C 0.52552 0.30547 0.18193
 H386 H 0.52177 0.30981 0.20035
 Zn387 Zn 0.51050 0.25131 0.13422
 N388 N 0.52170 0.27883 0.14922
 C389 C 0.48883 0.27616 0.09587
 N390 N 0.48497 0.25994 0.11338
 C391 C 0.46312 0.25076 0.11661
 C392 C 0.44388 0.25913 0.10328
 C393 C 0.47016 0.28471 0.08180
 C394 C 0.55728 0.23725 0.12660
 C395 C 0.57620 0.22688 0.11461
 C396 C 0.55021 0.21944 0.08123
 C397 C 0.53176 0.23002 0.09386
 N398 N 0.53559 0.23851 0.11617
 H399 H 0.50636 0.28269 0.09286
 H400 H 0.46028 0.23725 0.12983
 H401 H 0.42654 0.25237 0.10722
 H402 H 0.47376 0.29762 0.06803
 H403 H 0.55978 0.24408 0.14441
 H404 H 0.59336 0.22613 0.12319
 H405 H 0.54670 0.21222 0.06374
 H406 H 0.51428 0.23097 0.08607
 C407 C 0.53762 0.32128 0.16710
 C408 C 0.47932 0.18993 0.17888
 C409 C 0.57276 0.21760 0.09168
 C410 C 0.44714 0.27669 0.08586
 C411 C 0.97512 0.72491 0.66248
 H412 H 0.96600 0.74163 0.66043
 C413 C 0.96341 0.70574 0.67260
 H414 H 0.94532 0.70792 0.67838
 C415 C 1.00890 0.70116 0.65513
 H416 H 1.02630 0.69915 0.64761
 C417 C 0.99795 0.68165 0.66521
 H418 H 1.00732 0.66495 0.66573
 N419 N 0.99715 0.72208 0.65330
 C420 C 1.03585 0.78525 0.63470
 H421 H 1.03827 0.78110 0.61603
 C422 C 1.04491 0.80598 0.64377
 H423 H 1.05464 0.81756 0.63204
 C424 C 1.01961 0.77534 0.67240
 H425 H 1.00930 0.76347 0.68323
 C426 C 1.02851 0.79604 0.68231
 H427 H 1.02502 0.80009 0.70084
 Zn428 Zn 1.00906 0.74543 0.63248
 N429 N 1.02304 0.77070 0.64883
 C430 C 0.97890 0.78103 0.61409
 N431 N 0.98340 0.75747 0.61396
 C432 C 0.96892 0.74250 0.60216
 C433 C 0.94932 0.75118 0.58946
 C434 C 0.95960 0.79042 0.60167
 C435 C 1.05450 0.72909 0.62265
 C436 C 1.07274 0.71869 0.60967
 C437 C 1.04573 0.71386 0.57661
 C438 C 1.02803 0.72466 0.59013
 N439 N 1.03263 0.73175 0.61283
 H440 H 0.99000 0.79268 0.62415
 H441 H 0.97245 0.72377 0.60285
 H442 H 0.93812 0.73906 0.57998
 H443 H 0.95622 0.80918 0.60238
 H444 H 1.05769 0.73485 0.64074
 H445 H 1.08995 0.71639 0.61792
 H446 H 1.04181 0.70813 0.55862
 H447 H 1.01064 0.72711 0.58252
 C448 C 1.04080 0.81190 0.66767
 C449 C 0.97456 0.68355 0.67318
 C450 C 1.06839 0.71075 0.58643
 C451 C 0.94453 0.77549 0.58907
 C452 C 0.52865 0.73896 0.34634
 H453 H 0.53844 0.75419 0.35190
 C454 C 0.54028 0.72079 0.33441
 H455 H 0.55889 0.72247 0.33050
 C456 C 0.49283 0.71789 0.34559
 H457 H 0.47449 0.71659 0.35062
 C458 C 0.50384 0.69917 0.33383
 H459 H 0.49378 0.68353 0.33009
 N460 N 0.50559 0.73681 0.35249
 C461 C 0.47455 0.80283 0.37640
 H462 H 0.47806 0.80077 0.39533
 C463 C 0.46492 0.82382 0.36774
 H464 H 0.46037 0.83711 0.38069
 C465 C 0.47531 0.78680 0.33753
 H466 H 0.47968 0.77230 0.32589
 C467 C 0.46549 0.80758 0.32798
 H468 H 0.46305 0.80871 0.30884
 Zn469 Zn 0.49337 0.75772 0.37567
 N470 N 0.47954 0.78485 0.36138
 C471 C 0.53003 0.78766 0.38840
 N472 N 0.51892 0.76759 0.39504
 C473 C 0.52659 0.75462 0.41412
 C474 C 0.54618 0.76182 0.42739
 C475 C 0.54950 0.79555 0.40118
 C476 C 0.44962 0.75252 0.39969
 C477 C 0.43214 0.74044 0.41204
 C478 C 0.45755 0.70611 0.41298
 C479 C 0.47487 0.71912 0.40128
 N480 N 0.47051 0.74178 0.39446
 H481 H 0.52399 0.79746 0.37288
 H482 H 0.51772 0.73855 0.41892
 H483 H 0.55230 0.75108 0.44227
 H484 H 0.55778 0.81177 0.39570
 H485 H 0.44626 0.77044 0.39416
 H486 H 0.41598 0.74973 0.41639
 H487 H 0.46115 0.68779 0.41704
 H488 H 0.49152 0.71082 0.39680
 C489 C 0.46028 0.82679 0.34308
 C490 C 0.52814 0.70008 0.32899
 C491 C 0.43566 0.71668 0.41843
 C492 C 0.55798 0.78251 0.42087
 C493 C 0.35760 0.00501 0.22122
 C494 C 0.36737 0.01706 0.24060
 C495 C 0.37851 0.03865 0.23677
 C496 C 0.37992 0.04833 0.21369
 C497 C 0.36895 0.03666 0.19465
 C498 C 0.35805 0.01478 0.19806
 C499 C 0.36676 0.00669 0.26482
 C500 C 0.37792 -0.01504 0.26948
 C501 C 0.37864 -0.02425 0.29279
 C502 C 0.36720 -0.01202 0.31119
 C503 C 0.35579 0.00965 0.30679
 C504 C 0.35584 0.01900 0.28349
 H505 H 0.34982 -0.01206 0.22430
 H506 H 0.38700 0.04730 0.25165
 H507 H 0.38690 -0.02420 0.25518
 H508 H 0.34759 0.03594 0.27985
 H509 H 0.36898 0.04472 0.17707
 H510 H 0.36707 -0.01955 0.32903
 C511 C 0.12773 1.01196 0.72179
 C512 C 0.11749 0.99935 0.74064
 C513 C 0.10782 0.97715 0.73635
 C514 C 0.10801 0.96767 0.71325
 C515 C 0.11885 0.98029 0.69467
 C516 C 0.12879 1.00239 0.69879
 C517 C 0.11719 1.00938 0.76488
 C518 C 0.10694 1.03157 0.76884
 C519 C 0.10721 1.04155 0.79172
 C520 C 0.11827 1.02916 0.81060
 C521 C 0.12894 1.00708 0.80678
 C522 C 0.12797 0.99716 0.78389
 H523 H 0.13552 1.02894 0.72524
 H524 H 0.09950 0.96765 0.75085
 H525 H 0.09892 1.04111 0.75401
 H526 H 0.13600 0.98008 0.78071
 H527 H 0.11941 0.97295 0.67686
 H528 H 0.11884 1.03683 0.82824
 C529 C 0.63206 0.51798 0.22073
 C530 C 0.62091 0.50594 0.23939
 C531 C 0.60980 0.48450 0.23490
 C532 C 0.60931 0.47525 0.21172
 C533 C 0.62067 0.48746 0.19318
 C534 C 0.63228 0.50874 0.19751
 C535 C 0.62081 0.51583 0.26365
 C536 C 0.61022 0.53778 0.26784
 C537 C 0.60978 0.54720 0.29096
 C538 C 0.62041 0.53442 0.30984
 C539 C 0.63164 0.51261 0.30579
 C540 C 0.63153 0.50340 0.28253
 H541 H 0.64109 0.53423 0.22454
 H542 H 0.60093 0.47544 0.24935
 H543 H 0.60236 0.54749 0.25303
 H544 H 0.64039 0.48687 0.27879
 H545 H 0.62045 0.48033 0.17529
 H546 H 0.61954 0.54132 0.32780
 C547 C 0.85489 0.49726 0.71654
 C548 C 0.86509 0.50938 0.73562
 C549 C 0.87706 0.53044 0.73127
 C550 C 0.87947 0.53916 0.70788
 C551 C 0.86920 0.52681 0.68890
 C552 C 0.85675 0.50600 0.69311
 C553 C 0.86461 0.49945 0.75999
 C554 C 0.87656 0.47823 0.76507
 C555 C 0.87848 0.46998 0.78870
 C556 C 0.86767 0.48275 0.80710
 C557 C 0.85501 0.50355 0.80211
 C558 C 0.85368 0.51194 0.77851
 H559 H 0.84577 0.48092 0.71990
 H560 H 0.88538 0.53944 0.74603
 H561 H 0.88531 0.46877 0.75082
 H562 H 0.84449 0.52835 0.77459
 H563 H 0.87057 0.53359 0.67081
 H564 H 0.86881 0.47626 0.82534
 C565 C 0.22246 0.34548 -0.00210
 C566 C 0.24055 0.35728 0.00983
 C567 C 0.23562 0.36938 0.03101
 C568 C 0.21258 0.37011 0.04014
 C569 C 0.19471 0.35777 0.02824
 C570 C 0.19943 0.34549 0.00707
 C571 C 0.26443 0.35788 -0.00044
 C572 C 0.26801 0.36825 -0.02296
 C573 C 0.29078 0.36940 -0.03268
 C574 C 0.30992 0.35996 -0.01962
 C575 C 0.30645 0.34925 0.00271
 C576 C 0.28366 0.34833 0.01230
 H577 H 0.22644 0.33612 -0.01842
 H578 H 0.24953 0.37913 0.03968
 H579 H 0.25307 0.37544 -0.03284
 H580 H 0.28088 0.34022 0.02964
 H581 H 0.17690 0.35821 0.03517
 H582 H 0.32760 0.36088 -0.02684
 C583 C 0.72577 0.13019 1.01485
 C584 C 0.74340 0.11813 1.00223
 C585 C 0.73790 0.10731 0.98047
 C586 C 0.71478 0.10836 0.97130
 C587 C 0.69747 0.12111 0.98386
 C588 C 0.70277 0.13204 1.00561
 C589 C 0.76776 0.11744 1.01155
 C590 C 0.77277 0.10690 1.03375
 C591 C 0.79596 0.10629 1.04262
 C592 C 0.81390 0.11739 1.02961
 C593 C 0.80910 0.12833 1.00747
 C594 C 0.78594 0.12774 0.99836
 H595 H 0.73021 0.13879 1.03147
 H596 H 0.75152 0.09761 0.97109
 H597 H 0.75875 0.09851 1.04367
 H598 H 0.78186 0.13552 0.98109
 H599 H 0.67969 0.12244 0.97676
 H600 H 0.83153 0.11783 1.03711
 C601 C 0.22201 0.62684 0.50807
 C602 C 0.24033 0.61589 0.49538
 C603 C 0.23536 0.60442 0.47385
 C604 C 0.21209 0.60350 0.46522
 C605 C 0.19403 0.61508 0.47780
 C606 C 0.19877 0.62685 0.49925
 C607 C 0.26462 0.61633 0.50494
 C608 C 0.26946 0.60721 0.52780
 C609 C 0.29238 0.60791 0.53724
 C610 C 0.31022 0.61891 0.52406
 C611 C 0.30577 0.62815 0.50105
 C612 C 0.28285 0.62627 0.49146
 H613 H 0.22597 0.63539 0.52483
 H614 H 0.24944 0.59552 0.46434
 H615 H 0.25550 0.59890 0.53788
 H616 H 0.27894 0.63279 0.47364
 H617 H 0.17627 0.61524 0.47057
 H618 H 0.32752 0.62055 0.53210
 C619 C 0.71927 0.84691 0.50167
 C620 C 0.73791 0.85777 0.51369
 C621 C 0.73354 0.86972 0.53509
 C622 C 0.71051 0.87147 0.54413
 C623 C 0.69201 0.86038 0.53192
 C624 C 0.69619 0.84802 0.51067
 C625 C 0.76173 0.85752 0.50314
 C626 C 0.76512 0.86659 0.48001
 C627 C 0.78763 0.86644 0.46968
 C628 C 0.80671 0.85679 0.48265
 C629 C 0.80361 0.84760 0.50579
 C630 C 0.78101 0.84819 0.51600
 H631 H 0.72289 0.83743 0.48534
 H632 H 0.74788 0.87861 0.54401
 H633 H 0.75020 0.87380 0.47012
 H634 H 0.77835 0.84135 0.53391
 H635 H 0.67420 0.86181 0.53876
 H636 H 0.82411 0.85652 0.47473
 C637 C -0.00918 0.21551 0.35119
 C638 C 0.00281 0.23458 0.36112
 C639 C 0.02492 0.23091 0.37200
 C640 C 0.03486 0.20821 0.37347
 C641 C 0.02293 0.18938 0.36290
 C642 C 0.00095 0.19287 0.35168
 C643 C -0.00808 0.25826 0.36075
 C644 C -0.02986 0.26218 0.37190
 C645 C -0.04019 0.28470 0.37183
 C646 C -0.02859 0.30332 0.36040
 C647 C -0.00676 0.29969 0.34903
 C648 C 0.00337 0.27697 0.34937
 H649 H -0.02619 0.21843 0.34268
 H650 H 0.03381 0.24555 0.38029
 H651 H -0.03869 0.24773 0.38073
 H652 H 0.01993 0.27357 0.34039
 H653 H 0.03057 0.17183 0.36382
 H654 H -0.03634 0.32080 0.36107
 C655 C 1.01404 0.71891 0.12359
 C656 C 1.00206 0.73792 0.11281
 C657 C 0.98068 0.73423 0.10078
 C658 C 0.97133 0.71152 0.09922
 C659 C 0.98330 0.69269 0.11052
 C660 C 1.00460 0.69620 0.12285
 C661 C 1.01159 0.76180 0.11487
 C662 C 1.03292 0.76761 0.10377
 C663 C 1.04228 0.79029 0.10611
 C664 C 1.03032 0.80676 0.12044
 C665 C 1.00892 0.80115 0.13151
 C666 C 0.99952 0.77866 0.12841
 H667 H 1.03057 0.72194 0.13282
 H668 H 0.97163 0.74898 0.09229
 H669 H 1.04178 0.75462 0.09283
 H670 H 0.98313 0.77400 0.13708
 H671 H 0.97558 0.67534 0.11034
 H672 H 1.03754 0.82415 0.12284
 C673 C 0.50995 0.22175 0.63061
 C674 C 0.49714 0.24085 0.62104
 C675 C 0.47402 0.23754 0.61275
 C676 C 0.46358 0.21532 0.61411
 C677 C 0.47644 0.19642 0.62420
 C678 C 0.49961 0.19946 0.63263
 C679 C 0.50737 0.26459 0.62104
 C680 C 0.52876 0.26906 0.60937
 C681 C 0.53833 0.29177 0.60938
 C682 C 0.52665 0.30972 0.62203
 C683 C 0.50529 0.30543 0.63378
 C684 C 0.49566 0.28285 0.63300
 H685 H 0.52780 0.22444 0.63695
 H686 H 0.46409 0.25238 0.60553
 H687 H 0.53744 0.25503 0.59964
 H688 H 0.47929 0.27926 0.64224
 H689 H 0.46827 0.17934 0.62569
 H690 H 0.53402 0.32721 0.62248
 C691 C 0.49260 0.72072 0.84965
 C692 C 0.50452 0.73978 0.85971
 C693 C 0.52640 0.73605 0.87108
 C694 C 0.53635 0.71336 0.87260
 C695 C 0.52457 0.69462 0.86170
 C696 C 0.50256 0.69801 0.85050
 C697 C 0.49370 0.76351 0.85917
 C698 C 0.47132 0.76736 0.86916
 C699 C 0.46121 0.79003 0.86936
 C700 C 0.47364 0.80873 0.85897
 C701 C 0.49597 0.80510 0.84873
 C702 C 0.50596 0.78240 0.84907
 H703 H 0.47546 0.72360 0.84142
 H704 H 0.53507 0.75066 0.87964
 H705 H 0.46193 0.75273 0.87700
 H706 H 0.52334 0.77939 0.84161
 H707 H 0.53257 0.67723 0.86200
 H708 H 0.46601 0.82628 0.85905
 C709 C 0.42887 -0.10929 0.31868
 C710 C 0.44311 -0.10941 0.33919
 C711 C 0.45398 -0.13042 0.34666
 C712 C 0.45053 -0.15169 0.33414
 C713 C 0.43665 -0.15088 0.31299
 C714 C 0.42570 -0.12980 0.30533
 C715 C 0.41670 -0.08732 0.31130
 C716 C 0.40207 -0.08719 0.29098
 C717 C 0.38996 -0.06636 0.28451
 C718 C 0.39226 -0.04599 0.29849
 C719 C 0.40737 -0.04639 0.31852
 C720 C 0.41959 -0.06698 0.32502
 C721 C 0.41115 -0.12893 0.28491
 C722 C 0.39956 -0.10800 0.27785
 C723 C 0.44600 -0.08854 0.35213
 C724 C 0.43439 -0.06769 0.34519
 H725 H 0.40852 -0.14462 0.27440
 H726 H 0.38835 -0.10817 0.26212
 H727 H 0.45707 -0.08841 0.36797
 H728 H 0.43683 -0.05206 0.35584
 H729 H 0.46557 -0.12982 0.36206
 H730 H 0.43312 -0.16673 0.30308
 H731 H 0.37831 -0.06614 0.26911
 H732 H 0.40952 -0.03065 0.32909
 C733 C 0.92985 0.38584 0.81502
 C734 C 0.92457 0.36449 0.80383
 C735 C 0.93566 0.34368 0.81194
 C736 C 0.95189 0.34419 0.83111
 C737 C 0.95754 0.36597 0.84146
 C738 C 0.94638 0.38676 0.83372
 C739 C 0.91738 0.40758 0.80746
 C740 C 0.92206 0.42872 0.81931
 C741 C 0.90946 0.44910 0.81280
 C742 C 0.89241 0.44851 0.79447
 C743 C 0.88832 0.42734 0.78230
 C744 C 0.90062 0.40670 0.78893
 C745 C 0.95102 0.40836 0.84471
 C746 C 0.93900 0.42898 0.83769
 C747 C 0.90789 0.36435 0.78517
 C748 C 0.89618 0.38510 0.77779
 H749 H 0.96378 0.40926 0.85914
 H750 H 0.94284 0.44521 0.84687
 H751 H 0.90368 0.34802 0.77634
 H752 H 0.88330 0.38417 0.76347
 H753 H 0.93104 0.32704 0.80394
 H754 H 0.97037 0.36670 0.85584
 H755 H 0.91282 0.46545 0.82200
 H756 H 0.87511 0.42684 0.76825
 C757 C 0.06345 1.13155 0.81024
 C758 C 0.07480 1.14740 0.82544
 C759 C 0.06341 1.16857 0.83127
 C760 C 0.04075 1.17397 0.82212
 C761 C 0.02983 1.15805 0.80647
 C762 C 0.04108 1.13676 0.80054
 C763 C 0.07495 1.10880 0.80489
 C764 C 0.06340 1.09270 0.79010
 C765 C 0.07415 1.07083 0.78560
 C766 C 0.09623 1.06500 0.79588
 C767 C 0.10766 1.08152 0.81042
 C768 C 0.09707 1.10341 0.81505
 C769 C 0.03022 1.12034 0.78554
 C770 C 0.04119 1.09869 0.78041
 C771 C 0.09708 1.14151 0.83499
 C772 C 0.10804 1.11990 0.82986
 H773 H 0.01299 1.12414 0.77791
 H774 H 0.03211 1.08644 0.76894
 H775 H 0.10602 1.15362 0.84673
 H776 H 0.12514 1.11596 0.83776
 H777 H 0.07181 1.18038 0.84371
 H778 H 0.01249 1.16209 0.79918
 H779 H 0.06511 1.05815 0.77458
 H780 H 0.12481 1.07737 0.81809
 C781 C 0.56445 0.63645 0.30963
 C782 C 0.57503 0.65204 0.32564
 C783 C 0.56337 0.67313 0.33122
 C784 C 0.54121 0.67874 0.32097
 C785 C 0.53105 0.66305 0.30457
 C786 C 0.54257 0.64182 0.29891
 C787 C 0.57626 0.61381 0.30442
 C788 C 0.56550 0.59798 0.28876
 C789 C 0.57658 0.57627 0.28428
 C790 C 0.59825 0.57035 0.29540
 C791 C 0.60886 0.58658 0.31090
 C792 C 0.59792 0.60830 0.31552
 C793 C 0.53248 0.62564 0.28310
 C794 C 0.54374 0.60409 0.27812
 C795 C 0.59683 0.64601 0.33619
 C796 C 0.60810 0.62452 0.33119
 H797 H 0.51563 0.62955 0.27468
 H798 H 0.53526 0.59204 0.26598
 H799 H 0.60517 0.65793 0.34858
 H800 H 0.62482 0.62049 0.33983
 H801 H 0.57116 0.68473 0.34426
 H802 H 0.51411 0.66723 0.29645
 H803 H 0.56813 0.56381 0.27255
 H804 H 0.62568 0.58236 0.31925
 C805 C 0.56390 0.38796 0.18923
 C806 C 0.56714 0.36831 0.20432
 C807 C 0.55766 0.34659 0.19758
 C808 C 0.54540 0.34451 0.17576
 C809 C 0.54179 0.36458 0.16124
 C810 C 0.55107 0.38630 0.16782
 C811 C 0.57472 0.41056 0.19561
 C812 C 0.57189 0.43000 0.18020
 C813 C 0.58285 0.45119 0.18587
 C814 C 0.59679 0.45303 0.20666
 C815 C 0.59909 0.43348 0.22218
 C816 C 0.58813 0.41214 0.21667
 C817 C 0.54823 0.40626 0.15311
 C818 C 0.55846 0.42776 0.15921
 C819 C 0.58034 0.37069 0.22547
 C820 C 0.59066 0.39222 0.23153
 H821 H 0.53829 0.40518 0.13659
 H822 H 0.55609 0.44267 0.14724
 H823 H 0.58296 0.35570 0.23729
 H824 H 0.60092 0.39320 0.24787
 H825 H 0.56061 0.33117 0.20874
 H826 H 0.53209 0.36313 0.14458
 H827 H 0.58063 0.46626 0.17406
 H828 H 0.60991 0.43468 0.23812
 C829 C 0.06569 0.87900 0.69023
 C830 C 0.06972 0.85928 0.70505
 C831 C 0.06083 0.83733 0.69816
 C832 C 0.04837 0.83515 0.67647
 C833 C 0.04399 0.85527 0.66224
 C834 C 0.05267 0.87718 0.66895
 C835 C 0.07578 0.90188 0.69678
 C836 C 0.07212 0.92138 0.68163
 C837 C 0.08237 0.94288 0.68744
 C838 C 0.09639 0.94500 0.70813
 C839 C 0.09952 0.92538 0.72343
 C840 C 0.08931 0.90370 0.71775
 C841 C 0.04902 0.89720 0.65451
 C842 C 0.05858 0.91895 0.66075
 C843 C 0.08304 0.86186 0.72610
 C844 C 0.09266 0.88368 0.73234
 H845 H 0.03893 0.89598 0.63808
 H846 H 0.05558 0.93391 0.64898
 H847 H 0.08628 0.84683 0.73771
 H848 H 0.10302 0.88483 0.74859
 H849 H 0.06431 0.82187 0.70912
 H850 H 0.03407 0.85376 0.64573
 H851 H 0.07952 0.95799 0.67582
 H852 H 0.11038 0.92685 0.73933
 C853 C 0.93468 0.62177 0.68925
 C854 C 0.93199 0.64167 0.70377
 C855 C 0.94527 0.66185 0.69877
 C856 C 0.96120 0.66206 0.67949
 C857 C 0.96367 0.64184 0.66524
 C858 C 0.95047 0.62170 0.67001
 C859 C 0.92052 0.60066 0.69412
 C860 C 0.92306 0.58092 0.67938
 C861 C 0.90950 0.56095 0.68396
 C862 C 0.89351 0.56057 0.70315
 C863 C 0.89124 0.58051 0.71784
 C864 C 0.90468 0.60066 0.71334
 C865 C 0.95259 0.60158 0.65573
 C866 C 0.93911 0.58152 0.66034
 C867 C 0.91596 0.64100 0.72286
 C868 C 0.90257 0.62084 0.72758
 H869 H 0.96472 0.60135 0.64082
 H870 H 0.94123 0.56639 0.64886
 H871 H 0.91371 0.65620 0.73422
 H872 H 0.89040 0.62108 0.74247
 H873 H 0.94330 0.67729 0.70985
 H874 H 0.97545 0.64197 0.65003
 H875 H 0.91164 0.54557 0.67281
 H876 H 0.87884 0.58041 0.73253
 C877 C 0.43745 0.12944 0.19515
 C878 C 0.43730 0.14842 0.21108
 C879 C 0.45135 0.16811 0.20613
 C880 C 0.46539 0.16880 0.18537
 C881 C 0.46517 0.14951 0.16968
 C882 C 0.45138 0.12983 0.17449
 C883 C 0.42256 0.10884 0.20000
 C884 C 0.42275 0.09000 0.18394
 C885 C 0.40867 0.07045 0.18858
 C886 C 0.39425 0.06961 0.20900
 C887 C 0.39425 0.08871 0.22498
 C888 C 0.40842 0.10840 0.22054
 C889 C 0.45108 0.11062 0.15886
 C890 C 0.43704 0.09100 0.16354
 C891 C 0.42297 0.14732 0.23151
 C892 C 0.40878 0.12767 0.23614
 H893 H 0.46178 0.11077 0.14286
 H894 H 0.43732 0.07654 0.15104
 H895 H 0.42266 0.16181 0.24398
 H896 H 0.39797 0.12758 0.25207
 H897 H 0.45137 0.18280 0.21835
 H898 H 0.47528 0.15002 0.15329
 H899 H 0.40927 0.05568 0.17645
 H900 H 0.38313 0.08831 0.24068
 C901 C 0.31248 0.41587 -0.12143
 C902 C 0.32904 0.40548 -0.13678
 C903 C 0.33653 0.41800 -0.15693
 C904 C 0.32781 0.44086 -0.16168
 C905 C 0.31056 0.45072 -0.14661
 C906 C 0.30296 0.43833 -0.12628
 C907 C 0.30566 0.40333 -0.09940
 C908 C 0.28972 0.41401 -0.08357
 C909 C 0.28424 0.40249 -0.06205
 C910 C 0.29483 0.38062 -0.05629
 C911 C 0.31028 0.36992 -0.07269
 C912 C 0.31585 0.38124 -0.09421
 C913 C 0.28663 0.44822 -0.11028
 C914 C 0.28013 0.43626 -0.08929
 C915 C 0.33835 0.38308 -0.13131
 C916 C 0.33186 0.37115 -0.11037
 H917 H 0.27912 0.46550 -0.11382
 H918 H 0.26777 0.44468 -0.07726
 H919 H 0.35108 0.37487 -0.14309
 H920 H 0.33974 0.35407 -0.10659
 H921 H 0.34958 0.41019 -0.16867
 H922 H 0.30391 0.46837 -0.15010
 H923 H 0.27247 0.41091 -0.04942
 H924 H 0.31821 0.35294 -0.06853
 C925 C 0.81047 0.91061 0.38001
 C926 C 0.82693 0.89960 0.36497
 C927 C 0.83510 0.91174 0.34485
 C928 C 0.82711 0.93479 0.33978
 C929 C 0.80990 0.94526 0.35448
 C930 C 0.80168 0.93329 0.37482
 C931 C 0.80310 0.89853 0.40213
 C932 C 0.78743 0.90989 0.41774
 C933 C 0.78161 0.89890 0.43945
 C934 C 0.79158 0.87684 0.44563
 C935 C 0.80665 0.86540 0.42935
 C936 C 0.81260 0.87622 0.40767
 C937 C 0.78551 0.94382 0.39056
 C938 C 0.77852 0.93233 0.41165
 C939 C 0.83550 0.87699 0.37078
 C940 C 0.82843 0.86548 0.39177
 H941 H 0.77854 0.96128 0.38677
 H942 H 0.76636 0.94127 0.42351
 H943 H 0.84813 0.86830 0.35924
 H944 H 0.83580 0.84823 0.39582
 H945 H 0.84816 0.90352 0.33342
 H946 H 0.80383 0.96306 0.35073
 H947 H 0.77017 0.90792 0.45196
 H948 H 0.81411 0.84827 0.43380
 C949 C 0.81966 0.05499 1.12868
 C950 C 0.80645 0.05850 1.14952
 C951 C 0.81281 0.04621 1.17053
 C952 C 0.83212 0.03014 1.17079
 C953 C 0.84494 0.02696 1.14933
 C954 C 0.83890 0.03932 1.12845
 C955 C 0.81339 0.06814 1.10669
 C956 C 0.82702 0.06494 1.08605
 C957 C 0.82121 0.07762 1.06528
 C958 C 0.80180 0.09326 1.06493
 C959 C 0.78811 0.09613 1.08570
 C960 C 0.79397 0.08370 1.10674
 C961 C 0.85203 0.03650 1.10740
 C962 C 0.84622 0.04913 1.08656
 C963 C 0.78712 0.07424 1.14890
 C964 C 0.78095 0.08657 1.12787
 H965 H 0.86699 0.02447 1.10705
 H966 H 0.85684 0.04649 1.07073
 H967 H 0.77669 0.07709 1.16482
 H968 H 0.76593 0.09852 1.12819
 H969 H 0.80214 0.04872 1.18633
 H970 H 0.86054 0.01581 1.14890
 H971 H 0.83160 0.07510 1.04925
 H972 H 0.77321 0.10826 1.08553
 C973 C 0.31515 0.56124 0.62617
 C974 C 0.30064 0.56451 0.64620
 C975 C 0.30653 0.55301 0.66779
 C976 C 0.32656 0.53815 0.66915
 C977 C 0.34083 0.53514 0.64883
 C978 C 0.33526 0.54665 0.62735
 C979 C 0.30924 0.57336 0.60351
 C980 C 0.32395 0.57024 0.58363
 C981 C 0.31834 0.58178 0.56216
 C982 C 0.29811 0.59628 0.56036
 C983 C 0.28342 0.59916 0.58042
 C984 C 0.28900 0.58780 0.60213
 C985 C 0.34951 0.54392 0.60706
 C986 C 0.34396 0.55555 0.58556
 C987 C 0.28059 0.57918 0.64418
 C988 C 0.27484 0.59058 0.62251
 H989 H 0.36510 0.53273 0.60782
 H990 H 0.35542 0.55300 0.57032
 H991 H 0.26922 0.58185 0.65947
 H992 H 0.25919 0.60169 0.62172
 H993 H 0.29549 0.55538 0.68337
 H994 H 0.35655 0.52413 0.64988
 H995 H 0.32951 0.57920 0.54669
 H996 H 0.26788 0.61041 0.57916
 C997 C 0.18536 0.55458 0.37977
 C998 C 0.16493 0.54086 0.38005
 C999 C 0.15706 0.53074 0.35879
 C1000 C 0.16924 0.53447 0.33723
 C1001 C 0.19014 0.54770 0.33736
 C1002 C 0.19821 0.55793 0.35862
 C1003 C 0.19302 0.56624 0.40190
 C1004 C 0.21313 0.58047 0.40158
 C1005 C 0.21979 0.59223 0.42252
 C1006 C 0.20624 0.59001 0.44346
 C1007 C 0.18643 0.57528 0.44351
 C1008 C 0.17971 0.56341 0.42280
 C1009 C 0.21848 0.57197 0.35909
 C1010 C 0.22582 0.58303 0.38020
 C1011 C 0.15240 0.53801 0.40145
 C1012 C 0.15966 0.54911 0.42248
 H1013 H 0.22858 0.57468 0.34293
 H1014 H 0.24138 0.59392 0.37970
 H1015 H 0.13664 0.52739 0.40187
 H1016 H 0.14931 0.54674 0.43854
 H1017 H 0.14118 0.52028 0.35890
 H1018 H 0.19952 0.55078 0.32081
 H1019 H 0.23499 0.60363 0.42235
 H1020 H 0.17615 0.57320 0.45968
 C1021 C 0.68702 0.06355 0.88362
 C1022 C 0.66450 0.05375 0.88208
 C1023 C 0.65688 0.04449 0.86034
 C1024 C 0.67151 0.04477 0.83989
 C1025 C 0.69455 0.05394 0.84217
 C1026 C 0.70220 0.06367 0.86387
 C1027 C 0.69467 0.07422 0.90628
 C1028 C 0.71691 0.08476 0.90773
 C1029 C 0.72369 0.09566 0.92912
 C1030 C 0.70837 0.09594 0.94894
 C1031 C 0.68642 0.08464 0.94725
 C1032 C 0.67939 0.07401 0.92595
 C1033 C 0.72453 0.07403 0.86612
 C1034 C 0.73172 0.08446 0.88762
 C1035 C 0.64985 0.05358 0.90226
 C1036 C 0.65720 0.06348 0.92386
 H1037 H 0.73645 0.07431 0.85103
 H1038 H 0.74895 0.09248 0.88847
 H1039 H 0.63245 0.04591 0.90130
 H1040 H 0.64528 0.06317 0.93895
 H1041 H 0.63965 0.03645 0.85974
 H1042 H 0.70612 0.05484 0.82685
 H1043 H 0.74056 0.10440 0.93012
 H1044 H 0.67472 0.08420 0.96251
 C1045 C 0.68931 0.92811 0.62646
 C1046 C 0.66955 0.94320 0.62572
 C1047 C 0.66400 0.95661 0.64582
 C1048 C 0.67798 0.95510 0.66667
 C1049 C 0.69779 0.93986 0.66715
 C1050 C 0.70356 0.92634 0.64701
 C1051 C 0.69500 0.91372 0.60538
 C1052 C 0.71471 0.89854 0.60603
 C1053 C 0.71991 0.88478 0.58591
 C1054 C 0.70538 0.88606 0.56542
 C1055 C 0.68578 0.90151 0.56512
 C1056 C 0.68050 0.91535 0.58501
 C1057 C 0.72319 0.91099 0.64697
 C1058 C 0.72868 0.89736 0.62683
 C1059 C 0.65556 0.94443 0.60497
 C1060 C 0.66095 0.93074 0.58495
 H1061 H 0.73437 0.90945 0.66267
 H1062 H 0.74394 0.88572 0.62760
 H1063 H 0.64026 0.95602 0.60422
 H1064 H 0.64966 0.93215 0.56932
 H1065 H 0.64841 0.96783 0.64541
 H1066 H 0.70867 0.93861 0.68309
 H1067 H 0.73496 0.87285 0.58631
 H1068 H 0.67477 0.90294 0.54928
 C1069 C 0.18869 0.42753 0.12120
 C1070 C 0.16737 0.44030 0.12086
 C1071 C 0.16106 0.45363 0.14077
 C1072 C 0.17593 0.45453 0.16101
 C1073 C 0.19743 0.44176 0.16098
 C1074 C 0.20386 0.42815 0.14110
 C1075 C 0.19506 0.41298 0.10044
 C1076 C 0.21622 0.39990 0.10081
 C1077 C 0.22200 0.38584 0.08108
 C1078 C 0.20673 0.38488 0.06114
 C1079 C 0.18573 0.39839 0.06108
 C1080 C 0.17975 0.41232 0.08069
 C1081 C 0.22498 0.41495 0.14075
 C1082 C 0.23105 0.40105 0.12097
 C1083 C 0.15256 0.43925 0.10072
 C1084 C 0.15868 0.42555 0.08093
 H1085 H 0.23687 0.41526 0.15596
 H1086 H 0.24744 0.39107 0.12150
 H1087 H 0.13606 0.44906 0.10028
 H1088 H 0.14675 0.42518 0.06576
 H1089 H 0.14418 0.46277 0.14073
 H1090 H 0.20908 0.44237 0.17636
 H1091 H 0.23814 0.37543 0.08136
 H1092 H 0.17411 0.39824 0.04565
 C1093 C -0.12649 0.30613 0.42129
 C1094 C -0.12839 0.30054 0.44570
 C1095 C -0.14854 0.30788 0.45824
 C1096 C -0.16674 0.32046 0.44644
 C1097 C -0.16485 0.32528 0.42181
 C1098 C -0.14462 0.31841 0.40920
 C1099 C -0.10478 0.29967 0.40832
 C1100 C -0.10244 0.30626 0.38421
 C1101 C -0.08135 0.30102 0.37226
 C1102 C -0.06284 0.28905 0.38419
 C1103 C -0.06567 0.28206 0.40818
 C1104 C -0.08654 0.28758 0.42044
 C1105 C -0.14187 0.32417 0.38493
 C1106 C -0.12109 0.31829 0.37267
 C1107 C -0.10987 0.28822 0.45714
 C1108 C -0.08934 0.28175 0.44470
 H1109 H -0.15573 0.33366 0.37542
 H1110 H -0.11953 0.32338 0.35405
 H1111 H -0.11115 0.28372 0.47594
 H1112 H -0.07540 0.27243 0.45426
 H1113 H -0.14997 0.30411 0.47720
 H1114 H -0.17865 0.33529 0.41275
 H1115 H -0.07924 0.30629 0.35374
 H1116 H -0.05134 0.27303 0.41746
 C1117 C 0.37571 0.81468 0.91892
 C1118 C 0.37158 0.80536 0.94184
 C1119 C 0.35219 0.81369 0.95503
 C1120 C 0.33741 0.83154 0.94553
 C1121 C 0.34148 0.84019 0.92229
 C1122 C 0.36060 0.83186 0.90892
 C1123 C 0.39673 0.80697 0.90549
 C1124 C 0.40114 0.81683 0.88289
 C1125 C 0.42176 0.81040 0.87072
 C1126 C 0.43816 0.79457 0.88115
 C1127 C 0.43312 0.78433 0.90357
 C1128 C 0.41244 0.79054 0.91586
 C1129 C 0.36528 0.84087 0.88601
 C1130 C 0.38520 0.83344 0.87319
 C1131 C 0.38738 0.78848 0.95136
 C1132 C 0.40748 0.78123 0.93861
 H1133 H 0.35367 0.85406 0.87808
 H1134 H 0.38838 0.84111 0.85573
 H1135 H 0.38442 0.78112 0.96899
 H1136 H 0.41942 0.76849 0.94679
 H1137 H 0.34918 0.80711 0.97297
 H1138 H 0.32997 0.85376 0.91484
 H1139 H 0.42527 0.81808 0.85333
 H1140 H 0.44573 0.77231 0.91187
 C1141 C 1.12786 0.81867 0.05905
 C1142 C 1.12970 0.84195 0.05078
 C1143 C 1.15104 0.84945 0.04100
 C1144 C 1.17033 0.83382 0.03923
 C1145 C 1.16811 0.81034 0.04692
 C1146 C 1.14689 0.80273 0.05717
 C1147 C 1.10576 0.81104 0.07040
 C1148 C 1.10410 0.78804 0.07947
 C1149 C 1.08327 0.78116 0.09100
 C1150 C 1.06416 0.79711 0.09330
 C1151 C 1.06605 0.81993 0.08351
 C1152 C 1.08685 0.82707 0.07233
 C1153 C 1.14442 0.77971 0.06608
 C1154 C 1.12343 0.77252 0.07712
 C1155 C 1.11032 0.85740 0.05282
 C1156 C 1.08920 0.85004 0.06332
 H1157 H 1.15894 0.76723 0.06478
 H1158 H 1.12237 0.75470 0.08398
 H1159 H 1.11154 0.87537 0.04640
 H1160 H 1.07470 0.86253 0.06468
 H1161 H 1.15282 0.86752 0.03497
 H1162 H 1.18308 0.79839 0.04566
 H1163 H 1.08215 0.76363 0.09860
 H1164 H 1.05133 0.83220 0.08460
 C1165 C 0.62249 0.31500 0.55712
 C1166 C 0.62348 0.33672 0.54514
 C1167 C 0.64421 0.34297 0.53334
 C1168 C 0.66394 0.32763 0.53315
 C1169 C 0.66258 0.30575 0.54512
 C1170 C 0.64188 0.29940 0.55722
 C1171 C 0.60084 0.30867 0.57009
 C1172 C 0.59988 0.28713 0.58247
 C1173 C 0.57934 0.28145 0.59518
 C1174 C 0.55994 0.29721 0.59552
 C1175 C 0.56118 0.31853 0.58262
 C1176 C 0.58159 0.32441 0.57005
 C1177 C 0.64019 0.27788 0.56961
 C1178 C 0.61957 0.27187 0.58205
 C1179 C 0.60380 0.35196 0.54542
 C1180 C 0.58317 0.34587 0.55760
 H1181 H 0.65499 0.26565 0.56984
 H1182 H 0.61908 0.25518 0.59149
 H1183 H 0.60438 0.36876 0.53619
 H1184 H 0.56840 0.35814 0.55744
 H1185 H 0.64514 0.36010 0.52479
 H1186 H 0.67755 0.29373 0.54501
 H1187 H 0.57864 0.26507 0.60516
 H1188 H 0.54619 0.33054 0.58229
 C1189 C 0.37066 0.19703 0.57713
 C1190 C 0.36446 0.20507 0.55413
 C1191 C 0.34283 0.19826 0.54412
 C1192 C 0.32767 0.18329 0.55690
 C1193 C 0.33381 0.17620 0.58031
 C1194 C 0.35535 0.18284 0.59044
 C1195 C 0.39400 0.20281 0.58713
 C1196 C 0.40050 0.19400 0.60975
 C1197 C 0.42311 0.19858 0.61869
 C1198 C 0.43921 0.21180 0.60516
 C1199 C 0.43220 0.22098 0.58273
 C1200 C 0.40964 0.21640 0.57356
 C1201 C 0.36222 0.17490 0.61328
 C1202 C 0.38443 0.18037 0.62277
 C1203 C 0.38040 0.21904 0.54129
 C1204 C 0.40259 0.22463 0.55085
 H1205 H 0.35051 0.16399 0.62373
 H1206 H 0.38921 0.17358 0.64029
 H1207 H 0.37583 0.22539 0.52355
 H1208 H 0.41447 0.23517 0.54022
 H1209 H 0.33834 0.20361 0.52602
 H1210 H 0.32210 0.16493 0.59038
 H1211 H 0.42826 0.19175 0.63611
 H1212 H 0.44457 0.23101 0.57214
 C1213 C 0.88337 0.69076 0.05243
 C1214 C 0.86357 0.70540 0.05603
 C1215 C 0.84159 0.69874 0.04666
 C1216 C 0.83944 0.67741 0.03425
 C1217 C 0.85964 0.66337 0.03021
 C1218 C 0.88161 0.66990 0.03932
 C1219 C 0.90621 0.69692 0.06332
 C1220 C 0.92577 0.68187 0.06025
 C1221 C 0.94714 0.68719 0.07149
 C1222 C 0.94904 0.70722 0.08600
 C1223 C 0.92940 0.72246 0.08845
 C1224 C 0.90787 0.71731 0.07720
 C1225 C 0.90171 0.65560 0.03616
 C1226 C 0.92344 0.66151 0.04643
 C1227 C 0.86605 0.72595 0.06957
 C1228 C 0.88781 0.73180 0.07999
 H1229 H 0.90054 0.63951 0.02599
 H1230 H 0.93844 0.64982 0.04387
 H1231 H 0.85096 0.73743 0.07247
 H1232 H 0.88886 0.74762 0.09060
 H1233 H 0.82604 0.70950 0.04991
 H1234 H 0.85807 0.64706 0.02044
 H1235 H 0.96226 0.67559 0.06918
 H1236 H 0.93065 0.73782 0.09972
 C1237 C 0.62045 0.69354 0.92789
 C1238 C 0.62151 0.67285 0.94166
 C1239 C 0.64200 0.66756 0.95466
 C1240 C 0.66142 0.68286 0.95436
 C1241 C 0.66008 0.70363 0.94044
 C1242 C 0.63957 0.70903 0.92711
 C1243 C 0.59894 0.69892 0.91385
 C1244 C 0.59783 0.71947 0.89979
 C1245 C 0.57734 0.72431 0.88627
 C1246 C 0.55815 0.70870 0.88682
 C1247 C 0.55961 0.68837 0.90132
 C1248 C 0.57994 0.68332 0.91469
 C1249 C 0.63777 0.72951 0.91294
 C1250 C 0.61728 0.73462 0.89950
 C1251 C 0.60212 0.65769 0.94205
 C1252 C 0.58164 0.66288 0.92884
 H1253 H 0.65236 0.74165 0.91214
 H1254 H 0.61668 0.75054 0.88875
 H1255 H 0.60278 0.64167 0.95265
 H1256 H 0.56707 0.65072 0.92962
 H1257 H 0.64297 0.65117 0.96465
 H1258 H 0.67486 0.71556 0.94006
 H1259 H 0.57645 0.73995 0.87510
 H1260 H 0.54478 0.67652 0.90237
 C1261 C 0.11940 0.19037 0.42853
 C1262 C 0.11986 0.17143 0.44476
 C1263 C 0.14035 0.16692 0.45811
 C1264 C 0.16043 0.18107 0.45532
 C1265 C 0.15975 0.19996 0.43887
 C1266 C 0.13916 0.20477 0.42550
 C1267 C 0.09783 0.19507 0.41435
 C1268 C 0.09720 0.21408 0.39819
 C1269 C 0.07655 0.21846 0.38480
 C1270 C 0.05682 0.20377 0.38736
 C1271 C 0.05786 0.18480 0.40366
 C1272 C 0.07825 0.18040 0.41723
 C1273 C 0.13789 0.22361 0.40911
 C1274 C 0.11726 0.22822 0.39575
 C1275 C 0.09988 0.15723 0.44720
 C1276 C 0.07942 0.16163 0.43364
 H1277 H 0.15297 0.23490 0.40659
 H1278 H 0.11704 0.24294 0.38334
 H1279 H 0.10007 0.14255 0.45966
 H1280 H 0.06441 0.15022 0.43603
 H1281 H 0.14087 0.15204 0.47033
 H1282 H 0.17513 0.21093 0.43665
 H1283 H 0.07589 0.23304 0.37221
 H1284 H 0.04262 0.17367 0.40603
 C1285 C 0.54801 0.12228 0.67985
 C1286 C 0.54578 0.09941 0.67087
 C1287 C 0.55745 0.08069 0.68258
 C1288 C 0.57144 0.08481 0.70296
 C1289 C 0.57339 0.10787 0.71175
 C1290 C 0.56166 0.12666 0.70030
 C1291 C 0.53588 0.14204 0.66756
 C1292 C 0.53801 0.16488 0.67663
 C1293 C 0.52628 0.18358 0.66502
 C1294 C 0.51259 0.17962 0.64437
 C1295 C 0.51085 0.15657 0.63541
 C1296 C 0.52238 0.13771 0.64700
 C1297 C 0.56338 0.14976 0.70883
 C1298 C 0.55171 0.16854 0.69723
 C1299 C 0.53209 0.09576 0.65027
 C1300 C 0.52062 0.11460 0.63851
 H1301 H 0.57384 0.15335 0.72461
 H1302 H 0.55347 0.18608 0.70441
 H1303 H 0.53026 0.07821 0.64313
 H1304 H 0.51024 0.11102 0.62267
 H1305 H 0.55609 0.06304 0.67556
 H1306 H 0.58393 0.11112 0.72757
 H1307 H 0.52744 0.20113 0.67233
 H1308 H 0.50063 0.15334 0.61939
 C1309 C 1.04800 0.61822 0.17345
 C1310 C 1.05755 0.62179 0.19631
 C1311 C 1.06801 0.60275 0.20858
 C1312 C 1.06894 0.58027 0.19816
 C1313 C 1.05903 0.57698 0.17530
 C1314 C 1.04860 0.59592 0.16284
 C1315 C 1.03723 0.63825 0.16034
 C1316 C 1.02777 0.63471 0.13744
 C1317 C 1.01746 0.65379 0.12510
 C1318 C 1.01644 0.67626 0.13556
 C1319 C 1.02615 0.67947 0.15852
 C1320 C 1.03658 0.66053 0.17098
 C1321 C 1.03897 0.59308 0.13988
 C1322 C 1.02874 0.61215 0.12739
 C1323 C 1.05656 0.64434 0.20637
 C1324 C 1.04622 0.66338 0.19393
 H1325 H 1.03937 0.57597 0.13147
 H1326 H 1.02151 0.60919 0.10973
 H1327 H 1.06386 0.64732 0.22400
 H1328 H 1.04580 0.68048 0.20235
 H1329 H 1.07538 0.60538 0.22625
 H1330 H 1.05996 0.55983 0.16701
 H1331 H 1.01032 0.65118 0.10733
 H1332 H 1.02514 0.69658 0.16690
 C1333 C 0.96017 0.87162 0.18648
 C1334 C 0.97279 0.88511 0.20301
 C1335 C 0.96086 0.90257 0.21600
 C1336 C 0.93651 0.90667 0.21241
 C1337 C 0.92423 0.89297 0.19563
 C1338 C 0.93592 0.87538 0.18273
 C1339 C 0.97260 0.85331 0.17270
 C1340 C 0.95994 0.83984 0.15618
 C1341 C 0.97187 0.82257 0.14300
 C1342 C 0.99631 0.81892 0.14607
 C1343 C 1.00873 0.83256 0.16275
 C1344 C 0.99694 0.84976 0.17617
 C1345 C 0.92385 0.86157 0.16604
 C1346 C 0.93565 0.84405 0.15302
 C1347 C 0.99710 0.88089 0.20614
 C1348 C 1.00897 0.86355 0.19291
 H1349 H 0.90513 0.86432 0.16300
 H1350 H 0.92570 0.83380 0.14031
 H1351 H 1.00705 0.89116 0.21883
 H1352 H 1.02774 0.86096 0.19578
 H1353 H 0.97046 0.91281 0.22900
 H1354 H 0.90562 0.89625 0.19230
 H1355 H 0.96227 0.81231 0.13000
 H1356 H 1.02751 0.82966 0.16537
 C1357 C 0.45696 0.37999 0.68339
 C1358 C 0.46972 0.39478 0.69859
 C1359 C 0.45775 0.41277 0.71078
 C1360 C 0.43322 0.41602 0.70779
 C1361 C 0.42081 0.40111 0.69225
 C1362 C 0.43255 0.38302 0.68012
 C1363 C 0.46937 0.36092 0.67069
 C1364 C 0.45654 0.34605 0.65563
 C1365 C 0.46839 0.32788 0.64368
 C1366 C 0.49290 0.32462 0.64660
 C1367 C 0.50552 0.33976 0.66171
 C1368 C 0.49381 0.35791 0.67386
 C1369 C 0.42034 0.36788 0.66480
 C1370 C 0.43213 0.34967 0.65279
 C1371 C 0.49416 0.39118 0.70136
 C1372 C 0.50601 0.37309 0.68918
 H1373 H 0.40149 0.37007 0.66213
 H1374 H 0.42205 0.33834 0.64119
 H1375 H 0.50422 0.40246 0.71303
 H1376 H 0.52487 0.37093 0.69180
 H1377 H 0.46744 0.42398 0.72285
 H1378 H 0.40202 0.40371 0.68943
 H1379 H 0.45863 0.31648 0.63186
 H1380 H 0.52436 0.33719 0.66421
 C1381 C 0.45411 0.61806 0.81188
 C1382 C 0.45454 0.59671 0.82465
 C1383 C 0.44274 0.57728 0.81532
 C1384 C 0.43038 0.57908 0.79347
 C1385 C 0.43028 0.60062 0.78080
 C1386 C 0.44213 0.62018 0.78995
 C1387 C 0.46636 0.63861 0.82174
 C1388 C 0.46594 0.66000 0.80903
 C1389 C 0.47770 0.67947 0.81850
 C1390 C 0.48978 0.67760 0.84051
 C1391 C 0.48979 0.65600 0.85306
 C1392 C 0.47821 0.63646 0.84373
 C1393 C 0.44209 0.64187 0.77773
 C1394 C 0.45382 0.66143 0.78709
 C1395 C 0.46665 0.59524 0.84657
 C1396 C 0.47826 0.61480 0.85597
 H1397 H 0.43291 0.64376 0.76080
 H1398 H 0.45336 0.67782 0.77709
 H1399 H 0.46710 0.57886 0.85658
 H1400 H 0.48737 0.61294 0.87295
 H1401 H 0.44327 0.56072 0.82503
 H1402 H 0.42060 0.60230 0.76412
 H1403 H 0.47776 0.69593 0.80860
 H1404 H 0.49864 0.65447 0.87022
 C1405 C -0.04684 0.11292 0.31250
 C1406 C -0.03431 0.09704 0.29808
 C1407 C -0.04584 0.07718 0.28922
 C1408 C -0.06961 0.07303 0.29499
 C1409 C -0.08191 0.08920 0.30942
 C1410 C -0.07064 0.10923 0.31816
 C1411 C -0.03475 0.13370 0.32208
 C1412 C -0.04730 0.14961 0.33647
 C1413 C -0.03565 0.16919 0.34577
 C1414 C -0.01155 0.17271 0.34100
 C1415 C 0.00073 0.15663 0.32645
 C1416 C -0.01081 0.13712 0.31687
 C1417 C -0.08263 0.12557 0.33255
 C1418 C -0.07117 0.14545 0.34150
 C1419 C -0.01044 0.10121 0.29303
 C1420 C 0.00112 0.12089 0.30231
 H1421 H -0.10101 0.12294 0.33698
 H1422 H -0.08105 0.15758 0.35259
 H1423 H -0.00057 0.08909 0.28193
 H1424 H 0.01958 0.12336 0.29812
 H1425 H -0.03622 0.06469 0.27829
 H1426 H -0.10029 0.08625 0.31369
 H1427 H -0.04512 0.18137 0.35716
 H1428 H 0.01922 0.15938 0.32254
 C1429 C 0.04082 0.37740 0.30378
 C1430 C 0.02746 0.39551 0.29289
 C1431 C 0.03914 0.41461 0.28241
 C1432 C 0.06396 0.41532 0.28237
 C1433 C 0.07707 0.39691 0.29314
 C1434 C 0.06559 0.37800 0.30409
 C1435 C 0.02866 0.35746 0.31517
 C1436 C 0.04201 0.33966 0.32653
 C1437 C 0.03037 0.32094 0.33766
 C1438 C 0.00552 0.31963 0.33711
 C1439 C -0.00753 0.33758 0.32531
 C1440 C 0.00393 0.35664 0.31455
 C1441 C 0.07835 0.35977 0.31547
 C1442 C 0.06676 0.34099 0.32662
 C1443 C 0.00272 0.39411 0.29272
 C1444 C -0.00884 0.37494 0.30324
 H1445 H 0.09747 0.36008 0.31589
 H1446 H 0.07727 0.32735 0.33531
 H1447 H -0.00780 0.40791 0.28433
 H1448 H -0.02794 0.37452 0.30267
 H1449 H 0.02904 0.42874 0.27402
 H1450 H 0.09619 0.39757 0.29335
 H1451 H 0.04069 0.30760 0.34702
 H1452 H -0.02660 0.33667 0.32431
 C1453 C 0.54505 0.88336 0.80676
 C1454 C 0.54515 0.90499 0.81868
 C1455 C 0.55742 0.92388 0.80870
 C1456 C 0.56971 0.92127 0.78702
 C1457 C 0.56910 0.89954 0.77507
 C1458 C 0.55685 0.88048 0.78493
 C1459 C 0.53254 0.86329 0.81747
 C1460 C 0.53260 0.84156 0.80570
 C1461 C 0.52074 0.82251 0.81604
 C1462 C 0.50887 0.82513 0.83798
 C1463 C 0.50912 0.84706 0.84954
 C1464 C 0.52089 0.86619 0.83936
 C1465 C 0.55641 0.85850 0.77362
 C1466 C 0.54449 0.83938 0.78382
 C1467 C 0.53319 0.90723 0.84050
 C1468 C 0.52127 0.88815 0.85067
 H1469 H 0.56544 0.85602 0.75678
 H1470 H 0.54464 0.82272 0.77453
 H1471 H 0.53314 0.92385 0.84985
 H1472 H 0.51232 0.89060 0.86756
 H1473 H 0.55749 0.94062 0.81784
 H1474 H 0.57869 0.89730 0.75851
 H1475 H 0.52043 0.80578 0.80689
 H1476 H 0.50036 0.84915 0.86659
 C1477 C 0.68052 0.55675 0.12113
 C1478 C 0.67987 0.58135 0.12003
 C1479 C 0.69151 0.59296 0.10138
 C1480 C 0.70372 0.58029 0.08331
 C1481 C 0.70393 0.55532 0.08508
 C1482 C 0.69255 0.54362 0.10386
 C1483 C 0.66825 0.54448 0.14072
 C1484 C 0.66914 0.51983 0.14198
 C1485 C 0.65749 0.50826 0.16065
 C1486 C 0.64474 0.52115 0.17786
 C1487 C 0.64400 0.54591 0.17622
 C1488 C 0.65582 0.55765 0.15777
 C1489 C 0.69309 0.51894 0.10575
 C1490 C 0.68164 0.50726 0.12451
 C1491 C 0.66729 0.59395 0.13746
 C1492 C 0.65543 0.58230 0.15598
 H1493 H 0.70242 0.50855 0.09258
 H1494 H 0.68248 0.48822 0.12528
 H1495 H 0.66656 0.61299 0.13677
 H1496 H 0.64590 0.59268 0.16901
 H1497 H 0.68956 0.61189 0.10049
 H1498 H 0.71389 0.54465 0.07269
 H1499 H 0.65858 0.48925 0.16192
 H1500 H 0.63400 0.55602 0.18911
 C1501 C 0.17405 1.05272 0.62230
 C1502 C 0.19012 1.04084 0.60750
 C1503 C 0.20138 1.05328 0.58913
 C1504 C 0.19657 1.07743 0.58544
 C1505 C 0.18015 1.08894 0.60034
 C1506 C 0.16896 1.07672 0.61886
 C1507 C 0.16239 1.03982 0.64183
 C1508 C 0.14652 1.05179 0.65680
 C1509 C 0.13564 1.03948 0.67547
 C1510 C 0.14038 1.01535 0.67908
 C1511 C 0.15625 1.00360 0.66382
 C1512 C 0.16738 1.01578 0.64522
 C1513 C 0.15285 1.08805 0.63407
 C1514 C 0.14186 1.07581 0.65276
 C1515 C 0.19470 1.01678 0.61148
 C1516 C 0.18349 1.00446 0.62999
 H1517 H 0.14877 1.10658 0.63158
 H1518 H 0.12962 1.08523 0.66414
 H1519 H 0.20705 1.00740 0.60020
 H1520 H 0.18751 0.98592 0.63243
 H1521 H 0.21416 1.04428 0.57801
 H1522 H 0.17594 1.10738 0.59743
 H1523 H 0.12326 1.04856 0.68701
 H1524 H 0.16016 0.98508 0.66667
 C1525 C 0.18063 0.96074 0.88288
 C1526 C 0.17104 0.95985 0.90589
 C1527 C 0.18369 0.94840 0.92430
 C1528 C 0.20604 0.93754 0.92007
 C1529 C 0.21527 0.93926 0.89651
 C1530 C 0.20269 0.95059 0.87806
 C1531 C 0.16727 0.97251 0.86342
 C1532 C 0.17694 0.97338 0.84038
 C1533 C 0.16421 0.98454 0.82194
 C1534 C 0.14195 0.99485 0.82639
 C1535 C 0.13251 0.99386 0.84963
 C1536 C 0.14511 0.98266 0.86822
 C1537 C 0.21188 0.95198 0.85480
 C1538 C 0.19921 0.96315 0.83627
 C1539 C 0.14876 0.97017 0.91001
 C1540 C 0.13603 0.98140 0.89151
 H1541 H 0.22898 0.94427 0.85083
 H1542 H 0.20690 0.96376 0.81859
 H1543 H 0.14108 0.96957 0.92769
 H1544 H 0.11895 0.98914 0.89548
 H1545 H 0.17508 0.94701 0.94143
 H1546 H 0.23277 0.93282 0.89228
 H1547 H 0.17178 0.98556 0.80421
 H1548 H 0.11532 1.00160 0.85317
 C1549 C 0.68211 0.46239 0.38041
 C1550 C 0.68294 0.43771 0.38003
 C1551 C 0.69597 0.42558 0.39762
 C1552 C 0.70772 0.43795 0.41573
 C1553 C 0.70650 0.46267 0.41608
 C1554 C 0.69391 0.47503 0.39825
 C1555 C 0.66872 0.47524 0.36171
 C1556 C 0.66838 0.49993 0.36169
 C1557 C 0.65611 0.51206 0.34350
 C1558 C 0.64389 0.49968 0.32560
 C1559 C 0.64404 0.47487 0.32631
 C1560 C 0.65666 0.46259 0.34412
 C1561 C 0.69293 0.49973 0.39779
 C1562 C 0.68050 0.51197 0.37974
 C1563 C 0.67065 0.42565 0.36213
 C1564 C 0.65763 0.43788 0.34455
 H1565 H 0.70199 0.50970 0.41140
 H1566 H 0.68035 0.53103 0.37994
 H1567 H 0.67109 0.40660 0.36172
 H1568 H 0.64841 0.42792 0.33105
 H1569 H 0.69668 0.40651 0.39752
 H1570 H 0.71560 0.47219 0.43000
 H1571 H 0.65653 0.53110 0.34303
 H1572 H 0.63437 0.46506 0.31303
 C1573 C 0.81421 0.45759 0.61424
 C1574 C 0.79017 0.45202 0.61514
 C1575 C 0.77987 0.44027 0.59585
 C1576 C 0.79353 0.43358 0.57593
 C1577 C 0.81769 0.43937 0.57543
 C1578 C 0.82805 0.45151 0.59444
 C1579 C 0.82514 0.46993 0.63450
 C1580 C 0.84912 0.47581 0.63345
 C1581 C 0.85937 0.48771 0.65267
 C1582 C 0.84588 0.49332 0.67296
 C1583 C 0.82194 0.48708 0.67385
 C1584 C 0.81140 0.47557 0.65454
 C1585 C 0.85203 0.45755 0.59412
 C1586 C 0.86236 0.46960 0.61324
 C1587 C 0.77693 0.45819 0.63537
 C1588 C 0.78739 0.46966 0.65479
 H1589 H 0.86291 0.45298 0.57893
 H1590 H 0.88089 0.47400 0.61224
 H1591 H 0.75835 0.45397 0.63628
 H1592 H 0.77658 0.47399 0.67010
 H1593 H 0.76120 0.43641 0.59637
 H1594 H 0.82857 0.43404 0.56051
 H1595 H 0.87786 0.49238 0.65204
 H1596 H 0.81149 0.49158 0.68939
 C1597 C 0.31830 -0.03456 0.11778
 C1598 C 0.29855 -0.04887 0.12125
 C1599 C 0.28939 -0.06131 0.10183
 C1600 C 0.29957 -0.05910 0.07904
 C1601 C 0.31907 -0.04436 0.07572
 C1602 C 0.32872 -0.03226 0.09515
 C1603 C 0.32837 -0.02191 0.13828
 C1604 C 0.34852 -0.00816 0.13497
 C1605 C 0.35827 0.00352 0.15459
 C1606 C 0.34771 0.00203 0.17736
 C1607 C 0.32731 -0.01171 0.18022
 C1608 C 0.31775 -0.02391 0.16081
 C1609 C 0.34874 -0.01813 0.09251
 C1610 C 0.35855 -0.00640 0.11211
 C1611 C 0.28844 -0.05051 0.14407
 C1612 C 0.29779 -0.03813 0.16349
 H1613 H 0.35699 -0.01626 0.07518
 H1614 H 0.37408 0.00420 0.10932
 H1615 H 0.27315 -0.06144 0.14695
 H1616 H 0.28942 -0.03984 0.18078
 H1617 H 0.27429 -0.07260 0.10432
 H1618 H 0.32701 -0.04283 0.05819
 H1619 H 0.37425 0.01351 0.15211
 H1620 H 0.31873 -0.01278 0.19744
 C1621 C 0.31038 0.05702 0.38520
 C1622 C 0.28835 0.06809 0.38165
 C1623 C 0.27745 0.07954 0.40090
 C1624 C 0.28847 0.07995 0.42353
 C1625 C 0.31042 0.06843 0.42676
 C1626 C 0.32149 0.05705 0.40766
 C1627 C 0.32210 0.04524 0.36499
 C1628 C 0.34416 0.03428 0.36857
 C1629 C 0.35521 0.02305 0.34937
 C1630 C 0.34428 0.02249 0.32671
 C1631 C 0.32220 0.03375 0.32338
 C1632 C 0.31103 0.04516 0.34249
 C1633 C 0.34355 0.04585 0.41054
 C1634 C 0.35471 0.03469 0.39132
 C1635 C 0.27782 0.06766 0.35888
 C1636 C 0.28894 0.05637 0.33965
 H1637 H 0.35229 0.04577 0.42780
 H1638 H 0.37173 0.02627 0.39429
 H1639 H 0.26084 0.07614 0.35589
 H1640 H 0.28019 0.05643 0.32240
 H1641 H 0.26071 0.08857 0.39813
 H1642 H 0.31888 0.06829 0.44416
 H1643 H 0.37237 0.01483 0.35204
 H1644 H 0.31354 0.03323 0.30610
 C1645 C 0.80921 0.55097 0.87990
 C1646 C 0.78491 0.55592 0.87854
 C1647 C 0.77374 0.56700 0.89783
 C1648 C 0.78679 0.57358 0.91822
 C1649 C 0.81122 0.56851 0.91910
 C1650 C 0.82245 0.55705 0.90013
 C1651 C 0.82103 0.53923 0.85973
 C1652 C 0.84525 0.53389 0.86132
 C1653 C 0.85630 0.52232 0.84231
 C1654 C 0.84339 0.51648 0.82170
 C1655 C 0.81922 0.52232 0.82018
 C1656 C 0.80787 0.53350 0.83930
 C1657 C 0.84670 0.55164 0.90094
 C1658 C 0.85788 0.54014 0.88192
 C1659 C 0.77230 0.54976 0.85787
 C1660 C 0.78361 0.53884 0.83854
 H1661 H 0.85710 0.55624 0.91647
 H1662 H 0.87658 0.53616 0.88333
 H1663 H 0.75355 0.55351 0.85658
 H1664 H 0.77324 0.53444 0.82292
 H1665 H 0.75491 0.57040 0.89696
 H1666 H 0.82166 0.57387 0.93434
 H1667 H 0.87495 0.51794 0.84342
 H1668 H 0.80923 0.51763 0.80439
 C1669 C 0.12371 0.67544 0.54854
 C1670 C 0.12839 0.69686 0.55987
 C1671 C 0.11015 0.70845 0.57206
 C1672 C 0.08735 0.69887 0.57278
 C1673 C 0.08288 0.67754 0.56104
 C1674 C 0.10107 0.66565 0.54903
 C1675 C 0.14293 0.66296 0.53605
 C1676 C 0.13835 0.64137 0.52504
 C1677 C 0.15672 0.62950 0.51331
 C1678 C 0.17949 0.63922 0.51225
 C1679 C 0.18370 0.66096 0.52337
 C1680 C 0.16552 0.67283 0.53540
 C1681 C 0.09714 0.64406 0.53772
 C1682 C 0.11549 0.63209 0.52598
 C1683 C 0.15122 0.70618 0.55885
 C1684 C 0.16946 0.69440 0.54675
 H1685 H 0.07977 0.63629 0.53801
 H1686 H 0.11173 0.61545 0.51754
 H1687 H 0.15504 0.72271 0.56748
 H1688 H 0.18681 0.70221 0.54637
 H1689 H 0.11362 0.72496 0.58092
 H1690 H 0.06543 0.66996 0.56178
 H1691 H 0.15331 0.61262 0.50519
 H1692 H 0.20100 0.66883 0.52238
 C1693 C 0.62915 0.18221 1.05518
 C1694 C 0.62652 0.17891 1.07990
 C1695 C 0.60812 0.19061 1.09173
 C1696 C 0.59242 0.20557 1.07904
 C1697 C 0.59543 0.20875 1.05425
 C1698 C 0.61374 0.19707 1.04222
 C1699 C 0.64829 0.16971 1.04259
 C1700 C 0.65077 0.17282 1.01782
 C1701 C 0.66878 0.16064 1.00588
 C1702 C 0.68423 0.14541 1.01852
 C1703 C 0.68164 0.14269 1.04341
 C1704 C 0.66364 0.15475 1.05552
 C1705 C 0.61691 0.19989 1.01748
 C1706 C 0.63510 0.18796 1.00548
 C1707 C 0.64225 0.16384 1.09225
 C1708 C 0.66051 0.15198 1.08027
 H1709 H 0.60516 0.21134 1.00729
 H1710 H 0.63686 0.19053 0.98638
 H1711 H 0.64040 0.16115 1.11133
 H1712 H 0.67221 0.14048 1.09045
 H1713 H 0.60577 0.18774 1.11074
 H1714 H 0.58364 0.22043 1.04436
 H1715 H 0.67086 0.16308 0.98678
 H1716 H 0.69331 0.13082 1.05321
 C1717 C 0.88261 0.17803 0.95763
 C1718 C 0.87684 0.19831 0.94448
 C1719 C 0.89467 0.21040 0.93239
 C1720 C 0.91875 0.20293 0.93359
 C1721 C 0.92383 0.18233 0.94744
 C1722 C 0.90595 0.16984 0.95911
 C1723 C 0.86381 0.16512 0.97012
 C1724 C 0.86953 0.14459 0.98306
 C1725 C 0.85157 0.13235 0.99483
 C1726 C 0.82805 0.14079 0.99420
 C1727 C 0.82275 0.16156 0.98119
 C1728 C 0.84049 0.17362 0.96895
 C1729 C 0.91104 0.14928 0.97240
 C1730 C 0.89313 0.13681 0.98404
 C1731 C 0.85322 0.20613 0.94348
 C1732 C 0.83538 0.19409 0.95564
 H1733 H 0.92903 0.14271 0.97372
 H1734 H 0.89783 0.12101 0.99400
 H1735 H 0.84849 0.22181 0.93334
 H1736 H 0.81744 0.20082 0.95454
 H1737 H 0.88898 0.22499 0.92128
 H1738 H 0.94167 0.17606 0.95030
 H1739 H 0.85594 0.11622 1.00436
 H1740 H 0.80492 0.16861 0.98088
 C1741 C 0.38016 0.67757 0.45221
 C1742 C 0.40378 0.67130 0.45680
 C1743 C 0.42184 0.68426 0.44602
 C1744 C 0.41646 0.70301 0.43015
 C1745 C 0.39252 0.70860 0.42541
 C1746 C 0.37438 0.69625 0.43669
 C1747 C 0.36111 0.66445 0.46403
 C1748 C 0.33753 0.67130 0.46015
 C1749 C 0.31954 0.65934 0.47214
 C1750 C 0.32488 0.64017 0.48749
 C1751 C 0.34871 0.63312 0.49047
 C1752 C 0.36687 0.64546 0.47918
 C1753 C 0.35054 0.70230 0.43286
 C1754 C 0.33244 0.69018 0.44456
 C1755 C 0.40886 0.65222 0.47215
 C1756 C 0.39071 0.63940 0.48299
 H1757 H 0.34584 0.71671 0.42092
 H1758 H 0.31431 0.69560 0.44133
 H1759 H 0.42701 0.64712 0.47579
 H1760 H 0.39540 0.62480 0.49469
 H1761 H 0.44001 0.67986 0.45030
 H1762 H 0.38786 0.72243 0.41280
 H1763 H 0.30147 0.66538 0.46989
 H1764 H 0.35324 0.61809 0.50164
 C1765 C 0.61813 0.80790 0.45926
 C1766 C 0.59966 0.79739 0.47196
 C1767 C 0.58016 0.78872 0.45935
 C1768 C 0.57911 0.79053 0.43423
 C1769 C 0.59810 0.80070 0.42182
 C1770 C 0.61754 0.80957 0.43423
 C1771 C 0.63834 0.81767 0.47242
 C1772 C 0.65656 0.82858 0.45971
 C1773 C 0.67546 0.83833 0.47230
 C1774 C 0.67636 0.83709 0.49746
 C1775 C 0.65802 0.82579 0.50990
 C1776 C 0.63891 0.81617 0.49746
 C1777 C 0.63625 0.82034 0.42212
 C1778 C 0.65541 0.82975 0.43465
 C1779 C 0.60093 0.79607 0.49702
 C1780 C 0.62024 0.80525 0.50955
 H1781 H 0.63599 0.82171 0.40280
 H1782 H 0.66939 0.83809 0.42464
 H1783 H 0.58682 0.78798 0.50704
 H1784 H 0.62047 0.80396 0.52887
 H1785 H 0.56559 0.78114 0.46912
 H1786 H 0.59774 0.80177 0.40248
 H1787 H 0.68920 0.84731 0.46253
 H1788 H 0.65865 0.82443 0.52921
 C1789 C 0.12141 0.30403 -0.04306
 C1790 C 0.10377 0.29248 -0.03007
 C1791 C 0.08397 0.28389 -0.04221
 C1792 C 0.08172 0.28691 -0.06714
 C1793 C 0.09985 0.29816 -0.07989
 C1794 C 0.11966 0.30686 -0.06793
 C1795 C 0.14189 0.31376 -0.03032
 C1796 C 0.15927 0.32573 -0.04327
 C1797 C 0.17831 0.33563 -0.03100
 C1798 C 0.18003 0.33366 -0.00594
 C1799 C 0.16263 0.32121 0.00671
 C1800 C 0.14346 0.31132 -0.00538
 C1801 C 0.13758 0.31862 -0.08033
 C1802 C 0.15704 0.32793 -0.06820
 C1803 C 0.10612 0.29011 -0.00516
 C1804 C 0.12564 0.29935 0.00697
 H1805 H 0.13643 0.32087 -0.09954
 H1806 H 0.17035 0.33709 -0.07840
 H1807 H 0.09266 0.28120 0.00508
 H1808 H 0.12667 0.29731 0.02621
 H1809 H 0.07003 0.27546 -0.03220
 H1810 H 0.09852 0.30021 -0.09911
 H1811 H 0.19139 0.34545 -0.04088
 H1812 H 0.16395 0.31933 0.02596
 C1813 C 0.38702 0.30759 0.05002
 C1814 C 0.38683 0.28359 0.05605
 C1815 C 0.40674 0.27341 0.06713
 C1816 C 0.42658 0.28716 0.07272
 C1817 C 0.42634 0.31126 0.06649
 C1818 C 0.40672 0.32150 0.05497
 C1819 C 0.36614 0.31839 0.03835
 C1820 C 0.36653 0.34230 0.03188
 C1821 C 0.34683 0.35237 0.02037
 C1822 C 0.32674 0.33879 0.01575
 C1823 C 0.32643 0.31497 0.02271
 C1824 C 0.34624 0.30459 0.03380
 C1825 C 0.40636 0.34542 0.04846
 C1826 C 0.38665 0.35561 0.03698
 C1827 C 0.36666 0.27030 0.05103
 C1828 C 0.34667 0.28065 0.04021
 H1829 H 0.42147 0.35633 0.05218
 H1830 H 0.38714 0.37408 0.03212
 H1831 H 0.36628 0.25177 0.05564
 H1832 H 0.33146 0.26979 0.03672
 H1833 H 0.40674 0.25479 0.07137
 H1834 H 0.44118 0.32224 0.07105
 H1835 H 0.34700 0.37075 0.01506
 H1836 H 0.31102 0.30447 0.01892
 C1837 C 0.88429 0.80583 0.55335
 C1838 C 0.88190 0.78439 0.56570
 C1839 C 0.90174 0.77423 0.57699
 C1840 C 0.92380 0.78543 0.57602
 C1841 C 0.92586 0.80676 0.56325
 C1842 C 0.90617 0.81707 0.55197
 C1843 C 0.86347 0.81676 0.54170
 C1844 C 0.86591 0.83819 0.52939
 C1845 C 0.84615 0.84841 0.51816
 C1846 C 0.82406 0.83729 0.51898
 C1847 C 0.82186 0.81592 0.53167
 C1848 C 0.84155 0.80555 0.54305
 C1849 C 0.90791 0.83850 0.53949
 C1850 C 0.88811 0.84889 0.52840
 C1851 C 0.85967 0.77372 0.56669
 C1852 C 0.83984 0.78410 0.55553
 H1853 H 0.92471 0.84734 0.53832
 H1854 H 0.89020 0.86543 0.51894
 H1855 H 0.85757 0.75719 0.57617
 H1856 H 0.82305 0.77525 0.55669
 H1857 H 0.89991 0.75797 0.58699
 H1858 H 0.94281 0.81533 0.56209
 H1859 H 0.84795 0.86502 0.50876
 H1860 H 0.80500 0.80711 0.53219
   
