data_POSCAR
  _audit_creation_date              2014-09-24
  _audit_creation_method            'ToBaCCo'
  _symmetry_space_group_name_H-M    'P1'
  _symmetry_Int_Tables_number       1
  _symmetry_cell_setting            triclinic
  loop_
  _symmetry_equiv_pos_as_xyz
 x,y,z
_cell_length_a 57.9953
_cell_length_b 57.1970
_cell_length_c 58.6585
_cell_angle_alpha 90.648200
_cell_angle_beta 89.067700
_cell_angle_gamma 90.484400
loop_
  _atom_site_label
  _atom_site_type_symbol
  _atom_site_fract_x
  _atom_site_fract_y
  _atom_site_fract_z
C1 C 0.34124 1.33578 0.30635
 C2 C 0.32397 1.34739 0.31948
 C3 C 0.31471 1.33692 0.33950
 C4 C 0.32356 1.31535 0.34639
 C5 C 0.34087 1.30407 0.33373
 C6 C 0.34891 1.31389 0.31350
 H7 H 0.31754 1.36397 0.31391
 H8 H 0.31681 1.30711 0.36168
 H9 H 0.36227 1.30479 0.30383
 C10 C 0.35076 0.85835 0.81686
 C11 C 0.36252 0.83952 0.82625
 C12 C 0.35445 0.82896 0.84642
 C13 C 0.33418 0.83747 0.85721
 C14 C 0.32212 0.85633 0.84781
 C15 C 0.33065 0.86638 0.82762
 H16 H 0.37771 0.83263 0.81769
 H17 H 0.32750 0.82890 0.87222
 H18 H 0.32156 0.88083 0.82010
 C19 C 0.84895 1.35841 0.82773
 C20 C 0.85800 1.33675 0.83428
 C21 C 0.84816 1.32466 0.85279
 C22 C 0.82931 1.33424 0.86465
 C23 C 0.82018 1.35590 0.85870
 C24 C 0.83016 1.36784 0.84005
 H25 H 0.87183 1.32875 0.82450
 H26 H 0.82175 1.32466 0.87882
 H27 H 0.82332 1.38430 0.83453
 C28 C 0.85029 0.84297 0.31249
 C29 C 0.83047 0.85142 0.32411
 C30 C 0.82217 0.84035 0.34401
 C31 C 0.83381 0.82088 0.35224
 C32 C 0.85371 0.81249 0.34113
 C33 C 0.86156 0.82340 0.32122
 H34 H 0.82092 0.86579 0.31735
 H35 H 0.82697 0.81206 0.36715
 H36 H 0.87679 0.81659 0.31253
 C37 C 0.66181 0.64949 0.31522
 C38 C 0.68130 0.63903 0.32428
 C39 C 0.69022 0.64647 0.34514
 C40 C 0.67983 0.66533 0.35680
 C41 C 0.66043 0.67644 0.34787
 C42 C 0.65138 0.66829 0.32701
 H43 H 0.68942 0.62462 0.31513
 H44 H 0.68708 0.67180 0.37256
 H45 H 0.63703 0.67705 0.31941
 C46 C 0.65529 0.15056 0.81228
 C47 C 0.67529 0.14560 0.82457
 C48 C 0.68156 0.15913 0.84371
 C49 C 0.66798 0.17832 0.85018
 C50 C 0.64790 0.18372 0.83824
 C51 C 0.64179 0.16990 0.81930
 H52 H 0.68613 0.13125 0.81897
 H53 H 0.67336 0.18916 0.86440
 H54 H 0.62666 0.17481 0.81007
 C55 C 1.16342 0.65662 0.80762
 C56 C 1.14980 0.67419 0.81768
 C57 C 1.15648 0.68539 0.83798
 C58 C 1.17718 0.67867 0.84836
 C59 C 1.19117 0.66144 0.83796
 C60 C 1.18431 0.65090 0.81751
 H61 H 1.13406 0.67948 0.80956
 H62 H 1.18294 0.68733 0.86376
 H63 H 1.19504 0.63755 0.80958
 C64 C 1.13922 0.13212 0.32416
 C65 C 1.15794 0.12246 0.33550
 C66 C 1.16859 0.13414 0.35381
 C67 C 1.15977 0.15599 0.36115
 C68 C 1.14088 0.16588 0.35005
 C69 C 1.13095 0.15399 0.33159
 H70 H 1.16455 0.10567 0.32973
 H71 H 1.16760 0.16556 0.37499
 H72 H 1.11690 0.16232 0.32308
 C73 C 0.63861 1.36951 0.66700
 C74 C 0.65823 1.37614 0.65428
 C75 C 0.66546 1.36313 0.63492
 C76 C 0.65260 1.34325 0.62861
 C77 C 0.63273 1.33650 0.64097
 C78 C 0.62600 1.34954 0.66031
 H79 H 0.66795 1.39113 0.66020
 H80 H 0.65853 1.33267 0.61429
 H81 H 0.61126 1.34368 0.67031
 C82 C 0.67389 0.83342 1.19477
 C83 C 0.66430 0.81223 1.18674
 C84 C 0.67505 0.79995 1.16864
 C85 C 0.69539 0.80880 1.15880
 C86 C 0.70454 0.83025 1.16601
 C87 C 0.69406 0.84220 1.18438
 H88 H 0.64896 0.80501 1.19480
 H89 H 0.70345 0.79956 1.14456
 H90 H 0.70144 0.85852 1.19051
 C91 C 1.17024 1.33402 1.19843
 C92 C 1.15998 1.31468 1.18705
 C93 C 1.17199 1.30327 1.16901
 C94 C 1.19373 1.31168 1.16206
 C95 C 1.20361 1.33120 1.17272
 C96 C 1.19222 1.34167 1.19121
 H97 H 1.14331 1.30799 1.19244
 H98 H 1.20289 1.30307 1.14811
 H99 H 1.20026 1.35671 1.19940
 C100 C 1.16635 0.83949 0.68902
 C101 C 1.15662 0.81793 0.68208
 C102 C 1.16667 0.80528 0.66387
 C103 C 1.18613 0.81424 0.65254
 C104 C 1.19532 0.83619 0.65833
 C105 C 1.18555 0.84848 0.67701
 H106 H 1.14198 0.81051 0.69118
 H107 H 1.19356 0.80434 0.63838
 H108 H 1.19280 0.86495 0.68268
 C109 C 0.35509 0.63900 0.67639
 C110 C 0.33879 0.62773 0.66277
 C111 C 0.33196 0.63727 0.64213
 C112 C 0.34197 0.65845 0.63475
 C113 C 0.35880 0.66996 0.64807
 C114 C 0.36499 0.66017 0.66899
 H115 H 0.33103 0.61145 0.66849
 H116 H 0.33659 0.66575 0.61881
 H117 H 0.37730 0.66932 0.67960
 C118 C 0.33839 0.15556 1.18461
 C119 C 0.31834 0.14746 1.17369
 C120 C 0.30820 0.16031 1.15633
 C121 C 0.31773 0.18189 1.15035
 C122 C 0.33791 0.19022 1.16043
 C123 C 0.34849 0.17699 1.17744
 H124 H 0.31030 0.13127 1.17915
 H125 H 0.30968 0.19210 1.13722
 H126 H 0.36384 0.18395 1.18530
 C127 C 0.84882 0.65176 1.19095
 C128 C 0.83023 0.63915 1.18141
 C129 C 0.81799 0.64809 1.16293
 C130 C 0.82454 0.66995 1.15387
 C131 C 0.84298 0.68270 1.16326
 C132 C 0.85471 0.67358 1.18177
 H133 H 0.82481 0.62252 1.18829
 H134 H 0.81482 0.67755 1.14030
 H135 H 0.86885 0.68363 1.18896
 C136 C 0.85842 0.13191 0.67458
 C137 C 0.84027 0.12177 0.66230
 C138 C 0.82975 0.13346 0.64426
 C139 C 0.83832 0.15578 0.63802
 C140 C 0.85664 0.16616 0.65010
 C141 C 0.86628 0.15431 0.66836
 H142 H 0.83394 0.10458 0.66715
 H143 H 0.83076 0.16536 0.62430
 H144 H 0.88002 0.16297 0.67742
 C145 C 1.34780 0.34646 0.68061
 C146 C 1.32627 0.35567 0.67448
 C147 C 1.31393 0.34538 0.65645
 C148 C 1.32321 0.32633 0.64445
 C149 C 1.34500 0.31759 0.64952
 C150 C 1.35703 0.32766 0.66789
 H151 H 1.31858 0.36992 0.68411
 H152 H 1.31345 0.31858 0.63060
 H153 H 1.37342 0.32077 0.67296
 C154 C 1.32627 0.83815 1.19629
 C155 C 1.33952 0.81972 1.18760
 C156 C 1.33621 0.81091 1.16552
 C157 C 1.31806 0.81993 1.15267
 C158 C 1.30407 0.83802 1.16134
 C159 C 1.30860 0.84750 1.18315
 H160 H 1.35319 0.81281 1.19794
 H161 H 1.31422 0.81278 1.13602
 H162 H 1.29804 0.86131 1.19035
 C163 C 0.85028 0.35339 1.18015
 C164 C 0.83079 0.36645 1.17424
 C165 C 0.81899 0.36152 1.15395
 C166 C 0.82661 0.34298 1.13983
 C167 C 0.84623 0.32999 1.14512
 C168 C 0.85778 0.33529 1.16555
 H169 H 0.82449 0.38017 1.18550
 H170 H 0.81712 0.33835 1.12467
 H171 H 0.87239 0.32517 1.17073
 C172 C 0.84726 0.85030 0.68124
 C173 C 0.85363 0.83016 0.66893
 C174 C 0.84260 0.82393 0.64862
 C175 C 0.82448 0.83765 0.64100
 C176 C 0.81785 0.85808 0.65290
 C177 C 0.82925 0.86423 0.67315
 H178 H 0.86707 0.81919 0.67547
 H179 H 0.81544 0.83204 0.62589
 H180 H 0.82377 0.87956 0.68272
 C181 C 0.65350 0.66612 0.68295
 C182 C 0.67514 0.65588 0.67785
 C183 C 0.68897 0.66462 0.65984
 C184 C 0.68099 0.68314 0.64685
 C185 C 0.65926 0.69274 0.65098
 C186 C 0.64573 0.68441 0.66927
 H187 H 0.68175 0.64212 0.68836
 H188 H 0.69167 0.68985 0.63300
 H189 H 0.62931 0.69247 0.67326
 C190 C 0.65455 1.16846 1.19028
 C191 C 0.67281 1.15689 1.17924
 C192 C 0.68188 1.16502 1.15842
 C193 C 0.67208 1.18491 1.14842
 C194 C 0.65371 1.19676 1.15956
 C195 C 0.64565 1.18859 1.18072
 H196 H 0.68023 1.14166 1.18702
 H197 H 0.67921 1.19147 1.13263
 H198 H 0.63154 1.19741 1.18953
 C199 C 0.14670 0.66152 1.18758
 C200 C 0.13691 0.68215 1.17963
 C201 C 0.14126 0.69019 1.15754
 C202 C 0.15770 0.67845 1.14381
 C203 C 0.16932 0.65878 1.15195
 C204 C 0.16314 0.64983 1.17363
 H205 H 0.12439 0.69132 1.19034
 H206 H 0.16223 0.68486 1.12705
 H207 H 0.17121 0.63414 1.17958
 C208 C 0.14385 1.14685 0.67618
 C209 C 0.13688 1.16576 0.66293
 C210 C 0.15010 1.17290 0.64373
 C211 C 0.17047 1.16075 0.63827
 C212 C 0.17749 1.14173 0.65130
 C213 C 0.16437 1.13519 0.67039
 H214 H 0.12139 1.17486 0.66812
 H215 H 0.18108 1.16640 0.62396
 H216 H 0.17047 1.12114 0.68086
 C217 C 1.36781 0.63591 0.33705
 C218 C 1.37430 0.65457 0.35131
 C219 C 1.36071 0.66091 0.37054
 C220 C 1.34038 0.64814 0.37511
 C221 C 1.33381 0.62917 0.36114
 C222 C 1.34745 0.62337 0.34202
 H223 H 1.38956 0.66444 0.34657
 H224 H 1.32941 0.65340 0.38934
 H225 H 1.34172 0.60944 0.33078
 C226 C 1.35770 1.13555 0.82717
 C227 C 1.33824 1.12857 0.83997
 C228 C 1.33184 1.14069 0.86006
 C229 C 1.34501 1.16004 0.86712
 C230 C 1.36457 1.16748 0.85447
 C231 C 1.37050 1.15521 0.83436
 H232 H 1.32793 1.11399 0.83392
 H233 H 1.33930 1.16942 0.88222
 H234 H 1.38496 1.16135 0.82410
 C235 C 0.86127 0.62755 0.83862
 C236 C 0.84107 0.62221 0.85108
 C237 C 0.83443 0.63587 0.87015
 C238 C 0.84811 0.65509 0.87648
 C239 C 0.86839 0.66067 0.86424
 C240 C 0.87471 0.64698 0.84525
 H241 H 0.83030 0.60783 0.84538
 H242 H 0.84239 0.66606 0.89058
 H243 H 0.88977 0.65209 0.83532
 C244 C 0.86224 1.13004 0.33124
 C245 C 0.84297 1.12323 0.34434
 C246 C 0.83751 1.13472 0.36501
 C247 C 0.85142 1.15338 0.37235
 C248 C 0.87087 1.16043 0.35948
 C249 C 0.87605 1.14878 0.33888
 H250 H 0.83186 1.10947 0.33788
 H251 H 0.84648 1.16278 0.38774
 H252 H 0.89045 1.15497 0.32859
 C253 C 0.65522 0.35488 0.31447
 C254 C 0.64504 0.33510 0.32519
 C255 C 0.65570 0.32494 0.34430
 C256 C 0.67615 0.33513 0.35255
 C257 C 0.68599 0.35489 0.34241
 C258 C 0.67574 0.36427 0.32330
 H259 H 0.62944 0.32748 0.31850
 H260 H 0.68472 0.32731 0.36682
 H261 H 0.68380 0.37944 0.31544
 C262 C 0.64344 0.86635 0.81650
 C263 C 0.63362 0.84525 0.82426
 C264 C 0.63987 0.83587 0.84539
 C265 C 0.65668 0.84774 0.85848
 C266 C 0.66634 0.86895 0.85080
 C267 C 0.65945 0.87810 0.83007
 H268 H 0.62140 0.83584 0.81376
 H269 H 0.66235 0.84076 0.87446
 H270 H 0.66711 0.89436 0.82415
 C271 C 0.15488 0.34447 0.80848
 C272 C 0.14966 0.32234 0.81726
 C273 C 0.16110 0.31370 0.83616
 C274 C 0.17867 0.32715 0.84625
 C275 C 0.18474 0.34918 0.83729
 C276 C 0.17272 0.35768 0.81853
 H277 H 0.13613 0.31179 0.80962
 H278 H 0.18809 0.31999 0.86028
 H279 H 0.17781 0.37448 0.81181
 C280 C 0.13136 0.87089 0.32686
 C281 C 0.12395 0.84829 0.33310
 C282 C 0.13390 0.83662 0.35139
 C283 C 0.15207 0.84747 0.36334
 C284 C 0.15987 0.86997 0.35714
 C285 C 0.14916 0.88151 0.33927
 H286 H 0.11031 0.83941 0.32408
 H287 H 0.16010 0.83849 0.37721
 H288 H 0.15519 0.89886 0.33464
 O289 O 0.97636 0.91385 0.88614
 O290 O 0.97564 0.88569 0.86019
 C291 C 0.96857 0.90537 0.86766
 C292 C 0.95099 0.91864 0.85504
 C293 C 0.94390 0.91157 0.83307
 H294 H 0.95147 0.89630 0.82495
 O295 O 1.03191 1.08109 0.88688
 O296 O 1.03500 1.10703 0.85944
 C297 C 1.04103 1.08789 0.86822
 C298 C 1.05910 1.07365 0.85679
 C299 C 1.06716 1.07945 0.83486
 H300 H 1.05911 1.09364 0.82603
 O301 O 0.88432 0.98145 0.91241
 O302 O 0.85995 0.98167 0.88396
 C303 C 0.86611 0.97374 0.90304
 C304 C 0.85277 0.95464 0.91417
 C305 C 0.83294 0.94474 0.90410
 H306 H 0.82645 0.95176 0.88840
 O307 O 1.11761 1.01478 0.92105
 O308 O 1.14593 1.01285 0.89556
 C309 C 1.13722 1.02163 0.91374
 C310 C 1.14993 1.04025 0.92620
 C311 C 1.17257 1.04604 0.91960
 H312 H 1.18093 1.03639 0.90582
 O313 O 0.90956 0.88895 0.97574
 O314 O 0.88155 0.86261 0.97486
 C315 C 0.90137 0.86976 0.96828
 C316 C 0.91500 0.85579 0.95166
 C317 C 0.90915 0.83240 0.94709
 H318 H 0.89469 0.82438 0.95607
 O319 O 1.08964 1.11219 0.97904
 O320 O 1.11846 1.13758 0.97985
 C321 C 1.09955 1.13042 0.97146
 C322 C 1.08925 1.14299 0.95229
 C323 C 1.09875 1.16421 0.94481
 H324 H 1.11327 1.17192 0.95365
 O325 O 0.92149 1.02489 0.88377
 O326 O 0.89693 1.02581 0.85550
 C327 C 0.91543 1.03297 0.86472
 C328 C 0.92977 1.05119 0.85338
 C329 C 0.92377 1.05948 0.83182
 H330 H 0.90875 1.05218 0.82364
 O331 O 1.08606 0.96968 0.88862
 O332 O 1.11421 0.96773 0.86297
 C333 C 1.09463 0.96088 0.87040
 C334 C 1.08171 0.94223 0.85814
 C335 C 1.08967 0.93310 0.83706
 H336 H 1.10507 0.94041 0.82922
 O337 O 1.01917 0.88158 0.91881
 O338 O 1.01908 0.85333 0.89293
 C339 C 1.02680 0.86213 0.91133
 C340 C 1.04522 0.85011 0.92398
 C341 C 1.05418 0.82853 0.91624
 H342 H 1.04700 0.82014 0.90130
 O343 O 0.98752 1.11725 0.91535
 O344 O 0.99102 1.14327 0.88803
 C345 C 0.98134 1.13623 0.90629
 C346 C 0.96206 1.14976 0.91652
 C347 C 0.95577 1.17126 0.90722
 H348 H 0.96577 1.17857 0.89321
 O349 O 0.88634 1.09278 0.96908
 O350 O 0.86102 1.12116 0.96680
 C351 C 0.86852 1.10136 0.96017
 C352 C 0.85687 1.08811 0.94170
 C353 C 0.83553 1.09529 0.93313
 H354 H 0.82708 1.11040 0.94060
 O355 O 1.10965 0.91234 0.98387
 O356 O 1.13471 0.88368 0.98591
 C357 C 1.12833 0.90281 0.97730
 C358 C 1.14221 0.91363 0.95880
 C359 C 1.16369 0.90442 0.95222
 H360 H 1.17070 0.88985 0.96143
 O361 O 0.98708 1.08337 0.88582
 O362 O 0.99028 1.10934 0.85842
 C363 C 0.98072 1.09118 0.86676
 C364 C 0.96167 1.07944 0.85440
 C365 C 0.95543 1.08732 0.83281
 H366 H 0.96510 1.10147 0.82494
 O367 O 1.02128 0.91270 0.88734
 O368 O 1.02078 0.88464 0.86125
 C369 C 1.02934 0.90354 0.86913
 C370 C 1.04939 0.91454 0.85748
 C371 C 1.05740 0.90583 0.83641
 H372 H 1.04819 0.89159 0.82816
 O373 O 1.11574 0.96934 0.92132
 O374 O 1.14407 0.96729 0.89587
 C375 C 1.13458 0.96041 0.91432
 C376 C 1.14514 0.94155 0.92766
 C377 C 1.16664 0.93215 0.92129
 H378 H 1.17605 0.93966 0.90706
 O379 O 0.88725 1.02718 0.91270
 O380 O 0.86254 1.02739 0.88453
 C381 C 0.86956 1.03561 0.90341
 C382 C 0.85738 1.05558 0.91430
 C383 C 0.83602 1.06280 0.90617
 H384 H 0.82800 1.05311 0.89239
 O385 O 0.92055 1.12221 0.96963
 O386 O 0.89560 1.15092 0.96726
 C387 C 0.91436 1.14129 0.96087
 C388 C 0.92897 1.15204 0.94280
 C389 C 0.92288 1.17344 0.93316
 H390 H 0.90792 1.18263 0.93976
 O391 O 1.07641 0.88204 0.98182
 O392 O 1.10142 0.85333 0.98379
 C393 C 1.08396 0.86244 0.97467
 C394 C 1.07282 0.85037 0.95517
 C395 C 1.08116 0.82873 0.94740
 H396 H 1.09520 0.82054 0.95621
 O397 O 1.08813 1.01525 0.88848
 O398 O 1.11622 1.01343 0.86274
 C399 C 1.09752 1.02241 0.87012
 C400 C 1.08675 1.04171 0.85761
 C401 C 1.09471 1.04787 0.83572
 H402 H 1.10857 1.03807 0.82761
 O403 O 0.91917 0.97922 0.88432
 O404 O 0.89488 0.98025 0.85582
 C405 C 0.91233 0.97142 0.86520
 C406 C 0.92425 0.95151 0.85389
 C407 C 0.91804 0.94462 0.83183
 H408 H 0.90528 0.95454 0.82281
 O409 O 1.03259 1.11457 0.91718
 O410 O 1.03602 1.14056 0.88984
 C411 C 1.04231 1.13265 0.90890
 C412 C 1.06146 1.14406 0.92142
 C413 C 1.07148 1.16517 0.91389
 H414 H 1.06455 1.17377 0.89919
 O415 O 0.97420 0.88350 0.91863
 O416 O 0.97392 0.85496 0.89304
 C417 C 0.96595 0.86430 0.91124
 C418 C 0.94662 0.85305 0.92379
 C419 C 0.94052 0.82965 0.91937
 H420 H 0.95076 0.81958 0.90729
 O421 O 1.11925 1.07875 0.98048
 O422 O 1.14834 1.10380 0.98127
 C423 C 1.13904 1.08531 0.97328
 C424 C 1.15096 1.07149 0.95507
 C425 C 1.17361 1.07722 0.94793
 H426 H 1.18276 1.09132 0.95639
 O427 O 0.87908 0.92146 0.97252
 O428 O 0.85095 0.89530 0.97166
 C429 C 0.86067 0.91351 0.96378
 C430 C 0.85070 0.92501 0.94384
 C431 C 0.83136 0.91517 0.93338
 H432 H 0.82330 0.89961 0.94042
 Cu433 Cu 0.99771 0.90070 0.90530
 Cu434 Cu 0.99723 0.86681 0.87425
 Cu435 Cu 1.00954 1.09655 0.90414
 Cu436 Cu 1.01344 1.12768 0.87122
 Cu437 Cu 0.90543 1.00313 0.90120
 Cu438 Cu 0.87615 1.00390 0.86710
 Cu439 Cu 1.09902 0.99235 0.90737
 Cu440 Cu 1.13295 0.99016 0.87672
 C441 C 0.94095 0.93863 0.86526
 H442 H 0.94581 0.94393 0.88232
 C443 C 0.92749 0.92470 0.82138
 C444 C 1.06885 1.05465 0.86795
 H445 H 1.06285 1.05026 0.88496
 C446 C 1.08515 1.06682 0.82428
 C447 C 0.86121 0.94482 0.93426
 H448 H 0.87652 0.95210 0.94205
 C449 C 0.82233 0.92485 0.91370
 C450 C 1.13932 1.05291 0.94411
 H451 H 1.12176 1.04862 0.94917
 C452 C 1.18447 1.06453 0.93013
 C453 C 0.93387 0.86592 0.94007
 H454 H 0.93834 0.88406 0.94338
 C455 C 0.92175 0.81920 0.93098
 C456 C 1.07045 1.13321 0.94067
 H457 H 1.06317 1.11672 0.94631
 C458 C 1.09020 1.17529 0.92555
 C459 C 0.94889 1.06116 0.86447
 H460 H 0.95342 1.05515 0.88125
 C461 C 0.93659 1.07750 0.82135
 C462 C 1.06150 0.93288 0.86808
 H463 H 1.05549 0.93947 0.88449
 C464 C 1.07755 0.91477 0.82613
 C465 C 1.05471 0.86083 0.94349
 H466 H 1.04831 0.87763 0.94934
 C467 C 1.07229 0.81783 0.92787
 C468 C 0.94868 1.14040 0.93443
 H469 H 0.95325 1.12366 0.94145
 C470 C 0.93606 1.18300 0.91514
 C471 C 0.86754 1.06818 0.93220
 H472 H 0.88414 1.06276 0.93839
 C473 C 0.82499 1.08260 0.91533
 C474 C 1.13320 0.93229 0.94654
 H475 H 1.11646 0.93920 0.95134
 C476 C 1.17593 0.91334 0.93337
 O477 O 1.00559 0.91868 1.11390
 O478 O 1.00238 0.89239 1.14101
 C479 C 1.01164 0.91082 1.13306
 C480 C 1.03002 0.92287 1.14593
 C481 C 1.03610 0.91501 1.16756
 H482 H 1.02664 0.90058 1.17518
 O483 O 0.97221 1.09205 1.10504
 O484 O 0.97229 1.11957 1.13171
 C485 C 0.96411 1.10067 1.12351
 C486 C 0.94513 1.08853 1.13569
 C487 C 0.94015 1.09403 1.15857
 H488 H 0.95038 1.10721 1.16729
 O489 O 0.87758 1.03475 1.07422
 O490 O 0.84970 1.03712 1.10013
 C491 C 0.85914 1.04419 1.08175
 C492 C 0.84899 1.06395 1.06925
 C493 C 0.82805 1.07402 1.07658
 H494 H 0.81874 1.06643 1.09083
 O495 O 1.10310 0.97451 1.08733
 O496 O 1.12756 0.97466 1.11575
 C497 C 1.12073 0.96627 1.09686
 C498 C 1.13317 0.94651 1.08605
 C499 C 1.15393 0.93875 1.09503
 H500 H 1.16114 0.94775 1.10967
 O501 O 1.07186 0.88367 1.02605
 O502 O 1.09669 0.85477 1.02791
 C503 C 1.07781 0.86421 1.03418
 C504 C 1.06298 0.85258 1.05143
 C505 C 1.06782 0.82973 1.05796
 H506 H 1.08186 0.82033 1.04968
 O507 O 0.91693 1.12520 1.01375
 O508 O 0.89207 1.15403 1.01174
 C509 C 0.90972 1.14503 1.02060
 C510 C 0.92190 1.15719 1.03941
 C511 C 0.91519 1.17957 1.04720
 H512 H 0.90136 1.18852 1.03884
 O513 O 0.90442 0.98735 1.10641
 O514 O 0.87647 0.98974 1.13226
 C515 C 0.89484 0.98022 1.12476
 C516 C 0.90481 0.96033 1.13721
 C517 C 0.89485 0.95294 1.15797
 H518 H 0.88020 0.96220 1.16523
 O519 O 1.07149 1.02294 1.11451
 O520 O 1.09571 1.02294 1.14312
 C521 C 1.07831 1.03140 1.13335
 C522 C 1.06624 1.05165 1.14372
 C523 C 1.07141 1.05917 1.16594
 H524 H 1.08332 1.04910 1.17575
 O525 O 0.96137 0.88703 1.08148
 O526 O 0.95820 0.86068 1.10853
 C527 C 0.95195 0.86869 1.08955
 C528 C 0.93301 0.85717 1.07700
 C529 C 0.92311 0.83602 1.08452
 H530 H 0.93032 0.82738 1.09906
 O531 O 1.02114 1.12107 1.07614
 O532 O 1.02085 1.14878 1.10259
 C533 C 1.02968 1.13964 1.08469
 C534 C 1.05070 1.15018 1.07437
 C535 C 1.05950 1.17133 1.08295
 H536 H 1.05010 1.18067 1.09628
 O537 O 0.87629 0.92417 1.01693
 O538 O 0.84796 0.89822 1.01613
 C539 C 0.85660 0.91718 1.02384
 C540 C 0.84408 0.93088 1.04160
 C541 C 0.82305 0.92267 1.05075
 H542 H 0.81526 0.90690 1.04385
 O543 O 1.11577 1.07925 1.02497
 O544 O 1.14486 1.10430 1.02599
 C545 C 1.13456 1.08622 1.03361
 C546 C 1.14402 1.07356 1.05317
 C547 C 1.16543 1.08003 1.06225
 H548 H 1.17563 1.09356 1.05407
 O549 O 1.01667 1.08980 1.10754
 O550 O 1.01650 1.11754 1.13399
 C551 C 1.02345 1.09783 1.12661
 C552 C 1.03969 1.08423 1.14029
 C553 C 1.04517 1.09158 1.16248
 H554 H 1.03719 1.10711 1.16972
 O555 O 0.96106 0.92155 1.11025
 O556 O 0.95767 0.89541 1.13748
 C557 C 0.95142 0.91447 1.12850
 C558 C 0.93240 0.92827 1.13903
 C559 C 0.92229 0.92133 1.15981
 H560 H 0.92950 0.90666 1.16860
 O561 O 1.10600 1.01981 1.08608
 O562 O 1.13035 1.01989 1.11459
 C563 C 1.12448 1.02715 1.09516
 C564 C 1.13903 1.04466 1.08324
 C565 C 1.16054 1.05123 1.09197
 H566 H 1.16688 1.04291 1.10712
 O567 O 0.87533 0.98916 1.07356
 O568 O 0.84730 0.99135 1.09932
 C569 C 0.85582 0.98242 1.08114
 C570 C 0.84354 0.96314 1.06934
 C571 C 0.82239 0.95484 1.07801
 H572 H 0.81431 0.96349 1.09257
 O573 O 1.08821 1.11452 1.02329
 O574 O 1.11710 1.13980 1.02439
 C575 C 1.09724 1.13317 1.03128
 C576 C 1.08439 1.14683 1.04897
 C577 C 1.09335 1.16781 1.05831
 H578 H 1.10980 1.17458 1.05226
 O579 O 0.90466 0.88949 1.01978
 O580 O 0.87631 0.86356 1.01870
 C581 C 0.89490 0.87105 1.02730
 C582 C 0.90505 0.85847 1.04649
 C583 C 0.89545 0.83725 1.05404
 H584 H 0.88081 0.82963 1.04532
 O585 O 1.06932 0.97738 1.11661
 O586 O 1.09368 0.97742 1.14509
 C587 C 1.07535 0.96988 1.13592
 C588 C 1.06120 0.95173 1.14744
 C589 C 1.06715 0.94354 1.16908
 H590 H 1.08193 0.95113 1.17744
 O591 O 0.90845 1.03287 1.10558
 O592 O 0.88079 1.03516 1.13176
 C593 C 0.90041 1.04157 1.12401
 C594 C 0.91400 1.05960 1.13618
 C595 C 0.90912 1.06537 1.15911
 H596 H 0.89559 1.05597 1.16811
 O597 O 0.97604 1.12373 1.07382
 O598 O 0.97592 1.15133 1.10038
 C599 C 0.96875 1.14321 1.08152
 C600 C 0.95122 1.15622 1.06885
 C601 C 0.94461 1.17863 1.07610
 H602 H 0.95318 1.18684 1.09045
 O603 O 1.00635 0.88628 1.08266
 O604 O 1.00331 0.85976 1.10956
 C605 C 1.01278 0.86720 1.09129
 C606 C 1.03172 0.85396 1.07993
 C607 C 1.03746 0.83125 1.08686
 H608 H 1.02785 0.82296 1.10058
 O609 O 1.10671 0.91228 1.02845
 O610 O 1.13171 0.88360 1.03058
 C611 C 1.12412 0.90315 1.03770
 C612 C 1.13505 0.91537 1.05726
 C613 C 1.15581 0.90754 1.06671
 H614 H 1.16452 0.89264 1.05912
 O615 O 0.88432 1.09424 1.01345
 O616 O 0.85916 1.12282 1.01151
 C617 C 0.86575 1.10381 1.02028
 C618 C 0.85217 1.09300 1.03906
 C619 C 0.83123 1.10278 1.04658
 H620 H 0.82451 1.11794 1.03806
 Cu621 Cu 0.98396 0.90592 1.09431
 Cu622 Cu 0.98011 0.87445 1.12689
 Cu623 Cu 0.99651 1.10398 1.08784
 Cu624 Cu 0.99633 1.13722 1.11971
 Cu625 Cu 0.89520 0.90867 0.99639
 Cu626 Cu 0.86126 0.87741 0.99517
 Cu627 Cu 1.08877 0.90056 1.00491
 Cu628 Cu 1.11863 0.86596 1.00731
 Cu629 Cu 0.90450 1.10576 0.99165
 Cu630 Cu 0.87442 1.14010 0.98904
 Cu631 Cu 1.10038 1.09366 1.00190
 Cu632 Cu 1.13516 1.12385 1.00293
 Cu633 Cu 0.89423 1.01088 1.08737
 Cu634 Cu 0.86072 1.01362 1.11842
 Cu635 Cu 1.08497 0.99865 1.09831
 Cu636 Cu 1.11424 0.99877 1.13255
 C637 C 1.04246 0.94144 1.13614
 H638 H 1.03803 0.94737 1.11930
 C639 C 1.05457 0.92517 1.17932
 C640 C 0.93211 1.07119 1.12468
 H641 H 0.93587 1.06695 1.10696
 C642 C 0.92230 1.08255 1.17045
 C643 C 0.86080 1.07351 1.05040
 H644 H 0.87710 1.06607 1.04488
 C645 C 0.81916 1.09364 1.06545
 C646 C 1.12400 0.93489 1.06707
 H647 H 1.10787 0.94081 1.06020
 C648 C 1.16538 0.91932 1.08566
 C649 C 1.04464 0.86444 1.06219
 H650 H 1.04084 0.88213 1.05713
 C651 C 1.05544 0.81908 1.07570
 C652 C 0.93998 1.14578 1.05033
 H653 H 0.94494 1.12837 1.04481
 C654 C 0.92656 1.19036 1.06563
 C655 C 0.92362 0.94789 1.12791
 H656 H 0.93114 0.95321 1.11175
 C657 C 0.90324 0.93332 1.16924
 C658 C 1.05022 1.06417 1.13108
 H659 H 1.04635 1.05860 1.11384
 C660 C 1.06110 1.07931 1.17539
 C661 C 0.92392 0.86813 1.05792
 H662 H 0.93120 0.88463 1.05227
 C663 C 0.90416 0.82602 1.07316
 C664 C 1.06305 1.13827 1.05717
 H665 H 1.05629 1.12187 1.05059
 C666 C 1.08084 1.18012 1.07534
 C667 C 0.85410 0.95125 1.05091
 H668 H 0.87066 0.95732 1.04440
 C669 C 0.81238 0.93438 1.06921
 C670 C 1.13101 1.05575 1.06370
 H671 H 1.11428 1.05096 1.05708
 C672 C 1.17366 1.06907 1.08180
 O673 O 0.97699 0.40991 0.38987
 O674 O 0.97622 0.38213 0.36354
 C675 C 0.96855 0.40128 0.37172
 C676 C 0.94951 0.41383 0.36044
 C677 C 0.94167 0.40728 0.33855
 H678 H 0.94975 0.39291 0.32941
 O679 O 1.02176 0.58282 0.38717
 O680 O 1.02052 0.60951 0.36042
 C681 C 1.02907 0.59087 0.36829
 C682 C 1.04789 0.57835 0.35583
 C683 C 1.05645 0.58604 0.33452
 H684 H 1.04897 0.60116 0.32665
 O685 O 0.88709 0.47302 0.42540
 O686 O 0.85944 0.47206 0.40001
 C687 C 0.86815 0.46463 0.41826
 C688 C 0.85643 0.44564 0.43094
 C689 C 0.83475 0.43734 0.42410
 H690 H 0.82612 0.44588 0.41030
 O691 O 1.11213 0.52082 0.41571
 O692 O 1.13890 0.52155 0.38857
 C693 C 1.13068 0.52935 0.40738
 C694 C 1.14256 0.54866 0.41967
 C695 C 1.16555 0.55463 0.41422
 H696 H 1.17480 0.54461 0.40131
 O697 O 0.91944 0.38015 0.48504
 O698 O 0.89259 0.35261 0.48586
 C699 C 0.91134 0.36086 0.47768
 C700 C 0.92378 0.34812 0.45924
 C701 C 0.91772 0.32499 0.45361
 H702 H 0.90408 0.31622 0.46314
 O703 O 1.08061 0.61862 0.47619
 O704 O 1.10747 0.64613 0.47512
 C705 C 1.08854 0.63768 0.46816
 C706 C 1.07596 0.64986 0.45014
 C707 C 1.08258 0.67244 0.44357
 H708 H 1.09643 0.68135 0.45243
 O709 O 0.91740 0.51851 0.39240
 O710 O 0.88972 0.51741 0.36706
 C711 C 0.90866 0.52585 0.37412
 C712 C 0.92031 0.54472 0.36115
 C713 C 0.91200 0.55125 0.33986
 H714 H 0.89751 0.54185 0.33260
 O715 O 1.08180 0.47377 0.38494
 O716 O 1.10823 0.47418 0.35750
 C717 C 1.08983 0.46564 0.36621
 C718 C 1.07776 0.44566 0.35502
 C719 C 1.08561 0.43617 0.33403
 H720 H 1.10024 0.44410 0.32532
 O721 O 1.02372 0.38008 0.41947
 O722 O 1.02318 0.35185 0.39357
 C723 C 1.03169 0.36097 0.41148
 C724 C 1.05128 0.34963 0.42306
 C725 C 1.05878 0.32711 0.41650
 H726 H 1.04982 0.31759 0.40323
 O727 O 0.97660 0.61251 0.42077
 O728 O 0.97465 0.63950 0.39435
 C729 C 0.96763 0.63096 0.41325
 C730 C 0.94855 0.64229 0.42638
 C731 C 0.93978 0.66378 0.41928
 H732 H 0.94780 0.67246 0.40488
 O733 O 0.88496 0.57882 0.48688
 O734 O 0.85757 0.60534 0.48756
 C735 C 0.86593 0.58640 0.47969
 C736 C 0.85391 0.57359 0.46130
 C737 C 0.83217 0.58088 0.45427
 H738 H 0.82364 0.59520 0.46314
 O739 O 1.11937 0.41506 0.47569
 O740 O 1.14658 0.38839 0.47437
 C741 C 1.13789 0.40707 0.46687
 C742 C 1.14874 0.41952 0.44729
 C743 C 1.17006 0.41241 0.43768
 H744 H 1.17922 0.39812 0.44524
 O745 O 0.97677 0.58204 0.38792
 O746 O 0.97512 0.60866 0.36112
 C747 C 0.96807 0.58953 0.36966
 C748 C 0.94915 0.57604 0.35883
 C749 C 0.94040 0.58252 0.33756
 H750 H 0.94828 0.59697 0.32852
 O751 O 1.02187 0.41174 0.38847
 O752 O 1.02135 0.38375 0.36231
 C753 C 1.02923 0.40316 0.36971
 C754 C 1.04769 0.41545 0.35678
 C755 C 1.05541 0.40658 0.33570
 H756 H 1.04706 0.39128 0.32838
 O757 O 1.11385 0.47520 0.41537
 O758 O 1.14029 0.47609 0.38794
 C759 C 1.13278 0.46800 0.40673
 C760 C 1.14604 0.44961 0.41818
 C761 C 1.16742 0.44257 0.40913
 H762 H 1.17455 0.45129 0.39426
 O763 O 0.88616 0.51852 0.42477
 O764 O 0.85849 0.51746 0.39942
 C765 C 0.86695 0.52583 0.41763
 C766 C 0.85458 0.54447 0.43050
 C767 C 0.83289 0.55227 0.42347
 H768 H 0.82476 0.54400 0.40896
 O769 O 0.91657 0.61092 0.48468
 O770 O 0.88936 0.63763 0.48528
 C771 C 0.90805 0.62950 0.47682
 C772 C 0.91963 0.64156 0.45738
 C773 C 0.91125 0.66307 0.44993
 H774 H 0.89673 0.67111 0.45875
 O775 O 1.08708 0.38371 0.47712
 O776 O 1.11397 0.35665 0.47600
 C777 C 1.09488 0.36460 0.46911
 C778 C 1.08185 0.35157 0.45143
 C779 C 1.08868 0.32901 0.44493
 H780 H 1.10310 0.32098 0.45328
 O781 O 1.08043 0.51959 0.38520
 O782 O 1.10701 0.52000 0.35790
 C783 C 1.08827 0.52766 0.36650
 C784 C 1.07613 0.54675 0.35494
 C785 C 1.08391 0.55425 0.33350
 H786 H 1.09798 0.54519 0.32492
 O787 O 0.91772 0.47271 0.39280
 O788 O 0.89012 0.47191 0.36737
 C789 C 0.90912 0.46430 0.37466
 C790 C 0.92101 0.44519 0.36203
 C791 C 0.91386 0.43877 0.34015
 H792 H 0.90013 0.44841 0.33229
 O793 O 1.02126 0.61679 0.41683
 O794 O 1.01975 0.64384 0.39046
 C795 C 1.02828 0.63615 0.40867
 C796 C 1.04685 0.64926 0.42052
 C797 C 1.05401 0.67185 0.41377
 H798 H 1.04545 0.68032 0.39989
 O799 O 0.97868 0.37953 0.42233
 O800 O 0.97801 0.35141 0.39631
 C801 C 0.97084 0.36007 0.41515
 C802 C 0.95288 0.34769 0.42868
 C803 C 0.94661 0.32454 0.42327
 H804 H 0.95581 0.31546 0.40971
 O805 O 1.11078 0.58534 0.47512
 O806 O 1.13787 0.61263 0.47384
 C807 C 1.12953 0.59326 0.46674
 C808 C 1.14183 0.57977 0.44867
 C809 C 1.16480 0.58526 0.44313
 H810 H 1.17352 0.59927 0.45224
 O811 O 0.88812 0.41207 0.48587
 O812 O 0.86108 0.38471 0.48649
 C813 C 0.86924 0.40370 0.47859
 C814 C 0.85694 0.41588 0.46041
 C815 C 0.83526 0.40779 0.45331
 H816 H 0.82716 0.39296 0.46165
 Cu817 Cu 1.00030 0.39807 0.40763
 Cu818 Cu 0.99960 0.36446 0.37632
 Cu819 Cu 0.99937 0.59589 0.40574
 Cu820 Cu 0.99731 0.62807 0.37395
 Cu821 Cu 0.90488 0.49587 0.41139
 Cu822 Cu 0.87170 0.49462 0.38089
 Cu823 Cu 1.09435 0.49721 0.40299
 Cu824 Cu 1.12622 0.49806 0.37020
 C825 C 0.93899 0.43282 0.37193
 H826 H 0.94453 0.43778 0.38887
 C827 C 0.92389 0.41994 0.32827
 C828 C 1.05793 0.55866 0.36583
 H829 H 1.05197 0.55291 0.38246
 C830 C 1.07453 0.57394 0.32331
 C831 C 0.86733 0.43492 0.44923
 H832 H 0.88423 0.44100 0.45436
 C833 C 0.82423 0.41818 0.43499
 C834 C 1.13087 0.56128 0.43701
 H835 H 1.11310 0.55693 0.44121
 C836 C 1.17679 0.57285 0.42603
 C837 C 0.94149 0.35926 0.44679
 H838 H 0.94606 0.37721 0.45087
 C839 C 0.92893 0.31311 0.43562
 C840 C 1.05795 0.63856 0.43875
 H841 H 1.05295 0.62105 0.44378
 C842 C 1.07190 0.68357 0.42542
 C843 C 0.93903 0.55703 0.37038
 H844 H 0.94534 0.55219 0.38694
 C845 C 0.92171 0.57016 0.32802
 C846 C 1.05873 0.43516 0.36615
 H847 H 1.05289 0.44192 0.38255
 C848 C 1.07446 0.41650 0.32435
 C849 C 1.06296 0.36167 0.44059
 H850 H 1.05764 0.37913 0.44553
 C851 C 1.07747 0.31671 0.42750
 C852 C 0.93841 0.63133 0.44556
 H853 H 0.94482 0.61459 0.45099
 C854 C 0.92097 0.67413 0.43082
 C855 C 0.86487 0.55519 0.44950
 H856 H 0.88180 0.54967 0.45471
 C857 C 0.82169 0.57062 0.43524
 C858 C 1.13697 0.43819 0.43739
 H859 H 1.12036 0.44350 0.44429
 C860 C 1.17946 0.42394 0.41847
 O861 O 1.02757 0.41487 0.61268
 O862 O 1.02971 0.38832 0.63952
 C863 C 1.03661 0.40745 0.63075
 C864 C 1.05557 0.42105 0.64142
 C865 C 1.06382 0.41485 0.66291
 H866 H 1.05566 0.40057 0.67200
 O867 O 0.97982 0.58335 0.61745
 O868 O 0.98067 0.61062 0.64433
 C869 C 0.97294 0.59131 0.63668
 C870 C 0.95562 0.57799 0.65009
 C871 C 0.95030 0.58421 0.67277
 H872 H 0.95929 0.59874 0.68078
 O873 O 0.88970 0.51977 0.59145
 O874 O 0.86361 0.51927 0.61923
 C875 C 0.87112 0.52742 0.60042
 C876 C 0.85839 0.54633 0.58916
 C877 C 0.83715 0.55391 0.59815
 H878 H 0.82965 0.54536 0.61294
 O879 O 1.12012 0.48000 0.57759
 O880 O 1.14728 0.48138 0.60347
 C881 C 1.13916 0.47283 0.58519
 C882 C 1.15157 0.45370 0.57320
 C883 C 1.17334 0.44685 0.58052
 H884 H 1.18168 0.45648 0.59416
 O885 O 1.08908 0.38323 0.52132
 O886 O 1.11589 0.35612 0.52041
 C887 C 1.09715 0.36422 0.52868
 C888 C 1.08449 0.35172 0.54713
 C889 C 1.09071 0.32899 0.55364
 H890 H 1.10480 0.32021 0.54489
 O891 O 0.91672 0.61348 0.52910
 O892 O 0.88955 0.64024 0.52975
 C893 C 0.90858 0.63258 0.53685
 C894 C 0.92116 0.64545 0.55482
 C895 C 0.91414 0.66773 0.56238
 H896 H 0.89991 0.67613 0.55415
 O897 O 0.92217 0.47433 0.62064
 O898 O 0.89600 0.47349 0.64832
 C899 C 0.91462 0.46597 0.63932
 C900 C 0.92745 0.44697 0.65032
 C901 C 0.92095 0.43889 0.67208
 H902 H 0.90702 0.44744 0.68124
 O903 O 1.08773 0.52463 0.61008
 O904 O 1.11477 0.52564 0.63609
 C905 C 1.09570 0.53280 0.62862
 C906 C 1.08284 0.55107 0.64138
 C907 C 1.08988 0.55847 0.66316
 H908 H 1.10444 0.55020 0.67101
 O909 O 0.98182 0.38013 0.58563
 O910 O 0.98346 0.35330 0.61223
 C911 C 0.97451 0.36109 0.59424
 C912 C 0.95509 0.34853 0.58313
 C913 C 0.94788 0.32588 0.58968
 H914 H 0.95682 0.31689 0.60301
 O915 O 1.02266 0.61602 0.58345
 O916 O 1.02337 0.64336 0.61027
 C917 C 1.03044 0.63531 0.59117
 C918 C 1.04836 0.64825 0.57817
 C919 C 1.05580 0.67028 0.58580
 H920 H 1.04762 0.67835 0.60062
 O921 O 0.88838 0.41233 0.53020
 O922 O 0.86103 0.38530 0.53087
 C923 C 0.86947 0.40443 0.53830
 C924 C 0.85750 0.41766 0.55671
 C925 C 0.83438 0.41280 0.56273
 H926 H 0.82502 0.39950 0.55334
 O927 O 1.11362 0.58747 0.51935
 O928 O 1.14034 0.61511 0.51788
 C929 C 1.13262 0.59614 0.52611
 C930 C 1.14568 0.58446 0.54411
 C931 C 1.16663 0.59403 0.55151
 H932 H 1.17361 0.60956 0.54342
 O933 O 1.02446 0.58363 0.61379
 O934 O 1.02524 0.61086 0.64073
 C935 C 1.03286 0.59195 0.63202
 C936 C 1.05191 0.57973 0.64304
 C937 C 1.05890 0.58659 0.66486
 H938 H 1.04983 0.60045 0.67392
 O939 O 0.98271 0.41344 0.61582
 O940 O 0.98475 0.38682 0.64260
 C941 C 0.97606 0.40541 0.63495
 C942 C 0.95765 0.41750 0.64815
 C943 C 0.95100 0.40970 0.66989
 H944 H 0.95991 0.39515 0.67737
 O945 O 1.11869 0.52568 0.57772
 O946 O 1.14579 0.52705 0.60365
 C947 C 1.13720 0.53458 0.58537
 C948 C 1.14823 0.55437 0.57313
 C949 C 1.16930 0.56419 0.58034
 H950 H 1.17792 0.55682 0.59478
 O951 O 0.89023 0.47435 0.59034
 O952 O 0.86379 0.47386 0.61781
 C953 C 0.87152 0.46635 0.59873
 C954 C 0.85869 0.44808 0.58617
 C955 C 0.83567 0.44316 0.59189
 H956 H 0.82722 0.45307 0.60545
 O957 O 1.08123 0.61833 0.52075
 O958 O 1.10798 0.64595 0.51972
 C959 C 1.08954 0.63743 0.52838
 C960 C 1.07779 0.64929 0.54788
 C961 C 1.08562 0.67105 0.55633
 H962 H 1.10016 0.67979 0.54821
 O963 O 0.91999 0.38058 0.52929
 O964 O 0.89288 0.35329 0.53011
 C965 C 0.91192 0.36154 0.53713
 C966 C 0.92470 0.34900 0.55474
 C967 C 0.91819 0.32631 0.56093
 H968 H 0.90401 0.31769 0.55232
 O969 O 1.08793 0.47911 0.60868
 O970 O 1.11498 0.48022 0.63468
 C971 C 1.09629 0.47161 0.62704
 C972 C 1.08445 0.45249 0.63954
 C973 C 1.09222 0.44610 0.66107
 H974 H 1.10647 0.45558 0.66868
 O975 O 0.92187 0.51986 0.62143
 O976 O 0.89597 0.51914 0.64938
 C977 C 0.91434 0.52748 0.64052
 C978 C 0.92692 0.54666 0.65207
 C979 C 0.92166 0.55311 0.67472
 H980 H 0.90885 0.54314 0.68417
 O981 O 0.97797 0.61480 0.58604
 O982 O 0.97869 0.64222 0.61278
 C983 C 0.97036 0.63377 0.59454
 C984 C 0.95144 0.64587 0.58316
 C985 C 0.94441 0.66814 0.59045
 H986 H 0.95328 0.67686 0.60432
 O987 O 1.02677 0.38243 0.58159
 O988 O 1.02845 0.35560 0.60823
 C989 C 1.03529 0.36376 0.58919
 C990 C 1.05370 0.35156 0.57614
 C991 C 1.05981 0.32884 0.58201
 H992 H 1.05037 0.31999 0.59553
 O993 O 1.12043 0.41584 0.52024
 O994 O 1.14756 0.38908 0.51937
 C995 C 1.13941 0.40807 0.52743
 C996 C 1.15162 0.42131 0.54561
 C997 C 1.17315 0.41413 0.55380
 H998 H 1.18146 0.39881 0.54656
 O999 O 0.88612 0.58042 0.53149
 O1000 O 0.85881 0.60701 0.53228
 C1001 C 0.86757 0.58853 0.54018
 C1002 C 0.85659 0.57651 0.55998
 C1003 C 0.83551 0.58424 0.56963
 H1004 H 0.82666 0.59878 0.56212
 Cu1005 Cu 1.00445 0.40032 0.59622
 Cu1006 Cu 1.00688 0.36834 0.62833
 Cu1007 Cu 1.00106 0.59669 0.59747
 Cu1008 Cu 1.00209 0.62955 0.62973
 Cu1009 Cu 0.90668 0.39906 0.50757
 Cu1010 Cu 0.87414 0.36622 0.50842
 Cu1011 Cu 1.10143 0.40222 0.49880
 Cu1012 Cu 1.13375 0.36989 0.49741
 Cu1013 Cu 0.90378 0.59322 0.50805
 Cu1014 Cu 0.87106 0.62519 0.50870
 Cu1015 Cu 1.09380 0.59977 0.49798
 Cu1016 Cu 1.12606 0.63274 0.49637
 Cu1017 Cu 0.90868 0.49713 0.60324
 Cu1018 Cu 0.87720 0.49633 0.63649
 Cu1019 Cu 1.10097 0.50232 0.59084
 Cu1020 Cu 1.13345 0.50363 0.62205
 C1021 C 1.06596 0.43999 0.62988
 H1022 H 1.05998 0.44471 0.61316
 C1023 C 1.08224 0.42727 0.67275
 C1024 C 0.94397 0.55912 0.63998
 H1025 H 0.94786 0.55442 0.62240
 C1026 C 0.93329 0.57196 0.68519
 C1027 C 0.86782 0.55754 0.56994
 H1028 H 0.88426 0.55177 0.56300
 C1029 C 0.82572 0.57293 0.58875
 C1030 C 1.14105 0.44112 0.55550
 H1031 H 1.12420 0.44641 0.54986
 C1032 C 1.18408 0.42703 0.57122
 C1033 C 1.06591 0.36279 0.55850
 H1034 H 1.06124 0.38042 0.55398
 C1035 C 1.07825 0.31746 0.57106
 C1036 C 0.93987 0.63478 0.56523
 H1037 H 0.94512 0.61746 0.55972
 C1038 C 0.92571 0.67914 0.58031
 C1039 C 0.94589 0.43624 0.63859
 H1040 H 0.95077 0.44214 0.62169
 C1041 C 0.93259 0.42008 0.68194
 C1042 C 1.06377 0.56175 0.63151
 H1043 H 1.05850 0.55649 0.61456
 C1044 C 1.07794 0.57628 0.67492
 C1045 C 0.94328 0.35982 0.56570
 H1046 H 0.94831 0.37738 0.56084
 C1047 C 0.92949 0.31465 0.57835
 C1048 C 1.05913 0.63807 0.55896
 H1049 H 1.05342 0.62100 0.55308
 C1050 C 1.07453 0.68158 0.57527
 C1051 C 0.86943 0.43541 0.56846
 H1052 H 0.88731 0.43911 0.56409
 C1053 C 0.82334 0.42566 0.58031
 C1054 C 1.13676 0.56450 0.55482
 H1055 H 1.12039 0.55730 0.54935
 C1056 C 1.17864 0.58405 0.56944
 O1057 O 0.47015 0.91749 0.38052
 O1058 O 0.46803 0.88994 0.35404
 C1059 C 0.46093 0.90913 0.36265
 C1060 C 0.44154 0.92177 0.35209
 C1061 C 0.43205 0.91402 0.33132
 H1062 H 0.43908 0.89883 0.32257
 O1063 O 0.51974 1.08165 0.37941
 O1064 O 0.51984 1.10885 0.35306
 C1065 C 0.52732 1.08965 0.36061
 C1066 C 0.54550 1.07677 0.34789
 C1067 C 0.55342 1.08439 0.32642
 H1068 H 0.54545 1.09928 0.31859
 O1069 O 0.37815 0.98048 0.41581
 O1070 O 0.35038 0.98074 0.39061
 C1071 C 0.35910 0.97245 0.40851
 C1072 C 0.34767 0.95269 0.42066
 C1073 C 0.32670 0.94290 0.41301
 H1074 H 0.31835 0.95030 0.39843
 O1075 O 0.61178 1.01956 0.40711
 O1076 O 0.63808 1.01956 0.37949
 C1077 C 0.63053 1.02734 0.39855
 C1078 C 0.64366 1.04564 0.41089
 C1079 C 0.66668 1.05046 0.40483
 H1080 H 0.67493 1.04052 0.39118
 O1081 O 0.41241 0.88640 0.47397
 O1082 O 0.38526 0.85917 0.47525
 C1083 C 0.40406 0.86714 0.46686
 C1084 C 0.41649 0.85421 0.44856
 C1085 C 0.41163 0.83051 0.44386
 H1086 H 0.39874 0.82140 0.45401
 O1087 O 0.58546 1.11619 0.46746
 O1088 O 0.61294 1.14299 0.46569
 C1089 C 0.59381 1.13481 0.45883
 C1090 C 0.58118 1.14654 0.44034
 C1091 C 0.58855 1.16829 0.43146
 H1092 H 0.60340 1.17706 0.43863
 O1093 O 0.40950 1.02589 0.38366
 O1094 O 0.38194 1.02660 0.35824
 C1095 C 0.40116 1.03414 0.36553
 C1096 C 0.41403 1.05292 0.35330
 C1097 C 0.40624 1.06208 0.33252
 H1098 H 0.39082 1.05492 0.32493
 O1099 O 0.57933 0.97404 0.37648
 O1100 O 0.60546 0.97391 0.34874
 C1101 C 0.58679 0.96609 0.35747
 C1102 C 0.57379 0.94720 0.34580
 C1103 C 0.58217 0.93707 0.32539
 H1104 H 0.59771 0.94405 0.31751
 O1105 O 0.51675 0.88565 0.40870
 O1106 O 0.51488 0.85811 0.38217
 C1107 C 0.52403 0.86654 0.40008
 C1108 C 0.54367 0.85428 0.41062
 C1109 C 0.55131 0.83274 0.40164
 H1110 H 0.54243 0.82478 0.38737
 O1111 O 0.47758 1.11484 0.41349
 O1112 O 0.47712 1.14208 0.38718
 C1113 C 0.46996 1.13403 0.40615
 C1114 C 0.45219 1.14671 0.41963
 C1115 C 0.44411 1.16846 0.41248
 H1116 H 0.45161 1.17652 0.39745
 O1117 O 0.38588 1.08642 0.47808
 O1118 O 0.36032 1.11472 0.48028
 C1119 C 0.36719 1.09554 0.47160
 C1120 C 0.35362 1.08405 0.45339
 C1121 C 0.33254 1.09341 0.44665
 H1122 H 0.32574 1.10871 0.45542
 O1123 O 0.61459 0.91373 0.46575
 O1124 O 0.64073 0.88597 0.46400
 C1125 C 0.63294 0.90524 0.45703
 C1126 C 0.64467 0.91777 0.43813
 C1127 C 0.66654 0.91096 0.42980
 H1128 H 0.67544 0.89689 0.43802
 O1129 O 0.47464 1.08320 0.38172
 O1130 O 0.47492 1.11039 0.35535
 C1131 C 0.46644 1.09177 0.36368
 C1132 C 0.44642 1.08056 0.35251
 C1133 C 0.43865 1.08914 0.33176
 H1134 H 0.44805 1.10328 0.32355
 O1135 O 0.51532 0.91685 0.37731
 O1136 O 0.51329 0.88936 0.35074
 C1137 C 0.52223 0.90813 0.35843
 C1138 C 0.54174 0.91922 0.34600
 C1139 C 0.55028 0.90938 0.32556
 H1140 H 0.54163 0.89437 0.31804
 O1141 O 0.61192 0.97409 0.40628
 O1142 O 0.63811 0.97426 0.37858
 C1143 C 0.63055 0.96639 0.39744
 C1144 C 0.64333 0.94785 0.40903
 C1145 C 0.66521 0.94108 0.40107
 H1146 H 0.67310 0.94997 0.38667
 O1147 O 0.37999 1.02620 0.41735
 O1148 O 0.35219 1.02687 0.39219
 C1149 C 0.36125 1.03467 0.41039
 C1150 C 0.35052 1.05426 0.42338
 C1151 C 0.32944 1.06393 0.41677
 H1152 H 0.32076 1.05654 0.40218
 O1153 O 0.41989 1.11610 0.47714
 O1154 O 0.39436 1.14444 0.47931
 C1155 C 0.41241 1.13554 0.47035
 C1156 C 0.42436 1.14754 0.45133
 C1157 C 0.41680 1.16942 0.44419
 H1158 H 0.40280 1.17807 0.45329
 O1159 O 0.58080 0.88398 0.46579
 O1160 O 0.60664 0.85594 0.46391
 C1161 C 0.58802 0.86495 0.45702
 C1162 C 0.57490 0.85350 0.43830
 C1163 C 0.58214 0.83193 0.42904
 H1164 H 0.59667 0.82332 0.43648
 O1165 O 0.57938 1.01942 0.37720
 O1166 O 0.60549 1.01939 0.34943
 C1167 C 0.58694 1.02721 0.35831
 C1168 C 0.57444 1.04598 0.34681
 C1169 C 0.58176 1.05350 0.32521
 H1170 H 0.59603 1.04486 0.31653
 O1171 O 0.41028 0.98044 0.38480
 O1172 O 0.38280 0.98084 0.35926
 C1173 C 0.40164 0.97262 0.36649
 C1174 C 0.41317 0.95332 0.35384
 C1175 C 0.40463 0.94582 0.33279
 H1176 H 0.39028 0.95486 0.32532
 O1177 O 0.52241 1.11404 0.41055
 O1178 O 0.52180 1.14125 0.38422
 C1179 C 0.53028 1.13297 0.40220
 C1180 C 0.54977 1.14541 0.41306
 C1181 C 0.55707 1.16716 0.40476
 H1182 H 0.54784 1.17506 0.39093
 O1183 O 0.47177 0.88585 0.41185
 O1184 O 0.47005 0.85806 0.38552
 C1185 C 0.46352 0.86658 0.40461
 C1186 C 0.44596 0.85408 0.41840
 C1187 C 0.44114 0.83045 0.41406
 H1188 H 0.45072 0.82125 0.40077
 O1189 O 0.61507 1.08253 0.46710
 O1190 O 0.64289 1.10903 0.46563
 C1191 C 0.63398 1.08990 0.45863
 C1192 C 0.64545 1.07618 0.44025
 C1193 C 0.66850 1.08076 0.43399
 H1194 H 0.67805 1.09392 0.44336
 O1195 O 0.38124 0.91865 0.47495
 O1196 O 0.35390 0.89167 0.47626
 C1197 C 0.36214 0.91044 0.46799
 C1198 C 0.34956 0.92237 0.44969
 C1199 C 0.32880 0.91287 0.44174
 H1200 H 0.32165 0.89727 0.44957
 Cu1201 Cu 0.49360 0.90428 0.39718
 Cu1202 Cu 0.49126 0.87115 0.36543
 Cu1203 Cu 0.49862 1.09564 0.39890
 Cu1204 Cu 0.49840 1.12834 0.36727
 Cu1205 Cu 0.39713 1.00331 0.40297
 Cu1206 Cu 0.36403 1.00377 0.37257
 Cu1207 Cu 0.59296 0.99673 0.39456
 Cu1208 Cu 0.62440 0.99685 0.36124
 C1209 C 0.43188 0.94145 0.36321
 H1210 H 0.43857 0.94720 0.37949
 C1211 C 0.41366 0.92613 0.32162
 C1212 C 0.55607 1.05746 0.35788
 H1213 H 0.55051 1.05184 0.37468
 C1214 C 0.57166 1.07284 0.31512
 C1215 C 0.35875 0.94239 0.43920
 H1216 H 0.37500 0.94953 0.44504
 C1217 C 0.31719 0.92291 0.42357
 C1218 C 0.63322 1.05847 0.42872
 H1219 H 0.61537 1.05495 0.43335
 C1220 C 0.67924 1.06794 0.41623
 C1221 C 0.43373 0.86577 0.43579
 H1222 H 0.43739 0.88409 0.43911
 C1223 C 0.42411 0.81850 0.42665
 C1224 C 0.56174 1.13535 0.43098
 H1225 H 0.55617 1.11848 0.43732
 C1226 C 0.57641 1.17871 0.41357
 C1227 C 0.43418 1.06231 0.36302
 H1228 H 0.44009 1.05579 0.37916
 C1229 C 0.41861 1.08031 0.32165
 C1230 C 0.55346 0.93827 0.35582
 H1231 H 0.54717 0.94568 0.37180
 C1232 C 0.57067 0.91787 0.31537
 C1233 C 0.55557 0.86447 0.42902
 H1234 H 0.55002 0.88121 0.43585
 C1235 C 0.57061 0.82153 0.41051
 C1236 C 0.44228 1.13644 0.43916
 H1237 H 0.44802 1.11940 0.44446
 C1238 C 0.42626 1.17974 0.42463
 C1239 C 0.36227 1.06432 0.44187
 H1240 H 0.37868 1.05723 0.44686
 C1241 C 0.32021 1.08348 0.42850
 C1242 C 0.63333 0.93630 0.42768
 H1243 H 0.61632 0.94137 0.43372
 C1244 C 0.67690 0.92261 0.41119
 O1245 O 0.52417 0.91536 0.60146
 O1246 O 0.52461 0.88821 0.62785
 C1247 C 0.53251 0.90717 0.61955
 C1248 C 0.55156 0.91964 0.63123
 C1249 C 0.55773 0.91286 0.65313
 H1250 H 0.54826 0.89883 0.66145
 O1251 O 0.48511 1.08434 0.61036
 O1252 O 0.48651 1.11187 0.63696
 C1253 C 0.47808 1.09283 0.62932
 C1254 C 0.45954 1.08065 0.64226
 C1255 C 0.45332 1.08788 0.66445
 H1256 H 0.46266 1.10213 0.67254
 O1257 O 0.39001 1.02534 0.58324
 O1258 O 0.36378 1.02557 0.61090
 C1259 C 0.37150 1.03334 0.59203
 C1260 C 0.35911 1.05190 0.58004
 C1261 C 0.33663 1.05837 0.58668
 H1262 H 0.32803 1.04933 0.60056
 O1263 O 0.61847 0.97679 0.57042
 O1264 O 0.64611 0.97592 0.59574
 C1265 C 0.63711 0.96814 0.57752
 C1266 C 0.64794 0.94827 0.56499
 C1267 C 0.66903 0.93929 0.57219
 H1268 H 0.67799 0.94805 0.58591
 O1269 O 0.58258 0.88190 0.51009
 O1270 O 0.60833 0.85376 0.50851
 C1271 C 0.58998 0.86242 0.51702
 C1272 C 0.57722 0.85018 0.53548
 C1273 C 0.58408 0.82801 0.54290
 H1274 H 0.59849 0.81931 0.53459
 O1275 O 0.42082 1.11653 0.52149
 O1276 O 0.39510 1.14470 0.52362
 C1277 C 0.41382 1.13576 0.53008
 C1278 C 0.42730 1.14760 0.54810
 C1279 C 0.42081 1.16978 0.55641
 H1280 H 0.40652 1.17863 0.54874
 O1281 O 0.42141 0.97914 0.61179
 O1282 O 0.39566 0.97919 0.63988
 C1283 C 0.41388 0.97105 0.63058
 C1284 C 0.42634 0.95166 0.64125
 C1285 C 0.42055 0.94411 0.66337
 H1286 H 0.40731 0.95320 0.67310
 O1287 O 0.58980 1.02254 0.60489
 O1288 O 0.61719 1.02161 0.63047
 C1289 C 0.59850 1.03007 0.62338
 C1290 C 0.58681 1.04923 0.63618
 C1291 C 0.59400 1.05662 0.65802
 H1292 H 0.60808 1.04781 0.66614
 O1293 O 0.47636 0.88355 0.57409
 O1294 O 0.47686 0.85631 0.60038
 C1295 C 0.46822 0.86478 0.58255
 C1296 C 0.44822 0.85313 0.57164
 C1297 C 0.44009 0.83106 0.57882
 H1298 H 0.44905 0.82200 0.59208
 O1299 O 0.52910 1.11566 0.57654
 O1300 O 0.53047 1.14337 0.60297
 C1301 C 0.53726 1.13495 0.58391
 C1302 C 0.55497 1.14753 0.57023
 C1303 C 0.56181 1.17036 0.57621
 H1304 H 0.55328 1.17902 0.59044
 O1305 O 0.38342 0.91968 0.51950
 O1306 O 0.35570 0.89308 0.52093
 C1307 C 0.36481 0.91195 0.52833
 C1308 C 0.35419 0.92473 0.54786
 C1309 C 0.33256 0.91790 0.55674
 H1310 H 0.32306 0.90390 0.54849
 O1311 O 0.61685 1.08435 0.51149
 O1312 O 0.64422 1.11131 0.51011
 C1313 C 0.63590 1.09260 0.51854
 C1314 C 0.64826 1.08071 0.53711
 C1315 C 0.66921 1.08986 0.54504
 H1316 H 0.67667 1.10521 0.53702
 O1317 O 0.53001 1.08354 0.60747
 O1318 O 0.53131 1.11112 0.63403
 C1319 C 0.53850 1.09188 0.62567
 C1320 C 0.55713 1.07927 0.63707
 C1321 C 0.56413 1.08610 0.65888
 H1322 H 0.55535 1.10034 0.66763
 O1323 O 0.47940 0.91590 0.60525
 O1324 O 0.48007 0.88869 0.63158
 C1325 C 0.47254 0.90797 0.62435
 C1326 C 0.45529 0.92101 0.63812
 C1327 C 0.44954 0.91389 0.66030
 H1328 H 0.45832 0.89918 0.66764
 O1329 O 0.61905 1.02272 0.57104
 O1330 O 0.64666 1.02220 0.59639
 C1331 C 0.63802 1.03069 0.57847
 C1332 C 0.64955 1.05051 0.56641
 C1333 C 0.67054 1.06010 0.57414
 H1334 H 0.67855 1.05252 0.58879
 O1335 O 0.38941 0.98011 0.58162
 O1336 O 0.36340 0.98022 0.60947
 C1337 C 0.37063 0.97254 0.59025
 C1338 C 0.35718 0.95438 0.57805
 C1339 C 0.33547 0.94749 0.58647
 H1340 H 0.32828 0.95597 0.60157
 O1341 O 0.58560 1.11635 0.51203
 O1342 O 0.61279 1.14351 0.51047
 C1343 C 0.59418 1.13547 0.51922
 C1344 C 0.58264 1.14796 0.53840
 C1345 C 0.58935 1.17075 0.54464
 H1346 H 0.60272 1.17968 0.53489
 O1347 O 0.41318 0.88623 0.51819
 O1348 O 0.38554 0.85951 0.51940
 C1349 C 0.40480 0.86735 0.52621
 C1350 C 0.41736 0.85453 0.54386
 C1351 C 0.40967 0.83242 0.55098
 H1352 H 0.39477 0.82442 0.54304
 O1353 O 0.58711 0.97704 0.60217
 O1354 O 0.61439 0.97587 0.62787
 C1355 C 0.59522 0.96843 0.62017
 C1356 C 0.58229 0.94931 0.63183
 C1357 C 0.58838 0.94194 0.65377
 H1358 H 0.60232 0.95071 0.66253
 O1359 O 0.42276 1.02466 0.61264
 O1360 O 0.39682 1.02492 0.64056
 C1361 C 0.41551 1.03259 0.63173
 C1362 C 0.42879 1.05125 0.64342
 C1363 C 0.42273 1.05872 0.66561
 H1364 H 0.40880 1.04991 0.67459
 O1365 O 0.48433 1.11522 0.57853
 O1366 O 0.48574 1.14286 0.60503
 C1367 C 0.47714 1.13443 0.58690
 C1368 C 0.45829 1.14691 0.57574
 C1369 C 0.45162 1.16907 0.58373
 H1370 H 0.46077 1.17730 0.59770
 O1371 O 0.52138 0.88266 0.57055
 O1372 O 0.52175 0.85544 0.59687
 C1373 C 0.52893 0.86344 0.57792
 C1374 C 0.54684 0.85062 0.56481
 C1375 C 0.55351 0.82831 0.57159
 H1376 H 0.54466 0.81995 0.58578
 O1377 O 0.61450 0.91400 0.51026
 O1378 O 0.64049 0.88611 0.50874
 C1379 C 0.63312 0.90525 0.51727
 C1380 C 0.64596 0.91733 0.53582
 C1381 C 0.66709 0.90859 0.54341
 H1382 H 0.67444 0.89317 0.53533
 O1383 O 0.38878 1.08477 0.52236
 O1384 O 0.36291 1.11282 0.52444
 C1385 C 0.37064 1.09342 0.53124
 C1386 C 0.35868 1.08097 0.54993
 C1387 C 0.33622 1.08707 0.55655
 H1388 H 0.32735 1.10066 0.54751
 Cu1389 Cu 0.50021 0.90202 0.58510
 Cu1390 Cu 0.50097 0.86941 0.61679
 Cu1391 Cu 0.50706 1.09687 0.59060
 Cu1392 Cu 0.50870 1.13008 0.62242
 Cu1393 Cu 0.40028 0.90546 0.49650
 Cu1394 Cu 0.36721 0.87329 0.49804
 Cu1395 Cu 0.59559 0.90120 0.48819
 Cu1396 Cu 0.62663 0.86763 0.48615
 Cu1397 Cu 0.40640 1.09810 0.49955
 Cu1398 Cu 0.37561 1.13202 0.50215
 Cu1399 Cu 0.59796 1.09726 0.48962
 Cu1400 Cu 0.63097 1.12940 0.48780
 Cu1401 Cu 0.40857 1.00234 0.59459
 Cu1402 Cu 0.37732 1.00247 0.62806
 Cu1403 Cu 0.60092 0.99995 0.58462
 Cu1404 Cu 0.63393 0.99873 0.61505
 C1405 C 0.56377 0.93805 0.62076
 H1406 H 0.55908 0.94333 0.60378
 C1407 C 0.57599 0.92373 0.66452
 C1408 C 0.44729 1.06222 0.63198
 H1409 H 0.45182 1.05677 0.61475
 C1410 C 0.43487 1.07715 0.67621
 C1411 C 0.36992 1.06326 0.56161
 H1412 H 0.38736 1.05860 0.55657
 C1413 C 0.32510 1.07596 0.57489
 C1414 C 0.63661 0.93726 0.54671
 H1415 H 0.62017 0.94391 0.54129
 C1416 C 0.67859 0.91926 0.56176
 C1417 C 0.55852 0.86126 0.54651
 H1418 H 0.55350 0.87860 0.54135
 C1419 C 0.57223 0.81705 0.56102
 C1420 C 0.44616 1.13636 0.55778
 H1421 H 0.45105 1.11911 0.55173
 C1422 C 0.43278 1.18050 0.57443
 C1423 C 0.44380 0.94004 0.62884
 H1424 H 0.44808 0.94545 0.61163
 C1425 C 0.43210 0.92513 0.67294
 C1426 C 0.56836 1.06069 0.62598
 H1427 H 0.56297 1.05546 0.60906
 C1428 C 0.58249 1.07504 0.66950
 C1429 C 0.43674 0.86461 0.55413
 H1430 H 0.44264 0.88174 0.54876
 C1431 C 0.42075 0.82057 0.56847
 C1432 C 0.56535 1.13657 0.55122
 H1433 H 0.56031 1.11886 0.54670
 C1434 C 0.57913 1.18206 0.56358
 C1435 C 0.36633 0.94310 0.55857
 H1436 H 0.38323 0.94818 0.55214
 C1437 C 0.32323 0.92913 0.57618
 C1438 C 0.63870 1.06089 0.54776
 H1439 H 0.62240 1.05392 0.54188
 C1440 C 0.68055 1.07981 0.56344
 O1441 O 0.47236 0.41989 0.88403
 O1442 O 0.47236 0.39282 0.85699
 C1443 C 0.46426 0.41161 0.86560
 C1444 C 0.44515 0.42412 0.85444
 C1445 C 0.43647 0.41671 0.83317
 H1446 H 0.44413 0.40183 0.82451
 O1447 O 0.52075 0.59507 0.88723
 O1448 O 0.52016 0.62297 0.86165
 C1449 C 0.52824 0.60384 0.86864
 C1450 C 0.54677 0.59152 0.85557
 C1451 C 0.55526 0.59949 0.83424
 H1452 H 0.54788 0.61484 0.82669
 O1453 O 0.38258 0.48170 0.91910
 O1454 O 0.35574 0.48182 0.89292
 C1455 C 0.36406 0.47333 0.91098
 C1456 C 0.35269 0.45307 0.92239
 C1457 C 0.33142 0.44407 0.91480
 H1458 H 0.32274 0.45264 0.90106
 O1459 O 0.60739 0.52995 0.91483
 O1460 O 0.63489 0.53014 0.88838
 C1461 C 0.62670 0.53748 0.90737
 C1462 C 0.63990 0.55478 0.92094
 C1463 C 0.66317 0.55907 0.91570
 H1464 H 0.67144 0.54953 0.90178
 O1465 O 0.41627 0.38607 0.97726
 O1466 O 0.38959 0.35835 0.97722
 C1467 C 0.40846 0.36679 0.96957
 C1468 C 0.42115 0.35439 0.95114
 C1469 C 0.41535 0.33132 0.94524
 H1470 H 0.40196 0.32224 0.95484
 O1471 O 0.58151 0.62182 0.98011
 O1472 O 0.60902 0.64865 0.98054
 C1473 C 0.59010 0.64090 0.97274
 C1474 C 0.57830 0.65390 0.95454
 C1475 C 0.58682 0.67565 0.94714
 H1476 H 0.60171 0.68340 0.95533
 O1477 O 0.41431 0.52861 0.88944
 O1478 O 0.38784 0.52917 0.86291
 C1479 C 0.40657 0.53706 0.87119
 C1480 C 0.41938 0.55646 0.85981
 C1481 C 0.41342 0.56377 0.83784
 H1482 H 0.39979 0.55469 0.82890
 O1483 O 0.57623 0.48535 0.88160
 O1484 O 0.60330 0.48577 0.85477
 C1485 C 0.58438 0.47772 0.86273
 C1486 C 0.57180 0.45897 0.85037
 C1487 C 0.57755 0.45282 0.82767
 H1488 H 0.59098 0.46245 0.81872
 O1489 O 0.51930 0.39027 0.91327
 O1490 O 0.51996 0.36300 0.88640
 C1491 C 0.52785 0.37167 0.90481
 C1492 C 0.54731 0.36032 0.91650
 C1493 C 0.55584 0.33854 0.90885
 H1494 H 0.54775 0.32970 0.89464
 O1495 O 0.47565 0.62421 0.92183
 O1496 O 0.47489 0.65231 0.89645
 C1497 C 0.46711 0.64312 0.91468
 C1498 C 0.44745 0.65404 0.92728
 C1499 C 0.43898 0.67590 0.92063
 H1500 H 0.44772 0.68526 0.90706
 O1501 O 0.38060 0.58654 0.98215
 O1502 O 0.35407 0.61395 0.98323
 C1503 C 0.36194 0.59492 0.97497
 C1504 C 0.34977 0.58286 0.95623
 C1505 C 0.32841 0.59099 0.94899
 H1506 H 0.32019 0.60544 0.95795
 O1507 O 0.61100 0.42524 0.97491
 O1508 O 0.63820 0.39853 0.97320
 C1509 C 0.62969 0.41753 0.96629
 C1510 C 0.64115 0.43043 0.94751
 C1511 C 0.66362 0.42470 0.94015
 H1512 H 0.67300 0.41155 0.94920
 O1513 O 0.47608 0.59157 0.89108
 O1514 O 0.47529 0.61929 0.86528
 C1515 C 0.46790 0.59981 0.87298
 C1516 C 0.44946 0.58684 0.86083
 C1517 C 0.44336 0.59361 0.83891
 H1518 H 0.45254 0.60794 0.83079
 O1519 O 0.51710 0.42218 0.88258
 O1520 O 0.51737 0.39524 0.85536
 C1521 C 0.52462 0.41459 0.86348
 C1522 C 0.54228 0.42825 0.85087
 C1523 C 0.54793 0.42258 0.82820
 H1524 H 0.53878 0.40848 0.81965
 O1525 O 0.60725 0.48480 0.91312
 O1526 O 0.63444 0.48514 0.88638
 C1527 C 0.62627 0.47729 0.90501
 C1528 C 0.63915 0.45935 0.91736
 C1529 C 0.66160 0.45351 0.91032
 H1530 H 0.66954 0.46235 0.89591
 O1531 O 0.38107 0.52743 0.91971
 O1532 O 0.35437 0.52785 0.89340
 C1533 C 0.36231 0.53544 0.91213
 C1534 C 0.35006 0.55416 0.92504
 C1535 C 0.32886 0.56296 0.91764
 H1536 H 0.32082 0.55544 0.90269
 O1537 O 0.41191 0.61936 0.98172
 O1538 O 0.38542 0.64679 0.98276
 C1539 C 0.40413 0.63862 0.97454
 C1540 C 0.41670 0.65161 0.95633
 C1541 C 0.40870 0.67351 0.94948
 H1542 H 0.39367 0.68105 0.95785
 O1543 O 0.58002 0.39232 0.97396
 O1544 O 0.60716 0.36556 0.97253
 C1545 C 0.58832 0.37364 0.96531
 C1546 C 0.57639 0.36132 0.94636
 C1547 C 0.58436 0.33948 0.93862
 H1548 H 0.59870 0.33139 0.94704
 O1549 O 0.57688 0.53118 0.88318
 O1550 O 0.60421 0.53150 0.85659
 C1551 C 0.58558 0.53959 0.86499
 C1552 C 0.57433 0.55945 0.85387
 C1553 C 0.58223 0.56724 0.83259
 H1554 H 0.59602 0.55792 0.82383
 O1555 O 0.41345 0.48276 0.88696
 O1556 O 0.38677 0.48338 0.86063
 C1557 C 0.40531 0.47508 0.86829
 C1558 C 0.41694 0.45574 0.85573
 C1559 C 0.40880 0.44830 0.83447
 H1560 H 0.39463 0.45749 0.82685
 O1561 O 0.52108 0.62456 0.92126
 O1562 O 0.52056 0.65258 0.89580
 C1563 C 0.52893 0.64380 0.91369
 C1564 C 0.54846 0.65545 0.92553
 C1565 C 0.55740 0.67715 0.91823
 H1566 H 0.54918 0.68604 0.90440
 O1567 O 0.47450 0.38764 0.91465
 O1568 O 0.47485 0.36021 0.88793
 C1569 C 0.46731 0.36813 0.90692
 C1570 C 0.44970 0.35496 0.92015
 C1571 C 0.44359 0.33183 0.91427
 H1572 H 0.45248 0.32319 0.90023
 O1573 O 0.61153 0.58842 0.97905
 O1574 O 0.63928 0.61502 0.97919
 C1575 C 0.63050 0.59628 0.97111
 C1576 C 0.64205 0.58355 0.95202
 C1577 C 0.66535 0.58787 0.94628
 H1578 H 0.67520 0.60030 0.95629
 O1579 O 0.38481 0.41802 0.97698
 O1580 O 0.35801 0.39044 0.97666
 C1581 C 0.36618 0.40961 0.96911
 C1582 C 0.35399 0.42204 0.95082
 C1583 C 0.33268 0.41360 0.94318
 H1584 H 0.32497 0.39829 0.95104
 Cu1585 Cu 0.49569 0.40767 0.90132
 Cu1586 Cu 0.49618 0.37507 0.86896
 Cu1587 Cu 0.49863 0.60621 0.90794
 Cu1588 Cu 0.49751 0.63966 0.87736
 Cu1589 Cu 0.40047 0.50519 0.90642
 Cu1590 Cu 0.36853 0.50567 0.87485
 Cu1591 Cu 0.58903 0.50770 0.90071
 Cu1592 Cu 0.62188 0.50818 0.86876
 C1593 C 0.43523 0.44369 0.86547
 H1594 H 0.44144 0.44931 0.88198
 C1595 C 0.41818 0.42881 0.82310
 C1596 C 0.55647 0.57148 0.86505
 H1597 H 0.55047 0.56546 0.88157
 C1598 C 0.57304 0.58721 0.82262
 C1599 C 0.36377 0.44191 0.94047
 H1600 H 0.38031 0.44841 0.94620
 C1601 C 0.32136 0.42424 0.92514
 C1602 C 0.62952 0.56691 0.93928
 H1603 H 0.61151 0.56364 0.94340
 C1604 C 0.67602 0.57546 0.92818
 C1605 C 0.43848 0.36597 0.93869
 H1606 H 0.44280 0.38391 0.94308
 C1607 C 0.42636 0.31989 0.92685
 C1608 C 0.55901 0.64410 0.94375
 H1609 H 0.55252 0.62723 0.94924
 C1610 C 0.57669 0.68736 0.92894
 C1611 C 0.43754 0.56808 0.87111
 H1612 H 0.44211 0.56284 0.88813
 C1613 C 0.42544 0.58235 0.82731
 C1614 C 0.55408 0.44663 0.86171
 H1615 H 0.54984 0.45095 0.87931
 C1616 C 0.56553 0.43463 0.81648
 C1617 C 0.55772 0.37151 0.93531
 H1618 H 0.55156 0.38842 0.94112
 C1619 C 0.57441 0.32803 0.91989
 C1620 C 0.43621 0.64208 0.94523
 H1621 H 0.44234 0.62508 0.95023
 C1622 C 0.41948 0.68567 0.93157
 C1623 C 0.36027 0.56421 0.94441
 H1624 H 0.37686 0.55801 0.94988
 C1625 C 0.31801 0.58143 0.92960
 C1626 C 0.62911 0.44788 0.93609
 H1627 H 0.61168 0.45217 0.94146
 C1628 C 0.67392 0.43618 0.92145
 O1629 O 0.51962 0.41991 1.11353
 O1630 O 0.51914 0.39213 1.13929
 C1631 C 0.52712 0.41137 1.13186
 C1632 C 0.54584 0.42342 1.14435
 C1633 C 0.55300 0.41489 1.16536
 H1634 H 0.54401 0.40010 1.17288
 O1635 O 0.47419 0.58578 1.11617
 O1636 O 0.47360 0.61274 1.14337
 C1637 C 0.46615 0.59360 1.13500
 C1638 C 0.44774 0.58028 1.14695
 C1639 C 0.44208 0.58486 1.16997
 H1640 H 0.45177 0.59798 1.17926
 O1641 O 0.38033 0.52595 1.08396
 O1642 O 0.35371 0.52470 1.11121
 C1643 C 0.36170 0.53353 1.09294
 C1644 C 0.34959 0.55336 1.08255
 C1645 C 0.32959 0.56246 1.09290
 H1646 H 0.32245 0.55420 1.10802
 O1647 O 0.61205 0.48129 1.08342
 O1648 O 0.63908 0.48114 1.10941
 C1649 C 0.63085 0.47335 1.09081
 C1650 C 0.64283 0.45455 1.07773
 C1651 C 0.66419 0.44597 1.08480
 H1652 H 0.67238 0.45388 1.09945
 O1653 O 0.57961 0.39166 1.01861
 O1654 O 0.60670 0.36484 1.01698
 C1655 C 0.58793 0.37261 1.02550
 C1656 C 0.57620 0.35975 1.04418
 C1657 C 0.58481 0.33825 1.05120
 H1658 H 0.59941 0.33055 1.04219
 O1659 O 0.41329 0.61775 1.02599
 O1660 O 0.38711 0.64552 1.02695
 C1661 C 0.40584 0.63697 1.03401
 C1662 C 0.41876 0.64931 1.05203
 C1663 C 0.41237 0.67189 1.05885
 H1664 H 0.39843 0.68058 1.05032
 O1665 O 0.41259 0.47959 1.11248
 O1666 O 0.38570 0.47867 1.13949
 C1667 C 0.40457 0.47124 1.13100
 C1668 C 0.41689 0.45244 1.14278
 C1669 C 0.40897 0.44499 1.16419
 H1670 H 0.39438 0.45359 1.17235
 O1671 O 0.58047 0.52616 1.11597
 O1672 O 0.60718 0.52652 1.14229
 C1673 C 0.58843 0.53430 1.13448
 C1674 C 0.57589 0.55341 1.14652
 C1675 C 0.58323 0.56208 1.16777
 H1676 H 0.59772 0.55406 1.17595
 O1677 O 0.47540 0.38765 1.08111
 O1678 O 0.47564 0.35976 1.10676
 C1679 C 0.46785 0.36821 1.08853
 C1680 C 0.44927 0.35558 1.07641
 C1681 C 0.44209 0.33342 1.08376
 H1682 H 0.45097 0.32506 1.09755
 O1683 O 0.51924 0.61820 1.08493
 O1684 O 0.51869 0.64540 1.11188
 C1685 C 0.52688 0.63728 1.09321
 C1686 C 0.54604 0.64974 1.08146
 C1687 C 0.55456 0.67083 1.09048
 H1688 H 0.54636 0.67859 1.10545
 O1689 O 0.38370 0.41842 1.02130
 O1690 O 0.35682 0.39091 1.02096
 C1691 C 0.36469 0.41014 1.02874
 C1692 C 0.35199 0.42249 1.04719
 C1693 C 0.33089 0.41354 1.05530
 H1694 H 0.32331 0.39822 1.04725
 O1695 O 0.61220 0.58838 1.02380
 O1696 O 0.63966 0.61526 1.02385
 C1697 C 0.63110 0.59637 1.03156
 C1698 C 0.64298 0.58409 1.05019
 C1699 C 0.66445 0.59228 1.05782
 H1700 H 0.67268 0.60703 1.04945
 O1701 O 0.51912 0.58644 1.11602
 O1702 O 0.51845 0.61357 1.14305
 C1703 C 0.52660 0.59472 1.13471
 C1704 C 0.54538 0.58270 1.14658
 C1705 C 0.55272 0.59084 1.16792
 H1706 H 0.54401 0.60544 1.17613
 O1707 O 0.47447 0.41905 1.11320
 O1708 O 0.47397 0.39129 1.13898
 C1709 C 0.46605 0.41029 1.13134
 C1710 C 0.44651 0.42226 1.14311
 C1711 C 0.43782 0.41458 1.16438
 H1712 H 0.44583 0.40001 1.17271
 O1713 O 0.61224 0.52684 1.08453
 O1714 O 0.63928 0.52707 1.11053
 C1715 C 0.63101 0.53507 1.09225
 C1716 C 0.64296 0.55447 1.08004
 C1717 C 0.66443 0.56310 1.08746
 H1718 H 0.67264 0.55480 1.10163
 O1719 O 0.38110 0.48021 1.08161
 O1720 O 0.35425 0.47899 1.10863
 C1721 C 0.36251 0.47162 1.08971
 C1722 C 0.35094 0.45230 1.07731
 C1723 C 0.33007 0.44274 1.08554
 H1724 H 0.32171 0.45029 1.10050
 O1725 O 0.58058 0.62006 1.02461
 O1726 O 0.60793 0.64705 1.02523
 C1727 C 0.58898 0.63875 1.03299
 C1728 C 0.57680 0.65038 1.05238
 C1729 C 0.58541 0.67123 1.06207
 H1730 H 0.60067 0.67946 1.05480
 O1731 O 0.41471 0.38603 1.02183
 O1732 O 0.38791 0.35846 1.02173
 C1733 C 0.40645 0.36701 1.02965
 C1734 C 0.41856 0.35507 1.04832
 C1735 C 0.41101 0.33316 1.05658
 H1736 H 0.39623 0.32449 1.04913
 O1737 O 0.58125 0.48055 1.11584
 O1738 O 0.60793 0.48048 1.14216
 C1739 C 0.58924 0.47235 1.13414
 C1740 C 0.57669 0.45282 1.14558
 C1741 C 0.58392 0.44371 1.16656
 H1742 H 0.59853 0.45158 1.17503
 O1743 O 0.41274 0.52497 1.11377
 O1744 O 0.38619 0.52379 1.14112
 C1745 C 0.40498 0.53199 1.13298
 C1746 C 0.41790 0.54999 1.14583
 C1747 C 0.41256 0.55459 1.16880
 H1748 H 0.39901 0.54463 1.17727
 O1749 O 0.47433 0.61805 1.08549
 O1750 O 0.47373 0.64525 1.11245
 C1751 C 0.46632 0.63700 1.09374
 C1752 C 0.44797 0.64933 1.08155
 C1753 C 0.44099 0.67184 1.08848
 H1754 H 0.44956 0.68058 1.10249
 O1755 O 0.52032 0.38886 1.08099
 O1756 O 0.52061 0.36097 1.10662
 C1757 C 0.52849 0.36987 1.08826
 C1758 C 0.54761 0.35847 1.07530
 C1759 C 0.55681 0.33708 1.08234
 H1760 H 0.54935 0.32834 1.09700
 O1761 O 0.61206 0.42309 1.01964
 O1762 O 0.63915 0.39630 1.01772
 C1763 C 0.63090 0.41476 1.02674
 C1764 C 0.64293 0.42618 1.04617
 C1765 C 0.66436 0.41794 1.05343
 H1766 H 0.67264 0.40369 1.04423
 O1767 O 0.37915 0.58825 1.02673
 O1768 O 0.35283 0.61583 1.02788
 C1769 C 0.36066 0.59676 1.03527
 C1770 C 0.34880 0.58452 1.05444
 C1771 C 0.32860 0.59346 1.06506
 H1772 H 0.32105 0.60932 1.05876
 Cu1773 Cu 0.49748 0.40669 1.09468
 Cu1774 Cu 0.49735 0.37327 1.12551
 Cu1775 Cu 0.49670 0.59938 1.09796
 Cu1776 Cu 0.49604 0.63200 1.13038
 Cu1777 Cu 0.40264 0.40482 0.99939
 Cu1778 Cu 0.37037 0.37178 0.99906
 Cu1779 Cu 0.59303 0.41082 0.99694
 Cu1780 Cu 0.62549 0.37863 0.99492
 Cu1781 Cu 0.39875 0.60014 1.00405
 Cu1782 Cu 0.36721 0.63327 1.00527
 Cu1783 Cu 0.59375 0.60200 1.00181
 Cu1784 Cu 0.62672 0.63417 1.00220
 Cu1785 Cu 0.39929 0.50280 1.09512
 Cu1786 Cu 0.36719 0.50143 1.12777
 Cu1787 Cu 0.59382 0.50366 1.09741
 Cu1788 Cu 0.62608 0.50383 1.12872
 C1789 C 0.55758 0.44253 1.13476
 H1790 H 0.55216 0.44900 1.11842
 C1791 C 0.57204 0.42462 1.17654
 C1792 C 0.43562 0.56277 1.13510
 H1793 H 0.43972 0.55934 1.11729
 C1794 C 0.42449 0.57194 1.18101
 C1795 C 0.35886 0.56432 1.06321
 H1796 H 0.37451 0.55750 1.05542
 C1797 C 0.31889 0.58241 1.08442
 C1798 C 0.63243 0.44459 1.05836
 H1799 H 0.61582 0.45085 1.05302
 C1800 C 0.67504 0.42753 1.07280
 C1801 C 0.55743 0.36961 1.05614
 H1802 H 0.55087 0.38635 1.05088
 C1803 C 0.57556 0.32699 1.07036
 C1804 C 0.43679 0.63824 1.06324
 H1805 H 0.44170 0.62070 1.05811
 C1806 C 0.42313 0.68314 1.07715
 C1807 C 0.43585 0.44123 1.13249
 H1808 H 0.44197 0.44695 1.11591
 C1809 C 0.41901 0.42602 1.17497
 C1810 C 0.55690 0.56383 1.13614
 H1811 H 0.55140 0.55763 1.11956
 C1812 C 0.57172 0.58091 1.17850
 C1813 C 0.43768 0.36609 1.05846
 H1814 H 0.44324 0.38321 1.05274
 C1815 C 0.42291 0.32225 1.07426
 C1816 C 0.55706 0.63982 1.06221
 H1817 H 0.55065 0.62342 1.05528
 C1818 C 0.57437 0.68139 1.08122
 C1819 C 0.36171 0.44212 1.05803
 H1820 H 0.37816 0.44893 1.05198
 C1821 C 0.32013 0.42322 1.07466
 C1822 C 0.63246 0.56505 1.06131
 H1823 H 0.61577 0.55882 1.05571
 C1824 C 0.67524 0.58215 1.07649
 C1825 C 1.13014 1.11978 1.30538
 C1826 C 1.11076 1.12636 1.29317
 C1827 C 1.10392 1.11402 1.27221
 N1828 N 1.08457 1.12050 1.26133
 N1829 N 1.07862 1.11014 1.24183
 C1830 C 1.09185 1.09295 1.23246
 N1831 N 1.11115 1.08640 1.24338
 N1832 N 1.11708 1.09674 1.26290
 C1833 C 1.08608 1.08198 1.21050
 C1834 C 1.06655 1.08828 1.19849
 H1835 H 1.10014 1.14086 1.29859
 H1836 H 1.09822 1.06954 1.20341
 H1837 H 1.13890 1.10399 1.29983
 H1838 H 1.05529 1.10149 1.20583
 C1839 C 1.15652 0.64394 0.78674
 C1840 C 1.13355 0.63992 0.78121
 C1841 C 1.12707 0.62558 0.76139
 N1842 N 1.10448 0.62186 0.75690
 N1843 N 1.09830 0.60905 0.73890
 C1844 C 1.11448 0.59940 0.72477
 N1845 N 1.13708 0.60299 0.72933
 N1846 N 1.14327 0.61583 0.74734
 C1847 C 1.10783 0.58627 0.70420
 C1848 C 1.08492 0.58497 0.69754
 H1849 H 1.11984 0.64667 0.79208
 H1850 H 1.12137 0.57935 0.69322
 H1851 H 1.16996 0.63584 0.77640
 H1852 H 1.07181 0.59327 0.70815
 C1853 C 0.64988 1.13616 0.79333
 C1854 C 0.62929 1.13703 0.78126
 C1855 C 0.62463 1.12204 0.76121
 N1856 N 0.60332 1.12215 0.75207
 N1857 N 0.59871 1.10935 0.73359
 C1858 C 0.61521 1.09593 0.72341
 N1859 N 0.63658 1.09575 0.73256
 N1860 N 0.64120 1.10854 0.75116
 C1861 C 0.61029 1.08275 0.70215
 C1862 C 0.58837 1.08339 0.69269
 H1863 H 0.61548 1.14841 0.78673
 H1864 H 0.62428 1.07398 0.69323
 H1865 H 0.66226 1.12298 0.78805
 H1866 H 0.57499 1.09282 0.70195
 C1867 C 0.65358 0.64047 1.29307
 C1868 C 0.63062 0.64077 1.28645
 C1869 C 0.62315 0.62824 1.26571
 N1870 N 0.60051 0.62736 1.26030
 N1871 N 0.59360 0.61554 1.24188
 C1872 C 0.60908 0.60410 1.22824
 N1873 N 0.63171 0.60501 1.23365
 N1874 N 0.63860 0.61682 1.25204
 C1875 C 0.60186 0.59124 1.20765
 C1876 C 0.57905 0.59102 1.20056
 H1877 H 0.61767 0.64902 1.29725
 H1878 H 0.61510 0.58291 1.19727
 H1879 H 0.66593 0.63111 1.28242
 H1880 H 0.56634 0.60063 1.21056
 C1881 C 0.85925 0.85269 1.29222
 C1882 C 0.85167 0.87311 1.28185
 C1883 C 0.86224 0.88104 1.26021
 N1884 N 0.85796 0.90276 1.25224
 N1885 N 0.86773 0.91000 1.23279
 C1886 C 0.88204 0.89573 1.22056
 N1887 N 0.88613 0.87400 1.22845
 N1888 N 0.87647 0.86681 1.24789
 C1889 C 0.89320 0.90315 1.19913
 C1890 C 0.89172 0.92584 1.19077
 H1891 H 0.83854 0.88395 1.28968
 H1892 H 0.90276 0.88998 1.18970
 H1893 H 0.87365 0.84375 1.28406
 H1894 H 0.88099 0.93837 1.19987
 C1895 C 0.85751 0.37115 0.80736
 C1896 C 0.87887 0.36745 0.79670
 C1897 C 0.88576 0.38000 0.77583
 N1898 N 0.90695 0.37657 0.76630
 N1899 N 0.91318 0.38746 0.74716
 C1900 C 0.89844 0.40217 0.73683
 N1901 N 0.87727 0.40563 0.74639
 N1902 N 0.87106 0.39477 0.76553
 C1903 C 0.90474 0.41382 0.71532
 C1904 C 0.92615 0.41054 0.70460
 H1905 H 0.89100 0.35532 0.80371
 H1906 H 0.89172 0.42431 0.70746
 H1907 H 0.84642 0.38447 0.80060
 H1908 H 0.93841 0.39914 0.71258
 C1909 C 0.35818 0.86975 0.79543
 C1910 C 0.38067 0.86956 0.78670
 C1911 C 0.38693 0.88238 0.76585
 N1912 N 0.40897 0.88212 0.75775
 N1913 N 0.41474 0.89358 0.73882
 C1914 C 0.39870 0.90578 0.72733
 N1915 N 0.37670 0.90611 0.73548
 N1916 N 0.37094 0.89464 0.75439
 C1917 C 0.40458 0.91785 0.70599
 C1918 C 0.42644 0.91623 0.69593
 H1919 H 0.39413 0.86051 0.79549
 H1920 H 0.39093 0.92681 0.69738
 H1921 H 0.34541 0.87992 0.78671
 H1922 H 0.43942 0.90602 0.70430
 C1923 C 0.35188 0.34480 1.28656
 C1924 C 0.35019 0.36754 1.27835
 C1925 C 0.36470 0.37494 1.25870
 N1926 N 0.36615 0.39780 1.25287
 N1927 N 0.37979 0.40451 1.23558
 C1928 C 0.39255 0.38864 1.22351
 N1929 N 0.39099 0.36581 1.22926
 N1930 N 0.37740 0.35912 1.24654
 C1931 C 0.40721 0.39562 1.20393
 C1932 C 0.40883 0.41880 1.19709
 H1933 H 0.33964 0.38047 1.28701
 H1934 H 0.41552 0.38203 1.19386
 H1935 H 0.36373 0.33332 1.27745
 H1936 H 0.39959 0.43194 1.20696
 C1937 C 0.86758 1.11933 0.69285
 C1938 C 0.88583 1.12692 0.70648
 C1939 C 0.89346 1.11364 0.72625
 N1940 N 0.91052 1.12245 0.73943
 N1941 N 0.91725 1.11109 0.75781
 C1942 C 0.90719 1.09046 0.76371
 N1943 N 0.89021 1.08155 0.75045
 N1944 N 0.88345 1.09294 0.73206
 C1945 C 0.91392 1.07819 0.78444
 C1946 C 0.93030 1.08765 0.79917
 H1947 H 0.89488 1.14313 0.70328
 H1948 H 0.90544 1.06173 0.78806
 H1949 H 0.85979 1.10254 0.69683
 H1950 H 0.93897 1.10373 0.79430
 C1951 C 0.86177 0.64388 0.20945
 C1952 C 0.85937 0.62219 0.22002
 C1953 C 0.87370 0.61594 0.23955
 N1954 N 0.87206 0.59423 0.24853
 N1955 N 0.88471 0.58848 0.26635
 C1956 C 0.89948 0.60422 0.27589
 N1957 N 0.90113 0.62592 0.26690
 N1958 N 0.88852 0.63166 0.24906
 C1959 C 0.91292 0.59836 0.29613
 C1960 C 0.91141 0.57629 0.30595
 H1961 H 0.84720 0.60920 0.21405
 H1962 H 0.92307 0.61210 0.30398
 H1963 H 0.87502 0.65556 0.21592
 H1964 H 0.90046 0.56323 0.29796
 C1965 C 0.34674 1.14189 0.20253
 C1966 C 0.36641 1.14648 0.21538
 C1967 C 0.37257 1.13138 0.23464
 N1968 N 0.39315 1.13430 0.24500
 N1969 N 0.39876 1.12096 0.26252
 C1970 C 0.38400 1.10421 0.27047
 N1971 N 0.36337 1.10135 0.26018
 N1972 N 0.35780 1.11463 0.24259
 C1973 C 0.38986 1.08981 0.29035
 C1974 C 0.41168 1.09124 0.29997
 H1975 H 0.37772 1.16104 0.21145
 H1976 H 0.37658 1.07877 0.29779
 H1977 H 0.33694 1.12630 0.20692
 H1978 H 0.42432 1.10257 0.29180
 C1979 C 0.36043 0.62841 0.69855
 C1980 C 0.38095 0.63220 0.71010
 C1981 C 0.38559 0.62041 0.73170
 N1982 N 0.40640 0.62315 0.74162
 N1983 N 0.41083 0.61260 0.76117
 C1984 C 0.39462 0.59890 0.77156
 N1985 N 0.37380 0.59616 0.76164
 N1986 N 0.36938 0.60670 0.74206
 C1987 C 0.39917 0.58767 0.79349
 C1988 C 0.42031 0.59063 0.80415
 H1989 H 0.39429 0.64335 0.70291
 H1990 H 0.38531 0.57799 0.80168
 H1991 H 0.34804 0.61601 0.70550
 H1992 H 0.43346 0.60115 0.79573
 C1993 C 1.15785 0.85288 0.70918
 C1994 C 1.13570 0.85086 0.71861
 C1995 C 1.12845 0.86512 0.73852
 N1996 N 1.10629 0.86417 0.74623
 N1997 N 1.09959 0.87691 0.76428
 C1998 C 1.11480 0.89107 0.77532
 N1999 N 1.13696 0.89201 0.76762
 N2000 N 1.14364 0.87931 0.74955
 C2001 C 1.10780 0.90470 0.79573
 C2002 C 1.08517 0.90409 0.80416
 H2003 H 1.12316 0.83918 0.71100
 H2004 H 1.12101 0.91434 0.80474
 H2005 H 1.16948 0.86578 0.71644
 H2006 H 1.07261 0.89363 0.79503
 C2007 C 1.15989 0.34659 0.21657
 C2008 C 1.13732 0.34409 0.22493
 C2009 C 1.12881 0.35974 0.24342
 N2010 N 1.10617 0.35975 0.24964
 N2011 N 1.09853 0.37415 0.26609
 C2012 C 1.11322 0.38909 0.27691
 N2013 N 1.13582 0.38900 0.27074
 N2014 N 1.14343 0.37467 0.25430
 C2015 C 1.10532 0.40457 0.29567
 C2016 C 1.08234 0.40509 0.30287
 H2017 H 1.12547 0.33158 0.21751
 H2018 H 1.11821 0.41449 0.30487
 H2019 H 1.17026 0.36027 0.22437
 H2020 H 1.06996 0.39430 0.29384
 C2021 C 0.66359 0.84689 0.21396
 C2022 C 0.64015 0.84645 0.21963
 C2023 C 0.63058 0.86164 0.23779
 N2024 N 0.60749 0.86216 0.24183
 N2025 N 0.59867 0.87598 0.25815
 C2026 C 0.61265 0.88982 0.27099
 N2027 N 0.63572 0.88929 0.26695
 N2028 N 0.64452 0.87550 0.25064
 C2029 C 0.60340 0.90475 0.28948
 C2030 C 0.57991 0.90555 0.29492
 H2031 H 0.62834 0.83559 0.21000
 H2032 H 0.61569 0.91426 0.29979
 H2033 H 0.67477 0.85901 0.22296
 H2034 H 0.56807 0.89488 0.28509
 C2035 C 0.63271 0.38317 0.68788
 C2036 C 0.61077 0.38353 0.69794
 C2037 C 0.60591 0.39649 0.71927
 N2038 N 0.58428 0.39626 0.72836
 N2039 N 0.57971 0.40721 0.74805
 C2040 C 0.59660 0.41884 0.75941
 N2041 N 0.61823 0.41923 0.75024
 N2042 N 0.62280 0.40826 0.73053
 C2043 C 0.59194 0.42989 0.78182
 C2044 C 0.57045 0.42753 0.79259
 H2045 H 0.59663 0.37418 0.69008
 H2046 H 0.60607 0.43838 0.79053
 H2047 H 0.64618 0.39390 0.69532
 H2048 H 0.55701 0.41793 0.78381
 C2049 C 1.28743 1.15202 1.14428
 C2050 C 1.28121 1.12850 1.14226
 C2051 C 1.26120 1.12091 1.12897
 N2052 N 1.25535 1.09792 1.12789
 N2053 N 1.23722 1.09082 1.11592
 C2054 C 1.22434 1.10646 1.10453
 N2055 N 1.23026 1.12943 1.10552
 N2056 N 1.24835 1.13653 1.11753
 C2057 C 1.20399 1.09904 1.09170
 C2058 C 1.19559 1.07615 1.09237
 H2059 H 1.29150 1.11512 1.14995
 H2060 H 1.19465 1.11232 1.08275
 H2061 H 1.27745 1.16490 1.13542
 H2062 H 1.20420 1.06351 1.10281
 C2063 C 1.31428 0.62431 0.62912
 C2064 C 1.29747 0.63501 0.61624
 C2065 C 1.27720 0.62175 0.60815
 N2066 N 1.26011 0.63290 0.59723
 N2067 N 1.24119 0.62131 0.59092
 C2068 C 1.23859 0.59814 0.59534
 N2069 N 1.25572 0.58697 0.60616
 N2070 N 1.27465 0.59856 0.61245
 C2071 C 1.21754 0.58522 0.58887
 C2072 C 1.20005 0.59595 0.57690
 H2073 H 1.29805 0.65372 0.61367
 H2074 H 1.21616 0.56692 0.59320
 H2075 H 1.31268 0.60572 0.63222
 H2076 H 1.20259 0.61394 0.57174
 C2077 C 0.81086 1.12216 0.63384
 C2078 C 0.79689 1.13133 0.61692
 C2079 C 0.77647 1.11825 0.60868
 N2080 N 0.76227 1.12798 0.59332
 N2081 N 0.74355 1.11651 0.58622
 C2082 C 0.73827 1.09485 0.59421
 N2083 N 0.75251 1.08509 0.60949
 N2084 N 0.77121 1.09656 0.61658
 C2085 C 0.71742 1.08200 0.58684
 C2086 C 0.70211 1.09140 0.57134
 H2087 H 0.80016 1.14849 0.61002
 H2088 H 0.71439 1.06481 0.59379
 H2089 H 0.80621 1.10493 0.64001
 H2090 H 0.70632 1.10833 0.56422
 C2091 C 0.79776 0.63459 1.15450
 C2092 C 0.78789 0.63768 1.13317
 C2093 C 0.76720 0.62454 1.12591
 N2094 N 0.75878 0.62768 1.10472
 N2095 N 0.73986 0.61632 1.09802
 C2096 C 0.72858 0.60136 1.11227
 N2097 N 0.73703 0.59818 1.13345
 N2098 N 0.75597 0.60953 1.14014
 C2099 C 0.70724 0.58912 1.10531
 C2100 C 0.69768 0.59225 1.08384
 H2101 H 0.79553 0.64984 1.12119
 H2102 H 0.69857 0.57829 1.11782
 H2103 H 0.79056 0.62122 1.16552
 H2104 H 0.70648 0.60394 1.07211
 C2105 C 1.30159 0.86559 0.85713
 C2106 C 1.29078 0.85923 0.87765
 C2107 C 1.26900 0.87048 0.88490
 N2108 N 1.26018 0.86734 0.90624
 N2109 N 1.24066 0.87783 0.91279
 C2110 C 1.22925 0.89177 0.89819
 N2111 N 1.23798 0.89474 0.87686
 N2112 N 1.25747 0.88434 0.87037
 C2113 C 1.20769 0.90356 0.90483
 C2114 C 1.19816 0.90237 0.92676
 H2115 H 1.29829 0.84665 0.88888
 H2116 H 1.19896 0.91298 0.89168
 H2117 H 1.29348 0.87931 0.84758
 H2118 H 1.20667 0.89184 0.93930
 C2119 C 1.29691 0.34657 0.35320
 C2120 C 1.28588 0.36792 0.35008
 C2121 C 1.26677 0.37524 0.36553
 N2122 N 1.25738 0.39678 0.36370
 N2123 N 1.23998 0.40331 0.37742
 C2124 C 1.23126 0.38855 0.39350
 N2125 N 1.24064 0.36704 0.39530
 N2126 N 1.25806 0.36055 0.38163
 C2127 C 1.21142 0.39516 0.40823
 C2128 C 1.20152 0.41724 0.40711
 H2129 H 1.29106 0.37955 0.33651
 H2130 H 1.20387 0.38192 0.41913
 H2131 H 1.29111 0.33640 0.36772
 H2132 H 1.20932 0.42982 0.39559
 C2133 C 0.80082 0.84770 0.35622
 C2134 C 0.79141 0.87000 0.35507
 C2135 C 0.77030 0.87628 0.36797
 N2136 N 0.76197 0.89831 0.36693
 N2137 N 0.74279 0.90415 0.37835
 C2138 C 0.73122 0.88819 0.39128
 N2139 N 0.73959 0.86617 0.39237
 N2140 N 0.75877 0.86033 0.38095
 C2141 C 0.70962 0.89422 0.40344
 C2142 C 0.69983 0.91630 0.40163
 H2143 H 0.79981 0.88341 0.34500
 H2144 H 0.70079 0.88060 0.41289
 H2145 H 0.79266 0.83510 0.36749
 H2146 H 0.70861 0.92918 0.39114
 C2147 C 0.80112 0.36424 0.87142
 C2148 C 0.79041 0.38577 0.86848
 C2149 C 0.76957 0.39218 0.88166
 N2150 N 0.75987 0.41340 0.87873
 N2151 N 0.74059 0.41913 0.89000
 C2152 C 0.73028 0.40386 0.90461
 N2153 N 0.74003 0.38269 0.90763
 N2154 N 0.75933 0.37696 0.89637
 C2155 C 0.70840 0.40954 0.91632
 C2156 C 0.69736 0.43071 0.91277
 H2157 H 0.79695 0.39839 0.85640
 H2158 H 0.70036 0.39616 0.92670
 H2159 H 0.79410 0.35302 0.88465
 H2160 H 0.70555 0.44330 0.90152
 C2161 C 0.72421 0.84024 1.15313
 C2162 C 0.72632 0.86416 1.14930
 C2163 C 0.74287 0.87357 1.13255
 N2164 N 0.74322 0.89679 1.12818
 N2165 N 0.75775 0.90550 1.11259
 C2166 C 0.77234 0.89126 1.10072
 N2167 N 0.77196 0.86804 1.10506
 N2168 N 0.75745 0.85933 1.12066
 C2169 C 0.78916 0.90068 1.08423
 C2170 C 0.79192 0.92464 1.08102
 H2171 H 0.71437 0.87623 1.15739
 H2172 H 0.80103 0.88854 1.07614
 H2173 H 0.73543 0.82829 1.14385
 H2174 H 0.78080 0.93664 1.09036
 C2175 C 0.68549 0.36859 0.62210
 C2176 C 0.69888 0.38879 0.62502
 C2177 C 0.72095 0.39228 0.61287
 N2178 N 0.73270 0.41263 0.61580
 N2179 N 0.75324 0.41581 0.60585
 C2180 C 0.76287 0.39874 0.59263
 N2181 N 0.75106 0.37841 0.58954
 N2182 N 0.73045 0.37523 0.59949
 C2183 C 0.78614 0.40178 0.58265
 C2184 C 0.79893 0.42202 0.58708
 H2185 H 0.69347 0.40272 0.63642
 H2186 H 0.79356 0.38741 0.57300
 H2187 H 0.69095 0.35630 0.60892
 H2188 H 0.79104 0.43563 0.59750
 C2189 C 0.21368 0.84490 0.64492
 C2190 C 0.22246 0.86768 0.64610
 C2191 C 0.24070 0.87567 0.63031
 N2192 N 0.24726 0.89847 0.63040
 N2193 N 0.26377 0.90595 0.61617
 C2194 C 0.27428 0.89092 0.60131
 N2195 N 0.26770 0.86813 0.60119
 N2196 N 0.25116 0.86065 0.61540
 C2197 C 0.29331 0.89870 0.58638
 C2198 C 0.30124 0.92174 0.58689
 H2199 H 0.21540 0.88052 0.65784
 H2200 H 0.30231 0.88558 0.57631
 H2201 H 0.22083 0.83341 0.63182
 H2202 H 0.29247 0.93427 0.59791
 C2203 C 0.22518 0.34201 1.16426
 C2204 C 0.22999 0.34393 1.14103
 C2205 C 0.24760 0.36023 1.13235
 N2206 N 0.24969 0.36381 1.10961
 N2207 N 0.26484 0.37936 1.10151
 C2208 C 0.27835 0.39199 1.11588
 N2209 N 0.27631 0.38838 1.13863
 N2210 N 0.26114 0.37284 1.14672
 C2211 C 0.29565 0.40860 1.10712
 C2212 C 0.29938 0.41143 1.08381
 H2213 H 0.21904 0.33519 1.12876
 H2214 H 0.30692 0.41716 1.11922
 H2215 H 0.23543 0.35198 1.17627
 H2216 H 0.28875 0.40172 1.07192
 C2217 C 0.70250 1.15406 0.85694
 C2218 C 0.71197 1.13177 0.85821
 C2219 C 0.73278 1.12677 0.87131
 N2220 N 0.74071 1.10456 0.87196
 N2221 N 0.75970 1.09961 0.88335
 C2222 C 0.77154 1.11667 0.89456
 N2223 N 0.76356 1.13891 0.89400
 N2224 N 0.74453 1.14388 0.88259
 C2225 C 0.79301 1.11136 0.90660
 C2226 C 0.80238 1.08894 0.90584
 H2227 H 0.70371 1.11716 0.84967
 H2228 H 0.80203 1.12555 0.91505
 H2229 H 0.71005 1.16815 0.86691
 H2230 H 0.79339 1.07546 0.89628
 C2231 C 0.71077 0.63439 0.35362
 C2232 C 0.71650 0.63318 0.37656
 C2233 C 0.73621 0.61928 0.38401
 N2234 N 0.74100 0.61782 0.40651
 N2235 N 0.75879 0.60527 0.41340
 C2236 C 0.77241 0.59365 0.39805
 N2237 N 0.76757 0.59505 0.37558
 N2238 N 0.74979 0.60760 0.36869
 C2239 C 0.79264 0.58044 0.40527
 C2240 C 0.79939 0.58012 0.42796
 H2241 H 0.70596 0.64179 0.38946
 H2242 H 0.80326 0.57228 0.39215
 H2243 H 0.72101 0.62459 0.34126
 H2244 H 0.78913 0.58952 0.44059
 C2245 C 0.18782 1.12330 0.36346
 C2246 C 0.20193 1.13268 0.38046
 C2247 C 0.22252 1.12002 0.38799
 N2248 N 0.23737 1.13028 0.40277
 N2249 N 0.25630 1.11916 0.40915
 C2250 C 0.26106 1.09734 0.40101
 N2251 N 0.24615 1.08706 0.38635
 N2252 N 0.22728 1.09818 0.37996
 C2253 C 0.28208 1.08487 0.40749
 C2254 C 0.29845 1.09493 0.42185
 H2255 H 0.19872 1.14973 0.38789
 H2256 H 0.28442 1.06738 0.40073
 H2257 H 0.19258 1.10630 0.35659
 H2258 H 0.29497 1.11211 0.42902
 C2259 C 0.21329 0.65397 0.84741
 C2260 C 0.21651 0.64990 0.87050
 C2261 C 0.23636 0.63624 0.87815
 N2262 N 0.23876 0.63129 0.90055
 N2263 N 0.25614 0.61809 0.90737
 C2264 C 0.27166 0.60920 0.89202
 N2265 N 0.26924 0.61415 0.86965
 N2266 N 0.25192 0.62737 0.86285
 C2267 C 0.29120 0.59492 0.89920
 C2268 C 0.29621 0.59181 0.92210
 H2269 H 0.20335 0.65493 0.88287
 H2270 H 0.30286 0.58823 0.88613
 H2271 H 0.22629 0.64794 0.83528
 H2272 H 0.28525 0.60000 0.93497
 C2273 C 1.16302 1.28230 1.15701
 C2274 C 1.13986 1.27856 1.15204
 C2275 C 1.13270 1.25949 1.13640
 N2276 N 1.11032 1.25726 1.13030
 N2277 N 1.10383 1.24041 1.11581
 C2278 C 1.11949 1.22520 1.10677
 N2279 N 1.14186 1.22744 1.11286
 N2280 N 1.14834 1.24428 1.12734
 C2281 C 1.11244 1.20592 1.09136
 C2282 C 1.08937 1.20196 1.08615
 H2283 H 1.12695 1.29063 1.15844
 H2284 H 1.12542 1.19363 1.08554
 H2285 H 1.17568 1.27061 1.14942
 H2286 H 1.07655 1.21386 1.09311
 C2287 C 1.15740 0.78271 0.65577
 C2288 C 1.13421 0.77960 0.65072
 C2289 C 1.12666 0.76055 0.63538
 N2290 N 1.10428 0.75891 0.62915
 N2291 N 1.09755 0.74244 0.61440
 C2292 C 1.11298 0.72712 0.60517
 N2293 N 1.13534 0.72877 0.61138
 N2294 N 1.14206 0.74521 0.62616
 C2295 C 1.10569 0.70830 0.58949
 C2296 C 1.08250 0.70387 0.58533
 H2297 H 1.12181 0.79270 0.65604
 H2298 H 1.11863 0.69632 0.58294
 H2299 H 1.16975 0.77001 0.64940
 H2300 H 1.06962 0.71508 0.59324
 C2301 C 0.61963 1.31508 0.63482
 C2302 C 0.61950 1.30587 0.61268
 C2303 C 0.60924 1.28299 0.60711
 N2304 N 0.61067 1.27464 0.58541
 N2305 N 0.60245 1.25348 0.58017
 C2306 C 0.59254 1.23986 0.59647
 N2307 N 0.59096 1.24827 0.61816
 N2308 N 0.59920 1.26944 0.62341
 C2309 C 0.58395 1.21621 0.59108
 C2310 C 0.58676 1.20613 0.56942
 H2311 H 0.62766 1.31541 0.59887
 H2312 H 0.57618 1.20635 0.60485
 H2313 H 0.60980 1.30633 0.64812
 H2314 H 0.59598 1.21590 0.55639
 C2315 C 0.66523 0.77832 1.15880
 C2316 C 0.64161 0.77504 1.15606
 C2317 C 0.63263 0.75664 1.14083
 N2318 N 0.60968 0.75510 1.13692
 N2319 N 0.60148 0.73915 1.12239
 C2320 C 0.61594 0.72426 1.11112
 N2321 N 0.63887 0.72579 1.11504
 N2322 N 0.64707 0.74172 1.12959
 C2323 C 0.60712 0.70617 1.09548
 C2324 C 0.58358 0.70241 1.09277
 H2325 H 0.62956 0.78746 1.16344
 H2326 H 0.61941 0.69443 1.08740
 H2327 H 0.67705 0.76636 1.15033
 H2328 H 0.57149 0.71339 1.10212
 C2329 C 0.85622 1.30149 0.85991
 C2330 C 0.87904 1.29416 0.85806
 C2331 C 0.88630 1.27230 0.86877
 N2332 N 0.90897 1.26673 0.86961
 N2333 N 0.91561 1.24744 0.88017
 C2334 C 0.89980 1.23307 0.89028
 N2335 N 0.87717 1.23858 0.88928
 N2336 N 0.87055 1.25782 0.87876
 C2337 C 0.90658 1.21191 0.90234
 C2338 C 0.92946 1.20492 0.90391
 H2339 H 0.89202 1.30527 0.85018
 H2340 H 0.89292 1.20123 0.90963
 H2341 H 0.84391 1.29059 0.86907
 H2342 H 0.94280 1.21491 0.89518
 C2343 C 0.86628 0.79189 0.34931
 C2344 C 0.86561 0.78465 0.37194
 C2345 C 0.87813 0.76395 0.37943
 N2346 N 0.87724 0.75775 0.40168
 N2347 N 0.88823 0.73884 0.40867
 C2348 C 0.90051 0.72544 0.39365
 N2349 N 0.90146 0.73168 0.37142
 N2350 N 0.89047 0.75058 0.36443
 C2351 C 0.91230 0.70422 0.40095
 C2352 C 0.91089 0.69640 0.42337
 H2353 H 0.85603 0.79450 0.38472
 H2354 H 0.92131 0.69407 0.38800
 H2355 H 0.87723 0.78263 0.33717
 H2356 H 0.90056 0.70616 0.43568
 C2357 C 0.35165 1.28244 0.34159
 C2358 C 0.35539 1.27835 0.36458
 C2359 C 0.37023 1.25938 0.37202
 N2360 N 0.37467 1.25701 0.39448
 N2361 N 0.38859 1.24025 0.40145
 C2362 C 0.39867 1.22534 0.38619
 N2363 N 0.39427 1.22773 0.36372
 N2364 N 0.38034 1.24449 0.35674
 C2365 C 0.41331 1.20623 0.39371
 C2366 C 0.41615 1.20167 0.41675
 H2367 H 0.34878 1.29035 0.37745
 H2368 H 0.42025 1.19439 0.38086
 H2369 H 0.35955 1.27103 0.32888
 H2370 H 0.40786 1.21288 0.42938
 C2371 C 0.36715 0.80839 0.85477
 C2372 C 0.36499 0.79938 0.87675
 C2373 C 0.37779 0.77852 0.88371
 N2374 N 0.37535 0.77038 0.90527
 N2375 N 0.38653 0.75134 0.91167
 C2376 C 0.40060 0.73969 0.89675
 N2377 N 0.40309 0.74787 0.87522
 N2378 N 0.39191 0.76691 0.86882
 C2379 C 0.41261 0.71822 0.90334
 C2380 C 0.40965 0.70842 0.92490
 H2381 H 0.35396 0.80777 0.88936
 H2382 H 0.42302 0.70948 0.89044
 H2383 H 0.37930 0.80019 0.84302
 H2384 H 0.39817 0.71701 0.93704
 C2385 C 1.14177 0.70465 0.84682
 C2386 C 1.14168 0.71309 0.86923
 C2387 C 1.12623 0.73221 0.87664
 N2388 N 1.12533 0.73900 0.89887
 N2389 N 1.11163 0.75641 0.90569
 C2390 C 1.09828 0.76771 0.89055
 N2391 N 1.09916 0.76090 0.86833
 N2392 N 1.11283 0.74346 0.86152
 C2393 C 1.08379 0.78768 0.89769
 C2394 C 1.08293 0.79553 0.92029
 H2395 H 1.15263 0.70531 0.88177
 H2396 H 1.07495 0.79715 0.88463
 H2397 H 1.12962 0.71202 0.83509
 H2398 H 1.09263 0.78607 0.93278
 C2399 C 1.13129 0.18904 0.35638
 C2400 C 1.13182 0.19880 0.37825
 C2401 C 1.11962 0.22073 0.38383
 N2402 N 1.11948 0.22927 0.40549
 N2403 N 1.10830 0.24892 0.41075
 C2404 C 1.09675 0.26075 0.39458
 N2405 N 1.09686 0.25218 0.37292
 N2406 N 1.10805 0.23254 0.36766
 C2407 C 1.08484 0.28286 0.40006
 C2408 C 1.08591 0.29299 0.42174
 H2409 H 1.14032 0.18977 0.39183
 H2410 H 1.07640 0.29190 0.38645
 H2411 H 1.12168 0.19800 0.34347
 H2412 H 1.09547 0.28405 0.43471
 C2413 C 0.65115 0.69721 0.36026
 C2414 C 0.62944 0.70684 0.35671
 C2415 C 0.62169 0.72816 0.36891
 N2416 N 0.60012 0.73645 0.36571
 N2417 N 0.59305 0.75589 0.37637
 C2418 C 0.60732 0.76781 0.39060
 N2419 N 0.62887 0.75952 0.39379
 N2420 N 0.63592 0.74008 0.38317
 C2421 C 0.60007 0.78958 0.40229
 C2422 C 0.57811 0.79906 0.39986
 H2423 H 0.61761 0.69862 0.34497
 H2424 H 0.61283 0.79855 0.41245
 H2425 H 0.66195 0.70515 0.37316
 H2426 H 0.56611 0.79013 0.38871
 C2427 C 0.63341 0.20416 0.84462
 C2428 C 0.63249 0.21374 0.86663
 C2429 C 0.61879 0.23456 0.87272
 N2430 N 0.61872 0.24267 0.89454
 N2431 N 0.60700 0.26179 0.90041
 C2432 C 0.59484 0.27360 0.88470
 N2433 N 0.59479 0.26542 0.86286
 N2434 N 0.60654 0.24626 0.85697
 C2435 C 0.58252 0.29531 0.89096
 C2436 C 0.58396 0.30502 0.91287
 H2437 H 0.64197 0.20569 0.88015
 H2438 H 0.57336 0.30431 0.87780
 H2439 H 0.62250 0.21141 0.83170
 H2440 H 0.59420 0.29604 0.92528
 C2441 C 0.85030 0.70599 1.15501
 C2442 C 0.84833 0.71337 1.13254
 C2443 C 0.85927 0.73538 1.12493
 N2444 N 0.85905 0.74139 1.10261
 N2445 N 0.86966 0.76085 1.09555
 C2446 C 0.88093 0.77499 1.11056
 N2447 N 0.88105 0.76902 1.13285
 N2448 N 0.87046 0.74961 1.13989
 C2449 C 0.89301 0.79642 1.10319
 C2450 C 0.89299 0.80396 1.08066
 H2451 H 0.84003 0.70226 1.12002
 H2452 H 0.90152 0.80681 1.11613
 H2453 H 0.85970 0.71704 1.16683
 H2454 H 0.88311 0.79410 1.06827
 C2455 C 0.86600 0.18973 0.64495
 C2456 C 0.86834 0.19865 0.62301
 C2457 C 0.88159 0.22037 0.61857
 N2458 N 0.88498 0.22774 0.59687
 N2459 N 0.89727 0.24705 0.59263
 C2460 C 0.90676 0.25973 0.60991
 N2461 N 0.90339 0.25235 0.63162
 N2462 N 0.89110 0.23303 0.63585
 C2463 C 0.91967 0.28165 0.60543
 C2464 C 0.92156 0.29061 0.58348
 H2465 H 0.86168 0.18883 0.60864
 H2466 H 0.92614 0.29171 0.61974
 H2467 H 0.87384 0.19936 0.65887
 H2468 H 0.91393 0.28073 0.56960
 C2469 C 0.36998 0.69241 0.64131
 C2470 C 0.36980 0.70158 0.61932
 C2471 C 0.38166 0.72373 0.61348
 N2472 N 0.38051 0.73207 0.59197
 N2473 N 0.39099 0.75207 0.58638
 C2474 C 0.40311 0.76454 0.60208
 N2475 N 0.40435 0.75615 0.62358
 N2476 N 0.39383 0.73615 0.62918
 C2477 C 0.41442 0.78698 0.59619
 C2478 C 0.41164 0.79718 0.57489
 H2479 H 0.36115 0.69230 0.60574
 H2480 H 0.42407 0.79604 0.60926
 H2481 H 0.37957 0.70183 0.65423
 H2482 H 0.40079 0.78823 0.56265
 C2483 C 0.34670 0.21320 1.15290
 C2484 C 0.36940 0.21695 1.14561
 C2485 C 0.37572 0.23732 1.13143
 N2486 N 0.39771 0.24018 1.12363
 N2487 N 0.40330 0.25799 1.11006
 C2488 C 0.38708 0.27353 1.10362
 N2489 N 0.36510 0.27063 1.11139
 N2490 N 0.35953 0.25288 1.12498
 C2491 C 0.39309 0.29374 1.08916
 C2492 C 0.41591 0.29934 1.08364
 H2493 H 0.38224 0.20372 1.14853
 H2494 H 0.37949 0.30555 1.08450
 H2495 H 0.33391 0.22618 1.14893
 H2496 H 0.42945 0.28821 1.08975
 C2497 C 1.13011 1.14024 0.69666
 C2498 C 1.13034 1.11771 0.70557
 C2499 C 1.11942 1.11178 0.72754
 N2500 N 1.12098 1.08967 0.73548
 N2501 N 1.11210 1.08414 0.75581
 C2502 C 1.10137 1.10055 0.76899
 N2503 N 1.09969 1.12264 0.76099
 N2504 N 1.10859 1.12818 0.74065
 C2505 C 1.09189 1.09490 0.79167
 C2506 C 1.09416 1.07280 0.80127
 H2507 H 1.13928 1.10386 0.69645
 H2508 H 1.08369 1.10890 0.80122
 H2509 H 1.11951 1.15348 0.70489
 H2510 H 1.10385 1.05957 0.79195
 C2511 C 1.13871 0.65359 0.20895
 C2512 C 1.14132 0.63118 0.21773
 C2513 C 1.12811 0.62421 0.23839
 N2514 N 1.12609 0.60134 0.24408
 N2515 N 1.11309 0.59495 0.26197
 C2516 C 1.10158 0.61117 0.27481
 N2517 N 1.10380 0.63401 0.26926
 N2518 N 1.11673 0.64038 0.25139
 C2519 C 1.08734 0.60447 0.29482
 C2520 C 1.08463 0.58121 0.30115
 H2521 H 1.15096 0.61796 0.20844
 H2522 H 1.08003 0.61823 0.30542
 H2523 H 1.12762 0.66533 0.21867
 H2524 H 1.09290 0.56783 0.29074
 C2525 C 0.64393 1.15990 0.21162
 C2526 C 0.64119 1.13620 0.21616
 C2527 C 0.62643 1.12809 0.23510
 N2528 N 0.62275 1.10488 0.23806
 N2529 N 0.60892 1.09735 0.25481
 C2530 C 0.59818 1.11276 0.26914
 N2531 N 0.60184 1.13596 0.26616
 N2532 N 0.61567 1.14350 0.24941
 C2533 C 0.58365 1.10469 0.28825
 C2534 C 0.58145 1.08105 0.29329
 H2535 H 0.64854 1.12323 0.20466
 H2536 H 0.57628 1.11773 0.29966
 H2537 H 0.63535 1.17257 0.22263
 H2538 H 0.59011 1.06832 0.28240
 C2539 C 0.63895 0.65951 0.70301
 C2540 C 0.64014 0.63821 0.71430
 C2541 C 0.62501 0.63274 0.73413
 N2542 N 0.62484 0.61088 0.74285
 N2543 N 0.61150 0.60569 0.76084
 C2544 C 0.59780 0.62214 0.77091
 N2545 N 0.59799 0.64404 0.76221
 N2546 N 0.61128 0.64922 0.74414
 C2547 C 0.58366 0.61663 0.79148
 C2548 C 0.58283 0.59397 0.80007
 H2549 H 0.65187 0.62486 0.70817
 H2550 H 0.57503 0.63073 0.80051
 H2551 H 0.62596 0.67187 0.70868
 H2552 H 0.59201 0.58047 0.79062
 C2553 C 0.85947 0.85551 0.70273
 C2554 C 0.86271 0.87799 0.71160
 C2555 C 0.87684 0.88243 0.73194
 N2556 N 0.88122 0.90472 0.73882
 N2557 N 0.89394 0.90903 0.75713
 C2558 C 0.90283 0.89123 0.76930
 N2559 N 0.89847 0.86892 0.76241
 N2560 N 0.88578 0.86460 0.74406
 C2561 C 0.91599 0.89590 0.79026
 C2562 C 0.91956 0.91870 0.79818
 H2563 H 0.85567 0.89286 0.70293
 H2564 H 0.92126 0.88125 0.80043
 H2565 H 0.86790 0.84109 0.71095
 H2566 H 0.91332 0.93297 0.78804
 C2567 C 0.86291 0.35736 0.20173
 C2568 C 0.86352 0.37864 0.21361
 C2569 C 0.87721 0.38212 0.23444
 N2570 N 0.87850 0.40365 0.24426
 N2571 N 0.89061 0.40717 0.26311
 C2572 C 0.90198 0.38931 0.27296
 N2573 N 0.90072 0.36773 0.26313
 N2574 N 0.88862 0.36421 0.24421
 C2575 C 0.91471 0.39304 0.29442
 C2576 C 0.91535 0.41502 0.30499
 H2577 H 0.85440 0.39353 0.20714
 H2578 H 0.92231 0.37815 0.30258
 H2579 H 0.87335 0.34317 0.20783
 H2580 H 0.90691 0.42933 0.29660
 C2581 C 0.33176 0.84705 0.21921
 C2582 C 0.33833 0.87023 0.22288
 C2583 C 0.35275 0.87700 0.24239
 N2584 N 0.36056 0.89932 0.24458
 N2585 N 0.37478 0.90527 0.26134
 C2586 C 0.38190 0.88908 0.27644
 N2587 N 0.37408 0.86678 0.27427
 N2588 N 0.35983 0.86084 0.25754
 C2589 C 0.39726 0.89549 0.29532
 C2590 C 0.40302 0.91871 0.30003
 H2591 H 0.33525 0.88304 0.20984
 H2592 H 0.40253 0.88193 0.30682
 H2593 H 0.33591 0.83419 0.23190
 H2594 H 0.39627 0.93225 0.28929
 C2595 C 0.36090 0.35465 0.70080
 C2596 C 0.35742 0.37569 0.71258
 C2597 C 0.37129 0.38207 0.73269
 N2598 N 0.36899 0.40346 0.74266
 N2599 N 0.38131 0.40931 0.76090
 C2600 C 0.39640 0.39401 0.76991
 N2601 N 0.39867 0.37261 0.75996
 N2602 N 0.38640 0.36678 0.74169
 C2603 C 0.40965 0.40005 0.79053
 C2604 C 0.40798 0.42208 0.80088
 H2605 H 0.34475 0.38799 0.70686
 H2606 H 0.41996 0.38658 0.79804
 H2607 H 0.37460 0.34345 0.70648
 H2608 H 0.39707 0.43486 0.79297
 C2609 C 1.12213 0.88326 1.30853
 C2610 C 1.10449 0.87519 1.29439
 C2611 C 1.09696 0.88853 1.27459
 N2612 N 1.08037 0.87954 1.26095
 N2613 N 1.07381 0.89100 1.24256
 C2614 C 1.08357 0.91191 1.23711
 N2615 N 1.10008 0.92099 1.25082
 N2616 N 1.10667 0.90951 1.26922
 C2617 C 1.07701 0.92433 1.21639
 C2618 C 1.06079 0.91493 1.20147
 H2619 H 1.09599 0.85860 1.29717
 H2620 H 1.08546 0.94085 1.21293
 H2621 H 1.12947 0.90033 1.30483
 H2622 H 1.05217 0.89876 1.20619
 C2623 C 1.14203 0.35218 0.78991
 C2624 C 1.14347 0.37442 0.78035
 C2625 C 1.12930 0.38075 0.76084
 N2626 N 1.13004 0.40290 0.75288
 N2627 N 1.11756 0.40879 0.73502
 C2628 C 1.10386 0.39275 0.72447
 N2629 N 1.10308 0.37061 0.73246
 N2630 N 1.11554 0.36473 0.75035
 C2631 C 1.09079 0.39878 0.70414
 C2632 C 1.09190 0.42115 0.69502
 H2633 H 1.15462 0.38786 0.78723
 H2634 H 1.08146 0.38491 0.69553
 H2635 H 1.12956 0.34005 0.78272
 H2636 H 1.10220 0.43437 0.70360
 C2637 C 0.63854 0.87641 0.79398
 C2638 C 0.61839 0.87237 0.78192
 C2639 C 0.61429 0.88418 0.76018
 N2640 N 0.59360 0.88184 0.74994
 N2641 N 0.58964 0.89260 0.73039
 C2642 C 0.60620 0.90613 0.72031
 N2643 N 0.62691 0.90843 0.73052
 N2644 N 0.63086 0.89770 0.75011
 C2645 C 0.60210 0.91765 0.69840
 C2646 C 0.58089 0.91546 0.68774
 H2647 H 0.60493 0.86120 0.78887
 H2648 H 0.61626 0.92691 0.69023
 H2649 H 0.65104 0.88879 0.78715
 H2650 H 0.56739 0.90546 0.69624
 C2651 C 0.64641 0.36609 1.29520
 C2652 C 0.62570 0.36120 1.28415
 C2653 C 0.61904 0.37510 1.26414
 N2654 N 0.59768 0.37284 1.25522
 N2655 N 0.59166 0.38557 1.23736
 C2656 C 0.60677 0.40105 1.22772
 N2657 N 0.62813 0.40320 1.23656
 N2658 N 0.63411 0.39054 1.25441
 C2659 C 0.60061 0.41494 1.20762
 C2660 C 0.57863 0.41383 1.19838
 H2661 H 0.61395 0.34784 1.29032
 H2662 H 0.61400 0.42537 1.19953
 H2663 H 0.65661 0.38044 1.28838
 H2664 H 0.56587 0.40275 1.20670
 C2665 C 0.86634 1.11828 1.30896
 C2666 C 0.88750 1.11866 1.29736
 C2667 C 0.89034 1.10875 1.27429
 N2668 N 0.91105 1.11052 1.26338
 N2669 N 0.91374 1.10252 1.24212
 C2670 C 0.89582 1.09243 1.23096
 N2671 N 0.87514 1.09046 1.24193
 N2672 N 0.87244 1.09850 1.26321
 C2673 C 0.89844 1.08437 1.20716
 C2674 C 0.91875 1.08863 1.19481
 H2675 H 0.90244 1.12668 1.30509
 H2676 H 0.88377 1.07614 1.19912
 H2677 H 0.85205 1.10879 1.30144
 H2678 H 0.93258 1.09809 1.20314
 C2679 C 0.86697 0.61362 0.81787
 C2680 C 0.88910 0.61281 0.80818
 C2681 C 0.89390 0.60182 0.78586
 N2682 N 0.91541 0.60335 0.77656
 N2683 N 0.91989 0.59458 0.75586
 C2684 C 0.90301 0.58391 0.74367
 N2685 N 0.88154 0.58215 0.75306
 N2686 N 0.87703 0.59099 0.77376
 C2687 C 0.90755 0.57493 0.72045
 C2688 C 0.92847 0.57920 0.70908
 H2689 H 0.90343 0.62107 0.81676
 H2690 H 0.89362 0.56599 0.71183
 H2691 H 0.85319 0.60382 0.80984
 H2692 H 0.94150 0.58963 0.71760
 C2693 C 0.36363 1.12271 0.80579
 C2694 C 0.38584 1.12259 0.79624
 C2695 C 0.39130 1.11148 0.77410
 N2696 N 0.41313 1.11275 0.76553
 N2697 N 0.41834 1.10348 0.74518
 C2698 C 0.40189 1.09258 0.73262
 N2699 N 0.38007 1.09118 0.74125
 N2700 N 0.37484 1.10048 0.76160
 C2701 C 0.40730 1.08276 0.70987
 C2702 C 0.42901 1.08559 0.69955
 H2703 H 0.39990 1.13103 0.80511
 H2704 H 0.39350 1.07411 0.70080
 H2705 H 0.35013 1.11270 0.79754
 H2706 H 0.44203 1.09564 0.70849
 C2707 C 0.38180 0.63108 1.31624
 C2708 C 0.38183 0.60948 1.30499
 C2709 C 0.39358 0.60591 1.28287
 N2710 N 0.39225 0.58475 1.27233
 N2711 N 0.40169 0.58148 1.25172
 C2712 C 0.41282 0.59925 1.24087
 N2713 N 0.41438 0.62037 1.25151
 N2714 N 0.40490 0.62365 1.27214
 C2715 C 0.42214 0.59611 1.21756
 C2716 C 0.41818 0.57547 1.20531
 H2717 H 0.37258 0.59476 1.31224
 H2718 H 0.43076 0.61081 1.20959
 H2719 H 0.39255 0.64508 1.30957
 H2720 H 0.40840 0.56159 1.21350
 C2721 C 1.15421 1.29031 0.84429
 C2722 C 1.15324 1.28424 0.86722
 C2723 C 1.14102 1.26284 0.87460
 N2724 N 1.13852 1.25804 0.89711
 N2725 N 1.12654 1.23930 0.90388
 C2726 C 1.11651 1.22474 0.88839
 N2727 N 1.11908 1.22950 0.86591
 N2728 N 1.13106 1.24820 0.85916
 C2729 C 1.10316 1.20399 0.89549
 C2730 C 1.10145 1.19730 0.91821
 H2731 H 1.15973 1.29621 0.88008
 H2732 H 1.09547 1.19320 0.88232
 H2733 H 1.14668 1.27845 0.83189
 H2734 H 1.11056 1.20749 0.93094
 C2735 C 1.12492 0.81291 0.35682
 C2736 C 1.12520 0.80304 0.37846
 C2737 C 1.11339 0.78059 0.38338
 N2738 N 1.11291 0.77220 0.40492
 N2739 N 1.10205 0.75215 0.40965
 C2740 C 1.09116 0.73971 0.39306
 N2741 N 1.09163 0.74811 0.37151
 N2742 N 1.10249 0.76816 0.36677
 C2743 C 1.07955 0.71716 0.39804
 C2744 C 1.08004 0.70749 0.41976
 H2745 H 1.13318 0.81240 0.39243
 H2746 H 1.07174 0.70754 0.38414
 H2747 H 1.11582 0.80359 0.34348
 H2748 H 1.08890 0.71714 0.43304
 C2749 C 0.64749 1.30489 0.35577
 C2750 C 0.62723 1.29226 0.35153
 C2751 C 0.62125 1.27135 0.36521
 N2752 N 0.60029 1.26087 0.36328
 N2753 N 0.59486 1.24213 0.37567
 C2754 C 0.61018 1.23308 0.39046
 N2755 N 0.63116 1.24348 0.39230
 N2756 N 0.63655 1.26225 0.37998
 C2757 C 0.60459 1.21198 0.40393
 C2758 C 0.58281 1.20151 0.40321
 H2759 H 0.61534 1.29773 0.33867
 H2760 H 0.61813 1.20424 0.41375
 H2761 H 0.65788 1.29866 0.36962
 H2762 H 0.56991 1.20971 0.39287
 C2763 C 0.62882 0.81348 0.85266
 C2764 C 0.62941 0.80457 0.87477
 C2765 C 0.61759 0.78253 0.88123
 N2766 N 0.61902 0.77463 0.90290
 N2767 N 0.60849 0.75481 0.90907
 C2768 C 0.59605 0.74210 0.89381
 N2769 N 0.59457 0.75003 0.87215
 N2770 N 0.60512 0.76984 0.86597
 C2771 C 0.58444 0.71996 0.90032
 C2772 C 0.58679 0.71024 0.92193
 H2773 H 0.63834 0.81403 0.88805
 H2774 H 0.57464 0.71080 0.88742
 H2775 H 0.61898 0.80388 0.84003
 H2776 H 0.59779 0.71920 0.93403
 C2777 C 0.85321 1.31194 1.12997
 C2778 C 0.87405 1.29990 1.13120
 C2779 C 0.88021 1.28062 1.11547
 N2780 N 0.90172 1.27159 1.11605
 N2781 N 0.90757 1.25366 1.10256
 C2782 C 0.89213 1.24399 1.08798
 N2783 N 0.87059 1.25306 1.08734
 N2784 N 0.86474 1.27108 1.10080
 C2785 C 0.89822 1.22322 1.07405
 C2786 C 0.92023 1.21362 1.07496
 H2787 H 0.88692 1.30489 1.14347
 H2788 H 0.88479 1.21457 1.06443
 H2789 H 0.84202 1.30751 1.11591
 H2790 H 0.93303 1.22252 1.08523
 C2791 C 0.84916 0.80283 0.63534
 C2792 C 0.87147 0.79395 0.63517
 C2793 C 0.87790 0.77287 0.62214
 N2794 N 0.90002 0.76542 0.62233
 N2795 N 0.90612 0.74604 0.61109
 C2796 C 0.89034 0.73338 0.59923
 N2797 N 0.86822 0.74089 0.59894
 N2798 N 0.86210 0.76030 0.61019
 C2799 C 0.89676 0.71143 0.58756
 C2800 C 0.91895 0.70245 0.58908
 H2801 H 0.88489 0.80285 0.64460
 H2802 H 0.88338 0.70165 0.57894
 H2803 H 0.83635 0.79478 0.62447
 H2804 H 0.93161 0.71215 0.59884
 C2805 C 0.35355 1.29894 0.63611
 C2806 C 0.37573 1.28969 0.63738
 C2807 C 0.38301 1.26987 0.62289
 N2808 N 0.40509 1.26234 0.62352
 N2809 N 0.41183 1.24413 0.61081
 C2810 C 0.39672 1.23278 0.59701
 N2811 N 0.37466 1.24035 0.59634
 N2812 N 0.36793 1.25858 0.60902
 C2813 C 0.40362 1.21201 0.58370
 C2814 C 0.42597 1.20328 0.58446
 H2815 H 0.38845 1.29708 0.64866
 H2816 H 0.39037 1.20273 0.57441
 H2817 H 0.34224 1.29146 0.62337
 H2818 H 0.43857 1.21252 0.59469
 C2819 C 0.35127 0.79348 1.15737
 C2820 C 0.35265 0.78548 1.13482
 C2821 C 0.36919 0.76743 1.12766
 N2822 N 0.37148 0.76165 1.10528
 N2823 N 0.38599 0.74495 1.09857
 C2824 C 0.39880 0.73343 1.11397
 N2825 N 0.39661 0.73928 1.13636
 N2826 N 0.38211 0.75603 1.14308
 C2827 C 0.41347 0.71375 1.10689
 C2828 C 0.41450 0.70630 1.08422
 H2829 H 0.34222 0.79289 1.12168
 H2830 H 0.42152 0.70364 1.12001
 H2831 H 0.36346 0.78642 1.16925
 H2832 H 0.40555 0.71630 1.07156
 C2833 C 0.88233 0.68167 0.86981
 C2834 C 0.88213 0.69226 0.89133
 C2835 C 0.89326 0.71499 0.89562
 N2836 N 0.89089 0.72538 0.91640
 N2837 N 0.89969 0.74660 0.92024
 C2838 C 0.91120 0.75820 0.90343
 N2839 N 0.91382 0.74770 0.88271
 N2840 N 0.90497 0.72648 0.87885
 C2841 C 0.92003 0.78206 0.90714
 C2842 C 0.91496 0.79453 0.92714
 H2843 H 0.87292 0.68420 0.90541
 H2844 H 0.92941 0.79027 0.89325
 H2845 H 0.89303 0.68913 0.85639
 H2846 H 0.90422 0.78631 0.94009
 C2847 C 0.88499 0.18101 0.36610
 C2848 C 0.88573 0.18990 0.38832
 C2849 C 0.89714 0.21223 0.39380
 N2850 N 0.89598 0.22087 0.41541
 N2851 N 0.90512 0.24169 0.42045
 C2852 C 0.91577 0.25464 0.40404
 N2853 N 0.91714 0.24590 0.38248
 N2854 N 0.90796 0.22509 0.37743
 C2855 C 0.92502 0.27808 0.40912
 C2856 C 0.92173 0.28879 0.43040
 H2857 H 0.87718 0.18072 0.40212
 H2858 H 0.93332 0.28747 0.39530
 H2859 H 0.89505 0.18961 0.35286
 H2860 H 0.91205 0.27947 0.44344
 C2861 C 0.36604 0.68019 0.38471
 C2862 C 0.38685 0.69266 0.38382
 C2863 C 0.39036 0.71477 0.39630
 N2864 N 0.41121 0.72557 0.39502
 N2865 N 0.41445 0.74639 0.40480
 C2866 C 0.39696 0.75729 0.41622
 N2867 N 0.37613 0.74637 0.41775
 N2868 N 0.37288 0.72547 0.40795
 C2869 C 0.40010 0.78111 0.42552
 C2870 C 0.42056 0.79344 0.42138
 H2871 H 0.40126 0.68651 0.37359
 H2872 H 0.38562 0.78948 0.43400
 H2873 H 0.35320 0.68577 0.39723
 H2874 H 0.43430 0.78474 0.41194
 C2875 C 0.37801 0.18711 0.86070
 C2876 C 0.37589 0.19925 0.88144
 C2877 C 0.38895 0.22080 0.88634
 N2878 N 0.38711 0.23084 0.90732
 N2879 N 0.39795 0.25088 0.91194
 C2880 C 0.41103 0.26172 0.89574
 N2881 N 0.41299 0.25163 0.87475
 N2882 N 0.40216 0.23152 0.87013
 C2883 C 0.42198 0.28456 0.90045
 C2884 C 0.41909 0.29560 0.92163
 H2885 H 0.36464 0.19301 0.89494
 H2886 H 0.43102 0.29325 0.88664
 H2887 H 0.39122 0.19307 0.84877
 H2888 H 0.40927 0.28657 0.93476
 C2889 C 1.12844 0.70943 1.15029
 C2890 C 1.12689 0.71709 1.12786
 C2891 C 1.11081 0.73582 1.12197
 N2892 N 1.10679 0.74057 1.09981
 N2893 N 1.09211 0.75731 1.09434
 C2894 C 1.08085 0.76989 1.11080
 N2895 N 1.08488 0.76515 1.13296
 N2896 N 1.09951 0.74837 1.13843
 C2897 C 1.06587 0.78951 1.10492
 C2898 C 1.06257 0.79551 1.08230
 H2899 H 1.13614 0.70846 1.11406
 H2900 H 1.05958 0.80088 1.11851
 H2901 H 1.11753 0.71809 1.16293
 H2902 H 1.06971 0.78435 1.06896
 C2903 C 1.14420 0.19188 0.62992
 C2904 C 1.12351 0.20419 0.63143
 C2905 C 1.11893 0.22434 0.61683
 N2906 N 1.09759 0.23381 0.61698
 N2907 N 1.09320 0.25241 0.60439
 C2908 C 1.10997 0.26234 0.59117
 N2909 N 1.13135 0.25287 0.59097
 N2910 N 1.13573 0.23417 0.60353
 C2911 C 1.10542 0.28381 0.57832
 C2912 C 1.08347 0.29355 0.57862
 H2913 H 1.10982 0.19890 0.64300
 H2914 H 1.11975 0.29282 0.57017
 H2915 H 1.15642 0.19709 0.61669
 H2916 H 1.06966 0.28421 0.58736
 C2917 C 0.65170 0.71182 0.63612
 C2918 C 0.62864 0.71635 0.63169
 C2919 C 0.62194 0.73454 0.61561
 N2920 N 0.59932 0.73827 0.61158
 N2921 N 0.59300 0.75492 0.59733
 C2922 C 0.60907 0.76841 0.58650
 N2923 N 0.63170 0.76456 0.59039
 N2924 N 0.63802 0.74792 0.60465
 C2925 C 0.60227 0.78788 0.57193
 C2926 C 0.57926 0.79431 0.57014
 H2927 H 0.61511 0.70596 0.63961
 H2928 H 0.61575 0.79871 0.56448
 H2929 H 0.66494 0.72159 0.62700
 H2930 H 0.56614 0.78396 0.57879
 C2931 C 0.64257 0.21634 1.15074
 C2932 C 0.64520 0.22511 1.12871
 C2933 C 0.63060 0.24448 1.12124
 N2934 N 0.63007 0.25041 1.09893
 N2935 N 0.61635 0.26747 1.09210
 C2936 C 0.60265 0.27919 1.10731
 N2937 N 0.60330 0.27336 1.12960
 N2938 N 0.61695 0.25630 1.13641
 C2939 C 0.58782 0.29846 1.10024
 C2940 C 0.58664 0.30517 1.07756
 H2941 H 0.65670 0.21703 1.11632
 H2942 H 0.57887 0.30837 1.11342
 H2943 H 0.62974 0.22468 1.16167
 H2944 H 0.59653 0.29551 1.06482
 C2945 C 1.31090 1.13450 0.87358
 C2946 C 1.30074 1.11232 0.87354
 C2947 C 1.27971 1.10707 0.88702
 N2948 N 1.27086 1.08505 0.88695
 N2949 N 1.25157 1.08012 0.89861
 C2950 C 1.24037 1.09700 0.91082
 N2951 N 1.24927 1.11902 0.91097
 N2952 N 1.26859 1.12396 0.89931
 C2953 C 1.21842 1.09195 0.92289
 C2954 C 1.20812 1.06986 0.92172
 H2955 H 1.30844 1.09822 0.86371
 H2956 H 1.20963 1.10627 0.93142
 H2957 H 1.30365 1.14787 0.88474
 H2958 H 1.21695 1.05618 0.91219
 C2959 C 1.31213 0.61597 0.36528
 C2960 C 1.30173 0.61424 0.38678
 C2961 C 1.27915 0.60295 0.39038
 N2962 N 1.26940 0.60308 0.41153
 N2963 N 1.24848 0.59396 0.41503
 C2964 C 1.23651 0.58433 0.39751
 N2965 N 1.24636 0.58395 0.37638
 N2966 N 1.26730 0.59313 0.37286
 C2967 C 1.21290 0.57534 0.40111
 C2968 C 1.20122 0.57913 0.42177
 H2969 H 1.31010 0.62169 0.40155
 H2970 H 1.20422 0.56715 0.38688
 H2971 H 1.30433 0.60697 0.35095
 H2972 H 1.20996 0.58875 0.43516
 C2973 C 0.81641 1.12894 0.37833
 C2974 C 0.80518 1.10735 0.37687
 C2975 C 0.78254 1.10321 0.38767
 N2976 N 0.77183 1.08225 0.38478
 N2977 N 0.75075 1.07859 0.39339
 C2978 C 0.73959 1.09577 0.40520
 N2979 N 0.75038 1.11667 0.40828
 N2980 N 0.77147 1.12034 0.39964
 C2981 C 0.71595 1.09229 0.41394
 C2982 C 0.70359 1.07182 0.40930
 H2983 H 0.81275 1.09317 0.36705
 H2984 H 0.70795 1.10668 0.42308
 H2985 H 0.80938 1.14231 0.38962
 H2986 H 0.71178 1.05832 0.39898
 C2987 C 0.81265 0.63168 0.88302
 C2988 C 0.80101 0.61027 0.88329
 C2989 C 0.77871 0.60728 0.89524
 N2990 N 0.76780 0.58625 0.89454
 N2991 N 0.74719 0.58345 0.90448
 C2992 C 0.73668 0.60155 0.91553
 N2993 N 0.74769 0.62255 0.91643
 N2994 N 0.76833 0.62537 0.90646
 C2995 C 0.71331 0.59888 0.92540
 C2996 C 0.70063 0.57840 0.92190
 H2997 H 0.80821 0.59522 0.87452
 H2998 H 0.70553 0.61378 0.93396
 H2999 H 0.80572 0.64604 0.89312
 H3000 H 0.70858 0.56429 0.91220
 C3001 C 1.28440 0.84543 1.14732
 C3002 C 1.27284 0.86661 1.14994
 C3003 C 1.25338 0.87273 1.13528
 N3004 N 1.24380 0.89423 1.13709
 N3005 N 1.22611 0.89993 1.12411
 C3006 C 1.21726 0.88438 1.10882
 N3007 N 1.22683 0.86286 1.10702
 N3008 N 1.24457 0.85716 1.11997
 C3009 C 1.19717 0.89036 1.09489
 C3010 C 1.18722 0.91246 1.09647
 H3011 H 1.27839 0.87931 1.16255
 H3012 H 1.18965 0.87687 1.08422
 H3013 H 1.27920 0.83376 1.13362
 H3014 H 1.19507 0.92524 1.10777
 C3015 C 1.29091 0.35332 0.64980
 C3016 C 1.28684 0.37617 0.64308
 C3017 C 1.26680 0.38186 0.62900
 N3018 N 1.26409 0.40390 0.62120
 N3019 N 1.24667 0.40892 0.60757
 C3020 C 1.23138 0.39206 0.60107
 N3021 N 1.23409 0.37004 0.60886
 N3022 N 1.25148 0.36503 0.62251
 C3023 C 1.21163 0.39748 0.58651
 C3024 C 1.20652 0.42037 0.58064
 H3025 H 1.29975 0.38959 0.64617
 H3026 H 1.19981 0.38347 0.58202
 H3027 H 1.27839 0.33986 0.64556
 H3028 H 1.21771 0.43437 0.58654
 C3029 C 0.79834 0.87240 0.64498
 C3030 C 0.79158 0.87255 0.62219
 C3031 C 0.77033 0.88368 0.61444
 N3032 N 0.76443 0.88175 0.59220
 N3033 N 0.74485 0.89085 0.58488
 C3034 C 0.73040 0.90224 0.59958
 N3035 N 0.73636 0.90430 0.62181
 N3036 N 0.75593 0.89514 0.62915
 C3037 C 0.70858 0.91226 0.59187
 C3038 C 0.70057 0.90924 0.56964
 H3039 H 0.80192 0.86366 0.60932
 H3040 H 0.69828 0.92162 0.60444
 H3041 H 0.78901 0.88295 0.65743
 H3042 H 0.71023 0.89823 0.55782
 C3043 C 0.79821 0.37528 1.14824
 C3044 C 0.79042 0.37744 1.12591
 C3045 C 0.76875 0.38907 1.11999
 N3046 N 0.76214 0.38925 1.09790
 N3047 N 0.74235 0.39902 1.09205
 C3048 C 0.72835 0.40903 1.10809
 N3049 N 0.73500 0.40898 1.13020
 N3050 N 0.75480 0.39915 1.13607
 C3051 C 0.70619 0.41959 1.10186
 C3052 C 0.69761 0.41800 1.07972
 H3053 H 0.80045 0.37016 1.11188
 H3054 H 0.69612 0.42792 1.11529
 H3055 H 0.78901 0.38418 1.16196
 H3056 H 0.70736 0.40818 1.06700
 C3057 C 0.70203 1.15248 1.14847
 C3058 C 0.71035 1.15466 1.12611
 C3059 C 0.73059 1.14130 1.11793
 N3060 N 0.73807 1.14304 1.09596
 N3061 N 0.75642 1.13108 1.08854
 C3062 C 0.76797 1.11695 1.10284
 N3063 N 0.76048 1.11522 1.12477
 N3064 N 0.74216 1.12714 1.13217
 C3065 C 0.78851 1.10385 1.09521
 C3066 C 0.79752 1.10525 1.07305
 H3067 H 0.70187 1.16587 1.11420
 H3068 H 0.79717 1.09364 1.10784
 H3069 H 0.71054 1.14026 1.15946
 H3070 H 0.78919 1.11662 1.06110
 C3071 C 0.71229 0.65585 0.65426
 C3072 C 0.71749 0.63219 0.65184
 C3073 C 0.73862 0.62463 0.63945
 N3074 N 0.74306 0.60155 0.63626
 N3075 N 0.76151 0.59470 0.62412
 C3076 C 0.77613 0.61068 0.61456
 N3077 N 0.77168 0.63372 0.61777
 N3078 N 0.75330 0.64055 0.62994
 C3079 C 0.79666 0.60351 0.60108
 C3080 C 0.80363 0.58028 0.59955
 H3081 H 0.70499 0.61911 0.65720
 H3082 H 0.80722 0.61706 0.59335
 H3083 H 0.72471 0.66859 0.64798
 H3084 H 0.79372 0.56718 0.60874
 C3085 C 0.19882 1.12879 0.64582
 C3086 C 0.20756 1.12653 0.62366
 C3087 C 0.22899 1.11400 0.61839
 N3088 N 0.23673 1.11260 0.59651
 N3089 N 0.25650 1.10199 0.59142
 C3090 C 0.26927 1.09234 0.60803
 N3091 N 0.26144 1.09354 0.62992
 N3092 N 0.24164 1.10419 0.63502
 C3093 C 0.29172 1.08171 0.60263
 C3094 C 0.30136 1.08314 0.58078
 H3095 H 0.19842 1.13398 0.60958
 H3096 H 0.30137 1.07431 0.61640
 H3097 H 0.20725 1.11979 0.65950
 H3098 H 0.29180 1.09189 0.56769
 C3099 C 0.18767 0.64832 1.13708
 C3100 C 0.20577 0.63481 1.14503
 C3101 C 0.22531 0.62734 1.13018
 N3102 N 0.24229 0.61414 1.13891
 N3103 N 0.26029 0.60762 1.12599
 C3104 C 0.26213 0.61410 1.10380
 N3105 N 0.24515 0.62736 1.09505
 N3106 N 0.22710 0.63385 1.10798
 C3107 C 0.28213 0.60686 1.08937
 C3108 C 0.29866 0.59155 1.09754
 H3109 H 0.20640 0.63037 1.16288
 H3110 H 0.28333 0.61308 1.07204
 H3111 H 0.18800 0.65314 1.11927
 H3112 H 0.29612 0.58490 1.11463
 C3113 C 0.68397 0.88217 0.86355
 C3114 C 0.70311 0.87156 0.87283
 C3115 C 0.72377 0.88528 0.87903
 N3116 N 0.74298 0.87417 0.88583
 N3117 N 0.76211 0.88624 0.89046
 C3118 C 0.76285 0.90989 0.88835
 N3119 N 0.74362 0.92102 0.88157
 N3120 N 0.72447 0.90894 0.87694
 C3121 C 0.78383 0.92338 0.89405
 C3122 C 0.80284 0.91233 0.90311
 H3123 H 0.70392 0.85266 0.87345
 H3124 H 0.78368 0.94225 0.89271
 H3125 H 0.68398 0.90103 0.86197
 H3126 H 0.80208 0.89356 0.90540
 C3127 C 0.70732 0.36592 0.35099
 C3128 C 0.71396 0.36484 0.37369
 C3129 C 0.73490 0.37665 0.38177
 N3130 N 0.74046 0.37571 0.40410
 N3131 N 0.75946 0.38629 0.41162
 C3132 C 0.77356 0.39821 0.39705
 N3133 N 0.76798 0.39917 0.37473
 N3134 N 0.74900 0.38859 0.36722
 C3135 C 0.79477 0.40967 0.40488
 C3136 C 0.80200 0.40830 0.42737
 H3137 H 0.70330 0.35575 0.38610
 H3138 H 0.80539 0.41843 0.39222
 H3139 H 0.71748 0.37644 0.33923
 H3140 H 0.79190 0.39808 0.43942
 C3141 C 0.17913 0.88238 0.36853
 C3142 C 0.19764 0.87132 0.37865
 C3143 C 0.21837 0.88458 0.38572
 N3144 N 0.23624 0.87331 0.39524
 N3145 N 0.25531 0.88497 0.40100
 C3146 C 0.25733 0.90835 0.39737
 N3147 N 0.23947 0.91962 0.38783
 N3148 N 0.22037 0.90796 0.38211
 C3149 C 0.27841 0.92145 0.40366
 C3150 C 0.29608 0.91081 0.41550
 H3151 H 0.19771 0.85248 0.38015
 H3152 H 0.27954 0.93985 0.39967
 H3153 H 0.17999 0.90120 0.36668
 H3154 H 0.29375 0.89270 0.42036
 C3155 C 0.20420 0.36350 0.84604
 C3156 C 0.21362 0.36125 0.86763
 C3157 C 0.23318 0.37594 0.87508
 N3158 N 0.24117 0.37405 0.89658
 N3159 N 0.25906 0.38695 0.90342
 C3160 C 0.26968 0.40225 0.88902
 N3161 N 0.26166 0.40418 0.86753
 N3162 N 0.24375 0.39130 0.86070
 C3163 C 0.29006 0.41596 0.89612
 C3164 C 0.29916 0.41378 0.91786
 H3165 H 0.20639 0.34882 0.87959
 H3166 H 0.29865 0.42680 0.88355
 H3167 H 0.21103 0.37707 0.83503
 H3168 H 0.29052 0.40209 0.92970
   
