data_POSCAR
  _audit_creation_date              2014-09-24
  _audit_creation_method            'ToBaCCo'
  _symmetry_space_group_name_H-M    'P1'
  _symmetry_Int_Tables_number       1
  _symmetry_cell_setting            triclinic
  loop_
  _symmetry_equiv_pos_as_xyz
 x,y,z
_cell_length_a 36.6269
_cell_length_b 36.8283
_cell_length_c 36.2731
_cell_angle_alpha 89.744200
_cell_angle_beta 90.045100
_cell_angle_gamma 89.579900
loop_
  _atom_site_label
  _atom_site_type_symbol
  _atom_site_fract_x
  _atom_site_fract_y
  _atom_site_fract_z
C1 C 0.13075 0.00120 0.25430
 C2 C 0.36807 -0.00158 0.75058
 C3 C 0.86917 0.50370 0.24987
 C4 C 0.62489 0.50047 0.75324
 C5 C 0.25236 0.12480 0.99403
 C6 C 0.75279 0.37506 0.99758
 C7 C 0.25872 0.87416 0.51006
 C8 C 0.75778 0.61899 0.49755
 C9 C -0.00330 0.24520 0.12101
 C10 C -0.00516 0.75149 0.37897
 C11 C 0.50245 0.25336 0.87170
 C12 C 0.49719 0.75702 0.62459
 C13 C 0.87516 0.99916 0.75356
 C14 C 0.36716 0.49997 0.25230
 C15 C 0.62562 1.00415 0.25140
 C16 C 0.12782 0.49882 0.74904
 C17 C 0.75444 0.87612 0.00320
 C18 C 0.25987 0.37644 0.49283
 C19 C 0.25148 0.61449 0.01056
 C20 C 0.75667 0.12099 0.49940
 C21 C 0.99812 0.74688 0.87733
 C22 C 0.49393 0.25819 0.37675
 C23 C 0.99920 0.24947 0.62301
 C24 C 0.49418 0.75159 0.12556
 O25 O -0.00925 0.97283 0.89636
 O26 O 0.05553 0.99292 0.90007
 O27 O -0.00308 0.88920 0.98392
 O28 O 0.00496 0.88632 1.04359
 O29 O -0.09447 0.96563 0.97449
 O30 O -0.10052 1.02703 0.99779
 O31 O 0.07517 0.99279 1.08476
 O32 O 0.08504 0.93393 1.05568
 O33 O 0.08291 1.06528 0.99525
 O34 O 0.04781 1.07119 0.93418
 O35 O -0.00745 1.07278 1.07126
 O36 O -0.06006 1.04138 1.08140
 O37 O 0.02085 1.01379 1.10599
 O38 O -0.04418 0.99353 1.10156
 O39 O 0.01882 1.09666 1.01995
 O40 O 0.01081 1.09977 0.95868
 O41 O 0.10888 1.01853 1.02658
 O42 O 0.11628 0.96001 1.01072
 O43 O -0.06091 0.99879 0.91851
 O44 O -0.07842 1.05104 0.95221
 O45 O -0.06832 0.91892 1.00548
 O46 O -0.03825 0.91547 1.06705
 O47 O 0.01999 0.91359 0.93115
 O48 O 0.07354 0.94530 0.92205
 Zr49 Zr 0.02525 0.96903 0.94326
 O50 O 0.05723 1.00347 0.97594
 Zr51 Zr -0.01436 0.93412 1.01733
 O52 O 0.01554 0.96747 1.05300
 Zr53 Zr -0.05238 1.00455 0.97483
 O54 O -0.02368 1.04117 1.00770
 Zr55 Zr 0.06554 0.98137 1.02881
 O56 O 0.03752 0.94433 0.99448
 Zr57 Zr 0.02814 1.05168 0.98544
 O58 O -0.00274 1.01891 0.94939
 Zr59 Zr -0.01246 1.01716 1.05915
 O60 O -0.04483 0.98166 1.02736
 O61 O -0.02516 0.95587 0.96553
 O62 O 0.03893 1.03099 1.03813
 C63 C -0.04129 0.98681 0.89197
 C64 C 0.00907 0.88680 0.95089
 C65 C -0.09573 0.93386 0.98925
 C66 C 0.05420 1.00426 1.11072
 C67 C 0.11030 1.04993 1.01124
 C68 C 0.00373 1.09973 1.05180
 H69 H 0.08054 1.00773 0.96296
 H70 H -0.03857 1.06357 1.00973
 H71 H -0.03896 0.93963 0.94920
 H72 H 0.01904 0.95432 1.07658
 H73 H 0.08003 0.91322 1.03911
 H74 H 0.02571 0.89339 1.05938
 H75 H -0.01517 1.09616 0.95246
 H76 H -0.06108 1.06210 0.93461
 H77 H 0.11684 0.96235 0.98359
 H78 H 0.08408 0.93018 0.94210
 H79 H -0.07357 1.05266 1.06065
 H80 H -0.10528 1.01370 1.02105
 H81 H 0.04312 1.01613 0.89407
 H82 H 0.07240 1.06064 0.93009
 H83 H -0.06068 0.93007 1.07116
 H84 H -0.03047 0.97231 1.11129
 O85 O 0.49057 0.59344 0.56511
 O86 O 0.43850 0.55998 0.57845
 O87 O 0.56764 0.49852 0.58324
 O88 O 0.59310 0.45623 0.55154
 O89 O 0.58104 0.58058 0.48530
 O90 O 0.54769 0.58933 0.43170
 O91 O 0.48693 0.40596 0.48238
 O92 O 0.50856 0.40902 0.54559
 O93 O 0.40223 0.48465 0.47717
 O94 O 0.39701 0.54878 0.49350
 O95 O 0.48394 0.48410 0.39555
 O96 O 0.54867 0.50453 0.39486
 O97 O 0.51166 0.42821 0.42950
 O98 O 0.56924 0.46084 0.42027
 O99 O 0.43344 0.51230 0.41832
 O100 O 0.42079 0.56950 0.44952
 O101 O 0.42715 0.43754 0.50916
 O102 O 0.45542 0.42875 0.56369
 O103 O 0.52127 0.61420 0.51488
 O104 O 0.50062 0.61178 0.45223
 O105 O 0.60459 0.53477 0.52052
 O106 O 0.60682 0.47001 0.50061
 O107 O 0.52186 0.53491 0.60269
 O108 O 0.45863 0.51535 0.60289
 Zr109 Zr 0.48684 0.53674 0.55690
 O110 O 0.45396 0.50117 0.52651
 Zr111 Zr 0.56194 0.49728 0.52510
 O112 O 0.53244 0.46026 0.49277
 Zr113 Zr 0.52564 0.56820 0.48111
 O114 O 0.49427 0.53442 0.44715
 Zr115 Zr 0.48153 0.45167 0.51707
 O116 O 0.51246 0.48549 0.55165
 Zr117 Zr 0.44479 0.52267 0.47372
 O118 O 0.47429 0.56031 0.50561
 Zr119 Zr 0.52018 0.48361 0.44098
 O120 O 0.55364 0.51900 0.47187
 O121 O 0.53752 0.54782 0.53368
 O122 O 0.46955 0.47210 0.46458
 C123 C 0.50467 0.61903 0.54560
 C124 C 0.54952 0.51444 0.60913
 C125 C 0.60743 0.56392 0.50130
 C126 C 0.49869 0.40225 0.44917
 C127 C 0.40064 0.45305 0.49218
 C128 C 0.45126 0.49666 0.39237
 H129 H 0.43083 0.49755 0.54000
 H130 H 0.49056 0.54688 0.42324
 H131 H 0.55243 0.56409 0.54923
 H132 H 0.54641 0.43727 0.49081
 H133 H 0.52081 0.41992 0.56720
 H134 H 0.57818 0.43394 0.55108
 H135 H 0.43754 0.57825 0.43008
 H136 H 0.47654 0.61605 0.46390
 H137 H 0.44255 0.44865 0.57657
 H138 H 0.47111 0.49234 0.60971
 H139 H 0.53454 0.52545 0.38505
 H140 H 0.56256 0.56964 0.42070
 H141 H 0.42559 0.57129 0.55732
 H142 H 0.39016 0.53715 0.51711
 H143 H 0.61208 0.48269 0.47712
 H144 H 0.57765 0.44204 0.43795
 O145 O 0.51711 0.03291 0.39746
 O146 O 0.45268 0.01408 0.40142
 O147 O 0.51743 0.11416 0.48612
 O148 O 0.50854 0.11561 0.54560
 O149 O 0.60331 0.03233 0.47564
 O150 O 0.60871 -0.02774 0.49514
 O151 O 0.43315 0.01245 0.58468
 O152 O 0.42291 0.06884 0.55726
 O153 O 0.42500 -0.06193 0.49513
 O154 O 0.45384 -0.07383 0.44117
 O155 O 0.51252 -0.07101 0.57377
 O156 O 0.56852 -0.03885 0.58249
 O157 O 0.48440 -0.01505 0.60701
 O158 O 0.54917 0.00705 0.60569
 O159 O 0.48534 -0.09341 0.52238
 O160 O 0.50386 -0.08929 0.45359
 O161 O 0.40036 -0.01449 0.52639
 O162 O 0.39594 0.04902 0.50855
 O163 O 0.56625 0.00144 0.41843
 O164 O 0.58248 -0.05203 0.45321
 O165 O 0.58087 0.08106 0.50665
 O166 O 0.55128 0.08332 0.56877
 O167 O 0.48859 0.09268 0.43516
 O168 O 0.43588 0.06094 0.42393
 Zr169 Zr 0.48389 0.03617 0.44474
 O170 O 0.45173 0.00097 0.47652
 Zr171 Zr 0.52613 0.06774 0.51873
 O172 O 0.49406 0.03517 0.55392
 Zr173 Zr 0.55966 -0.00398 0.47551
 O174 O 0.53090 -0.03985 0.50982
 Zr175 Zr 0.44378 0.02305 0.52905
 O176 O 0.47348 0.06015 0.49622
 Zr177 Zr 0.47947 -0.04839 0.48641
 O178 O 0.50953 -0.01516 0.45009
 Zr179 Zr 0.51990 -0.01560 0.56109
 O180 O 0.55369 0.01837 0.52843
 O181 O 0.53527 0.04655 0.46638
 O182 O 0.46871 -0.02739 0.53874
 C183 C 0.54730 0.01584 0.39228
 C184 C 0.50161 0.11856 0.45486
 C185 C 0.60669 0.06385 0.48996
 C186 C 0.45155 -0.00309 0.61050
 C187 C 0.39850 -0.04620 0.51176
 C188 C 0.49871 -0.09702 0.55499
 H189 H 0.42842 -0.00292 0.46345
 H190 H 0.54509 -0.06265 0.51236
 H191 H 0.54928 0.06274 0.44981
 H192 H 0.49039 0.04793 0.57756
 H193 H 0.43246 0.09058 0.54442
 H194 H 0.48782 0.10886 0.56161
 H195 H 0.52331 -0.10117 0.46839
 H196 H 0.56426 -0.06204 0.43594
 H197 H 0.38881 0.03711 0.48527
 H198 H 0.42343 0.07202 0.44533
 H199 H 0.57921 -0.05428 0.56299
 H200 H 0.61202 -0.01900 0.52069
 H201 H 0.46378 -0.00986 0.39589
 H202 H 0.43856 -0.05523 0.42871
 H203 H 0.57251 0.06694 0.57266
 H204 H 0.53497 0.02802 0.61505
 O205 O -0.07805 0.42660 0.98191
 O206 O -0.03817 0.41894 0.92831
 O207 O 0.00154 0.41457 1.06919
 O208 O 0.05837 0.44483 1.08150
 O209 O -0.07580 0.49839 1.07570
 O210 O -0.08283 0.55754 1.04469
 O211 O 0.10244 0.51788 0.98486
 O212 O 0.10722 0.45730 0.99855
 O213 O 0.02400 0.51789 0.89723
 O214 O -0.03583 0.50701 0.88893
 O215 O 0.01726 0.59988 0.98401
 O216 O -0.00110 0.59788 1.04747
 O217 O 0.07651 0.56861 1.00882
 O218 O 0.04272 0.57305 1.06868
 O219 O -0.00430 0.57780 0.92982
 O220 O -0.06394 0.54131 0.91904
 O221 O 0.07475 0.49252 0.92242
 O222 O 0.08102 0.43257 0.95726
 O223 O -0.10542 0.47688 1.00460
 O224 O -0.10816 0.53777 1.00197
 O225 O -0.02591 0.47264 1.10254
 O226 O 0.03588 0.49106 1.10655
 O227 O -0.02259 0.39282 1.01596
 O228 O 0.00177 0.39180 0.95675
 Zr229 Zr -0.02259 0.43823 0.98077
 O230 O 0.01113 0.47108 0.94843
 Zr231 Zr 0.01131 0.46978 1.05860
 O232 O 0.04746 0.50382 1.02963
 Zr233 Zr -0.06103 0.50983 1.02068
 O234 O -0.02815 0.54575 0.99063
 Zr235 Zr 0.05918 0.48197 0.97752
 O236 O 0.02707 0.44543 1.00867
 Zr237 Zr -0.01345 0.52222 0.94032
 O238 O -0.04943 0.48756 0.96858
 Zr239 Zr 0.02173 0.55376 1.01803
 O240 O -0.01322 0.52109 1.05067
 O241 O -0.03783 0.45944 1.03162
 O242 O 0.03611 0.53306 0.96639
 C243 C -0.10648 0.44557 0.98896
 C244 C -0.01153 0.38894 1.04931
 C245 C -0.05872 0.48498 1.10374
 C246 C 0.10405 0.55069 0.99628
 C247 C 0.05684 0.50599 0.89502
 C248 C 0.00617 0.60378 0.95069
 H249 H 0.01590 0.45830 0.92500
 H250 H -0.04222 0.56835 0.98720
 H251 H -0.05498 0.44358 1.04521
 H252 H 0.06992 0.50691 1.04436
 H253 H 0.10666 0.46022 1.02563
 H254 H 0.06756 0.42736 1.06296
 H255 H -0.06882 0.56556 0.92969
 H256 H -0.10641 0.53864 0.97477
 H257 H 0.06816 0.42684 0.93403
 H258 H 0.02616 0.38889 0.96822
 H259 H -0.02557 0.60281 1.03697
 H260 H -0.06672 0.56379 1.06562
 H261 H -0.05659 0.43633 0.91863
 H262 H -0.03059 0.48084 0.88566
 H263 H 0.02618 0.51605 1.10939
 H264 H 0.06466 0.55849 1.07503
 O265 O 0.02894 0.39238 0.51281
 O266 O 0.01744 0.39406 0.44833
 O267 O 0.11252 0.48123 0.51514
 O268 O 0.11355 0.53947 0.50424
 O269 O 0.02640 0.47417 0.59832
 O270 O -0.03790 0.49446 0.59561
 O271 O 0.01379 0.57849 0.42448
 O272 O 0.07294 0.54975 0.42015
 O273 O -0.05895 0.48860 0.41006
 O274 O -0.07164 0.43636 0.43592
 O275 O -0.07559 0.56091 0.50206
 O276 O -0.03990 0.57069 0.56135
 O277 O -0.01779 0.59770 0.47467
 O278 O -0.00472 0.60198 0.53538
 O279 O -0.09538 0.51180 0.47118
 O280 O -0.08570 0.44156 0.48881
 O281 O -0.00976 0.52003 0.38942
 O282 O 0.05122 0.50488 0.38758
 O283 O -0.00302 0.41418 0.56164
 O284 O -0.05208 0.44576 0.57967
 O285 O 0.07673 0.50317 0.57744
 O286 O 0.08006 0.56227 0.54712
 O287 O 0.09212 0.42921 0.48871
 O288 O 0.06364 0.41916 0.43182
 Zr289 Zr 0.03616 0.43898 0.47894
 O290 O 0.00335 0.47031 0.44304
 Zr291 Zr 0.06536 0.51296 0.52137
 O292 O 0.03323 0.54715 0.48753
 Zr293 Zr -0.00777 0.47026 0.55218
 O294 O -0.04328 0.50169 0.51934
 Zr295 Zr 0.02447 0.52297 0.43602
 O296 O 0.06006 0.49001 0.46844
 Zr297 Zr -0.04821 0.47906 0.46648
 O298 O -0.01665 0.44465 0.50099
 Zr299 Zr -0.01934 0.55254 0.51007
 O300 O 0.01455 0.52228 0.54638
 O301 O 0.04427 0.46123 0.53095
 O302 O -0.02799 0.53133 0.45746
 C303 C 0.01055 0.38794 0.54274
 C304 C 0.11748 0.44965 0.50133
 C305 C 0.05772 0.48857 0.60322
 C306 C -0.00313 0.60317 0.44301
 C307 C -0.04063 0.50447 0.38452
 C308 C -0.10129 0.54174 0.48805
 H309 H 0.00129 0.45728 0.41941
 H310 H -0.06680 0.50310 0.53262
 H311 H 0.05969 0.44530 0.54673
 H312 H 0.04544 0.57087 0.48495
 H313 H 0.09368 0.53433 0.42844
 H314 H 0.10664 0.55691 0.48459
 H315 H -0.09994 0.45461 0.50778
 H316 H -0.07291 0.44633 0.56233
 H317 H 0.04654 0.47863 0.38503
 H318 H 0.07842 0.43949 0.42219
 H319 H -0.06190 0.55629 0.56710
 H320 H -0.02426 0.51606 0.60389
 H321 H -0.00800 0.38969 0.45628
 H322 H -0.05121 0.42207 0.42541
 H323 H 0.06130 0.56750 0.56605
 H324 H 0.02194 0.60473 0.53223
 O325 O 0.51453 1.08464 -0.06996
 O326 O 0.56814 1.04812 -0.08481
 O327 O 0.43638 0.99284 -0.08762
 O328 O 0.42875 0.93851 -0.06068
 O329 O 0.41800 1.06435 0.00637
 O330 O 0.44810 1.08509 0.05494
 O331 O 0.52367 0.89799 0.01764
 O332 O 0.50807 0.89959 -0.04672
 O333 O 0.60698 0.98552 0.01778
 O334 O 0.60566 1.04880 0.00611
 O335 O 0.52207 0.98209 0.10159
 O336 O 0.45208 1.00276 0.09398
 O337 O 0.49357 0.92050 0.06741
 O338 O 0.44432 0.95059 0.08462
 O339 O 0.57246 1.00978 0.07869
 O340 O 0.57751 1.06843 0.04589
 O341 O 0.58546 0.93369 -0.00753
 O342 O 0.56159 0.92181 -0.06072
 O343 O 0.47772 1.10351 -0.02405
 O344 O 0.49759 1.10173 0.04198
 O345 O 0.39848 1.01656 -0.02747
 O346 O 0.40108 0.95521 -0.01014
 O347 O 0.48456 1.02593 -0.10806
 O348 O 0.54626 1.00674 -0.10889
 Zr349 Zr 0.51914 1.02765 -0.06200
 O350 O 0.55349 0.99505 -0.02902
 Zr351 Zr 0.44613 0.98464 -0.03096
 O352 O 0.47733 0.95129 0.00446
 Zr353 Zr 0.47530 1.05835 0.01139
 O354 O 0.50877 1.02808 0.04763
 Zr355 Zr 0.52989 0.94410 -0.01752
 O356 O 0.49748 0.97500 -0.05517
 Zr357 Zr 0.55991 1.01865 0.02307
 O358 O 0.52814 1.05324 -0.01130
 Zr359 Zr 0.48686 0.97642 0.05562
 O360 O 0.45111 1.00774 0.02198
 O361 O 0.46706 1.03636 -0.04050
 O362 O 0.53920 0.96679 0.03454
 C363 C 0.49790 1.10999 -0.05205
 C364 C 0.45420 1.00960 -0.11292
 C365 C 0.39259 1.04547 -0.00885
 C366 C 0.50689 0.89386 0.04867
 C367 C 0.61167 0.95363 0.00415
 C368 C 0.55360 0.99680 0.10523
 H369 H 0.57701 0.99263 -0.04218
 H370 H 0.51058 1.04149 0.07099
 H371 H 0.45101 1.05199 -0.05587
 H372 H 0.46408 0.92819 0.00720
 H373 H 0.49765 0.90924 -0.07004
 H374 H 0.43954 0.91675 -0.04874
 H375 H 0.56158 1.07433 0.06707
 H376 H 0.51997 1.10948 0.02892
 H377 H 0.56551 0.94161 -0.07872
 H378 H 0.53528 0.98283 -0.11423
 H379 H 0.46745 1.01616 0.11167
 H380 H 0.44644 1.06732 0.07534
 H381 H 0.57654 1.06825 -0.06902
 H382 H 0.60586 1.04774 -0.02104
 H383 H 0.39593 0.96472 0.01478
 H384 H 0.42332 0.94971 0.06747
 O385 O 0.56839 0.50587 -0.07675
 O386 O 0.57306 0.56457 -0.04929
 O387 O 0.58746 0.43291 0.01132
 O388 O 0.56260 0.42147 0.06861
 O389 O 0.49634 0.41773 -0.06195
 O390 O 0.43765 0.44449 -0.06606
 O391 O 0.48922 0.52296 0.11345
 O392 O 0.55104 0.51042 0.11347
 O393 O 0.47650 0.60020 0.02777
 O394 O 0.48473 0.60285 -0.03454
 O395 O 0.40133 0.51110 0.04020
 O396 O 0.40587 0.44571 0.02119
 O397 O 0.43997 0.49029 0.09515
 O398 O 0.43247 0.43158 0.06694
 O399 O 0.41729 0.56124 0.00812
 O400 O 0.44635 0.57133 -0.05516
 O401 O 0.51072 0.58151 0.07657
 O402 O 0.57269 0.54812 0.08013
 O403 O 0.51635 0.47946 -0.09695
 O404 O 0.45179 0.49201 -0.09207
 O405 O 0.52587 0.39592 -0.01142
 O406 O 0.51467 0.39681 0.05471
 O407 O 0.60628 0.48572 -0.01516
 O408 O 0.60282 0.54903 -0.00477
 Zr409 Zr 0.55814 0.51667 -0.02084
 O410 O 0.52669 0.55033 0.01361
 Zr411 Zr 0.53240 0.44183 0.02325
 O412 O 0.50141 0.47257 0.06080
 Zr413 Zr 0.48502 0.47208 -0.04866
 O414 O 0.45037 0.50256 -0.01408
 Zr415 Zr 0.52156 0.52584 0.06567
 O416 O 0.55598 0.49329 0.03221
 Zr417 Zr 0.47279 0.55415 -0.00611
 O418 O 0.50588 0.52488 -0.04376
 Zr419 Zr 0.44886 0.47941 0.03905
 O420 O 0.47907 0.44589 0.00287
 O421 O 0.53790 0.46463 -0.02897
 O422 O 0.46796 0.53232 0.04679
 C423 C 0.54840 0.49246 -0.10237
 C424 C 0.61201 0.45388 -0.00184
 C425 C 0.51136 0.39175 -0.04354
 C426 C 0.45841 0.50767 0.11936
 C427 C 0.49304 0.60612 0.05839
 C428 C 0.39368 0.54173 0.02544
 H429 H 0.53865 0.57428 0.01480
 H430 H 0.42591 0.50377 -0.02556
 H431 H 0.55346 0.44957 -0.04530
 H432 H 0.50115 0.45994 0.08490
 H433 H 0.54860 0.48383 0.11620
 H434 H 0.57655 0.44220 0.07848
 H435 H 0.42473 0.55581 -0.05876
 H436 H 0.46043 0.51678 -0.09791
 H437 H 0.57527 0.57141 0.06669
 H438 H 0.60907 0.54187 0.02078
 H439 H 0.39527 0.45689 -0.00127
 H440 H 0.43113 0.42750 -0.04593
 H441 H 0.55263 0.57067 -0.06616
 H442 H 0.51151 0.60592 -0.03340
 H443 H 0.48990 0.39080 0.04579
 H444 H 0.45172 0.42499 0.08495
 O445 O 0.08960 -0.07171 0.51361
 O446 O 0.05886 -0.08121 0.57005
 O447 O -0.00307 -0.08430 0.43776
 O448 O -0.05141 -0.05142 0.41805
 O449 O 0.07832 0.00447 0.42529
 O450 O 0.08462 0.06108 0.45544
 O451 O -0.09750 0.01287 0.52378
 O452 O -0.09572 -0.04918 0.51036
 O453 O -0.01451 0.01802 0.60912
 O454 O 0.04581 0.00618 0.61450
 O455 O -0.01800 0.09898 0.52473
 O456 O -0.00209 0.10228 0.46247
 O457 O -0.07556 0.06388 0.49661
 O458 O -0.04031 0.07371 0.43814
 O459 O 0.01223 0.07833 0.57544
 O460 O 0.07223 0.04252 0.58348
 O461 O -0.06525 -0.00778 0.58467
 O462 O -0.06911 -0.06791 0.55674
 O463 O 0.11161 -0.01991 0.48776
 O464 O 0.10974 0.04265 0.50252
 O465 O 0.02845 -0.02390 0.40253
 O466 O -0.03452 -0.00304 0.40173
 O467 O 0.02660 -0.10701 0.48793
 O468 O 0.01318 -0.10572 0.55167
 Zr469 Zr 0.03352 -0.06083 0.52172
 O470 O -0.00011 -0.02931 0.55623
 Zr471 Zr -0.00733 -0.02805 0.44689
 O472 O -0.04345 0.00354 0.47821
 Zr473 Zr 0.06527 0.01320 0.48094
 O474 O 0.03232 0.04766 0.51325
 Zr475 Zr -0.05069 -0.01979 0.53046
 O476 O -0.01841 -0.05423 0.49727
 Zr477 Zr 0.02161 0.02271 0.56419
 O478 O 0.05794 -0.01049 0.53337
 Zr479 Zr -0.01944 0.05412 0.48897
 O480 O 0.01542 0.02366 0.45411
 O481 O 0.04377 -0.03806 0.47021
 O482 O -0.02997 0.03205 0.54099
 C483 C 0.11570 -0.05168 0.50173
 C484 C 0.00916 -0.11092 0.45740
 C485 C 0.05997 -0.00972 0.39891
 C486 C -0.10180 0.04435 0.50904
 C487 C -0.04692 0.00510 0.61152
 C488 C -0.00335 0.10369 0.55655
 H489 H -0.00270 -0.04229 0.57988
 H490 H 0.04506 0.07105 0.51612
 H491 H 0.05946 -0.05403 0.45491
 H492 H -0.06661 0.00554 0.46433
 H493 H -0.08631 -0.06533 0.49083
 H494 H -0.07349 -0.04810 0.43341
 H495 H 0.07723 0.06553 0.57029
 H496 H 0.11419 0.03329 0.52775
 H497 H -0.05382 -0.07270 0.57874
 H498 H -0.01243 -0.10894 0.54367
 H499 H 0.02378 0.10596 0.46921
 H500 H 0.06523 0.06943 0.43828
 H501 H 0.07538 -0.06199 0.57899
 H502 H 0.04607 -0.02065 0.61455
 H503 H -0.02136 0.01964 0.39580
 H504 H -0.06126 0.05833 0.43125
 O505 O 0.73745 0.32148 0.16882
 O506 O 0.68176 0.33102 0.20149
 O507 O 0.81689 0.33523 0.25619
 O508 O 0.82849 0.30910 0.31044
 O509 O 0.82796 0.24532 0.18005
 O510 O 0.79620 0.18863 0.17399
 O511 O 0.72910 0.23778 0.35820
 O512 O 0.74630 0.29756 0.35645
 O513 O 0.64461 0.23394 0.27393
 O514 O 0.64572 0.25069 0.20573
 O515 O 0.72950 0.15149 0.27372
 O516 O 0.79671 0.15485 0.25601
 O517 O 0.75706 0.18746 0.33515
 O518 O 0.80848 0.17163 0.30504
 O519 O 0.67777 0.17369 0.24699
 O520 O 0.66458 0.20224 0.19237
 O521 O 0.66796 0.26026 0.32517
 O522 O 0.69685 0.31849 0.33073
 O523 O 0.76564 0.27078 0.14668
 O524 O 0.75119 0.20893 0.14759
 O525 O 0.85075 0.27497 0.22963
 O526 O 0.85106 0.25709 0.29446
 O527 O 0.76474 0.35665 0.23026
 O528 O 0.70269 0.35742 0.24557
 Zr529 Zr 0.73066 0.31116 0.22548
 O530 O 0.69669 0.28048 0.26016
 Zr531 Zr 0.80588 0.27998 0.26584
 O532 O 0.77490 0.24772 0.30205
 Zr533 Zr 0.77235 0.23749 0.19321
 O534 O 0.73968 0.20396 0.22624
 Zr535 Zr 0.72279 0.27067 0.31090
 O536 O 0.75530 0.30533 0.27765
 Zr537 Zr 0.68919 0.22881 0.23752
 O538 O 0.72012 0.26081 0.20051
 Zr539 Zr 0.76398 0.19703 0.27818
 O540 O 0.79913 0.22774 0.24370
 O541 O 0.78194 0.28885 0.21467
 O542 O 0.71232 0.21890 0.28951
 C543 C 0.75101 0.30226 0.14267
 C544 C 0.79704 0.36121 0.24309
 C545 C 0.85443 0.25971 0.19804
 C546 C 0.74481 0.20674 0.36208
 C547 C 0.64138 0.24673 0.30668
 C548 C 0.69753 0.14762 0.25973
 H549 H 0.67326 0.29362 0.26298
 H550 H 0.73681 0.18091 0.21292
 H551 H 0.79700 0.30433 0.19845
 H552 H 0.78885 0.24524 0.32523
 H553 H 0.76065 0.31806 0.34644
 H554 H 0.81723 0.29979 0.33334
 H555 H 0.68395 0.18812 0.17980
 H556 H 0.72568 0.21741 0.14425
 H557 H 0.67732 0.32567 0.31330
 H558 H 0.71076 0.36065 0.27139
 H559 H 0.78366 0.14481 0.23454
 H560 H 0.81519 0.18146 0.19209
 H561 H 0.67300 0.31197 0.18454
 H562 H 0.63538 0.27164 0.21927
 H563 H 0.85861 0.23489 0.28110
 H564 H 0.82711 0.19062 0.30820
 O565 O 0.75813 0.67702 0.67119
 O566 O 0.81743 0.67228 0.70563
 O567 O 0.68005 0.67017 0.75632
 O568 O 0.66966 0.70243 0.81174
 O569 O 0.67206 0.75373 0.67400
 O570 O 0.70178 0.80990 0.66508
 O571 O 0.77084 0.77080 0.85290
 O572 O 0.75676 0.71192 0.85824
 O573 O 0.85396 0.76787 0.76768
 O574 O 0.85476 0.75272 0.70362
 O575 O 0.76982 0.85291 0.76561
 O576 O 0.70818 0.85514 0.75217
 O577 O 0.74721 0.82215 0.82761
 O578 O 0.68515 0.82778 0.79368
 O579 O 0.82207 0.82831 0.74255
 O580 O 0.83081 0.79623 0.68361
 O581 O 0.83050 0.74442 0.82045
 O582 O 0.79404 0.68453 0.82861
 O583 O 0.74015 0.72855 0.64269
 O584 O 0.74773 0.79192 0.64197
 O585 O 0.64751 0.73266 0.72746
 O586 O 0.64637 0.74825 0.79077
 O587 O 0.73289 0.64571 0.73440
 O588 O 0.79297 0.64338 0.74551
 Zr589 Zr 0.76659 0.69096 0.72607
 O590 O 0.80109 0.72284 0.75847
 Zr591 Zr 0.69218 0.72573 0.76355
 O592 O 0.72345 0.75880 0.79874
 Zr593 Zr 0.72712 0.76318 0.68794
 O594 O 0.75896 0.79855 0.72006
 Zr595 Zr 0.77501 0.73520 0.80823
 O596 O 0.74176 0.69974 0.77746
 Zr597 Zr 0.80906 0.77348 0.73256
 O598 O 0.77853 0.73940 0.69764
 Zr599 Zr 0.73516 0.80804 0.77207
 O600 O 0.70061 0.77642 0.73794
 O601 O 0.71590 0.71343 0.71283
 O602 O 0.78634 0.78554 0.78402
 C603 C 0.75251 0.69564 0.64198
 C604 C 0.70011 0.64307 0.74648
 C605 C 0.64483 0.74363 0.69384
 C606 C 0.76037 0.80396 0.85517
 C607 C 0.85714 0.75628 0.80083
 C608 C 0.80272 0.85530 0.75379
 H609 H 0.82406 0.70909 0.76234
 H610 H 0.76213 0.82132 0.70601
 H611 H 0.70076 0.69739 0.69727
 H612 H 0.71003 0.76257 0.82206
 H613 H 0.72988 0.71464 0.85860
 H614 H 0.68848 0.68576 0.82195
 H615 H 0.81580 0.81767 0.67678
 H616 H 0.77413 0.78617 0.64069
 H617 H 0.81847 0.67992 0.81792
 H618 H 0.79031 0.64347 0.77264
 H619 H 0.71251 0.85612 0.72529
 H620 H 0.68432 0.81898 0.68379
 H621 H 0.82327 0.68743 0.68382
 H622 H 0.86064 0.72853 0.71411
 H623 H 0.64385 0.77355 0.78176
 H624 H 0.68144 0.81648 0.81818
 O625 O 0.14832 0.27440 0.73089
 O626 O 0.15060 0.25863 0.79324
 O627 O 0.23855 0.35504 0.73014
 O628 O 0.29765 0.35486 0.73561
 O629 O 0.23047 0.27220 0.64072
 O630 O 0.23894 0.21014 0.63758
 O631 O 0.33662 0.25298 0.81082
 O632 O 0.30878 0.30880 0.82098
 O633 O 0.25258 0.17544 0.82011
 O634 O 0.19377 0.16879 0.79907
 O635 O 0.31807 0.16699 0.72923
 O636 O 0.32519 0.20660 0.67078
 O637 O 0.35647 0.22570 0.75827
 O638 O 0.35835 0.23901 0.69811
 O639 O 0.26689 0.14547 0.75642
 O640 O 0.19763 0.15506 0.74746
 O641 O 0.28038 0.22440 0.84494
 O642 O 0.26297 0.28699 0.85118
 O643 O 0.16825 0.25038 0.67677
 O644 O 0.19652 0.19180 0.66526
 O645 O 0.25563 0.32278 0.66420
 O646 O 0.31770 0.32354 0.69176
 O647 O 0.18673 0.33377 0.75699
 O648 O 0.18033 0.30086 0.81404
 Zr649 Zr 0.19614 0.27757 0.76327
 O650 O 0.22812 0.24167 0.79540
 Zr651 Zr 0.26894 0.30813 0.71882
 O652 O 0.30387 0.27434 0.74973
 Zr653 Zr 0.22370 0.23794 0.68615
 O654 O 0.25740 0.20089 0.71460
 Zr655 Zr 0.28095 0.26253 0.80146
 O656 O 0.24788 0.30040 0.77240
 Zr657 Zr 0.23609 0.19247 0.76757
 O658 O 0.19987 0.22649 0.73762
 Zr659 Zr 0.30924 0.22353 0.72412
 O660 O 0.27693 0.25889 0.69088
 O661 O 0.21646 0.28839 0.71078
 O662 O 0.28891 0.21188 0.77650
 C663 C 0.14300 0.26222 0.69817
 C664 C 0.20713 0.35946 0.74493
 C665 C 0.24295 0.30427 0.63712
 C666 C 0.36181 0.23939 0.79050
 C667 C 0.26834 0.19177 0.84683
 C668 C 0.29777 0.14076 0.74042
 H669 H 0.21619 0.23760 0.81945
 H670 H 0.25827 0.17863 0.69949
 H671 H 0.20060 0.30522 0.69647
 H672 H 0.32751 0.28681 0.75208
 H673 H 0.29464 0.33039 0.81272
 H674 H 0.31336 0.34758 0.75659
 H675 H 0.20436 0.15043 0.72159
 H676 H 0.17565 0.18663 0.68177
 H677 H 0.23873 0.27718 0.85754
 H678 H 0.20077 0.31644 0.82201
 H679 H 0.31158 0.18422 0.66501
 H680 H 0.26513 0.21517 0.63354
 H681 H 0.14778 0.23277 0.78659
 H682 H 0.18270 0.18811 0.81432
 H683 H 0.32053 0.30759 0.67002
 H684 H 0.35885 0.26583 0.69848
 O685 O 0.35136 0.72329 0.24205
 O686 O 0.34933 0.73955 0.30652
 O687 O 0.26122 0.64675 0.23765
 O688 O 0.19507 0.65474 0.25369
 O689 O 0.27156 0.73002 0.15345
 O690 O 0.25829 0.79614 0.15487
 O691 O 0.16390 0.75025 0.32443
 O692 O 0.19033 0.69188 0.33600
 O693 O 0.25620 0.81888 0.33974
 O694 O 0.31834 0.82082 0.30795
 O695 O 0.18604 0.83684 0.24856
 O696 O 0.17789 0.80385 0.18786
 O697 O 0.14530 0.77896 0.27200
 O698 O 0.14462 0.76828 0.21063
 O699 O 0.23745 0.85469 0.27843
 O700 O 0.29867 0.85208 0.26781
 O701 O 0.22412 0.77113 0.36080
 O702 O 0.23596 0.70462 0.36035
 O703 O 0.33247 0.75316 0.19034
 O704 O 0.30631 0.80881 0.17820
 O705 O 0.23755 0.68355 0.17514
 O706 O 0.18355 0.67419 0.20360
 O707 O 0.31007 0.66514 0.27061
 O708 O 0.32332 0.69533 0.32388
 Zr709 Zr 0.30407 0.72146 0.27557
 O710 O 0.27318 0.75583 0.30991
 Zr711 Zr 0.22985 0.69459 0.23124
 O712 O 0.19620 0.72880 0.26260
 Zr713 Zr 0.27694 0.76426 0.19971
 O714 O 0.24592 0.80122 0.23091
 Zr715 Zr 0.21932 0.73696 0.31484
 O716 O 0.25174 0.69967 0.28456
 Zr717 Zr 0.26760 0.80661 0.28422
 O718 O 0.30163 0.77334 0.25131
 Zr719 Zr 0.19312 0.78088 0.23931
 O720 O 0.22305 0.74510 0.20475
 O721 O 0.28291 0.71280 0.22305
 O722 O 0.21383 0.78919 0.29244
 C723 C 0.35720 0.73828 0.21051
 C724 C 0.29053 0.64022 0.25603
 C725 C 0.25372 0.70045 0.14884
 C726 C 0.13918 0.76488 0.30390
 C727 C 0.24033 0.80134 0.36590
 C728 C 0.20675 0.86098 0.26279
 H729 H 0.28565 0.75733 0.33402
 H730 H 0.24570 0.82452 0.21743
 H731 H 0.29798 0.69603 0.20801
 H732 H 0.17203 0.71743 0.26411
 H733 H 0.17132 0.68530 0.31787
 H734 H 0.20446 0.64953 0.27876
 H735 H 0.29508 0.85522 0.24096
 H736 H 0.32119 0.81842 0.19871
 H737 H 0.25855 0.71520 0.37056
 H738 H 0.30175 0.68430 0.33578
 H739 H 0.19327 0.82542 0.18346
 H740 H 0.23325 0.78784 0.14945
 H741 H 0.35632 0.76341 0.29619
 H742 H 0.32119 0.80707 0.33129
 H743 H 0.17293 0.69475 0.18945
 H744 H 0.14160 0.74170 0.21244
 O745 O 0.24551 0.82312 0.68599
 O746 O 0.19163 0.83232 0.71844
 O747 O 0.32408 0.82532 0.77784
 O748 O 0.33347 0.79409 0.82879
 O749 O 0.33590 0.74621 0.69195
 O750 O 0.30534 0.69047 0.67880
 O751 O 0.23020 0.72008 0.86398
 O752 O 0.24805 0.77971 0.86989
 O753 O 0.14954 0.72792 0.77571
 O754 O 0.14956 0.74548 0.71354
 O755 O 0.23275 0.64362 0.77402
 O756 O 0.29980 0.64654 0.75599
 O757 O 0.25933 0.67210 0.83760
 O758 O 0.31201 0.65823 0.80622
 O759 O 0.18275 0.66896 0.74683
 O760 O 0.17729 0.70736 0.68932
 O761 O 0.17103 0.74672 0.83102
 O762 O 0.19937 0.80302 0.84485
 O763 O 0.27322 0.77439 0.65929
 O764 O 0.26121 0.71249 0.65334
 O765 O 0.35775 0.76596 0.74666
 O766 O 0.35438 0.74398 0.81048
 O767 O 0.27390 0.85109 0.75115
 O768 O 0.21080 0.85086 0.76693
 Zr769 Zr 0.23871 0.80736 0.74124
 O770 O 0.20290 0.77344 0.77012
 Zr771 Zr 0.31150 0.76999 0.78090
 O772 O 0.27864 0.73492 0.81212
 Zr773 Zr 0.28016 0.73668 0.70246
 O774 O 0.24613 0.69980 0.73024
 Zr775 Zr 0.22647 0.75789 0.82066
 O776 O 0.26105 0.79523 0.79334
 Zr777 Zr 0.19572 0.72443 0.74178
 O778 O 0.22819 0.76026 0.71044
 Zr779 Zr 0.26824 0.68738 0.78220
 O780 O 0.30493 0.72088 0.75256
 O781 O 0.29000 0.78518 0.72985
 O782 O 0.21644 0.70887 0.79335
 C783 C 0.25790 0.80582 0.65802
 C784 C 0.30555 0.85274 0.76624
 C785 C 0.36218 0.75616 0.71309
 C786 C 0.24566 0.68877 0.86560
 C787 C 0.14505 0.73674 0.80956
 C788 C 0.20116 0.64166 0.75905
 H789 H 0.17954 0.78666 0.77317
 H790 H 0.24341 0.67811 0.71467
 H791 H 0.30575 0.80185 0.71553
 H792 H 0.29158 0.72993 0.83553
 H793 H 0.26220 0.80152 0.86295
 H794 H 0.31908 0.78522 0.85001
 H795 H 0.19132 0.68537 0.68238
 H796 H 0.23534 0.71995 0.65052
 H797 H 0.18183 0.81322 0.82679
 H798 H 0.21953 0.85154 0.79274
 H799 H 0.28656 0.63875 0.73365
 H800 H 0.32252 0.68060 0.69745
 H801 H 0.18079 0.81447 0.70140
 H802 H 0.14467 0.77009 0.72326
 H803 H 0.36374 0.72376 0.79520
 H804 H 0.33148 0.67608 0.81058
 O805 O 0.25461 0.18201 0.16115
 O806 O 0.31305 0.17397 0.19181
 O807 O 0.18479 0.16866 0.25961
 O808 O 0.17065 0.20049 0.30924
 O809 O 0.16476 0.25394 0.17615
 O810 O 0.19437 0.31439 0.16766
 O811 O 0.27084 0.27409 0.34465
 O812 O 0.25507 0.21050 0.34669
 O813 O 0.35316 0.27073 0.25589
 O814 O 0.35274 0.25684 0.19408
 O815 O 0.26839 0.35392 0.25790
 O816 O 0.19956 0.35021 0.24112
 O817 O 0.24157 0.32346 0.32047
 O818 O 0.18929 0.33505 0.29348
 O819 O 0.31908 0.32975 0.23100
 O820 O 0.32211 0.29448 0.17015
 O821 O 0.33184 0.24955 0.31048
 O822 O 0.30779 0.19528 0.32421
 O823 O 0.22644 0.23261 0.13853
 O824 O 0.23211 0.29334 0.13530
 O825 O 0.14546 0.22347 0.22692
 O826 O 0.14747 0.24947 0.28926
 O827 O 0.23138 0.14778 0.22385
 O828 O 0.29337 0.14693 0.23657
 Zr829 Zr 0.26464 0.19319 0.21711
 O830 O 0.29982 0.22500 0.24876
 Zr831 Zr 0.19192 0.22512 0.26110
 O832 O 0.22408 0.25990 0.29307
 Zr833 Zr 0.22018 0.26549 0.18476
 O834 O 0.25513 0.30056 0.21312
 Zr835 Zr 0.27656 0.23779 0.30014
 O836 O 0.24350 0.20091 0.27064
 Zr837 Zr 0.30601 0.27543 0.22284
 O838 O 0.27305 0.24248 0.18931
 Zr839 Zr 0.23292 0.30946 0.26545
 O840 O 0.19599 0.27656 0.23578
 O841 O 0.21263 0.21463 0.20878
 O842 O 0.28528 0.28820 0.27511
 C843 C 0.24115 0.20125 0.13469
 C844 C 0.20265 0.14331 0.24333
 C845 C 0.14027 0.23701 0.19469
 C846 C 0.25554 0.30551 0.34730
 C847 C 0.35783 0.26057 0.28947
 C848 C 0.30040 0.35634 0.24361
 H849 H 0.32329 0.21181 0.25145
 H850 H 0.25743 0.32314 0.19859
 H851 H 0.19749 0.19797 0.19392
 H852 H 0.21127 0.26328 0.31671
 H853 H 0.24344 0.18798 0.33772
 H854 H 0.18539 0.20895 0.33032
 H855 H 0.31127 0.31890 0.16634
 H856 H 0.25824 0.29975 0.13674
 H857 H 0.31515 0.17887 0.30405
 H858 H 0.28640 0.14371 0.26273
 H859 H 0.21348 0.36148 0.22077
 H860 H 0.17337 0.31863 0.18431
 H861 H 0.31928 0.19155 0.17210
 H862 H 0.35694 0.23123 0.20134
 H863 H 0.13929 0.27056 0.27429
 H864 H 0.17346 0.31538 0.30272
 O865 O 0.64117 0.77498 0.23690
 O866 O 0.64501 0.75870 0.30106
 O867 O 0.72793 0.85635 0.23134
 O868 O 0.78840 0.85830 0.22954
 O869 O 0.71511 0.76771 0.14697
 O870 O 0.73580 0.70622 0.14869
 O871 O 0.83137 0.76308 0.31636
 O872 O 0.80271 0.82029 0.32163
 O873 O 0.74533 0.68855 0.33677
 O874 O 0.68372 0.67893 0.30574
 O875 O 0.81752 0.67448 0.24594
 O876 O 0.82306 0.69949 0.18654
 O877 O 0.85062 0.73342 0.26493
 O878 O 0.84369 0.74895 0.19737
 O879 O 0.76805 0.65247 0.27589
 O880 O 0.70603 0.64818 0.26747
 O881 O 0.77497 0.73938 0.35536
 O882 O 0.75697 0.80171 0.35422
 O883 O 0.65998 0.74270 0.18691
 O884 O 0.69178 0.68574 0.17973
 O885 O 0.74384 0.81854 0.16652
 O886 O 0.80732 0.82358 0.19194
 O887 O 0.67822 0.83490 0.26160
 O888 O 0.67008 0.80497 0.31813
 Zr889 Zr 0.68883 0.77937 0.26957
 O890 O 0.72303 0.74842 0.30431
 Zr891 Zr 0.75952 0.80952 0.22146
 O892 O 0.79659 0.78039 0.25469
 Zr893 Zr 0.71638 0.73524 0.19496
 O894 O 0.75210 0.70256 0.22655
 Zr895 Zr 0.77505 0.77205 0.30759
 O896 O 0.73963 0.80539 0.27591
 Zr897 Zr 0.73243 0.69733 0.28068
 O898 O 0.69438 0.72668 0.24785
 Zr899 Zr 0.80296 0.72808 0.23284
 O900 O 0.76861 0.75868 0.19709
 O901 O 0.70783 0.78713 0.21620
 O902 O 0.78429 0.71996 0.28677
 C903 C 0.63529 0.75855 0.20625
 C904 C 0.69738 0.86082 0.24812
 C905 C 0.72737 0.79987 0.14179
 C906 C 0.85629 0.74828 0.29634
 C907 C 0.76125 0.70795 0.36132
 C908 C 0.80008 0.64879 0.26193
 H909 H 0.71112 0.74647 0.32866
 H910 H 0.75455 0.67869 0.21442
 H911 H 0.69085 0.80263 0.20169
 H912 H 0.81976 0.79390 0.25563
 H913 H 0.78853 0.84067 0.31074
 H914 H 0.80236 0.85537 0.25273
 H915 H 0.70922 0.64434 0.24069
 H916 H 0.67529 0.67883 0.20018
 H917 H 0.73341 0.79151 0.36238
 H918 H 0.69022 0.82056 0.32678
 H919 H 0.80308 0.68405 0.17734
 H920 H 0.75992 0.71653 0.14243
 H921 H 0.63998 0.73407 0.29161
 H922 H 0.67901 0.69428 0.32757
 H923 H 0.80947 0.80672 0.17084
 H924 H 0.85404 0.77078 0.20911
 O925 O 0.85597 0.22618 0.73881
 O926 O 0.85002 0.24274 0.80195
 O927 O 0.76824 0.14611 0.73119
 O928 O 0.70654 0.14631 0.73247
 O929 O 0.78375 0.23077 0.64506
 O930 O 0.76612 0.29352 0.64347
 O931 O 0.66364 0.24507 0.80904
 O932 O 0.69048 0.18760 0.81768
 O933 O 0.75066 0.31773 0.82996
 O934 O 0.81426 0.32412 0.80215
 O935 O 0.68523 0.33397 0.73489
 O936 O 0.68161 0.30184 0.67451
 O937 O 0.64715 0.27513 0.75657
 O938 O 0.65159 0.26127 0.69287
 O939 O 0.73330 0.35356 0.76894
 O940 O 0.79618 0.35365 0.76013
 O941 O 0.71819 0.26919 0.84877
 O942 O 0.73475 0.20735 0.85228
 O943 O 0.83954 0.25631 0.68634
 O944 O 0.81030 0.31269 0.67371
 O945 O 0.75191 0.18212 0.66568
 O946 O 0.69007 0.17827 0.68947
 O947 O 0.81733 0.16733 0.76251
 O948 O 0.82192 0.19779 0.81933
 Zr949 Zr 0.80689 0.22301 0.76902
 O950 O 0.77271 0.25637 0.80101
 Zr951 Zr 0.73685 0.19341 0.72000
 O952 O 0.69981 0.22588 0.74961
 Zr953 Zr 0.78305 0.26531 0.69150
 O954 O 0.74816 0.30091 0.72046
 Zr955 Zr 0.71976 0.23481 0.80292
 O956 O 0.75515 0.19882 0.77473
 Zr957 Zr 0.76618 0.30697 0.77508
 O958 O 0.80380 0.27499 0.74473
 Zr959 Zr 0.69602 0.27806 0.72579
 O960 O 0.72997 0.24384 0.69322
 O961 O 0.78935 0.21403 0.71528
 O962 O 0.71318 0.28677 0.77999
 C963 C 0.86323 0.24135 0.70774
 C964 C 0.79861 0.14141 0.74859
 C965 C 0.76965 0.19922 0.64066
 C966 C 0.63995 0.26035 0.78788
 C967 C 0.73295 0.29994 0.85477
 C968 C 0.70318 0.35888 0.75170
 H969 H 0.78365 0.25873 0.82577
 H970 H 0.74743 0.32438 0.70720
 H971 H 0.80624 0.19780 0.70167
 H972 H 0.67606 0.21338 0.75012
 H973 H 0.70566 0.16643 0.81043
 H974 H 0.69003 0.15240 0.75311
 H975 H 0.79203 0.35803 0.73353
 H976 H 0.82503 0.32113 0.69486
 H977 H 0.75893 0.21617 0.86018
 H978 H 0.80106 0.18249 0.82682
 H979 H 0.69913 0.32152 0.66932
 H980 H 0.74187 0.28383 0.63675
 H981 H 0.85555 0.26744 0.79280
 H982 H 0.81683 0.30988 0.82522
 H983 H 0.68653 0.19674 0.66984
 H984 H 0.64605 0.23591 0.69982
 C985 C 0.07765 1.02861 1.21149
 C986 C 0.10451 1.00050 1.21940
 C987 C 0.10875 0.97325 1.19239
 C988 C 0.09223 0.97539 1.15818
 C989 C 0.06907 1.00413 1.14882
 C990 C 0.06029 1.03040 1.17603
 C991 C 0.07000 1.05716 1.23644
 C992 C 0.04521 1.08480 1.22834
 C993 C 0.02816 1.08595 1.19440
 C994 C 0.03613 1.05966 1.16825
 H995 H 0.08408 1.06027 1.26171
 H996 H 0.04004 1.10609 1.24820
 H997 H 0.00940 1.10793 1.18796
 H998 H 0.02343 1.06343 1.14189
 H999 H 0.12462 0.94902 1.19723
 H1000 H 0.09760 0.95381 1.13865
 C1001 C 0.56815 0.52597 0.71367
 C1002 C 0.59814 0.50058 0.71851
 C1003 C 0.60360 0.47593 0.68920
 C1004 C 0.58779 0.48102 0.65476
 C1005 C 0.56138 0.50792 0.64846
 C1006 C 0.54758 0.52667 0.67991
 C1007 C 0.55870 0.55200 0.74063
 C1008 C 0.52627 0.57175 0.73864
 C1009 C 0.50311 0.56730 0.70888
 C1010 C 0.51398 0.54595 0.67930
 H1011 H 0.57645 0.55871 0.76282
 H1012 H 0.51912 0.59061 0.76032
 H1013 H 0.47726 0.58173 0.70794
 H1014 H 0.49456 0.54378 0.65729
 H1015 H 0.62085 0.45237 0.69165
 H1016 H 0.59629 0.46303 0.63279
 C1017 C 0.37473 -0.01789 0.67921
 C1018 C 0.39110 -0.00572 0.71338
 C1019 C 0.42840 0.00418 0.71179
 C1020 C 0.44832 0.00316 0.67890
 C1021 C 0.43222 -0.00812 0.64600
 C1022 C 0.39587 -0.02044 0.64639
 C1023 C 0.33801 -0.02910 0.67687
 C1024 C 0.32305 -0.04354 0.64494
 C1025 C 0.34423 -0.04719 0.61370
 C1026 C 0.38032 -0.03606 0.61440
 H1027 H 0.32061 -0.02877 0.69984
 H1028 H 0.29519 -0.05304 0.64494
 H1029 H 0.33297 -0.05944 0.58918
 H1030 H 0.39642 -0.04170 0.59023
 H1031 H 0.44224 0.01498 0.73558
 H1032 H 0.47616 0.01288 0.67885
 C1033 C -0.13362 0.49746 1.17555
 C1034 C -0.11323 0.50047 1.20955
 C1035 C -0.07471 0.50124 1.20514
 C1036 C -0.05763 0.49388 1.17156
 C1037 C -0.07780 0.48535 1.14008
 C1038 C -0.11621 0.48479 1.14276
 C1039 C -0.16942 0.51092 1.17098
 C1040 C -0.18991 0.50374 1.13942
 C1041 C -0.17469 0.48371 1.11097
 C1042 C -0.13791 0.47463 1.11231
 H1043 H -0.18143 0.52914 1.19031
 H1044 H -0.21758 0.51399 1.13707
 H1045 H -0.19057 0.47728 1.08673
 H1046 H -0.12641 0.46091 1.08873
 H1047 H -0.05673 0.50818 1.22755
 H1048 H -0.02819 0.49609 1.17001
 C1049 C -0.07519 0.47362 0.28960
 C1050 C -0.09894 0.50389 0.28056
 C1051 C -0.09160 0.53626 0.30076
 C1052 C -0.07216 0.53611 0.33366
 C1053 C -0.05621 0.50440 0.34685
 C1054 C -0.05521 0.47358 0.32372
 C1055 C -0.07147 0.44287 0.26651
 C1056 C -0.04993 0.41317 0.27696
 C1057 C -0.03161 0.41305 0.31047
 C1058 C -0.03419 0.44286 0.33373
 H1059 H -0.08599 0.44080 0.24074
 H1060 H -0.04764 0.38983 0.25917
 H1061 H -0.01511 0.38979 0.31841
 H1062 H -0.01896 0.44192 0.35925
 H1063 H -0.10208 0.56254 0.29266
 H1064 H -0.07056 0.56092 0.34954
 C1065 C 0.38760 1.03792 -0.18770
 C1066 C 0.39207 1.00793 -0.21404
 C1067 C 0.41978 0.98211 -0.20559
 C1068 C 0.44060 0.98356 -0.17365
 C1069 C 0.43695 1.01238 -0.14942
 C1070 C 0.41279 1.04107 -0.15764
 C1071 C 0.35845 1.06386 -0.18747
 C1072 C 0.35793 1.09388 -0.16419
 C1073 C 0.38535 1.09858 -0.13857
 C1074 C 0.41210 1.07207 -0.13465
 H1075 H 0.33400 1.06143 -0.20299
 H1076 H 0.33560 1.11330 -0.16565
 H1077 H 0.38501 1.12200 -0.12060
 H1078 H 0.43221 1.07603 -0.11325
 H1079 H 0.42472 0.95924 -0.22352
 H1080 H 0.45946 0.96153 -0.16751
 C1081 C 0.57507 0.46880 -0.20300
 C1082 C 0.59950 0.49859 -0.21107
 C1083 C 0.60174 0.52593 -0.18385
 C1084 C 0.58433 0.52338 -0.15009
 C1085 C 0.56365 0.49319 -0.14050
 C1086 C 0.55889 0.46536 -0.16699
 C1087 C 0.56911 0.44030 -0.22838
 C1088 C 0.54941 0.40948 -0.21878
 C1089 C 0.53557 0.40563 -0.18347
 C1090 C 0.54034 0.43301 -0.15777
 H1091 H 0.58102 0.43997 -0.25526
 H1092 H 0.54599 0.38785 -0.23857
 H1093 H 0.52157 0.38102 -0.17562
 H1094 H 0.53030 0.42759 -0.13040
 H1095 H 0.61649 0.55073 -0.18823
 H1096 H 0.58752 0.54558 -0.13086
 C1097 C 0.08220 -0.03119 0.29821
 C1098 C 0.10458 -0.00005 0.28908
 C1099 C 0.10650 0.02763 0.31591
 C1100 C 0.09229 0.02356 0.35088
 C1101 C 0.07529 -0.00840 0.36149
 C1102 C 0.07020 -0.03634 0.33539
 C1103 C 0.07531 -0.05970 0.27307
 C1104 C 0.05893 -0.09201 0.28399
 C1105 C 0.04976 -0.09760 0.32055
 C1106 C 0.05555 -0.07031 0.34611
 H1107 H 0.08331 -0.05875 0.24504
 H1108 H 0.05455 -0.11339 0.26411
 H1109 H 0.03860 -0.12337 0.32930
 H1110 H 0.04961 -0.07694 0.37448
 H1111 H 0.11943 0.05329 0.31065
 H1112 H 0.09486 0.04590 0.37007
 C1113 C 0.18005 1.12417 0.99243
 C1114 C 0.21426 1.10416 0.99312
 C1115 C 0.21209 1.06652 1.00072
 C1116 C 0.17866 1.04954 1.00770
 C1117 C 0.14591 1.06946 1.00967
 C1118 C 0.14715 1.10749 1.00449
 C1119 C 0.17768 1.16096 0.98114
 C1120 C 0.14547 1.18103 0.98400
 C1121 C 0.11484 1.16549 0.99962
 C1122 C 0.11601 1.12957 1.01108
 H1123 H 0.20002 1.17462 0.96887
 H1124 H 0.14455 1.20900 0.97473
 H1125 H 0.08991 1.18109 1.00271
 H1126 H 0.09222 1.11953 1.02531
 H1127 H 0.23626 1.04970 1.00236
 H1128 H 0.17848 1.02037 1.01163
 C1129 C 0.70282 0.58328 0.46473
 C1130 C 0.71717 0.60429 0.49477
 C1131 C 0.69090 0.61587 0.52155
 C1132 C 0.65591 0.60259 0.52307
 C1133 C 0.64377 0.57895 0.49661
 C1134 C 0.66613 0.57020 0.46627
 C1135 C 0.72430 0.57279 0.43439
 C1136 C 0.71054 0.55041 0.40674
 C1137 C 0.67481 0.53835 0.40825
 C1138 C 0.65268 0.54806 0.43770
 H1139 H 0.75228 0.58019 0.43275
 H1140 H 0.72768 0.54168 0.38422
 H1141 H 0.66431 0.52106 0.38670
 H1142 H 0.62502 0.53797 0.43793
 H1143 H 0.69625 0.63554 0.54271
 H1144 H 0.63803 0.61098 0.54535
 C1145 C 0.71027 0.42933 0.02416
 C1146 C 0.71726 0.40053 -0.00189
 C1147 C 0.68704 0.39116 -0.02487
 C1148 C 0.65493 0.41056 -0.02605
 C1149 C 0.64910 0.43922 -0.00254
 C1150 C 0.67606 0.44861 0.02343
 C1151 C 0.73528 0.43865 0.05210
 C1152 C 0.72709 0.46496 0.07840
 C1153 C 0.69408 0.48358 0.07719
 C1154 C 0.66876 0.47570 0.04990
 H1155 H 0.76135 0.42600 0.05421
 H1156 H 0.74638 0.47080 0.10006
 H1157 H 0.68795 0.50403 0.09767
 H1158 H 0.64311 0.49045 0.05020
 H1159 H 0.68610 0.36736 -0.04195
 H1160 H 0.63342 0.40175 -0.04448
 C1161 C 0.21271 -0.07464 0.53500
 C1162 C 0.22449 -0.09902 0.50623
 C1163 C 0.20026 -0.10209 0.47551
 C1164 C 0.16591 -0.08625 0.47463
 C1165 C 0.15320 -0.06613 0.50402
 C1166 C 0.17660 -0.05920 0.53409
 C1167 C 0.23554 -0.06499 0.56479
 C1168 C 0.22308 -0.04261 0.59310
 C1169 C 0.18765 -0.02903 0.59263
 C1170 C 0.16457 -0.03703 0.56338
 H1171 H 0.26359 -0.07335 0.56627
 H1172 H 0.24110 -0.03548 0.61549
 H1173 H 0.17817 -0.01176 0.61477
 H1174 H 0.13733 -0.02545 0.56378
 H1175 H 0.20517 -0.11939 0.45232
 H1176 H 0.14839 -0.09099 0.45103
 C1177 C 0.33110 -0.12470 0.51108
 C1178 C 0.29664 -0.10557 0.50776
 C1179 C 0.29813 -0.06744 0.50320
 C1180 C 0.33090 -0.04851 0.50590
 C1181 C 0.36378 -0.06663 0.51321
 C1182 C 0.36379 -0.10490 0.51713
 C1183 C 0.33369 -0.16312 0.51202
 C1184 C 0.36622 -0.18115 0.52015
 C1185 C 0.39703 -0.16161 0.52901
 C1186 C 0.39572 -0.12396 0.52819
 H1187 H 0.31097 -0.18020 0.50744
 H1188 H 0.36713 -0.21049 0.52058
 H1189 H 0.42197 -0.17565 0.53671
 H1190 H 0.41981 -0.11003 0.53720
 H1191 H 0.27382 -0.05159 0.49762
 H1192 H 0.33059 -0.01936 0.50174
 C1193 C -0.17821 0.37391 0.97928
 C1194 C -0.21075 0.39445 0.98800
 C1195 C -0.20854 0.43272 0.98531
 C1196 C -0.17461 0.44976 0.98422
 C1197 C -0.14249 0.42939 0.97949
 C1198 C -0.14582 0.39232 0.96971
 C1199 C -0.17661 0.33550 0.98004
 C1200 C -0.14784 0.31638 0.96401
 C1201 C -0.11914 0.33515 0.94829
 C1202 C -0.11790 0.37275 0.95135
 H1203 H -0.19689 0.31972 0.99361
 H1204 H -0.14790 0.28699 0.96382
 H1205 H -0.09732 0.32056 0.93457
 H1206 H -0.09579 0.38617 0.93764
 H1207 H -0.23235 0.44991 0.98730
 H1208 H -0.17348 0.47886 0.98816
 C1209 C -0.20769 0.55229 0.49594
 C1210 C -0.20932 0.59128 0.50122
 C1211 C -0.17577 0.60866 0.50860
 C1212 C -0.14255 0.59156 0.50496
 C1213 C -0.13962 0.55556 0.49339
 C1214 C -0.17256 0.53484 0.49036
 C1215 C -0.23893 0.52981 0.49583
 C1216 C -0.23687 0.49301 0.48792
 C1217 C -0.20353 0.47688 0.48075
 C1218 C -0.17182 0.49719 0.48239
 H1219 H -0.26558 0.53895 0.50314
 H1220 H -0.26141 0.47679 0.48780
 H1221 H -0.20210 0.44813 0.47471
 H1222 H -0.14739 0.48200 0.47765
 H1223 H -0.17472 0.63756 0.51388
 H1224 H -0.11861 0.60809 0.50933
 C1225 C 0.31331 1.09859 0.03110
 C1226 C 0.28687 1.09863 0.00076
 C1227 C 0.29519 1.07470 -0.02886
 C1228 C 0.32880 1.05672 -0.03192
 C1229 C 0.35410 1.05780 -0.00325
 C1230 C 0.34338 1.07365 0.03027
 C1231 C 0.31414 1.12327 0.06114
 C1232 C 0.33548 1.11706 0.09243
 C1233 C 0.35886 1.08742 0.09393
 C1234 C 0.36360 1.06635 0.06270
 H1235 H 0.30147 1.14928 0.06076
 H1236 H 0.33436 1.13584 0.11530
 H1237 H 0.37505 1.08217 0.11838
 H1238 H 0.38352 1.04451 0.06379
 H1239 H 0.27661 1.07240 -0.05193
 H1240 H 0.33543 1.04284 -0.05734
 C1241 C -0.01052 1.20308 1.05855
 C1242 C -0.00453 1.20863 1.09776
 C1243 C 0.00329 1.17688 1.11888
 C1244 C 0.00587 1.14261 1.10372
 C1245 C -0.00171 1.13686 1.06682
 C1246 C -0.01317 1.16668 1.04484
 C1247 C -0.01297 1.23111 1.03162
 C1248 C -0.02486 1.22443 0.99579
 C1249 C -0.03364 1.18952 0.98514
 C1250 C -0.02752 1.16079 1.00929
 H1251 H -0.00437 1.25831 1.03610
 H1252 H -0.02738 1.24660 0.97622
 H1253 H -0.04406 1.18452 0.95771
 H1254 H -0.03475 1.13393 1.00023
 H1255 H 0.00804 1.17861 1.14829
 H1256 H 0.01404 1.12031 1.12124
 C1257 C 0.46697 0.71228 0.57434
 C1258 C 0.49795 0.72615 0.59367
 C1259 C 0.53176 0.70937 0.58402
 C1260 C 0.53343 0.67499 0.56834
 C1261 C 0.50159 0.65672 0.55924
 C1262 C 0.46811 0.67612 0.55992
 C1263 C 0.43502 0.73293 0.56884
 C1264 C 0.40364 0.71744 0.55408
 C1265 C 0.40396 0.68138 0.54287
 C1266 C 0.43607 0.66097 0.54506
 H1267 H 0.43459 0.76138 0.57413
 H1268 H 0.37903 0.73356 0.55097
 H1269 H 0.37958 0.66955 0.53126
 H1270 H 0.43580 0.63367 0.53420
 H1271 H 0.55767 0.72147 0.59087
 H1272 H 0.55982 0.66201 0.56462
 C1273 C -0.03292 0.70192 0.42588
 C1274 C -0.00300 0.71561 0.40410
 C1275 C 0.02840 0.69291 0.40332
 C1276 C 0.02739 0.65653 0.41455
 C1277 C -0.00466 0.64104 0.42825
 C1278 C -0.03549 0.66385 0.43341
 C1279 C -0.06091 0.72432 0.43988
 C1280 C -0.09304 0.71000 0.45418
 C1281 C -0.09767 0.67273 0.45591
 C1282 C -0.06908 0.64968 0.44605
 H1283 H -0.05739 0.75269 0.44302
 H1284 H -0.11434 0.72796 0.46416
 H1285 H -0.12306 0.66171 0.46605
 H1286 H -0.07371 0.62079 0.44821
 H1287 H 0.05419 0.70259 0.39297
 H1288 H 0.05213 0.64034 0.41268
 C1289 C 0.48147 1.21262 -0.07081
 C1290 C 0.50471 1.21818 -0.10254
 C1291 C 0.52946 1.18955 -0.11031
 C1292 C 0.52667 1.15545 -0.09392
 C1293 C 0.50233 1.14879 -0.06500
 C1294 C 0.48350 1.17940 -0.04997
 C1295 C 0.45490 1.23844 -0.05984
 C1296 C 0.43734 1.23596 -0.02596
 C1297 C 0.44451 1.20679 -0.00282
 C1298 C 0.46665 1.17842 -0.01485
 H1299 H 0.44603 1.26003 -0.07753
 H1300 H 0.41799 1.25674 -0.01773
 H1301 H 0.43177 1.20545 0.02408
 H1302 H 0.47142 1.15701 0.00478
 H1303 H 0.55133 1.19242 -0.12974
 H1304 H 0.54443 1.13404 -0.10398
 C1305 C 0.53548 0.29408 -0.07698
 C1306 C 0.50475 0.28740 -0.10127
 C1307 C 0.47721 0.31445 -0.10206
 C1308 C 0.47996 0.34671 -0.08254
 C1309 C 0.51052 0.35481 -0.06097
 C1310 C 0.53875 0.32825 -0.05800
 C1311 C 0.56502 0.26914 -0.07379
 C1312 C 0.59606 0.27691 -0.05321
 C1313 C 0.59932 0.31011 -0.03584
 C1314 C 0.57134 0.33568 -0.03848
 H1315 H 0.56599 0.24409 -0.08854
 H1316 H 0.61829 0.25740 -0.05174
 H1317 H 0.62403 0.31642 -0.02083
 H1318 H 0.57652 0.36154 -0.02588
 H1319 H 0.45248 0.31102 -0.11775
 H1320 H 0.45759 0.36602 -0.08480
 C1321 C -0.03945 -0.19013 0.40997
 C1322 C -0.00929 -0.21565 0.40690
 C1323 C 0.02000 -0.21029 0.43186
 C1324 C 0.02583 -0.17665 0.44858
 C1325 C 0.00054 -0.14835 0.44436
 C1326 C -0.03399 -0.15658 0.42892
 C1327 C -0.07578 -0.19797 0.39875
 C1328 C -0.10425 -0.17310 0.40272
 C1329 C -0.09841 -0.14064 0.42068
 C1330 C -0.06408 -0.13307 0.43476
 H1331 H -0.08407 -0.22428 0.38960
 H1332 H -0.13148 -0.17999 0.39356
 H1333 H -0.12097 -0.12209 0.42541
 H1334 H -0.06191 -0.10970 0.45229
 H1335 H 0.04151 -0.23052 0.43414
 H1336 H 0.05118 -0.17219 0.46323
 C1337 C 0.46267 -0.17874 0.60843
 C1338 C 0.49167 -0.20541 0.60302
 C1339 C 0.51787 -0.19615 0.57596
 C1340 C 0.51988 -0.16121 0.56073
 C1341 C 0.49652 -0.13341 0.57255
 C1342 C 0.46824 -0.14188 0.59738
 C1343 C 0.42725 -0.18693 0.62184
 C1344 C 0.40286 -0.15988 0.63265
 C1345 C 0.41201 -0.12377 0.62836
 C1346 C 0.44378 -0.11460 0.60966
 H1347 H 0.41722 -0.21405 0.62440
 H1348 H 0.37684 -0.16708 0.64469
 H1349 H 0.39347 -0.10304 0.63806
 H1350 H 0.44852 -0.08618 0.60404
 H1351 H 0.53853 -0.21568 0.56788
 H1352 H 0.54079 -0.15550 0.54045
 C1353 C -0.04016 0.29343 1.08081
 C1354 C -0.00671 0.28154 1.09822
 C1355 C 0.02229 0.30690 1.09887
 C1356 C 0.01963 0.34082 1.08297
 C1357 C -0.01227 0.35238 1.06588
 C1358 C -0.04278 0.32906 1.06494
 C1359 C -0.07069 0.27033 1.07750
 C1360 C -0.10302 0.28226 1.06131
 C1361 C -0.10575 0.31730 1.04756
 C1362 C -0.07613 0.34061 1.04920
 H1363 H -0.06973 0.24235 1.08587
 H1364 H -0.12611 0.26417 1.05937
 H1365 H -0.13124 0.32666 1.03612
 H1366 H -0.07999 0.36783 1.03857
 H1367 H 0.04761 0.30206 1.11320
 H1368 H 0.04312 0.35854 1.08433
 C1369 C 0.78668 0.35850 0.06322
 C1370 C 0.75569 0.35756 0.03753
 C1371 C 0.72334 0.34143 0.05115
 C1372 C 0.72220 0.32325 0.08482
 C1373 C 0.75356 0.31920 0.10616
 C1374 C 0.78626 0.33568 0.09514
 C1375 C 0.81670 0.38298 0.06150
 C1376 C 0.84662 0.38047 0.08508
 C1377 C 0.84779 0.35423 0.11225
 C1378 C 0.81786 0.33218 0.11757
 H1379 H 0.81751 0.40666 0.04478
 H1380 H 0.86930 0.39884 0.08196
 H1381 H 0.87147 0.35177 0.12995
 H1382 H 0.81950 0.31310 0.14014
 H1383 H 0.69864 0.34164 0.03474
 H1384 H 0.69670 0.31152 0.09395
 C1385 C 0.22336 0.83661 0.56286
 C1386 C 0.25524 0.85556 0.54964
 C1387 C 0.28339 0.86075 0.57637
 C1388 C 0.28360 0.84440 0.61058
 C1389 C 0.25472 0.82342 0.62182
 C1390 C 0.22367 0.82021 0.59890
 C1391 C 0.19166 0.83208 0.54109
 C1392 C 0.16154 0.81306 0.55416
 C1393 C 0.16215 0.79747 0.58907
 C1394 C 0.19296 0.80070 0.61121
 H1395 H 0.19008 0.84128 0.51311
 H1396 H 0.13777 0.80984 0.53674
 H1397 H 0.13876 0.78248 0.59891
 H1398 H 0.19250 0.78783 0.63809
 H1399 H 0.30589 0.87890 0.57267
 H1400 H 0.30663 0.84873 0.62884
 C1401 C 0.76133 0.62058 0.57038
 C1402 C 0.76012 0.64019 0.53579
 C1403 C 0.76043 0.67854 0.53820
 C1404 C 0.75776 0.69627 0.57239
 C1405 C 0.76025 0.67696 0.60584
 C1406 C 0.76801 0.63906 0.60388
 C1407 C 0.75542 0.58279 0.57299
 C1408 C 0.76445 0.56296 0.60443
 C1409 C 0.77939 0.58057 0.63436
 C1410 C 0.78125 0.61826 0.63420
 H1411 H 0.74283 0.56832 0.55138
 H1412 H 0.76072 0.53383 0.60510
 H1413 H 0.78868 0.56517 0.65812
 H1414 H 0.79459 0.63017 0.65748
 H1415 H 0.76086 0.69547 0.51394
 H1416 H 0.75422 0.72549 0.57259
 C1417 C 0.25050 0.18983 0.02989
 C1418 C 0.24581 0.15095 0.02749
 C1419 C 0.23484 0.13272 0.06038
 C1420 C 0.23212 0.14988 0.09389
 C1421 C 0.24216 0.18584 0.09740
 C1422 C 0.25243 0.20601 0.06570
 C1423 C 0.25382 0.21358 -0.00076
 C1424 C 0.26452 0.24956 0.00339
 C1425 C 0.27191 0.26315 0.03812
 C1426 C 0.26592 0.24165 0.06904
 H1427 H 0.24774 0.20604 -0.02843
 H1428 H 0.26766 0.26681 -0.02064
 H1429 H 0.28165 0.29065 0.04118
 H1430 H 0.27278 0.25292 0.09547
 H1431 H 0.23060 0.10369 0.06096
 H1432 H 0.22391 0.13417 0.11780
 C1433 C 0.29272 0.16248 0.94593
 C1434 C 0.26025 0.14239 0.95503
 C1435 C 0.23729 0.13342 0.92497
 C1436 C 0.24130 0.14876 0.89047
 C1437 C 0.27004 0.17205 0.88258
 C1438 C 0.29762 0.17681 0.90943
 C1439 C 0.31989 0.16998 0.97233
 C1440 C 0.35157 0.18847 0.96301
 C1441 C 0.35710 0.20033 0.92710
 C1442 C 0.33037 0.19479 0.90053
 H1443 H 0.31662 0.16296 1.00071
 H1444 H 0.37176 0.19369 0.98399
 H1445 H 0.38201 0.21419 0.91978
 H1446 H 0.33607 0.20395 0.87286
 H1447 H 0.21473 0.11492 0.92744
 H1448 H 0.22071 0.14289 0.86992
 C1449 C 0.79278 0.64135 0.43367
 C1450 C 0.76382 0.64395 0.46165
 C1451 C 0.73633 0.67037 0.45442
 C1452 C 0.73643 0.69234 0.42293
 C1453 C 0.76562 0.69152 0.39832
 C1454 C 0.79543 0.66852 0.40549
 C1455 C 0.81726 0.61160 0.42906
 C1456 C 0.84755 0.61296 0.40593
 C1457 C 0.85294 0.64283 0.38357
 C1458 C 0.82650 0.66995 0.38231
 H1459 H 0.81227 0.58528 0.43970
 H1460 H 0.86606 0.58995 0.40426
 H1461 H 0.87632 0.64359 0.36542
 H1462 H 0.82997 0.69157 0.36235
 H1463 H 0.71326 0.67316 0.47284
 H1464 H 0.71309 0.70978 0.41740
 C1465 C 0.24669 0.81122 0.47266
 C1466 C 0.25928 0.84805 0.47523
 C1467 C 0.26897 0.86491 0.44148
 C1468 C 0.26162 0.84959 0.40759
 C1469 C 0.24343 0.81646 0.40435
 C1470 C 0.23448 0.79742 0.43768
 C1471 C 0.24770 0.78662 0.50271
 C1472 C 0.23038 0.75320 0.50109
 C1473 C 0.21235 0.74302 0.46925
 C1474 C 0.21449 0.76460 0.43776
 H1475 H 0.26254 0.79199 0.52761
 H1476 H 0.23050 0.73537 0.52491
 H1477 H 0.19748 0.71773 0.46858
 H1478 H 0.19928 0.75516 0.41442
 H1479 H 0.27958 0.89223 0.44077
 H1480 H 0.26951 0.86502 0.38342
 C1481 C 0.73782 0.31131 0.96107
 C1482 C 0.74798 0.34908 0.96282
 C1483 C 0.74952 0.36800 0.92862
 C1484 C 0.74239 0.35206 0.89524
 C1485 C 0.73177 0.31596 0.89277
 C1486 C 0.72626 0.29611 0.92633
 C1487 C 0.73972 0.28744 0.99167
 C1488 C 0.72511 0.25271 0.99042
 C1489 C 0.70890 0.24034 0.95843
 C1490 C 0.70975 0.26147 0.92660
 H1491 H 0.75438 0.29364 1.01632
 H1492 H 0.72637 0.23531 1.01453
 H1493 H 0.69641 0.21379 0.95796
 H1494 H 0.69590 0.25041 0.90313
 H1495 H 0.75532 0.39678 0.92758
 H1496 H 0.74536 0.36877 0.87077
 C1497 C 0.80766 0.46524 0.23607
 C1498 C 0.84145 0.47038 0.25551
 C1499 C 0.85025 0.44098 0.27909
 C1500 C 0.83704 0.40613 0.27317
 C1501 C 0.81186 0.39900 0.24507
 C1502 C 0.79671 0.42940 0.22594
 C1503 C 0.78132 0.49310 0.23123
 C1504 C 0.75103 0.48809 0.20847
 C1505 C 0.74623 0.45517 0.19059
 C1506 C 0.76892 0.42582 0.19917
 H1507 H 0.78386 0.51927 0.24370
 H1508 H 0.73212 0.51031 0.20352
 H1509 H 0.72408 0.45196 0.17113
 H1510 H 0.76390 0.40059 0.18511
 H1511 H 0.86732 0.44418 0.30293
 H1512 H 0.84620 0.38469 0.29159
 C1513 C 0.32587 0.95190 0.78920
 C1514 C 0.35169 0.95971 0.76039
 C1515 C 0.36744 0.92858 0.74313
 C1516 C 0.35246 0.89446 0.74590
 C1517 C 0.32272 0.88847 0.76844
 C1518 C 0.31046 0.91632 0.79209
 C1519 C 0.31335 0.97853 0.81392
 C1520 C 0.28688 0.97094 0.84040
 C1521 C 0.27198 0.93643 0.84287
 C1522 C 0.28356 0.90926 0.81894
 H1523 H 0.32295 1.00556 0.81250
 H1524 H 0.27768 0.99209 0.85890
 H1525 H 0.25143 0.93068 0.86347
 H1526 H 0.27180 0.88256 0.82204
 H1527 H 0.39149 0.92989 0.72603
 H1528 H 0.36375 0.87266 0.72938
 C1529 C 0.18380 0.95670 0.22863
 C1530 C 0.15802 0.96728 0.25677
 C1531 C 0.15806 0.94490 0.28901
 C1532 C 0.17454 0.91128 0.29055
 C1533 C 0.19425 0.89863 0.26098
 C1534 C 0.20127 0.92179 0.23072
 C1535 C 0.19164 0.97860 0.19757
 C1536 C 0.21562 0.96710 0.17011
 C1537 C 0.23237 0.93327 0.17252
 C1538 C 0.22521 0.91068 0.20241
 H1539 H 0.17882 1.00422 0.19306
 H1540 H 0.22092 0.98447 0.14658
 H1541 H 0.25090 0.92443 0.15107
 H1542 H 0.23894 0.88467 0.20335
 H1543 H 0.14499 0.95241 0.31443
 H1544 H 0.17122 0.89462 0.31505
 C1545 C 0.67841 0.45762 0.72497
 C1546 C 0.65214 0.46608 0.75345
 C1547 C 0.65123 0.44075 0.78331
 C1548 C 0.66755 0.40671 0.78193
 C1549 C 0.68806 0.39629 0.75174
 C1550 C 0.69556 0.42230 0.72396
 C1551 C 0.68700 0.48230 0.69634
 C1552 C 0.71140 0.47315 0.66836
 C1553 C 0.72775 0.43903 0.66771
 C1554 C 0.71985 0.41371 0.69508
 H1555 H 0.67447 0.50849 0.69415
 H1556 H 0.71733 0.49259 0.64674
 H1557 H 0.74654 0.43208 0.64579
 H1558 H 0.73312 0.38744 0.69354
 H1559 H 0.63767 0.44639 0.80898
 H1560 H 0.66392 0.38815 0.80490
 C1561 C 0.67643 0.54621 0.77866
 C1562 C 0.64872 0.53677 0.75202
 C1563 C 0.64326 0.56249 0.72292
 C1564 C 0.65971 0.59624 0.72203
 C1565 C 0.68436 0.60627 0.74894
 C1566 C 0.69401 0.58100 0.77681
 C1567 C 0.68624 0.52295 0.80821
 C1568 C 0.71264 0.53260 0.83398
 C1569 C 0.72975 0.56601 0.83159
 C1570 C 0.72037 0.59019 0.80355
 H1571 H 0.67292 0.49774 0.81306
 H1572 H 0.71946 0.51418 0.85633
 H1573 H 0.75002 0.57344 0.85187
 H1574 H 0.73384 0.61624 0.80315
 H1575 H 0.62661 0.55717 0.69915
 H1576 H 0.65341 0.61467 0.69947
 C1577 C 0.18044 0.04878 0.28022
 C1578 C 0.15509 0.03692 0.25217
 C1579 C 0.15275 0.05958 0.22022
 C1580 C 0.16846 0.09334 0.21801
 C1581 C 0.18893 0.10640 0.24685
 C1582 C 0.19665 0.08400 0.27750
 C1583 C 0.18928 0.02775 0.31171
 C1584 C 0.21294 0.04026 0.33887
 C1585 C 0.22842 0.07439 0.33580
 C1586 C 0.22029 0.09624 0.30554
 H1587 H 0.17732 0.00211 0.31695
 H1588 H 0.21892 0.02348 0.36274
 H1589 H 0.24664 0.08405 0.35706
 H1590 H 0.23282 0.12274 0.30420
 H1591 H 0.13899 0.05176 0.19529
 H1592 H 0.16426 0.10968 0.19339
 C1593 C 0.30365 0.03580 0.73869
 C1594 C 0.34303 0.03174 0.73995
 C1595 C 0.36362 0.06341 0.73163
 C1596 C 0.34837 0.09769 0.72993
 C1597 C 0.31111 0.10280 0.73448
 C1598 C 0.28823 0.07170 0.73435
 C1599 C 0.27862 0.00668 0.74115
 C1600 C 0.24109 0.01194 0.73777
 C1601 C 0.22702 0.04620 0.73079
 C1602 C 0.25032 0.07562 0.72856
 H1603 H 0.28636 -0.02096 0.74414
 H1604 H 0.22290 -0.01106 0.73932
 H1605 H 0.19798 0.04993 0.72649
 H1606 H 0.23850 0.10112 0.72034
 H1607 H 0.39310 0.06266 0.73111
 H1608 H 0.36664 0.12061 0.72774
 C1609 C 0.82765 0.55026 0.28667
 C1610 C 0.84849 0.54090 0.25428
 C1611 C 0.85642 0.56961 0.22955
 C1612 C 0.84044 0.60361 0.23269
 C1613 C 0.81762 0.61223 0.26221
 C1614 C 0.81247 0.58606 0.29043
 C1615 C 0.82345 0.52574 0.31656
 C1616 C 0.80465 0.53555 0.34829
 C1617 C 0.79039 0.57025 0.35159
 C1618 C 0.79461 0.59542 0.32352
 H1619 H 0.83590 0.49938 0.31713
 H1620 H 0.80211 0.51647 0.37093
 H1621 H 0.77709 0.57844 0.37657
 H1622 H 0.78519 0.62259 0.32928
 H1623 H 0.87507 0.56627 0.20677
 H1624 H 0.84613 0.62349 0.21139
 C1625 C 0.95386 0.28036 0.16891
 C1626 C 0.96359 0.24730 0.14978
 C1627 C 0.93738 0.21908 0.15165
 C1628 C 0.90299 0.22390 0.16735
 C1629 C 0.89189 0.25721 0.18181
 C1630 C 0.91727 0.28603 0.18216
 C1631 C 0.97905 0.30883 0.17387
 C1632 C 0.96789 0.34288 0.18634
 C1633 C 0.93153 0.34927 0.19510
 C1634 C 0.90657 0.32105 0.19387
 H1635 H 1.00763 0.30536 0.16811
 H1636 H 0.98751 0.36460 0.18869
 H1637 H 0.92260 0.37612 0.20327
 H1638 H 0.87862 0.32741 0.20104
 H1639 H 0.94129 0.19324 0.13855
 H1640 H 0.88427 0.20124 0.16724
 C1641 C 0.46134 0.77991 0.68453
 C1642 C 0.46684 0.75318 0.65571
 C1643 C 0.44057 0.72521 0.65409
 C1644 C 0.40822 0.72642 0.67393
 C1645 C 0.39995 0.75507 0.69754
 C1646 C 0.42735 0.78132 0.70456
 C1647 C 0.48653 0.80818 0.69090
 C1648 C 0.47957 0.83597 0.71580
 C1649 C 0.44676 0.83734 0.73455
 C1650 C 0.42074 0.81075 0.72875
 H1651 H 0.51115 0.81085 0.67578
 H1652 H 0.49942 0.85727 0.71971
 H1653 H 0.44106 0.85961 0.75312
 H1654 H 0.39532 0.81464 0.74299
 H1655 H 0.44331 0.70216 0.63630
 H1656 H 0.38864 0.70490 0.66966
 C1657 C 0.45541 0.27662 0.81913
 C1658 C 0.46524 0.25165 0.84842
 C1659 C 0.44080 0.22195 0.85359
 C1660 C 0.40908 0.21744 0.83325
 C1661 C 0.39942 0.24157 0.80554
 C1662 C 0.42292 0.27091 0.79756
 C1663 C 0.47624 0.30780 0.81095
 C1664 C 0.46699 0.33118 0.78204
 C1665 C 0.43627 0.32477 0.76080
 C1666 C 0.41422 0.29520 0.76861
 H1667 H 0.49900 0.31567 0.82740
 H1668 H 0.48356 0.35470 0.77628
 H1669 H 0.42922 0.34306 0.73842
 H1670 H 0.39047 0.29137 0.75150
 H1671 H 0.44584 0.20006 0.87260
 H1672 H 0.39165 0.19456 0.83945
 C1673 C 0.95155 0.77984 0.32635
 C1674 C 0.96203 0.74999 0.35031
 C1675 C 0.93936 0.71878 0.34861
 C1676 C 0.90655 0.71831 0.32950
 C1677 C 0.89417 0.74863 0.31051
 C1678 C 0.91731 0.77894 0.30695
 C1679 C 0.97229 0.81194 0.32333
 C1680 C 0.96096 0.84104 0.30133
 C1681 C 0.92829 0.83943 0.28208
 C1682 C 0.90646 0.80886 0.28499
 H1683 H 0.99665 0.81601 0.33874
 H1684 H 0.97742 0.86527 0.29962
 H1685 H 0.91960 0.86218 0.26514
 H1686 H 0.88108 0.80881 0.26979
 H1687 H 0.94603 0.69366 0.36229
 H1688 H 0.89001 0.69415 0.33039
 C1689 C 0.04327 0.72945 0.32744
 C1690 C 0.03138 0.75562 0.35467
 C1691 C 0.05455 0.78642 0.35864
 C1692 C 0.08846 0.78938 0.34161
 C1693 C 0.10081 0.76313 0.31730
 C1694 C 0.07743 0.73398 0.30844
 C1695 C 0.02304 0.69790 0.31929
 C1696 C 0.03426 0.67322 0.29256
 C1697 C 0.06634 0.67882 0.27325
 C1698 C 0.08785 0.70867 0.28122
 H1699 H -0.00077 0.69059 0.33422
 H1700 H 0.01804 0.64939 0.28705
 H1701 H 0.07487 0.65968 0.25233
 H1702 H 0.11248 0.71190 0.26547
 H1703 H 0.04696 0.80984 0.37452
 H1704 H 0.10535 0.81268 0.34760
 C1705 C 0.54346 0.22992 0.81428
 C1706 C 0.53548 0.25603 0.84284
 C1707 C 0.55901 0.28680 0.84350
 C1708 C 0.59153 0.28842 0.82426
 C1709 C 0.60189 0.26058 0.80109
 C1710 C 0.57718 0.23210 0.79412
 C1711 C 0.52002 0.20066 0.80606
 C1712 C 0.52898 0.17500 0.77937
 C1713 C 0.56168 0.17736 0.76024
 C1714 C 0.58573 0.20545 0.76762
 H1715 H 0.49525 0.19600 0.82080
 H1716 H 0.51057 0.15279 0.77386
 H1717 H 0.56854 0.15721 0.73969
 H1718 H 0.61085 0.20640 0.75205
 H1719 H 0.55325 0.31088 0.85921
 H1720 H 0.60937 0.31143 0.82839
 C1721 C 0.54648 0.72012 0.66497
 C1722 C 0.53526 0.75327 0.64615
 C1723 C 0.56192 0.78097 0.64414
 C1724 C 0.59681 0.77699 0.65910
 C1725 C 0.60768 0.74516 0.67711
 C1726 C 0.58267 0.71625 0.67987
 C1727 C 0.52372 0.68932 0.66703
 C1728 C 0.53516 0.65688 0.68312
 C1729 C 0.57006 0.65344 0.69731
 C1730 C 0.59380 0.68257 0.69539
 H1731 H 0.49759 0.68848 0.65451
 H1732 H 0.51697 0.63398 0.68342
 H1733 H 0.57912 0.62783 0.70903
 H1734 H 0.62127 0.67777 0.70513
 H1735 H 0.55610 0.80707 0.63193
 H1736 H 0.61550 0.79959 0.65708
 C1737 C 0.06857 0.23642 0.11958
 C1738 C 0.03539 0.24238 0.14043
 C1739 C 0.03840 0.24088 0.17933
 C1740 C 0.07222 0.23754 0.19692
 C1741 C 0.10428 0.23266 0.17660
 C1742 C 0.10197 0.22857 0.13805
 C1743 C 0.06994 0.23909 0.08067
 C1744 C 0.10177 0.23200 0.06098
 C1745 C 0.13274 0.21957 0.07910
 C1746 C 0.13279 0.21736 0.11731
 H1747 H 0.04722 0.24828 0.06484
 H1748 H 0.10218 0.23594 0.03143
 H1749 H 0.15701 0.21237 0.06365
 H1750 H 0.15726 0.20706 0.13048
 H1751 H 0.01469 0.24322 0.19684
 H1752 H 0.07341 0.23968 0.22667
 C1753 C -0.05989 1.00807 0.78887
 C1754 C -0.09880 1.00201 0.78811
 C1755 C -0.11605 0.99844 0.82251
 C1756 C -0.09664 0.99128 0.85432
 C1757 C -0.05840 0.99007 0.85469
 C1758 C -0.03948 0.99874 0.82150
 C1759 C -0.04050 1.02452 0.75943
 C1760 C -0.00261 1.02652 0.75946
 C1761 C 0.01715 1.01338 0.78923
 C1762 C -0.00094 1.00012 0.82008
 H1763 H -0.05361 1.03676 0.73601
 H1764 H 0.01149 1.03836 0.73614
 H1765 H 0.04668 1.01445 0.78890
 H1766 H 0.01610 0.99108 0.84226
 H1767 H -0.14541 0.99761 0.82450
 H1768 H -0.11225 0.98627 0.87918
 C1769 C 0.37317 0.48623 0.32451
 C1770 C 0.38967 0.49756 0.29010
 C1771 C 0.42707 0.50718 0.29163
 C1772 C 0.44734 0.50492 0.32428
 C1773 C 0.43147 0.49284 0.35705
 C1774 C 0.39467 0.48197 0.35697
 C1775 C 0.33598 0.47711 0.32729
 C1776 C 0.32106 0.46184 0.35890
 C1777 C 0.34252 0.45615 0.38971
 C1778 C 0.37894 0.46615 0.38889
 H1779 H 0.31814 0.48012 0.30488
 H1780 H 0.29297 0.45336 0.35889
 H1781 H 0.33117 0.44336 0.41399
 H1782 H 0.39511 0.45932 0.41280
 H1783 H 0.44094 0.51822 0.26791
 H1784 H 0.47538 0.51410 0.32422
 C1785 C 0.56091 -0.00164 0.28761
 C1786 C 0.59996 0.00095 0.28613
 C1787 C 0.61835 0.00088 0.32030
 C1788 C 0.60052 0.00663 0.35304
 C1789 C 0.56279 0.01195 0.35445
 C1790 C 0.54227 0.00753 0.32123
 C1791 C 0.53974 -0.01497 0.25805
 C1792 C 0.50180 -0.01342 0.25880
 C1793 C 0.48392 0.00013 0.28950
 C1794 C 0.50376 0.00997 0.32057
 H1795 H 0.55163 -0.02782 0.23438
 H1796 H 0.48620 -0.02290 0.23542
 H1797 H 0.45440 0.00187 0.28975
 H1798 H 0.48815 0.01934 0.34354
 H1799 H 0.64769 -0.00056 0.32174
 H1800 H 0.61713 0.00765 0.37770
 C1801 C 0.07353 0.52381 0.79201
 C1802 C 0.10173 0.49712 0.78417
 C1803 C 0.10902 0.47173 0.81274
 C1804 C 0.09573 0.47601 0.84835
 C1805 C 0.07363 0.50552 0.85767
 C1806 C 0.06278 0.53006 0.82946
 C1807 C 0.05684 0.54599 0.76467
 C1808 C 0.03202 0.57332 0.77365
 C1809 C 0.02511 0.58148 0.81019
 C1810 C 0.04157 0.56119 0.83781
 H1811 H 0.06048 0.54231 0.73599
 H1812 H 0.01881 0.58890 0.75199
 H1813 H 0.00679 0.60344 0.81743
 H1814 H 0.03729 0.57041 0.86569
 H1815 H 0.12490 0.44750 0.80812
 H1816 H 0.10241 0.45544 0.86877
 C1817 C 0.08024 0.46602 0.70455
 C1818 C 0.10242 0.49710 0.71371
 C1819 C 0.10335 0.52550 0.68731
 C1820 C 0.08892 0.52180 0.65227
 C1821 C 0.07227 0.48974 0.64130
 C1822 C 0.06769 0.46139 0.66741
 C1823 C 0.07398 0.43726 0.72980
 C1824 C 0.05794 0.40487 0.71883
 C1825 C 0.04828 0.39974 0.68231
 C1826 C 0.05309 0.42752 0.65680
 H1827 H 0.08267 0.43813 0.75786
 H1828 H 0.05421 0.38310 0.73860
 H1829 H 0.03749 0.37391 0.67350
 H1830 H 0.04645 0.42135 0.62853
 H1831 H 0.11482 0.55164 0.69347
 H1832 H 0.09088 0.54458 0.63336
 C1833 C 0.57795 1.03120 0.20205
 C1834 C 0.60542 1.00486 0.21262
 C1835 C 0.61511 0.97888 0.18520
 C1836 C 0.59739 0.97630 0.15166
 C1837 C 0.56941 1.00000 0.14244
 C1838 C 0.56002 1.02839 0.16695
 C1839 C 0.56647 1.05947 0.22572
 C1840 C 0.53971 1.08452 0.21523
 C1841 C 0.52321 1.08205 0.18094
 C1842 C 0.53305 1.05424 0.15707
 H1843 H 0.57649 1.06204 0.25315
 H1844 H 0.53143 1.10575 0.23408
 H1845 H 0.50238 1.10155 0.17294
 H1846 H 0.51925 1.05321 0.13088
 H1847 H 0.63712 0.95960 0.18857
 H1848 H 0.60608 0.95556 0.13234
 C1849 C 0.39039 0.53845 0.19092
 C1850 C 0.39264 0.50849 0.21766
 C1851 C 0.42006 0.48192 0.21094
 C1852 C 0.44273 0.48291 0.18029
 C1853 C 0.44128 0.51189 0.15575
 C1854 C 0.41730 0.54109 0.16235
 C1855 C 0.36147 0.56441 0.18843
 C1856 C 0.36269 0.59441 0.16492
 C1857 C 0.39163 0.59875 0.14095
 C1858 C 0.41819 0.57186 0.13879
 H1859 H 0.33586 0.56144 0.20177
 H1860 H 0.34040 0.61391 0.16464
 H1861 H 0.39249 0.62204 0.12267
 H1862 H 0.43925 0.57517 0.11817
 H1863 H 0.42333 0.45888 0.22926
 H1864 H 0.46106 0.46025 0.17520
 C1865 C -0.07445 -0.02734 0.70752
 C1866 C -0.10338 -0.00165 0.71581
 C1867 C -0.11228 0.02392 0.68763
 C1868 C -0.09324 0.02611 0.65482
 C1869 C -0.06417 0.00298 0.64785
 C1870 C -0.05474 -0.02433 0.67361
 C1871 C -0.06270 -0.05457 0.73264
 C1872 C -0.03350 -0.07772 0.72484
 C1873 C -0.01530 -0.07506 0.69156
 C1874 C -0.02572 -0.04870 0.66616
 H1875 H -0.07402 -0.05749 0.75945
 H1876 H -0.02443 -0.09744 0.74505
 H1877 H 0.00736 -0.09314 0.68562
 H1878 H -0.01035 -0.04735 0.64091
 H1879 H -0.13436 0.04322 0.68996
 H1880 H -0.10146 0.04623 0.63447
 C1881 C -0.17550 0.88119 1.02802
 C1882 C -0.20572 0.89288 1.00437
 C1883 C -0.19563 0.91336 0.97273
 C1884 C -0.16031 0.92643 0.96751
 C1885 C -0.13138 0.91396 0.98940
 C1886 C -0.13885 0.88637 1.01555
 C1887 C -0.17880 0.86289 1.06249
 C1888 C -0.14985 0.84365 1.07832
 C1889 C -0.11643 0.84230 1.06075
 C1890 C -0.11079 0.86358 1.02970
 H1891 H -0.20237 0.86309 1.07911
 H1892 H -0.15373 0.82898 1.10395
 H1893 H -0.09452 0.82563 1.07179
 H1894 H -0.08465 0.86076 1.01628
 H1895 H -0.21618 0.92126 0.95270
 H1896 H -0.15550 0.94588 0.94559
 C1897 C 0.33203 0.37573 0.49204
 C1898 C 0.29803 0.39584 0.49407
 C1899 C 0.30014 0.43397 0.49737
 C1900 C 0.33333 0.45196 0.49571
 C1901 C 0.36600 0.43291 0.49057
 C1902 C 0.36542 0.39463 0.48736
 C1903 C 0.33353 0.33721 0.49117
 C1904 C 0.36589 0.31833 0.48474
 C1905 C 0.39764 0.33705 0.47749
 C1906 C 0.39733 0.37472 0.47815
 H1907 H 0.30998 0.32071 0.49397
 H1908 H 0.36597 0.28898 0.48422
 H1909 H 0.42251 0.32239 0.47095
 H1910 H 0.42217 0.38791 0.47022
 H1911 H 0.27611 0.45060 0.50142
 H1912 H 0.33348 0.48120 0.49894
 C1913 C 0.28795 0.55385 0.03273
 C1914 C 0.28590 0.59125 0.02127
 C1915 C 0.31881 0.61085 0.02198
 C1916 C 0.35229 0.59393 0.02428
 C1917 C 0.35561 0.55646 0.02824
 C1918 C 0.32300 0.53579 0.03380
 C1919 C 0.25699 0.53391 0.04412
 C1920 C 0.25921 0.49697 0.05185
 C1921 C 0.29229 0.47884 0.04902
 C1922 C 0.32380 0.49783 0.04027
 H1923 H 0.23084 0.54610 0.04905
 H1924 H 0.23505 0.48232 0.06022
 H1925 H 0.29373 0.44994 0.05453
 H1926 H 0.34814 0.48172 0.03908
 H1927 H 0.31907 0.63961 0.01634
 H1928 H 0.37599 0.61056 0.02012
 C1929 C -0.20637 0.05594 0.49859
 C1930 C -0.20912 0.09504 0.50231
 C1931 C -0.17617 0.11380 0.50961
 C1932 C -0.14271 0.09674 0.51136
 C1933 C -0.13921 0.05973 0.50600
 C1934 C -0.17075 0.03924 0.49741
 C1935 C -0.23671 0.03239 0.49598
 C1936 C -0.23253 -0.00418 0.48718
 C1937 C -0.19808 -0.01866 0.48104
 C1938 C -0.16746 0.00274 0.48617
 H1939 H -0.26407 0.04043 0.50200
 H1940 H -0.25630 -0.02132 0.48479
 H1941 H -0.19502 -0.04676 0.47289
 H1942 H -0.14131 -0.00933 0.48010
 H1943 H -0.17597 0.14310 0.51195
 H1944 H -0.11881 0.11309 0.51558
 C1945 C 0.70481 0.08675 0.46202
 C1946 C 0.71774 0.10316 0.49562
 C1947 C 0.69113 0.10917 0.52349
 C1948 C 0.65553 0.09736 0.52041
 C1949 C 0.64323 0.08063 0.48857
 C1950 C 0.66719 0.07719 0.45816
 C1951 C 0.72834 0.07919 0.43216
 C1952 C 0.71510 0.06652 0.39862
 C1953 C 0.67803 0.06050 0.39404
 C1954 C 0.65424 0.06535 0.42356
 H1955 H 0.75726 0.08214 0.43452
 H1956 H 0.73372 0.06158 0.37599
 H1957 H 0.66779 0.05169 0.36759
 H1958 H 0.62552 0.06070 0.41875
 H1959 H 0.69682 0.12330 0.54874
 H1960 H 0.63740 0.10100 0.54375
 C1961 C 0.20576 0.56761 0.97983
 C1962 C 0.21363 0.59400 1.00791
 C1963 C 0.18308 0.60706 1.02827
 C1964 C 0.14818 0.59331 1.02383
 C1965 C 0.14057 0.56806 0.99649
 C1966 C 0.16892 0.55745 0.97226
 C1967 C 0.23334 0.55149 0.95823
 C1968 C 0.22528 0.53000 0.92783
 C1969 C 0.18923 0.52405 0.91802
 C1970 C 0.16128 0.53767 0.93987
 H1971 H 0.26128 0.55432 0.96505
 H1972 H 0.24717 0.51836 0.91158
 H1973 H 0.18266 0.50849 0.89375
 H1974 H 0.13370 0.53336 0.93044
 H1975 H 0.18492 0.62916 1.04750
 H1976 H 0.12673 0.60295 1.04196
 C1977 C 0.21349 0.42662 0.46675
 C1978 C 0.22656 0.40416 0.49672
 C1979 C 0.20427 0.40371 0.52897
 C1980 C 0.16971 0.41913 0.53001
 C1981 C 0.15525 0.43626 0.49928
 C1982 C 0.17723 0.44147 0.46784
 C1983 C 0.23513 0.43478 0.43559
 C1984 C 0.22103 0.45478 0.40600
 C1985 C 0.18541 0.46775 0.40675
 C1986 C 0.16369 0.46150 0.43744
 H1987 H 0.26337 0.42694 0.43397
 H1988 H 0.23777 0.46062 0.38233
 H1989 H 0.17475 0.48329 0.38368
 H1990 H 0.13637 0.47287 0.43730
 H1991 H 0.21099 0.38898 0.55361
 H1992 H 0.15339 0.41623 0.55477
 C1993 C 0.71726 0.94204 -0.00052
 C1994 C 0.71997 0.90278 0.00054
 C1995 C 0.68628 0.88371 0.00033
 C1996 C 0.65268 0.90056 0.00237
 C1997 C 0.64944 0.93812 0.00124
 C1998 C 0.68172 0.95891 -0.00368
 C1999 C 0.74746 0.96576 0.00210
 C2000 C 0.74393 1.00293 -0.00434
 C2001 C 0.71022 1.01783 -0.01315
 C2002 C 0.67940 0.99611 -0.01270
 H2003 H 0.77397 0.95732 0.01094
 H2004 H 0.76765 1.02023 -0.00274
 H2005 H 0.70779 1.04647 -0.01960
 H2006 H 0.65401 1.00845 -0.02083
 H2007 H 0.68595 0.85432 -0.00024
 H2008 H 0.62876 0.88355 0.00462
 C2009 C -0.03381 0.80900 0.90119
 C2010 C -0.00519 0.78158 0.90285
 C2011 C 0.02257 0.78784 0.92907
 C2012 C 0.02763 0.82233 0.94412
 C2013 C 0.00548 0.85152 0.93299
 C2014 C -0.02533 0.84510 0.91089
 C2015 C -0.07114 0.80211 0.89330
 C2016 C -0.09581 0.83025 0.88590
 C2017 C -0.08451 0.86598 0.88790
 C2018 C -0.04971 0.87350 0.90087
 H2019 H -0.08203 0.77518 0.89239
 H2020 H -0.12351 0.82427 0.87777
 H2021 H -0.10319 0.88789 0.88098
 H2022 H -0.04239 0.90160 0.90341
 H2023 H 0.04248 0.76683 0.93534
 H2024 H 0.04982 0.82659 0.96335
 C2025 C 0.46024 0.32211 0.39524
 C2026 C 0.48908 0.29503 0.39947
 C2027 C 0.51576 0.30313 0.42644
 C2028 C 0.51842 0.33757 0.44248
 C2029 C 0.49517 0.36599 0.43170
 C2030 C 0.46629 0.35853 0.40720
 C2031 C 0.42458 0.31465 0.38200
 C2032 C 0.40027 0.34221 0.37224
 C2033 C 0.40968 0.37806 0.37751
 C2034 C 0.44177 0.38637 0.39607
 H2035 H 0.41430 0.28774 0.37871
 H2036 H 0.37410 0.33561 0.36021
 H2037 H 0.39112 0.39916 0.36863
 H2038 H 0.44668 0.41454 0.40246
 H2039 H 0.53636 0.28315 0.43368
 H2040 H 0.53985 0.34246 0.46242
 C2041 C -0.03579 0.30874 0.59326
 C2042 C -0.00537 0.28339 0.59604
 C2043 C 0.02376 0.28930 0.57092
 C2044 C 0.02878 0.32273 0.55326
 C2045 C 0.00274 0.35036 0.55642
 C2046 C -0.03140 0.34168 0.57254
 C2047 C -0.07159 0.30118 0.60634
 C2048 C -0.10055 0.32543 0.60168
 C2049 C -0.09590 0.35678 0.58119
 C2050 C -0.06215 0.36412 0.56565
 H2051 H -0.07947 0.27529 0.61703
 H2052 H -0.12737 0.31865 0.61207
 H2053 H -0.11897 0.37456 0.57575
 H2054 H -0.06091 0.38638 0.54629
 H2055 H 0.04561 0.26945 0.56875
 H2056 H 0.05398 0.32750 0.53847
 C2057 C 0.46040 0.81215 0.09677
 C2058 C 0.49095 0.78699 0.10001
 C2059 C 0.52121 0.79458 0.07679
 C2060 C 0.52635 0.82876 0.06038
 C2061 C 0.49970 0.85600 0.06298
 C2062 C 0.46518 0.84616 0.07774
 C2063 C 0.42418 0.80334 0.10757
 C2064 C 0.39506 0.82736 0.10289
 C2065 C 0.40009 0.85981 0.08440
 C2066 C 0.43433 0.86839 0.07075
 H2067 H 0.41625 0.77680 0.11637
 H2068 H 0.36791 0.81964 0.11160
 H2069 H 0.37697 0.87748 0.07882
 H2070 H 0.43582 0.89137 0.05246
 H2071 H 0.54342 0.77509 0.07484
 H2072 H 0.55194 0.83428 0.04659
 C2073 C 0.46703 0.70614 0.07525
 C2074 C 0.49692 0.71811 0.09768
 C2075 C 0.52805 0.69505 0.09721
 C2076 C 0.52604 0.65894 0.08532
 C2077 C 0.49322 0.64438 0.07228
 C2078 C 0.46308 0.66831 0.06769
 C2079 C 0.43969 0.72979 0.06196
 C2080 C 0.40649 0.71679 0.04908
 C2081 C 0.40027 0.67972 0.04829
 C2082 C 0.42853 0.65551 0.05680
 H2083 H 0.44436 0.75811 0.05885
 H2084 H 0.38546 0.73558 0.03992
 H2085 H 0.37382 0.66996 0.03996
 H2086 H 0.42299 0.62681 0.05579
 H2087 H 0.55401 0.70400 0.10783
 H2088 H 0.55038 0.64210 0.08674
 C2089 C -0.03064 0.20207 0.57632
 C2090 C 0.00053 0.21503 0.59637
 C2091 C 0.03200 0.19253 0.59445
 C2092 C 0.03011 0.15649 0.58236
 C2093 C -0.00312 0.14135 0.57129
 C2094 C -0.03416 0.16418 0.56934
 C2095 C -0.05969 0.22471 0.56517
 C2096 C -0.09377 0.21063 0.55649
 C2097 C -0.09897 0.17339 0.55698
 C2098 C -0.06911 0.15010 0.56178
 H2099 H -0.05591 0.25293 0.56058
 H2100 H -0.11620 0.22871 0.54952
 H2101 H -0.12597 0.16275 0.55236
 H2102 H -0.07363 0.12114 0.56058
 H2103 H 0.05829 0.20200 0.60366
 H2104 H 0.05483 0.14017 0.58204
 C2105 C 0.46407 0.21227 0.42659
 C2106 C 0.49482 0.22620 0.40679
 C2107 C 0.52861 0.20875 0.41544
 C2108 C 0.53021 0.17413 0.43086
 C2109 C 0.49841 0.15616 0.44075
 C2110 C 0.46515 0.17590 0.44083
 C2111 C 0.43245 0.23312 0.43295
 C2112 C 0.40124 0.21772 0.44827
 C2113 C 0.40145 0.18151 0.45928
 C2114 C 0.43331 0.16086 0.45633
 H2115 H 0.43219 0.26165 0.42804
 H2116 H 0.37688 0.23405 0.45203
 H2117 H 0.37722 0.16976 0.47136
 H2118 H 0.43304 0.13344 0.46709
 H2119 H 0.55455 0.22066 0.40832
 H2120 H 0.55653 0.16083 0.43402
 C2121 C -0.02649 0.70079 0.93000
 C2122 C 0.00090 0.71214 0.90388
 C2123 C 0.03279 0.68971 0.90302
 C2124 C 0.03365 0.65480 0.91748
 C2125 C 0.00375 0.64103 0.93602
 C2126 C -0.02615 0.66424 0.94371
 C2127 C -0.05358 0.72438 0.94407
 C2128 C -0.08099 0.71207 0.96752
 C2129 C -0.08254 0.67579 0.97745
 C2130 C -0.05527 0.65207 0.96594
 H2131 H -0.05276 0.75285 0.94003
 H2132 H -0.10077 0.73094 0.97868
 H2133 H -0.10414 0.66626 0.99531
 H2134 H -0.05683 0.62445 0.97545
 H2135 H 0.05813 0.69834 0.89090
 H2136 H 0.05810 0.63835 0.91418
 C2137 C 0.28237 0.62827 0.94318
 C2138 C 0.25403 0.63250 0.97102
 C2139 C 0.22447 0.65611 0.96185
 C2140 C 0.22172 0.67367 0.92794
 C2141 C 0.24996 0.67144 0.90242
 C2142 C 0.28206 0.65215 0.91207
 C2143 C 0.31117 0.60209 0.94373
 C2144 C 0.34145 0.60490 0.92067
 C2145 C 0.34386 0.63338 0.89582
 C2146 C 0.31434 0.65680 0.89145
 H2147 H 0.31191 0.57871 0.96116
 H2148 H 0.36351 0.58528 0.92275
 H2149 H 0.36813 0.63671 0.87918
 H2150 H 0.31710 0.67913 0.87236
 H2151 H 0.20261 0.66087 0.98131
 H2152 H 0.19741 0.68953 0.92183
 C2153 C 0.78762 0.14844 0.43602
 C2154 C 0.75937 0.14729 0.46436
 C2155 C 0.72879 0.17083 0.45845
 C2156 C 0.72413 0.19110 0.42609
 C2157 C 0.75182 0.19247 0.39990
 C2158 C 0.78554 0.17578 0.40819
 C2159 C 0.81666 0.12300 0.43127
 C2160 C 0.84676 0.13054 0.40904
 C2161 C 0.84775 0.16246 0.38878
 C2162 C 0.81692 0.18457 0.38756
 H2163 H 0.81652 0.09603 0.44215
 H2164 H 0.86917 0.11129 0.40730
 H2165 H 0.87139 0.16888 0.37215
 H2166 H 0.81738 0.20835 0.37002
 H2167 H 0.70670 0.17167 0.47825
 H2168 H 0.69842 0.20502 0.42116
 C2169 C 0.22262 0.33959 0.44145
 C2170 C 0.25546 0.35718 0.45400
 C2171 C 0.28387 0.36026 0.42726
 C2172 C 0.28363 0.34230 0.39413
 C2173 C 0.25374 0.32247 0.38366
 C2174 C 0.22217 0.32217 0.40614
 C2175 C 0.19058 0.33758 0.46318
 C2176 C 0.15929 0.32036 0.45049
 C2177 C 0.15903 0.30407 0.41608
 C2178 C 0.19017 0.30465 0.39419
 H2179 H 0.18944 0.34746 0.49089
 H2180 H 0.13525 0.31913 0.46780
 H2181 H 0.13470 0.29054 0.40647
 H2182 H 0.18888 0.29132 0.36781
 H2183 H 0.30698 0.37780 0.43011
 H2184 H 0.30682 0.34505 0.37576
 C2185 C 0.78219 0.82467 0.95795
 C2186 C 0.75519 0.85235 0.96604
 C2187 C 0.73376 0.86394 0.93519
 C2188 C 0.73607 0.84828 0.90047
 C2189 C 0.76187 0.82159 0.89249
 C2190 C 0.78670 0.81117 0.92092
 C2191 C 0.80595 0.81064 0.98528
 C2192 C 0.83474 0.78732 0.97673
 C2193 C 0.84076 0.77706 0.94055
 C2194 C 0.81715 0.78875 0.91295
 H2195 H 0.80260 0.81688 1.01377
 H2196 H 0.85278 0.77762 0.99834
 H2197 H 0.86378 0.75992 0.93359
 H2198 H 0.82424 0.78110 0.88521
 H2199 H 0.71500 0.88657 0.93632
 H2200 H 0.71740 0.85777 0.87926
 C2201 C 0.73463 0.87463 0.07303
 C2202 C 0.74461 0.85507 0.03985
 C2203 C 0.73807 0.81721 0.04014
 C2204 C 0.72996 0.79870 0.07292
 C2205 C 0.72298 0.81784 0.10541
 C2206 C 0.72005 0.85591 0.10379
 C2207 C 0.74178 0.91196 0.07780
 C2208 C 0.72829 0.93124 0.10793
 C2209 C 0.70873 0.91335 0.13518
 C2210 C 0.70517 0.87581 0.13359
 H2211 H 0.75932 0.92611 0.05933
 H2212 H 0.73339 0.96005 0.11027
 H2213 H 0.69783 0.92828 0.15840
 H2214 H 0.69119 0.86227 0.15602
 H2215 H 0.74056 0.80121 0.01543
 H2216 H 0.73039 0.76929 0.07312
 C2217 C 0.24536 0.31489 0.53133
 C2218 C 0.26052 0.35060 0.52792
 C2219 C 0.27298 0.36661 0.56111
 C2220 C 0.26619 0.35158 0.59533
 C2221 C 0.24523 0.32027 0.59924
 C2222 C 0.23278 0.30264 0.56659
 C2223 C 0.24414 0.28970 0.50208
 C2224 C 0.22330 0.25831 0.50463
 C2225 C 0.20405 0.25090 0.53668
 C2226 C 0.20882 0.27265 0.56758
 H2227 H 0.25963 0.29313 0.47718
 H2228 H 0.22152 0.24010 0.48137
 H2229 H 0.18633 0.22754 0.53804
 H2230 H 0.19287 0.26591 0.59157
 H2231 H 0.28569 0.39301 0.56130
 H2232 H 0.27684 0.36566 0.61914
 C2233 C 0.76380 0.12303 0.57198
 C2234 C 0.75907 0.14231 0.53742
 C2235 C 0.76263 0.18061 0.53860
 C2236 C 0.76801 0.19908 0.57181
 C2237 C 0.77323 0.18012 0.60488
 C2238 C 0.77488 0.14185 0.60416
 C2239 C 0.75824 0.08519 0.57552
 C2240 C 0.76840 0.06608 0.60716
 C2241 C 0.78388 0.08422 0.63664
 C2242 C 0.78692 0.12180 0.63537
 H2243 H 0.74554 0.06985 0.55424
 H2244 H 0.76453 0.03702 0.60853
 H2245 H 0.79273 0.06928 0.66088
 H2246 H 0.79900 0.13508 0.65893
 H2247 H 0.76112 0.19715 0.51408
 H2248 H 0.76740 0.22849 0.57171
 C2249 C 0.26065 0.68068 0.04364
 C2250 C 0.25132 0.64255 0.04369
 C2251 C 0.24568 0.62641 0.07868
 C2252 C 0.24675 0.64559 0.11118
 C2253 C 0.25233 0.68299 0.11159
 C2254 C 0.25738 0.70121 0.07723
 C2255 C 0.27501 0.69929 0.01261
 C2256 C 0.27920 0.73682 0.01233
 C2257 C 0.27009 0.75697 0.04313
 C2258 C 0.25957 0.73942 0.07534
 H2259 H 0.28530 0.68593 -0.01132
 H2260 H 0.28954 0.75033 -0.01205
 H2261 H 0.27225 0.78627 0.04245
 H2262 H 0.25264 0.75633 0.09828
 H2263 H 0.24052 0.59771 0.08114
 H2264 H 0.24316 0.63041 0.13657
 C2265 C 0.17711 0.54681 0.72323
 C2266 C 0.15076 0.53557 0.75062
 C2267 C 0.14628 0.55963 0.78104
 C2268 C 0.16207 0.59357 0.78269
 C2269 C 0.18522 0.60531 0.75519
 C2270 C 0.19401 0.58178 0.72577
 C2271 C 0.18645 0.52513 0.69252
 C2272 C 0.21157 0.53653 0.66616
 C2273 C 0.22795 0.57018 0.66917
 C2274 C 0.21913 0.59276 0.69847
 H2275 H 0.17373 0.49985 0.68718
 H2276 H 0.21795 0.51926 0.64292
 H2277 H 0.24727 0.57902 0.64848
 H2278 H 0.23212 0.61892 0.69940
 H2279 H 0.13188 0.55244 0.80574
 H2280 H 0.15669 0.61065 0.80639
 C2281 C 0.67596 0.05073 0.22720
 C2282 C 0.64764 0.04107 0.25288
 C2283 C 0.63866 0.06781 0.27984
 C2284 C 0.65584 0.10103 0.28207
 C2285 C 0.68256 0.11062 0.25709
 C2286 C 0.69276 0.08579 0.22911
 C2287 C 0.68908 0.02628 0.20029
 C2288 C 0.71579 0.03625 0.17497
 C2289 C 0.73063 0.07076 0.17595
 C2290 C 0.71946 0.09525 0.20282
 H2291 H 0.68029 -0.00124 0.19907
 H2292 H 0.72524 0.01691 0.15465
 H2293 H 0.75131 0.07843 0.15614
 H2294 H 0.73206 0.12154 0.20278
 H2295 H 0.61684 0.06470 0.29943
 H2296 H 0.64746 0.11992 0.30332
 C2297 C 0.81263 0.03811 0.76694
 C2298 C 0.85088 0.03486 0.75766
 C2299 C 0.86982 0.06794 0.75354
 C2300 C 0.85224 0.10108 0.74976
 C2301 C 0.81445 0.10411 0.75252
 C2302 C 0.79436 0.07279 0.76292
 C2303 C 0.79225 0.00926 0.78240
 C2304 C 0.75518 0.01293 0.79012
 C2305 C 0.73754 0.04590 0.78462
 C2306 C 0.75699 0.07574 0.77206
 H2307 H 0.80422 -0.01601 0.79091
 H2308 H 0.74029 -0.00976 0.80158
 H2309 H 0.70893 0.04878 0.79156
 H2310 H 0.74260 0.10131 0.77120
 H2311 H 0.89896 0.06825 0.75044
 H2312 H 0.86871 0.12478 0.74399
 C2313 C 0.30034 0.53461 0.25694
 C2314 C 0.33988 0.53227 0.26013
 C2315 C 0.35807 0.56470 0.26966
 C2316 C 0.34111 0.59812 0.26941
 C2317 C 0.30430 0.60202 0.26030
 C2318 C 0.28295 0.56996 0.25658
 C2319 C 0.27695 0.50408 0.25504
 C2320 C 0.23937 0.50749 0.25092
 C2321 C 0.22317 0.54139 0.25029
 C2322 C 0.24447 0.57211 0.25392
 H2323 H 0.28572 0.47674 0.25872
 H2324 H 0.22255 0.48346 0.24945
 H2325 H 0.19377 0.54389 0.24825
 H2326 H 0.22975 0.59709 0.25614
 H2327 H 0.38734 0.56521 0.27341
 H2328 H 0.35823 0.62153 0.27406
 C2329 C 0.32678 0.45239 0.21407
 C2330 C 0.35110 0.46110 0.24388
 C2331 C 0.36434 0.43081 0.26454
 C2332 C 0.34685 0.39783 0.26470
 C2333 C 0.31760 0.39193 0.24145
 C2334 C 0.30897 0.41790 0.21392
 C2335 C 0.31765 0.47736 0.18594
 C2336 C 0.29245 0.46896 0.15852
 C2337 C 0.27524 0.43549 0.15864
 C2338 C 0.28322 0.41015 0.18613
 H2339 H 0.32908 0.50372 0.18501
 H2340 H 0.28598 0.48872 0.13727
 H2341 H 0.25558 0.42914 0.13736
 H2342 H 0.26937 0.38439 0.18519
 H2343 H 0.38804 0.43211 0.28217
 H2344 H 0.35627 0.37668 0.28339
 C2345 C 0.82544 0.95356 0.72628
 C2346 C 0.85312 0.96208 0.75323
 C2347 C 0.86167 0.93392 0.77902
 C2348 C 0.84528 0.90013 0.77854
 C2349 C 0.81919 0.89178 0.75237
 C2350 C 0.80907 0.91823 0.72584
 C2351 C 0.81249 0.97933 0.70031
 C2352 C 0.78626 0.97058 0.67406
 C2353 C 0.77174 0.93596 0.67296
 C2354 C 0.78280 0.91003 0.69865
 H2355 H 0.82094 1.00695 0.70047
 H2356 H 0.77690 0.99098 0.65464
 H2357 H 0.75143 0.92930 0.65242
 H2358 H 0.77051 0.88354 0.69698
 H2359 H 0.88243 0.93637 0.79980
 H2360 H 0.85330 0.88006 0.79902
 C2361 C 0.68699 0.96382 0.26567
 C2362 C 0.64904 0.96816 0.25572
 C2363 C 0.62871 0.93583 0.25195
 C2364 C 0.64501 0.90219 0.24884
 C2365 C 0.68256 0.89808 0.25228
 C2366 C 0.70374 0.92847 0.26298
 C2367 C 0.70832 0.99205 0.28090
 C2368 C 0.74492 0.98684 0.28998
 C2369 C 0.76105 0.95294 0.28623
 C2370 C 0.74054 0.92386 0.27385
 H2371 H 0.69739 1.01792 0.28860
 H2372 H 0.76050 1.00901 0.30138
 H2373 H 0.78919 0.94879 0.29448
 H2374 H 0.75348 0.89755 0.27476
 H2375 H 0.59951 0.93678 0.24824
 H2376 H 0.62784 0.87907 0.24293
 C2377 C 0.18300 0.45639 0.77515
 C2378 C 0.15612 0.46546 0.74734
 C2379 C 0.15586 0.44177 0.71631
 C2380 C 0.17210 0.40794 0.71652
 C2381 C 0.19265 0.39660 0.74627
 C2382 C 0.20063 0.42138 0.77466
 C2383 C 0.19245 0.48023 0.80397
 C2384 C 0.21871 0.47072 0.83022
 C2385 C 0.23513 0.43664 0.82970
 C2386 C 0.22595 0.41192 0.80245
 H2387 H 0.17991 0.50626 0.80714
 H2388 H 0.22637 0.48991 0.85124
 H2389 H 0.25515 0.42936 0.85048
 H2390 H 0.23938 0.38563 0.80285
 H2391 H 0.14278 0.44838 0.69057
 H2392 H 0.16852 0.39033 0.69290
 C2393 C 0.04259 0.71846 0.82562
 C2394 C 0.03397 0.74669 0.85216
 C2395 C 0.06201 0.77219 0.85867
 C2396 C 0.09735 0.76754 0.84573
 C2397 C 0.10706 0.73797 0.82396
 C2398 C 0.07949 0.71353 0.81296
 C2399 C 0.01630 0.69391 0.81201
 C2400 C 0.02490 0.66802 0.78558
 C2401 C 0.06081 0.66213 0.77542
 C2402 C 0.08805 0.68352 0.79017
 H2403 H -0.01131 0.69365 0.82048
 H2404 H 0.00354 0.65139 0.77404
 H2405 H 0.06774 0.64054 0.75648
 H2406 H 0.11569 0.67594 0.78332
 H2407 H 0.05724 0.79708 0.87328
 H2408 H 0.11735 0.78808 0.85230
 C2409 C 0.54267 0.22234 0.33490
 C2410 C 0.53167 0.25494 0.35460
 C2411 C 0.55840 0.28250 0.35706
 C2412 C 0.59323 0.27885 0.34205
 C2413 C 0.60416 0.24746 0.32356
 C2414 C 0.57897 0.21867 0.32020
 C2415 C 0.51955 0.19186 0.33165
 C2416 C 0.53069 0.15991 0.31451
 C2417 C 0.56580 0.15658 0.30092
 C2418 C 0.58991 0.18529 0.30421
 H2419 H 0.49327 0.19093 0.34381
 H2420 H 0.51223 0.13715 0.31281
 H2421 H 0.57469 0.13132 0.28856
 H2422 H 0.61747 0.18030 0.29506
 H2423 H 0.55269 0.30828 0.36976
 H2424 H 0.61185 0.30146 0.34445
 C2425 C 0.54159 0.72397 0.17576
 C2426 C 0.52991 0.75311 0.15124
 C2427 C 0.55237 0.78459 0.15153
 C2428 C 0.58525 0.78637 0.17054
 C2429 C 0.59760 0.75742 0.19171
 C2430 C 0.57538 0.72657 0.19574
 C2431 C 0.52173 0.69142 0.18010
 C2432 C 0.53342 0.66358 0.20351
 C2433 C 0.56566 0.66687 0.22318
 C2434 C 0.58667 0.69787 0.21921
 H2435 H 0.49793 0.68576 0.16448
 H2436 H 0.51752 0.63901 0.20598
 H2437 H 0.57467 0.64511 0.24125
 H2438 H 0.61179 0.69924 0.23486
 H2439 H 0.54510 0.80934 0.13743
 H2440 H 0.60169 0.81062 0.16803
 C2441 C 0.04926 0.22463 0.67190
 C2442 C 0.03616 0.25245 0.64664
 C2443 C 0.05826 0.28415 0.64431
 C2444 C 0.09181 0.28731 0.66186
 C2445 C 0.10512 0.25980 0.68436
 C2446 C 0.08355 0.22878 0.69066
 C2447 C 0.03024 0.19190 0.67826
 C2448 C 0.04318 0.16530 0.70247
 C2449 C 0.07592 0.17005 0.72091
 C2450 C 0.09614 0.20126 0.71492
 H2451 H 0.00611 0.18517 0.66366
 H2452 H 0.02788 0.14056 0.70650
 H2453 H 0.08595 0.14922 0.73957
 H2454 H 0.12177 0.20360 0.72954
 H2455 H 0.05005 0.30815 0.62938
 H2456 H 0.10775 0.31165 0.65754
 C2457 C 0.95720 0.27492 0.67793
 C2458 C 0.96737 0.24630 0.65263
 C2459 C 0.94558 0.21442 0.65439
 C2460 C 0.91339 0.21248 0.67426
 C2461 C 0.90138 0.24163 0.69494
 C2462 C 0.92394 0.27227 0.69873
 C2463 C 0.97699 0.30756 0.68095
 C2464 C 0.96580 0.33544 0.70437
 C2465 C 0.93412 0.33209 0.72497
 C2466 C 0.91311 0.30100 0.72201
 H2467 H 1.00034 0.31303 0.66446
 H2468 H 0.98147 0.36014 0.70612
 H2469 H 0.92550 0.35392 0.74293
 H2470 H 0.88830 0.29960 0.73814
 H2471 H 0.95217 0.18993 0.63987
 H2472 H 0.89679 0.18832 0.67209
 C2473 C 0.45039 0.77450 0.18018
 C2474 C 0.46095 0.74724 0.15357
 C2475 C 0.43864 0.71565 0.15282
 C2476 C 0.40658 0.71233 0.17290
 C2477 C 0.39497 0.73974 0.19616
 C2478 C 0.41735 0.77045 0.20117
 C2479 C 0.46993 0.80713 0.18469
 C2480 C 0.45878 0.83373 0.20954
 C2481 C 0.42735 0.82908 0.23027
 C2482 C 0.40657 0.79797 0.22596
 H2483 H 0.49303 0.81368 0.16824
 H2484 H 0.47438 0.85843 0.21227
 H2485 H 0.41870 0.84995 0.24936
 H2486 H 0.38191 0.79570 0.24218
 H2487 H 0.44512 0.69214 0.13672
 H2488 H 0.39000 0.68833 0.16929
 C2489 C 0.45726 0.28342 0.31793
 C2490 C 0.46309 0.25568 0.34596
 C2491 C 0.43670 0.22782 0.34728
 C2492 C 0.40417 0.22972 0.32774
 C2493 C 0.39568 0.25915 0.30490
 C2494 C 0.42298 0.28561 0.29837
 C2495 C 0.48242 0.31183 0.31196
 C2496 C 0.47508 0.34056 0.28800
 C2497 C 0.44193 0.34270 0.26982
 C2498 C 0.41598 0.31591 0.27517
 H2499 H 0.50735 0.31379 0.32672
 H2500 H 0.49490 0.36196 0.28441
 H2501 H 0.43595 0.36568 0.25202
 H2502 H 0.39026 0.32025 0.26148
 H2503 H 0.43961 0.20422 0.36451
 H2504 H 0.38465 0.20805 0.33161
 C2505 C 0.95720 0.77665 0.82473
 C2506 C 0.96459 0.74717 0.85032
 C2507 C 0.93755 0.72010 0.85368
 C2508 C 0.90356 0.72368 0.83724
 C2509 C 0.89437 0.75439 0.81654
 C2510 C 0.92123 0.78108 0.80969
 C2511 C 0.98269 0.80462 0.81753
 C2512 C 0.97326 0.83567 0.79760
 C2513 C 0.93792 0.84050 0.78494
 C2514 C 0.91212 0.81382 0.79110
 H2515 H 1.00964 0.80458 0.82847
 H2516 H 0.99323 0.85679 0.79331
 H2517 H 0.93004 0.86537 0.77101
 H2518 H 0.88468 0.82034 0.78254
 H2519 H 0.94218 0.69546 0.86911
 H2520 H 0.88390 0.70217 0.84127
   
