data_POSCAR
  _audit_creation_date              2014-09-24
  _audit_creation_method            'ToBaCCo'
  _symmetry_space_group_name_H-M    'P1'
  _symmetry_Int_Tables_number       1
  _symmetry_cell_setting            triclinic
  loop_
  _symmetry_equiv_pos_as_xyz
 x,y,z
_cell_length_a 36.5023
_cell_length_b 36.4722
_cell_length_c 36.4950
_cell_angle_alpha 90.052900
_cell_angle_beta 90.083200
_cell_angle_gamma 89.905400
loop_
  _atom_site_label
  _atom_site_type_symbol
  _atom_site_fract_x
  _atom_site_fract_y
  _atom_site_fract_z
C1 C 0.22991 1.09805 -0.00442
 C2 C 0.23092 1.07719 0.02784
 C3 C 0.23500 1.03922 0.02493
 C4 C 0.24112 1.02178 -0.00904
 C5 C 0.24070 1.04382 -0.04106
 C6 C 0.23340 1.08191 -0.03927
 C7 C 0.24691 0.98077 -0.01027
 C8 C 0.24378 0.96041 -0.04313
 C9 C 0.24939 0.92222 -0.04358
 C10 C 0.25471 0.90371 -0.01016
 C11 C 0.25780 0.92310 0.02293
 C12 C 0.25578 0.96137 0.02212
 H13 H 0.22925 1.12757 -0.00215
 H14 H 0.23168 1.02352 0.04971
 H15 H 0.24489 1.03152 -0.06755
 H16 H 0.23778 0.97381 -0.06876
 H17 H 0.25640 0.87408 -0.00999
 H18 H 0.26207 0.97555 0.04728
 C19 C 0.74715 0.59289 0.50782
 C20 C 0.75056 0.57221 0.53997
 C21 C 0.74668 0.53412 0.53816
 C22 C 0.73812 0.51636 0.50489
 C23 C 0.73536 0.53792 0.47278
 C24 C 0.74148 0.57597 0.47373
 C25 C 0.73390 0.47542 0.50358
 C26 C 0.74043 0.45588 0.47079
 C27 C 0.73711 0.41768 0.46949
 C28 C 0.72762 0.39871 0.50134
 C29 C 0.72401 0.41678 0.53517
 C30 C 0.72534 0.45526 0.53560
 H31 H 0.74905 0.62237 0.50946
 H32 H 0.75184 0.51858 0.56282
 H33 H 0.72934 0.52523 0.44677
 H34 H 0.74972 0.46977 0.44638
 H35 H 0.72413 0.36930 0.49980
 H36 H 0.72052 0.46926 0.56114
 C37 C 0.75932 1.00023 1.10085
 C38 C 0.75942 0.96582 1.08323
 C39 C 0.75974 0.96550 1.04459
 C40 C 0.76286 0.99832 1.02414
 C41 C 0.76546 1.03189 1.04346
 C42 C 0.75988 1.03336 1.08139
 C43 C 0.76008 0.99805 0.98295
 C44 C 0.74936 1.03004 0.96396
 C45 C 0.74608 1.03060 0.92580
 C46 C 0.75088 0.99787 0.90623
 C47 C 0.76038 0.96515 0.92416
 C48 C 0.76617 0.96578 0.96226
 H49 H 0.76033 1.00171 1.13039
 H50 H 0.75558 0.93985 1.03057
 H51 H 0.76915 1.05739 1.02902
 H52 H 0.74212 1.05481 0.97841
 H53 H 0.74664 0.99781 0.87700
 H54 H 0.77558 0.94093 0.97532
 C55 C 0.21102 0.50079 0.58267
 C56 C 0.22014 0.46765 0.56555
 C57 C 0.22929 0.46828 0.52818
 C58 C 0.22853 0.50141 0.50783
 C59 C 0.22059 0.53446 0.52685
 C60 C 0.21400 0.53449 0.56463
 C61 C 0.23699 0.50178 0.46737
 C62 C 0.24696 0.53470 0.44962
 C63 C 0.25187 0.53627 0.41161
 C64 C 0.24912 0.50372 0.39121
 C65 C 0.24326 0.46983 0.40826
 C66 C 0.23553 0.46936 0.44599
 H67 H 0.20433 0.50087 0.61151
 H68 H 0.23732 0.44286 0.51550
 H69 H 0.22035 0.56050 0.51300
 H70 H 0.25181 0.55947 0.46501
 H71 H 0.25120 0.50467 0.36176
 H72 H 0.22880 0.44345 0.45834
 C73 C 1.08864 0.25355 -0.00734
 C74 C 1.07398 0.24343 0.02696
 C75 C 1.03570 0.23784 0.02929
 C76 C 1.01248 0.24330 -0.00140
 C77 C 1.02859 0.25432 -0.03471
 C78 C 1.06633 0.25835 -0.03809
 C79 C 0.97159 0.23862 0.00101
 C80 C 0.95040 0.23400 -0.03122
 C81 C 0.91201 0.23667 -0.03056
 C82 C 0.89473 0.23672 0.00381
 C83 C 0.91469 0.23975 0.03650
 C84 C 0.95304 0.24160 0.03486
 H85 H 1.11754 0.25882 -0.01059
 H86 H 1.02435 0.22793 0.05471
 H87 H 1.01221 0.26109 -0.05841
 H88 H 0.96365 0.23053 -0.05734
 H89 H 0.86538 0.23370 0.00526
 H90 H 0.96792 0.24672 0.05996
 C91 C 0.59780 0.73332 0.50440
 C92 C 0.57807 0.73410 0.53730
 C93 C 0.53959 0.73539 0.53581
 C94 C 0.52079 0.73305 0.50179
 C95 C 0.54205 0.72844 0.46963
 C96 C 0.58026 0.73069 0.47042
 C97 C 0.47959 0.73622 0.49903
 C98 C 0.46286 0.74338 0.46481
 C99 C 0.42487 0.74512 0.46092
 C100 C 0.40274 0.74167 0.49191
 C101 C 0.41824 0.73847 0.52702
 C102 C 0.45652 0.73409 0.53014
 H103 H 0.62735 0.73558 0.50534
 H104 H 0.52497 0.73808 0.56129
 H105 H 0.52946 0.72290 0.44351
 H106 H 0.47881 0.74889 0.44059
 H107 H 0.37336 0.74158 0.48869
 H108 H 0.46784 0.73001 0.55709
 C109 C 0.00294 0.74592 -0.09559
 C110 C 0.03572 0.74039 -0.07656
 C111 C 0.03467 0.73562 -0.03867
 C112 C 0.00198 0.74148 -0.01883
 C113 C -0.03052 0.74887 -0.03855
 C114 C -0.03063 0.75074 -0.07714
 C115 C 0.00286 0.74315 0.02221
 C116 C -0.02893 0.73751 0.04364
 C117 C -0.02806 0.74112 0.08226
 C118 C 0.00658 0.74641 0.09887
 C119 C 0.03821 0.75284 0.07818
 C120 C 0.03575 0.75235 0.04014
 H121 H 0.00426 0.74603 -0.12516
 H122 H 0.06003 0.72914 -0.02480
 H123 H -0.05536 0.75562 -0.02400
 H124 H -0.05425 0.73112 0.02999
 H125 H 0.00939 0.74506 0.12829
 H126 H 0.05975 0.76021 0.02477
 C127 C 0.50158 0.24781 0.40460
 C128 C 0.53209 0.24119 0.42686
 C129 C 0.52818 0.24247 0.46480
 C130 C 0.49472 0.25263 0.48128
 C131 C 0.46400 0.25837 0.45820
 C132 C 0.46690 0.25469 0.41983
 C133 C 0.49261 0.25637 0.52227
 C134 C 0.45895 0.25531 0.54137
 C135 C 0.45796 0.25889 0.57971
 C136 C 0.49104 0.25969 0.59931
 C137 C 0.52482 0.26157 0.58117
 C138 C 0.52503 0.26158 0.54286
 H139 H 0.50513 0.24774 0.37525
 H140 H 0.55161 0.23454 0.48109
 H141 H 0.43769 0.26512 0.46974
 H142 H 0.43330 0.25249 0.52691
 H143 H 0.49018 0.25917 0.62892
 H144 H 0.55088 0.26642 0.52941
 C145 C 1.10311 0.00289 0.25217
 C146 C 1.08430 0.03619 0.24609
 C147 C 1.04585 0.03477 0.24259
 C148 C 1.02624 0.00195 0.24925
 C149 C 1.04630 -0.02978 0.25881
 C150 C 1.08461 -0.03002 0.25867
 C151 C 0.98513 0.00045 0.24634
 C152 C 0.96708 -0.03341 0.24086
 C153 C 0.92872 -0.03569 0.23883
 C154 C 0.90834 -0.00298 0.24080
 C155 C 0.92533 0.03118 0.24435
 C156 C 0.96353 0.03258 0.24834
 H157 H 1.13267 0.00227 0.25059
 H158 H 1.03125 0.05937 0.23552
 H159 H 1.03249 -0.05472 0.26664
 H160 H 0.98269 -0.05818 0.23645
 H161 H 0.87883 -0.00398 0.24173
 H162 H 0.97600 0.05896 0.25283
 C163 C 0.59749 0.49645 0.75876
 C164 C 0.58125 0.53141 0.76071
 C165 C 0.54286 0.53410 0.75844
 C166 C 0.52082 0.50313 0.75114
 C167 C 0.53828 0.46896 0.74697
 C168 C 0.57597 0.46524 0.75265
 C169 C 0.47988 0.50632 0.74889
 C170 C 0.45695 0.47565 0.75519
 C171 C 0.41856 0.47850 0.75269
 C172 C 0.40322 0.51316 0.74588
 C173 C 0.42526 0.54377 0.73940
 C174 C 0.46331 0.54020 0.74036
 H175 H 0.62685 0.49321 0.76140
 H176 H 0.53042 0.56053 0.76332
 H177 H 0.52285 0.44458 0.74038
 H178 H 0.46876 0.44946 0.76194
 H179 H 0.37377 0.51669 0.74578
 H180 H 0.47958 0.56393 0.73342
 C181 C 0.99879 1.10105 0.75182
 C182 C 0.96485 1.08304 0.74844
 C183 C 0.96554 1.04463 0.74527
 C184 C 0.99802 1.02405 0.75034
 C185 C 1.03136 1.04326 0.75407
 C186 C 1.03202 1.08166 0.75283
 C187 C 0.99630 0.98288 0.75235
 C188 C 1.02754 0.96042 0.74702
 C189 C 1.02583 0.92171 0.75074
 C190 C 0.99109 0.90611 0.75712
 C191 C 0.95980 0.92775 0.76106
 C192 C 0.96276 0.96566 0.76028
 H193 H 1.00000 1.13027 0.75516
 H194 H 0.94068 1.03081 0.73748
 H195 H 1.05701 1.02887 0.75739
 H196 H 1.05278 0.97302 0.73859
 H197 H 0.98751 0.87706 0.75978
 H198 H 0.93838 0.98119 0.76665
 C199 C 0.50898 0.60044 0.24248
 C200 C 0.47527 0.58281 0.24748
 C201 C 0.47468 0.54519 0.25523
 C202 C 0.50701 0.52403 0.25444
 C203 C 0.54051 0.54230 0.24828
 C204 C 0.54197 0.58048 0.24364
 C205 C 0.50576 0.48304 0.25824
 C206 C 0.53737 0.46321 0.26872
 C207 C 0.53756 0.42484 0.26887
 C208 C 0.50539 0.40608 0.26010
 C209 C 0.47257 0.42473 0.25253
 C210 C 0.47333 0.46317 0.25047
 H211 H 0.50933 0.62983 0.23842
 H212 H 0.44851 0.53267 0.26089
 H213 H 0.56579 0.52707 0.24592
 H214 H 0.56208 0.47721 0.27707
 H215 H 0.50613 0.37647 0.25863
 H216 H 0.44864 0.47727 0.24254
 O217 O 0.25225 0.15374 0.18828
 O218 O 0.29993 0.14784 0.23439
 O219 O 0.16160 0.20002 0.23826
 O220 O 0.14882 0.25034 0.27353
 O221 O 0.20713 0.24969 0.14047
 O222 O 0.25912 0.28861 0.12912
 O223 O 0.25500 0.30554 0.32920
 O224 O 0.21504 0.25822 0.34014
 O225 O 0.35083 0.25020 0.28651
 O226 O 0.35976 0.20705 0.23238
 O227 O 0.30975 0.34521 0.23464
 O228 O 0.25619 0.35413 0.19000
 O229 O 0.25926 0.34721 0.28294
 O230 O 0.21996 0.35946 0.23173
 O231 O 0.35187 0.29939 0.23802
 O232 O 0.36548 0.25070 0.19850
 O233 O 0.30773 0.25958 0.33045
 O234 O 0.25958 0.21062 0.33867
 O235 O 0.25442 0.19720 0.14337
 O236 O 0.29800 0.24592 0.13046
 O237 O 0.16184 0.24868 0.18315
 O238 O 0.15299 0.29433 0.23252
 O239 O 0.20692 0.15720 0.24205
 O240 O 0.25845 0.14998 0.28231
 Zr241 Zr 0.25586 0.18579 0.23658
 O242 O 0.28959 0.21803 0.27034
 Zr243 Zr 0.19086 0.25033 0.23371
 O244 O 0.22295 0.28555 0.26673
 Zr245 Zr 0.25606 0.24802 0.17031
 O246 O 0.29084 0.28264 0.20040
 Zr247 Zr 0.25777 0.25500 0.30112
 O248 O 0.22314 0.21951 0.27062
 Zr249 Zr 0.32208 0.25099 0.23684
 O250 O 0.29116 0.21611 0.20281
 Zr251 Zr 0.25905 0.31664 0.23418
 O252 O 0.22361 0.28474 0.20066
 O253 O 0.22181 0.21546 0.20181
 O254 O 0.29266 0.28727 0.26973
 C255 C 0.25110 0.16390 0.15446
 C256 C 0.17311 0.16668 0.24179
 C257 C 0.17324 0.24847 0.14970
 C258 C 0.25667 0.33859 0.31696
 C259 C 0.34111 0.25525 0.31990
 C260 C 0.34290 0.33331 0.23725
 H261 H 0.30435 0.20184 0.28635
 H262 H 0.30645 0.29691 0.18354
 H263 H 0.20526 0.19957 0.18743
 H264 H 0.20647 0.30142 0.28123
 H265 H 0.19803 0.23783 0.33457
 H266 H 0.15776 0.26480 0.29464
 H267 H 0.35588 0.26128 0.17548
 H268 H 0.31570 0.22705 0.13874
 H269 H 0.26564 0.22070 0.36318
 H270 H 0.25427 0.12456 0.27357
 H271 H 0.27850 0.35093 0.17497
 H272 H 0.24215 0.30846 0.13654
 H273 H 0.31495 0.15384 0.21264
 H274 H 0.35633 0.19103 0.25396
 H275 H 0.16070 0.31078 0.21240
 H276 H 0.19870 0.35180 0.24660
 O277 O 0.75578 0.84670 0.20996
 O278 O 0.71635 0.85611 0.25943
 O279 O 0.85322 0.80285 0.25587
 O280 O 0.86366 0.75759 0.29968
 O281 O 0.81071 0.74931 0.16385
 O282 O 0.75796 0.71151 0.15228
 O283 O 0.75941 0.70189 0.35366
 O284 O 0.79983 0.74882 0.36293
 O285 O 0.66337 0.74649 0.30962
 O286 O 0.65352 0.79401 0.25830
 O287 O 0.70561 0.65719 0.25575
 O288 O 0.76048 0.64525 0.21817
 O289 O 0.75205 0.65759 0.31026
 O290 O 0.79673 0.64431 0.25920
 O291 O 0.66262 0.70232 0.25404
 O292 O 0.65085 0.75538 0.21913
 O293 O 0.70844 0.74510 0.35264
 O294 O 0.75369 0.79563 0.35995
 O295 O 0.75926 0.80427 0.16419
 O296 O 0.71858 0.75311 0.15197
 O297 O 0.85317 0.74904 0.20951
 O298 O 0.86248 0.70972 0.26036
 O299 O 0.80803 0.84597 0.25615
 O300 O 0.76003 0.85231 0.30420
 Zr301 Zr 0.75892 0.81659 0.25827
 O302 O 0.72454 0.78532 0.29193
 Zr303 Zr 0.82361 0.75278 0.25799
 O304 O 0.79188 0.71807 0.29130
 Zr305 Zr 0.76000 0.75318 0.19253
 O306 O 0.72517 0.71917 0.22371
 Zr307 Zr 0.75717 0.75029 0.32357
 O308 O 0.79197 0.78515 0.29347
 Zr309 Zr 0.69239 0.75082 0.25933
 O310 O 0.72407 0.78499 0.22493
 Zr311 Zr 0.75610 0.68583 0.25940
 O312 O 0.79145 0.71732 0.22531
 O313 O 0.79312 0.78647 0.22386
 O314 O 0.72229 0.71623 0.29348
 C315 C 0.75684 0.83762 0.17599
 C316 C 0.84178 0.83630 0.25396
 C317 C 0.84406 0.74783 0.17564
 C318 C 0.75521 0.66842 0.34381
 C319 C 0.67472 0.74406 0.34300
 C320 C 0.67234 0.66861 0.25257
 H321 H 0.70950 0.80152 0.30764
 H322 H 0.71034 0.70463 0.20630
 H323 H 0.80851 0.80148 0.20742
 H324 H 0.80820 0.70290 0.30672
 H325 H 0.81579 0.77018 0.35796
 H326 H 0.85660 0.74080 0.31972
 H327 H 0.65918 0.74128 0.19752
 H328 H 0.70009 0.77142 0.15974
 H329 H 0.74883 0.78603 0.38489
 H330 H 0.76713 0.87717 0.29579
 H331 H 0.74239 0.65133 0.19889
 H332 H 0.77447 0.69173 0.16085
 H333 H 0.69656 0.84680 0.24339
 H334 H 0.65451 0.80695 0.28211
 H335 H 0.85245 0.68945 0.24538
 H336 H 0.81277 0.64816 0.28072
 O337 O 0.74148 0.15006 0.80266
 O338 O 0.70816 0.13622 0.75448
 O339 O 0.83745 0.20290 0.75164
 O340 O 0.84910 0.25484 0.72026
 O341 O 0.78807 0.24957 0.85038
 O342 O 0.73812 0.28115 0.86459
 O343 O 0.73780 0.29337 0.65852
 O344 O 0.77958 0.24764 0.64911
 O345 O 0.64455 0.24696 0.70594
 O346 O 0.63219 0.20642 0.75467
 O347 O 0.68804 0.34118 0.75436
 O348 O 0.73491 0.35323 0.79295
 O349 O 0.73071 0.33910 0.70038
 O350 O 0.78139 0.34916 0.74745
 O351 O 0.64485 0.29612 0.75419
 O352 O 0.63764 0.24036 0.79864
 O353 O 0.68727 0.24951 0.66080
 O354 O 0.73548 0.19969 0.65409
 O355 O 0.73945 0.19324 0.84775
 O356 O 0.69476 0.24594 0.85602
 O357 O 0.83363 0.24959 0.80804
 O358 O 0.83901 0.29626 0.75675
 O359 O 0.79781 0.15504 0.75443
 O360 O 0.74570 0.14701 0.70735
 Zr361 Zr 0.74517 0.18078 0.75472
 O362 O 0.70750 0.21065 0.72242
 Zr363 Zr 0.80508 0.24928 0.75726
 O364 O 0.77239 0.27984 0.72088
 Zr365 Zr 0.74007 0.24438 0.81992
 O366 O 0.70639 0.27915 0.78845
 Zr367 Zr 0.73793 0.24590 0.68938
 O368 O 0.77596 0.21499 0.72051
 Zr369 Zr 0.67460 0.24588 0.75437
 O370 O 0.70726 0.21073 0.78699
 Zr371 Zr 0.73693 0.31209 0.75204
 O372 O 0.77086 0.28261 0.78911
 O373 O 0.77657 0.21259 0.79008
 O374 O 0.70334 0.27999 0.71928
 C375 C 0.73868 0.15978 0.83628
 C376 C 0.83040 0.16859 0.75187
 C377 C 0.82193 0.25066 0.84133
 C378 C 0.73293 0.32706 0.66711
 C379 C 0.65391 0.25024 0.67235
 C380 C 0.65485 0.33003 0.75480
 H381 H 0.69247 0.19383 0.70737
 H382 H 0.69142 0.29435 0.80519
 H383 H 0.79262 0.19734 0.80582
 H384 H 0.78828 0.29505 0.70506
 H385 H 0.79690 0.22753 0.65487
 H386 H 0.83881 0.25031 0.69561
 H387 H 0.63729 0.26388 0.81217
 H388 H 0.68021 0.22350 0.85146
 H389 H 0.72863 0.20854 0.62932
 H390 H 0.75872 0.12385 0.71324
 H391 H 0.75524 0.34800 0.81017
 H392 H 0.73812 0.30600 0.85380
 H393 H 0.68434 0.14628 0.76267
 H394 H 0.64040 0.18559 0.73939
 H395 H 0.83294 0.31079 0.77887
 H396 H 0.77126 0.37333 0.74017
 O397 O 0.24071 0.84173 0.79381
 O398 O 0.27804 0.85335 0.74256
 O399 O 0.14533 0.79143 0.74421
 O400 O 0.13135 0.74082 0.71244
 O401 O 0.19723 0.74410 0.84060
 O402 O 0.25002 0.70464 0.84707
 O403 O 0.23586 0.69640 0.64580
 O404 O 0.19425 0.74254 0.63975
 O405 O 0.33358 0.74782 0.68564
 O406 O 0.34483 0.79341 0.73638
 O407 O 0.29846 0.65588 0.73396
 O408 O 0.25435 0.63792 0.77804
 O409 O 0.24285 0.65343 0.69043
 O410 O 0.20762 0.63998 0.74888
 O411 O 0.34037 0.70180 0.73684
 O412 O 0.35018 0.75528 0.77594
 O413 O 0.28685 0.74563 0.64435
 O414 O 0.23695 0.79197 0.64129
 O415 O 0.24864 0.79683 0.83658
 O416 O 0.28904 0.74627 0.84562
 O417 O 0.15115 0.74358 0.79854
 O418 O 0.14246 0.69750 0.74883
 O419 O 0.18590 0.83859 0.74615
 O420 O 0.23331 0.84866 0.69901
 Zr421 Zr 0.23737 0.81202 0.74400
 O422 O 0.27111 0.78232 0.70746
 Zr423 Zr 0.17732 0.74383 0.74758
 O424 O 0.20813 0.71193 0.71107
 Zr425 Zr 0.24501 0.74707 0.80793
 O426 O 0.27931 0.71516 0.77416
 Zr427 Zr 0.23912 0.74565 0.67646
 O428 O 0.20466 0.77807 0.71025
 Zr429 Zr 0.30748 0.74903 0.73714
 O430 O 0.27637 0.78141 0.77385
 Zr431 Zr 0.24716 0.68148 0.74047
 O432 O 0.21297 0.70996 0.77783
 O433 O 0.20758 0.77954 0.77986
 O434 O 0.27728 0.71327 0.70421
 C435 C 0.24653 0.83063 0.82687
 C436 C 0.15311 0.82575 0.74493
 C437 C 0.16313 0.74381 0.83157
 C438 C 0.23754 0.66288 0.65689
 C439 C 0.32101 0.74682 0.65273
 C440 C 0.33154 0.66797 0.73390
 H441 H 0.28423 0.79955 0.69123
 H442 H 0.29632 0.70073 0.78957
 H443 H 0.19238 0.79489 0.79628
 H444 H 0.19098 0.69627 0.69712
 H445 H 0.17713 0.76247 0.64666
 H446 H 0.14062 0.73403 0.68794
 H447 H 0.34739 0.73576 0.79453
 H448 H 0.30764 0.76351 0.83608
 H449 H 0.24103 0.78338 0.61582
 H450 H 0.22558 0.87308 0.70824
 H451 H 0.26716 0.64798 0.79969
 H452 H 0.23263 0.68517 0.83966
 H453 H 0.29903 0.84423 0.75716
 H454 H 0.33918 0.80885 0.71483
 H455 H 0.15050 0.68207 0.76967
 H456 H 0.18870 0.64273 0.72964
 O457 O 0.23615 0.35635 0.69991
 O458 O 0.19594 0.36641 0.74737
 O459 O 0.33386 0.31867 0.75803
 O460 O 0.34881 0.27073 0.79365
 O461 O 0.29594 0.26212 0.65902
 O462 O 0.24717 0.21942 0.64829
 O463 O 0.23453 0.21541 0.84837
 O464 O 0.27906 0.25998 0.85882
 O465 O 0.14530 0.26015 0.80038
 O466 O 0.13366 0.29909 0.74627
 O467 O 0.19407 0.16634 0.75505
 O468 O 0.24925 0.15703 0.71446
 O469 O 0.24151 0.17005 0.80604
 O470 O 0.28523 0.15809 0.75655
 O471 O 0.14903 0.20923 0.75050
 O472 O 0.13710 0.26047 0.70817
 O473 O 0.18829 0.26584 0.84524
 O474 O 0.23739 0.31099 0.85185
 O475 O 0.24184 0.31200 0.65620
 O476 O 0.20477 0.25845 0.64541
 O477 O 0.33786 0.26788 0.70489
 O478 O 0.34646 0.22460 0.75635
 O479 O 0.28761 0.35984 0.75039
 O480 O 0.23652 0.36573 0.79439
 Zr481 Zr 0.23980 0.32838 0.74981
 O482 O 0.20584 0.29668 0.78326
 Zr483 Zr 0.30716 0.26727 0.75347
 O484 O 0.27581 0.23259 0.78745
 Zr485 Zr 0.24517 0.26276 0.68675
 O486 O 0.21102 0.22804 0.71793
 Zr487 Zr 0.23832 0.26387 0.81762
 O488 O 0.27274 0.29893 0.78712
 Zr489 Zr 0.17603 0.25967 0.75119
 O490 O 0.20718 0.29421 0.71684
 Zr491 Zr 0.24285 0.19777 0.75533
 O492 O 0.27765 0.22952 0.72107
 O493 O 0.27637 0.29897 0.71758
 O494 O 0.20615 0.22754 0.78739
 C495 C 0.23716 0.34550 0.66642
 C496 C 0.32147 0.35166 0.75512
 C497 C 0.32899 0.26519 0.67092
 C498 C 0.23660 0.18144 0.83904
 C499 C 0.15504 0.26437 0.83404
 C500 C 0.16025 0.17598 0.75232
 H501 H 0.18992 0.31348 0.79739
 H502 H 0.19716 0.21191 0.70114
 H503 H 0.29148 0.31526 0.70208
 H504 H 0.29200 0.21851 0.80403
 H505 H 0.29662 0.28010 0.85418
 H506 H 0.33963 0.25818 0.81580
 H507 H 0.14423 0.24138 0.69028
 H508 H 0.18455 0.27508 0.65261
 H509 H 0.23198 0.30299 0.87724
 H510 H 0.24323 0.39061 0.78572
 H511 H 0.22881 0.15969 0.69683
 H512 H 0.26448 0.20102 0.65824
 H513 H 0.17659 0.35511 0.73208
 H514 H 0.13708 0.31751 0.76589
 H515 H 0.34034 0.20687 0.73672
 H516 H 0.30340 0.16598 0.77505
 O517 O 0.76015 0.65005 0.70252
 O518 O 0.80334 0.64442 0.74990
 O519 O 0.66410 0.69106 0.75474
 O520 O 0.64796 0.73974 0.78871
 O521 O 0.70520 0.73953 0.65611
 O522 O 0.75134 0.78439 0.64367
 O523 O 0.75787 0.80095 0.84418
 O524 O 0.71674 0.75303 0.85589
 O525 O 0.85135 0.75367 0.79822
 O526 O 0.86464 0.71342 0.74686
 O527 O 0.80094 0.84492 0.74829
 O528 O 0.74751 0.85167 0.70676
 O529 O 0.75534 0.84270 0.79788
 O530 O 0.70899 0.84996 0.74706
 O531 O 0.84672 0.80293 0.75397
 O532 O 0.85989 0.75197 0.70662
 O533 O 0.80908 0.75565 0.84387
 O534 O 0.76274 0.70563 0.85270
 O535 O 0.76209 0.69385 0.65804
 O536 O 0.79506 0.74807 0.64405
 O537 O 0.66059 0.74088 0.69958
 O538 O 0.65082 0.78475 0.75097
 O539 O 0.71090 0.64978 0.75632
 O540 O 0.76343 0.64693 0.79783
 Zr541 Zr 0.75859 0.68148 0.75124
 O542 O 0.79172 0.71595 0.78359
 Zr543 Zr 0.69043 0.74231 0.74951
 O544 O 0.72071 0.77895 0.78279
 Zr545 Zr 0.75442 0.74393 0.68502
 O546 O 0.78694 0.78129 0.71436
 Zr547 Zr 0.75849 0.75037 0.81578
 O548 O 0.72486 0.71331 0.78596
 Zr549 Zr 0.82114 0.75172 0.74978
 O550 O 0.79165 0.71431 0.71730
 Zr551 Zr 0.75325 0.81241 0.74907
 O552 O 0.72006 0.77842 0.71574
 O553 O 0.72256 0.70887 0.71657
 O554 O 0.78964 0.78511 0.78339
 C555 C 0.76311 0.66039 0.66889
 C556 C 0.67679 0.65822 0.75779
 C557 C 0.67150 0.73943 0.66606
 C558 C 0.75758 0.83409 0.83193
 C559 C 0.84230 0.75638 0.83201
 C560 C 0.83464 0.83596 0.75305
 H561 H 0.80804 0.70074 0.79904
 H562 H 0.80103 0.79686 0.69731
 H563 H 0.70779 0.69150 0.70186
 H564 H 0.70390 0.79357 0.79822
 H565 H 0.70081 0.73145 0.85178
 H566 H 0.65768 0.75080 0.81146
 H567 H 0.85825 0.77588 0.69392
 H568 H 0.81696 0.73525 0.65366
 H569 H 0.76837 0.71571 0.87731
 H570 H 0.75786 0.62131 0.79052
 H571 H 0.76690 0.84689 0.68846
 H572 H 0.73317 0.80274 0.65207
 H573 H 0.82138 0.65439 0.73233
 H574 H 0.85988 0.69424 0.76539
 H575 H 0.65679 0.80181 0.73077
 H576 H 0.69377 0.84614 0.76913
 O577 O 0.26072 0.65879 0.29106
 O578 O 0.21984 0.64850 0.24465
 O579 O 0.35451 0.70561 0.23772
 O580 O 0.36820 0.75504 0.20538
 O581 O 0.31034 0.75747 0.33737
 O582 O 0.25842 0.79197 0.35108
 O583 O 0.25841 0.80199 0.14595
 O584 O 0.29528 0.75438 0.13570
 O585 O 0.16270 0.76061 0.19684
 O586 O 0.14905 0.72122 0.24378
 O587 O 0.21097 0.85129 0.24488
 O588 O 0.26162 0.86582 0.27660
 O589 O 0.25850 0.84770 0.18849
 O590 O 0.30447 0.85680 0.24340
 O591 O 0.16577 0.80875 0.24883
 O592 O 0.15840 0.75159 0.28997
 O593 O 0.20394 0.75909 0.15030
 O594 O 0.25029 0.70809 0.14325
 O595 O 0.26174 0.70150 0.33661
 O596 O 0.21822 0.75332 0.34732
 O597 O 0.35434 0.75478 0.29340
 O598 O 0.36078 0.79940 0.24012
 O599 O 0.31146 0.66077 0.24228
 O600 O 0.25902 0.65474 0.19662
 Zr601 Zr 0.26078 0.68952 0.24320
 O602 O 0.22411 0.72127 0.21177
 Zr603 Zr 0.32461 0.75421 0.24335
 O604 O 0.29241 0.78668 0.20822
 Zr605 Zr 0.26120 0.75282 0.30849
 O606 O 0.22837 0.78920 0.27794
 Zr607 Zr 0.25518 0.75487 0.17756
 O608 O 0.29229 0.72176 0.20769
 Zr609 Zr 0.19385 0.75790 0.24459
 O610 O 0.22547 0.72113 0.27662
 Zr611 Zr 0.25928 0.82060 0.24047
 O612 O 0.29292 0.78922 0.27634
 O613 O 0.29515 0.71966 0.27727
 O614 O 0.22286 0.79100 0.20819
 C615 C 0.26164 0.66802 0.32490
 C616 C 0.34481 0.67190 0.23909
 C617 C 0.34380 0.75747 0.32698
 C618 C 0.25982 0.83583 0.15508
 C619 C 0.17101 0.76125 0.16279
 C620 C 0.17737 0.84208 0.24927
 H621 H 0.20785 0.70508 0.19730
 H622 H 0.21477 0.80480 0.29545
 H623 H 0.31149 0.70420 0.29248
 H624 H 0.30900 0.80069 0.19208
 H625 H 0.31256 0.73429 0.14166
 H626 H 0.35674 0.75513 0.18083
 H627 H 0.16114 0.77356 0.30566
 H628 H 0.20239 0.73195 0.34195
 H629 H 0.24289 0.71655 0.11850
 H630 H 0.26873 0.63032 0.20367
 H631 H 0.25384 0.85666 0.30086
 H632 H 0.27182 0.81379 0.34223
 H633 H 0.19966 0.65831 0.25989
 H634 H 0.15812 0.69781 0.23355
 H635 H 0.35721 0.81416 0.26262
 H636 H 0.31704 0.85631 0.21940
 O637 O 0.74647 0.33572 0.31044
 O638 O 0.78575 0.34660 0.26044
 O639 O 0.64946 0.29274 0.26534
 O640 O 0.63584 0.25043 0.22151
 O641 O 0.69659 0.23654 0.35301
 O642 O 0.74912 0.19689 0.35986
 O643 O 0.74352 0.19540 0.15868
 O644 O 0.69883 0.24023 0.15282
 O645 O 0.83674 0.24085 0.20119
 O646 O 0.85046 0.28216 0.25409
 O647 O 0.79407 0.14788 0.24737
 O648 O 0.74477 0.13467 0.29231
 O649 O 0.74255 0.15069 0.20217
 O650 O 0.70388 0.13646 0.25600
 O651 O 0.83891 0.19090 0.25094
 O652 O 0.85177 0.24298 0.29264
 O653 O 0.79046 0.24529 0.15958
 O654 O 0.74113 0.29171 0.15814
 O655 O 0.74947 0.28954 0.35242
 O656 O 0.78840 0.23803 0.36095
 O657 O 0.65178 0.23569 0.30957
 O658 O 0.63987 0.20052 0.25569
 O659 O 0.69320 0.33713 0.26395
 O660 O 0.74083 0.34556 0.21620
 Zr661 Zr 0.74284 0.30758 0.26018
 O662 O 0.77592 0.27727 0.22365
 Zr663 Zr 0.67875 0.24338 0.25989
 O664 O 0.70865 0.21061 0.22324
 Zr665 Zr 0.74554 0.24060 0.32203
 O666 O 0.77872 0.20773 0.28804
 Zr667 Zr 0.74256 0.24365 0.19087
 O668 O 0.70895 0.27712 0.22451
 Zr669 Zr 0.80980 0.24084 0.25262
 O670 O 0.77962 0.27399 0.28967
 Zr671 Zr 0.74500 0.17721 0.25285
 O672 O 0.71180 0.20673 0.28984
 O673 O 0.71047 0.27558 0.29441
 O674 O 0.77802 0.20821 0.21837
 C675 C 0.74951 0.32366 0.34344
 C676 C 0.65975 0.32643 0.26656
 C677 C 0.66291 0.23348 0.34278
 C678 C 0.74254 0.16155 0.16875
 C679 C 0.82450 0.24352 0.16817
 C680 C 0.82778 0.15765 0.24794
 H681 H 0.79021 0.29446 0.20839
 H682 H 0.79441 0.19188 0.30343
 H683 H 0.69570 0.28994 0.31206
 H684 H 0.69161 0.19617 0.20789
 H685 H 0.68208 0.26088 0.15836
 H686 H 0.64273 0.23667 0.19919
 H687 H 0.84726 0.22300 0.31038
 H688 H 0.80815 0.25410 0.35167
 H689 H 0.74334 0.28419 0.13215
 H690 H 0.73450 0.37009 0.22615
 H691 H 0.76604 0.13833 0.30872
 H692 H 0.73254 0.17748 0.35068
 H693 H 0.80586 0.33603 0.27529
 H694 H 0.84478 0.30013 0.23460
 H695 H 0.64865 0.18036 0.27160
 H696 H 0.68579 0.14134 0.23638
 C697 C 0.24611 0.07970 0.09388
 C698 C 0.22859 0.09423 0.06255
 C699 C 0.21044 0.12814 0.06701
 C700 C 0.21610 0.14926 0.09846
 C701 C 0.24008 0.13740 0.12624
 C702 C 0.25184 0.10098 0.12513
 C703 C 0.28892 0.08518 0.13172
 C704 C 0.28286 0.06186 0.09769
 H705 H 0.19315 0.13937 0.04564
 H706 H 0.20347 0.17598 0.10006
 H707 H 0.29002 0.06884 0.15739
 H708 H 0.31114 0.10574 0.12855
 H709 H 0.28059 0.03209 0.10381
 H710 H 0.30167 0.06879 0.07478
 C711 C 0.74525 0.57853 0.60867
 C712 C 0.76007 0.59023 0.57519
 C713 C 0.78410 0.62043 0.57616
 C714 C 0.78770 0.64155 0.60813
 C715 C 0.76775 0.63269 0.63997
 C716 C 0.74915 0.59920 0.64049
 C717 C 0.71128 0.59039 0.65303
 C718 C 0.70692 0.56796 0.61813
 H719 H 0.79826 0.62920 0.55164
 H720 H 0.80391 0.66639 0.60706
 H721 H 0.69319 0.61489 0.65416
 H722 H 0.71134 0.57335 0.67827
 H723 H 0.68641 0.57960 0.59878
 H724 H 0.70429 0.53805 0.62331
 C725 C 0.74986 0.93451 0.14190
 C726 C 0.75873 0.93303 0.10448
 C727 C 0.76895 0.89792 0.09066
 C728 C 0.76805 0.86626 0.11322
 C729 C 0.75675 0.86877 0.15005
 C730 C 0.74905 0.90366 0.16371
 C731 C 0.71629 0.91648 0.18448
 C732 C 0.71680 0.95033 0.16046
 H733 H 0.77837 0.89452 0.06281
 H734 H 0.77618 0.84005 0.10187
 H735 H 0.72284 0.92240 0.21364
 H736 H 0.69188 0.89882 0.17997
 H737 H 0.72309 0.97567 0.17619
 H738 H 0.69274 0.95239 0.14184
 C739 C 0.20496 0.43240 0.62226
 C740 C 0.22319 0.43383 0.58855
 C741 C 0.24839 0.40514 0.58111
 C742 C 0.25264 0.37541 0.60573
 C743 C 0.23242 0.37425 0.63859
 C744 C 0.20980 0.40396 0.64669
 C745 C 0.17038 0.40417 0.65751
 C746 C 0.16500 0.43535 0.63049
 H747 H 0.26521 0.40568 0.55676
 H748 H 0.27198 0.35379 0.59938
 H749 H 0.16654 0.41272 0.68649
 H750 H 0.15588 0.37857 0.64952
 H751 H 0.15787 0.46173 0.64400
 H752 H 0.14753 0.42788 0.60665
 C753 C 0.75118 0.09928 0.91918
 C754 C 0.73734 0.06555 0.90667
 C755 C 0.71624 0.06613 0.87429
 C756 C 0.71468 0.09787 0.85254
 C757 C 0.73369 0.12992 0.86290
 C758 C 0.74924 0.13082 0.89789
 C759 C 0.78625 0.14339 0.90991
 C760 C 0.78838 0.10890 0.93326
 H761 H 0.70275 0.04158 0.86453
 H762 H 0.70047 0.09661 0.82649
 H763 H 0.78487 0.16900 0.92639
 H764 H 0.80647 0.14380 0.88713
 H765 H 0.78818 0.11470 0.96318
 H766 H 0.80983 0.08928 0.92406
 C767 C 0.24887 0.60579 0.40714
 C768 C 0.26065 0.57172 0.39324
 C769 C 0.28016 0.57234 0.35997
 C770 C 0.28141 0.60425 0.33872
 C771 C 0.26520 0.63721 0.35088
 C772 C 0.25146 0.63795 0.38662
 C773 C 0.21562 0.65188 0.40050
 C774 C 0.21279 0.61683 0.42290
 H775 H 0.29248 0.54771 0.34892
 H776 H 0.29304 0.60236 0.31153
 H777 H 0.19454 0.65401 0.37857
 H778 H 0.21891 0.67685 0.41766
 H779 H 0.19008 0.59859 0.41397
 H780 H 0.21444 0.62169 0.45294
 C781 C 0.23182 0.91207 0.88976
 C782 C 0.25192 0.90186 0.92103
 C783 C 0.27627 0.87199 0.91719
 C784 C 0.27594 0.85016 0.88545
 C785 C 0.25176 0.85789 0.85631
 C786 C 0.23178 0.89063 0.85810
 C787 C 0.19205 0.89749 0.85127
 C788 C 0.19206 0.92090 0.88581
 H789 H 0.29456 0.86441 0.93930
 H790 H 0.29334 0.82608 0.88451
 H791 H 0.17522 0.87221 0.85372
 H792 H 0.18737 0.91362 0.82586
 H793 H 0.17523 0.90924 0.90833
 H794 H 0.18737 0.95050 0.88023
 C795 C 0.73509 0.40875 0.40093
 C796 C 0.74630 0.39696 0.43573
 C797 C 0.76603 0.36371 0.43775
 C798 C 0.76900 0.34069 0.40701
 C799 C 0.75272 0.35059 0.37340
 C800 C 0.73824 0.38606 0.37043
 C801 C 0.70233 0.39853 0.35521
 C802 C 0.69892 0.42336 0.38856
 H803 H 0.77735 0.35445 0.46357
 H804 H 0.78221 0.31426 0.41015
 H805 H 0.68154 0.37627 0.35445
 H806 H 0.70560 0.41389 0.32913
 H807 H 0.67614 0.41553 0.40717
 H808 H 0.70028 0.45301 0.38167
 C809 C 0.08459 0.24157 0.09436
 C810 C 0.09737 0.23911 0.05794
 C811 C 0.13552 0.23322 0.05384
 C812 C 0.15956 0.23640 0.08358
 C813 C 0.14665 0.24390 0.11920
 C814 C 0.10860 0.24375 0.12417
 C815 C 0.08480 0.27044 0.14392
 C816 C 0.05861 0.26823 0.11155
 H817 H 0.14761 0.22682 0.02759
 H818 H 0.18861 0.23404 0.07811
 H819 H 0.09786 0.29778 0.14710
 H820 H 0.07328 0.25864 0.16950
 H821 H 0.05645 0.29431 0.09592
 H822 H 0.03199 0.25532 0.11866
 C823 C 0.63338 0.71719 0.57349
 C824 C 0.59902 0.73421 0.57242
 C825 C 0.58817 0.75417 0.60391
 C826 C 0.61077 0.75510 0.63556
 C827 C 0.64464 0.73636 0.63604
 C828 C 0.65555 0.71847 0.60408
 C829 C 0.66783 0.67970 0.59916
 C830 C 0.64350 0.67833 0.56542
 H831 H 0.56270 0.76939 0.60400
 H832 H 0.60216 0.77088 0.65918
 H833 H 0.65828 0.66153 0.62162
 H834 H 0.69753 0.67769 0.59271
 H835 H 0.61995 0.65923 0.56822
 H836 H 0.65923 0.67562 0.53952
 C837 C 0.10228 0.72343 0.91265
 C838 C 0.07118 0.74444 0.90402
 C839 C 0.07503 0.77146 0.87667
 C840 C 0.10650 0.77274 0.85483
 C841 C 0.13519 0.74748 0.86016
 C842 C 0.13373 0.72488 0.89108
 C843 C 0.14020 0.68464 0.89452
 C844 C 0.10590 0.68306 0.91813
 H845 H 0.05291 0.79039 0.87076
 H846 H 0.10741 0.79199 0.83223
 H847 H 0.16571 0.67842 0.90999
 H848 H 0.13732 0.66995 0.86795
 H849 H 0.11171 0.67598 0.94718
 H850 H 0.08311 0.66741 0.90530
 C851 C 0.60068 0.24791 0.42353
 C852 C 0.56809 0.23209 0.41056
 C853 C 0.57060 0.20834 0.38027
 C854 C 0.60332 0.20578 0.36027
 C855 C 0.63415 0.22694 0.37013
 C856 C 0.63312 0.24546 0.40367
 C857 C 0.64369 0.28391 0.41284
 C858 C 0.60831 0.28655 0.43467
 H859 H 0.54662 0.19387 0.37045
 H860 H 0.60345 0.18978 0.33525
 H861 H 0.64417 0.30213 0.38841
 H862 H 0.66865 0.28506 0.43029
 H863 H 0.58827 0.30635 0.42296
 H864 H 0.61291 0.28910 0.46468
 C865 C 0.94098 0.75186 0.14112
 C866 C 0.93960 0.74020 0.10437
 C867 C 0.90456 0.72831 0.09165
 C868 C 0.87291 0.73076 0.11413
 C869 C 0.87529 0.74505 0.14991
 C870 C 0.91012 0.75396 0.16290
 C871 C 0.92244 0.78821 0.18151
 C872 C 0.95626 0.78637 0.15756
 H873 H 0.90085 0.71707 0.06454
 H874 H 0.84674 0.72176 0.10344
 H875 H 0.92839 0.78375 0.21106
 H876 H 0.90448 0.81212 0.17541
 H877 H 0.98164 0.78148 0.17372
 H878 H 0.95800 0.80918 0.13743
 C879 C 0.39006 0.24736 0.58890
 C880 C 0.42281 0.26446 0.59954
 C881 C 0.42119 0.28824 0.63006
 C882 C 0.38986 0.28971 0.65225
 C883 C 0.35904 0.26798 0.64416
 C884 C 0.35879 0.24917 0.61069
 C885 C 0.34876 0.21038 0.60247
 C886 C 0.38292 0.20840 0.57868
 H887 H 0.44476 0.30443 0.63794
 H888 H 0.39045 0.30655 0.67671
 H889 H 0.32290 0.20844 0.58649
 H890 H 0.35014 0.19246 0.62708
 H891 H 0.37667 0.20531 0.54903
 H892 H 0.40416 0.18935 0.58947
 C893 C 0.90510 0.23403 0.90161
 C894 C 0.89152 0.24263 0.93679
 C895 C 0.85751 0.26142 0.93783
 C896 C 0.83642 0.26641 0.90613
 C897 C 0.84823 0.25278 0.87203
 C898 C 0.88385 0.23872 0.87010
 C899 C 0.89734 0.20405 0.85318
 C900 C 0.92050 0.19871 0.88742
 H901 H 0.84667 0.27253 0.96307
 H902 H 0.80985 0.27942 0.90877
 H903 H 0.91390 0.20919 0.82817
 H904 H 0.87539 0.18317 0.84998
 H905 H 0.95039 0.20056 0.88193
 H906 H 0.91205 0.17468 0.90410
 C907 C 0.38622 0.78195 0.41729
 C908 C 0.40887 0.75179 0.42425
 C909 C 0.41755 0.72901 0.39406
 C910 C 0.39885 0.73298 0.36027
 C911 C 0.37136 0.75989 0.35626
 C912 C 0.36791 0.78570 0.38445
 C913 C 0.33624 0.80484 0.40191
 C914 C 0.35658 0.80099 0.43819
 H915 H 0.43667 0.70652 0.39739
 H916 H 0.40344 0.71302 0.33877
 H917 H 0.31061 0.78850 0.40126
 H918 H 0.33356 0.83373 0.39262
 H919 H 0.34169 0.78313 0.45769
 H920 H 0.36583 0.82769 0.44960
 C921 C 0.13990 0.07105 0.25868
 C922 C 0.10442 0.06958 0.24400
 C923 C 0.09109 0.10254 0.22775
 C924 C 0.11239 0.13510 0.22787
 C925 C 0.14718 0.13570 0.24465
 C926 C 0.16046 0.10276 0.25890
 C927 C 0.17535 0.09525 0.29628
 C928 C 0.15282 0.06044 0.29614
 H929 H 0.06481 0.10350 0.21416
 H930 H 0.10188 0.15944 0.21451
 H931 H 0.16613 0.11567 0.31697
 H932 H 0.20526 0.08972 0.29603
 H933 H 0.13040 0.06054 0.31674
 H934 H 0.16997 0.03522 0.29584
 C935 C 0.59193 0.59917 0.75145
 C936 C 0.60384 0.56522 0.76529
 C937 C 0.63834 0.56467 0.78288
 C938 C 0.66157 0.59547 0.78171
 C939 C 0.65070 0.62786 0.76351
 C940 C 0.61462 0.62973 0.75079
 C941 C 0.60032 0.64188 0.71444
 C942 C 0.57545 0.60848 0.71513
 H943 H 0.64820 0.54011 0.79627
 H944 H 0.68861 0.59339 0.79377
 H945 H 0.62147 0.64073 0.69254
 H946 H 0.58512 0.66825 0.71634
 H947 H 0.58212 0.58792 0.69362
 H948 H 0.54593 0.61566 0.71741
 C949 C 0.92902 0.14042 0.74158
 C950 C 0.93103 0.10272 0.74851
 C951 C 0.89640 0.08598 0.75659
 C952 C 0.86308 0.10656 0.75723
 C953 C 0.86303 0.14451 0.74963
 C954 C 0.89708 0.15959 0.74158
 C955 C 0.91421 0.19459 0.72994
 C956 C 0.95039 0.17331 0.72954
 H957 H 0.89460 0.05737 0.76401
 H958 H 0.83776 0.09289 0.76432
 H959 H 0.91289 0.21597 0.75163
 H960 H 0.90496 0.20331 0.70225
 H961 H 0.96980 0.18352 0.75069
 H962 H 0.96189 0.16988 0.70155
 C963 C 0.41124 0.59774 0.26741
 C964 C 0.44030 0.60305 0.24303
 C965 C 0.43463 0.62709 0.21334
 C966 C 0.40219 0.64783 0.21072
 C967 C 0.37453 0.64466 0.23743
 C968 C 0.37905 0.61820 0.26486
 C969 C 0.37737 0.62290 0.30555
 C970 C 0.41217 0.60036 0.30814
 H971 H 0.45582 0.63087 0.19296
 H972 H 0.39948 0.66771 0.18884
 H973 H 0.35380 0.60865 0.31803
 H974 H 0.38092 0.65189 0.31430
 H975 H 0.40806 0.57323 0.32137
 H976 H 0.43607 0.61620 0.31847
 C977 C 0.05601 0.86079 0.74397
 C978 C 0.05775 0.89909 0.74840
 C979 C 0.09424 0.91317 0.75151
 C980 C 0.12556 0.88984 0.75005
 C981 C 0.12184 0.85156 0.74521
 C982 C 0.08617 0.83887 0.74199
 C983 C 0.06539 0.80450 0.73590
 C984 C 0.03106 0.82858 0.73801
 H985 H 0.09930 0.94188 0.75658
 H986 H 0.15250 0.90181 0.75328
 H987 H 0.06820 0.78506 0.75919
 H988 H 0.07031 0.79273 0.70824
 H989 H 0.01410 0.82192 0.76239
 H990 H 0.01588 0.83035 0.71163
 C991 C 0.60577 0.41494 0.26403
 C992 C 0.57144 0.40381 0.27711
 C993 C 0.56968 0.36947 0.29486
 C994 C 0.59923 0.34483 0.29295
 C995 C 0.63139 0.35426 0.27383
 C996 C 0.63521 0.39076 0.26266
 C997 C 0.64837 0.40604 0.22713
 C998 C 0.61612 0.43248 0.22860
 H999 H 0.54453 0.36046 0.30771
 H1000 H 0.59604 0.31768 0.30452
 H1001 H 0.64654 0.38593 0.20428
 H1002 H 0.67532 0.41989 0.23002
 H1003 H 0.59552 0.42770 0.20664
 H1004 H 0.62452 0.46153 0.23231
 C1005 C 0.92604 0.89702 0.24836
 C1006 C 0.91077 0.93008 0.23522
 C1007 C 0.87535 0.92767 0.21968
 C1008 C 0.85407 0.89615 0.22418
 C1009 C 0.86744 0.86587 0.24415
 C1010 C 0.90476 0.86558 0.25277
 C1011 C 0.92368 0.85506 0.28738
 C1012 C 0.94697 0.88929 0.28278
 H1013 H 0.86316 0.95056 0.20525
 H1014 H 0.82628 0.89640 0.21370
 H1015 H 0.93956 0.82921 0.28432
 H1016 H 0.90527 0.85615 0.31161
 H1017 H 0.97627 0.88307 0.27725
 H1018 H 0.94213 0.91026 0.30439
 C1019 C 0.35847 0.44687 0.74169
 C1020 C 0.39397 0.44585 0.75637
 C1021 C 0.40431 0.41310 0.77470
 C1022 C 0.38114 0.38196 0.77454
 C1023 C 0.34690 0.38309 0.75665
 C1024 C 0.33566 0.41670 0.74213
 C1025 C 0.32018 0.42519 0.70522
 C1026 C 0.34532 0.45832 0.70456
 H1027 H 0.43035 0.41098 0.78866
 H1028 H 0.39018 0.35705 0.78794
 H1029 H 0.29065 0.43259 0.70655
 H1030 H 0.32726 0.40410 0.68435
 H1031 H 0.33010 0.48474 0.70523
 H1032 H 0.36710 0.45650 0.68337
 C1033 C 0.07246 0.24873 0.89388
 C1034 C 0.08271 0.26741 0.92595
 C1035 C 0.11188 0.29248 0.92341
 C1036 C 0.13380 0.29349 0.89188
 C1037 C 0.12680 0.26971 0.86219
 C1038 C 0.09403 0.24993 0.86251
 C1039 C 0.08714 0.21052 0.85392
 C1040 C 0.06349 0.20920 0.88819
 H1041 H 0.11958 0.30909 0.94678
 H1042 H 0.15787 0.31083 0.89190
 H1043 H 0.11233 0.19342 0.85591
 H1044 H 0.07120 0.20702 0.82818
 H1045 H 0.07492 0.19129 0.91007
 H1046 H 0.03393 0.20499 0.88217
 C1047 C 0.63932 0.72240 0.43697
 C1048 C 0.60233 0.73226 0.43611
 C1049 C 0.58904 0.74830 0.40325
 C1050 C 0.61186 0.75161 0.37206
 C1051 C 0.64849 0.73941 0.37334
 C1052 C 0.66161 0.72602 0.40674
 C1053 C 0.68145 0.69113 0.41480
 C1054 C 0.65688 0.68710 0.44806
 H1055 H 0.56130 0.75866 0.40162
 H1056 H 0.60104 0.76394 0.34733
 H1057 H 0.71060 0.69601 0.42209
 H1058 H 0.67671 0.66977 0.39356
 H1059 H 0.67208 0.68953 0.47434
 H1060 H 0.63784 0.66339 0.44622
 C1061 C 0.90156 0.75239 0.91746
 C1062 C 0.93684 0.75877 0.90307
 C1063 C 0.93817 0.77311 0.86707
 C1064 C 0.90702 0.77361 0.84479
 C1065 C 0.87288 0.76156 0.85799
 C1066 C 0.87031 0.75385 0.89543
 C1067 C 0.85304 0.72208 0.91433
 C1068 C 0.88704 0.72030 0.93837
 H1069 H 0.96337 0.78287 0.85503
 H1070 H 0.91044 0.78142 0.81641
 H1071 H 0.84983 0.69785 0.89608
 H1072 H 0.82797 0.73020 0.92959
 H1073 H 0.90358 0.69502 0.93411
 H1074 H 0.88139 0.72721 0.96749
 C1075 C 0.43254 0.23617 0.36287
 C1076 C 0.43398 0.25622 0.39547
 C1077 C 0.40179 0.27683 0.40368
 C1078 C 0.37066 0.27632 0.37986
 C1079 C 0.37100 0.25537 0.34716
 C1080 C 0.40291 0.23576 0.34042
 C1081 C 0.41906 0.20881 0.31448
 C1082 C 0.45271 0.20888 0.33982
 H1083 H 0.40060 0.29372 0.42802
 H1084 H 0.34690 0.29276 0.38667
 H1085 H 0.42435 0.22097 0.28707
 H1086 H 0.40397 0.18237 0.31439
 H1087 H 0.47735 0.22050 0.32632
 H1088 H 0.45707 0.18243 0.35431
 C1089 C 0.10749 0.75017 0.08140
 C1090 C 0.07373 0.76133 0.09629
 C1091 C 0.07479 0.78043 0.12979
 C1092 C 0.10731 0.78220 0.15015
 C1093 C 0.13992 0.76593 0.13731
 C1094 C 0.13996 0.75258 0.10138
 C1095 C 0.15382 0.71705 0.08651
 C1096 C 0.11839 0.71446 0.06464
 H1097 H 0.05010 0.79197 0.14152
 H1098 H 0.10627 0.79388 0.17726
 H1099 H 0.15648 0.69556 0.10796
 H1100 H 0.17842 0.72082 0.06902
 H1101 H 0.10046 0.69145 0.07336
 H1102 H 0.12263 0.71676 0.03457
 C1103 C 0.59328 0.25132 0.58789
 C1104 C 0.55985 0.26439 0.60206
 C1105 C 0.56078 0.27961 0.63755
 C1106 C 0.59193 0.27571 0.65970
 C1107 C 0.62368 0.25790 0.64663
 C1108 C 0.62463 0.24853 0.60952
 C1109 C 0.63609 0.21358 0.59160
 C1110 C 0.60186 0.21662 0.56793
 H1111 H 0.53697 0.29292 0.64916
 H1112 H 0.59055 0.28541 0.68773
 H1113 H 0.63559 0.18984 0.61070
 H1114 H 0.66190 0.21678 0.57580
 H1115 H 0.58147 0.19466 0.57327
 H1116 H 0.60803 0.22155 0.53852
 C1117 C 0.86183 0.26216 0.07438
 C1118 C 0.89478 0.24295 0.07188
 C1119 C 0.90668 0.22552 0.10466
 C1120 C 0.88481 0.22653 0.13709
 C1121 C 0.85056 0.24493 0.13736
 C1122 C 0.84111 0.26297 0.10517
 C1123 C 0.81133 0.28488 0.08794
 C1124 C 0.83480 0.28439 0.05305
 H1125 H 0.93199 0.21001 0.10493
 H1126 H 0.89396 0.21181 0.16118
 H1127 H 0.80848 0.31252 0.10048
 H1128 H 0.78557 0.26896 0.08502
 H1129 H 0.84580 0.31173 0.04543
 H1130 H 0.82145 0.26898 0.03045
 C1131 C 0.40471 0.72814 0.59445
 C1132 C 0.39469 0.74266 0.56022
 C1133 C 0.36235 0.76413 0.55913
 C1134 C 0.33885 0.76617 0.58954
 C1135 C 0.34744 0.74775 0.62229
 C1136 C 0.38177 0.73080 0.62478
 C1137 C 0.39140 0.69319 0.63767
 C1138 C 0.41643 0.69020 0.60451
 H1139 H 0.35451 0.77875 0.53456
 H1140 H 0.31347 0.78142 0.58708
 H1141 H 0.36773 0.67403 0.63671
 H1142 H 0.40651 0.69366 0.66414
 H1143 H 0.40729 0.66934 0.58423
 H1144 H 0.44593 0.68886 0.61196
 C1145 C 0.24421 0.09363 0.89449
 C1146 C 0.22963 0.10392 0.92871
 C1147 C 0.21045 0.13787 0.92955
 C1148 C 0.21177 0.16243 0.89997
 C1149 C 0.23162 0.15377 0.86815
 C1150 C 0.24515 0.11795 0.86503
 C1151 C 0.28187 0.10496 0.85283
 C1152 C 0.28110 0.07846 0.88494
 H1153 H 0.19475 0.14627 0.95323
 H1154 H 0.19823 0.18876 0.90261
 H1155 H 0.30332 0.12643 0.85539
 H1156 H 0.28063 0.09103 0.82575
 H1157 H 0.30212 0.08452 0.90618
 H1158 H 0.27971 0.04930 0.87619
 C1159 C 0.76859 0.62757 0.43696
 C1160 C 0.74474 0.59777 0.43929
 C1161 C 0.72534 0.58936 0.40643
 C1162 C 0.72983 0.61095 0.37412
 C1163 C 0.75374 0.64148 0.37384
 C1164 C 0.77295 0.64779 0.40610
 C1165 C 0.79974 0.67335 0.42306
 C1166 C 0.79534 0.65037 0.45804
 H1167 H 0.70598 0.56695 0.40577
 H1168 H 0.71358 0.60470 0.35012
 H1169 H 0.78867 0.70164 0.42569
 H1170 H 0.82734 0.67113 0.41042
 H1171 H 0.78250 0.66621 0.48065
 H1172 H 0.82037 0.63472 0.46565
 C1173 C 0.76384 0.10130 0.08681
 C1174 C 0.75187 0.06683 0.09952
 C1175 C 0.72865 0.06711 0.13055
 C1176 C 0.72292 0.09914 0.15082
 C1177 C 0.74039 0.13209 0.14119
 C1178 C 0.75857 0.13317 0.10746
 C1179 C 0.79546 0.14789 0.09815
 C1180 C 0.80141 0.11324 0.07570
 H1181 H 0.71514 0.04244 0.13990
 H1182 H 0.70673 0.09741 0.17562
 H1183 H 0.81384 0.14996 0.12240
 H1184 H 0.79372 0.17310 0.08114
 H1185 H 0.82327 0.09516 0.08692
 H1186 H 0.80329 0.11861 0.04578
 C1187 C 0.22859 0.56596 0.62316
 C1188 C 0.21547 0.56867 0.58726
 C1189 C 0.20725 0.60439 0.57421
 C1190 C 0.21468 0.63583 0.59609
 C1191 C 0.23111 0.63209 0.63101
 C1192 C 0.23659 0.59652 0.64395
 C1193 C 0.27109 0.57964 0.65797
 C1194 C 0.26137 0.54551 0.63672
 H1195 H 0.19584 0.60820 0.54710
 H1196 H 0.20810 0.66278 0.58555
 H1197 H 0.27099 0.57573 0.68818
 H1198 H 0.29539 0.59333 0.64602
 H1199 H 0.25381 0.52208 0.65464
 H1200 H 0.28125 0.53885 0.61460
 C1201 C 0.77593 0.92918 0.86723
 C1202 C 0.76279 0.93025 0.90306
 C1203 C 0.74947 0.89630 0.91692
 C1204 C 0.74859 0.86412 0.89460
 C1205 C 0.76083 0.86514 0.85780
 C1206 C 0.77509 0.89852 0.84613
 C1207 C 0.79152 0.91699 0.81378
 C1208 C 0.79247 0.95182 0.83746
 H1209 H 0.73846 0.89484 0.94440
 H1210 H 0.73721 0.83909 0.90569
 H1211 H 0.77222 0.91873 0.79026
 H1212 H 0.81917 0.90614 0.80739
 H1213 H 0.77387 0.97350 0.82690
 H1214 H 0.82066 0.96106 0.84435
 C1215 C 0.27080 0.43223 0.35708
 C1216 C 0.24659 0.43517 0.38661
 C1217 C 0.22634 0.40280 0.39462
 C1218 C 0.23052 0.37034 0.37315
 C1219 C 0.25488 0.36941 0.34300
 C1220 C 0.27464 0.40126 0.33673
 C1221 C 0.30299 0.41709 0.31225
 C1222 C 0.29906 0.45226 0.33524
 H1223 H 0.20658 0.40261 0.41667
 H1224 H 0.21381 0.34664 0.37932
 H1225 H 0.29312 0.42008 0.28357
 H1226 H 0.33000 0.40331 0.31544
 H1227 H 0.28755 0.47546 0.31921
 H1228 H 0.32383 0.45883 0.35172
 C1229 C 0.24928 0.91741 0.09158
 C1230 C 0.26382 0.90385 0.05851
 C1231 C 0.28409 0.87101 0.06053
 C1232 C 0.28463 0.85022 0.09297
 C1233 C 0.26517 0.86175 0.12443
 C1234 C 0.25004 0.89697 0.12381
 C1235 C 0.21290 0.90990 0.13498
 C1236 C 0.21208 0.93233 0.09983
 H1237 H 0.29807 0.86037 0.03664
 H1238 H 0.29861 0.82401 0.09272
 H1239 H 0.21384 0.92708 0.16013
 H1240 H 0.19234 0.88743 0.13545
 H1241 H 0.21262 0.96240 0.10479
 H1242 H 0.19101 0.92292 0.07990
 C1243 C 0.73567 0.35868 0.56939
 C1244 C 0.72226 0.39462 0.56966
 C1245 C 0.70901 0.40801 0.60378
 C1246 C 0.71257 0.38688 0.63632
 C1247 C 0.72918 0.35192 0.63526
 C1248 C 0.73875 0.33816 0.60085
 C1249 C 0.77365 0.32062 0.58865
 C1250 C 0.77045 0.34331 0.55399
 H1251 H 0.69664 0.43489 0.60577
 H1252 H 0.70291 0.39803 0.66205
 H1253 H 0.77039 0.29073 0.58367
 H1254 H 0.79743 0.32833 0.60609
 H1255 H 0.76568 0.32624 0.52920
 H1256 H 0.79232 0.36432 0.55125
 C1257 C 0.07128 0.13185 0.72787
 C1258 C 0.06713 0.10214 0.75142
 C1259 C 0.09801 0.09388 0.77380
 C1260 C 0.12992 0.11659 0.77325
 C1261 C 0.13151 0.14781 0.75019
 C1262 C 0.10160 0.15318 0.72727
 C1263 C 0.08595 0.17951 0.70035
 C1264 C 0.05156 0.15526 0.70071
 H1265 H 0.09697 0.07108 0.79272
 H1266 H 0.15226 0.11078 0.79192
 H1267 H 0.10088 0.17912 0.67383
 H1268 H 0.08128 0.20710 0.71245
 H1269 H 0.04648 0.14072 0.67442
 H1270 H 0.02757 0.16961 0.71259
 C1271 C 0.60948 0.58645 0.25807
 C1272 C 0.57801 0.59917 0.23976
 C1273 C 0.58178 0.63134 0.21873
 C1274 C 0.61369 0.65272 0.22130
 C1275 C 0.64287 0.64221 0.24447
 C1276 C 0.64131 0.60733 0.26018
 C1277 C 0.64883 0.59543 0.29855
 C1278 C 0.61403 0.57262 0.29629
 H1279 H 0.55942 0.64124 0.20191
 H1280 H 0.61463 0.67859 0.20678
 H1281 H 0.64706 0.61838 0.31857
 H1282 H 0.67407 0.57846 0.30048
 H1283 H 0.59200 0.58236 0.31494
 H1284 H 0.61933 0.54260 0.29704
 C1285 C 0.09168 0.90130 0.25232
 C1286 C 0.10545 0.93520 0.26421
 C1287 C 0.14125 0.93516 0.27892
 C1288 C 0.16400 0.90420 0.27529
 C1289 C 0.15138 0.87215 0.25763
 C1290 C 0.11393 0.87039 0.24944
 C1291 C 0.09479 0.85797 0.21552
 C1292 C 0.07056 0.89174 0.21867
 H1293 H 0.15263 0.95966 0.29118
 H1294 H 0.19207 0.90608 0.28473
 H1295 H 0.07941 0.83211 0.22011
 H1296 H 0.11288 0.85840 0.19103
 H1297 H 0.04150 0.88512 0.22484
 H1298 H 0.07470 0.91178 0.19611
 C1299 C 0.58718 0.40245 0.72696
 C1300 C 0.59202 0.42819 0.75502
 C1301 C 0.61092 0.41709 0.78673
 C1302 C 0.62835 0.38276 0.78803
 C1303 C 0.62706 0.35884 0.75774
 C1304 C 0.60467 0.36847 0.72807
 C1305 C 0.61360 0.37008 0.68815
 C1306 C 0.59441 0.40699 0.68702
 H1307 H 0.61374 0.43566 0.80974
 H1308 H 0.64524 0.37610 0.81155
 H1309 H 0.59890 0.34901 0.67196
 H1310 H 0.64352 0.37172 0.68287
 H1311 H 0.56871 0.40671 0.67064
 H1312 H 0.61320 0.43020 0.68106
 C1313 C 0.87086 0.06788 0.22280
 C1314 C 0.90265 0.06512 0.24406
 C1315 C 0.91113 0.09642 0.26572
 C1316 C 0.88769 0.12766 0.26609
 C1317 C 0.85508 0.12822 0.24509
 C1318 C 0.84854 0.09765 0.22339
 C1319 C 0.82183 0.08203 0.19686
 C1320 C 0.84700 0.04817 0.19587
 H1321 H 0.93500 0.09647 0.28333
 H1322 H 0.89431 0.15055 0.28381
 H1323 H 0.82110 0.09749 0.17064
 H1324 H 0.79469 0.07668 0.20954
 H1325 H 0.86077 0.04406 0.16903
 H1326 H 0.83367 0.02341 0.20746
 C1327 C 0.41679 0.61146 0.74996
 C1328 C 0.40801 0.57932 0.73072
 C1329 C 0.37896 0.58100 0.70543
 C1330 C 0.35582 0.61166 0.70467
 C1331 C 0.36102 0.64100 0.72892
 C1332 C 0.39370 0.64189 0.74901
 C1333 C 0.39989 0.65006 0.78859
 C1334 C 0.42514 0.61684 0.78964
 H1335 H 0.37226 0.55746 0.68859
 H1336 H 0.33226 0.61152 0.68719
 H1337 H 0.37469 0.64667 0.80534
 H1338 H 0.41456 0.67644 0.79268
 H1339 H 0.41462 0.59415 0.80700
 H1340 H 0.45434 0.62410 0.79430
 C1341 C 0.89438 0.91929 0.74204
 C1342 C 0.92358 0.91058 0.76554
 C1343 C 0.91825 0.88237 0.79119
 C1344 C 0.88717 0.85994 0.78882
 C1345 C 0.86146 0.86486 0.76045
 C1346 C 0.86377 0.89680 0.73953
 C1347 C 0.86089 0.90193 0.69909
 C1348 C 0.89436 0.92660 0.70180
 H1349 H 0.93926 0.87600 0.81119
 H1350 H 0.88434 0.83734 0.80765
 H1351 H 0.83555 0.91693 0.69123
 H1352 H 0.86602 0.87616 0.68358
 H1353 H 0.88827 0.95580 0.69553
 H1354 H 0.91892 0.91519 0.68782
 C1355 C 0.43630 0.36757 0.26146
 C1356 C 0.43824 0.40307 0.24716
 C1357 C 0.40739 0.41553 0.22687
 C1358 C 0.37536 0.39370 0.22387
 C1359 C 0.37389 0.35891 0.24060
 C1360 C 0.40552 0.34618 0.25793
 C1361 C 0.41007 0.33000 0.29521
 C1362 C 0.44391 0.35378 0.29929
 H1363 H 0.40767 0.44193 0.21344
 H1364 H 0.35207 0.40387 0.20851
 H1365 H 0.41652 0.30024 0.29396
 H1366 H 0.38750 0.33765 0.31421
 H1367 H 0.46965 0.33752 0.30084
 H1368 H 0.44100 0.37550 0.32050
   
