data_POSCAR
  _audit_creation_date              2014-09-24
  _audit_creation_method            'ToBaCCo'
  _symmetry_space_group_name_H-M    'P1'
  _symmetry_Int_Tables_number       1
  _symmetry_cell_setting            triclinic
  loop_
  _symmetry_equiv_pos_as_xyz
 x,y,z
_cell_length_a 64.8478
_cell_length_b 64.1272
_cell_length_c 62.9627
_cell_angle_alpha 90.108600
_cell_angle_beta 89.780800
_cell_angle_gamma 89.958700
loop_
  _atom_site_label
  _atom_site_type_symbol
  _atom_site_fract_x
  _atom_site_fract_y
  _atom_site_fract_z
C1 C 0.30426 0.43332 0.92030
 C2 C 0.30246 0.41742 0.93538
 C3 C 0.31472 0.41762 0.95332
 C4 C 0.32883 0.43392 0.95646
 C5 C 0.33011 0.44996 0.94188
 C6 C 0.31777 0.44963 0.92364
 C7 C 0.29553 0.43615 0.90065
 N8 N 0.30352 0.45373 0.89192
 C9 C 0.31672 0.46239 0.90615
 C10 C 0.34567 0.46300 0.94837
 N11 N 0.35387 0.45544 0.96670
 C12 C 0.34377 0.43742 0.97151
 C13 C 0.31010 0.39993 0.96474
 N14 N 0.29500 0.38937 0.95438
 C15 C 0.29051 0.39976 0.93624
 H16 H 0.28464 0.42584 0.89296
 H17 H 0.32528 0.47669 0.90373
 H18 H 0.35151 0.47624 0.93955
 H19 H 0.34710 0.42746 0.98494
 H20 H 0.31723 0.39500 0.97943
 H21 H 0.27933 0.39478 0.92454
 C22 C 0.43324 0.83318 0.45761
 C23 C 0.41984 0.81607 0.45779
 C24 C 0.42076 0.80141 0.44164
 C25 C 0.43543 0.80353 0.42535
 C26 C 0.44864 0.82050 0.42520
 C27 C 0.44729 0.83558 0.44132
 C28 C 0.43456 0.85054 0.47029
 N29 N 0.44843 0.86412 0.46170
 C30 C 0.45661 0.85465 0.44414
 C31 C 0.46068 0.81893 0.40721
 N32 N 0.45528 0.80129 0.39667
 C33 C 0.43955 0.79202 0.40736
 C34 C 0.40395 0.78848 0.44403
 N35 N 0.39291 0.79512 0.46110
 C36 C 0.40251 0.81188 0.46969
 H37 H 0.42626 0.85264 0.48508
 H38 H 0.46770 0.86152 0.43334
 H39 H 0.47255 0.82972 0.40216
 H40 H 0.43178 0.77790 0.40240
 H41 H 0.39908 0.77640 0.43312
 H42 H 0.39629 0.82142 0.48239
 C43 C 0.93651 0.91829 0.79579
 C44 C 0.92160 0.93397 0.79400
 C45 C 0.91981 0.94899 0.80968
 C46 C 0.93263 0.94825 0.82749
 C47 C 0.94712 0.93261 0.82953
 C48 C 0.94938 0.91768 0.81326
 C49 C 0.94111 0.90140 0.78323
 N50 N 0.95711 0.89087 0.79206
 C51 C 0.96196 0.90049 0.81072
 C52 C 0.95579 0.93487 0.84940
 N53 N 0.94667 0.95132 0.85962
 C54 C 0.93299 0.95989 0.84575
 C55 C 0.90263 0.96072 0.80515
 N56 N 0.89408 0.95312 0.78712
 C57 C 0.90554 0.93683 0.78009
 H58 H 0.93368 0.89738 0.76840
 H59 H 0.97333 0.89500 0.82196
 H60 H 0.96710 0.92445 0.85623
 H61 H 0.92411 0.97396 0.84832
 H62 H 0.89589 0.97277 0.81506
 H63 H 0.90154 0.92688 0.76682
 C64 C 0.43274 -0.07659 0.29778
 C65 C 0.41706 -0.06147 0.29764
 C66 C 0.41596 -0.04681 0.31379
 C67 C 0.43037 -0.04712 0.33028
 C68 C 0.44585 -0.06198 0.33037
 C69 C 0.44712 -0.07670 0.31392
 C70 C 0.43742 -0.09300 0.28447
 N71 N 0.45468 -0.10274 0.29175
 C72 C 0.46041 -0.09300 0.31005
 C73 C 0.45738 -0.05871 0.34838
 N74 N 0.44935 -0.04210 0.35898
 C75 C 0.43269 -0.03507 0.34820
 C76 C 0.39892 -0.03459 0.31013
 N77 N 0.38972 -0.04149 0.29217
 C78 C 0.40057 -0.05792 0.28437
 H79 H 0.42907 -0.09722 0.27023
 H80 H 0.47285 -0.09790 0.32033
 H81 H 0.47057 -0.06773 0.35349
 H82 H 0.42305 -0.02210 0.35305
 H83 H 0.39315 -0.02214 0.32015
 H84 H 0.39631 -0.06700 0.27056
 C85 C 0.79686 0.30660 0.32038
 C86 C 0.79439 0.32064 0.30354
 C87 C 0.80781 0.32005 0.28640
 C88 C 0.82412 0.30565 0.28609
 C89 C 0.82680 0.29210 0.30295
 C90 C 0.81289 0.29234 0.32001
 C91 C 0.78744 0.30504 0.33993
 N92 N 0.79744 0.29027 0.35137
 C93 C 0.81287 0.28225 0.33925
 C94 C 0.84598 0.28316 0.30070
 N95 N 0.85507 0.29111 0.28304
 C96 C 0.84152 0.30432 0.27361
 C97 C 0.80373 0.33732 0.27415
 N98 N 0.78812 0.34827 0.28333
 C99 C 0.78247 0.33828 0.30144
 H100 H 0.77475 0.31445 0.34575
 H101 H 0.82368 0.27041 0.34436
 H102 H 0.85354 0.27312 0.31208
 H103 H 0.84485 0.31368 0.25972
 H104 H 0.81236 0.34228 0.26030
 H105 H 0.77155 0.34423 0.31301
 C106 C -0.18055 0.82666 0.79882
 C107 C -0.16617 0.81037 0.79878
 C108 C -0.16696 0.79528 0.81437
 C109 C -0.18236 0.79610 0.83000
 C110 C -0.19672 0.81209 0.82999
 C111 C -0.19557 0.82778 0.81439
 C112 C -0.18257 0.84391 0.78619
 N113 N -0.19783 0.85636 0.79410
 C114 C -0.20627 0.84613 0.81107
 C115 C -0.20968 0.80871 0.84708
 N116 N -0.20368 0.79092 0.85722
 C117 C -0.18661 0.78354 0.84708
 C118 C -0.15027 0.78231 0.81135
 N119 N -0.13949 0.78917 0.79423
 C120 C -0.14897 0.80644 0.78654
 H121 H -0.17366 0.84682 0.77194
 H122 H -0.21858 0.85202 0.82107
 H123 H -0.22218 0.81880 0.85210
 H124 H -0.17820 0.76959 0.85141
 H125 H -0.14590 0.76923 0.82122
 H126 H -0.14330 0.81585 0.77351
 C127 C 0.95220 0.33093 0.43968
 C128 C 0.95050 0.31741 0.42226
 C129 C 0.93446 0.30321 0.42130
 C130 C 0.92003 0.30222 0.43798
 C131 C 0.92197 0.31543 0.45528
 C132 C 0.93810 0.32987 0.45606
 C133 C 0.96568 0.34678 0.44442
 N134 N 0.96041 0.35519 0.46361
 C135 C 0.94331 0.34491 0.47062
 C136 C 0.90607 0.31117 0.46905
 N137 N 0.89464 0.29551 0.46072
 C138 C 0.90286 0.29006 0.44159
 C139 C 0.93692 0.29204 0.40273
 N140 N 0.95438 0.29874 0.39283
 C141 C 0.96254 0.31449 0.40450
 H142 H 0.97764 0.35253 0.43392
 H143 H 0.93521 0.34793 0.48537
 H144 H 0.90297 0.31888 0.48404
 H145 H 0.89665 0.27828 0.43107
 H146 H 0.92690 0.27981 0.39694
 H147 H 0.97648 0.32294 0.40052
 C148 C 0.45503 0.44076 0.82483
 C149 C 0.45815 0.42813 0.80690
 C150 C 0.44569 0.43050 0.78924
 C151 C 0.42978 0.44536 0.78943
 C152 C 0.42663 0.45771 0.80726
 C153 C 0.43931 0.45532 0.82508
 C154 C 0.46343 0.44041 0.84485
 N155 N 0.45293 0.45405 0.85748
 C156 C 0.43830 0.46344 0.84532
 C157 C 0.40826 0.46811 0.80447
 N158 N 0.40025 0.46231 0.78550
 C159 C 0.41320 0.44842 0.77617
 C160 C 0.44972 0.41397 0.77587
 N161 N 0.46381 0.40137 0.78528
 C162 C 0.46933 0.41006 0.80407
 H163 H 0.47565 0.43014 0.85012
 H164 H 0.42778 0.47548 0.85068
 H165 H 0.40042 0.47777 0.81610
 H166 H 0.40995 0.43997 0.76167
 H167 H 0.44146 0.41019 0.76145
 H168 H 0.47913 0.40267 0.81573
 C169 C 0.79626 0.91712 0.93707
 C170 C 0.79785 0.93192 0.92077
 C171 C 0.81084 0.94879 0.92315
 C172 C 0.82294 0.95075 0.94136
 C173 C 0.82169 0.93608 0.95733
 C174 C 0.80799 0.91922 0.95528
 C175 C 0.78505 0.89905 0.93904
 N176 N 0.78913 0.89030 0.95827
 C177 C 0.80360 0.90236 0.96802
 C178 C 0.83687 0.94086 0.97185
 N179 N 0.84731 0.95805 0.96496
 C180 C 0.83878 0.96401 0.94622
 C181 C 0.80997 0.96025 0.90481
 N182 N 0.79737 0.95034 0.89090
 C183 C 0.78956 0.93317 0.90068
 H184 H 0.77426 0.89302 0.92747
 H185 H 0.81099 0.89880 0.98298
 H186 H 0.84118 0.93136 0.98533
 H187 H 0.84418 0.97672 0.93635
 H188 H 0.81822 0.97460 0.90167
 H189 H 0.77909 0.92210 0.89347
 C190 C 0.30201 0.83520 0.31169
 C191 C 0.30062 0.81950 0.32709
 C192 C 0.31471 0.80326 0.32710
 C193 C 0.33027 0.80243 0.31158
 C194 C 0.33133 0.81775 0.29618
 C195 C 0.31714 0.83418 0.29627
 C196 C 0.29174 0.85378 0.30894
 N197 N 0.30053 0.86431 0.29242
 C198 C 0.31566 0.85189 0.28423
 C199 C 0.34883 0.81418 0.28437
 N200 N 0.35829 0.79695 0.29208
 C201 C 0.34716 0.78967 0.30880
 C202 C 0.31039 0.79105 0.34448
 N203 N 0.29372 0.79919 0.35466
 C204 C 0.28785 0.81678 0.34436
 H205 H 0.27956 0.85968 0.31912
 H206 H 0.32489 0.85524 0.27029
 H207 H 0.35477 0.82387 0.27168
 H208 H 0.35159 0.77668 0.31875
 H209 H 0.31890 0.77742 0.34957
 H210 H 0.27534 0.82692 0.34923
 C211 C 0.79890 0.42537 0.44367
 C212 C 0.79908 0.44179 0.42902
 C213 C 0.81341 0.45769 0.43092
 C214 C 0.82816 0.45704 0.44719
 C215 C 0.82843 0.44036 0.46116
 C216 C 0.81350 0.42463 0.45962
 C217 C 0.78739 0.40739 0.44499
 N218 N 0.79440 0.39600 0.46160
 C219 C 0.81063 0.40618 0.47039
 C220 C 0.84645 0.44165 0.47256
 N221 N 0.85712 0.45867 0.46585
 C222 C 0.84584 0.46845 0.45070
 C223 C 0.81167 0.46995 0.41307
 N224 N 0.79723 0.46141 0.40010
 C225 C 0.78913 0.44448 0.40997
 H226 H 0.77492 0.40281 0.43459
 H227 H 0.81975 0.40042 0.48350
 H228 H 0.85205 0.43033 0.48391
 H229 H 0.85109 0.48164 0.44143
 H230 H 0.82122 0.48324 0.40910
 H231 H 0.77791 0.43401 0.40304
 C232 C 0.93695 0.82101 -0.03908
 C233 C 0.92324 0.80414 -0.03876
 C234 C 0.92374 0.78938 -0.05487
 C235 C 0.93820 0.79127 -0.07147
 C236 C 0.95163 0.80802 -0.07175
 C237 C 0.95100 0.82299 -0.05553
 C238 C 0.93776 0.83910 -0.02732
 N239 N 0.95162 0.85212 -0.03654
 C240 C 0.96002 0.84232 -0.05361
 C241 C 0.96191 0.80757 -0.09085
 N242 N 0.95487 0.79120 -0.10251
 C243 C 0.94074 0.78079 -0.09047
 C244 C 0.90665 0.77684 -0.05218
 N245 N 0.89604 0.78358 -0.03482
 C246 C 0.90601 0.80032 -0.02663
 H247 H 0.92808 0.84307 -0.01385
 H248 H 0.97088 0.84931 -0.06458
 H249 H 0.97345 0.81868 -0.09603
 H250 H 0.93184 0.76749 -0.09576
 H251 H 0.90152 0.76467 -0.06287
 H252 H 0.90036 0.80983 -0.01362
 C253 C 0.29732 0.32289 0.79933
 C254 C 0.29638 0.30671 0.81426
 C255 C 0.31100 0.29098 0.81384
 C256 C 0.32681 0.29128 0.79858
 C257 C 0.32785 0.30736 0.78396
 C258 C 0.31287 0.32315 0.78422
 C259 C 0.28620 0.34102 0.79703
 N260 N 0.29427 0.35201 0.78055
 C261 C 0.31081 0.34136 0.77287
 C262 C 0.34644 0.30552 0.77345
 N263 N 0.35666 0.28887 0.78149
 C264 C 0.34462 0.27980 0.79653
 C265 C 0.30755 0.27857 0.83131
 N266 N 0.29102 0.28619 0.84209
 C267 C 0.28421 0.30353 0.83193
 H268 H 0.27353 0.34616 0.80700
 H269 H 0.32084 0.34668 0.76021
 H270 H 0.35286 0.31651 0.76218
 H271 H 0.34936 0.26699 0.80659
 H272 H 0.31677 0.26537 0.83625
 H273 H 0.27185 0.31352 0.83752
 C274 C 0.17409 0.56318 0.54091
 C275 C 0.18966 0.57827 0.54115
 C276 C 0.20414 0.57835 0.55722
 C277 C 0.20324 0.56323 0.57324
 C278 C 0.18784 0.54830 0.57302
 C279 C 0.17315 0.54829 0.55675
 C280 C 0.15740 0.56016 0.52789
 N281 N 0.14654 0.54364 0.53532
 C282 C 0.15587 0.53640 0.55310
 C283 C 0.19022 0.53625 0.59089
 N284 N 0.20685 0.54337 0.60172
 C285 C 0.21476 0.56002 0.59123
 C286 C 0.21641 0.59560 0.55424
 N287 N 0.20978 0.60579 0.53666
 C288 C 0.19334 0.59540 0.52865
 H289 H 0.15319 0.56949 0.51426
 H290 H 0.15016 0.52380 0.56291
 H291 H 0.18045 0.52346 0.59588
 H292 H 0.22780 0.56920 0.59647
 H293 H 0.22864 0.60091 0.56459
 H294 H 0.18426 0.60045 0.51520
 C295 C 0.57320 0.68916 0.04210
 C296 C 0.55770 0.67394 0.04234
 C297 C 0.54301 0.67393 0.05837
 C298 C 0.54357 0.68930 0.07428
 C299 C 0.55891 0.70430 0.07401
 C300 C 0.57395 0.70410 0.05797
 C301 C 0.59095 0.69110 0.03025
 N302 N 0.60275 0.70629 0.03906
 C303 C 0.59232 0.71463 0.05574
 C304 C 0.55663 0.71620 0.09205
 N305 N 0.54013 0.70900 0.10314
 C306 C 0.53227 0.69230 0.09261
 C307 C 0.53135 0.65615 0.05588
 N308 N 0.53853 0.64553 0.03869
 C309 C 0.55478 0.65615 0.03047
 H310 H 0.59577 0.68103 0.01732
 H311 H 0.59841 0.72629 0.06647
 H312 H 0.56646 0.72894 0.09700
 H313 H 0.51961 0.68275 0.09819
 H314 H 0.51909 0.65086 0.06627
 H315 H 0.56433 0.65081 0.01740
 C316 C 0.68909 0.20294 0.67633
 C317 C 0.67631 0.20425 0.69424
 C318 C 0.67741 0.18920 0.70991
 C319 C 0.69147 0.17267 0.70788
 C320 C 0.70407 0.17135 0.69010
 C321 C 0.70272 0.18649 0.67413
 C322 C 0.69007 0.21449 0.65801
 N323 N 0.70347 0.20507 0.64444
 C324 C 0.71156 0.18812 0.65429
 C325 C 0.71513 0.15311 0.69168
 N326 N 0.70970 0.14351 0.71005
 C327 C 0.69504 0.15516 0.71992
 C328 C 0.66168 0.19318 0.72411
 N329 N 0.65120 0.21029 0.71742
 C330 C 0.65993 0.21701 0.69906
 H331 H 0.68123 0.22839 0.65452
 H332 H 0.72251 0.17739 0.64721
 H333 H 0.72594 0.14695 0.68011
 H334 H 0.68730 0.15095 0.73456
 H335 H 0.65746 0.18371 0.73767
 H336 H 0.65397 0.22947 0.68925
 C337 C 1.07645 0.06362 0.20711
 C338 C 1.06313 0.08071 0.20495
 C339 C 1.04876 0.08109 0.18877
 C340 C 1.04713 0.06403 0.17488
 C341 C 1.06027 0.04717 0.17702
 C342 C 1.07497 0.04694 0.19326
 C343 C 1.09329 0.06004 0.21987
 N344 N 1.10173 0.04136 0.21443
 C345 C 1.09066 0.03333 0.19808
 C346 C 1.05591 0.03342 0.16085
 N347 N 1.03985 0.04108 0.14941
 C348 C 1.03474 0.06006 0.15766
 C349 C 1.03925 0.10033 0.18944
 N350 N 1.04760 0.11161 0.20556
 C351 C 1.06176 0.09943 0.21549
 H352 H 1.09960 0.07074 0.23148
 H353 H 1.09433 0.01904 0.18968
 H354 H 1.06350 0.01863 0.15800
 H355 H 1.02322 0.07051 0.15122
 H356 H 1.02767 0.10599 0.17854
 H357 H 1.07085 0.10408 0.22909
 C358 C 0.05901 0.17238 1.04113
 C359 C 0.07399 0.18788 1.03799
 C360 C 0.07471 0.20491 1.05154
 C361 C 0.06073 0.20652 1.06847
 C362 C 0.04617 0.19118 1.07171
 C363 C 0.04513 0.17410 1.05783
 C364 C 0.05590 0.15317 1.03186
 N365 N 0.04060 0.14327 1.04260
 C366 C 0.03375 0.15602 1.05834
 C367 C 0.03688 0.19521 1.09098
 N368 N 0.04578 0.21240 1.09981
 C369 C 0.05988 0.21977 1.08560
 C370 C 0.09228 0.21592 1.04675
 N371 N 0.10215 0.20616 1.03053
 C372 C 0.09120 0.18892 1.02510
 H373 H 0.06463 0.14650 1.01882
 H374 H 0.02189 0.15206 1.06979
 H375 H 0.02567 0.18527 1.09873
 H376 H 0.06915 0.23367 1.08757
 H377 H 0.09813 0.22937 1.05523
 H378 H 0.09610 0.17737 1.01358
 C379 C 0.18204 0.71022 0.69847
 C380 C 0.19651 0.70989 0.68188
 C381 C 0.21079 0.69388 0.68053
 C382 C 0.21098 0.67816 0.69600
 C383 C 0.19657 0.67837 0.71230
 C384 C 0.18183 0.69439 0.71342
 C385 C 0.16426 0.72161 0.70121
 N386 N 0.15296 0.71271 0.71695
 C387 C 0.16371 0.69629 0.72480
 C388 C 0.19894 0.66009 0.72349
 N389 N 0.21464 0.64906 0.71462
 C390 C 0.22183 0.65978 0.69757
 C391 C 0.22039 0.69552 0.66104
 N392 N 0.21203 0.71189 0.65051
 C393 C 0.19768 0.72100 0.66324
 H394 H 0.15888 0.73406 0.69104
 H395 H 0.15783 0.68536 0.73642
 H396 H 0.18964 0.65493 0.73679
 H397 H 0.23366 0.65426 0.68675
 H398 H 0.23146 0.68468 0.65433
 H399 H 0.18778 0.73379 0.65859
 C400 C 1.18920 0.18089 0.20416
 C401 C 1.17604 0.19820 0.20440
 C402 C 1.17644 0.21229 0.18776
 C403 C 1.19014 0.20928 0.17075
 C404 C 1.20338 0.19237 0.17069
 C405 C 1.20271 0.17792 0.18736
 C406 C 1.19028 0.16349 0.21684
 N407 N 1.20371 0.14983 0.20782
 C408 C 1.21167 0.15866 0.19001
 C409 C 1.21411 0.19280 0.15182
 N410 N 1.20790 0.20972 0.14047
 C411 C 1.19275 0.21948 0.15172
 C412 C 1.15994 0.22552 0.19046
 N413 N 1.14952 0.21960 0.20816
 C414 C 1.15924 0.20300 0.21686
 H415 H 1.18130 0.16054 0.23105
 H416 H 1.22238 0.15111 0.17922
 H417 H 1.22508 0.18120 0.14639
 H418 H 1.18448 0.23325 0.14661
 H419 H 1.15466 0.23716 0.17928
 H420 H 1.15333 0.19389 0.23000
 C421 C 0.67194 1.04610 0.55479
 C422 C 0.68791 1.04408 0.56961
 C423 C 0.70379 1.05852 0.56995
 C424 C 0.70377 1.07529 0.55568
 C425 C 0.68765 1.07757 0.54151
 C426 C 0.67186 1.06270 0.54080
 C427 C 0.65411 1.03497 0.55140
 N428 N 0.64357 1.04411 0.53529
 C429 C 0.65411 1.06131 0.52901
 C430 C 0.68996 1.09664 0.53185
 N431 N 0.70721 1.10584 0.53964
 C432 C 0.71601 1.09277 0.55391
 C433 C 0.71581 1.05404 0.58731
 N434 N 0.70773 1.03719 0.59736
 C435 C 0.69060 1.03105 0.58673
 H436 H 0.64898 1.02142 0.56019
 H437 H 0.64909 1.07209 0.51686
 H438 H 0.67945 1.10371 0.52063
 H439 H 0.72936 1.09645 0.56350
 H440 H 0.72882 1.06304 0.59293
 H441 H 0.68021 1.01882 0.59185
 C442 C 0.56914 0.55267 0.17328
 C443 C 0.58337 0.55178 0.18996
 C444 C 0.58244 0.56630 0.20622
 C445 C 0.56735 0.58190 0.20599
 C446 C 0.55337 0.58287 0.18950
 C447 C 0.55424 0.56815 0.17307
 C448 C 0.56609 0.54043 0.15560
 N449 N 0.54956 0.54800 0.14494
 C450 C 0.54238 0.56511 0.15529
 C451 C 0.54085 0.59981 0.19319
 N452 N 0.54678 0.60892 0.21166
 C453 C 0.56311 0.59822 0.21949
 C454 C 0.59822 0.56199 0.22001
 N455 N 0.60857 0.54508 0.21262
 C456 C 0.59979 0.53883 0.19413
 H457 H 0.57493 0.52682 0.15098
 H458 H 0.52931 0.57441 0.15036
 H459 H 0.52862 0.60541 0.18302
 H460 H 0.57143 0.60222 0.23381
 H461 H 0.60212 0.57063 0.23423
 H462 H 0.60525 0.52610 0.18428
 C463 C 0.67687 0.69166 0.21388
 C464 C 0.69110 0.67515 0.21275
 C465 C 0.70633 0.67522 0.19725
 C466 C 0.70741 0.69157 0.18255
 C467 C 0.69348 0.70791 0.18374
 C468 C 0.67813 0.70797 0.19950
 C469 C 0.65856 0.69401 0.22485
 N470 N 0.64884 0.71127 0.21746
 C471 C 0.66061 0.71988 0.20197
 C472 C 0.69581 0.71955 0.16553
 N473 N 0.71039 0.71034 0.15313
 C474 C 0.71780 0.69343 0.16351
 C475 C 0.71614 0.65621 0.19804
 N476 N 0.70706 0.64449 0.21337
 C477 C 0.69187 0.65596 0.22261
 H478 H 0.65200 0.68313 0.23613
 H479 H 0.65595 0.73286 0.19211
 H480 H 0.68628 0.73257 0.16071
 H481 H 0.72857 0.68227 0.15682
 H482 H 0.72823 0.65082 0.18747
 H483 H 0.68143 0.65030 0.23475
 C484 C 0.16571 0.05770 1.04069
 C485 C 0.18103 0.07315 1.03968
 C486 C 0.19647 0.07366 1.05482
 C487 C 0.19681 0.05884 1.07113
 C488 C 0.18175 0.04359 1.07208
 C489 C 0.16615 0.04301 1.05677
 C490 C 0.14797 0.05424 1.02922
 N491 N 0.13790 0.03769 1.03784
 C492 C 0.14878 0.03090 1.05483
 C493 C 0.18464 0.03266 1.09060
 N494 N 0.20102 0.04100 1.10087
 C495 C 0.20867 0.05693 1.08912
 C496 C 0.20844 0.09089 1.05075
 N497 N 0.20089 0.10064 1.03333
 C498 C 0.18395 0.09012 1.02661
 H499 H 0.14240 0.06349 1.01606
 H500 H 0.14406 0.01842 1.06533
 H501 H 0.17483 0.02045 1.09684
 H502 H 0.22107 0.06715 1.09399
 H503 H 0.22147 0.09622 1.05999
 H504 H 0.17434 0.09469 1.01338
 C505 C 0.57758 0.20870 0.55544
 C506 C 0.56445 0.20712 0.57316
 C507 C 0.54796 0.19343 0.57277
 C508 C 0.54420 0.18134 0.55462
 C509 C 0.55688 0.18325 0.53700
 C510 C 0.57353 0.19712 0.53736
 C511 C 0.59678 0.21755 0.55272
 N512 N 0.60441 0.21147 0.53354
 C513 C 0.58995 0.19959 0.52377
 C514 C 0.55199 0.16729 0.52330
 N515 N 0.53655 0.15590 0.53206
 C516 C 0.53169 0.16433 0.55123
 C517 C 0.53917 0.19354 0.59269
 N518 N 0.54985 0.20699 0.60517
 C519 C 0.56520 0.21555 0.59329
 H520 H 0.60525 0.22641 0.56445
 H521 H 0.59188 0.19205 0.50849
 H522 H 0.56013 0.16324 0.50882
 H523 H 0.52113 0.15749 0.56260
 H524 H 0.52618 0.18425 0.59788
 H525 H 0.57623 0.22693 0.59894
 C526 C 0.07731 0.55360 0.71365
 C527 C 0.06248 0.56951 0.71320
 C528 C 0.04891 0.57089 0.69633
 C529 C 0.04976 0.55612 0.67989
 C530 C 0.06418 0.54019 0.68050
 C531 C 0.07818 0.53901 0.69742
 C532 C 0.09449 0.55071 0.72608
 N533 N 0.10564 0.53466 0.71794
 C534 C 0.09588 0.52747 0.70034
 C535 C 0.06288 0.52958 0.66150
 N536 N 0.04836 0.53897 0.64929
 C537 C 0.04011 0.55506 0.66048
 C538 C 0.03860 0.58959 0.69831
 N539 N 0.04571 0.59955 0.71583
 C540 C 0.06004 0.58725 0.72526
 H541 H 0.09922 0.56039 0.73931
 H542 H 0.10198 0.51572 0.68966
 H543 H 0.07240 0.51657 0.65652
 H544 H 0.02860 0.56577 0.65451
 H545 H 0.02787 0.59619 0.68703
 H546 H 0.06911 0.59166 0.73895
 C547 C 0.67191 0.53918 0.05683
 C548 C 0.68693 0.53771 0.07275
 C549 C 0.70237 0.55254 0.07399
 C550 C 0.70319 0.56882 0.05921
 C551 C 0.68819 0.57052 0.04372
 C552 C 0.67243 0.55555 0.04249
 C553 C 0.65394 0.52833 0.05328
 N554 N 0.64374 0.53750 0.03699
 C555 C 0.65474 0.55433 0.03048
 C556 C 0.69115 0.58941 0.03373
 N557 N 0.70746 0.59913 0.04290
 C558 C 0.71518 0.58646 0.05817
 C559 C 0.71257 0.54942 0.09285
 N560 N 0.70362 0.53320 0.10314
 C561 C 0.68828 0.52555 0.09072
 H562 H 0.64830 0.51516 0.06234
 H563 H 0.64992 0.56516 0.01830
 H564 H 0.68142 0.59617 0.02162
 H565 H 0.72781 0.59041 0.06864
 H566 H 0.72458 0.55922 0.09938
 H567 H 0.67789 0.51308 0.09519
 C568 C 0.05817 0.70837 0.57096
 C569 C 0.07329 0.70892 0.55502
 C570 C 0.07300 0.69441 0.53870
 C571 C 0.05745 0.67917 0.53807
 C572 C 0.04224 0.67896 0.55361
 C573 C 0.04266 0.69358 0.57018
 C574 C 0.05682 0.71811 0.59043
 N575 N 0.04109 0.70937 0.60150
 C576 C 0.03209 0.69462 0.58915
 C577 C 0.03125 0.66080 0.55116
 N578 N 0.03965 0.64979 0.53486
 C579 C 0.05549 0.66096 0.52654
 C580 C 0.09078 0.69724 0.52700
 N581 N 0.10155 0.71330 0.53562
 C582 C 0.09117 0.72027 0.55298
 H583 H 0.06745 0.72955 0.59672
 H584 H 0.01976 0.68438 0.59425
 H585 H 0.01939 0.65501 0.56176
 H586 H 0.06598 0.65535 0.51439
 H587 H 0.09583 0.68797 0.51355
 H588 H 0.09663 0.73224 0.56372
 C589 C 0.56421 1.05043 0.67734
 C590 C 0.57876 1.04804 0.69355
 C591 C 0.57861 1.06145 0.71079
 C592 C 0.56382 1.07740 0.71204
 C593 C 0.54910 1.07933 0.69632
 C594 C 0.54938 1.06585 0.67876
 C595 C 0.56224 1.04120 0.65776
 N596 N 0.54693 1.05099 0.64689
 C597 C 0.53854 1.06566 0.65998
 C598 C 0.53755 1.09673 0.70100
 N599 N 0.54482 1.10549 0.71920
 C600 C 0.56121 1.09394 0.72578
 C601 C 0.59536 1.05645 0.72316
 N602 N 0.60551 1.04023 0.71393
 C603 C 0.59567 1.03525 0.69562
 H604 H 0.57155 1.02844 0.65176
 H605 H 0.52645 1.07648 0.65561
 H606 H 0.52554 1.10327 0.69112
 H607 H 0.57063 1.09735 0.73952
 H608 H 0.60017 1.06437 0.73750
 H609 H 0.60089 1.02365 0.68428
 C610 C 0.45352 0.32500 0.94700
 C611 C 0.45462 0.31130 0.92967
 C612 C 0.43915 0.29683 0.92647
 C613 C 0.42254 0.29568 0.94065
 C614 C 0.42131 0.30933 0.95768
 C615 C 0.43687 0.32427 0.96076
 C616 C 0.46556 0.34159 0.95295
 N617 N 0.45681 0.35102 0.97016
 C618 C 0.43898 0.34069 0.97474
 C619 C 0.40298 0.30525 0.96802
 N620 N 0.39340 0.28932 0.95780
 C621 C 0.40506 0.28362 0.94085
 C622 C 0.44296 0.28719 0.90736
 N623 N 0.46022 0.29566 0.89881
 C624 C 0.46773 0.31015 0.91248
 H625 H 0.47902 0.34718 0.94448
 H626 H 0.42825 0.34484 0.98727
 H627 H 0.39693 0.31335 0.98180
 H628 H 0.40091 0.27176 0.92937
 H629 H 0.43326 0.27575 0.89961
 H630 H 0.48103 0.31993 0.90948
 C631 C 0.95418 0.44516 0.32395
 C632 C 0.95662 0.43170 0.30658
 C633 C 0.94378 0.43351 0.28917
 C634 C 0.92846 0.44891 0.28887
 C635 C 0.92602 0.46225 0.30608
 C636 C 0.93905 0.46036 0.32377
 C637 C 0.96250 0.44484 0.34396
 N638 N 0.95265 0.45924 0.35625
 C639 C 0.93859 0.46915 0.34379
 C640 C 0.90766 0.47271 0.30319
 N641 N 0.89908 0.46601 0.28478
 C642 C 0.91165 0.45152 0.27590
 C643 C 0.94688 0.41613 0.27666
 N644 N 0.96120 0.40395 0.28615
 C645 C 0.96736 0.41332 0.30436
 H646 H 0.97483 0.43469 0.34918
 H647 H 0.92783 0.48094 0.34924
 H648 H 0.90011 0.48284 0.31460
 H649 H 0.90780 0.44213 0.26216
 H650 H 0.93813 0.41177 0.26274
 H651 H 0.97747 0.40633 0.31600
 C652 C 0.30290 0.93904 0.42003
 C653 C 0.30188 0.92373 0.43587
 C654 C 0.31463 0.92501 0.45341
 C655 C 0.32853 0.94165 0.45535
 C656 C 0.32915 0.95701 0.44000
 C657 C 0.31639 0.95557 0.42213
 C658 C 0.29332 0.94116 0.40068
 N659 N 0.30106 0.95828 0.39065
 C660 C 0.31478 0.96744 0.40409
 C661 C 0.34464 0.97063 0.44545
 N662 N 0.35353 0.96393 0.46377
 C663 C 0.34389 0.94599 0.46970
 C664 C 0.31053 0.90798 0.46599
 N665 N 0.29540 0.89662 0.45667
 C666 C 0.29030 0.90588 0.43803
 H667 H 0.28230 0.93033 0.39398
 H668 H 0.32290 0.98192 0.40118
 H669 H 0.34999 0.98362 0.43595
 H670 H 0.34794 0.93659 0.48334
 H671 H 0.31782 0.90420 0.48094
 H672 H 0.27893 0.90005 0.42695
 O673 O 0.19943 0.52565 0.75134
 O674 O 0.21019 0.52369 0.78788
 O675 O 0.25189 0.55666 0.72285
 O676 O 0.28540 0.55049 0.71757
 O677 O 0.22507 0.50145 0.69314
 O678 O 0.22782 0.46439 0.70129
 O679 O 0.31099 0.50001 0.77017
 O680 O 0.30349 0.53672 0.76658
 O681 O 0.26367 0.47317 0.80190
 O682 O 0.22301 0.47725 0.79759
 O683 O 0.28177 0.44594 0.74586
 O684 O 0.27818 0.45435 0.70825
 O685 O 0.30906 0.47390 0.74573
 O686 O 0.29941 0.47732 0.70710
 O687 O 0.25806 0.44485 0.77251
 O688 O 0.22435 0.45162 0.77972
 O689 O 0.28581 0.50048 0.80117
 O690 O 0.28282 0.53645 0.79452
 O691 O 0.19782 0.50003 0.72637
 O692 O 0.20642 0.46443 0.72372
 O693 O 0.24846 0.52785 0.69196
 O694 O 0.28584 0.52402 0.69649
 O695 O 0.22766 0.55540 0.74908
 O696 O 0.23205 0.54758 0.78591
 Zr697 Zr 0.23035 0.52503 0.76143
 O698 O 0.25065 0.50716 0.78015
 Zr699 Zr 0.26371 0.52612 0.72124
 O700 O 0.28534 0.50813 0.73815
 Zr701 Zr 0.22828 0.48880 0.72386
 O702 O 0.24812 0.46915 0.74103
 Zr703 Zr 0.28124 0.51296 0.77082
 O704 O 0.26113 0.53284 0.75393
 Zr705 Zr 0.24609 0.47540 0.77377
 O706 O 0.22394 0.49305 0.75675
 Zr707 Zr 0.27900 0.47625 0.73343
 O708 O 0.25890 0.49434 0.71435
 O709 O 0.23296 0.52045 0.72883
 O710 O 0.27680 0.48104 0.76612
 C711 C 0.18957 0.51438 0.73788
 C712 C 0.23786 0.56503 0.73458
 C713 C 0.23424 0.51661 0.68367
 C714 C 0.31862 0.48447 0.75996
 C715 C 0.27819 0.48426 0.81005
 C716 C 0.27188 0.43637 0.76060
 H717 H 0.24831 0.51034 0.79533
 H718 H 0.24441 0.45456 0.73769
 H719 H 0.22324 0.52931 0.72077
 H720 H 0.29951 0.51183 0.73374
 H721 H 0.29609 0.54914 0.76117
 H722 H 0.29784 0.54661 0.72569
 H723 H 0.21793 0.44839 0.76592
 H724 H 0.20240 0.46228 0.73868
 H725 H 0.26977 0.53620 0.80267
 H726 H 0.24526 0.55506 0.78390
 H727 H 0.26624 0.44505 0.71070
 H728 H 0.24138 0.46469 0.69409
 H729 H 0.20326 0.50996 0.78727
 H730 H 0.22881 0.48487 0.80988
 H731 H 0.28313 0.51087 0.68873
 H732 H 0.30919 0.48894 0.70938
 O733 O 0.19243 0.02679 0.25295
 O734 O 0.20375 0.02602 0.28932
 O735 O 0.24188 0.06024 0.22269
 O736 O 0.27618 0.05727 0.22016
 O737 O 0.21802 0.00517 0.19462
 O738 O 0.22323 -0.03161 0.20126
 O739 O 0.30434 0.00472 0.27266
 O740 O 0.29746 0.04143 0.26788
 O741 O 0.25849 -0.02262 0.30269
 O742 O 0.21992 -0.02378 0.29926
 O743 O 0.27809 -0.04852 0.24455
 O744 O 0.27468 -0.03899 0.20764
 O745 O 0.30401 -0.01983 0.24654
 O746 O 0.29468 -0.01468 0.20741
 O747 O 0.25800 -0.04963 0.27402
 O748 O 0.21943 -0.04545 0.27599
 O749 O 0.27886 0.00604 0.30240
 O750 O 0.27481 0.04245 0.29458
 O751 O 0.19215 0.00213 0.22695
 O752 O 0.20251 -0.03372 0.22702
 O753 O 0.24154 0.03150 0.19267
 O754 O 0.27894 0.03055 0.19768
 O755 O 0.21911 0.05824 0.25023
 O756 O 0.22460 0.05054 0.28727
 Zr757 Zr 0.22352 0.02807 0.26269
 O758 O 0.24446 0.01069 0.28101
 Zr759 Zr 0.25652 0.03102 0.22224
 O760 O 0.27912 0.01407 0.23895
 Zr761 Zr 0.22288 -0.00809 0.22484
 O762 O 0.24399 -0.02697 0.24129
 Zr763 Zr 0.27472 0.01810 0.27175
 O764 O 0.25385 0.03736 0.25503
 Zr765 Zr 0.24154 -0.02124 0.27411
 O766 O 0.21857 -0.00407 0.25778
 Zr767 Zr 0.27423 -0.01791 0.23352
 O768 O 0.25304 -0.00083 0.21495
 O769 O 0.22625 0.02363 0.23017
 O770 O 0.27167 -0.01376 0.26623
 C771 C 0.18319 0.01580 0.23876
 C772 C 0.22751 0.06784 0.23451
 C773 C 0.22697 0.02032 0.18492
 C774 C 0.31256 -0.01032 0.26213
 C775 C 0.27227 -0.01073 0.31107
 C776 C 0.27155 -0.05757 0.26137
 H777 H 0.24194 0.01362 0.29621
 H778 H 0.24134 -0.04173 0.23769
 H779 H 0.21603 0.03193 0.22221
 H780 H 0.29316 0.01844 0.23473
 H781 H 0.29040 0.05376 0.26185
 H782 H 0.28956 0.05334 0.22650
 H783 H 0.22133 -0.05456 0.26345
 H784 H 0.19754 -0.03408 0.24190
 H785 H 0.26236 0.04088 0.30355
 H786 H 0.23707 0.05909 0.28472
 H787 H 0.26209 -0.04762 0.20869
 H788 H 0.23557 -0.02906 0.19232
 H789 H 0.19980 0.01117 0.29046
 H790 H 0.22234 -0.01207 0.30920
 H791 H 0.27717 0.01728 0.18984
 H792 H 0.30520 -0.00414 0.21112
 O793 O 0.50379 0.69719 0.22829
 O794 O 0.46728 0.70528 0.22895
 O795 O 0.52830 0.75061 0.19556
 O796 O 0.52887 0.78519 0.20040
 O797 O 0.55732 0.72713 0.25257
 O798 O 0.54939 0.73136 0.28966
 O799 O 0.47611 0.80888 0.25060
 O800 O 0.47937 0.80055 0.21428
 O801 O 0.44775 0.75614 0.27834
 O802 O 0.45743 0.71751 0.27898
 O803 O 0.49979 0.78382 0.30629
 O804 O 0.53749 0.78122 0.29925
 O805 O 0.50043 0.81014 0.27643
 O806 O 0.53789 0.80220 0.27582
 O807 O 0.47567 0.75812 0.30773
 O808 O 0.47606 0.72187 0.30333
 O809 O 0.44862 0.78152 0.25316
 O810 O 0.45525 0.77656 0.21469
 O811 O 0.52874 0.69857 0.25359
 O812 O 0.52646 0.70797 0.29074
 O813 O 0.55731 0.75014 0.22506
 O814 O 0.55022 0.78785 0.22736
 O815 O 0.50314 0.72588 0.19660
 O816 O 0.46753 0.72588 0.20497
 Zr817 Zr 0.49125 0.72754 0.22778
 O818 O 0.47129 0.74681 0.24549
 Zr819 Zr 0.52771 0.76397 0.22607
 O820 O 0.50920 0.78499 0.24362
 Zr821 Zr 0.52729 0.72928 0.26516
 O822 O 0.50891 0.74867 0.28452
 Zr823 Zr 0.47785 0.77825 0.23893
 O824 O 0.49624 0.75890 0.21921
 Zr825 Zr 0.47764 0.74337 0.27797
 O826 O 0.49596 0.72205 0.26042
 Zr827 Zr 0.51374 0.78008 0.27628
 O828 O 0.53416 0.76071 0.25865
 O829 O 0.52240 0.73277 0.23275
 O830 O 0.48240 0.77489 0.27150
 C831 C 0.51827 0.68892 0.23937
 C832 C 0.51741 0.73616 0.18699
 C833 C 0.56599 0.73629 0.23677
 C834 C 0.48600 0.81847 0.26531
 C835 C 0.43952 0.77110 0.26784
 C836 C 0.48540 0.77366 0.31575
 H837 H 0.45688 0.74309 0.24216
 H838 H 0.51209 0.74595 0.29960
 H839 H 0.53095 0.72342 0.22389
 H840 H 0.51244 0.79948 0.23943
 H841 H 0.48636 0.79370 0.20211
 H842 H 0.52081 0.79766 0.20454
 H843 H 0.49035 0.71931 0.30802
 H844 H 0.51360 0.69978 0.28922
 H845 H 0.44518 0.76558 0.21845
 H846 H 0.46505 0.74038 0.20036
 H847 H 0.53545 0.76942 0.30913
 H848 H 0.55607 0.74516 0.28817
 H849 H 0.46722 0.69973 0.24357
 H850 H 0.44762 0.71901 0.26712
 H851 H 0.55854 0.78542 0.24029
 H852 H 0.53848 0.80802 0.26131
 O853 O 0.06063 0.72357 0.75316
 O854 O 0.05215 0.72623 0.79039
 O855 O 0.00801 0.69083 0.72862
 O856 O -0.02654 0.69545 0.72917
 O857 O 0.03048 0.74517 0.69619
 O858 O 0.02814 0.78222 0.70334
 O859 O -0.04986 0.74842 0.77961
 O860 O -0.04227 0.71198 0.77721
 O861 O -0.00000 0.77703 0.80709
 O862 O 0.03875 0.77472 0.80044
 O863 O -0.02300 0.80158 0.75179
 O864 O -0.02008 0.79087 0.71282
 O865 O -0.05039 0.77231 0.75293
 O866 O -0.04367 0.77093 0.71610
 O867 O 0.00204 0.80375 0.77679
 O868 O 0.03857 0.79648 0.77811
 O869 O -0.02372 0.75099 0.80785
 O870 O -0.01923 0.71351 0.80315
 O871 O 0.05953 0.74659 0.72570
 O872 O 0.05133 0.78302 0.72608
 O873 O 0.00746 0.71845 0.69764
 O874 O -0.02916 0.72059 0.70505
 O875 O 0.03296 0.69303 0.75388
 O876 O 0.03031 0.70197 0.79082
 Zr877 Zr 0.03035 0.72373 0.76565
 O878 O 0.01117 0.74221 0.78522
 Zr879 Zr -0.00553 0.72069 0.72819
 O880 O -0.02615 0.73930 0.74592
 Zr881 Zr 0.02937 0.75866 0.72675
 O882 O 0.01052 0.77883 0.74474
 Zr883 Zr -0.01993 0.73597 0.77845
 O884 O -0.00076 0.71543 0.76084
 Zr885 Zr 0.01507 0.77372 0.77738
 O886 O 0.03605 0.75545 0.75933
 Zr887 Zr -0.02055 0.77103 0.73966
 O888 O -0.00172 0.75225 0.71977
 O889 O 0.02541 0.72722 0.73328
 O890 O -0.01605 0.76767 0.77220
 C891 C 0.06885 0.73307 0.73724
 C892 C 0.02311 0.68318 0.73929
 C893 C 0.02110 0.72945 0.68800
 C894 C -0.05885 0.76243 0.76842
 C895 C -0.01497 0.76708 0.81594
 C896 C -0.01275 0.81165 0.76591
 H897 H 0.01443 0.73966 0.80030
 H898 H 0.01369 0.79335 0.74063
 H899 H 0.03459 0.71827 0.72459
 H900 H -0.04051 0.73536 0.74259
 H901 H -0.03521 0.69936 0.77172
 H902 H -0.03931 0.70045 0.73617
 H903 H 0.04066 0.80108 0.76330
 H904 H 0.05922 0.78213 0.73948
 H905 H -0.00686 0.71602 0.81192
 H906 H 0.01665 0.69508 0.79057
 H907 H -0.00950 0.80171 0.71530
 H908 H 0.01497 0.78033 0.69566
 H909 H 0.05809 0.74041 0.78939
 H910 H 0.03559 0.76427 0.81151
 H911 H -0.02713 0.73312 0.69610
 H912 H -0.04770 0.75624 0.71393
 O913 O 0.04662 0.02244 0.00271
 O914 O 0.03624 0.02314 -0.03372
 O915 O -0.00441 0.05338 0.03320
 O916 O -0.03898 0.04933 0.03311
 O917 O 0.01924 -0.00239 0.06039
 O918 O 0.01688 -0.03866 0.05141
 O919 O -0.06470 -0.00163 -0.01843
 O920 O -0.05675 0.03525 -0.01499
 O921 O -0.01473 -0.02756 -0.05074
 O922 O 0.02338 -0.02665 -0.04536
 O923 O -0.03735 -0.05536 0.00359
 O924 O -0.03209 -0.04820 0.04300
 O925 O -0.06431 -0.02652 0.00721
 O926 O -0.05446 -0.02730 0.04413
 O927 O -0.01326 -0.05592 -0.02273
 O928 O 0.02408 -0.04911 -0.02332
 O929 O -0.03847 -0.00183 -0.04908
 O930 O -0.03625 0.03362 -0.04307
 O931 O 0.04691 -0.00184 0.02908
 O932 O 0.03866 -0.03833 0.02664
 O933 O -0.00491 0.02328 0.06215
 O934 O -0.04187 0.02329 0.05509
 O935 O 0.01918 0.05290 0.00632
 O936 O 0.01425 0.04659 -0.03112
 Zr937 Zr 0.01578 0.02321 -0.00754
 O938 O -0.00390 0.00556 -0.02708
 Zr939 Zr -0.01838 0.02375 0.03175
 O940 O -0.03966 0.00602 0.01402
 Zr941 Zr 0.01674 -0.01402 0.02916
 O942 O -0.00286 -0.03332 0.01116
 Zr943 Zr -0.03479 0.01107 -0.01856
 O944 O -0.01514 0.03092 -0.00078
 Zr945 Zr 0.00050 -0.02633 -0.02126
 O946 O 0.02203 -0.00877 -0.00346
 Zr947 Zr -0.03371 -0.02599 0.01821
 O948 O -0.01407 -0.00822 0.03807
 O949 O 0.01236 0.01772 0.02481
 O950 O -0.03051 -0.02086 -0.01432
 C951 C 0.05570 0.01195 0.01732
 C952 C 0.01012 0.06172 0.02214
 C953 C 0.00935 0.01199 0.07044
 C954 C -0.07339 -0.01602 -0.00736
 C955 C -0.02953 -0.01689 -0.05886
 C956 C -0.02802 -0.06419 -0.01206
 H957 H -0.00121 0.00905 -0.04212
 H958 H 0.00034 -0.04808 0.01419
 H959 H 0.02192 0.02599 0.03367
 H960 H -0.05386 0.00982 0.01831
 H961 H -0.04916 0.04782 -0.01024
 H962 H -0.05156 0.04529 0.02529
 H963 H 0.02329 -0.05784 -0.01041
 H964 H 0.04481 -0.03727 0.01227
 H965 H -0.02202 0.03609 -0.04811
 H966 H 0.00157 0.05477 -0.02826
 H967 H -0.02179 -0.05889 0.03894
 H968 H 0.00350 -0.03801 0.05900
 H969 H 0.04105 0.00859 -0.03532
 H970 H 0.02061 -0.01490 -0.05511
 H971 H -0.04170 0.00910 0.06116
 H972 H -0.06151 -0.01366 0.04486
 O973 O 0.00479 0.55595 0.52802
 O974 O -0.03168 0.54804 0.52917
 O975 O 0.03275 0.50270 0.55466
 O976 O 0.03048 0.46592 0.54754
 O977 O 0.05572 0.52819 0.49700
 O978 O 0.04524 0.52569 0.46065
 O979 O -0.02209 0.44444 0.50384
 O980 O -0.02004 0.45377 0.54090
 O981 O -0.05470 0.49835 0.47911
 O982 O -0.04775 0.53531 0.47931
 O983 O -0.00507 0.47221 0.44647
 O984 O 0.03061 0.47398 0.44762
 O985 O 0.00047 0.44451 0.47621
 O986 O 0.03834 0.45683 0.47256
 O987 O -0.03013 0.49687 0.44860
 O988 O -0.02655 0.53589 0.45551
 O989 O -0.05126 0.47144 0.50232
 O990 O -0.04218 0.47562 0.54151
 O991 O 0.02658 0.55649 0.49954
 O992 O 0.02139 0.54815 0.46241
 O993 O 0.05876 0.50225 0.52143
 O994 O 0.05120 0.46561 0.52356
 O995 O 0.00707 0.52674 0.55750
 O996 O -0.02966 0.52475 0.55272
 Zr997 Zr -0.00780 0.52562 0.52776
 O998 O -0.02884 0.50676 0.51092
 Zr999 Zr 0.02889 0.48963 0.52429
 O1000 O 0.00959 0.46911 0.50760
 Zr1001 Zr 0.02493 0.52603 0.48698
 O1002 O 0.00555 0.50698 0.46847
 Zr1003 Zr -0.02145 0.47517 0.51542
 O1004 O -0.00183 0.49400 0.53432
 Zr1005 Zr -0.02514 0.51151 0.47811
 O1006 O -0.00597 0.53241 0.49507
 Zr1007 Zr 0.01155 0.47543 0.47492
 O1008 O 0.03287 0.49444 0.49140
 O1009 O 0.02289 0.52102 0.51953
 O1010 O -0.01937 0.47981 0.48278
 C1011 C 0.01795 0.56503 0.51580
 C1012 C 0.02285 0.51694 0.56480
 C1013 C 0.06612 0.51731 0.51028
 C1014 C -0.01237 0.43527 0.48865
 C1015 C -0.06152 0.48209 0.48861
 C1016 C -0.02107 0.48157 0.43921
 H1017 H -0.04305 0.50995 0.51561
 H1018 H 0.00750 0.51015 0.45324
 H1019 H 0.03241 0.53002 0.52766
 H1020 H 0.01391 0.45475 0.51115
 H1021 H -0.00663 0.44647 0.53983
 H1022 H 0.01794 0.46727 0.55645
 H1023 H -0.01690 0.53253 0.44379
 H1024 H 0.00787 0.55497 0.46475
 H1025 H -0.05305 0.48604 0.53858
 H1026 H -0.02891 0.51057 0.55884
 H1027 H 0.03245 0.48841 0.44246
 H1028 H 0.05257 0.51215 0.46106
 H1029 H -0.03174 0.55520 0.51525
 H1030 H -0.05401 0.53506 0.49365
 H1031 H 0.05722 0.46569 0.50913
 H1032 H 0.03882 0.44831 0.48558
 O1033 O 0.49935 0.06462 0.52403
 O1034 O 0.46524 0.05784 0.53105
 O1035 O 0.52663 0.01082 0.55671
 O1036 O 0.52501 -0.02353 0.55365
 O1037 O 0.55160 0.03220 0.49819
 O1038 O 0.54210 0.02801 0.46193
 O1039 O 0.46733 -0.04625 0.50760
 O1040 O 0.47206 -0.03774 0.54288
 O1041 O 0.44031 0.00655 0.47928
 O1042 O 0.44864 0.04240 0.47568
 O1043 O 0.49108 -0.02289 0.44890
 O1044 O 0.52667 -0.02489 0.45402
 O1045 O 0.48955 -0.04897 0.48003
 O1046 O 0.52862 -0.04301 0.47982
 O1047 O 0.46641 0.00233 0.44911
 O1048 O 0.47165 0.04175 0.45466
 O1049 O 0.44107 -0.01731 0.50592
 O1050 O 0.45062 -0.01117 0.54410
 O1051 O 0.52334 0.06179 0.49771
 O1052 O 0.51907 0.05074 0.46102
 O1053 O 0.55314 0.00708 0.52361
 O1054 O 0.54234 -0.02987 0.52561
 O1055 O 0.50373 0.03769 0.55661
 O1056 O 0.46533 0.03394 0.55216
 Zr1057 Zr 0.48771 0.03425 0.52762
 O1058 O 0.46593 0.01610 0.51110
 Zr1059 Zr 0.52257 -0.00363 0.52704
 O1060 O 0.50190 -0.02402 0.51172
 Zr1061 Zr 0.52099 0.03059 0.48749
 O1062 O 0.50122 0.01122 0.46985
 Zr1063 Zr 0.47122 -0.01546 0.51817
 O1064 O 0.49194 0.00287 0.53631
 Zr1065 Zr 0.47059 0.01816 0.47813
 O1066 O 0.49026 0.03897 0.49454
 Zr1067 Zr 0.50508 -0.02013 0.47877
 O1068 O 0.52721 -0.00104 0.49406
 O1069 O 0.51830 0.02779 0.52023
 O1070 O 0.47429 -0.01334 0.48525
 C1071 C 0.51319 0.07229 0.51167
 C1072 C 0.51843 0.02713 0.56510
 C1073 C 0.56136 0.02132 0.51198
 C1074 C 0.47547 -0.05651 0.49226
 C1075 C 0.43183 -0.00746 0.49093
 C1076 C 0.47615 -0.01286 0.44033
 H1077 H 0.45186 0.02067 0.51503
 H1078 H 0.50403 0.01332 0.45456
 H1079 H 0.52804 0.03716 0.52765
 H1080 H 0.50460 -0.03853 0.51623
 H1081 H 0.48026 -0.03153 0.55451
 H1082 H 0.51429 -0.03437 0.55207
 H1083 H 0.48108 0.03704 0.44322
 H1084 H 0.50633 0.05906 0.46287
 H1085 H 0.44098 0.00027 0.54062
 H1086 H 0.46872 0.02207 0.56156
 H1087 H 0.53045 -0.01092 0.44871
 H1088 H 0.54953 0.01465 0.46380
 H1089 H 0.46031 0.06087 0.51656
 H1090 H 0.44379 0.04549 0.49022
 H1091 H 0.54862 -0.02990 0.51128
 H1092 H 0.52525 -0.05290 0.49138
 O1093 O 0.44032 0.49650 -0.01755
 O1094 O 0.44917 0.53288 -0.02042
 O1095 O 0.49124 0.46789 -0.05057
 O1096 O 0.52583 0.46973 -0.04835
 O1097 O 0.47108 0.44256 0.00839
 O1098 O 0.47532 0.45270 0.04466
 O1099 O 0.55137 0.52481 0.00011
 O1100 O 0.54232 0.51848 -0.03667
 O1101 O 0.50154 0.55377 0.02827
 O1102 O 0.46325 0.54638 0.02881
 O1103 O 0.52814 0.50307 0.05659
 O1104 O 0.52469 0.46425 0.05156
 O1105 O 0.55350 0.50000 0.02577
 O1106 O 0.54534 0.46287 0.02863
 O1107 O 0.50231 0.52704 0.05813
 O1108 O 0.46557 0.52689 0.05337
 O1109 O 0.52355 0.55288 0.00009
 O1110 O 0.52002 0.54472 -0.03574
 O1111 O 0.44226 0.47193 0.00837
 O1112 O 0.45242 0.47584 0.04493
 O1113 O 0.49459 0.44069 -0.01848
 O1114 O 0.53079 0.44931 -0.02136
 O1115 O 0.46659 0.49311 -0.04997
 O1116 O 0.46946 0.53021 -0.04525
 Zr1117 Zr 0.47057 0.50806 -0.02043
 O1118 O 0.49010 0.52897 -0.00431
 Zr1119 Zr 0.50642 0.47123 -0.02129
 O1120 O 0.52773 0.49053 -0.00531
 Zr1121 Zr 0.47302 0.47365 0.01889
 O1122 O 0.49275 0.49296 0.03666
 Zr1123 Zr 0.52106 0.52207 -0.01135
 O1124 O 0.50137 0.50269 -0.02969
 Zr1125 Zr 0.48752 0.52425 0.02860
 O1126 O 0.46596 0.50509 0.01261
 Zr1127 Zr 0.52355 0.48741 0.02766
 O1128 O 0.50394 0.46622 0.01165
 O1129 O 0.47569 0.47675 -0.01381
 O1130 O 0.51852 0.51892 0.02149
 C1131 C 0.43227 0.48237 -0.00566
 C1132 C 0.47595 0.47770 -0.05884
 C1133 C 0.48103 0.43251 -0.00605
 C1134 C 0.56125 0.51463 0.01436
 C1135 C 0.51484 0.56220 0.01585
 C1136 C 0.51809 0.51772 0.06591
 H1137 H 0.48651 0.54342 -0.00831
 H1138 H 0.49040 0.49042 0.05196
 H1139 H 0.46616 0.46726 -0.02136
 H1140 H 0.54192 0.48691 -0.00980
 H1141 H 0.53457 0.51270 -0.04886
 H1142 H 0.53826 0.47812 -0.04526
 H1143 H 0.46449 0.51304 0.06010
 H1144 H 0.44452 0.48892 0.04308
 H1145 H 0.50535 0.54787 -0.03833
 H1146 H 0.48154 0.52754 -0.05454
 H1147 H 0.51416 0.46769 0.06242
 H1148 H 0.48907 0.44608 0.04352
 H1149 H 0.44520 0.53508 -0.00541
 H1150 H 0.46574 0.55638 0.01712
 H1151 H 0.53240 0.44480 -0.00648
 H1152 H 0.55298 0.46299 0.01503
 O1153 O 0.80885 0.25111 0.47847
 O1154 O 0.80133 0.21436 0.47850
 O1155 O 0.75740 0.27496 0.44243
 O1156 O 0.72291 0.27471 0.44519
 O1157 O 0.77568 0.30562 0.50074
 O1158 O 0.77221 0.29787 0.53714
 O1159 O 0.69734 0.22306 0.49245
 O1160 O 0.71049 0.22343 0.45693
 O1161 O 0.74863 0.19494 0.52675
 O1162 O 0.78499 0.20318 0.52914
 O1163 O 0.71913 0.24773 0.55148
 O1164 O 0.71996 0.28518 0.54357
 O1165 O 0.69482 0.24598 0.51970
 O1166 O 0.70153 0.28473 0.51820
 O1167 O 0.74387 0.22281 0.55396
 O1168 O 0.78275 0.22684 0.55041
 O1169 O 0.72429 0.19519 0.50085
 O1170 O 0.73211 0.19691 0.46530
 O1171 O 0.80549 0.27713 0.50287
 O1172 O 0.79397 0.27423 0.53986
 O1173 O 0.75467 0.30451 0.47187
 O1174 O 0.71751 0.29544 0.47132
 O1175 O 0.78359 0.25156 0.44564
 O1176 O 0.78178 0.21425 0.45303
 Zr1177 Zr 0.77911 0.23830 0.47594
 O1178 O 0.75957 0.21806 0.49298
 Zr1179 Zr 0.74240 0.27408 0.47201
 O1180 O 0.72106 0.25528 0.48842
 Zr1181 Zr 0.77454 0.27511 0.51298
 O1182 O 0.75442 0.25675 0.53143
 Zr1183 Zr 0.72878 0.22367 0.48470
 O1184 O 0.74852 0.24228 0.46559
 Zr1185 Zr 0.76088 0.22516 0.52557
 O1186 O 0.78255 0.24355 0.50879
 Zr1187 Zr 0.72384 0.26080 0.52118
 O1188 O 0.74373 0.28138 0.50460
 O1189 O 0.77299 0.26979 0.48050
 O1190 O 0.73003 0.22923 0.51722
 C1191 C 0.81609 0.26630 0.48951
 C1192 C 0.77346 0.26548 0.43535
 C1193 C 0.76705 0.31401 0.48451
 C1194 C 0.68722 0.23181 0.50750
 C1195 C 0.73374 0.18661 0.51650
 C1196 C 0.72808 0.23268 0.56121
 H1197 H 0.76339 0.20339 0.49005
 H1198 H 0.75601 0.26042 0.54659
 H1199 H 0.78247 0.27891 0.47241
 H1200 H 0.70707 0.25831 0.48306
 H1201 H 0.71957 0.22742 0.44493
 H1202 H 0.71318 0.26296 0.44680
 H1203 H 0.77830 0.23790 0.56040
 H1204 H 0.80195 0.26109 0.53890
 H1205 H 0.74444 0.19927 0.45642
 H1206 H 0.77092 0.21664 0.44229
 H1207 H 0.73108 0.28393 0.55421
 H1208 H 0.75752 0.30198 0.53765
 H1209 H 0.80537 0.21396 0.49362
 H1210 H 0.78517 0.19420 0.51634
 H1211 H 0.71819 0.30367 0.48462
 H1212 H 0.69343 0.28191 0.50523
 O1213 O 0.77373 0.80149 0.00048
 O1214 O 0.77323 0.79439 0.03722
 O1215 O 0.80500 0.74546 -0.02263
 O1216 O 0.79871 0.71165 -0.02573
 O1217 O 0.75081 0.77097 -0.05511
 O1218 O 0.71451 0.76869 -0.04761
 O1219 O 0.74809 0.69156 0.03157
 O1220 O 0.78350 0.69794 0.02867
 O1221 O 0.72077 0.74441 0.05692
 O1222 O 0.72163 0.78193 0.04849
 O1223 O 0.69586 0.71684 0.00299
 O1224 O 0.70376 0.71685 -0.03451
 O1225 O 0.72465 0.68985 0.00489
 O1226 O 0.72779 0.69703 -0.03459
 O1227 O 0.69410 0.74305 0.02728
 O1228 O 0.70116 0.78122 0.02480
 O1229 O 0.74700 0.72095 0.05889
 O1230 O 0.78431 0.72369 0.05169
 O1231 O 0.74991 0.80029 -0.02595
 O1232 O 0.71357 0.79179 -0.02417
 O1233 O 0.77640 0.74677 -0.05404
 O1234 O 0.77256 0.70859 -0.04480
 O1235 O 0.80357 0.77245 0.00086
 O1236 O 0.79496 0.77096 0.03852
 Zr1237 Zr 0.77341 0.77120 0.01340
 O1238 O 0.75478 0.75334 0.03390
 Zr1239 Zr 0.77472 0.73384 -0.02321
 O1240 O 0.75707 0.71387 -0.00373
 Zr1241 Zr 0.73792 0.76983 -0.02443
 O1242 O 0.71815 0.75106 -0.00599
 Zr1243 Zr 0.76074 0.72158 0.02850
 O1244 O 0.78089 0.73946 0.00924
 Zr1245 Zr 0.72346 0.75714 0.02629
 O1246 O 0.74196 0.77747 0.00780
 Zr1247 Zr 0.72572 0.71936 -0.00985
 O1248 O 0.74347 0.73805 -0.03083
 O1249 O 0.76918 0.76545 -0.01875
 O1250 O 0.72937 0.72539 0.02247
 C1251 C 0.76351 0.80985 -0.01477
 C1252 C 0.81321 0.76071 -0.01245
 C1253 C 0.76578 0.76082 -0.06369
 C1254 C 0.73396 0.68210 0.02107
 C1255 C 0.73130 0.73052 0.06677
 C1256 C 0.68640 0.72731 0.01743
 H1257 H 0.75755 0.75748 0.04874
 H1258 H 0.70370 0.75390 -0.01001
 H1259 H 0.77816 0.77436 -0.02767
 H1260 H 0.76106 0.69921 -0.00638
 H1261 H 0.79568 0.70366 0.02115
 H1262 H 0.79668 0.70158 -0.01405
 H1263 H 0.69243 0.77866 0.01221
 H1264 H 0.71451 0.79945 -0.01054
 H1265 H 0.78179 0.73627 0.06043
 H1266 H 0.80279 0.75775 0.03728
 H1267 H 0.69512 0.72956 -0.03416
 H1268 H 0.71420 0.75411 -0.05277
 H1269 H 0.75857 0.79799 0.03956
 H1270 H 0.73316 0.78040 0.05861
 H1271 H 0.76086 0.71160 -0.05439
 H1272 H 0.73915 0.68732 -0.03114
 O1273 O 1.00874 0.20292 0.21939
 O1274 O 0.97146 0.20928 0.22000
 O1275 O 1.02987 0.26029 0.19009
 O1276 O 1.03151 0.29393 0.19776
 O1277 O 1.05914 0.23412 0.24686
 O1278 O 1.04962 0.23656 0.28461
 O1279 O 0.97588 0.31265 0.24596
 O1280 O 0.98157 0.30503 0.20828
 O1281 O 0.94811 0.25997 0.27079
 O1282 O 0.95692 0.22075 0.26749
 O1283 O 0.99851 0.28445 0.30207
 O1284 O 1.03615 0.28440 0.29547
 O1285 O 0.99805 0.31267 0.27389
 O1286 O 1.03564 0.30719 0.27352
 O1287 O 0.97479 0.25842 0.30096
 O1288 O 0.97514 0.22229 0.29297
 O1289 O 0.94826 0.28364 0.24407
 O1290 O 0.95562 0.28272 0.20898
 O1291 O 1.03148 0.20386 0.24671
 O1292 O 1.02882 0.21185 0.28363
 O1293 O 1.05879 0.25798 0.22012
 O1294 O 1.05042 0.29550 0.22571
 O1295 O 1.00924 0.23178 0.19010
 O1296 O 0.97221 0.23162 0.19553
 Zr1297 Zr 0.99443 0.23265 0.22000
 O1298 O 0.97300 0.25069 0.23739
 Zr1299 Zr 1.02900 0.27091 0.22165
 O1300 O 1.00932 0.29029 0.23951
 Zr1301 Zr 1.02870 0.23425 0.25902
 O1302 O 1.00858 0.25174 0.27837
 Zr1303 Zr 0.97865 0.28261 0.23273
 O1304 O 0.99824 0.26462 0.21297
 Zr1305 Zr 0.97771 0.24610 0.27001
 O1306 O 0.99783 0.22616 0.25263
 Zr1307 Zr 1.01285 0.28362 0.27203
 O1308 O 1.03463 0.26613 0.25423
 O1309 O 1.02488 0.23924 0.22679
 O1310 O 0.98187 0.27796 0.26536
 C1311 C 1.02306 0.19470 0.23083
 C1312 C 1.02241 0.24400 0.18115
 C1313 C 1.06764 0.24389 0.23130
 C1314 C 0.98424 0.32119 0.26224
 C1315 C 0.93944 0.27426 0.25958
 C1316 C 0.98423 0.27332 0.31055
 H1317 H 0.95885 0.24688 0.23310
 H1318 H 1.01125 0.24816 0.29338
 H1319 H 1.03406 0.23056 0.21802
 H1320 H 1.01223 0.30505 0.23618
 H1321 H 0.98757 0.29780 0.19578
 H1322 H 1.02156 0.30512 0.20128
 H1323 H 0.98931 0.21927 0.29774
 H1324 H 1.01617 0.20338 0.28194
 H1325 H 0.95322 0.26806 0.20488
 H1326 H 0.97373 0.24470 0.18734
 H1327 H 1.03469 0.27171 0.30426
 H1328 H 1.05701 0.24996 0.28288
 H1329 H 0.97237 0.20214 0.23389
 H1330 H 0.94651 0.22427 0.25661
 H1331 H 1.05819 0.29256 0.23888
 H1332 H 1.03477 0.31550 0.26034
 O1333 O 0.74851 1.05213 0.72017
 O1334 O 0.78358 1.04474 0.71618
 O1335 O 0.72239 0.99643 0.69046
 O1336 O 0.72126 0.96203 0.69717
 O1337 O 0.69648 1.02151 0.74918
 O1338 O 0.70673 1.01946 0.78525
 O1339 O 0.77895 0.94155 0.74234
 O1340 O 0.77403 0.94889 0.70659
 O1341 O 0.80704 0.99405 0.76898
 O1342 O 0.79970 1.03273 0.76663
 O1343 O 0.75893 0.96880 0.79989
 O1344 O 0.72051 0.96915 0.79534
 O1345 O 0.75869 0.94162 0.77168
 O1346 O 0.72025 0.94679 0.77259
 O1347 O 0.78139 0.99583 0.79913
 O1348 O 0.77942 1.03293 0.79083
 O1349 O 0.80583 0.96929 0.74309
 O1350 O 0.79671 0.97440 0.70449
 O1351 O 0.72475 1.05108 0.74687
 O1352 O 0.72954 1.04274 0.78404
 O1353 O 0.69478 0.99684 0.72326
 O1354 O 0.70408 0.95937 0.72533
 O1355 O 0.74562 1.02302 0.68944
 O1356 O 0.78277 1.02096 0.69426
 Zr1357 Zr 0.76055 1.02166 0.71892
 O1358 O 0.78217 1.00373 0.73578
 Zr1359 Zr 0.72494 0.98443 0.72153
 O1360 O 0.74527 0.96455 0.73805
 Zr1361 Zr 0.72731 1.02066 0.75918
 O1362 O 0.74726 1.00232 0.77772
 Zr1363 Zr 0.77595 0.97198 0.73053
 O1364 O 0.75561 0.98993 0.71178
 Zr1365 Zr 0.77784 1.00826 0.76853
 O1366 O 0.75802 1.02833 0.75159
 Zr1367 Zr 0.74291 0.97049 0.77084
 O1368 O 0.72083 0.98881 0.75441
 O1369 O 0.72982 1.01607 0.72658
 O1370 O 0.77346 0.97650 0.76322
 C1371 C 0.73468 1.06059 0.73207
 C1372 C 0.73167 1.01153 0.68098
 C1373 C 0.68663 1.01107 0.73505
 C1374 C 0.77222 0.93305 0.75941
 C1375 C 0.81485 0.97892 0.75831
 C1376 C 0.77342 0.97985 0.80814
 H1377 H 0.79631 1.00755 0.73139
 H1378 H 0.74483 1.00551 0.79289
 H1379 H 0.72029 1.02499 0.71834
 H1380 H 0.74223 0.94984 0.73453
 H1381 H 0.76617 0.95507 0.69470
 H1382 H 0.73223 0.95150 0.69907
 H1383 H 0.76734 1.03167 0.80038
 H1384 H 0.74241 1.05068 0.78156
 H1385 H 0.80731 0.98496 0.70787
 H1386 H 0.78107 1.00746 0.68682
 H1387 H 0.72274 0.98128 0.80479
 H1388 H 0.70098 1.00516 0.78546
 H1389 H 0.78799 1.04789 0.73085
 H1390 H 0.80970 1.02932 0.75524
 H1391 H 0.69923 0.95989 0.74023
 H1392 H 0.72241 0.93721 0.76045
 O1393 O 0.80774 0.49842 0.27220
 O1394 O 0.79973 0.53454 0.27030
 O1395 O 0.75834 0.47314 0.30806
 O1396 O 0.72354 0.47449 0.30674
 O1397 O 0.77610 0.44238 0.25010
 O1398 O 0.77271 0.45008 0.21368
 O1399 O 0.69659 0.52519 0.25461
 O1400 O 0.70579 0.52241 0.29074
 O1401 O 0.74479 0.55161 0.22222
 O1402 O 0.78255 0.54506 0.22035
 O1403 O 0.71867 0.49748 0.19877
 O1404 O 0.72179 0.45967 0.20829
 O1405 O 0.69396 0.49885 0.23055
 O1406 O 0.70160 0.46113 0.23143
 O1407 O 0.74358 0.52207 0.19479
 O1408 O 0.78143 0.52172 0.19922
 O1409 O 0.72322 0.55260 0.25077
 O1410 O 0.72999 0.54702 0.28859
 O1411 O 0.80536 0.47141 0.24878
 O1412 O 0.79503 0.47371 0.21173
 O1413 O 0.75344 0.44261 0.27777
 O1414 O 0.71810 0.45167 0.28260
 O1415 O 0.78182 0.49931 0.30504
 O1416 O 0.77881 0.53562 0.29575
 Zr1417 Zr 0.77767 0.51055 0.27393
 O1418 O 0.75766 0.52980 0.25643
 Zr1419 Zr 0.74216 0.47358 0.27907
 O1420 O 0.72034 0.49135 0.26208
 Zr1421 Zr 0.77458 0.47281 0.23795
 O1422 O 0.75412 0.49021 0.21904
 Zr1423 Zr 0.72708 0.52331 0.26521
 O1424 O 0.74723 0.50564 0.28455
 Zr1425 Zr 0.75929 0.52218 0.22400
 O1426 O 0.78140 0.50472 0.24120
 Zr1427 Zr 0.72362 0.48536 0.22938
 O1428 O 0.74388 0.46584 0.24659
 O1429 O 0.77258 0.47868 0.27034
 O1430 O 0.72865 0.51727 0.23266
 C1431 C 0.81538 0.48286 0.26200
 C1432 C 0.77317 0.48439 0.31535
 C1433 C 0.76625 0.43334 0.26521
 C1434 C 0.68653 0.51442 0.24095
 C1435 C 0.73111 0.56061 0.23392
 C1436 C 0.72794 0.51171 0.18809
 H1437 H 0.76126 0.54457 0.25888
 H1438 H 0.75606 0.48618 0.20401
 H1439 H 0.78204 0.46979 0.27863
 H1440 H 0.70627 0.48819 0.26725
 H1441 H 0.71333 0.51709 0.30326
 H1442 H 0.71103 0.48264 0.30333
 H1443 H 0.77969 0.50850 0.19132
 H1444 H 0.80245 0.48718 0.21254
 H1445 H 0.74178 0.55605 0.28476
 H1446 H 0.76604 0.53484 0.30438
 H1447 H 0.73216 0.46176 0.19692
 H1448 H 0.75884 0.44376 0.21487
 H1449 H 0.80429 0.53408 0.25529
 H1450 H 0.78186 0.55454 0.23275
 H1451 H 0.71441 0.44730 0.26808
 H1452 H 0.69413 0.46289 0.24501
 O1453 O 0.47822 0.30766 0.74773
 O1454 O 0.48218 0.29743 0.71128
 O1455 O 0.44985 0.25453 0.77627
 O1456 O 0.45610 0.22056 0.77902
 O1457 O 0.50212 0.28347 0.80603
 O1458 O 0.53835 0.28233 0.79955
 O1459 O 0.50856 0.19588 0.72965
 O1460 O 0.47146 0.20407 0.72951
 O1461 O 0.53565 0.24692 0.69803
 O1462 O 0.53187 0.28586 0.70267
 O1463 O 0.56010 0.22657 0.75479
 O1464 O 0.55178 0.23041 0.79173
 O1465 O 0.53226 0.19809 0.75605
 O1466 O 0.52843 0.20998 0.79405
 O1467 O 0.56173 0.25094 0.72865
 O1468 O 0.55356 0.28716 0.72486
 O1469 O 0.51102 0.22172 0.69842
 O1470 O 0.47550 0.22301 0.70158
 O1471 O 0.50177 0.31017 0.77433
 O1472 O 0.53870 0.30343 0.77404
 O1473 O 0.47791 0.25782 0.80702
 O1474 O 0.48151 0.21990 0.80132
 O1475 O 0.45026 0.27745 0.74869
 O1476 O 0.45998 0.27355 0.71173
 Zr1477 Zr 0.48094 0.27657 0.73719
 O1478 O 0.50056 0.25716 0.71911
 Zr1479 Zr 0.48006 0.24286 0.77723
 O1480 O 0.49906 0.22173 0.76063
 Zr1481 Zr 0.51548 0.28034 0.77580
 O1482 O 0.53633 0.26068 0.75974
 Zr1483 Zr 0.49582 0.22593 0.72772
 O1484 O 0.47454 0.24518 0.74426
 Zr1485 Zr 0.53152 0.26299 0.72690
 O1486 O 0.51203 0.28452 0.74290
 Zr1487 Zr 0.53001 0.22920 0.76679
 O1488 O 0.51091 0.24913 0.78520
 O1489 O 0.48465 0.27403 0.76983
 O1490 O 0.52691 0.23152 0.73392
 C1491 C 0.48733 0.31774 0.76267
 C1492 C 0.44124 0.26812 0.76425
 C1493 C 0.48758 0.27334 0.81524
 C1494 C 0.52232 0.18787 0.74179
 C1495 C 0.52629 0.23127 0.68977
 C1496 C 0.56979 0.23666 0.74030
 H1497 H 0.49802 0.25943 0.70383
 H1498 H 0.55053 0.26469 0.76367
 H1499 H 0.47522 0.28327 0.77789
 H1500 H 0.49546 0.20737 0.76496
 H1501 H 0.45894 0.21168 0.73422
 H1502 H 0.46034 0.20853 0.77017
 H1503 H 0.55782 0.29043 0.73953
 H1504 H 0.53686 0.31075 0.76034
 H1505 H 0.47367 0.23699 0.69530
 H1506 H 0.45278 0.26008 0.71374
 H1507 H 0.55902 0.24394 0.79076
 H1508 H 0.53795 0.26895 0.80736
 H1509 H 0.49590 0.30415 0.71180
 H1510 H 0.52107 0.28225 0.69225
 H1511 H 0.49361 0.22323 0.81024
 H1512 H 0.51726 0.19971 0.79182
 O1513 O 0.19346 0.72715 0.50002
 O1514 O 0.20165 0.72984 0.46295
 O1515 O 0.24827 0.69708 0.52425
 O1516 O 0.28185 0.70391 0.52697
 O1517 O 0.22105 0.75033 0.55624
 O1518 O 0.22407 0.78755 0.54986
 O1519 O 0.30236 0.75639 0.47252
 O1520 O 0.29627 0.71922 0.47621
 O1521 O 0.25057 0.78174 0.44523
 O1522 O 0.21246 0.77910 0.45319
 O1523 O 0.27497 0.80816 0.50002
 O1524 O 0.27308 0.80023 0.53784
 O1525 O 0.30238 0.78032 0.49927
 O1526 O 0.29412 0.77696 0.53821
 O1527 O 0.25016 0.80907 0.47463
 O1528 O 0.21329 0.80182 0.47455
 O1529 O 0.27468 0.75598 0.44410
 O1530 O 0.27410 0.71997 0.44980
 O1531 O 0.19257 0.75252 0.52534
 O1532 O 0.20106 0.78858 0.52776
 O1533 O 0.24615 0.72550 0.55573
 O1534 O 0.28336 0.73008 0.54793
 O1535 O 0.22236 0.69820 0.49998
 O1536 O 0.22404 0.70650 0.46277
 Zr1537 Zr 0.22357 0.72866 0.48770
 O1538 O 0.24184 0.74752 0.46788
 Zr1539 Zr 0.25944 0.72781 0.52522
 O1540 O 0.27943 0.74651 0.50686
 Zr1541 Zr 0.22298 0.76429 0.52605
 O1542 O 0.24135 0.78478 0.50793
 Zr1543 Zr 0.27315 0.74244 0.47445
 O1544 O 0.25494 0.72160 0.49258
 Zr1545 Zr 0.23688 0.77908 0.47542
 O1546 O 0.21655 0.76030 0.49355
 Zr1547 Zr 0.27274 0.77805 0.51290
 O1548 O 0.25428 0.75928 0.53311
 O1549 O 0.22818 0.73286 0.52005
 O1550 O 0.26823 0.77404 0.48038
 C1551 C 0.18410 0.73802 0.51424
 C1552 C 0.23360 0.68864 0.51361
 C1553 C 0.23137 0.73547 0.56485
 C1554 C 0.31086 0.77086 0.48350
 C1555 C 0.26477 0.77125 0.43579
 C1556 C 0.26495 0.81740 0.48523
 H1557 H 0.23853 0.74439 0.45289
 H1558 H 0.23791 0.79934 0.51172
 H1559 H 0.21918 0.72361 0.52856
 H1560 H 0.29394 0.74299 0.51004
 H1561 H 0.28957 0.70644 0.48173
 H1562 H 0.29316 0.70769 0.51713
 H1563 H 0.21272 0.80838 0.48873
 H1564 H 0.19572 0.79030 0.51319
 H1565 H 0.25971 0.71711 0.44570
 H1566 H 0.23678 0.69815 0.46447
 H1567 H 0.26000 0.80814 0.53722
 H1568 H 0.23741 0.78584 0.55726
 H1569 H 0.19481 0.74361 0.46403
 H1570 H 0.21513 0.76787 0.44274
 H1571 H 0.28039 0.74248 0.55682
 H1572 H 0.30378 0.76532 0.53542
 O1573 O 0.24990 0.27038 0.93381
 O1574 O 0.21368 0.27161 0.94210
 O1575 O 0.27338 0.29946 0.99193
 O1576 O 0.27352 0.29199 1.02668
 O1577 O 0.30360 0.24481 0.96508
 O1578 O 0.29521 0.20846 0.96443
 O1579 O 0.22116 0.24283 1.04614
 O1580 O 0.22385 0.27968 1.03815
 O1581 O 0.19291 0.21873 0.98921
 O1582 O 0.20153 0.21868 0.95230
 O1583 O 0.24452 0.18873 1.01633
 O1584 O 0.28050 0.19412 1.01695
 O1585 O 0.24551 0.21736 1.04612
 O1586 O 0.28374 0.21724 1.03633
 O1587 O 0.21993 0.18993 0.99075
 O1588 O 0.22476 0.19842 0.95146
 O1589 O 0.19334 0.24153 1.01692
 O1590 O 0.19766 0.27669 1.01581
 O1591 O 0.27550 0.24608 0.93437
 O1592 O 0.27248 0.20908 0.94142
 O1593 O 0.30237 0.27048 0.99003
 O1594 O 0.29427 0.26637 1.02793
 O1595 O 0.25132 0.29965 0.96392
 O1596 O 0.21448 0.29337 0.96572
 Zr1597 Zr 0.23748 0.26997 0.96484
 O1598 O 0.21708 0.25138 0.98271
 Zr1599 Zr 0.27258 0.26860 1.00296
 O1600 O 0.25377 0.25005 1.02265
 Zr1601 Zr 0.27324 0.23278 0.96481
 O1602 O 0.25442 0.21256 0.98280
 Zr1603 Zr 0.22264 0.25542 1.01536
 O1604 O 0.24138 0.27610 0.99748
 Zr1605 Zr 0.22325 0.21967 0.97722
 O1606 O 0.24202 0.23831 0.95720
 Zr1607 Zr 0.25847 0.21838 1.01533
 O1608 O 0.27933 0.23685 0.99738
 O1609 O 0.26847 0.26431 0.97054
 O1610 O 0.22723 0.22366 1.00990
 C1611 C 0.26475 0.26016 0.92505
 C1612 C 0.26449 0.30843 0.97622
 C1613 C 0.31183 0.25968 0.97587
 C1614 C 0.23146 0.22832 1.05535
 C1615 C 0.18435 0.22803 1.00504
 C1616 C 0.22969 0.18064 1.00566
 H1617 H 0.20273 0.25502 0.97896
 H1618 H 0.25771 0.19793 0.97917
 H1619 H 0.27753 0.27325 0.96175
 H1620 H 0.25698 0.25335 1.03763
 H1621 H 0.22859 0.29241 1.03070
 H1622 H 0.26303 0.28837 1.03748
 H1623 H 0.23510 0.18760 0.95491
 H1624 H 0.25921 0.21063 0.93385
 H1625 H 0.19628 0.28223 1.00127
 H1626 H 0.21658 0.30140 0.97899
 H1627 H 0.28272 0.18898 1.00233
 H1628 H 0.30090 0.20779 0.97895
 H1629 H 0.21320 0.25778 0.93519
 H1630 H 0.19550 0.23276 0.95120
 H1631 H 0.30369 0.25467 1.02445
 H1632 H 0.28478 0.23118 1.04285
 C1633 C 0.26695 0.37741 0.76975
 C1634 C 0.28789 0.37249 0.77385
 C1635 C 0.30291 0.38799 0.77134
 C1636 C 0.29744 0.40832 0.76616
 C1637 C 0.27673 0.41406 0.76401
 C1638 C 0.26130 0.39838 0.76491
 C1639 C 0.25161 0.36180 0.76943
 C1640 C 0.23114 0.36677 0.76506
 C1641 C 0.22562 0.38721 0.76038
 C1642 C 0.24054 0.40284 0.76002
 H1643 H 0.25529 0.34556 0.77194
 H1644 H 0.21956 0.35462 0.76488
 H1645 H 0.20977 0.39090 0.75656
 H1646 H 0.23575 0.41821 0.75518
 H1647 H 0.31903 0.38438 0.77388
 H1648 H 0.30950 0.41979 0.76428
 C1649 C 0.30881 -0.10232 0.27525
 C1650 C 0.29470 -0.11640 0.28513
 C1651 C 0.27391 -0.11048 0.28674
 C1652 C 0.26689 -0.09185 0.27823
 C1653 C 0.28008 -0.07843 0.26707
 C1654 C 0.30126 -0.08420 0.26456
 C1655 C 0.33041 -0.10476 0.27734
 C1656 C 0.34409 -0.09201 0.26634
 C1657 C 0.33664 -0.07616 0.25355
 C1658 C 0.31557 -0.07202 0.25288
 H1659 H 0.33705 -0.11597 0.28811
 H1660 H 0.36056 -0.09433 0.26790
 H1661 H 0.34732 -0.06638 0.24484
 H1662 H 0.31117 -0.05905 0.24322
 H1663 H 0.26268 -0.12061 0.29415
 H1664 H 0.25074 -0.08795 0.28030
 C1665 C 0.80978 0.88889 0.77488
 C1666 C 0.79604 0.87536 0.78608
 C1667 C 0.77532 0.88149 0.78806
 C1668 C 0.76803 0.89967 0.77863
 C1669 C 0.78079 0.91232 0.76603
 C1670 C 0.80186 0.90620 0.76311
 C1671 C 0.83144 0.88677 0.77661
 C1672 C 0.84476 0.89864 0.76422
 C1673 C 0.83689 0.91331 0.75030
 C1674 C 0.81578 0.91732 0.74989
 H1675 H 0.83840 0.87651 0.78812
 H1676 H 0.86127 0.89654 0.76552
 H1677 H 0.84727 0.92231 0.74042
 H1678 H 0.81108 0.92926 0.73908
 H1679 H 0.76433 0.87188 0.79652
 H1680 H 0.75200 0.90379 0.78113
 C1681 C 0.48520 0.87618 0.28302
 C1682 C 0.46346 0.87963 0.28326
 C1683 C 0.45057 0.86411 0.27488
 C1684 C 0.45837 0.84483 0.26870
 C1685 C 0.47945 0.84023 0.27026
 C1686 C 0.49322 0.85634 0.27654
 C1687 C 0.49925 0.89253 0.28722
 C1688 C 0.52046 0.88919 0.28645
 C1689 C 0.52821 0.86981 0.28061
 C1690 C 0.51481 0.85368 0.27532
 H1691 H 0.49416 0.90829 0.29023
 H1692 H 0.53096 0.90188 0.28981
 H1693 H 0.54471 0.86746 0.27951
 H1694 H 0.52165 0.83953 0.26939
 H1695 H 0.43402 0.86631 0.27442
 H1696 H 0.44759 0.83308 0.26333
 C1697 C -0.01279 0.86921 0.78375
 C1698 C -0.03445 0.87291 0.78410
 C1699 C -0.04764 0.85758 0.77582
 C1700 C -0.04018 0.83820 0.76954
 C1701 C -0.01910 0.83352 0.77052
 C1702 C -0.00507 0.84949 0.77662
 C1703 C 0.00146 0.88522 0.78855
 C1704 C 0.02263 0.88171 0.78727
 C1705 C 0.03010 0.86256 0.78036
 C1706 C 0.01646 0.84676 0.77470
 H1707 H -0.00343 0.90085 0.79247
 H1708 H 0.03329 0.89415 0.79105
 H1709 H 0.04655 0.86014 0.77876
 H1710 H 0.02303 0.83285 0.76790
 H1711 H -0.06416 0.86007 0.77558
 H1712 H -0.05119 0.82645 0.76463
 C1713 C -0.06001 -0.11134 -0.02980
 C1714 C -0.04426 -0.12670 -0.03043
 C1715 C -0.02397 -0.12110 -0.02564
 C1716 C -0.01911 -0.10079 -0.01971
 C1717 C -0.03443 -0.08544 -0.01823
 C1718 C -0.05510 -0.09057 -0.02347
 C1719 C -0.08035 -0.11597 -0.03617
 C1720 C -0.09569 -0.10074 -0.03554
 C1721 C -0.09098 -0.08056 -0.02909
 C1722 C -0.07087 -0.07536 -0.02343
 H1723 H -0.08461 -0.13118 -0.04206
 H1724 H -0.11125 -0.10455 -0.04033
 H1725 H -0.10295 -0.06883 -0.02878
 H1726 H -0.06781 -0.05932 -0.01940
 H1727 H -0.01182 -0.13268 -0.02641
 H1728 H -0.00323 -0.09704 -0.01602
 C1729 C -0.00978 0.37783 0.47033
 C1730 C -0.03098 0.37250 0.47288
 C1731 C -0.04366 0.38615 0.48455
 C1732 C -0.03679 0.40578 0.49051
 C1733 C -0.01704 0.41278 0.48499
 C1734 C -0.00283 0.39820 0.47615
 C1735 C 0.00497 0.36284 0.46385
 C1736 C 0.02568 0.36811 0.46153
 C1737 C 0.03233 0.38808 0.46654
 C1738 C 0.01837 0.40283 0.47418
 H1739 H 0.00092 0.34668 0.46143
 H1740 H 0.03672 0.35645 0.45641
 H1741 H 0.04854 0.39195 0.46526
 H1742 H 0.02465 0.41737 0.47953
 H1743 H -0.05970 0.38258 0.48754
 H1744 H -0.04768 0.41609 0.49832
 C1745 C 0.44040 -0.10404 0.48222
 C1746 C 0.45387 -0.11656 0.46946
 C1747 C 0.47390 -0.10910 0.46562
 C1748 C 0.48062 -0.09028 0.47399
 C1749 C 0.46812 -0.07821 0.48751
 C1750 C 0.44829 -0.08621 0.49323
 C1751 C 0.41891 -0.10774 0.48313
 C1752 C 0.40646 -0.09736 0.49777
 C1753 C 0.41503 -0.08275 0.51139
 C1754 C 0.43562 -0.07696 0.50904
 H1755 H 0.41137 -0.11823 0.47221
 H1756 H 0.39014 -0.10080 0.49866
 H1757 H 0.40547 -0.07520 0.52326
 H1758 H 0.44111 -0.06546 0.52007
 H1759 H 0.48483 -0.11802 0.45630
 H1760 H 0.49601 -0.08516 0.46976
 C1761 C 0.48468 0.37385 -0.01786
 C1762 C 0.46338 0.36930 -0.02082
 C1763 C 0.44876 0.38464 -0.01541
 C1764 C 0.45486 0.40476 -0.00997
 C1765 C 0.47575 0.41021 -0.00924
 C1766 C 0.49086 0.39444 -0.01206
 C1767 C 0.49985 0.35803 -0.01892
 C1768 C 0.52060 0.36255 -0.01552
 C1769 C 0.52661 0.38269 -0.01023
 C1770 C 0.51190 0.39841 -0.00816
 H1771 H 0.49585 0.34188 -0.02154
 H1772 H 0.53200 0.35024 -0.01646
 H1773 H 0.54268 0.38602 -0.00711
 H1774 H 0.51707 0.41340 -0.00262
 H1775 H 0.43243 0.38161 -0.01708
 H1776 H 0.44307 0.41646 -0.00732
 C1777 C 0.77851 0.37252 0.48857
 C1778 C 0.78662 0.37598 0.46796
 C1779 C 0.78685 0.35965 0.45319
 C1780 C 0.77998 0.33984 0.45877
 C1781 C 0.77262 0.33575 0.47930
 C1782 C 0.77140 0.35226 0.49430
 C1783 C 0.77669 0.38896 0.50339
 C1784 C 0.76830 0.38547 0.52349
 C1785 C 0.76126 0.36573 0.52906
 C1786 C 0.76259 0.34929 0.51460
 H1787 H 0.78135 0.40468 0.49951
 H1788 H 0.76699 0.39823 0.53470
 H1789 H 0.75446 0.36320 0.54458
 H1790 H 0.75623 0.33444 0.51929
 H1791 H 0.79281 0.36224 0.43733
 H1792 H 0.78092 0.32742 0.44710
 C1793 C 0.77605 0.86843 -0.01264
 C1794 C 0.78115 0.87184 -0.03444
 C1795 C 0.77795 0.85549 -0.04899
 C1796 C 0.77188 0.83580 -0.04225
 C1797 C 0.76847 0.83162 -0.02073
 C1798 C 0.76989 0.84812 -0.00577
 C1799 C 0.77511 0.88505 0.00214
 C1800 C 0.76979 0.88156 0.02330
 C1801 C 0.76448 0.86166 0.03007
 C1802 C 0.76415 0.84517 0.01567
 H1803 H 0.77753 0.90105 -0.00251
 H1804 H 0.76927 0.89447 0.03439
 H1805 H 0.75996 0.85912 0.04643
 H1806 H 0.75862 0.83035 0.02136
 H1807 H 0.78139 0.85755 -0.06569
 H1808 H 0.77054 0.82346 -0.05396
 C1809 C 0.80710 0.28499 0.38931
 C1810 C 0.79239 0.28427 0.37273
 C1811 C 0.77224 0.27781 0.37714
 C1812 C 0.76655 0.27161 0.39748
 C1813 C 0.78089 0.27151 0.41404
 C1814 C 0.80139 0.27837 0.41013
 C1815 C 0.82712 0.29297 0.38586
 C1816 C 0.84147 0.29358 0.40226
 C1817 C 0.83603 0.28684 0.42247
 C1818 C 0.81613 0.27965 0.42655
 H1819 H 0.83184 0.29916 0.37066
 H1820 H 0.85683 0.29956 0.39933
 H1821 H 0.84722 0.28747 0.43510
 H1822 H 0.81248 0.27543 0.44271
 H1823 H 0.76086 0.27743 0.36459
 H1824 H 0.75079 0.26670 0.40029
 C1825 C 0.76613 0.78067 -0.12156
 C1826 C 0.78784 0.78242 -0.12479
 C1827 C 0.80109 0.77468 -0.10905
 C1828 C 0.79353 0.76728 -0.08981
 C1829 C 0.77233 0.76676 -0.08555
 C1830 C 0.75837 0.77270 -0.10185
 C1831 C 0.75198 0.78479 -0.13807
 C1832 C 0.73084 0.78234 -0.13498
 C1833 C 0.72333 0.77491 -0.11575
 C1834 C 0.73690 0.76976 -0.09950
 H1835 H 0.75695 0.78906 -0.15384
 H1836 H 0.72026 0.78566 -0.14780
 H1837 H 0.70693 0.77251 -0.11365
 H1838 H 0.73039 0.76263 -0.08556
 H1839 H 0.81766 0.77550 -0.11111
 H1840 H 0.80452 0.76263 -0.07778
 C1841 C 0.31358 0.46883 0.85668
 C1842 C 0.29837 0.46173 0.87122
 C1843 C 0.27760 0.46241 0.86540
 C1844 C 0.27164 0.46996 0.84570
 C1845 C 0.28613 0.47785 0.83122
 C1846 C 0.30743 0.47799 0.83700
 C1847 C 0.33483 0.46623 0.86086
 C1848 C 0.34971 0.47427 0.84716
 C1849 C 0.34378 0.48465 0.82887
 C1850 C 0.32298 0.48622 0.82361
 H1851 H 0.34027 0.45759 0.87442
 H1852 H 0.36592 0.47233 0.85070
 H1853 H 0.35541 0.49093 0.81828
 H1854 H 0.31965 0.49362 0.80877
 H1855 H 0.26582 0.45696 0.87629
 H1856 H 0.25537 0.46981 0.84182
 C1857 C 0.30947 -0.02444 0.35695
 C1858 C 0.29542 -0.03470 0.37091
 C1859 C 0.27491 -0.03715 0.36436
 C1860 C 0.26795 -0.02878 0.34537
 C1861 C 0.28096 -0.01718 0.33205
 C1862 C 0.30204 -0.01437 0.33819
 C1863 C 0.33104 -0.02565 0.36014
 C1864 C 0.34474 -0.01492 0.34712
 C1865 C 0.33738 -0.00315 0.33035
 C1866 C 0.31639 -0.00301 0.32573
 H1867 H 0.33769 -0.03555 0.37215
 H1868 H 0.36117 -0.01590 0.34995
 H1869 H 0.34809 0.00526 0.32029
 H1870 H 0.31218 0.00581 0.31201
 H1871 H 0.26380 -0.04501 0.37441
 H1872 H 0.25193 -0.03123 0.34118
 C1873 C -0.06338 -0.03003 -0.10767
 C1874 C -0.04893 -0.04158 -0.12021
 C1875 C -0.02909 -0.04460 -0.11193
 C1876 C -0.02328 -0.03595 -0.09259
 C1877 C -0.03660 -0.02304 -0.08076
 C1878 C -0.05661 -0.01880 -0.08929
 C1879 C -0.08477 -0.03052 -0.11201
 C1880 C -0.09837 -0.01711 -0.10168
 C1881 C -0.09105 -0.00332 -0.08650
 C1882 C -0.07050 -0.00425 -0.08011
 H1883 H -0.09129 -0.04157 -0.12308
 H1884 H -0.11460 -0.01727 -0.10563
 H1885 H -0.10152 0.00760 -0.07897
 H1886 H -0.06615 0.00678 -0.06811
 H1887 H -0.01754 -0.05326 -0.12071
 H1888 H -0.00785 -0.03928 -0.08700
 C1889 C -0.03855 0.44749 0.39215
 C1890 C -0.04343 0.46344 0.37721
 C1891 C -0.04348 0.48426 0.38415
 C1892 C -0.03656 0.48964 0.40433
 C1893 C -0.02961 0.47443 0.41856
 C1894 C -0.03137 0.45302 0.41284
 C1895 C -0.04236 0.42620 0.38767
 C1896 C -0.03754 0.41070 0.40230
 C1897 C -0.02973 0.41604 0.42206
 C1898 C -0.02720 0.43693 0.42754
 H1899 H -0.04984 0.42126 0.37322
 H1900 H -0.04037 0.39449 0.39849
 H1901 H -0.02642 0.40395 0.43354
 H1902 H -0.02276 0.44015 0.44365
 H1903 H -0.04755 0.49672 0.37336
 H1904 H -0.03587 0.50601 0.40856
 C1905 C 0.47699 -0.02628 0.38114
 C1906 C 0.45661 -0.03385 0.37881
 C1907 C 0.44301 -0.03315 0.39612
 C1908 C 0.44951 -0.02592 0.41586
 C1909 C 0.46984 -0.01922 0.41882
 C1910 C 0.48369 -0.01894 0.40133
 C1911 C 0.49063 -0.02520 0.36367
 C1912 C 0.51056 -0.01745 0.36611
 C1913 C 0.51714 -0.01030 0.38583
 C1914 C 0.50383 -0.01084 0.40326
 H1915 H 0.48597 -0.02993 0.34792
 H1916 H 0.52087 -0.01672 0.35257
 H1917 H 0.53254 -0.00404 0.38757
 H1918 H 0.50934 -0.00446 0.41807
 H1919 H 0.42733 -0.03867 0.39438
 H1920 H 0.43873 -0.02600 0.42906
 C1921 C 0.44171 0.46174 -0.10601
 C1922 C 0.45732 0.45824 -0.12167
 C1923 C 0.47808 0.45923 -0.11547
 C1924 C 0.48361 0.46543 -0.09513
 C1925 C 0.46865 0.47052 -0.07992
 C1926 C 0.44744 0.46799 -0.08501
 C1927 C 0.42071 0.45730 -0.11007
 C1928 C 0.40566 0.46023 -0.09448
 C1929 C 0.41120 0.46679 -0.07427
 C1930 C 0.43184 0.47027 -0.06940
 H1931 H 0.41567 0.45065 -0.12493
 H1932 H 0.38967 0.45685 -0.09795
 H1933 H 0.39949 0.46860 -0.06210
 H1934 H 0.43534 0.47401 -0.05312
 H1935 H 0.49030 0.45635 -0.12687
 H1936 H 0.49986 0.46679 -0.09142
 C1937 C 0.47299 0.77391 0.37516
 C1938 C 0.46425 0.79409 0.37708
 C1939 C 0.46418 0.80740 0.35947
 C1940 C 0.47166 0.80069 0.33985
 C1941 C 0.47937 0.78044 0.33727
 C1942 C 0.48052 0.76698 0.35506
 C1943 C 0.47499 0.76070 0.39293
 C1944 C 0.48376 0.74093 0.39085
 C1945 C 0.49099 0.73411 0.37120
 C1946 C 0.48958 0.74702 0.35347
 H1947 H 0.47021 0.76560 0.40862
 H1948 H 0.48517 0.73096 0.40462
 H1949 H 0.49801 0.71885 0.36974
 H1950 H 0.49603 0.74139 0.33869
 H1951 H 0.45776 0.82294 0.36087
 H1952 H 0.47086 0.81118 0.32639
 C1953 C -0.03628 0.80164 0.86120
 C1954 C -0.03930 0.78620 0.87718
 C1955 C -0.03591 0.76520 0.87190
 C1956 C -0.02782 0.75953 0.85219
 C1957 C -0.02308 0.77455 0.83677
 C1958 C -0.02787 0.79582 0.84101
 C1959 C -0.04327 0.82238 0.86408
 C1960 C -0.04046 0.83736 0.84839
 C1961 C -0.03151 0.83188 0.82914
 C1962 C -0.02573 0.81131 0.82525
 H1963 H -0.05177 0.82718 0.87803
 H1964 H -0.04571 0.85320 0.85098
 H1965 H -0.02966 0.84352 0.81694
 H1966 H -0.02025 0.80773 0.80957
 H1967 H -0.03852 0.75309 0.88356
 H1968 H -0.02488 0.74317 0.84908
 C1969 C 0.38127 0.76938 0.27731
 C1970 C 0.37825 0.78969 0.28557
 C1971 C 0.39500 0.80336 0.28710
 C1972 C 0.41469 0.79706 0.28110
 C1973 C 0.41819 0.77695 0.27324
 C1974 C 0.40140 0.76296 0.27097
 C1975 C 0.36457 0.75557 0.27460
 C1976 C 0.36768 0.73576 0.26597
 C1977 C 0.38733 0.72951 0.25962
 C1978 C 0.40404 0.74299 0.26192
 H1979 H 0.34899 0.76001 0.27881
 H1980 H 0.35474 0.72530 0.26396
 H1981 H 0.38959 0.71423 0.25266
 H1982 H 0.41889 0.73780 0.25617
 H1983 H 0.39276 0.81896 0.29332
 H1984 H 0.42740 0.80784 0.28297
 C1985 C -0.11667 0.77451 0.76598
 C1986 C -0.11993 0.78118 0.78718
 C1987 C -0.10365 0.78034 0.80169
 C1988 C -0.08410 0.77384 0.79534
 C1989 C -0.08024 0.76795 0.77426
 C1990 C -0.09668 0.76777 0.75946
 C1991 C -0.13305 0.77378 0.75132
 C1992 C -0.12976 0.76678 0.73059
 C1993 C -0.11028 0.76007 0.72423
 C1994 C -0.09390 0.76036 0.73852
 H1995 H -0.14856 0.77821 0.75578
 H1996 H -0.14246 0.76629 0.71950
 H1997 H -0.10789 0.75435 0.70822
 H1998 H -0.07926 0.75429 0.73316
 H1999 H -0.10604 0.78530 0.81797
 H2000 H -0.07173 0.77391 0.80687
 C2001 C 0.87326 0.26587 0.47385
 C2002 C 0.87601 0.28742 0.46995
 C2003 C 0.86018 0.30140 0.47513
 C2004 C 0.84123 0.29426 0.48251
 C2005 C 0.83757 0.27288 0.48516
 C2006 C 0.85393 0.25852 0.48167
 C2007 C 0.88952 0.25155 0.47076
 C2008 C 0.88677 0.23042 0.47507
 C2009 C 0.86799 0.22325 0.48292
 C2010 C 0.85176 0.23713 0.48640
 H2011 H 0.90460 0.25655 0.46546
 H2012 H 0.89939 0.21960 0.47266
 H2013 H 0.86608 0.20689 0.48663
 H2014 H 0.83783 0.23105 0.49344
 H2015 H 0.86226 0.31795 0.47247
 H2016 H 0.82899 0.30549 0.48515
 C2017 C 0.87144 0.75615 -0.02258
 C2018 C 0.87572 0.77697 -0.02857
 C2019 C 0.85987 0.79181 -0.02805
 C2020 C 0.83987 0.78626 -0.02237
 C2021 C 0.83504 0.76565 -0.01701
 C2022 C 0.85096 0.75042 -0.01664
 C2023 C 0.88724 0.74106 -0.02167
 C2024 C 0.88297 0.72072 -0.01525
 C2025 C 0.86304 0.71514 -0.00927
 C2026 C 0.84718 0.72983 -0.00975
 H2027 H 0.90304 0.74488 -0.02557
 H2028 H 0.89525 0.70929 -0.01461
 H2029 H 0.85990 0.69941 -0.00396
 H2030 H 0.83215 0.72499 -0.00421
 H2031 H 0.86301 0.80781 -0.03247
 H2032 H 0.82794 0.79809 -0.02264
 C2033 C -0.13075 -0.03207 -0.00493
 C2034 C -0.13453 -0.03438 -0.02710
 C2035 C -0.11876 -0.02909 -0.04147
 C2036 C -0.09939 -0.02324 -0.03447
 C2037 C -0.09493 -0.02157 -0.01289
 C2038 C -0.11080 -0.02556 0.00218
 C2039 C -0.14671 -0.03433 0.01024
 C2040 C -0.14294 -0.03143 0.03182
 C2041 C -0.12348 -0.02548 0.03871
 C2042 C -0.10765 -0.02224 0.02407
 H2043 H -0.16241 -0.03757 0.00567
 H2044 H -0.15534 -0.03331 0.04321
 H2045 H -0.12078 -0.02281 0.05545
 H2046 H -0.09323 -0.01643 0.03005
 H2047 H -0.12091 -0.03091 -0.05841
 H2048 H -0.08738 -0.02085 -0.04608
 C2049 C -0.10653 0.44933 0.46764
 C2050 C -0.12306 0.46356 0.47100
 C2051 C -0.11873 0.48362 0.47866
 C2052 C -0.09882 0.48912 0.48478
 C2053 C -0.08245 0.47499 0.48276
 C2054 C -0.08605 0.45523 0.47331
 C2055 C -0.10958 0.43019 0.45690
 C2056 C -0.09304 0.41712 0.45216
 C2057 C -0.07313 0.42296 0.45756
 C2058 C -0.06956 0.44180 0.46799
 H2059 H -0.12453 0.42543 0.45120
 H2060 H -0.09562 0.40260 0.44378
 H2061 H -0.06037 0.41295 0.45331
 H2062 H -0.05374 0.44598 0.47122
 H2063 H -0.13106 0.49487 0.48061
 H2064 H -0.09615 0.50458 0.49116
 C2065 C 0.37465 -0.00634 0.47483
 C2066 C 0.37113 -0.02817 0.47260
 C2067 C 0.38673 -0.04207 0.47877
 C2068 C 0.40601 -0.03486 0.48486
 C2069 C 0.41030 -0.01355 0.48605
 C2070 C 0.39435 0.00097 0.48174
 C2071 C 0.35861 0.00830 0.47196
 C2072 C 0.36207 0.02957 0.47481
 C2073 C 0.38131 0.03667 0.48126
 C2074 C 0.39722 0.02255 0.48500
 H2075 H 0.34307 0.00352 0.46825
 H2076 H 0.34961 0.04057 0.47249
 H2077 H 0.38377 0.05317 0.48389
 H2078 H 0.41148 0.02867 0.49116
 H2079 H 0.38458 -0.05875 0.47723
 H2080 H 0.41809 -0.04607 0.48767
 C2081 C 0.37515 0.48471 -0.02137
 C2082 C 0.37110 0.46296 -0.02336
 C2083 C 0.38590 0.44878 -0.01586
 C2084 C 0.40522 0.45553 -0.00927
 C2085 C 0.41039 0.47672 -0.00942
 C2086 C 0.39492 0.49160 -0.01435
 C2087 C 0.35952 0.49973 -0.02464
 C2088 C 0.36352 0.52095 -0.02222
 C2089 C 0.38287 0.52764 -0.01573
 C2090 C 0.39833 0.51316 -0.01147
 H2091 H 0.34385 0.49530 -0.02827
 H2092 H 0.35137 0.53223 -0.02487
 H2093 H 0.38575 0.54411 -0.01337
 H2094 H 0.41258 0.51901 -0.00506
 H2095 H 0.38325 0.43214 -0.01679
 H2096 H 0.41663 0.44391 -0.00512
 C2097 C 0.36268 0.45542 0.78670
 C2098 C 0.37967 0.46675 0.77864
 C2099 C 0.37641 0.48304 0.76430
 C2100 C 0.35649 0.48845 0.75808
 C2101 C 0.33941 0.47756 0.76596
 C2102 C 0.34236 0.46089 0.78037
 C2103 C 0.36549 0.43899 0.80127
 C2104 C 0.34857 0.42842 0.80973
 C2105 C 0.32865 0.43396 0.80381
 C2106 C 0.32550 0.44997 0.78921
 H2107 H 0.38072 0.43428 0.80633
 H2108 H 0.35092 0.41594 0.82102
 H2109 H 0.31556 0.42581 0.81055
 H2110 H 0.30976 0.45389 0.78517
 H2111 H 0.38941 0.49179 0.75819
 H2112 H 0.35436 0.50134 0.74720
 C2113 C 0.35166 -0.04216 0.29330
 C2114 C 0.37019 -0.03441 0.28454
 C2115 C 0.36957 -0.01921 0.26864
 C2116 C 0.35076 -0.01144 0.26141
 C2117 C 0.33220 -0.01878 0.26994
 C2118 C 0.33249 -0.03439 0.28589
 C2119 C 0.35187 -0.05760 0.30923
 C2120 C 0.33347 -0.06531 0.31763
 C2121 C 0.31466 -0.05787 0.31028
 C2122 C 0.31411 -0.04257 0.29458
 H2123 H 0.36619 -0.06390 0.31521
 H2124 H 0.33382 -0.07718 0.32982
 H2125 H 0.30040 -0.06396 0.31676
 H2126 H 0.29921 -0.03727 0.28928
 H2127 H 0.38380 -0.01324 0.26197
 H2128 H 0.35067 0.00040 0.24916
 C2129 C 0.13123 0.50823 0.73008
 C2130 C 0.12612 0.52895 0.72446
 C2131 C 0.14140 0.54437 0.72499
 C2132 C 0.16171 0.53941 0.73001
 C2133 C 0.16740 0.51886 0.73472
 C2134 C 0.15199 0.50316 0.73543
 C2135 C 0.11599 0.49258 0.73112
 C2136 C 0.12108 0.47234 0.73722
 C2137 C 0.14127 0.46743 0.74274
 C2138 C 0.15657 0.48268 0.74206
 H2139 H 0.10001 0.49590 0.72762
 H2140 H 0.10924 0.46047 0.73799
 H2141 H 0.14505 0.45178 0.74785
 H2142 H 0.17181 0.47845 0.74732
 H2143 H 0.13762 0.56031 0.72086
 H2144 H 0.17323 0.55163 0.72956
 C2145 C 0.12606 0.03184 0.24373
 C2146 C 0.12116 0.03328 0.22183
 C2147 C 0.13576 0.02694 0.20674
 C2148 C 0.15525 0.02036 0.21281
 C2149 C 0.16116 0.02028 0.23420
 C2150 C 0.14624 0.02535 0.24999
 C2151 C 0.11112 0.03594 0.25954
 C2152 C 0.11599 0.03423 0.28100
 C2153 C 0.13561 0.02791 0.28712
 C2154 C 0.15053 0.02326 0.27184
 H2155 H 0.09543 0.03998 0.25555
 H2156 H 0.10437 0.03744 0.29295
 H2157 H 0.13917 0.02621 0.30381
 H2158 H 0.16512 0.01737 0.27736
 H2159 H 0.13224 0.02771 0.18996
 H2160 H 0.16611 0.01600 0.20047
 C2161 C 0.61133 0.70765 0.21097
 C2162 C 0.62789 0.71699 0.22199
 C2163 C 0.62391 0.73237 0.23725
 C2164 C 0.60372 0.73854 0.24180
 C2165 C 0.58705 0.72957 0.23107
 C2166 C 0.59073 0.71394 0.21554
 C2167 C 0.61488 0.69216 0.19544
 C2168 C 0.59844 0.68292 0.18475
 C2169 C 0.57827 0.68895 0.18930
 C2170 C 0.57440 0.70432 0.20450
 H2171 H 0.63033 0.68707 0.19145
 H2172 H 0.60136 0.67102 0.17290
 H2173 H 0.56556 0.68171 0.18099
 H2174 H 0.55854 0.70851 0.20751
 H2175 H 0.63658 0.73959 0.24566
 H2176 H 0.60108 0.75042 0.25377
 C2177 C 0.11636 0.71536 0.70552
 C2178 C 0.13165 0.71712 0.72144
 C2179 C 0.12592 0.72299 0.74204
 C2180 C 0.10549 0.72794 0.74690
 C2181 C 0.09022 0.72740 0.73122
 C2182 C 0.09554 0.72083 0.71030
 C2183 C 0.12116 0.70728 0.68520
 C2184 C 0.10610 0.70558 0.66962
 C2185 C 0.08590 0.71130 0.67409
 C2186 C 0.08050 0.71844 0.69429
 H2187 H 0.13642 0.70173 0.68120
 H2188 H 0.11007 0.69953 0.65407
 H2189 H 0.07434 0.70984 0.66190
 H2190 H 0.06442 0.72157 0.69722
 H2191 H 0.13748 0.72397 0.75437
 H2192 H 0.10162 0.73260 0.76298
 C2193 C 0.63790 0.19956 0.51757
 C2194 C 0.62497 0.21556 0.52584
 C2195 C 0.63231 0.23600 0.52660
 C2196 C 0.65217 0.24082 0.51988
 C2197 C 0.66534 0.22553 0.51133
 C2198 C 0.65770 0.20470 0.50896
 C2199 C 0.63196 0.17837 0.51857
 C2200 C 0.64395 0.16285 0.50924
 C2201 C 0.66232 0.16796 0.49921
 C2202 C 0.66931 0.18850 0.49924
 H2203 H 0.61836 0.17337 0.52704
 H2204 H 0.63905 0.14673 0.50999
 H2205 H 0.67160 0.15581 0.49197
 H2206 H 0.68399 0.19088 0.49177
 H2207 H 0.62263 0.24833 0.53290
 H2208 H 0.65737 0.25679 0.52158
 C2209 C 0.63923 0.69495 0.03414
 C2210 C 0.62391 0.71071 0.03385
 C2211 C 0.62952 0.73125 0.02912
 C2212 C 0.64983 0.73627 0.02398
 C2213 C 0.66515 0.72087 0.02315
 C2214 C 0.65994 0.69995 0.02840
 C2215 C 0.63465 0.67452 0.04110
 C2216 C 0.64971 0.65906 0.04111
 C2217 C 0.66972 0.66377 0.03495
 C2218 C 0.67498 0.68406 0.02921
 H2219 H 0.61960 0.67027 0.04705
 H2220 H 0.64589 0.64341 0.04619
 H2221 H 0.68127 0.65166 0.03496
 H2222 H 0.69095 0.68713 0.02588
 H2223 H 0.61796 0.74345 0.02929
 H2224 H 0.65357 0.75233 0.02028
 C2225 C 0.11341 0.02333 0.01103
 C2226 C 0.11782 0.03023 0.03191
 C2227 C 0.10232 0.02963 0.04744
 C2228 C 0.08247 0.02309 0.04246
 C2229 C 0.07747 0.01698 0.02177
 C2230 C 0.09304 0.01668 0.00589
 C2231 C 0.12895 0.02223 -0.00467
 C2232 C 0.12447 0.01514 -0.02509
 C2233 C 0.10459 0.00869 -0.03013
 C2234 C 0.08902 0.00926 -0.01480
 H2235 H 0.14473 0.02645 -0.00127
 H2236 H 0.13654 0.01439 -0.03698
 H2237 H 0.10127 0.00294 -0.04593
 H2238 H 0.07401 0.00341 -0.01917
 H2239 H 0.10557 0.03472 0.06349
 H2240 H 0.07073 0.02339 0.05476
 C2241 C 0.12410 0.51557 0.52089
 C2242 C 0.12718 0.53656 0.52709
 C2243 C 0.11094 0.55084 0.52554
 C2244 C 0.09145 0.54439 0.51922
 C2245 C 0.08768 0.52348 0.51413
 C2246 C 0.10419 0.50898 0.51421
 C2247 C 0.14054 0.50116 0.52060
 C2248 C 0.13738 0.48063 0.51404
 C2249 C 0.11798 0.47423 0.50729
 C2250 C 0.10155 0.48827 0.50716
 H2251 H 0.15601 0.50566 0.52502
 H2252 H 0.15013 0.46972 0.51386
 H2253 H 0.11570 0.45838 0.50183
 H2254 H 0.08700 0.48296 0.50093
 H2255 H 0.11324 0.56696 0.53010
 H2256 H 0.07898 0.55567 0.51918
 C2257 C 0.61957 0.01706 0.52103
 C2258 C 0.62369 0.03784 0.52749
 C2259 C 0.60792 0.05274 0.52665
 C2260 C 0.58801 0.04715 0.52080
 C2261 C 0.58322 0.02646 0.51570
 C2262 C 0.59912 0.01129 0.51522
 C2263 C 0.63544 0.00206 0.51951
 C2264 C 0.63118 -0.01828 0.51302
 C2265 C 0.61119 -0.02395 0.50753
 C2266 C 0.59531 -0.00931 0.50840
 H2267 H 0.65132 0.00595 0.52281
 H2268 H 0.64351 -0.02962 0.51196
 H2269 H 0.60803 -0.03969 0.50222
 H2270 H 0.58021 -0.01412 0.50316
 H2271 H 0.61091 0.06870 0.53135
 H2272 H 0.57603 0.05892 0.52115
 C2273 C 0.61978 0.51142 0.02123
 C2274 C 0.62365 0.53159 0.02947
 C2275 C 0.60747 0.54601 0.03090
 C2276 C 0.58743 0.54041 0.02532
 C2277 C 0.58302 0.52023 0.01811
 C2278 C 0.59933 0.50570 0.01544
 C2279 C 0.63594 0.49698 0.01808
 C2280 C 0.63200 0.47727 0.00964
 C2281 C 0.61204 0.47171 0.00388
 C2282 C 0.59585 0.48580 0.00656
 H2283 H 0.65175 0.50089 0.02173
 H2284 H 0.64455 0.46635 0.00729
 H2285 H 0.60914 0.45650 -0.00296
 H2286 H 0.58075 0.48116 0.00117
 H2287 H 0.61032 0.56152 0.03703
 H2288 H 0.57514 0.55172 0.02727
 C2289 C 0.00969 0.03174 0.12824
 C2290 C 0.03134 0.03186 0.13190
 C2291 C 0.04438 0.02232 0.11689
 C2292 C 0.03680 0.01530 0.09750
 C2293 C 0.01579 0.01682 0.09261
 C2294 C 0.00189 0.02393 0.10859
 C2295 C -0.00449 0.03745 0.14437
 C2296 C -0.02567 0.03646 0.14096
 C2297 C -0.03323 0.02892 0.12184
 C2298 C -0.01966 0.02234 0.10600
 H2299 H 0.00046 0.04186 0.16010
 H2300 H -0.03628 0.04094 0.15349
 H2301 H -0.04971 0.02754 0.11951
 H2302 H -0.02625 0.01504 0.09226
 H2303 H 0.06087 0.02178 0.11944
 H2304 H 0.04771 0.00951 0.08581
 C2305 C 0.05782 0.53267 0.61129
 C2306 C 0.04295 0.53350 0.62785
 C2307 C 0.02220 0.52969 0.62318
 C2308 C 0.01604 0.52450 0.60268
 C2309 C 0.03046 0.52278 0.58616
 C2310 C 0.05160 0.52710 0.59030
 C2311 C 0.07855 0.53837 0.61488
 C2312 C 0.09300 0.53788 0.59845
 C2313 C 0.08703 0.53230 0.57806
 C2314 C 0.06653 0.52731 0.57387
 H2315 H 0.08379 0.54375 0.63019
 H2316 H 0.10885 0.54220 0.60149
 H2317 H 0.09828 0.53221 0.56534
 H2318 H 0.06258 0.52427 0.55755
 H2319 H 0.01069 0.53062 0.63565
 H2320 H -0.00014 0.52149 0.59976
 C2321 C 0.55559 0.04259 0.60995
 C2322 C 0.54105 0.04707 0.62639
 C2323 C 0.51996 0.04727 0.62135
 C2324 C 0.51304 0.04104 0.60141
 C2325 C 0.52692 0.03461 0.58562
 C2326 C 0.54848 0.03604 0.58956
 C2327 C 0.57695 0.04626 0.61267
 C2328 C 0.59106 0.04173 0.59659
 C2329 C 0.58421 0.03448 0.57710
 C2330 C 0.56318 0.03224 0.57335
 H2331 H 0.58304 0.05344 0.62684
 H2332 H 0.60736 0.04435 0.59911
 H2333 H 0.59522 0.03119 0.56461
 H2334 H 0.55873 0.02821 0.55745
 H2335 H 0.50857 0.05110 0.63336
 H2336 H 0.49659 0.04058 0.59852
 C2337 C 0.52063 0.53205 0.12483
 C2338 C 0.54118 0.53942 0.12578
 C2339 C 0.55373 0.53846 0.10770
 C2340 C 0.54600 0.53109 0.08852
 C2341 C 0.52548 0.52449 0.08690
 C2342 C 0.51268 0.52450 0.10521
 C2343 C 0.50802 0.53137 0.14313
 C2344 C 0.48792 0.52374 0.14206
 C2345 C 0.48016 0.51633 0.12291
 C2346 C 0.49242 0.51651 0.10467
 H2347 H 0.51364 0.53634 0.15847
 H2348 H 0.47842 0.52332 0.15623
 H2349 H 0.46464 0.51014 0.12224
 H2350 H 0.48603 0.50992 0.09035
 H2351 H 0.56953 0.54388 0.10841
 H2352 H 0.55600 0.53095 0.07468
 C2353 C 0.22062 0.51490 0.62452
 C2354 C 0.21396 0.53576 0.62182
 C2355 C 0.21461 0.54960 0.63899
 C2356 C 0.22123 0.54300 0.65885
 C2357 C 0.22741 0.52234 0.66214
 C2358 C 0.22743 0.50810 0.64487
 C2359 C 0.22143 0.50087 0.60724
 C2360 C 0.22846 0.48051 0.61001
 C2361 C 0.23516 0.47388 0.62985
 C2362 C 0.23486 0.48755 0.64709
 H2363 H 0.21702 0.50555 0.59142
 H2364 H 0.22899 0.46991 0.59662
 H2365 H 0.24090 0.45815 0.63182
 H2366 H 0.24090 0.48200 0.66198
 H2367 H 0.20970 0.56562 0.63698
 H2368 H 0.22134 0.55410 0.67185
 C2369 C 0.19521 0.04316 0.13970
 C2370 C 0.20701 0.03617 0.12216
 C2371 C 0.22495 0.02455 0.12550
 C2372 C 0.23115 0.01944 0.14601
 C2373 C 0.21954 0.02587 0.16364
 C2374 C 0.20154 0.03803 0.16066
 C2375 C 0.17741 0.05548 0.13680
 C2376 C 0.16594 0.06238 0.15421
 C2377 C 0.17211 0.05739 0.17471
 C2378 C 0.18984 0.04551 0.17801
 H2379 H 0.17228 0.05998 0.12114
 H2380 H 0.15223 0.07171 0.15179
 H2381 H 0.16307 0.06272 0.18809
 H2382 H 0.19422 0.04222 0.19420
 H2383 H 0.23410 0.01935 0.11207
 H2384 H 0.24508 0.01036 0.14817
 C2385 C 0.69305 0.21650 0.60805
 C2386 C 0.70847 0.21183 0.62326
 C2387 C 0.72923 0.21390 0.61770
 C2388 C 0.73500 0.22082 0.59766
 C2389 C 0.72022 0.22624 0.58242
 C2390 C 0.69888 0.22426 0.58762
 C2391 C 0.67198 0.21284 0.61242
 C2392 C 0.65684 0.21813 0.59778
 C2393 C 0.66238 0.22648 0.57826
 C2394 C 0.68311 0.22900 0.57294
 H2395 H 0.66690 0.20550 0.62694
 H2396 H 0.64074 0.21545 0.60147
 H2397 H 0.65054 0.23030 0.56687
 H2398 H 0.68634 0.23424 0.55710
 H2399 H 0.74112 0.21027 0.62915
 H2400 H 0.75131 0.22218 0.59411
 C2401 C 0.69934 0.71427 0.11548
 C2402 C 0.71477 0.71533 0.13132
 C2403 C 0.73499 0.72045 0.12557
 C2404 C 0.74001 0.72521 0.10459
 C2405 C 0.72492 0.72513 0.08871
 C2406 C 0.70437 0.71938 0.09403
 C2407 C 0.67924 0.70719 0.12030
 C2408 C 0.66422 0.70595 0.10461
 C2409 C 0.66902 0.71116 0.08378
 C2410 C 0.68894 0.71743 0.07839
 H2411 H 0.67495 0.70211 0.13605
 H2412 H 0.64885 0.70063 0.10858
 H2413 H 0.65729 0.71002 0.07172
 H2414 H 0.69215 0.72022 0.06185
 H2415 H 0.74694 0.72086 0.13753
 H2416 H 0.75581 0.72927 0.10075
 C2417 C 0.51289 0.72250 0.12780
 C2418 C 0.53360 0.71661 0.12361
 C2419 C 0.54835 0.71866 0.13966
 C2420 C 0.54282 0.72557 0.15984
 C2421 C 0.52230 0.73038 0.16478
 C2422 C 0.50718 0.72938 0.14857
 C2423 C 0.49792 0.72252 0.11159
 C2424 C 0.47770 0.72870 0.11583
 C2425 C 0.47211 0.73539 0.13608
 C2426 C 0.48671 0.73596 0.15227
 H2427 H 0.50171 0.71825 0.09544
 H2428 H 0.46637 0.72862 0.10324
 H2429 H 0.45648 0.74050 0.13918
 H2430 H 0.48194 0.74215 0.16745
 H2431 H 0.56428 0.71453 0.13657
 H2432 H 0.55465 0.72679 0.17185
 C2433 C 0.03781 0.69783 0.63917
 C2434 C 0.03640 0.71354 0.62342
 C2435 C 0.03103 0.73387 0.62933
 C2436 C 0.02632 0.73872 0.65035
 C2437 C 0.02669 0.72334 0.66610
 C2438 C 0.03272 0.70269 0.66067
 C2439 C 0.04518 0.67767 0.63420
 C2440 C 0.04688 0.66245 0.64987
 C2441 C 0.04174 0.66710 0.67079
 C2442 C 0.03498 0.68704 0.67628
 H2443 H 0.05016 0.67353 0.61836
 H2444 H 0.05251 0.64705 0.64580
 H2445 H 0.04332 0.65526 0.68288
 H2446 H 0.03214 0.69010 0.69289
 H2447 H 0.03031 0.74602 0.61743
 H2448 H 0.02200 0.75459 0.65432
 C2449 C 0.51753 0.63092 0.22448
 C2450 C 0.53882 0.62806 0.22023
 C2451 C 0.55263 0.64431 0.22426
 C2452 C 0.54562 0.66358 0.23131
 C2453 C 0.52453 0.66732 0.23432
 C2454 C 0.51030 0.65075 0.23159
 C2455 C 0.50340 0.61432 0.22251
 C2456 C 0.48254 0.61726 0.22707
 C2457 C 0.47547 0.63659 0.23407
 C2458 C 0.48920 0.65314 0.23653
 H2459 H 0.50833 0.59885 0.21790
 H2460 H 0.47187 0.60439 0.22550
 H2461 H 0.45933 0.63868 0.23795
 H2462 H 0.48323 0.66754 0.24292
 H2463 H 0.56897 0.64219 0.22130
 H2464 H 0.55676 0.67591 0.23376
 C2465 C 0.05624 0.63638 0.72214
 C2466 C 0.04088 0.62068 0.72166
 C2467 C 0.02043 0.62586 0.72640
 C2468 C 0.01505 0.64613 0.73222
 C2469 C 0.03001 0.66183 0.73368
 C2470 C 0.05086 0.65707 0.72842
 C2471 C 0.07666 0.63215 0.71553
 C2472 C 0.09170 0.64760 0.71610
 C2473 C 0.08662 0.66765 0.72262
 C2474 C 0.06637 0.67253 0.72824
 H2475 H 0.08122 0.61706 0.70949
 H2476 H 0.10735 0.64407 0.71122
 H2477 H 0.09842 0.67950 0.72305
 H2478 H 0.06308 0.68855 0.73207
 H2479 H 0.00857 0.61401 0.72568
 H2480 H -0.00095 0.64957 0.73579
 C2481 C 0.03389 0.10662 0.05389
 C2482 C 0.03329 0.12254 0.03830
 C2483 C 0.02560 0.11805 0.01808
 C2484 C 0.01800 0.09831 0.01323
 C2485 C 0.01770 0.08250 0.02853
 C2486 C 0.02590 0.08647 0.04904
 C2487 C 0.04302 0.11006 0.07391
 C2488 C 0.04370 0.09425 0.08906
 C2489 C 0.03574 0.07465 0.08442
 C2490 C 0.02716 0.07064 0.06457
 H2491 H 0.05010 0.12477 0.07797
 H2492 H 0.05067 0.09715 0.10438
 H2493 H 0.03651 0.06241 0.09617
 H2494 H 0.02188 0.05500 0.06150
 H2495 H 0.02536 0.13006 0.00601
 H2496 H 0.01215 0.09538 -0.00260
 C2497 C 0.03912 0.61252 0.54557
 C2498 C 0.03537 0.62826 0.53032
 C2499 C 0.02711 0.62284 0.51058
 C2500 C 0.02174 0.60224 0.50608
 C2501 C 0.02427 0.58652 0.52130
 C2502 C 0.03335 0.59153 0.54117
 C2503 C 0.04905 0.61719 0.56493
 C2504 C 0.05254 0.60171 0.57995
 C2505 C 0.04665 0.58128 0.57584
 C2506 C 0.03742 0.57608 0.55657
 H2507 H 0.05451 0.63270 0.56855
 H2508 H 0.06003 0.60554 0.59479
 H2509 H 0.04948 0.56944 0.58761
 H2510 H 0.03380 0.55988 0.55383
 H2511 H 0.02450 0.63478 0.49874
 H2512 H 0.01515 0.59858 0.49073
 C2513 C 0.50904 0.13114 0.52113
 C2514 C 0.53004 0.13573 0.52482
 C2515 C 0.54491 0.12010 0.52211
 C2516 C 0.53917 0.09982 0.51699
 C2517 C 0.51839 0.09456 0.51435
 C2518 C 0.50315 0.11044 0.51558
 C2519 C 0.49385 0.14684 0.52233
 C2520 C 0.47325 0.14227 0.51808
 C2521 C 0.46751 0.12215 0.51225
 C2522 C 0.48229 0.10639 0.51082
 H2523 H 0.49778 0.16279 0.52620
 H2524 H 0.46173 0.15446 0.51900
 H2525 H 0.45156 0.11878 0.50856
 H2526 H 0.47734 0.09123 0.50538
 H2527 H 0.56104 0.12352 0.52480
 H2528 H 0.55101 0.08794 0.51589
 C2529 C 0.52511 0.62098 0.01125
 C2530 C 0.53197 0.62509 0.03218
 C2531 C 0.53258 0.60886 0.04698
 C2532 C 0.52703 0.58866 0.04128
 C2533 C 0.52069 0.58401 0.02055
 C2534 C 0.51936 0.60029 0.00537
 C2535 C 0.52311 0.63717 -0.00374
 C2536 C 0.51585 0.63307 -0.02414
 C2537 C 0.51012 0.61293 -0.02986
 C2538 C 0.51165 0.59670 -0.01524
 H2539 H 0.52675 0.65315 0.00023
 H2540 H 0.51439 0.64565 -0.03548
 H2541 H 0.50420 0.60991 -0.04562
 H2542 H 0.50634 0.58150 -0.02014
 H2543 H 0.53772 0.61187 0.06304
 H2544 H 0.52791 0.57645 0.05313
 C2545 C 0.70065 0.14310 0.53993
 C2546 C 0.71349 0.12567 0.53553
 C2547 C 0.73325 0.12893 0.52708
 C2548 C 0.73955 0.14880 0.52088
 C2549 C 0.72658 0.16603 0.52375
 C2550 C 0.70746 0.16348 0.53437
 C2551 C 0.68190 0.14086 0.55122
 C2552 C 0.67008 0.15822 0.55662
 C2553 C 0.67680 0.17809 0.55124
 C2554 C 0.69538 0.18083 0.54039
 H2555 H 0.67647 0.12582 0.55656
 H2556 H 0.65570 0.15627 0.56518
 H2557 H 0.66739 0.19140 0.55528
 H2558 H 0.70015 0.19660 0.53679
 H2559 H 0.74343 0.11580 0.52425
 H2560 H 0.75456 0.15071 0.51352
 C2561 C 0.71532 0.63551 0.05453
 C2562 C 0.71417 0.62007 0.03842
 C2563 C 0.71919 0.62536 0.01749
 C2564 C 0.72575 0.64542 0.01234
 C2565 C 0.72775 0.66086 0.02799
 C2566 C 0.72245 0.65597 0.04939
 C2567 C 0.70835 0.63143 0.07541
 C2568 C 0.70957 0.64661 0.09118
 C2569 C 0.71703 0.66631 0.08636
 C2570 C 0.72290 0.67116 0.06564
 H2571 H 0.70145 0.61674 0.07978
 H2572 H 0.70442 0.64315 0.10716
 H2573 H 0.71793 0.67798 0.09871
 H2574 H 0.72739 0.68697 0.06256
 H2575 H 0.71806 0.61375 0.00503
 H2576 H 0.72942 0.64890 -0.00408
 C2577 C 0.24190 0.62403 0.72598
 C2578 C 0.22111 0.62852 0.72088
 C2579 C 0.20640 0.61256 0.72169
 C2580 C 0.21210 0.59220 0.72657
 C2581 C 0.23270 0.58714 0.73074
 C2582 C 0.24777 0.60317 0.73096
 C2583 C 0.25686 0.63996 0.72694
 C2584 C 0.27721 0.63543 0.73232
 C2585 C 0.28296 0.61509 0.73720
 C2586 C 0.26841 0.59910 0.73673
 H2587 H 0.25294 0.65608 0.72396
 H2588 H 0.28852 0.64781 0.73299
 H2589 H 0.29872 0.61172 0.74165
 H2590 H 0.27342 0.58369 0.74136
 H2591 H 0.19044 0.61588 0.71800
 H2592 H 0.20040 0.58015 0.72655
 C2593 C 0.19301 0.11398 0.21893
 C2594 C 0.20849 0.12924 0.21531
 C2595 C 0.22920 0.12406 0.21836
 C2596 C 0.23488 0.10425 0.22503
 C2597 C 0.22001 0.08893 0.22906
 C2598 C 0.19877 0.09370 0.22612
 C2599 C 0.17203 0.11810 0.21463
 C2600 C 0.15695 0.10308 0.21843
 C2601 C 0.16247 0.08349 0.22589
 C2602 C 0.18315 0.07862 0.22921
 H2603 H 0.16701 0.13273 0.20796
 H2604 H 0.14092 0.10655 0.21523
 H2605 H 0.15072 0.07178 0.22848
 H2606 H 0.18658 0.06285 0.23384
 H2607 H 0.24111 0.13556 0.21545
 H2608 H 0.25112 0.10081 0.22700
 C2609 C 0.73774 1.11928 0.72100
 C2610 C 0.71669 1.12334 0.71680
 C2611 C 0.70221 1.10734 0.71902
 C2612 C 0.70837 1.08727 0.72442
 C2613 C 0.72917 1.08257 0.72789
 C2614 C 0.74405 1.09875 0.72672
 C2615 C 0.75255 1.13536 0.72026
 C2616 C 0.77317 1.13130 0.72491
 C2617 C 0.77932 1.11131 0.73071
 C2618 C 0.76493 1.09520 0.73180
 H2619 H 0.74831 1.15123 0.71646
 H2620 H 0.78438 1.14379 0.72431
 H2621 H 0.79529 1.10833 0.73464
 H2622 H 0.77023 1.08014 0.73713
 H2623 H 0.68606 1.11036 0.71596
 H2624 H 0.69684 1.07514 0.72531
 C2625 C 0.71056 0.60733 0.20219
 C2626 C 0.71179 0.62305 0.21798
 C2627 C 0.71804 0.61773 0.23850
 C2628 C 0.72397 0.59739 0.24334
 C2629 C 0.72396 0.58172 0.22777
 C2630 C 0.71679 0.58654 0.20703
 C2631 C 0.70261 0.61174 0.18184
 C2632 C 0.70153 0.59627 0.16634
 C2633 C 0.70781 0.57607 0.17095
 C2634 C 0.71500 0.57108 0.19116
 H2635 H 0.69683 0.62702 0.17777
 H2636 H 0.69557 0.59991 0.15075
 H2637 H 0.70687 0.56419 0.15882
 H2638 H 0.71879 0.55501 0.19423
 H2639 H 0.71876 0.62960 0.25074
 H2640 H 0.72909 0.59394 0.25932
 C2641 C 0.51722 0.12954 0.72926
 C2642 C 0.53846 0.12409 0.72767
 C2643 C 0.55330 0.13868 0.73423
 C2644 C 0.54772 0.15904 0.73947
 C2645 C 0.52707 0.16539 0.73898
 C2646 C 0.51152 0.15024 0.73521
 C2647 C 0.50155 0.11442 0.72675
 C2648 C 0.48083 0.11970 0.72919
 C2649 C 0.47528 0.13987 0.73495
 C2650 C 0.49042 0.15491 0.73830
 H2651 H 0.50507 0.09822 0.72373
 H2652 H 0.46904 0.10792 0.72718
 H2653 H 0.45920 0.14374 0.73742
 H2654 H 0.48542 0.16987 0.74423
 H2655 H 0.56956 0.13486 0.73364
 H2656 H 0.55977 0.17017 0.74301
 C2657 C 1.05781 0.14779 0.21620
 C2658 C 1.04246 0.13290 0.21099
 C2659 C 1.02168 0.13882 0.21181
 C2660 C 1.01590 0.15882 0.21820
 C2661 C 1.03060 0.17345 0.22488
 C2662 C 1.05193 0.16774 0.22438
 C2663 C 1.07895 0.14353 0.21271
 C2664 C 1.09409 0.15737 0.21941
 C2665 C 1.08851 0.17597 0.22910
 C2666 C 1.06777 0.18138 0.23109
 H2667 H 1.08407 0.12971 0.20440
 H2668 H 1.11023 0.15371 0.21695
 H2669 H 1.10034 0.18666 0.23442
 H2670 H 1.06474 0.19652 0.23758
 H2671 H 1.00977 0.12773 0.20766
 H2672 H 0.99965 0.16275 0.21837
 C2673 C 0.23739 0.62996 0.52422
 C2674 C 0.21659 0.62597 0.52978
 C2675 C 0.20206 0.64205 0.52869
 C2676 C 0.20791 0.66209 0.52296
 C2677 C 0.22849 0.66670 0.51815
 C2678 C 0.24342 0.65052 0.51828
 C2679 C 0.25216 0.61382 0.52377
 C2680 C 0.27251 0.61787 0.51784
 C2681 C 0.27841 0.63791 0.51194
 C2682 C 0.26402 0.65409 0.51196
 H2683 H 0.24810 0.59791 0.52760
 H2684 H 0.28370 0.60534 0.51756
 H2685 H 0.29415 0.64089 0.50705
 H2686 H 0.26911 0.66922 0.50652
 H2687 H 0.18610 0.63911 0.53281
 H2688 H 0.19634 0.67425 0.52283
 C2689 C 0.22926 0.12216 1.01801
 C2690 C 0.20850 0.11992 1.02472
 C2691 C 0.19514 0.13702 1.02359
 C2692 C 0.20224 0.15644 1.01694
 C2693 C 0.22295 0.15934 1.01125
 C2694 C 0.23656 0.14203 1.01122
 C2695 C 0.24276 0.10490 1.01729
 C2696 C 0.26308 0.10722 1.01037
 C2697 C 0.27021 0.12661 1.00371
 C2698 C 0.25708 0.14384 1.00393
 H2699 H 0.23767 0.08943 1.02163
 H2700 H 0.27326 0.09385 1.00989
 H2701 H 0.28591 0.12825 0.99806
 H2702 H 0.26301 0.15840 0.99790
 H2703 H 0.17920 0.13542 1.02853
 H2704 H 0.19160 0.16949 1.01680
 C2705 C 0.20049 0.71647 0.61305
 C2706 C 0.21613 0.71718 0.62872
 C2707 C 0.23619 0.72286 0.62292
 C2708 C 0.24082 0.72860 0.60212
 C2709 C 0.22548 0.72895 0.58652
 C2710 C 0.20514 0.72256 0.59179
 C2711 C 0.18050 0.70911 0.61787
 C2712 C 0.16527 0.70837 0.60232
 C2713 C 0.16973 0.71450 0.58164
 C2714 C 0.18949 0.72130 0.57628
 H2715 H 0.17649 0.70346 0.63350
 H2716 H 0.14999 0.70277 0.60629
 H2717 H 0.15787 0.71371 0.56962
 H2718 H 0.19237 0.72516 0.55986
 H2719 H 0.24827 0.72310 0.63474
 H2720 H 0.25648 0.73314 0.59822
 C2721 C 0.23593 0.21527 1.11501
 C2722 C 0.21463 0.21521 1.12064
 C2723 C 0.20009 0.22119 1.10535
 C2724 C 0.20593 0.22524 1.08448
 C2725 C 0.22663 0.22412 1.07810
 C2726 C 0.24195 0.21993 1.09367
 C2727 C 0.25147 0.21281 1.13054
 C2728 C 0.27228 0.21380 1.12510
 C2729 C 0.27811 0.21817 1.10436
 C2730 C 0.26318 0.22161 1.08894
 H2731 H 0.24792 0.21102 1.14719
 H2732 H 0.28393 0.21182 1.13720
 H2733 H 0.29430 0.21956 1.10034
 H2734 H 0.26854 0.22652 1.07363
 H2735 H 0.18383 0.22163 1.10930
 H2736 H 0.19402 0.22895 1.07308
 C2737 C 0.69346 0.52681 0.14098
 C2738 C 0.70848 0.52695 0.12451
 C2739 C 0.72901 0.52229 0.12935
 C2740 C 0.73486 0.51726 0.14995
 C2741 C 0.72034 0.51646 0.16645
 C2742 C 0.69936 0.52119 0.16206
 C2743 C 0.67297 0.53337 0.13731
 C2744 C 0.65838 0.53326 0.15360
 C2745 C 0.66399 0.52728 0.17395
 C2746 C 0.68430 0.52173 0.17831
 H2747 H 0.66800 0.53913 0.12209
 H2748 H 0.64269 0.53813 0.15048
 H2749 H 0.65260 0.52732 0.18650
 H2750 H 0.68803 0.51833 0.19458
 H2751 H 0.74064 0.52272 0.11697
 H2752 H 0.75095 0.51389 0.15305
 C2753 C 0.71933 1.00865 0.62146
 C2754 C 0.71398 1.02977 0.61788
 C2755 C 0.71482 1.04402 0.63470
 C2756 C 0.72047 1.03767 0.65495
 C2757 C 0.72548 1.01683 0.65909
 C2758 C 0.72522 1.00210 0.64223
 C2759 C 0.71971 0.99408 0.60465
 C2760 C 0.72555 0.97346 0.60822
 C2761 C 0.73143 0.96707 0.62843
 C2762 C 0.73148 0.98123 0.64526
 H2763 H 0.71588 0.99853 0.58859
 H2764 H 0.72577 0.96244 0.59518
 H2765 H 0.73625 0.95111 0.63101
 H2766 H 0.73685 0.97574 0.66047
 H2767 H 0.71080 1.06021 0.63211
 H2768 H 0.72078 1.04916 0.66760
 C2769 C 0.55982 0.21213 0.64324
 C2770 C 0.54480 0.21199 0.62691
 C2771 C 0.52429 0.21687 0.63195
 C2772 C 0.51861 0.22262 0.65248
 C2773 C 0.53330 0.22397 0.66864
 C2774 C 0.55411 0.21849 0.66420
 C2775 C 0.58023 0.20537 0.63942
 C2776 C 0.59494 0.20592 0.65549
 C2777 C 0.58951 0.21260 0.67577
 C2778 C 0.56925 0.21848 0.68026
 H2779 H 0.58500 0.19920 0.62421
 H2780 H 0.61058 0.20089 0.65226
 H2781 H 0.60101 0.21289 0.68813
 H2782 H 0.56556 0.22265 0.69644
 H2783 H 0.51262 0.21662 0.61970
 H2784 H 0.50265 0.22660 0.65565
 C2785 C 1.05642 0.23025 0.13266
 C2786 C 1.04132 0.22040 0.11956
 C2787 C 1.02100 0.21907 0.12716
 C2788 C 1.01532 0.22759 0.14658
 C2789 C 1.02948 0.23834 0.15930
 C2790 C 1.05022 0.24064 0.15182
 C2791 C 1.07778 0.22835 0.12832
 C2792 C 1.09234 0.23910 0.14024
 C2793 C 1.08610 0.25134 0.15724
 C2794 C 1.06542 0.25187 0.16326
 H2795 H 1.08367 0.21787 0.11632
 H2796 H 1.10857 0.23768 0.13644
 H2797 H 1.09747 0.25972 0.16646
 H2798 H 1.06211 0.26092 0.17719
 H2799 H 1.00910 0.21173 0.11774
 H2800 H 0.99946 0.22573 0.15174
 C2801 C 0.62796 0.23900 0.72946
 C2802 C 0.63181 0.21755 0.72577
 C2803 C 0.61595 0.20308 0.72892
 C2804 C 0.59614 0.20964 0.73418
 C2805 C 0.59155 0.23087 0.73648
 C2806 C 0.60767 0.24575 0.73490
 C2807 C 0.64401 0.25380 0.72847
 C2808 C 0.64013 0.27484 0.73246
 C2809 C 0.62035 0.28144 0.73789
 C2810 C 0.60428 0.26706 0.73932
 H2811 H 0.65975 0.24924 0.72512
 H2812 H 0.65259 0.28603 0.73167
 H2813 H 0.61750 0.29773 0.74133
 H2814 H 0.58942 0.27273 0.74446
 H2815 H 0.61871 0.18663 0.72622
 H2816 H 0.58407 0.19807 0.73558
 C2817 C 1.11204 0.21776 0.20155
 C2818 C 1.12886 0.22567 0.21325
 C2819 C 1.12537 0.23889 0.23058
 C2820 C 1.10537 0.24466 0.23629
 C2821 C 1.08846 0.23741 0.22469
 C2822 C 1.09166 0.22382 0.20713
 C2823 C 1.11509 0.20341 0.18478
 C2824 C 1.09838 0.19532 0.17363
 C2825 C 1.07842 0.20136 0.17892
 C2826 C 1.07506 0.21552 0.19540
 H2827 H 1.13031 0.19807 0.18031
 H2828 H 1.10092 0.18429 0.16085
 H2829 H 1.06547 0.19508 0.17020
 H2830 H 1.05937 0.21968 0.19886
 H2831 H 1.13827 0.24468 0.23973
 H2832 H 1.10306 0.25491 0.24979
 C2833 C 0.12571 0.74133 0.52404
 C2834 C 0.12166 0.72019 0.52901
 C2835 C 0.13765 0.70558 0.52785
 C2836 C 0.15764 0.71172 0.52276
 C2837 C 0.16231 0.73266 0.51867
 C2838 C 0.14619 0.74763 0.51875
 C2839 C 0.10969 0.75622 0.52346
 C2840 C 0.11376 0.77689 0.51807
 C2841 C 0.13370 0.78302 0.51275
 C2842 C 0.14974 0.76854 0.51286
 H2843 H 0.09386 0.75199 0.52672
 H2844 H 0.10131 0.78814 0.51767
 H2845 H 0.13669 0.79900 0.50820
 H2846 H 0.16476 0.77376 0.50777
 H2847 H 0.13468 0.68936 0.53150
 H2848 H 0.16971 0.70006 0.52254
 C2849 C 0.12619 0.21732 1.00182
 C2850 C 0.12245 0.21137 1.02310
 C2851 C 0.13869 0.21136 1.03766
 C2852 C 0.15855 0.21681 1.03142
 C2853 C 0.16281 0.22257 1.01042
 C2854 C 0.14650 0.22318 0.99542
 C2855 C 0.11000 0.21833 0.98697
 C2856 C 0.11370 0.22493 0.96622
 C2857 C 0.13343 0.23098 0.96003
 C2858 C 0.14966 0.23032 0.97448
 H2859 H 0.09435 0.21431 0.99131
 H2860 H 0.10113 0.22565 0.95498
 H2861 H 0.13613 0.23646 0.94400
 H2862 H 0.16449 0.23592 0.96922
 H2863 H 0.13589 0.20696 1.05402
 H2864 H 0.17078 0.21636 1.04308
 C2865 C 0.62909 0.51543 0.22688
 C2866 C 0.62712 0.53679 0.22162
 C2867 C 0.64380 0.55025 0.22470
 C2868 C 0.66267 0.54270 0.23168
 C2869 C 0.66541 0.52144 0.23595
 C2870 C 0.64838 0.50768 0.23423
 C2871 C 0.61211 0.50175 0.22559
 C2872 C 0.61413 0.48084 0.23123
 C2873 C 0.63291 0.47329 0.23861
 C2874 C 0.64983 0.48659 0.24032
 H2875 H 0.59707 0.50713 0.22067
 H2876 H 0.60098 0.47051 0.23019
 H2877 H 0.63428 0.45714 0.24335
 H2878 H 0.66379 0.48035 0.24702
 H2879 H 0.64238 0.56664 0.22082
 H2880 H 0.67550 0.55346 0.23295
 C2881 C 0.62848 1.01016 0.72285
 C2882 C 0.62500 1.03190 0.72075
 C2883 C 0.64106 1.04579 0.72499
 C2884 C 0.66059 1.03857 0.73019
 C2885 C 0.66490 1.01718 0.73117
 C2886 C 0.64861 1.00270 0.72805
 C2887 C 0.61223 0.99571 0.72064
 C2888 C 0.61574 0.97440 0.72304
 C2889 C 0.63532 0.96712 0.72811
 C2890 C 0.65157 0.98108 0.73081
 H2891 H 0.59662 1.00071 0.71753
 H2892 H 0.60312 0.96350 0.72130
 H2893 H 0.63786 0.95058 0.73030
 H2894 H 0.66623 0.97479 0.73563
 H2895 H 0.63857 1.06244 0.72365
 H2896 H 0.67266 1.04987 0.73289
 C2897 C 0.86244 0.45523 0.28494
 C2898 C 0.87806 0.46935 0.27876
 C2899 C 0.87300 0.48706 0.26697
 C2900 C 0.85261 0.49096 0.26120
 C2901 C 0.83684 0.47714 0.26695
 C2902 C 0.84163 0.45916 0.27908
 C2903 C 0.86702 0.43770 0.29759
 C2904 C 0.85139 0.42442 0.30453
 C2905 C 0.83100 0.42839 0.29907
 C2906 C 0.82611 0.44552 0.28644
 H2907 H 0.88262 0.43428 0.30253
 H2908 H 0.85509 0.41112 0.31436
 H2909 H 0.81889 0.41818 0.30474
 H2910 H 0.81007 0.44815 0.28285
 H2911 H 0.88493 0.49798 0.26239
 H2912 H 0.84907 0.50496 0.25233
 C2913 C 0.85617 0.94963 0.78876
 C2914 C 0.87402 0.95847 0.77954
 C2915 C 0.87221 0.97305 0.76318
 C2916 C 0.85285 0.97932 0.75609
 C2917 C 0.83495 0.97107 0.76522
 C2918 C 0.83643 0.95598 0.78155
 C2919 C 0.85759 0.93468 0.80510
 C2920 C 0.83983 0.92621 0.81420
 C2921 C 0.82046 0.93241 0.80718
 C2922 C 0.81870 0.94713 0.79100
 H2923 H 0.87236 0.92940 0.81094
 H2924 H 0.84111 0.91477 0.82674
 H2925 H 0.80671 0.92581 0.81428
 H2926 H 0.80338 0.95158 0.78606
 H2927 H 0.88592 0.97980 0.75613
 H2928 H 0.85180 0.99090 0.74363
 C2929 C 0.39284 0.28625 0.79412
 C2930 C 0.37805 0.28427 0.77775
 C2931 C 0.38439 0.27821 0.75739
 C2932 C 0.40496 0.27325 0.75322
 C2933 C 0.41974 0.27405 0.76937
 C2934 C 0.41381 0.28091 0.79001
 C2935 C 0.38737 0.29439 0.81423
 C2936 C 0.40200 0.29644 0.83021
 C2937 C 0.42238 0.29098 0.82635
 C2938 C 0.42839 0.28367 0.80641
 H2939 H 0.37192 0.29968 0.81776
 H2940 H 0.39754 0.30256 0.84560
 H2941 H 0.43361 0.29273 0.83884
 H2942 H 0.44458 0.28074 0.80392
 H2943 H 0.37320 0.27708 0.74471
 H2944 H 0.40932 0.26838 0.73734
 C2945 C 0.88984 0.30491 0.27303
 C2946 C 0.87634 0.28798 0.27717
 C2947 C 0.88390 0.26759 0.27590
 C2948 C 0.90429 0.26366 0.27020
 C2949 C 0.91776 0.27995 0.26486
 C2950 C 0.91036 0.30093 0.26576
 C2951 C 0.88368 0.32575 0.27682
 C2952 C 0.89650 0.34235 0.27156
 C2953 C 0.91585 0.33858 0.26292
 C2954 C 0.92290 0.31819 0.26044
 H2955 H 0.86918 0.32954 0.28435
 H2956 H 0.89144 0.35822 0.27432
 H2957 H 0.92575 0.35155 0.25880
 H2958 H 0.93839 0.31648 0.25475
 H2959 H 0.87382 0.25456 0.27937
 H2960 H 0.90952 0.24762 0.26964
 C2961 C 0.35529 0.79823 0.45530
 C2962 C 0.37217 0.78907 0.46595
 C2963 C 0.36867 0.77446 0.48202
 C2964 C 0.34862 0.76873 0.48758
 C2965 C 0.33167 0.77745 0.47713
 C2966 C 0.33484 0.79228 0.46081
 C2967 C 0.35837 0.81343 0.43943
 C2968 C 0.34162 0.82262 0.42927
 C2969 C 0.32160 0.81677 0.43459
 C2970 C 0.31814 0.80159 0.45006
 H2971 H 0.37368 0.81846 0.43489
 H2972 H 0.34417 0.83440 0.41726
 H2973 H 0.30872 0.82420 0.42681
 H2974 H 0.30234 0.79752 0.45378
 H2975 H 0.38157 0.76759 0.49032
 H2976 H 0.34630 0.75739 0.50010
 C2977 C 0.37046 0.25961 0.96744
 C2978 C 0.37343 0.28104 0.96290
 C2979 C 0.35654 0.29457 0.96301
 C2980 C 0.33678 0.28716 0.96703
 C2981 C 0.33326 0.26597 0.97111
 C2982 C 0.35020 0.25198 0.97160
 C2983 C 0.38732 0.24576 0.96871
 C2984 C 0.38429 0.22480 0.97366
 C2985 C 0.36453 0.21736 0.97780
 C2986 C 0.34764 0.23080 0.97699
 H2987 H 0.40299 0.25102 0.96629
 H2988 H 0.39736 0.21435 0.97457
 H2989 H 0.36230 0.20113 0.98193
 H2990 H 0.33272 0.22451 0.98100
 H2991 H 0.35871 0.31097 0.95961
 H2992 H 0.32402 0.29810 0.96681
 C2993 C 0.80776 0.47044 0.36289
 C2994 C 0.79235 0.46776 0.37875
 C2995 C 0.77162 0.47048 0.37337
 C2996 C 0.76590 0.47602 0.35287
 C2997 C 0.78073 0.47949 0.33702
 C2998 C 0.80200 0.47697 0.34204
 C2999 C 0.82870 0.46589 0.36700
 C3000 C 0.84381 0.46933 0.35165
 C3001 C 0.83837 0.47669 0.33173
 C3002 C 0.81771 0.47994 0.32672
 H3003 H 0.83369 0.45928 0.38185
 H3004 H 0.85983 0.46609 0.35516
 H3005 H 0.85022 0.47948 0.31995
 H3006 H 0.81441 0.48453 0.31068
 H3007 H 0.75972 0.46817 0.38525
 H3008 H 0.74964 0.47775 0.34937
 C3009 C 0.80794 0.96509 0.85570
 C3010 C 0.79259 0.95724 0.86969
 C3011 C 0.77203 0.95706 0.86317
 C3012 C 0.76639 0.96470 0.84339
 C3013 C 0.78096 0.97360 0.82957
 C3014 C 0.80206 0.97455 0.83610
 C3015 C 0.82913 0.96300 0.86045
 C3016 C 0.84413 0.97192 0.84751
 C3017 C 0.83841 0.98271 0.82940
 C3018 C 0.81773 0.98385 0.82356
 H3019 H 0.83441 0.95405 0.87389
 H3020 H 0.86029 0.97033 0.85147
 H3021 H 0.85014 0.98964 0.81937
 H3022 H 0.81471 0.99171 0.80890
 H3023 H 0.76014 0.95108 0.87362
 H3024 H 0.75028 0.96391 0.83898
 C3025 C 0.27873 0.77053 0.37662
 C3026 C 0.28488 0.79160 0.37414
 C3027 C 0.28245 0.80552 0.39113
 C3028 C 0.27518 0.79869 0.41072
 C3029 C 0.27045 0.77767 0.41405
 C3030 C 0.27154 0.76347 0.39679
 C3031 C 0.27882 0.75652 0.35931
 C3032 C 0.27249 0.73590 0.36191
 C3033 C 0.26553 0.72899 0.38160
 C3034 C 0.26483 0.74264 0.39885
 H3035 H 0.28327 0.76140 0.34353
 H3036 H 0.27265 0.72533 0.34848
 H3037 H 0.26031 0.71306 0.38343
 H3038 H 0.25845 0.73687 0.41355
 H3039 H 0.28678 0.82173 0.38932
 H3040 H 0.27389 0.80981 0.42364
 C3041 C 0.26301 0.27252 0.86547
 C3042 C 0.28374 0.27873 0.86228
 C3043 C 0.29767 0.27758 0.87917
 C3044 C 0.29123 0.27117 0.89924
 C3045 C 0.27064 0.26566 0.90305
 C3046 C 0.25640 0.26584 0.88599
 C3047 C 0.24887 0.27213 0.84850
 C3048 C 0.22862 0.26552 0.85170
 C3049 C 0.22220 0.25884 0.87168
 C3050 C 0.23596 0.25880 0.88864
 H3051 H 0.25338 0.27654 0.83258
 H3052 H 0.21793 0.26528 0.83854
 H3053 H 0.20656 0.25339 0.87397
 H3054 H 0.23058 0.25271 0.90363
 H3055 H 0.31359 0.28214 0.87684
 H3056 H 0.30234 0.27096 0.91205
 C3057 C 0.46841 0.30667 0.86182
 C3058 C 0.46784 0.29122 0.87788
 C3059 C 0.47343 0.27070 0.87299
 C3060 C 0.47991 0.26529 0.85265
 C3061 C 0.48110 0.28029 0.83657
 C3062 C 0.47522 0.30121 0.84099
 C3063 C 0.46123 0.32713 0.86570
 C3064 C 0.46137 0.34206 0.84965
 C3065 C 0.46816 0.33682 0.82938
 C3066 C 0.47471 0.31657 0.82493
 H3067 H 0.45504 0.33177 0.88093
 H3068 H 0.45592 0.35771 0.85289
 H3069 H 0.46804 0.34845 0.81699
 H3070 H 0.47884 0.31308 0.80872
 H3071 H 0.47263 0.25877 0.88512
 H3072 H 0.48409 0.24923 0.84941
 C3073 C 0.96617 0.26980 0.36883
 C3074 C 0.96265 0.29129 0.37292
 C3075 C 0.96822 0.30596 0.35751
 C3076 C 0.97604 0.29973 0.33791
 C3077 C 0.97794 0.27859 0.33265
 C3078 C 0.97381 0.26339 0.34851
 C3079 C 0.96330 0.25464 0.38479
 C3080 C 0.96725 0.23364 0.38075
 C3081 C 0.97469 0.22739 0.36101
 C3082 C 0.97824 0.24209 0.34514
 H3083 H 0.95859 0.25879 0.40071
 H3084 H 0.96495 0.22220 0.39316
 H3085 H 0.97821 0.21112 0.35813
 H3086 H 0.98523 0.23665 0.33060
 H3087 H 0.96622 0.32245 0.36061
 H3088 H 0.98023 0.31164 0.32656
 C3089 C 0.45347 0.36469 0.77780
 C3090 C 0.46879 0.38041 0.77894
 C3091 C 0.48941 0.37524 0.77500
 C3092 C 0.49503 0.35494 0.76950
 C3093 C 0.48018 0.33920 0.76755
 C3094 C 0.45912 0.34399 0.77182
 C3095 C 0.43280 0.36888 0.78357
 C3096 C 0.41781 0.35342 0.78238
 C3097 C 0.42317 0.33339 0.77610
 C3098 C 0.44363 0.32852 0.77138
 H3099 H 0.42795 0.38394 0.78942
 H3100 H 0.40198 0.35694 0.78659
 H3101 H 0.41141 0.32151 0.77517
 H3102 H 0.44707 0.31251 0.76776
 H3103 H 0.50123 0.38708 0.77631
 H3104 H 0.51118 0.35149 0.76668
 C3105 C 0.95771 0.36582 0.29150
 C3106 C 0.96595 0.38294 0.28015
 C3107 C 0.97899 0.37945 0.26277
 C3108 C 0.98454 0.35924 0.25692
 C3109 C 0.97720 0.34210 0.26839
 C3110 C 0.96353 0.34521 0.28569
 C3111 C 0.94341 0.36879 0.30818
 C3112 C 0.93513 0.35175 0.31899
 C3113 C 0.94089 0.33156 0.31339
 C3114 C 0.95502 0.32824 0.29696
 H3115 H 0.93826 0.38420 0.31278
 H3116 H 0.92409 0.35422 0.33168
 H3117 H 0.93431 0.31839 0.32172
 H3118 H 0.95884 0.31230 0.29286
 H3119 H 0.98511 0.39254 0.25392
 H3120 H 0.99491 0.35696 0.24357
 C3121 C 0.26546 0.87499 0.46836
 C3122 C 0.28692 0.87753 0.46484
 C3123 C 0.30038 0.86122 0.46979
 C3124 C 0.29290 0.84222 0.47709
 C3125 C 0.27167 0.83874 0.47943
 C3126 C 0.25776 0.85545 0.47573
 C3127 C 0.25158 0.89171 0.46552
 C3128 C 0.23057 0.88918 0.46947
 C3129 C 0.22306 0.87018 0.47677
 C3130 C 0.23649 0.85354 0.48012
 H3131 H 0.25680 0.90699 0.46072
 H3132 H 0.22011 0.90214 0.46723
 H3133 H 0.20679 0.86844 0.48023
 H3134 H 0.23014 0.83949 0.48681
 H3135 H 0.31683 0.86314 0.46754
 H3136 H 0.30383 0.82990 0.48045
 C3137 C 0.27723 0.36649 0.98081
 C3138 C 0.28625 0.36969 0.96052
 C3139 C 0.28650 0.35334 0.94576
 C3140 C 0.27880 0.33379 0.95101
 C3141 C 0.27073 0.32994 0.97126
 C3142 C 0.26959 0.34636 0.98631
 C3143 C 0.27501 0.38299 0.99550
 C3144 C 0.26606 0.37961 1.01537
 C3145 C 0.25886 0.35989 1.02085
 C3146 C 0.26041 0.34342 1.00646
 H3147 H 0.27973 0.39870 0.99169
 H3148 H 0.26450 0.39241 1.02649
 H3149 H 0.25175 0.35742 1.03623
 H3150 H 0.25401 0.32854 1.01111
 H3151 H 0.29315 0.35567 0.93014
 H3152 H 0.27971 0.32136 0.93935
 C3153 C 0.76051 0.37449 0.27592
 C3154 C 0.78161 0.36890 0.27726
 C3155 C 0.79668 0.38393 0.27287
 C3156 C 0.79126 0.40442 0.26834
 C3157 C 0.77061 0.41083 0.26860
 C3158 C 0.75495 0.39560 0.27149
 C3159 C 0.74482 0.35938 0.27794
 C3160 C 0.72412 0.36491 0.27599
 C3161 C 0.71870 0.38541 0.27146
 C3162 C 0.73392 0.40055 0.26895
 H3163 H 0.74833 0.34310 0.28046
 H3164 H 0.71225 0.35314 0.27756
 H3165 H 0.70263 0.38951 0.26944
 H3166 H 0.72910 0.41589 0.26422
 H3167 H 0.81288 0.37985 0.27345
 H3168 H 0.80341 0.41547 0.26499
   
