data_POSCAR
  _audit_creation_date              2014-09-24
  _audit_creation_method            'ToBaCCo'
  _symmetry_space_group_name_H-M    'P1'
  _symmetry_Int_Tables_number       1
  _symmetry_cell_setting            triclinic
  loop_
  _symmetry_equiv_pos_as_xyz
 x,y,z
_cell_length_a 50.2933
_cell_length_b 50.3441
_cell_length_c 50.3365
_cell_angle_alpha 89.985800
_cell_angle_beta 90.040600
_cell_angle_gamma 90.049200
loop_
  _atom_site_label
  _atom_site_type_symbol
  _atom_site_fract_x
  _atom_site_fract_y
  _atom_site_fract_z
C1 C 0.22609 1.07833 -0.01024
 C2 C 0.22642 1.07799 0.01701
 C3 C 0.23927 1.05477 0.02449
 N4 N 0.24626 1.04067 0.00274
 C5 C 0.23841 1.05516 -0.01844
 C6 C 0.24574 1.04725 0.05085
 C7 C 0.25172 1.02035 0.05684
 C8 C 0.26560 1.01150 0.07900
 C9 C 0.26521 0.98419 0.07822
 C10 C 0.25152 0.97714 0.05540
 N11 N 0.24365 0.99922 0.04230
 C12 C 0.24460 0.95098 0.04812
 C13 C 0.23855 0.94436 0.02160
 C14 C 0.22623 0.92117 0.01336
 C15 C 0.22658 0.92151 -0.01389
 C16 C 0.23942 0.94476 -0.02136
 N17 N 0.24639 0.95887 0.00041
 C18 C 0.24584 0.95231 -0.04772
 C19 C 0.25171 0.97924 -0.05373
 C20 C 0.26555 0.98817 -0.07589
 C21 C 0.26508 1.01548 -0.07511
 C22 C 0.25140 1.02247 -0.05230
 N23 N 0.24359 1.00035 -0.03921
 C24 C 0.24458 1.04863 -0.04494
 H25 H 0.21782 1.09386 -0.02260
 H26 H 0.21819 1.09315 0.02983
 H27 H 0.23089 0.99979 -0.02285
 H28 H 0.27496 1.02343 0.09425
 H29 H 0.27394 0.97103 0.09282
 H30 H 0.21793 0.90564 0.02570
 H31 H 0.21835 0.90634 -0.02673
 H32 H 0.27379 1.02868 -0.08969
 H33 H 0.23089 0.99971 0.02596
 H34 H 0.27496 0.97629 -0.09112
 C35 C 0.76294 0.48560 0.57724
 C36 C 0.76322 0.51287 0.57742
 C37 C 0.75190 0.52099 0.55365
 N38 N 0.74482 0.49967 0.53896
 C39 C 0.75149 0.47803 0.55335
 C40 C 0.74637 0.54753 0.54649
 C41 C 0.73943 0.55466 0.52022
 C42 C 0.72751 0.57837 0.51281
 C43 C 0.72657 0.57854 0.48548
 C44 C 0.73797 0.55496 0.47698
 N45 N 0.74556 0.54044 0.49828
 C46 C 0.74328 0.54827 0.45022
 C47 C 0.74875 0.52191 0.44236
 C48 C 0.75908 0.51434 0.41800
 C49 C 0.75936 0.48707 0.41782
 C50 C 0.74913 0.47894 0.44206
 N51 N 0.74272 0.50026 0.45703
 C52 C 0.74399 0.45237 0.44951
 C53 C 0.73822 0.44530 0.47607
 C54 C 0.72652 0.42166 0.48404
 C55 C 0.72694 0.42147 0.51139
 C56 C 0.73891 0.44500 0.51932
 N57 N 0.74551 0.45950 0.49768
 C58 C 0.74552 0.45168 0.54579
 H59 H 0.77024 0.47283 0.59292
 H60 H 0.77077 0.52527 0.59328
 H61 H 0.75736 0.47647 0.49759
 H62 H 0.72055 0.59407 0.52573
 H63 H 0.71876 0.59442 0.47326
 H64 H 0.76570 0.52711 0.40201
 H65 H 0.76623 0.47468 0.40166
 H66 H 0.71963 0.40564 0.52396
 H67 H 0.75729 0.52341 0.49779
 H68 H 0.71882 0.40600 0.47148
 C69 C 0.77371 1.01202 1.07659
 C70 C 0.77369 0.98479 1.07606
 C71 C 0.76042 0.97736 1.05307
 N72 N 0.75266 0.99913 1.03934
 C73 C 0.76038 1.02035 1.05395
 C74 C 0.75462 0.95088 1.04541
 C75 C 0.74974 0.94475 1.01832
 C76 C 0.73650 0.92239 1.00898
 C77 C 0.73824 0.92294 0.98172
 C78 C 0.75206 0.94583 0.97514
 N79 N 0.75872 0.95918 0.99750
 C80 C 0.75966 0.95318 0.94914
 C81 C 0.76581 0.97973 0.94269
 C82 C 0.77725 0.98830 0.91915
 C83 C 0.77653 1.01557 0.91966
 C84 C 0.76471 1.02261 0.94350
 N85 N 0.75834 1.00070 0.95759
 C86 C 0.75734 1.04854 0.95102
 C87 C 0.74995 1.05456 0.97740
 C88 C 0.73565 1.07676 0.98516
 C89 C 0.73469 1.07631 1.01246
 C90 C 0.74872 1.05400 1.02062
 N91 N 0.75752 1.04059 0.99909
 C92 C 0.75454 1.04708 1.04730
 H93 H 0.78275 1.02426 1.09179
 H94 H 0.78268 0.97193 1.09076
 H95 H 0.77053 1.02447 0.99935
 H96 H 0.72671 0.90716 1.02057
 H97 H 0.73021 0.90820 0.96828
 H98 H 0.78485 0.97619 0.90310
 H99 H 0.78347 1.02868 0.90410
 H100 H 0.72493 1.09088 1.02489
 H101 H 0.77120 0.97570 0.99864
 H102 H 0.72692 1.09178 0.97249
 C103 C 0.23553 0.41984 0.48749
 C104 C 0.23563 0.41969 0.51477
 C105 C 0.24632 0.44381 0.52271
 N106 N 0.25264 0.45868 0.50129
 C107 C 0.24613 0.44406 0.47975
 C108 C 0.25207 0.45116 0.54916
 C109 C 0.25827 0.47765 0.55612
 C110 C 0.27057 0.48549 0.57950
 C111 C 0.27055 0.51283 0.57964
 C112 C 0.25816 0.52089 0.55637
 N113 N 0.25095 0.49933 0.54205
 C114 C 0.25176 0.54742 0.54974
 C115 C 0.24535 0.55492 0.52348
 C116 C 0.23392 0.57882 0.51599
 C117 C 0.23332 0.57897 0.48872
 C118 C 0.24443 0.55516 0.48051
 N119 N 0.25168 0.54048 0.50178
 C120 C 0.24980 0.54799 0.45394
 C121 C 0.25640 0.52165 0.44683
 C122 C 0.26834 0.51408 0.42318
 C123 C 0.26887 0.48674 0.42303
 C124 C 0.25724 0.47842 0.44658
 N125 N 0.24990 0.49981 0.46105
 C126 C 0.25160 0.45175 0.45334
 H127 H 0.22856 0.40391 0.47483
 H128 H 0.22876 0.40361 0.52728
 H129 H 0.23813 0.49949 0.47807
 H130 H 0.27844 0.47283 0.59500
 H131 H 0.27842 0.52532 0.59528
 H132 H 0.22687 0.59456 0.52882
 H133 H 0.22573 0.59485 0.47637
 H134 H 0.27661 0.47442 0.40721
 H135 H 0.23877 0.49936 0.52531
 H136 H 0.27560 0.52690 0.40752
 C137 C 1.07775 0.22173 -0.01235
 C138 C 1.07776 0.22190 0.01488
 C139 C 1.05523 0.23573 0.02265
 N140 N 1.04123 0.24363 0.00111
 C141 C 1.05525 0.23549 -0.02031
 C142 C 1.04826 0.24204 0.04916
 C143 C 1.02151 0.24806 0.05565
 C144 C 1.01306 0.26191 0.07796
 C145 C 0.98571 0.26124 0.07782
 C146 C 0.97825 0.24736 0.05525
 N147 N 1.00013 0.23972 0.04166
 C148 C 0.95197 0.24024 0.04850
 C149 C 0.94512 0.23351 0.02221
 C150 C 0.92195 0.22081 0.01448
 C151 C 0.92190 0.22080 -0.01279
 C152 C 0.94489 0.23386 -0.02071
 N153 N 0.95924 0.24124 0.00074
 C154 C 0.95180 0.24059 -0.04712
 C155 C 0.97842 0.24738 -0.05346
 C156 C 0.98629 0.26279 -0.07494
 C157 C 1.01360 0.26314 -0.07487
 C158 C 1.02171 0.24797 -0.05333
 N159 N 1.00015 0.23894 -0.04001
 C160 C 1.04840 0.24178 -0.04684
 H161 H 1.09257 0.21245 -0.02486
 H162 H 1.09256 0.21275 0.02753
 H163 H 1.00033 0.22554 -0.02419
 H164 H 1.02530 0.27136 0.09292
 H165 H 0.97281 0.26989 0.09268
 H166 H 0.90664 0.21258 0.02715
 H167 H 0.90659 0.21235 -0.02533
 H168 H 1.02607 0.27349 -0.08901
 H169 H 1.00048 0.22697 0.02533
 H170 H 0.97366 0.27286 -0.08914
 C171 C 0.48941 0.72906 0.57895
 C172 C 0.51670 0.72920 0.57805
 C173 C 0.52369 0.73974 0.55359
 N174 N 0.50168 0.74603 0.53956
 C175 C 0.48070 0.73962 0.55504
 C176 C 0.54985 0.74556 0.54526
 C177 C 0.55594 0.75116 0.51842
 C178 C 0.57920 0.76301 0.50953
 C179 C 0.57831 0.76259 0.48221
 C180 C 0.55452 0.75053 0.47519
 N181 N 0.54093 0.74378 0.49736
 C182 C 0.54666 0.74424 0.44897
 C183 C 0.51987 0.73896 0.44244
 C184 C 0.51098 0.72844 0.41858
 C185 C 0.48369 0.72902 0.41948
 C186 C 0.47690 0.73984 0.44387
 N187 N 0.49902 0.74581 0.45788
 C188 C 0.45085 0.74619 0.45216
 C189 C 0.44491 0.75212 0.47896
 C190 C 0.42192 0.76449 0.48778
 C191 C 0.42280 0.76420 0.51510
 C192 C 0.44632 0.75171 0.52220
 N193 N 0.45976 0.74458 0.50007
 C194 C 0.45401 0.74533 0.54847
 H195 H 0.47739 0.72219 0.59540
 H196 H 0.52988 0.72248 0.59367
 H197 H 0.47648 0.73240 0.49945
 H198 H 0.59527 0.77090 0.52147
 H199 H 0.59357 0.77009 0.46903
 H200 H 0.52288 0.72133 0.40216
 H201 H 0.47041 0.72242 0.40390
 H202 H 0.40771 0.77207 0.52824
 H203 H 0.52394 0.73197 0.49806
 H204 H 0.40602 0.77262 0.47579
 C205 C 0.07779 0.77655 0.01313
 C206 C 0.07814 0.77741 -0.01411
 C207 C 0.05521 0.76468 -0.02274
 N208 N 0.04065 0.75656 -0.00171
 C209 C 0.05453 0.76363 0.02017
 C210 C 0.04856 0.75927 -0.04956
 C211 C 0.02198 0.75290 -0.05687
 C212 C 0.01438 0.74086 -0.08047
 C213 C -0.01290 0.74052 -0.08086
 C214 C -0.02147 0.75136 -0.05697
 N215 N 0.00000 0.75885 -0.04250
 C216 C -0.04827 0.75718 -0.05016
 C217 C -0.05590 0.76229 -0.02354
 C218 C -0.08053 0.77163 -0.01532
 C219 C -0.08060 0.77066 0.01187
 C220 C -0.05646 0.75980 0.01953
 N221 N -0.04130 0.75500 -0.00214
 C222 C -0.04907 0.75308 0.04592
 C223 C -0.02218 0.74752 0.05241
 C224 C -0.01369 0.73326 0.07448
 C225 C 0.01362 0.73427 0.07460
 C226 C 0.02106 0.74878 0.05244
 N227 N -0.00080 0.75651 0.03882
 C228 C 0.04733 0.75635 0.04621
 H229 H 0.09293 0.78444 0.02623
 H230 H 0.09357 0.78629 -0.02617
 H231 H -0.00113 0.76976 0.02291
 H232 H 0.02708 0.73343 -0.09612
 H233 H -0.02472 0.73347 -0.09734
 H234 H -0.09708 0.77808 -0.02738
 H235 H -0.09684 0.77694 0.02447
 H236 H 0.02652 0.72543 0.08938
 H237 H -0.00041 0.77028 -0.02525
 H238 H -0.02591 0.72329 0.08910
 C239 C 0.57997 0.27181 0.51246
 C240 C 0.57926 0.27127 0.48519
 C241 C 0.55499 0.26023 0.47819
 N242 N 0.54087 0.25408 0.50016
 C243 C 0.55613 0.26103 0.52113
 C244 C 0.54690 0.25382 0.45212
 C245 C 0.52012 0.24777 0.44605
 C246 C 0.51141 0.23524 0.42310
 C247 C 0.48406 0.23547 0.42383
 C248 C 0.47685 0.24811 0.44722
 N249 N 0.49893 0.25536 0.46073
 C250 C 0.45056 0.25460 0.45469
 C251 C 0.44385 0.26045 0.48128
 C252 C 0.41995 0.27120 0.48977
 C253 C 0.42066 0.27110 0.51705
 C254 C 0.44500 0.26039 0.52423
 N255 N 0.45915 0.25397 0.50237
 C256 C 0.45314 0.25453 0.55042
 C257 C 0.47993 0.24873 0.55662
 C258 C 0.48864 0.23666 0.57981
 C259 C 0.51599 0.23692 0.57906
 C260 C 0.52319 0.24914 0.55544
 N261 N 0.50110 0.25610 0.54180
 C262 C 0.54948 0.25549 0.54780
 H263 H 0.59626 0.27906 0.52450
 H264 H 0.59488 0.27803 0.47205
 H265 H 0.50055 0.26806 0.52492
 H266 H 0.52349 0.22704 0.40732
 H267 H 0.47098 0.22750 0.40872
 H268 H 0.40362 0.27816 0.47762
 H269 H 0.40500 0.27796 0.53008
 H270 H 0.52907 0.22922 0.59431
 H271 H 0.49947 0.26766 0.47737
 H272 H 0.47657 0.22873 0.59575
 C273 C 1.07899 -0.01423 0.26096
 C274 C 1.07927 0.01296 0.26145
 C275 C 1.05470 0.02137 0.25209
 N276 N 1.03984 0.00002 0.24509
 C277 C 1.05471 -0.02177 0.25027
 C278 C 1.04718 0.04815 0.24728
 C279 C 1.02046 0.05526 0.24140
 C280 C 1.01191 0.07982 0.23203
 C281 C 0.98460 0.07954 0.23246
 C282 C 0.97702 0.05517 0.24274
 N283 N 0.99894 0.04045 0.24793
 C284 C 0.95063 0.04797 0.24937
 C285 C 0.94335 0.02152 0.25511
 C286 C 0.91951 0.01362 0.26644
 C287 C 0.91948 -0.01365 0.26630
 C288 C 0.94327 -0.02139 0.25481
 N289 N 0.95785 0.00010 0.24809
 C290 C 0.95043 -0.04766 0.24834
 C291 C 0.97664 -0.05426 0.24084
 C292 C 0.98376 -0.07682 0.22681
 C293 C 1.01105 -0.07688 0.22546
 C294 C 1.01987 -0.05454 0.23908
 N295 N 0.99870 -0.04060 0.24799
 C296 C 1.04689 -0.04825 0.24433
 H297 H 1.09504 -0.02689 0.26758
 H298 H 1.09602 0.02485 0.26773
 H299 H 0.99936 -0.02443 0.26091
 H300 H 1.02378 0.09676 0.22631
 H301 H 0.97186 0.09587 0.22671
 H302 H 0.90371 0.02618 0.27385
 H303 H 0.90365 -0.02629 0.27354
 H304 H 1.02305 -0.09184 0.21576
 H305 H 0.99929 0.02283 0.25873
 H306 H 0.97066 -0.09172 0.21848
 C307 C 0.48803 0.58449 0.74331
 C308 C 0.51521 0.58474 0.74290
 C309 C 0.52343 0.55846 0.74368
 N310 N 0.50202 0.54228 0.74536
 C311 C 0.48033 0.55813 0.74540
 C312 C 0.55027 0.55000 0.74241
 C313 C 0.55839 0.52306 0.74070
 C314 C 0.58401 0.51518 0.73427
 C315 C 0.58415 0.48796 0.73418
 C316 C 0.55862 0.47972 0.74057
 N317 N 0.54303 0.50128 0.74467
 C318 C 0.55080 0.45266 0.74216
 C319 C 0.52405 0.44387 0.74361
 C320 C 0.51611 0.41749 0.74289
 C321 C 0.48891 0.41741 0.74367
 C322 C 0.48097 0.44369 0.74579
 N323 N 0.50250 0.45979 0.74552
 C324 C 0.45436 0.45217 0.74927
 C325 C 0.44675 0.47909 0.75246
 C326 C 0.42213 0.48703 0.76199
 C327 C 0.42194 0.51424 0.76177
 C328 C 0.44646 0.52239 0.75216
 N329 N 0.46152 0.50081 0.74642
 C330 C 0.45378 0.54936 0.74872
 H331 H 0.47553 0.60194 0.74257
 H332 H 0.52733 0.60246 0.74196
 H333 H 0.47964 0.50088 0.73654
 H334 H 0.60086 0.52772 0.72957
 H335 H 0.60113 0.47566 0.72940
 H336 H 0.52845 0.39995 0.74176
 H337 H 0.47657 0.39983 0.74310
 H338 H 0.40563 0.52662 0.76831
 H339 H 0.52373 0.50116 0.75183
 H340 H 0.40597 0.47452 0.76872
 C341 C 1.01634 1.08252 0.74449
 C342 C 0.98909 1.08234 0.74484
 C343 C 0.98147 1.05739 0.75355
 N344 N 1.00318 1.04220 0.75810
 C345 C 1.02462 1.05736 0.75231
 C346 C 0.95507 1.04954 0.75922
 C347 C 0.94834 1.02296 0.76521
 C348 C 0.92490 1.01486 0.77726
 C349 C 0.92487 0.98753 0.77693
 C350 C 0.94827 0.97977 0.76464
 N351 N 0.96256 1.00146 0.75780
 C352 C 0.95486 0.95348 0.75754
 C353 C 0.98102 0.94626 0.75063
 C354 C 0.98805 0.92326 0.73732
 C355 C 1.01527 0.92316 0.73602
 C356 C 1.02396 0.94591 0.74900
 N357 N 1.00293 0.96015 0.75767
 C358 C 1.05087 0.95280 0.75378
 C359 C 1.05811 0.97925 0.76057
 C360 C 1.08195 0.98671 0.77223
 C361 C 1.08229 1.01394 0.77295
 C362 C 1.05815 1.02264 0.76265
 N363 N 1.04357 1.00124 0.75518
 C364 C 1.05128 1.04952 0.75722
 H365 H 1.02842 1.09961 0.73968
 H366 H 0.97644 1.09897 0.73981
 H367 H 1.02621 1.00167 0.74390
 H368 H 0.90923 1.02735 0.78504
 H369 H 0.90916 0.97484 0.78436
 H370 H 0.97494 0.90827 0.72918
 H371 H 1.02727 0.90807 0.72653
 H372 H 1.09894 1.02563 0.77980
 H373 H 0.97927 1.00159 0.74559
 H374 H 1.09783 0.97392 0.77906
 C375 C 0.41874 0.48651 0.27271
 C376 C 0.41890 0.51378 0.27325
 C377 C 0.44291 0.52173 0.26233
 N378 N 0.45738 0.50033 0.25512
 C379 C 0.44261 0.47878 0.26136
 C380 C 0.45033 0.54828 0.25711
 C381 C 0.47686 0.55556 0.25115
 C382 C 0.48471 0.57990 0.24086
 C383 C 0.51205 0.57989 0.24038
 C384 C 0.52018 0.55536 0.24994
 N385 N 0.49862 0.54072 0.25656
 C386 C 0.54689 0.54777 0.25428
 C387 C 0.55464 0.52112 0.25815
 C388 C 0.57988 0.51284 0.26549
 C389 C 0.57960 0.48559 0.26477
 C390 C 0.55435 0.47815 0.25655
 N391 N 0.53915 0.49991 0.25256
 C392 C 0.54616 0.45191 0.25079
 C393 C 0.51926 0.44533 0.24586
 C394 C 0.51062 0.42217 0.23366
 C395 C 0.48329 0.42232 0.23477
 C396 C 0.47600 0.44554 0.24765
 N397 N 0.49803 0.45954 0.25419
 C398 C 0.44971 0.45244 0.25484
 H399 H 0.40278 0.47388 0.27966
 H400 H 0.40309 0.52631 0.28069
 H401 H 0.49863 0.47614 0.26651
 H402 H 0.47211 0.59619 0.23469
 H403 H 0.52444 0.59624 0.23396
 H404 H 0.59683 0.52509 0.27053
 H405 H 0.59625 0.47279 0.26940
 H406 H 0.47030 0.40694 0.22718
 H407 H 0.49884 0.52292 0.26708
 H408 H 0.52275 0.40665 0.22507
 O409 O 0.24912 0.17942 0.21657
 O410 O 0.27829 0.17252 0.25355
 O411 O 0.17962 0.21187 0.25196
 O412 O 0.16988 0.24594 0.27903
 O413 O 0.21257 0.24803 0.18282
 O414 O 0.24938 0.27711 0.17515
 O415 O 0.25031 0.28635 0.32041
 O416 O 0.21791 0.25261 0.32794
 O417 O 0.31677 0.25143 0.28966
 O418 O 0.32608 0.22079 0.25273
 O419 O 0.28453 0.31795 0.25196
 O420 O 0.24682 0.32556 0.22219
 O421 O 0.24839 0.31786 0.28809
 O422 O 0.21815 0.32501 0.24967
 O423 O 0.31673 0.28637 0.25402
 O424 O 0.32522 0.24791 0.22333
 O425 O 0.28463 0.25001 0.32137
 O426 O 0.24751 0.22028 0.32935
 O427 O 0.25050 0.21090 0.18415
 O428 O 0.27929 0.24826 0.17635
 O429 O 0.18025 0.24768 0.21441
 O430 O 0.17355 0.27968 0.25060
 O431 O 0.21173 0.18001 0.25379
 O432 O 0.24895 0.17306 0.28319
 Zr433 Zr 0.24779 0.20134 0.25215
 O434 O 0.27245 0.22458 0.27668
 Zr435 Zr 0.20094 0.24773 0.25073
 O436 O 0.22331 0.27284 0.27575
 Zr437 Zr 0.24829 0.24727 0.20468
 O438 O 0.27255 0.27276 0.22733
 Zr439 Zr 0.24892 0.25018 0.29968
 O440 O 0.22389 0.22476 0.27727
 Zr441 Zr 0.29593 0.25010 0.25345
 O442 O 0.27377 0.22429 0.22863
 Zr443 Zr 0.24875 0.29627 0.25230
 O444 O 0.22427 0.27313 0.22705
 O445 O 0.22344 0.22285 0.22676
 O446 O 0.27368 0.27510 0.27773
 C447 C 0.25041 0.18661 0.19208
 C448 C 0.18734 0.18761 0.25323
 C449 C 0.18806 0.24799 0.19010
 C450 C 0.24959 0.31060 0.31253
 C451 C 0.30905 0.25099 0.31398
 C452 C 0.30897 0.31066 0.25309
 H453 H 0.28348 0.21274 0.28779
 H454 H 0.28352 0.28368 0.21525
 H455 H 0.21233 0.21120 0.21546
 H456 H 0.21128 0.28376 0.28678
 H457 H 0.20411 0.23972 0.32235
 H458 H 0.17482 0.25771 0.29397
 H459 H 0.32247 0.26303 0.21108
 H460 H 0.29337 0.23625 0.18303
 H461 H 0.26121 0.20684 0.32520
 H462 H 0.23601 0.17905 0.29674
 H463 H 0.26045 0.32121 0.20872
 H464 H 0.23703 0.29124 0.18103
 H465 H 0.29263 0.17900 0.24173
 H466 H 0.32180 0.20744 0.26649
 H467 H 0.17896 0.29186 0.23613
 H468 H 0.20540 0.32161 0.26424
 O469 O 0.74803 0.81711 0.20888
 O470 O 0.71916 0.82550 0.24562
 O471 O 0.81741 0.78621 0.24952
 O472 O 0.82742 0.75169 0.27516
 O473 O 0.78661 0.74688 0.17865
 O474 O 0.74951 0.71827 0.17092
 O475 O 0.74793 0.71386 0.31651
 O476 O 0.77764 0.74929 0.32358
 O477 O 0.67957 0.74893 0.28261
 O478 O 0.67197 0.77815 0.24362
 O479 O 0.71239 0.68034 0.24884
 O480 O 0.75084 0.67174 0.21936
 O481 O 0.74624 0.68143 0.28511
 O482 O 0.77866 0.67271 0.24834
 O483 O 0.68024 0.71211 0.24761
 O484 O 0.67227 0.74912 0.21645
 O485 O 0.71108 0.74726 0.31500
 O486 O 0.74687 0.78026 0.32297
 O487 O 0.74993 0.78476 0.17740
 O488 O 0.72007 0.74784 0.17025
 O489 O 0.81812 0.74930 0.21099
 O490 O 0.82359 0.71803 0.24841
 O491 O 0.78544 0.81799 0.24603
 O492 O 0.74840 0.82579 0.27532
 Zr493 Zr 0.74955 0.79652 0.24524
 O494 O 0.72435 0.77419 0.27004
 Zr495 Zr 0.79643 0.75012 0.24675
 O496 O 0.77339 0.72580 0.27191
 Zr497 Zr 0.75036 0.74914 0.19937
 O498 O 0.72531 0.72458 0.22222
 Zr499 Zr 0.74734 0.74925 0.29442
 O500 O 0.77280 0.77393 0.27178
 Zr501 Zr 0.70133 0.74821 0.24689
 O502 O 0.72421 0.77295 0.22171
 Zr503 Zr 0.74827 0.70179 0.24866
 O504 O 0.77359 0.72398 0.22335
 O505 O 0.77470 0.77425 0.22131
 O506 O 0.72288 0.72393 0.27260
 C507 C 0.74860 0.80924 0.18458
 C508 C 0.80979 0.81056 0.24827
 C509 C 0.81092 0.74755 0.18653
 C510 C 0.74664 0.68941 0.30935
 C511 C 0.68681 0.74776 0.30707
 C512 C 0.68803 0.68787 0.24851
 H513 H 0.71305 0.78635 0.28048
 H514 H 0.71460 0.71329 0.21024
 H515 H 0.78620 0.78552 0.21001
 H516 H 0.78518 0.71522 0.28353
 H517 H 0.79124 0.76225 0.31767
 H518 H 0.82108 0.74232 0.29122
 H519 H 0.67661 0.73494 0.20356
 H520 H 0.70621 0.76055 0.17599
 H521 H 0.73154 0.79197 0.31925
 H522 H 0.76018 0.81944 0.28974
 H523 H 0.73664 0.67498 0.20614
 H524 H 0.76122 0.70405 0.17781
 H525 H 0.70502 0.81895 0.23360
 H526 H 0.67514 0.79127 0.25790
 H527 H 0.81838 0.70538 0.23427
 H528 H 0.79061 0.67624 0.26355
 O529 O 0.75035 0.18280 0.78694
 O530 O 0.72214 0.17477 0.74964
 O531 O 0.82102 0.21358 0.75054
 O532 O 0.83100 0.24678 0.72226
 O533 O 0.78867 0.25208 0.81846
 O534 O 0.75187 0.28154 0.82535
 O535 O 0.75270 0.28645 0.67973
 O536 O 0.78335 0.25138 0.67341
 O537 O 0.68431 0.25281 0.71177
 O538 O 0.67513 0.22309 0.75004
 O539 O 0.71706 0.32030 0.74831
 O540 O 0.75531 0.32861 0.77675
 O541 O 0.75095 0.31878 0.71124
 O542 O 0.78360 0.32684 0.74858
 O543 O 0.68468 0.28885 0.74558
 O544 O 0.67560 0.25195 0.77787
 O545 O 0.71640 0.25109 0.68002
 O546 O 0.75276 0.22024 0.67274
 O547 O 0.75152 0.21515 0.81852
 O548 O 0.72180 0.25228 0.82495
 O549 O 0.82089 0.25055 0.78682
 O550 O 0.82775 0.28136 0.74968
 O551 O 0.78869 0.18187 0.74994
 O552 O 0.75166 0.17431 0.72048
 Zr553 Zr 0.75280 0.20350 0.75065
 O554 O 0.72839 0.22619 0.72540
 Zr555 Zr 0.80007 0.24964 0.75060
 O556 O 0.77789 0.27418 0.72489
 Zr557 Zr 0.75288 0.25081 0.79675
 O558 O 0.72873 0.27574 0.77341
 Zr559 Zr 0.75221 0.25091 0.70163
 O560 O 0.77692 0.22598 0.72483
 Zr561 Zr 0.70517 0.25250 0.74795
 O562 O 0.72712 0.22733 0.77355
 Zr563 Zr 0.75259 0.29836 0.74768
 O564 O 0.77700 0.27587 0.77357
 O565 O 0.77741 0.22560 0.77530
 O566 O 0.72762 0.27655 0.72288
 C567 C 0.75039 0.19069 0.81124
 C568 C 0.81318 0.18927 0.75025
 C569 C 0.81316 0.25153 0.81113
 C570 C 0.75148 0.31089 0.68697
 C571 C 0.69199 0.25215 0.68746
 C572 C 0.69267 0.31306 0.74648
 H573 H 0.71721 0.21414 0.71466
 H574 H 0.71789 0.28709 0.78519
 H575 H 0.78844 0.21421 0.78692
 H576 H 0.78998 0.28473 0.71356
 H577 H 0.79680 0.23840 0.67956
 H578 H 0.82610 0.25810 0.70697
 H579 H 0.67881 0.26722 0.78982
 H580 H 0.70781 0.24002 0.81853
 H581 H 0.73891 0.20709 0.67740
 H582 H 0.76449 0.18001 0.70670
 H583 H 0.74218 0.32450 0.79079
 H584 H 0.76465 0.29523 0.81932
 H585 H 0.70763 0.18171 0.76095
 H586 H 0.67856 0.20994 0.73585
 H587 H 0.82210 0.29431 0.76334
 H588 H 0.79501 0.32396 0.73285
 O589 O 0.25144 0.82038 0.78631
 O590 O 0.28156 0.82731 0.74993
 O591 O 0.18303 0.78782 0.74880
 O592 O 0.17354 0.75343 0.72223
 O593 O 0.21436 0.75149 0.81919
 O594 O 0.25091 0.72268 0.82769
 O595 O 0.25394 0.71329 0.68242
 O596 O 0.22295 0.74776 0.67408
 O597 O 0.32106 0.74963 0.71496
 O598 O 0.32988 0.77875 0.75160
 O599 O 0.28785 0.68207 0.74944
 O600 O 0.25031 0.67438 0.78073
 O601 O 0.25139 0.68184 0.71473
 O602 O 0.22159 0.67458 0.75295
 O603 O 0.32006 0.71372 0.75195
 O604 O 0.32724 0.75324 0.78187
 O605 O 0.28953 0.74779 0.68261
 O606 O 0.25321 0.77947 0.67358
 O607 O 0.25214 0.78887 0.81872
 O608 O 0.28087 0.75141 0.82719
 O609 O 0.18268 0.75227 0.78692
 O610 O 0.17674 0.72001 0.75060
 O611 O 0.21507 0.81975 0.74812
 O612 O 0.25278 0.82668 0.71964
 Zr613 Zr 0.25101 0.79845 0.75068
 O614 O 0.27619 0.77523 0.72674
 Zr615 Zr 0.20417 0.75196 0.75104
 O616 O 0.22702 0.72689 0.72652
 Zr617 Zr 0.25050 0.75250 0.79813
 O618 O 0.27525 0.72708 0.77602
 Zr619 Zr 0.25323 0.74947 0.70321
 O620 O 0.22773 0.77489 0.72502
 Zr621 Zr 0.29923 0.74993 0.75063
 O622 O 0.27648 0.77566 0.77488
 Zr623 Zr 0.25203 0.70353 0.75044
 O624 O 0.22700 0.72659 0.77518
 O625 O 0.22611 0.77689 0.77550
 O626 O 0.27761 0.72477 0.72576
 C627 C 0.25221 0.81317 0.81082
 C628 C 0.19064 0.81218 0.74788
 C629 C 0.19001 0.75178 0.81139
 C630 C 0.25277 0.68903 0.69028
 C631 C 0.31382 0.74837 0.69050
 C632 C 0.31224 0.68946 0.75073
 H633 H 0.28750 0.78705 0.71589
 H634 H 0.28599 0.71619 0.78834
 H635 H 0.21473 0.78854 0.78650
 H636 H 0.21512 0.71598 0.71530
 H637 H 0.20916 0.76070 0.67948
 H638 H 0.17919 0.74233 0.70704
 H639 H 0.32445 0.73812 0.79411
 H640 H 0.29471 0.76414 0.82138
 H641 H 0.26807 0.79181 0.67720
 H642 H 0.24089 0.82009 0.70541
 H643 H 0.26507 0.67777 0.79327
 H644 H 0.23965 0.70802 0.82093
 H645 H 0.29524 0.82135 0.76276
 H646 H 0.32463 0.79338 0.73959
 H647 H 0.18161 0.70804 0.76544
 H648 H 0.20852 0.67836 0.73876
 O649 O 0.24934 0.31863 0.71490
 O650 O 0.22078 0.32684 0.75182
 O651 O 0.31942 0.28903 0.75688
 O652 O 0.33013 0.25441 0.78184
 O653 O 0.28983 0.24846 0.68539
 O654 O 0.25298 0.21975 0.67741
 O655 O 0.24999 0.21575 0.82289
 O656 O 0.28038 0.25166 0.82966
 O657 O 0.18225 0.24823 0.78867
 O658 O 0.17453 0.27901 0.74998
 O659 O 0.21604 0.18170 0.75585
 O660 O 0.25467 0.17356 0.72589
 O661 O 0.25009 0.18325 0.79154
 O662 O 0.28240 0.17487 0.75501
 O663 O 0.18352 0.21291 0.75240
 O664 O 0.17497 0.25004 0.72262
 O665 O 0.21347 0.25068 0.82124
 O666 O 0.24866 0.28160 0.82994
 O667 O 0.25302 0.28621 0.68362
 O668 O 0.22342 0.24909 0.67635
 O669 O 0.32113 0.25240 0.71781
 O670 O 0.32672 0.22089 0.75522
 O671 O 0.28717 0.32032 0.75158
 O672 O 0.25020 0.32775 0.78126
 Zr673 Zr 0.25159 0.29831 0.75135
 O674 O 0.22662 0.27568 0.77611
 Zr675 Zr 0.29915 0.25262 0.75345
 O676 O 0.27630 0.22803 0.77854
 Zr677 Zr 0.25342 0.25072 0.70576
 O678 O 0.22857 0.22592 0.72850
 Zr679 Zr 0.24981 0.25122 0.80078
 O680 O 0.27498 0.27623 0.77820
 Zr681 Zr 0.20410 0.24923 0.75297
 O682 O 0.22676 0.27421 0.72780
 Zr683 Zr 0.25168 0.20359 0.75517
 O684 O 0.27688 0.22604 0.72999
 O685 O 0.27724 0.27630 0.72771
 O686 O 0.22584 0.22542 0.77895
 C687 C 0.25071 0.31064 0.69068
 C688 C 0.31151 0.31321 0.75472
 C689 C 0.31407 0.24995 0.69337
 C690 C 0.24959 0.19124 0.81575
 C691 C 0.18927 0.24917 0.81323
 C692 C 0.19160 0.18882 0.75428
 H693 H 0.21508 0.28770 0.78646
 H694 H 0.21810 0.21447 0.71645
 H695 H 0.28863 0.28768 0.71642
 H696 H 0.28814 0.21764 0.79028
 H697 H 0.29348 0.26520 0.82393
 H698 H 0.32378 0.24519 0.79799
 H699 H 0.18031 0.23703 0.70891
 H700 H 0.20961 0.26204 0.68167
 H701 H 0.23652 0.29567 0.82362
 H702 H 0.26309 0.32233 0.79511
 H703 H 0.23993 0.17607 0.71311
 H704 H 0.26450 0.20551 0.68459
 H705 H 0.20641 0.31971 0.74042
 H706 H 0.17643 0.29105 0.76540
 H707 H 0.32196 0.20835 0.74084
 H708 H 0.29463 0.17899 0.76985
 O709 O 0.75157 0.68174 0.71168
 O710 O 0.78090 0.67444 0.74871
 O711 O 0.68319 0.71588 0.74516
 O712 O 0.67368 0.74996 0.77243
 O713 O 0.71793 0.74983 0.67683
 O714 O 0.75493 0.77917 0.66971
 O715 O 0.75406 0.78921 0.81496
 O716 O 0.72154 0.75592 0.82237
 O717 O 0.82083 0.75090 0.78505
 O718 O 0.83004 0.72190 0.74801
 O719 O 0.79016 0.81967 0.74687
 O720 O 0.75343 0.82816 0.71665
 O721 O 0.75396 0.82059 0.78247
 O722 O 0.72386 0.82791 0.74338
 O723 O 0.82167 0.78752 0.75039
 O724 O 0.82960 0.74905 0.71859
 O725 O 0.78830 0.75439 0.81626
 O726 O 0.75087 0.72300 0.82384
 O727 O 0.75536 0.71290 0.67911
 O728 O 0.78466 0.74996 0.67144
 O729 O 0.68530 0.75305 0.70797
 O730 O 0.67843 0.78379 0.74490
 O731 O 0.71461 0.68356 0.74926
 O732 O 0.75164 0.67583 0.77828
 Zr733 Zr 0.75108 0.70397 0.74711
 O734 O 0.77596 0.72678 0.77181
 Zr735 Zr 0.70526 0.75137 0.74471
 O736 O 0.72779 0.77609 0.76999
 Zr737 Zr 0.75325 0.74944 0.69933
 O738 O 0.77768 0.77461 0.72219
 Zr739 Zr 0.75270 0.75307 0.79433
 O740 O 0.72738 0.72812 0.77172
 Zr741 Zr 0.80027 0.75157 0.74867
 O742 O 0.77791 0.72607 0.72374
 Zr743 Zr 0.75402 0.79878 0.74673
 O744 O 0.72948 0.77603 0.72118
 O745 O 0.72751 0.72582 0.72125
 O746 O 0.77822 0.77721 0.77247
 C747 C 0.75383 0.68871 0.68719
 C748 C 0.69040 0.69151 0.74753
 C749 C 0.69342 0.75187 0.68379
 C750 C 0.75445 0.81342 0.80697
 C751 C 0.81274 0.75289 0.80914
 C752 C 0.81438 0.81194 0.74904
 H753 H 0.78661 0.71476 0.78309
 H754 H 0.78905 0.78528 0.71025
 H755 H 0.71622 0.71440 0.70989
 H756 H 0.71585 0.78731 0.78080
 H757 H 0.70773 0.74301 0.81686
 H758 H 0.67903 0.76081 0.78791
 H759 H 0.82819 0.76508 0.70732
 H760 H 0.79854 0.73790 0.67844
 H761 H 0.76623 0.71099 0.82147
 H762 H 0.73967 0.68275 0.79226
 H763 H 0.76643 0.82288 0.70292
 H764 H 0.74239 0.79328 0.67523
 H765 H 0.79494 0.67994 0.73606
 H766 H 0.82426 0.70750 0.76007
 H767 H 0.68437 0.79626 0.73089
 H768 H 0.71153 0.82562 0.75851
 O769 O 0.24628 0.68096 0.28829
 O770 O 0.21855 0.67258 0.25092
 O771 O 0.31656 0.71348 0.25263
 O772 O 0.32614 0.74695 0.22473
 O773 O 0.28289 0.75027 0.32066
 O774 O 0.24593 0.77964 0.32719
 O775 O 0.24748 0.78521 0.18166
 O776 O 0.27823 0.75065 0.17517
 O777 O 0.17914 0.75091 0.21328
 O778 O 0.17065 0.71959 0.25100
 O779 O 0.21018 0.81775 0.24815
 O780 O 0.24728 0.82689 0.27895
 O781 O 0.24560 0.81740 0.21327
 O782 O 0.27643 0.82610 0.25143
 O783 O 0.17835 0.78574 0.24944
 O784 O 0.16999 0.74782 0.27919
 O785 O 0.21143 0.74963 0.18171
 O786 O 0.24841 0.71888 0.17463
 O787 O 0.24661 0.71313 0.32007
 O788 O 0.21614 0.74979 0.32663
 O789 O 0.31532 0.75151 0.28918
 O790 O 0.32196 0.78137 0.25160
 O791 O 0.28482 0.68121 0.25121
 O792 O 0.24798 0.67304 0.22181
 Zr793 Zr 0.24851 0.70202 0.25220
 O794 O 0.22371 0.72431 0.22696
 Zr795 Zr 0.29486 0.74915 0.25273
 O796 O 0.27229 0.77325 0.22696
 Zr797 Zr 0.24739 0.74896 0.29857
 O798 O 0.22284 0.77353 0.27521
 Zr799 Zr 0.24716 0.74962 0.20345
 O800 O 0.27231 0.72518 0.22669
 Zr801 Zr 0.19983 0.74992 0.24962
 O802 O 0.22222 0.72510 0.27516
 Zr803 Zr 0.24627 0.79678 0.24961
 O804 O 0.27102 0.77472 0.27560
 O805 O 0.27262 0.72442 0.27713
 O806 O 0.22185 0.77457 0.22467
 C807 C 0.24598 0.68871 0.31263
 C808 C 0.30917 0.68904 0.25169
 C809 C 0.30738 0.75148 0.31345
 C810 C 0.24637 0.80963 0.18897
 C811 C 0.18696 0.75051 0.18899
 C812 C 0.18580 0.81011 0.24834
 H813 H 0.21282 0.71214 0.21608
 H814 H 0.21167 0.78457 0.28698
 H815 H 0.28389 0.71323 0.28873
 H816 H 0.28428 0.78408 0.21579
 H817 H 0.29199 0.73802 0.18137
 H818 H 0.32081 0.75760 0.20910
 H819 H 0.17383 0.76172 0.29253
 H820 H 0.20283 0.73659 0.32063
 H821 H 0.23405 0.70605 0.17854
 H822 H 0.26052 0.67922 0.20797
 H823 H 0.23325 0.82288 0.29212
 H824 H 0.25799 0.79381 0.32079
 H825 H 0.20360 0.67938 0.26173
 H826 H 0.17381 0.70741 0.23592
 H827 H 0.31594 0.79440 0.26503
 H828 H 0.28873 0.82309 0.23640
 O829 O 0.74622 0.31801 0.28489
 O830 O 0.77666 0.32570 0.24927
 O831 O 0.67829 0.28524 0.24731
 O832 O 0.66953 0.25119 0.21982
 O833 O 0.71022 0.24803 0.31692
 O834 O 0.74732 0.21990 0.32513
 O835 O 0.75033 0.21212 0.17983
 O836 O 0.71819 0.24632 0.17235
 O837 O 0.81661 0.24687 0.21253
 O838 O 0.82488 0.27814 0.24894
 O839 O 0.78454 0.18061 0.24698
 O840 O 0.74664 0.17230 0.27789
 O841 O 0.74856 0.18033 0.21183
 O842 O 0.71839 0.17218 0.24962
 O843 O 0.81634 0.21261 0.24969
 O844 O 0.82347 0.25190 0.27911
 O845 O 0.78513 0.24812 0.18012
 O846 O 0.75229 0.27796 0.17161
 O847 O 0.74762 0.28621 0.31702
 O848 O 0.77670 0.24917 0.32502
 O849 O 0.67848 0.24904 0.28468
 O850 O 0.67281 0.21754 0.24776
 O851 O 0.71008 0.31742 0.24658
 O852 O 0.74983 0.32577 0.21891
 Zr853 Zr 0.74636 0.29658 0.24900
 O854 O 0.77159 0.27377 0.22471
 Zr855 Zr 0.69999 0.24967 0.24879
 O856 O 0.72312 0.22496 0.22412
 Zr857 Zr 0.74635 0.25007 0.29594
 O858 O 0.77139 0.22517 0.27358
 Zr859 Zr 0.74899 0.24807 0.20098
 O860 O 0.72324 0.27325 0.22291
 Zr861 Zr 0.79501 0.24848 0.24828
 O862 O 0.77205 0.27369 0.27289
 Zr863 Zr 0.74841 0.20163 0.24778
 O864 O 0.72310 0.22423 0.27266
 O865 O 0.72169 0.27448 0.27361
 O866 O 0.77363 0.22338 0.22324
 C867 C 0.74720 0.31056 0.30930
 C868 C 0.68573 0.30964 0.24636
 C869 C 0.68587 0.24805 0.30912
 C870 C 0.74980 0.18776 0.18744
 C871 C 0.80940 0.24715 0.18804
 C872 C 0.80888 0.18825 0.24836
 H873 H 0.78246 0.28575 0.21355
 H874 H 0.78225 0.21431 0.28581
 H875 H 0.71012 0.28579 0.28476
 H876 H 0.71137 0.21401 0.21278
 H877 H 0.70542 0.26056 0.17688
 H878 H 0.67565 0.24078 0.20434
 H879 H 0.82029 0.23727 0.29184
 H880 H 0.79048 0.26197 0.31921
 H881 H 0.73958 0.29208 0.17647
 H882 H 0.73461 0.32348 0.20666
 H883 H 0.76148 0.17555 0.29039
 H884 H 0.73611 0.20523 0.31833
 H885 H 0.79075 0.31902 0.26128
 H886 H 0.82027 0.29160 0.23540
 H887 H 0.67800 0.20518 0.26216
 H888 H 0.70535 0.17599 0.23540
 C889 C 0.24902 0.10581 0.11122
 C890 C 0.23797 0.08086 0.11692
 C891 C 0.23683 0.06155 0.09687
 C892 C 0.24692 0.06684 0.07118
 C893 C 0.25826 0.09207 0.06612
 C894 C 0.25913 0.11161 0.08591
 C895 C 0.24990 0.12633 0.13211
 C896 C 0.26050 0.15146 0.12623
 C897 C 0.26079 0.17107 0.14599
 C898 C 0.25089 0.16558 0.17159
 C899 C 0.24068 0.14011 0.17725
 C900 C 0.23993 0.12048 0.15750
 C901 C 0.26989 0.13688 0.08086
 C902 C 0.27046 0.15651 0.10065
 C903 C 0.22812 0.07576 0.14254
 C904 C 0.22916 0.09521 0.16251
 H905 H 0.27776 0.14159 0.06139
 H906 H 0.27875 0.17580 0.09588
 H907 H 0.21954 0.05657 0.14721
 H908 H 0.22133 0.09047 0.18200
 H909 H 0.22743 0.04263 0.10109
 H910 H 0.26695 0.09636 0.04688
 H911 H 0.26880 0.19056 0.14149
 H912 H 0.23276 0.13577 0.19680
 C913 C 0.74983 0.60776 0.60671
 C914 C 0.73420 0.58502 0.61093
 C915 C 0.73275 0.56564 0.59099
 C916 C 0.74734 0.56856 0.56730
 C917 C 0.76301 0.59143 0.56345
 C918 C 0.76411 0.61125 0.58299
 C919 C 0.75124 0.62833 0.62751
 C920 C 0.76630 0.65141 0.62302
 C921 C 0.76717 0.67113 0.64267
 C922 C 0.75359 0.66759 0.66687
 C923 C 0.73891 0.64415 0.67121
 C924 C 0.73741 0.62458 0.65145
 C925 C 0.77918 0.63447 0.57933
 C926 C 0.78013 0.65429 0.59894
 C927 C 0.72045 0.58209 0.63504
 C928 C 0.72214 0.60147 0.65502
 H929 H 0.79023 0.63742 0.56109
 H930 H 0.79186 0.67197 0.59525
 H931 H 0.70837 0.56460 0.63855
 H932 H 0.71129 0.59841 0.67336
 H933 H 0.72047 0.54816 0.59391
 H934 H 0.77431 0.59371 0.54525
 H935 H 0.77855 0.68912 0.63927
 H936 H 0.72812 0.64148 0.68967
 C937 C 0.75116 0.89042 0.10399
 C938 C 0.74101 0.91571 0.10973
 C939 C 0.74198 0.93553 0.09020
 C940 C 0.75344 0.93052 0.06503
 C941 C 0.76372 0.90486 0.05988
 C942 C 0.76243 0.88477 0.07915
 C943 C 0.75008 0.86946 0.12446
 C944 C 0.76004 0.84407 0.11866
 C945 C 0.75901 0.82424 0.13823
 C946 C 0.74853 0.82982 0.16359
 C947 C 0.73869 0.85545 0.16904
 C948 C 0.73925 0.87528 0.14949
 C949 C 0.77233 0.85916 0.07412
 C950 C 0.77105 0.83912 0.09350
 C951 C 0.73006 0.92070 0.13491
 C952 C 0.72930 0.90086 0.15450
 H953 H 0.78108 0.85454 0.05501
 H954 H 0.77888 0.81964 0.08878
 H955 H 0.72215 0.94016 0.13958
 H956 H 0.72085 0.90559 0.17372
 H957 H 0.73323 0.95473 0.09445
 H958 H 0.77337 0.90067 0.04109
 H959 H 0.76687 0.80466 0.13391
 H960 H 0.73049 0.85992 0.18844
 C961 C 0.25154 0.39111 0.60964
 C962 C 0.26678 0.38721 0.58660
 C963 C 0.26728 0.40710 0.56711
 C964 C 0.25212 0.43040 0.57024
 C965 C 0.23686 0.43392 0.59341
 C966 C 0.23672 0.41445 0.61332
 C967 C 0.25110 0.37036 0.63030
 C968 C 0.23639 0.37454 0.65363
 C969 C 0.23637 0.35491 0.67340
 C970 C 0.25041 0.33103 0.66964
 C971 C 0.26475 0.32699 0.64597
 C972 C 0.26543 0.34675 0.62634
 C973 C 0.22206 0.41782 0.63683
 C974 C 0.22203 0.39827 0.65672
 C975 C 0.28108 0.36345 0.58347
 C976 C 0.28029 0.34350 0.60295
 H977 H 0.21061 0.43577 0.63992
 H978 H 0.21057 0.40170 0.67461
 H979 H 0.29286 0.36020 0.56576
 H980 H 0.29152 0.32542 0.59972
 H981 H 0.27925 0.40445 0.54941
 H982 H 0.22513 0.45181 0.59585
 H983 H 0.22521 0.35806 0.69155
 H984 H 0.27586 0.30876 0.64312
 C985 C 0.75326 0.10973 0.89179
 C986 C 0.74030 0.08542 0.88730
 C987 C 0.74142 0.06563 0.90686
 C988 C 0.75597 0.06976 0.93043
 C989 C 0.76900 0.09420 0.93451
 C990 C 0.76749 0.11437 0.91536
 C991 C 0.75199 0.13068 0.87135
 C992 C 0.76457 0.15515 0.87603
 C993 C 0.76334 0.17499 0.85651
 C994 C 0.75022 0.17023 0.83224
 C995 C 0.73783 0.14553 0.82782
 C996 C 0.73841 0.12576 0.84746
 C997 C 0.77992 0.13906 0.91925
 C998 C 0.77838 0.15916 0.89997
 C999 C 0.72659 0.08137 0.86331
 C1000 C 0.72580 0.10114 0.84365
 H1001 H 0.79090 0.14290 0.93738
 H1002 H 0.78823 0.17793 0.90377
 H1003 H 0.71656 0.06267 0.85961
 H1004 H 0.71520 0.09713 0.82534
 H1005 H 0.73111 0.04696 0.90378
 H1006 H 0.78023 0.09743 0.95263
 H1007 H 0.77321 0.19385 0.85989
 H1008 H 0.72762 0.14181 0.80921
 C1009 C 0.24791 0.60816 0.39355
 C1010 C 0.23359 0.58449 0.38978
 C1011 C 0.23405 0.56503 0.40971
 C1012 C 0.24922 0.56885 0.43293
 C1013 C 0.26387 0.59250 0.43612
 C1014 C 0.26295 0.61240 0.41668
 C1015 C 0.24715 0.62889 0.37287
 C1016 C 0.26091 0.65282 0.37696
 C1017 C 0.25992 0.67256 0.35736
 C1018 C 0.24592 0.66818 0.33352
 C1019 C 0.23249 0.64396 0.32957
 C1020 C 0.23275 0.62434 0.34938
 C1021 C 0.27670 0.63649 0.41992
 C1022 C 0.27555 0.65644 0.40047
 C1023 C 0.21916 0.58078 0.36615
 C1024 C 0.21890 0.60030 0.34621
 H1025 H 0.28832 0.64002 0.43770
 H1026 H 0.28631 0.67478 0.40379
 H1027 H 0.20810 0.56258 0.36298
 H1028 H 0.20766 0.59658 0.32822
 H1029 H 0.22270 0.54688 0.40720
 H1030 H 0.27579 0.59540 0.45384
 H1031 H 0.27052 0.69107 0.36035
 H1032 H 0.22161 0.64058 0.31128
 C1033 C 0.24962 0.89378 0.89187
 C1034 C 0.25956 0.88800 0.91725
 C1035 C 0.25850 0.90751 0.93707
 C1036 C 0.24712 0.93270 0.93195
 C1037 C 0.23713 0.93794 0.90620
 C1038 C 0.23851 0.91868 0.88611
 C1039 C 0.25077 0.87332 0.87093
 C1040 C 0.24102 0.87916 0.84545
 C1041 C 0.24206 0.85959 0.82565
 C1042 C 0.25233 0.83417 0.83136
 C1043 C 0.26200 0.82868 0.85706
 C1044 C 0.26144 0.84824 0.87687
 C1045 C 0.22885 0.92377 0.86040
 C1046 C 0.23017 0.90438 0.84039
 C1047 C 0.27040 0.86279 0.92235
 C1048 C 0.27121 0.84320 0.90253
 H1049 H 0.22023 0.94292 0.85569
 H1050 H 0.22252 0.90913 0.82083
 H1051 H 0.27815 0.85809 0.94188
 H1052 H 0.27955 0.82395 0.90734
 H1053 H 0.26711 0.90324 0.95635
 H1054 H 0.22768 0.95681 0.90192
 H1055 H 0.23434 0.86392 0.80601
 H1056 H 0.27006 0.80923 0.86160
 C1057 C 0.74513 0.39159 0.38973
 C1058 C 0.76008 0.38821 0.41305
 C1059 C 0.75981 0.40825 0.43239
 C1060 C 0.74422 0.43121 0.42880
 C1061 C 0.72892 0.43400 0.40551
 C1062 C 0.72962 0.41443 0.38572
 C1063 C 0.74575 0.37082 0.36909
 C1064 C 0.73138 0.37453 0.34545
 C1065 C 0.73233 0.35489 0.32574
 C1066 C 0.74695 0.33140 0.32987
 C1067 C 0.76095 0.32781 0.35383
 C1068 C 0.76070 0.34765 0.37339
 C1069 C 0.71524 0.41727 0.36195
 C1070 C 0.71624 0.39773 0.34207
 C1071 C 0.77499 0.36488 0.41655
 C1072 C 0.77516 0.34486 0.39713
 H1073 H 0.70325 0.43483 0.35860
 H1074 H 0.70498 0.40077 0.32397
 H1075 H 0.78654 0.36202 0.43450
 H1076 H 0.78682 0.32712 0.40066
 H1077 H 0.77165 0.40606 0.45026
 H1078 H 0.71669 0.45152 0.40278
 H1079 H 0.72128 0.35758 0.30743
 H1080 H 0.77232 0.30980 0.35701
 C1081 C 0.10767 0.24433 0.10881
 C1082 C 0.11338 0.25424 0.08341
 C1083 C 0.09363 0.25352 0.06377
 C1084 C 0.06822 0.24270 0.06918
 C1085 C 0.06310 0.23263 0.09490
 C1086 C 0.08264 0.23354 0.11475
 C1087 C 0.12829 0.24531 0.12962
 C1088 C 0.12247 0.23565 0.15513
 C1089 C 0.14205 0.23687 0.17490
 C1090 C 0.16742 0.24732 0.16921
 C1091 C 0.17302 0.25667 0.14344
 C1092 C 0.15343 0.25590 0.12360
 C1093 C 0.07765 0.22381 0.14044
 C1094 C 0.09721 0.22491 0.16031
 C1095 C 0.13871 0.26481 0.07816
 C1096 C 0.15843 0.26554 0.09789
 H1097 H 0.05842 0.21538 0.14527
 H1098 H 0.09253 0.21728 0.17989
 H1099 H 0.14335 0.27252 0.05861
 H1100 H 0.17772 0.27378 0.09300
 H1101 H 0.09785 0.26206 0.04446
 H1102 H 0.04409 0.22350 0.09935
 H1103 H 0.13767 0.22931 0.19459
 H1104 H 0.19247 0.26479 0.13892
 C1105 C 0.61193 0.74933 0.60369
 C1106 C 0.61544 0.73350 0.58099
 C1107 C 0.59499 0.73210 0.56207
 C1108 C 0.57145 0.74685 0.56550
 C1109 C 0.56847 0.76295 0.58818
 C1110 C 0.58849 0.76398 0.60752
 C1111 C 0.63313 0.75048 0.62391
 C1112 C 0.62924 0.76567 0.64698
 C1113 C 0.64915 0.76615 0.66647
 C1114 C 0.67302 0.75205 0.66272
 C1115 C 0.67683 0.73733 0.63925
 C1116 C 0.65676 0.73620 0.61989
 C1117 C 0.58550 0.77926 0.63067
 C1118 C 0.60547 0.77995 0.65016
 C1119 C 0.63931 0.71938 0.57773
 C1120 C 0.65968 0.72082 0.59678
 H1121 H 0.56749 0.79060 0.63387
 H1122 H 0.60228 0.79180 0.66784
 H1123 H 0.64229 0.70716 0.56028
 H1124 H 0.67778 0.70964 0.59349
 H1125 H 0.59732 0.71964 0.54467
 H1126 H 0.55047 0.77450 0.59076
 H1127 H 0.64619 0.77759 0.68447
 H1128 H 0.69506 0.72619 0.63643
 C1129 C 0.10887 0.75703 0.89176
 C1130 C 0.11376 0.74605 0.91691
 C1131 C 0.09378 0.74697 0.93626
 C1132 C 0.06897 0.75909 0.93088
 C1133 C 0.06480 0.77050 0.90554
 C1134 C 0.08451 0.76925 0.88589
 C1135 C 0.12963 0.75554 0.87113
 C1136 C 0.12455 0.76606 0.84580
 C1137 C 0.14424 0.76433 0.82618
 C1138 C 0.16903 0.75262 0.83191
 C1139 C 0.17388 0.74240 0.85751
 C1140 C 0.15414 0.74359 0.87713
 C1141 C 0.08029 0.77987 0.86041
 C1142 C 0.09993 0.77821 0.84067
 C1143 C 0.13847 0.73412 0.92213
 C1144 C 0.15837 0.73303 0.90262
 H1145 H 0.06157 0.78938 0.85562
 H1146 H 0.09581 0.78652 0.82123
 H1147 H 0.14249 0.72559 0.94149
 H1148 H 0.17717 0.72372 0.90749
 H1149 H 0.09726 0.73746 0.95528
 H1150 H 0.04626 0.78058 0.90119
 H1151 H 0.14046 0.77253 0.80662
 H1152 H 0.19288 0.73330 0.86204
 C1153 C 0.60570 0.25025 0.39045
 C1154 C 0.60994 0.23638 0.41428
 C1155 C 0.59046 0.23725 0.43415
 C1156 C 0.56725 0.25252 0.43064
 C1157 C 0.56344 0.26651 0.40670
 C1158 C 0.58247 0.26518 0.38639
 C1159 C 0.62605 0.24924 0.36940
 C1160 C 0.62157 0.26265 0.34535
 C1161 C 0.64097 0.26159 0.32539
 C1162 C 0.66499 0.24787 0.32968
 C1163 C 0.66924 0.23469 0.35398
 C1164 C 0.64967 0.23503 0.37381
 C1165 C 0.57878 0.27848 0.36212
 C1166 C 0.59792 0.27709 0.34188
 C1167 C 0.63364 0.22204 0.41780
 C1168 C 0.65326 0.22153 0.39798
 H1169 H 0.56090 0.28999 0.35872
 H1170 H 0.59427 0.28757 0.32344
 H1171 H 0.63716 0.21131 0.43613
 H1172 H 0.67135 0.21043 0.40158
 H1173 H 0.59335 0.22625 0.45244
 H1174 H 0.54565 0.27835 0.40396
 H1175 H 0.63771 0.27198 0.30681
 H1176 H 0.68765 0.22399 0.35730
 C1177 C 0.89211 0.74905 0.10602
 C1178 C 0.88675 0.73817 0.08093
 C1179 C 0.90641 0.73911 0.06123
 C1180 C 0.93122 0.75144 0.06613
 C1181 C 0.93610 0.76217 0.09164
 C1182 C 0.91674 0.76089 0.11162
 C1183 C 0.87147 0.74817 0.12680
 C1184 C 0.87694 0.75886 0.15198
 C1185 C 0.85720 0.75809 0.17163
 C1186 C 0.83199 0.74718 0.16607
 C1187 C 0.82685 0.73659 0.14067
 C1188 C 0.84660 0.73685 0.12102
 C1189 C 0.92146 0.77144 0.13704
 C1190 C 0.90192 0.77035 0.15691
 C1191 C 0.86176 0.72666 0.07600
 C1192 C 0.84198 0.72613 0.09566
 H1193 H 0.94041 0.78062 0.14161
 H1194 H 0.90636 0.77872 0.17625
 H1195 H 0.85737 0.71819 0.05670
 H1196 H 0.82291 0.71727 0.09097
 H1197 H 0.90253 0.72985 0.04217
 H1198 H 0.95476 0.77217 0.09576
 H1199 H 0.86127 0.76653 0.19103
 H1200 H 0.80755 0.72804 0.13626
 C1201 C 0.39439 0.25155 0.61216
 C1202 C 0.39042 0.23694 0.58872
 C1203 C 0.40987 0.23769 0.56881
 C1204 C 0.43280 0.25347 0.57191
 C1205 C 0.43637 0.26817 0.59546
 C1206 C 0.41734 0.26705 0.61579
 C1207 C 0.37406 0.25070 0.63323
 C1208 C 0.37822 0.26494 0.65687
 C1209 C 0.35879 0.26407 0.67684
 C1210 C 0.33509 0.24964 0.67295
 C1211 C 0.33120 0.23560 0.64907
 C1212 C 0.35076 0.23583 0.62925
 C1213 C 0.42073 0.28114 0.63965
 C1214 C 0.40157 0.27999 0.65990
 C1215 C 0.36702 0.22199 0.58562
 C1216 C 0.34745 0.22158 0.60548
 H1217 H 0.43838 0.29312 0.64272
 H1218 H 0.40497 0.29113 0.67800
 H1219 H 0.36372 0.21069 0.56760
 H1220 H 0.32959 0.20998 0.60221
 H1221 H 0.40717 0.22617 0.55082
 H1222 H 0.45397 0.28039 0.59787
 H1223 H 0.36175 0.27516 0.69507
 H1224 H 0.31305 0.22437 0.64604
 C1225 C 0.89291 0.24524 0.89288
 C1226 C 0.88697 0.25416 0.91859
 C1227 C 0.90650 0.25259 0.93839
 C1228 C 0.93186 0.24179 0.93287
 C1229 C 0.93719 0.23269 0.90683
 C1230 C 0.91792 0.23454 0.88681
 C1231 C 0.87256 0.24723 0.87189
 C1232 C 0.87864 0.23863 0.84608
 C1233 C 0.85927 0.24065 0.82617
 C1234 C 0.83382 0.25077 0.83202
 C1235 C 0.82802 0.25921 0.85806
 C1236 C 0.84741 0.25765 0.87804
 C1237 C 0.92319 0.22592 0.86079
 C1238 C 0.90390 0.22801 0.84074
 C1239 C 0.86165 0.26466 0.92396
 C1240 C 0.84216 0.26627 0.90405
 H1241 H 0.94242 0.21759 0.85585
 H1242 H 0.90879 0.22122 0.82091
 H1243 H 0.85683 0.27161 0.94375
 H1244 H 0.82286 0.27438 0.90905
 H1245 H 0.90217 0.26058 0.95791
 H1246 H 0.95625 0.22375 0.90223
 H1247 H 0.86387 0.23385 0.80626
 H1248 H 0.80852 0.26707 0.86274
 C1249 C 0.38882 0.74978 0.39363
 C1250 C 0.41254 0.76389 0.38944
 C1251 C 0.43251 0.76304 0.40885
 C1252 C 0.42922 0.74754 0.43193
 C1253 C 0.40537 0.73334 0.43571
 C1254 C 0.38496 0.73465 0.41676
 C1255 C 0.36769 0.75073 0.37333
 C1256 C 0.34375 0.73706 0.37775
 C1257 C 0.32372 0.73803 0.35837
 C1258 C 0.32787 0.75191 0.33443
 C1259 C 0.35205 0.76537 0.33024
 C1260 C 0.37193 0.76512 0.34980
 C1261 C 0.36079 0.72110 0.42040
 C1262 C 0.34047 0.72242 0.40130
 C1263 C 0.41589 0.77841 0.36583
 C1264 C 0.39599 0.77887 0.34626
 H1265 H 0.35754 0.70943 0.43819
 H1266 H 0.32212 0.71173 0.40490
 H1267 H 0.43413 0.78933 0.36236
 H1268 H 0.39946 0.79010 0.32823
 H1269 H 0.45073 0.77419 0.40598
 H1270 H 0.40279 0.72134 0.45341
 H1271 H 0.30525 0.72741 0.36155
 H1272 H 0.35527 0.77617 0.31189
 C1273 C 0.10636 0.10752 0.25001
 C1274 C 0.09287 0.10267 0.22606
 C1275 C 0.07343 0.08271 0.22516
 C1276 C 0.06684 0.06819 0.24821
 C1277 C 0.08030 0.07372 0.27218
 C1278 C 0.10035 0.09306 0.27308
 C1279 C 0.12722 0.12810 0.25092
 C1280 C 0.14128 0.13241 0.27469
 C1281 C 0.16138 0.15176 0.27532
 C1282 C 0.16675 0.16706 0.25262
 C1283 C 0.15232 0.16283 0.22909
 C1284 C 0.13271 0.14307 0.22801
 C1285 C 0.11460 0.09816 0.29657
 C1286 C 0.13486 0.11736 0.29730
 C1287 C 0.09912 0.11787 0.20348
 C1288 C 0.11856 0.13788 0.20450
 H1289 H 0.11018 0.08708 0.31448
 H1290 H 0.14548 0.12056 0.31576
 H1291 H 0.08879 0.11438 0.18491
 H1292 H 0.12266 0.14927 0.18669
 H1293 H 0.06355 0.07828 0.20652
 H1294 H 0.07511 0.06292 0.29009
 H1295 H 0.17254 0.15524 0.29343
 H1296 H 0.15667 0.17469 0.21163
 C1297 C 0.61074 0.61004 0.74397
 C1298 C 0.59294 0.60917 0.72245
 C1299 C 0.57372 0.58899 0.72149
 C1300 C 0.57150 0.57063 0.74247
 C1301 C 0.58954 0.57174 0.76383
 C1302 C 0.60944 0.59121 0.76451
 C1303 C 0.63105 0.63112 0.74506
 C1304 C 0.64943 0.63144 0.76611
 C1305 C 0.66901 0.65127 0.76679
 C1306 C 0.66957 0.67110 0.74715
 C1307 C 0.65079 0.67084 0.72645
 C1308 C 0.63171 0.65056 0.72505
 C1309 C 0.62798 0.59232 0.78537
 C1310 C 0.64780 0.61197 0.78603
 C1311 C 0.59453 0.62869 0.70256
 C1312 C 0.61344 0.64918 0.70395
 H1313 H 0.62723 0.57783 0.80127
 H1314 H 0.66181 0.61204 0.80239
 H1315 H 0.58086 0.62829 0.68592
 H1316 H 0.61386 0.66398 0.68832
 H1317 H 0.56004 0.58789 0.70487
 H1318 H 0.58797 0.55739 0.77983
 H1319 H 0.68355 0.65157 0.78270
 H1320 H 0.65155 0.68597 0.71113
 C1321 C 0.89360 0.10852 0.75665
 C1322 C 0.89092 0.08523 0.74154
 C1323 C 0.91109 0.06605 0.74253
 C1324 C 0.93350 0.06981 0.75890
 C1325 C 0.93546 0.09290 0.77456
 C1326 C 0.91578 0.11257 0.77314
 C1327 C 0.87288 0.12915 0.75500
 C1328 C 0.87602 0.15283 0.76941
 C1329 C 0.85656 0.17261 0.76733
 C1330 C 0.83379 0.16854 0.75156
 C1331 C 0.83066 0.14451 0.73762
 C1332 C 0.85040 0.12487 0.73896
 C1333 C 0.91797 0.13632 0.78762
 C1334 C 0.89850 0.15620 0.78565
 C1335 C 0.86824 0.08170 0.72561
 C1336 C 0.84822 0.10110 0.72449
 H1337 H 0.93500 0.13970 0.80038
 H1338 H 0.90105 0.17432 0.79698
 H1339 H 0.86591 0.06377 0.71393
 H1340 H 0.83102 0.09757 0.71201
 H1341 H 0.90952 0.04826 0.73049
 H1342 H 0.95255 0.09570 0.78741
 H1343 H 0.85882 0.19096 0.77838
 H1344 H 0.81315 0.14138 0.72543
 C1345 C 0.38993 0.60841 0.25500
 C1346 C 0.38673 0.58520 0.23986
 C1347 C 0.40664 0.56576 0.24051
 C1348 C 0.42926 0.56907 0.25669
 C1349 C 0.43191 0.59225 0.27213
 C1350 C 0.41247 0.61218 0.27106
 C1351 C 0.36930 0.62917 0.25397
 C1352 C 0.37284 0.65271 0.26852
 C1353 C 0.35329 0.67251 0.26723
 C1354 C 0.33006 0.66853 0.25211
 C1355 C 0.32665 0.64470 0.23791
 C1356 C 0.34641 0.62507 0.23848
 C1357 C 0.41516 0.63587 0.28557
 C1358 C 0.39576 0.65587 0.28420
 C1359 C 0.36370 0.58193 0.22438
 C1360 C 0.34379 0.60145 0.22384
 H1361 H 0.43249 0.63905 0.29798
 H1362 H 0.39866 0.67389 0.29560
 H1363 H 0.36099 0.56407 0.21267
 H1364 H 0.32627 0.59808 0.21176
 H1365 H 0.40461 0.54801 0.22847
 H1366 H 0.44925 0.59480 0.28470
 H1367 H 0.35582 0.69073 0.27845
 H1368 H 0.30883 0.64165 0.22617
 C1369 C 0.10998 0.89303 0.75031
 C1370 C 0.11518 0.91804 0.73914
 C1371 C 0.09546 0.93769 0.74005
 C1372 C 0.07074 0.93275 0.75251
 C1373 C 0.06618 0.90744 0.76383
 C1374 C 0.08556 0.88752 0.76256
 C1375 C 0.13057 0.87223 0.74925
 C1376 C 0.12521 0.84713 0.76016
 C1377 C 0.14480 0.82741 0.75908
 C1378 C 0.16980 0.83282 0.74769
 C1379 C 0.17494 0.85816 0.73700
 C1380 C 0.15527 0.87790 0.73751
 C1381 C 0.08101 0.86222 0.77345
 C1382 C 0.10047 0.84232 0.77216
 C1383 C 0.14001 0.92289 0.72728
 C1384 C 0.15976 0.90320 0.72661
 H1385 H 0.06221 0.85774 0.78297
 H1386 H 0.09615 0.82305 0.78074
 H1387 H 0.14427 0.94212 0.71860
 H1388 H 0.17870 0.90781 0.71744
 H1389 H 0.09918 0.95670 0.73063
 H1390 H 0.04772 0.90339 0.77419
 H1391 H 0.14081 0.80806 0.76766
 H1392 H 0.19413 0.86243 0.72815
 C1393 C 0.60513 0.39045 0.24742
 C1394 C 0.60847 0.41344 0.23196
 C1395 C 0.58885 0.43319 0.23261
 C1396 C 0.56652 0.43048 0.24929
 C1397 C 0.56357 0.40733 0.26473
 C1398 C 0.58267 0.38711 0.26364
 C1399 C 0.62565 0.36956 0.24676
 C1400 C 0.62201 0.34632 0.26176
 C1401 C 0.64151 0.32647 0.26097
 C1402 C 0.66485 0.33014 0.24599
 C1403 C 0.66836 0.35366 0.23129
 C1404 C 0.64860 0.37332 0.23130
 C1405 C 0.57983 0.36366 0.27852
 C1406 C 0.59908 0.34352 0.27745
 C1407 C 0.63147 0.41628 0.21638
 C1408 C 0.65129 0.39665 0.21622
 H1409 H 0.56255 0.36082 0.29105
 H1410 H 0.59611 0.32572 0.28917
 H1411 H 0.63430 0.43395 0.20442
 H1412 H 0.66884 0.39974 0.20413
 H1413 H 0.59103 0.45086 0.22048
 H1414 H 0.54641 0.40519 0.27758
 H1415 H 0.63890 0.30850 0.27254
 H1416 H 0.68628 0.35646 0.21965
 C1417 C 0.89048 0.89162 0.24821
 C1418 C 0.88604 0.91528 0.23410
 C1419 C 0.90585 0.93488 0.23387
 C1420 C 0.92964 0.93123 0.24820
 C1421 C 0.93372 0.90742 0.26230
 C1422 C 0.91429 0.88742 0.26217
 C1423 C 0.86978 0.87086 0.24836
 C1424 C 0.87444 0.84694 0.26196
 C1425 C 0.85478 0.82715 0.26179
 C1426 C 0.83043 0.83143 0.24863
 C1427 C 0.82602 0.85565 0.23532
 C1428 C 0.84574 0.87533 0.23488
 C1429 C 0.91815 0.86332 0.27571
 C1430 C 0.89862 0.84336 0.27549
 C1431 C 0.86185 0.91890 0.22061
 C1432 C 0.84198 0.89931 0.22111
 H1433 H 0.93646 0.85981 0.28650
 H1434 H 0.90244 0.82503 0.28609
 H1435 H 0.85819 0.93709 0.20969
 H1436 H 0.82355 0.90294 0.21055
 H1437 H 0.90279 0.95304 0.22270
 H1438 H 0.95202 0.90455 0.27333
 H1439 H 0.85826 0.80858 0.27214
 H1440 H 0.80744 0.85895 0.22487
 C1441 C 0.39258 0.39350 0.75285
 C1442 C 0.39183 0.41315 0.73305
 C1443 C 0.41230 0.43201 0.73186
 C1444 C 0.43300 0.43169 0.75068
 C1445 C 0.43304 0.41236 0.77090
 C1446 C 0.41315 0.39283 0.77173
 C1447 C 0.37150 0.37317 0.75373
 C1448 C 0.37281 0.35288 0.77285
 C1449 C 0.35311 0.33313 0.77308
 C1450 C 0.33187 0.33418 0.75492
 C1451 C 0.33051 0.35495 0.73627
 C1452 C 0.35054 0.37429 0.73530
 C1453 C 0.41351 0.37252 0.79088
 C1454 C 0.39381 0.35274 0.79129
 C1455 C 0.37065 0.41351 0.71484
 C1456 C 0.35024 0.39452 0.71607
 H1457 H 0.42931 0.37175 0.80550
 H1458 H 0.39497 0.33727 0.80620
 H1459 H 0.36981 0.42864 0.69955
 H1460 H 0.33423 0.39553 0.70169
 H1461 H 0.41215 0.44706 0.71645
 H1462 H 0.44878 0.41235 0.78562
 H1463 H 0.35407 0.31715 0.78750
 H1464 H 0.31429 0.35556 0.72208
 C1465 C 0.10796 0.24496 0.89366
 C1466 C 0.11374 0.25410 0.91935
 C1467 C 0.09394 0.25314 0.93889
 C1468 C 0.06842 0.24275 0.93318
 C1469 C 0.06319 0.23356 0.90712
 C1470 C 0.08279 0.23475 0.88733
 C1471 C 0.12870 0.24614 0.87298
 C1472 C 0.12287 0.23725 0.84718
 C1473 C 0.14265 0.23853 0.82756
 C1474 C 0.16819 0.24833 0.83372
 C1475 C 0.17366 0.25704 0.85977
 C1476 C 0.15395 0.25614 0.87942
 C1477 C 0.07774 0.22586 0.86134
 C1478 C 0.09741 0.22716 0.84159
 C1479 C 0.13919 0.26415 0.92498
 C1480 C 0.15900 0.26506 0.90538
 H1481 H 0.05838 0.21792 0.85619
 H1482 H 0.09267 0.22016 0.82179
 H1483 H 0.14389 0.27128 0.94475
 H1484 H 0.17840 0.27286 0.91058
 H1485 H 0.09825 0.26120 0.95839
 H1486 H 0.04404 0.22488 0.90234
 H1487 H 0.13828 0.23157 0.80764
 H1488 H 0.19318 0.26474 0.86473
 C1489 C 0.60595 0.74475 0.38768
 C1490 C 0.61009 0.72948 0.41067
 C1491 C 0.59042 0.72902 0.43040
 C1492 C 0.56708 0.74420 0.42753
 C1493 C 0.56340 0.75962 0.40447
 C1494 C 0.58263 0.75970 0.38431
 C1495 C 0.62652 0.74526 0.36683
 C1496 C 0.62218 0.76015 0.34362
 C1497 C 0.64181 0.76052 0.32383
 C1498 C 0.66587 0.74674 0.32753
 C1499 C 0.66996 0.73203 0.35098
 C1500 C 0.65021 0.73098 0.37059
 C1501 C 0.57906 0.77447 0.36089
 C1502 C 0.59843 0.77455 0.34081
 C1503 C 0.63387 0.71513 0.41352
 C1504 C 0.65366 0.71599 0.39388
 H1505 H 0.56111 0.78601 0.35802
 H1506 H 0.59487 0.78616 0.32304
 H1507 H 0.63730 0.70331 0.43118
 H1508 H 0.67180 0.70480 0.39695
 H1509 H 0.59329 0.71709 0.44811
 H1510 H 0.54558 0.77153 0.40230
 H1511 H 0.63867 0.77199 0.30587
 H1512 H 0.68836 0.72116 0.35376
 C1513 C 0.89255 0.75542 0.89044
 C1514 C 0.89809 0.77940 0.90356
 C1515 C 0.91806 0.77998 0.92304
 C1516 C 0.93198 0.75664 0.92988
 C1517 C 0.92570 0.73266 0.91684
 C1518 C 0.90633 0.73203 0.89682
 C1519 C 0.87191 0.75476 0.86963
 C1520 C 0.86689 0.73091 0.85602
 C1521 C 0.84755 0.73049 0.83594
 C1522 C 0.83296 0.75352 0.83006
 C1523 C 0.83787 0.77719 0.84402
 C1524 C 0.85762 0.77801 0.86370
 C1525 C 0.90050 0.70847 0.88301
 C1526 C 0.88124 0.70797 0.86282
 C1527 C 0.88353 0.80229 0.89694
 C1528 C 0.86351 0.80157 0.87747
 H1529 H 0.91105 0.69032 0.88773
 H1530 H 0.87748 0.68944 0.85253
 H1531 H 0.88755 0.82090 0.90698
 H1532 H 0.85265 0.81963 0.87306
 H1533 H 0.92288 0.79856 0.93283
 H1534 H 0.93585 0.71448 0.92240
 H1535 H 0.84357 0.71230 0.82511
 H1536 H 0.82665 0.79493 0.83920
 C1537 C 0.38970 0.25360 0.39492
 C1538 C 0.41310 0.26818 0.39051
 C1539 C 0.43268 0.26881 0.41032
 C1540 C 0.42930 0.25439 0.43406
 C1541 C 0.40587 0.23955 0.43797
 C1542 C 0.38580 0.23942 0.41863
 C1543 C 0.36893 0.25305 0.37425
 C1544 C 0.34524 0.23899 0.37890
 C1545 C 0.32548 0.23871 0.35924
 C1546 C 0.32965 0.25171 0.33482
 C1547 C 0.35364 0.26543 0.33038
 C1548 C 0.37322 0.26647 0.35018
 C1549 C 0.36195 0.22540 0.42248
 C1550 C 0.34192 0.22535 0.40303
 C1551 C 0.41650 0.28168 0.36632
 C1552 C 0.39698 0.28067 0.34641
 H1553 H 0.35868 0.21447 0.44074
 H1554 H 0.32378 0.21438 0.40683
 H1555 H 0.43451 0.29293 0.36266
 H1556 H 0.40047 0.29116 0.32795
 H1557 H 0.45066 0.28031 0.40727
 H1558 H 0.40331 0.22818 0.45609
 H1559 H 0.30711 0.22795 0.36267
 H1560 H 0.35687 0.27559 0.31169
 C1561 C 0.10702 0.75396 0.10721
 C1562 C 0.08307 0.76748 0.11195
 C1563 C 0.06377 0.76846 0.09184
 C1564 C 0.06809 0.75560 0.06737
 C1565 C 0.09210 0.74184 0.06312
 C1566 C 0.11177 0.74123 0.08285
 C1567 C 0.12751 0.75307 0.12817
 C1568 C 0.15167 0.74002 0.12323
 C1569 C 0.17119 0.73945 0.14314
 C1570 C 0.16641 0.75132 0.16802
 C1571 C 0.14196 0.76411 0.17272
 C1572 C 0.12253 0.76529 0.15275
 C1573 C 0.13610 0.72818 0.07873
 C1574 C 0.15578 0.72771 0.09852
 C1575 C 0.07892 0.77968 0.13670
 C1576 C 0.09826 0.77850 0.15680
 H1577 H 0.14002 0.71834 0.06000
 H1578 H 0.17431 0.71752 0.09449
 H1579 H 0.06052 0.79014 0.14061
 H1580 H 0.09422 0.78807 0.17565
 H1581 H 0.04535 0.77913 0.09517
 H1582 H 0.09540 0.73168 0.04443
 H1583 H 0.18991 0.72944 0.13946
 H1584 H 0.13826 0.77352 0.19174
 C1585 C 0.61078 0.25464 0.60712
 C1586 C 0.61440 0.24032 0.58348
 C1587 C 0.59419 0.24039 0.56431
 C1588 C 0.57086 0.25535 0.56830
 C1589 C 0.56775 0.26993 0.59197
 C1590 C 0.58748 0.26933 0.61163
 C1591 C 0.63171 0.25412 0.62762
 C1592 C 0.62766 0.26766 0.65167
 C1593 C 0.64735 0.26659 0.67133
 C1594 C 0.67128 0.25283 0.66673
 C1595 C 0.67522 0.23973 0.64235
 C1596 C 0.65529 0.23997 0.62285
 C1597 C 0.58434 0.28297 0.63577
 C1598 C 0.60401 0.28198 0.65555
 C1599 C 0.63816 0.22620 0.57950
 C1600 C 0.65835 0.22619 0.59878
 H1601 H 0.56644 0.29432 0.63951
 H1602 H 0.60072 0.29258 0.67399
 H1603 H 0.64121 0.21515 0.56129
 H1604 H 0.67641 0.21514 0.59489
 H1605 H 0.59654 0.22891 0.54624
 H1606 H 0.54986 0.28152 0.59508
 H1607 H 0.64424 0.27671 0.69005
 H1608 H 0.69352 0.22892 0.63883
 C1609 C 0.89105 0.24298 0.10815
 C1610 C 0.91476 0.22924 0.11342
 C1611 C 0.93449 0.22811 0.09375
 C1612 C 0.93082 0.24110 0.06922
 C1613 C 0.90703 0.25508 0.06446
 C1614 C 0.88694 0.25580 0.08372
 C1615 C 0.87012 0.24403 0.12864
 C1616 C 0.84619 0.25729 0.12315
 C1617 C 0.82626 0.25802 0.14260
 C1618 C 0.83041 0.24614 0.16759
 C1619 C 0.85464 0.23313 0.17286
 C1620 C 0.87447 0.23177 0.15333
 C1621 C 0.86282 0.26906 0.07904
 C1622 C 0.84272 0.26966 0.09836
 C1623 C 0.91827 0.21697 0.13825
 C1624 C 0.89853 0.21834 0.15792
 H1625 H 0.85940 0.27896 0.06023
 H1626 H 0.82436 0.28000 0.09391
 H1627 H 0.93649 0.20635 0.14257
 H1628 H 0.90208 0.20872 0.17685
 H1629 H 0.95272 0.21726 0.09747
 H1630 H 0.90422 0.26535 0.04573
 H1631 H 0.80771 0.26819 0.13847
 H1632 H 0.85784 0.22371 0.19197
 C1633 C 0.39458 0.74597 0.60967
 C1634 C 0.39015 0.73126 0.58638
 C1635 C 0.40984 0.73078 0.56668
 C1636 C 0.43349 0.74546 0.56984
 C1637 C 0.43741 0.76043 0.59317
 C1638 C 0.41818 0.76043 0.61334
 C1639 C 0.37404 0.74636 0.63056
 C1640 C 0.37869 0.76059 0.65412
 C1641 C 0.35910 0.76078 0.67397
 C1642 C 0.33477 0.74750 0.66999
 C1643 C 0.33036 0.73356 0.64614
 C1644 C 0.35007 0.73263 0.62649
 C1645 C 0.42204 0.77461 0.63708
 C1646 C 0.40271 0.77454 0.65720
 C1647 C 0.36607 0.71746 0.58321
 C1648 C 0.34629 0.71829 0.60285
 H1649 H 0.44021 0.78578 0.64018
 H1650 H 0.40651 0.78565 0.67524
 H1651 H 0.36239 0.70609 0.56530
 H1652 H 0.32791 0.70757 0.59952
 H1653 H 0.40677 0.71919 0.54879
 H1654 H 0.45545 0.77199 0.59557
 H1655 H 0.36250 0.77173 0.69221
 H1656 H 0.31174 0.72320 0.64304
 C1657 C 0.24578 0.11012 0.89601
 C1658 C 0.23164 0.08657 0.89101
 C1659 C 0.23106 0.06667 0.91050
 C1660 C 0.24494 0.07000 0.93458
 C1661 C 0.25925 0.09364 0.93912
 C1662 C 0.25947 0.11391 0.92003
 C1663 C 0.24640 0.13115 0.87564
 C1664 C 0.26017 0.15489 0.88081
 C1665 C 0.26072 0.17483 0.86133
 C1666 C 0.24826 0.17075 0.83663
 C1667 C 0.23463 0.14679 0.83174
 C1668 C 0.23337 0.12703 0.85131
 C1669 C 0.27312 0.13787 0.92445
 C1670 C 0.27334 0.15808 0.90523
 C1671 C 0.21847 0.08337 0.86659
 C1672 C 0.21943 0.10321 0.84701
 H1673 H 0.28369 0.14104 0.94295
 H1674 H 0.28407 0.17627 0.90944
 H1675 H 0.20749 0.06530 0.86250
 H1676 H 0.20916 0.09989 0.82837
 H1677 H 0.21995 0.04854 0.90698
 H1678 H 0.27017 0.09618 0.95753
 H1679 H 0.27135 0.19319 0.86510
 H1680 H 0.22482 0.14366 0.81281
 C1681 C 0.74321 0.60941 0.39078
 C1682 C 0.72746 0.58667 0.38704
 C1683 C 0.72711 0.56700 0.40677
 C1684 C 0.74293 0.56965 0.42973
 C1685 C 0.75866 0.59256 0.43310
 C1686 C 0.75866 0.61264 0.41381
 C1687 C 0.74375 0.63013 0.37007
 C1688 C 0.75918 0.65307 0.37400
 C1689 C 0.75967 0.67268 0.35422
 C1690 C 0.74548 0.66907 0.33039
 C1691 C 0.73017 0.64593 0.32670
 C1692 C 0.72899 0.62651 0.34664
 C1693 C 0.77390 0.63583 0.41700
 C1694 C 0.77403 0.65577 0.39750
 C1695 C 0.71256 0.58399 0.36356
 C1696 C 0.71342 0.60351 0.34364
 H1697 H 0.78582 0.63859 0.43473
 H1698 H 0.78604 0.67335 0.40075
 H1699 H 0.70032 0.56654 0.36045
 H1700 H 0.70181 0.60057 0.32573
 H1701 H 0.71482 0.54948 0.40421
 H1702 H 0.77091 0.59462 0.45071
 H1703 H 0.77156 0.69044 0.35706
 H1704 H 0.71895 0.64326 0.30848
 C1705 C 0.75317 0.10653 0.10696
 C1706 C 0.74317 0.08115 0.11266
 C1707 C 0.74354 0.06159 0.09285
 C1708 C 0.75422 0.06699 0.06740
 C1709 C 0.76443 0.09270 0.06233
 C1710 C 0.76375 0.11251 0.08189
 C1711 C 0.75245 0.12730 0.12762
 C1712 C 0.76205 0.15284 0.12176
 C1713 C 0.76099 0.17261 0.14136
 C1714 C 0.75073 0.16688 0.16678
 C1715 C 0.74147 0.14104 0.17238
 C1716 C 0.74209 0.12124 0.15279
 C1717 C 0.77345 0.13821 0.07685
 C1718 C 0.77253 0.15806 0.09642
 C1719 C 0.73285 0.07587 0.13806
 C1720 C 0.73241 0.09554 0.15782
 H1721 H 0.78170 0.14308 0.05757
 H1722 H 0.78009 0.17766 0.09167
 H1723 H 0.72508 0.05633 0.14273
 H1724 H 0.72433 0.09061 0.17715
 H1725 H 0.73481 0.04235 0.09706
 H1726 H 0.77344 0.09719 0.04329
 H1727 H 0.76841 0.19235 0.13692
 H1728 H 0.73344 0.13645 0.19183
 C1729 C 0.25308 0.60743 0.61031
 C1730 C 0.23875 0.58388 0.61465
 C1731 C 0.23820 0.56443 0.59471
 C1732 C 0.25241 0.56814 0.57089
 C1733 C 0.26715 0.59166 0.56714
 C1734 C 0.26719 0.61157 0.58660
 C1735 C 0.25318 0.62825 0.63091
 C1736 C 0.26674 0.65217 0.62618
 C1737 C 0.26627 0.67213 0.64559
 C1738 C 0.25298 0.66800 0.66985
 C1739 C 0.23984 0.64371 0.67445
 C1740 C 0.23956 0.62389 0.65487
 C1741 C 0.28088 0.63560 0.58276
 C1742 C 0.28048 0.65565 0.60214
 C1743 C 0.22522 0.58030 0.63880
 C1744 C 0.22577 0.59989 0.65865
 H1745 H 0.29177 0.63905 0.56452
 H1746 H 0.29106 0.67399 0.59828
 H1747 H 0.21417 0.56218 0.64243
 H1748 H 0.21514 0.59632 0.67702
 H1749 H 0.22676 0.54640 0.59764
 H1750 H 0.27831 0.59450 0.54894
 H1751 H 0.27651 0.69071 0.64198
 H1752 H 0.22939 0.64049 0.69301
 C1753 C 0.75851 0.89400 0.88779
 C1754 C 0.77294 0.88923 0.91121
 C1755 C 0.77355 0.90880 0.93104
 C1756 C 0.75946 0.93274 0.92774
 C1757 C 0.74485 0.93704 0.90424
 C1758 C 0.74457 0.91787 0.88405
 C1759 C 0.75779 0.87353 0.86686
 C1760 C 0.74370 0.87846 0.84326
 C1761 C 0.74307 0.85890 0.82342
 C1762 C 0.75578 0.83433 0.82745
 C1763 C 0.76972 0.82967 0.85127
 C1764 C 0.77105 0.84933 0.87094
 C1765 C 0.73060 0.92205 0.86023
 C1766 C 0.73031 0.90274 0.84011
 C1767 C 0.78633 0.86495 0.91437
 C1768 C 0.78530 0.84528 0.89462
 H1769 H 0.71985 0.94043 0.85709
 H1770 H 0.71932 0.90677 0.82203
 H1771 H 0.79753 0.86104 0.93234
 H1772 H 0.79575 0.82675 0.89791
 H1773 H 0.78481 0.90544 0.94910
 H1774 H 0.73371 0.95530 0.90176
 H1775 H 0.73221 0.86250 0.80516
 H1776 H 0.77974 0.81086 0.85435
 C1777 C 0.25174 0.39197 0.39259
 C1778 C 0.26705 0.38817 0.41562
 C1779 C 0.26737 0.40801 0.43515
 C1780 C 0.25191 0.43113 0.43211
 C1781 C 0.23657 0.43455 0.40894
 C1782 C 0.23666 0.41515 0.38896
 C1783 C 0.25138 0.37120 0.37195
 C1784 C 0.23650 0.37523 0.34867
 C1785 C 0.23632 0.35546 0.32905
 C1786 C 0.25029 0.33156 0.33296
 C1787 C 0.26493 0.32774 0.35650
 C1788 C 0.26581 0.34765 0.37595
 C1789 C 0.22190 0.41840 0.36548
 C1790 C 0.22196 0.39885 0.34559
 C1791 C 0.28155 0.36452 0.41873
 C1792 C 0.28081 0.34453 0.39930
 H1793 H 0.21025 0.43624 0.36242
 H1794 H 0.21036 0.40217 0.32775
 H1795 H 0.29340 0.36135 0.43643
 H1796 H 0.29211 0.32651 0.40256
 H1797 H 0.27939 0.40542 0.45285
 H1798 H 0.22459 0.45228 0.40658
 H1799 H 0.22490 0.35840 0.31101
 H1800 H 0.27594 0.30946 0.35945
 C1801 C 0.24480 0.89023 0.10798
 C1802 C 0.25839 0.88589 0.08402
 C1803 C 0.25849 0.90589 0.06463
 C1804 C 0.24455 0.92979 0.06881
 C1805 C 0.23075 0.93365 0.09285
 C1806 C 0.23107 0.91406 0.11264
 C1807 C 0.24506 0.86948 0.12865
 C1808 C 0.23212 0.87413 0.15291
 C1809 C 0.23284 0.85453 0.17268
 C1810 C 0.24586 0.83021 0.16808
 C1811 C 0.25840 0.82571 0.14348
 C1812 C 0.25835 0.84544 0.12380
 C1813 C 0.21806 0.91784 0.13704
 C1814 C 0.21870 0.89827 0.15690
 C1815 C 0.27162 0.86166 0.07996
 C1816 C 0.27146 0.84171 0.09945
 H1817 H 0.20744 0.93616 0.14088
 H1818 H 0.20857 0.90205 0.17550
 H1819 H 0.28212 0.85806 0.06152
 H1820 H 0.28184 0.82328 0.09549
 H1821 H 0.26937 0.90294 0.04629
 H1822 H 0.21992 0.95198 0.09611
 H1823 H 0.22300 0.85804 0.19149
 H1824 H 0.26861 0.80709 0.13990
 C1825 C 0.74707 0.39090 0.60556
 C1826 C 0.76152 0.38732 0.58197
 C1827 C 0.76102 0.40729 0.56255
 C1828 C 0.74576 0.43042 0.56639
 C1829 C 0.73094 0.43341 0.58993
 C1830 C 0.73182 0.41387 0.60976
 C1831 C 0.74805 0.37028 0.62634
 C1832 C 0.73423 0.37422 0.65025
 C1833 C 0.73568 0.35479 0.67016
 C1834 C 0.75032 0.33133 0.66601
 C1835 C 0.76368 0.32746 0.64175
 C1836 C 0.76290 0.34707 0.62195
 C1837 C 0.71793 0.41692 0.63378
 C1838 C 0.71924 0.39750 0.65375
 C1839 C 0.77625 0.36390 0.57835
 C1840 C 0.77680 0.34404 0.59794
 H1841 H 0.70613 0.43458 0.63725
 H1842 H 0.70839 0.40070 0.67206
 H1843 H 0.78742 0.36087 0.56021
 H1844 H 0.78837 0.32626 0.59433
 H1845 H 0.77250 0.40496 0.54448
 H1846 H 0.71900 0.45109 0.59284
 H1847 H 0.72510 0.35769 0.68870
 H1848 H 0.77506 0.30947 0.63853
 C1849 C 0.11124 0.10812 0.75599
 C1850 C 0.09679 0.10266 0.73274
 C1851 C 0.07720 0.08287 0.73322
 C1852 C 0.07146 0.06904 0.75690
 C1853 C 0.08583 0.07521 0.78018
 C1854 C 0.10606 0.09440 0.77971
 C1855 C 0.13210 0.12870 0.75550
 C1856 C 0.14700 0.13373 0.77859
 C1857 C 0.16694 0.15322 0.77793
 C1858 C 0.17137 0.16793 0.75463
 C1859 C 0.15615 0.16295 0.73177
 C1860 C 0.13666 0.14304 0.73198
 C1861 C 0.12121 0.10016 0.80248
 C1862 C 0.14149 0.11934 0.80187
 C1863 C 0.10217 0.11717 0.70951
 C1864 C 0.12164 0.13715 0.70919
 H1865 H 0.11746 0.08964 0.82088
 H1866 H 0.15282 0.12308 0.81981
 H1867 H 0.09111 0.11317 0.69147
 H1868 H 0.12504 0.14802 0.69091
 H1869 H 0.06636 0.07815 0.71518
 H1870 H 0.08110 0.06519 0.79866
 H1871 H 0.17861 0.15738 0.79557
 H1872 H 0.15974 0.17438 0.71387
 C1873 C 0.60751 0.60738 0.25187
 C1874 C 0.59619 0.59829 0.22801
 C1875 C 0.57649 0.57860 0.22894
 C1876 C 0.56783 0.56849 0.25349
 C1877 C 0.57923 0.57783 0.27723
 C1878 C 0.59929 0.59720 0.27653
 C1879 C 0.62835 0.62799 0.25101
 C1880 C 0.63994 0.63684 0.27484
 C1881 C 0.65975 0.65644 0.27387
 C1882 C 0.66759 0.66722 0.24935
 C1883 C 0.65586 0.65829 0.22567
 C1884 C 0.63624 0.63848 0.22636
 C1885 C 0.61132 0.60657 0.29993
 C1886 C 0.63138 0.62598 0.29909
 C1887 C 0.60475 0.60912 0.20376
 C1888 C 0.62438 0.62896 0.20295
 H1889 H 0.60522 0.59880 0.31905
 H1890 H 0.64019 0.63263 0.31759
 H1891 H 0.59614 0.60229 0.18525
 H1892 H 0.63034 0.63687 0.18384
 H1893 H 0.56769 0.57124 0.21070
 H1894 H 0.57255 0.56985 0.29609
 H1895 H 0.66894 0.66348 0.29206
 H1896 H 0.66210 0.66669 0.20684
 C1897 C 0.10503 0.89089 0.24389
 C1898 C 0.11085 0.91542 0.23200
 C1899 C 0.09130 0.93525 0.23147
 C1900 C 0.06624 0.93115 0.24354
 C1901 C 0.06086 0.90613 0.25518
 C1902 C 0.08005 0.88596 0.25523
 C1903 C 0.12561 0.87005 0.24474
 C1904 C 0.11969 0.84540 0.25639
 C1905 C 0.13937 0.82569 0.25723
 C1906 C 0.16498 0.83077 0.24709
 C1907 C 0.17058 0.85567 0.23561
 C1908 C 0.15088 0.87530 0.23413
 C1909 C 0.07486 0.86105 0.26674
 C1910 C 0.09430 0.84106 0.26717
 C1911 C 0.13621 0.91973 0.22111
 C1912 C 0.15595 0.90007 0.22231
 H1913 H 0.05561 0.85698 0.27551
 H1914 H 0.08949 0.82213 0.27623
 H1915 H 0.14095 0.93859 0.21187
 H1916 H 0.17534 0.90432 0.21397
 H1917 H 0.09557 0.95385 0.22148
 H1918 H 0.04199 0.90260 0.26498
 H1919 H 0.13493 0.80662 0.26621
 H1920 H 0.19016 0.85968 0.22760
 C1921 C 0.61250 0.39395 0.74279
 C1922 C 0.59465 0.39471 0.72131
 C1923 C 0.57485 0.41432 0.72076
 C1924 C 0.57227 0.43232 0.74201
 C1925 C 0.59034 0.43129 0.76334
 C1926 C 0.61070 0.41232 0.76370
 C1927 C 0.63336 0.37341 0.74351
 C1928 C 0.65160 0.37306 0.76468
 C1929 C 0.67142 0.35350 0.76525
 C1930 C 0.67241 0.33399 0.74533
 C1931 C 0.65398 0.33446 0.72433
 C1932 C 0.63456 0.35440 0.72312
 C1933 C 0.62922 0.41128 0.78458
 C1934 C 0.64944 0.39209 0.78497
 C1935 C 0.59681 0.37566 0.70102
 C1936 C 0.61631 0.35572 0.70200
 H1937 H 0.62808 0.42543 0.80075
 H1938 H 0.66335 0.39198 0.80142
 H1939 H 0.58314 0.37600 0.68438
 H1940 H 0.61715 0.34127 0.68609
 H1941 H 0.56112 0.41535 0.70418
 H1942 H 0.58848 0.44534 0.77956
 H1943 H 0.68565 0.35299 0.78144
 H1944 H 0.65511 0.31961 0.70880
 C1945 C 0.89003 0.10792 0.24903
 C1946 C 0.88662 0.08490 0.23366
 C1947 C 0.90663 0.06553 0.23366
 C1948 C 0.92957 0.06877 0.24941
 C1949 C 0.93248 0.09180 0.26501
 C1950 C 0.91292 0.11163 0.26461
 C1951 C 0.86924 0.12855 0.24880
 C1952 C 0.87296 0.15189 0.26362
 C1953 C 0.85325 0.17156 0.26310
 C1954 C 0.82970 0.16766 0.24848
 C1955 C 0.82614 0.14403 0.23395
 C1956 C 0.84603 0.12452 0.23378
 C1957 C 0.91581 0.13514 0.27938
 C1958 C 0.89624 0.15500 0.27876
 C1959 C 0.86328 0.08171 0.21865
 C1960 C 0.84324 0.10111 0.21883
 H1961 H 0.93341 0.13827 0.29141
 H1962 H 0.89930 0.17289 0.29033
 H1963 H 0.86040 0.06400 0.20676
 H1964 H 0.82548 0.09782 0.20709
 H1965 H 0.90441 0.04788 0.22152
 H1966 H 0.95006 0.09427 0.27724
 H1967 H 0.85597 0.18967 0.27445
 H1968 H 0.80813 0.14107 0.22246
 C1969 C 0.39232 0.60833 0.75078
 C1970 C 0.39156 0.58835 0.73132
 C1971 C 0.41178 0.56921 0.73077
 C1972 C 0.43224 0.56964 0.74986
 C1973 C 0.43213 0.58919 0.76986
 C1974 C 0.41255 0.60898 0.77003
 C1975 C 0.37165 0.62906 0.75088
 C1976 C 0.37303 0.64967 0.76965
 C1977 C 0.35369 0.66971 0.76922
 C1978 C 0.33269 0.66864 0.75080
 C1979 C 0.33125 0.64763 0.73246
 C1980 C 0.35099 0.62797 0.73211
 C1981 C 0.41296 0.62962 0.78881
 C1982 C 0.39367 0.64976 0.78848
 C1983 C 0.37070 0.58803 0.71275
 C1984 C 0.35062 0.60739 0.71327
 H1985 H 0.42851 0.63038 0.80371
 H1986 H 0.39486 0.66547 0.80313
 H1987 H 0.36984 0.57265 0.69772
 H1988 H 0.33484 0.60638 0.69864
 H1989 H 0.41172 0.55397 0.71555
 H1990 H 0.44767 0.58927 0.78480
 H1991 H 0.35462 0.68583 0.78348
 H1992 H 0.31512 0.64697 0.71815
 C1993 C 0.89448 0.89332 0.75473
 C1994 C 0.89055 0.91734 0.74108
 C1995 C 0.91032 0.93695 0.74212
 C1996 C 0.93364 0.93283 0.75704
 C1997 C 0.93704 0.90881 0.77099
 C1998 C 0.91763 0.88884 0.76966
 C1999 C 0.87401 0.87239 0.75322
 C2000 C 0.87819 0.84812 0.76635
 C2001 C 0.85878 0.82817 0.76457
 C2002 C 0.83514 0.83263 0.75024
 C2003 C 0.83117 0.85718 0.73743
 C2004 C 0.85066 0.87705 0.73863
 C2005 C 0.92098 0.86443 0.78279
 C2006 C 0.90164 0.84437 0.78107
 C2007 C 0.86700 0.92120 0.72657
 C2008 C 0.84732 0.90144 0.72548
 H2009 H 0.93878 0.86074 0.79435
 H2010 H 0.90506 0.82579 0.79138
 H2011 H 0.86372 0.93967 0.71601
 H2012 H 0.82941 0.90524 0.71413
 H2013 H 0.90774 0.95535 0.73122
 H2014 H 0.95494 0.90564 0.78258
 H2015 H 0.86181 0.80941 0.77472
 H2016 H 0.81306 0.86067 0.72627
 C2017 C 0.38946 0.39195 0.25419
 C2018 C 0.38518 0.41568 0.24016
 C2019 C 0.40508 0.43521 0.24011
 C2020 C 0.42875 0.43146 0.25463
 C2021 C 0.43255 0.40766 0.26884
 C2022 C 0.41312 0.38768 0.26840
 C2023 C 0.36878 0.37116 0.25395
 C2024 C 0.37340 0.34711 0.26730
 C2025 C 0.35386 0.32724 0.26665
 C2026 C 0.32958 0.33158 0.25338
 C2027 C 0.32513 0.35596 0.24039
 C2028 C 0.34484 0.37570 0.24031
 C2029 C 0.41687 0.36347 0.28178
 C2030 C 0.39743 0.34346 0.28108
 C2031 C 0.36109 0.41940 0.22652
 C2032 C 0.34118 0.39982 0.22674
 H2033 H 0.43507 0.35990 0.29275
 H2034 H 0.40120 0.32501 0.29148
 H2035 H 0.35752 0.43766 0.21569
 H2036 H 0.32283 0.40354 0.21608
 H2037 H 0.40218 0.45338 0.22892
 H2038 H 0.45071 0.40473 0.28008
 H2039 H 0.35735 0.30858 0.27677
 H2040 H 0.30657 0.35933 0.22996
   
