data_POSCAR
  _audit_creation_date              2014-09-24
  _audit_creation_method            'ToBaCCo'
  _symmetry_space_group_name_H-M    'P1'
  _symmetry_Int_Tables_number       1
  _symmetry_cell_setting            triclinic
  loop_
  _symmetry_equiv_pos_as_xyz
 x,y,z
_cell_length_a 56.5932
_cell_length_b 57.6661
_cell_length_c 57.5682
_cell_angle_alpha 90.262500
_cell_angle_beta 89.695000
_cell_angle_gamma 91.583100
loop_
  _atom_site_label
  _atom_site_type_symbol
  _atom_site_fract_x
  _atom_site_fract_y
  _atom_site_fract_z
C1 C 0.71850 0.65751 0.97626
 H2 H 0.73497 0.66162 0.96739
 C3 C 0.69806 0.66928 0.97042
 H4 H 0.69927 0.68237 0.95707
 C5 C 0.69705 0.63474 1.00371
 H6 H 0.69647 0.62105 1.01644
 C7 C 0.67634 0.64608 0.99852
 H8 H 0.66012 0.64093 1.00742
 N9 N 0.71754 0.64025 0.99233
 C10 C 0.78866 0.62827 1.01834
 H11 H 0.78812 0.60956 1.01834
 C12 C 0.80814 0.64010 1.02781
 H13 H 0.82273 0.63015 1.03402
 C14 C 0.77012 0.66366 1.01045
 H15 H 0.75512 0.67280 1.00402
 C16 C 0.78938 0.67626 1.01975
 H17 H 0.78913 0.69503 1.02021
 Zn18 Zn 0.74415 0.62174 0.99852
 N19 N 0.77015 0.64005 1.00982
 C20 C 0.77014 0.58902 0.97322
 N21 N 0.75342 0.60536 0.97121
 C22 C 0.74371 0.60998 0.95023
 C23 C 0.75151 0.59874 0.93016
 C24 C 0.77839 0.57727 0.95367
 C25 C 0.73672 0.60765 1.04440
 C26 C 0.72889 0.59327 1.06245
 C27 C 0.71861 0.56377 1.03403
 C28 C 0.72676 0.57873 1.01652
 N29 N 0.73548 0.60024 1.02200
 H30 H 0.77706 0.58489 0.99008
 H31 H 0.73001 0.62251 0.94884
 H32 H 0.74371 0.60305 0.91363
 H33 H 0.79186 0.56470 0.95634
 H34 H 0.74337 0.62500 1.04823
 H35 H 0.72995 0.60021 1.07985
 H36 H 0.71141 0.54682 1.02922
 H37 H 0.72560 0.57339 0.99852
 C38 C 0.80854 0.66444 1.02889
 C39 C 0.67648 0.66326 0.98139
 C40 C 0.71938 0.57093 1.05743
 C41 C 0.76929 0.58226 0.93153
 C42 C 0.73708 0.35794 0.52717
 H43 H 0.75093 0.36423 0.53863
 C44 C 0.71786 0.34521 0.53622
 H45 H 0.71727 0.34160 0.55464
 C46 C 0.72133 0.35475 0.48917
 H47 H 0.72271 0.35883 0.47089
 C48 C 0.70187 0.34180 0.49747
 H49 H 0.68826 0.33594 0.48548
 N50 N 0.73814 0.36294 0.50412
 C51 C 0.80543 0.37737 0.46954
 H52 H 0.80530 0.39611 0.46865
 C53 C 0.82392 0.36544 0.45938
 H54 H 0.83819 0.37527 0.45117
 C55 C 0.78706 0.34208 0.48193
 H56 H 0.77259 0.33311 0.49070
 C57 C 0.80536 0.32942 0.47209
 H58 H 0.80488 0.31068 0.47334
 Zn59 Zn 0.76228 0.38312 0.49270
 N60 N 0.78737 0.36563 0.48036
 C61 C 0.79708 0.40303 0.52283
 N62 N 0.77364 0.40213 0.51770
 C63 C 0.75773 0.41298 0.53149
 C64 C 0.76516 0.42507 0.55135
 C65 C 0.80535 0.41520 0.54231
 C66 C 0.75582 0.39660 0.44620
 C67 C 0.74602 0.40852 0.42777
 C68 C 0.72230 0.42958 0.45522
 C69 C 0.73274 0.41728 0.47321
 N70 N 0.74930 0.40123 0.46848
 H71 H 0.80950 0.39376 0.51229
 H72 H 0.73908 0.41138 0.52770
 H73 H 0.75204 0.43311 0.56230
 H74 H 0.82404 0.41481 0.54591
 H75 H 0.76820 0.38316 0.44250
 H76 H 0.75155 0.40431 0.41023
 H77 H 0.70925 0.44213 0.45981
 H78 H 0.72730 0.42038 0.49091
 C79 C 0.82383 0.34110 0.46028
 C80 C 0.69962 0.33754 0.52135
 C81 C 0.72888 0.42520 0.43197
 C82 C 0.78927 0.42633 0.55713
 C83 C 0.22351 -0.14742 0.01249
 H84 H 0.23959 -0.15451 0.00570
 C85 C 0.20624 -0.16231 0.02234
 H86 H 0.20927 -0.18074 0.02323
 C87 C 0.19944 -0.11509 0.01918
 H88 H 0.19643 -0.09680 0.01712
 C89 C 0.18190 -0.12921 0.02920
 H90 H 0.16562 -0.12147 0.03480
 N91 N 0.22000 -0.12417 0.01153
 C92 C 0.26813 -0.11091 -0.04219
 H93 H 0.25659 -0.09840 -0.04968
 C94 C 0.28598 -0.12011 -0.05589
 H95 H 0.28775 -0.11472 -0.07383
 C96 C 0.28056 -0.13232 -0.00968
 H97 H 0.27872 -0.13650 0.00855
 C98 C 0.29875 -0.14198 -0.02281
 H99 H 0.31067 -0.15352 -0.01433
 Zn100 Zn 0.24214 -0.10233 -0.00131
 N101 N 0.26568 -0.11706 -0.01950
 C102 C 0.28067 -0.08275 0.02435
 N103 N 0.25670 -0.08490 0.02319
 C104 C 0.24282 -0.07565 0.04000
 C105 C 0.25290 -0.06473 0.05937
 C106 C 0.29156 -0.07174 0.04334
 C107 C 0.21029 -0.09383 -0.03628
 C108 C 0.19702 -0.08119 -0.05182
 C109 C 0.21351 -0.04589 -0.03498
 C110 C 0.22647 -0.05932 -0.01967
 N111 N 0.22478 -0.08285 -0.02080
 H112 H 0.29148 -0.08985 0.01068
 H113 H 0.22384 -0.07710 0.03872
 H114 H 0.24135 -0.05801 0.07273
 H115 H 0.31063 -0.07102 0.04376
 H116 H 0.20924 -0.11260 -0.03667
 H117 H 0.18599 -0.09094 -0.06378
 H118 H 0.21532 -0.02716 -0.03398
 H119 H 0.23808 -0.05099 -0.00711
 C120 C 0.30164 -0.13580 -0.04630
 C121 C 0.18537 -0.15311 0.03130
 C122 C 0.19861 -0.05671 -0.05156
 C123 C 0.27759 -0.06284 0.06151
 C124 C 0.22458 0.15175 0.47578
 H125 H 0.24185 0.15402 0.46785
 C126 C 0.20571 0.16482 0.46792
 H127 H 0.20895 0.17739 0.45433
 C128 C 0.19931 0.13182 0.50234
 H129 H 0.19645 0.11850 0.51521
 C130 C 0.18017 0.14459 0.49525
 H131 H 0.16298 0.14102 0.50302
 N132 N 0.22096 0.13525 0.49237
 C133 C 0.28591 0.11552 0.52624
 H134 H 0.28145 0.09726 0.52792
 C135 C 0.30565 0.12470 0.53769
 H136 H 0.31645 0.11328 0.54778
 C137 C 0.27659 0.15263 0.51204
 H138 H 0.26494 0.16352 0.50242
 C139 C 0.29643 0.16259 0.52316
 H140 H 0.29967 0.18111 0.52197
 Zn141 Zn 0.24497 0.11416 0.50036
 N142 N 0.27186 0.12941 0.51363
 C143 C 0.24333 0.10061 0.45284
 N144 N 0.25433 0.09732 0.47347
 C145 C 0.27270 0.08273 0.47507
 C146 C 0.28134 0.07154 0.45534
 C147 C 0.25142 0.08985 0.43264
 C148 C 0.22941 0.10316 0.54471
 C149 C 0.21894 0.09012 0.56248
 C150 C 0.21591 0.05747 0.53609
 C151 C 0.22645 0.07126 0.51875
 N152 N 0.23259 0.09376 0.52329
 H153 H 0.22838 0.11177 0.45188
 H154 H 0.28099 0.08000 0.49162
 H155 H 0.29626 0.06054 0.45758
 H156 H 0.24258 0.09314 0.41637
 H157 H 0.23463 0.12109 0.54783
 H158 H 0.21689 0.09856 0.57909
 H159 H 0.21074 0.03969 0.53201
 H160 H 0.22921 0.06416 0.50156
 C161 C 0.31124 0.14844 0.53618
 C162 C 0.18299 0.16085 0.47740
 C163 C 0.21151 0.06693 0.55825
 C164 C 0.27093 0.07532 0.43350
 C165 C 0.18528 0.49738 0.22122
 H166 H 0.19310 0.50752 0.23517
 C167 C 0.19981 0.48567 0.20556
 H168 H 0.21882 0.48679 0.20753
 C169 C 0.15105 0.48353 0.20142
 H170 H 0.13199 0.48286 0.19994
 C171 C 0.16480 0.47141 0.18564
 H172 H 0.15615 0.46176 0.17176
 N173 N 0.16135 0.49566 0.21912
 C174 C 0.15088 0.54992 0.26609
 H175 H 0.13916 0.55826 0.25421
 C176 C 0.15977 0.56242 0.28504
 H177 H 0.15502 0.58037 0.28726
 C178 C 0.16992 0.51615 0.27860
 H179 H 0.17319 0.49788 0.27625
 C180 C 0.17914 0.52800 0.29792
 H181 H 0.18955 0.51850 0.31010
 Zn182 Zn 0.14011 0.50925 0.24021
 N183 N 0.15587 0.52714 0.26331
 C184 C 0.10627 0.49187 0.27200
 N185 N 0.12247 0.48558 0.25583
 C186 C 0.12682 0.46288 0.25162
 C187 C 0.11412 0.44541 0.26333
 C188 C 0.09310 0.47498 0.28412
 C189 C 0.13020 0.54553 0.21007
 C190 C 0.11634 0.56080 0.19767
 C191 C 0.08157 0.53922 0.21064
 C192 C 0.09613 0.52446 0.22286
 N193 N 0.11994 0.52817 0.22281
 H194 H 0.10351 0.51006 0.27542
 H195 H 0.14033 0.45816 0.23932
 H196 H 0.11824 0.42771 0.25923
 H197 H 0.08012 0.48047 0.29677
 H198 H 0.14925 0.54778 0.20995
 H199 H 0.12535 0.57448 0.18810
 H200 H 0.06261 0.53612 0.21130
 H201 H 0.08830 0.51015 0.23250
 C202 C 0.17371 0.55142 0.30152
 C203 C 0.18949 0.47197 0.18793
 C204 C 0.09150 0.55802 0.19814
 C205 C 0.09677 0.45131 0.27985
 C206 C -0.13203 0.03482 0.23046
 H207 H -0.12110 0.04496 0.24220
 C208 C -0.14123 0.04550 0.21095
 H209 H -0.13687 0.06369 0.20805
 C210 C -0.15093 -0.00080 0.22022
 H211 H -0.15491 -0.01878 0.22397
 C212 C -0.16059 0.00917 0.20043
 H213 H -0.17154 -0.00186 0.18948
 N214 N -0.13624 0.01183 0.23435
 C215 C -0.13128 -0.02894 0.29765
 H216 H -0.11245 -0.03170 0.29736
 C217 C -0.14542 -0.03950 0.31466
 H218 H -0.13714 -0.05001 0.32765
 C219 C -0.16453 -0.01107 0.28133
 H220 H -0.17178 0.00008 0.26827
 C221 C -0.17937 -0.02119 0.29823
 H222 H -0.19810 -0.01781 0.29810
 Zn223 Zn -0.11976 -0.00263 0.25905
 N224 N -0.14097 -0.01516 0.28139
 C225 C -0.10401 0.02725 0.29552
 N226 N -0.09945 0.02004 0.27346
 C227 C -0.08133 0.02974 0.26091
 C228 C -0.06681 0.04715 0.27056
 C229 C -0.09024 0.04501 0.30571
 C230 C -0.11405 -0.04625 0.23785
 C231 C -0.10207 -0.06488 0.22824
 C232 C -0.06524 -0.04588 0.23913
 C233 C -0.07796 -0.02764 0.24851
 N234 N -0.10196 -0.02774 0.24712
 H235 H -0.11865 0.01955 0.30514
 H236 H -0.07838 0.02417 0.24319
 H237 H -0.05254 0.05458 0.26013
 H238 H -0.09439 0.05006 0.32332
 H239 H -0.13312 -0.04678 0.23818
 H240 H -0.11255 -0.07901 0.22095
 H241 H -0.04612 -0.04513 0.24018
 H242 H -0.06850 -0.01354 0.25698
 C243 C -0.16988 -0.03589 0.31494
 C244 C -0.15519 0.03262 0.19508
 C245 C -0.07717 -0.06475 0.22844
 C246 C -0.07134 0.05540 0.29311
 C247 C 0.35020 0.53323 0.73572
 H248 H 0.35873 0.54607 0.74678
 C249 C 0.33515 0.54042 0.71814
 H250 H 0.33276 0.55879 0.71574
 C251 C 0.34414 0.49394 0.72464
 H252 H 0.34785 0.47587 0.72693
 C253 C 0.32913 0.50036 0.70678
 H254 H 0.32161 0.48710 0.69542
 N255 N 0.35523 0.51040 0.73799
 C256 C 0.38710 0.47144 0.79355
 H257 H 0.40535 0.47344 0.78806
 C258 C 0.38120 0.45708 0.81217
 H259 H 0.39503 0.44804 0.82101
 C260 C 0.34693 0.48081 0.78848
 H261 H 0.33372 0.49003 0.77897
 C262 C 0.34022 0.46672 0.80728
 H263 H 0.32171 0.46501 0.81192
 Zn264 Zn 0.38077 0.50142 0.75706
 N265 N 0.37007 0.48297 0.78217
 C266 C 0.39858 0.53126 0.79220
 N267 N 0.39708 0.52826 0.76882
 C268 C 0.40604 0.54459 0.75398
 C269 C 0.41681 0.56496 0.76256
 C270 C 0.40941 0.55120 0.80155
 C271 C 0.39335 0.46064 0.73504
 C272 C 0.40664 0.44549 0.72175
 C273 C 0.43675 0.47570 0.71779
 C274 C 0.42271 0.49037 0.73110
 N275 N 0.40120 0.48276 0.73907
 H276 H 0.39096 0.51838 0.80379
 H277 H 0.40432 0.54204 0.73543
 H278 H 0.42354 0.57783 0.75037
 H279 H 0.40960 0.55290 0.82022
 H280 H 0.37679 0.45453 0.74254
 H281 H 0.39962 0.42804 0.71949
 H282 H 0.45373 0.48219 0.71145
 H283 H 0.42905 0.50777 0.73497
 C284 C 0.35759 0.45473 0.81941
 C285 C 0.32512 0.52387 0.70286
 C286 C 0.42866 0.45299 0.71254
 C287 C 0.41872 0.56857 0.78667
 C288 C 0.63446 0.97554 0.72611
 H289 H 0.63264 0.96999 0.74397
 C290 C 0.64674 0.96196 0.71017
 H291 H 0.65449 0.94600 0.71587
 C292 C 0.62520 1.00221 0.69655
 H293 H 0.61600 1.01734 0.69101
 C294 C 0.63761 0.98938 0.68015
 H295 H 0.63769 0.99492 0.66221
 N296 N 0.62374 0.99509 0.71903
 C297 C 0.60760 1.03849 0.77873
 H298 H 0.58908 1.04070 0.77500
 C299 C 0.61757 1.04892 0.79833
 H300 H 0.60640 1.05926 0.80942
 C301 C 0.64404 1.02176 0.76875
 H302 H 0.65413 1.01095 0.75720
 C303 C 0.65485 1.03186 0.78833
 H304 H 0.67327 1.02847 0.79120
 Zn305 Zn 0.60362 1.01009 0.74042
 N306 N 0.62071 1.02491 0.76465
 C307 C 0.58530 0.98215 0.77656
 N308 N 0.58328 0.98688 0.75355
 C309 C 0.56835 0.97414 0.73979
 C310 C 0.55445 0.95604 0.74921
 C311 C 0.57212 0.96401 0.78659
 C312 C 0.59905 1.05191 0.71703
 C313 C 0.58782 1.06981 0.70561
 C314 C 0.55047 1.04952 0.71203
 C315 C 0.56247 1.03200 0.72330
 N316 N 0.58639 1.03331 0.72524
 H317 H 0.59753 0.99212 0.78720
 H318 H 0.56743 0.97788 0.72143
 H319 H 0.54270 0.94610 0.73790
 H320 H 0.57412 0.96124 0.80500
 H321 H 0.61803 1.05275 0.71925
 H322 H 0.59878 1.08406 0.69930
 H323 H 0.53140 1.04798 0.71056
 H324 H 0.55259 1.01746 0.73054
 C325 C 0.64142 1.04543 0.80379
 C326 C 0.64830 0.96878 0.68685
 C327 C 0.56307 1.06876 0.70278
 C328 C 0.55656 0.95035 0.77283
 C329 C 0.04187 0.23474 -0.12605
 H330 H 0.05157 0.24491 -0.11336
 C331 C 0.05354 0.21760 -0.13830
 H332 H 0.07214 0.21513 -0.13500
 C333 C 0.00580 0.22453 -0.14462
 H334 H -0.01298 0.22700 -0.14648
 C335 C 0.01681 0.20692 -0.15717
 H336 H 0.00624 0.19630 -0.16887
 N337 N 0.01834 0.23773 -0.12911
 C338 C -0.01728 0.30061 -0.10875
 H339 H -0.01565 0.29830 -0.09019
 C340 C -0.02660 0.32088 -0.11734
 H341 H -0.03213 0.33415 -0.10525
 C342 C -0.01178 0.28605 -0.14692
 H343 H -0.00571 0.27245 -0.15828
 C344 C -0.02131 0.30614 -0.15633
 H345 H -0.02228 0.30786 -0.17500
 Zn346 Zn 0.00248 0.25778 -0.10842
 N347 N -0.01016 0.28368 -0.12347
 C348 C 0.04058 0.28545 -0.09482
 N349 N 0.02445 0.26971 -0.08644
 C350 C 0.02470 0.26300 -0.06384
 C351 C 0.04250 0.27142 -0.04900
 C352 C 0.05866 0.29424 -0.08072
 C353 C -0.04487 0.24761 -0.09582
 C354 C -0.06362 0.23429 -0.08675
 C355 C -0.03576 0.20607 -0.07404
 C356 C -0.01749 0.22003 -0.08337
 N357 N -0.02231 0.24037 -0.09396
 H358 H 0.03968 0.29077 -0.11278
 H359 H 0.01143 0.25080 -0.05739
 H360 H 0.04270 0.26546 -0.03118
 H361 H 0.07097 0.30663 -0.08837
 H362 H -0.04850 0.26353 -0.10474
 H363 H -0.08143 0.24046 -0.08865
 H364 H -0.03111 0.19000 -0.06594
 H365 H 0.00059 0.21446 -0.08251
 C366 C -0.02889 0.32383 -0.14135
 C367 C 0.04097 0.20297 -0.15360
 C368 C -0.05938 0.21310 -0.07580
 C369 C 0.06023 0.28682 -0.05747
 C370 C 0.49834 0.21914 0.15895
 H371 H 0.49059 0.23597 0.16092
 C372 C 0.49004 0.20051 0.17259
 H373 H 0.47631 0.20349 0.18529
 C374 C 0.52473 0.19468 0.13914
 H375 H 0.53767 0.19202 0.12565
 C376 C 0.51723 0.17581 0.15250
 H377 H 0.52477 0.15904 0.14917
 N378 N 0.51501 0.21579 0.14218
 C379 C 0.55171 0.27893 0.11916
 H380 H 0.55393 0.27347 0.10132
 C381 C 0.56255 0.29953 0.12667
 H382 H 0.57297 0.30977 0.11441
 C383 C 0.53537 0.27223 0.15657
 H384 H 0.52460 0.26160 0.16809
 C385 C 0.54599 0.29291 0.16488
 H386 H 0.54300 0.29792 0.18274
 Zn387 Zn 0.52323 0.23934 0.12014
 N388 N 0.53818 0.26584 0.13394
 C389 C 0.47437 0.23821 0.10829
 N390 N 0.49571 0.24896 0.10446
 C391 C 0.49781 0.26747 0.08999
 C392 C 0.47791 0.27652 0.07951
 C393 C 0.45396 0.24667 0.09816
 C394 C 0.56717 0.22356 0.10625
 C395 C 0.58385 0.21330 0.09189
 C396 C 0.55469 0.21113 0.06139
 C397 C 0.53851 0.22139 0.07644
 N398 N 0.54493 0.22705 0.09851
 H399 H 0.47302 0.22318 0.11937
 H400 H 0.51495 0.27553 0.08681
 H401 H 0.48062 0.29141 0.06844
 H402 H 0.43712 0.23801 0.10184
 H403 H 0.57180 0.22840 0.12386
 H404 H 0.60121 0.21094 0.09900
 H405 H 0.54908 0.20640 0.04399
 H406 H 0.52071 0.22439 0.07066
 C407 C 0.55965 0.30694 0.14967
 C408 C 0.49919 0.17833 0.16898
 C409 C 0.57765 0.20649 0.06911
 C410 C 0.45536 0.26638 0.08387
 C411 C 0.95957 0.71829 0.63859
 H412 H 0.94598 0.72605 0.62838
 C413 C 0.95361 0.69957 0.65294
 H414 H 0.93545 0.69322 0.65344
 C415 C 0.99996 0.71580 0.64869
 H416 H 1.01807 0.72192 0.64644
 C417 C 0.99484 0.69672 0.66291
 H418 H 1.00907 0.68823 0.67170
 N419 N 0.98246 0.72590 0.63657
 C420 C 1.00419 0.79454 0.61261
 H421 H 1.00080 0.79176 0.59432
 C422 C 1.01172 0.81633 0.62049
 H423 H 1.01411 0.83031 0.60811
 C424 C 1.00515 0.77952 0.65085
 H425 H 1.00237 0.76507 0.66254
 C426 C 1.01289 0.80115 0.65952
 H427 H 1.01575 0.80309 0.67798
 Zn428 Zn 0.99131 0.74831 0.61400
 N429 N 1.00128 0.77664 0.62770
 C430 C 0.96492 0.75046 0.57181
 N431 N 0.96529 0.75511 0.59497
 C432 C 0.94755 0.76670 0.60542
 C433 C 0.92831 0.77400 0.59263
 C434 C 0.94600 0.75752 0.55825
 C435 C 1.03793 0.74779 0.59662
 C436 C 1.05756 0.73817 0.58600
 C437 C 1.03322 0.70484 0.57512
 C438 C 1.01398 0.71518 0.58600
 N439 N 1.01667 0.73623 0.59654
 H440 H 0.97947 0.74168 0.56372
 H441 H 0.94858 0.77058 0.62380
 H442 H 0.91493 0.78335 0.60187
 H443 H 0.94618 0.75380 0.53978
 H444 H 1.03996 0.76423 0.60552
 H445 H 1.07435 0.74765 0.58667
 H446 H 1.03035 0.68795 0.56733
 H447 H 0.99697 0.70615 0.58658
 C448 C 1.01647 0.81983 0.64412
 C449 C 0.97146 0.68830 0.66500
 C450 C 1.05560 0.71628 0.57528
 C451 C 0.92733 0.76959 0.56852
 C452 C 0.52177 0.73231 0.34670
 H453 H 0.52748 0.75014 0.34961
 C454 C 0.53634 0.71729 0.33445
 H455 H 0.55318 0.72371 0.32772
 C456 C 0.49387 0.70171 0.35366
 H457 H 0.47790 0.69534 0.36205
 C458 C 0.50767 0.68622 0.34125
 H459 H 0.50196 0.66819 0.34037
 N460 N 0.50123 0.72420 0.35644
 C461 C 0.45547 0.77978 0.37821
 H462 H 0.45323 0.77429 0.39604
 C463 C 0.44389 0.79917 0.37035
 H464 H 0.43270 0.80832 0.38246
 C465 C 0.47324 0.77439 0.34132
 H466 H 0.48488 0.76466 0.33022
 C467 C 0.46189 0.79382 0.33258
 H468 H 0.46524 0.79857 0.31472
 Zn469 Zn 0.48570 0.74338 0.37816
 N470 N 0.47012 0.76809 0.36388
 C471 C 0.51158 0.77901 0.40154
 N472 N 0.50916 0.75568 0.39853
 C473 C 0.52468 0.74100 0.40818
 C474 C 0.54375 0.74973 0.42119
 C475 C 0.53017 0.78848 0.41463
 C476 C 0.44300 0.71872 0.38247
 C477 C 0.42465 0.70631 0.39339
 C478 C 0.44627 0.70911 0.42943
 C479 C 0.46430 0.72143 0.41771
 N480 N 0.46240 0.72584 0.39463
 H481 H 0.49951 0.79050 0.39326
 H482 H 0.52262 0.72253 0.40518
 H483 H 0.55615 0.73771 0.42834
 H484 H 0.53161 0.80714 0.41588
 H485 H 0.44180 0.72277 0.36419
 H486 H 0.40942 0.70083 0.38322
 H487 H 0.44857 0.70595 0.44773
 H488 H 0.47973 0.72758 0.42711
 C489 C 0.44715 0.80681 0.34735
 C490 C 0.52949 0.69386 0.33190
 C491 C 0.42595 0.70135 0.41722
 C492 C 0.54686 0.77380 0.42455
 C493 C 0.36859 -0.00407 0.21923
 C494 C 0.37585 0.00601 0.24038
 C495 C 0.38686 0.02815 0.24039
 C496 C 0.39180 0.03960 0.21941
 C497 C 0.38461 0.02923 0.19838
 C498 C 0.37256 0.00767 0.19817
 C499 C 0.37316 -0.00714 0.26230
 C500 C 0.38192 -0.02967 0.26381
 C501 C 0.38101 -0.04182 0.28484
 C502 C 0.37007 -0.03158 0.30417
 C503 C 0.36109 -0.00921 0.30299
 C504 C 0.36291 0.00309 0.28200
 H505 H 0.36017 -0.02117 0.21924
 H506 H 0.39267 0.03596 0.25662
 H507 H 0.39031 -0.03739 0.24878
 H508 H 0.35668 0.02063 0.28091
 H509 H 0.38787 0.03821 0.18213
 H510 H 0.36813 -0.04101 0.32029
 C511 C 0.11737 1.01164 0.72279
 C512 C 0.10667 0.99917 0.74105
 C513 C 0.09762 0.97665 0.73697
 C514 C 0.09853 0.96685 0.71468
 C515 C 0.10976 0.97935 0.69659
 C516 C 0.11952 1.00171 0.70061
 C517 C 0.10518 1.00965 0.76447
 C518 C 0.09573 1.03168 0.76749
 C519 C 0.09472 1.04193 0.78958
 C520 C 0.10341 1.02993 0.80885
 C521 C 0.11291 1.00780 0.80601
 C522 C 0.11341 0.99770 0.78382
 H523 H 0.12465 1.02893 0.72606
 H524 H 0.08918 0.96704 0.75102
 H525 H 0.08899 1.04080 0.75259
 H526 H 0.12073 0.98066 0.78148
 H527 H 0.11087 0.97159 0.67954
 H528 H 0.10186 1.03735 0.82606
 C529 C 0.64158 0.50812 0.22683
 C530 C 0.62959 0.49623 0.24469
 C531 C 0.62183 0.47319 0.24118
 C532 C 0.62569 0.46206 0.21981
 C533 C 0.63850 0.47400 0.20227
 C534 C 0.64627 0.49717 0.20558
 C535 C 0.62550 0.50802 0.26710
 C536 C 0.61280 0.52852 0.26788
 C537 C 0.60979 0.54047 0.28888
 C538 C 0.61973 0.53172 0.30929
 C539 C 0.63264 0.51126 0.30876
 C540 C 0.63508 0.49927 0.28756
 H541 H 0.64762 0.52591 0.22968
 H542 H 0.61235 0.46411 0.25496
 H543 H 0.60527 0.53520 0.25205
 H544 H 0.64442 0.48317 0.28671
 H545 H 0.64303 0.46505 0.18644
 H546 H 0.61722 0.54065 0.32568
 C547 C 0.86556 0.49294 0.71966
 C548 C 0.87095 0.50418 0.74077
 C549 C 0.88031 0.52701 0.74048
 C550 C 0.88559 0.53802 0.71937
 C551 C 0.88054 0.52643 0.69840
 C552 C 0.87001 0.50416 0.69841
 C553 C 0.86844 0.49157 0.76304
 C554 C 0.87869 0.46979 0.76548
 C555 C 0.87879 0.45873 0.78707
 C556 C 0.86728 0.46900 0.80602
 C557 C 0.85656 0.49051 0.80387
 C558 C 0.85746 0.50190 0.78231
 H559 H 0.85831 0.47535 0.71984
 H560 H 0.88460 0.53579 0.75667
 H561 H 0.88774 0.46205 0.75085
 H562 H 0.85010 0.51890 0.78041
 H563 H 0.88412 0.53503 0.68201
 H564 H 0.86659 0.46022 0.82261
 C565 C 0.23842 0.35232 0.00571
 C566 C 0.25752 0.36124 0.01874
 C567 C 0.25400 0.36733 0.04212
 C568 C 0.23145 0.36486 0.05232
 C569 C 0.21268 0.35538 0.03919
 C570 C 0.21599 0.34910 0.01581
 C571 C 0.28092 0.36484 0.00754
 C572 C 0.28269 0.37656 -0.01375
 C573 C 0.30460 0.37988 -0.02483
 C574 C 0.32499 0.37159 -0.01419
 C575 C 0.32352 0.35950 0.00689
 C576 C 0.30139 0.35641 0.01785
 H577 H 0.24109 0.34771 -0.01237
 H578 H 0.26872 0.37433 0.05211
 H579 H 0.26693 0.38318 -0.02169
 H580 H 0.29993 0.34755 0.03435
 H581 H 0.19529 0.35404 0.04703
 H582 H 0.34217 0.37458 -0.02215
 C583 C 0.73394 0.10896 1.00162
 C584 C 0.75084 0.09756 0.98824
 C585 C 0.74546 0.09090 0.96537
 C586 C 0.72317 0.09518 0.95594
 C587 C 0.70663 0.10729 0.96943
 C588 C 0.71192 0.11431 0.99231
 C589 C 0.77437 0.09341 0.99817
 C590 C 0.77630 0.08224 1.01966
 C591 C 0.79840 0.07998 1.03016
 C592 C 0.81876 0.08876 1.01878
 C593 C 0.81710 0.10025 0.99745
 C594 C 0.79482 0.10211 0.98700
 H595 H 0.73828 0.11433 1.01920
 H596 H 0.75851 0.08197 0.95508
 H597 H 0.76050 0.07568 1.02842
 H598 H 0.79315 0.11065 0.97041
 H599 H 0.68981 0.11136 0.96208
 H600 H 0.83598 0.08691 1.02659
 C601 C 0.21028 0.62375 0.51478
 C602 C 0.23160 0.61566 0.50563
 C603 C 0.23191 0.60591 0.48323
 C604 C 0.21128 0.60436 0.46992
 C605 C 0.19003 0.61229 0.47937
 C606 C 0.18942 0.62229 0.50161
 C607 C 0.25366 0.61725 0.51936
 C608 C 0.25397 0.60964 0.54249
 C609 C 0.27521 0.60967 0.55487
 C610 C 0.29610 0.61824 0.54432
 C611 C 0.29604 0.62643 0.52143
 C612 C 0.27467 0.62583 0.50903
 H613 H 0.21004 0.63100 0.53215
 H614 H 0.24826 0.59945 0.47615
 H615 H 0.23790 0.60281 0.55053
 H616 H 0.27395 0.63253 0.49155
 H617 H 0.17381 0.61063 0.46953
 H618 H 0.31245 0.61869 0.55406
 C619 C 0.70369 0.86612 0.49167
 C620 C 0.72451 0.87519 0.50177
 C621 C 0.72317 0.88851 0.52219
 C622 C 0.70127 0.89260 0.53267
 C623 C 0.68055 0.88352 0.52237
 C624 C 0.68161 0.87007 0.50205
 C625 C 0.74778 0.86996 0.49158
 C626 C 0.75320 0.87579 0.46846
 C627 C 0.77551 0.87090 0.45903
 C628 C 0.79189 0.85926 0.47265
 C629 C 0.78653 0.85307 0.49571
 C630 C 0.76459 0.85890 0.50512
 H631 H 0.70481 0.85603 0.47581
 H632 H 0.73924 0.89552 0.53003
 H633 H 0.74008 0.88419 0.45806
 H634 H 0.76032 0.85436 0.52295
 H635 H 0.66350 0.88698 0.53011
 H636 H 0.80912 0.85586 0.46538
 C637 C -0.00280 0.22418 0.36307
 C638 C 0.01207 0.24358 0.36763
 C639 C 0.03501 0.24019 0.37595
 C640 C 0.04290 0.21780 0.38021
 C641 C 0.02806 0.19855 0.37502
 C642 C 0.00527 0.20164 0.36618
 C643 C 0.00372 0.26738 0.36370
 C644 C -0.01886 0.27374 0.37128
 C645 C -0.02672 0.29635 0.36768
 C646 C -0.01189 0.31244 0.35607
 C647 C 0.01086 0.30649 0.34871
 C648 C 0.01842 0.28387 0.35242
 H649 H -0.02039 0.22661 0.35632
 H650 H 0.04647 0.25504 0.37991
 H651 H -0.03018 0.26098 0.37987
 H652 H 0.03578 0.27903 0.34637
 H653 H 0.03422 0.18120 0.37792
 H654 H -0.01833 0.32959 0.35271
 C655 C 1.01255 0.71913 0.12558
 C656 C 0.99634 0.73603 0.11941
 C657 C 0.97361 0.72902 0.11196
 C658 C 0.96717 0.70532 0.11055
 C659 C 0.98352 0.68875 0.11713
 C660 C 1.00618 0.69549 0.12490
 C661 C 1.00301 0.76099 0.12162
 C662 C 1.02514 0.76933 0.11354
 C663 C 1.03196 0.79279 0.11645
 C664 C 1.01655 0.80770 0.12795
 C665 C 0.99456 0.79958 0.13649
 C666 C 0.98771 0.77632 0.13280
 H667 H 1.02995 0.72444 0.13175
 H668 H 0.96105 0.74206 0.10751
 H669 H 1.03693 0.75738 0.10520
 H670 H 0.97083 0.76992 0.13947
 H671 H 0.97855 0.67054 0.11571
 H672 H 1.02170 0.82583 0.12988
 C673 C 0.51117 0.23510 0.61728
 C674 C 0.49823 0.25332 0.60814
 C675 C 0.47603 0.24848 0.59819
 C676 C 0.46673 0.22569 0.59731
 C677 C 0.48002 0.20760 0.60644
 C678 C 0.50207 0.21226 0.61687
 C679 C 0.50770 0.27747 0.60964
 C680 C 0.53106 0.28282 0.60283
 C681 C 0.54035 0.30558 0.60497
 C682 C 0.52624 0.32284 0.61459
 C683 C 0.50288 0.31769 0.62175
 C684 C 0.49368 0.29503 0.61879
 H685 H 0.52814 0.23883 0.62533
 H686 H 0.46600 0.26250 0.59104
 H687 H 0.54195 0.26915 0.59613
 H688 H 0.47575 0.29082 0.62440
 H689 H 0.47361 0.18986 0.60475
 H690 H 0.53357 0.34029 0.61599
 C691 C 0.48657 0.72640 0.87339
 C692 C 0.49847 0.74696 0.88033
 C693 C 0.52079 0.74579 0.89078
 C694 C 0.53071 0.72428 0.89527
 C695 C 0.51856 0.70385 0.88831
 C696 C 0.49675 0.70479 0.87701
 C697 C 0.48728 0.76961 0.87725
 C698 C 0.46429 0.77302 0.88561
 C699 C 0.45371 0.79464 0.88348
 C700 C 0.46632 0.81284 0.87231
 C701 C 0.48929 0.80955 0.86372
 C702 C 0.49977 0.78803 0.86660
 H703 H 0.46937 0.72730 0.86533
 H704 H 0.53003 0.76160 0.89621
 H705 H 0.45487 0.75896 0.89440
 H706 H 0.51760 0.78552 0.86028
 H707 H 0.52639 0.68714 0.89099
 H708 H 0.45896 0.82990 0.87135
 C709 C 0.43656 -0.17347 0.34100
 C710 C 0.43753 -0.16304 0.31905
 C711 C 0.42738 -0.14000 0.31560
 N712 N 0.42385 -0.13160 0.29391
 N713 N 0.41477 -0.11069 0.29097
 C714 C 0.40910 -0.09740 0.30965
 N715 N 0.41283 -0.10574 0.33124
 N716 N 0.42174 -0.12661 0.33416
 C717 C 0.39915 -0.07427 0.30731
 C718 C 0.39171 -0.06501 0.28629
 H719 H 0.44551 -0.17138 0.30424
 H720 H 0.39775 -0.06424 0.32314
 H721 H 0.42647 -0.16455 0.35423
 H722 H 0.39456 -0.07464 0.27036
 C723 C 0.96122 0.34578 0.85044
 C724 C 0.95110 0.34907 0.82866
 C725 C 0.93927 0.37088 0.82328
 N726 N 0.92802 0.37359 0.80272
 N727 N 0.91661 0.39303 0.79829
 C728 C 0.91606 0.41041 0.81431
 N729 N 0.92739 0.40771 0.83474
 N730 N 0.93877 0.38836 0.83914
 C731 C 0.90309 0.43176 0.81047
 C732 C 0.89164 0.43688 0.78979
 H733 H 0.95066 0.33525 0.81590
 H734 H 0.90302 0.44421 0.82461
 H735 H 0.96049 0.35979 0.86301
 H736 H 0.89346 0.42549 0.77491
 C737 C 0.05359 1.18313 0.83620
 C738 C 0.04298 1.16487 0.82373
 C739 C 0.05581 1.14346 0.81893
 N740 N 0.04625 1.12680 0.80485
 N741 N 0.05725 1.10692 0.80136
 C742 C 0.07813 1.10291 0.81199
 N743 N 0.08764 1.11953 0.82610
 N744 N 0.07672 1.13943 0.82947
 C745 C 0.09008 1.08076 0.80912
 C746 C 0.08343 1.06462 0.79213
 H747 H 0.02478 1.16552 0.81828
 H748 H 0.10485 1.07736 0.82037
 H749 H 0.07216 1.18190 0.84041
 H750 H 0.07016 1.06916 0.77956
 C751 C 0.54642 0.67728 0.32211
 C752 C 0.53935 0.65593 0.31256
 C753 C 0.55597 0.63711 0.30876
 N754 N 0.54880 0.61766 0.29716
 N755 N 0.56300 0.59970 0.29514
 C756 C 0.58484 0.60045 0.30486
 N757 N 0.59202 0.61992 0.31645
 N758 N 0.57788 0.63793 0.31833
 C759 C 0.60014 0.58025 0.30392
 C760 C 0.59544 0.56148 0.28915
 H761 H 0.52088 0.65242 0.30876
 H762 H 0.61559 0.58030 0.31494
 H763 H 0.56512 0.68156 0.32353
 H764 H 0.58135 0.56261 0.27657
 C765 C 0.57042 0.32972 0.15629
 C766 C 0.57211 0.33857 0.17887
 C767 C 0.58255 0.36192 0.18318
 N768 N 0.58580 0.36988 0.20521
 N769 N 0.59515 0.39104 0.20905
 C770 C 0.60153 0.40501 0.19098
 N771 N 0.59823 0.39705 0.16902
 N772 N 0.58895 0.37594 0.16520
 C773 C 0.61167 0.42851 0.19452
 C774 C 0.61630 0.43800 0.21643
 H775 H 0.56605 0.32841 0.19358
 H776 H 0.61493 0.43877 0.17910
 H777 H 0.57770 0.34020 0.14226
 H778 H 0.61162 0.42793 0.23170
 C779 C 0.02497 0.84319 0.65155
 C780 C 0.03612 0.84817 0.67263
 C781 C 0.04646 0.87141 0.67741
 N782 N 0.05732 0.87603 0.69795
 N783 N 0.06725 0.89687 0.70207
 C784 C 0.06674 0.91381 0.68575
 N785 N 0.05589 0.90918 0.66526
 N786 N 0.04594 0.88840 0.66117
 C787 C 0.07788 0.93680 0.68963
 C788 C 0.08778 0.94349 0.71083
 H789 H 0.03833 0.83479 0.68547
 H790 H 0.07756 0.94903 0.67544
 H791 H 0.02363 0.85702 0.63899
 H792 H 0.08623 0.93182 0.72549
 C793 C 0.96649 0.66631 0.67740
 C794 C 0.94446 0.66059 0.68708
 C795 C 0.93778 0.63661 0.69338
 N796 N 0.91760 0.63210 0.70559
 N797 N 0.91028 0.61031 0.70959
 C798 C 0.92277 0.59224 0.70131
 N799 N 0.94296 0.59675 0.68916
 N800 N 0.95038 0.61852 0.68533
 C801 C 0.91389 0.56819 0.70367
 C802 C 0.89608 0.56173 0.71933
 H803 H 0.93128 0.67374 0.68892
 H804 H 0.92150 0.55514 0.69252
 H805 H 0.98037 0.65374 0.67797
 H806 H 0.89025 0.57402 0.73230
 C807 C 0.48973 0.15702 0.18041
 C808 C 0.46807 0.15509 0.19208
 C809 C 0.45691 0.13210 0.19650
 N810 N 0.43719 0.12997 0.20997
 N811 N 0.42620 0.10937 0.21263
 C812 C 0.43443 0.09022 0.20174
 N813 N 0.45410 0.09239 0.18831
 N814 N 0.46516 0.11289 0.18580
 C815 C 0.42184 0.06763 0.20297
 C816 C 0.40460 0.06228 0.21961
 H817 H 0.45823 0.17031 0.19648
 H818 H 0.42672 0.05449 0.19046
 H819 H 0.49919 0.14123 0.17716
 H820 H 0.40147 0.07429 0.23375
 C821 C 0.35209 0.43938 -0.16068
 C822 C 0.33218 0.44124 -0.14647
 C823 C 0.32932 0.42712 -0.12532
 N824 N 0.31117 0.43087 -0.11038
 N825 N 0.30903 0.41874 -0.09078
 C826 C 0.32497 0.40241 -0.08544
 N827 N 0.34298 0.39857 -0.10045
 N828 N 0.34513 0.41068 -0.12000
 C829 C 0.32349 0.38929 -0.06362
 C830 C 0.30566 0.39248 -0.04719
 H831 H 0.31916 0.45414 -0.14998
 H832 H 0.33689 0.37663 -0.06064
 H833 H 0.36538 0.42710 -0.15595
 H834 H 0.29144 0.40399 -0.05119
 C835 C 0.81455 0.95338 0.33289
 C836 C 0.81974 0.93232 0.34331
 C837 C 0.80646 0.92267 0.36322
 N838 N 0.81309 0.90229 0.37248
 N839 N 0.80238 0.89381 0.39138
 C840 C 0.78462 0.90540 0.40180
 N841 N 0.77778 0.92569 0.39239
 N842 N 0.78852 0.93419 0.37345
 C843 C 0.77382 0.89690 0.42364
 C844 C 0.78262 0.87774 0.43519
 H845 H 0.83459 0.92260 0.33704
 H846 H 0.76012 0.90705 0.43156
 H847 H 0.79855 0.96209 0.33779
 H848 H 0.79720 0.86868 0.42738
 C849 C 0.83809 0.04308 1.17527
 C850 C 0.82469 0.03274 1.15741
 C851 C 0.82175 0.04440 1.13491
 N852 N 0.80713 0.03496 1.11859
 N853 N 0.80511 0.04489 1.09785
 C854 C 0.81777 0.06457 1.09264
 N855 N 0.83240 0.07397 1.10894
 N856 N 0.83433 0.06411 1.12968
 C857 C 0.81641 0.07549 1.06968
 C858 C 0.79972 0.06864 1.05309
 H859 H 0.81655 0.01568 1.15921
 H860 H 0.82853 0.08990 1.06607
 H861 H 0.84415 0.06088 1.17250
 H862 H 0.78625 0.05570 1.05760
 C863 C 0.31336 0.53049 0.68108
 C864 C 0.30442 0.55237 0.67692
 C865 C 0.29987 0.56012 0.65308
 N866 N 0.28686 0.57914 0.64919
 N867 N 0.28413 0.58708 0.62767
 C868 C 0.29458 0.57644 0.60934
 N869 N 0.30763 0.55751 0.61327
 N870 N 0.31014 0.54944 0.63470
 C871 C 0.29320 0.58572 0.58571
 C872 C 0.27552 0.60045 0.57872
 H873 H 0.30180 0.56444 0.69109
 H874 H 0.30620 0.58018 0.57312
 H875 H 0.31326 0.51796 0.66699
 H876 H 0.26085 0.60387 0.59029
 C877 C 0.18034 0.56457 0.32282
 C878 C 0.19402 0.55608 0.34085
 C879 C 0.19596 0.56839 0.36326
 N880 N 0.20967 0.55998 0.38038
 N881 N 0.21054 0.57032 0.40114
 C882 C 0.19765 0.58940 0.40553
 N883 N 0.18401 0.59783 0.38839
 N884 N 0.18319 0.58754 0.36766
 C885 C 0.19747 0.60049 0.42856
 C886 C 0.21228 0.59384 0.44647
 H887 H 0.20280 0.53976 0.33914
 H888 H 0.18540 0.61449 0.43133
 H889 H 0.17289 0.58157 0.32496
 H890 H 0.22574 0.58127 0.44296
 C891 C 0.64985 0.05469 0.82384
 C892 C 0.67283 0.05276 0.83249
 C893 C 0.67890 0.06144 0.85593
 N894 N 0.70162 0.06166 0.86343
 N895 N 0.70701 0.06908 0.88480
 C896 C 0.68983 0.07640 0.89947
 N897 N 0.66716 0.07609 0.89198
 N898 N 0.66180 0.06878 0.87065
 C899 C 0.69502 0.08440 0.92324
 C900 C 0.71794 0.08708 0.93191
 H901 H 0.68663 0.04471 0.82254
 H902 H 0.67995 0.08789 0.93417
 H903 H 0.63760 0.06419 0.83460
 H904 H 0.73264 0.08230 0.92093
 C905 C 0.65886 0.95308 0.66952
 C906 C 0.66862 0.96092 0.64859
 C907 C 0.67424 0.94495 0.62947
 N908 N 0.68679 0.95277 0.61080
 N909 N 0.69055 0.93892 0.59263
 C910 C 0.68168 0.91678 0.59239
 N911 N 0.66914 0.90897 0.61106
 N912 N 0.66555 0.92276 0.62929
 C913 C 0.68421 0.90178 0.57186
 C914 C 0.70027 0.90684 0.55403
 H915 H 0.67153 0.97933 0.64577
 H916 H 0.67313 0.88619 0.57083
 H917 H 0.65835 0.93465 0.67313
 H918 H 0.71309 0.92097 0.55618
 C919 C 0.20444 0.45859 0.17190
 C920 C 0.19668 0.43714 0.16311
 C921 C 0.20903 0.42465 0.14461
 N922 N 0.19985 0.40405 0.13698
 N923 N 0.20951 0.39318 0.11900
 C924 C 0.22875 0.40249 0.10793
 N925 N 0.23817 0.42296 0.11578
 N926 N 0.22849 0.43387 0.13380
 C927 C 0.23813 0.39165 0.08672
 C928 C 0.22643 0.37272 0.07627
 H929 H 0.18023 0.42942 0.16947
 H930 H 0.25292 0.40024 0.07802
 H931 H 0.22184 0.46547 0.16733
 H932 H 0.21090 0.36524 0.08477
 C933 C -0.15701 0.32774 0.44949
 C934 C -0.14442 0.33588 0.43014
 C935 C -0.12407 0.32395 0.42023
 N936 N -0.11292 0.33303 0.40132
 N937 N -0.09379 0.32321 0.39259
 C938 C -0.08506 0.30391 0.40244
 N939 N -0.09632 0.29470 0.42128
 N940 N -0.11549 0.30454 0.43003
 C941 C -0.06322 0.29365 0.39358
 C942 C -0.05025 0.30397 0.37549
 H943 H -0.14947 0.35180 0.42188
 H944 H -0.05665 0.27868 0.40248
 H945 H -0.15323 0.31085 0.45651
 H946 H -0.05682 0.31961 0.36775
 C947 C 0.32126 0.85596 0.93892
 C948 C 0.33577 0.83762 0.94448
 C949 C 0.35602 0.83152 0.92967
 N950 N 0.36971 0.81350 0.93547
 N951 N 0.38851 0.80832 0.92261
 C952 C 0.39433 0.82096 0.90345
 N953 N 0.38059 0.83891 0.89760
 N954 N 0.36180 0.84408 0.91045
 C955 C 0.41568 0.81627 0.88967
 C956 C 0.43045 0.79803 0.89481
 H957 H 0.33252 0.82749 0.95998
 H958 H 0.41990 0.82782 0.87540
 H959 H 0.32440 0.86491 0.92263
 H960 H 0.42488 0.78571 0.90805
 C961 C 1.16707 0.83150 0.04206
 C962 C 1.15222 0.83951 0.05959
 C963 C 1.13176 0.82616 0.06872
 N964 N 1.11837 0.83566 0.08568
 N965 N 1.09896 0.82464 0.09346
 C966 C 1.09212 0.80370 0.08455
 N967 N 1.10562 0.79406 0.06768
 N968 N 1.12509 0.80511 0.05987
 C969 C 1.07008 0.79194 0.09248
 C970 C 1.05511 0.80253 0.10848
 H971 H 1.15529 0.85674 0.06671
 H972 H 1.06530 0.77534 0.08479
 H973 H 1.16550 0.81360 0.03634
 H974 H 1.06020 0.81960 0.11496
 C975 C 0.67784 0.32583 0.53024
 C976 C 0.66861 0.33067 0.55220
 C977 C 0.64521 0.32191 0.55984
 N978 N 0.63545 0.33054 0.57952
 N979 N 0.61390 0.32354 0.58631
 C980 C 0.60131 0.30758 0.57370
 N981 N 0.61118 0.29873 0.55416
 N982 N 0.63272 0.30581 0.54730
 C983 C 0.57725 0.30016 0.58073
 C984 C 0.56493 0.31179 0.59809
 H985 H 0.67786 0.34279 0.56358
 H986 H 0.56873 0.28610 0.57116
 H987 H 0.66751 0.31514 0.51832
 H988 H 0.57310 0.32705 0.60606
 C989 C 0.33209 0.15746 0.54913
 C990 C 0.34397 0.17852 0.54466
 C991 C 0.36571 0.18521 0.55734
 N992 N 0.37848 0.20455 0.55129
 N993 N 0.39855 0.21021 0.56226
 C994 C 0.40653 0.19673 0.57971
 N995 N 0.39368 0.17752 0.58583
 N996 N 0.37368 0.17186 0.57487
 C997 C 0.42896 0.20204 0.59163
 C998 C 0.44349 0.22121 0.58616
 H999 H 0.33807 0.18978 0.53101
 H1000 H 0.43406 0.19031 0.60522
 H1001 H 0.33925 0.14616 0.56217
 H1002 H 0.43735 0.23375 0.57377
 C1003 C 0.82880 0.67764 0.03913
 C1004 C 0.84300 0.66819 0.05623
 C1005 C 0.86453 0.67981 0.06523
 N1006 N 0.87761 0.66878 0.08120
 N1007 N 0.89772 0.67835 0.08900
 C1008 C 0.90556 0.69936 0.08114
 N1009 N 0.89237 0.71054 0.06528
 N1010 N 0.87222 0.70092 0.05742
 C1011 C 0.92827 0.70958 0.08914
 C1012 C 0.94341 0.69700 0.10308
 H1013 H 0.83844 0.65129 0.06330
 H1014 H 0.93352 0.72665 0.08294
 H1015 H 0.83227 0.69530 0.03346
 H1016 H 0.93816 0.67941 0.10775
 C1017 C 0.65349 0.67298 0.97479
 C1018 C 0.65027 0.68963 0.95762
 C1019 C 0.62640 0.69485 0.94930
 N1020 N 0.62335 0.71167 0.93325
 N1021 N 0.60193 0.71552 0.92475
 C1022 C 0.58284 0.70261 0.93195
 N1023 N 0.58591 0.68589 0.94803
 N1024 N 0.60725 0.68210 0.95657
 C1025 C 0.55931 0.70537 0.92183
 C1026 C 0.55395 0.72336 0.90682
 H1027 H 0.66520 0.69835 0.94937
 H1028 H 0.54571 0.69259 0.92638
 H1029 H 0.63788 0.66556 0.98321
 H1030 H 0.56671 0.73744 0.90406
 C1031 C 0.16146 0.17183 0.46861
 C1032 C 0.15986 0.18338 0.44743
 C1033 C 0.13663 0.18824 0.43738
 N1034 N 0.13500 0.20175 0.41823
 N1035 N 0.11406 0.20519 0.40847
 C1036 C 0.09406 0.19505 0.41739
 N1037 N 0.09572 0.18150 0.43644
 N1038 N 0.11658 0.17820 0.44628
 C1039 C 0.07087 0.19785 0.40656
 C1040 C 0.06664 0.21491 0.39016
 H1041 H 0.17549 0.18766 0.43729
 H1042 H 0.05638 0.18671 0.41252
 H1043 H 0.14527 0.16856 0.47834
 H1044 H 0.08047 0.22759 0.38600
 C1045 C 0.55041 0.08596 0.69125
 C1046 C 0.56051 0.10586 0.68094
 C1047 C 0.54621 0.12314 0.66911
 N1048 N 0.55693 0.14229 0.65978
 N1049 N 0.54431 0.15819 0.64911
 C1050 C 0.52047 0.15552 0.64734
 N1051 N 0.50975 0.13634 0.65661
 N1052 N 0.52237 0.12044 0.66730
 C1053 C 0.50621 0.17305 0.63586
 C1054 C 0.51618 0.19373 0.62726
 H1055 H 0.57934 0.10934 0.68126
 H1056 H 0.48730 0.16986 0.63510
 H1057 H 0.53137 0.08357 0.69017
 H1058 H 0.53494 0.19718 0.62958
 C1059 C 1.07617 0.57326 0.18707
 C1060 C 1.08322 0.59353 0.17531
 C1061 C 1.06594 0.60954 0.16579
 N1062 N 1.07350 0.62984 0.15610
 N1063 N 1.05806 0.64480 0.14797
 C1064 C 1.03446 0.63997 0.14924
 N1065 N 1.02691 0.61960 0.15880
 N1066 N 1.04234 0.60468 0.16695
 C1067 C 1.01707 0.65639 0.14079
 C1068 C 1.02358 0.67834 0.13238
 H1069 H 1.10163 0.59865 0.17357
 H1070 H 0.99860 0.65126 0.14229
 H1071 H 1.05735 0.56939 0.18837
 H1072 H 1.04207 0.68372 0.13258
 C1073 C 0.93633 0.91759 0.21845
 C1074 C 0.92718 0.89811 0.20655
 C1075 C 0.94271 0.88118 0.19542
 N1076 N 0.93321 0.86293 0.18336
 N1077 N 0.94708 0.84780 0.17277
 C1078 C 0.97098 0.85037 0.17389
 N1079 N 0.98046 0.86855 0.18600
 N1080 N 0.96660 0.88366 0.19657
 C1081 C 0.98673 0.83431 0.16190
 C1082 C 0.97846 0.81510 0.14917
 H1083 H 0.90839 0.89509 0.20461
 H1084 H 1.00555 0.83777 0.16344
 H1085 H 0.95540 0.91945 0.21966
 H1086 H 0.95971 0.81073 0.14927
 C1087 C 0.44292 0.43861 0.69881
 C1088 C 0.43565 0.41681 0.69023
 C1089 C 0.45142 0.40167 0.67707
 N1090 N 0.44267 0.38140 0.66815
 N1091 N 0.45668 0.36705 0.65671
 C1092 C 0.48001 0.37241 0.65381
 N1093 N 0.48878 0.39271 0.66269
 N1094 N 0.47474 0.40710 0.67411
 C1095 C 0.49583 0.35637 0.64182
 C1096 C 0.48753 0.33529 0.63246
 H1097 H 0.41774 0.41032 0.69261
 H1098 H 0.51443 0.36111 0.64130
 H1099 H 0.46051 0.44501 0.69418
 H1100 H 0.46887 0.33085 0.63410
 C1101 C 0.42918 0.58949 0.79485
 C1102 C 0.43432 0.59430 0.81817
 C1103 C 0.44408 0.61691 0.82595
 N1104 N 0.45244 0.61928 0.84790
 N1105 N 0.46118 0.63963 0.85540
 C1106 C 0.46172 0.65843 0.84128
 N1107 N 0.45317 0.65613 0.81938
 N1108 N 0.44454 0.63573 0.81183
 C1109 C 0.47158 0.68093 0.84932
 C1110 C 0.48496 0.68285 0.86955
 H1111 H 0.43205 0.58116 0.83135
 H1112 H 0.46946 0.69595 0.83838
 H1113 H 0.43393 0.60271 0.78218
 H1114 H 0.48874 0.66729 0.87917
 C1115 C -0.05690 0.07361 0.30194
 C1116 C -0.06173 0.08642 0.32204
 C1117 C -0.04600 0.10571 0.32968
 N1118 N -0.05415 0.12207 0.34449
 N1119 N -0.04019 0.13982 0.35123
 C1120 C -0.01749 0.14174 0.34353
 N1121 N -0.00925 0.12523 0.32896
 N1122 N -0.02327 0.10760 0.32208
 C1123 C -0.00182 0.16122 0.35068
 C1124 C -0.01045 0.18161 0.36023
 H1125 H -0.07803 0.08367 0.33160
 H1126 H 0.01689 0.15999 0.34698
 H1127 H -0.04150 0.07895 0.29180
 H1128 H -0.02938 0.18367 0.36158
 C1129 C 0.08302 0.43473 0.29222
 C1130 C 0.08465 0.41064 0.28978
 C1131 C 0.06930 0.39429 0.30287
 N1132 N 0.07149 0.37112 0.29967
 N1133 N 0.05760 0.35604 0.31118
 C1134 C 0.04100 0.36360 0.32634
 N1135 N 0.03883 0.38677 0.32956
 N1136 N 0.05272 0.40184 0.31805
 C1137 C 0.02528 0.34725 0.33896
 C1138 C 0.02688 0.32324 0.33657
 H1139 H 0.09717 0.40306 0.27799
 H1140 H 0.01240 0.35451 0.35067
 H1141 H 0.07007 0.44108 0.30447
 H1142 H 0.04100 0.31636 0.32603
 C1143 C 0.54326 0.93137 0.78176
 C1144 C 0.54750 0.92112 0.80328
 C1145 C 0.53330 0.90132 0.81213
 N1146 N 0.54184 0.88840 0.82967
 N1147 N 0.52919 0.87059 0.83824
 C1148 C 0.50740 0.86513 0.82973
 N1149 N 0.49874 0.87817 0.81232
 N1150 N 0.51150 0.89590 0.80359
 C1151 C 0.49313 0.84580 0.83949
 C1152 C 0.50325 0.82873 0.85300
 H1153 H 0.56259 0.92647 0.81360
 H1154 H 0.47447 0.84462 0.83542
 H1155 H 0.52973 0.92339 0.77084
 H1156 H 0.52229 0.82874 0.85489
 C1157 C 0.70996 0.55588 0.07458
 C1158 C 0.70980 0.56062 0.09846
 C1159 C 0.69760 0.54537 0.11540
 N1160 N 0.69801 0.55113 0.13827
 N1161 N 0.68647 0.53805 0.15385
 C1162 C 0.67404 0.51870 0.14716
 N1163 N 0.67370 0.51286 0.12429
 N1164 N 0.68525 0.52596 0.10868
 C1165 C 0.66079 0.50437 0.16419
 C1166 C 0.65991 0.51038 0.18771
 H1167 H 0.71839 0.57603 0.10546
 H1168 H 0.65099 0.48936 0.15773
 H1169 H 0.70191 0.53957 0.06886
 H1170 H 0.66901 0.52621 0.19329
 C1171 C 0.19968 1.05309 0.57503
 C1172 C 0.19216 1.06114 0.59678
 C1173 C 0.17893 1.04645 0.61345
 N1174 N 0.17073 1.05605 0.63337
 N1175 N 0.15861 1.04324 0.64874
 C1176 C 0.15424 1.02030 0.64480
 N1177 N 0.16247 1.01065 0.62489
 N1178 N 0.17458 1.02350 0.60946
 C1179 C 0.14105 1.00593 0.66181
 C1180 C 0.13189 1.01540 0.68226
 H1181 H 0.19505 1.07897 0.60197
 H1182 H 0.13924 0.98755 0.65827
 H1183 H 0.19536 1.03520 0.57053
 H1184 H 0.13491 1.03375 0.68557
 C1185 C 0.18636 0.95721 0.93269
 C1186 C 0.17154 0.94859 0.91505
 C1187 C 0.16054 0.96351 0.89775
 N1188 N 0.14823 0.95353 0.88003
 N1189 N 0.13864 0.96648 0.86370
 C1190 C 0.14094 0.98996 0.86448
 N1191 N 0.15307 1.00002 0.88234
 N1192 N 0.16275 0.98703 0.89867
 C1193 C 0.13093 1.00432 0.84607
 C1194 C 0.12173 0.99431 0.82579
 H1195 H 0.16810 0.93024 0.91286
 H1196 H 0.13202 1.02299 0.84802
 H1197 H 0.18896 0.97587 0.93396
 H1198 H 0.12248 0.97567 0.82357
 C1199 C 0.71900 0.43627 0.41272
 C1200 C 0.70086 0.45230 0.41355
 C1201 C 0.69107 0.46205 0.39212
 N1202 N 0.67240 0.47631 0.39322
 N1203 N 0.66319 0.48484 0.37387
 C1204 C 0.67236 0.47944 0.35273
 N1205 N 0.69106 0.46527 0.35166
 N1206 N 0.70023 0.45674 0.37096
 C1207 C 0.66236 0.48828 0.33106
 C1208 C 0.64295 0.50268 0.33063
 H1209 H 0.69304 0.45754 0.42983
 H1210 H 0.67096 0.48339 0.31502
 H1211 H 0.72569 0.43161 0.39569
 H1212 H 0.63559 0.50866 0.34693
 C1213 C 0.79612 0.43764 0.57787
 C1214 C 0.81955 0.44215 0.58456
 C1215 C 0.82563 0.45204 0.60744
 N1216 N 0.84786 0.46049 0.61137
 N1217 N 0.85382 0.46911 0.63210
 C1218 C 0.83781 0.46938 0.64975
 N1219 N 0.81563 0.46073 0.64590
 N1220 N 0.80962 0.45226 0.62510
 C1221 C 0.84416 0.47889 0.67272
 C1222 C 0.86435 0.49291 0.67595
 H1223 H 0.83407 0.43912 0.57279
 H1224 H 0.83195 0.47597 0.68702
 H1225 H 0.78228 0.44346 0.58944
 H1226 H 0.87520 0.49758 0.66103
 C1227 C 0.28706 -0.05288 0.08194
 C1228 C 0.31112 -0.04848 0.08614
 C1229 C 0.31957 -0.03978 0.10882
 N1230 N 0.34210 -0.03141 0.11105
 N1231 N 0.35001 -0.02370 0.13152
 C1232 C 0.33573 -0.02427 0.15058
 N1233 N 0.31329 -0.03284 0.14839
 N1234 N 0.30533 -0.04040 0.12789
 C1235 C 0.34413 -0.01580 0.17332
 C1236 C 0.36484 -0.00233 0.17567
 H1237 H 0.32424 -0.05084 0.07271
 H1238 H 0.33299 -0.01913 0.18835
 H1239 H 0.27474 -0.04823 0.09557
 H1240 H 0.37466 0.00271 0.16020
 C1241 C 0.27938 0.06571 0.41258
 C1242 C 0.29844 0.05084 0.41080
 C1243 C 0.30750 0.04254 0.38831
 N1244 N 0.32510 0.02707 0.38796
 N1245 N 0.33383 0.01949 0.36789
 C1246 C 0.32537 0.02714 0.34735
 N1247 N 0.30780 0.04271 0.34767
 N1248 N 0.29901 0.05027 0.36779
 C1249 C 0.33495 0.01868 0.32510
 C1250 C 0.35111 0.00084 0.32449
 H1251 H 0.30736 0.04478 0.42604
 H1252 H 0.32853 0.02603 0.30914
 H1253 H 0.27066 0.07037 0.39660
 H1254 H 0.35598 -0.00709 0.34074
 C1255 C 0.77732 0.57184 0.91084
 C1256 C 0.79468 0.55504 0.90961
 C1257 C 0.80337 0.54565 0.88742
 N1258 N 0.81971 0.52890 0.88763
 N1259 N 0.82815 0.52034 0.86784
 C1260 C 0.82062 0.52823 0.84703
 N1261 N 0.80427 0.54502 0.84679
 N1262 N 0.79579 0.55358 0.86662
 C1263 C 0.83008 0.51892 0.82507
 C1264 C 0.84595 0.50081 0.82499
 H1265 H 0.80256 0.54825 0.92509
 H1266 H 0.82406 0.52621 0.80895
 H1267 H 0.76966 0.57736 0.89462
 H1268 H 0.85054 0.49319 0.84149
 C1269 C 0.07623 0.70668 0.56599
 C1270 C 0.07750 0.68512 0.55486
 C1271 C 0.10032 0.67584 0.54733
 N1272 N 0.10087 0.65598 0.53463
 N1273 N 0.12142 0.64735 0.52789
 C1274 C 0.14219 0.65820 0.53371
 N1275 N 0.14164 0.67797 0.54651
 N1276 N 0.12110 0.68664 0.55318
 C1277 C 0.16506 0.64906 0.52628
 C1278 C 0.16664 0.63067 0.51059
 H1279 H 0.06183 0.67460 0.55140
 H1280 H 0.18096 0.65788 0.53245
 H1281 H 0.09261 0.71669 0.56790
 H1282 H 0.15054 0.62326 0.50321
 C1283 C 0.59318 0.19502 1.05396
 C1284 C 0.61558 0.18742 1.06014
 C1285 C 0.63072 0.17452 1.04406
 N1286 N 0.65127 0.16595 1.05189
 N1287 N 0.66522 0.15405 1.03777
 C1288 C 0.65916 0.15029 1.01525
 N1289 N 0.63862 0.15892 1.00738
 N1290 N 0.62463 0.17079 1.02153
 C1291 C 0.67450 0.13722 0.99945
 C1292 C 0.69520 0.12717 1.00723
 H1293 H 0.62238 0.18997 1.07746
 H1294 H 0.66929 0.13600 0.98147
 H1295 H 0.58708 0.19111 1.03652
 H1296 H 0.69986 0.12936 1.02535
 C1297 C 0.92103 0.19991 0.93243
 C1298 C 0.92198 0.17836 0.94343
 C1299 C 0.90027 0.16569 0.95086
 N1300 N 0.90170 0.14540 0.96256
 N1301 N 0.88216 0.13392 0.96951
 C1302 C 0.86047 0.14229 0.96492
 N1303 N 0.85905 0.16249 0.95312
 N1304 N 0.87857 0.17397 0.94622
 C1305 C 0.83866 0.13031 0.97294
 C1306 C 0.83885 0.11064 0.98696
 H1307 H 0.93860 0.17034 0.94690
 H1308 H 0.82209 0.13820 0.96878
 H1309 H 0.90369 0.20699 0.92987
 H1310 H 0.85569 0.10393 0.99222
 C1311 C 0.40681 0.68912 0.42761
 C1312 C 0.40475 0.68365 0.45122
 C1313 C 0.38351 0.67157 0.46061
 N1314 N 0.38122 0.66817 0.48383
 N1315 N 0.36187 0.65770 0.49257
 C1316 C 0.34411 0.65019 0.47837
 N1317 N 0.34646 0.65348 0.45516
 N1318 N 0.36578 0.66397 0.44644
 C1319 C 0.32232 0.63913 0.48765
 C1320 C 0.31838 0.63616 0.51143
 H1321 H 0.41836 0.68866 0.46346
 H1322 H 0.30917 0.63330 0.47522
 H1323 H 0.39224 0.68383 0.41645
 H1324 H 0.33246 0.64092 0.52336
 C1325 C 0.56691 0.78223 0.43668
 C1326 C 0.57105 0.80550 0.44287
 C1327 C 0.59348 0.81393 0.45308
 N1328 N 0.59531 0.83595 0.46141
 N1329 N 0.61565 0.84421 0.47005
 C1330 C 0.63500 0.83081 0.47055
 N1331 N 0.63322 0.80881 0.46213
 N1332 N 0.61282 0.80050 0.45357
 C1333 C 0.65764 0.83987 0.47980
 C1334 C 0.65930 0.86087 0.49189
 H1335 H 0.55763 0.81823 0.44062
 H1336 H 0.67306 0.82933 0.47782
 H1337 H 0.58010 0.76989 0.44156
 H1338 H 0.64332 0.87020 0.49548
 C1339 C 0.07884 0.29387 -0.04262
 C1340 C 0.09889 0.30681 -0.04970
 C1341 C 0.11850 0.31289 -0.03397
 N1342 N 0.13821 0.32368 -0.04264
 N1343 N 0.15628 0.32933 -0.02885
 C1344 C 0.15534 0.32441 -0.00582
 N1345 N 0.13559 0.31367 0.00291
 N1346 N 0.11750 0.30796 -0.01092
 C1347 C 0.17508 0.33096 0.00963
 C1348 C 0.19622 0.34066 0.00100
 H1349 H 0.10129 0.31211 -0.06752
 H1350 H 0.17282 0.32784 0.02803
 H1351 H 0.07807 0.28813 -0.02471
 H1352 H 0.19859 0.34194 -0.01765
 C1353 C 0.43426 0.27522 0.07499
 C1354 C 0.43286 0.29521 0.06140
 C1355 C 0.41017 0.30439 0.05377
 N1356 N 0.41007 0.32386 0.04063
 N1357 N 0.38978 0.33260 0.03366
 C1358 C 0.36878 0.32225 0.03959
 N1359 N 0.36885 0.30279 0.05278
 N1360 N 0.38917 0.29402 0.05975
 C1361 C 0.34624 0.33158 0.03169
 C1362 C 0.34556 0.35068 0.01691
 H1363 H 0.44850 0.30502 0.05624
 H1364 H 0.33006 0.32253 0.03680
 H1365 H 0.41781 0.26619 0.07944
 H1366 H 0.36211 0.35855 0.01099
 C1367 C 0.90896 0.77729 0.55426
 C1368 C 0.88928 0.78929 0.56221
 C1369 C 0.87170 0.79881 0.54640
 N1370 N 0.85336 0.81070 0.55531
 N1371 N 0.83760 0.82009 0.54136
 C1372 C 0.83958 0.81796 0.51793
 N1373 N 0.85788 0.80600 0.50900
 N1374 N 0.87367 0.79660 0.52297
 C1375 C 0.82259 0.82871 0.50230
 C1376 C 0.80365 0.84135 0.51076
 H1377 H 0.88637 0.79242 0.58047
 H1378 H 0.82510 0.82635 0.48382
 H1379 H 0.91030 0.77399 0.53575
 H1380 H 0.80077 0.84221 0.52937
   
