data_POSCAR
  _audit_creation_date              2014-09-24
  _audit_creation_method            'ToBaCCo'
  _symmetry_space_group_name_H-M    'P1'
  _symmetry_Int_Tables_number       1
  _symmetry_cell_setting            triclinic
  loop_
  _symmetry_equiv_pos_as_xyz
 x,y,z
_cell_length_a 90.1373
_cell_length_b 90.0219
_cell_length_c 90.9484
_cell_angle_alpha 89.943300
_cell_angle_beta 90.032900
_cell_angle_gamma 89.970100
loop_
  _atom_site_label
  _atom_site_type_symbol
  _atom_site_fract_x
  _atom_site_fract_y
  _atom_site_fract_z
N1 N 0.36676 0.32738 0.33554
 N2 N 0.36545 0.33685 0.32459
 C3 C 0.37634 0.33439 0.31477
 C4 C 0.38487 0.32278 0.31986
 C5 C 0.37854 0.31850 0.33302
 H6 H 0.37776 0.34034 0.30453
 H7 H 0.38203 0.30943 0.34002
 Cu8 Cu 0.34919 0.35091 0.32360
 Cu9 Cu 0.35270 0.32699 0.35186
 Cu10 Cu 0.32639 0.35514 0.35249
 N11 N 0.33601 0.36784 0.32515
 N12 N 0.32706 0.36951 0.33644
 C13 C 0.31868 0.38173 0.33432
 C14 C 0.32272 0.38797 0.32106
 C15 C 0.33368 0.37893 0.31548
 H16 H 0.31002 0.38553 0.34164
 H17 H 0.33923 0.38012 0.30500
 N18 N 0.32752 0.33951 0.36766
 N19 N 0.33745 0.32870 0.36737
 C20 C 0.33483 0.31937 0.37869
 C21 C 0.32278 0.32466 0.38641
 C22 C 0.31836 0.33735 0.37917
 H23 H 0.34092 0.30926 0.38091
 H24 H 0.30886 0.34419 0.38182
 H25 H 0.33477 0.33678 0.34153
 H26 H 0.34858 0.34947 0.35029
 N27 N 0.36862 0.82857 -0.16384
 N28 N 0.36716 0.83774 -0.17502
 C29 C 0.37816 0.83529 -0.18473
 C30 C 0.38692 0.82402 -0.17928
 C31 C 0.38062 0.81991 -0.16607
 H32 H 0.37943 0.84096 -0.19514
 H33 H 0.38421 0.81103 -0.15887
 Cu34 Cu 0.35053 0.85135 -0.17651
 Cu35 Cu 0.35438 0.82812 -0.14770
 Cu36 Cu 0.32730 0.85549 -0.14787
 N37 N 0.33688 0.86797 -0.17532
 N38 N 0.32779 0.86958 -0.16412
 C39 C 0.31905 0.88149 -0.16652
 C40 C 0.32302 0.88760 -0.17985
 C41 C 0.33428 0.87880 -0.18522
 H42 H 0.31015 0.88508 -0.15938
 H43 H 0.33980 0.87989 -0.19573
 N44 N 0.32867 0.84017 -0.13244
 N45 N 0.33892 0.82967 -0.13240
 C46 C 0.33644 0.82050 -0.12093
 C47 C 0.32413 0.82556 -0.11347
 C48 C 0.31942 0.83797 -0.12100
 H49 H 0.34282 0.81064 -0.11842
 H50 H 0.30971 0.84459 -0.11858
 H51 H 0.33629 0.83720 -0.15846
 H52 H 0.34965 0.85048 -0.14982
 N53 N 0.86741 0.32896 -0.16445
 N54 N 0.86571 0.33880 -0.17503
 C55 C 0.87654 0.33693 -0.18506
 C56 C 0.88542 0.32536 -0.18047
 C57 C 0.87935 0.32047 -0.16742
 H58 H 0.87766 0.34324 -0.19513
 H59 H 0.88311 0.31122 -0.16080
 Cu60 Cu 0.84912 0.35261 -0.17529
 Cu61 Cu 0.85364 0.32752 -0.14801
 Cu62 Cu 0.82652 0.35463 -0.14589
 N63 N 0.83504 0.36879 -0.17283
 N64 N 0.82629 0.36956 -0.16128
 C65 C 0.81713 0.38128 -0.16277
 C66 C 0.82042 0.38817 -0.17588
 C67 C 0.83175 0.38002 -0.18208
 H68 H 0.80834 0.38419 -0.15520
 H69 H 0.83682 0.38180 -0.19271
 N70 N 0.82844 0.33858 -0.13137
 N71 N 0.83866 0.32810 -0.13222
 C72 C 0.83655 0.31833 -0.12118
 C73 C 0.82451 0.32301 -0.11308
 C74 C 0.81957 0.33578 -0.11979
 H75 H 0.84297 0.30833 -0.11941
 H76 H 0.80993 0.34223 -0.11673
 H77 H 0.83538 0.33718 -0.15788
 H78 H 0.84888 0.34994 -0.14868
 N79 N 0.86804 0.82729 0.33648
 N80 N 0.86654 0.83670 0.32550
 C81 C 0.87769 0.83463 0.31586
 C82 C 0.88656 0.82338 0.32115
 C83 C 0.88019 0.81889 0.33419
 H84 H 0.87905 0.84060 0.30562
 H85 H 0.88389 0.80996 0.34125
 Cu86 Cu 0.84981 0.85019 0.32437
 Cu87 Cu 0.85375 0.82622 0.35247
 Cu88 Cu 0.82607 0.85297 0.35283
 N89 N 0.83587 0.86652 0.32591
 N90 N 0.82652 0.86759 0.33696
 C91 C 0.81785 0.87964 0.33494
 C92 C 0.82216 0.88639 0.32200
 C93 C 0.83354 0.87784 0.31649
 H94 H 0.80895 0.88305 0.34216
 H95 H 0.83946 0.87955 0.30629
 N96 N 0.82763 0.83715 0.36782
 N97 N 0.83823 0.82700 0.36768
 C98 C 0.83609 0.81753 0.37896
 C99 C 0.82363 0.82198 0.38649
 C100 C 0.81846 0.83439 0.37921
 H101 H 0.84283 0.80788 0.38131
 H102 H 0.80858 0.84066 0.38181
 H103 H 0.83554 0.83528 0.34180
 H104 H 0.84847 0.84857 0.35102
 N105 N 0.63102 0.67203 0.34020
 N106 N 0.63248 0.66264 0.32922
 C107 C 0.62137 0.66490 0.31954
 C108 C 0.61260 0.67624 0.32484
 C109 C 0.61899 0.68057 0.33790
 H110 H 0.62000 0.65905 0.30925
 H111 H 0.61543 0.68959 0.34491
 Cu112 Cu 0.64911 0.64887 0.32811
 Cu113 Cu 0.64541 0.67327 0.35601
 Cu114 Cu 0.67357 0.64720 0.35627
 N115 N 0.66399 0.63325 0.32955
 N116 N 0.67346 0.63258 0.34054
 C117 C 0.68267 0.62097 0.33848
 C118 C 0.67866 0.61405 0.32556
 C119 C 0.66684 0.62208 0.32012
 H120 H 0.69177 0.61798 0.34564
 H121 H 0.66097 0.62007 0.30994
 N122 N 0.67179 0.66291 0.37121
 N123 N 0.66099 0.67283 0.37112
 C124 C 0.66315 0.68250 0.38221
 C125 C 0.67583 0.67838 0.38958
 C126 C 0.68112 0.66601 0.38238
 H127 H 0.65634 0.69213 0.38445
 H128 H 0.69126 0.66007 0.38479
 H129 H 0.66346 0.66437 0.34496
 H130 H 0.65100 0.65095 0.35471
 N131 N 0.63225 0.17429 -0.15924
 N132 N 0.63173 0.16418 -0.16966
 C133 C 0.62034 0.16730 -0.17877
 C134 C 0.61348 0.17998 -0.17373
 C135 C 0.62125 0.18420 -0.16138
 H136 H 0.61746 0.16107 -0.18853
 H137 H 0.61930 0.19392 -0.15468
 Cu138 Cu 0.64642 0.14836 -0.17061
 Cu139 Cu 0.64750 0.17425 -0.14408
 Cu140 Cu 0.67359 0.14587 -0.14557
 N141 N 0.66104 0.13247 -0.17138
 N142 N 0.67163 0.13158 -0.16147
 C143 C 0.68043 0.11991 -0.16459
 C144 C 0.67495 0.11316 -0.17705
 C145 C 0.66271 0.12136 -0.18118
 H146 H 0.69023 0.11679 -0.15847
 H147 H 0.65575 0.11952 -0.19070
 N148 N 0.67375 0.16140 -0.13033
 N149 N 0.66386 0.17223 -0.12977
 C150 C 0.66724 0.18127 -0.11844
 C151 C 0.67975 0.17578 -0.11163
 C152 C 0.68365 0.16326 -0.11939
 H153 H 0.66127 0.19126 -0.11553
 H154 H 0.69320 0.15627 -0.11739
 H155 H 0.66353 0.16342 -0.15620
 H156 H 0.65138 0.15158 -0.14444
 N157 N 0.13324 0.67510 -0.16008
 N158 N 0.13317 0.66568 -0.17113
 C159 C 0.12192 0.66917 -0.18029
 C160 C 0.11465 0.68135 -0.17460
 C161 C 0.12208 0.68491 -0.16184
 H162 H 0.11938 0.66350 -0.19046
 H163 H 0.11975 0.69412 -0.15458
 Cu164 Cu 0.14796 0.64997 -0.17273
 Cu165 Cu 0.14816 0.67438 -0.14462
 Cu166 Cu 0.17397 0.64592 -0.14644
 N167 N 0.16229 0.63378 -0.17325
 N168 N 0.17231 0.63217 -0.16284
 C169 C 0.18088 0.62034 -0.16594
 C170 C 0.17592 0.61423 -0.17891
 C171 C 0.16416 0.62297 -0.18334
 H172 H 0.19020 0.61662 -0.15941
 H173 H 0.15763 0.62165 -0.19324
 N174 N 0.17393 0.66090 -0.13068
 N175 N 0.16411 0.67179 -0.13000
 C176 C 0.16750 0.68064 -0.11853
 C177 C 0.17995 0.67498 -0.11174
 C178 C 0.18380 0.66254 -0.11967
 H179 H 0.16171 0.69075 -0.11564
 H180 H 0.19340 0.65557 -0.11786
 H181 H 0.16462 0.66415 -0.15682
 H182 H 0.15182 0.65182 -0.14626
 N183 N 0.13425 0.17421 0.33911
 N184 N 0.13400 0.16389 0.32888
 C185 C 0.12276 0.16677 0.31949
 C186 C 0.11572 0.17953 0.32419
 C187 C 0.12324 0.18400 0.33660
 H188 H 0.12001 0.16023 0.30990
 H189 H 0.12098 0.19375 0.34317
 Cu190 Cu 0.14875 0.14803 0.32865
 Cu191 Cu 0.14893 0.17445 0.35485
 Cu192 Cu 0.17470 0.14586 0.35508
 N193 N 0.16331 0.13198 0.32894
 N194 N 0.17336 0.13124 0.33942
 C195 C 0.18235 0.11957 0.33691
 C196 C 0.17767 0.11267 0.32425
 C197 C 0.16560 0.12076 0.31938
 H198 H 0.19184 0.11656 0.34356
 H199 H 0.15922 0.11881 0.30949
 N200 N 0.17433 0.16165 0.37001
 N201 N 0.16461 0.17264 0.36986
 C202 C 0.16757 0.18188 0.38114
 C203 C 0.17962 0.17632 0.38867
 C204 C 0.18370 0.16359 0.38138
 H205 H 0.16166 0.19205 0.38352
 H206 H 0.19305 0.15651 0.38396
 H207 H 0.16531 0.16335 0.34350
 H208 H 0.15249 0.15188 0.35492
 N209 N 0.63253 0.32613 0.65955
 N210 N 0.63277 0.33563 0.67053
 C211 C 0.62178 0.33222 0.67999
 C212 C 0.61434 0.32002 0.67456
 C213 C 0.62142 0.31636 0.66165
 H214 H 0.61953 0.33795 0.69020
 H215 H 0.61892 0.30707 0.65454
 Cu216 Cu 0.64764 0.35130 0.67169
 Cu217 Cu 0.64710 0.32659 0.64380
 Cu218 Cu 0.67281 0.35514 0.64460
 N219 N 0.66183 0.36763 0.67147
 N220 N 0.67146 0.36917 0.66072
 C221 C 0.68012 0.38103 0.66343
 C222 C 0.67560 0.38725 0.67649
 C223 C 0.66404 0.37852 0.68140
 H224 H 0.68930 0.38461 0.65665
 H225 H 0.65796 0.37983 0.69157
 N226 N 0.67250 0.33989 0.62916
 N227 N 0.66274 0.32895 0.62887
 C228 C 0.66607 0.31978 0.61764
 C229 C 0.67843 0.32530 0.61061
 C230 C 0.68229 0.33797 0.61814
 H231 H 0.66037 0.30953 0.61514
 H232 H 0.69189 0.34487 0.61611
 H233 H 0.66381 0.33695 0.65545
 H234 H 0.65064 0.34914 0.64515
 N235 N 0.63268 0.82590 1.16022
 N236 N 0.63277 0.83542 1.17119
 C237 C 0.62173 0.83194 1.18058
 C238 C 0.61445 0.81966 1.17512
 C239 C 0.62164 0.81605 1.16226
 H240 H 0.61936 0.83767 1.19076
 H241 H 0.61924 0.80674 1.15514
 Cu242 Cu 0.64770 0.85100 1.17240
 Cu243 Cu 0.64737 0.82644 1.14452
 Cu244 Cu 0.67380 0.85437 1.14625
 N245 N 0.66244 0.86680 1.17310
 N246 N 0.67258 0.86806 1.16277
 C247 C 0.68158 0.87954 1.16598
 C248 C 0.67675 0.88578 1.17895
 C249 C 0.66464 0.87749 1.18324
 H250 H 0.69108 0.88293 1.15955
 H251 H 0.65811 0.87900 1.19310
 N252 N 0.67322 0.83951 1.13038
 N253 N 0.66315 0.82887 1.12971
 C254 C 0.66618 0.82005 1.11813
 C255 C 0.67866 0.82548 1.11124
 C256 C 0.68292 0.83773 1.11925
 H257 H 0.66015 0.81009 1.11526
 H258 H 0.69268 0.84446 1.11742
 H259 H 0.66403 0.83636 1.15662
 H260 H 0.65153 0.84889 1.14595
 N261 N 0.13188 0.32670 1.15997
 N262 N 0.13231 0.33616 1.17097
 C263 C 0.12094 0.33332 1.18016
 C264 C 0.11304 0.32151 1.17454
 C265 C 0.12024 0.31750 1.16179
 H266 H 0.11876 0.33914 1.19033
 H267 H 0.11746 0.30834 1.15461
 Cu268 Cu 0.14801 0.35088 1.17281
 Cu269 Cu 0.14692 0.32646 1.14466
 Cu270 Cu 0.17343 0.35419 1.14573
 N271 N 0.16207 0.36727 1.17219
 N272 N 0.17192 0.36855 1.16159
 C273 C 0.18051 0.38049 1.16420
 C274 C 0.17571 0.38700 1.17705
 C275 C 0.16406 0.37839 1.18190
 H276 H 0.18979 0.38395 1.15750
 H277 H 0.15777 0.37992 1.19191
 N278 N 0.17315 0.33864 1.13054
 N279 N 0.16303 0.32804 1.13012
 C280 C 0.16614 0.31881 1.11887
 C281 C 0.17872 0.32395 1.11194
 C282 C 0.18296 0.33644 1.11957
 H283 H 0.16002 0.30885 1.11618
 H284 H 0.19271 0.34313 1.11755
 H285 H 0.16389 0.33634 1.15646
 H286 H 0.15106 0.34905 1.14626
 N287 N 0.13071 0.82735 0.65955
 N288 N 0.13197 0.83632 0.67088
 C289 C 0.12104 0.83333 0.68054
 C290 C 0.11258 0.82196 0.67485
 C291 C 0.11897 0.81836 0.66159
 H292 H 0.11965 0.83864 0.69112
 H293 H 0.11570 0.80945 0.65430
 Cu294 Cu 0.14825 0.85040 0.67253
 Cu295 Cu 0.14519 0.82692 0.64379
 Cu296 Cu 0.17275 0.85358 0.64457
 N297 N 0.16241 0.86665 0.67148
 N298 N 0.17197 0.86785 0.66063
 C299 C 0.18068 0.87977 0.66299
 C300 C 0.17624 0.88634 0.67594
 C301 C 0.16468 0.87779 0.68111
 H302 H 0.18973 0.88324 0.65598
 H303 H 0.15858 0.87942 0.69122
 N304 N 0.17154 0.83818 0.62922
 N305 N 0.16085 0.82816 0.62885
 C306 C 0.16326 0.81888 0.61750
 C307 C 0.17599 0.82332 0.61044
 C308 C 0.18106 0.83551 0.61810
 H309 H 0.15659 0.80926 0.61488
 H310 H 0.19117 0.84163 0.61603
 H311 H 0.16300 0.83582 0.65524
 H312 H 0.15028 0.84933 0.64589
 N313 N 0.36888 0.67171 0.66425
 N314 N 0.36692 0.66204 0.67492
 C315 C 0.37799 0.66341 0.68477
 C316 C 0.38732 0.67451 0.67993
 C317 C 0.38127 0.67961 0.66695
 H318 H 0.37895 0.65715 0.69488
 H319 H 0.38531 0.68867 0.66025
 Cu320 Cu 0.34965 0.64924 0.67555
 Cu321 Cu 0.35473 0.67392 0.64822
 Cu322 Cu 0.32622 0.64818 0.64667
 N323 N 0.33534 0.63336 0.67316
 N324 N 0.32611 0.63298 0.66196
 C325 C 0.31700 0.62122 0.66350
 C326 C 0.32086 0.61390 0.67628
 C327 C 0.33246 0.62185 0.68218
 H328 H 0.30800 0.61844 0.65613
 H329 H 0.33809 0.61967 0.69246
 N330 N 0.32840 0.66447 0.63229
 N331 N 0.33929 0.67427 0.63290
 C332 C 0.33754 0.68420 0.62194
 C333 C 0.32503 0.68039 0.61412
 C334 C 0.31943 0.66792 0.62092
 H335 H 0.34461 0.69370 0.61998
 H336 H 0.30940 0.66204 0.61800
 H337 H 0.33610 0.66512 0.65839
 H338 H 0.34873 0.65168 0.64894
 N339 N 0.36619 0.17143 1.16469
 N340 N 0.36661 0.15998 1.17368
 C341 C 0.37842 0.16133 1.18266
 C342 C 0.38569 0.17430 1.17901
 C343 C 0.37767 0.18050 1.16765
 H344 H 0.38128 0.15371 1.19142
 H345 H 0.37979 0.19097 1.16219
 Cu346 Cu 0.35093 0.14515 1.17349
 Cu347 Cu 0.35020 0.17415 1.15052
 Cu348 Cu 0.33135 0.14158 1.14238
 N349 N 0.33608 0.12966 1.17128
 N350 N 0.32847 0.12829 1.15901
 C351 C 0.31885 0.11694 1.16037
 C352 C 0.32056 0.11100 1.17423
 C353 C 0.33151 0.11927 1.18092
 H354 H 0.31097 0.11355 1.15204
 H355 H 0.33561 0.11800 1.19203
 N356 N 0.33088 0.15925 1.12964
 N357 N 0.33767 0.17181 1.13297
 C358 C 0.33423 0.18212 1.12279
 C359 C 0.32485 0.17568 1.11267
 C360 C 0.32288 0.16124 1.11729
 H361 H 0.33792 0.19355 1.12297
 H362 H 0.31565 0.15302 1.11241
 H363 H 0.33423 0.15841 1.15692
 H364 H 0.35150 0.15203 1.14754
 N365 N 0.86562 0.67296 1.16490
 N366 N 0.86632 0.66167 1.17408
 C367 C 0.87824 0.66331 1.18286
 C368 C 0.88529 0.67631 1.17892
 C369 C 0.87702 0.68224 1.16758
 H370 H 0.88134 0.65586 1.19168
 H371 H 0.87893 0.69264 1.16192
 Cu372 Cu 0.85094 0.64656 1.17434
 Cu373 Cu 0.84940 0.67513 1.15084
 Cu374 Cu 0.83109 0.64204 1.14353
 N375 N 0.83638 0.63075 1.17259
 N376 N 0.82869 0.62899 1.16042
 C377 C 0.81938 0.61742 1.16203
 C378 C 0.82133 0.61177 1.17598
 C379 C 0.83213 0.62041 1.18245
 H380 H 0.81156 0.61367 1.15381
 H381 H 0.83636 0.61941 1.19354
 N382 N 0.83002 0.65948 1.13053
 N383 N 0.83660 0.67223 1.13352
 C384 C 0.83274 0.68229 1.12323
 C385 C 0.82332 0.67547 1.11339
 C386 C 0.82175 0.66108 1.11829
 H387 H 0.83617 0.69380 1.12316
 H388 H 0.81461 0.65262 1.11370
 H389 H 0.83378 0.65924 1.15772
 H390 H 0.85104 0.65303 1.14824
 N391 N 0.86765 0.17132 0.66303
 N392 N 0.86668 0.16166 0.67386
 C393 C 0.87766 0.16421 0.68358
 C394 C 0.88589 0.17603 0.67853
 C395 C 0.87928 0.18038 0.66553
 H396 H 0.87929 0.15822 0.69377
 H397 H 0.88243 0.18968 0.65867
 Cu398 Cu 0.85069 0.14728 0.67493
 Cu399 Cu 0.85325 0.17183 0.64702
 Cu400 Cu 0.82709 0.14367 0.64647
 N401 N 0.83734 0.13046 0.67333
 N402 N 0.82811 0.12906 0.66221
 C403 C 0.81944 0.11710 0.66445
 C404 C 0.82357 0.11070 0.67760
 C405 C 0.83487 0.11941 0.68302
 H406 H 0.81036 0.11373 0.65743
 H407 H 0.84040 0.11817 0.69351
 N408 N 0.82783 0.15950 0.63155
 N409 N 0.83773 0.17032 0.63178
 C410 C 0.83482 0.17980 0.62066
 C411 C 0.82258 0.17461 0.61316
 C412 C 0.81837 0.16181 0.62030
 H413 H 0.84083 0.18995 0.61844
 H414 H 0.80883 0.15499 0.61778
 H415 H 0.83568 0.16171 0.65768
 H416 H 0.84930 0.14923 0.64830
 N417 N 0.32579 0.36740 0.66094
 N418 N 0.33505 0.36779 0.67212
 C419 C 0.33122 0.37906 0.68109
 C420 C 0.31897 0.38601 0.67514
 C421 C 0.31573 0.37837 0.66243
 H422 H 0.33669 0.38185 0.69130
 H423 H 0.30655 0.38040 0.65504
 Cu424 Cu 0.35096 0.35328 0.67415
 Cu425 Cu 0.32699 0.35232 0.64572
 Cu426 Cu 0.35571 0.32689 0.64832
 N427 N 0.36741 0.33927 0.67501
 N428 N 0.36923 0.32906 0.66483
 C429 C 0.38110 0.32065 0.66827
 C430 C 0.38700 0.32597 0.68120
 C431 C 0.37810 0.33772 0.68527
 H432 H 0.38492 0.31116 0.66205
 H433 H 0.37917 0.34440 0.69509
 N434 N 0.34091 0.32650 0.63238
 N435 N 0.33000 0.33625 0.63136
 C436 C 0.32147 0.33278 0.61970
 C437 C 0.32735 0.32034 0.61311
 C438 C 0.33959 0.31656 0.62138
 H439 H 0.31145 0.33855 0.61648
 H440 H 0.34670 0.30702 0.61975
 H441 H 0.33730 0.33618 0.65827
 H442 H 0.34961 0.34901 0.64772
 N443 N 0.32785 0.86813 0.16175
 N444 N 0.33705 0.86718 0.17294
 C445 C 0.33426 0.87829 0.18243
 C446 C 0.32273 0.88659 0.17686
 C447 C 0.31882 0.87989 0.16378
 H448 H 0.33984 0.87992 0.19283
 H449 H 0.30980 0.88303 0.15656
 Cu450 Cu 0.35104 0.85097 0.17480
 Cu451 Cu 0.32786 0.85351 0.14595
 Cu452 Cu 0.35589 0.82708 0.14680
 N453 N 0.36806 0.83791 0.17393
 N454 N 0.36994 0.82846 0.16307
 C455 C 0.38209 0.82017 0.16579
 C456 C 0.38807 0.82484 0.17897
 C457 C 0.37894 0.83602 0.18389
 H458 H 0.38597 0.81111 0.15900
 H459 H 0.37986 0.84196 0.19418
 N460 N 0.34054 0.82768 0.13133
 N461 N 0.32986 0.83774 0.13101
 C462 C 0.32078 0.83482 0.11959
 C463 C 0.32607 0.82243 0.11244
 C464 C 0.33853 0.81810 0.12012
 H465 H 0.31081 0.84095 0.11693
 H466 H 0.34532 0.80844 0.11796
 H467 H 0.33739 0.83585 0.15709
 H468 H 0.35032 0.84933 0.14813
 N469 N 0.82816 0.36869 0.16364
 N470 N 0.83747 0.36719 0.17469
 C471 C 0.83508 0.37811 0.18451
 C472 C 0.82370 0.38686 0.17930
 C473 C 0.81947 0.38062 0.16609
 H474 H 0.84085 0.37934 0.19486
 H475 H 0.81049 0.38421 0.15905
 Cu476 Cu 0.85113 0.35061 0.17590
 Cu477 Cu 0.82767 0.35458 0.14737
 Cu478 Cu 0.85508 0.32753 0.14711
 N479 N 0.86768 0.33695 0.17455
 N480 N 0.86923 0.32788 0.16332
 C481 C 0.88119 0.31919 0.16562
 C482 C 0.88737 0.32315 0.17893
 C483 C 0.87857 0.33438 0.18435
 H484 H 0.88484 0.31038 0.15840
 H485 H 0.87978 0.33995 0.19481
 N486 N 0.83969 0.32904 0.13176
 N487 N 0.82917 0.33928 0.13190
 C488 C 0.81996 0.33693 0.12045
 C489 C 0.82500 0.32472 0.11282
 C490 C 0.83745 0.31993 0.12022
 H491 H 0.81010 0.34334 0.11807
 H492 H 0.84408 0.31027 0.11763
 H493 H 0.83693 0.33639 0.15789
 H494 H 0.85007 0.34986 0.14921
 N495 N 0.82734 0.87136 0.66116
 N496 N 0.83750 0.87167 0.67155
 C497 C 0.83423 0.88273 0.68101
 C498 C 0.82151 0.88967 0.67607
 C499 C 0.81742 0.88227 0.66350
 H500 H 0.84020 0.88511 0.69106
 H501 H 0.80768 0.88439 0.65685
 Cu502 Cu 0.85284 0.85642 0.67247
 Cu503 Cu 0.82709 0.85631 0.64588
 Cu504 Cu 0.85412 0.82892 0.64751
 N505 N 0.86811 0.84111 0.67327
 N506 N 0.86834 0.83019 0.66365
 C507 C 0.87935 0.82069 0.66714
 C508 C 0.88622 0.82589 0.67965
 C509 C 0.87886 0.83880 0.68333
 H510 H 0.88198 0.81061 0.66121
 H511 H 0.88086 0.84564 0.69289
 N512 N 0.83879 0.82972 0.63197
 N513 N 0.82858 0.84025 0.63134
 C514 C 0.81947 0.83754 0.61992
 C515 C 0.82422 0.82480 0.61306
 C516 C 0.83640 0.82002 0.62093
 H517 H 0.80982 0.84407 0.61705
 H518 H 0.84275 0.81001 0.61900
 H519 H 0.83717 0.83974 0.65820
 H520 H 0.84948 0.85118 0.64629
 N521 N 0.67085 0.63193 0.66327
 N522 N 0.66093 0.63380 0.67370
 C523 C 0.66232 0.62279 0.68366
 C524 C 0.67366 0.61360 0.67914
 C525 C 0.67890 0.61967 0.66623
 H526 H 0.65580 0.62169 0.69358
 H527 H 0.68808 0.61566 0.65968
 Cu528 Cu 0.64748 0.65069 0.67376
 Cu529 Cu 0.67306 0.64591 0.64709
 Cu530 Cu 0.64745 0.67448 0.64501
 N531 N 0.63217 0.66572 0.67130
 N532 N 0.63217 0.67498 0.66010
 C533 C 0.62059 0.68437 0.66143
 C534 C 0.61301 0.68069 0.67408
 C535 C 0.62059 0.66887 0.68011
 H536 H 0.61803 0.69334 0.65392
 H537 H 0.61799 0.66318 0.69027
 N538 N 0.66377 0.67210 0.63078
 N539 N 0.67352 0.66117 0.63156
 C540 C 0.68353 0.66281 0.62068
 C541 C 0.67983 0.67530 0.61274
 C542 C 0.66732 0.68098 0.61937
 H543 H 0.69304 0.65571 0.61888
 H544 H 0.66151 0.69104 0.61632
 H545 H 0.66395 0.66433 0.65721
 H546 H 0.65083 0.65182 0.64719
 N547 N 0.67218 0.13124 0.16000
 N548 N 0.66226 0.13172 0.17060
 C549 C 0.66507 0.12067 0.18024
 C550 C 0.67733 0.11295 0.17530
 C551 C 0.68159 0.11990 0.16250
 H552 H 0.65893 0.11859 0.19024
 H553 H 0.69106 0.11715 0.15572
 Cu554 Cu 0.64709 0.14721 0.17096
 Cu555 Cu 0.67278 0.14581 0.14417
 Cu556 Cu 0.64566 0.17309 0.14433
 N557 N 0.63169 0.16245 0.17072
 N558 N 0.63122 0.17246 0.16017
 C559 C 0.62001 0.18198 0.16277
 C560 C 0.61312 0.17768 0.17558
 C561 C 0.62075 0.16531 0.18043
 H562 H 0.61734 0.19156 0.15609
 H563 H 0.61872 0.15915 0.19044
 N564 N 0.66121 0.17191 0.12920
 N565 N 0.67156 0.16152 0.12911
 C566 C 0.68100 0.16421 0.11794
 C567 C 0.67627 0.17681 0.11072
 C568 C 0.66379 0.18148 0.11809
 H569 H 0.69090 0.15786 0.11557
 H570 H 0.65745 0.19143 0.11587
 H571 H 0.66281 0.16293 0.15562
 H572 H 0.65039 0.15065 0.14457
 N573 N 0.17218 0.63304 0.15961
 N574 N 0.16249 0.63391 0.17039
 C575 C 0.16510 0.62280 0.18001
 C576 C 0.17698 0.61467 0.17489
 C577 C 0.18126 0.62142 0.16199
 H578 H 0.15901 0.62093 0.19010
 H579 H 0.19049 0.61831 0.15506
 Cu580 Cu 0.14771 0.64969 0.17119
 Cu581 Cu 0.17285 0.64741 0.14370
 Cu582 Cu 0.14534 0.67411 0.14307
 N583 N 0.13175 0.66425 0.16987
 N584 N 0.13077 0.67355 0.15875
 C585 C 0.11915 0.68269 0.16088
 C586 C 0.11253 0.67885 0.17396
 C587 C 0.12074 0.66717 0.17947
 H588 H 0.11610 0.69183 0.15377
 H589 H 0.11910 0.66158 0.18987
 N590 N 0.16105 0.67299 0.12817
 N591 N 0.17166 0.66288 0.12847
 C592 C 0.18126 0.66560 0.11744
 C593 C 0.17633 0.67792 0.10989
 C594 C 0.16359 0.68240 0.11693
 H595 H 0.19136 0.65946 0.11538
 H596 H 0.15704 0.69214 0.11441
 H597 H 0.16289 0.66480 0.15471
 H598 H 0.15041 0.65164 0.14465
 N599 N 0.17316 0.13323 0.65985
 N600 N 0.16326 0.13325 0.67048
 C601 C 0.16657 0.12232 0.68009
 C602 C 0.17914 0.11518 0.67512
 C603 C 0.18310 0.12234 0.66233
 H604 H 0.16051 0.11989 0.69006
 H605 H 0.19264 0.11999 0.65551
 Cu606 Cu 0.14735 0.14790 0.67093
 Cu607 Cu 0.17284 0.14764 0.64389
 Cu608 Cu 0.14410 0.17324 0.64399
 N609 N 0.13119 0.16231 0.67077
 N610 N 0.12995 0.17204 0.66005
 C611 C 0.11838 0.18107 0.66278
 C612 C 0.11206 0.17673 0.67585
 C613 C 0.12040 0.16485 0.68074
 H614 H 0.11516 0.19046 0.65607
 H615 H 0.11900 0.15888 0.69097
 N616 N 0.15949 0.17277 0.62868
 N617 N 0.17053 0.16311 0.62869
 C618 C 0.17974 0.16632 0.61745
 C619 C 0.17414 0.17847 0.61010
 C620 C 0.16138 0.18235 0.61746
 H621 H 0.19007 0.16066 0.61514
 H622 H 0.15441 0.19185 0.61517
 H623 H 0.16202 0.16426 0.65521
 H624 H 0.15028 0.15107 0.64447
 N625 N 0.32758 0.63089 0.33775
 N626 N 0.33612 0.63268 0.32617
 C627 C 0.33341 0.62170 0.31649
 C628 C 0.32266 0.61262 0.32242
 C629 C 0.31912 0.61872 0.33585
 H630 H 0.33850 0.62067 0.30577
 H631 H 0.31066 0.61491 0.34339
 Cu632 Cu 0.34923 0.64964 0.32429
 Cu633 Cu 0.32720 0.64515 0.35379
 Cu634 Cu 0.35357 0.67308 0.35285
 N635 N 0.36571 0.66345 0.32525
 N636 N 0.36738 0.67266 0.33635
 C637 C 0.37933 0.68130 0.33385
 C638 C 0.38538 0.67716 0.32053
 C639 C 0.37652 0.66587 0.31534
 H640 H 0.38312 0.69012 0.34099
 H641 H 0.37767 0.66008 0.30498
 N642 N 0.33856 0.67142 0.36855
 N643 N 0.32859 0.66068 0.36894
 C644 C 0.31962 0.66277 0.38059
 C645 C 0.32421 0.67537 0.38783
 C646 C 0.33617 0.68066 0.37997
 H647 H 0.31016 0.65593 0.38336
 H648 H 0.34238 0.69069 0.38218
 H649 H 0.33536 0.66358 0.34273
 H650 H 0.34935 0.65063 0.35096
 N651 N 0.32620 0.13140 0.83949
 N652 N 0.33594 0.13070 0.82874
 C653 C 0.33246 0.11922 0.81988
 C654 C 0.31995 0.11245 0.82547
 C655 C 0.31620 0.12041 0.83784
 H656 H 0.33827 0.11626 0.80991
 H657 H 0.30667 0.11862 0.84485
 Cu658 Cu 0.35176 0.14533 0.82702
 Cu659 Cu 0.32669 0.14698 0.85433
 Cu660 Cu 0.35496 0.17297 0.85159
 N661 N 0.36774 0.15984 0.82570
 N662 N 0.36890 0.17061 0.83541
 C663 C 0.38048 0.17932 0.83186
 C664 C 0.38690 0.17368 0.81931
 C665 C 0.37860 0.16136 0.81561
 H666 H 0.38380 0.18921 0.83775
 H667 H 0.38018 0.15427 0.80615
 N668 N 0.33982 0.17350 0.86719
 N669 N 0.32908 0.16358 0.86827
 C670 C 0.32034 0.16717 0.87975
 C671 C 0.32591 0.17986 0.88612
 C672 C 0.33819 0.18365 0.87795
 H673 H 0.31047 0.16121 0.88305
 H674 H 0.34519 0.19327 0.87956
 H675 H 0.33707 0.16276 0.84151
 H676 H 0.34922 0.15077 0.85315
 N677 N 0.82719 0.63128 0.83799
 N678 N 0.83756 0.63104 0.82785
 C679 C 0.83482 0.61984 0.81843
 C680 C 0.82201 0.61287 0.82289
 C681 C 0.81736 0.62033 0.83530
 H682 H 0.84132 0.61731 0.80879
 H683 H 0.80741 0.61819 0.84162
 Cu684 Cu 0.85310 0.64591 0.82750
 Cu685 Cu 0.82682 0.64631 0.85355
 Cu686 Cu 0.85495 0.67284 0.85278
 N687 N 0.86873 0.66070 0.82691
 N688 N 0.86939 0.67127 0.83684
 C689 C 0.88067 0.68050 0.83357
 C690 C 0.88740 0.67528 0.82100
 C691 C 0.87966 0.66274 0.81701
 H692 H 0.88350 0.69048 0.83957
 H693 H 0.88148 0.65598 0.80738
 N694 N 0.83930 0.67245 0.86796
 N695 N 0.82858 0.66243 0.86825
 C696 C 0.81955 0.66535 0.87971
 C697 C 0.82492 0.67771 0.88689
 C698 C 0.83738 0.68197 0.87923
 H699 H 0.80972 0.65910 0.88255
 H700 H 0.84436 0.69144 0.88159
 H701 H 0.83745 0.66281 0.84189
 H702 H 0.84919 0.65066 0.85376
 N703 N 0.82699 0.13185 0.33986
 N704 N 0.83699 0.13106 0.32933
 C705 C 0.83359 0.11963 0.32040
 C706 C 0.82073 0.11316 0.32552
 C707 C 0.81678 0.12113 0.33782
 H708 H 0.83964 0.11661 0.31058
 H709 H 0.80697 0.11956 0.34450
 Cu710 Cu 0.85325 0.14527 0.32837
 Cu711 Cu 0.82738 0.14725 0.35486
 Cu712 Cu 0.85621 0.17272 0.35319
 N713 N 0.86931 0.15970 0.32739
 N714 N 0.87045 0.17029 0.33731
 C715 C 0.88216 0.17895 0.33403
 C716 C 0.88873 0.17338 0.32154
 C717 C 0.88042 0.16116 0.31759
 H718 H 0.88538 0.18883 0.34001
 H719 H 0.88203 0.15423 0.30803
 N720 N 0.84069 0.17332 0.36842
 N721 N 0.82969 0.16363 0.36904
 C722 C 0.82066 0.16730 0.38027
 C723 C 0.82631 0.17979 0.38695
 C724 C 0.83894 0.18339 0.37923
 H725 H 0.81054 0.16156 0.38318
 H726 H 0.84607 0.19284 0.38115
 H727 H 0.83847 0.16305 0.34249
 H728 H 0.85002 0.15072 0.35440
 N729 N 0.67133 0.36708 0.33855
 N730 N 0.66155 0.36619 0.32784
 C731 C 0.66392 0.37736 0.31825
 C732 C 0.67576 0.38561 0.32328
 C733 C 0.68026 0.37882 0.33613
 H734 H 0.65772 0.37921 0.30823
 H735 H 0.68952 0.38201 0.34300
 Cu736 Cu 0.64695 0.35027 0.32695
 Cu737 Cu 0.67215 0.35258 0.35442
 Cu738 Cu 0.64456 0.32595 0.35515
 N739 N 0.63081 0.33597 0.32849
 N740 N 0.62983 0.32668 0.33962
 C741 C 0.61809 0.31768 0.33759
 C742 C 0.61139 0.32160 0.32455
 C743 C 0.61968 0.33317 0.31898
 H744 H 0.61500 0.30858 0.34473
 H745 H 0.61802 0.33877 0.30858
 N746 N 0.66044 0.32691 0.36992
 N747 N 0.67109 0.33697 0.36961
 C748 C 0.68069 0.33417 0.38065
 C749 C 0.67573 0.32185 0.38820
 C750 C 0.66296 0.31747 0.38115
 H751 H 0.69077 0.34032 0.38278
 H752 H 0.65631 0.30781 0.38372
 H753 H 0.66205 0.33513 0.34353
 H754 H 0.64961 0.34836 0.35353
 N755 N 0.67229 0.86744 0.84116
 N756 N 0.66223 0.86752 0.83065
 C757 C 0.66507 0.87890 0.82143
 C758 C 0.67754 0.88618 0.82646
 C759 C 0.68188 0.87867 0.83894
 H760 H 0.65877 0.88152 0.81164
 H761 H 0.69142 0.88109 0.84576
 Cu762 Cu 0.64681 0.85240 0.82988
 Cu763 Cu 0.67254 0.85251 0.85668
 Cu764 Cu 0.64463 0.82601 0.85595
 N765 N 0.63122 0.83742 0.82957
 N766 N 0.63040 0.82725 0.83995
 C767 C 0.61917 0.81791 0.83692
 C768 C 0.61261 0.82251 0.82404
 C769 C 0.62044 0.83488 0.81959
 H770 H 0.61627 0.80821 0.84334
 H771 H 0.61873 0.84120 0.80961
 N772 N 0.66008 0.82655 0.87124
 N773 N 0.67083 0.83653 0.87143
 C774 C 0.68011 0.83340 0.88264
 C775 C 0.67487 0.82095 0.88975
 C776 C 0.66224 0.81684 0.88231
 H777 H 0.69020 0.83938 0.88515
 H778 H 0.65548 0.80716 0.88447
 H779 H 0.66211 0.83589 0.84491
 H780 H 0.65010 0.84830 0.85622
 N781 N 0.17299 0.36765 0.83959
 N782 N 0.16302 0.36751 0.82901
 C783 C 0.16588 0.37874 0.81961
 C784 C 0.17822 0.38621 0.82465
 C785 C 0.18251 0.37894 0.83728
 H786 H 0.15963 0.38118 0.80974
 H787 H 0.19198 0.38152 0.84412
 Cu788 Cu 0.14756 0.35239 0.82843
 Cu789 Cu 0.17326 0.35294 0.85531
 Cu790 Cu 0.14538 0.32648 0.85495
 N791 N 0.13184 0.33752 0.82849
 N792 N 0.13102 0.32755 0.83905
 C793 C 0.11961 0.31832 0.83634
 C794 C 0.11294 0.32277 0.82346
 C795 C 0.12092 0.33492 0.81866
 H796 H 0.11667 0.30878 0.84297
 H797 H 0.11915 0.34110 0.80861
 N798 N 0.16090 0.32712 0.87013
 N799 N 0.17161 0.33713 0.87025
 C800 C 0.18092 0.33409 0.88147
 C801 C 0.17572 0.32166 0.88866
 C802 C 0.16309 0.31748 0.88125
 H803 H 0.19097 0.34015 0.88395
 H804 H 0.15633 0.30782 0.88350
 H805 H 0.16283 0.33619 0.84376
 H806 H 0.15077 0.34880 0.85481
 N807 N 0.17020 0.86868 0.33795
 N808 N 0.16032 0.86709 0.32742
 C809 C 0.16225 0.87795 0.31739
 C810 C 0.17390 0.88671 0.32197
 C811 C 0.17874 0.88057 0.33499
 H812 H 0.15592 0.87921 0.30736
 H813 H 0.18804 0.88423 0.34156
 Cu814 Cu 0.14616 0.85076 0.32748
 Cu815 Cu 0.17196 0.85468 0.35414
 Cu816 Cu 0.14608 0.82637 0.35572
 N817 N 0.13114 0.83533 0.32928
 N818 N 0.13106 0.82595 0.34037
 C819 C 0.11979 0.81629 0.33864
 C820 C 0.11244 0.81989 0.32583
 C821 C 0.11988 0.83196 0.32011
 H822 H 0.11734 0.80711 0.34592
 H823 H 0.11745 0.83762 0.30989
 N824 N 0.16212 0.82861 0.37025
 N825 N 0.17199 0.83943 0.36967
 C826 C 0.18199 0.83748 0.38053
 C827 C 0.17815 0.82488 0.38824
 C828 C 0.16559 0.81947 0.38149
 H829 H 0.19167 0.84432 0.38234
 H830 H 0.15980 0.80932 0.38421
 H831 H 0.16263 0.83660 0.34361
 H832 H 0.14971 0.84902 0.35399
 C833 C 0.24754 1.03899 0.24866
 C834 C 0.25505 1.03127 0.23766
 C835 C 0.25473 1.01573 0.23738
 C836 C 0.24751 1.00762 0.24863
 C837 C 0.24034 1.01572 0.25992
 C838 C 0.24004 1.03127 0.25968
 C839 C 0.24742 0.99091 0.24855
 C840 C 0.23647 0.98284 0.25634
 C841 C 0.23669 0.96729 0.25662
 C842 C 0.24729 0.95954 0.24855
 C843 C 0.25798 0.96722 0.24049
 C844 C 0.25831 0.98276 0.24075
 H845 H 0.24749 1.05105 0.24862
 H846 H 0.26006 1.01017 0.22827
 H847 H 0.23498 1.01015 0.26900
 H848 H 0.22768 0.98843 0.26223
 H849 H 0.24730 0.94748 0.24862
 H850 H 0.26720 0.98829 0.23495
 C851 C 0.24790 0.53952 0.74846
 C852 C 0.25831 0.53178 0.74012
 C853 C 0.25886 0.51623 0.74076
 C854 C 0.24843 0.50814 0.74923
 C855 C 0.23774 0.51630 0.75730
 C856 C 0.23777 0.53185 0.75718
 C857 C 0.24861 0.49140 0.74960
 C858 C 0.24158 0.48344 0.76110
 C859 C 0.24120 0.46788 0.76106
 C860 C 0.24850 0.46000 0.75004
 C861 C 0.25587 0.46754 0.73883
 C862 C 0.25565 0.48309 0.73836
 H863 H 0.24768 0.55157 0.74815
 H864 H 0.26752 0.51069 0.73465
 H865 H 0.22925 0.51080 0.76366
 H866 H 0.23634 0.48909 0.77019
 H867 H 0.24834 0.44795 0.75014
 H868 H 0.26084 0.48847 0.72907
 C869 C 0.74877 -0.03962 0.25215
 C870 C 0.75937 -0.03172 0.26011
 C871 C 0.75943 -0.01615 0.25973
 C872 C 0.74835 -0.00823 0.25190
 C873 C 0.73750 -0.01655 0.24422
 C874 C 0.73798 -0.03210 0.24406
 C875 C 0.74814 0.00851 0.25170
 C876 C 0.74065 0.01642 0.24043
 C877 C 0.74013 0.03197 0.24051
 C878 C 0.74766 0.03989 0.25134
 C879 C 0.75547 0.03241 0.26231
 C880 C 0.75543 0.01686 0.26276
 H881 H 0.74898 -0.05168 0.25217
 H882 H 0.76824 -0.01044 0.26545
 H883 H 0.72859 -0.01116 0.23832
 H884 H 0.73528 0.01071 0.23144
 H885 H 0.74750 0.05195 0.25119
 H886 H 0.76104 0.01149 0.27182
 C887 C 0.74797 0.46048 0.75055
 C888 C 0.75597 0.46823 0.76118
 C889 C 0.75566 0.48378 0.76142
 C890 C 0.74791 0.49186 0.75047
 C891 C 0.74022 0.48371 0.73954
 C892 C 0.73993 0.46816 0.73988
 C893 C 0.74771 0.50857 0.75052
 C894 C 0.73641 0.51659 0.74314
 C895 C 0.73647 0.53214 0.74293
 C896 C 0.74729 0.53995 0.75068
 C897 C 0.75830 0.53231 0.75835
 C898 C 0.75878 0.51677 0.75799
 H899 H 0.74789 0.44843 0.75066
 H900 H 0.76136 0.48935 0.77030
 H901 H 0.73439 0.48922 0.73070
 H902 H 0.72745 0.51097 0.73756
 H903 H 0.74715 0.55200 0.75071
 H904 H 0.76790 0.51131 0.76350
 C905 C 0.24760 0.46119 0.25024
 C906 C 0.25833 0.46899 0.25810
 C907 C 0.25851 0.48453 0.25776
 C908 C 0.24739 0.49260 0.25014
 C909 C 0.23639 0.48439 0.24254
 C910 C 0.23678 0.46884 0.24230
 C911 C 0.24736 0.50934 0.25003
 C912 C 0.23950 0.51743 0.23914
 C913 C 0.23937 0.53299 0.23925
 C914 C 0.24764 0.54074 0.24967
 C915 C 0.25576 0.53304 0.26026
 C916 C 0.25532 0.51751 0.26074
 H917 H 0.24773 0.44914 0.25020
 H918 H 0.26749 0.49009 0.26337
 H919 H 0.22745 0.48983 0.23675
 H920 H 0.23355 0.51189 0.23042
 H921 H 0.24785 0.55279 0.24948
 H922 H 0.26126 0.51206 0.26953
 C923 C 0.74758 1.03971 0.75105
 C924 C 0.75826 1.03193 0.74309
 C925 C 0.75868 1.01640 0.74366
 C926 C 0.74787 1.00834 0.75167
 C927 C 0.73692 1.01651 0.75937
 C928 C 0.73706 1.03206 0.75933
 C929 C 0.74799 0.99163 0.75197
 C930 C 0.74072 0.98364 0.76329
 C931 C 0.74049 0.96808 0.76323
 C932 C 0.74812 0.96026 0.75240
 C933 C 0.75568 0.96787 0.74136
 C934 C 0.75531 0.98340 0.74088
 H935 H 0.74747 1.05177 0.75082
 H936 H 0.76754 1.01083 0.73788
 H937 H 0.72817 1.01101 0.76538
 H938 H 0.73520 0.98927 0.77223
 H939 H 0.74813 0.94820 0.75252
 H940 H 0.76067 0.98884 0.73172
 C941 C 0.74883 0.53952 0.25068
 C942 C 0.75657 0.53170 0.23991
 C943 C 0.75632 0.51616 0.23982
 C944 C 0.74895 0.50814 0.25106
 C945 C 0.74150 0.51637 0.26210
 C946 C 0.74114 0.53192 0.26163
 C947 C 0.74897 0.49141 0.25122
 C948 C 0.73807 0.48332 0.25909
 C949 C 0.73839 0.46776 0.25950
 C950 C 0.74906 0.46003 0.25148
 C951 C 0.75970 0.46772 0.24337
 C952 C 0.75993 0.48326 0.24351
 H953 H 0.74872 0.55158 0.25047
 H954 H 0.76180 0.51054 0.23084
 H955 H 0.73597 0.51091 0.27115
 H956 H 0.72923 0.48888 0.26491
 H957 H 0.74915 0.44797 0.25163
 H958 H 0.76881 0.48877 0.23769
 C959 C 0.24830 -0.03945 0.74817
 C960 C 0.25883 -0.03204 0.75665
 C961 C 0.25916 -0.01650 0.75686
 C962 C 0.24841 -0.00810 0.74910
 C963 C 0.23761 -0.01592 0.74084
 C964 C 0.23784 -0.03146 0.74012
 C965 C 0.24850 0.00860 0.74962
 C966 C 0.24153 0.01711 0.73846
 C967 C 0.24135 0.03264 0.73918
 C968 C 0.24872 0.03995 0.75053
 C969 C 0.25599 0.03187 0.76143
 C970 C 0.25559 0.01632 0.76125
 H971 H 0.24827 -0.05151 0.74782
 H972 H 0.26792 -0.01117 0.76302
 H973 H 0.22892 -0.01014 0.73497
 H974 H 0.23630 0.01188 0.72911
 H975 H 0.24880 0.05200 0.75087
 H976 H 0.26075 0.01045 0.77028
 C977 C 0.25151 0.24904 1.03933
 C978 C 0.24331 0.25970 1.03175
 C979 C 0.24360 0.26009 1.01637
 C980 C 0.25158 0.24925 1.00830
 C981 C 0.25953 0.23831 1.01628
 C982 C 0.25977 0.23851 1.03167
 C983 C 0.25166 0.24943 0.99177
 C984 C 0.26312 0.24234 0.98373
 C985 C 0.26296 0.24232 0.96834
 C986 C 0.25189 0.24993 0.96074
 C987 C 0.24069 0.25726 0.96838
 C988 C 0.24031 0.25673 0.98376
 H989 H 0.25151 0.24898 1.05126
 H990 H 0.23769 0.26897 1.01092
 H991 H 0.26553 0.22955 1.01076
 H992 H 0.27227 0.23691 0.98921
 H993 H 0.25199 0.25013 0.94881
 H994 H 0.23106 0.26197 0.98925
 C995 C 0.25149 0.75105 0.53880
 C996 C 0.24048 0.75848 0.53095
 C997 C 0.24026 0.75782 0.51557
 C998 C 0.25158 0.75026 0.50778
 C999 C 0.26287 0.74312 0.51604
 C1000 C 0.26255 0.74325 0.53143
 C1001 C 0.25163 0.74983 0.49124
 C1002 C 0.25939 0.73858 0.48354
 C1003 C 0.25979 0.73847 0.46815
 C1004 C 0.25185 0.74906 0.46020
 C1005 C 0.24381 0.76004 0.46750
 C1006 C 0.24396 0.76068 0.48288
 H1007 H 0.25145 0.75136 0.55073
 H1008 H 0.23116 0.76316 0.50989
 H1009 H 0.27202 0.73754 0.51072
 H1010 H 0.26514 0.72979 0.48931
 H1011 H 0.25198 0.74880 0.44827
 H1012 H 0.23817 0.76976 0.48812
 C1013 C 0.25156 0.75163 -0.04028
 C1014 C 0.25909 0.76279 -0.03273
 C1015 C 0.25837 0.76345 -0.01735
 C1016 C 0.25075 0.75239 -0.00924
 C1017 C 0.24349 0.74097 -0.01719
 C1018 C 0.24362 0.74085 -0.03259
 C1019 C 0.25057 0.75261 0.00732
 C1020 C 0.23956 0.74481 0.01532
 C1021 C 0.23987 0.74443 0.03071
 C1022 C 0.25064 0.75237 0.03838
 C1023 C 0.26134 0.76050 0.03080
 C1024 C 0.26155 0.76039 0.01540
 H1025 H 0.25198 0.75126 -0.05220
 H1026 H 0.26382 0.77262 -0.01193
 H1027 H 0.23787 0.73199 -0.01163
 H1028 H 0.23068 0.73898 0.00982
 H1029 H 0.25076 0.75213 0.05031
 H1030 H 0.27045 0.76623 0.00995
 C1031 C 0.25068 0.25201 0.46125
 C1032 C 0.25854 0.26292 0.46884
 C1033 C 0.25827 0.26322 0.48424
 C1034 C 0.25063 0.25211 0.49226
 C1035 C 0.24306 0.24095 0.48428
 C1036 C 0.24285 0.24115 0.46891
 C1037 C 0.25070 0.25197 0.50876
 C1038 C 0.23923 0.24487 0.51673
 C1039 C 0.23968 0.24417 0.53210
 C1040 C 0.25111 0.25114 0.53977
 C1041 C 0.26232 0.25855 0.53218
 C1042 C 0.26234 0.25873 0.51678
 H1043 H 0.25078 0.25189 0.44932
 H1044 H 0.26403 0.27214 0.48979
 H1045 H 0.23745 0.23194 0.48984
 H1046 H 0.22987 0.23987 0.51117
 H1047 H 0.25130 0.25076 0.55170
 H1048 H 0.27154 0.26402 0.51124
 C1049 C 0.75232 0.75072 1.03970
 C1050 C 0.74453 0.76152 1.03189
 C1051 C 0.74491 0.76163 1.01649
 C1052 C 0.75259 0.75039 1.00866
 C1053 C 0.76011 0.73934 1.01689
 C1054 C 0.76022 0.73975 1.03227
 C1055 C 0.75263 0.75008 0.99212
 C1056 C 0.76384 0.74242 0.98425
 C1057 C 0.76350 0.74171 0.96886
 C1058 C 0.75248 0.74921 0.96108
 C1059 C 0.74154 0.75713 0.96855
 C1060 C 0.74136 0.75730 0.98394
 H1061 H 0.75217 0.75079 1.05164
 H1062 H 0.73923 0.77053 1.01083
 H1063 H 0.76576 0.73024 1.01155
 H1064 H 0.77290 0.73699 0.98988
 H1065 H 0.75237 0.74883 0.94915
 H1066 H 0.73230 0.76295 0.98933
 C1067 C 0.75173 0.24992 0.53939
 C1068 C 0.74403 0.26090 0.53175
 C1069 C 0.74426 0.26117 0.51638
 C1070 C 0.75168 0.24994 0.50836
 C1071 C 0.75920 0.23870 0.51637
 C1072 C 0.75946 0.23894 0.53178
 C1073 C 0.75161 0.25002 0.49184
 C1074 C 0.76292 0.24278 0.48377
 C1075 C 0.76268 0.24276 0.46838
 C1076 C 0.75165 0.25047 0.46083
 C1077 C 0.74056 0.25793 0.46851
 C1078 C 0.74028 0.25744 0.48390
 H1079 H 0.75172 0.24991 0.55132
 H1080 H 0.73871 0.27025 0.51086
 H1081 H 0.76477 0.22966 0.51083
 H1082 H 0.77202 0.23724 0.48925
 H1083 H 0.75168 0.25066 0.44889
 H1084 H 0.73114 0.26279 0.48947
 C1085 C 0.75169 0.25020 -0.03880
 C1086 C 0.75959 0.26117 -0.03143
 C1087 C 0.75899 0.26207 -0.01608
 C1088 C 0.75105 0.25137 -0.00776
 C1089 C 0.74339 0.24009 -0.01557
 C1090 C 0.74345 0.23980 -0.03097
 C1091 C 0.75091 0.25187 0.00883
 C1092 C 0.74018 0.24389 0.01704
 C1093 C 0.74046 0.24392 0.03243
 C1094 C 0.75085 0.25251 0.03993
 C1095 C 0.76126 0.26082 0.03215
 C1096 C 0.76157 0.26025 0.01676
 H1097 H 0.75203 0.24969 -0.05073
 H1098 H 0.76476 0.27117 -0.01090
 H1099 H 0.73746 0.23134 -0.00997
 H1100 H 0.73151 0.23760 0.01174
 H1101 H 0.75087 0.25269 0.05186
 H1102 H 0.77028 0.26629 0.01125
 C1103 C 0.74931 0.75266 0.46168
 C1104 C 0.76027 0.76043 0.46924
 C1105 C 0.76068 0.76008 0.48463
 C1106 C 0.74963 0.75240 0.49270
 C1107 C 0.73837 0.74495 0.48474
 C1108 C 0.73852 0.74478 0.46936
 C1109 C 0.74999 0.75194 0.50923
 C1110 C 0.74277 0.74043 0.51709
 C1111 C 0.74306 0.74009 0.53247
 C1112 C 0.75107 0.75075 0.54022
 C1113 C 0.75853 0.76201 0.53275
 C1114 C 0.75773 0.76286 0.51739
 H1115 H 0.74928 0.75263 0.44974
 H1116 H 0.76976 0.76565 0.49007
 H1117 H 0.72945 0.73922 0.49028
 H1118 H 0.73706 0.73154 0.51146
 H1119 H 0.75160 0.75021 0.55214
 H1120 H 0.76319 0.77206 0.51202
 C1121 C 1.04077 0.24935 0.24924
 C1122 C 1.03324 0.24119 0.25992
 C1123 C 1.01771 0.24082 0.25995
 C1124 C 1.00945 0.24804 0.24878
 C1125 C 1.01740 0.25588 0.23781
 C1126 C 1.03289 0.25683 0.23831
 C1127 C 0.99276 0.24756 0.24865
 C1128 C 0.98442 0.25852 0.24112
 C1129 C 0.96890 0.25798 0.24092
 C1130 C 0.96143 0.24699 0.24876
 C1131 C 0.96937 0.23628 0.25656
 C1132 C 0.98490 0.23628 0.25623
 H1133 H 1.05279 0.24989 0.24944
 H1134 H 1.01227 0.23498 0.26883
 H1135 H 1.01174 0.26128 0.22879
 H1136 H 0.98976 0.26768 0.23555
 H1137 H 0.94939 0.24687 0.24892
 H1138 H 0.99064 0.22746 0.26194
 C1139 C 0.54010 0.24850 0.74890
 C1140 C 0.53232 0.24082 0.75973
 C1141 C 0.51679 0.24093 0.75975
 C1142 C 0.50882 0.24832 0.74849
 C1143 C 0.51699 0.25579 0.73743
 C1144 C 0.53252 0.25611 0.73787
 C1145 C 0.49216 0.24840 0.74843
 C1146 C 0.48420 0.26003 0.74153
 C1147 C 0.46867 0.26006 0.74145
 C1148 C 0.46086 0.24888 0.74873
 C1149 C 0.46846 0.23746 0.75587
 C1150 C 0.48399 0.23700 0.75546
 H1151 H 0.55215 0.24862 0.74912
 H1152 H 0.51111 0.23542 0.76869
 H1153 H 0.51145 0.26136 0.72842
 H1154 H 0.48990 0.26922 0.73637
 H1155 H 0.44883 0.24917 0.74897
 H1156 H 0.48953 0.22773 0.76069
 C1157 C -0.04005 0.25117 0.74913
 C1158 C -0.03229 0.26204 0.75684
 C1159 C -0.01675 0.26199 0.75686
 C1160 C -0.00874 0.25053 0.74970
 C1161 C -0.01694 0.23939 0.74229
 C1162 C -0.03245 0.23998 0.74173
 C1163 C 0.00796 0.25020 0.74994
 C1164 C 0.01607 0.24220 0.73919
 C1165 C 0.03159 0.24166 0.73967
 C1166 C 0.03929 0.24963 0.75034
 C1167 C 0.03161 0.25790 0.76080
 C1168 C 0.01607 0.25791 0.76089
 H1169 H -0.05209 0.25142 0.74890
 H1170 H -0.01113 0.27099 0.76239
 H1171 H -0.01149 0.23014 0.73698
 H1172 H 0.01054 0.23647 0.73031
 H1173 H 0.05133 0.24944 0.75048
 H1174 H 0.01053 0.26388 0.76960
 C1175 C 0.45953 0.24805 0.24964
 C1176 C 0.46704 0.25913 0.25734
 C1177 C 0.48256 0.25964 0.25710
 C1178 C 0.49087 0.24855 0.24973
 C1179 C 0.48297 0.23721 0.24231
 C1180 C 0.46744 0.23723 0.24199
 C1181 C 0.50755 0.24884 0.24974
 C1182 C 0.51583 0.24140 0.23873
 C1183 C 0.53137 0.24147 0.23901
 C1184 C 0.53887 0.24952 0.24976
 C1185 C 0.53099 0.25720 0.26051
 C1186 C 0.51548 0.25659 0.26078
 H1187 H 0.44749 0.24790 0.24955
 H1188 H 0.48796 0.26881 0.26259
 H1189 H 0.48869 0.22827 0.23677
 H1190 H 0.51041 0.23560 0.22982
 H1191 H 0.55091 0.24978 0.24978
 H1192 H 0.50981 0.26210 0.26971
 C1193 C 1.03971 0.75139 0.75088
 C1194 C 1.03205 0.74378 0.76185
 C1195 C 1.01651 0.74383 0.76196
 C1196 C 1.00843 0.75099 0.75061
 C1197 C 1.01649 0.75832 0.73941
 C1198 C 1.03199 0.75877 0.73979
 C1199 C 0.99179 0.75077 0.75040
 C1200 C 0.98360 0.76195 0.74298
 C1201 C 0.96808 0.76144 0.74254
 C1202 C 0.96051 0.75024 0.74999
 C1203 C 0.96832 0.73933 0.75764
 C1204 C 0.98384 0.73934 0.75759
 H1205 H 1.05175 0.75156 0.75096
 H1206 H 1.01091 0.73837 0.77098
 H1207 H 1.01089 0.76362 0.73028
 H1208 H 0.98911 0.77113 0.73761
 H1209 H 0.94847 0.75001 0.74985
 H1210 H 0.98952 0.73032 0.76309
 C1211 C 0.54044 0.74860 0.25005
 C1212 C 0.53258 0.74097 0.26088
 C1213 C 0.51709 0.74185 0.26137
 C1214 C 0.50914 0.74979 0.25048
 C1215 C 0.51735 0.75713 0.23936
 C1216 C 0.53289 0.75682 0.23942
 C1217 C 0.49247 0.75035 0.25067
 C1218 C 0.48470 0.76191 0.24344
 C1219 C 0.46918 0.76213 0.24326
 C1220 C 0.46118 0.75135 0.25086
 C1221 C 0.46856 0.74007 0.25839
 C1222 C 0.48407 0.73932 0.25804
 H1223 H 0.55246 0.74807 0.24985
 H1224 H 0.51144 0.73632 0.27031
 H1225 H 0.51188 0.76300 0.23052
 H1226 H 0.49050 0.77085 0.23797
 H1227 H 0.44914 0.75172 0.25088
 H1228 H 0.48937 0.73001 0.26342
 C1229 C -0.03990 0.75022 0.24887
 C1230 C -0.03218 0.76088 0.25692
 C1231 C -0.01666 0.76106 0.25678
 C1232 C -0.00857 0.75002 0.24914
 C1233 C -0.01666 0.73909 0.24133
 C1234 C -0.03219 0.73945 0.24094
 C1235 C 0.00812 0.74987 0.24938
 C1236 C 0.01630 0.74267 0.23817
 C1237 C 0.03182 0.74226 0.23865
 C1238 C 0.03943 0.74958 0.24983
 C1239 C 0.03165 0.75706 0.26080
 C1240 C 0.01612 0.75693 0.26083
 H1241 H -0.05194 0.75025 0.24883
 H1242 H -0.01108 0.76987 0.26265
 H1243 H -0.01109 0.73017 0.23562
 H1244 H 0.01082 0.73744 0.22897
 H1245 H 0.05147 0.74947 0.24999
 H1246 H 0.01048 0.76226 0.26989
 C1247 C 0.46030 0.74846 0.75145
 C1248 C 0.46786 0.75978 0.75875
 C1249 C 0.48335 0.76067 0.75786
 C1250 C 0.49158 0.74975 0.75017
 C1251 C 0.48366 0.73816 0.74319
 C1252 C 0.46815 0.73778 0.74354
 C1253 C 0.50822 0.75048 0.74934
 C1254 C 0.51605 0.74335 0.73785
 C1255 C 0.53157 0.74363 0.73739
 C1256 C 0.53949 0.75163 0.74790
 C1257 C 0.53201 0.75907 0.75911
 C1258 C 0.51653 0.75823 0.76008
 H1259 H 0.44828 0.74803 0.75183
 H1260 H 0.48879 0.76999 0.76306
 H1261 H 0.48937 0.72934 0.73746
 H1262 H 0.51028 0.73755 0.72916
 H1263 H 0.55151 0.75199 0.74741
 H1264 H 0.51117 0.76351 0.76933
 C1265 C 0.44032 0.28734 0.28059
 C1266 C 0.42739 0.29268 0.27348
 C1267 C 0.41639 0.30036 0.28169
 C1268 C 0.41843 0.30274 0.29696
 C1269 C 0.43158 0.29783 0.30396
 C1270 C 0.44257 0.29011 0.29574
 C1271 C 0.45556 0.28519 0.30300
 C1272 C 0.45763 0.28777 0.31798
 C1273 C 0.44688 0.29529 0.32601
 C1274 C 0.43399 0.30030 0.31914
 C1275 C 0.40345 0.30537 0.27438
 C1276 C 0.40143 0.30287 0.25939
 C1277 C 0.41222 0.29540 0.25136
 C1278 C 0.42507 0.29035 0.25826
 C1279 C 0.40682 0.30992 0.30545
 C1280 C 0.39693 0.31579 0.31223
 C1281 C 0.45065 0.27803 0.27251
 C1282 C 0.45854 0.26975 0.26564
 H1283 H 0.46426 0.27936 0.29718
 H1284 H 0.46762 0.28391 0.32337
 H1285 H 0.44853 0.29725 0.33764
 H1286 H 0.42595 0.30612 0.32584
 H1287 H 0.39475 0.31125 0.28015
 H1288 H 0.39146 0.30675 0.25398
 H1289 H 0.41062 0.29351 0.23971
 H1290 H 0.43316 0.28466 0.25152
 C1291 C 0.44139 0.78810 0.78214
 C1292 C 0.44373 0.79100 0.79726
 C1293 C 0.43287 0.79894 0.80544
 C1294 C 0.41974 0.80392 0.79845
 C1295 C 0.41760 0.80140 0.78322
 C1296 C 0.42848 0.79351 0.77504
 C1297 C 0.42607 0.79106 0.75985
 C1298 C 0.41325 0.79620 0.75295
 C1299 C 0.40258 0.80384 0.76095
 C1300 C 0.40468 0.80646 0.77591
 C1301 C 0.43538 0.80158 0.82057
 C1302 C 0.44826 0.79652 0.82743
 C1303 C 0.45888 0.78877 0.81943
 C1304 C 0.45669 0.78601 0.80451
 C1305 C 0.40822 0.81129 0.80691
 C1306 C 0.39835 0.81729 0.81360
 C1307 C 0.45163 0.77870 0.77407
 C1308 C 0.45945 0.77038 0.76716
 H1309 H 0.43406 0.78520 0.75313
 H1310 H 0.41159 0.79422 0.74132
 H1311 H 0.39262 0.80778 0.75555
 H1312 H 0.39606 0.81249 0.78165
 H1313 H 0.42745 0.80757 0.82724
 H1314 H 0.45001 0.79863 0.83902
 H1315 H 0.46887 0.78488 0.82482
 H1316 H 0.46528 0.77997 0.79873
 C1317 C -0.05952 0.29023 0.77940
 C1318 C -0.07446 0.29036 0.77455
 C1319 C -0.08541 0.29810 0.78277
 C1320 C -0.08136 0.30572 0.79578
 C1321 C -0.06635 0.30593 0.80042
 C1322 C -0.05540 0.29814 0.79221
 C1323 C -0.04052 0.29834 0.79715
 C1324 C -0.03655 0.30604 0.80984
 C1325 C -0.04724 0.31368 0.81785
 C1326 C -0.06199 0.31367 0.81324
 C1327 C -0.10029 0.29789 0.77779
 C1328 C -0.10426 0.29024 0.76506
 C1329 C -0.09355 0.28270 0.75701
 C1330 C -0.07882 0.28273 0.76163
 C1331 C -0.09275 0.31298 0.80451
 C1332 C -0.10255 0.31874 0.81151
 C1333 C -0.04874 0.28117 0.77164
 C1334 C -0.04065 0.27289 0.76498
 H1335 H -0.03183 0.29259 0.79125
 H1336 H -0.02511 0.30608 0.81348
 H1337 H -0.04409 0.31964 0.82770
 H1338 H -0.06991 0.31979 0.81981
 H1339 H -0.10903 0.30361 0.78365
 H1340 H -0.11570 0.29018 0.76143
 H1341 H -0.09668 0.27679 0.74712
 H1342 H -0.07091 0.27672 0.75495
 C1343 C -0.05763 0.78765 0.28300
 C1344 C -0.06144 0.80240 0.27911
 C1345 C -0.07213 0.81028 0.28754
 C1346 C -0.07894 0.80334 0.29977
 C1347 C -0.07470 0.78881 0.30400
 C1348 C -0.06400 0.78095 0.29559
 C1349 C -0.06006 0.76635 0.29993
 C1350 C -0.06651 0.75973 0.31221
 C1351 C -0.07697 0.76743 0.32044
 C1352 C -0.08106 0.78181 0.31644
 C1353 C -0.07588 0.82496 0.28337
 C1354 C -0.06926 0.83166 0.27121
 C1355 C -0.05882 0.82394 0.26295
 C1356 C -0.05492 0.80946 0.26681
 C1357 C -0.09086 0.81080 0.30755
 C1358 C -0.10104 0.81668 0.31384
 C1359 C -0.04792 0.77898 0.27360
 C1360 C -0.04041 0.77112 0.26589
 H1361 H -0.05194 0.75992 0.29392
 H1362 H -0.06337 0.74856 0.31536
 H1363 H -0.08195 0.76223 0.32997
 H1364 H -0.08922 0.78736 0.32321
 H1365 H -0.08391 0.83142 0.28948
 H1366 H -0.07224 0.84290 0.26817
 H1367 H -0.05372 0.82919 0.25351
 H1368 H -0.04672 0.80390 0.26008
 C1369 C 0.55759 0.71422 0.28747
 C1370 C 0.55992 0.71712 0.30258
 C1371 C 0.57052 0.70867 0.31059
 C1372 C 0.57869 0.69735 0.30343
 C1373 C 0.57591 0.69404 0.28847
 C1374 C 0.56530 0.70248 0.28047
 C1375 C 0.56277 0.69903 0.26549
 C1376 C 0.57051 0.68758 0.25861
 C1377 C 0.58092 0.67936 0.26642
 C1378 C 0.58364 0.68250 0.28118
 C1379 C 0.57280 0.71190 0.32565
 C1380 C 0.56477 0.72311 0.33261
 C1381 C 0.55437 0.73134 0.32477
 C1382 C 0.55195 0.72845 0.30991
 C1383 C 0.59040 0.68955 0.31122
 C1384 C 0.60040 0.68331 0.31749
 C1385 C 0.54800 0.72380 0.27883
 C1386 C 0.54062 0.73171 0.27103
 H1387 H 0.55475 0.70507 0.25895
 H1388 H 0.56842 0.68508 0.24715
 H1389 H 0.58693 0.67049 0.26101
 H1390 H 0.59181 0.67576 0.28680
 H1391 H 0.58074 0.70578 0.33221
 H1392 H 0.56662 0.72542 0.34414
 H1393 H 0.54814 0.74001 0.33023
 H1394 H 0.54372 0.73511 0.30427
 C1395 C 0.55909 0.21896 0.78882
 C1396 C 0.55538 0.20526 0.79551
 C1397 C 0.56620 0.19743 0.80384
 C1398 C 0.58069 0.20331 0.80535
 C1399 C 0.58428 0.21721 0.79899
 C1400 C 0.57344 0.22508 0.79073
 C1401 C 0.57732 0.23893 0.78442
 C1402 C 0.59151 0.24480 0.78617
 C1403 C 0.60212 0.23709 0.79423
 C1404 C 0.59861 0.22345 0.80059
 C1405 C 0.56226 0.18374 0.81042
 C1406 C 0.54804 0.17792 0.80876
 C1407 C 0.53747 0.18554 0.80054
 C1408 C 0.54103 0.19908 0.79398
 C1409 C 0.59205 0.19490 0.81304
 C1410 C 0.60171 0.18802 0.81919
 C1411 C 0.54857 0.22642 0.77924
 C1412 C 0.54063 0.23285 0.77069
 H1413 H 0.56944 0.24541 0.77812
 H1414 H 0.59430 0.25538 0.78124
 H1415 H 0.61313 0.24170 0.79558
 H1416 H 0.60723 0.21789 0.80679
 H1417 H 0.57010 0.17744 0.81694
 H1418 H 0.54520 0.16743 0.81388
 H1419 H 0.52646 0.18094 0.79925
 H1420 H 0.53243 0.20466 0.78776
 C1421 C 1.05966 0.72143 0.78979
 C1422 C 1.07480 0.72548 0.78861
 C1423 C 1.08578 0.71734 0.79643
 C1424 C 1.08157 0.70523 0.80545
 C1425 C 1.06639 0.70142 0.80693
 C1426 C 1.05541 0.70952 0.79903
 C1427 C 1.04035 0.70539 0.80051
 C1428 C 1.03622 0.69360 0.80958
 C1429 C 1.04695 0.68572 0.81734
 C1430 C 1.06188 0.68954 0.81608
 C1431 C 1.10085 0.72150 0.79491
 C1432 C 1.10496 0.73336 0.78594
 C1433 C 1.09423 0.74134 0.77832
 C1434 C 1.07931 0.73751 0.77960
 C1435 C 1.09294 0.69653 0.81286
 C1436 C 1.10270 0.68949 0.81870
 C1437 C 1.04872 0.72911 0.78083
 C1438 C 1.04052 0.73570 0.77263
 H1439 H 1.03162 0.71123 0.79471
 H1440 H 1.02465 0.69058 0.81059
 H1441 H 1.04368 0.67659 0.82438
 H1442 H 1.06982 0.68311 0.82234
 H1443 H 1.10962 0.71566 0.80063
 H1444 H 1.11654 0.73637 0.78490
 H1445 H 1.09746 0.75056 0.77138
 H1446 H 1.07140 0.74410 0.77347
 C1447 C 1.05958 0.21775 0.28836
 C1448 C 1.06015 0.20207 0.28745
 C1449 C 1.07122 0.19408 0.29533
 C1450 C 1.08163 0.20184 0.30411
 C1451 C 1.08072 0.21749 0.30543
 C1452 C 1.06964 0.22546 0.29756
 C1453 C 1.06902 0.24111 0.29893
 C1454 C 1.07909 0.24870 0.30780
 C1455 C 1.08996 0.24092 0.31546
 C1456 C 1.09081 0.22550 0.31434
 C1457 C 1.07171 0.17842 0.29405
 C1458 C 1.06156 0.17086 0.28525
 C1459 C 1.05072 0.17866 0.27757
 C1460 C 1.04998 0.19409 0.27862
 C1461 C 1.09356 0.19377 0.31135
 C1462 C 1.10360 0.18716 0.31721
 C1463 C 1.04950 0.22603 0.27894
 C1464 C 1.04172 0.23295 0.27059
 H1465 H 1.06075 0.24764 0.29321
 H1466 H 1.07846 0.26067 0.30872
 H1467 H 1.09778 0.24688 0.32230
 H1468 H 1.09945 0.21994 0.32051
 H1469 H 1.07993 0.17186 0.29981
 H1470 H 1.06211 0.15888 0.28437
 H1471 H 1.04286 0.17274 0.27076
 H1472 H 1.04134 0.19967 0.27247
 C1473 C 0.56023 0.27969 0.71109
 C1474 C 0.57548 0.27801 0.71455
 C1475 C 0.58631 0.28631 0.70672
 C1476 C 0.58186 0.29622 0.69544
 C1477 C 0.56664 0.29774 0.69185
 C1478 C 0.55579 0.28949 0.69974
 C1479 C 0.54064 0.29131 0.69608
 C1480 C 0.53633 0.30097 0.68488
 C1481 C 0.54694 0.30898 0.67711
 C1482 C 0.56194 0.30743 0.68051
 C1483 C 0.60146 0.28451 0.71046
 C1484 C 0.60579 0.27478 0.72158
 C1485 C 0.59521 0.26665 0.72922
 C1486 C 0.58022 0.26821 0.72581
 C1487 C 0.59301 0.30490 0.68772
 C1488 C 0.60259 0.31192 0.68160
 C1489 C 0.54928 0.27155 0.71960
 C1490 C 0.54104 0.26459 0.72745
 H1491 H 0.53201 0.28531 0.70182
 H1492 H 0.52469 0.30224 0.68221
 H1493 H 0.54352 0.31645 0.66840
 H1494 H 0.56979 0.31388 0.67416
 H1495 H 0.61013 0.29059 0.70484
 H1496 H 0.61743 0.27354 0.72427
 H1497 H 0.59863 0.25909 0.73785
 H1498 H 0.57244 0.26163 0.73209
 C1499 C 0.55973 0.77965 0.21108
 C1500 C 0.55659 0.79427 0.20623
 C1501 C 0.56747 0.80240 0.19826
 C1502 C 0.58144 0.79588 0.19523
 C1503 C 0.58442 0.78111 0.19972
 C1504 C 0.57352 0.77296 0.20763
 C1505 C 0.57680 0.75825 0.21211
 C1506 C 0.59046 0.75179 0.20891
 C1507 C 0.60114 0.75977 0.20123
 C1508 C 0.59821 0.77426 0.19665
 C1509 C 0.56413 0.81704 0.19364
 C1510 C 0.55044 0.82348 0.19682
 C1511 C 0.53982 0.81553 0.20463
 C1512 C 0.54280 0.80109 0.20932
 C1513 C 0.59292 0.80449 0.18791
 C1514 C 0.60264 0.81152 0.18202
 C1515 C 0.54930 0.77179 0.22044
 C1516 C 0.54136 0.76505 0.22877
 H1517 H 0.56886 0.75158 0.21811
 H1518 H 0.59278 0.74052 0.21242
 H1519 H 0.61176 0.75471 0.19881
 H1520 H 0.60688 0.78000 0.19070
 H1521 H 0.57204 0.82365 0.18753
 H1522 H 0.54808 0.83470 0.19322
 H1523 H 0.52920 0.82059 0.20707
 H1524 H 0.53419 0.79534 0.21535
 C1525 C 1.05769 0.28303 0.21094
 C1526 C 1.06237 0.27809 0.19692
 C1527 C 1.07307 0.28640 0.18891
 C1528 C 1.07894 0.29966 0.19493
 C1529 C 1.07373 0.30496 0.20865
 C1530 C 1.06306 0.29663 0.21667
 C1531 C 1.05811 0.30209 0.23041
 C1532 C 1.06353 0.31541 0.23606
 C1533 C 1.07400 0.32353 0.22824
 C1534 C 1.07909 0.31842 0.21469
 C1535 C 1.07778 0.28110 0.17503
 C1536 C 1.07199 0.26802 0.16918
 C1537 C 1.06145 0.25996 0.17698
 C1538 C 1.05668 0.26486 0.19071
 C1539 C 1.09075 0.30754 0.18736
 C1540 C 1.10081 0.31398 0.18137
 C1541 C 1.04821 0.27368 0.21995
 C1542 C 1.04090 0.26593 0.22798
 H1543 H 1.04995 0.29619 0.23689
 H1544 H 1.05959 0.31945 0.24656
 H1545 H 1.07821 0.33386 0.23269
 H1546 H 1.08721 0.32515 0.20900
 H1547 H 1.08592 0.28702 0.16854
 H1548 H 1.07569 0.26413 0.15854
 H1549 H 1.05694 0.24984 0.17236
 H1550 H 1.04845 0.25823 0.19636
 C1551 C 1.05889 0.78173 0.71181
 C1552 C 1.07395 0.77723 0.71196
 C1553 C 1.08469 0.78554 0.70405
 C1554 C 1.08030 0.79825 0.69596
 C1555 C 1.06519 0.80256 0.69555
 C1556 C 1.05445 0.79429 0.70355
 C1557 C 1.03946 0.79893 0.70318
 C1558 C 1.03519 0.81137 0.69508
 C1559 C 1.04568 0.81940 0.68717
 C1560 C 1.06053 0.81509 0.68736
 C1561 C 1.09971 0.78094 0.70453
 C1562 C 1.10399 0.76849 0.71260
 C1563 C 1.09347 0.76034 0.72032
 C1564 C 1.07862 0.76459 0.72003
 C1565 C 1.09140 0.80699 0.68832
 C1566 C 1.10091 0.81401 0.68213
 C1567 C 1.04827 0.77382 0.72086
 C1568 C 1.04031 0.76703 0.72909
 H1569 H 1.03091 0.79299 0.70912
 H1570 H 1.02367 0.81480 0.69492
 H1571 H 1.04230 0.82903 0.68087
 H1572 H 1.06829 0.82167 0.68104
 H1573 H 1.10831 0.78691 0.69870
 H1574 H 1.11552 0.76515 0.71287
 H1575 H 1.09684 0.75066 0.72658
 H1576 H 1.07087 0.75784 0.72619
 C1577 C 0.44324 0.70892 0.71914
 C1578 C 0.44195 0.71145 0.70382
 C1579 C 0.43115 0.70359 0.69551
 C1580 C 0.42178 0.69318 0.70257
 C1581 C 0.42357 0.69012 0.71774
 C1582 C 0.43436 0.69799 0.72604
 C1583 C 0.43588 0.69483 0.74121
 C1584 C 0.42696 0.68420 0.74800
 C1585 C 0.41636 0.67656 0.73990
 C1586 C 0.41462 0.67943 0.72494
 C1587 C 0.42987 0.70652 0.68027
 C1588 C 0.43904 0.71687 0.67341
 C1589 C 0.44965 0.72451 0.68152
 C1590 C 0.45113 0.72189 0.69656
 C1591 C 0.40985 0.68618 0.69439
 C1592 C 0.39969 0.68070 0.68771
 C1593 C 0.45273 0.71843 0.72794
 C1594 C 0.46006 0.72692 0.73516
 H1595 H 0.44402 0.70046 0.74795
 H1596 H 0.42829 0.68190 0.75961
 H1597 H 0.40943 0.66834 0.74523
 H1598 H 0.40624 0.67318 0.71909
 H1599 H 0.42180 0.70083 0.67350
 H1600 H 0.43791 0.71897 0.66174
 H1601 H 0.45677 0.73252 0.67613
 H1602 H 0.45958 0.72806 0.70239
 C1603 C 0.44233 0.20913 0.21694
 C1604 C 0.43900 0.21353 0.20236
 C1605 C 0.42801 0.20578 0.19420
 C1606 C 0.42051 0.19358 0.20065
 C1607 C 0.42440 0.18871 0.21496
 C1608 C 0.43537 0.19651 0.22312
 C1609 C 0.43901 0.19151 0.23742
 C1610 C 0.43201 0.17915 0.24352
 C1611 C 0.42125 0.17156 0.23556
 C1612 C 0.41743 0.17624 0.22145
 C1613 C 0.42467 0.21056 0.17974
 C1614 C 0.43205 0.22261 0.17349
 C1615 C 0.44286 0.23014 0.18143
 C1616 C 0.44633 0.22571 0.19571
 C1617 C 0.40842 0.18645 0.19282
 C1618 C 0.39815 0.18078 0.18645
 C1619 C 0.45198 0.21832 0.22592
 C1620 C 0.45939 0.22658 0.23333
 H1621 H 0.44737 0.19702 0.24399
 H1622 H 0.43497 0.17545 0.25446
 H1623 H 0.41584 0.16197 0.24035
 H1624 H 0.40903 0.16995 0.21567
 H1625 H 0.41637 0.20503 0.17311
 H1626 H 0.42938 0.22611 0.16240
 H1627 H 0.44861 0.23945 0.17650
 H1628 H 0.45487 0.23187 0.20143
 C1629 C -0.05787 0.71181 0.21592
 C1630 C -0.06418 0.69874 0.22191
 C1631 C -0.07509 0.69077 0.21384
 C1632 C -0.07963 0.69594 0.19983
 C1633 C -0.07282 0.70861 0.19354
 C1634 C -0.06192 0.71658 0.20162
 C1635 C -0.05541 0.72934 0.19518
 C1636 C -0.05953 0.73406 0.18116
 C1637 C -0.07017 0.72624 0.17326
 C1638 C -0.07679 0.71367 0.17933
 C1639 C -0.08133 0.67781 0.22011
 C1640 C -0.07692 0.67286 0.23396
 C1641 C -0.06629 0.68067 0.24187
 C1642 C -0.05996 0.69348 0.23598
 C1643 C -0.09180 0.68870 0.19221
 C1644 C -0.10215 0.68295 0.18605
 C1645 C -0.04805 0.72093 0.22479
 C1646 C -0.04046 0.72904 0.23217
 H1647 H -0.04705 0.73575 0.20088
 H1648 H -0.05443 0.74382 0.17640
 H1649 H -0.07332 0.72994 0.16237
 H1650 H -0.08498 0.70793 0.17274
 H1651 H -0.08962 0.67134 0.21435
 H1652 H -0.08178 0.66290 0.23858
 H1653 H -0.06291 0.67677 0.25263
 H1654 H -0.05169 0.69916 0.24252
 C1655 C -0.05988 0.21266 0.71842
 C1656 C -0.05538 0.20318 0.70685
 C1657 C -0.06621 0.19537 0.69850
 C1658 C -0.08147 0.19716 0.70175
 C1659 C -0.08595 0.20649 0.71346
 C1660 C -0.07513 0.21423 0.72184
 C1661 C -0.07990 0.22350 0.73350
 C1662 C -0.09492 0.22511 0.73675
 C1663 C -0.10550 0.21758 0.72853
 C1664 C -0.10114 0.20836 0.71702
 C1665 C -0.06145 0.18595 0.68699
 C1666 C -0.04642 0.18433 0.68378
 C1667 C -0.03584 0.19200 0.69190
 C1668 C -0.04021 0.20133 0.70333
 C1669 C -0.09263 0.18951 0.69308
 C1670 C -0.10226 0.18332 0.68621
 C1671 C -0.04905 0.22140 0.72645
 C1672 C -0.04092 0.22942 0.73334
 H1673 H -0.07212 0.22957 0.74026
 H1674 H -0.09835 0.23225 0.74570
 H1675 H -0.11716 0.21887 0.73109
 H1676 H -0.10980 0.20273 0.71096
 H1677 H -0.06927 0.17975 0.68038
 H1678 H -0.04296 0.17708 0.67493
 H1679 H -0.02418 0.19070 0.68935
 H1680 H -0.03159 0.20704 0.70939
 C1681 C 0.28692 0.44377 0.28260
 C1682 C 0.28508 0.44294 0.29804
 C1683 C 0.29313 0.43221 0.30630
 C1684 C 0.30297 0.42238 0.29907
 C1685 C 0.30535 0.42370 0.28373
 C1686 C 0.29731 0.43444 0.27548
 C1687 C 0.29977 0.43548 0.26014
 C1688 C 0.30989 0.42616 0.25314
 C1689 C 0.31774 0.41564 0.26120
 C1690 C 0.31554 0.41437 0.27632
 C1691 C 0.29098 0.43149 0.32170
 C1692 C 0.28118 0.44111 0.32874
 C1693 C 0.27332 0.45161 0.32067
 C1694 C 0.27519 0.45256 0.30549
 C1695 C 0.31013 0.41050 0.30723
 C1696 C 0.31591 0.40035 0.31373
 C1697 C 0.27738 0.45339 0.27394
 C1698 C 0.26898 0.46083 0.26670
 H1699 H 0.29397 0.44354 0.25342
 H1700 H 0.31166 0.42713 0.24141
 H1701 H 0.32559 0.40844 0.25570
 H1702 H 0.32195 0.40606 0.28212
 H1703 H 0.29689 0.42354 0.32845
 H1704 H 0.27969 0.44043 0.34053
 H1705 H 0.26573 0.45908 0.32619
 H1706 H 0.26889 0.46095 0.29968
 C1707 C 0.28501 -0.05954 0.78122
 C1708 C 0.27970 -0.07430 0.78238
 C1709 C 0.28782 -0.08498 0.79061
 C1710 C 0.30117 -0.08082 0.79771
 C1711 C 0.30649 -0.06606 0.79655
 C1712 C 0.29836 -0.05538 0.78829
 C1713 C 0.30387 -0.04070 0.78729
 C1714 C 0.31706 -0.03669 0.79423
 C1715 C 0.32503 -0.04714 0.80227
 C1716 C 0.31984 -0.06168 0.80347
 C1717 C 0.28233 -0.09969 0.79152
 C1718 C 0.26919 -0.10373 0.78452
 C1719 C 0.26121 -0.09327 0.77651
 C1720 C 0.26635 -0.07872 0.77542
 C1721 C 0.30940 -0.09182 0.80608
 C1722 C 0.31593 -0.10133 0.81282
 C1723 C 0.27662 -0.04881 0.77268
 C1724 C 0.26893 -0.04067 0.76542
 H1725 H 0.29805 -0.03220 0.78115
 H1726 H 0.32114 -0.02542 0.79334
 H1727 H 0.33528 -0.04398 0.80762
 H1728 H 0.32641 -0.06943 0.80984
 H1729 H 0.28813 -0.10824 0.79761
 H1730 H 0.26517 -0.11503 0.78531
 H1731 H 0.25099 -0.09645 0.77111
 H1732 H 0.25972 -0.07102 0.76906
 C1733 C 0.77966 0.44168 0.78908
 C1734 C 0.77388 0.42723 0.79132
 C1735 C 0.78238 0.41647 0.79906
 C1736 C 0.79656 0.42025 0.80460
 C1737 C 0.80215 0.43483 0.80275
 C1738 C 0.79366 0.44559 0.79495
 C1739 C 0.79952 0.46005 0.79312
 C1740 C 0.81338 0.46378 0.79884
 C1741 C 0.82168 0.45326 0.80644
 C1742 C 0.81618 0.43893 0.80841
 C1743 C 0.77646 0.40201 0.80095
 C1744 C 0.76254 0.39833 0.79539
 C1745 C 0.75419 0.40888 0.78789
 C1746 C 0.75974 0.42317 0.78584
 C1747 C 0.80549 0.40900 0.81186
 C1748 C 0.81266 0.39935 0.81769
 C1749 C 0.77153 0.45208 0.77991
 C1750 C 0.76453 0.45993 0.77170
 H1751 H 0.79343 0.46860 0.78732
 H1752 H 0.81769 0.47490 0.79736
 H1753 H 0.83245 0.45621 0.81084
 H1754 H 0.82303 0.43113 0.81443
 H1755 H 0.78252 0.39342 0.80673
 H1756 H 0.75820 0.38722 0.79691
 H1757 H 0.74336 0.40598 0.78363
 H1758 H 0.75280 0.43098 0.77996
 C1759 C 0.78760 -0.05738 0.28462
 C1760 C 0.78581 -0.05826 0.30007
 C1761 C 0.79363 -0.06923 0.30824
 C1762 C 0.80318 -0.07928 0.30092
 C1763 C 0.80548 -0.07797 0.28556
 C1764 C 0.79766 -0.06700 0.27740
 C1765 C 0.79997 -0.06606 0.26203
 C1766 C 0.80975 -0.07567 0.25493
 C1767 C 0.81743 -0.08636 0.26292
 C1768 C 0.81536 -0.08756 0.27806
 C1769 C 0.79154 -0.06998 0.32365
 C1770 C 0.78197 -0.06018 0.33077
 C1771 C 0.77429 -0.04948 0.32278
 C1772 C 0.77616 -0.04847 0.30760
 C1773 C 0.81011 -0.09138 0.30898
 C1774 C 0.81577 -0.10172 0.31530
 C1775 C 0.77826 -0.04746 0.27604
 C1776 C 0.76997 -0.03987 0.26881
 H1777 H 0.79430 -0.05787 0.25536
 H1778 H 0.81138 -0.07479 0.24317
 H1779 H 0.82503 -0.09378 0.25736
 H1780 H 0.82162 -0.09603 0.28380
 H1781 H 0.79731 -0.07809 0.33034
 H1782 H 0.78050 -0.06089 0.34257
 H1783 H 0.76686 -0.04191 0.32836
 H1784 H 0.77001 -0.03992 0.30186
 C1785 C 0.28316 0.55833 0.71323
 C1786 C 0.27547 0.57069 0.70728
 C1787 C 0.28329 0.58159 0.69906
 C1788 C 0.29874 0.58002 0.69673
 C1789 C 0.30636 0.56747 0.70234
 C1790 C 0.29853 0.55657 0.71060
 C1791 C 0.30637 0.54418 0.71617
 C1792 C 0.32154 0.54258 0.71367
 C1793 C 0.32921 0.55324 0.70564
 C1794 C 0.32176 0.56557 0.70001
 C1795 C 0.27541 0.59398 0.69346
 C1796 C 0.26022 0.59552 0.69586
 C1797 C 0.25255 0.58482 0.70381
 C1798 C 0.26002 0.57253 0.70949
 C1799 C 0.30682 0.59165 0.68908
 C1800 C 0.31330 0.60164 0.68304
 C1801 C 0.27525 0.54794 0.72261
 C1802 C 0.26797 0.54007 0.73056
 H1803 H 0.30086 0.53560 0.72248
 H1804 H 0.32738 0.53301 0.71800
 H1805 H 0.34100 0.55196 0.70376
 H1806 H 0.32819 0.57358 0.69383
 H1807 H 0.28088 0.60260 0.68718
 H1808 H 0.25438 0.60507 0.69151
 H1809 H 0.24075 0.58604 0.70562
 H1810 H 0.25354 0.56452 0.71560
 C1811 C 0.27824 1.05742 0.20904
 C1812 C 0.27236 1.07175 0.20633
 C1813 C 0.28094 1.08242 0.19858
 C1814 C 0.29530 1.07866 0.19350
 C1815 C 0.30094 1.06414 0.19570
 C1816 C 0.29237 1.05348 0.20351
 C1817 C 0.29828 1.03909 0.20573
 C1818 C 0.31228 1.03533 0.20039
 C1819 C 0.32067 1.04576 0.19278
 C1820 C 0.31512 1.06002 0.19041
 C1821 C 0.27494 1.09678 0.19626
 C1822 C 0.26085 1.10045 0.20141
 C1823 C 0.25242 1.08997 0.20889
 C1824 C 0.25805 1.07577 0.21136
 C1825 C 0.30441 1.08988 0.18643
 C1826 C 0.31186 1.09941 0.18078
 C1827 C 0.27014 1.04724 0.21846
 C1828 C 0.26328 1.03953 0.22688
 H1829 H 0.29213 1.03060 0.21155
 H1830 H 0.31664 1.02426 0.20217
 H1831 H 0.33155 1.04280 0.18869
 H1832 H 0.32203 1.06774 0.18439
 H1833 H 0.28105 1.10530 0.19045
 H1834 H 0.25644 1.11148 0.19957
 H1835 H 0.24145 1.09284 0.21282
 H1836 H 0.25105 1.06800 0.21721
 C1837 C 0.77972 0.55797 0.21133
 C1838 C 0.77393 0.57241 0.20899
 C1839 C 0.78245 0.58316 0.20129
 C1840 C 0.79664 0.57934 0.19578
 C1841 C 0.80217 0.56473 0.19758
 C1842 C 0.79368 0.55400 0.20539
 C1843 C 0.79946 0.53950 0.20716
 C1844 C 0.81325 0.53569 0.20136
 C1845 C 0.82158 0.54618 0.19375
 C1846 C 0.81616 0.56055 0.19185
 C1847 C 0.77656 0.59762 0.19940
 C1848 C 0.76259 0.60130 0.20485
 C1849 C 0.75419 0.59074 0.21224
 C1850 C 0.75975 0.57645 0.21435
 C1851 C 0.80562 0.59056 0.18858
 C1852 C 0.81291 0.60012 0.18277
 C1853 C 0.77171 0.54768 0.22071
 C1854 C 0.76487 0.53993 0.22913
 H1855 H 0.79336 0.53097 0.21298
 H1856 H 0.81750 0.52452 0.20276
 H1857 H 0.83230 0.54317 0.18929
 H1858 H 0.82301 0.56833 0.18583
 H1859 H 0.78265 0.60622 0.19368
 H1860 H 0.75826 0.61241 0.20332
 H1861 H 0.74330 0.59361 0.21639
 H1862 H 0.75277 0.56862 0.22016
 C1863 C 0.78445 1.05808 0.71717
 C1864 C 0.77791 1.07176 0.71300
 C1865 C 0.78616 1.08217 0.70458
 C1866 C 0.80087 1.07878 0.70027
 C1867 C 0.80734 1.06502 0.70426
 C1868 C 0.79910 1.05462 0.71274
 C1869 C 0.80579 1.04095 0.71663
 C1870 C 0.82026 1.03766 0.71230
 C1871 C 0.82834 1.04784 0.70405
 C1872 C 0.82201 1.06139 0.70004
 C1873 C 0.77945 1.09587 0.70073
 C1874 C 0.76498 1.09915 0.70501
 C1875 C 0.75686 1.08892 0.71314
 C1876 C 0.76319 1.07538 0.71712
 C1877 C 0.80933 1.08962 0.69197
 C1878 C 0.81601 1.09903 0.68528
 C1879 C 0.77608 1.04786 0.72631
 C1880 C 0.76838 1.04014 0.73398
 H1881 H 0.79992 1.03269 0.72302
 H1882 H 0.82522 1.02716 0.71537
 H1883 H 0.83958 1.04524 0.70073
 H1884 H 0.82872 1.06895 0.69362
 H1885 H 0.78530 1.10419 0.69440
 H1886 H 0.76004 1.10968 0.70199
 H1887 H 0.74561 1.09150 0.71641
 H1888 H 0.75639 1.06781 0.72344
 C1889 C 0.71570 0.55830 0.28818
 C1890 C 0.70544 0.56768 0.28087
 C1891 C 0.69742 0.57854 0.28895
 C1892 C 0.69966 0.57995 0.30430
 C1893 C 0.70948 0.57018 0.31169
 C1894 C 0.71754 0.55934 0.30360
 C1895 C 0.72738 0.54979 0.31121
 C1896 C 0.72914 0.55085 0.32639
 C1897 C 0.72124 0.56143 0.33431
 C1898 C 0.71153 0.57104 0.32709
 C1899 C 0.68733 0.58788 0.28137
 C1900 C 0.68518 0.58649 0.26626
 C1901 C 0.69301 0.57587 0.25837
 C1902 C 0.70306 0.56656 0.26552
 C1903 C 0.69219 0.59174 0.31230
 C1904 C 0.68601 0.60181 0.31854
 C1905 C 0.72479 0.54814 0.27964
 C1906 C 0.73232 0.54033 0.27186
 H1907 H 0.73374 0.54138 0.30551
 H1908 H 0.73667 0.54341 0.33206
 H1909 H 0.72264 0.56219 0.34611
 H1910 H 0.70561 0.57908 0.33371
 H1911 H 0.68095 0.59631 0.28703
 H1912 H 0.67740 0.59370 0.26066
 H1913 H 0.69130 0.57482 0.24663
 H1914 H 0.70886 0.55846 0.25888
 C1915 C 0.71035 1.05790 0.78508
 C1916 C 0.69569 1.06176 0.78101
 C1917 C 0.68781 1.07264 0.78921
 C1918 C 0.69463 1.07957 0.80144
 C1919 C 0.70907 1.07527 0.80586
 C1920 C 0.71694 1.06437 0.79768
 C1921 C 0.73138 1.06028 0.80230
 C1922 C 0.73787 1.06680 0.81462
 C1923 C 0.73018 1.07748 0.82259
 C1924 C 0.71596 1.08172 0.81830
 C1925 C 0.67321 1.07642 0.78488
 C1926 C 0.66655 1.06959 0.77282
 C1927 C 0.67426 1.05895 0.76480
 C1928 C 0.68868 1.05504 0.76879
 C1929 C 0.68706 1.09146 0.80918
 C1930 C 0.68117 1.10157 0.81562
 C1931 C 0.71904 1.04803 0.77587
 C1932 C 0.72688 1.04040 0.76826
 H1933 H 0.73777 1.05194 0.79654
 H1934 H 0.74891 1.06352 0.81802
 H1935 H 0.73525 1.08248 0.83218
 H1936 H 0.71042 1.09005 0.82488
 H1937 H 0.66678 1.08461 0.79079
 H1938 H 0.65534 1.07255 0.76970
 H1939 H 0.66903 1.05368 0.75545
 H1940 H 0.69420 1.04663 0.76229
 C1941 C 0.21127 0.55768 0.78328
 C1942 C 0.21785 0.56414 0.79589
 C1943 C 0.21003 0.57513 0.80399
 C1944 C 0.19565 0.57957 0.79947
 C1945 C 0.18879 0.57256 0.78731
 C1946 C 0.19663 0.56158 0.77919
 C1947 C 0.18960 0.55482 0.76700
 C1948 C 0.17519 0.55874 0.76298
 C1949 C 0.16753 0.56947 0.77092
 C1950 C 0.17420 0.57636 0.78294
 C1951 C 0.21692 0.58155 0.81645
 C1952 C 0.23110 0.57719 0.82081
 C1953 C 0.23872 0.56642 0.81291
 C1954 C 0.23224 0.55994 0.80057
 C1955 C 0.18820 0.59166 0.80705
 C1956 C 0.18239 0.60189 0.81339
 C1957 C 0.21996 0.54781 0.77404
 C1958 C 0.22774 0.54018 0.76634
 H1959 H 0.19510 0.54637 0.76054
 H1960 H 0.16995 0.55341 0.75367
 H1961 H 0.15634 0.57246 0.76776
 H1962 H 0.16780 0.58462 0.78880
 H1963 H 0.21143 0.58995 0.82299
 H1964 H 0.23619 0.58219 0.83039
 H1965 H 0.24972 0.56305 0.81635
 H1966 H 0.23859 0.55156 0.79482
 C1967 C 0.21545 1.05659 0.28803
 C1968 C 0.22212 1.06400 0.30005
 C1969 C 0.21396 1.07485 0.30803
 C1970 C 0.19915 1.07820 0.30395
 C1971 C 0.19224 1.07021 0.29243
 C1972 C 0.20040 1.05935 0.28447
 C1973 C 0.19326 1.05156 0.27296
 C1974 C 0.17848 1.05440 0.26942
 C1975 C 0.17052 1.06505 0.27717
 C1976 C 0.17727 1.07291 0.28854
 C1977 C 0.22093 1.08221 0.31992
 C1978 C 0.23552 1.07889 0.32385
 C1979 C 0.24348 1.06827 0.31605
 C1980 C 0.23692 1.06090 0.30425
 C1981 C 0.19122 1.09021 0.31120
 C1982 C 0.18484 1.10037 0.31710
 C1983 C 0.22429 1.04696 0.27867
 C1984 C 0.23156 1.03950 0.27034
 H1985 H 0.19898 1.04314 0.26664
 H1986 H 0.17317 1.04829 0.26063
 H1987 H 0.15905 1.06722 0.27437
 H1988 H 0.17062 1.08105 0.29428
 H1989 H 0.21517 1.09052 0.32633
 H1990 H 0.24067 1.08458 0.33300
 H1991 H 0.25479 1.06571 0.31917
 H1992 H 0.24353 1.05269 0.29854
 C1993 C 0.71332 0.44237 0.71396
 C1994 C 0.70320 0.43306 0.72152
 C1995 C 0.69472 0.42244 0.71362
 C1996 C 0.69641 0.42115 0.69821
 C1997 C 0.70607 0.43086 0.69056
 C1998 C 0.71456 0.44151 0.69847
 C1999 C 0.72424 0.45101 0.69062
 C2000 C 0.72545 0.45007 0.67537
 C2001 C 0.71715 0.43967 0.66764
 C2002 C 0.70757 0.43013 0.67509
 C2003 C 0.68475 0.41319 0.72143
 C2004 C 0.68320 0.41442 0.73662
 C2005 C 0.69151 0.42479 0.74436
 C2006 C 0.70143 0.43402 0.73697
 C2007 C 0.68870 0.40941 0.69036
 C2008 C 0.68254 0.39940 0.68402
 C2009 C 0.72287 0.45227 0.72228
 C2010 C 0.73074 0.45988 0.72988
 H2011 H 0.73091 0.45928 0.69618
 H2012 H 0.73287 0.45746 0.66953
 H2013 H 0.71814 0.43899 0.65580
 H2014 H 0.70132 0.42224 0.66860
 H2015 H 0.67801 0.40497 0.71589
 H2016 H 0.67551 0.40727 0.74241
 H2017 H 0.69027 0.42570 0.75617
 H2018 H 0.70763 0.44191 0.74349
 C2019 C 0.71201 -0.05825 0.21778
 C2020 C 0.69694 -0.06146 0.22079
 C2021 C 0.68937 -0.07244 0.21242
 C2022 C 0.69691 -0.08014 0.20109
 C2023 C 0.71180 -0.07646 0.19766
 C2024 C 0.71934 -0.06546 0.20600
 C2025 C 0.73423 -0.06199 0.20239
 C2026 C 0.74145 -0.06918 0.19088
 C2027 C 0.73409 -0.07998 0.18276
 C2028 C 0.71944 -0.08364 0.18607
 C2029 C 0.67434 -0.07553 0.21570
 C2030 C 0.66698 -0.06794 0.22687
 C2031 C 0.67437 -0.05719 0.23503
 C2032 C 0.68921 -0.05397 0.23210
 C2033 C 0.68951 -0.09207 0.19321
 C2034 C 0.68355 -0.10212 0.18673
 C2035 C 0.72032 -0.04826 0.22725
 C2036 C 0.72795 -0.04054 0.23502
 H2037 H 0.74042 -0.05364 0.20836
 H2038 H 0.75282 -0.06635 0.18825
 H2039 H 0.73977 -0.08554 0.17384
 H2040 H 0.71419 -0.09210 0.17942
 H2041 H 0.66812 -0.08379 0.20964
 H2042 H 0.65546 -0.07040 0.22919
 H2043 H 0.66858 -0.05131 0.24367
 H2044 H 0.69450 -0.04551 0.23871
 C2045 C 0.21080 0.44293 0.21589
 C2046 C 0.21826 0.43554 0.20430
 C2047 C 0.21070 0.42465 0.19585
 C2048 C 0.19568 0.42128 0.19897
 C2049 C 0.18806 0.42907 0.21018
 C2050 C 0.19565 0.43994 0.21867
 C2051 C 0.18785 0.44751 0.22989
 C2052 C 0.17296 0.44443 0.23266
 C2053 C 0.16555 0.43375 0.22441
 C2054 C 0.17296 0.42613 0.21329
 C2055 C 0.21848 0.41721 0.18452
 C2056 C 0.23329 0.42050 0.18157
 C2057 C 0.24066 0.43123 0.18977
 C2058 C 0.23329 0.43868 0.20102
 C2059 C 0.18830 0.40940 0.19103
 C2060 C 0.18242 0.39929 0.18458
 C2061 C 0.21906 0.45286 0.22543
 C2062 C 0.22669 0.46051 0.23324
 H2063 H 0.19316 0.45590 0.23658
 H2064 H 0.16714 0.45034 0.24126
 H2065 H 0.15400 0.43137 0.22665
 H2066 H 0.16673 0.41794 0.20715
 H2067 H 0.21322 0.40880 0.17781
 H2068 H 0.23909 0.41469 0.17288
 H2069 H 0.25215 0.43379 0.18741
 H2070 H 0.23951 0.44694 0.20708
 C2071 C 0.21158 -0.05692 0.71349
 C2072 C 0.21855 -0.06371 0.70126
 C2073 C 0.21091 -0.07476 0.69306
 C2074 C 0.19632 -0.07891 0.69709
 C2075 C 0.18913 -0.07169 0.70894
 C2076 C 0.19678 -0.06065 0.71716
 C2077 C 0.18943 -0.05369 0.72904
 C2078 C 0.17492 -0.05751 0.73271
 C2079 C 0.16745 -0.06833 0.72471
 C2080 C 0.17442 -0.07538 0.71295
 C2081 C 0.21822 -0.08157 0.68105
 C2082 C 0.23263 -0.07752 0.67721
 C2083 C 0.24007 -0.06667 0.68518
 C2084 C 0.23317 -0.05982 0.69709
 C2085 C 0.18895 -0.09099 0.68941
 C2086 C 0.18305 -0.10123 0.68319
 C2087 C 0.22006 -0.04703 0.72289
 C2088 C 0.22776 -0.03949 0.73076
 H2089 H 0.19479 -0.04519 0.73555
 H2090 H 0.16944 -0.05205 0.74181
 H2091 H 0.15619 -0.07129 0.72762
 H2092 H 0.16815 -0.08371 0.70704
 H2093 H 0.21288 -0.09005 0.67449
 H2094 H 0.23805 -0.08284 0.66799
 H2095 H 0.25124 -0.06354 0.68213
 H2096 H 0.23940 -0.05142 0.70293
 C2097 C 0.28365 0.28845 0.44135
 C2098 C 0.28727 0.28119 0.42799
 C2099 C 0.29570 0.28873 0.41710
 C2100 C 0.30047 0.30350 0.41959
 C2101 C 0.29696 0.31071 0.43299
 C2102 C 0.28848 0.30317 0.44388
 C2103 C 0.28499 0.31065 0.45711
 C2104 C 0.28978 0.32516 0.45954
 C2105 C 0.29811 0.33251 0.44893
 C2106 C 0.30170 0.32542 0.43578
 C2107 C 0.29912 0.28124 0.40384
 C2108 C 0.29433 0.26674 0.40139
 C2109 C 0.28607 0.25937 0.41202
 C2110 C 0.28257 0.26644 0.42519
 C2111 C 0.30867 0.31129 0.40819
 C2112 C 0.31525 0.31749 0.39840
 C2113 C 0.27483 0.28062 0.45224
 C2114 C 0.26742 0.27313 0.46043
 H2115 H 0.27854 0.30536 0.46567
 H2116 H 0.28700 0.33073 0.46972
 H2117 H 0.30182 0.34377 0.45089
 H2118 H 0.30821 0.33158 0.42786
 H2119 H 0.30553 0.28649 0.39523
 H2120 H 0.29703 0.26120 0.39118
 H2121 H 0.28236 0.24810 0.41007
 H2122 H 0.27613 0.26019 0.43310
 C2123 C 0.28546 0.78902 -0.05852
 C2124 C 0.28309 0.80442 -0.06069
 C2125 C 0.29158 0.81226 -0.07135
 C2126 C 0.30239 0.80465 -0.07977
 C2127 C 0.30509 0.78936 -0.07727
 C2128 C 0.29662 0.78153 -0.06661
 C2129 C 0.29944 0.76621 -0.06441
 C2130 C 0.31032 0.75885 -0.07250
 C2131 C 0.31860 0.76651 -0.08291
 C2132 C 0.31607 0.78159 -0.08532
 C2133 C 0.28892 0.82761 -0.07341
 C2134 C 0.27819 0.83502 -0.06516
 C2135 C 0.26989 0.82735 -0.05475
 C2136 C 0.27226 0.81221 -0.05250
 C2137 C 0.31032 0.81235 -0.09142
 C2138 C 0.31674 0.81847 -0.10136
 C2139 C 0.27599 0.78064 -0.04861
 C2140 C 0.26819 0.77295 -0.04097
 H2141 H 0.29333 0.75976 -0.05642
 H2142 H 0.31234 0.74714 -0.07066
 H2143 H 0.32704 0.76075 -0.08917
 H2144 H 0.32282 0.78707 -0.09353
 H2145 H 0.29511 0.83405 -0.08136
 H2146 H 0.27630 0.84677 -0.06686
 H2147 H 0.26158 0.83315 -0.04838
 H2148 H 0.26556 0.80671 -0.04426
 C2149 C 0.78578 0.28581 -0.05871
 C2150 C 0.78926 0.27873 -0.07219
 C2151 C 0.79779 0.28633 -0.08295
 C2152 C 0.80285 0.30094 -0.08016
 C2153 C 0.79956 0.30794 -0.06661
 C2154 C 0.79099 0.30034 -0.05584
 C2155 C 0.78777 0.30757 -0.04241
 C2156 C 0.79285 0.32192 -0.03969
 C2157 C 0.80121 0.32936 -0.05022
 C2158 C 0.80457 0.32250 -0.06354
 C2159 C 0.80100 0.27908 -0.09639
 C2160 C 0.79593 0.26472 -0.09912
 C2161 C 0.78763 0.25726 -0.08858
 C2162 C 0.78430 0.26412 -0.07526
 C2163 C 0.81098 0.30888 -0.09147
 C2164 C 0.81739 0.31534 -0.10119
 C2165 C 0.77660 0.27811 -0.04805
 C2166 C 0.76885 0.27092 -0.03994
 H2167 H 0.78131 0.30220 -0.03390
 H2168 H 0.79028 0.32730 -0.02936
 H2169 H 0.80512 0.34052 -0.04805
 H2170 H 0.81112 0.32872 -0.07138
 H2171 H 0.80743 0.28440 -0.10494
 H2172 H 0.79848 0.25936 -0.10946
 H2173 H 0.78373 0.24610 -0.09074
 H2174 H 0.77781 0.25783 -0.06743
 C2175 C 0.78843 0.78307 0.44213
 C2176 C 0.79361 0.79760 0.44507
 C2177 C 0.80134 0.80565 0.43400
 C2178 C 0.80375 0.79914 0.42004
 C2179 C 0.79894 0.78443 0.41724
 C2180 C 0.79131 0.77636 0.42834
 C2181 C 0.78657 0.76168 0.42526
 C2182 C 0.78926 0.75520 0.41161
 C2183 C 0.79667 0.76312 0.40075
 C2184 C 0.80147 0.77758 0.40346
 C2185 C 0.80637 0.82018 0.43717
 C2186 C 0.80381 0.82660 0.45088
 C2187 C 0.79619 0.81877 0.46167
 C2188 C 0.79112 0.80442 0.45886
 C2189 C 0.81090 0.80759 0.40843
 C2190 C 0.81672 0.81434 0.39854
 C2191 C 0.77925 0.77534 0.45278
 C2192 C 0.77098 0.76868 0.46083
 H2193 H 0.78079 0.75505 0.43335
 H2194 H 0.78556 0.74397 0.40945
 H2195 H 0.79873 0.75805 0.39015
 H2196 H 0.80719 0.78328 0.39465
 H2197 H 0.81235 0.82671 0.42912
 H2198 H 0.80776 0.83773 0.45313
 H2199 H 0.79419 0.82382 0.47228
 H2200 H 0.78529 0.79873 0.46760
 C2201 C 0.72051 0.28878 0.55833
 C2202 C 0.72386 0.28756 0.57350
 C2203 C 0.71519 0.29539 0.58398
 C2204 C 0.70331 0.30449 0.57921
 C2205 C 0.70022 0.30603 0.56401
 C2206 C 0.70884 0.29811 0.55354
 C2207 C 0.70548 0.29969 0.53842
 C2208 C 0.69394 0.30888 0.53378
 C2209 C 0.68553 0.31666 0.54402
 C2210 C 0.68859 0.31529 0.55898
 C2211 C 0.71863 0.29384 0.59910
 C2212 C 0.73033 0.28485 0.60373
 C2213 C 0.73884 0.27723 0.59348
 C2214 C 0.73570 0.27853 0.57853
 C2215 C 0.69420 0.31209 0.58999
 C2216 C 0.68685 0.31820 0.59924
 C2217 C 0.72869 0.27978 0.54789
 C2218 C 0.73563 0.27158 0.54001
 H2219 H 0.71176 0.29389 0.53006
 H2220 H 0.69151 0.30998 0.52217
 H2221 H 0.67659 0.32380 0.54035
 H2222 H 0.68176 0.32157 0.56654
 H2223 H 0.71235 0.29955 0.60751
 H2224 H 0.73280 0.28379 0.61533
 H2225 H 0.74794 0.27028 0.59711
 H2226 H 0.74269 0.27241 0.57100
 C2227 C 0.71972 0.78824 1.05855
 C2228 C 0.71914 0.78335 1.07335
 C2229 C 0.71060 0.79134 1.08382
 C2230 C 0.70268 0.80420 1.07944
 C2231 C 0.70331 0.80913 1.06466
 C2232 C 0.71184 0.80110 1.05417
 C2233 C 0.71224 0.80616 1.03945
 C2234 C 0.70448 0.81886 1.03521
 C2235 C 0.69619 0.82675 1.04546
 C2236 C 0.69557 0.82199 1.06004
 C2237 C 0.71019 0.78621 1.09854
 C2238 C 0.71800 0.77356 1.10280
 C2239 C 0.72636 0.76574 1.09258
 C2240 C 0.72696 0.77052 1.07802
 C2241 C 0.69391 0.81223 1.09022
 C2242 C 0.68683 0.81847 1.09961
 C2243 C 0.72835 0.77980 1.04797
 C2244 C 0.73568 0.77197 1.04005
 H2245 H 0.71854 0.80037 1.03110
 H2246 H 0.70490 0.82259 1.02389
 H2247 H 0.69021 0.83661 1.04210
 H2248 H 0.68898 0.82848 1.06763
 H2249 H 0.70385 0.79190 1.10692
 H2250 H 0.71756 0.76980 1.11411
 H2251 H 0.73241 0.75591 1.09593
 H2252 H 0.73361 0.76403 1.07050
 C2253 C 0.21899 0.28640 1.05884
 C2254 C 0.22049 0.28302 1.07399
 C2255 C 0.21218 0.29110 1.08457
 C2256 C 0.20236 0.30248 1.07996
 C2257 C 0.20094 0.30592 1.06482
 C2258 C 0.20930 0.29786 1.05423
 C2259 C 0.20772 0.30149 1.03918
 C2260 C 0.19816 0.31280 1.03469
 C2261 C 0.18998 0.32067 1.04504
 C2262 C 0.19129 0.31730 1.05995
 C2263 C 0.21391 0.28753 1.09965
 C2264 C 0.22352 0.27628 1.10414
 C2265 C 0.23160 0.26833 1.09378
 C2266 C 0.23015 0.27161 1.07888
 C2267 C 0.19371 0.31047 1.09086
 C2268 C 0.18675 0.31677 1.10030
 C2269 C 0.22732 0.27781 1.04816
 C2270 C 0.23450 0.26998 1.04012
 H2271 H 0.21386 0.29565 1.03074
 H2272 H 0.19711 0.31546 1.02313
 H2273 H 0.18257 0.32944 1.04149
 H2274 H 0.18469 0.32371 1.06759
 H2275 H 0.20787 0.29338 1.10814
 H2276 H 0.22470 0.27371 1.11571
 H2277 H 0.23904 0.25958 1.09731
 H2278 H 0.23669 0.26510 1.07128
 C2279 C 0.21272 0.78224 0.55744
 C2280 C 0.20404 0.79449 0.55282
 C2281 C 0.19624 0.80311 0.56339
 C2282 C 0.19724 0.79947 0.57851
 C2283 C 0.20569 0.78703 0.58309
 C2284 C 0.21341 0.77837 0.57253
 C2285 C 0.22178 0.76597 0.57739
 C2286 C 0.22254 0.76229 0.59226
 C2287 C 0.21504 0.77080 0.60259
 C2288 C 0.20669 0.78304 0.59813
 C2289 C 0.18763 0.81531 0.55852
 C2290 C 0.18677 0.81890 0.54364
 C2291 C 0.19444 0.81049 0.53331
 C2292 C 0.20299 0.79841 0.53779
 C2293 C 0.18963 0.80843 0.58942
 C2294 C 0.18341 0.81549 0.59883
 C2295 C 0.22162 0.77402 0.54693
 C2296 C 0.22977 0.76701 0.53905
 H2297 H 0.22779 0.75896 0.56979
 H2298 H 0.22898 0.75277 0.59577
 H2299 H 0.21567 0.76791 0.61413
 H2300 H 0.20104 0.78929 0.60660
 H2301 H 0.18146 0.82216 0.56615
 H2302 H 0.18013 0.82827 0.54010
 H2303 H 0.19374 0.81334 0.52177
 H2304 H 0.20872 0.79215 0.52937
 C2305 C 0.29027 0.72076 0.55916
 C2306 C 0.29882 0.70821 0.55515
 C2307 C 0.30659 0.70006 0.56613
 C2308 C 0.30564 0.70443 0.58106
 C2309 C 0.29738 0.71719 0.58501
 C2310 C 0.28969 0.72539 0.57403
 C2311 C 0.28142 0.73806 0.57828
 C2312 C 0.28074 0.74249 0.59294
 C2313 C 0.28825 0.73446 0.60367
 C2314 C 0.29649 0.72196 0.59982
 C2315 C 0.31507 0.68756 0.56187
 C2316 C 0.31580 0.68319 0.54718
 C2317 C 0.30813 0.69111 0.53647
 C2318 C 0.29972 0.70350 0.54035
 C2319 C 0.31280 0.69565 0.59244
 C2320 C 0.31847 0.68856 0.60220
 C2321 C 0.28137 0.72850 0.54826
 C2322 C 0.27323 0.73514 0.54003
 H2323 H 0.27541 0.74471 0.57035
 H2324 H 0.27436 0.75220 0.59598
 H2325 H 0.28770 0.73794 0.61505
 H2326 H 0.30215 0.71610 0.60857
 H2327 H 0.32124 0.68107 0.56981
 H2328 H 0.32234 0.67360 0.54411
 H2329 H 0.30870 0.68765 0.52509
 H2330 H 0.29398 0.70935 0.53163
 C2331 C 0.28501 0.21281 1.05891
 C2332 C 0.29270 0.19969 1.05500
 C2333 C 0.30113 0.19193 1.06578
 C2334 C 0.30175 0.19731 1.08039
 C2335 C 0.29399 0.21040 1.08431
 C2336 C 0.28565 0.21821 1.07353
 C2337 C 0.27808 0.23134 1.07771
 C2338 C 0.27861 0.23651 1.09214
 C2339 C 0.28671 0.22882 1.10269
 C2340 C 0.29435 0.21593 1.09889
 C2341 C 0.30877 0.17886 1.06163
 C2342 C 0.30804 0.17355 1.04726
 C2343 C 0.29974 0.18110 1.03674
 C2344 C 0.29217 0.19406 1.04050
 C2345 C 0.31024 0.18940 1.09148
 C2346 C 0.31707 0.18305 1.10099
 C2347 C 0.27633 0.22088 1.04808
 C2348 C 0.26887 0.22841 1.03999
 H2349 H 0.27167 0.23777 1.06992
 H2350 H 0.27271 0.24654 1.09513
 H2351 H 0.28711 0.23289 1.11388
 H2352 H 0.30050 0.21036 1.10750
 H2353 H 0.31538 0.17262 1.06943
 H2354 H 0.31394 0.16352 1.04428
 H2355 H 0.29918 0.17690 1.02561
 H2356 H 0.28591 0.19960 1.03194
 C2357 C 0.78315 0.71146 1.05911
 C2358 C 0.79750 0.70606 1.05573
 C2359 C 0.80572 0.69810 1.06652
 C2360 C 0.79956 0.69565 1.08063
 C2361 C 0.78503 0.70067 1.08386
 C2362 C 0.77680 0.70857 1.07306
 C2363 C 0.76233 0.71358 1.07658
 C2364 C 0.75617 0.71085 1.09037
 C2365 C 0.76422 0.70311 1.10093
 C2366 C 0.77849 0.69807 1.09778
 C2367 C 0.82006 0.69284 1.06291
 C2368 C 0.82612 0.69541 1.04905
 C2369 C 0.81811 0.70326 1.03853
 C2370 C 0.80395 0.70855 1.04177
 C2371 C 0.80824 0.68833 1.09197
 C2372 C 0.81527 0.68241 1.10162
 C2373 C 0.77524 0.72077 1.04869
 C2374 C 0.76848 0.72908 1.04074
 H2375 H 0.75560 0.71960 1.06872
 H2376 H 0.74510 0.71476 1.09286
 H2377 H 0.75937 0.70100 1.11162
 H2378 H 0.78430 0.69211 1.10637
 H2379 H 0.82670 0.68668 1.07074
 H2380 H 0.83709 0.69128 1.04646
 H2381 H 0.82289 0.70525 1.02779
 H2382 H 0.79812 0.71455 1.03323
 C2383 C 0.78261 0.21124 0.55903
 C2384 C 0.79538 0.20310 0.55490
 C2385 C 0.80364 0.19523 0.56574
 C2386 C 0.79912 0.19561 0.58065
 C2387 C 0.78618 0.20353 0.58473
 C2388 C 0.77790 0.21134 0.57389
 C2389 C 0.76503 0.21922 0.57827
 C2390 C 0.76048 0.21938 0.59291
 C2391 C 0.76860 0.21176 0.60350
 C2392 C 0.78131 0.20392 0.59952
 C2393 C 0.81638 0.18719 0.56135
 C2394 C 0.82083 0.18693 0.54668
 C2395 C 0.81278 0.19466 0.53610
 C2396 C 0.80019 0.20268 0.54011
 C2397 C 0.80779 0.18803 0.59185
 C2398 C 0.81472 0.18188 0.60143
 C2399 C 0.77467 0.22017 0.54828
 C2400 C 0.76784 0.22829 0.54017
 H2401 H 0.75831 0.22530 0.57045
 H2402 H 0.75061 0.22545 0.59604
 H2403 H 0.76503 0.21193 0.61486
 H2404 H 0.78723 0.19817 0.60817
 H2405 H 0.82299 0.18101 0.56918
 H2406 H 0.83059 0.18070 0.54350
 H2407 H 0.81629 0.19443 0.52473
 H2408 H 0.79425 0.20850 0.53150
 C2409 C 0.71250 0.71963 0.44248
 C2410 C 0.69973 0.71156 0.44668
 C2411 C 0.69197 0.70294 0.43607
 C2412 C 0.69711 0.70239 0.42137
 C2413 C 0.70991 0.71046 0.41718
 C2414 C 0.71763 0.71909 0.42776
 C2415 C 0.73045 0.72703 0.42331
 C2416 C 0.73544 0.72648 0.40883
 C2417 C 0.72786 0.71807 0.39848
 C2418 C 0.71524 0.71012 0.40254
 C2419 C 0.67917 0.69503 0.44049
 C2420 C 0.67422 0.69555 0.45500
 C2421 C 0.68186 0.70390 0.46539
 C2422 C 0.69448 0.71186 0.46133
 C2423 C 0.68929 0.69359 0.41048
 C2424 C 0.68305 0.68650 0.40111
 C2425 C 0.72061 0.72842 0.45314
 C2426 C 0.72825 0.73587 0.46111
 H2427 H 0.73676 0.73373 0.43094
 H2428 H 0.74524 0.73263 0.40565
 H2429 H 0.73177 0.71769 0.38723
 H2430 H 0.70975 0.70373 0.39407
 H2431 H 0.67286 0.68838 0.43280
 H2432 H 0.66441 0.68942 0.45820
 H2433 H 0.67799 0.70424 0.47665
 H2434 H 0.70007 0.71822 0.46977
 C2435 C 0.72031 0.21168 -0.05766
 C2436 C 0.72534 0.21117 -0.07241
 C2437 C 0.71707 0.20322 -0.08313
 C2438 C 0.70383 0.19583 -0.07906
 C2439 C 0.69902 0.19603 -0.06424
 C2440 C 0.70729 0.20398 -0.05350
 C2441 C 0.70221 0.20412 -0.03879
 C2442 C 0.68932 0.19658 -0.03478
 C2443 C 0.68123 0.18882 -0.04529
 C2444 C 0.68597 0.18852 -0.05987
 C2445 C 0.72224 0.20298 -0.09783
 C2446 C 0.73520 0.21037 -0.10183
 C2447 C 0.74330 0.21814 -0.09135
 C2448 C 0.73848 0.21858 -0.07680
 C2449 C 0.69503 0.18841 -0.09024
 C2450 C 0.68792 0.18253 -0.09985
 C2451 C 0.72820 0.22080 -0.04708
 C2452 C 0.73502 0.22905 -0.03914
 H2453 H 0.70815 0.21001 -0.03024
 H2454 H 0.68560 0.19675 -0.02346
 H2455 H 0.67122 0.18300 -0.04213
 H2456 H 0.67932 0.18232 -0.06764
 H2457 H 0.71635 0.19706 -0.10638
 H2458 H 0.73897 0.21006 -0.11312
 H2459 H 0.75337 0.22385 -0.09451
 H2460 H 0.74519 0.22476 -0.06907
 C2461 C 0.22108 0.71139 -0.05853
 C2462 C 0.20726 0.70514 -0.05454
 C2463 C 0.19891 0.69696 -0.06506
 C2464 C 0.20446 0.69509 -0.07951
 C2465 C 0.21856 0.70085 -0.08332
 C2466 C 0.22691 0.70898 -0.07279
 C2467 C 0.24096 0.71466 -0.07688
 C2468 C 0.24657 0.71244 -0.09098
 C2469 C 0.23836 0.70457 -0.10130
 C2470 C 0.22452 0.69881 -0.09758
 C2471 C 0.18505 0.69094 -0.06087
 C2472 C 0.17960 0.69290 -0.04666
 C2473 C 0.18777 0.70086 -0.03637
 C2474 C 0.20145 0.70695 -0.04021
 C2475 C 0.19555 0.68765 -0.09059
 C2476 C 0.18832 0.68175 -0.10009
 C2477 C 0.22891 0.72113 -0.04844
 C2478 C 0.23556 0.72980 -0.04077
 H2479 H 0.24779 0.72081 -0.06923
 H2480 H 0.25734 0.71686 -0.09391
 H2481 H 0.24275 0.70291 -0.11226
 H2482 H 0.21858 0.69273 -0.10598
 H2483 H 0.17832 0.68463 -0.06849
 H2484 H 0.16898 0.68820 -0.04363
 H2485 H 0.18349 0.70233 -0.02535
 H2486 H 0.20744 0.71302 -0.03183
 C2487 C 0.21988 0.21273 0.44240
 C2488 C 0.20698 0.20492 0.44674
 C2489 C 0.19864 0.19689 0.43613
 C2490 C 0.20327 0.19672 0.42126
 C2491 C 0.21642 0.20417 0.41701
 C2492 C 0.22474 0.21221 0.42761
 C2493 C 0.23777 0.21971 0.42306
 C2494 C 0.24243 0.21927 0.40846
 C2495 C 0.23431 0.21138 0.39810
 C2496 C 0.22146 0.20389 0.40226
 C2497 C 0.18572 0.18926 0.44068
 C2498 C 0.18117 0.18955 0.45533
 C2499 C 0.18934 0.19740 0.46571
 C2500 C 0.20211 0.20503 0.46152
 C2501 C 0.19443 0.18922 0.41018
 C2502 C 0.18745 0.18325 0.40056
 C2503 C 0.22777 0.22201 0.45282
 C2504 C 0.23455 0.23037 0.46067
 H2505 H 0.24451 0.22597 0.43070
 H2506 H 0.25241 0.22509 0.40518
 H2507 H 0.23797 0.21107 0.38677
 H2508 H 0.21554 0.19788 0.39379
 H2509 H 0.17903 0.18299 0.43300
 H2510 H 0.17126 0.18364 0.45864
 H2511 H 0.18577 0.19757 0.47707
 H2512 H 0.20813 0.21097 0.46998
 C2513 C 0.27803 0.44050 0.71021
 C2514 C 0.29163 0.44447 0.70351
 C2515 C 0.29986 0.43366 0.69555
 C2516 C 0.29444 0.41895 0.69436
 C2517 C 0.28060 0.41511 0.70066
 C2518 C 0.27236 0.42592 0.70859
 C2519 C 0.25862 0.42178 0.71492
 C2520 C 0.25318 0.40737 0.71347
 C2521 C 0.26125 0.39679 0.70574
 C2522 C 0.27480 0.40055 0.69938
 C2523 C 0.31351 0.43785 0.68908
 C2524 C 0.31886 0.45231 0.69042
 C2525 C 0.31081 0.46287 0.69821
 C2526 C 0.29735 0.45905 0.70472
 C2527 C 0.30330 0.40759 0.68720
 C2528 C 0.31054 0.39787 0.68156
 C2529 C 0.27029 0.45100 0.71959
 C2530 C 0.26376 0.45900 0.72800
 H2531 H 0.25193 0.42961 0.72103
 H2532 H 0.24265 0.40440 0.71837
 H2533 H 0.25699 0.38560 0.70467
 H2534 H 0.28065 0.39193 0.69347
 H2535 H 0.32015 0.43002 0.68291
 H2536 H 0.32932 0.45533 0.68540
 H2537 H 0.31502 0.47408 0.69922
 H2538 H 0.29147 0.46764 0.71067
 C2539 C 0.28560 0.94038 0.21680
 C2540 C 0.28568 0.92528 0.22119
 C2541 C 0.29353 0.91460 0.21273
 C2542 C 0.30128 0.91909 0.19994
 C2543 C 0.30160 0.93425 0.19581
 C2544 C 0.29373 0.94494 0.20428
 C2545 C 0.29419 0.96002 0.19996
 C2546 C 0.30225 0.96445 0.18764
 C2547 C 0.30994 0.95400 0.17935
 C2548 C 0.30964 0.93905 0.18333
 C2549 C 0.29339 0.89956 0.21731
 C2550 C 0.28575 0.89521 0.22991
 C2551 C 0.27809 0.90566 0.23820
 C2552 C 0.27801 0.92052 0.23394
 C2553 C 0.30894 0.90803 0.19115
 C2554 C 0.31521 0.89845 0.18431
 C2555 C 0.27657 0.95092 0.22490
 C2556 C 0.26844 0.95885 0.23190
 H2557 H 0.28843 0.96854 0.20611
 H2558 H 0.30255 0.97605 0.18451
 H2559 H 0.31619 0.95749 0.16980
 H2560 H 0.31581 0.93133 0.17658
 H2561 H 0.29921 0.89101 0.21126
 H2562 H 0.28579 0.88367 0.23327
 H2563 H 0.27219 0.90224 0.24800
 H2564 H 0.27193 0.92822 0.24080
 C2565 C 0.78738 0.44085 0.21977
 C2566 C 0.78739 0.42576 0.22416
 C2567 C 0.79525 0.41505 0.21574
 C2568 C 0.80307 0.41950 0.20297
 C2569 C 0.80344 0.43467 0.19885
 C2570 C 0.79556 0.44539 0.20728
 C2571 C 0.79604 0.46047 0.20293
 C2572 C 0.80410 0.46486 0.19060
 C2573 C 0.81180 0.45439 0.18235
 C2574 C 0.81150 0.43945 0.18637
 C2575 C 0.79503 0.40002 0.22033
 C2576 C 0.78727 0.39569 0.23287
 C2577 C 0.77958 0.40616 0.24110
 C2578 C 0.77961 0.42103 0.23686
 C2579 C 0.81055 0.40839 0.19409
 C2580 C 0.81659 0.39876 0.18708
 C2581 C 0.77834 0.45142 0.22783
 C2582 C 0.77019 0.45935 0.23481
 H2583 H 0.79025 0.46900 0.20904
 H2584 H 0.80439 0.47645 0.18743
 H2585 H 0.81805 0.45786 0.17278
 H2586 H 0.81769 0.43171 0.17964
 H2587 H 0.80086 0.39145 0.21432
 H2588 H 0.78723 0.38415 0.23622
 H2589 H 0.77358 0.40276 0.25085
 H2590 H 0.77350 0.42874 0.24367
 C2591 C 0.77916 0.94163 0.71306
 C2592 C 0.77400 0.92690 0.71120
 C2593 C 0.78263 0.91650 0.70318
 C2594 C 0.79637 0.92092 0.69703
 C2595 C 0.80130 0.93577 0.69847
 C2596 C 0.79266 0.94617 0.70652
 C2597 C 0.79785 0.96092 0.70791
 C2598 C 0.81117 0.96531 0.70146
 C2599 C 0.81964 0.95513 0.69361
 C2600 C 0.81482 0.94050 0.69211
 C2601 C 0.77731 0.90178 0.70163
 C2602 C 0.76381 0.89751 0.70777
 C2603 C 0.75533 0.90771 0.71556
 C2604 C 0.76033 0.92223 0.71733
 C2605 C 0.80554 0.91009 0.68954
 C2606 C 0.81302 0.90090 0.68341
 C2607 C 0.77094 0.95175 0.72241
 C2608 C 0.76400 0.95950 0.73073
 H2609 H 0.79163 0.96922 0.71391
 H2610 H 0.81493 0.97667 0.70255
 H2611 H 0.83000 0.95857 0.68866
 H2612 H 0.82179 0.93299 0.68590
 H2613 H 0.78350 0.89344 0.69566
 H2614 H 0.75989 0.88622 0.70647
 H2615 H 0.74482 0.90437 0.72026
 H2616 H 0.75333 0.92975 0.72349
 C2617 C 0.70821 0.55738 0.71808
 C2618 C 0.71190 0.55993 0.70315
 C2619 C 0.70388 0.57065 0.69484
 C2620 C 0.69224 0.57878 0.70152
 C2621 C 0.68808 0.57570 0.71623
 C2622 C 0.69610 0.56498 0.72454
 C2623 C 0.69189 0.56224 0.73928
 C2624 C 0.68003 0.56983 0.74562
 C2625 C 0.67214 0.58026 0.73748
 C2626 C 0.67609 0.58324 0.72295
 C2627 C 0.70786 0.57310 0.67998
 C2628 C 0.71945 0.56520 0.67352
 C2629 C 0.72732 0.55477 0.68165
 C2630 C 0.72363 0.55211 0.69630
 C2631 C 0.68518 0.59085 0.69354
 C2632 C 0.67974 0.60113 0.68695
 C2633 C 0.71752 0.54777 0.72700
 C2634 C 0.72582 0.54032 0.73434
 H2635 H 0.69765 0.55417 0.74601
 H2636 H 0.67693 0.56758 0.75690
 H2637 H 0.66290 0.58608 0.74245
 H2638 H 0.66961 0.59143 0.71705
 H2639 H 0.70204 0.58108 0.67319
 H2640 H 0.72232 0.56719 0.66213
 H2641 H 0.73632 0.54867 0.67659
 H2642 H 0.73003 0.54381 0.70216
 C2643 C 0.71680 0.05803 0.21175
 C2644 C 0.72399 0.07090 0.20633
 C2645 C 0.71576 0.08175 0.19839
 C2646 C 0.70039 0.07966 0.19589
 C2647 C 0.69334 0.06651 0.20081
 C2648 C 0.70157 0.05567 0.20877
 C2649 C 0.69425 0.04269 0.21369
 C2650 C 0.67923 0.04044 0.21078
 C2651 C 0.67120 0.05103 0.20298
 C2652 C 0.67811 0.06395 0.19805
 C2653 C 0.72318 0.09459 0.19321
 C2654 C 0.73829 0.09663 0.19577
 C2655 C 0.74632 0.08604 0.20353
 C2656 C 0.73931 0.07331 0.20880
 C2657 C 0.69184 0.09121 0.18858
 C2658 C 0.68501 0.10102 0.18256
 C2659 C 0.72488 0.04785 0.22125
 C2660 C 0.73176 0.04013 0.22969
 H2661 H 0.70006 0.03413 0.21977
 H2662 H 0.67381 0.03043 0.21459
 H2663 H 0.65955 0.04922 0.20073
 H2664 H 0.67141 0.07186 0.19203
 H2665 H 0.71741 0.10315 0.18711
 H2666 H 0.74379 0.10650 0.19169
 H2667 H 0.75805 0.08768 0.20549
 H2668 H 0.74605 0.06538 0.21476
 C2669 C 0.21458 0.55858 0.21129
 C2670 C 0.19943 0.56114 0.21453
 C2671 C 0.19137 0.57208 0.20655
 C2672 C 0.19851 0.58036 0.19536
 C2673 C 0.21348 0.57733 0.19170
 C2674 C 0.22153 0.56639 0.19968
 C2675 C 0.23651 0.56362 0.19591
 C2676 C 0.24336 0.57144 0.18456
 C2677 C 0.23551 0.58218 0.17678
 C2678 C 0.22075 0.58515 0.18027
 C2679 C 0.17630 0.57459 0.21012
 C2680 C 0.16937 0.56649 0.22123
 C2681 C 0.17723 0.55577 0.22900
 C2682 C 0.19210 0.55308 0.22575
 C2683 C 0.19063 0.59232 0.18801
 C2684 C 0.18426 0.60244 0.18202
 C2685 C 0.22328 0.54879 0.22062
 C2686 C 0.23061 0.54124 0.22883
 H2687 H 0.24305 0.55535 0.20163
 H2688 H 0.25481 0.56915 0.18180
 H2689 H 0.24090 0.58823 0.16799
 H2690 H 0.21510 0.59358 0.17388
 H2691 H 0.16971 0.58279 0.20436
 H2692 H 0.15783 0.56855 0.22381
 H2693 H 0.17179 0.54949 0.23761
 H2694 H 0.19775 0.54460 0.23206
 C2695 C 0.21900 0.06070 0.71168
 C2696 C 0.22282 0.07590 0.71309
 C2697 C 0.21460 0.08687 0.70534
 C2698 C 0.20270 0.08258 0.69612
 C2699 C 0.19908 0.06736 0.69446
 C2700 C 0.20724 0.05639 0.70230
 C2701 C 0.20332 0.04127 0.70062
 C2702 C 0.19169 0.03710 0.69140
 C2703 C 0.18374 0.04782 0.68370
 C2704 C 0.18735 0.06280 0.68516
 C2705 C 0.21849 0.10200 0.70712
 C2706 C 0.23020 0.10617 0.71624
 C2707 C 0.23830 0.09543 0.72374
 C2708 C 0.23470 0.08046 0.72224
 C2709 C 0.19412 0.09387 0.68850
 C2710 C 0.18717 0.10349 0.68234
 C2711 C 0.22676 0.04974 0.72052
 C2712 C 0.23336 0.04142 0.72859
 H2713 H 0.20921 0.03254 0.70637
 H2714 H 0.18883 0.02548 0.69023
 H2715 H 0.17472 0.04452 0.67655
 H2716 H 0.18086 0.07073 0.67894
 H2717 H 0.21253 0.11078 0.70152
 H2718 H 0.23301 0.11779 0.71747
 H2719 H 0.24741 0.09871 0.73078
 H2720 H 0.24136 0.07255 0.72830
 C2721 C 0.28331 0.55822 0.28576
 C2722 C 0.29371 0.56712 0.27809
 C2723 C 0.30246 0.57762 0.28588
 C2724 C 0.30080 0.57909 0.30128
 C2725 C 0.29087 0.56975 0.30903
 C2726 C 0.28210 0.55926 0.30123
 C2727 C 0.27219 0.55009 0.30917
 C2728 C 0.27096 0.55126 0.32441
 C2729 C 0.27951 0.56155 0.33203
 C2730 C 0.28937 0.57072 0.32448
 C2731 C 0.31263 0.58654 0.27796
 C2732 C 0.31414 0.58511 0.26278
 C2733 C 0.30563 0.57480 0.25517
 C2734 C 0.29551 0.56588 0.26267
 C2735 C 0.30884 0.59065 0.30903
 C2736 C 0.31528 0.60053 0.31525
 C2737 C 0.27340 0.54864 0.27754
 C2738 C 0.26523 0.54122 0.27006
 H2739 H 0.26536 0.54189 0.30371
 H2740 H 0.26335 0.54415 0.33033
 H2741 H 0.27851 0.56243 0.34385
 H2742 H 0.29583 0.57851 0.33089
 H2743 H 0.31954 0.59468 0.28341
 H2744 H 0.32197 0.59202 0.25691
 H2745 H 0.30687 0.57369 0.24338
 H2746 H 0.28919 0.55799 0.25626
 C2747 C 0.27866 0.05831 0.79015
 C2748 C 0.29158 0.05397 0.79789
 C2749 C 0.29996 0.06475 0.80575
 C2750 C 0.29540 0.07981 0.80574
 C2751 C 0.28228 0.08407 0.79828
 C2752 C 0.27384 0.07328 0.79054
 C2753 C 0.26077 0.07784 0.78314
 C2754 C 0.25622 0.09262 0.78331
 C2755 C 0.26452 0.10319 0.79080
 C2756 C 0.27740 0.09903 0.79823
 C2757 C 0.31288 0.06017 0.81334
 C2758 C 0.31742 0.04537 0.81315
 C2759 C 0.30925 0.03484 0.80544
 C2760 C 0.29646 0.03903 0.79787
 C2761 C 0.30434 0.09102 0.81304
 C2762 C 0.31158 0.10065 0.81883
 C2763 C 0.27081 0.04776 0.78091
 C2764 C 0.26412 0.03991 0.77247
 H2765 H 0.25390 0.07004 0.77718
 H2766 H 0.24620 0.09589 0.77759
 H2767 H 0.26097 0.11468 0.79085
 H2768 H 0.28346 0.10766 0.80391
 H2769 H 0.31959 0.06796 0.81950
 H2770 H 0.32735 0.04206 0.81901
 H2771 H 0.31284 0.02337 0.80531
 H2772 H 0.29043 0.03047 0.79205
 C2773 C 0.78614 0.55871 0.78229
 C2774 C 0.79048 0.57234 0.77582
 C2775 C 0.79793 0.58320 0.78441
 C2776 C 0.80112 0.58032 0.79940
 C2777 C 0.79721 0.56648 0.80573
 C2778 C 0.78972 0.55563 0.79714
 C2779 C 0.78587 0.54191 0.80370
 C2780 C 0.78934 0.53897 0.81836
 C2781 C 0.79667 0.54958 0.82676
 C2782 C 0.80058 0.56320 0.82057
 C2783 C 0.80198 0.59682 0.77773
 C2784 C 0.79880 0.59961 0.76299
 C2785 C 0.79156 0.58897 0.75458
 C2786 C 0.78742 0.57547 0.76086
 C2787 C 0.80838 0.59161 0.80822
 C2788 C 0.81448 0.60121 0.81519
 C2789 C 0.77701 0.54846 0.77393
 C2790 C 0.76883 0.54067 0.76685
 H2791 H 0.78022 0.53329 0.79757
 H2792 H 0.78632 0.52842 0.82323
 H2793 H 0.79935 0.54725 0.83814
 H2794 H 0.80627 0.57110 0.82754
 H2795 H 0.80763 0.60545 0.78381
 H2796 H 0.80198 0.61009 0.75807
 H2797 H 0.78912 0.59118 0.74313
 H2798 H 0.78187 0.56753 0.75383
 C2799 C 0.77900 0.05990 0.28941
 C2800 C 0.79059 0.05518 0.29882
 C2801 C 0.79910 0.06587 0.30667
 C2802 C 0.79595 0.08120 0.30505
 C2803 C 0.78419 0.08590 0.29583
 C2804 C 0.77570 0.07522 0.28797
 C2805 C 0.76409 0.08022 0.27869
 C2806 C 0.76096 0.09530 0.27723
 C2807 C 0.76924 0.10573 0.28492
 C2808 C 0.78072 0.10115 0.29413
 C2809 C 0.81070 0.06089 0.31593
 C2810 C 0.81382 0.04580 0.31740
 C2811 C 0.80549 0.03536 0.30974
 C2812 C 0.79399 0.03994 0.30053
 C2813 C 0.80496 0.09221 0.31257
 C2814 C 0.81227 0.10163 0.31857
 C2815 C 0.77081 0.04919 0.28066
 C2816 C 0.76386 0.04103 0.27272
 H2817 H 0.75730 0.07255 0.27248
 H2818 H 0.75204 0.09891 0.27008
 H2819 H 0.76677 0.11744 0.28374
 H2820 H 0.78683 0.10970 0.29990
 H2821 H 0.81747 0.06860 0.32212
 H2822 H 0.82275 0.04218 0.32451
 H2823 H 0.80795 0.02365 0.31093
 H2824 H 0.78781 0.03142 0.29480
 C2825 C 0.71214 0.44179 0.28572
 C2826 C 0.69689 0.43928 0.28296
 C2827 C 0.68905 0.42839 0.29122
 C2828 C 0.69652 0.42004 0.30216
 C2829 C 0.71164 0.42295 0.30530
 C2830 C 0.71945 0.43387 0.29708
 C2831 C 0.73458 0.43650 0.30036
 C2832 C 0.74178 0.42858 0.31144
 C2833 C 0.73415 0.41788 0.31944
 C2834 C 0.71926 0.41504 0.31645
 C2835 C 0.67384 0.42602 0.28819
 C2836 C 0.66656 0.43420 0.27733
 C2837 C 0.67423 0.44482 0.26925
 C2838 C 0.68924 0.44736 0.27197
 C2839 C 0.68887 0.40809 0.30980
 C2840 C 0.68277 0.39794 0.31601
 C2841 C 0.72060 0.45180 0.27638
 C2842 C 0.72829 0.45948 0.26864
 H2843 H 0.74100 0.44472 0.29445
 H2844 H 0.75335 0.43076 0.31381
 H2845 H 0.73981 0.41174 0.32802
 H2846 H 0.71380 0.40661 0.32299
 H2847 H 0.66740 0.41789 0.29419
 H2848 H 0.65491 0.43227 0.27518
 H2849 H 0.66853 0.45113 0.26083
 H2850 H 0.69475 0.45574 0.26541
 C2851 C 0.71570 0.94263 0.79124
 C2852 C 0.70073 0.93977 0.78746
 C2853 C 0.69257 0.92877 0.79523
 C2854 C 0.69941 0.92074 0.80678
 C2855 C 0.71417 0.92408 0.81100
 C2856 C 0.72233 0.93508 0.80321
 C2857 C 0.73709 0.93815 0.80754
 C2858 C 0.74364 0.93056 0.81922
 C2859 C 0.73570 0.91977 0.82681
 C2860 C 0.72112 0.91652 0.82280
 C2861 C 0.67769 0.92596 0.79110
 C2862 C 0.67105 0.93381 0.77964
 C2863 C 0.67901 0.94460 0.77207
 C2864 C 0.69368 0.94758 0.77588
 C2865 C 0.69147 0.90870 0.81394
 C2866 C 0.68501 0.89850 0.81969
 C2867 C 0.72457 0.95240 0.78206
 C2868 C 0.73190 0.95992 0.77384
 H2869 H 0.74369 0.94650 0.80200
 H2870 H 0.75494 0.93307 0.82240
 H2871 H 0.74084 0.91390 0.83586
 H2872 H 0.71537 0.90808 0.82906
 H2873 H 0.67103 0.91771 0.79669
 H2874 H 0.65965 0.93153 0.77664
 H2875 H 0.67378 0.95070 0.76321
 H2876 H 0.69940 0.95611 0.76970
 C2877 C 0.21654 0.44243 0.78917
 C2878 C 0.22314 0.43484 0.80114
 C2879 C 0.21492 0.42390 0.80895
 C2880 C 0.20015 0.42061 0.80473
 C2881 C 0.19336 0.42863 0.79314
 C2882 C 0.20157 0.43959 0.78536
 C2883 C 0.19458 0.44738 0.77373
 C2884 C 0.17991 0.44442 0.76989
 C2885 C 0.17190 0.43368 0.77747
 C2886 C 0.17849 0.42584 0.78897
 C2887 C 0.22183 0.41634 0.82077
 C2888 C 0.23642 0.41950 0.82476
 C2889 C 0.24444 0.43020 0.81712
 C2890 C 0.23793 0.43782 0.80544
 C2891 C 0.19216 0.40862 0.81193
 C2892 C 0.18568 0.39848 0.81775
 C2893 C 0.22542 0.45223 0.78003
 C2894 C 0.23272 0.45976 0.77178
 H2895 H 0.20034 0.45588 0.76755
 H2896 H 0.17473 0.45049 0.76098
 H2897 H 0.16051 0.43141 0.77443
 H2898 H 0.17180 0.41762 0.79457
 H2899 H 0.21603 0.40796 0.82707
 H2900 H 0.24154 0.41362 0.83383
 H2901 H 0.25577 0.43263 0.82027
 H2902 H 0.24457 0.44610 0.79987
 C2903 C 0.21028 0.94186 0.28312
 C2904 C 0.21756 0.93398 0.29453
 C2905 C 0.20965 0.92324 0.30288
 C2906 C 0.19447 0.92052 0.29985
 C2907 C 0.18704 0.92890 0.28891
 C2908 C 0.19498 0.93959 0.28051
 C2909 C 0.18736 0.94775 0.26955
 C2910 C 0.17229 0.94544 0.26699
 C2911 C 0.16452 0.93498 0.27519
 C2912 C 0.17176 0.92676 0.28603
 C2913 C 0.21723 0.91534 0.31407
 C2914 C 0.23217 0.91804 0.31698
 C2915 C 0.23988 0.92859 0.30886
 C2916 C 0.23272 0.93648 0.29774
 C2917 C 0.18672 0.90880 0.30768
 C2918 C 0.18065 0.89882 0.31417
 C2919 C 0.21883 0.95159 0.27362
 C2920 C 0.22658 0.95909 0.26578
 H2921 H 0.19294 0.95603 0.26293
 H2922 H 0.16661 0.95182 0.25860
 H2923 H 0.15282 0.93324 0.27315
 H2924 H 0.16525 0.91877 0.29215
 H2925 H 0.21170 0.90705 0.32072
 H2926 H 0.23779 0.91191 0.32559
 H2927 H 0.25147 0.93068 0.31119
 H2928 H 0.23920 0.94461 0.29176
 C2929 C 0.44257 0.29044 0.72021
 C2930 C 0.44532 0.29488 0.70554
 C2931 C 0.43437 0.30305 0.69767
 C2932 C 0.42078 0.30676 0.70456
 C2933 C 0.41831 0.30285 0.71945
 C2934 C 0.42926 0.29471 0.72731
 C2935 C 0.42649 0.29084 0.74215
 C2936 C 0.41325 0.29482 0.74899
 C2937 C 0.40251 0.30272 0.74128
 C2938 C 0.40496 0.30673 0.72668
 C2939 C 0.43725 0.30714 0.68292
 C2940 C 0.45058 0.30332 0.67614
 C2941 C 0.46130 0.29539 0.68386
 C2942 C 0.45876 0.29118 0.69839
 C2943 C 0.40907 0.31399 0.69622
 C2944 C 0.39911 0.31965 0.68936
 C2945 C 0.45274 0.28040 0.72763
 C2946 C 0.46045 0.27145 0.73389
 H2947 H 0.43453 0.28475 0.74862
 H2948 H 0.41131 0.29176 0.76034
 H2949 H 0.39223 0.30576 0.74664
 H2950 H 0.39628 0.31290 0.72116
 H2951 H 0.42926 0.31335 0.67649
 H2952 H 0.45261 0.30653 0.66485
 H2953 H 0.47165 0.29247 0.67855
 H2954 H 0.46744 0.28508 0.70398
 C2955 C 0.44284 0.79062 0.22011
 C2956 C 0.42817 0.79206 0.22550
 C2957 C 0.41731 0.79960 0.21699
 C2958 C 0.42120 0.80572 0.20317
 C2959 C 0.43600 0.80478 0.19805
 C2960 C 0.44686 0.79717 0.20654
 C2961 C 0.46153 0.79619 0.20112
 C2962 C 0.46539 0.80261 0.18771
 C2963 C 0.45478 0.81008 0.17942
 C2964 C 0.44023 0.81118 0.18447
 C2965 C 0.40266 0.80069 0.22251
 C2966 C 0.39887 0.79454 0.23606
 C2967 C 0.40952 0.78720 0.24441
 C2968 C 0.42400 0.78593 0.23924
 C2969 C 0.40985 0.81265 0.19416
 C2970 C 0.40009 0.81824 0.18698
 C2971 C 0.45332 0.78144 0.22810
 C2972 C 0.46112 0.77305 0.23494
 H2973 H 0.47016 0.79051 0.20722
 H2974 H 0.47668 0.80180 0.18374
 H2975 H 0.45784 0.81505 0.16901
 H2976 H 0.43236 0.81711 0.17765
 H2977 H 0.39398 0.80632 0.21644
 H2978 H 0.38762 0.79547 0.24011
 H2979 H 0.40654 0.78246 0.25495
 H2980 H 0.43188 0.78014 0.24617
 C2981 C 0.94215 0.28642 0.21797
 C2982 C 0.92877 0.29089 0.22482
 C2983 C 0.91798 0.29895 0.21668
 C2984 C 0.92063 0.30251 0.20174
 C2985 C 0.93422 0.29846 0.19503
 C2986 C 0.94500 0.29037 0.20317
 C2987 C 0.95843 0.28629 0.19620
 C2988 C 0.96114 0.29014 0.18161
 C2989 C 0.95062 0.29809 0.17365
 C2990 C 0.93728 0.30222 0.18023
 C2991 C 0.90462 0.30317 0.22373
 C2992 C 0.90202 0.29952 0.23840
 C2993 C 0.91257 0.29163 0.24636
 C2994 C 0.92581 0.28733 0.23970
 C2995 C 0.90920 0.30996 0.19324
 C2996 C 0.89940 0.31601 0.18649
 C2997 C 0.95245 0.27697 0.22591
 C2998 C 0.96036 0.26861 0.23268
 H2999 H 0.96696 0.28014 0.20197
 H3000 H 0.97148 0.28695 0.17644
 H3001 H 0.95279 0.30106 0.16232
 H3002 H 0.92943 0.30840 0.17361
 H3003 H 0.89607 0.30933 0.21802
 H3004 H 0.89175 0.30284 0.24362
 H3005 H 0.91050 0.28883 0.25775
 H3006 H 0.93369 0.28124 0.24637
 C3007 C 0.94025 0.78886 0.71968
 C3008 C 0.94462 0.79934 0.70892
 C3009 C 0.93367 0.80723 0.70078
 C3010 C 0.91842 0.80456 0.70345
 C3011 C 0.91405 0.79418 0.71432
 C3012 C 0.92500 0.78638 0.72251
 C3013 C 0.92035 0.77612 0.73340
 C3014 C 0.90534 0.77356 0.73603
 C3015 C 0.89465 0.78111 0.72794
 C3016 C 0.89888 0.79133 0.71722
 C3017 C 0.93830 0.81762 0.69004
 C3018 C 0.95332 0.82013 0.68740
 C3019 C 0.96401 0.81242 0.69536
 C3020 C 0.95978 0.80214 0.70602
 C3021 C 0.90720 0.81234 0.69493
 C3022 C 0.89772 0.81862 0.68791
 C3023 C 0.95127 0.78012 0.72753
 C3024 C 0.95953 0.77207 0.73427
 H3025 H 0.92822 0.76999 0.74002
 H3026 H 0.90201 0.76568 0.74439
 H3027 H 0.88300 0.77907 0.73002
 H3028 H 0.89014 0.79694 0.71125
 H3029 H 0.93039 0.82391 0.68360
 H3030 H 0.95667 0.82812 0.67914
 H3031 H 0.97566 0.81443 0.69327
 H3032 H 0.96848 0.79644 0.71198
 C3033 C 0.55753 0.28109 0.28809
 C3034 C 0.55336 0.29463 0.29480
 C3035 C 0.56405 0.30306 0.30270
 C3036 C 0.57886 0.29790 0.30377
 C3037 C 0.58296 0.28420 0.29729
 C3038 C 0.57226 0.27578 0.28942
 C3039 C 0.57666 0.26218 0.28291
 C3040 C 0.59119 0.25706 0.28414
 C3041 C 0.60164 0.26528 0.29185
 C3042 C 0.59764 0.27870 0.29838
 C3043 C 0.55964 0.31658 0.30930
 C3044 C 0.54508 0.32167 0.30807
 C3045 C 0.53464 0.31345 0.30030
 C3046 C 0.53867 0.30007 0.29371
 C3047 C 0.59000 0.30674 0.31126
 C3048 C 0.59959 0.31376 0.31735
 C3049 C 0.54704 0.27292 0.27911
 C3050 C 0.53917 0.26586 0.27101
 H3051 H 0.56894 0.25535 0.27681
 H3052 H 0.59434 0.24664 0.27908
 H3053 H 0.61292 0.26126 0.29278
 H3054 H 0.60618 0.28468 0.30428
 H3055 H 0.56738 0.32335 0.31546
 H3056 H 0.54189 0.33205 0.31318
 H3057 H 0.52336 0.31747 0.29937
 H3058 H 0.53017 0.29405 0.28779
 C3059 C 0.55857 0.78287 0.78687
 C3060 C 0.57173 0.77590 0.79183
 C3061 C 0.58254 0.78424 0.79965
 C3062 C 0.58007 0.79951 0.80252
 C3063 C 0.56669 0.80636 0.79798
 C3064 C 0.55591 0.79801 0.79011
 C3065 C 0.54268 0.80512 0.78557
 C3066 C 0.54016 0.82006 0.78872
 C3067 C 0.55070 0.82822 0.79643
 C3068 C 0.56383 0.82150 0.80103
 C3069 C 0.59569 0.77704 0.80435
 C3070 C 0.59808 0.76204 0.80141
 C3071 C 0.58749 0.75388 0.79379
 C3072 C 0.57445 0.76067 0.78904
 C3073 C 0.59138 0.80813 0.81003
 C3074 C 0.60097 0.81495 0.81632
 C3075 C 0.54832 0.77466 0.77764
 C3076 C 0.54048 0.76761 0.76949
 H3077 H 0.53414 0.79921 0.77960
 H3078 H 0.52997 0.82533 0.78517
 H3079 H 0.54869 0.83981 0.79885
 H3080 H 0.57169 0.82828 0.80702
 H3081 H 0.60424 0.78290 0.81034
 H3082 H 0.60820 0.75672 0.80506
 H3083 H 0.58938 0.74222 0.79155
 H3084 H 0.56653 0.75383 0.78320
 C3085 C 0.05857 0.28219 0.78772
 C3086 C 0.07279 0.27612 0.79052
 C3087 C 0.08365 0.28470 0.79798
 C3088 C 0.08024 0.29933 0.80262
 C3089 C 0.06591 0.30527 0.80012
 C3090 C 0.05503 0.29667 0.79266
 C3091 C 0.04081 0.30285 0.79022
 C3092 C 0.03742 0.31715 0.79502
 C3093 C 0.04805 0.32558 0.80230
 C3094 C 0.06215 0.31976 0.80486
 C3095 C 0.09783 0.27841 0.80055
 C3096 C 0.10116 0.26406 0.79587
 C3097 C 0.09053 0.25566 0.78858
 C3098 C 0.07649 0.26156 0.78591
 C3099 C 0.09153 0.30819 0.80988
 C3100 C 0.10117 0.31514 0.81597
 C3101 C 0.04802 0.27383 0.77896
 C3102 C 0.04002 0.26665 0.77107
 H3103 H 0.03218 0.29670 0.78463
 H3104 H 0.02647 0.32171 0.79309
 H3105 H 0.04536 0.33668 0.80599
 H3106 H 0.07005 0.32672 0.81058
 H3107 H 0.10647 0.28449 0.80620
 H3108 H 0.11206 0.25943 0.79790
 H3109 H 0.09316 0.24451 0.78498
 H3110 H 0.06860 0.25456 0.78023
 C3111 C 0.05827 0.77950 0.28959
 C3112 C 0.07288 0.77393 0.29114
 C3113 C 0.08360 0.78212 0.29923
 C3114 C 0.07965 0.79586 0.30572
 C3115 C 0.06492 0.80122 0.30453
 C3116 C 0.05420 0.79301 0.29643
 C3117 C 0.03960 0.79866 0.29523
 C3118 C 0.03568 0.81204 0.30189
 C3119 C 0.04615 0.82006 0.30982
 C3120 C 0.06062 0.81476 0.31117
 C3121 C 0.09817 0.77637 0.30050
 C3122 C 0.10205 0.76294 0.29394
 C3123 C 0.09157 0.75494 0.28601
 C3124 C 0.07715 0.76031 0.28460
 C3125 C 0.09091 0.80465 0.31315
 C3126 C 0.10058 0.81174 0.31904
 C3127 C 0.04783 0.77172 0.28018
 C3128 C 0.03994 0.76510 0.27172
 H3129 H 0.03108 0.79279 0.28919
 H3130 H 0.02445 0.81620 0.30088
 H3131 H 0.04304 0.83044 0.31496
 H3132 H 0.06838 0.82137 0.31746
 H3133 H 0.10671 0.78217 0.30657
 H3134 H 0.11325 0.75872 0.29500
 H3135 H 0.09463 0.74451 0.28093
 H3136 H 0.06941 0.75365 0.27834
 C3137 C 0.55663 0.71907 0.70887
 C3138 C 0.55913 0.70392 0.71226
 C3139 C 0.56993 0.69570 0.70429
 C3140 C 0.57816 0.70270 0.69299
 C3141 C 0.57512 0.71763 0.68910
 C3142 C 0.56432 0.72584 0.69707
 C3143 C 0.56158 0.74080 0.69311
 C3144 C 0.56928 0.74745 0.68156
 C3145 C 0.57983 0.73942 0.67375
 C3146 C 0.58278 0.72468 0.67744
 C3147 C 0.57234 0.68061 0.70799
 C3148 C 0.56430 0.67383 0.71922
 C3149 C 0.55376 0.68187 0.72703
 C3150 C 0.55116 0.69674 0.72365
 C3151 C 0.59025 0.69479 0.68590
 C3152 C 0.60053 0.68832 0.68035
 C3153 C 0.54703 0.72791 0.71824
 C3154 C 0.53963 0.73517 0.72661
 H3155 H 0.55342 0.74746 0.69882
 H3156 H 0.56702 0.75889 0.67865
 H3157 H 0.58575 0.74463 0.66477
 H3158 H 0.59105 0.71887 0.67103
 H3159 H 0.58039 0.67389 0.70220
 H3160 H 0.56625 0.66226 0.72188
 H3161 H 0.54755 0.67654 0.73575
 H3162 H 0.54280 0.70251 0.72998
 C3163 C 0.55888 0.21802 0.21189
 C3164 C 0.57361 0.22339 0.21079
 C3165 C 0.58448 0.21500 0.20310
 C3166 C 0.58057 0.20128 0.19656
 C3167 C 0.56578 0.19606 0.19741
 C3168 C 0.55491 0.20445 0.20512
 C3169 C 0.54024 0.19894 0.20597
 C3170 C 0.53640 0.18552 0.19936
 C3171 C 0.54701 0.17733 0.19179
 C3172 C 0.56156 0.18248 0.19080
 C3173 C 0.59915 0.22057 0.20224
 C3174 C 0.60297 0.23401 0.20881
 C3175 C 0.59235 0.24220 0.21634
 C3176 C 0.57783 0.23701 0.21736
 C3177 C 0.59184 0.19252 0.18912
 C3178 C 0.60143 0.18553 0.18299
 C3179 C 0.54815 0.22613 0.22068
 C3180 C 0.53998 0.23305 0.22863
 H3181 H 0.53161 0.20494 0.21172
 H3182 H 0.52512 0.18146 0.20011
 H3183 H 0.54397 0.16692 0.18667
 H3184 H 0.56943 0.17573 0.18480
 H3185 H 0.60781 0.21460 0.19651
 H3186 H 0.61424 0.23810 0.20805
 H3187 H 0.59537 0.25264 0.22143
 H3188 H 0.56998 0.24381 0.22333
 C3189 C 0.05871 0.71938 0.21052
 C3190 C 0.07342 0.72474 0.20921
 C3191 C 0.08413 0.71641 0.20126
 C3192 C 0.08008 0.70275 0.19469
 C3193 C 0.06528 0.69759 0.19565
 C3194 C 0.05456 0.70592 0.20362
 C3195 C 0.03988 0.70046 0.20461
 C3196 C 0.03588 0.68716 0.19786
 C3197 C 0.04634 0.67904 0.19001
 C3198 C 0.06089 0.68414 0.18889
 C3199 C 0.09879 0.72197 0.20020
 C3200 C 0.10276 0.73533 0.20684
 C3201 C 0.09229 0.74346 0.21465
 C3202 C 0.07778 0.73828 0.21585
 C3203 C 0.09126 0.69389 0.18725
 C3204 C 0.10082 0.68681 0.18119
 C3205 C 0.04822 0.72733 0.21970
 C3206 C 0.04025 0.73409 0.22796
 H3207 H 0.03136 0.70641 0.21057
 H3208 H 0.02460 0.68313 0.19872
 H3209 H 0.04317 0.66872 0.18478
 H3210 H 0.06864 0.67745 0.18266
 H3211 H 0.10734 0.71606 0.19423
 H3212 H 0.11402 0.73941 0.20593
 H3213 H 0.09542 0.75383 0.21981
 H3214 H 0.07004 0.74503 0.22202
 C3215 C 0.05838 0.21728 0.71264
 C3216 C 0.07280 0.22305 0.71025
 C3217 C 0.08352 0.21445 0.70260
 C3218 C 0.07977 0.20013 0.69736
 C3219 C 0.06527 0.19449 0.69945
 C3220 C 0.05453 0.20310 0.70712
 C3221 C 0.04013 0.19722 0.70913
 C3222 C 0.03641 0.18323 0.70371
 C3223 C 0.04690 0.17481 0.69623
 C3224 C 0.06119 0.18032 0.69410
 C3225 C 0.09789 0.22043 0.70045
 C3226 C 0.10154 0.23451 0.70566
 C3227 C 0.09105 0.24294 0.71311
 C3228 C 0.07684 0.23733 0.71542
 C3229 C 0.09089 0.19128 0.68982
 C3230 C 0.10041 0.18435 0.68353
 C3231 C 0.04791 0.22565 0.72149
 C3232 C 0.03996 0.23284 0.72942
 H3233 H 0.03159 0.20338 0.71486
 H3234 H 0.02533 0.17890 0.70532
 H3235 H 0.04397 0.16394 0.69205
 H3236 H 0.06897 0.17337 0.68821
 H3237 H 0.10645 0.21432 0.69471
 H3238 H 0.11258 0.23891 0.70390
 H3239 H 0.09393 0.25388 0.71711
 H3240 H 0.06907 0.24433 0.72126
 C3241 C 0.44093 0.71239 0.28115
 C3242 C 0.44446 0.70626 0.29505
 C3243 C 0.43342 0.69857 0.30322
 C3244 C 0.41890 0.69709 0.29745
 C3245 C 0.41549 0.70285 0.28335
 C3246 C 0.42653 0.71052 0.27518
 C3247 C 0.42282 0.71628 0.26115
 C3248 C 0.40861 0.71453 0.25537
 C3249 C 0.39782 0.70701 0.26335
 C3250 C 0.40116 0.70121 0.27718
 C3251 C 0.43719 0.69259 0.31712
 C3252 C 0.45146 0.69419 0.32280
 C3253 C 0.46225 0.70174 0.31483
 C3254 C 0.45885 0.70772 0.30109
 C3255 C 0.40736 0.68991 0.30604
 C3256 C 0.39748 0.68407 0.31287
 C3257 C 0.45169 0.72141 0.27331
 C3258 C 0.45988 0.72953 0.26659
 H3259 H 0.43084 0.72215 0.25448
 H3260 H 0.40597 0.71902 0.24464
 H3261 H 0.38681 0.70566 0.25880
 H3262 H 0.39239 0.69543 0.28293
 H3263 H 0.42918 0.68659 0.32370
 H3264 H 0.45417 0.68953 0.33345
 H3265 H 0.47331 0.70296 0.31930
 H3266 H 0.46762 0.71343 0.29525
 C3267 C 0.44206 0.21025 0.78061
 C3268 C 0.43343 0.21758 0.79142
 C3269 C 0.42257 0.20955 0.79949
 C3270 C 0.42041 0.19421 0.79675
 C3271 C 0.42932 0.18680 0.78624
 C3272 C 0.44018 0.19484 0.77814
 C3273 C 0.44889 0.18721 0.76765
 C3274 C 0.44695 0.17205 0.76523
 C3275 C 0.43633 0.16419 0.77312
 C3276 C 0.42757 0.17143 0.78351
 C3277 C 0.41399 0.21717 0.81013
 C3278 C 0.41610 0.23226 0.81274
 C3279 C 0.42674 0.24011 0.80488
 C3280 C 0.43533 0.23292 0.79433
 C3281 C 0.40880 0.18627 0.80456
 C3282 C 0.39891 0.18021 0.81119
 C3283 C 0.45226 0.21886 0.77163
 C3284 C 0.46007 0.22685 0.76432
 H3285 H 0.45731 0.19287 0.76128
 H3286 H 0.45373 0.16636 0.75718
 H3287 H 0.43486 0.15242 0.77119
 H3288 H 0.41946 0.16485 0.78940
 H3289 H 0.40559 0.21156 0.81655
 H3290 H 0.40944 0.23791 0.82092
 H3291 H 0.42835 0.25184 0.80697
 H3292 H 0.44348 0.23952 0.78854
 C3293 C 0.94161 0.71087 0.78034
 C3294 C 0.94566 0.70380 0.79365
 C3295 C 0.93479 0.69603 0.80196
 C3296 C 0.91994 0.69542 0.79691
 C3297 C 0.91598 0.70217 0.78339
 C3298 C 0.92686 0.70988 0.77506
 C3299 C 0.92262 0.71660 0.76160
 C3300 C 0.90805 0.71576 0.75655
 C3301 C 0.89741 0.70822 0.76470
 C3302 C 0.90127 0.70149 0.77797
 C3303 C 0.93907 0.68909 0.81526
 C3304 C 0.95368 0.68983 0.82025
 C3305 C 0.96430 0.69747 0.81215
 C3306 C 0.96040 0.70441 0.79899
 C3307 C 0.90866 0.68813 0.80569
 C3308 C 0.89906 0.68224 0.81282
 C3309 C 0.95218 0.72007 0.77251
 C3310 C 0.96008 0.72845 0.76580
 H3311 H 0.93049 0.72256 0.75482
 H3312 H 0.90501 0.72098 0.74625
 H3313 H 0.88610 0.70759 0.76074
 H3314 H 0.89260 0.69575 0.78391
 H3315 H 0.93120 0.68302 0.82193
 H3316 H 0.95675 0.68444 0.83046
 H3317 H 0.97563 0.69803 0.81610
 H3318 H 0.96905 0.71020 0.79304
 C3319 C 0.94385 0.20966 0.28271
 C3320 C 0.93525 0.21715 0.29342
 C3321 C 0.92451 0.20920 0.30172
 C3322 C 0.92245 0.19380 0.29928
 C3323 C 0.93144 0.18621 0.28897
 C3324 C 0.94218 0.19417 0.28066
 C3325 C 0.95099 0.18638 0.27035
 C3326 C 0.94925 0.17114 0.26833
 C3327 C 0.93874 0.16336 0.27643
 C3328 C 0.92989 0.17075 0.28664
 C3329 C 0.91593 0.21698 0.31225
 C3330 C 0.91794 0.23216 0.31453
 C3331 C 0.92846 0.23991 0.30644
 C3332 C 0.93703 0.23256 0.29598
 C3333 C 0.91077 0.18597 0.30708
 C3334 C 0.90081 0.17996 0.31361
 C3335 C 0.95374 0.21814 0.27332
 C3336 C 0.96130 0.22595 0.26559
 H3337 H 0.95933 0.19198 0.26383
 H3338 H 0.95612 0.16533 0.26044
 H3339 H 0.93744 0.15152 0.27482
 H3340 H 0.92188 0.16423 0.29271
 H3341 H 0.90763 0.21144 0.31885
 H3342 H 0.91130 0.23792 0.32264
 H3343 H 0.93000 0.25169 0.30827
 H3344 H 0.94510 0.23909 0.29000
 C3345 C 0.29180 0.27991 0.55891
 C3346 C 0.29246 0.27473 0.57361
 C3347 C 0.30047 0.28291 0.58434
 C3348 C 0.30788 0.29616 0.58030
 C3349 C 0.30764 0.30107 0.56550
 C3350 C 0.29956 0.29291 0.55477
 C3351 C 0.29932 0.29810 0.54009
 C3352 C 0.30684 0.31101 0.53610
 C3353 C 0.31473 0.31900 0.54658
 C3354 C 0.31516 0.31414 0.56114
 C3355 C 0.30069 0.27767 0.59903
 C3356 C 0.29325 0.26471 0.60298
 C3357 C 0.28549 0.25666 0.59247
 C3358 C 0.28506 0.26155 0.57794
 C3359 C 0.31525 0.30494 0.59153
 C3360 C 0.32097 0.31205 0.60121
 C3361 C 0.28221 0.27242 0.54846
 C3362 C 0.27354 0.26614 0.54053
 H3363 H 0.29336 0.29222 0.53155
 H3364 H 0.30654 0.31483 0.52481
 H3365 H 0.32054 0.32902 0.54343
 H3366 H 0.32145 0.32071 0.56891
 H3367 H 0.30659 0.28353 0.60762
 H3368 H 0.29352 0.26089 0.61427
 H3369 H 0.27975 0.24658 0.59558
 H3370 H 0.27890 0.25488 0.57016
 C3371 C 0.28974 0.78343 0.05753
 C3372 C 0.29311 0.77670 0.07121
 C3373 C 0.30107 0.78477 0.08207
 C3374 C 0.30573 0.79951 0.07917
 C3375 C 0.30281 0.80606 0.06529
 C3376 C 0.29476 0.79800 0.05445
 C3377 C 0.29182 0.80483 0.04074
 C3378 C 0.29676 0.81919 0.03777
 C3379 C 0.30466 0.82705 0.04834
 C3380 C 0.30766 0.82062 0.06198
 C3381 C 0.30410 0.77786 0.09575
 C3382 C 0.29947 0.76337 0.09857
 C3383 C 0.29173 0.75546 0.08794
 C3384 C 0.28854 0.76199 0.07441
 C3385 C 0.31318 0.80796 0.09061
 C3386 C 0.31916 0.81469 0.10043
 C3387 C 0.28035 0.77562 0.04709
 C3388 C 0.27201 0.76886 0.03917
 H3389 H 0.28575 0.79912 0.03217
 H3390 H 0.29444 0.82424 0.02721
 H3391 H 0.30849 0.83819 0.04596
 H3392 H 0.31384 0.82717 0.06985
 H3393 H 0.31008 0.78355 0.10438
 H3394 H 0.30191 0.75826 0.10908
 H3395 H 0.28818 0.74420 0.09017
 H3396 H 0.28252 0.75537 0.06649
 C3397 C 0.78807 0.28727 0.05734
 C3398 C 0.78163 0.30005 0.06381
 C3399 C 0.78966 0.30827 0.07452
 C3400 C 0.80409 0.30369 0.07869
 C3401 C 0.81077 0.29129 0.07177
 C3402 C 0.80273 0.28305 0.06107
 C3403 C 0.80957 0.27061 0.05441
 C3404 C 0.82397 0.26643 0.05820
 C3405 C 0.83183 0.27448 0.06865
 C3406 C 0.82536 0.28677 0.07540
 C3407 C 0.78292 0.32090 0.08095
 C3408 C 0.76866 0.32529 0.07691
 C3409 C 0.76082 0.31727 0.06643
 C3410 C 0.76717 0.30478 0.05992
 C3411 C 0.81177 0.31135 0.09052
 C3412 C 0.81790 0.31754 0.10058
 C3413 C 0.77922 0.27797 0.04767
 C3414 C 0.77137 0.27016 0.04022
 H3415 H 0.80391 0.26405 0.04618
 H3416 H 0.82905 0.25690 0.05298
 H3417 H 0.84301 0.27119 0.07154
 H3418 H 0.83193 0.29271 0.08344
 H3419 H 0.78860 0.32754 0.08911
 H3420 H 0.76368 0.33498 0.08193
 H3421 H 0.74975 0.32074 0.06331
 H3422 H 0.76065 0.29894 0.05178
 C3423 C 0.78466 0.78742 0.55941
 C3424 C 0.78985 0.77996 0.57214
 C3425 C 0.79854 0.78772 0.58267
 C3426 C 0.80202 0.80288 0.58041
 C3427 C 0.79698 0.81029 0.56760
 C3428 C 0.78828 0.80253 0.55706
 C3429 C 0.78328 0.81016 0.54440
 C3430 C 0.78680 0.82507 0.54218
 C3431 C 0.79527 0.83268 0.55250
 C3432 C 0.80034 0.82543 0.56509
 C3433 C 0.80346 0.78006 0.59539
 C3434 C 0.79992 0.76517 0.59762
 C3435 C 0.79147 0.75757 0.58730
 C3436 C 0.78645 0.76482 0.57471
 C3437 C 0.81030 0.81088 0.59157
 C3438 C 0.81687 0.81728 0.60122
 C3439 C 0.77536 0.77948 0.54901
 C3440 C 0.76763 0.77204 0.54110
 H3441 H 0.77660 0.80471 0.53612
 H3442 H 0.78290 0.83074 0.53242
 H3443 H 0.79790 0.84429 0.55075
 H3444 H 0.80689 0.83180 0.57280
 H3445 H 0.81006 0.78549 0.60375
 H3446 H 0.80373 0.75952 0.60743
 H3447 H 0.78876 0.74599 0.58907
 H3448 H 0.77985 0.75842 0.56706
 C3449 C 0.28596 0.71099 0.44350
 C3450 C 0.29978 0.71673 0.43873
 C3451 C 0.30822 0.70889 0.42806
 C3452 C 0.30280 0.69537 0.42222
 C3453 C 0.28934 0.68928 0.42752
 C3454 C 0.28088 0.69713 0.43819
 C3455 C 0.26737 0.69093 0.44318
 C3456 C 0.26235 0.67733 0.43781
 C3457 C 0.27062 0.66964 0.42740
 C3458 C 0.28396 0.67549 0.42227
 C3459 C 0.32192 0.71492 0.42334
 C3460 C 0.32712 0.72833 0.42899
 C3461 C 0.31885 0.73601 0.43941
 C3462 C 0.30534 0.73032 0.44426
 C3463 C 0.31069 0.68812 0.41029
 C3464 C 0.31702 0.68228 0.40014
 C3465 C 0.27657 0.71992 0.45300
 C3466 C 0.26884 0.72799 0.46028
 H3467 H 0.26059 0.69649 0.45131
 H3468 H 0.25200 0.67273 0.44177
 H3469 H 0.26667 0.65908 0.42328
 H3470 H 0.29004 0.66907 0.41422
 H3471 H 0.32877 0.70932 0.41531
 H3472 H 0.33761 0.73279 0.42526
 H3473 H 0.32294 0.74641 0.44377
 H3474 H 0.29935 0.73667 0.45243
 C3475 C 0.29118 0.22011 0.94104
 C3476 C 0.29955 0.20742 0.94498
 C3477 C 0.30738 0.19937 0.93399
 C3478 C 0.30668 0.20401 0.91912
 C3479 C 0.29859 0.21693 0.91524
 C3480 C 0.29085 0.22502 0.92623
 C3481 C 0.28276 0.23785 0.92206
 C3482 C 0.28228 0.24251 0.90746
 C3483 C 0.28984 0.23458 0.89671
 C3484 C 0.29793 0.22194 0.90049
 C3485 C 0.31565 0.18670 0.93818
 C3486 C 0.31612 0.18206 0.95280
 C3487 C 0.30841 0.18988 0.96352
 C3488 C 0.30020 0.20244 0.95973
 C3489 C 0.31383 0.19530 0.90771
 C3490 C 0.31947 0.18818 0.89798
 C3491 C 0.28213 0.22771 0.95187
 C3492 C 0.27384 0.23427 0.95997
 H3493 H 0.27673 0.24444 0.93001
 H3494 H 0.27602 0.25232 0.90448
 H3495 H 0.28944 0.23824 0.88538
 H3496 H 0.30364 0.21618 0.89173
 H3497 H 0.32184 0.18027 0.93022
 H3498 H 0.32251 0.17233 0.95581
 H3499 H 0.30879 0.18620 0.97485
 H3500 H 0.29442 0.20821 0.96845
 C3501 C 0.79090 0.71599 0.94361
 C3502 C 0.80390 0.72181 0.93705
 C3503 C 0.81144 0.71354 0.92602
 C3504 C 0.80594 0.69947 0.92166
 C3505 C 0.79334 0.69336 0.92871
 C3506 C 0.78584 0.70162 0.93976
 C3507 C 0.77324 0.69530 0.94662
 C3508 C 0.76816 0.68125 0.94265
 C3509 C 0.77543 0.67321 0.93179
 C3510 C 0.78789 0.67913 0.92487
 C3511 C 0.82429 0.71969 0.91949
 C3512 C 0.82958 0.73358 0.92376
 C3513 C 0.82223 0.74163 0.93457
 C3514 C 0.80951 0.73588 0.94116
 C3515 C 0.81287 0.69157 0.90954
 C3516 C 0.81843 0.68515 0.89929
 C3517 C 0.78203 0.72519 0.95335
 C3518 C 0.77399 0.73279 0.96082
 H3519 H 0.76724 0.70110 0.95517
 H3520 H 0.75852 0.67658 0.94804
 H3521 H 0.77141 0.66232 0.92873
 H3522 H 0.79321 0.67243 0.91652
 H3523 H 0.83041 0.71383 0.91106
 H3524 H 0.83944 0.73812 0.91867
 H3525 H 0.82641 0.75239 0.93789
 H3526 H 0.80420 0.74252 0.94956
 C3527 C 0.79065 0.22023 0.44108
 C3528 C 0.79918 0.20771 0.44523
 C3529 C 0.80707 0.19955 0.43437
 C3530 C 0.80630 0.20395 0.41943
 C3531 C 0.79793 0.21659 0.41531
 C3532 C 0.79011 0.22479 0.42618
 C3533 C 0.78173 0.23735 0.42178
 C3534 C 0.78104 0.24164 0.40708
 C3535 C 0.78864 0.23360 0.39645
 C3536 C 0.79701 0.22122 0.40045
 C3537 C 0.81544 0.18701 0.43875
 C3538 C 0.81599 0.18263 0.45344
 C3539 C 0.80825 0.19058 0.46405
 C3540 C 0.79992 0.20300 0.46006
 C3541 C 0.81374 0.19526 0.40820
 C3542 C 0.81962 0.18814 0.39863
 C3543 C 0.78166 0.22798 0.45185
 C3544 C 0.77345 0.23463 0.45996
 H3545 H 0.77563 0.24399 0.42963
 H3546 H 0.77456 0.25126 0.40392
 H3547 H 0.78804 0.23696 0.38503
 H3548 H 0.80272 0.21533 0.39177
 H3549 H 0.82164 0.18047 0.43088
 H3550 H 0.82243 0.17299 0.45660
 H3551 H 0.80868 0.18712 0.47544
 H3552 H 0.79409 0.20886 0.46869
 C3553 C 0.71275 0.28133 0.44163
 C3554 C 0.71368 0.27748 0.42656
 C3555 C 0.70586 0.28597 0.41589
 C3556 C 0.69709 0.29822 0.42035
 C3557 C 0.69587 0.30184 0.43545
 C3558 C 0.70375 0.29338 0.44613
 C3559 C 0.70245 0.29725 0.46114
 C3560 C 0.69358 0.30914 0.46551
 C3561 C 0.68586 0.31740 0.45508
 C3562 C 0.68695 0.31384 0.44021
 C3563 C 0.70707 0.28197 0.40088
 C3564 C 0.71573 0.26992 0.39654
 C3565 C 0.72334 0.26160 0.40697
 C3566 C 0.72238 0.26529 0.42181
 C3567 C 0.68941 0.30705 0.40933
 C3568 C 0.68316 0.31403 0.39984
 C3569 C 0.72168 0.27326 0.45226
 C3570 C 0.72985 0.26635 0.46024
 H3571 H 0.70821 0.29110 0.46964
 H3572 H 0.69268 0.31194 0.47704
 H3573 H 0.67897 0.32661 0.45854
 H3574 H 0.68073 0.32057 0.43250
 H3575 H 0.70134 0.28808 0.39234
 H3576 H 0.71652 0.26702 0.38502
 H3577 H 0.73004 0.25223 0.40356
 H3578 H 0.72847 0.25842 0.42949
 C3579 C 0.71281 0.77993 0.94205
 C3580 C 0.70493 0.79272 0.94664
 C3581 C 0.69661 0.80108 0.93624
 C3582 C 0.69623 0.79661 0.92132
 C3583 C 0.70378 0.78359 0.91682
 C3584 C 0.71209 0.77523 0.92720
 C3585 C 0.71967 0.76233 0.92240
 C3586 C 0.71903 0.75782 0.90777
 C3587 C 0.71088 0.76599 0.89761
 C3588 C 0.70331 0.77872 0.90202
 C3589 C 0.68889 0.81388 0.94105
 C3590 C 0.68939 0.81828 0.95572
 C3591 C 0.69753 0.81011 0.96589
 C3592 C 0.70524 0.79746 0.96146
 C3593 C 0.68841 0.80553 0.91050
 C3594 C 0.68214 0.81273 0.90120
 C3595 C 0.72228 0.77198 0.95230
 C3596 C 0.73072 0.76525 0.96014
 H3597 H 0.72613 0.75558 0.92988
 H3598 H 0.72490 0.74793 0.90429
 H3599 H 0.71041 0.76243 0.88625
 H3600 H 0.69710 0.78468 0.89371
 H3601 H 0.68239 0.82057 0.93354
 H3602 H 0.68341 0.82810 0.95922
 H3603 H 0.69788 0.81358 0.97728
 H3604 H 0.71140 0.79143 0.96976
 C3605 C 0.21266 0.28055 0.94165
 C3606 C 0.21341 0.27668 0.92657
 C3607 C 0.20550 0.28518 0.91598
 C3608 C 0.19681 0.29745 0.92053
 C3609 C 0.19576 0.30109 0.93564
 C3610 C 0.20374 0.29263 0.94623
 C3611 C 0.20265 0.29656 0.96125
 C3612 C 0.19386 0.30848 0.96569
 C3613 C 0.18602 0.31672 0.95534
 C3614 C 0.18693 0.31312 0.94047
 C3615 C 0.20656 0.28118 0.90096
 C3616 C 0.21515 0.26912 0.89654
 C3617 C 0.22286 0.26078 0.90690
 C3618 C 0.22205 0.26447 0.92175
 C3619 C 0.18914 0.30637 0.90959
 C3620 C 0.18296 0.31353 0.90020
 C3621 C 0.22169 0.27247 0.95219
 C3622 C 0.22992 0.26559 0.96011
 H3623 H 0.20852 0.29043 0.96969
 H3624 H 0.19312 0.31133 0.97723
 H3625 H 0.17920 0.32596 0.95885
 H3626 H 0.18062 0.31984 0.93282
 H3627 H 0.20076 0.28730 0.89248
 H3628 H 0.21581 0.26621 0.88501
 H3629 H 0.22950 0.25140 0.90341
 H3630 H 0.22823 0.25761 0.92937
 C3631 C 0.21967 0.78689 0.44022
 C3632 C 0.21970 0.78260 0.42523
 C3633 C 0.21124 0.79077 0.41480
 C3634 C 0.20279 0.80319 0.41940
 C3635 C 0.20286 0.80755 0.43436
 C3636 C 0.21132 0.79936 0.44480
 C3637 C 0.21116 0.80388 0.45969
 C3638 C 0.20289 0.81616 0.46415
 C3639 C 0.19464 0.82418 0.45394
 C3640 C 0.19459 0.81997 0.43920
 C3641 C 0.21141 0.78623 0.39989
 C3642 C 0.21969 0.77397 0.39542
 C3643 C 0.22797 0.76599 0.40561
 C3644 C 0.22802 0.77019 0.42035
 C3645 C 0.19392 0.81129 0.40872
 C3646 C 0.18665 0.81768 0.39954
 C3647 C 0.22809 0.77821 0.45080
 C3648 C 0.23521 0.77033 0.45889
 H3649 H 0.21741 0.79798 0.46802
 H3650 H 0.20289 0.81948 0.47559
 H3651 H 0.18824 0.83371 0.45746
 H3652 H 0.18801 0.82655 0.43165
 H3653 H 0.20516 0.79208 0.39154
 H3654 H 0.21967 0.77065 0.38399
 H3655 H 0.23439 0.75647 0.40208
 H3656 H 0.23465 0.76361 0.42783
 C3657 C 0.72082 0.71104 0.55897
 C3658 C 0.72558 0.71086 0.57382
 C3659 C 0.71730 0.70290 0.58452
 C3660 C 0.70434 0.69510 0.58031
 C3661 C 0.69990 0.69482 0.56538
 C3662 C 0.70818 0.70281 0.55466
 C3663 C 0.70351 0.70241 0.53982
 C3664 C 0.69100 0.69434 0.53566
 C3665 C 0.68287 0.68657 0.54614
 C3666 C 0.68722 0.68678 0.56085
 C3667 C 0.72217 0.70305 0.59933
 C3668 C 0.73489 0.71081 0.60343
 C3669 C 0.74302 0.71856 0.59296
 C3670 C 0.73847 0.71863 0.57832
 C3671 C 0.69543 0.68774 0.59145
 C3672 C 0.68820 0.68193 0.60101
 C3673 C 0.72848 0.72047 0.54849
 C3674 C 0.73504 0.72902 0.54064
 H3675 H 0.70953 0.70825 0.53129
 H3676 H 0.68760 0.69410 0.52424
 H3677 H 0.67316 0.68033 0.54286
 H3678 H 0.68058 0.68053 0.56860
 H3679 H 0.71626 0.69714 0.60787
 H3680 H 0.73846 0.71079 0.61480
 H3681 H 0.75291 0.72454 0.59619
 H3682 H 0.74522 0.72477 0.57058
 C3683 C 0.71488 0.21769 0.05887
 C3684 C 0.72073 0.21521 0.07313
 C3685 C 0.71270 0.20646 0.08340
 C3686 C 0.69888 0.20020 0.07935
 C3687 C 0.69310 0.20255 0.06506
 C3688 C 0.70114 0.21132 0.05477
 C3689 C 0.69515 0.21355 0.04056
 C3690 C 0.68157 0.20731 0.03662
 C3691 C 0.67369 0.19876 0.04668
 C3692 C 0.67935 0.19636 0.06075
 C3693 C 0.71873 0.20422 0.09761
 C3694 C 0.73231 0.21044 0.10155
 C3695 C 0.74019 0.21896 0.09150
 C3696 C 0.73452 0.22136 0.07744
 C3697 C 0.69058 0.19159 0.09005
 C3698 C 0.68393 0.18469 0.09930
 C3699 C 0.72307 0.22691 0.04861
 C3700 C 0.73058 0.23467 0.04080
 H3701 H 0.70089 0.22011 0.03237
 H3702 H 0.67713 0.20913 0.02570
 H3703 H 0.66314 0.19396 0.04357
 H3704 H 0.67284 0.18962 0.06820
 H3705 H 0.71304 0.19766 0.10583
 H3706 H 0.73674 0.20862 0.11248
 H3707 H 0.75074 0.22376 0.09460
 H3708 H 0.74109 0.22808 0.07003
 C3709 C 0.21398 0.71887 0.05742
 C3710 C 0.20098 0.71116 0.05320
 C3711 C 0.19317 0.70246 0.06371
 C3712 C 0.19847 0.70147 0.07834
 C3713 C 0.21145 0.70921 0.08257
 C3714 C 0.21922 0.71795 0.07209
 C3715 C 0.23213 0.72566 0.07661
 C3716 C 0.23718 0.72482 0.09106
 C3717 C 0.22958 0.71628 0.10131
 C3718 C 0.21688 0.70851 0.09717
 C3719 C 0.18012 0.69497 0.05929
 C3720 C 0.17494 0.69602 0.04489
 C3721 C 0.18262 0.70446 0.03459
 C3722 C 0.19552 0.71197 0.03864
 C3723 C 0.19046 0.69275 0.08916
 C3724 C 0.18396 0.68579 0.09846
 C3725 C 0.22212 0.72778 0.04686
 C3726 C 0.22972 0.73535 0.03894
 H3727 H 0.23845 0.73247 0.06907
 H3728 H 0.24704 0.73084 0.09432
 H3729 H 0.23353 0.71567 0.11254
 H3730 H 0.21136 0.70201 0.10555
 H3731 H 0.17377 0.68827 0.06691
 H3732 H 0.16490 0.69026 0.04171
 H3733 H 0.17856 0.70522 0.02342
 H3734 H 0.20111 0.71843 0.03028
 C3735 C 0.21137 0.22067 0.55832
 C3736 C 0.21248 0.22376 0.57355
 C3737 C 0.20440 0.21507 0.58383
 C3738 C 0.19523 0.20334 0.57883
 C3739 C 0.19387 0.20045 0.56359
 C3740 C 0.20198 0.20914 0.55329
 C3741 C 0.20057 0.20597 0.53813
 C3742 C 0.19138 0.19454 0.53325
 C3743 C 0.18342 0.18607 0.54331
 C3744 C 0.18460 0.18894 0.55832
 C3745 C 0.20579 0.21830 0.59901
 C3746 C 0.21491 0.22978 0.60388
 C3747 C 0.22282 0.23827 0.59383
 C3748 C 0.22166 0.23536 0.57883
 C3749 C 0.18746 0.19416 0.58946
 C3750 C 0.18128 0.18681 0.59868
 C3751 C 0.22051 0.22893 0.54805
 C3752 C 0.22883 0.23589 0.54028
 H3753 H 0.20651 0.21230 0.52990
 H3754 H 0.19042 0.19226 0.52161
 H3755 H 0.17629 0.17721 0.53946
 H3756 H 0.17819 0.18208 0.56573
 H3757 H 0.19985 0.21202 0.60728
 H3758 H 0.21585 0.23208 0.61553
 H3759 H 0.22990 0.24718 0.59766
 H3760 H 0.22802 0.24232 0.57146
   
