data_POSCAR
  _audit_creation_date              2014-09-24
  _audit_creation_method            'ToBaCCo'
  _symmetry_space_group_name_H-M    'P1'
  _symmetry_Int_Tables_number       1
  _symmetry_cell_setting            triclinic
  loop_
  _symmetry_equiv_pos_as_xyz
 x,y,z
_cell_length_a 59.6440
_cell_length_b 58.8011
_cell_length_c 62.1086
_cell_angle_alpha 90.154300
_cell_angle_beta 89.880900
_cell_angle_gamma 90.098100
loop_
  _atom_site_label
  _atom_site_type_symbol
  _atom_site_fract_x
  _atom_site_fract_y
  _atom_site_fract_z
C1 C 0.36763 0.29583 -0.01906
 C2 C 0.37604 0.28839 0.00082
 C3 C 0.36877 0.29753 0.02036
 C4 C 0.35235 0.31479 0.02047
 C5 C 0.34309 0.32235 0.00069
 C6 C 0.35042 0.31261 -0.01910
 C7 C 0.33877 0.31826 -0.03801
 C8 C 0.32174 0.33435 -0.03789
 C9 C 0.31543 0.34566 -0.01885
 C10 C 0.32566 0.33890 0.00081
 C11 C 0.34422 0.32389 0.03990
 C12 C 0.32729 0.34007 0.04002
 C13 C 0.31776 0.34778 0.02072
 C14 C 0.29980 0.36336 0.02085
 C15 C 0.29010 0.37000 0.00146
 C16 C 0.29766 0.36182 -0.01853
 H17 H 0.34194 0.30959 -0.05306
 H18 H 0.31294 0.33702 -0.05286
 H19 H 0.35052 0.31822 0.05529
 H20 H 0.32139 0.34607 0.05550
 H21 H 0.38930 0.27578 0.00122
 H22 H 0.27684 0.38261 0.00206
 C23 C 0.63489 0.70397 -0.01149
 C24 C 0.62724 0.71221 0.00849
 C25 C 0.63673 0.70551 0.02797
 C26 C 0.65431 0.68950 0.02800
 C27 C 0.66223 0.68048 0.00817
 C28 C 0.65251 0.68758 -0.01165
 C29 C 0.65985 0.67704 -0.03080
 C30 C 0.67780 0.66198 -0.03087
 C31 C 0.68820 0.65547 -0.01161
 C32 C 0.67996 0.66429 0.00817
 C33 C 0.66442 0.68259 0.04731
 C34 C 0.68170 0.66673 0.04728
 C35 C 0.68958 0.65717 0.02794
 C36 C 0.70724 0.64111 0.02777
 C37 C 0.71580 0.63343 0.00807
 C38 C 0.70671 0.64043 -0.01155
 H39 H 0.65171 0.68004 -0.04603
 H40 H 0.68321 0.65525 -0.04624
 H41 H 0.65911 0.68946 0.06267
 H42 H 0.68906 0.66232 0.06261
 H43 H 0.61430 0.72515 0.00903
 H44 H 0.72964 0.62147 0.00797
 C45 C 0.70831 0.36407 0.97095
 C46 C 0.71355 0.37554 0.98999
 C47 C 0.70529 0.36873 1.01018
 C48 C 0.69058 0.34961 1.01105
 C49 C 0.68541 0.33745 0.99180
 C50 C 0.69426 0.34475 0.97170
 C51 C 0.68826 0.33297 0.95285
 C52 C 0.67429 0.31406 0.95364
 C53 C 0.66510 0.30663 0.97321
 C54 C 0.67070 0.31837 0.99250
 C55 C 0.67940 0.34341 1.03015
 C56 C 0.66522 0.32462 1.03086
 C57 C 0.66114 0.31145 1.01239
 C58 C 0.64689 0.29216 1.01300
 C59 C 0.64196 0.28060 0.99386
 C60 C 0.65035 0.28779 0.97401
 H61 H 0.69411 0.33832 0.93718
 H62 H 0.67070 0.30539 0.93865
 H63 H 0.68090 0.35340 1.04470
 H64 H 0.65707 0.32088 1.04601
 H65 H 0.72531 0.38960 0.98902
 H66 H 0.63080 0.26602 0.99435
 C67 C 0.27780 0.65333 0.97658
 C68 C 0.26787 0.64650 0.99589
 C69 C 0.27580 0.65385 1.01602
 C70 C 0.29356 0.67009 1.01649
 C71 C 0.30412 0.67690 0.99696
 C72 C 0.29642 0.66818 0.97697
 C73 C 0.30714 0.67498 0.95788
 C74 C 0.32493 0.69029 0.95831
 C75 C 0.33219 0.70007 0.97776
 C76 C 0.32200 0.69300 0.99736
 C77 C 0.29968 0.68125 1.03563
 C78 C 0.31706 0.69700 1.03602
 C79 C 0.32930 0.70231 1.01730
 C80 C 0.34736 0.71817 1.01770
 C81 C 0.35647 0.72547 0.99801
 C82 C 0.34939 0.71669 0.97820
 H83 H 0.30180 0.66863 0.94236
 H84 H 0.33278 0.69447 0.94313
 H85 H 0.29054 0.67859 1.05047
 H86 H 0.32024 0.70553 1.05115
 H87 H 0.25444 0.63406 0.99504
 H88 H 0.37017 0.73763 0.99802
 C89 C 0.02397 0.28773 0.35690
 C90 C 0.00409 0.27692 0.36287
 C91 C -0.01687 0.28356 0.35479
 C92 C -0.01766 0.30152 0.33944
 C93 C 0.00252 0.31270 0.33316
 C94 C 0.02337 0.30579 0.34200
 C95 C 0.04321 0.31634 0.33499
 C96 C 0.04275 0.33314 0.31932
 C97 C 0.02242 0.34015 0.31012
 C98 C 0.00204 0.33005 0.31718
 C99 C -0.03757 0.30709 0.32858
 C100 C -0.03806 0.32408 0.31307
 C101 C -0.01865 0.33639 0.30752
 C102 C -0.01888 0.35324 0.29107
 C103 C 0.00164 0.36239 0.28408
 C104 C 0.02206 0.35626 0.29331
 H105 H 0.05940 0.31130 0.34114
 H106 H 0.05862 0.34020 0.31415
 H107 H -0.05292 0.29770 0.33120
 H108 H -0.05375 0.32664 0.30476
 H109 H 0.00503 0.26350 0.37480
 H110 H 0.00183 0.37537 0.27168
 C111 C 0.02151 0.63297 0.69606
 C112 C 0.00013 0.62905 0.70450
 C113 C -0.01946 0.63534 0.69353
 C114 C -0.01740 0.64723 0.67368
 C115 C 0.00427 0.65255 0.66549
 C116 C 0.02377 0.64501 0.67651
 C117 C 0.04495 0.64937 0.66747
 C118 C 0.04712 0.66214 0.64882
 C119 C 0.02819 0.67062 0.63817
 C120 C 0.00651 0.66547 0.64622
 C121 C -0.03625 0.65488 0.66224
 C122 C -0.03402 0.66662 0.64296
 C123 C -0.01286 0.67324 0.63511
 C124 C -0.01037 0.68640 0.61594
 C125 C 0.01142 0.69084 0.60831
 C126 C 0.03047 0.68380 0.61940
 H127 H 0.06016 0.64301 0.67468
 H128 H 0.06387 0.66510 0.64265
 H129 H -0.05311 0.65211 0.66802
 H130 H -0.04927 0.67031 0.63432
 H131 H -0.00122 0.61962 0.71945
 H132 H 0.01382 0.70177 0.59445
 C133 C 1.01795 0.64162 0.29542
 C134 C 0.99747 0.63234 0.28892
 C135 C 0.97707 0.63967 0.29755
 C136 C 0.97702 0.65709 0.31333
 C137 C 0.99769 0.66679 0.32019
 C138 C 1.01821 0.65910 0.31112
 C139 C 1.03837 0.66899 0.31807
 C140 C 1.03846 0.68628 0.33336
 C141 C 1.01853 0.69358 0.34341
 C142 C 0.99784 0.68408 0.33628
 C143 C 0.95698 0.66482 0.32266
 C144 C 0.95706 0.68225 0.33782
 C145 C 0.97727 0.69201 0.34497
 C146 C 0.97739 0.70979 0.36030
 C147 C 0.99777 0.71926 0.36686
 C148 C 1.01850 0.71107 0.35936
 H149 H 1.05437 0.66364 0.31165
 H150 H 1.05445 0.69410 0.33685
 H151 H 0.94095 0.65757 0.31831
 H152 H 0.94101 0.68801 0.34382
 H153 H 0.99741 0.61917 0.27663
 H154 H 0.99736 0.73227 0.37928
 C155 C 1.01706 0.35497 0.70962
 C156 C 0.99737 0.36609 0.71580
 C157 C 0.97671 0.36129 0.70623
 C158 C 0.97561 0.34469 0.68970
 C159 C 0.99530 0.33257 0.68370
 C160 C 1.01608 0.33765 0.69378
 C161 C 1.03527 0.32549 0.68755
 C162 C 1.03410 0.30836 0.67211
 C163 C 1.01397 0.30355 0.66119
 C164 C 0.99425 0.31559 0.66735
 C165 C 0.95558 0.34039 0.67855
 C166 C 0.95452 0.32376 0.66263
 C167 C 0.97347 0.31078 0.65717
 C168 C 0.97233 0.29345 0.64145
 C169 C 0.99162 0.28121 0.63615
 C170 C 1.01264 0.28622 0.64515
 H171 H 1.05144 0.32885 0.69472
 H172 H 1.04921 0.29875 0.66912
 H173 H 0.94051 0.35001 0.68183
 H174 H 0.93864 0.32126 0.65458
 H175 H 0.99820 0.37885 0.72843
 H176 H 0.99033 0.26831 0.62368
 C177 C 0.37067 -0.01072 0.30397
 C178 C 0.37718 0.01048 0.29565
 C179 C 0.36657 0.03074 0.30140
 C180 C 0.34829 0.03021 0.31584
 C181 C 0.34141 0.00913 0.32488
 C182 C 0.35289 -0.01130 0.31934
 C183 C 0.34768 -0.03117 0.33088
 C184 C 0.33041 -0.03156 0.34597
 C185 C 0.31727 -0.01218 0.35012
 C186 C 0.32359 0.00868 0.34019
 C187 C 0.33725 0.05027 0.32205
 C188 C 0.31958 0.04975 0.33662
 C189 C 0.31269 0.02925 0.34608
 C190 C 0.29529 0.02884 0.36147
 C191 C 0.28887 0.00824 0.37064
 C192 C 0.29934 -0.01244 0.36537
 H193 H 0.35751 -0.04648 0.32907
 H194 H 0.32811 -0.04714 0.35488
 H195 H 0.34227 0.06669 0.31590
 H196 H 0.31153 0.06571 0.34060
 H197 H 0.39032 0.01136 0.28357
 H198 H 0.27493 0.00842 0.38189
 C199 C 0.64711 -0.02041 0.70972
 C200 C 0.63623 0.00024 0.71413
 C201 C 0.64118 0.02022 0.70298
 C202 C 0.65828 0.02019 0.68724
 C203 C 0.66992 -0.00030 0.68266
 C204 C 0.66437 -0.02069 0.69384
 C205 C 0.67737 -0.04024 0.68993
 C206 C 0.69426 -0.04030 0.67446
 C207 C 0.69933 -0.02065 0.66261
 C208 C 0.68742 -0.00030 0.66705
 C209 C 0.66401 0.04007 0.67598
 C210 C 0.68139 0.04014 0.66103
 C211 C 0.69326 0.02015 0.65620
 C212 C 0.71116 0.02009 0.64119
 C213 C 0.72241 -0.00024 0.63679
 C214 C 0.71661 -0.02058 0.64699
 H215 H 0.67508 -0.05563 0.69915
 H216 H 0.70371 -0.05583 0.67229
 H217 H 0.65526 0.05591 0.67877
 H218 H 0.68547 0.05612 0.65338
 H219 H 0.62275 0.00068 0.72589
 H220 H 0.73574 -0.00029 0.62487
 C221 C 0.30304 1.01671 0.63009
 C222 C 0.29723 0.99514 0.62199
 C223 C 0.30803 0.97533 0.62868
 C224 C 0.32508 0.97662 0.64436
 C225 C 0.33058 0.99798 0.65366
 C226 C 0.31949 1.01807 0.64669
 C227 C 0.32386 1.03855 0.65776
 C228 C 0.33992 1.03974 0.67392
 C229 C 0.35183 1.02035 0.68027
 C230 C 0.34674 0.99912 0.67047
 C231 C 0.33634 0.95703 0.65138
 C232 C 0.35243 0.95824 0.66753
 C233 C 0.35745 0.97898 0.67774
 C234 C 0.37299 0.98021 0.69493
 C235 C 0.37814 1.00141 0.70395
 C236 C 0.36804 1.02143 0.69682
 H237 H 0.31445 1.05386 0.65460
 H238 H 0.34244 1.05597 0.68181
 H239 H 0.33272 0.94049 0.64455
 H240 H 0.36084 0.94266 0.67195
 H241 H 0.28478 0.99367 0.60935
 H242 H 0.39018 1.00236 0.71699
 C243 C 0.61806 0.97319 0.31208
 C244 C 0.61195 0.99359 0.30226
 C245 C 0.62105 1.01470 0.30843
 C246 C 0.63657 1.01508 0.32587
 C247 C 0.64410 0.99430 0.33505
 C248 C 0.63465 0.97330 0.32823
 C249 C 0.64131 0.95312 0.33841
 C250 C 0.65753 0.95334 0.35441
 C251 C 0.66762 0.97377 0.36107
 C252 C 0.66042 0.99457 0.35178
 C253 C 0.64308 1.03554 0.33584
 C254 C 0.65867 1.03581 0.35244
 C255 C 0.66878 1.01567 0.35974
 C256 C 0.68538 1.01583 0.37621
 C257 C 0.69253 0.99489 0.38459
 C258 C 0.68400 0.97407 0.37745
 H259 H 0.63387 0.93690 0.33428
 H260 H 0.66168 0.93729 0.36187
 H261 H 0.63551 1.05158 0.33154
 H262 H 0.66209 1.05206 0.35991
 H263 H 0.60038 0.99260 0.28884
 H264 H 0.70590 0.99456 0.39640
 O265 O 0.84928 0.82468 0.48069
 O266 O 0.82257 0.84716 0.52946
 O267 O 0.85372 0.81733 0.52150
 O268 O 0.81751 0.85387 0.48872
 O269 O 0.79311 0.82582 0.48533
 O270 O 0.82739 0.79088 0.52194
 O271 O 0.79588 0.82126 0.52693
 O272 O 0.82539 0.79598 0.48031
 Cu273 Cu 0.83831 0.83848 0.50523
 Cu274 Cu 0.80788 0.80570 0.50344
 C275 C 0.84236 0.80617 0.47249
 C276 C 0.80435 0.83854 0.53623
 C277 C 0.84666 0.79796 0.52751
 C278 C 0.79917 0.84611 0.48137
 O279 O 0.17784 0.15062 0.52329
 O280 O 0.15061 0.18570 0.48247
 O281 O 0.18114 0.15467 0.48185
 O282 O 0.14793 0.18275 0.52419
 O283 O 0.17440 0.20867 0.52810
 O284 O 0.20757 0.18071 0.48542
 O285 O 0.17657 0.21219 0.48626
 O286 O 0.20471 0.17615 0.52694
 Cu287 Cu 0.16172 0.16588 0.50265
 Cu288 Cu 0.19344 0.19708 0.50712
 C289 C 0.19607 0.15705 0.53187
 C290 C 0.15882 0.20483 0.47728
 C291 C 0.20005 0.16285 0.47639
 C292 C 0.15539 0.20058 0.53333
 O293 O 0.15727 0.81177 0.51906
 O294 O 0.18288 0.85331 0.48237
 O295 O 0.15221 0.82201 0.47869
 O296 O 0.18610 0.84429 0.52296
 O297 O 0.21362 0.82080 0.51454
 O298 O 0.17816 0.79650 0.47108
 O299 O 0.20885 0.82829 0.47345
 O300 O 0.18420 0.78730 0.51147
 Cu301 Cu 0.16694 0.83527 0.50151
 Cu302 Cu 0.19893 0.80574 0.49187
 C303 C 0.16632 0.79240 0.52148
 C304 C 0.20028 0.84794 0.47167
 C305 C 0.15904 0.80529 0.46753
 C306 C 0.20570 0.83676 0.52618
 O307 O 0.85520 0.17991 0.51250
 O308 O 0.82187 0.14305 0.47739
 O309 O 0.85096 0.17554 0.47145
 O310 O 0.82622 0.14742 0.51855
 O311 O 0.79769 0.17125 0.51781
 O312 O 0.82479 0.20198 0.47279
 O313 O 0.79517 0.16894 0.47605
 O314 O 0.82714 0.20427 0.51473
 Cu315 Cu 0.84128 0.15896 0.49491
 Cu316 Cu 0.80843 0.18919 0.49535
 C317 C 0.84694 0.19829 0.51969
 C318 C 0.80284 0.14957 0.47073
 C319 C 0.84258 0.19392 0.46444
 C320 C 0.80747 0.15410 0.52591
 O321 O 0.48534 0.86804 0.83247
 O322 O 0.52276 0.83543 0.86743
 O323 O 0.52832 0.86434 0.83643
 O324 O 0.48020 0.83893 0.86418
 O325 O 0.48008 0.81029 0.84113
 O326 O 0.52764 0.83700 0.81205
 O327 O 0.52362 0.80755 0.84355
 O328 O 0.48408 0.83953 0.80931
 Cu329 Cu 0.50406 0.85456 0.85238
 Cu330 Cu 0.50378 0.82077 0.82410
 C331 C 0.47852 0.85957 0.81482
 C332 C 0.52944 0.81587 0.86162
 C333 C 0.53610 0.85530 0.81941
 C334 C 0.47246 0.81988 0.85800
 O335 O 0.52671 0.16762 0.13529
 O336 O 0.48629 0.13879 0.17028
 O337 O 0.48351 0.16840 0.13957
 O338 O 0.52885 0.13746 0.16624
 O339 O 0.53141 0.16447 0.19084
 O340 O 0.48760 0.19704 0.16226
 O341 O 0.48803 0.16725 0.19352
 O342 O 0.53118 0.19472 0.15954
 Cu343 Cu 0.50613 0.15039 0.15036
 Cu344 Cu 0.50997 0.18373 0.17890
 C345 C 0.53575 0.18614 0.14126
 C346 C 0.48038 0.14793 0.18792
 C347 C 0.47793 0.18807 0.14610
 C348 C 0.53715 0.14505 0.18364
 O349 O 0.52381 0.14846 0.81531
 O350 O 0.48379 0.17652 0.85127
 O351 O 0.48091 0.14760 0.82010
 O352 O 0.52712 0.17760 0.84696
 O353 O 0.52338 0.20643 0.82461
 O354 O 0.47852 0.17513 0.79614
 O355 O 0.47993 0.20456 0.82806
 O356 O 0.52211 0.17733 0.79270
 Cu357 Cu 0.50431 0.15977 0.83574
 Cu358 Cu 0.50066 0.19373 0.80804
 C359 C 0.52972 0.15793 0.79786
 C360 C 0.47484 0.19520 0.84585
 C361 C 0.47202 0.15600 0.80336
 C362 C 0.53292 0.19730 0.84068
 O363 O 0.47148 0.82310 0.15165
 O364 O 0.51451 0.84603 0.18738
 O365 O 0.51469 0.81748 0.15524
 O366 O 0.47213 0.85053 0.18460
 O367 O 0.46654 0.82170 0.20667
 O368 O 0.50936 0.78855 0.17720
 O369 O 0.50984 0.81726 0.20975
 O370 O 0.46611 0.79401 0.17341
 Cu371 Cu 0.49373 0.83702 0.16737
 Cu372 Cu 0.48746 0.80241 0.19392
 C373 C 0.46137 0.80475 0.15627
 C374 C 0.51910 0.83609 0.20491
 C375 C 0.51930 0.79734 0.16114
 C376 C 0.46244 0.84201 0.20095
 O377 O 0.85308 0.53861 0.82200
 O378 O 0.82897 0.49252 0.85413
 O379 O 0.85899 0.49508 0.82328
 O380 O 0.82346 0.53588 0.85233
 O381 O 0.79668 0.53101 0.82828
 O382 O 0.83234 0.48964 0.79920
 O383 O 0.80248 0.48727 0.82983
 O384 O 0.82708 0.53354 0.79720
 Cu385 Cu 0.84381 0.51591 0.84032
 Cu386 Cu 0.81196 0.50997 0.81114
 C387 C 0.84447 0.54380 0.80402
 C388 C 0.81138 0.48235 0.84779
 C389 C 0.85192 0.48557 0.80620
 C390 C 0.80388 0.54020 0.84551
 O391 O 0.16770 0.47851 0.13766
 O392 O 0.13363 0.51876 0.16872
 O393 O 0.16237 0.52248 0.13710
 O394 O 0.13880 0.47531 0.16828
 O395 O 0.16524 0.47959 0.19279
 O396 O 0.19041 0.52564 0.16001
 O397 O 0.16143 0.52369 0.19170
 O398 O 0.19493 0.48153 0.16151
 Cu399 Cu 0.14796 0.49855 0.15050
 Cu400 Cu 0.18080 0.50299 0.17886
 C401 C 0.18698 0.47285 0.14438
 C402 C 0.14155 0.52791 0.18561
 C403 C 0.18051 0.53196 0.14294
 C404 C 0.14770 0.46956 0.18598
 O405 O 0.85565 0.46950 0.17168
 O406 O 0.82962 0.51907 0.14645
 O407 O 0.85980 0.51291 0.17605
 O408 O 0.82474 0.47550 0.14275
 O409 O 0.79953 0.47374 0.16876
 O410 O 0.83282 0.51504 0.20036
 O411 O 0.80215 0.51807 0.17028
 O412 O 0.83095 0.47079 0.19815
 Cu413 Cu 0.84503 0.49422 0.15671
 Cu414 Cu 0.81369 0.49443 0.18692
 C415 C 0.84827 0.46204 0.18950
 C416 C 0.81119 0.52674 0.15363
 C417 C 0.85232 0.52044 0.19385
 C418 C 0.80624 0.46806 0.15008
 O419 O 0.17070 0.52161 0.85782
 O420 O 0.13802 0.47566 0.83295
 O421 O 0.16961 0.47741 0.86169
 O422 O 0.13853 0.51882 0.82973
 O423 O 0.16384 0.51652 0.80382
 O424 O 0.19527 0.47445 0.83621
 O425 O 0.16344 0.47238 0.80724
 O426 O 0.19635 0.51856 0.83233
 Cu427 Cu 0.15185 0.49868 0.84827
 Cu428 Cu 0.18235 0.49522 0.81734
 C429 C 0.18911 0.52793 0.84943
 C430 C 0.14483 0.46655 0.81558
 C431 C 0.18764 0.46875 0.85456
 C432 C 0.14543 0.52431 0.81112
 C433 C 0.30247 0.38828 0.05363
 C434 C 0.29206 0.39985 0.07064
 C435 C 0.26918 0.39661 0.07481
 C436 C 0.25706 0.38073 0.06247
 C437 C 0.26747 0.36909 0.04562
 C438 C 0.29011 0.37307 0.04082
 N439 N 0.25817 0.41075 0.09039
 N440 N 0.23689 0.41103 0.09181
 C441 C 0.22491 0.42559 0.10626
 C442 C 0.20162 0.42685 0.10424
 C443 C 0.18932 0.44204 0.11682
 C444 C 0.20013 0.45609 0.13192
 C445 C 0.22349 0.45432 0.13445
 C446 C 0.23586 0.43927 0.12157
 H447 H 0.31989 0.39178 0.04993
 H448 H 0.30156 0.41209 0.07997
 H449 H 0.23939 0.37783 0.06540
 H450 H 0.25766 0.35752 0.03582
 H451 H 0.19304 0.41637 0.09248
 H452 H 0.17133 0.44289 0.11462
 H453 H 0.23224 0.46497 0.14596
 H454 H 0.25389 0.43853 0.12340
 C455 C 0.70380 0.61865 0.06191
 C456 C 0.71364 0.60724 0.07922
 C457 C 0.73686 0.60819 0.08239
 C458 C 0.75009 0.62149 0.06848
 C459 C 0.74026 0.63300 0.05127
 C460 C 0.71709 0.63144 0.04767
 N461 N 0.74680 0.59427 0.09871
 N462 N 0.76798 0.59258 0.10055
 C463 C 0.77850 0.57779 0.11575
 C464 C 0.80171 0.57482 0.11446
 C465 C 0.81241 0.55873 0.12730
 C466 C 0.80006 0.54545 0.14193
 C467 C 0.77687 0.54919 0.14397
 C468 C 0.76611 0.56515 0.13086
 H469 H 0.68595 0.61693 0.05919
 H470 H 0.70327 0.59694 0.08971
 H471 H 0.76808 0.62252 0.07055
 H472 H 0.75081 0.64264 0.04039
 H473 H 0.81143 0.58446 0.10289
 H474 H 0.83031 0.55634 0.12545
 H475 H 0.76693 0.53916 0.15506
 H476 H 0.74812 0.56720 0.13215
 C477 C 0.73271 0.36030 0.93794
 C478 C 0.74412 0.37033 0.92065
 C479 C 0.74173 0.39362 0.91661
 C480 C 0.72673 0.40648 0.92906
 C481 C 0.71486 0.39637 0.94585
 C482 C 0.71809 0.37332 0.95077
 N483 N 0.75567 0.40451 0.90096
 N484 N 0.76380 0.42403 0.90514
 C485 C 0.77706 0.43677 0.89026
 C486 C 0.79124 0.45365 0.89839
 C487 C 0.80319 0.46773 0.88446
 C488 C 0.80061 0.46559 0.86208
 C489 C 0.78652 0.44846 0.85386
 C490 C 0.77500 0.43390 0.86789
 H491 H 0.73584 0.34263 0.94175
 H492 H 0.75576 0.36029 0.91121
 H493 H 0.72457 0.42447 0.92603
 H494 H 0.70377 0.40675 0.95559
 H495 H 0.79279 0.45607 0.91561
 H496 H 0.81374 0.48094 0.89123
 H497 H 0.78423 0.44653 0.83666
 H498 H 0.76389 0.42106 0.86135
 C499 C 0.24558 0.64951 0.95145
 C500 C 0.23462 0.63813 0.93477
 C501 C 0.24573 0.62133 0.92290
 C502 C 0.26839 0.61665 0.92728
 C503 C 0.27937 0.62798 0.94409
 C504 C 0.26789 0.64423 0.95649
 N505 N 0.23294 0.60780 0.90818
 N506 N 0.24169 0.59283 0.89598
 C507 C 0.22806 0.57819 0.88295
 C508 C 0.23826 0.56399 0.86770
 C509 C 0.22549 0.54814 0.85614
 C510 C 0.20235 0.54601 0.86003
 C511 C 0.19210 0.56060 0.87503
 C512 C 0.20479 0.57663 0.88629
 H513 H 0.23640 0.66179 0.96104
 H514 H 0.21713 0.64174 0.93165
 H515 H 0.27724 0.60356 0.91842
 H516 H 0.29645 0.62341 0.94803
 H517 H 0.25619 0.56493 0.86506
 H518 H 0.23384 0.53704 0.84474
 H519 H 0.17429 0.55940 0.87829
 H520 H 0.19651 0.58731 0.89809
 C521 C 0.05152 0.25650 0.36205
 C522 C 0.06925 0.24672 0.37330
 C523 C 0.08068 0.25912 0.38910
 C524 C 0.07477 0.28191 0.39297
 C525 C 0.05693 0.29175 0.38169
 C526 C 0.04498 0.27894 0.36642
 N527 N 0.09653 0.24735 0.40224
 N528 N 0.10826 0.25697 0.41676
 C529 C 0.12237 0.24380 0.43062
 C530 C 0.13703 0.25478 0.44489
 C531 C 0.14960 0.24216 0.45970
 C532 C 0.14729 0.21838 0.46065
 C533 C 0.13291 0.20744 0.44603
 C534 C 0.12070 0.21996 0.43110
 H535 H 0.04234 0.24632 0.35047
 H536 H 0.07356 0.22910 0.37031
 H537 H 0.08327 0.29175 0.40525
 H538 H 0.05188 0.30899 0.38545
 H539 H 0.13842 0.27314 0.44477
 H540 H 0.16052 0.25101 0.47084
 H541 H 0.13091 0.18913 0.44628
 H542 H 0.10945 0.21101 0.42035
 C543 C 0.06258 0.71023 0.62472
 C544 C 0.08095 0.72219 0.61657
 C545 C 0.08935 0.71720 0.59605
 C546 C 0.07968 0.69944 0.58400
 C547 C 0.06108 0.68767 0.59204
 C548 C 0.05224 0.69326 0.61231
 N549 N 0.10580 0.73204 0.58689
 N550 N 0.11628 0.72725 0.56962
 C551 C 0.13075 0.74346 0.55947
 C552 C 0.14529 0.73625 0.54312
 C553 C 0.15778 0.75213 0.53139
 C554 C 0.15542 0.77551 0.53554
 C555 C 0.14123 0.78266 0.55229
 C556 C 0.12915 0.76677 0.56430
 H557 H 0.05572 0.71497 0.64026
 H558 H 0.08811 0.73598 0.62589
 H559 H 0.08574 0.69547 0.56799
 H560 H 0.05307 0.67480 0.58217
 H561 H 0.14654 0.71835 0.53915
 H562 H 0.16850 0.74620 0.51844
 H563 H 0.13917 0.80059 0.55583
 H564 H 0.11787 0.77278 0.57674
 C565 C 0.94367 0.70449 0.38393
 C566 C 0.92540 0.71342 0.39526
 C567 C 0.92017 0.73656 0.39378
 C568 C 0.93302 0.75062 0.38022
 C569 C 0.95116 0.74166 0.36876
 C570 C 0.95672 0.71858 0.37064
 N571 N 0.90283 0.74567 0.40724
 N572 N 0.89941 0.76698 0.40865
 C573 C 0.88306 0.77655 0.42291
 C574 C 0.88323 0.80006 0.42632
 C575 C 0.86940 0.80981 0.44195
 C576 C 0.85486 0.79617 0.45424
 C577 C 0.85384 0.77269 0.45003
 C578 C 0.86798 0.76290 0.43458
 H579 H 0.94798 0.68673 0.38590
 H580 H 0.91575 0.70246 0.40579
 H581 H 0.92935 0.76857 0.37883
 H582 H 0.96118 0.75282 0.35875
 H583 H 0.89476 0.81074 0.41740
 H584 H 0.87045 0.82796 0.44477
 H585 H 0.84286 0.76178 0.45932
 H586 H 0.86753 0.74467 0.43214
 C587 C 0.93285 0.27844 0.63936
 C588 C 0.91496 0.27008 0.62706
 C589 C 0.91601 0.27062 0.60452
 C590 C 0.93444 0.28105 0.59443
 C591 C 0.95207 0.28970 0.60667
 C592 C 0.95171 0.28794 0.62918
 N593 N 0.89946 0.25876 0.59210
 N594 N 0.90421 0.25189 0.57319
 C595 C 0.88906 0.23936 0.55987
 C596 C 0.89798 0.22721 0.54251
 C597 C 0.88417 0.21385 0.52958
 C598 C 0.86100 0.21291 0.53343
 C599 C 0.85183 0.22568 0.55046
 C600 C 0.86585 0.23863 0.56385
 H601 H 0.93241 0.27668 0.65671
 H602 H 0.90088 0.26202 0.63503
 H603 H 0.93554 0.28187 0.57705
 H604 H 0.96649 0.29694 0.59853
 H605 H 0.91583 0.22774 0.53930
 H606 H 0.89160 0.20433 0.51642
 H607 H 0.83398 0.22517 0.55369
 H608 H 0.85865 0.24805 0.57716
 C609 C 0.36288 0.06530 0.27781
 C610 C 0.37297 0.08295 0.26615
 C611 C 0.39608 0.08682 0.26788
 C612 C 0.40868 0.07411 0.28261
 C613 C 0.39856 0.05695 0.29461
 C614 C 0.37573 0.05193 0.29187
 N615 N 0.40705 0.10177 0.25309
 N616 N 0.42612 0.09618 0.24557
 C617 C 0.43864 0.10978 0.23082
 C618 C 0.45444 0.09894 0.21775
 C619 C 0.46748 0.11144 0.20340
 C620 C 0.46543 0.13518 0.20240
 C621 C 0.44975 0.14621 0.21572
 C622 C 0.43613 0.13351 0.22967
 H623 H 0.34534 0.06142 0.27516
 H624 H 0.36312 0.09254 0.25473
 H625 H 0.42654 0.07698 0.28424
 H626 H 0.40877 0.04678 0.30530
 H627 H 0.45658 0.08068 0.21865
 H628 H 0.47965 0.10259 0.19349
 H629 H 0.44798 0.16453 0.21522
 H630 H 0.42411 0.14216 0.23987
 C631 C 0.60394 0.03901 0.70521
 C632 C 0.58998 0.05592 0.71344
 C633 C 0.59903 0.07458 0.72438
 C634 C 0.62243 0.07668 0.72631
 C635 C 0.63646 0.05952 0.71833
 C636 C 0.62723 0.04037 0.70805
 N637 N 0.58403 0.08933 0.73566
 N638 N 0.58965 0.10872 0.74303
 C639 C 0.57428 0.12128 0.75620
 C640 C 0.57586 0.14502 0.75756
 C641 C 0.56104 0.15725 0.77078
 C642 C 0.54506 0.14569 0.78332
 C643 C 0.54375 0.12190 0.78209
 C644 C 0.55804 0.10983 0.76849
 H645 H 0.59651 0.02426 0.69751
 H646 H 0.57197 0.05404 0.71207
 H647 H 0.62972 0.09084 0.73501
 H648 H 0.65436 0.06064 0.72102
 H649 H 0.58841 0.15403 0.74827
 H650 H 0.56237 0.17560 0.77157
 H651 H 0.53149 0.11263 0.79153
 H652 H 0.55670 0.09148 0.76792
 C653 C 0.37078 0.94243 0.71381
 C654 C 0.38094 0.92530 0.72598
 C655 C 0.40404 0.92595 0.72994
 C656 C 0.41714 0.94304 0.72037
 C657 C 0.40712 0.95977 0.70777
 C658 C 0.38378 0.95998 0.70478
 N659 N 0.41374 0.91023 0.74481
 N660 N 0.43069 0.91608 0.75595
 C661 C 0.44147 0.90137 0.77100
 C662 C 0.45537 0.91113 0.78658
 C663 C 0.46675 0.89749 0.80126
 C664 C 0.46488 0.87369 0.80024
 C665 C 0.45092 0.86383 0.78455
 C666 C 0.43905 0.87761 0.77015
 H667 H 0.35271 0.94251 0.71217
 H668 H 0.37065 0.91226 0.73334
 H669 H 0.43506 0.94372 0.72306
 H670 H 0.41748 0.97314 0.70104
 H671 H 0.45741 0.92942 0.78732
 H672 H 0.47757 0.90556 0.81302
 H673 H 0.44925 0.84552 0.78340
 H674 H 0.42847 0.86974 0.75809
 C675 C 0.58262 0.95172 0.30644
 C676 C 0.57053 0.93434 0.29650
 C677 C 0.58162 0.91716 0.28515
 C678 C 0.60518 0.91702 0.28445
 C679 C 0.61735 0.93472 0.29411
 C680 C 0.60608 0.95238 0.30490
 N681 N 0.56848 0.90225 0.27206
 N682 N 0.57544 0.88335 0.26460
 C683 C 0.56174 0.87113 0.24959
 C684 C 0.56203 0.84728 0.24888
 C685 C 0.54805 0.83551 0.23446
 C686 C 0.53434 0.84760 0.22011
 C687 C 0.53463 0.87146 0.22056
 C688 C 0.54798 0.88308 0.23526
 H689 H 0.57361 0.96529 0.31450
 H690 H 0.55238 0.93475 0.29690
 H691 H 0.61402 0.90409 0.27537
 H692 H 0.63542 0.93519 0.29238
 H693 H 0.57266 0.83787 0.25978
 H694 H 0.54810 0.81710 0.23436
 H695 H 0.52410 0.88120 0.20980
 H696 H 0.54772 0.90149 0.23534
 C697 C 0.38381 0.30006 0.94455
 C698 C 0.39473 0.29054 0.92670
 C699 C 0.39923 0.26720 0.92594
 C700 C 0.39230 0.25336 0.94311
 C701 C 0.38149 0.26279 0.96091
 C702 C 0.37702 0.28630 0.96198
 N703 N 0.41175 0.25798 0.90823
 N704 N 0.41691 0.23700 0.90774
 C705 C 0.43013 0.22686 0.89107
 C706 C 0.43592 0.20397 0.89317
 C707 C 0.45010 0.19364 0.87822
 C708 C 0.45866 0.20605 0.86071
 C709 C 0.45228 0.22892 0.85822
 C710 C 0.43817 0.23932 0.87338
 H711 H 0.38158 0.31833 0.94512
 H712 H 0.40022 0.30145 0.91369
 H713 H 0.39552 0.23525 0.94296
 H714 H 0.37636 0.25154 0.97380
 H715 H 0.42980 0.19423 0.90674
 H716 H 0.45456 0.17597 0.88053
 H717 H 0.45865 0.23889 0.84490
 H718 H 0.43386 0.25707 0.87147
 C719 C 0.63824 0.72101 0.95223
 C720 C 0.62837 0.73229 0.93481
 C721 C 0.60536 0.73687 0.93485
 C722 C 0.59209 0.72904 0.95196
 C723 C 0.60177 0.71738 0.96907
 C724 C 0.62507 0.71332 0.96970
 N725 N 0.59579 0.75047 0.91813
 N726 N 0.57845 0.76238 0.92202
 C727 C 0.56745 0.77606 0.90628
 C728 C 0.55306 0.79318 0.91351
 C729 C 0.54129 0.80648 0.89887
 C730 C 0.54325 0.80248 0.87664
 C731 C 0.55766 0.78519 0.86931
 C732 C 0.56994 0.77220 0.88406
 H733 H 0.65632 0.71944 0.95250
 H734 H 0.63883 0.73848 0.92182
 H735 H 0.57420 0.73213 0.95219
 H736 H 0.59090 0.71151 0.98191
 H737 H 0.55094 0.79618 0.93061
 H738 H 0.53013 0.81951 0.90499
 H739 H 0.55940 0.78176 0.85225
 H740 H 0.58086 0.75886 0.87820
 C741 C 0.36287 0.71159 0.05394
 C742 C 0.37435 0.71961 0.07208
 C743 C 0.38064 0.74248 0.07360
 C744 C 0.37494 0.75742 0.05688
 C745 C 0.36355 0.74948 0.03877
 C746 C 0.35727 0.72642 0.03695
 N747 N 0.39372 0.75002 0.09162
 N748 N 0.40035 0.77054 0.09303
 C749 C 0.41424 0.77884 0.11009
 C750 C 0.42154 0.80139 0.10915
 C751 C 0.43645 0.80987 0.12445
 C752 C 0.44428 0.79591 0.14116
 C753 C 0.43638 0.77340 0.14252
 C754 C 0.42151 0.76486 0.12701
 H755 H 0.35929 0.69357 0.05280
 H756 H 0.37889 0.70785 0.08472
 H757 H 0.37957 0.77521 0.05762
 H758 H 0.35940 0.76153 0.02624
 H759 H 0.41602 0.81231 0.09618
 H760 H 0.44208 0.82732 0.12301
 H761 H 0.44216 0.76225 0.15519
 H762 H 0.41605 0.74733 0.12803
 C763 C 0.64899 0.27644 0.05065
 C764 C 0.63866 0.26582 0.06825
 C765 C 0.61554 0.26158 0.06804
 C766 C 0.60263 0.26932 0.05067
 C767 C 0.61280 0.28035 0.03340
 C768 C 0.63612 0.28360 0.03298
 N769 N 0.60548 0.24838 0.08483
 N770 N 0.58825 0.23634 0.08077
 C771 C 0.57669 0.22311 0.09655
 C772 C 0.56196 0.20625 0.08940
 C773 C 0.54933 0.19369 0.10406
 C774 C 0.55084 0.19819 0.12624
 C775 C 0.56580 0.21505 0.13350
 C776 C 0.57885 0.22732 0.11873
 H777 H 0.66704 0.27844 0.05050
 H778 H 0.64880 0.25990 0.08154
 H779 H 0.58469 0.26647 0.05031
 H780 H 0.60256 0.28575 0.01997
 H781 H 0.56011 0.20297 0.07232
 H782 H 0.53781 0.18097 0.09796
 H783 H 0.56724 0.21887 0.15051
 H784 H 0.59007 0.24045 0.12455
 C785 C 0.30494 0.05529 0.61460
 C786 C 0.29447 0.07370 0.60453
 C787 C 0.27143 0.07321 0.60039
 C788 C 0.25889 0.05405 0.60655
 C789 C 0.26929 0.03565 0.61653
 C790 C 0.29247 0.03601 0.62095
 N791 N 0.26123 0.09183 0.58922
 N792 N 0.24035 0.09180 0.58500
 C793 C 0.22948 0.10950 0.57319
 C794 C 0.20677 0.10688 0.56832
 C795 C 0.19581 0.12272 0.55542
 C796 C 0.20738 0.14167 0.54722
 C797 C 0.23005 0.14477 0.55276
 C798 C 0.24108 0.12873 0.56560
 H799 H 0.32296 0.05582 0.61669
 H800 H 0.30441 0.08820 0.59957
 H801 H 0.24105 0.05316 0.60349
 H802 H 0.25903 0.02126 0.62121
 H803 H 0.19766 0.09215 0.57411
 H804 H 0.17832 0.11988 0.55156
 H805 H 0.23941 0.15916 0.54663
 H806 H 0.25868 0.13110 0.56920
 C807 C 0.70339 0.05339 0.37073
 C808 C 0.71552 0.07186 0.37904
 C809 C 0.72088 0.07277 0.40095
 C810 C 0.71298 0.05567 0.41470
 C811 C 0.70052 0.03756 0.40659
 C812 C 0.69573 0.03583 0.38440
 N813 N 0.73526 0.09035 0.40901
 N814 N 0.74787 0.08627 0.42503
 C815 C 0.76221 0.10278 0.43482
 C816 C 0.77962 0.09501 0.44785
 C817 C 0.79324 0.11035 0.45887
 C818 C 0.78931 0.13385 0.45749
 C819 C 0.77184 0.14173 0.44429
 C820 C 0.75848 0.12627 0.43280
 H821 H 0.70109 0.05230 0.35347
 H822 H 0.72171 0.08487 0.36823
 H823 H 0.71662 0.05623 0.43176
 H824 H 0.69459 0.02480 0.41781
 H825 H 0.78250 0.07693 0.44961
 H826 H 0.80643 0.10375 0.46905
 H827 H 0.76845 0.15976 0.44299
 H828 H 0.74490 0.13256 0.42294
 C829 C 0.75208 0.95760 0.64163
 C830 C 0.76379 0.93946 0.63243
 C831 C 0.75229 0.92215 0.62157
 C832 C 0.72874 0.92263 0.62077
 C833 C 0.71700 0.94080 0.62997
 C834 C 0.72863 0.95859 0.64016
 N835 N 0.76501 0.90571 0.60972
 N836 N 0.75592 0.88968 0.59904
 C837 C 0.76893 0.87484 0.58564
 C838 C 0.75812 0.85756 0.57406
 C839 C 0.76988 0.84486 0.55866
 C840 C 0.79262 0.84946 0.55451
 C841 C 0.80365 0.86609 0.56688
 C842 C 0.79195 0.87862 0.58234
 H843 H 0.76134 0.97126 0.64928
 H844 H 0.78194 0.93935 0.63300
 H845 H 0.71950 0.90952 0.61231
 H846 H 0.69893 0.94147 0.62841
 H847 H 0.74037 0.85453 0.57640
 H848 H 0.76093 0.83218 0.54935
 H849 H 0.82119 0.86992 0.56417
 H850 H 0.80072 0.89186 0.59108
 C851 C 0.28651 0.94754 0.36383
 C852 C 0.27612 0.92893 0.37383
 C853 C 0.26956 0.93028 0.39545
 C854 C 0.27447 0.94999 0.40729
 C855 C 0.28511 0.96834 0.39751
 C856 C 0.29108 0.96764 0.37552
 N857 N 0.25738 0.91193 0.40512
 N858 N 0.24528 0.91554 0.42167
 C859 C 0.23328 0.89809 0.43279
 C860 C 0.23783 0.87492 0.42948
 C861 C 0.22685 0.85847 0.44192
 C862 C 0.21099 0.86499 0.45755
 C863 C 0.20612 0.88818 0.46031
 C864 C 0.21734 0.90455 0.44815
 H865 H 0.28986 0.94657 0.34671
 H866 H 0.27232 0.91384 0.36449
 H867 H 0.26994 0.95128 0.42413
 H868 H 0.28872 0.98318 0.40728
 H869 H 0.25021 0.86960 0.41775
 H870 H 0.23091 0.84071 0.43945
 H871 H 0.19409 0.89373 0.47230
 H872 H 0.21380 0.92239 0.45086
 C873 C 0.05115 0.34895 0.73291
 C874 C 0.06920 0.35799 0.74459
 C875 C 0.07383 0.38135 0.74378
 C876 C 0.06125 0.39531 0.73011
 C877 C 0.04372 0.38624 0.71803
 C878 C 0.03817 0.36310 0.71967
 N879 N 0.09010 0.39118 0.75791
 N880 N 0.08575 0.41008 0.76699
 C881 C 0.10115 0.42205 0.78049
 C882 C 0.12447 0.41983 0.77812
 C883 C 0.13893 0.43398 0.78987
 C884 C 0.13020 0.45002 0.80447
 C885 C 0.10688 0.45144 0.80732
 C886 C 0.09253 0.43780 0.79519
 H887 H 0.04684 0.33116 0.73477
 H888 H 0.07874 0.34708 0.75518
 H889 H 0.06472 0.41337 0.72917
 H890 H 0.03386 0.39746 0.70802
 H891 H 0.13140 0.40790 0.76660
 H892 H 0.15686 0.43263 0.78735
 H893 H 0.09967 0.46381 0.81827
 H894 H 0.07457 0.43975 0.79698
 C895 C 0.05277 0.64525 0.27268
 C896 C 0.07016 0.63506 0.26094
 C897 C 0.07284 0.61140 0.26124
 C898 C 0.05894 0.59816 0.27450
 C899 C 0.04202 0.60834 0.28662
 C900 C 0.03844 0.63189 0.28547
 N901 N 0.08853 0.60078 0.24697
 N902 N 0.08403 0.58135 0.23903
 C903 C 0.09886 0.56924 0.22505
 C904 C 0.08988 0.55215 0.21196
 C905 C 0.10377 0.53927 0.19864
 C906 C 0.12705 0.54284 0.19866
 C907 C 0.13614 0.55998 0.21186
 C908 C 0.12207 0.57333 0.22481
 H909 H 0.05000 0.66337 0.27121
 H910 H 0.08073 0.64542 0.25070
 H911 H 0.06089 0.57987 0.27510
 H912 H 0.03109 0.59773 0.29629
 H913 H 0.07202 0.54880 0.21215
 H914 H 0.09637 0.52602 0.18879
 H915 H 0.15405 0.56300 0.21216
 H916 H 0.12932 0.58636 0.23500
 C917 C 0.94275 0.36869 0.29376
 C918 C 0.92430 0.37918 0.28401
 C919 C 0.92394 0.38270 0.26173
 C920 C 0.94209 0.37512 0.24920
 C921 C 0.96054 0.36488 0.25887
 C922 C 0.96128 0.36155 0.28133
 N923 N 0.90593 0.39534 0.25225
 N924 N 0.90526 0.39864 0.23201
 C925 C 0.88878 0.41242 0.22163
 C926 C 0.89062 0.41561 0.19942
 C927 C 0.87679 0.43107 0.18887
 C928 C 0.86067 0.44359 0.20039
 C929 C 0.85803 0.43956 0.22257
 C930 C 0.87209 0.42414 0.23318
 H931 H 0.94300 0.36728 0.31115
 H932 H 0.91055 0.38519 0.29391
 H933 H 0.94232 0.37762 0.23194
 H934 H 0.97430 0.35942 0.24868
 H935 H 0.90343 0.40667 0.19037
 H936 H 0.87916 0.43367 0.17176
 H937 H 0.84580 0.44903 0.23187
 H938 H 0.87039 0.42194 0.25041
 C939 C 0.94374 0.61640 0.69100
 C940 C 0.92455 0.60775 0.70115
 C941 C 0.92111 0.61121 0.72322
 C942 C 0.93683 0.62400 0.73496
 C943 C 0.95599 0.63251 0.72493
 C944 C 0.95982 0.62884 0.70280
 N945 N 0.90279 0.60002 0.73380
 N946 N 0.89985 0.60213 0.75401
 C947 C 0.88313 0.58988 0.76579
 C948 C 0.88334 0.59150 0.78823
 C949 C 0.86985 0.57725 0.80066
 C950 C 0.85565 0.56128 0.79078
 C951 C 0.85432 0.56067 0.76818
 C952 C 0.86812 0.57478 0.75572
 H953 H 0.94658 0.61228 0.67421
 H954 H 0.91278 0.59760 0.69198
 H955 H 0.93467 0.62687 0.75206
 H956 H 0.96796 0.64197 0.73454
 H957 H 0.89484 0.60308 0.79615
 H958 H 0.87112 0.57818 0.81804
 H959 H 0.84358 0.54843 0.76019
 H960 H 0.86770 0.57327 0.73835
 C961 C 0.74010 0.63933 0.96439
 C962 C 0.75183 0.63048 0.94681
 C963 C 0.74169 0.61466 0.93305
 C964 C 0.71936 0.60800 0.93688
 C965 C 0.70762 0.61678 0.95462
 C966 C 0.71798 0.63246 0.96852
 N967 N 0.75502 0.60461 0.91636
 N968 N 0.74712 0.59117 0.90216
 C969 C 0.76147 0.58036 0.88664
 C970 C 0.75204 0.56694 0.87032
 C971 C 0.76581 0.55464 0.85618
 C972 C 0.78926 0.55536 0.85839
 C973 C 0.79865 0.56940 0.87436
 C974 C 0.78493 0.58186 0.88827
 H975 H 0.74843 0.65122 0.97507
 H976 H 0.76906 0.63559 0.94412
 H977 H 0.71126 0.59561 0.92658
 H978 H 0.69068 0.61102 0.95779
 H979 H 0.73400 0.56559 0.86890
 H980 H 0.75809 0.54386 0.84411
 H981 H 0.81666 0.57039 0.87642
 H982 H 0.79269 0.59207 0.90073
 C983 C 0.29973 0.37856 0.94507
 C984 C 0.28909 0.38929 0.92775
 C985 C 0.26581 0.39223 0.92776
 C986 C 0.25315 0.38368 0.94503
 C987 C 0.26367 0.37308 0.96229
 C988 C 0.28715 0.37044 0.96273
 N989 N 0.25538 0.40506 0.91091
 N990 N 0.23449 0.40935 0.91159
 C991 C 0.22306 0.42290 0.89601
 C992 C 0.20047 0.42785 0.89964
 C993 C 0.18892 0.44240 0.88591
 C994 C 0.19977 0.45218 0.86808
 C995 C 0.22233 0.44663 0.86400
 C996 C 0.23397 0.43216 0.87796
 H997 H 0.31786 0.37772 0.94515
 H998 H 0.29909 0.39600 0.91465
 H999 H 0.23510 0.38560 0.94546
 H1000 H 0.25332 0.36682 0.97536
 H1001 H 0.19191 0.42079 0.91350
 H1002 H 0.17153 0.44619 0.88942
 H1003 H 0.23111 0.45394 0.85039
 H1004 H 0.25147 0.42853 0.87487
 C1005 C 0.27999 0.63582 0.05163
 C1006 C 0.27073 0.62349 0.06877
 C1007 C 0.24775 0.61871 0.06936
 C1008 C 0.23393 0.62711 0.05293
 C1009 C 0.24309 0.63939 0.03585
 C1010 C 0.26633 0.64380 0.03473
 N1011 N 0.23898 0.60423 0.08593
 N1012 N 0.21853 0.59800 0.08588
 C1013 C 0.20917 0.58273 0.10142
 C1014 C 0.18695 0.57569 0.09877
 C1015 C 0.17755 0.55954 0.11253
 C1016 C 0.19022 0.55019 0.12938
 C1017 C 0.21238 0.55777 0.13245
 C1018 C 0.22185 0.57387 0.11850
 H1019 H 0.29802 0.63792 0.05104
 H1020 H 0.28163 0.61693 0.08121
 H1021 H 0.21607 0.62380 0.05303
 H1022 H 0.23187 0.64551 0.02346
 H1023 H 0.17703 0.58240 0.08566
 H1024 H 0.16042 0.55417 0.10978
 H1025 H 0.22257 0.55086 0.14527
 H1026 H 0.23909 0.57908 0.12084
 C1027 C 0.71486 0.40500 0.02738
 C1028 C 0.72515 0.41726 0.04384
 C1029 C 0.73340 0.40619 0.06199
 C1030 C 0.73073 0.38254 0.06385
 C1031 C 0.72066 0.37008 0.04717
 C1032 C 0.71274 0.38112 0.02849
 N1033 N 0.74611 0.41922 0.07714
 N1034 N 0.75099 0.41240 0.09598
 C1035 C 0.76506 0.42602 0.10956
 C1036 C 0.76377 0.42384 0.13199
 C1037 C 0.77704 0.43759 0.14535
 C1038 C 0.79227 0.45321 0.13636
 C1039 C 0.79390 0.45491 0.11387
 C1040 C 0.78029 0.44163 0.10061
 H1041 H 0.70870 0.41429 0.01357
 H1042 H 0.72715 0.43549 0.04224
 H1043 H 0.73740 0.37361 0.07764
 H1044 H 0.72039 0.35171 0.04834
 H1045 H 0.75218 0.41180 0.13910
 H1046 H 0.77555 0.43591 0.16265
 H1047 H 0.80543 0.46685 0.10651
 H1048 H 0.78177 0.44345 0.08332
 C1049 C 0.97170 0.69751 0.58204
 C1050 C 0.95544 0.70966 0.57082
 C1051 C 0.93841 0.72103 0.58186
 C1052 C 0.93775 0.72019 0.60443
 C1053 C 0.95436 0.70847 0.61577
 C1054 C 0.97154 0.69669 0.60476
 N1055 N 0.92299 0.73454 0.56983
 N1056 N 0.90395 0.74054 0.57714
 C1057 C 0.88968 0.75513 0.56487
 C1058 C 0.86643 0.75432 0.56798
 C1059 C 0.85227 0.76811 0.55570
 C1060 C 0.86131 0.78343 0.54067
 C1061 C 0.88466 0.78461 0.53800
 C1062 C 0.89871 0.77039 0.54980
 H1063 H 0.98447 0.68868 0.57284
 H1064 H 0.95618 0.71033 0.55341
 H1065 H 0.92502 0.72943 0.61328
 H1066 H 0.95433 0.70967 0.63317
 H1067 H 0.85928 0.74270 0.57963
 H1068 H 0.83430 0.76699 0.55808
 H1069 H 0.89202 0.79622 0.52645
 H1070 H 0.91666 0.77147 0.54732
 C1071 C 0.96449 0.24799 0.36473
 C1072 C 0.94692 0.23634 0.37460
 C1073 C 0.92851 0.24810 0.38289
 C1074 C 0.92742 0.27184 0.38050
 C1075 C 0.94499 0.28362 0.37041
 C1076 C 0.96396 0.27186 0.36258
 N1077 N 0.91226 0.23553 0.39498
 N1078 N 0.89531 0.24448 0.40413
 C1079 C 0.88057 0.23105 0.41728
 C1080 C 0.86244 0.24143 0.42775
 C1081 C 0.84933 0.22915 0.44245
 C1082 C 0.85432 0.20627 0.44698
 C1083 C 0.87196 0.19570 0.43578
 C1084 C 0.88491 0.20791 0.42107
 H1085 H 0.97861 0.23826 0.35874
 H1086 H 0.94795 0.21805 0.37638
 H1087 H 0.91341 0.28131 0.38703
 H1088 H 0.94430 0.30201 0.36984
 H1089 H 0.85891 0.25925 0.42502
 H1090 H 0.83588 0.23778 0.45086
 H1091 H 0.87617 0.17808 0.43879
 H1092 H 0.89877 0.19939 0.41318
 C1093 C 0.02998 0.25066 0.63313
 C1094 C 0.04701 0.23909 0.62229
 C1095 C 0.06578 0.25076 0.61463
 C1096 C 0.06778 0.27421 0.61859
 C1097 C 0.05072 0.28588 0.62954
 C1098 C 0.03141 0.27429 0.63682
 N1099 N 0.08159 0.23857 0.60162
 N1100 N 0.09912 0.24765 0.59366
 C1101 C 0.11378 0.23511 0.57968
 C1102 C 0.13344 0.24539 0.57210
 C1103 C 0.14732 0.23400 0.55741
 C1104 C 0.14158 0.21216 0.54990
 C1105 C 0.12201 0.20175 0.55782
 C1106 C 0.10828 0.21306 0.57260
 H1107 H 0.01551 0.24107 0.63854
 H1108 H 0.04527 0.22102 0.61930
 H1109 H 0.08206 0.28365 0.61256
 H1110 H 0.05206 0.30418 0.63113
 H1111 H 0.13785 0.26239 0.57736
 H1112 H 0.16225 0.24251 0.55158
 H1113 H 0.11715 0.18493 0.55242
 H1114 H 0.09314 0.20473 0.57814
 C1115 C 0.05550 0.70580 0.37638
 C1116 C 0.07406 0.71482 0.38723
 C1117 C 0.07568 0.73821 0.39111
 C1118 C 0.05863 0.75261 0.38364
 C1119 C 0.04013 0.74367 0.37279
 C1120 C 0.03824 0.72010 0.36885
 N1121 N 0.09406 0.74687 0.40356
 N1122 N 0.09517 0.76779 0.40876
 C1123 C 0.11261 0.77710 0.42192
 C1124 C 0.11067 0.79968 0.42870
 C1125 C 0.12616 0.80898 0.44305
 C1126 C 0.14412 0.79587 0.45072
 C1127 C 0.14662 0.77343 0.44322
 C1128 C 0.13087 0.76402 0.42901
 H1129 H 0.05420 0.68750 0.37474
 H1130 H 0.08690 0.70348 0.39320
 H1131 H 0.05942 0.77077 0.38642
 H1132 H 0.02734 0.75531 0.36723
 H1133 H 0.09669 0.80992 0.42332
 H1134 H 0.12385 0.82636 0.44842
 H1135 H 0.16026 0.76292 0.44893
 H1136 H 0.13272 0.74650 0.42392
 C1137 C 0.63349 0.93993 0.71018
 C1138 C 0.62299 0.92208 0.72126
 C1139 C 0.61843 0.92398 0.74333
 C1140 C 0.62521 0.94370 0.75436
 C1141 C 0.63546 0.96154 0.74336
 C1142 C 0.63959 0.96011 0.72105
 N1143 N 0.60541 0.90675 0.75393
 N1144 N 0.60091 0.90837 0.77392
 C1145 C 0.58664 0.89288 0.78528
 C1146 C 0.58239 0.89722 0.80703
 C1147 C 0.56656 0.88441 0.81827
 C1148 C 0.55468 0.86685 0.80795
 C1149 C 0.55970 0.86177 0.78631
 C1150 C 0.57552 0.87479 0.77498
 H1151 H 0.63554 0.93848 0.69290
 H1152 H 0.61764 0.90710 0.71248
 H1153 H 0.62195 0.94569 0.77141
 H1154 H 0.64005 0.97667 0.75234
 H1155 H 0.59084 0.91113 0.81511
 H1156 H 0.56321 0.88867 0.83495
 H1157 H 0.55078 0.84837 0.77792
 H1158 H 0.57853 0.87118 0.75812
 C1159 C 0.40532 0.97062 0.29219
 C1160 C 0.41627 0.95317 0.28125
 C1161 C 0.40443 0.93420 0.27395
 C1162 C 0.38140 0.93241 0.27839
 C1163 C 0.37023 0.95008 0.28924
 C1164 C 0.38199 0.96972 0.29599
 N1165 N 0.41607 0.91823 0.26059
 N1166 N 0.40850 0.89871 0.25543
 C1167 C 0.42102 0.88451 0.24096
 C1168 C 0.41828 0.86084 0.24145
 C1169 C 0.43149 0.84682 0.22824
 C1170 C 0.44718 0.85640 0.21393
 C1171 C 0.44921 0.88017 0.21292
 C1172 C 0.43643 0.89406 0.22641
 H1173 H 0.41518 0.98508 0.29749
 H1174 H 0.43405 0.95470 0.27796
 H1175 H 0.37187 0.91796 0.27260
 H1176 H 0.35220 0.94898 0.29101
 H1177 H 0.40639 0.85324 0.25250
 H1178 H 0.42957 0.82854 0.22932
 H1179 H 0.46121 0.88807 0.20216
 H1180 H 0.43866 0.91231 0.22553
 C1181 C 0.63051 0.05110 0.29043
 C1182 C 0.62436 0.06920 0.27704
 C1183 C 0.60263 0.07040 0.26868
 C1184 C 0.58677 0.05401 0.27474
 C1185 C 0.59264 0.03636 0.28852
 C1186 C 0.61473 0.03427 0.29643
 N1187 N 0.59683 0.08781 0.25360
 N1188 N 0.58296 0.08335 0.23863
 C1189 C 0.57480 0.09980 0.22367
 C1190 C 0.56451 0.09193 0.20490
 C1191 C 0.55357 0.10697 0.19118
 C1192 C 0.55226 0.13025 0.19627
 C1193 C 0.56338 0.13833 0.21475
 C1194 C 0.57475 0.12320 0.22832
 H1195 H 0.64791 0.04974 0.29516
 H1196 H 0.63681 0.08167 0.27235
 H1197 H 0.56974 0.05490 0.26878
 H1198 H 0.57968 0.02438 0.29310
 H1199 H 0.56435 0.07391 0.20125
 H1200 H 0.54512 0.10012 0.17718
 H1201 H 0.56261 0.15616 0.21912
 H1202 H 0.58246 0.12958 0.24290
 C1203 C 0.38612 0.05997 0.69520
 C1204 C 0.39590 0.07866 0.70559
 C1205 C 0.39518 0.08049 0.72808
 C1206 C 0.38352 0.06395 0.74002
 C1207 C 0.37366 0.04538 0.72965
 C1208 C 0.37524 0.04299 0.70721
 N1209 N 0.40789 0.09803 0.73854
 N1210 N 0.41025 0.09832 0.75890
 C1211 C 0.42397 0.11459 0.76994
 C1212 C 0.42792 0.11140 0.79189
 C1213 C 0.44308 0.12530 0.80287
 C1214 C 0.45439 0.14291 0.79208
 C1215 C 0.44965 0.14679 0.77022
 C1216 C 0.43466 0.13261 0.75915
 H1217 H 0.38781 0.05825 0.67790
 H1218 H 0.40491 0.09120 0.69621
 H1219 H 0.38265 0.06496 0.75741
 H1220 H 0.36544 0.03241 0.73920
 H1221 H 0.41978 0.09757 0.80036
 H1222 H 0.44626 0.12198 0.81973
 H1223 H 0.45817 0.16020 0.76150
 H1224 H 0.43182 0.13539 0.74216
 C1225 C 0.63146 0.74020 0.05048
 C1226 C 0.62058 0.75183 0.06709
 C1227 C 0.60621 0.74028 0.08115
 C1228 C 0.60353 0.71659 0.07896
 C1229 C 0.61445 0.70491 0.06228
 C1230 C 0.62818 0.71674 0.04773
 N1231 N 0.59329 0.75333 0.09621
 N1232 N 0.57983 0.74438 0.10969
 C1233 C 0.56602 0.75807 0.12351
 C1234 C 0.55272 0.74750 0.13916
 C1235 C 0.53794 0.76031 0.15184
 C1236 C 0.53604 0.78394 0.14885
 C1237 C 0.54970 0.79454 0.13337
 C1238 C 0.56461 0.78177 0.12088
 H1239 H 0.64181 0.74962 0.03925
 H1240 H 0.62269 0.77006 0.06854
 H1241 H 0.59241 0.70732 0.08958
 H1242 H 0.61150 0.68686 0.06018
 H1243 H 0.55356 0.72925 0.14131
 H1244 H 0.52759 0.75162 0.16359
 H1245 H 0.54870 0.81271 0.13072
 H1246 H 0.57464 0.79037 0.10883
 C1247 C 0.39296 0.30110 0.05325
 C1248 C 0.40433 0.29105 0.07047
 C1249 C 0.40175 0.26779 0.07472
 C1250 C 0.38692 0.25486 0.06205
 C1251 C 0.37552 0.26489 0.04495
 C1252 C 0.37867 0.28799 0.04024
 N1253 N 0.41545 0.25732 0.09084
 N1254 N 0.41550 0.23584 0.09332
 C1255 C 0.42977 0.22443 0.10829
 C1256 C 0.43064 0.20070 0.10760
 C1257 C 0.44590 0.18887 0.12033
 C1258 C 0.46043 0.20063 0.13426
 C1259 C 0.45889 0.22446 0.13566
 C1260 C 0.44376 0.23633 0.12263
 H1261 H 0.39581 0.31888 0.04964
 H1262 H 0.41579 0.30118 0.08003
 H1263 H 0.38459 0.23687 0.06497
 H1264 H 0.36468 0.25450 0.03497
 H1265 H 0.41994 0.19137 0.09661
 H1266 H 0.44659 0.17052 0.11900
 H1267 H 0.46992 0.23395 0.14621
 H1268 H 0.44333 0.25471 0.12344
 C1269 C 0.64493 0.25223 0.95243
 C1270 C 0.63428 0.24032 0.93585
 C1271 C 0.62056 0.25173 0.92118
 C1272 C 0.61819 0.27547 0.92282
 C1273 C 0.62876 0.28739 0.93947
 C1274 C 0.64202 0.27582 0.95454
 N1275 N 0.60784 0.23864 0.90601
 N1276 N 0.59536 0.24780 0.89189
 C1277 C 0.58142 0.23451 0.87790
 C1278 C 0.56907 0.24547 0.86186
 C1279 C 0.55381 0.23327 0.84922
 C1280 C 0.55049 0.20986 0.85262
 C1281 C 0.56334 0.19880 0.86838
 C1282 C 0.57872 0.21098 0.88086
 H1283 H 0.65486 0.24298 0.96406
 H1284 H 0.63612 0.22203 0.93484
 H1285 H 0.60752 0.28465 0.91178
 H1286 H 0.62593 0.30551 0.94110
 H1287 H 0.57093 0.26361 0.85947
 H1288 H 0.54413 0.24229 0.83724
 H1289 H 0.56124 0.18078 0.87135
 H1290 H 0.58800 0.20211 0.89322
 C1291 C 0.34891 0.73638 0.94211
 C1292 C 0.36031 0.74694 0.92508
 C1293 C 0.38380 0.74748 0.92475
 C1294 C 0.39577 0.73614 0.94092
 C1295 C 0.38443 0.72504 0.95753
 C1296 C 0.36090 0.72542 0.95857
 N1297 N 0.39536 0.76065 0.90882
 N1298 N 0.41335 0.77104 0.91385
 C1299 C 0.42643 0.78410 0.89901
 C1300 C 0.44076 0.80074 0.90731
 C1301 C 0.45491 0.81299 0.89372
 C1302 C 0.45550 0.80834 0.87152
 C1303 C 0.44100 0.79166 0.86309
 C1304 C 0.42630 0.77979 0.87674
 H1305 H 0.33079 0.73734 0.94280
 H1306 H 0.35088 0.75572 0.91277
 H1307 H 0.41393 0.73618 0.94084
 H1308 H 0.39406 0.71677 0.97003
 H1309 H 0.44109 0.80408 0.92447
 H1310 H 0.46607 0.82551 0.90075
 H1311 H 0.44122 0.78768 0.84606
 H1312 H 0.41547 0.76678 0.87006
 C1313 C 0.70424 0.93657 0.37494
 C1314 C 0.71590 0.91879 0.38484
 C1315 C 0.71756 0.91792 0.40732
 C1316 C 0.70619 0.93413 0.41986
 C1317 C 0.69409 0.95150 0.41002
 C1318 C 0.69342 0.95323 0.38748
 N1319 N 0.73199 0.90153 0.41716
 N1320 N 0.74140 0.90601 0.43505
 C1321 C 0.75594 0.89052 0.44589
 C1322 C 0.77057 0.89918 0.46144
 C1323 C 0.78497 0.88473 0.47256
 C1324 C 0.78453 0.86119 0.46871
 C1325 C 0.76964 0.85240 0.45325
 C1326 C 0.75560 0.86703 0.44168
 H1327 H 0.70436 0.93781 0.35754
 H1328 H 0.72466 0.90643 0.37501
 H1329 H 0.70707 0.93363 0.43726
 H1330 H 0.68594 0.96418 0.42001
 H1331 H 0.77088 0.91725 0.46486
 H1332 H 0.79612 0.89192 0.48454
 H1333 H 0.76899 0.83430 0.45003
 H1334 H 0.74426 0.86000 0.42980
 C1335 C 0.31377 0.94219 0.60372
 C1336 C 0.30533 0.92313 0.59282
 C1337 C 0.28352 0.91534 0.59694
 C1338 C 0.27050 0.92641 0.61271
 C1339 C 0.27891 0.94542 0.62356
 C1340 C 0.30048 0.95359 0.61897
 N1341 N 0.27426 0.89749 0.58387
 N1342 N 0.25406 0.89097 0.58639
 C1343 C 0.24331 0.87455 0.57281
 C1344 C 0.22032 0.87098 0.57555
 C1345 C 0.20834 0.85774 0.56089
 C1346 C 0.21925 0.84748 0.54332
 C1347 C 0.24262 0.84985 0.54127
 C1348 C 0.25460 0.86350 0.55584
 H1349 H 0.33037 0.94847 0.59983
 H1350 H 0.31549 0.91489 0.58063
 H1351 H 0.25358 0.92084 0.61620
 H1352 H 0.26838 0.95414 0.63515
 H1353 H 0.21146 0.87940 0.58856
 H1354 H 0.19037 0.85609 0.56292
 H1355 H 0.25137 0.84223 0.52777
 H1356 H 0.27240 0.86602 0.55344
 C1357 C 0.26018 0.05140 0.36573
 C1358 C 0.24798 0.06847 0.37611
 C1359 C 0.25871 0.08378 0.38997
 C1360 C 0.28210 0.08254 0.39257
 C1361 C 0.29433 0.06541 0.38219
 C1362 C 0.28336 0.04947 0.36903
 N1363 N 0.24520 0.09884 0.40267
 N1364 N 0.25351 0.11332 0.41567
 C1365 C 0.23956 0.12685 0.42947
 C1366 C 0.24935 0.14387 0.44216
 C1367 C 0.23642 0.15608 0.45703
 C1368 C 0.21348 0.15118 0.45964
 C1369 C 0.20362 0.13436 0.44659
 C1370 C 0.21650 0.12238 0.43158
 H1371 H 0.25142 0.03906 0.35585
 H1372 H 0.22997 0.06918 0.37408
 H1373 H 0.29074 0.09411 0.40331
 H1374 H 0.31215 0.06391 0.38520
 H1375 H 0.26712 0.14740 0.44078
 H1376 H 0.24449 0.16889 0.46689
 H1377 H 0.18598 0.13028 0.44814
 H1378 H 0.20854 0.10923 0.42205
 C1379 C 0.70541 0.05190 0.61478
 C1380 C 0.71401 0.06981 0.60243
 C1381 C 0.73645 0.07651 0.60461
 C1382 C 0.75001 0.06565 0.61995
 C1383 C 0.74137 0.04794 0.63241
 C1384 C 0.71909 0.04075 0.62979
 N1385 N 0.74550 0.09331 0.59029
 N1386 N 0.76649 0.09718 0.58935
 C1387 C 0.77630 0.11308 0.57466
 C1388 C 0.79960 0.11310 0.57212
 C1389 C 0.80978 0.12687 0.55663
 C1390 C 0.79679 0.14122 0.54361
 C1391 C 0.77344 0.14192 0.54678
 C1392 C 0.76322 0.12780 0.56208
 H1393 H 0.68829 0.04632 0.61225
 H1394 H 0.70342 0.07794 0.59060
 H1395 H 0.76739 0.07050 0.62199
 H1396 H 0.75224 0.03942 0.64377
 H1397 H 0.80985 0.10185 0.58173
 H1398 H 0.82780 0.12604 0.55462
 H1399 H 0.76302 0.15274 0.53690
 H1400 H 0.74516 0.12812 0.56383
 C1401 C 0.93974 0.64048 0.27863
 C1402 C 0.92221 0.62897 0.26824
 C1403 C 0.92170 0.60515 0.26789
 C1404 C 0.93803 0.59295 0.27927
 C1405 C 0.95516 0.60439 0.29007
 C1406 C 0.95650 0.62823 0.28944
 N1407 N 0.90560 0.59354 0.25475
 N1408 N 0.91042 0.57434 0.24647
 C1409 C 0.89532 0.56161 0.23324
 C1410 C 0.90423 0.54500 0.21957
 C1411 C 0.89020 0.53202 0.20645
 C1412 C 0.86686 0.53500 0.20726
 C1413 C 0.85782 0.55148 0.22122
 C1414 C 0.87200 0.56496 0.23396
 H1415 H 0.94070 0.65883 0.27754
 H1416 H 0.90976 0.63857 0.25946
 H1417 H 0.93782 0.57454 0.27937
 H1418 H 0.96795 0.59461 0.29821
 H1419 H 0.92217 0.54222 0.21899
 H1420 H 0.89758 0.51928 0.19600
 H1421 H 0.83987 0.55405 0.22212
 H1422 H 0.86480 0.57762 0.24458
 C1423 C 0.93823 0.36286 0.72303
 C1424 C 0.92114 0.37519 0.73323
 C1425 C 0.92290 0.39883 0.73551
 C1426 C 0.94130 0.41020 0.72635
 C1427 C 0.95805 0.39800 0.71573
 C1428 C 0.95695 0.37417 0.71433
 N1429 N 0.90659 0.41093 0.74804
 N1430 N 0.91175 0.42959 0.75724
 C1431 C 0.89626 0.44267 0.76977
 C1432 C 0.90477 0.45926 0.78372
 C1433 C 0.89032 0.47274 0.79597
 C1434 C 0.86698 0.47024 0.79407
 C1435 C 0.85839 0.45364 0.77995
 C1436 C 0.87295 0.43975 0.76804
 H1437 H 0.93723 0.34447 0.72256
 H1438 H 0.90706 0.36622 0.74026
 H1439 H 0.94288 0.42850 0.72771
 H1440 H 0.97233 0.40709 0.70919
 H1441 H 0.92271 0.46170 0.78511
 H1442 H 0.89741 0.48553 0.80655
 H1443 H 0.84046 0.45140 0.77818
 H1444 H 0.86603 0.42711 0.75722
 C1445 C 0.05804 0.63633 0.71634
 C1446 C 0.07527 0.62636 0.72838
 C1447 C 0.07493 0.60296 0.73262
 C1448 C 0.05770 0.58948 0.72393
 C1449 C 0.04089 0.59929 0.71151
 C1450 C 0.04075 0.62281 0.70774
 N1451 N 0.09148 0.59316 0.74646
 N1452 N 0.08661 0.57562 0.75748
 C1453 C 0.10210 0.56424 0.77127
 C1454 C 0.09342 0.55042 0.78752
 C1455 C 0.10768 0.53810 0.80081
 C1456 C 0.13100 0.53886 0.79768
 C1457 C 0.13983 0.55268 0.78126
 C1458 C 0.12544 0.56558 0.76827
 H1459 H 0.05802 0.65457 0.71396
 H1460 H 0.08839 0.63696 0.73508
 H1461 H 0.05721 0.57134 0.72686
 H1462 H 0.02770 0.58857 0.70509
 H1463 H 0.07545 0.54915 0.78984
 H1464 H 0.10039 0.52739 0.81314
 H1465 H 0.15775 0.55347 0.77850
 H1466 H 0.13242 0.57602 0.75558
 C1467 C 0.05517 0.38256 0.29620
 C1468 C 0.07279 0.39455 0.28646
 C1469 C 0.07785 0.39112 0.26464
 C1470 C 0.06566 0.37480 0.25288
 C1471 C 0.04817 0.36281 0.26259
 C1472 C 0.04258 0.36682 0.28421
 N1473 N 0.09410 0.40548 0.25432
 N1474 N 0.09702 0.40469 0.23403
 C1475 C 0.11190 0.41952 0.22262
 C1476 C 0.11112 0.41937 0.20014
 C1477 C 0.12336 0.43521 0.18826
 C1478 C 0.13696 0.45133 0.19869
 C1479 C 0.13867 0.45079 0.22127
 C1480 C 0.12604 0.43510 0.23321
 H1481 H 0.05088 0.38607 0.31283
 H1482 H 0.08195 0.40714 0.29569
 H1483 H 0.06920 0.37178 0.23601
 H1484 H 0.03852 0.35084 0.25308
 H1485 H 0.10030 0.40744 0.19182
 H1486 H 0.12183 0.43513 0.17088
 H1487 H 0.14896 0.46311 0.22969
 H1488 H 0.12691 0.43548 0.25061
   
