data_POSCAR
  _audit_creation_date              2014-09-24
  _audit_creation_method            'ToBaCCo'
  _symmetry_space_group_name_H-M    'P1'
  _symmetry_Int_Tables_number       1
  _symmetry_cell_setting            triclinic
  loop_
  _symmetry_equiv_pos_as_xyz
 x,y,z
_cell_length_a 83.8559
_cell_length_b 83.6472
_cell_length_c 79.0192
_cell_angle_alpha 90.003700
_cell_angle_beta 90.250100
_cell_angle_gamma 89.313400
loop_
  _atom_site_label
  _atom_site_type_symbol
  _atom_site_fract_x
  _atom_site_fract_y
  _atom_site_fract_z
C1 C 0.30910 0.42930 0.92654
 C2 C 0.31240 0.42067 0.94132
 C3 C 0.32491 0.42502 0.95185
 C4 C 0.33424 0.43831 0.94760
 C5 C 0.33071 0.44687 0.93308
 C6 C 0.31823 0.44229 0.92247
 C7 C 0.29722 0.42827 0.91455
 N8 N 0.29899 0.44039 0.90328
 C9 C 0.31185 0.44903 0.90811
 C10 C 0.34067 0.45964 0.93246
 N11 N 0.35050 0.45926 0.94622
 C12 C 0.34664 0.44608 0.95552
 C13 C 0.32434 0.41517 0.96587
 N14 N 0.31177 0.40525 0.96393
 C15 C 0.30444 0.40851 0.94902
 H16 H 0.28793 0.41941 0.91418
 H17 H 0.31594 0.45981 0.90203
 H18 H 0.34085 0.46831 0.92232
 H19 H 0.35195 0.44267 0.96751
 H20 H 0.33193 0.41570 0.97697
 H21 H 0.29370 0.40283 0.94448
 C22 C 0.42408 0.82672 0.45064
 C23 C 0.41458 0.81315 0.45116
 C24 C 0.41581 0.80171 0.43871
 C25 C 0.42680 0.80374 0.42558
 C26 C 0.43638 0.81718 0.42501
 C27 C 0.43491 0.82895 0.43776
 C28 C 0.42553 0.83903 0.46181
 N29 N 0.43706 0.84911 0.45638
 C30 C 0.44279 0.84306 0.44147
 C31 C 0.44675 0.81496 0.41158
 N32 N 0.44371 0.80054 0.40428
 C33 C 0.43143 0.79379 0.41272
 C34 C 0.40580 0.78940 0.44317
 N35 N 0.39875 0.79320 0.45813
 C36 C 0.40405 0.80775 0.46303
 H37 H 0.41823 0.84050 0.47295
 H38 H 0.45238 0.84807 0.43414
 H39 H 0.45632 0.82282 0.40798
 H40 H 0.42644 0.78219 0.41000
 H41 H 0.40420 0.77829 0.43638
 H42 H 0.40062 0.81390 0.47453
 C43 C 0.93057 0.92293 0.79504
 C44 C 0.91547 0.92933 0.79901
 C45 C 0.91394 0.94126 0.81114
 C46 C 0.92762 0.94696 0.81951
 C47 C 0.94242 0.94096 0.81503
 C48 C 0.94388 0.92888 0.80291
 C49 C 0.93571 0.91075 0.78451
 N50 N 0.95192 0.90912 0.78589
 C51 C 0.95685 0.92043 0.79713
 C52 C 0.95361 0.94858 0.82458
 N53 N 0.94619 0.95907 0.83519
 C54 C 0.93017 0.95804 0.83227
 C55 C 0.89797 0.94542 0.81180
 N56 N 0.88985 0.93636 0.80040
 C57 C 0.90052 0.92644 0.79266
 H58 H 0.92800 0.90362 0.77662
 H59 H 0.96887 0.92207 0.80171
 H60 H 0.96628 0.94597 0.82428
 H61 H 0.92104 0.96501 0.83864
 H62 H 0.89271 0.95451 0.81984
 H63 H 0.89776 0.91816 0.78257
 C64 C 0.43798 -0.07425 0.29408
 C65 C 0.42317 -0.06652 0.29213
 C66 C 0.41895 -0.05413 0.30282
 C67 C 0.42940 -0.04938 0.31570
 C68 C 0.44398 -0.05702 0.31762
 C69 C 0.44832 -0.06946 0.30664
 C70 C 0.44484 -0.08726 0.28621
 N71 N 0.45921 -0.09059 0.29369
 C72 C 0.46131 -0.07957 0.30622
 C73 C 0.45111 -0.05086 0.33185
 N74 N 0.44116 -0.03969 0.33870
 C75 C 0.42787 -0.03868 0.32882
 C76 C 0.40374 -0.04937 0.29854
 N77 N 0.39850 -0.05862 0.28552
 C78 C 0.41040 -0.06918 0.28158
 H79 H 0.43951 -0.09373 0.27584
 H80 H 0.47109 -0.07922 0.31515
 H81 H 0.46255 -0.05453 0.33700
 H82 H 0.41748 -0.03131 0.33142
 H83 H 0.39707 -0.03983 0.30457
 H84 H 0.40975 -0.07847 0.27210
 C85 C 0.80749 0.30653 0.32421
 C86 C 0.80264 0.31646 0.31073
 C87 C 0.81332 0.31982 0.29792
 C88 C 0.82892 0.31382 0.29857
 C89 C 0.83371 0.30422 0.31185
 C90 C 0.82292 0.30046 0.32465
 C91 C 0.79971 0.30044 0.33809
 N92 N 0.81005 0.29073 0.34672
 C93 C 0.82429 0.29085 0.33862
 C94 C 0.84947 0.30026 0.30926
 N95 N 0.85435 0.30734 0.29472
 C96 C 0.84178 0.31563 0.28809
 C97 C 0.80573 0.32959 0.28652
 N98 N 0.79072 0.33247 0.29207
 C99 C 0.78865 0.32461 0.30694
 H100 H 0.78731 0.30243 0.34130
 H101 H 0.83490 0.28431 0.34252
 H102 H 0.85689 0.29304 0.31758
 H103 H 0.84189 0.32239 0.27641
 H104 H 0.81090 0.33473 0.27525
 H105 H 0.77789 0.32499 0.31446
 C106 C -0.18582 0.83433 0.80530
 C107 C -0.17161 0.82627 0.80111
 C108 C -0.16642 0.81356 0.81086
 C109 C -0.17522 0.80878 0.82496
 C110 C -0.18908 0.81680 0.82926
 C111 C -0.19451 0.82965 0.81921
 C112 C -0.19376 0.84707 0.79806
 N113 N -0.20722 0.85042 0.80715
 C114 C -0.20761 0.83967 0.82018
 C115 C -0.19470 0.80979 0.84384
 N116 N -0.18460 0.79759 0.84848
 C117 C -0.17266 0.79705 0.83681
 C118 C -0.15230 0.80812 0.80412
 N119 N -0.14861 0.81729 0.79049
 C120 C -0.16046 0.82843 0.78857
 H121 H -0.18982 0.85317 0.78681
 H122 H -0.21653 0.83905 0.82996
 H123 H -0.20552 0.81332 0.85032
 H124 H -0.16235 0.78918 0.83702
 H125 H -0.14535 0.79809 0.80885
 H126 H -0.16084 0.83770 0.77902
 C127 C 0.93413 0.32662 0.44153
 C128 C 0.93570 0.31493 0.42878
 C129 C 0.92645 0.30125 0.42939
 C130 C 0.91551 0.29906 0.44257
 C131 C 0.91412 0.31054 0.45498
 C132 C 0.92341 0.32424 0.45445
 C133 C 0.94217 0.34056 0.44537
 N134 N 0.93667 0.34638 0.46045
 C135 C 0.92506 0.33637 0.46581
 C136 C 0.90374 0.30504 0.46691
 N137 N 0.89864 0.29041 0.46210
 C138 C 0.90569 0.28661 0.44713
 C139 C 0.93150 0.29133 0.41664
 N140 N 0.94356 0.29849 0.40824
 C141 C 0.94617 0.31299 0.41546
 H142 H 0.95186 0.34548 0.43811
 H143 H 0.91800 0.33767 0.47715
 H144 H 0.90022 0.31121 0.47837
 H145 H 0.90416 0.27548 0.44037
 H146 H 0.92710 0.27946 0.41404
 H147 H 0.95558 0.32107 0.41192
 C148 C 0.44135 0.44319 0.82051
 C149 C 0.44271 0.42822 0.81282
 C150 C 0.42967 0.42139 0.80519
 C151 C 0.41504 0.42972 0.80494
 C152 C 0.41356 0.44451 0.81272
 C153 C 0.42683 0.45118 0.82104
 C154 C 0.45228 0.45226 0.82889
 N155 N 0.44486 0.46549 0.83517
 C156 C 0.42917 0.46489 0.83057
 C157 C 0.39830 0.45006 0.80931
 N158 N 0.39054 0.43908 0.79961
 C159 C 0.40076 0.42650 0.79723
 C160 C 0.43450 0.40658 0.79929
 N161 N 0.45015 0.40427 0.80341
 C162 C 0.45523 0.41759 0.81156
 H163 H 0.46464 0.44891 0.83107
 H164 H 0.42020 0.47382 0.83368
 H165 H 0.39363 0.46166 0.81293
 H166 H 0.39833 0.41582 0.79002
 H167 H 0.42699 0.39792 0.79307
 H168 H 0.46714 0.41944 0.81642
 C169 C 0.82240 0.90722 0.93822
 C170 C 0.81749 0.91799 0.92556
 C171 C 0.82539 0.93223 0.92358
 C172 C 0.83819 0.93597 0.93420
 C173 C 0.84318 0.92541 0.94660
 C174 C 0.83506 0.91090 0.94872
 C175 C 0.81641 0.89285 0.94353
 N176 N 0.82495 0.88759 0.95722
 C177 C 0.83645 0.89870 0.96034
 C178 C 0.85569 0.93255 0.95506
 N179 N 0.85820 0.94732 0.94821
 C180 C 0.84742 0.94931 0.93540
 C181 C 0.81779 0.94066 0.91092
 N182 N 0.80536 0.93191 0.90516
 C183 C 0.80509 0.91800 0.91407
 H184 H 0.80604 0.88718 0.93815
 H185 H 0.84534 0.89815 0.97027
 H186 H 0.86202 0.92751 0.96579
 H187 H 0.84645 0.95953 0.92706
 H188 H 0.82077 0.95254 0.90665
 H189 H 0.79646 0.90860 0.91242
 C190 C 0.31150 0.82447 0.31110
 C191 C 0.31578 0.81249 0.32271
 C192 C 0.33026 0.80464 0.32124
 C193 C 0.34069 0.80868 0.30817
 C194 C 0.33659 0.82061 0.29681
 C195 C 0.32183 0.82866 0.29834
 C196 C 0.29807 0.83386 0.30948
 N197 N 0.29981 0.84390 0.29602
 C198 C 0.31446 0.84073 0.28920
 C199 C 0.34896 0.82168 0.28545
 N200 N 0.36040 0.81060 0.28956
 C201 C 0.35533 0.80265 0.30352
 C202 C 0.33124 0.79364 0.33414
 N203 N 0.31766 0.79462 0.34345
 C204 C 0.30813 0.80615 0.33649
 H205 H 0.28805 0.83357 0.31801
 H206 H 0.31941 0.84642 0.27815
 H207 H 0.34947 0.82998 0.27498
 H208 H 0.36153 0.79286 0.30971
 H209 H 0.34125 0.78570 0.33669
 H210 H 0.29639 0.80956 0.34095
 C211 C 0.81274 0.40620 0.43601
 C212 C 0.81141 0.41843 0.42391
 C213 C 0.82105 0.43160 0.42524
 C214 C 0.83200 0.43281 0.43850
 C215 C 0.83370 0.42071 0.45028
 C216 C 0.82384 0.40721 0.44910
 C217 C 0.80323 0.39337 0.43933
 N218 N 0.80816 0.38649 0.45402
 C219 C 0.82082 0.39475 0.46008
 C220 C 0.84444 0.42607 0.46235
 N221 N 0.84875 0.44129 0.45829
 C222 C 0.84116 0.44531 0.44365
 C223 C 0.81629 0.44235 0.41310
 N224 N 0.80388 0.43614 0.40433
 C225 C 0.80080 0.42144 0.41080
 H226 H 0.79276 0.38992 0.43220
 H227 H 0.82647 0.39268 0.47224
 H228 H 0.84797 0.41977 0.47375
 H229 H 0.84219 0.45656 0.43699
 H230 H 0.82132 0.45405 0.41108
 H231 H 0.79112 0.41384 0.40681
 C232 C 0.92839 0.84349 -0.06026
 C233 C 0.92123 0.82840 -0.05999
 C234 C 0.92172 0.81870 -0.07426
 C235 C 0.92928 0.82401 -0.08905
 C236 C 0.93600 0.83892 -0.08927
 C237 C 0.93558 0.84867 -0.07494
 C238 C 0.93234 0.85425 -0.04767
 N239 N 0.94173 0.86563 -0.05456
 C240 C 0.94369 0.86233 -0.07119
 C241 C 0.94401 0.84047 -0.10418
 N242 N 0.94261 0.82677 -0.11339
 C243 C 0.93335 0.81666 -0.10414
 C244 C 0.91485 0.80443 -0.06995
 N245 N 0.91004 0.80528 -0.05357
 C246 C 0.91397 0.81986 -0.04736
 H247 H 0.92993 0.85303 -0.03429
 H248 H 0.95171 0.86857 -0.07953
 H249 H 0.95067 0.85095 -0.10752
 H250 H 0.93052 0.80448 -0.10743
 H251 H 0.91331 0.79423 -0.07820
 H252 H 0.91188 0.82388 -0.03453
 C253 C 0.30285 0.33566 0.81973
 C254 C 0.30804 0.32483 0.83228
 C255 C 0.32246 0.31687 0.83036
 C256 C 0.33184 0.31946 0.81605
 C257 C 0.32677 0.33003 0.80371
 C258 C 0.31217 0.33821 0.80557
 C259 C 0.28959 0.34545 0.81820
 N260 N 0.29065 0.35391 0.80353
 C261 C 0.30444 0.34945 0.79574
 C262 C 0.33833 0.33015 0.79139
 N263 N 0.35032 0.31986 0.79596
 C264 C 0.34634 0.31330 0.81109
 C265 C 0.32453 0.30705 0.84408
 N266 N 0.31166 0.30858 0.85436
 C267 C 0.30153 0.31958 0.84730
 H268 H 0.28013 0.34664 0.82741
 H269 H 0.30864 0.35404 0.78378
 H270 H 0.33789 0.33714 0.77988
 H271 H 0.35355 0.30486 0.81824
 H272 H 0.33477 0.29934 0.84636
 H273 H 0.29008 0.32316 0.85242
 C274 C 0.16121 0.56156 0.54632
 C275 C 0.17096 0.57491 0.54500
 C276 C 0.18249 0.57769 0.55705
 C277 C 0.18437 0.56713 0.57067
 C278 C 0.17468 0.55390 0.57219
 C279 C 0.16288 0.55106 0.55980
 C280 C 0.14987 0.55562 0.53564
 N281 N 0.14443 0.54174 0.54214
 C282 C 0.15218 0.53883 0.55702
 C283 C 0.18004 0.54547 0.58621
 N284 N 0.19273 0.55327 0.59297
 C285 C 0.19533 0.56654 0.58355
 C286 C 0.19076 0.59097 0.55201
 N287 N 0.18445 0.59634 0.53714
 C288 C 0.17228 0.58653 0.53282
 H289 H 0.14595 0.56093 0.52382
 H290 H 0.15054 0.52839 0.56488
 H291 H 0.17545 0.53422 0.59075
 H292 H 0.20468 0.57511 0.58578
 H293 H 0.20094 0.59600 0.55845
 H294 H 0.16489 0.58767 0.52162
 C295 C 0.60335 0.67589 0.05737
 C296 C 0.58900 0.66745 0.05747
 C297 C 0.57790 0.67009 0.07015
 C298 C 0.58102 0.68146 0.08282
 C299 C 0.59523 0.68974 0.08265
 C300 C 0.60648 0.68691 0.06991
 C301 C 0.61545 0.67686 0.04574
 N302 N 0.62585 0.68827 0.05087
 C303 C 0.62044 0.69443 0.06572
 C304 C 0.59444 0.70108 0.09515
 N305 N 0.58007 0.70010 0.10291
 C306 C 0.57181 0.68803 0.09553
 C307 C 0.56457 0.66131 0.06604
 N308 N 0.56736 0.65366 0.05117
 C309 C 0.58222 0.65737 0.04585
 H310 H 0.61634 0.67004 0.03414
 H311 H 0.62576 0.70428 0.07249
 H312 H 0.60355 0.70974 0.09801
 H313 H 0.55966 0.68488 0.09851
 H314 H 0.55338 0.66122 0.07282
 H315 H 0.58747 0.65346 0.03403
 C316 C 0.67154 0.18286 0.67560
 C317 C 0.66098 0.18133 0.68915
 C318 C 0.66434 0.17067 0.70197
 C319 C 0.67836 0.16142 0.70149
 C320 C 0.68883 0.16278 0.68805
 C321 C 0.68539 0.17370 0.67496
 C322 C 0.67163 0.19305 0.66205
 N323 N 0.68526 0.19056 0.65315
 C324 C 0.69373 0.17864 0.66090
 C325 C 0.70170 0.15281 0.69151
 N326 N 0.69925 0.14577 0.70676
 C327 C 0.68504 0.15096 0.71291
 C328 C 0.65245 0.17222 0.71379
 N329 N 0.64190 0.18373 0.70856
 C330 C 0.64715 0.18935 0.69342
 H331 H 0.66245 0.20182 0.65907
 H332 H 0.70539 0.17434 0.65704
 H333 H 0.71226 0.15118 0.68383
 H334 H 0.68004 0.14748 0.72495
 H335 H 0.65173 0.16539 0.72536
 H336 H 0.64169 0.19891 0.68616
 C337 C 1.07806 0.07497 0.19733
 C338 C 1.06508 0.08554 0.19578
 C339 C 1.05514 0.08496 0.18174
 C340 C 1.05808 0.07349 0.16906
 C341 C 1.07075 0.06288 0.17087
 C342 C 1.08087 0.06368 0.18500
 C343 C 1.08929 0.07268 0.20983
 N344 N 1.09895 0.06018 0.20544
 C345 C 1.09379 0.05459 0.19021
 C346 C 1.07016 0.05239 0.15760
 N347 N 1.05743 0.05619 0.14752
 C348 C 1.05008 0.06928 0.15443
 C349 C 1.04300 0.09599 0.18440
 N350 N 1.04536 0.10289 0.19977
 C351 C 1.05884 0.09662 0.20673
 H352 H 1.09035 0.07978 0.22121
 H353 H 1.09879 0.04444 0.18351
 H354 H 1.07867 0.04278 0.15553
 H355 H 1.03922 0.07489 0.14978
 H356 H 1.03284 0.09828 0.17621
 H357 H 1.06350 0.09962 0.21911
 C358 C 0.08480 0.17080 1.05503
 C359 C 0.09639 0.18259 1.05667
 C360 C 0.09581 0.19346 1.06993
 C361 C 0.08334 0.19255 1.08182
 C362 C 0.07181 0.18095 1.07988
 C363 C 0.07261 0.16994 1.06659
 C364 C 0.08161 0.15995 1.04241
 N365 N 0.06777 0.15245 1.04612
 C366 C 0.06220 0.15846 1.06094
 C367 C 0.06011 0.18394 1.09147
 N368 N 0.06405 0.19702 1.10075
 C369 C 0.07845 0.20223 1.09511
 C370 C 0.10761 0.20454 1.06691
 N371 N 0.11504 0.20062 1.05216
 C372 C 0.10829 0.18716 1.04599
 H373 H 0.08862 0.15799 1.03112
 H374 H 0.05096 0.15535 1.06670
 H375 H 0.04943 0.17695 1.09291
 H376 H 0.08437 0.21292 1.09943
 H377 H 0.10997 0.21516 1.07430
 H378 H 0.11142 0.18140 1.03417
 C379 C 0.16032 0.68083 0.68013
 C380 C 0.17068 0.68188 0.66640
 C381 C 0.18505 0.67358 0.66640
 C382 C 0.18914 0.66388 0.68036
 C383 C 0.17883 0.66298 0.69401
 C384 C 0.16431 0.67147 0.69386
 C385 C 0.14632 0.68871 0.68386
 N386 N 0.14152 0.68432 0.69958
 C387 C 0.15253 0.67367 0.70575
 C388 C 0.18611 0.65370 0.70615
 N389 N 0.20050 0.64872 0.70023
 C390 C 0.20249 0.65482 0.68444
 C391 C 0.19313 0.67826 0.65203
 N392 N 0.18396 0.68921 0.64356
 C393 C 0.17016 0.69125 0.65224
 H394 H 0.14052 0.69756 0.67589
 H395 H 0.15225 0.66807 0.71808
 H396 H 0.18130 0.65072 0.71843
 H397 H 0.21299 0.65305 0.67671
 H398 H 0.20510 0.67464 0.64854
 H399 H 0.16050 0.69933 0.64880
 C400 C 1.18768 0.16205 0.20314
 C401 C 1.17427 0.17203 0.20473
 C402 C 1.17206 0.18461 0.19374
 C403 C 1.18320 0.18739 0.18100
 C404 C 1.19638 0.17749 0.17913
 C405 C 1.19870 0.16460 0.19040
 C406 C 1.19333 0.14980 0.21304
 N407 N 1.20748 0.14469 0.20670
 C408 C 1.21090 0.15352 0.19277
 C409 C 1.20529 0.18375 0.16607
 N410 N 1.19787 0.19730 0.16018
 C411 C 1.18428 0.19938 0.16935
 C412 C 1.15855 0.19278 0.19872
 N413 N 1.15240 0.18537 0.21251
 C414 C 1.16203 0.17263 0.21624
 H415 H 1.18778 0.14516 0.22434
 H416 H 1.22173 0.15243 0.18544
 H417 H 1.21666 0.17907 0.16181
 H418 H 1.17545 0.20878 0.16770
 H419 H 1.15387 0.20359 0.19295
 H420 H 1.16032 0.16430 0.22653
 C421 C 0.65733 1.05317 0.57141
 C422 C 0.66932 1.05449 0.58369
 C423 C 0.67966 1.06731 0.58351
 C424 C 0.67810 1.07899 0.57073
 C425 C 0.66626 1.07751 0.55859
 C426 C 0.65573 1.06464 0.55898
 C427 C 0.64659 1.04132 0.56783
 N428 N 0.63843 1.04536 0.55354
 C429 C 0.64393 1.05966 0.54804
 C430 C 0.66844 1.08930 0.54685
 N431 N 0.68138 1.09811 0.55129
 C432 C 0.68721 1.09194 0.56611
 C433 C 0.69088 1.06450 0.59611
 N434 N 0.68757 1.05029 0.60361
 C435 C 0.67441 1.04418 0.59610
 H436 H 0.64502 1.03043 0.57500
 H437 H 0.64011 1.06565 0.53655
 H438 H 0.66096 1.09110 0.53582
 H439 H 0.69791 1.09579 0.57255
 H440 H 0.70114 1.07177 0.59898
 H441 H 0.66922 1.03273 0.59910
 C442 C 0.57059 0.56204 0.16703
 C443 C 0.58181 0.56029 0.18007
 C444 C 0.58332 0.57199 0.19225
 C445 C 0.57342 0.58563 0.19155
 C446 C 0.56226 0.58745 0.17862
 C447 C 0.56083 0.57547 0.16619
 C448 C 0.56579 0.55169 0.15465
 N449 N 0.55326 0.55833 0.14617
 C450 C 0.55016 0.57296 0.15305
 C451 C 0.55332 0.60099 0.18228
 N452 N 0.55868 0.60720 0.19713
 C453 C 0.57098 0.59791 0.20279
 C454 C 0.59407 0.56629 0.20419
 N455 N 0.59888 0.55137 0.19951
 C456 C 0.59146 0.54765 0.18476
 H457 H 0.57086 0.53995 0.15223
 H458 H 0.54042 0.58083 0.14932
 H459 H 0.54306 0.60540 0.17527
 H460 H 0.57728 0.59960 0.21463
 H461 H 0.59747 0.57217 0.21584
 H462 H 0.59261 0.53634 0.17819
 C463 C 0.67050 0.67249 0.19537
 C464 C 0.67909 0.65814 0.19474
 C465 C 0.69104 0.65599 0.18303
 C466 C 0.69440 0.66830 0.17160
 C467 C 0.68584 0.68264 0.17206
 C468 C 0.67375 0.68481 0.18424
 C469 C 0.65990 0.67810 0.20708
 N470 N 0.65646 0.69360 0.20359
 C471 C 0.66471 0.69788 0.18952
 C472 C 0.69298 0.69279 0.16059
 N473 N 0.70558 0.68496 0.15348
 C474 C 0.70647 0.67003 0.16015
 C475 C 0.69882 0.64183 0.18707
 N476 N 0.69186 0.63557 0.20105
 C477 C 0.67969 0.64544 0.20567
 H478 H 0.65541 0.67150 0.21781
 H479 H 0.66483 0.70979 0.18416
 H480 H 0.68980 0.70519 0.15829
 H481 H 0.71561 0.66120 0.15726
 H482 H 0.70945 0.63708 0.18108
 H483 H 0.67226 0.64392 0.21671
 C484 C 0.16691 0.08264 1.05397
 C485 C 0.17921 0.09358 1.05651
 C486 C 0.18973 0.09174 1.06997
 C487 C 0.18805 0.07872 1.08105
 C488 C 0.17583 0.06796 1.07848
 C489 C 0.16518 0.06994 1.06491
 C490 C 0.15608 0.08068 1.04103
 N491 N 0.14779 0.06707 1.04385
 C492 C 0.15328 0.06045 1.05849
 C493 C 0.17796 0.05571 1.08980
 N494 N 0.19122 0.05858 1.09919
 C495 C 0.19743 0.07270 1.09404
 C496 C 0.20134 0.10320 1.06813
 N497 N 0.19811 0.11169 1.05383
 C498 C 0.18461 0.10590 1.04672
 H499 H 0.15461 0.08846 1.03018
 H500 H 0.14946 0.04915 1.06366
 H501 H 0.17063 0.04518 1.09074
 H502 H 0.20843 0.07775 1.09871
 H503 H 0.21186 0.10460 1.07596
 H504 H 0.17947 0.10993 1.03484
 C505 C 0.58130 0.19008 0.56219
 C506 C 0.56968 0.19176 0.57479
 C507 C 0.55765 0.18060 0.57637
 C508 C 0.55719 0.16743 0.56524
 C509 C 0.56878 0.16589 0.55290
 C510 C 0.58076 0.17722 0.55134
 C511 C 0.59339 0.19983 0.55670
 N512 N 0.60000 0.19315 0.54266
 C513 C 0.59236 0.17927 0.53938
 C514 C 0.56489 0.15324 0.54285
 N515 N 0.55114 0.14690 0.54855
 C516 C 0.54631 0.15536 0.56236
 C517 C 0.54754 0.18616 0.58890
 N518 N 0.55317 0.20033 0.59478
 C519 C 0.56672 0.20372 0.58622
 H520 H 0.59661 0.21127 0.56202
 H521 H 0.59484 0.17136 0.52885
 H522 H 0.57129 0.14928 0.53170
 H523 H 0.53530 0.15347 0.56914
 H524 H 0.53664 0.18058 0.59300
 H525 H 0.57393 0.21423 0.58804
 C526 C 0.07029 0.57591 0.70530
 C527 C 0.05626 0.58504 0.70314
 C528 C 0.04521 0.58074 0.69095
 C529 C 0.04801 0.56726 0.68077
 C530 C 0.06177 0.55826 0.68303
 C531 C 0.07295 0.56262 0.69531
 C532 C 0.08339 0.57740 0.71575
 N533 N 0.09389 0.56527 0.71234
 C534 C 0.08747 0.55619 0.69984
 C535 C 0.06166 0.54620 0.67128
 N536 N 0.04813 0.54755 0.66185
 C537 C 0.03969 0.56045 0.66758
 C538 C 0.03304 0.59189 0.69140
 N539 N 0.03632 0.60285 0.70363
 C540 C 0.05054 0.59869 0.71086
 H541 H 0.08519 0.58683 0.72489
 H542 H 0.09282 0.54553 0.69445
 H543 H 0.07103 0.53738 0.66943
 H544 H 0.02836 0.56461 0.66254
 H545 H 0.02275 0.59215 0.68310
 H546 H 0.05635 0.60504 0.72105
 C547 C 0.65948 0.56739 0.06630
 C548 C 0.66866 0.56421 0.08070
 C549 C 0.68291 0.57192 0.08325
 C550 C 0.68803 0.58320 0.07135
 C551 C 0.67888 0.58646 0.05705
 C552 C 0.66449 0.57837 0.05441
 C553 C 0.64669 0.55954 0.05962
 N554 N 0.64372 0.56541 0.04395
 C555 C 0.65443 0.57701 0.04057
 C556 C 0.68741 0.59686 0.04717
 N557 N 0.70145 0.59996 0.05510
 C558 C 0.70192 0.59162 0.06985
 C559 C 0.69017 0.56482 0.09711
 N560 N 0.68062 0.55295 0.10286
 C561 C 0.66739 0.55268 0.09291
 H562 H 0.64070 0.54943 0.06519
 H563 H 0.65566 0.58296 0.02849
 H564 H 0.68389 0.60140 0.03487
 H565 H 0.71171 0.59155 0.07882
 H566 H 0.70195 0.56744 0.10194
 H567 H 0.65768 0.54435 0.09404
 C568 C 0.07243 0.69004 0.56735
 C569 C 0.08385 0.68890 0.55432
 C570 C 0.08376 0.67583 0.54343
 C571 C 0.07246 0.66371 0.54540
 C572 C 0.06144 0.66490 0.55825
 C573 C 0.06141 0.67800 0.56915
 C574 C 0.06805 0.70202 0.57864
 N575 N 0.05462 0.69737 0.58682
 C576 C 0.05062 0.68269 0.58113
 C577 C 0.05073 0.65284 0.55620
 N578 N 0.05482 0.64424 0.54232
 C579 C 0.06822 0.65066 0.53563
 C580 C 0.09505 0.67847 0.53125
 N581 N 0.10212 0.69271 0.53437
 C582 C 0.09537 0.69917 0.54848
 H583 H 0.07356 0.71358 0.58002
 H584 H 0.04013 0.67619 0.58492
 H585 H 0.04020 0.65093 0.56379
 H586 H 0.07376 0.64682 0.52394
 H587 H 0.09782 0.67062 0.52075
 H588 H 0.09823 0.71074 0.55375
 C589 C 0.56496 1.05877 0.67728
 C590 C 0.57509 1.06248 0.69084
 C591 C 0.57187 1.07561 0.70092
 C592 C 0.55831 1.08520 0.69761
 C593 C 0.54836 1.08144 0.68430
 C594 C 0.55176 1.06821 0.67400
 C595 C 0.56547 1.04705 0.66510
 N596 N 0.55288 1.04912 0.65426
 C597 C 0.54444 1.06214 0.65983
 C598 C 0.53635 1.09272 0.68386
 N599 N 0.53858 1.10347 0.69664
 C600 C 0.55213 1.09880 0.70508
 C601 C 0.58392 1.07638 0.71281
 N602 N 0.59435 1.06399 0.71021
 C603 C 0.58891 1.05546 0.69676
 H604 H 0.57482 1.03810 0.66411
 H605 H 0.53366 1.06702 0.65424
 H606 H 0.52695 1.09298 0.67448
 H607 H 0.55731 1.10463 0.71596
 H608 H 0.58506 1.08550 0.72242
 H609 H 0.59441 1.04475 0.69165
 C610 C 0.42971 0.35125 0.92268
 C611 C 0.42821 0.33792 0.91215
 C612 C 0.41884 0.32532 0.91698
 C613 C 0.41083 0.32598 0.93248
 C614 C 0.41213 0.33925 0.94299
 C615 C 0.42178 0.35215 0.93798
 C616 C 0.43983 0.36386 0.92181
 N617 N 0.43862 0.37274 0.93619
 C618 C 0.42730 0.36578 0.94609
 C619 C 0.40439 0.33545 0.95791
 N620 N 0.39879 0.32029 0.95656
 C621 C 0.40269 0.31450 0.94110
 C622 C 0.42181 0.31292 0.90584
 N623 N 0.43279 0.31782 0.89447
 C624 C 0.43680 0.33305 0.89826
 H625 H 0.44763 0.36617 0.91125
 H626 H 0.42418 0.36953 0.95878
 H627 H 0.40364 0.34277 0.96918
 H628 H 0.40020 0.30254 0.93665
 H629 H 0.41755 0.30080 0.90693
 H630 H 0.44635 0.33956 0.89228
 C631 C 0.93496 0.43074 0.32932
 C632 C 0.93975 0.41928 0.31738
 C633 C 0.93066 0.41671 0.30301
 C634 C 0.91657 0.42570 0.30037
 C635 C 0.91197 0.43706 0.31213
 C636 C 0.92123 0.43956 0.32668
 C637 C 0.94133 0.43552 0.34454
 N638 N 0.93178 0.44715 0.35141
 C639 C 0.91942 0.44958 0.34033
 C640 C 0.89792 0.44387 0.30652
 N641 N 0.89369 0.43691 0.29163
 C642 C 0.90511 0.42575 0.28780
 C643 C 0.93823 0.40478 0.29389
 N644 N 0.95167 0.40013 0.30240
 C645 C 0.95258 0.40896 0.31681
 H646 H 0.95221 0.43070 0.34995
 H647 H 0.90952 0.45781 0.34186
 H648 H 0.89141 0.45334 0.31287
 H649 H 0.90503 0.41797 0.27688
 H650 H 0.93428 0.39998 0.28189
 H651 H 0.96173 0.40779 0.32645
 C652 C 0.31349 0.91932 0.42463
 C653 C 0.31452 0.90946 0.43884
 C654 C 0.32316 0.91415 0.45270
 C655 C 0.33102 0.92880 0.45247
 C656 C 0.33052 0.93850 0.43822
 C657 C 0.32129 0.93377 0.42408
 C658 C 0.30453 0.91798 0.41032
 N659 N 0.30601 0.93143 0.40077
 C660 C 0.31662 0.94108 0.40902
 C661 C 0.33956 0.95182 0.44204
 N662 N 0.34492 0.95051 0.45834
 C663 C 0.33961 0.93645 0.46466
 C664 C 0.32144 0.90257 0.46492
 N665 N 0.31179 0.89093 0.45876
 C666 C 0.30746 0.89520 0.44276
 H667 H 0.29733 0.90771 0.40749
 H668 H 0.31997 0.95295 0.40507
 H669 H 0.34162 0.96189 0.43376
 H670 H 0.34231 0.93167 0.47710
 H671 H 0.32688 0.90271 0.47735
 H672 H 0.29940 0.88872 0.43463
 O673 O 0.25232 0.54480 0.73331
 O674 O 0.27825 0.53186 0.73422
 O675 O 0.22281 0.51240 0.70809
 O676 O 0.21786 0.48444 0.71162
 O677 O 0.20746 0.53220 0.75602
 O678 O 0.21348 0.53013 0.78302
 O679 O 0.25300 0.45619 0.75007
 O680 O 0.25100 0.46403 0.71921
 O681 O 0.28384 0.48743 0.77144
 O682 O 0.28620 0.51559 0.77386
 O683 O 0.23926 0.47794 0.79408
 O684 O 0.21364 0.48845 0.79065
 O685 O 0.23410 0.45952 0.77033
 O686 O 0.20832 0.47142 0.76776
 O687 O 0.26324 0.49030 0.79480
 O688 O 0.26905 0.52024 0.79135
 O689 O 0.27842 0.47105 0.74930
 O690 O 0.27169 0.47614 0.71902
 O691 O 0.23537 0.54815 0.75547
 O692 O 0.23719 0.53854 0.78519
 O693 O 0.20166 0.51623 0.73358
 O694 O 0.19916 0.48967 0.73068
 O695 O 0.24695 0.52445 0.70848
 O696 O 0.27387 0.51599 0.71413
 Zr697 Zr 0.25624 0.51986 0.73277
 O698 O 0.26757 0.50081 0.74575
 Zr699 Zr 0.22170 0.50077 0.73168
 O700 O 0.23152 0.48070 0.74440
 Zr701 Zr 0.23027 0.52490 0.76385
 O702 O 0.24004 0.50591 0.77806
 Zr703 Zr 0.25621 0.47923 0.73989
 O704 O 0.24600 0.49811 0.72538
 Zr705 Zr 0.26431 0.50341 0.77200
 O706 O 0.25488 0.52365 0.75906
 Zr707 Zr 0.22976 0.48427 0.77055
 O708 O 0.21834 0.50351 0.75796
 O709 O 0.23204 0.52247 0.73773
 O710 O 0.25409 0.48163 0.76595
 C711 C 0.24392 0.55355 0.74334
 C712 C 0.23383 0.52064 0.70112
 C713 C 0.19817 0.52748 0.74412
 C714 C 0.24410 0.45088 0.76199
 C715 C 0.28725 0.47559 0.76171
 C716 C 0.25259 0.48117 0.80121
 H717 H 0.27899 0.50052 0.74270
 H718 H 0.23835 0.50792 0.79026
 H719 H 0.22685 0.53138 0.73145
 H720 H 0.22603 0.47081 0.74099
 H721 H 0.24065 0.45890 0.72142
 H722 H 0.22830 0.48264 0.70610
 H723 H 0.26066 0.51926 0.80003
 H724 H 0.24814 0.54233 0.78306
 H725 H 0.28106 0.48298 0.72093
 H726 H 0.27068 0.50634 0.70778
 H727 H 0.20540 0.49601 0.78638
 H728 H 0.21378 0.52107 0.79106
 H729 H 0.27879 0.53674 0.74563
 H730 H 0.29059 0.51631 0.76230
 H731 H 0.20043 0.47881 0.73549
 H732 H 0.20010 0.47919 0.76388
 O733 O 0.20689 0.01861 0.25546
 O734 O 0.21546 0.01421 0.28381
 O735 O 0.24960 0.03419 0.23101
 O736 O 0.27447 0.02460 0.22795
 O737 O 0.22100 -0.00216 0.20702
 O738 O 0.21579 -0.02910 0.21211
 O739 O 0.28740 -0.02065 0.26513
 O740 O 0.28750 0.00793 0.26541
 O741 O 0.24634 -0.03342 0.29139
 O742 O 0.21789 -0.02594 0.28961
 O743 O 0.25767 -0.05421 0.24644
 O744 O 0.25254 -0.04639 0.21583
 O745 O 0.28172 -0.03716 0.24315
 O746 O 0.27229 -0.03284 0.21404
 O747 O 0.23970 -0.05232 0.26781
 O748 O 0.21235 -0.04060 0.27037
 O749 O 0.26930 -0.01935 0.29049
 O750 O 0.27119 0.00797 0.28939
 O751 O 0.20116 0.00218 0.23336
 O752 O 0.20126 -0.02685 0.23328
 O753 O 0.24255 0.01408 0.20613
 O754 O 0.27063 0.00579 0.20915
 O755 O 0.23356 0.03622 0.25407
 O756 O 0.23542 0.02723 0.28360
 Zr757 Zr 0.23045 0.01258 0.26242
 O758 O 0.24306 -0.00540 0.27567
 Zr759 Zr 0.25445 0.00952 0.22930
 O760 O 0.26825 -0.00850 0.24127
 Zr761 Zr 0.22170 -0.01244 0.23116
 O762 O 0.23405 -0.03153 0.24287
 Zr763 Zr 0.26688 -0.00623 0.26773
 O764 O 0.25477 0.01324 0.25581
 Zr765 Zr 0.23397 -0.02784 0.26910
 O766 O 0.22001 -0.00971 0.25753
 Zr767 Zr 0.25826 -0.03096 0.23617
 O768 O 0.24546 -0.01306 0.22269
 O769 O 0.23060 0.01016 0.23623
 O770 O 0.25794 -0.02876 0.26238
 C771 C 0.19749 0.01337 0.24387
 C772 C 0.24141 0.04230 0.24177
 C773 C 0.23006 0.00782 0.19951
 C774 C 0.29105 -0.03194 0.25476
 C775 C 0.25994 -0.02946 0.29748
 C776 C 0.24969 -0.06022 0.25870
 H777 H 0.24243 -0.00330 0.28797
 H778 H 0.22910 -0.04177 0.23973
 H779 H 0.22461 0.01876 0.23029
 H780 H 0.27940 -0.00782 0.23733
 H781 H 0.28379 0.01896 0.26289
 H782 H 0.28329 0.01917 0.23409
 H783 H 0.21132 -0.04691 0.25984
 H784 H 0.19718 -0.02539 0.24493
 H785 H 0.26715 0.01882 0.28674
 H786 H 0.24542 0.03296 0.28123
 H787 H 0.24342 -0.05302 0.21928
 H788 H 0.22595 -0.03219 0.20662
 H789 H 0.20863 0.00464 0.28357
 H790 H 0.22174 -0.01740 0.29720
 H791 H 0.26638 -0.00306 0.20221
 H792 H 0.28075 -0.02473 0.21483
 O793 O 0.55405 0.73515 0.25734
 O794 O 0.54262 0.73562 0.28547
 O795 O 0.51519 0.71721 0.22743
 O796 O 0.48978 0.72463 0.22225
 O797 O 0.54139 0.75890 0.21091
 O798 O 0.54139 0.78650 0.21962
 O799 O 0.46894 0.76423 0.26390
 O800 O 0.47151 0.73596 0.25890
 O801 O 0.50537 0.77718 0.29586
 O802 O 0.53514 0.77277 0.29549
 O803 O 0.49679 0.80273 0.25125
 O804 O 0.50410 0.79773 0.22059
 O805 O 0.47419 0.78340 0.24441
 O806 O 0.48514 0.78377 0.21649
 O807 O 0.51216 0.79976 0.27482
 O808 O 0.53905 0.79141 0.28019
 O809 O 0.48592 0.75913 0.29048
 O810 O 0.48522 0.73177 0.28222
 O811 O 0.55898 0.75469 0.23807
 O812 O 0.55553 0.78298 0.24135
 O813 O 0.52225 0.74046 0.20579
 O814 O 0.49369 0.74589 0.20568
 O815 O 0.52985 0.71480 0.25162
 O816 O 0.52479 0.71947 0.28057
 Zr817 Zr 0.52945 0.73758 0.26266
 O818 O 0.51349 0.75198 0.27652
 Zr819 Zr 0.50778 0.74147 0.22754
 O820 O 0.49097 0.75642 0.23991
 Zr821 Zr 0.53706 0.76683 0.23570
 O822 O 0.52172 0.78268 0.24859
 Zr823 Zr 0.49051 0.75105 0.26583
 O824 O 0.50604 0.73483 0.25324
 Zr825 Zr 0.52004 0.77598 0.27418
 O826 O 0.53714 0.76139 0.26172
 Zr827 Zr 0.49848 0.78033 0.23902
 O828 O 0.51422 0.76563 0.22476
 O829 O 0.53081 0.74289 0.23706
 O830 O 0.49679 0.77506 0.26475
 C831 C 0.56332 0.74275 0.24726
 C832 C 0.52350 0.70902 0.23817
 C833 C 0.53459 0.74846 0.20149
 C834 C 0.46482 0.77627 0.25466
 C835 C 0.49297 0.76923 0.30008
 C836 C 0.50323 0.80807 0.26489
 H837 H 0.51367 0.74840 0.28843
 H838 H 0.52573 0.79367 0.24728
 H839 H 0.53823 0.73563 0.23098
 H840 H 0.48030 0.75513 0.23476
 H841 H 0.47638 0.72630 0.25371
 H842 H 0.47944 0.72938 0.22572
 H843 H 0.54189 0.79719 0.26974
 H844 H 0.55876 0.78092 0.25323
 H845 H 0.49420 0.73049 0.29027
 H846 H 0.51406 0.71534 0.27786
 H847 H 0.51265 0.80450 0.22524
 H848 H 0.53226 0.78719 0.21165
 H849 H 0.54895 0.74549 0.28648
 H850 H 0.53114 0.76361 0.30208
 H851 H 0.49724 0.75616 0.20084
 H852 H 0.47901 0.77393 0.21444
 O853 O -0.01018 0.71634 0.72040
 O854 O -0.03585 0.72813 0.71828
 O855 O 0.01923 0.74981 0.69421
 O856 O 0.02579 0.77507 0.69626
 O857 O 0.03421 0.73116 0.74352
 O858 O 0.02632 0.73558 0.77140
 O859 O -0.01485 0.80509 0.73312
 O860 O -0.01062 0.79773 0.70437
 O861 O -0.04405 0.77317 0.75503
 O862 O -0.04524 0.74457 0.75821
 O863 O -0.00150 0.78584 0.77784
 O864 O 0.02679 0.77691 0.77496
 O865 O 0.00447 0.80330 0.75334
 O866 O 0.03159 0.79073 0.75483
 O867 O -0.02451 0.77185 0.77902
 O868 O -0.02821 0.74146 0.77643
 O869 O -0.03937 0.78910 0.73233
 O870 O -0.03214 0.78247 0.70260
 O871 O 0.00787 0.71409 0.74189
 O872 O 0.00459 0.72354 0.77115
 O873 O 0.03965 0.74632 0.72040
 O874 O 0.03969 0.77621 0.71943
 O875 O -0.00407 0.73616 0.69427
 O876 O -0.03166 0.74390 0.69868
 Zr877 Zr -0.01437 0.74109 0.71805
 O878 O -0.02695 0.75969 0.73026
 Zr879 Zr 0.01938 0.76150 0.71770
 O880 O 0.00801 0.78144 0.72903
 Zr881 Zr 0.01099 0.73780 0.75021
 O882 O 0.00012 0.75680 0.76351
 Zr883 Zr -0.01664 0.78161 0.72387
 O884 O -0.00487 0.76309 0.71029
 Zr885 Zr -0.02406 0.75797 0.75666
 O886 O -0.01350 0.73795 0.74450
 Zr887 Zr 0.00954 0.77867 0.75538
 O888 O 0.02212 0.75947 0.74405
 O889 O 0.00976 0.73955 0.72397
 O890 O -0.01476 0.78002 0.75005
 C891 C -0.00100 0.70810 0.73024
 C892 C 0.00891 0.74070 0.68720
 C893 C 0.04341 0.73567 0.73156
 C894 C -0.00590 0.81120 0.74460
 C895 C -0.04796 0.78452 0.74484
 C896 C -0.01480 0.78234 0.78479
 H897 H -0.03831 0.75925 0.72693
 H898 H 0.00157 0.75522 0.77581
 H899 H 0.01531 0.73070 0.71803
 H900 H 0.01292 0.79148 0.72515
 H901 H -0.00553 0.79127 0.69534
 H902 H 0.02044 0.78561 0.69734
 H903 H -0.02014 0.74323 0.78539
 H904 H -0.00641 0.71983 0.76901
 H905 H -0.04135 0.77553 0.70491
 H906 H -0.02828 0.75306 0.69168
 H907 H 0.02270 0.76951 0.78364
 H908 H 0.03281 0.74538 0.77162
 H909 H -0.03754 0.72479 0.73015
 H910 H -0.05012 0.74444 0.74679
 H911 H 0.04496 0.77377 0.73038
 H912 H 0.03195 0.79706 0.74427
 O913 O 0.00795 0.05408 0.00990
 O914 O -0.02017 0.04951 0.01151
 O915 O 0.02683 0.01010 0.03104
 O916 O 0.02871 -0.01556 0.02460
 O917 O 0.04576 0.03076 -0.01589
 O918 O 0.03683 0.02987 -0.04452
 O919 O -0.01780 -0.02989 -0.01021
 O920 O -0.01218 -0.02447 0.01886
 O921 O -0.04054 0.01171 -0.02844
 O922 O -0.03526 0.03943 -0.02839
 O923 O -0.00245 -0.00825 -0.05584
 O924 O 0.02528 -0.00949 -0.05371
 O925 O -0.00044 -0.03054 -0.03225
 O926 O 0.02904 -0.02428 -0.03424
 O927 O -0.02146 0.01129 -0.05384
 O928 O -0.01841 0.04081 -0.04655
 O929 O -0.03871 -0.00842 -0.00924
 O930 O -0.03270 -0.00517 0.01890
 O931 O 0.02371 0.05362 -0.01346
 O932 O 0.01930 0.04753 -0.04282
 O933 O 0.04761 0.01234 0.00521
 O934 O 0.04082 -0.01685 0.00182
 O935 O 0.00965 0.03115 0.03349
 O936 O -0.01967 0.03194 0.02961
 Zr937 Zr -0.00262 0.03122 0.00993
 O938 O -0.01973 0.01766 -0.00335
 Zr939 Zr 0.02459 0.00228 0.00611
 O940 O 0.00851 -0.01262 -0.00671
 Zr941 Zr 0.02169 0.03046 -0.02320
 O942 O 0.00590 0.01671 -0.03764
 Zr943 Zr -0.01512 -0.00685 -0.00016
 O944 O 0.00106 0.00660 0.01477
 Zr945 Zr -0.01755 0.02124 -0.02958
 O946 O -0.00183 0.03642 -0.01619
 Zr947 Zr 0.00982 -0.00771 -0.03269
 O948 O 0.02718 0.00607 -0.02001
 O949 O 0.02076 0.02663 0.00278
 O950 O -0.01389 -0.00327 -0.02622
 C951 C 0.01767 0.06065 -0.00051
 C952 C 0.02034 0.02150 0.03950
 C953 C 0.05360 0.02312 -0.00442
 C954 C -0.01083 -0.03699 -0.02258
 C955 C -0.04647 0.00001 -0.02017
 C956 C -0.01401 0.00017 -0.06192
 H957 H -0.03054 0.02045 0.00075
 H958 H 0.00740 0.01933 -0.04972
 H959 H 0.02830 0.03318 0.00942
 H960 H 0.01115 -0.02389 -0.00399
 H961 H -0.00747 -0.01909 0.02883
 H962 H 0.01912 -0.02232 0.02471
 H963 H -0.01090 0.03848 -0.05588
 H964 H 0.00925 0.05352 -0.04071
 H965 H -0.02779 0.00054 0.02849
 H966 H -0.01714 0.02303 0.03744
 H967 H 0.02598 0.00130 -0.05875
 H968 H 0.04204 0.01919 -0.04458
 H969 H -0.02065 0.05468 0.00024
 H970 H -0.03871 0.04027 -0.01647
 H971 H 0.04691 -0.01420 -0.00850
 H972 H 0.02803 -0.03190 -0.02474
 O973 O -0.00017 0.53790 0.52549
 O974 O -0.02731 0.53425 0.53182
 O975 O 0.01893 0.49288 0.54706
 O976 O 0.01739 0.46695 0.54134
 O977 O 0.03591 0.51075 0.49826
 O978 O 0.02474 0.51083 0.47056
 O979 O -0.03118 0.45581 0.51011
 O980 O -0.02397 0.46068 0.53831
 O981 O -0.05249 0.49907 0.49343
 O982 O -0.04347 0.52753 0.49332
 O983 O -0.01949 0.47562 0.46312
 O984 O 0.01013 0.47379 0.46306
 O985 O -0.01678 0.45380 0.48590
 O986 O 0.01215 0.45686 0.48110
 O987 O -0.03595 0.49704 0.46699
 O988 O -0.03082 0.52545 0.47210
 O989 O -0.05066 0.47852 0.51217
 O990 O -0.04045 0.48097 0.54179
 O991 O 0.01600 0.53592 0.50248
 O992 O 0.00888 0.53005 0.47365
 O993 O 0.03762 0.49259 0.51964
 O994 O 0.02874 0.46452 0.51710
 O995 O 0.00334 0.51511 0.54997
 O996 O -0.02514 0.51650 0.54974
 Zr997 Zr -0.01074 0.51539 0.52788
 O998 O -0.02979 0.50332 0.51641
 Zr999 Zr 0.01406 0.48464 0.52249
 O1000 O -0.00398 0.47104 0.51093
 Zr1001 Zr 0.01134 0.51282 0.49308
 O1002 O -0.00670 0.50042 0.48007
 Zr1003 Zr -0.02649 0.47859 0.51957
 O1004 O -0.00833 0.49075 0.53281
 Zr1005 Zr -0.02899 0.50683 0.49018
 O1006 O -0.01113 0.52060 0.50184
 Zr1007 Zr -0.00453 0.47572 0.48474
 O1008 O 0.01480 0.48802 0.49609
 O1009 O 0.01183 0.50922 0.51911
 O1010 O -0.02708 0.48216 0.49349
 C1011 C 0.00969 0.54374 0.51480
 C1012 C 0.01383 0.50504 0.55548
 C1013 C 0.04383 0.50249 0.50922
 C1014 C -0.02644 0.44816 0.49695
 C1015 C -0.05857 0.48761 0.50197
 C1016 C -0.03109 0.48488 0.45850
 H1017 H -0.03998 0.50718 0.52120
 H1018 H -0.00610 0.50287 0.46786
 H1019 H 0.02026 0.51539 0.52489
 H1020 H -0.00203 0.45960 0.51342
 H1021 H -0.01658 0.46488 0.54700
 H1022 H 0.00881 0.45905 0.53990
 H1023 H -0.02282 0.52333 0.46319
 H1024 H -0.00084 0.53639 0.47626
 H1025 H -0.04758 0.49040 0.54054
 H1026 H -0.02514 0.50559 0.55459
 H1027 H 0.00832 0.48344 0.45606
 H1028 H 0.02825 0.49952 0.46975
 H1029 H -0.02954 0.53899 0.52056
 H1030 H -0.04946 0.52639 0.50400
 H1031 H 0.03326 0.46619 0.50569
 H1032 H 0.01248 0.45042 0.49160
 O1033 O 0.44619 0.00582 0.48639
 O1034 O 0.45596 0.03274 0.48839
 O1035 O 0.48044 -0.01792 0.45612
 O1036 O 0.50640 -0.02296 0.45636
 O1037 O 0.46540 -0.03900 0.50365
 O1038 O 0.47106 -0.03387 0.53264
 O1039 O 0.53492 0.01464 0.49722
 O1040 O 0.52677 0.01239 0.46824
 O1041 O 0.50148 0.04064 0.52264
 O1042 O 0.47350 0.03946 0.52736
 O1043 O 0.51813 -0.00424 0.54107
 O1044 O 0.51104 -0.03250 0.53445
 O1045 O 0.53522 -0.00666 0.51507
 O1046 O 0.52522 -0.03407 0.51419
 O1047 O 0.50291 0.01810 0.54482
 O1048 O 0.47256 0.02094 0.54376
 O1049 O 0.51628 0.03857 0.49869
 O1050 O 0.51041 0.03330 0.46917
 O1051 O 0.44646 -0.01296 0.50721
 O1052 O 0.45683 -0.01381 0.53552
 O1053 O 0.48030 -0.04157 0.47982
 O1054 O 0.50933 -0.03978 0.47747
 O1055 O 0.46491 0.00422 0.45992
 O1056 O 0.47073 0.03140 0.46701
 Zr1057 Zr 0.47037 0.01218 0.48438
 O1058 O 0.48866 0.02447 0.49697
 Zr1059 Zr 0.49330 -0.02007 0.47901
 O1060 O 0.51278 -0.00900 0.49114
 Zr1061 Zr 0.47068 -0.01634 0.51337
 O1062 O 0.48917 -0.00551 0.52714
 Zr1063 Zr 0.51102 0.01596 0.48876
 O1064 O 0.49267 0.00484 0.47460
 Zr1065 Zr 0.48837 0.01929 0.52299
 O1066 O 0.46866 0.00860 0.51068
 Zr1067 Zr 0.51124 -0.01304 0.51732
 O1068 O 0.49274 -0.02550 0.50502
 O1069 O 0.47104 -0.01250 0.48739
 O1070 O 0.51077 0.01177 0.51472
 C1071 C 0.43922 -0.00408 0.49627
 C1072 C 0.47010 -0.00750 0.45095
 C1073 C 0.47041 -0.04697 0.49078
 C1074 C 0.54208 0.00483 0.50733
 C1075 C 0.51136 0.04620 0.51181
 C1076 C 0.51376 0.00807 0.54964
 H1077 H 0.48713 0.03602 0.49478
 H1078 H 0.48812 -0.00821 0.53926
 H1079 H 0.46237 -0.01799 0.48125
 H1080 H 0.52298 -0.01300 0.48642
 H1081 H 0.52033 0.00794 0.45886
 H1082 H 0.51705 -0.01832 0.45828
 H1083 H 0.47491 0.01190 0.55148
 H1084 H 0.45335 -0.00247 0.53603
 H1085 H 0.50180 0.04109 0.47174
 H1086 H 0.47972 0.02929 0.45922
 H1087 H 0.50383 -0.02964 0.54388
 H1088 H 0.48071 -0.04054 0.53073
 H1089 H 0.45204 0.03210 0.50017
 H1090 H 0.47182 0.04484 0.51634
 H1091 H 0.50847 -0.04577 0.48822
 H1092 H 0.53041 -0.03352 0.50299
 O1093 O 0.49995 0.56063 0.01204
 O1094 O 0.47166 0.55571 0.01088
 O1095 O 0.51795 0.51567 0.03086
 O1096 O 0.51912 0.49045 0.02331
 O1097 O 0.53973 0.53937 -0.01224
 O1098 O 0.53290 0.54011 -0.04171
 O1099 O 0.47562 0.47848 -0.01758
 O1100 O 0.47959 0.48130 0.01221
 O1101 O 0.45436 0.52173 -0.03327
 O1102 O 0.46056 0.54999 -0.03021
 O1103 O 0.49446 0.50385 -0.05956
 O1104 O 0.52271 0.50252 -0.05438
 O1105 O 0.49391 0.48022 -0.03858
 O1106 O 0.52335 0.48499 -0.03750
 O1107 O 0.47476 0.52261 -0.05713
 O1108 O 0.47730 0.55128 -0.04821
 O1109 O 0.45477 0.50054 -0.01531
 O1110 O 0.46069 0.49978 0.01462
 O1111 O 0.51724 0.56199 -0.01001
 O1112 O 0.51550 0.55811 -0.03983
 O1113 O 0.54030 0.51789 0.00544
 O1114 O 0.53301 0.48974 0.00097
 O1115 O 0.50025 0.53638 0.03333
 O1116 O 0.47193 0.53621 0.02802
 Zr1117 Zr 0.48962 0.53784 0.00913
 O1118 O 0.47346 0.52543 -0.00652
 Zr1119 Zr 0.51691 0.50901 0.00525
 O1120 O 0.50185 0.49528 -0.01022
 Zr1121 Zr 0.51625 0.53953 -0.02170
 O1122 O 0.50142 0.52713 -0.03857
 Zr1123 Zr 0.47787 0.50064 -0.00498
 O1124 O 0.49292 0.51293 0.01217
 Zr1125 Zr 0.47745 0.53107 -0.03206
 O1126 O 0.49228 0.54507 -0.01625
 Zr1127 Zr 0.50492 0.50241 -0.03547
 O1128 O 0.52131 0.51489 -0.02015
 O1129 O 0.51350 0.53361 0.00366
 O1130 O 0.48083 0.50637 -0.03047
 C1131 C 0.51023 0.56800 0.00295
 C1132 C 0.51073 0.52661 0.03943
 C1133 C 0.54695 0.52961 -0.00218
 C1134 C 0.48304 0.47274 -0.03048
 C1135 C 0.44777 0.50975 -0.02608
 C1136 C 0.48288 0.51227 -0.06562
 H1137 H 0.46245 0.52824 -0.00315
 H1138 H 0.50374 0.53064 -0.05024
 H1139 H 0.52071 0.53957 0.01128
 H1140 H 0.50421 0.48379 -0.00847
 H1141 H 0.48468 0.48545 0.02264
 H1142 H 0.51107 0.48236 0.02037
 H1143 H 0.48592 0.54980 -0.05659
 H1144 H 0.50490 0.56334 -0.03879
 H1145 H 0.45485 0.51011 0.01487
 H1146 H 0.47253 0.52515 0.03246
 H1147 H 0.52268 0.51330 -0.05951
 H1148 H 0.53824 0.52949 -0.04194
 H1149 H 0.47205 0.56190 0.00021
 H1150 H 0.45491 0.54881 -0.01932
 H1151 H 0.53884 0.49215 -0.00958
 H1152 H 0.52162 0.47680 -0.02868
 O1153 O 0.76226 0.25930 0.45729
 O1154 O 0.73370 0.26036 0.45628
 O1155 O 0.77271 0.28044 0.50549
 O1156 O 0.76733 0.27560 0.53260
 O1157 O 0.79582 0.23670 0.48901
 O1158 O 0.78790 0.20926 0.49005
 O1159 O 0.72127 0.24154 0.53919
 O1160 O 0.72616 0.26856 0.53435
 O1161 O 0.70754 0.22332 0.49125
 O1162 O 0.71956 0.22343 0.46306
 O1163 O 0.74020 0.19813 0.52110
 O1164 O 0.76911 0.20084 0.52674
 O1165 O 0.73764 0.22008 0.54353
 O1166 O 0.76727 0.21832 0.54423
 O1167 O 0.72655 0.20003 0.49630
 O1168 O 0.73503 0.20546 0.46667
 O1169 O 0.70495 0.24129 0.51266
 O1170 O 0.71241 0.27022 0.51075
 O1171 O 0.77853 0.23769 0.46131
 O1172 O 0.77429 0.20991 0.46757
 O1173 O 0.79325 0.25550 0.50965
 O1174 O 0.78079 0.25388 0.53772
 O1175 O 0.75766 0.28202 0.48146
 O1176 O 0.73074 0.27807 0.47433
 Zr1177 Zr 0.74745 0.25941 0.47876
 O1178 O 0.72826 0.24704 0.48933
 Zr1179 Zr 0.76857 0.25706 0.51442
 O1180 O 0.75014 0.24464 0.52665
 Zr1181 Zr 0.77237 0.22884 0.48522
 O1182 O 0.75429 0.21504 0.49620
 Zr1183 Zr 0.72801 0.25057 0.51564
 O1184 O 0.74617 0.26454 0.50483
 Zr1185 Zr 0.73211 0.22242 0.48634
 O1186 O 0.75037 0.23485 0.47385
 Zr1187 Zr 0.75279 0.21990 0.52227
 O1188 O 0.77235 0.23227 0.51159
 O1189 O 0.76978 0.25342 0.48848
 O1190 O 0.73048 0.22595 0.51240
 C1191 C 0.77341 0.24963 0.45252
 C1192 C 0.76689 0.28807 0.49270
 C1193 C 0.80158 0.24710 0.49922
 C1194 C 0.72625 0.22960 0.54801
 C1195 C 0.69927 0.23092 0.50235
 C1196 C 0.73056 0.19258 0.50988
 H1197 H 0.71819 0.25059 0.48391
 H1198 H 0.75645 0.20359 0.49397
 H1199 H 0.77828 0.25975 0.48311
 H1200 H 0.75030 0.24727 0.53884
 H1201 H 0.73314 0.27740 0.53076
 H1202 H 0.75820 0.27333 0.54006
 H1203 H 0.74287 0.19730 0.47053
 H1204 H 0.76533 0.21129 0.45949
 H1205 H 0.70621 0.26799 0.50036
 H1206 H 0.72786 0.28241 0.48558
 H1207 H 0.76981 0.19441 0.51626
 H1208 H 0.79049 0.20960 0.50228
 H1209 H 0.73464 0.24969 0.45095
 H1210 H 0.71387 0.23385 0.46250
 H1211 H 0.78621 0.24331 0.53723
 H1212 H 0.76531 0.22806 0.55105
 O1213 O 0.78217 0.75881 -0.03745
 O1214 O 0.75395 0.75919 -0.03336
 O1215 O 0.79812 0.77797 0.01069
 O1216 O 0.79765 0.77143 0.03772
 O1217 O 0.82121 0.73625 -0.01162
 O1218 O 0.81472 0.70879 -0.01268
 O1219 O 0.75326 0.73354 0.04859
 O1220 O 0.75679 0.76138 0.04552
 O1221 O 0.73503 0.71823 0.00151
 O1222 O 0.74327 0.71919 -0.02724
 O1223 O 0.77374 0.69361 0.02531
 O1224 O 0.80160 0.69735 0.02767
 O1225 O 0.77266 0.71433 0.04926
 O1226 O 0.80261 0.71509 0.04468
 O1227 O 0.75525 0.69562 0.00427
 O1228 O 0.76086 0.70259 -0.02684
 O1229 O 0.73382 0.73505 0.02406
 O1230 O 0.73995 0.76398 0.02413
 O1231 O 0.80036 0.73844 -0.03695
 O1232 O 0.79793 0.71002 -0.03218
 O1233 O 0.82027 0.75512 0.00910
 O1234 O 0.81190 0.74999 0.03931
 O1235 O 0.78174 0.78010 -0.01221
 O1236 O 0.75318 0.77546 -0.01306
 Zr1237 Zr 0.77095 0.75733 -0.01361
 O1238 O 0.75417 0.74286 -0.00122
 Zr1239 Zr 0.79664 0.75409 0.01829
 O1240 O 0.78066 0.74016 0.03239
 Zr1241 Zr 0.79783 0.72775 -0.01310
 O1242 O 0.78251 0.71228 -0.00021
 Zr1243 Zr 0.75691 0.74497 0.02516
 O1244 O 0.77279 0.76075 0.01278
 Zr1245 Zr 0.75886 0.71856 -0.00612
 O1246 O 0.77424 0.73312 -0.02047
 Zr1247 Zr 0.78447 0.71607 0.02597
 O1248 O 0.80156 0.72989 0.01312
 O1249 O 0.79452 0.75189 -0.00779
 O1250 O 0.76062 0.72079 0.02009
 C1251 C 0.79326 0.75026 -0.04430
 C1252 C 0.79190 0.78590 -0.00163
 C1253 C 0.82761 0.74716 -0.00250
 C1254 C 0.76084 0.72196 0.05585
 C1255 C 0.72752 0.72508 0.01365
 C1256 C 0.76234 0.68797 0.01632
 H1257 H 0.74335 0.74601 -0.00504
 H1258 H 0.78504 0.70109 -0.00331
 H1259 H 0.80189 0.75885 -0.01409
 H1260 H 0.78230 0.74219 0.04460
 H1261 H 0.76270 0.77088 0.04167
 H1262 H 0.78910 0.76892 0.04584
 H1263 H 0.76810 0.69371 -0.02350
 H1264 H 0.78794 0.71151 -0.03874
 H1265 H 0.73387 0.76311 0.01343
 H1266 H 0.75330 0.77997 -0.00148
 H1267 H 0.80271 0.69262 0.01625
 H1268 H 0.81890 0.70820 -0.00096
 H1269 H 0.75442 0.74894 -0.03962
 H1270 H 0.73820 0.72992 -0.02752
 H1271 H 0.81896 0.74084 0.03637
 H1272 H 0.80017 0.72338 0.05325
 O1273 O 1.04191 0.22292 0.25806
 O1274 O 1.03312 0.22549 0.28645
 O1275 O 0.99934 0.21014 0.23147
 O1276 O 0.97458 0.22027 0.22876
 O1277 O 1.02945 0.24625 0.21096
 O1278 O 1.03363 0.27374 0.21790
 O1279 O 0.96261 0.26323 0.27050
 O1280 O 0.96088 0.23568 0.26657
 O1281 O 1.00377 0.27226 0.29830
 O1282 O 1.03249 0.26466 0.29470
 O1283 O 0.99317 0.29730 0.25349
 O1284 O 0.99754 0.29148 0.22292
 O1285 O 0.96879 0.28119 0.25001
 O1286 O 0.97771 0.27824 0.21998
 O1287 O 1.00989 0.29346 0.27587
 O1288 O 1.03701 0.28210 0.27787
 O1289 O 0.98101 0.25792 0.29531
 O1290 O 0.97902 0.22966 0.28943
 O1291 O 1.04851 0.24101 0.23784
 O1292 O 1.04876 0.26972 0.23891
 O1293 O 1.00645 0.23233 0.20863
 O1294 O 0.97858 0.24040 0.21193
 O1295 O 1.01482 0.20610 0.25484
 O1296 O 1.01251 0.21271 0.28423
 Zr1297 Zr 1.01848 0.22902 0.26489
 O1298 O 1.00625 0.24619 0.27939
 Zr1299 Zr 0.99476 0.23493 0.23182
 O1300 O 0.98130 0.25225 0.24499
 Zr1301 Zr 1.02807 0.25583 0.23572
 O1302 O 1.01602 0.27425 0.24903
 Zr1303 Zr 0.98251 0.24782 0.27108
 O1304 O 0.99424 0.22922 0.25776
 Zr1305 Zr 1.01574 0.26894 0.27504
 O1306 O 1.02937 0.25141 0.26196
 Zr1307 Zr 0.99184 0.27471 0.24197
 O1308 O 1.00431 0.25764 0.22711
 O1309 O 1.01857 0.23322 0.23896
 O1310 O 0.99186 0.27057 0.26795
 C1311 C 1.05172 0.22899 0.24749
 C1312 C 1.00717 0.20110 0.24179
 C1313 C 1.01954 0.23764 0.20258
 C1314 C 0.95944 0.27558 0.26134
 C1315 C 0.99059 0.26665 0.30388
 C1316 C 1.00061 0.30223 0.26669
 H1317 H 1.00693 0.24295 0.29141
 H1318 H 1.02114 0.28460 0.24679
 H1319 H 1.02449 0.22491 0.23255
 H1320 H 0.97013 0.25221 0.24094
 H1321 H 0.96382 0.22451 0.26369
 H1322 H 0.96578 0.22531 0.23520
 H1323 H 1.03845 0.28855 0.26751
 H1324 H 1.05209 0.26842 0.25087
 H1325 H 0.96905 0.23214 0.29567
 H1326 H 1.00116 0.21002 0.28252
 H1327 H 1.00773 0.29653 0.22607
 H1328 H 1.02364 0.27611 0.21160
 H1329 H 1.04050 0.23464 0.28689
 H1330 H 1.02828 0.25603 0.30191
 H1331 H 0.98272 0.24992 0.20605
 H1332 H 0.96846 0.27103 0.22070
 O1333 O 0.74728 1.03970 0.73930
 O1334 O 0.77322 1.02734 0.73904
 O1335 O 0.71889 1.00306 0.71600
 O1336 O 0.70922 0.97967 0.72153
 O1337 O 0.70370 1.02794 0.76327
 O1338 O 0.71105 1.02416 0.79210
 O1339 O 0.75036 0.95182 0.75936
 O1340 O 0.74635 0.95779 0.72999
 O1341 O 0.78160 0.98498 0.77843
 O1342 O 0.78294 1.01361 0.77941
 O1343 O 0.73821 0.97529 0.80337
 O1344 O 0.71053 0.98380 0.79953
 O1345 O 0.73260 0.95577 0.78062
 O1346 O 0.70514 0.96888 0.78012
 O1347 O 0.76202 0.98792 0.80243
 O1348 O 0.76640 1.01807 0.79763
 O1349 O 0.77527 0.96683 0.75817
 O1350 O 0.76874 0.97151 0.72783
 O1351 O 0.73127 1.04371 0.76215
 O1352 O 0.73253 1.03620 0.79149
 O1353 O 0.69786 1.01086 0.74179
 O1354 O 0.69702 0.98063 0.74444
 O1355 O 0.74104 1.01852 0.71536
 O1356 O 0.76832 1.01020 0.72012
 Zr1357 Zr 0.75149 1.01479 0.73942
 O1358 O 0.76391 0.99676 0.75295
 Zr1359 Zr 0.71752 0.99480 0.74101
 O1360 O 0.72857 0.97559 0.75399
 Zr1361 Zr 0.72656 1.02070 0.77136
 O1362 O 0.73750 1.00265 0.78609
 Zr1363 Zr 0.75305 0.97461 0.74860
 O1364 O 0.74159 0.99235 0.73364
 Zr1365 Zr 0.76158 1.00041 0.77916
 O1366 O 0.75102 1.01972 0.76559
 Zr1367 Zr 0.72748 0.98043 0.78003
 O1368 O 0.71502 0.99887 0.76710
 O1369 O 0.72745 1.01705 0.74531
 O1370 O 0.75166 0.97816 0.77458
 C1371 C 0.73932 1.04874 0.74946
 C1372 C 0.72872 1.01225 0.70842
 C1373 C 0.69442 1.02271 0.75159
 C1374 C 0.74218 0.94689 0.77201
 C1375 C 0.78455 0.97231 0.76974
 C1376 C 0.75187 0.97875 0.80965
 H1377 H 0.77523 0.99667 0.74952
 H1378 H 0.73630 1.00523 0.79822
 H1379 H 0.72214 1.02557 0.73856
 H1380 H 0.72342 0.96540 0.75098
 H1381 H 0.74174 0.96398 0.72043
 H1382 H 0.71575 0.96976 0.72212
 H1383 H 0.75871 1.01679 0.80699
 H1384 H 0.74403 1.03849 0.79035
 H1385 H 0.77807 0.97845 0.72960
 H1386 H 0.76493 1.00026 0.71441
 H1387 H 0.71408 0.99289 0.80655
 H1388 H 0.70347 1.01518 0.79187
 H1389 H 0.77452 1.03213 0.75041
 H1390 H 0.78745 1.01311 0.76788
 H1391 H 0.69150 0.98468 0.75465
 H1392 H 0.70509 0.96098 0.77080
 O1393 O 0.75692 0.43988 0.24510
 O1394 O 0.75253 0.44760 0.21633
 O1395 O 0.78423 0.48007 0.26361
 O1396 O 0.78049 0.50688 0.26325
 O1397 O 0.74676 0.46188 0.29386
 O1398 O 0.71837 0.46371 0.29242
 O1399 O 0.73472 0.52599 0.23015
 O1400 O 0.76282 0.51975 0.22733
 O1401 O 0.71150 0.48598 0.20994
 O1402 O 0.71393 0.45656 0.21495
 O1403 O 0.69793 0.50519 0.25543
 O1404 O 0.70793 0.50157 0.28544
 O1405 O 0.71972 0.52552 0.25401
 O1406 O 0.72501 0.51815 0.28363
 O1407 O 0.69418 0.48528 0.23629
 O1408 O 0.69976 0.45655 0.23525
 O1409 O 0.72980 0.50561 0.20736
 O1410 O 0.75657 0.50244 0.20537
 O1411 O 0.74261 0.43977 0.26950
 O1412 O 0.71519 0.44630 0.27358
 O1413 O 0.76515 0.48146 0.29086
 O1414 O 0.76402 0.50940 0.28442
 O1415 O 0.78048 0.46155 0.24297
 O1416 O 0.77013 0.46365 0.21437
 Zr1417 Zr 0.75614 0.46368 0.23660
 O1418 O 0.73981 0.47858 0.22361
 Zr1419 Zr 0.76149 0.49077 0.26648
 O1420 O 0.74523 0.50688 0.25495
 Zr1421 Zr 0.73353 0.46326 0.27111
 O1422 O 0.71608 0.47799 0.25953
 Zr1423 Zr 0.74444 0.50270 0.22878
 O1424 O 0.76231 0.48783 0.23998
 Zr1425 Zr 0.71683 0.47487 0.23317
 O1426 O 0.73292 0.45867 0.24490
 Zr1427 Zr 0.72192 0.50210 0.26320
 O1428 O 0.73849 0.48735 0.27639
 O1429 O 0.75667 0.46672 0.26273
 O1430 O 0.72125 0.49906 0.23709
 C1431 C 0.75093 0.43280 0.25798
 C1432 C 0.78930 0.46896 0.25366
 C1433 C 0.75818 0.47056 0.29944
 C1434 C 0.72544 0.53264 0.24105
 C1435 C 0.71765 0.49783 0.20207
 C1436 C 0.68924 0.49728 0.24500
 H1437 H 0.74049 0.47644 0.21132
 H1438 H 0.70547 0.47550 0.26414
 H1439 H 0.76429 0.45945 0.26860
 H1440 H 0.74849 0.51795 0.25749
 H1441 H 0.77307 0.51380 0.22841
 H1442 H 0.77618 0.51623 0.25700
 H1443 H 0.69506 0.45722 0.24669
 H1444 H 0.71360 0.44157 0.26222
 H1445 H 0.76562 0.49489 0.20670
 H1446 H 0.77768 0.47262 0.21529
 H1447 H 0.69977 0.49323 0.28403
 H1448 H 0.71936 0.47446 0.29750
 H1449 H 0.74201 0.44266 0.21818
 H1450 H 0.72142 0.45858 0.20557
 H1451 H 0.75463 0.50896 0.29194
 H1452 H 0.73421 0.52499 0.28096
 O1453 O 0.48982 0.21477 0.72310
 O1454 O 0.46437 0.22770 0.72099
 O1455 O 0.52136 0.25166 0.70733
 O1456 O 0.52814 0.27809 0.71796
 O1457 O 0.53196 0.22408 0.75304
 O1458 O 0.52111 0.22385 0.78087
 O1459 O 0.48549 0.29984 0.75335
 O1460 O 0.49258 0.29823 0.72512
 O1461 O 0.45314 0.26603 0.76433
 O1462 O 0.45129 0.23701 0.76071
 O1463 O 0.49389 0.27074 0.79512
 O1464 O 0.52240 0.26233 0.79222
 O1465 O 0.50155 0.29329 0.77556
 O1466 O 0.52811 0.28084 0.77741
 O1467 O 0.47015 0.25877 0.79002
 O1468 O 0.46537 0.23043 0.78051
 O1469 O 0.46092 0.28536 0.74605
 O1470 O 0.46953 0.28346 0.71787
 O1471 O 0.50570 0.20828 0.74553
 O1472 O 0.49997 0.21192 0.77518
 O1473 O 0.53956 0.24292 0.73402
 O1474 O 0.54100 0.27135 0.73836
 O1475 O 0.49880 0.23751 0.70241
 O1476 O 0.47061 0.24617 0.70515
 Zr1477 Zr 0.48609 0.23965 0.72528
 O1478 O 0.47276 0.25640 0.73948
 Zr1479 Zr 0.51985 0.25885 0.73279
 O1480 O 0.50794 0.27644 0.74717
 Zr1481 Zr 0.50817 0.22995 0.75872
 O1482 O 0.49591 0.24627 0.77436
 Zr1483 Zr 0.48413 0.27859 0.73922
 O1484 O 0.49658 0.26245 0.72308
 Zr1485 Zr 0.47255 0.24977 0.76514
 O1486 O 0.48430 0.23190 0.75056
 Zr1487 Zr 0.50653 0.26880 0.77241
 O1488 O 0.52004 0.25198 0.75843
 O1489 O 0.50949 0.23647 0.73340
 O1490 O 0.48296 0.27218 0.76463
 C1491 C 0.49805 0.20470 0.73194
 C1492 C 0.51212 0.24349 0.69774
 C1493 C 0.54220 0.23037 0.74308
 C1494 C 0.49276 0.30323 0.76722
 C1495 C 0.45079 0.27918 0.75620
 C1496 C 0.47991 0.26640 0.79958
 H1497 H 0.46190 0.25730 0.73461
 H1498 H 0.49607 0.24222 0.78610
 H1499 H 0.51552 0.22865 0.72645
 H1500 H 0.51341 0.28680 0.74608
 H1501 H 0.49847 0.29373 0.71541
 H1502 H 0.52017 0.28009 0.70891
 H1503 H 0.47350 0.22893 0.78949
 H1504 H 0.48880 0.20977 0.77187
 H1505 H 0.47560 0.28009 0.70775
 H1506 H 0.47584 0.25479 0.69875
 H1507 H 0.51747 0.25359 0.79873
 H1508 H 0.52880 0.23255 0.78282
 H1509 H 0.46178 0.22211 0.73165
 H1510 H 0.44723 0.24011 0.74939
 H1511 H 0.54396 0.26856 0.75014
 H1512 H 0.53030 0.28790 0.76767
 O1513 O 0.26616 0.76214 0.45201
 O1514 O 0.23805 0.76568 0.45025
 O1515 O 0.27515 0.77978 0.50299
 O1516 O 0.26989 0.77300 0.52933
 O1517 O 0.29740 0.73638 0.48352
 O1518 O 0.28819 0.70923 0.48245
 O1519 O 0.22104 0.74212 0.53080
 O1520 O 0.22716 0.76906 0.52782
 O1521 O 0.20842 0.72670 0.48172
 O1522 O 0.22138 0.72870 0.45371
 O1523 O 0.23868 0.69902 0.51054
 O1524 O 0.26619 0.69900 0.51814
 O1525 O 0.23612 0.71962 0.53434
 O1526 O 0.26633 0.71660 0.53586
 O1527 O 0.22633 0.70257 0.48515
 O1528 O 0.23618 0.70981 0.45641
 O1529 O 0.20589 0.74358 0.50409
 O1530 O 0.21490 0.77266 0.50339
 O1531 O 0.28130 0.73963 0.45543
 O1532 O 0.27527 0.71179 0.45960
 O1533 O 0.29487 0.75400 0.50529
 O1534 O 0.28086 0.75042 0.53304
 O1535 O 0.26324 0.78352 0.47734
 O1536 O 0.23530 0.78204 0.47013
 Zr1537 Zr 0.25079 0.76210 0.47309
 O1538 O 0.23044 0.75004 0.48174
 Zr1539 Zr 0.27010 0.75608 0.50946
 O1540 O 0.25044 0.74425 0.51987
 Zr1541 Zr 0.27374 0.72976 0.47837
 O1542 O 0.25453 0.71638 0.48758
 Zr1543 Zr 0.22918 0.75200 0.50818
 O1544 O 0.24863 0.76553 0.49942
 Zr1545 Zr 0.23313 0.72544 0.47726
 O1546 O 0.25253 0.73773 0.46656
 Zr1547 Zr 0.25219 0.71981 0.51384
 O1548 O 0.27288 0.73144 0.50492
 O1549 O 0.27225 0.75413 0.48337
 O1550 O 0.23066 0.72757 0.50339
 C1551 C 0.27705 0.75219 0.44714
 C1552 C 0.27169 0.78833 0.48996
 C1553 C 0.30322 0.74605 0.49450
 C1554 C 0.22504 0.72942 0.53897
 C1555 C 0.20014 0.73376 0.49322
 C1556 C 0.22944 0.69439 0.49853
 H1557 H 0.22077 0.75439 0.47615
 H1558 H 0.25625 0.70499 0.48472
 H1559 H 0.28125 0.76029 0.47877
 H1560 H 0.25023 0.74619 0.53221
 H1561 H 0.23484 0.77763 0.52525
 H1562 H 0.25944 0.77214 0.53498
 H1563 H 0.24350 0.70106 0.45997
 H1564 H 0.26698 0.71436 0.45104
 H1565 H 0.20815 0.77069 0.49333
 H1566 H 0.23337 0.78633 0.48162
 H1567 H 0.26952 0.69486 0.50697
 H1568 H 0.29085 0.70904 0.49468
 H1569 H 0.23759 0.75512 0.44462
 H1570 H 0.21559 0.73906 0.45405
 H1571 H 0.28686 0.74026 0.53152
 H1572 H 0.26356 0.72529 0.54386
 O1573 O 0.27244 0.27827 0.96984
 O1574 O 0.24405 0.27788 0.97031
 O1575 O 0.28302 0.29957 1.01871
 O1576 O 0.27924 0.29369 1.04585
 O1577 O 0.30884 0.25766 1.00080
 O1578 O 0.30278 0.22978 1.00090
 O1579 O 0.23580 0.25652 1.05303
 O1580 O 0.23896 0.28403 1.04873
 O1581 O 0.22179 0.23824 1.00566
 O1582 O 0.23263 0.23959 0.97695
 O1583 O 0.25745 0.21483 1.03338
 O1584 O 0.28630 0.21997 1.03816
 O1585 O 0.25363 0.23611 1.05640
 O1586 O 0.28298 0.23646 1.05649
 O1587 O 0.24309 0.21592 1.00894
 O1588 O 0.24949 0.22294 0.97930
 O1589 O 0.21865 0.25595 1.02725
 O1590 O 0.22422 0.28521 1.02578
 O1591 O 0.29041 0.25792 0.97310
 O1592 O 0.28874 0.22992 0.97914
 O1593 O 0.30542 0.27734 1.02037
 O1594 O 0.29483 0.27267 1.04934
 O1595 O 0.26790 0.30051 0.99468
 O1596 O 0.24067 0.29498 0.98906
 Zr1597 Zr 0.25872 0.27734 0.99214
 O1598 O 0.24081 0.26342 1.00319
 Zr1599 Zr 0.28113 0.27582 1.02698
 O1600 O 0.26402 0.26196 1.03965
 Zr1601 Zr 0.28585 0.24839 0.99718
 O1602 O 0.26914 0.23320 1.00851
 Zr1603 Zr 0.24122 0.26652 1.02955
 O1604 O 0.25799 0.28191 1.01835
 Zr1605 Zr 0.24618 0.23912 0.99963
 O1606 O 0.26311 0.25304 0.98675
 Zr1607 Zr 0.26820 0.23754 1.03472
 O1608 O 0.28650 0.25139 1.02359
 O1609 O 0.28167 0.27267 1.00089
 O1610 O 0.24520 0.24213 1.02579
 C1611 C 0.28397 0.26935 0.96449
 C1612 C 0.27685 0.30692 1.00597
 C1613 C 0.31402 0.26918 1.00999
 C1614 C 0.24171 0.24469 1.06137
 C1615 C 0.21335 0.24533 1.01700
 C1616 C 0.24832 0.20859 1.02212
 H1617 H 0.23035 0.26635 0.99822
 H1618 H 0.27210 0.22200 1.00594
 H1619 H 0.28942 0.27963 0.99514
 H1620 H 0.26436 0.26437 1.05188
 H1621 H 0.24536 0.29329 1.04512
 H1622 H 0.27094 0.29032 1.05390
 H1623 H 0.25826 0.21548 0.98243
 H1624 H 0.27940 0.23061 0.97145
 H1625 H 0.21814 0.28301 1.01530
 H1626 H 0.23841 0.29925 1.00049
 H1627 H 0.28686 0.21347 1.02771
 H1628 H 0.30580 0.23004 1.01302
 H1629 H 0.24510 0.26722 0.96495
 H1630 H 0.22616 0.24956 0.97687
 H1631 H 0.30134 0.26282 1.04782
 H1632 H 0.28131 0.24647 1.06293
 C1633 C 0.27402 0.39042 0.78195
 C1634 C 0.25853 0.39030 0.78757
 C1635 C 0.25276 0.37837 0.79808
 C1636 C 0.26342 0.36613 0.80307
 C1637 C 0.27957 0.36608 0.79766
 C1638 C 0.28480 0.37843 0.78679
 O1639 O 0.27735 0.40313 0.77263
 C1640 C 0.26367 0.41127 0.77236
 C1641 C 0.25176 0.40398 0.78133
 C1642 C 0.23678 0.41097 0.78354
 C1643 C 0.23407 0.42619 0.77647
 C1644 C 0.24622 0.43402 0.76728
 C1645 C 0.26116 0.42624 0.76499
 H1646 H 0.24054 0.37855 0.80244
 H1647 H 0.25905 0.35672 0.81115
 H1648 H 0.29704 0.37908 0.78264
 H1649 H 0.22766 0.40514 0.79088
 H1650 H 0.22264 0.43203 0.77850
 H1651 H 0.27086 0.43206 0.75852
 C1652 C 0.28207 -0.12045 0.27524
 C1653 C 0.26683 -0.12102 0.28146
 C1654 C 0.26173 -0.13309 0.29208
 C1655 C 0.27282 -0.14502 0.29666
 C1656 C 0.28888 -0.14478 0.29068
 C1657 C 0.29332 -0.13227 0.27948
 O1658 O 0.28475 -0.10740 0.26614
 C1659 C 0.27087 -0.09959 0.26667
 C1660 C 0.25950 -0.10744 0.27586
 C1661 C 0.24445 -0.10096 0.27897
 C1662 C 0.24107 -0.08563 0.27260
 C1663 C 0.25266 -0.07714 0.26327
 C1664 C 0.26769 -0.08440 0.26001
 H1665 H 0.24967 -0.13324 0.29689
 H1666 H 0.26862 -0.15447 0.30474
 H1667 H 0.30534 -0.13113 0.27480
 H1668 H 0.23577 -0.10729 0.28645
 H1669 H 0.22956 -0.08022 0.27530
 H1670 H 0.27696 -0.07808 0.25336
 C1671 C 0.77333 0.88602 0.78801
 C1672 C 0.75987 0.88726 0.79775
 C1673 C 0.75657 0.87654 0.81064
 C1674 C 0.76758 0.86406 0.81363
 C1675 C 0.78181 0.86243 0.80385
 C1676 C 0.78444 0.87377 0.79071
 O1677 O 0.77467 0.89782 0.77690
 C1678 C 0.76178 0.90674 0.77974
 C1679 C 0.75229 0.90081 0.79236
 C1680 C 0.73868 0.90879 0.79801
 C1681 C 0.73492 0.92365 0.79061
 C1682 C 0.74472 0.93019 0.77778
 C1683 C 0.75813 0.92133 0.77203
 H1684 H 0.74593 0.87782 0.81826
 H1685 H 0.76475 0.85580 0.82362
 H1686 H 0.79497 0.87360 0.78292
 H1687 H 0.73149 0.90400 0.80811
 H1688 H 0.72465 0.93025 0.79528
 H1689 H 0.76603 0.92600 0.76249
 C1690 C 0.47451 0.87104 0.27690
 C1691 C 0.48929 0.87056 0.28440
 C1692 C 0.49499 0.88280 0.29448
 C1693 C 0.48495 0.89604 0.29719
 C1694 C 0.46931 0.89686 0.28998
 C1695 C 0.46430 0.88409 0.27935
 O1696 O 0.47114 0.85781 0.26835
 C1697 C 0.48411 0.84879 0.27058
 C1698 C 0.49555 0.85607 0.28034
 C1699 C 0.50970 0.84854 0.28509
 C1700 C 0.51214 0.83278 0.27967
 C1701 C 0.50054 0.82492 0.26961
 C1702 C 0.48639 0.83315 0.26482
 H1703 H 0.50672 0.88212 0.30023
 H1704 H 0.48963 0.90558 0.30488
 H1705 H 0.45257 0.88373 0.27370
 H1706 H 0.51842 0.85448 0.29295
 H1707 H 0.52306 0.82666 0.28340
 H1708 H 0.47722 0.82738 0.25740
 C1709 C -0.03494 0.87222 0.76389
 C1710 C -0.01871 0.87345 0.76569
 C1711 C -0.01155 0.88651 0.77322
 C1712 C -0.02151 0.89872 0.77943
 C1713 C -0.03850 0.89772 0.77835
 C1714 C -0.04514 0.88424 0.76997
 O1715 O -0.03933 0.85843 0.75708
 C1716 C -0.02555 0.85079 0.75462
 C1717 C -0.01256 0.85946 0.75973
 C1718 C 0.00292 0.85330 0.75950
 C1719 C 0.00509 0.83748 0.75397
 C1720 C -0.00810 0.82829 0.74860
 C1721 C -0.02362 0.83516 0.74870
 H1722 H 0.00128 0.88720 0.77447
 H1723 H -0.01570 0.90887 0.78505
 H1724 H -0.05785 0.88254 0.76887
 H1725 H 0.01292 0.86026 0.76390
 H1726 H 0.01699 0.83229 0.75411
 H1727 H -0.03397 0.82824 0.74519
 C1728 C -0.04385 -0.09704 -0.03453
 C1729 C -0.02766 -0.09995 -0.03506
 C1730 C -0.02110 -0.11450 -0.04014
 C1731 C -0.03163 -0.12637 -0.04542
 C1732 C -0.04831 -0.12348 -0.04560
 C1733 C -0.05457 -0.10877 -0.03969
 O1734 O -0.04749 -0.08203 -0.03045
 C1735 C -0.03330 -0.07533 -0.02854
 C1736 C -0.02080 -0.08579 -0.03136
 C1737 C -0.00498 -0.08103 -0.03166
 C1738 C -0.00189 -0.06482 -0.02884
 C1739 C -0.01452 -0.05386 -0.02558
 C1740 C -0.03046 -0.05921 -0.02526
 H1741 H -0.00832 -0.11640 -0.04069
 H1742 H -0.02686 -0.13755 -0.05024
 H1743 H -0.06724 -0.10618 -0.04031
 H1744 H 0.00460 -0.08942 -0.03433
 H1745 H 0.01034 -0.06080 -0.02909
 H1746 H -0.04031 -0.05097 -0.02316
 C1747 C -0.04520 0.38538 0.47055
 C1748 C -0.04927 0.38652 0.48732
 C1749 C -0.05734 0.37473 0.49588
 C1750 C -0.06171 0.36118 0.48677
 C1751 C -0.05809 0.35950 0.46921
 C1752 C -0.04931 0.37182 0.46114
 O1753 O -0.03786 0.39836 0.46490
 C1754 C -0.03737 0.40780 0.47847
 C1755 C -0.04422 0.40100 0.49245
 C1756 C -0.04555 0.40871 0.50790
 C1757 C -0.03958 0.42418 0.50909
 C1758 C -0.03240 0.43168 0.49494
 C1759 C -0.03119 0.42328 0.47937
 H1760 H -0.06028 0.37594 0.50915
 H1761 H -0.06765 0.35192 0.49377
 H1762 H -0.04638 0.37130 0.44783
 H1763 H -0.05111 0.40306 0.51866
 H1764 H -0.04057 0.43027 0.52114
 H1765 H -0.02590 0.42868 0.46832
 C1766 C 0.45371 -0.11095 0.46566
 C1767 C 0.44896 -0.10935 0.48218
 C1768 C 0.44107 -0.12116 0.49091
 C1769 C 0.43756 -0.13521 0.48221
 C1770 C 0.44175 -0.13736 0.46483
 C1771 C 0.45040 -0.12500 0.45662
 O1772 O 0.46087 -0.09793 0.45984
 C1773 C 0.46053 -0.08800 0.47304
 C1774 C 0.45332 -0.09452 0.48695
 C1775 C 0.45117 -0.08633 0.50204
 C1776 C 0.45675 -0.07069 0.50294
 C1777 C 0.46441 -0.06348 0.48890
 C1778 C 0.46636 -0.07235 0.47368
 H1779 H 0.43765 -0.11961 0.50400
 H1780 H 0.43177 -0.14443 0.48938
 H1781 H 0.45381 -0.12588 0.44347
 H1782 H 0.44535 -0.09178 0.51274
 H1783 H 0.45521 -0.06427 0.51473
 H1784 H 0.47206 -0.06722 0.46272
 C1785 C 0.45318 0.41072 -0.04541
 C1786 C 0.46717 0.41204 -0.05423
 C1787 C 0.47247 0.40073 -0.06571
 C1788 C 0.46286 0.38750 -0.06857
 C1789 C 0.44806 0.38558 -0.05998
 C1790 C 0.44340 0.39735 -0.04783
 O1791 O 0.45029 0.42338 -0.03555
 C1792 C 0.46278 0.43277 -0.03831
 C1793 C 0.47339 0.42622 -0.04963
 C1794 C 0.48706 0.43388 -0.05489
 C1795 C 0.49001 0.44904 -0.04829
 C1796 C 0.47934 0.45639 -0.03663
 C1797 C 0.46551 0.44801 -0.03145
 H1798 H 0.48362 0.40208 -0.07239
 H1799 H 0.46738 0.37860 -0.07727
 H1800 H 0.43222 0.39659 -0.04111
 H1801 H 0.49515 0.42842 -0.06390
 H1802 H 0.50069 0.45504 -0.05239
 H1803 H 0.45706 0.45328 -0.02269
 C1804 C 0.79709 0.34842 0.47557
 C1805 C 0.78095 0.35100 0.47738
 C1806 C 0.77333 0.36511 0.47250
 C1807 C 0.78267 0.37700 0.46522
 C1808 C 0.79930 0.37466 0.46299
 C1809 C 0.80670 0.36028 0.46854
 O1810 O 0.80165 0.33365 0.47978
 C1811 C 0.78807 0.32679 0.48427
 C1812 C 0.77510 0.33696 0.48302
 C1813 C 0.75954 0.33206 0.48566
 C1814 C 0.75719 0.31593 0.48952
 C1815 C 0.77029 0.30514 0.49080
 C1816 C 0.78602 0.31066 0.48845
 H1817 H 0.76057 0.36672 0.47381
 H1818 H 0.77697 0.38798 0.46099
 H1819 H 0.81931 0.35812 0.46660
 H1820 H 0.74952 0.34023 0.48422
 H1821 H 0.74513 0.31171 0.49112
 H1822 H 0.79613 0.30250 0.48884
 C1823 C 0.80886 0.84843 -0.02985
 C1824 C 0.81587 0.84681 -0.01422
 C1825 C 0.82614 0.85808 -0.00754
 C1826 C 0.82928 0.87169 -0.01729
 C1827 C 0.82207 0.87400 -0.03352
 C1828 C 0.81168 0.86193 -0.03976
 O1829 O 0.79982 0.83606 -0.03404
 C1830 C 0.80114 0.82645 -0.02068
 C1831 C 0.81079 0.83257 -0.00820
 C1832 C 0.81406 0.82452 0.00678
 C1833 C 0.80731 0.80943 0.00894
 C1834 C 0.79751 0.80256 -0.00383
 C1835 C 0.79425 0.81138 -0.01882
 H1836 H 0.83157 0.85647 0.00481
 H1837 H 0.83702 0.88050 -0.01176
 H1838 H 0.80614 0.86264 -0.05210
 H1839 H 0.82171 0.82960 0.01640
 H1840 H 0.80998 0.80302 0.02053
 H1841 H 0.78700 0.80649 -0.02889
 C1842 C 0.79255 0.27723 0.38770
 C1843 C 0.80082 0.26310 0.39003
 C1844 C 0.81192 0.25728 0.37852
 C1845 C 0.81473 0.26649 0.36406
 C1846 C 0.80653 0.28125 0.36139
 C1847 C 0.79515 0.28659 0.37337
 O1848 O 0.78265 0.28063 0.40030
 C1849 C 0.78475 0.26836 0.41078
 C1850 C 0.79575 0.25733 0.40507
 C1851 C 0.79998 0.24369 0.41411
 C1852 C 0.79254 0.24128 0.42973
 C1853 C 0.78107 0.25244 0.43598
 C1854 C 0.77715 0.26619 0.42626
 H1855 H 0.81822 0.24609 0.38063
 H1856 H 0.82324 0.26203 0.35490
 H1857 H 0.78880 0.29783 0.37180
 H1858 H 0.80873 0.23523 0.40935
 H1859 H 0.79574 0.23069 0.43691
 H1860 H 0.76854 0.27500 0.43063
 C1861 C 0.80289 0.78147 -0.11006
 C1862 C 0.81255 0.76814 -0.10915
 C1863 C 0.82305 0.76381 -0.12187
 C1864 C 0.82379 0.77368 -0.13614
 C1865 C 0.81410 0.78779 -0.13762
 C1866 C 0.80332 0.79149 -0.12422
 O1867 O 0.79398 0.78354 -0.09632
 C1868 C 0.79815 0.77121 -0.08658
 C1869 C 0.80946 0.76144 -0.09391
 C1870 C 0.81577 0.74798 -0.08595
 C1871 C 0.81023 0.74442 -0.06971
 C1872 C 0.79857 0.75427 -0.06167
 C1873 C 0.79242 0.76788 -0.07036
 H1874 H 0.83049 0.75318 -0.12084
 H1875 H 0.83181 0.76995 -0.14607
 H1876 H 0.79581 0.80207 -0.12436
 H1877 H 0.82471 0.74053 -0.09200
 H1878 H 0.81514 0.73396 -0.06340
 H1879 H 0.78360 0.77572 -0.06465
 C1880 C 0.28416 0.45689 0.86218
 C1881 C 0.26847 0.45237 0.86268
 C1882 C 0.26216 0.44360 0.87594
 C1883 C 0.27243 0.43944 0.88933
 C1884 C 0.28869 0.44407 0.88918
 C1885 C 0.29458 0.45281 0.87524
 O1886 O 0.28776 0.46532 0.84854
 C1887 C 0.27400 0.46619 0.84025
 C1888 C 0.26183 0.45844 0.84834
 C1889 C 0.24643 0.45787 0.84189
 C1890 C 0.24347 0.46553 0.82640
 C1891 C 0.25585 0.47363 0.81776
 C1892 C 0.27134 0.47395 0.82489
 H1893 H 0.24973 0.44024 0.87607
 H1894 H 0.26761 0.43297 0.89995
 H1895 H 0.30691 0.45637 0.87455
 H1896 H 0.23704 0.45172 0.84851
 H1897 H 0.23153 0.46513 0.82117
 H1898 H 0.28108 0.47988 0.81862
 C1899 C 0.29179 -0.04972 0.36078
 C1900 C 0.27928 -0.05960 0.35722
 C1901 C 0.27504 -0.07226 0.36737
 C1902 C 0.28408 -0.07507 0.38190
 C1903 C 0.29738 -0.06532 0.38629
 C1904 C 0.30111 -0.05224 0.37540
 O1905 O 0.29354 -0.03833 0.34913
 C1906 C 0.28180 -0.04121 0.33812
 C1907 C 0.27281 -0.05412 0.34266
 C1908 C 0.25993 -0.05947 0.33334
 C1909 C 0.25598 -0.05115 0.31860
 C1910 C 0.26487 -0.03766 0.31335
 C1911 C 0.27811 -0.03266 0.32327
 H1912 H 0.26497 -0.07971 0.36427
 H1913 H 0.28010 -0.08471 0.38981
 H1914 H 0.31103 -0.04446 0.37794
 H1915 H 0.25312 -0.06972 0.33728
 H1916 H 0.24596 -0.05539 0.31124
 H1917 H 0.28516 -0.02247 0.31964
 C1918 C -0.04454 -0.01909 -0.12541
 C1919 C -0.02873 -0.01598 -0.12824
 C1920 C -0.02101 -0.01990 -0.14315
 C1921 C -0.02978 -0.02777 -0.15560
 C1922 C -0.04612 -0.03164 -0.15313
 C1923 C -0.05373 -0.02662 -0.13791
 O1924 O -0.04905 -0.01557 -0.10968
 C1925 C -0.03574 -0.01020 -0.10251
 C1926 C -0.02302 -0.01022 -0.11345
 C1927 C -0.00762 -0.00644 -0.10851
 C1928 C -0.00510 -0.00264 -0.09150
 C1929 C -0.01789 -0.00257 -0.07984
 C1930 C -0.03354 -0.00612 -0.08543
 H1931 H -0.00849 -0.01741 -0.14495
 H1932 H -0.02371 -0.03079 -0.16723
 H1933 H -0.06598 -0.02962 -0.13526
 H1934 H 0.00222 -0.00690 -0.11733
 H1935 H 0.00689 0.00001 -0.08730
 H1936 H -0.04339 -0.00653 -0.07663
 C1937 C -0.05104 0.45879 0.39283
 C1938 C -0.06155 0.47069 0.39739
 C1939 C -0.07438 0.47533 0.38736
 C1940 C -0.07653 0.46739 0.37192
 C1941 C -0.06592 0.45487 0.36661
 C1942 C -0.05292 0.45066 0.37753
 O1943 O -0.03956 0.45630 0.40423
 C1944 C -0.04295 0.46692 0.41624
 C1945 C -0.05630 0.47600 0.41261
 C1946 C -0.06202 0.48789 0.42328
 C1947 C -0.05360 0.49062 0.43833
 C1948 C -0.03969 0.48149 0.44248
 C1949 C -0.03435 0.46939 0.43121
 H1950 H -0.08246 0.48482 0.39125
 H1951 H -0.08651 0.47130 0.36428
 H1952 H -0.04440 0.44134 0.37452
 H1953 H -0.07257 0.49487 0.42013
 H1954 H -0.05801 0.49987 0.44673
 H1955 H -0.02382 0.46221 0.43392
 C1956 C 0.45507 -0.02985 0.38250
 C1957 C 0.44754 -0.01535 0.38491
 C1958 C 0.43807 -0.00808 0.37257
 C1959 C 0.43618 -0.01617 0.35715
 C1960 C 0.44369 -0.03125 0.35436
 C1961 C 0.45335 -0.03809 0.36729
 O1962 O 0.46345 -0.03472 0.39587
 C1963 C 0.46115 -0.02303 0.40697
 C1964 C 0.45148 -0.01092 0.40089
 C1965 C 0.44734 0.00241 0.41045
 C1966 C 0.45347 0.00333 0.42694
 C1967 C 0.46360 -0.00895 0.43356
 C1968 C 0.46744 -0.02235 0.42333
 H1969 H 0.43231 0.00338 0.37475
 H1970 H 0.42894 -0.01063 0.34736
 H1971 H 0.45906 -0.04966 0.36577
 H1972 H 0.43966 0.01176 0.40539
 H1973 H 0.45037 0.01371 0.43448
 H1974 H 0.47505 -0.03196 0.42793
 C1975 C 0.45318 0.49235 -0.12907
 C1976 C 0.46918 0.49474 -0.13167
 C1977 C 0.47727 0.48884 -0.14564
 C1978 C 0.46870 0.47961 -0.15718
 C1979 C 0.45219 0.47657 -0.15484
 C1980 C 0.44416 0.48373 -0.14089
 O1981 O 0.44842 0.49712 -0.11380
 C1982 C 0.46172 0.50254 -0.10667
 C1983 C 0.47470 0.50141 -0.11721
 C1984 C 0.49015 0.50466 -0.11196
 C1985 C 0.49243 0.50898 -0.09503
 C1986 C 0.47938 0.51000 -0.08373
 C1987 C 0.46370 0.50712 -0.08971
 H1988 H 0.48995 0.49058 -0.14718
 H1989 H 0.47504 0.47462 -0.16789
 H1990 H 0.43178 0.48121 -0.13832
 H1991 H 0.50020 0.50326 -0.12040
 H1992 H 0.50445 0.51105 -0.09055
 H1993 H 0.45364 0.50729 -0.08117
 C1994 C 0.46661 0.79303 0.36418
 C1995 C 0.46746 0.77661 0.36459
 C1996 C 0.46155 0.76759 0.37783
 C1997 C 0.45418 0.77578 0.39115
 C1998 C 0.45263 0.79272 0.39101
 C1999 C 0.45925 0.80150 0.37741
 O2000 O 0.47262 0.79912 0.35003
 C2001 C 0.47725 0.78623 0.34136
 C2002 C 0.47424 0.77219 0.34976
 C2003 C 0.47717 0.75721 0.34282
 C2004 C 0.48341 0.75659 0.32644
 C2005 C 0.48681 0.77080 0.31744
 C2006 C 0.48387 0.78590 0.32507
 H2007 H 0.46241 0.75467 0.37782
 H2008 H 0.44955 0.76886 0.40156
 H2009 H 0.45814 0.81439 0.37685
 H2010 H 0.47447 0.74636 0.34964
 H2011 H 0.48565 0.74501 0.32073
 H2012 H 0.48613 0.79691 0.31833
 C2013 C -0.04443 0.80641 0.84722
 C2014 C -0.03343 0.81716 0.84162
 C2015 C -0.03016 0.83127 0.84997
 C2016 C -0.03844 0.83449 0.86489
 C2017 C -0.04987 0.82358 0.87150
 C2018 C -0.05287 0.80928 0.86220
 O2019 O -0.04558 0.79367 0.83719
 C2020 C -0.03498 0.79653 0.82510
 C2021 C -0.02723 0.81076 0.82738
 C2022 C -0.01545 0.81615 0.81662
 C2023 C -0.01142 0.80650 0.80285
 C2024 C -0.01922 0.79173 0.79996
 C2025 C -0.03128 0.78671 0.81126
 H2026 H -0.02138 0.83951 0.84522
 H2027 H -0.03538 0.84542 0.87124
 H2028 H -0.06146 0.80059 0.86628
 H2029 H -0.00953 0.82741 0.81877
 H2030 H -0.00234 0.81071 0.79429
 H2031 H -0.03745 0.77555 0.80941
 C2032 C 0.40148 0.79524 0.27912
 C2033 C 0.40309 0.80082 0.26289
 C2034 C 0.39124 0.80971 0.25474
 C2035 C 0.37711 0.81293 0.26366
 C2036 C 0.37510 0.80741 0.28055
 C2037 C 0.38765 0.79846 0.28831
 O2038 O 0.41412 0.78697 0.28455
 C2039 C 0.42396 0.78735 0.27144
 C2040 C 0.41779 0.79574 0.25789
 C2041 C 0.42621 0.79796 0.24298
 C2042 C 0.44163 0.79135 0.24204
 C2043 C 0.44829 0.78256 0.25581
 C2044 C 0.43920 0.78045 0.27069
 H2045 H 0.39275 0.81391 0.24190
 H2046 H 0.36773 0.81952 0.25724
 H2047 H 0.38686 0.79417 0.30117
 H2048 H 0.42114 0.80468 0.23252
 H2049 H 0.44839 0.79308 0.23055
 H2050 H 0.44399 0.77400 0.28149
 C2051 C -0.10773 0.80509 0.77614
 C2052 C -0.10754 0.81135 0.76006
 C2053 C -0.12041 0.81987 0.75330
 C2054 C -0.13401 0.82191 0.76349
 C2055 C -0.13449 0.81553 0.78018
 C2056 C -0.12096 0.80712 0.78651
 O2057 O -0.09459 0.79694 0.78009
 C2058 C -0.08588 0.79804 0.76621
 C2059 C -0.09315 0.80678 0.75355
 C2060 C -0.08606 0.80915 0.73785
 C2061 C -0.07096 0.80208 0.73509
 C2062 C -0.06342 0.79272 0.74790
 C2063 C -0.07103 0.79088 0.76372
 H2064 H -0.12011 0.82457 0.74054
 H2065 H -0.14422 0.82819 0.75821
 H2066 H -0.12061 0.80221 0.79916
 H2067 H -0.09198 0.81604 0.72803
 H2068 H -0.06533 0.80362 0.72290
 H2069 H -0.06564 0.78392 0.77384
 C2070 C 0.86345 0.26562 0.47317
 C2071 C 0.86404 0.26656 0.49056
 C2072 C 0.87631 0.27407 0.49921
 C2073 C 0.88824 0.28124 0.48957
 C2074 C 0.88768 0.28089 0.47161
 C2075 C 0.87531 0.27256 0.46331
 O2076 O 0.85007 0.25920 0.46744
 C2077 C 0.84202 0.25614 0.48149
 C2078 C 0.85004 0.26045 0.49598
 C2079 C 0.84315 0.25988 0.51195
 C2080 C 0.82727 0.25487 0.51301
 C2081 C 0.81875 0.25041 0.49825
 C2082 C 0.82636 0.25075 0.48230
 H2083 H 0.87640 0.27486 0.51288
 H2084 H 0.89769 0.28749 0.49606
 H2085 H 0.87436 0.27250 0.44965
 H2086 H 0.84955 0.26375 0.52312
 H2087 H 0.82149 0.25481 0.52524
 H2088 H 0.81994 0.24796 0.47077
 C2089 C 0.88077 0.78500 -0.02556
 C2090 C 0.88415 0.76923 -0.02914
 C2091 C 0.89623 0.76457 -0.04017
 C2092 C 0.90508 0.77665 -0.04792
 C2093 C 0.90173 0.79301 -0.04455
 C2094 C 0.88954 0.79718 -0.03297
 O2095 O 0.86789 0.78696 -0.01604
 C2096 C 0.86300 0.77211 -0.01359
 C2097 C 0.87257 0.76081 -0.02130
 C2098 C 0.86880 0.74467 -0.02177
 C2099 C 0.85436 0.74007 -0.01444
 C2100 C 0.84407 0.75156 -0.00680
 C2101 C 0.84872 0.76774 -0.00594
 H2102 H 0.89846 0.75209 -0.04307
 H2103 H 0.91442 0.77330 -0.05669
 H2104 H 0.88639 0.80955 -0.03055
 H2105 H 0.87633 0.73606 -0.02823
 H2106 H 0.85086 0.72768 -0.01535
 H2107 H 0.84085 0.77687 -0.00080
 C2108 C -0.10540 -0.03489 -0.03356
 C2109 C -0.10739 -0.01936 -0.03888
 C2110 C -0.12061 -0.01413 -0.04797
 C2111 C -0.13224 -0.02538 -0.05199
 C2112 C -0.13062 -0.04172 -0.04692
 C2113 C -0.11697 -0.04633 -0.03719
 O2114 O -0.09144 -0.03748 -0.02591
 C2115 C -0.08453 -0.02325 -0.02646
 C2116 C -0.09387 -0.01178 -0.03423
 C2117 C -0.08879 0.00374 -0.03701
 C2118 C -0.07332 0.00757 -0.03180
 C2119 C -0.06325 -0.00404 -0.02395
 C2120 C -0.06909 -0.01965 -0.02099
 H2121 H -0.12184 -0.00183 -0.05206
 H2122 H -0.14261 -0.02110 -0.05884
 H2123 H -0.11489 -0.05857 -0.03331
 H2124 H -0.09634 0.01249 -0.04333
 H2125 H -0.06911 0.01955 -0.03415
 H2126 H -0.06163 -0.02886 -0.01532
 C2127 C -0.11777 0.45573 0.48426
 C2128 C -0.11986 0.47194 0.48216
 C2129 C -0.13249 0.47857 0.47313
 C2130 C -0.14326 0.46811 0.46558
 C2131 C -0.14144 0.45120 0.46721
 C2132 C -0.12872 0.44501 0.47732
 O2133 O -0.10393 0.45196 0.49162
 C2134 C -0.09721 0.46610 0.49414
 C2135 C -0.10658 0.47868 0.48866
 C2136 C -0.10143 0.49440 0.48852
 C2137 C -0.08580 0.49728 0.49388
 C2138 C -0.07566 0.48453 0.49920
 C2139 C -0.08161 0.46873 0.49976
 H2140 H -0.13370 0.49137 0.47142
 H2141 H -0.15309 0.47331 0.45850
 H2142 H -0.12659 0.43227 0.47849
 H2143 H -0.10895 0.50402 0.48379
 H2144 H -0.08140 0.50939 0.49332
 H2145 H -0.07398 0.45871 0.50322
 C2146 C 0.37767 -0.02216 0.46854
 C2147 C 0.37677 -0.02235 0.48591
 C2148 C 0.36489 -0.03022 0.49461
 C2149 C 0.35374 -0.03870 0.48509
 C2150 C 0.35446 -0.03917 0.46708
 C2151 C 0.36626 -0.03008 0.45869
 O2152 O 0.39113 -0.01581 0.46296
 C2153 C 0.39885 -0.01201 0.47713
 C2154 C 0.39047 -0.01570 0.49150
 C2155 C 0.39693 -0.01457 0.50768
 C2156 C 0.41282 -0.00978 0.50914
 C2157 C 0.42188 -0.00620 0.49455
 C2158 C 0.41465 -0.00690 0.47832
 H2159 H 0.36464 -0.03046 0.50830
 H2160 H 0.34461 -0.04508 0.49186
 H2161 H 0.36759 -0.03055 0.44508
 H2162 H 0.39023 -0.01801 0.51875
 H2163 H 0.41828 -0.00946 0.52158
 H2164 H 0.42150 -0.00485 0.46695
 C2165 C 0.38714 0.47743 -0.03703
 C2166 C 0.38658 0.49187 -0.04530
 C2167 C 0.37416 0.49637 -0.05594
 C2168 C 0.36187 0.48545 -0.05840
 C2169 C 0.36210 0.47018 -0.05029
 C2170 C 0.37491 0.46641 -0.03907
 O2171 O 0.40053 0.47518 -0.02827
 C2172 C 0.40854 0.48850 -0.03113
 C2173 C 0.40048 0.49911 -0.04144
 C2174 C 0.40692 0.51347 -0.04675
 C2175 C 0.42239 0.51703 -0.04131
 C2176 C 0.43111 0.50623 -0.03080
 C2177 C 0.42394 0.49181 -0.02551
 H2178 H 0.37404 0.50781 -0.06235
 H2179 H 0.35212 0.48915 -0.06653
 H2180 H 0.37593 0.45492 -0.03287
 H2181 H 0.40037 0.52153 -0.05502
 H2182 H 0.42763 0.52810 -0.04551
 H2183 H 0.43029 0.48318 -0.01771
 C2184 C 0.34961 0.45511 0.78861
 C2185 C 0.34537 0.44479 0.77589
 C2186 C 0.35520 0.43234 0.77055
 C2187 C 0.37005 0.43048 0.77857
 C2188 C 0.37490 0.44092 0.79186
 C2189 C 0.36430 0.45341 0.79692
 O2190 O 0.33864 0.46639 0.79146
 C2191 C 0.32727 0.46307 0.78027
 C2192 C 0.33080 0.44995 0.77046
 C2193 C 0.32066 0.44448 0.75781
 C2194 C 0.30631 0.45293 0.75509
 C2195 C 0.30236 0.46663 0.76495
 C2196 C 0.31306 0.47166 0.77780
 H2197 H 0.35166 0.42446 0.76038
 H2198 H 0.37778 0.42103 0.77403
 H2199 H 0.36730 0.46165 0.80693
 H2200 H 0.32373 0.43412 0.75024
 H2201 H 0.29833 0.44880 0.74526
 H2202 H 0.31052 0.48204 0.78556
 C2203 C 0.35553 -0.04838 0.27753
 C2204 C 0.35327 -0.05525 0.26192
 C2205 C 0.36533 -0.06343 0.25342
 C2206 C 0.38033 -0.06453 0.26134
 C2207 C 0.38299 -0.05760 0.27755
 C2208 C 0.37022 -0.04949 0.28571
 O2209 O 0.34275 -0.04066 0.28322
 C2210 C 0.33216 -0.04268 0.27093
 C2211 C 0.33796 -0.05160 0.25763
 C2212 C 0.32889 -0.05496 0.24332
 C2213 C 0.31329 -0.04873 0.24264
 C2214 C 0.30715 -0.03921 0.25607
 C2215 C 0.31677 -0.03630 0.27048
 H2216 H 0.36334 -0.06857 0.24104
 H2217 H 0.38987 -0.07054 0.25463
 H2218 H 0.37154 -0.04416 0.29808
 H2219 H 0.33371 -0.06198 0.23300
 H2220 H 0.30614 -0.05105 0.23148
 H2221 H 0.31250 -0.02912 0.28097
 C2222 C 0.13531 0.54984 0.72084
 C2223 C 0.13817 0.55638 0.73649
 C2224 C 0.12711 0.56606 0.74479
 C2225 C 0.11245 0.56904 0.73665
 C2226 C 0.10914 0.56245 0.72045
 C2227 C 0.12093 0.55278 0.71246
 O2228 O 0.14723 0.54070 0.71529
 C2229 C 0.15787 0.54147 0.72773
 C2230 C 0.15292 0.55097 0.74096
 C2231 C 0.16215 0.55340 0.75534
 C2232 C 0.17708 0.54570 0.75613
 C2233 C 0.18246 0.53567 0.74272
 C2234 C 0.17264 0.53358 0.72828
 H2235 H 0.12959 0.57099 0.75718
 H2236 H 0.10363 0.57624 0.74318
 H2237 H 0.11909 0.54768 0.70005
 H2238 H 0.15800 0.56091 0.76561
 H2239 H 0.18434 0.54746 0.76732
 H2240 H 0.17634 0.52608 0.71782
 C2241 C 0.13731 0.03935 0.21725
 C2242 C 0.13817 0.04295 0.23420
 C2243 C 0.12647 0.05183 0.24247
 C2244 C 0.11339 0.05730 0.23288
 C2245 C 0.11225 0.05401 0.21525
 C2246 C 0.12448 0.04478 0.20743
 O2247 O 0.14973 0.03085 0.21181
 C2248 C 0.15865 0.02908 0.22563
 C2249 C 0.15213 0.03632 0.23965
 C2250 C 0.15970 0.03638 0.25534
 C2251 C 0.17463 0.02871 0.25660
 C2252 C 0.18159 0.02103 0.24235
 C2253 C 0.17337 0.02116 0.22665
 H2254 H 0.12738 0.05444 0.25586
 H2255 H 0.10414 0.06400 0.23931
 H2256 H 0.12425 0.04215 0.19404
 H2257 H 0.15439 0.04227 0.26617
 H2258 H 0.18075 0.02870 0.26870
 H2259 H 0.17844 0.01562 0.21549
 C2260 C 0.62306 0.72020 0.21769
 C2261 C 0.62386 0.71769 0.23491
 C2262 C 0.63594 0.70875 0.24254
 C2263 C 0.64739 0.70169 0.23197
 C2264 C 0.64650 0.70351 0.21411
 C2265 C 0.63443 0.71333 0.20692
 O2266 O 0.60994 0.72805 0.21295
 C2267 C 0.60228 0.73041 0.22744
 C2268 C 0.61025 0.72422 0.24124
 C2269 C 0.60367 0.72396 0.25739
 C2270 C 0.58821 0.73030 0.25938
 C2271 C 0.57984 0.73690 0.24537
 C2272 C 0.58708 0.73711 0.22922
 H2273 H 0.63622 0.70678 0.25607
 H2274 H 0.65663 0.69425 0.23761
 H2275 H 0.63324 0.71454 0.19333
 H2276 H 0.61002 0.71863 0.26798
 H2277 H 0.58272 0.72998 0.27176
 H2278 H 0.58074 0.74163 0.21820
 C2279 C 0.10266 0.70537 0.70833
 C2280 C 0.10188 0.70382 0.72560
 C2281 C 0.11351 0.69583 0.73503
 C2282 C 0.12659 0.68929 0.72631
 C2283 C 0.12777 0.69067 0.70841
 C2284 C 0.11542 0.69878 0.69938
 O2285 O 0.09039 0.71347 0.70177
 C2286 C 0.08166 0.71712 0.71523
 C2287 C 0.08817 0.71143 0.73011
 C2288 C 0.08091 0.71359 0.74571
 C2289 C 0.06626 0.72182 0.74597
 C2290 C 0.05924 0.72783 0.73081
 C2291 C 0.06718 0.72557 0.71522
 H2292 H 0.11263 0.69482 0.74865
 H2293 H 0.13586 0.68342 0.73364
 H2294 H 0.11560 0.69995 0.68576
 H2295 H 0.08624 0.70897 0.75723
 H2296 H 0.06036 0.72350 0.75802
 H2297 H 0.06205 0.72984 0.70344
 C2298 C 0.63729 0.21379 0.52961
 C2299 C 0.63718 0.21069 0.51252
 C2300 C 0.62497 0.20246 0.50455
 C2301 C 0.61245 0.19704 0.51465
 C2302 C 0.61238 0.19983 0.53239
 C2303 C 0.62489 0.20859 0.53990
 O2304 O 0.65049 0.22093 0.53480
 C2305 C 0.65890 0.22230 0.52068
 C2306 C 0.65127 0.21620 0.50670
 C2307 C 0.65835 0.21533 0.49084
 C2308 C 0.67405 0.22075 0.48939
 C2309 C 0.68224 0.22696 0.50366
 C2310 C 0.67441 0.22800 0.51946
 H2311 H 0.62523 0.20003 0.49110
 H2312 H 0.60286 0.19057 0.50867
 H2313 H 0.62532 0.21064 0.55341
 H2314 H 0.65219 0.21023 0.48010
 H2315 H 0.67992 0.21983 0.47725
 H2316 H 0.68051 0.23227 0.53067
 C2317 C 0.66557 0.70578 0.04030
 C2318 C 0.66523 0.70457 0.02296
 C2319 C 0.65245 0.69818 0.01411
 C2320 C 0.63943 0.69281 0.02351
 C2321 C 0.63939 0.69384 0.04146
 C2322 C 0.65271 0.70052 0.04993
 O2323 O 0.67912 0.71179 0.04619
 C2324 C 0.68750 0.71441 0.03224
 C2325 C 0.67948 0.71018 0.01771
 C2326 C 0.68613 0.71127 0.00172
 C2327 C 0.70182 0.71670 0.00062
 C2328 C 0.71052 0.72100 0.01537
 C2329 C 0.70313 0.72008 0.03142
 H2330 H 0.65250 0.69733 0.00044
 H2331 H 0.62931 0.68804 0.01675
 H2332 H 0.65318 0.70131 0.06359
 H2333 H 0.67960 0.70774 -0.00950
 H2334 H 0.70728 0.71736 -0.01176
 H2335 H 0.70956 0.72299 0.04291
 C2336 C 0.11206 0.04500 0.02802
 C2337 C 0.11314 0.04795 0.01095
 C2338 C 0.12530 0.05691 0.00394
 C2339 C 0.13683 0.06310 0.01497
 C2340 C 0.13601 0.06033 0.03268
 C2341 C 0.12345 0.05100 0.03923
 O2342 O 0.09912 0.03690 0.03216
 C2343 C 0.09186 0.03472 0.01737
 C2344 C 0.09998 0.04124 0.00400
 C2345 C 0.09410 0.04121 -0.01247
 C2346 C 0.07907 0.03450 -0.01522
 C2347 C 0.07030 0.02790 -0.00162
 C2348 C 0.07698 0.02773 0.01487
 H2349 H 0.12581 0.05918 -0.00953
 H2350 H 0.14644 0.06998 0.00967
 H2351 H 0.12230 0.04888 0.05267
 H2352 H 0.10062 0.04661 -0.02274
 H2353 H 0.07407 0.03480 -0.02788
 H2354 H 0.07039 0.02319 0.02557
 C2355 C 0.10710 0.51906 0.53401
 C2356 C 0.10770 0.51797 0.51663
 C2357 C 0.12060 0.52317 0.50726
 C2358 C 0.13322 0.53019 0.51608
 C2359 C 0.13272 0.53198 0.53394
 C2360 C 0.11966 0.52591 0.54309
 O2361 O 0.09317 0.51461 0.54029
 C2362 C 0.08480 0.51075 0.52659
 C2363 C 0.09315 0.51267 0.51180
 C2364 C 0.08622 0.51091 0.49588
 C2365 C 0.06998 0.50716 0.49518
 C2366 C 0.06113 0.50505 0.51023
 C2367 C 0.06872 0.50660 0.52617
 H2368 H 0.12069 0.52239 0.49359
 H2369 H 0.14318 0.53479 0.50898
 H2370 H 0.11878 0.52755 0.55664
 H2371 H 0.09294 0.51291 0.48443
 H2372 H 0.06421 0.50613 0.48294
 H2373 H 0.06208 0.50555 0.53784
 C2374 C 0.60183 0.03310 0.52973
 C2375 C 0.60342 0.01674 0.53054
 C2376 C 0.61629 0.00914 0.53840
 C2377 C 0.62797 0.01878 0.54580
 C2378 C 0.62662 0.03571 0.54525
 C2379 C 0.61340 0.04294 0.53689
 O2380 O 0.58818 0.03788 0.52263
 C2381 C 0.58101 0.02423 0.51891
 C2382 C 0.58988 0.01096 0.52347
 C2383 C 0.58426 -0.00453 0.52185
 C2384 C 0.56872 -0.00642 0.51562
 C2385 C 0.55917 0.00706 0.51108
 C2386 C 0.56557 0.02260 0.51241
 H2387 H 0.61717 -0.00377 0.53905
 H2388 H 0.63807 0.01307 0.55197
 H2389 H 0.61189 0.05581 0.53655
 H2390 H 0.59137 -0.01476 0.52579
 H2391 H 0.56393 -0.01837 0.51480
 H2392 H 0.55840 0.03312 0.50956
 C2393 C 0.60759 0.55710 0.01822
 C2394 C 0.60997 0.54103 0.01519
 C2395 C 0.62383 0.53288 0.01984
 C2396 C 0.63555 0.54152 0.02841
 C2397 C 0.63319 0.55794 0.03217
 C2398 C 0.61923 0.56598 0.02661
 O2399 O 0.59298 0.56214 0.01420
 C2400 C 0.58598 0.54895 0.00868
 C2401 C 0.59586 0.53571 0.00912
 C2402 C 0.59058 0.52035 0.00569
 C2403 C 0.57440 0.51854 0.00172
 C2404 C 0.56400 0.53200 0.00105
 C2405 C 0.56991 0.54747 0.00432
 H2406 H 0.62527 0.52017 0.01766
 H2407 H 0.64616 0.53533 0.03291
 H2408 H 0.61699 0.57835 0.02993
 H2409 H 0.59850 0.51007 0.00659
 H2410 H 0.56992 0.50666 -0.00069
 H2411 H 0.56207 0.55785 0.00437
 C2412 C 0.03849 0.04598 0.10659
 C2413 C 0.04412 0.03062 0.10476
 C2414 C 0.05392 0.02313 0.11654
 C2415 C 0.05826 0.03183 0.13089
 C2416 C 0.05272 0.04785 0.13343
 C2417 C 0.04241 0.05488 0.12102
 O2418 O 0.02993 0.05097 0.09331
 C2419 C 0.03020 0.03840 0.08296
 C2420 C 0.03868 0.02567 0.08954
 C2421 C 0.04100 0.01141 0.08094
 C2422 C 0.03448 0.01021 0.06472
 C2423 C 0.02589 0.02320 0.05725
 C2424 C 0.02352 0.03749 0.06667
 H2425 H 0.05822 0.01100 0.11469
 H2426 H 0.06564 0.02574 0.14014
 H2427 H 0.03812 0.06707 0.12208
 H2428 H 0.04777 0.00160 0.08645
 H2429 H 0.03634 -0.00089 0.05791
 H2430 H 0.01716 0.04765 0.06134
 C2431 C 0.03161 0.53351 0.62044
 C2432 C 0.03769 0.51817 0.61998
 C2433 C 0.04676 0.51165 0.63307
 C2434 C 0.04987 0.52141 0.64711
 C2435 C 0.04399 0.53741 0.64780
 C2436 C 0.03456 0.54343 0.63426
 O2437 O 0.02347 0.53747 0.60660
 C2438 C 0.02446 0.52435 0.59719
 C2439 C 0.03307 0.51221 0.60478
 C2440 C 0.03593 0.49758 0.59696
 C2441 C 0.02960 0.49534 0.58067
 C2442 C 0.02054 0.50764 0.57259
 C2443 C 0.01796 0.52236 0.58108
 H2444 H 0.05137 0.49953 0.63246
 H2445 H 0.05686 0.51647 0.65744
 H2446 H 0.03007 0.55560 0.63420
 H2447 H 0.04284 0.48824 0.60314
 H2448 H 0.03169 0.48399 0.57444
 H2449 H 0.01124 0.53206 0.57527
 C2450 C 0.53479 0.03562 0.61406
 C2451 C 0.54333 0.02178 0.61136
 C2452 C 0.55502 0.01629 0.62246
 C2453 C 0.55811 0.02549 0.63694
 C2454 C 0.54955 0.04004 0.64019
 C2455 C 0.53759 0.04496 0.62835
 O2456 O 0.52431 0.03883 0.60184
 C2457 C 0.52629 0.02670 0.59121
 C2458 C 0.53779 0.01593 0.59646
 C2459 C 0.54191 0.00241 0.58717
 C2460 C 0.53386 -0.00010 0.57182
 C2461 C 0.52191 0.01084 0.56604
 C2462 C 0.51811 0.02445 0.57599
 H2463 H 0.56157 0.00530 0.62008
 H2464 H 0.56707 0.02093 0.64557
 H2465 H 0.53078 0.05590 0.62974
 H2466 H 0.55104 -0.00587 0.59155
 H2467 H 0.53702 -0.01057 0.56445
 H2468 H 0.50915 0.03310 0.57200
 C2469 C 0.53164 0.55047 0.10543
 C2470 C 0.53060 0.53408 0.10623
 C2471 C 0.53583 0.52524 0.12008
 C2472 C 0.54274 0.53356 0.13356
 C2473 C 0.54446 0.55043 0.13296
 C2474 C 0.53847 0.55905 0.11881
 O2475 O 0.52666 0.55640 0.09069
 C2476 C 0.52249 0.54346 0.08201
 C2477 C 0.52476 0.52952 0.09098
 C2478 C 0.52236 0.51448 0.08400
 C2479 C 0.51751 0.51374 0.06703
 C2480 C 0.51495 0.52791 0.05749
 C2481 C 0.51728 0.54302 0.06517
 H2482 H 0.53493 0.51235 0.12036
 H2483 H 0.54700 0.52682 0.14439
 H2484 H 0.53984 0.57186 0.11787
 H2485 H 0.52453 0.50368 0.09124
 H2486 H 0.51582 0.50214 0.06126
 H2487 H 0.51579 0.55399 0.05802
 C2488 C 0.20555 0.53708 0.63519
 C2489 C 0.22143 0.54099 0.63499
 C2490 C 0.22863 0.54824 0.62125
 C2491 C 0.21903 0.55183 0.60719
 C2492 C 0.20250 0.54825 0.60709
 C2493 C 0.19574 0.54051 0.62125
 O2494 O 0.20108 0.53056 0.64974
 C2495 C 0.21444 0.53042 0.65888
 C2496 C 0.22720 0.53670 0.65041
 C2497 C 0.24222 0.53817 0.65769
 C2498 C 0.24422 0.53289 0.67440
 C2499 C 0.23131 0.52623 0.68350
 C2500 C 0.21618 0.52498 0.67551
 H2501 H 0.24116 0.55118 0.62143
 H2502 H 0.22447 0.55749 0.59639
 H2503 H 0.18316 0.53780 0.62163
 H2504 H 0.25203 0.54328 0.65077
 H2505 H 0.25588 0.53397 0.68020
 H2506 H 0.20604 0.52008 0.68208
 C2507 C 0.21148 0.04230 0.13800
 C2508 C 0.20929 0.02621 0.13548
 C2509 C 0.20188 0.02006 0.12120
 C2510 C 0.19629 0.03094 0.10905
 C2511 C 0.19805 0.04767 0.11138
 C2512 C 0.20603 0.05340 0.12599
 O2513 O 0.21817 0.04557 0.15288
 C2514 C 0.22015 0.03122 0.15988
 C2515 C 0.21486 0.01902 0.14970
 C2516 C 0.21476 0.00314 0.15481
 C2517 C 0.22017 -0.00033 0.17119
 C2518 C 0.22568 0.01198 0.18200
 C2519 C 0.22592 0.02798 0.17619
 H2520 H 0.20024 0.00733 0.11959
 H2521 H 0.19051 0.02633 0.09783
 H2522 H 0.20735 0.06608 0.12823
 H2523 H 0.21030 -0.00619 0.14663
 H2524 H 0.21992 -0.01260 0.17554
 H2525 H 0.22975 0.03761 0.18435
 C2526 C 0.70408 0.20243 0.61210
 C2527 C 0.69810 0.21773 0.61052
 C2528 C 0.68834 0.22486 0.62254
 C2529 C 0.68440 0.21579 0.63677
 C2530 C 0.69009 0.19981 0.63869
 C2531 C 0.70026 0.19312 0.62618
 O2532 O 0.71314 0.19802 0.59910
 C2533 C 0.71281 0.21083 0.58914
 C2534 C 0.70371 0.22316 0.59558
 C2535 C 0.70141 0.23759 0.58722
 C2536 C 0.70882 0.23946 0.57153
 C2537 C 0.71844 0.22702 0.56453
 C2538 C 0.72045 0.21246 0.57355
 H2539 H 0.68390 0.23698 0.62103
 H2540 H 0.67697 0.22132 0.64632
 H2541 H 0.70474 0.18098 0.62718
 H2542 H 0.69412 0.24707 0.59256
 H2543 H 0.70716 0.25070 0.56493
 H2544 H 0.72760 0.20270 0.56855
 C2545 C 0.72402 0.70506 0.11613
 C2546 C 0.73976 0.70093 0.11877
 C2547 C 0.74501 0.69240 0.13284
 C2548 C 0.73354 0.68766 0.14457
 C2549 C 0.71716 0.69146 0.14210
 C2550 C 0.71236 0.70058 0.12780
 O2551 O 0.72156 0.71245 0.10141
 C2552 C 0.73606 0.71291 0.09465
 C2553 C 0.74756 0.70599 0.10482
 C2554 C 0.76338 0.70427 0.09996
 C2555 C 0.76756 0.70982 0.08389
 C2556 C 0.75600 0.71701 0.07303
 C2557 C 0.74001 0.71876 0.07861
 H2558 H 0.75746 0.68919 0.13454
 H2559 H 0.73736 0.68080 0.15551
 H2560 H 0.69990 0.70337 0.12547
 H2561 H 0.77215 0.69857 0.10813
 H2562 H 0.77983 0.70843 0.07987
 H2563 H 0.73088 0.72394 0.07051
 C2564 C 0.55823 0.71656 0.14047
 C2565 C 0.56407 0.73185 0.14083
 C2566 C 0.57485 0.73747 0.12902
 C2567 C 0.57991 0.72687 0.11635
 C2568 C 0.57426 0.71092 0.11574
 C2569 C 0.56310 0.70579 0.12795
 O2570 O 0.54842 0.71353 0.15321
 C2571 C 0.54812 0.72720 0.16178
 C2572 C 0.55752 0.73876 0.15472
 C2573 C 0.55952 0.75375 0.16195
 C2574 C 0.55162 0.75691 0.17720
 C2575 C 0.54188 0.74519 0.18484
 C2576 C 0.53998 0.73015 0.17686
 H2577 H 0.57928 0.74956 0.12959
 H2578 H 0.58818 0.73116 0.10697
 H2579 H 0.55870 0.69369 0.12798
 H2580 H 0.56710 0.76259 0.15621
 H2581 H 0.55321 0.76846 0.18313
 H2582 H 0.53288 0.72086 0.18252
 C2583 C 0.04085 0.71971 0.62509
 C2584 C 0.02461 0.71932 0.62247
 C2585 C 0.01777 0.71324 0.60784
 C2586 C 0.02804 0.70685 0.59559
 C2587 C 0.04481 0.70659 0.59815
 C2588 C 0.05135 0.71351 0.61293
 O2589 O 0.04476 0.72520 0.64031
 C2590 C 0.03070 0.72824 0.64743
 C2591 C 0.01801 0.72476 0.63704
 C2592 C 0.00223 0.72603 0.64227
 C2593 C -0.00062 0.73119 0.65888
 C2594 C 0.01222 0.73507 0.66983
 C2595 C 0.02812 0.73362 0.66394
 H2596 H 0.00496 0.71294 0.60615
 H2597 H 0.02295 0.70157 0.58433
 H2598 H 0.06406 0.71309 0.61534
 H2599 H -0.00752 0.72296 0.63392
 H2600 H -0.01284 0.73229 0.66316
 H2601 H 0.03818 0.73624 0.67208
 C2602 C 0.54057 0.64702 0.20823
 C2603 C 0.53932 0.64530 0.22548
 C2604 C 0.54377 0.63140 0.23397
 C2605 C 0.54992 0.61874 0.22431
 C2606 C 0.55149 0.62013 0.20650
 C2607 C 0.54650 0.63443 0.19830
 O2608 O 0.53650 0.66162 0.20291
 C2609 C 0.53265 0.66924 0.21713
 C2610 C 0.53417 0.65971 0.23125
 C2611 C 0.53168 0.66532 0.24757
 C2612 C 0.52768 0.68150 0.24949
 C2613 C 0.52619 0.69175 0.23523
 C2614 C 0.52843 0.68544 0.21874
 H2615 H 0.54281 0.63043 0.24758
 H2616 H 0.55353 0.60783 0.23070
 H2617 H 0.54781 0.63587 0.18477
 H2618 H 0.53315 0.65760 0.25847
 H2619 H 0.52597 0.68613 0.26217
 H2620 H 0.52769 0.69304 0.20767
 C2621 C 0.02398 0.64362 0.71883
 C2622 C 0.00809 0.64375 0.71451
 C2623 C 0.00069 0.63075 0.70701
 C2624 C 0.01009 0.61709 0.70374
 C2625 C 0.02664 0.61669 0.70780
 C2626 C 0.03356 0.63023 0.71560
 O2627 O 0.02883 0.65737 0.72533
 C2628 C 0.01572 0.66640 0.72506
 C2629 C 0.00269 0.65867 0.71849
 C2630 C -0.01201 0.66623 0.71612
 C2631 C -0.01327 0.68248 0.72048
 C2632 C 0.00002 0.69072 0.72724
 C2633 C 0.01465 0.68244 0.72979
 H2634 H -0.01184 0.63113 0.70368
 H2635 H 0.00441 0.60687 0.69804
 H2636 H 0.04614 0.63060 0.71861
 H2637 H -0.02204 0.65997 0.71071
 H2638 H -0.02451 0.68870 0.71839
 H2639 H 0.02510 0.68851 0.73452
 C2640 C 0.04368 0.11755 0.03178
 C2641 C 0.04471 0.11933 0.01452
 C2642 C 0.05301 0.13168 0.00693
 C2643 C 0.06059 0.14267 0.01758
 C2644 C 0.05973 0.14116 0.03544
 C2645 C 0.05101 0.12845 0.04261
 O2646 O 0.03598 0.10445 0.03634
 C2647 C 0.03208 0.09782 0.02163
 C2648 C 0.03712 0.10652 0.00792
 C2649 C 0.03513 0.10143 -0.00867
 C2650 C 0.02798 0.08659 -0.01126
 C2651 C 0.02296 0.07715 0.00264
 C2652 C 0.02473 0.08305 0.01934
 H2653 H 0.05379 0.13271 -0.00669
 H2654 H 0.06705 0.15241 0.01191
 H2655 H 0.05037 0.12686 0.05618
 H2656 H 0.03936 0.10842 -0.01923
 H2657 H 0.02672 0.08224 -0.02410
 H2658 H 0.02138 0.07596 0.03020
 C2659 C 0.04148 0.60494 0.52505
 C2660 C 0.02522 0.60735 0.52547
 C2661 C 0.01817 0.62177 0.53013
 C2662 C 0.02826 0.63417 0.53493
 C2663 C 0.04507 0.63197 0.53511
 C2664 C 0.05181 0.61724 0.52970
 O2665 O 0.04557 0.58994 0.52127
 C2666 C 0.03158 0.58277 0.51939
 C2667 C 0.01881 0.59297 0.52190
 C2668 C 0.00310 0.58791 0.52192
 C2669 C 0.00040 0.57161 0.51937
 C2670 C 0.01328 0.56081 0.51666
 C2671 C 0.02912 0.56648 0.51641
 H2672 H 0.00534 0.62328 0.53054
 H2673 H 0.02300 0.64542 0.53895
 H2674 H 0.06457 0.61518 0.53008
 H2675 H -0.00670 0.59614 0.52425
 H2676 H -0.01175 0.56736 0.51958
 H2677 H 0.03916 0.55837 0.51471
 C2678 C 0.53101 0.10825 0.53901
 C2679 C 0.53109 0.10887 0.52161
 C2680 C 0.53626 0.12203 0.51258
 C2681 C 0.54205 0.13497 0.52184
 C2682 C 0.54270 0.13453 0.53979
 C2683 C 0.53670 0.12112 0.54855
 O2684 O 0.52616 0.09423 0.54493
 C2685 C 0.52325 0.08587 0.53094
 C2686 C 0.52620 0.09432 0.51638
 C2687 C 0.52493 0.08776 0.50032
 C2688 C 0.52029 0.07179 0.49912
 C2689 C 0.51686 0.06278 0.51386
 C2690 C 0.51829 0.06996 0.53004
 H2691 H 0.53624 0.12216 0.49889
 H2692 H 0.54650 0.14521 0.51504
 H2693 H 0.53736 0.12039 0.56221
 H2694 H 0.52755 0.09464 0.48909
 H2695 H 0.51914 0.06653 0.48666
 H2696 H 0.51592 0.06332 0.54149
 C2697 C 0.53874 0.62199 0.03806
 C2698 C 0.53670 0.62595 0.02128
 C2699 C 0.54383 0.63913 0.01389
 C2700 C 0.55363 0.64853 0.02416
 C2701 C 0.55605 0.64471 0.04146
 C2702 C 0.54825 0.63141 0.04861
 O2703 O 0.53212 0.60814 0.04209
 C2704 C 0.52581 0.60325 0.02753
 C2705 C 0.52826 0.61379 0.01445
 C2706 C 0.52398 0.61053 -0.00219
 C2707 C 0.51722 0.59564 -0.00559
 C2708 C 0.51479 0.58440 0.00756
 C2709 C 0.51880 0.58841 0.02445
 H2710 H 0.54231 0.64178 0.00057
 H2711 H 0.55962 0.65865 0.01863
 H2712 H 0.55029 0.62804 0.06167
 H2713 H 0.52635 0.61889 -0.01230
 H2714 H 0.51434 0.59262 -0.01857
 H2715 H 0.51757 0.57982 0.03461
 C2716 C 0.70429 0.13385 0.53907
 C2717 C 0.69996 0.13494 0.52234
 C2718 C 0.68973 0.12432 0.51458
 C2719 C 0.68357 0.11200 0.52444
 C2720 C 0.68772 0.11028 0.54190
 C2721 C 0.69850 0.12145 0.54918
 O2722 O 0.71368 0.14574 0.54399
 C2723 C 0.71529 0.15442 0.52998
 C2724 C 0.70715 0.14818 0.51642
 C2725 C 0.70676 0.15530 0.50060
 C2726 C 0.71493 0.16963 0.49863
 C2727 C 0.72324 0.17670 0.51241
 C2728 C 0.72358 0.16880 0.52833
 H2729 H 0.68651 0.12551 0.50135
 H2730 H 0.67591 0.10360 0.51809
 H2731 H 0.70184 0.12096 0.56240
 H2732 H 0.70021 0.15012 0.49016
 H2733 H 0.71453 0.17531 0.48632
 H2734 H 0.72965 0.17390 0.53914
 C2735 C 0.72256 0.63374 0.03411
 C2736 C 0.73810 0.63001 0.03827
 C2737 C 0.74237 0.61647 0.04750
 C2738 C 0.73011 0.60640 0.05277
 C2739 C 0.71393 0.61001 0.04882
 C2740 C 0.71017 0.62383 0.03915
 O2741 O 0.72101 0.64764 0.02609
 C2742 C 0.73591 0.65279 0.02521
 C2743 C 0.74680 0.64242 0.03247
 C2744 C 0.76291 0.64585 0.03395
 C2745 C 0.76798 0.66070 0.02796
 C2746 C 0.75699 0.67174 0.02059
 C2747 C 0.74074 0.66757 0.01891
 H2748 H 0.75469 0.61388 0.05075
 H2749 H 0.73322 0.59579 0.05996
 H2750 H 0.69794 0.62708 0.03622
 H2751 H 0.77120 0.63758 0.03993
 H2752 H 0.78043 0.66375 0.02937
 H2753 H 0.73202 0.67590 0.01374
 C2754 C 0.22635 0.61374 0.71164
 C2755 C 0.22845 0.61648 0.72869
 C2756 C 0.22259 0.63011 0.73673
 C2757 C 0.21397 0.64119 0.72690
 C2758 C 0.21139 0.63852 0.70938
 C2759 C 0.21803 0.62478 0.70157
 O2760 O 0.23116 0.59924 0.70690
 C2761 C 0.23630 0.59266 0.72125
 C2762 C 0.23493 0.60274 0.73495
 C2763 C 0.23776 0.59772 0.75149
 C2764 C 0.24174 0.58156 0.75406
 C2765 C 0.24295 0.57088 0.74019
 C2766 C 0.24066 0.57663 0.72350
 H2767 H 0.22401 0.63181 0.75023
 H2768 H 0.20882 0.65163 0.73298
 H2769 H 0.21570 0.62220 0.68837
 H2770 H 0.23616 0.60575 0.76211
 H2771 H 0.24324 0.57721 0.76689
 H2772 H 0.24082 0.56857 0.71277
 C2773 C 0.22857 0.10599 0.21472
 C2774 C 0.23121 0.10731 0.23188
 C2775 C 0.22758 0.12107 0.24099
 C2776 C 0.22055 0.13387 0.23216
 C2777 C 0.21733 0.13270 0.21458
 C2778 C 0.22180 0.11873 0.20563
 O2779 O 0.23135 0.09133 0.20887
 C2780 C 0.23571 0.08323 0.22263
 C2781 C 0.23578 0.09248 0.23703
 C2782 C 0.23827 0.08615 0.25311
 C2783 C 0.24059 0.06958 0.25445
 C2784 C 0.24055 0.05977 0.23982
 C2785 C 0.23839 0.06674 0.22364
 H2786 H 0.22942 0.12168 0.25454
 H2787 H 0.21698 0.14448 0.23907
 H2788 H 0.21890 0.11740 0.19234
 H2789 H 0.23784 0.09363 0.26429
 H2790 H 0.24213 0.06433 0.26689
 H2791 H 0.23778 0.05942 0.21235
 C2792 C 0.72330 1.10940 0.71755
 C2793 C 0.72611 1.11217 0.73448
 C2794 C 0.72140 1.12620 0.74256
 C2795 C 0.71317 1.13770 0.73292
 C2796 C 0.70985 1.13503 0.71555
 C2797 C 0.71536 1.12086 0.70764
 O2798 O 0.72708 1.09460 0.71283
 C2799 C 0.73229 1.08787 0.72708
 C2800 C 0.73195 1.09815 0.74068
 C2801 C 0.73508 1.09318 0.75717
 C2802 C 0.73836 1.07690 0.75982
 C2803 C 0.73858 1.06602 0.74605
 C2804 C 0.73591 1.07167 0.72939
 H2805 H 0.72337 1.12793 0.75598
 H2806 H 0.70885 1.14849 0.73904
 H2807 H 0.71244 1.11835 0.69455
 H2808 H 0.73428 1.10140 0.76772
 H2809 H 0.74020 1.07264 0.77263
 H2810 H 0.73537 1.06349 0.71877
 C2811 C 0.70854 0.59531 0.21269
 C2812 C 0.70678 0.59587 0.22997
 C2813 C 0.70069 0.60911 0.23844
 C2814 C 0.69606 0.62233 0.22867
 C2815 C 0.69747 0.62208 0.21076
 C2816 C 0.70405 0.60841 0.20268
 O2817 O 0.71413 0.58130 0.20723
 C2818 C 0.71586 0.57287 0.22141
 C2819 C 0.71149 0.58129 0.23563
 C2820 C 0.71169 0.57471 0.25175
 C2821 C 0.71650 0.55871 0.25332
 C2822 C 0.72107 0.54965 0.23889
 C2823 C 0.72090 0.55692 0.22269
 H2824 H 0.69942 0.60921 0.25206
 H2825 H 0.69137 0.63279 0.23510
 H2826 H 0.70513 0.60783 0.18906
 H2827 H 0.70805 0.58159 0.26271
 H2828 H 0.71663 0.55337 0.26580
 H2829 H 0.72409 0.55025 0.21143
 C2830 C 0.52392 0.14150 0.71519
 C2831 C 0.51016 0.14380 0.70599
 C2832 C 0.50505 0.13305 0.69385
 C2833 C 0.51452 0.11939 0.69096
 C2834 C 0.52908 0.11663 0.70006
 C2835 C 0.53358 0.12803 0.71256
 O2836 O 0.52692 0.15343 0.72578
 C2837 C 0.51478 0.16347 0.72315
 C2838 C 0.50419 0.15816 0.71114
 C2839 C 0.49103 0.16716 0.70586
 C2840 C 0.48881 0.18235 0.71312
 C2841 C 0.49962 0.18816 0.72550
 C2842 C 0.51270 0.17841 0.73069
 H2843 H 0.49416 0.13513 0.68673
 H2844 H 0.51021 0.11112 0.68158
 H2845 H 0.54445 0.12694 0.71984
 H2846 H 0.48296 0.16280 0.69624
 H2847 H 0.47881 0.18966 0.70892
 H2848 H 0.52138 0.18259 0.73980
 C2849 C 1.02268 0.14022 0.20997
 C2850 C 1.01932 0.13744 0.22675
 C2851 C 1.02313 0.12315 0.23485
 C2852 C 1.03106 0.11137 0.22539
 C2853 C 1.03501 0.11405 0.20821
 C2854 C 1.03037 0.12851 0.20024
 O2855 O 1.01958 0.15518 0.20526
 C2856 C 1.01427 0.16200 0.21938
 C2857 C 1.01389 0.15162 0.23288
 C2858 C 1.01048 0.15656 0.24929
 C2859 C 1.00760 0.17290 0.25196
 C2860 C 1.00804 0.18386 0.23829
 C2861 C 1.01105 0.17827 0.22169
 H2862 H 1.02070 0.12139 0.24816
 H2863 H 1.03466 0.10034 0.23156
 H2864 H 1.03374 0.13099 0.18730
 H2865 H 1.01070 0.14823 0.25977
 H2866 H 1.00545 0.17710 0.26472
 H2867 H 1.01202 0.18650 0.21116
 C2868 C 0.20347 0.63508 0.52555
 C2869 C 0.20035 0.63556 0.50846
 C2870 C 0.19217 0.62357 0.50006
 C2871 C 0.18700 0.61054 0.50967
 C2872 C 0.18995 0.60976 0.52740
 C2873 C 0.19835 0.62231 0.53537
 O2874 O 0.21143 0.64769 0.53106
 C2875 C 0.21337 0.65630 0.51714
 C2876 C 0.20678 0.64942 0.50298
 C2877 C 0.20726 0.65650 0.48708
 C2878 C 0.21482 0.67131 0.48574
 C2879 C 0.22178 0.67866 0.50016
 C2880 C 0.22106 0.67095 0.51608
 H2881 H 0.18991 0.62419 0.48658
 H2882 H 0.18089 0.60100 0.50320
 H2883 H 0.20066 0.62230 0.54884
 H2884 H 0.20195 0.65087 0.47613
 H2885 H 0.21529 0.67699 0.47344
 H2886 H 0.22611 0.67627 0.52736
 C2887 C 0.22255 0.14826 1.04700
 C2888 C 0.22506 0.14706 1.02985
 C2889 C 0.21965 0.13435 1.02018
 C2890 C 0.21110 0.12243 1.02847
 C2891 C 0.20813 0.12339 1.04609
 C2892 C 0.21421 0.13635 1.05558
 O2893 O 0.22775 0.16195 1.05347
 C2894 C 0.23360 0.16951 1.04009
 C2895 C 0.23223 0.16084 1.02537
 C2896 C 0.23649 0.16675 1.00965
 C2897 C 0.24221 0.18237 1.00896
 C2898 C 0.24365 0.19173 1.02386
 C2899 C 0.23956 0.18510 1.03974
 H2900 H 0.22159 0.13382 1.00666
 H2901 H 0.20655 0.11253 1.02114
 H2902 H 0.21180 0.13749 1.06897
 H2903 H 0.23505 0.15974 0.99824
 H2904 H 0.24531 0.18730 0.99675
 H2905 H 0.24020 0.19211 1.05124
 C2906 C 0.20235 0.70126 0.60234
 C2907 C 0.19543 0.71612 0.60032
 C2908 C 0.18518 0.72291 0.61209
 C2909 C 0.18173 0.71394 0.62651
 C2910 C 0.18835 0.69836 0.62888
 C2911 C 0.19900 0.69202 0.61663
 O2912 O 0.21191 0.69723 0.58961
 C2913 C 0.21093 0.70984 0.57939
 C2914 C 0.20094 0.72166 0.58540
 C2915 C 0.19802 0.73587 0.57683
 C2916 C 0.20585 0.73813 0.56144
 C2917 C 0.21646 0.72627 0.55494
 C2918 C 0.21895 0.71185 0.56408
 H2919 H 0.18006 0.73473 0.61026
 H2920 H 0.17397 0.71927 0.63589
 H2921 H 0.20425 0.68021 0.61802
 H2922 H 0.19004 0.74495 0.58185
 H2923 H 0.20376 0.74926 0.55474
 H2924 H 0.22691 0.70254 0.55950
 C2925 C 0.21918 0.21287 1.12287
 C2926 C 0.21222 0.22777 1.12174
 C2927 C 0.20087 0.23331 1.13302
 C2928 C 0.19630 0.22304 1.14602
 C2929 C 0.20303 0.20734 1.14765
 C2930 C 0.21493 0.20240 1.13587
 O2931 O 0.22937 0.20988 1.11036
 C2932 C 0.22875 0.22323 1.10121
 C2933 C 0.21843 0.23450 1.10772
 C2934 C 0.21547 0.24916 1.10008
 C2935 C 0.22341 0.25238 1.08497
 C2936 C 0.23411 0.24098 1.07775
 C2937 C 0.23691 0.22620 1.08613
 H2938 H 0.19563 0.24515 1.13182
 H2939 H 0.18769 0.22770 1.15492
 H2940 H 0.22029 0.19058 1.13625
 H2941 H 0.20719 0.25777 1.10547
 H2942 H 0.22112 0.26377 1.07888
 H2943 H 0.24484 0.21718 1.08090
 C2944 C 0.69773 0.53432 0.14221
 C2945 C 0.69066 0.51959 0.14161
 C2946 C 0.68050 0.51503 0.12863
 C2947 C 0.67741 0.52615 0.11574
 C2948 C 0.68432 0.54160 0.11609
 C2949 C 0.69475 0.54564 0.12955
 O2950 O 0.70702 0.53619 0.15571
 C2951 C 0.70573 0.52232 0.16377
 C2952 C 0.69582 0.51179 0.15567
 C2953 C 0.69254 0.49669 0.16197
 C2954 C 0.69979 0.49222 0.17730
 C2955 C 0.71019 0.50279 0.18591
 C2956 C 0.71319 0.51808 0.17896
 H2957 H 0.67518 0.50331 0.12839
 H2958 H 0.66975 0.52256 0.10542
 H2959 H 0.70017 0.55730 0.13030
 H2960 H 0.68464 0.48865 0.15536
 H2961 H 0.69737 0.48048 0.18238
 H2962 H 0.72094 0.52649 0.18526
 C2963 C 0.70947 1.04060 0.64377
 C2964 C 0.71177 1.02442 0.64160
 C2965 C 0.70732 1.01639 0.62698
 C2966 C 0.69988 1.02533 0.61415
 C2967 C 0.69701 1.04197 0.61611
 C2968 C 0.70222 1.04981 0.63100
 O2969 O 0.71354 1.04558 0.65917
 C2970 C 0.71840 1.03223 0.66687
 C2971 C 0.71751 1.01897 0.65662
 C2972 C 0.72066 1.00355 0.66237
 C2973 C 0.72475 1.00166 0.67946
 C2974 C 0.72580 1.01508 0.69032
 C2975 C 0.72283 1.03064 0.68392
 H2976 H 0.70907 1.00361 0.62569
 H2977 H 0.69600 1.01925 0.60279
 H2978 H 0.69982 1.06242 0.63294
 H2979 H 0.71951 0.99328 0.65413
 H2980 H 0.72687 0.98972 0.68435
 H2981 H 0.72313 1.04100 0.69213
 C2982 C 0.53193 0.21411 0.63394
 C2983 C 0.53490 0.23022 0.63321
 C2984 C 0.54298 0.23726 0.61991
 C2985 C 0.54847 0.22726 0.60693
 C2986 C 0.54604 0.21047 0.60751
 C2987 C 0.53734 0.20387 0.62112
 O2988 O 0.52457 0.20983 0.64808
 C2989 C 0.52297 0.22355 0.65645
 C2990 C 0.52919 0.23635 0.64789
 C2991 C 0.52985 0.25164 0.65472
 C2992 C 0.52395 0.25383 0.67114
 C2993 C 0.51736 0.24089 0.68021
 C2994 C 0.51666 0.22555 0.67268
 H2995 H 0.54518 0.24998 0.61966
 H2996 H 0.55477 0.23261 0.59648
 H2997 H 0.53546 0.19113 0.62209
 H2998 H 0.53506 0.26145 0.64783
 H2999 H 0.52457 0.26558 0.67684
 H3000 H 0.51201 0.21542 0.67953
 C3001 C 1.05077 0.21860 0.13909
 C3002 C 1.03465 0.21615 0.13782
 C3003 C 1.02766 0.20799 0.12453
 C3004 C 1.03770 0.20180 0.11205
 C3005 C 1.05452 0.20399 0.11277
 C3006 C 1.06106 0.21298 0.12639
 O3007 O 1.05490 0.22555 0.15362
 C3008 C 1.04103 0.22750 0.16157
 C3009 C 1.02833 0.22202 0.15227
 C3010 C 1.01281 0.22205 0.15819
 C3011 C 1.01019 0.22775 0.17455
 C3012 C 1.02301 0.23316 0.18481
 C3013 C 1.03869 0.23330 0.17807
 H3014 H 1.01492 0.20612 0.12398
 H3015 H 1.03217 0.19556 0.10162
 H3016 H 1.07379 0.21462 0.12768
 H3017 H 1.00308 0.21754 0.15060
 H3018 H 0.99810 0.22766 0.17930
 H3019 H 1.04875 0.23714 0.18562
 C3020 C 0.60292 0.20412 0.71872
 C3021 C 0.60110 0.19969 0.73532
 C3022 C 0.61219 0.19021 0.74387
 C3023 C 0.62574 0.18508 0.73495
 C3024 C 0.62793 0.18927 0.71765
 C3025 C 0.61618 0.19899 0.70952
 O3026 O 0.59099 0.21323 0.71297
 C3027 C 0.58142 0.21453 0.72626
 C3028 C 0.58704 0.20638 0.74023
 C3029 C 0.57874 0.20574 0.75538
 C3030 C 0.56399 0.21377 0.75616
 C3031 C 0.55795 0.22239 0.74199
 C3032 C 0.56689 0.22285 0.72684
 H3033 H 0.61053 0.18695 0.75700
 H3034 H 0.63450 0.17797 0.74172
 H3035 H 0.61712 0.20239 0.69638
 H3036 H 0.58337 0.19916 0.76616
 H3037 H 0.55730 0.21334 0.76785
 H3038 H 0.56250 0.22915 0.71576
 C3039 C 1.11317 0.20477 0.22306
 C3040 C 1.11124 0.19964 0.23943
 C3041 C 1.12235 0.18995 0.24769
 C3042 C 1.13605 0.18534 0.23870
 C3043 C 1.13833 0.19032 0.22168
 C3044 C 1.12660 0.20022 0.21383
 O3045 O 1.10117 0.21388 0.21752
 C3046 C 1.09143 0.21449 0.23070
 C3047 C 1.09702 0.20593 0.24440
 C3048 C 1.08857 0.20461 0.25940
 C3049 C 1.07368 0.21237 0.26028
 C3050 C 1.06763 0.22134 0.24635
 C3051 C 1.07675 0.22250 0.23138
 H3052 H 1.12059 0.18612 0.26062
 H3053 H 1.14490 0.17804 0.24514
 H3054 H 1.12770 0.20412 0.20085
 H3055 H 1.09318 0.19773 0.26997
 H3056 H 1.06689 0.21140 0.27186
 H3057 H 1.07239 0.22909 0.22047
 C3058 C 0.13887 0.71442 0.52107
 C3059 C 0.13867 0.71145 0.50394
 C3060 C 0.12661 0.70292 0.49607
 C3061 C 0.11432 0.69709 0.50627
 C3062 C 0.11428 0.69978 0.52403
 C3063 C 0.12668 0.70881 0.53145
 O3064 O 0.15190 0.72196 0.52614
 C3065 C 0.16011 0.72374 0.51192
 C3066 C 0.15253 0.71751 0.49798
 C3067 C 0.15944 0.71714 0.48201
 C3068 C 0.17492 0.72317 0.48039
 C3069 C 0.18311 0.72950 0.49460
 C3070 C 0.17541 0.73004 0.51054
 H3071 H 0.12678 0.70060 0.48260
 H3072 H 0.10486 0.69039 0.50035
 H3073 H 0.12716 0.71080 0.54498
 H3074 H 0.15333 0.71196 0.47127
 H3075 H 0.18066 0.72256 0.46815
 H3076 H 0.18149 0.73436 0.52173
 C3077 C 0.15203 0.22364 1.04280
 C3078 C 0.15138 0.22377 1.02539
 C3079 C 0.13876 0.21746 1.01626
 C3080 C 0.12643 0.21042 1.02541
 C3081 C 0.12693 0.20964 1.04336
 C3082 C 0.13978 0.21671 1.05221
 O3083 O 0.16557 0.22949 1.04888
 C3084 C 0.17362 0.23328 1.03501
 C3085 C 0.16545 0.22994 1.02032
 C3086 C 0.17205 0.23176 1.00434
 C3087 C 0.18779 0.23714 1.00342
 C3088 C 0.19649 0.24075 1.01833
 C3089 C 0.18921 0.23901 1.03436
 H3090 H 0.13858 0.21761 1.00257
 H3091 H 0.11658 0.20528 1.01847
 H3092 H 0.14062 0.21604 1.06586
 H3093 H 0.16546 0.22875 0.99299
 H3094 H 0.19327 0.23836 0.99110
 H3095 H 0.19574 0.24130 1.04595
 C3096 C 0.63340 0.53470 0.22430
 C3097 C 0.62926 0.51884 0.22491
 C3098 C 0.61514 0.51314 0.21805
 C3099 C 0.60493 0.52419 0.21006
 C3100 C 0.60894 0.54060 0.20905
 C3101 C 0.62327 0.54597 0.21658
 O3102 O 0.64797 0.53734 0.23033
 C3103 C 0.65313 0.52283 0.23477
 C3104 C 0.64209 0.51112 0.23172
 C3105 C 0.64540 0.49494 0.23399
 C3106 C 0.66083 0.49059 0.23925
 C3107 C 0.67254 0.50237 0.24225
 C3108 C 0.66851 0.51877 0.24035
 H3109 H 0.61229 0.50056 0.21844
 H3110 H 0.59398 0.51997 0.20442
 H3111 H 0.62677 0.55835 0.21564
 H3112 H 0.63661 0.48594 0.23117
 H3113 H 0.66384 0.47801 0.24049
 H3114 H 0.67738 0.52795 0.24198
 C3115 C 0.63411 1.04669 0.72303
 C3116 C 0.63578 1.05306 0.73895
 C3117 C 0.62438 1.06316 0.74611
 C3118 C 0.61067 1.06679 0.73649
 C3119 C 0.60861 1.06041 0.71994
 C3120 C 0.62070 1.05027 0.71319
 O3121 O 0.64617 1.03718 0.71861
 C3122 C 0.65569 1.03753 0.73206
 C3123 C 0.64993 1.04712 0.74484
 C3124 C 0.65808 1.04926 0.76001
 C3125 C 0.67275 1.04120 0.76208
 C3126 C 0.67892 1.03110 0.74913
 C3127 C 0.67016 1.02928 0.73390
 H3128 H 0.62590 1.06796 0.75873
 H3129 H 0.60160 1.07436 0.74212
 H3130 H 0.61985 1.04529 0.70060
 H3131 H 0.65333 1.05688 0.76990
 H3132 H 0.67922 1.04274 0.77385
 H3133 H 0.67453 1.02178 0.72371
 C3134 C 0.85281 0.45208 0.27965
 C3135 C 0.85213 0.44762 0.26294
 C3136 C 0.86466 0.43973 0.25489
 C3137 C 0.87845 0.43630 0.26445
 C3138 C 0.87948 0.44063 0.28183
 C3139 C 0.86632 0.44866 0.28943
 O3140 O 0.83959 0.45934 0.28498
 C3141 C 0.83031 0.45945 0.27132
 C3142 C 0.83739 0.45237 0.25750
 C3143 C 0.82958 0.45071 0.24205
 C3144 C 0.81381 0.45644 0.24085
 C3145 C 0.80622 0.46384 0.25492
 C3146 C 0.81473 0.46548 0.27033
 H3147 H 0.86386 0.43636 0.24169
 H3148 H 0.88833 0.43040 0.25819
 H3149 H 0.86636 0.45197 0.30265
 H3150 H 0.83534 0.44498 0.23138
 H3151 H 0.80748 0.45508 0.22897
 H3152 H 0.80922 0.47081 0.28138
 C3153 C 0.84882 0.95326 0.79238
 C3154 C 0.84155 0.94015 0.78543
 C3155 C 0.84918 0.92540 0.78385
 C3156 C 0.86506 0.92416 0.78939
 C3157 C 0.87309 0.93758 0.79623
 C3158 C 0.86467 0.95231 0.79795
 O3159 O 0.83951 0.96624 0.79239
 C3160 C 0.82610 0.96119 0.78523
 C3161 C 0.82678 0.94533 0.78069
 C3162 C 0.81433 0.93771 0.77246
 C3163 C 0.80058 0.94679 0.76875
 C3164 C 0.79941 0.96316 0.77346
 C3165 C 0.81241 0.97041 0.78190
 H3166 H 0.84318 0.91524 0.77838
 H3167 H 0.87113 0.91273 0.78822
 H3168 H 0.87041 0.96286 0.80287
 H3169 H 0.81520 0.92524 0.76889
 H3170 H 0.79080 0.94100 0.76234
 H3171 H 0.81199 0.98289 0.78553
 C3172 C 0.38829 0.30024 0.78131
 C3173 C 0.39335 0.31120 0.76963
 C3174 C 0.38474 0.32504 0.76579
 C3175 C 0.37038 0.32777 0.77447
 C3176 C 0.36485 0.31669 0.78671
 C3177 C 0.37402 0.30263 0.78998
 O3178 O 0.39837 0.28801 0.78332
 C3179 C 0.41008 0.29137 0.77269
 C3180 C 0.40758 0.30543 0.76402
 C3181 C 0.41849 0.31142 0.75254
 C3182 C 0.43259 0.30259 0.74993
 C3183 C 0.43554 0.28800 0.75874
 C3184 C 0.42399 0.28233 0.77025
 H3185 H 0.38901 0.33352 0.75657
 H3186 H 0.36381 0.33868 0.77183
 H3187 H 0.37023 0.29375 0.79901
 H3188 H 0.41630 0.32258 0.74595
 H3189 H 0.44124 0.30724 0.74114
 H3190 H 0.42584 0.27135 0.77729
 C3191 C 0.89515 0.29227 0.28394
 C3192 C 0.90041 0.30446 0.27380
 C3193 C 0.89116 0.31792 0.27011
 C3194 C 0.87585 0.31882 0.27716
 C3195 C 0.87011 0.30634 0.28763
 C3196 C 0.88001 0.29290 0.29103
 O3197 O 0.90574 0.28052 0.28584
 C3198 C 0.91797 0.28539 0.27669
 C3199 C 0.91532 0.29995 0.26904
 C3200 C 0.92653 0.30718 0.25875
 C3201 C 0.94105 0.29904 0.25623
 C3202 C 0.94408 0.28398 0.26403
 C3203 C 0.93230 0.27713 0.27444
 H3204 H 0.89558 0.32739 0.26213
 H3205 H 0.86859 0.32932 0.27462
 H3206 H 0.87599 0.28306 0.29874
 H3207 H 0.92417 0.31865 0.25284
 H3208 H 0.94991 0.30453 0.24826
 H3209 H 0.93416 0.26567 0.28056
 C3210 C 0.36428 0.76725 0.46896
 C3211 C 0.36481 0.76801 0.48636
 C3212 C 0.37665 0.77609 0.49511
 C3213 C 0.38825 0.78390 0.48557
 C3214 C 0.38782 0.78360 0.46760
 C3215 C 0.37582 0.77482 0.45921
 O3216 O 0.35127 0.76018 0.46313
 C3217 C 0.34341 0.75649 0.47712
 C3218 C 0.35118 0.76102 0.49168
 C3219 C 0.34436 0.75977 0.50765
 C3220 C 0.32875 0.75396 0.50861
 C3221 C 0.32041 0.74942 0.49375
 C3222 C 0.32803 0.75034 0.47783
 H3223 H 0.37668 0.77676 0.50879
 H3224 H 0.39743 0.79048 0.49215
 H3225 H 0.37495 0.77474 0.44554
 H3226 H 0.35057 0.76378 0.51889
 H3227 H 0.32297 0.75350 0.52082
 H3228 H 0.32173 0.74755 0.46622
 C3229 C 0.36786 0.30603 0.98659
 C3230 C 0.37295 0.29044 0.98876
 C3231 C 0.38712 0.28457 0.98200
 C3232 C 0.39619 0.29504 0.97222
 C3233 C 0.39099 0.31102 0.96932
 C3234 C 0.37685 0.31673 0.97703
 O3235 O 0.35327 0.30869 0.99255
 C3236 C 0.34905 0.29449 0.99847
 C3237 C 0.36066 0.28290 0.99641
 C3238 C 0.35805 0.26679 0.99974
 C3239 C 0.34278 0.26241 1.00511
 C3240 C 0.33061 0.27412 1.00728
 C3241 C 0.33392 0.29043 1.00430
 H3242 H 0.39070 0.27219 0.98354
 H3243 H 0.40694 0.29056 0.96623
 H3244 H 0.37236 0.32868 0.97448
 H3245 H 0.36721 0.25783 0.99748
 H3246 H 0.34025 0.24988 1.00705
 H3247 H 0.32463 0.29949 1.00514
 C3248 C 0.78175 0.44501 0.36402
 C3249 C 0.78087 0.46141 0.36500
 C3250 C 0.78649 0.47000 0.37876
 C3251 C 0.79359 0.46137 0.39201
 C3252 C 0.79512 0.44446 0.39125
 C3253 C 0.78879 0.43613 0.37715
 O3254 O 0.77626 0.43935 0.34940
 C3255 C 0.77192 0.45250 0.34099
 C3256 C 0.77460 0.46627 0.35003
 C3257 C 0.77198 0.48146 0.34343
 C3258 C 0.76645 0.48254 0.32674
 C3259 C 0.76347 0.46858 0.31710
 C3260 C 0.76604 0.45329 0.32439
 H3261 H 0.78567 0.48292 0.37917
 H3262 H 0.79807 0.46791 0.40280
 H3263 H 0.78997 0.42327 0.37611
 H3264 H 0.77442 0.49210 0.35074
 H3265 H 0.76449 0.49429 0.32129
 H3266 H 0.76410 0.44248 0.31717
 C3267 C 0.78743 0.95254 0.86749
 C3268 C 0.77193 0.94749 0.86854
 C3269 C 0.76675 0.93713 0.88108
 C3270 C 0.77800 0.93185 0.89311
 C3271 C 0.79406 0.93698 0.89242
 C3272 C 0.79878 0.94747 0.87932
 O3273 O 0.78995 0.96218 0.85444
 C3274 C 0.77571 0.96326 0.84711
 C3275 C 0.76428 0.95451 0.85528
 C3276 C 0.74861 0.95374 0.84965
 C3277 C 0.74457 0.96216 0.83488
 C3278 C 0.75617 0.97115 0.82601
 C3279 C 0.77196 0.97179 0.83239
 H3280 H 0.75448 0.93330 0.88162
 H3281 H 0.77411 0.92401 0.90313
 H3282 H 0.81097 0.95145 0.87827
 H3283 H 0.73983 0.94674 0.85627
 H3284 H 0.73243 0.96145 0.83025
 H3285 H 0.78116 0.97833 0.82589
 C3286 C 0.30015 0.78137 0.38457
 C3287 C 0.30707 0.76646 0.38613
 C3288 C 0.31750 0.76014 0.37419
 C3289 C 0.32092 0.76958 0.36001
 C3290 C 0.31400 0.78506 0.35807
 C3291 C 0.30345 0.79098 0.37063
 O3292 O 0.29048 0.78507 0.39728
 C3293 C 0.29131 0.77219 0.40708
 C3294 C 0.30133 0.76049 0.40083
 C3295 C 0.30397 0.74601 0.40902
 C3296 C 0.29594 0.74346 0.42428
 C3297 C 0.28544 0.75530 0.43104
 C3298 C 0.28315 0.76991 0.42224
 H3299 H 0.32273 0.74833 0.37567
 H3300 H 0.32878 0.76470 0.35046
 H3301 H 0.29809 0.80277 0.36972
 H3302 H 0.31192 0.73698 0.40383
 H3303 H 0.29786 0.73218 0.43073
 H3304 H 0.27531 0.77923 0.42702
 C3305 C 0.29803 0.29647 0.89769
 C3306 C 0.30567 0.28190 0.89916
 C3307 C 0.31498 0.27534 0.88640
 C3308 C 0.31665 0.28423 0.87151
 C3309 C 0.30918 0.29948 0.86963
 C3310 C 0.29958 0.30559 0.88295
 O3311 O 0.28974 0.30041 0.91141
 C3312 C 0.29225 0.28806 0.92172
 C3313 C 0.30197 0.27646 0.91479
 C3314 C 0.30640 0.26261 0.92335
 C3315 C 0.30053 0.26054 0.93976
 C3316 C 0.29032 0.27220 0.94728
 C3317 C 0.28614 0.28620 0.93804
 H3318 H 0.32076 0.26378 0.88783
 H3319 H 0.32371 0.27910 0.86142
 H3320 H 0.29379 0.31719 0.88204
 H3321 H 0.31411 0.25370 0.91760
 H3322 H 0.30384 0.24973 0.94650
 H3323 H 0.27844 0.29536 0.94337
 C3324 C 0.44576 0.29316 0.85754
 C3325 C 0.46119 0.28965 0.86238
 C3326 C 0.46769 0.29462 0.87769
 C3327 C 0.45790 0.30369 0.88844
 C3328 C 0.44200 0.30752 0.88376
 C3329 C 0.43573 0.30204 0.86820
 O3330 O 0.44239 0.28828 0.84192
 C3331 C 0.45601 0.28159 0.83681
 C3332 C 0.46784 0.28213 0.84891
 C3333 C 0.48336 0.27693 0.84597
 C3334 C 0.48696 0.27116 0.82979
 C3335 C 0.47508 0.27064 0.81694
 C3336 C 0.45927 0.27563 0.82062
 H3337 H 0.47996 0.29195 0.88104
 H3338 H 0.46271 0.30802 0.90030
 H3339 H 0.42371 0.30519 0.86429
 H3340 H 0.49251 0.27774 0.85563
 H3341 H 0.49910 0.26744 0.82713
 H3342 H 0.45010 0.27577 0.81092
 C3343 C 0.96596 0.29141 0.36796
 C3344 C 0.96944 0.27538 0.36968
 C3345 C 0.96523 0.26654 0.38381
 C3346 C 0.95693 0.27450 0.39669
 C3347 C 0.95300 0.29099 0.39527
 C3348 C 0.95783 0.29964 0.38079
 O3349 O 0.97021 0.29723 0.35298
 C3350 C 0.97645 0.28457 0.34512
 C3351 C 0.97624 0.27094 0.35487
 C3352 C 0.98117 0.25606 0.34894
 C3353 C 0.98634 0.25512 0.33216
 C3354 C 0.98662 0.26891 0.32177
 C3355 C 0.98182 0.28394 0.32835
 H3356 H 0.96796 0.25389 0.38475
 H3357 H 0.95344 0.26779 0.40776
 H3358 H 0.95474 0.31216 0.37928
 H3359 H 0.98062 0.24549 0.35679
 H3360 H 0.98986 0.24357 0.32709
 H3361 H 0.98156 0.29452 0.32046
 C3362 C 0.46530 0.36560 0.78514
 C3363 C 0.47798 0.36251 0.79578
 C3364 C 0.48203 0.37250 0.80910
 C3365 C 0.47272 0.38634 0.81149
 C3366 C 0.45958 0.38996 0.80065
 C3367 C 0.45584 0.37931 0.78729
 O3368 O 0.46327 0.35432 0.77352
 C3369 C 0.47493 0.34391 0.77694
 C3370 C 0.48427 0.34839 0.79043
 C3371 C 0.49689 0.33908 0.79646
 C3372 C 0.49991 0.32443 0.78838
 C3373 C 0.49035 0.31938 0.77452
 C3374 C 0.47777 0.32943 0.76865
 H3375 H 0.49192 0.36968 0.81746
 H3376 H 0.47564 0.39404 0.82201
 H3377 H 0.44596 0.38164 0.77876
 H3378 H 0.50401 0.34284 0.80717
 H3379 H 0.50955 0.31693 0.79312
 H3380 H 0.47005 0.32586 0.75833
 C3381 C 0.96903 0.36280 0.28326
 C3382 C 0.98427 0.36318 0.28975
 C3383 C 0.98965 0.37558 0.29988
 C3384 C 0.97885 0.38802 0.30362
 C3385 C 0.96290 0.38779 0.29743
 C3386 C 0.95806 0.37500 0.28689
 O3387 O 0.96615 0.34967 0.27438
 C3388 C 0.97985 0.34158 0.27533
 C3389 C 0.99131 0.34929 0.28465
 C3390 C 1.00621 0.34250 0.28809
 C3391 C 1.00936 0.32709 0.28179
 C3392 C 0.99775 0.31891 0.27209
 C3393 C 0.98284 0.32640 0.26868
 H3394 H 1.00169 0.37562 0.30486
 H3395 H 0.98296 0.39778 0.31141
 H3396 H 0.94597 0.37423 0.28214
 H3397 H 1.01495 0.34870 0.29569
 H3398 H 1.02077 0.32146 0.28460
 H3399 H 0.97357 0.32032 0.26171
 C3400 C 0.29540 0.85026 0.46739
 C3401 C 0.29661 0.84969 0.48472
 C3402 C 0.30272 0.86218 0.49425
 C3403 C 0.30773 0.87585 0.48556
 C3404 C 0.30671 0.87677 0.46760
 C3405 C 0.30047 0.86362 0.45848
 O3406 O 0.28917 0.83717 0.46070
 C3407 C 0.28639 0.82811 0.47412
 C3408 C 0.29079 0.83519 0.48912
 C3409 C 0.28916 0.82772 0.50470
 C3410 C 0.28279 0.81228 0.50482
 C3411 C 0.27808 0.80472 0.48952
 C3412 C 0.27986 0.81285 0.47395
 H3413 H 0.30347 0.86148 0.50791
 H3414 H 0.31219 0.88575 0.49291
 H3415 H 0.29966 0.86361 0.44483
 H3416 H 0.29275 0.83351 0.51634
 H3417 H 0.28147 0.80628 0.51686
 H3418 H 0.27653 0.80738 0.46205
 C3419 C 0.30514 0.36749 0.98725
 C3420 C 0.29014 0.37054 0.99361
 C3421 C 0.28249 0.38531 0.99203
 C3422 C 0.29043 0.39727 0.98309
 C3423 C 0.30568 0.39428 0.97607
 C3424 C 0.31333 0.37934 0.97853
 O3425 O 0.30954 0.35224 0.98856
 C3426 C 0.29703 0.34552 0.99579
 C3427 C 0.28483 0.35621 0.99910
 C3428 C 0.26999 0.35152 1.00499
 C3429 C 0.26761 0.33514 1.00753
 C3430 C 0.28002 0.32397 1.00426
 C3431 C 0.29500 0.32919 0.99851
 H3432 H 0.27053 0.38729 0.99674
 H3433 H 0.28442 0.40860 0.98080
 H3434 H 0.32467 0.37666 0.97260
 H3435 H 0.26043 0.36011 1.00704
 H3436 H 0.25608 0.33108 1.01177
 H3437 H 0.30444 0.32074 0.99548
 C3438 C 0.76684 0.36927 0.28388
 C3439 C 0.76534 0.36830 0.26655
 C3440 C 0.77033 0.35503 0.25732
 C3441 C 0.77769 0.34248 0.26624
 C3442 C 0.77988 0.34342 0.28400
 C3443 C 0.77390 0.35676 0.29303
 O3444 O 0.76294 0.38358 0.28997
 C3445 C 0.75903 0.39184 0.27618
 C3446 C 0.76035 0.38302 0.26154
 C3447 C 0.75853 0.38969 0.24553
 C3448 C 0.75524 0.40612 0.24456
 C3449 C 0.75378 0.41548 0.25946
 C3450 C 0.75547 0.40816 0.27552
 H3451 H 0.76938 0.35472 0.24366
 H3452 H 0.78249 0.33237 0.25928
 H3453 H 0.77607 0.35800 0.30648
 H3454 H 0.76003 0.38258 0.23419
 H3455 H 0.75394 0.41159 0.23219
 H3456 H 0.75481 0.41511 0.28707
   
