data_POSCAR
  _audit_creation_date              2014-09-24
  _audit_creation_method            'ToBaCCo'
  _symmetry_space_group_name_H-M    'P1'
  _symmetry_Int_Tables_number       1
  _symmetry_cell_setting            triclinic
  loop_
  _symmetry_equiv_pos_as_xyz
 x,y,z
_cell_length_a 43.9113
_cell_length_b 46.7366
_cell_length_c 53.5467
_cell_angle_alpha 90.183100
_cell_angle_beta 90.031100
_cell_angle_gamma 89.994900
loop_
  _atom_site_label
  _atom_site_type_symbol
  _atom_site_fract_x
  _atom_site_fract_y
  _atom_site_fract_z
Zr1 Zr 0.24623 0.24261 0.29181
 O2 O 0.26647 0.25998 0.32447
 O3 O 0.21231 0.21648 0.30778
 O4 O 0.21778 0.27076 0.31210
 O5 O 0.30347 0.19220 0.28307
 O6 O 0.19938 0.30159 0.28285
 O7 O 0.27323 0.21356 0.31228
 O8 O 0.18621 0.19987 0.27396
 O9 O 0.20912 0.24869 0.26785
 O10 O 0.24609 0.20728 0.26774
 O11 O 0.25433 0.28192 0.27393
 O12 O 0.28923 0.24234 0.27413
 Zr13 Zr 0.25914 0.25263 0.20562
 Zr14 Zr 0.21813 0.28688 0.24879
 Zr15 Zr 0.28753 0.20819 0.24860
 Zr16 Zr 0.21040 0.21426 0.24287
 O17 O 0.33572 0.20702 0.24893
 O18 O 0.16380 0.22483 0.23794
 O19 O 0.25153 0.21284 0.22313
 O20 O 0.21656 0.25250 0.22360
 O21 O 0.25972 0.28810 0.22961
 O22 O 0.29611 0.24629 0.22960
 C23 C 0.19041 0.20228 0.29757
 C24 C 0.29532 0.19690 0.30587
 C25 C 0.20222 0.29292 0.30558
 O26 O 0.17015 0.28741 0.24525
 O27 O 0.20606 0.30670 0.21476
 O28 O 0.23450 0.28365 0.18533
 C29 C 0.21420 0.30210 0.19195
 O30 O 0.31290 0.29056 0.29055
 Zr31 Zr 0.29550 0.28054 0.25451
 O32 O 0.29205 0.27969 0.18958
 O33 O 0.22657 0.33125 0.25244
 O34 O 0.29290 0.32561 0.25880
 O35 O 0.34255 0.27039 0.25607
 O36 O 0.31600 0.29922 0.22331
 C37 C 0.31178 0.29650 0.19971
 O38 O 0.23745 0.23657 0.17309
 O39 O 0.27952 0.16354 0.24817
 O40 O 0.28542 0.22300 0.18506
 O41 O 0.30190 0.19087 0.21404
 O42 O 0.21193 0.16891 0.24198
 O43 O 0.19735 0.19972 0.20676
 C44 C 0.29904 0.19965 0.19133
 H45 H 0.24373 0.18901 0.27685
 H46 H 0.19962 0.25436 0.21152
 H47 H 0.31570 0.24511 0.22050
 H48 H 0.25541 0.29790 0.28607
 H49 H 0.15185 0.20692 0.23941
 H50 H 0.16376 0.30770 0.24644
 H51 H 0.20655 0.34094 0.25123
 H52 H 0.31380 0.33336 0.25708
 H53 H 0.19072 0.16187 0.24344
 H54 H 0.29970 0.15416 0.24932
 H55 H 0.34170 0.18662 0.24782
 H56 H 0.35404 0.28855 0.25452
 H57 H 0.17926 0.18718 0.20815
 H58 H 0.24814 0.24462 0.15835
 H59 H 0.25609 0.25144 0.33915
 H60 H 0.32900 0.30529 0.28906
 Zr61 Zr 0.75280 0.74732 0.29385
 O62 O 0.72882 0.72749 0.32347
 O63 O 0.78629 0.77010 0.31373
 O64 O 0.77891 0.71674 0.31332
 O65 O 0.69990 0.80166 0.28625
 O66 O 0.79843 0.68796 0.28282
 O67 O 0.72596 0.77576 0.31526
 O68 O 0.81659 0.78771 0.28284
 O69 O 0.79148 0.74182 0.27150
 O70 O 0.75675 0.78473 0.27276
 O71 O 0.74455 0.71019 0.27262
 O72 O 0.71143 0.75133 0.27409
 Zr73 Zr 0.74671 0.74619 0.20678
 Zr74 Zr 0.78244 0.70603 0.24910
 Zr75 Zr 0.71699 0.78758 0.25151
 Zr76 Zr 0.79404 0.77846 0.24940
 O77 O 0.66895 0.79091 0.25008
 O78 O 0.84041 0.76645 0.24565
 O79 O 0.75473 0.78381 0.22770
 O80 O 0.78770 0.74252 0.22686
 O81 O 0.74252 0.70866 0.22779
 O82 O 0.70820 0.75182 0.22920
 C83 C 0.81003 0.78349 0.30588
 C84 C 0.70581 0.79448 0.30898
 C85 C 0.79450 0.69492 0.30594
 O86 O 0.83051 0.70355 0.24754
 O87 O 0.79579 0.68869 0.21429
 O88 O 0.77126 0.71604 0.18540
 C89 C 0.78976 0.69586 0.19157
 O90 O 0.68439 0.70303 0.28541
 Zr91 Zr 0.70516 0.71538 0.25125
 O92 O 0.71453 0.72188 0.18685
 O93 O 0.77167 0.66193 0.24924
 O94 O 0.70522 0.67001 0.25218
 O95 O 0.65855 0.72728 0.25091
 O96 O 0.68677 0.70056 0.21756
 C97 C 0.69341 0.70500 0.19456
 O98 O 0.77193 0.76468 0.17719
 O99 O 0.72730 0.83170 0.25437
 O100 O 0.72283 0.77832 0.18719
 O101 O 0.70535 0.80813 0.21778
 O102 O 0.79504 0.82369 0.25269
 O103 O 0.81044 0.79603 0.21539
 C104 C 0.70928 0.80130 0.19464
 H105 H 0.75928 0.80195 0.28339
 H106 H 0.80545 0.74096 0.21556
 H107 H 0.68942 0.75464 0.21927
 H108 H 0.74193 0.69322 0.28343
 H109 H 0.85299 0.78357 0.24929
 H110 H 0.83583 0.68294 0.24752
 H111 H 0.79127 0.65147 0.24830
 H112 H 0.68416 0.66348 0.24873
 H113 H 0.81643 0.82932 0.25597
 H114 H 0.70757 0.84194 0.25531
 H115 H 0.66402 0.81160 0.25026
 H116 H 0.64651 0.70979 0.24737
 H117 H 0.82870 0.80787 0.21876
 H118 H 0.76236 0.75856 0.16124
 H119 H 0.73821 0.73393 0.33940
 H120 H 0.66782 0.68920 0.28197
 Zr121 Zr 0.75389 0.24824 -0.29195
 O122 O 0.73445 0.26730 -0.32411
 O123 O 0.78647 0.22121 -0.30849
 O124 O 0.78376 0.27573 -0.31138
 O125 O 0.69524 0.19916 -0.28480
 O126 O 0.80323 0.30500 -0.28121
 O127 O 0.72642 0.22033 -0.31332
 O128 O 0.81113 0.20181 -0.27518
 O129 O 0.79111 0.25223 -0.26773
 O130 O 0.75236 0.21238 -0.26874
 O131 O 0.74740 0.28733 -0.27316
 O132 O 0.71071 0.24904 -0.27464
 Zr133 Zr 0.74044 0.25648 -0.20552
 Zr134 Zr 0.78348 0.29016 -0.24767
 Zr135 Zr 0.71082 0.21432 -0.24989
 Zr136 Zr 0.78814 0.21728 -0.24361
 O137 O 0.66264 0.21529 -0.25087
 O138 O 0.83512 0.22642 -0.23892
 O139 O 0.74676 0.21698 -0.22413
 O140 O 0.78322 0.25515 -0.22329
 O141 O 0.74177 0.29245 -0.22874
 O142 O 0.70355 0.25218 -0.22996
 C143 C 0.80706 0.20512 -0.29874
 C144 C 0.70402 0.20387 -0.30740
 C145 C 0.80019 0.29710 -0.30419
 O146 O 0.83138 0.28886 -0.24366
 O147 O 0.79582 0.30881 -0.21317
 O148 O 0.76610 0.28624 -0.18442
 C149 C 0.78719 0.30410 -0.19053
 O150 O 0.68925 0.29773 -0.29012
 Zr151 Zr 0.70603 0.28694 -0.25411
 O152 O 0.70789 0.28404 -0.18916
 O153 O 0.77693 0.33489 -0.25031
 O154 O 0.71038 0.33191 -0.25805
 O155 O 0.65849 0.27903 -0.25544
 O156 O 0.68704 0.30652 -0.22274
 C157 C 0.68996 0.30261 -0.19919
 O158 O 0.76107 0.23933 -0.17303
 O159 O 0.71673 0.16937 -0.25022
 O160 O 0.71347 0.22652 -0.18584
 O161 O 0.69537 0.19654 -0.21604
 O162 O 0.78451 0.17203 -0.24311
 O163 O 0.80100 0.20158 -0.20791
 C164 C 0.69886 0.20398 -0.19301
 H165 H 0.75395 0.19419 -0.27817
 H166 H 0.80010 0.25612 -0.21107
 H167 H 0.68383 0.25150 -0.22101
 H168 H 0.74714 0.30363 -0.28491
 H169 H 0.84646 0.20825 -0.24110
 H170 H 0.83863 0.30893 -0.24437
 H171 H 0.79732 0.34381 -0.24879
 H172 H 0.68974 0.34034 -0.25660
 H173 H 0.80535 0.16411 -0.24480
 H174 H 0.69617 0.16082 -0.25185
 H175 H 0.65567 0.19515 -0.25023
 H176 H 0.64801 0.29772 -0.25370
 H177 H 0.81902 0.18899 -0.20964
 H178 H 0.75037 0.24744 -0.15827
 H179 H 0.74452 0.25883 -0.33901
 H180 H 0.67346 0.31276 -0.28855
 Zr181 Zr 0.23832 0.76020 -0.29443
 O182 O 0.25807 0.74122 -0.32659
 O183 O 0.20765 0.78882 -0.31145
 O184 O 0.20867 0.73331 -0.31506
 O185 O 0.29829 0.80734 -0.28473
 O186 O 0.18703 0.70431 -0.28588
 O187 O 0.26824 0.78704 -0.31454
 O188 O 0.18166 0.80762 -0.27861
 O189 O 0.19993 0.75700 -0.27143
 O190 O 0.24000 0.79578 -0.27067
 O191 O 0.24280 0.72078 -0.27592
 O192 O 0.28062 0.75795 -0.27571
 Zr193 Zr 0.24752 0.75089 -0.20793
 Zr194 Zr 0.20545 0.71868 -0.25163
 Zr195 Zr 0.28057 0.79251 -0.25055
 Zr196 Zr 0.20298 0.79161 -0.24671
 O197 O 0.32872 0.79039 -0.25018
 O198 O 0.15552 0.78410 -0.24331
 O199 O 0.24343 0.79077 -0.22596
 O200 O 0.20563 0.75342 -0.22683
 O201 O 0.24619 0.71507 -0.23148
 O202 O 0.28567 0.75426 -0.23103
 C203 C 0.18693 0.80526 -0.30212
 C204 C 0.29096 0.80280 -0.30777
 C205 C 0.19151 0.71214 -0.30865
 O206 O 0.15748 0.72158 -0.24925
 O207 O 0.19106 0.70014 -0.21768
 O208 O 0.22072 0.72129 -0.18808
 C209 C 0.19919 0.70409 -0.19474
 O210 O 0.30120 0.70846 -0.29113
 Zr211 Zr 0.28326 0.71973 -0.25556
 O212 O 0.27808 0.72247 -0.19073
 O213 O 0.21049 0.67377 -0.25450
 O214 O 0.27752 0.67491 -0.25981
 O215 O 0.33106 0.72630 -0.25565
 O216 O 0.30055 0.69983 -0.22362
 C217 C 0.29633 0.70377 -0.20014
 O218 O 0.22557 0.76882 -0.17629
 O219 O 0.27593 0.83758 -0.25036
 O220 O 0.27526 0.77893 -0.18692
 O221 O 0.29553 0.80910 -0.21586
 O222 O 0.20796 0.83675 -0.24579
 O223 O 0.18921 0.80730 -0.21116
 C224 C 0.29122 0.80095 -0.19312
 H225 H 0.23946 0.81409 -0.27991
 H226 H 0.18823 0.75278 -0.21510
 H227 H 0.30500 0.75427 -0.22151
 H228 H 0.24317 0.70455 -0.28783
 H229 H 0.14498 0.80269 -0.24542
 H230 H 0.14955 0.70175 -0.25024
 H231 H 0.18975 0.66548 -0.25357
 H232 H 0.29775 0.66586 -0.25758
 H233 H 0.18745 0.84523 -0.24796
 H234 H 0.29679 0.84560 -0.25119
 H235 H 0.33623 0.81035 -0.24904
 H236 H 0.34085 0.70732 -0.25371
 H237 H 0.17211 0.82090 -0.21322
 H238 H 0.23502 0.76036 -0.16116
 H239 H 0.24875 0.75029 -0.34151
 H240 H 0.31610 0.69272 -0.28922
 Zr241 Zr 1.25421 1.24896 0.79423
 O242 O 1.23229 1.22790 0.82427
 O243 O 1.28483 1.27544 0.81370
 O244 O 1.28294 1.22076 0.81405
 O245 O 1.19649 1.29864 0.78597
 O246 O 1.30485 1.19316 0.78382
 O247 O 1.22503 1.27558 0.81526
 O248 O 1.31270 1.29581 0.78258
 O249 O 1.29328 1.24624 0.77193
 O250 O 1.25448 1.28604 0.77245
 O251 O 1.24938 1.21090 0.77356
 O252 O 1.21252 1.24913 0.77458
 Zr253 Zr 1.24772 1.24558 0.70717
 Zr254 Zr 1.28738 1.20944 0.74996
 Zr255 Zr 1.21453 1.28521 0.75138
 Zr256 Zr 1.29223 1.28244 0.74919
 O257 O 1.16636 1.28428 0.75008
 O258 O 1.33948 1.27350 0.74657
 O259 O 1.25244 1.28406 0.72756
 O260 O 1.28904 1.24572 0.72711
 O261 O 1.24726 1.20828 0.72876
 O262 O 1.20898 1.24845 0.72970
 C263 C 1.30632 1.29173 0.80569
 C264 C 1.20331 1.29257 0.80877
 C265 C 1.30015 1.19995 0.80687
 O266 O 1.33547 1.21090 0.74819
 O267 O 1.30192 1.19241 0.71539
 O268 O 1.27420 1.21652 0.68622
 C269 C 1.29464 1.19816 0.69260
 O270 O 1.19007 1.19929 0.78677
 Zr271 Zr 1.20960 1.21232 0.75232
 O272 O 1.21651 1.21954 0.68778
 O273 O 1.28087 1.16461 0.75078
 O274 O 1.21407 1.16719 0.75424
 O275 O 1.16199 1.21992 0.75165
 O276 O 1.19296 1.19499 0.71898
 C277 C 1.19764 1.20063 0.69587
 O278 O 1.27141 1.26485 0.67711
 O279 O 1.22040 1.33010 0.75357
 O280 O 1.22173 1.27589 0.68718
 O281 O 1.20112 1.30433 0.71742
 O282 O 1.28894 1.32770 0.75061
 O283 O 1.30775 1.30011 0.71494
 C284 C 1.20612 1.29779 0.69435
 H285 H 1.25528 1.30373 0.78265
 H286 H 1.30679 1.24529 0.71572
 H287 H 1.18995 1.24964 0.71983
 H288 H 1.24833 1.19399 0.78461
 H289 H 1.35060 1.29151 0.75016
 H290 H 1.34269 1.19081 0.74854
 H291 H 1.30137 1.15581 0.74983
 H292 H 1.19371 1.15878 0.75105
 H293 H 1.30968 1.33531 0.75368
 H294 H 1.19975 1.33859 0.75441
 H295 H 1.15941 1.30445 0.74987
 H296 H 1.15182 1.20132 0.74850
 H297 H 1.32563 1.31250 0.71812
 H298 H 1.26220 1.25774 0.66132
 H299 H 1.24107 1.23548 0.84006
 H300 H 1.17496 1.18395 0.78369
 Zr301 Zr 0.74588 0.74381 0.79256
 O302 O 0.76406 0.76150 0.82590
 O303 O 0.71377 0.71500 0.80757
 O304 O 0.71535 0.77010 0.81281
 O305 O 0.80682 0.69736 0.78401
 O306 O 0.69544 0.80027 0.78370
 O307 O 0.77432 0.71600 0.81300
 O308 O 0.69076 0.69623 0.77313
 O309 O 0.70885 0.74782 0.76818
 O310 O 0.74903 0.70911 0.76795
 O311 O 0.75147 0.78387 0.77533
 O312 O 0.78920 0.74681 0.77559
 Zr313 Zr 0.75996 0.75640 0.70669
 Zr314 Zr 0.71548 0.78688 0.74976
 Zr315 Zr 0.79070 0.71318 0.74954
 Zr316 Zr 0.71342 0.71411 0.74267
 O317 O 0.83882 0.71553 0.75063
 O318 O 0.66614 0.72180 0.73803
 O319 O 0.75497 0.71592 0.72360
 O320 O 0.71711 0.75303 0.72403
 O321 O 0.75726 0.79131 0.73120
 O322 O 0.79681 0.75208 0.73113
 C323 C 0.69409 0.69859 0.79683
 C324 C 0.79763 0.70085 0.80670
 C325 C 0.69872 0.79162 0.80639
 O326 O 0.66765 0.78409 0.74576
 O327 O 0.70256 0.80644 0.71590
 O328 O 0.73350 0.78623 0.68657
 C329 C 0.71159 0.80299 0.69318
 O330 O 0.80900 0.79590 0.79296
 Zr331 Zr 0.79298 0.78570 0.75653
 O332 O 0.79159 0.78551 0.69156
 O333 O 0.72041 0.83168 0.75383
 O334 O 0.78681 0.83034 0.76173
 O335 O 0.84068 0.77887 0.75834
 O336 O 0.81217 0.80677 0.72596
 C337 C 0.80934 0.80380 0.70225
 O338 O 0.74017 0.73998 0.67347
 O339 O 0.78644 0.66807 0.74841
 O340 O 0.78823 0.72838 0.68610
 O341 O 0.80673 0.69720 0.71503
 O342 O 0.71882 0.66908 0.74022
 O343 O 0.70158 0.69989 0.70618
 C344 C 0.80329 0.70582 0.69234
 H345 H 0.74798 0.69048 0.77665
 H346 H 0.70030 0.75400 0.71175
 H347 H 0.81661 0.75234 0.72230
 H348 H 0.75122 0.79967 0.78767
 H349 H 0.65553 0.70314 0.73918
 H350 H 0.65966 0.80386 0.74707
 H351 H 0.69973 0.84004 0.75243
 H352 H 0.80708 0.83955 0.76052
 H353 H 0.69828 0.66038 0.74122
 H354 H 0.80731 0.66015 0.74971
 H355 H 0.84647 0.69565 0.74926
 H356 H 0.85070 0.79783 0.75722
 H357 H 0.68409 0.68657 0.70717
 H358 H 0.75068 0.74902 0.65908
 H359 H 0.75391 0.75198 0.84023
 H360 H 0.82402 0.81165 0.79195
 Zr361 Zr 1.25700 0.74685 0.20765
 O362 O 1.23595 0.76511 0.17582
 O363 O 1.29219 0.72308 0.19069
 O364 O 1.28446 0.77682 0.18876
 O365 O 1.20271 0.69341 0.21385
 O366 O 1.30107 0.80710 0.21931
 O367 O 1.23185 0.71761 0.18573
 O368 O 1.31924 0.70629 0.22386
 O369 O 1.29364 0.75336 0.23201
 O370 O 1.25888 0.71041 0.23014
 O371 O 1.24684 0.78485 0.22710
 O372 O 1.21397 0.74380 0.22502
 Zr373 Zr 1.24315 0.75185 0.29409
 Zr374 Zr 1.28261 0.79010 0.25261
 Zr375 Zr 1.21734 0.70856 0.24902
 Zr376 Zr 1.29405 0.71772 0.25546
 O377 O 1.16926 0.70531 0.24811
 O378 O 1.34001 0.73007 0.26126
 O379 O 1.25291 0.71341 0.27488
 O380 O 1.28579 0.75462 0.27632
 O381 O 1.24094 0.78843 0.27164
 O382 O 1.20668 0.74520 0.26964
 C383 C 1.31487 0.70956 0.20036
 C384 C 1.21074 0.69958 0.19134
 C385 C 1.29900 0.79921 0.19625
 O386 O 1.33045 0.79268 0.25667
 O387 O 1.29316 0.80883 0.28749
 O388 O 1.26612 0.78284 0.31581
 C389 C 1.28529 0.80262 0.31003
 O390 O 1.18789 0.79150 0.21060
 Zr391 Zr 1.20570 0.78066 0.24626
 O392 O 1.20909 0.77683 0.31116
 O393 O 1.27192 0.83417 0.25064
 O394 O 1.20608 0.82594 0.24379
 O395 O 1.15917 0.76867 0.24422
 O396 O 1.18438 0.79702 0.27820
 C397 C 1.18876 0.79344 0.30168
 O398 O 1.26550 0.73502 0.32593
 O399 O 1.22761 0.66433 0.24779
 O400 O 1.21812 0.72010 0.31321
 O401 O 1.20331 0.68909 0.28257
 O402 O 1.29502 0.67236 0.25418
 O403 O 1.30748 0.70192 0.29098
 C404 C 1.20550 0.69668 0.30568
 H405 H 1.26223 0.69273 0.22027
 H406 H 1.30256 0.75665 0.28855
 H407 H 1.18712 0.74274 0.27857
 H408 H 1.24511 0.80132 0.21561
 H409 H 1.35286 0.71280 0.25907
 H410 H 1.33578 0.81328 0.25634
 H411 H 1.29141 0.84468 0.25237
 H412 H 1.18481 0.83268 0.24575
 H413 H 1.31661 0.66647 0.25257
 H414 H 1.20795 0.65412 0.24606
 H415 H 1.16429 0.68463 0.24831
 H416 H 1.14685 0.78626 0.24646
 H417 H 1.32616 0.69024 0.28918
 H418 H 1.25440 0.74185 0.34097
 H419 H 1.24675 0.75785 0.16078
 H420 H 1.17112 0.80548 0.21262
 Zr421 Zr 0.74733 1.25500 0.20725
 O422 O 0.77024 1.23592 0.17658
 O423 O 0.71540 1.28086 0.18866
 O424 O 0.71989 1.22660 0.18625
 O425 O 0.80332 1.30608 0.21739
 O426 O 0.69894 1.19711 0.21538
 O427 O 0.77550 1.28337 0.18730
 O428 O 0.68700 1.29928 0.22045
 O429 O 0.70835 1.25020 0.22931
 O430 O 0.74569 1.29122 0.23028
 O431 O 0.75359 1.21635 0.22655
 O432 O 0.78895 1.25583 0.22703
 Zr433 Zr 0.75363 1.24836 0.29404
 Zr434 Zr 0.71551 1.21273 0.24989
 Zr435 Zr 0.78558 1.29089 0.25150
 Zr436 Zr 0.70807 1.28553 0.25332
 O437 O 0.83374 1.29174 0.25299
 O438 O 0.66111 1.27522 0.25570
 O439 O 0.74767 1.28752 0.27514
 O440 O 0.71243 1.24804 0.27398
 O441 O 0.75561 1.21204 0.27112
 O442 O 0.79240 1.25344 0.27188
 C443 C 0.69321 1.29599 0.19721
 C444 C 0.79673 1.30061 0.19438
 C445 C 0.70345 1.20495 0.19260
 O446 O 0.66737 1.21263 0.25124
 O447 O 0.70103 1.19414 0.28378
 O448 O 0.72762 1.21813 0.31385
 C449 C 0.70781 1.19945 0.30678
 O450 O 0.81328 1.20716 0.21309
 Zr451 Zr 0.79329 1.21831 0.24794
 O452 O 0.78443 1.22122 0.31259
 O453 O 0.72370 1.16819 0.24778
 O454 O 0.79076 1.17314 0.24462
 O455 O 0.84051 1.22786 0.24878
 O456 O 0.81087 1.20050 0.28069
 C457 C 0.80456 1.20380 0.30392
 O458 O 0.72947 1.26618 0.32462
 O459 O 0.77780 1.33557 0.25088
 O460 O 0.77916 1.27805 0.31519
 O461 O 0.79824 1.30894 0.28626
 O462 O 0.70986 1.33089 0.25327
 O463 O 0.69197 1.30146 0.28812
 C464 C 0.79384 1.30086 0.30901
 H465 H 0.74421 1.30921 0.22064
 H466 H 0.69463 1.24670 0.28525
 H467 H 0.81130 1.25472 0.28191
 H468 H 0.75534 1.19993 0.21493
 H469 H 0.64942 1.29303 0.25277
 H470 H 0.66087 1.19236 0.25021
 H471 H 0.70352 1.15871 0.24819
 H472 H 0.81147 1.16540 0.24757
 H473 H 0.68889 1.33799 0.25034
 H474 H 0.79808 1.34484 0.25034
 H475 H 0.83981 1.31214 0.25383
 H476 H 0.85156 1.20960 0.25131
 H477 H 0.67391 1.31373 0.28531
 H478 H 0.73867 1.25861 0.34021
 H479 H 0.76124 1.24375 0.16102
 H480 H 0.82911 1.19238 0.21572
 O481 O 0.54361 1.05296 0.04163
 O482 O 0.57891 1.02521 0.02107
 C483 C 0.57134 1.04500 0.03714
 O484 O 0.46065 0.95279 0.04952
 O485 O 0.42599 0.97501 0.02390
 C486 C 0.43306 0.95848 0.04259
 O487 O 0.54452 0.95636 0.05171
 O488 O 0.57928 0.97677 0.02507
 C489 C 0.57218 0.96182 0.04474
 O490 O 0.45975 1.05656 0.03624
 O491 O 0.42552 1.02549 0.01825
 C492 C 0.43224 1.04803 0.03155
 Zr493 Zr 0.50205 1.03804 0.02714
 O494 O 0.49950 1.04071 0.06652
 O495 O 0.50550 1.08296 0.02310
 Zr496 Zr 0.50254 0.96723 0.03534
 O497 O 0.50110 0.97717 0.07389
 O498 O 0.50577 0.92265 0.04170
 O499 O 0.52965 1.00349 0.03613
 O500 O 0.47525 1.00314 0.03550
 O501 O 0.46065 1.04126 -0.05007
 O502 O 0.42588 1.01973 -0.02415
 C503 C 0.43302 1.03588 -0.04304
 O504 O 0.54538 0.94101 -0.03853
 O505 O 0.57970 0.97126 -0.01959
 C506 C 0.57286 0.94958 -0.03391
 O507 O 0.46146 0.93880 -0.03731
 O508 O 0.42637 0.96893 -0.01936
 C509 C 0.43371 0.94679 -0.03294
 O510 O 0.54451 1.03855 -0.05176
 O511 O 0.57924 1.01980 -0.02421
 C512 C 0.57213 1.03423 -0.04417
 Zr513 Zr 0.50275 1.02879 -0.03472
 O514 O 0.50119 1.02737 -0.07414
 O515 O 0.50582 1.07401 -0.03631
 Zr516 Zr 0.50319 0.95734 -0.02666
 O517 O 0.50078 0.95147 -0.06586
 O518 O 0.50668 0.91261 -0.02106
 Zr519 Zr 0.54890 0.99814 0.00038
 Zr520 Zr 0.45634 0.99736 -0.00025
 O521 O 0.47644 0.99211 -0.03565
 O522 O 0.53023 0.99245 -0.03562
 O523 O 0.47478 1.03878 -0.00469
 O524 O 0.52969 0.95725 0.00512
 O525 O 0.52942 1.03890 -0.00418
 O526 O 0.47540 0.95635 0.00480
 H527 H 0.46148 1.00544 0.05002
 H528 H 0.54332 0.94053 0.00723
 H529 H 0.46321 0.98964 -0.05049
 H530 H 0.54331 1.05552 -0.00571
 H531 H 0.48988 0.91325 0.03147
 H532 H 0.48938 0.90664 -0.01047
 H533 H 0.51850 0.96129 -0.07338
 H534 H 0.50255 1.00700 -0.07894
 H535 H 0.48547 1.08201 -0.03248
 H536 H 0.49049 1.08877 0.01031
 H537 H 0.49889 1.06138 0.07071
 H538 H 0.50105 0.95863 0.08282
 O539 O 1.04599 0.55436 0.53974
 O540 O 1.07978 0.52441 0.51977
 C541 C 1.07331 0.54572 0.53462
 O542 O 0.96100 0.45341 0.55034
 O543 O 0.92596 0.47613 0.52533
 C544 C 0.93330 0.45930 0.54376
 O545 O 1.04494 0.45567 0.55125
 O546 O 1.07929 0.47566 0.52403
 C547 C 1.07247 0.46071 0.54377
 O548 O 0.96219 0.55799 0.53781
 O549 O 0.92662 0.52773 0.52057
 C550 C 0.93433 0.55016 0.53366
 Zr551 Zr 1.00360 0.53844 0.52781
 O552 O 1.00323 0.53977 0.56728
 O553 O 1.00705 0.58347 0.52493
 Zr554 Zr 1.00284 0.46754 0.53574
 O555 O 1.00267 0.47703 0.57438
 O556 O 1.00479 0.42282 0.54159
 O557 O 1.03082 0.50338 0.53615
 O558 O 0.97627 0.50402 0.53672
 O559 O 0.95973 0.54223 0.45103
 O560 O 0.92535 0.52095 0.47741
 C561 C 0.93220 0.53691 0.45833
 O562 O 1.04253 0.44316 0.45875
 O563 O 1.07827 0.47070 0.47897
 C564 C 1.07035 0.45104 0.46293
 O565 O 0.95876 0.44002 0.46448
 O566 O 0.92492 0.47113 0.48286
 C567 C 0.93135 0.44871 0.46931
 O568 O 1.04355 0.53812 0.44801
 O569 O 1.07870 0.51876 0.47487
 C570 C 1.07131 0.53317 0.45500
 Zr571 Zr 1.00196 0.52937 0.46584
 O572 O 1.00030 0.52856 0.42638
 O573 O 1.00561 0.57456 0.46442
 Zr574 Zr 1.00120 0.45792 0.47392
 O575 O 0.99689 0.44979 0.43515
 O576 O 1.00301 0.41376 0.48215
 Zr577 Zr 1.04864 0.49773 0.49994
 Zr578 Zr 0.95610 0.49891 0.50137
 O579 O 0.97493 0.49316 0.46556
 O580 O 1.02848 0.49259 0.46441
 O581 O 0.97529 0.53994 0.49654
 O582 O 1.02899 0.45711 0.50489
 O583 O 1.02978 0.53883 0.49577
 O584 O 0.97445 0.45754 0.50585
 H585 H 0.96283 0.50638 0.55145
 H586 H 1.04264 0.44031 0.50629
 H587 H 0.96124 0.49067 0.45101
 H588 H 1.04377 0.55529 0.49368
 H589 H 0.99097 0.41385 0.52924
 H590 H 1.00279 0.40367 0.46585
 H591 H 1.00994 0.46381 0.42641
 H592 H 0.99379 0.50916 0.42136
 H593 H 0.98535 0.58277 0.46823
 H594 H 0.99404 0.58936 0.51078
 H595 H 1.00303 0.56031 0.57195
 H596 H 1.00219 0.45838 0.58314
 O597 O 0.94682 0.46093 -0.04346
 O598 O 0.97433 0.42822 -0.02070
 C599 C 0.95446 0.43497 -0.03779
 O600 O 1.05704 0.53832 -0.04471
 O601 O 1.02941 0.57167 -0.02268
 C602 C 1.05025 0.56449 -0.03884
 O603 O 1.05098 0.45946 -0.04790
 O604 O 1.02619 0.42760 -0.02240
 C605 C 1.04390 0.43370 -0.04114
 O606 O 0.94290 0.53983 -0.03970
 O607 O 0.97471 0.57225 -0.02068
 C608 C 0.95157 0.56576 -0.03484
 Zr609 Zr 0.96210 0.50039 -0.02932
 O610 O 0.96318 0.50189 -0.06877
 O611 O 0.91402 0.49752 -0.02868
 Zr612 Zr 1.03780 0.49933 -0.03324
 O613 O 1.02889 0.50031 -0.07202
 O614 O 1.08524 0.49768 -0.03995
 O615 O 0.99927 0.47394 -0.03578
 O616 O 1.00000 0.52534 -0.03607
 O617 O 0.95205 0.54101 0.04712
 O618 O 0.97837 0.57284 0.02267
 C619 C 0.95928 0.56672 0.04044
 O620 O 1.05719 0.46104 0.04446
 O621 O 1.02936 0.42836 0.02188
 C622 C 1.04915 0.43511 0.03905
 O623 O 1.06244 0.53985 0.03929
 O624 O 1.03204 0.57244 0.01907
 C625 C 1.05473 0.56580 0.03360
 O626 O 0.95391 0.46212 0.04950
 O627 O 0.97699 0.42888 0.02416
 C628 C 0.96000 0.43600 0.04306
 Zr629 Zr 0.96675 0.50120 0.03330
 O630 O 0.96777 0.50484 0.07271
 O631 O 0.91859 0.49854 0.03390
 Zr632 Zr 1.04316 0.50022 0.02918
 O633 O 1.04783 0.50478 0.06835
 O634 O 1.09098 0.49607 0.02555
 Zr635 Zr 1.00183 0.45686 0.00059
 Zr636 Zr 1.00295 0.54363 -0.00026
 O637 O 1.00575 0.52576 0.03572
 O638 O 1.00499 0.47521 0.03657
 O639 O 0.95858 0.52660 0.00217
 O640 O 1.04581 0.47445 -0.00203
 O641 O 0.95834 0.47565 0.00249
 O642 O 1.04681 0.52526 -0.00254
 H643 H 0.99923 0.53836 -0.05064
 H644 H 1.06342 0.46121 -0.00263
 H645 H 1.00745 0.53858 0.05044
 H646 H 0.94037 0.46287 0.00335
 H647 H 1.09503 0.49081 -0.02448
 H648 H 1.09813 0.51173 0.01460
 H649 H 1.03377 0.49101 0.07627
 H650 H 0.98311 0.49112 0.07894
 H651 H 0.91038 0.51679 0.02743
 H652 H 0.90685 0.50993 -0.01490
 H653 H 0.94166 0.50229 -0.07434
 H654 H 1.04904 0.50111 -0.08030
 O655 O 0.44291 1.03859 0.45962
 O656 O 0.47498 1.07064 0.47885
 C657 C 0.45193 1.06439 0.46449
 O658 O 0.45152 0.96124 0.54962
 O659 O 0.47356 0.92747 0.52419
 C660 C 0.45675 0.93496 0.54313
 O661 O 0.45063 1.04002 0.54649
 O662 O 0.47793 1.07137 0.52222
 C663 C 0.45857 1.06559 0.53990
 O664 O 0.44541 0.95959 0.45615
 O665 O 0.47197 0.92657 0.47929
 C666 C 0.45249 0.93355 0.46200
 Zr667 Zr 0.46086 0.99884 0.47059
 O668 O 0.41272 0.99683 0.47209
 O669 O 0.46098 1.00035 0.43112
 Zr670 Zr 0.46459 0.99990 0.53281
 O671 O 0.41658 1.00022 0.53023
 O672 O 0.46193 1.00093 0.57227
 O673 O 0.45759 1.02545 0.50174
 O674 O 0.45626 0.97409 0.50224
 O675 O 0.54825 0.95661 0.45191
 O676 O 0.52385 0.92519 0.47806
 C677 C 0.54122 0.93098 0.45902
 O678 O 0.56072 1.03689 0.54066
 O679 O 0.53133 1.06986 0.51997
 C680 C 0.55349 1.06296 0.53495
 O681 O 0.55386 0.95812 0.54529
 O682 O 0.52519 0.92584 0.52290
 C683 C 0.54509 0.93234 0.54004
 O684 O 0.55592 1.03522 0.45479
 O685 O 0.52900 1.06903 0.47681
 C686 C 0.54974 1.06148 0.46072
 Zr687 Zr 0.53710 0.99658 0.46746
 O688 O 0.58495 0.99113 0.46582
 O689 O 0.53475 0.99921 0.42806
 Zr690 Zr 0.54116 0.99763 0.52978
 O691 O 0.58892 0.99224 0.52667
 O692 O 0.54484 1.00147 0.56907
 Zr693 Zr 0.50237 1.04167 0.49974
 Zr694 Zr 0.49954 0.95486 0.50077
 O695 O 0.54394 0.97162 0.49872
 O696 O 0.54601 1.02274 0.49810
 O697 O 0.49785 0.97201 0.46445
 O698 O 0.50405 1.02382 0.53574
 O699 O 0.49951 1.02287 0.46407
 O700 O 0.50233 0.97344 0.53666
 H701 H 0.43810 0.96154 0.50300
 H702 H 0.50573 1.03670 0.55040
 H703 H 0.56127 0.95803 0.49824
 H704 H 0.49904 1.03550 0.44925
 H705 H 0.48158 1.00829 0.57857
 H706 H 0.52914 0.98889 0.57647
 H707 H 0.59721 1.00909 0.51785
 H708 H 0.59438 1.00682 0.47556
 H709 H 0.51723 0.98739 0.42266
 H710 H 0.43934 1.00076 0.42585
 H711 H 0.40594 1.01097 0.48470
 H712 H 0.40895 1.00000 0.54763
 O713 O 1.03779 1.06599 0.52741
 O714 O 1.01910 1.03598 0.55757
 C715 C 1.03319 1.05897 0.55049
 O716 O 0.92955 1.03616 0.46270
 O717 O 0.96304 1.01615 0.43475
 C718 C 0.93821 1.02988 0.44021
 O719 O 0.93531 1.04544 0.53144
 O720 O 0.96935 1.02652 0.55941
 C721 C 0.94571 1.04191 0.55388
 O722 O 1.04167 1.05657 0.45884
 O723 O 1.01622 1.02560 0.43279
 C724 C 1.03491 1.04662 0.43694
 Zr725 Zr 1.02586 1.04472 0.49424
 O726 O 1.01040 1.08733 0.49053
 O727 O 1.07159 1.05885 0.49459
 Zr728 Zr 0.95161 1.02980 0.49710
 O729 O 0.94561 1.07447 0.49352
 O730 O 0.90427 1.02292 0.50147
 O731 O 0.98850 1.04424 0.51783
 O732 O 0.98674 1.04076 0.47326
 O733 O 1.06067 0.96209 0.46265
 O734 O 1.02521 0.97878 0.43479
 C735 C 1.05019 0.96534 0.44021
 O736 O 0.95968 0.94295 0.53636
 O737 O 0.98032 0.97724 0.56203
 C738 C 0.96611 0.95329 0.55820
 O739 O 0.95113 0.94112 0.46751
 O740 O 0.97289 0.96888 0.43708
 C741 C 0.95581 0.94787 0.44443
 O742 O 1.06191 0.96403 0.53195
 O743 O 1.03009 0.98647 0.55977
 C744 C 1.05340 0.97054 0.55441
 Zr745 Zr 1.04245 0.97450 0.49736
 O746 O 1.05255 0.93020 0.49654
 O747 O 1.08953 0.98436 0.49810
 Zr748 Zr 0.96766 0.95952 0.50053
 O749 O 0.97758 0.91520 0.49914
 O750 O 0.92097 0.95006 0.50597
 Zr751 Zr 0.99862 1.00468 0.53467
 Zr752 Zr 0.99530 0.99923 0.45988
 O753 O 1.00519 0.96011 0.47744
 O754 O 1.00737 0.96298 0.52142
 O755 O 1.03918 1.00910 0.47346
 O756 O 0.95498 0.99514 0.52079
 O757 O 1.04077 1.01232 0.51734
 O758 O 0.95269 0.99181 0.47685
 H759 H 0.98294 1.05612 0.46092
 H760 H 0.93798 0.99248 0.53273
 H761 H 1.00822 0.94282 0.46697
 H762 H 1.05879 1.01670 0.52784
 H763 H 0.89873 1.00643 0.49079
 H764 H 0.90940 0.95945 0.49244
 H765 H 0.99236 0.91107 0.51259
 H766 H 1.04280 0.92137 0.51126
 H767 H 1.09431 0.99535 0.48283
 H768 H 1.08437 1.04162 0.49256
 H769 H 1.02894 1.09920 0.48861
 H770 H 0.92333 1.07780 0.49372
 O771 O 0.53533 0.44388 -0.03954
 O772 O 0.51105 0.47587 -0.06522
 C773 C 0.52679 0.45280 -0.06130
 O774 O 0.43687 0.46141 0.03748
 O775 O 0.47334 0.48028 0.06348
 C776 C 0.44851 0.46596 0.05939
 O777 O 0.43211 0.45944 -0.03162
 O778 O 0.46019 0.48325 -0.06113
 C779 C 0.43852 0.46599 -0.05451
 O780 O 0.54876 0.44597 0.02875
 O781 O 0.52654 0.47346 0.05929
 C782 C 0.54477 0.45328 0.05187
 Zr783 Zr 0.52854 0.46165 -0.00399
 O784 O 0.51836 0.41748 -0.00247
 O785 O 0.57519 0.45330 -0.01074
 Zr786 Zr 0.45356 0.47161 0.00182
 O787 O 0.45287 0.42640 0.00160
 O788 O 0.40555 0.47286 0.00490
 O789 O 0.48771 0.46186 -0.02354
 O790 O 0.49266 0.46075 0.02091
 O791 O 0.56236 0.54297 0.03058
 O792 O 0.53294 0.52094 0.06020
 C793 C 0.55597 0.53648 0.05347
 O794 O 0.44875 0.56193 -0.03041
 O795 O 0.46848 0.53244 -0.06067
 C796 C 0.45284 0.55453 -0.05350
 O797 O 0.45150 0.55645 0.03873
 O798 O 0.48028 0.52768 0.06418
 C799 C 0.46057 0.54788 0.06046
 O800 O 0.55054 0.55040 -0.03765
 O801 O 0.51839 0.52658 -0.06437
 C802 C 0.53971 0.54507 -0.05967
 Zr803 Zr 0.53967 0.53277 -0.00283
 O804 O 0.54968 0.57684 0.00088
 O805 O 0.58630 0.52462 -0.01015
 Zr806 Zr 0.46417 0.54293 0.00283
 O807 O 0.47191 0.58747 0.00675
 O808 O 0.41657 0.55000 0.00359
 Zr809 Zr 0.49249 0.50355 -0.03790
 Zr810 Zr 0.50052 0.50125 0.03678
 O811 O 0.50502 0.54258 0.02181
 O812 O 0.50034 0.54426 -0.02201
 O813 O 0.54255 0.49577 0.01833
 O814 O 0.45089 0.50873 -0.01895
 O815 O 0.53747 0.49718 -0.02572
 O816 O 0.45523 0.50741 0.02484
 H817 H 0.49146 0.44400 0.03217
 H818 H 0.43201 0.51163 -0.02875
 H819 H 0.50858 0.55892 0.03329
 H820 H 0.55364 0.49528 -0.03853
 H821 H 0.39894 0.49213 -0.00034
 H822 H 0.40783 0.53658 0.01592
 H823 H 0.48170 0.59431 -0.00875
 H824 H 0.53248 0.58740 -0.00662
 H825 H 0.59496 0.51479 0.00457
 H826 H 0.58698 0.46686 -0.00035
 H827 H 0.53809 0.40733 -0.00405
 H828 H 0.43134 0.42086 0.00424
 C829 C 0.33279 1.14548 0.13201
 C830 C 0.31904 1.17174 0.12649
 C831 C 0.30850 1.18952 0.14574
 C832 C 0.31160 1.18137 0.17094
 C833 C 0.32564 1.15497 0.17630
 C834 C 0.33616 1.13723 0.15699
 C835 C 0.34463 1.12765 0.11213
 C836 C 0.35567 1.11333 0.09559
 C837 C 0.37091 1.09726 0.07615
 C838 C 0.36537 1.06793 0.07258
 C839 C 0.38368 1.05192 0.05613
 C840 C 0.40786 1.06513 0.04342
 C841 C 0.41202 1.09482 0.04605
 C842 C 0.39366 1.11073 0.06221
 H843 H 0.31650 1.17852 0.10727
 H844 H 0.29778 1.20959 0.14082
 H845 H 0.32836 1.14790 0.19541
 H846 H 0.34698 1.11708 0.16157
 H847 H 0.34790 1.05720 0.08332
 H848 H 0.38034 1.02901 0.05473
 H849 H 0.43056 1.10549 0.03653
 H850 H 0.39823 1.13334 0.06475
 C851 C 0.83806 0.65195 0.63326
 C852 C 0.82299 0.67752 0.62756
 C853 C 0.81234 0.69539 0.64672
 C854 C 0.81663 0.68799 0.67198
 C855 C 0.83218 0.66240 0.67749
 C856 C 0.84280 0.64458 0.65829
 C857 C 0.84954 0.63373 0.61350
 C858 C 0.86022 0.61887 0.59717
 C859 C 0.87501 0.60199 0.57800
 C860 C 0.86834 0.57283 0.57470
 C861 C 0.88605 0.55597 0.55846
 C862 C 0.91079 0.56816 0.54568
 C863 C 0.91616 0.59771 0.54811
 C864 C 0.89839 0.61446 0.56406
 H865 H 0.81938 0.68363 0.60828
 H866 H 0.80041 0.71482 0.64170
 H867 H 0.83585 0.65590 0.69665
 H868 H 0.85465 0.62499 0.66300
 H869 H 0.85037 0.56287 0.58545
 H870 H 0.88177 0.53319 0.55721
 H871 H 0.93513 0.60763 0.53852
 H872 H 0.90385 0.63692 0.56640
 C873 C 0.67631 0.86038 0.13901
 C874 C 0.69049 0.83486 0.13166
 C875 C 0.70112 0.81555 0.14967
 C876 C 0.69762 0.82144 0.17536
 C877 C 0.68335 0.84720 0.18248
 C878 C 0.67280 0.86643 0.16447
 C879 C 0.66386 0.87986 0.12073
 C880 C 0.65183 0.89638 0.10644
 C881 C 0.63499 0.91607 0.09091
 C882 C 0.61018 0.93049 0.10138
 C883 C 0.59100 0.94687 0.08638
 C884 C 0.59631 0.94930 0.06059
 C885 C 0.62225 0.93617 0.05027
 C886 C 0.64144 0.91943 0.06538
 H887 H 0.69315 0.82979 0.11203
 H888 H 0.71203 0.79601 0.14346
 H889 H 0.68027 0.85256 0.20200
 H890 H 0.66166 0.88598 0.17044
 H891 H 0.60492 0.92816 0.12104
 H892 H 0.57122 0.95682 0.09483
 H893 H 0.62662 0.93745 0.03040
 H894 H 0.66055 0.90832 0.05702
 C895 C 1.17208 0.35568 0.63813
 C896 C 1.18839 0.33119 0.63106
 C897 C 1.19906 0.31209 0.64924
 C898 C 1.19355 0.31717 0.67483
 C899 C 1.17689 0.34173 0.68165
 C900 C 1.16628 0.36075 0.66347
 C901 C 1.16044 0.37541 0.61965
 C902 C 1.14931 0.39233 0.60521
 C903 C 1.13372 0.41278 0.58949
 C904 C 1.11133 0.43016 0.60024
 C905 C 1.09295 0.44737 0.58525
 C906 C 1.09671 0.44772 0.55919
 C907 C 1.12042 0.43162 0.54848
 C908 C 1.13877 0.41404 0.56360
 H909 H 1.19289 0.32687 0.61152
 H910 H 1.21183 0.29347 0.64325
 H911 H 1.17219 0.34645 0.70108
 H912 H 1.15353 0.37949 0.66923
 H913 H 1.10715 0.42947 0.62017
 H914 H 1.07479 0.45953 0.59394
 H915 H 1.12345 0.43120 0.52841
 H916 H 1.15597 0.40064 0.55501
 C917 C 0.66575 1.14503 -0.13727
 C918 C 0.65955 1.14046 -0.16263
 C919 C 0.66957 1.16000 -0.18059
 C920 C 0.68604 1.18462 -0.17357
 C921 C 0.69172 1.18934 -0.14795
 C922 C 0.68165 1.16968 -0.12997
 C923 C 0.65525 1.12438 -0.11908
 C924 C 0.64519 1.10657 -0.10493
 C925 C 0.63098 1.08496 -0.08949
 C926 C 0.63614 1.08357 -0.06362
 C927 C 0.61885 1.06490 -0.04870
 C928 C 0.59607 1.04775 -0.05956
 C929 C 0.59235 1.04818 -0.08564
 C930 C 0.60970 1.06652 -0.10044
 H931 H 0.64711 1.12162 -0.16857
 H932 H 0.66474 1.15553 -0.20005
 H933 H 0.70441 1.20794 -0.14182
 H934 H 0.68647 1.17361 -0.11041
 H935 H 0.65249 1.09777 -0.05486
 H936 H 0.62176 1.06535 -0.02861
 H937 H 0.57482 1.03532 -0.09444
 H938 H 0.60543 1.06728 -0.12036
 C939 C 1.17196 0.63739 0.36084
 C940 C 1.16923 0.63122 0.33534
 C941 C 1.17973 0.65063 0.31749
 C942 C 1.19318 0.67671 0.32480
 C943 C 1.19572 0.68282 0.35052
 C944 C 1.18514 0.66331 0.36839
 C945 C 1.16001 0.61743 0.37893
 C946 C 1.14857 0.60042 0.39309
 C947 C 1.13259 0.58010 0.40859
 C948 C 1.13907 0.57721 0.43415
 C949 C 1.12054 0.55994 0.44931
 C950 C 1.09520 0.54578 0.43900
 C951 C 1.08994 0.54768 0.41316
 C952 C 1.10850 0.56462 0.39811
 H953 H 1.15887 0.61135 0.32922
 H954 H 1.17741 0.64508 0.29793
 H955 H 1.20602 0.70260 0.35688
 H956 H 1.18720 0.66847 0.38805
 H957 H 1.15762 0.58915 0.44251
 H958 H 1.12480 0.55912 0.46922
 H959 H 1.07057 0.53699 0.40475
 H960 H 1.10323 0.56659 0.37842
 C961 C 0.32948 0.85248 -0.13373
 C962 C 0.31285 0.82773 -0.12818
 C963 C 0.30073 0.81083 -0.14744
 C964 C 0.30508 0.81835 -0.17267
 C965 C 0.32196 0.84322 -0.17804
 C966 C 0.33406 0.86009 -0.15874
 C967 C 0.34287 0.86941 -0.11387
 C968 C 0.35513 0.88307 -0.09745
 C969 C 0.37171 0.89844 -0.07826
 C970 C 0.36485 0.92701 -0.07225
 C971 C 0.38370 0.94252 -0.05583
 C972 C 0.40978 0.92964 -0.04554
 C973 C 0.41547 0.90058 -0.05072
 C974 C 0.39661 0.88517 -0.06687
 H975 H 0.30932 0.82144 -0.10895
 H976 H 0.28785 0.79192 -0.14251
 H977 H 0.32575 0.84977 -0.19717
 H978 H 0.34707 0.87904 -0.16335
 H979 H 0.34567 0.93760 -0.08098
 H980 H 0.37900 0.96495 -0.05242
 H981 H 0.43535 0.89006 -0.04304
 H982 H 0.40222 0.86314 -0.07127
 C983 C 0.82814 0.35459 0.36851
 C984 C 0.81256 0.32924 0.37401
 C985 C 0.80162 0.31171 0.35472
 C986 C 0.80613 0.31919 0.32951
 C987 C 0.82181 0.34477 0.32418
 C988 C 0.83273 0.36226 0.34352
 C989 C 0.84074 0.37192 0.38844
 C990 C 0.85248 0.38575 0.40500
 C991 C 0.86858 0.40116 0.42443
 C992 C 0.86314 0.43033 0.42902
 C993 C 0.88203 0.44571 0.44550
 C994 C 0.90672 0.43206 0.45723
 C995 C 0.91084 0.40250 0.45353
 C996 C 0.89191 0.38722 0.43734
 H997 H 0.80904 0.32291 0.39324
 H998 H 0.78961 0.29229 0.35961
 H999 H 0.82566 0.35131 0.30506
 H1000 H 0.84495 0.38169 0.33896
 H1001 H 0.84522 0.44143 0.41909
 H1002 H 0.87866 0.46854 0.44772
 H1003 H 0.92972 0.39147 0.46228
 H1004 H 0.89642 0.36473 0.43401
 C1005 C 1.16026 0.34147 0.13422
 C1006 C 1.18389 0.32270 0.12783
 C1007 C 1.20241 0.31088 0.14649
 C1008 C 1.19753 0.31761 0.17188
 C1009 C 1.17432 0.33722 0.17796
 C1010 C 1.15590 0.34900 0.15930
 C1011 C 1.14007 0.35294 0.11538
 C1012 C 1.12248 0.36364 0.10072
 C1013 C 1.10098 0.37849 0.08491
 C1014 C 1.09858 0.37276 0.05919
 C1015 C 1.07972 0.38981 0.04402
 C1016 C 1.06351 0.41280 0.05453
 C1017 C 1.06506 0.41744 0.08043
 C1018 C 1.08351 0.40040 0.09547
 H1019 H 1.18765 0.31679 0.10850
 H1020 H 1.21995 0.29581 0.14106
 H1021 H 1.16978 0.34291 0.19722
 H1022 H 1.13783 0.36364 0.16451
 H1023 H 1.11203 0.35588 0.05076
 H1024 H 1.07922 0.38615 0.02404
 H1025 H 1.05285 0.43511 0.08892
 H1026 H 1.08505 0.40506 0.11527
 C1027 C 0.65584 0.84004 0.63558
 C1028 C 0.68077 0.82288 0.62911
 C1029 C 0.69983 0.81183 0.64776
 C1030 C 0.69416 0.81778 0.67318
 C1031 C 0.66955 0.83577 0.67934
 C1032 C 0.65061 0.84678 0.66070
 C1033 C 0.63535 0.85090 0.61675
 C1034 C 0.61753 0.86118 0.60209
 C1035 C 0.59585 0.87563 0.58625
 C1036 C 0.59391 0.86999 0.56050
 C1037 C 0.57523 0.88700 0.54521
 C1038 C 0.55874 0.90984 0.55564
 C1039 C 0.55972 0.91434 0.58157
 C1040 C 0.57801 0.89731 0.59674
 H1041 H 0.68519 0.81765 0.60973
 H1042 H 0.71843 0.79797 0.64229
 H1043 H 0.66438 0.84080 0.69863
 H1044 H 0.63152 0.86020 0.66595
 H1045 H 0.60769 0.85329 0.55215
 H1046 H 0.57517 0.88351 0.52521
 H1047 H 0.54732 0.93196 0.58996
 H1048 H 0.57924 0.90191 0.61656
 C1049 C 1.14800 0.66513 -0.13828
 C1050 C 1.14104 0.65996 -0.16339
 C1051 C 1.15857 0.67230 -0.18233
 C1052 C 1.18354 0.69029 -0.17652
 C1053 C 1.19065 0.69468 -0.15098
 C1054 C 1.17302 0.68225 -0.13216
 C1055 C 1.13019 0.65197 -0.11882
 C1056 C 1.11594 0.63991 -0.10271
 C1057 C 1.10018 0.62351 -0.08396
 C1058 C 1.11394 0.59861 -0.07505
 C1059 C 1.09803 0.58039 -0.05920
 C1060 C 1.06802 0.58674 -0.05187
 C1061 C 1.05476 0.61257 -0.05972
 C1062 C 1.07076 0.63083 -0.07589
 H1063 H 1.12193 0.64641 -0.16836
 H1064 H 1.15209 0.66803 -0.20151
 H1065 H 1.20959 0.70807 -0.14533
 H1066 H 1.17889 0.68610 -0.11278
 H1067 H 1.13665 0.59272 -0.08108
 H1068 H 1.10890 0.56072 -0.05329
 H1069 H 1.03161 0.61783 -0.05448
 H1070 H 1.05984 0.65006 -0.08272
 C1071 C 0.65327 1.16038 0.36402
 C1072 C 0.64754 1.15435 0.33883
 C1073 C 0.66591 1.16623 0.32020
 C1074 C 0.69036 1.18436 0.32652
 C1075 C 0.69631 1.18979 0.35197
 C1076 C 0.67790 1.17787 0.37054
 C1077 C 0.63450 1.14777 0.38312
 C1078 C 0.61933 1.13602 0.39884
 C1079 C 0.60248 1.11979 0.41703
 C1080 C 0.61523 1.09442 0.42591
 C1081 C 0.59831 1.07636 0.44116
 C1082 C 0.56826 1.08336 0.44793
 C1083 C 0.55597 1.10961 0.44012
 C1084 C 0.57300 1.12771 0.42453
 H1085 H 0.62874 1.14059 0.33355
 H1086 H 0.66055 1.16165 0.30086
 H1087 H 0.71487 1.20366 0.35757
 H1088 H 0.68278 1.18243 0.38999
 H1089 H 0.63797 1.08806 0.42031
 H1090 H 0.60847 1.05638 0.44711
 H1091 H 0.53284 1.11539 0.44500
 H1092 H 0.56287 1.14732 0.41771
 C1093 C 0.84518 0.65870 0.13366
 C1094 C 0.82303 0.67907 0.12760
 C1095 C 0.80395 0.69023 0.14622
 C1096 C 0.80685 0.68121 0.17123
 C1097 C 0.82854 0.66001 0.17689
 C1098 C 0.84751 0.64890 0.15827
 C1099 C 0.86610 0.64801 0.11502
 C1100 C 0.88432 0.63793 0.10056
 C1101 C 0.90660 0.62383 0.08497
 C1102 C 0.92651 0.60431 0.09609
 C1103 C 0.94543 0.58729 0.08135
 C1104 C 0.94498 0.58967 0.05522
 C1105 C 0.92638 0.61048 0.04406
 C1106 C 0.90707 0.62745 0.05893
 H1107 H 0.82089 0.68674 0.10861
 H1108 H 0.78760 0.70654 0.14113
 H1109 H 0.83151 0.65256 0.19587
 H1110 H 0.86446 0.63304 0.16319
 H1111 H 0.92639 0.60125 0.11614
 H1112 H 0.95942 0.57120 0.09029
 H1113 H 0.92530 0.61225 0.02391
 H1114 H 0.89168 0.64243 0.05009
 C1115 C 0.35000 1.16136 0.63448
 C1116 C 0.32624 1.18002 0.62833
 C1117 C 0.30744 1.19120 0.64712
 C1118 C 0.31220 1.18388 0.67236
 C1119 C 0.33570 1.16453 0.67819
 C1120 C 0.35439 1.15340 0.65940
 C1121 C 0.37010 1.15015 0.61552
 C1122 C 0.38758 1.13947 0.60079
 C1123 C 0.40889 1.12449 0.58497
 C1124 C 0.42780 1.10398 0.59587
 C1125 C 0.44566 1.08621 0.58094
 C1126 C 0.44511 1.08881 0.55484
 C1127 C 0.42754 1.11052 0.54388
 C1128 C 0.40928 1.12826 0.55895
 H1129 H 0.32248 1.18621 0.60910
 H1130 H 0.28966 1.20608 0.64191
 H1131 H 0.34012 1.15842 0.69734
 H1132 H 0.37260 1.13883 0.66438
 H1133 H 0.42772 1.10082 0.61592
 H1134 H 0.45893 1.06947 0.58973
 H1135 H 0.42646 1.11252 0.52375
 H1136 H 0.39463 1.14401 0.55028
 C1137 C 0.84172 0.34160 -0.13206
 C1138 C 0.81799 0.32283 -0.12601
 C1139 C 0.79930 0.31156 -0.14489
 C1140 C 0.80413 0.31886 -0.17012
 C1141 C 0.82748 0.33842 -0.17582
 C1142 C 0.84605 0.34964 -0.15697
 C1143 C 0.86203 0.35267 -0.11309
 C1144 C 0.87983 0.36323 -0.09848
 C1145 C 0.90163 0.37807 -0.08290
 C1146 C 0.90446 0.37257 -0.05721
 C1147 C 0.92360 0.38972 -0.04228
 C1148 C 0.93966 0.41258 -0.05302
 C1149 C 0.93771 0.41697 -0.07891
 C1150 C 0.91897 0.39983 -0.09370
 H1151 H 0.81426 0.31654 -0.10680
 H1152 H 0.78166 0.29649 -0.13977
 H1153 H 0.83197 0.34455 -0.19495
 H1154 H 0.86420 0.36428 -0.16190
 H1155 H 0.89112 0.35578 -0.04861
 H1156 H 0.92446 0.38623 -0.02230
 H1157 H 0.94983 0.43452 -0.08758
 H1158 H 0.91711 0.40433 -0.11349
 C1159 C 0.33802 0.84097 0.36897
 C1160 C 0.31613 0.82021 0.37464
 C1161 C 0.29775 0.80874 0.35568
 C1162 C 0.30113 0.81782 0.33073
 C1163 C 0.32244 0.83948 0.32548
 C1164 C 0.34068 0.85091 0.34444
 C1165 C 0.35850 0.85185 0.38784
 C1166 C 0.37653 0.86226 0.40229
 C1167 C 0.39865 0.87697 0.41757
 C1168 C 0.40185 0.87147 0.44323
 C1169 C 0.42133 0.88854 0.45790
 C1170 C 0.43733 0.91129 0.44693
 C1171 C 0.43500 0.91566 0.42107
 C1172 C 0.41593 0.89860 0.40653
 H1173 H 0.31374 0.81242 0.39358
 H1174 H 0.28170 0.79205 0.36043
 H1175 H 0.32574 0.84701 0.30657
 H1176 H 0.35742 0.86709 0.33982
 H1177 H 0.38854 0.85478 0.45200
 H1178 H 0.42249 0.88509 0.47787
 H1179 H 0.44708 0.93313 0.41224
 H1180 H 0.41376 0.90306 0.38676
 C1181 C 1.12967 1.15157 0.34114
 C1182 C 1.12194 1.15903 0.31677
 C1183 C 1.14124 1.17655 0.30302
 C1184 C 1.16864 1.18676 0.31349
 C1185 C 1.17563 1.18015 0.33840
 C1186 C 1.15621 1.16250 0.35215
 C1187 C 1.11130 1.13143 0.35436
 C1188 C 1.09691 1.11418 0.36599
 C1189 C 1.08165 1.09389 0.38147
 C1190 C 1.05131 1.08592 0.37707
 C1191 C 1.03605 1.06866 0.39438
 C1192 C 1.05115 1.05985 0.41614
 C1193 C 1.08195 1.06679 0.41963
 C1194 C 1.09711 1.08365 0.40237
 H1195 H 1.10140 1.15073 0.30818
 H1196 H 1.13502 1.18150 0.28395
 H1197 H 1.19654 1.18767 0.34691
 H1198 H 1.16228 1.15676 0.37110
 H1199 H 1.03924 1.09384 0.36086
 H1200 H 1.01223 1.06360 0.39154
 H1201 H 1.09400 1.05999 0.43625
 H1202 H 1.12058 1.08964 0.40585
 C1203 C 0.63626 0.64469 -0.15945
 C1204 C 0.63450 0.64406 -0.18542
 C1205 C 0.65320 0.66181 -0.19949
 C1206 C 0.67402 0.68048 -0.18774
 C1207 C 0.67559 0.68102 -0.16153
 C1208 C 0.65673 0.66318 -0.14745
 C1209 C 0.61684 0.62650 -0.14512
 C1210 C 0.60073 0.61172 -0.13247
 C1211 C 0.58237 0.59538 -0.11572
 C1212 C 0.57209 0.56785 -0.12193
 C1213 C 0.55674 0.55142 -0.10406
 C1214 C 0.55220 0.56248 -0.07995
 C1215 C 0.56154 0.59053 -0.07438
 C1216 C 0.57648 0.60685 -0.09216
 H1217 H 0.61869 0.62982 -0.19481
 H1218 H 0.65136 0.66071 -0.21964
 H1219 H 0.69137 0.69509 -0.15196
 H1220 H 0.65813 0.66376 -0.12726
 H1221 H 0.57663 0.55887 -0.14023
 H1222 H 0.54967 0.52983 -0.10867
 H1223 H 0.55783 0.59969 -0.05601
 H1224 H 0.58424 0.62816 -0.08726
 C1225 C 0.86101 1.15160 0.65399
 C1226 C 0.83821 1.16872 0.64354
 C1227 C 0.82122 1.18705 0.65873
 C1228 C 0.82686 1.18825 0.68455
 C1229 C 0.85059 1.17161 0.69466
 C1230 C 0.86750 1.15337 0.67945
 C1231 C 0.87660 1.13110 0.63884
 C1232 C 0.88884 1.11369 0.62576
 C1233 C 0.90228 1.09330 0.60918
 C1234 C 0.88692 1.08629 0.58717
 C1235 C 0.90061 1.06843 0.56967
 C1236 C 0.92989 1.05735 0.57401
 C1237 C 0.94471 1.06347 0.59669
 C1238 C 0.93093 1.08153 0.61421
 H1239 H 0.83310 1.16738 0.62377
 H1240 H 0.80314 1.19957 0.65039
 H1241 H 0.85567 1.17211 0.71445
 H1242 H 0.88513 1.14015 0.68764
 H1243 H 0.86468 1.09527 0.58323
 H1244 H 0.88858 1.06394 0.55243
 H1245 H 0.96737 1.05536 0.60040
 H1246 H 0.94292 1.08692 0.63128
 C1247 C 0.37655 0.66155 0.15542
 C1248 C 0.34942 0.67168 0.14490
 C1249 C 0.32984 0.68884 0.15901
 C1250 C 0.33724 0.69570 0.18382
 C1251 C 0.36539 0.68668 0.19368
 C1252 C 0.38489 0.66963 0.17956
 C1253 C 0.39420 0.64064 0.14237
 C1254 C 0.40743 0.62231 0.13100
 C1255 C 0.42074 0.60030 0.11602
 C1256 C 0.40260 0.58741 0.09778
 C1257 C 0.41554 0.56865 0.08069
 C1258 C 0.44675 0.56247 0.08176
 C1259 C 0.46464 0.57394 0.10106
 C1260 C 0.45161 0.59308 0.11816
 H1261 H 0.34284 0.66536 0.12617
 H1262 H 0.30832 0.69545 0.15098
 H1263 H 0.37190 0.69190 0.21267
 H1264 H 0.40584 0.66185 0.18780
 H1265 H 0.37868 0.59283 0.09610
 H1266 H 0.40144 0.55990 0.06591
 H1267 H 0.48883 0.56959 0.10190
 H1268 H 0.46575 0.60304 0.13231
 C1269 C 1.13932 0.86118 0.65203
 C1270 C 1.16065 0.84249 0.64150
 C1271 C 1.17594 0.82281 0.65658
 C1272 C 1.17026 0.82192 0.68253
 C1273 C 1.14754 0.84024 0.69247
 C1274 C 1.13237 0.85966 0.67733
 C1275 C 1.12530 0.88282 0.63722
 C1276 C 1.11375 0.90117 0.62484
 C1277 C 1.10039 0.92244 0.60924
 C1278 C 1.11496 0.92958 0.58698
 C1279 C 1.10037 0.94710 0.56982
 C1280 C 1.07096 0.95760 0.57475
 C1281 C 1.05726 0.95191 0.59791
 C1282 C 1.07194 0.93420 0.61510
 H1283 H 1.16595 0.84356 0.62177
 H1284 H 1.19288 0.80911 0.64797
 H1285 H 1.14180 0.84025 0.71215
 H1286 H 1.11569 0.87398 0.68552
 H1287 H 1.13701 0.92056 0.58239
 H1288 H 1.11153 0.95132 0.55217
 H1289 H 1.03454 0.95961 0.60205
 H1290 H 1.06058 0.92871 0.63238
 C1291 C 0.63949 0.34715 0.14840
 C1292 C 0.66627 0.33454 0.13944
 C1293 C 0.68339 0.31678 0.15496
 C1294 C 0.67379 0.31171 0.17958
 C1295 C 0.64623 0.32375 0.18801
 C1296 C 0.62923 0.34139 0.17249
 C1297 C 0.62303 0.36683 0.13323
 C1298 C 0.60950 0.38343 0.12034
 C1299 C 0.59407 0.40264 0.10403
 C1300 C 0.60381 0.40452 0.07933
 C1301 C 0.58807 0.42168 0.06261
 C1302 C 0.56234 0.43721 0.07044
 C1303 C 0.55320 0.43598 0.09556
 C1304 C 0.56902 0.41859 0.11233
 H1305 H 0.67424 0.33897 0.12070
 H1306 H 0.70455 0.30790 0.14804
 H1307 H 0.63810 0.32008 0.20682
 H1308 H 0.60843 0.35102 0.17946
 H1309 H 0.62328 0.39231 0.07286
 H1310 H 0.59588 0.42248 0.04344
 H1311 H 0.53343 0.44773 0.10200
 H1312 H 0.56146 0.41717 0.13154
 C1313 C 0.86866 0.82901 0.35482
 C1314 C 0.83962 0.82114 0.36310
 C1315 C 0.82087 0.80450 0.34782
 C1316 C 0.83111 0.79601 0.32411
 C1317 C 0.86106 0.80254 0.31672
 C1318 C 0.87973 0.81902 0.33202
 C1319 C 0.88575 0.84976 0.36843
 C1320 C 0.89888 0.86798 0.37992
 C1321 C 0.91267 0.88984 0.39467
 C1322 C 0.89874 0.89737 0.41712
 C1323 C 0.91238 0.91733 0.43270
 C1324 C 0.94015 0.93006 0.42596
 C1325 C 0.95344 0.92347 0.40281
 C1326 C 0.93973 0.90318 0.38718
 H1327 H 0.83097 0.82896 0.38080
 H1328 H 0.79788 0.79980 0.35387
 H1329 H 0.86963 0.79592 0.29864
 H1330 H 0.90222 0.82504 0.32557
 H1331 H 0.87762 0.88731 0.42285
 H1332 H 0.90153 0.92237 0.45034
 H1333 H 0.97488 0.93302 0.39738
 H1334 H 0.95047 0.89746 0.36966
 C1335 C 0.35319 0.34893 -0.14593
 C1336 C 0.32615 0.33614 -0.13782
 C1337 C 0.31166 0.31582 -0.15286
 C1338 C 0.32410 0.30846 -0.17618
 C1339 C 0.35218 0.32031 -0.18344
 C1340 C 0.36661 0.34046 -0.16837
 C1341 C 0.36637 0.37196 -0.13207
 C1342 C 0.37740 0.39142 -0.12058
 C1343 C 0.39058 0.41402 -0.10621
 C1344 C 0.37658 0.42229 -0.08395
 C1345 C 0.39140 0.44108 -0.06783
 C1346 C 0.42040 0.45174 -0.07389
 C1347 C 0.43342 0.44491 -0.09710
 C1348 C 0.41856 0.42591 -0.11318
 H1349 H 0.31574 0.34262 -0.12036
 H1350 H 0.28998 0.30714 -0.14692
 H1351 H 0.36239 0.31483 -0.20123
 H1352 H 0.38766 0.35016 -0.17465
 H1353 H 0.35488 0.41321 -0.07849
 H1354 H 0.38082 0.44621 -0.05009
 H1355 H 0.45584 0.45268 -0.10203
 H1356 H 0.42949 0.41951 -0.13045
 C1357 C 1.14635 0.32832 -0.13358
 C1358 C 1.14050 0.33417 -0.15874
 C1359 C 1.15928 0.32292 -0.17738
 C1360 C 1.18436 0.30556 -0.17119
 C1361 C 1.19020 0.29989 -0.14578
 C1362 C 1.17133 0.31126 -0.12711
 C1363 C 1.12721 0.34114 -0.11475
 C1364 C 1.11076 0.35374 -0.10039
 C1365 C 1.09111 0.37150 -0.08536
 C1366 C 1.07952 0.39641 -0.09613
 C1367 C 1.06292 0.41576 -0.08178
 C1368 C 1.05744 0.41055 -0.05634
 C1369 C 1.06778 0.38483 -0.04575
 C1370 C 1.08479 0.36540 -0.06022
 H1371 H 1.12140 0.34755 -0.16397
 H1372 H 1.15396 0.32771 -0.19667
 H1373 H 1.20924 0.28658 -0.14032
 H1374 H 1.17626 0.30679 -0.10768
 H1375 H 1.08413 0.40135 -0.11553
 H1376 H 1.05501 0.43530 -0.09048
 H1377 H 1.06400 0.38046 -0.02614
 H1378 H 1.09368 0.34615 -0.05169
 C1379 C 0.64873 0.83078 0.36639
 C1380 C 0.64608 0.83989 0.34161
 C1381 C 0.66517 0.82868 0.32314
 C1382 C 0.68737 0.80806 0.32910
 C1383 C 0.69027 0.79936 0.35419
 C1384 C 0.67107 0.81066 0.37269
 C1385 C 0.62851 0.84263 0.38502
 C1386 C 0.61105 0.85415 0.39931
 C1387 C 0.59002 0.87036 0.41452
 C1388 C 0.57439 0.89306 0.40342
 C1389 C 0.55688 0.91157 0.41795
 C1390 C 0.55449 0.90766 0.44388
 C1391 C 0.56871 0.88387 0.45488
 C1392 C 0.58663 0.86535 0.44023
 H1393 H 0.62903 0.85558 0.33650
 H1394 H 0.66217 0.83590 0.30410
 H1395 H 0.70701 0.78348 0.35948
 H1396 H 0.67349 0.80354 0.39182
 H1397 H 0.57673 0.89717 0.38361
 H1398 H 0.54611 0.92973 0.40903
 H1399 H 0.56747 0.88064 0.47487
 H1400 H 0.59867 0.84786 0.44905
 C1401 C 0.85196 0.66464 -0.13417
 C1402 C 0.86039 0.66066 -0.15916
 C1403 C 0.84244 0.67189 -0.17840
 C1404 C 0.81565 0.68729 -0.17297
 C1405 C 0.80722 0.69091 -0.14775
 C1406 C 0.82522 0.67966 -0.12855
 C1407 C 0.87003 0.65227 -0.11440
 C1408 C 0.88459 0.64079 -0.09809
 C1409 C 0.90084 0.62507 -0.07909
 C1410 C 0.88637 0.60188 -0.06773
 C1411 C 0.90265 0.58377 -0.05195
 C1412 C 0.93373 0.58856 -0.04714
 C1413 C 0.94780 0.61289 -0.05732
 C1414 C 0.93143 0.63099 -0.07340
 H1415 H 0.88088 0.64887 -0.16378
 H1416 H 0.84974 0.66872 -0.19752
 H1417 H 0.78684 0.70267 -0.14280
 H1418 H 0.81827 0.68267 -0.10931
 H1419 H 0.86278 0.59704 -0.07191
 H1420 H 0.89120 0.56524 -0.04428
 H1421 H 0.97178 0.61688 -0.05410
 H1422 H 0.94292 0.64886 -0.08213
 C1423 C 0.35046 1.16081 0.36459
 C1424 C 0.35732 1.15512 0.33953
 C1425 C 0.33896 1.16619 0.32045
 C1426 C 0.31334 1.18315 0.32613
 C1427 C 0.30640 1.18840 0.35144
 C1428 C 0.32480 1.17729 0.37047
 C1429 C 0.36915 1.14891 0.38424
 C1430 C 0.38421 1.13793 0.40053
 C1431 C 0.40099 1.12289 0.41967
 C1432 C 0.38631 1.10116 0.43288
 C1433 C 0.40282 1.08349 0.44889
 C1434 C 0.43434 1.08730 0.45212
 C1435 C 0.44878 1.11027 0.44007
 C1436 C 0.43216 1.12791 0.42374
 H1437 H 0.37694 1.14219 0.33470
 H1438 H 0.34514 1.16176 0.30125
 H1439 H 0.28697 1.20141 0.35658
 H1440 H 0.31905 1.18166 0.38978
 H1441 H 0.36229 1.09701 0.42996
 H1442 H 0.39114 1.06594 0.45796
 H1443 H 0.47310 1.11339 0.44199
 H1444 H 0.44384 1.14462 0.41357
 C1445 C 1.15790 0.66346 0.13122
 C1446 C 1.18243 0.68161 0.12599
 C1447 C 1.20018 0.69276 0.14546
 C1448 C 1.19368 0.68585 0.17051
 C1449 C 1.16926 0.66718 0.17548
 C1450 C 1.15157 0.65610 0.15599
 C1451 C 1.13974 0.65157 0.11125
 C1452 C 1.12483 0.64040 0.09496
 C1453 C 1.10789 0.62493 0.07618
 C1454 C 1.07725 0.63128 0.07112
 C1455 C 1.06004 0.61322 0.05552
 C1456 C 1.07336 0.58851 0.04524
 C1457 C 1.10449 0.58327 0.04938
 C1458 C 1.12159 0.60134 0.06467
 H1459 H 1.18775 0.68726 0.10688
 H1460 H 1.21871 0.70710 0.14089
 H1461 H 1.16348 0.66143 0.19447
 H1462 H 1.13282 0.64186 0.16028
 H1463 H 1.06634 0.64942 0.08003
 H1464 H 1.03603 0.61751 0.05283
 H1465 H 1.11530 0.56439 0.04163
 H1466 H 1.14520 0.59614 0.06843
 C1467 C 0.65188 1.16571 0.63292
 C1468 C 0.67749 1.18242 0.62748
 C1469 C 0.69473 1.19449 0.64685
 C1470 C 0.68667 1.18996 0.67200
 C1471 C 0.66098 1.17294 0.67722
 C1472 C 0.64379 1.16093 0.65784
 C1473 C 0.63462 1.15238 0.61308
 C1474 C 0.62054 1.14002 0.59693
 C1475 C 0.60461 1.12324 0.57838
 C1476 C 0.61824 1.09819 0.56950
 C1477 C 0.60197 1.07951 0.55414
 C1478 C 0.57172 1.08557 0.54729
 C1479 C 0.55859 1.11154 0.55509
 C1480 C 0.57494 1.13023 0.57074
 H1481 H 0.68416 1.18608 0.60828
 H1482 H 0.71428 1.20749 0.64208
 H1483 H 0.65398 1.16903 0.69630
 H1484 H 0.62418 1.14784 0.66231
 H1485 H 0.64112 1.09250 0.57524
 H1486 H 0.61274 1.05973 0.54831
 H1487 H 0.53524 1.11657 0.55027
 H1488 H 0.56408 1.14953 0.57758
 C1489 C 0.85423 0.33716 0.13778
 C1490 C 0.82996 0.31938 0.13093
 C1491 C 0.81074 0.30804 0.14926
 C1492 C 0.81553 0.31436 0.17473
 C1493 C 0.83972 0.33266 0.18131
 C1494 C 0.85886 0.34393 0.16298
 C1495 C 0.87415 0.34921 0.11920
 C1496 C 0.89119 0.36079 0.10473
 C1497 C 0.91157 0.37705 0.08918
 C1498 C 0.91615 0.37035 0.06387
 C1499 C 0.93367 0.38856 0.04876
 C1500 C 0.94625 0.41370 0.05890
 C1501 C 0.94258 0.41942 0.08450
 C1502 C 0.92546 0.40123 0.09949
 H1503 H 0.82600 0.31418 0.11147
 H1504 H 0.79240 0.29401 0.14348
 H1505 H 0.84417 0.33799 0.20067
 H1506 H 0.87742 0.35788 0.16849
 H1507 H 0.90544 0.35166 0.05569
 H1508 H 0.93601 0.38387 0.02904
 H1509 H 0.95222 0.43856 0.09281
 H1510 H 0.92218 0.40662 0.11901
 C1511 C 0.34782 0.83702 0.63693
 C1512 C 0.32214 0.82109 0.63012
 C1513 C 0.30269 0.81007 0.64851
 C1514 C 0.30862 0.81476 0.67421
 C1515 C 0.33442 0.83140 0.68061
 C1516 C 0.35370 0.84228 0.66219
 C1517 C 0.36790 0.84898 0.61832
 C1518 C 0.38519 0.86054 0.60398
 C1519 C 0.40598 0.87677 0.58867
 C1520 C 0.41174 0.86963 0.56360
 C1521 C 0.42993 0.88761 0.54876
 C1522 C 0.44208 0.91297 0.55888
 C1523 C 0.43716 0.91914 0.58428
 C1524 C 0.41936 0.90121 0.59900
 H1525 H 0.31714 0.81712 0.61060
 H1526 H 0.28324 0.79760 0.64244
 H1527 H 0.34017 0.83586 0.69992
 H1528 H 0.37335 0.85482 0.66771
 H1529 H 0.40152 0.85073 0.55539
 H1530 H 0.43321 0.88250 0.52920
 H1531 H 0.44642 0.93841 0.59264
 H1532 H 0.41524 0.90694 0.61833
 C1533 C 0.33642 1.14341 -0.13697
 C1534 C 0.34364 1.13930 -0.16219
 C1535 C 0.33269 1.15817 -0.18034
 C1536 C 0.31425 1.18161 -0.17358
 C1537 C 0.30764 1.18593 -0.14807
 C1538 C 0.31864 1.16696 -0.12993
 C1539 C 0.34761 1.12338 -0.11859
 C1540 C 0.35822 1.10613 -0.10421
 C1541 C 0.37310 1.08522 -0.08854
 C1542 C 0.39477 1.06711 -0.09936
 C1543 C 0.41264 1.04941 -0.08441
 C1544 C 0.40903 1.04930 -0.05835
 C1545 C 0.38599 1.06615 -0.04755
 C1546 C 0.36817 1.08421 -0.06263
 H1547 H 0.35754 1.12127 -0.16791
 H1548 H 0.33824 1.15406 -0.19972
 H1549 H 0.29344 1.20363 -0.14213
 H1550 H 0.31302 1.17051 -0.11047
 H1551 H 0.39884 1.06762 -0.11932
 H1552 H 0.43036 1.03671 -0.09313
 H1553 H 0.38318 1.06676 -0.02746
 H1554 H 0.35153 1.09819 -0.05399
 C1555 C 0.83051 0.63846 0.36240
 C1556 C 0.83504 0.63246 0.33702
 C1557 C 0.82385 0.65101 0.31870
 C1558 C 0.80790 0.67601 0.32543
 C1559 C 0.80369 0.68201 0.35104
 C1560 C 0.81494 0.66339 0.36934
 C1561 C 0.84271 0.61932 0.38109
 C1562 C 0.85425 0.60299 0.39582
 C1563 C 0.87034 0.58329 0.41190
 C1564 C 0.89333 0.56640 0.40146
 C1565 C 0.91203 0.54985 0.41672
 C1566 C 0.90800 0.54968 0.44275
 C1567 C 0.88378 0.56533 0.45319
 C1568 C 0.86509 0.58225 0.43778
 H1569 H 0.84724 0.61335 0.33137
 H1570 H 0.82749 0.64560 0.29925
 H1571 H 0.79150 0.70098 0.35698
 H1572 H 0.81144 0.66843 0.38889
 H1573 H 0.89767 0.56693 0.38154
 H1574 H 0.93055 0.53798 0.40824
 H1575 H 0.88051 0.56583 0.47323
 H1576 H 0.84739 0.59529 0.44612
 C1577 C 0.66837 1.15018 0.13417
 C1578 C 0.68504 1.17474 0.12806
 C1579 C 0.69578 1.19301 0.14697
 C1580 C 0.68998 1.18702 0.17233
 C1581 C 0.67278 1.16250 0.17818
 C1582 C 0.66211 1.14432 0.15929
 C1583 C 0.65702 1.13106 0.11498
 C1584 C 0.64609 1.11448 0.10004
 C1585 C 0.63055 1.09426 0.08395
 C1586 C 0.60654 1.07844 0.09401
 C1587 C 0.58871 1.06105 0.07868
 C1588 C 0.59461 1.05893 0.05295
 C1589 C 0.61971 1.07361 0.04295
 C1590 C 0.63757 1.09139 0.05843
 H1591 H 0.68991 1.17968 0.10872
 H1592 H 0.70901 1.21159 0.14171
 H1593 H 0.66790 1.15706 0.19741
 H1594 H 0.64907 1.12551 0.16431
 H1595 H 0.60082 1.08035 0.11363
 H1596 H 0.56943 1.04998 0.08680
 H1597 H 0.62440 1.07259 0.02311
 H1598 H 0.65609 1.10355 0.05037
 C1599 C 1.15790 0.65601 0.63340
 C1600 C 1.17487 0.68035 0.62717
 C1601 C 1.18467 0.69935 0.64585
 C1602 C 1.17768 0.69430 0.67116
 C1603 C 1.15981 0.67021 0.67710
 C1604 C 1.15004 0.65129 0.65840
 C1605 C 1.14864 0.63578 0.61429
 C1606 C 1.14032 0.61884 0.59853
 C1607 C 1.12895 0.59897 0.57992
 C1608 C 1.11691 0.60942 0.55750
 C1609 C 1.10127 0.59109 0.54123
 C1610 C 1.09776 0.56198 0.54700
 C1611 C 1.11147 0.55116 0.56870
 C1612 C 1.12697 0.56960 0.58511
 H1613 H 1.18097 0.68442 0.60791
 H1614 H 1.19845 0.71754 0.64051
 H1615 H 1.15400 0.66551 0.69630
 H1616 H 1.13675 0.63268 0.66351
 H1617 H 1.11811 0.63204 0.55325
 H1618 H 1.09018 0.59997 0.52491
 H1619 H 1.10818 0.52899 0.57389
 H1620 H 1.13594 0.56122 0.60247
 C1621 C 0.66322 0.84567 -0.13500
 C1622 C 0.65740 0.85213 -0.16007
 C1623 C 0.66776 0.83393 -0.17910
 C1624 C 0.68419 0.80887 -0.17339
 C1625 C 0.68918 0.80217 -0.14807
 C1626 C 0.67878 0.82042 -0.12907
 C1627 C 0.65292 0.86478 -0.11541
 C1628 C 0.64352 0.88042 -0.09907
 C1629 C 0.63050 0.89821 -0.07963
 C1630 C 0.61160 0.88558 -0.06178
 C1631 C 0.59489 0.90261 -0.04527
 C1632 C 0.59696 0.93260 -0.04616
 C1633 C 0.61747 0.94527 -0.06295
 C1634 C 0.63409 0.92810 -0.07973
 H1635 H 0.64517 0.87145 -0.16496
 H1636 H 0.66355 0.83991 -0.19832
 H1637 H 0.70180 0.78319 -0.14288
 H1638 H 0.68324 0.81501 -0.10975
 H1639 H 0.60851 0.86258 -0.06147
 H1640 H 0.57894 0.89241 -0.03269
 H1641 H 0.61891 0.96834 -0.06435
 H1642 H 0.64854 0.93819 -0.09352
 C1643 C 1.16578 0.34692 0.36393
 C1644 C 1.16102 0.35372 0.33877
 C1645 C 1.17200 0.33575 0.31984
 C1646 C 1.18799 0.31052 0.32571
 C1647 C 1.19216 0.30355 0.35110
 C1648 C 1.18113 0.32161 0.37003
 C1649 C 1.15439 0.36589 0.38321
 C1650 C 1.14363 0.38228 0.39837
 C1651 C 1.12848 0.40228 0.41490
 C1652 C 1.13557 0.40421 0.44048
 C1653 C 1.11809 0.42179 0.45638
 C1654 C 1.09330 0.43725 0.44675
 C1655 C 1.08730 0.43605 0.42099
 C1656 C 1.10477 0.41885 0.40524
 H1657 H 1.14901 0.37312 0.33374
 H1658 H 1.16840 0.34193 0.30059
 H1659 H 1.20442 0.28441 0.35640
 H1660 H 1.18481 0.31595 0.38940
 H1661 H 1.15385 0.39146 0.44823
 H1662 H 1.12281 0.42208 0.47623
 H1663 H 1.06823 0.44771 0.41317
 H1664 H 1.09901 0.41766 0.38557
 C1665 C 0.33550 0.85532 0.13980
 C1666 C 0.32166 0.82948 0.13294
 C1667 C 0.31052 0.81088 0.15128
 C1668 C 0.31307 0.81781 0.17686
 C1669 C 0.32749 0.84365 0.18354
 C1670 C 0.33859 0.86219 0.16517
 C1671 C 0.34714 0.87465 0.12103
 C1672 C 0.35798 0.89117 0.10611
 C1673 C 0.37304 0.91119 0.08968
 C1674 C 0.36815 0.91096 0.06373
 C1675 C 0.38605 0.92824 0.04801
 C1676 C 0.40909 0.94555 0.05823
 C1677 C 0.41271 0.94662 0.08429
 C1678 C 0.39479 0.92969 0.09985
 H1679 H 0.31929 0.82377 0.11341
 H1680 H 0.29952 0.79126 0.14537
 H1681 H 0.32980 0.84980 0.20296
 H1682 H 0.34945 0.88201 0.17077
 H1683 H 0.35144 0.89666 0.05559
 H1684 H 0.38322 0.92673 0.02796
 H1685 H 0.43045 0.95969 0.09257
 H1686 H 0.39886 0.93014 0.11982
 C1687 C 0.83812 0.35216 0.63925
 C1688 C 0.82167 0.32771 0.63233
 C1689 C 0.81028 0.30918 0.65065
 C1690 C 0.81515 0.31483 0.67624
 C1691 C 0.83237 0.33911 0.68291
 C1692 C 0.84372 0.35755 0.66458
 C1693 C 0.84940 0.37188 0.62063
 C1694 C 0.85989 0.38892 0.60598
 C1695 C 0.87442 0.40969 0.58994
 C1696 C 0.86969 0.40986 0.56397
 C1697 C 0.88710 0.42796 0.54861
 C1698 C 0.90951 0.44573 0.55917
 C1699 C 0.91294 0.44639 0.58525
 C1700 C 0.89548 0.42864 0.60048
 H1701 H 0.81730 0.32315 0.61281
 H1702 H 0.79706 0.29080 0.64476
 H1703 H 0.83656 0.34426 0.70234
 H1704 H 0.85657 0.37627 0.67023
 H1705 H 0.85351 0.39524 0.55553
 H1706 H 0.88449 0.42670 0.52851
 H1707 H 0.93025 0.45977 0.59378
 H1708 H 0.89941 0.42881 0.62046
 C1709 C 1.13867 1.15576 0.64618
 C1710 C 1.15373 1.18030 0.63777
 C1711 C 1.17404 1.19460 0.65357
 C1712 C 1.17913 1.18441 0.67787
 C1713 C 1.16452 1.15920 0.68573
 C1714 C 1.14442 1.14501 0.66997
 C1715 C 1.11708 1.14137 0.63072
 C1716 C 1.09912 1.12851 0.61813
 C1717 C 1.07869 1.11257 0.60276
 C1718 C 1.07096 1.12317 0.57928
 C1719 C 1.05463 1.10611 0.56272
 C1720 C 1.04595 1.07822 0.56950
 C1721 C 1.05226 1.06832 0.59369
 C1722 C 1.06876 1.08547 0.61025
 H1723 H 1.14943 1.18858 0.61922
 H1724 H 1.18495 1.21400 0.64711
 H1725 H 1.16821 1.15063 0.70425
 H1726 H 1.13301 1.12586 0.67647
 H1727 H 1.07857 1.14416 0.57343
 H1728 H 1.04975 1.11440 0.54428
 H1729 H 1.04586 1.04692 0.59932
 H1730 H 1.07479 1.07718 0.62847
 C1731 C 0.64740 0.64798 0.14559
 C1732 C 0.67483 0.66042 0.13794
 C1733 C 0.68910 0.68070 0.15315
 C1734 C 0.67602 0.68837 0.17615
 C1735 C 0.64762 0.67686 0.18293
 C1736 C 0.63341 0.65677 0.16770
 C1737 C 0.63410 0.62524 0.13150
 C1738 C 0.62254 0.60616 0.11989
 C1739 C 0.60828 0.58429 0.10539
 C1740 C 0.62087 0.57675 0.08238
 C1741 C 0.60460 0.55928 0.06611
 C1742 C 0.57552 0.54923 0.07273
 C1743 C 0.56403 0.55509 0.09667
 C1744 C 0.58033 0.57280 0.11292
 H1745 H 0.68565 0.65373 0.12070
 H1746 H 0.71106 0.68913 0.14763
 H1747 H 0.63695 0.68259 0.20048
 H1748 H 0.61202 0.64737 0.17358
 H1749 H 0.64254 0.58555 0.07651
 H1750 H 0.61410 0.55481 0.04784
 H1751 H 0.54169 0.54759 0.10216
 H1752 H 0.57049 0.57864 0.13077
 C1753 C 1.13734 0.85048 0.34734
 C1754 C 1.12698 0.84343 0.32348
 C1755 C 1.14292 0.82359 0.30912
 C1756 C 1.16949 0.81061 0.31850
 C1757 C 1.17889 0.81675 0.34303
 C1758 C 1.16288 0.83674 0.35737
 C1759 C 1.12262 0.87292 0.36094
 C1760 C 1.11063 0.89193 0.37239
 C1761 C 1.09687 0.91408 0.38698
 C1762 C 1.06729 0.92346 0.38171
 C1763 C 1.05257 0.94214 0.39817
 C1764 C 1.06733 0.95117 0.42011
 C1765 C 1.09773 0.94302 0.42433
 C1766 C 1.11238 0.92454 0.40785
 H1767 H 1.10714 0.85391 0.31566
 H1768 H 1.13498 0.81913 0.29036
 H1769 H 1.19934 0.80719 0.35065
 H1770 H 1.17096 0.84213 0.37591
 H1771 H 1.05519 0.91543 0.36550
 H1772 H 1.02917 0.94808 0.39455
 H1773 H 1.10974 0.94988 0.44098
 H1774 H 1.13531 0.91744 0.41196
 C1775 C 0.62952 0.35386 -0.15546
 C1776 C 0.63646 0.36158 -0.17990
 C1777 C 0.65687 0.34526 -0.19369
 C1778 C 0.67067 0.32085 -0.18322
 C1779 C 0.66435 0.31369 -0.15830
 C1780 C 0.64372 0.33016 -0.14446
 C1781 C 0.60753 0.37034 -0.14201
 C1782 C 0.58921 0.38449 -0.13085
 C1783 C 0.56823 0.40118 -0.11654
 C1784 C 0.56510 0.43060 -0.12088
 C1785 C 0.54898 0.44762 -0.10389
 C1786 C 0.53646 0.43514 -0.08244
 C1787 C 0.53785 0.40535 -0.07928
 C1788 C 0.55364 0.38845 -0.09628
 H1789 H 0.62576 0.38003 -0.18844
 H1790 H 0.66150 0.35162 -0.21274
 H1791 H 0.67462 0.29503 -0.14981
 H1792 H 0.63851 0.32422 -0.12540
 H1793 H 0.57646 0.44057 -0.13656
 H1794 H 0.54833 0.47059 -0.10647
 H1795 H 0.52817 0.39537 -0.06286
 H1796 H 0.55595 0.36572 -0.09284
 C1797 C 0.84831 1.14173 0.34929
 C1798 C 0.86266 1.15176 0.32780
 C1799 C 0.84919 1.17336 0.31384
 C1800 C 0.82116 1.18520 0.32127
 C1801 C 0.80763 1.17611 0.34365
 C1802 C 0.82117 1.15430 0.35759
 C1803 C 0.86127 1.11801 0.36228
 C1804 C 0.87270 1.09832 0.37310
 C1805 C 0.88694 1.07589 0.38690
 C1806 C 0.91655 1.06715 0.38089
 C1807 C 0.93267 1.04960 0.39731
 C1808 C 0.91929 1.04114 0.41992
 C1809 C 0.88872 1.04815 0.42474
 C1810 C 0.87265 1.06552 0.40830
 H1811 H 0.88383 1.14229 0.32143
 H1812 H 0.86019 1.18014 0.29675
 H1813 H 0.78593 1.18474 0.34962
 H1814 H 0.81006 1.14668 0.37436
 H1815 H 0.92775 1.07523 0.36434
 H1816 H 0.95625 1.04461 0.39330
 H1817 H 0.87783 1.04170 0.44199
 H1818 H 0.84973 1.07225 0.41305
 C1819 C 0.35018 0.65171 -0.15185
 C1820 C 0.35038 0.64676 -0.17753
 C1821 C 0.33252 0.66354 -0.19314
 C1822 C 0.31421 0.68555 -0.18319
 C1823 C 0.31380 0.69009 -0.15723
 C1824 C 0.33180 0.67321 -0.14162
 C1825 C 0.36936 0.63495 -0.13614
 C1826 C 0.38559 0.62104 -0.12291
 C1827 C 0.40452 0.60497 -0.10647
 C1828 C 0.41597 0.57825 -0.11370
 C1829 C 0.43279 0.56198 -0.09674
 C1830 C 0.43795 0.57237 -0.07245
 C1831 C 0.42711 0.59965 -0.06574
 C1832 C 0.41048 0.61582 -0.08268
 H1833 H 0.36454 0.63009 -0.18552
 H1834 H 0.33328 0.65933 -0.21303
 H1835 H 0.29993 0.70683 -0.14905
 H1836 H 0.33160 0.67706 -0.12166
 H1837 H 0.41138 0.56979 -0.13218
 H1838 H 0.44084 0.54102 -0.10233
 H1839 H 0.43101 0.60835 -0.04725
 H1840 H 0.40174 0.63655 -0.07704
 C1841 C 0.86687 0.85763 0.65822
 C1842 C 0.84917 0.83659 0.64647
 C1843 C 0.82994 0.81918 0.66063
 C1844 C 0.82839 0.82268 0.68668
 C1845 C 0.84601 0.84426 0.69814
 C1846 C 0.86510 0.86156 0.68399
 C1847 C 0.88733 0.87488 0.64396
 C1848 C 0.90449 0.88896 0.63162
 C1849 C 0.92431 0.90480 0.61562
 C1850 C 0.93665 0.89103 0.59480
 C1851 C 0.95213 0.90679 0.57687
 C1852 C 0.95546 0.93653 0.57959
 C1853 C 0.94485 0.95002 0.60138
 C1854 C 0.92908 0.93416 0.61932
 H1855 H 0.85047 0.83348 0.62644
 H1856 H 0.81667 0.80281 0.65127
 H1857 H 0.84530 0.84772 0.71814
 H1858 H 0.87869 0.87783 0.69319
 H1859 H 0.93310 0.86832 0.59184
 H1860 H 0.96038 0.89589 0.56031
 H1861 H 0.94705 0.97296 0.60374
 H1862 H 0.91951 0.94494 0.63545
 C1863 C 0.36320 0.35480 0.15547
 C1864 C 0.33825 0.34059 0.14487
 C1865 C 0.32209 0.32048 0.15884
 C1866 C 0.33076 0.31466 0.18357
 C1867 C 0.35662 0.32831 0.19363
 C1868 C 0.37270 0.34828 0.17964
 C1869 C 0.37833 0.37693 0.14194
 C1870 C 0.39053 0.39557 0.13030
 C1871 C 0.40423 0.41721 0.11525
 C1872 C 0.38732 0.42903 0.09576
 C1873 C 0.40147 0.44669 0.07845
 C1874 C 0.43271 0.45272 0.08050
 C1875 C 0.44914 0.44242 0.10111
 C1876 C 0.43492 0.42450 0.11840
 H1877 H 0.33084 0.34557 0.12608
 H1878 H 0.30223 0.31038 0.15068
 H1879 H 0.36404 0.32410 0.21256
 H1880 H 0.39209 0.35912 0.18789
 H1881 H 0.36354 0.42350 0.09327
 H1882 H 0.38830 0.45460 0.06281
 H1883 H 0.47330 0.44664 0.10293
 H1884 H 0.44813 0.41534 0.13348
   
