data_POSCAR
  _audit_creation_date              2014-09-24
  _audit_creation_method            'ToBaCCo'
  _symmetry_space_group_name_H-M    'P1'
  _symmetry_Int_Tables_number       1
  _symmetry_cell_setting            triclinic
  loop_
  _symmetry_equiv_pos_as_xyz
 x,y,z
_cell_length_a 74.8354
_cell_length_b 74.7907
_cell_length_c 74.8075
_cell_angle_alpha 90.009400
_cell_angle_beta 90.068600
_cell_angle_gamma 90.095900
loop_
  _atom_site_label
  _atom_site_type_symbol
  _atom_site_fract_x
  _atom_site_fract_y
  _atom_site_fract_z
C1 C 0.32232 0.45082 0.92726
 C2 C 0.31502 0.45783 0.91147
 C3 C 0.30000 0.44981 0.90362
 C4 C 0.29206 0.43483 0.91159
 C5 C 0.29918 0.42764 0.92738
 C6 C 0.31439 0.43565 0.93527
 C7 C 0.33764 0.45846 0.93496
 C8 C 0.34511 0.45105 0.95047
 C9 C 0.33719 0.43607 0.95850
 C10 C 0.32187 0.42828 0.95097
 C11 C 0.31414 0.41298 0.95862
 C12 C 0.29914 0.40500 0.95070
 C13 C 0.29163 0.41235 0.93520
 H14 H 0.32114 0.46935 0.90512
 H15 H 0.28052 0.42864 0.90534
 H16 H 0.34391 0.46997 0.92873
 H17 H 0.34312 0.43031 0.97043
 H18 H 0.31994 0.40710 0.97053
 H19 H 0.28011 0.40599 0.92910
 C20 C 0.44957 0.82507 0.42579
 C21 C 0.45702 0.84047 0.43352
 C22 C 0.44918 0.84816 0.44870
 C23 C 0.43393 0.84041 0.45634
 C24 C 0.42632 0.82501 0.44878
 C25 C 0.43414 0.81730 0.43342
 C26 C 0.45706 0.81751 0.41036
 C27 C 0.44926 0.80237 0.40252
 C28 C 0.43402 0.79459 0.41011
 C29 C 0.42635 0.80197 0.42553
 C30 C 0.41085 0.79453 0.43301
 C31 C 0.40308 0.80226 0.44818
 C32 C 0.41082 0.81739 0.45608
 H33 H 0.46876 0.84660 0.42760
 H34 H 0.42786 0.84649 0.46802
 H35 H 0.46879 0.82350 0.40431
 H36 H 0.42802 0.78294 0.40386
 H37 H 0.40469 0.78288 0.42693
 H38 H 0.40462 0.82334 0.46775
 C39 C 0.95016 0.92605 0.82367
 C40 C 0.95731 0.91044 0.81615
 C41 C 0.94909 0.90246 0.80130
 C42 C 0.93375 0.91013 0.79377
 C43 C 0.92642 0.92574 0.80113
 C44 C 0.93464 0.93375 0.81615
 C45 C 0.95803 0.93389 0.83880
 C46 C 0.95052 0.94923 0.84648
 C47 C 0.93519 0.95695 0.83897
 C48 C 0.92716 0.94928 0.82385
 C49 C 0.91157 0.95665 0.81650
 C50 C 0.90340 0.94863 0.80166
 C51 C 0.91083 0.93328 0.79395
 H52 H 0.96912 0.90438 0.82198
 H53 H 0.92738 0.90383 0.78234
 H54 H 0.96982 0.92790 0.84476
 H55 H 0.92937 0.96876 0.84505
 H56 H 0.90564 0.96846 0.82244
 H57 H 0.90434 0.92711 0.78254
 C58 C 0.45022 -0.07303 0.32291
 C59 C 0.45742 -0.08857 0.31529
 C60 C 0.44975 -0.09596 0.29987
 C61 C 0.43494 -0.08779 0.29185
 C62 C 0.42757 -0.07225 0.29929
 C63 C 0.43521 -0.06482 0.31490
 C64 C 0.45750 -0.06578 0.33861
 C65 C 0.44992 -0.05053 0.34636
 C66 C 0.43511 -0.04231 0.33840
 C67 C 0.42765 -0.04938 0.32270
 C68 C 0.41252 -0.04154 0.31488
 C69 C 0.40490 -0.04900 0.29948
 C70 C 0.41244 -0.06424 0.29165
 H71 H 0.46880 -0.09507 0.32146
 H72 H 0.42902 -0.09370 0.27999
 H73 H 0.46890 -0.07211 0.34495
 H74 H 0.42926 -0.03058 0.34458
 H75 H 0.40649 -0.02983 0.32092
 H76 H 0.40635 -0.07000 0.27981
 C77 C 0.82223 0.29868 0.32241
 C78 C 0.81444 0.29122 0.33774
 C79 C 0.79897 0.29876 0.34507
 C80 C 0.79105 0.31370 0.33703
 C81 C 0.79867 0.32133 0.32169
 C82 C 0.81434 0.31382 0.31434
 C83 C 0.83801 0.29154 0.31526
 C84 C 0.84595 0.29942 0.30025
 C85 C 0.83811 0.31436 0.29215
 C86 C 0.82234 0.32167 0.29913
 C87 C 0.81465 0.33694 0.29145
 C88 C 0.79918 0.34443 0.29883
 C89 C 0.79116 0.33661 0.31383
 H90 H 0.82054 0.27975 0.34417
 H91 H 0.77917 0.31953 0.34290
 H92 H 0.84426 0.28005 0.32150
 H93 H 0.84444 0.32044 0.28061
 H94 H 0.82084 0.34320 0.27992
 H95 H 0.77928 0.34260 0.31954
 C96 C -0.20023 0.82362 0.82182
 C97 C -0.20736 0.83927 0.81435
 C98 C -0.19914 0.84727 0.79953
 C99 C -0.18384 0.83958 0.79197
 C100 C -0.17654 0.82393 0.79928
 C101 C -0.18475 0.81590 0.81428
 C102 C -0.20807 0.81577 0.83694
 C103 C -0.20057 0.80042 0.84458
 C104 C -0.18529 0.79267 0.83706
 C105 C -0.17727 0.80034 0.82195
 C106 C -0.16170 0.79298 0.81460
 C107 C -0.15354 0.80102 0.79980
 C108 C -0.16097 0.81639 0.79211
 H109 H -0.21913 0.84535 0.82021
 H110 H -0.17747 0.84591 0.78057
 H111 H -0.21981 0.82174 0.84295
 H112 H -0.17950 0.78087 0.84317
 H113 H -0.15576 0.78116 0.82053
 H114 H -0.15448 0.82258 0.78073
 C115 C 0.92883 0.32133 0.45177
 C116 C 0.93640 0.33677 0.45929
 C117 C 0.95135 0.34481 0.45136
 C118 C 0.95897 0.33734 0.43596
 C119 C 0.95156 0.32190 0.42827
 C120 C 0.93641 0.31385 0.43618
 C121 C 0.91355 0.31349 0.45929
 C122 C 0.90578 0.29839 0.45137
 C123 C 0.91333 0.29087 0.43598
 C124 C 0.92862 0.29853 0.42828
 C125 C 0.93600 0.29143 0.41259
 C126 C 0.95095 0.29949 0.40472
 C127 C 0.95877 0.31461 0.41257
 H128 H 0.93048 0.34270 0.47112
 H129 H 0.97046 0.34371 0.42980
 H130 H 0.90750 0.31930 0.47111
 H131 H 0.90712 0.27927 0.42987
 H132 H 0.92997 0.27980 0.40633
 H133 H 0.97026 0.32084 0.40630
 C134 C 0.42698 0.45017 0.82199
 C135 C 0.43496 0.45777 0.83717
 C136 C 0.45023 0.44999 0.84471
 C137 C 0.45776 0.43468 0.83701
 C138 C 0.44995 0.42691 0.82183
 C139 C 0.43447 0.43465 0.81427
 C140 C 0.41141 0.45756 0.81463
 C141 C 0.40326 0.44957 0.79977
 C142 C 0.41071 0.43424 0.79202
 C143 C 0.42628 0.42667 0.79921
 C144 C 0.43360 0.41106 0.79186
 C145 C 0.44889 0.40336 0.79945
 C146 C 0.45708 0.41130 0.81431
 H147 H 0.42916 0.46953 0.84333
 H148 H 0.46949 0.42868 0.84305
 H149 H 0.40546 0.46934 0.82060
 H150 H 0.40422 0.42809 0.78059
 H151 H 0.42728 0.40473 0.78043
 H152 H 0.46884 0.40516 0.82016
 C153 C 0.82248 0.92797 0.95134
 C154 C 0.81485 0.91259 0.95890
 C155 C 0.79977 0.90466 0.95105
 C156 C 0.79211 0.91217 0.93568
 C157 C 0.79958 0.92754 0.92795
 C158 C 0.81485 0.93548 0.93577
 C159 C 0.83787 0.93572 0.95880
 C160 C 0.84569 0.95079 0.95085
 C161 C 0.83807 0.95833 0.93548
 C162 C 0.82269 0.95074 0.92784
 C163 C 0.81524 0.95789 0.91218
 C164 C 0.80017 0.94993 0.90439
 C165 C 0.79231 0.93487 0.91229
 H166 H 0.82079 0.90663 0.97072
 H167 H 0.78052 0.90589 0.92958
 H168 H 0.84391 0.92986 0.97062
 H169 H 0.84426 0.96991 0.92930
 H170 H 0.82129 0.96948 0.90589
 H171 H 0.78072 0.92872 0.90608
 C172 C 0.32356 0.82365 0.29990
 C173 C 0.31574 0.83880 0.29211
 C174 C 0.30039 0.84641 0.29966
 C175 C 0.29265 0.83881 0.31494
 C176 C 0.30031 0.82366 0.32289
 C177 C 0.31585 0.81604 0.31537
 C178 C 0.33918 0.81620 0.29273
 C179 C 0.34715 0.80135 0.30088
 C180 C 0.33948 0.79372 0.31616
 C181 C 0.32386 0.80099 0.32351
 C182 C 0.31632 0.79373 0.33906
 C183 C 0.30097 0.80137 0.34654
 C184 C 0.29294 0.81622 0.33845
 H185 H 0.32174 0.84482 0.28036
 H186 H 0.28085 0.84485 0.32079
 H187 H 0.34530 0.82208 0.28097
 H188 H 0.34582 0.78229 0.32244
 H189 H 0.32250 0.78231 0.34550
 H190 H 0.28114 0.82212 0.34442
 C191 C 0.82108 0.42943 0.45256
 C192 C 0.81362 0.41395 0.46009
 C193 C 0.79844 0.40609 0.45243
 C194 C 0.79045 0.41374 0.43732
 C195 C 0.79774 0.42922 0.42961
 C196 C 0.81314 0.43711 0.43724
 C197 C 0.83662 0.43708 0.45978
 C198 C 0.84430 0.45221 0.45182
 C199 C 0.83636 0.45994 0.43670
 C200 C 0.82082 0.45245 0.42931
 C201 C 0.81309 0.45974 0.41385
 C202 C 0.79790 0.45182 0.40625
 C203 C 0.79019 0.43669 0.41415
 H204 H 0.81979 0.40782 0.47169
 H205 H 0.77879 0.40746 0.43140
 H206 H 0.84292 0.43107 0.47140
 H207 H 0.84245 0.47157 0.43051
 H208 H 0.81906 0.47135 0.40754
 H209 H 0.77852 0.43056 0.40806
 C210 C 0.95139 0.82190 -0.07312
 C211 C 0.95893 0.83714 -0.06517
 C212 C 0.95142 0.84437 -0.04963
 C213 C 0.93645 0.83631 -0.04179
 C214 C 0.92873 0.82107 -0.04956
 C215 C 0.93620 0.81382 -0.06532
 C216 C 0.95850 0.81485 -0.08897
 C217 C 0.95055 0.79992 -0.09708
 C218 C 0.93554 0.79183 -0.08930
 C219 C 0.92826 0.79871 -0.07346
 C220 C 0.91294 0.79103 -0.06584
 C221 C 0.90550 0.79833 -0.05029
 C222 C 0.91342 0.81322 -0.04213
 H223 H 0.97044 0.84357 -0.07121
 H224 H 0.93064 0.84211 -0.02985
 H225 H 0.97004 0.82112 -0.09512
 H226 H 0.92937 0.78035 -0.09571
 H227 H 0.90662 0.77959 -0.07213
 H228 H 0.90746 0.81886 -0.03018
 C229 C 0.32325 0.32334 0.79982
 C230 C 0.31583 0.33887 0.79239
 C231 C 0.30046 0.34647 0.79986
 C232 C 0.29228 0.33851 0.81470
 C233 C 0.29951 0.32298 0.82230
 C234 C 0.31508 0.31534 0.81485
 C235 C 0.33890 0.31587 0.79273
 C236 C 0.34643 0.30061 0.80053
 C237 C 0.33831 0.29260 0.81538
 C238 C 0.32266 0.29989 0.82264
 C239 C 0.31467 0.29226 0.83779
 C240 C 0.29930 0.29992 0.84521
 C241 C 0.29170 0.31517 0.83745
 H242 H 0.32214 0.34521 0.78097
 H243 H 0.28045 0.34457 0.82046
 H244 H 0.34536 0.32203 0.78131
 H245 H 0.34432 0.28086 0.82139
 H246 H 0.32054 0.28054 0.84398
 H247 H 0.27988 0.32108 0.84339
 C248 C 0.17758 0.54877 0.57098
 C249 C 0.16184 0.54177 0.56354
 C250 C 0.15411 0.54984 0.54851
 C251 C 0.16214 0.56485 0.54070
 C252 C 0.17788 0.57203 0.54796
 C253 C 0.18565 0.56398 0.56319
 C254 C 0.18515 0.54111 0.58634
 C255 C 0.20057 0.54853 0.59396
 C256 C 0.20867 0.56353 0.58620
 C257 C 0.20129 0.57136 0.57084
 C258 C 0.20898 0.58670 0.56327
 C259 C 0.20117 0.59472 0.54825
 C260 C 0.18575 0.58736 0.54057
 H261 H 0.15544 0.53023 0.56957
 H262 H 0.15596 0.57108 0.52915
 H263 H 0.17890 0.52959 0.59255
 H264 H 0.22052 0.56927 0.59230
 H265 H 0.22083 0.59260 0.56921
 H266 H 0.17972 0.59377 0.52904
 C267 C 0.57317 0.70000 0.07220
 C268 C 0.58875 0.70717 0.06461
 C269 C 0.59665 0.69893 0.04979
 C270 C 0.58897 0.68354 0.04233
 C271 C 0.57339 0.67618 0.04975
 C272 C 0.56545 0.68442 0.06476
 C273 C 0.56541 0.70789 0.08732
 C274 C 0.55012 0.70034 0.09507
 C275 C 0.54236 0.68498 0.08765
 C276 C 0.54995 0.67691 0.07253
 C277 C 0.54256 0.66126 0.06528
 C278 C 0.55052 0.65306 0.05046
 C279 C 0.56583 0.66053 0.04267
 H280 H 0.59487 0.71901 0.07036
 H281 H 0.59527 0.67718 0.03093
 H282 H 0.57139 0.71970 0.09326
 H283 H 0.53061 0.67916 0.09384
 H284 H 0.53079 0.65530 0.07129
 H285 H 0.57195 0.65401 0.03127
 C286 C 0.70107 0.17731 0.67816
 C287 C 0.70808 0.18470 0.66242
 C288 C 0.70003 0.19969 0.65460
 C289 C 0.68502 0.20752 0.66255
 C290 C 0.67783 0.20031 0.67830
 C291 C 0.68586 0.18513 0.68616
 C292 C 0.70873 0.16202 0.68583
 C293 C 0.70132 0.15445 0.70129
 C294 C 0.68631 0.16225 0.70930
 C295 C 0.67848 0.17755 0.70181
 C296 C 0.66316 0.18517 0.70943
 C297 C 0.65516 0.20015 0.70156
 C298 C 0.66251 0.20775 0.68611
 H299 H 0.71962 0.17866 0.65609
 H300 H 0.67881 0.21904 0.65633
 H301 H 0.72027 0.15583 0.67960
 H302 H 0.68055 0.15625 0.72119
 H303 H 0.65727 0.17930 0.72131
 H304 H 0.65613 0.21926 0.68003
 C305 C 1.07322 0.04956 0.17635
 C306 C 1.08875 0.04229 0.18393
 C307 C 1.09619 0.04988 0.19937
 C308 C 1.08808 0.06469 0.20744
 C309 C 1.07255 0.07213 0.20004
 C310 C 1.06507 0.06456 0.18442
 C311 C 1.06590 0.04234 0.16065
 C312 C 1.05064 0.04999 0.15293
 C313 C 1.04248 0.06481 0.16097
 C314 C 1.04963 0.07219 0.17668
 C315 C 1.04185 0.08731 0.18456
 C316 C 1.04936 0.09485 0.19998
 C317 C 1.06460 0.08724 0.20775
 H318 H 1.09520 0.03090 0.17771
 H319 H 1.09403 0.07054 0.21931
 H320 H 1.07222 0.03094 0.15430
 H321 H 1.03074 0.07074 0.15487
 H322 H 1.03013 0.09339 0.17857
 H323 H 1.07039 0.09327 0.21961
 C324 C 0.04950 0.17629 1.07303
 C325 C 0.04211 0.16065 1.06573
 C326 C 0.05006 0.15251 1.05085
 C327 C 0.06536 0.16004 1.04307
 C328 C 0.07291 0.17568 1.05022
 C329 C 0.06497 0.18385 1.06527
 C330 C 0.04192 0.18428 1.08819
 C331 C 0.04966 0.19963 1.09566
 C332 C 0.06493 0.20722 1.08793
 C333 C 0.07269 0.19940 1.07276
 C334 C 0.08825 0.20662 1.06518
 C335 C 0.09614 0.19845 1.05032
 C336 C 0.08847 0.18308 1.04281
 H337 H 0.03034 0.15469 1.07176
 H338 H 0.07151 0.15361 1.03163
 H339 H 0.03018 0.17843 1.09437
 H340 H 0.07091 0.21902 1.09389
 H341 H 0.09436 0.21844 1.07097
 H342 H 0.09476 0.17678 1.03138
 C343 C 0.17923 0.67943 0.70219
 C344 C 0.16374 0.68691 0.70961
 C345 C 0.15593 0.70205 0.70185
 C346 C 0.16367 0.70997 0.68674
 C347 C 0.17916 0.70267 0.67915
 C348 C 0.18699 0.68732 0.68688
 C349 C 0.18684 0.66395 0.70953
 C350 C 0.20200 0.65628 0.70169
 C351 C 0.20979 0.66414 0.68658
 C352 C 0.20235 0.67963 0.67908
 C353 C 0.20972 0.68729 0.66363
 C354 C 0.20186 0.70243 0.65592
 C355 C 0.18670 0.71016 0.66370
 H356 H 0.15756 0.68079 0.72121
 H357 H 0.15743 0.72160 0.68074
 H358 H 0.18082 0.65767 0.72112
 H359 H 0.22143 0.65801 0.68052
 H360 H 0.22136 0.68132 0.65741
 H361 H 0.18063 0.72179 0.65754
 C362 C 1.19964 0.17560 0.17642
 C363 C 1.20702 0.16001 0.18376
 C364 C 1.19955 0.15233 0.19913
 C365 C 1.18474 0.16029 0.20737
 C366 C 1.17720 0.17588 0.20020
 C367 C 1.18465 0.18359 0.18465
 C368 C 1.20673 0.18315 0.16079
 C369 C 1.19898 0.19846 0.15333
 C370 C 1.18418 0.20646 0.16151
 C371 C 1.17692 0.19910 0.17714
 C372 C 1.16182 0.20673 0.18519
 C373 C 1.15439 0.19900 0.20053
 C374 C 1.16209 0.18369 0.20807
 H375 H 1.21841 0.15372 0.17738
 H376 H 1.17895 0.15421 0.21920
 H377 H 1.21811 0.17699 0.15428
 H378 H 1.17821 0.21825 0.15555
 H379 H 1.15567 0.21850 0.17937
 H380 H 1.15615 0.17773 0.21987
 C381 C 0.67895 1.07280 0.54894
 C382 C 0.66360 1.06518 0.54128
 C383 C 0.65606 1.04969 0.54865
 C384 C 0.66390 1.04160 0.56360
 C385 C 0.67924 1.04903 0.57143
 C386 C 0.68682 1.06473 0.56410
 C387 C 0.68632 1.08859 0.54198
 C388 C 0.70136 1.09638 0.55005
 C389 C 0.70924 1.08833 0.56503
 C390 C 0.70203 1.07254 0.57215
 C391 C 0.70950 1.06466 0.58744
 C392 C 0.70189 1.04918 0.59475
 C393 C 0.68688 1.04134 0.58673
 H394 H 0.65734 1.07143 0.52979
 H395 H 0.65786 1.02970 0.56930
 H396 H 0.68021 1.09496 0.53046
 H397 H 0.72080 1.09449 0.57129
 H398 H 0.72103 1.07071 0.59385
 H399 H 0.68100 1.02944 0.59259
 C400 C 0.55013 0.57275 0.17677
 C401 C 0.54294 0.56521 0.16116
 C402 C 0.55111 0.55035 0.15324
 C403 C 0.56641 0.54281 0.16094
 C404 C 0.57377 0.55018 0.17655
 C405 C 0.56562 0.56523 0.18452
 C406 C 0.54233 0.58792 0.18455
 C407 C 0.54989 0.59562 0.19986
 C408 C 0.56518 0.58813 0.20764
 C409 C 0.57315 0.57297 0.20004
 C410 C 0.58873 0.56563 0.20744
 C411 C 0.59684 0.55077 0.19947
 C412 C 0.58935 0.54302 0.18414
 H413 H 0.53117 0.57102 0.15502
 H414 H 0.57270 0.53137 0.15464
 H415 H 0.53058 0.59391 0.17855
 H416 H 0.57101 0.59428 0.21942
 H417 H 0.59470 0.57161 0.21924
 H418 H 0.59581 0.53159 0.17800
 C419 C 0.67751 0.70022 0.17663
 C420 C 0.66239 0.70788 0.18459
 C421 C 0.65484 0.70015 0.19988
 C422 C 0.66245 0.68480 0.20743
 C423 C 0.67757 0.67696 0.19964
 C424 C 0.68515 0.68467 0.18415
 C425 C 0.68491 0.70759 0.16105
 C426 C 0.69973 0.69955 0.15295
 C427 C 0.70738 0.68419 0.16043
 C428 C 0.70016 0.67665 0.17600
 C429 C 0.70743 0.66101 0.18337
 C430 C 0.69984 0.65335 0.19866
 C431 C 0.68502 0.66133 0.20682
 H432 H 0.65631 0.71968 0.17876
 H433 H 0.65641 0.67883 0.21918
 H434 H 0.67901 0.71940 0.15507
 H435 H 0.71878 0.67800 0.15398
 H436 H 0.71883 0.65466 0.17708
 H437 H 0.67916 0.65521 0.21859
 C438 C 0.17487 0.05087 1.07484
 C439 C 0.15944 0.04350 1.06709
 C440 C 0.15188 0.05131 1.05182
 C441 C 0.15978 0.06646 1.04410
 C442 C 0.17521 0.07399 1.05168
 C443 C 0.18280 0.06619 1.06713
 C444 C 0.18231 0.04340 1.09035
 C445 C 0.19749 0.05110 1.09821
 C446 C 0.20543 0.06625 1.09053
 C447 C 0.19816 0.07389 1.07502
 C448 C 0.20576 0.08928 1.06746
 C449 C 0.19816 0.09704 1.05221
 C450 C 0.18299 0.08938 1.04430
 H451 H 0.15319 0.03185 1.07307
 H452 H 0.15380 0.07251 1.03235
 H453 H 0.17616 0.03174 1.09642
 H454 H 0.21712 0.07222 1.09674
 H455 H 0.21744 0.09538 1.07355
 H456 H 0.17714 0.09556 1.03256
 C457 C 0.57170 0.17894 0.54840
 C458 C 0.58748 0.18616 0.54130
 C459 C 0.59545 0.20114 0.54926
 C460 C 0.58761 0.20915 0.56426
 C461 C 0.57183 0.20210 0.57153
 C462 C 0.56382 0.18692 0.56359
 C463 C 0.56391 0.16361 0.54088
 C464 C 0.54847 0.15619 0.54842
 C465 C 0.54055 0.16414 0.56339
 C466 C 0.54816 0.17947 0.57108
 C467 C 0.54068 0.18721 0.58642
 C468 C 0.54872 0.20217 0.59434
 C469 C 0.56417 0.20966 0.58687
 H470 H 0.59374 0.17999 0.52979
 H471 H 0.59397 0.22065 0.57040
 H472 H 0.57003 0.15725 0.52938
 H473 H 0.52869 0.15819 0.56922
 H474 H 0.52881 0.18141 0.59241
 H475 H 0.57038 0.22115 0.59320
 C476 C 0.07140 0.54885 0.67763
 C477 C 0.08673 0.54141 0.68545
 C478 C 0.09413 0.54903 0.70088
 C479 C 0.08617 0.56403 0.70874
 C480 C 0.07084 0.57165 0.70111
 C481 C 0.06341 0.56406 0.68547
 C482 C 0.06416 0.54164 0.66189
 C483 C 0.04916 0.54949 0.65392
 C484 C 0.04115 0.56451 0.66172
 C485 C 0.04820 0.57189 0.67746
 C486 C 0.04060 0.58723 0.68510
 C487 C 0.04807 0.59479 0.70054
 C488 C 0.06307 0.58698 0.70857
 H489 H 0.09308 0.52989 0.67938
 H490 H 0.09210 0.56992 0.72061
 H491 H 0.07034 0.53010 0.65567
 H492 H 0.02961 0.57057 0.65537
 H493 H 0.02909 0.59347 0.67890
 H494 H 0.06884 0.59303 0.72043
 C495 C 0.67563 0.57400 0.05088
 C496 C 0.66023 0.56632 0.04342
 C497 C 0.65259 0.55105 0.05113
 C498 C 0.66037 0.54325 0.06627
 C499 C 0.67578 0.55075 0.07391
 C500 C 0.68346 0.56621 0.06621
 C501 C 0.68315 0.58952 0.04351
 C502 C 0.69830 0.59732 0.05133
 C503 C 0.70614 0.58958 0.06648
 C504 C 0.69879 0.57405 0.07402
 C505 C 0.70628 0.56642 0.08943
 C506 C 0.69858 0.55116 0.09709
 C507 C 0.68344 0.54330 0.08932
 H508 H 0.65402 0.57232 0.03177
 H509 H 0.65428 0.53150 0.07222
 H510 H 0.67712 0.59569 0.03186
 H511 H 0.71779 0.59579 0.07249
 H512 H 0.71793 0.57247 0.09562
 H513 H 0.67751 0.53156 0.09543
 C514 C 0.04893 0.67794 0.57166
 C515 C 0.04144 0.68579 0.58694
 C516 C 0.04901 0.70129 0.59428
 C517 C 0.06399 0.70918 0.58629
 C518 C 0.07166 0.70151 0.57101
 C519 C 0.06412 0.68580 0.56365
 C520 C 0.04177 0.66214 0.56449
 C521 C 0.04966 0.65414 0.54953
 C522 C 0.06466 0.66196 0.54150
 C523 C 0.07200 0.67776 0.54849
 C524 C 0.08732 0.68543 0.54086
 C525 C 0.09483 0.70093 0.54826
 C526 C 0.08698 0.70900 0.56321
 H527 H 0.02993 0.67971 0.59332
 H528 H 0.06984 0.72109 0.59217
 H529 H 0.03023 0.65590 0.57068
 H530 H 0.07075 0.65559 0.52999
 H531 H 0.09359 0.67921 0.52938
 H532 H 0.09298 0.72091 0.56893
 C533 C 0.54808 1.07058 0.67864
 C534 C 0.54084 1.06297 0.66309
 C535 C 0.54881 1.04788 0.65535
 C536 C 0.56396 1.04019 0.66324
 C537 C 0.57137 1.04763 0.67879
 C538 C 0.56342 1.06290 0.68654
 C539 C 0.54053 1.08599 0.68619
 C540 C 0.54818 1.09379 0.70142
 C541 C 0.56331 1.08613 0.70934
 C542 C 0.57104 1.07073 0.70198
 C543 C 0.58651 1.06328 0.70950
 C544 C 0.59443 1.04821 0.70172
 C545 C 0.58684 1.04035 0.68649
 H546 H 0.52920 1.06895 0.65684
 H547 H 0.57015 1.02860 0.65710
 H548 H 0.52890 1.09211 0.68007
 H549 H 0.56922 1.09236 0.72104
 H550 H 0.59258 1.06935 0.72119
 H551 H 0.59316 1.02878 0.68049
 C552 C 0.42813 0.32135 0.95139
 C553 C 0.43572 0.33676 0.95896
 C554 C 0.45071 0.34478 0.95108
 C555 C 0.45834 0.33733 0.93568
 C556 C 0.45091 0.32192 0.92794
 C557 C 0.43573 0.31389 0.93580
 C558 C 0.41282 0.31352 0.95887
 C559 C 0.40504 0.29845 0.95090
 C560 C 0.41261 0.29095 0.93552
 C561 C 0.42792 0.29860 0.92786
 C562 C 0.43532 0.29150 0.91217
 C563 C 0.45031 0.29955 0.90435
 C564 C 0.45813 0.31464 0.91225
 H565 H 0.42979 0.34267 0.97080
 H566 H 0.46986 0.34368 0.92956
 H567 H 0.40676 0.31932 0.97069
 H568 H 0.40639 0.27936 0.92937
 H569 H 0.42928 0.27990 0.90588
 H570 H 0.46966 0.32085 0.90601
 C571 C 0.92899 0.45117 0.32159
 C572 C 0.93679 0.45866 0.33692
 C573 C 0.95179 0.45064 0.34478
 C574 C 0.95922 0.43519 0.33722
 C575 C 0.95158 0.42754 0.32189
 C576 C 0.93638 0.43553 0.31403
 C577 C 0.91366 0.45878 0.31395
 C578 C 0.90565 0.45089 0.29895
 C579 C 0.91301 0.43546 0.29135
 C580 C 0.92834 0.42767 0.29882
 C581 C 0.93553 0.41192 0.29163
 C582 C 0.95053 0.40397 0.29951
 C583 C 0.95859 0.41179 0.31452
 H584 H 0.93102 0.47053 0.34292
 H585 H 0.97074 0.42897 0.34345
 H586 H 0.90776 0.47064 0.31982
 H587 H 0.90662 0.42937 0.27984
 H588 H 0.92932 0.40569 0.28009
 H589 H 0.97012 0.40545 0.32059
 C590 C 0.32407 0.95057 0.42722
 C591 C 0.31607 0.95815 0.41204
 C592 C 0.30071 0.95040 0.40459
 C593 C 0.29312 0.93514 0.41236
 C594 C 0.30094 0.92739 0.42754
 C595 C 0.31650 0.93511 0.43501
 C596 C 0.33971 0.95795 0.43452
 C597 C 0.34784 0.95001 0.44942
 C598 C 0.34030 0.93472 0.45722
 C599 C 0.32467 0.92717 0.45009
 C600 C 0.31726 0.91162 0.45752
 C601 C 0.30190 0.90394 0.45002
 C602 C 0.29372 0.91183 0.43514
 H603 H 0.32192 0.96988 0.40584
 H604 H 0.28131 0.92916 0.40641
 H605 H 0.34568 0.96971 0.42846
 H606 H 0.34673 0.92856 0.46868
 H607 H 0.32356 0.90533 0.46897
 H608 H 0.28190 0.90571 0.42936
 O609 O 0.20203 0.52334 0.74869
 O610 O 0.20787 0.52088 0.77922
 O611 O 0.24881 0.54785 0.72706
 O612 O 0.27823 0.54255 0.72633
 O613 O 0.22644 0.50106 0.70201
 O614 O 0.22766 0.46990 0.70855
 O615 O 0.29628 0.49912 0.77297
 O616 O 0.29139 0.52959 0.76950
 O617 O 0.25114 0.47696 0.79625
 O618 O 0.21890 0.47817 0.79024
 O619 O 0.27257 0.45344 0.75085
 O620 O 0.27150 0.45954 0.71886
 O621 O 0.29618 0.47764 0.75144
 O622 O 0.28959 0.47952 0.71827
 O623 O 0.25115 0.45325 0.77230
 O624 O 0.21818 0.45994 0.77038
 O625 O 0.27296 0.49810 0.79611
 O626 O 0.26704 0.53050 0.79050
 O627 O 0.20173 0.50149 0.72749
 O628 O 0.20832 0.46975 0.72886
 O629 O 0.24796 0.52254 0.70186
 O630 O 0.28030 0.51970 0.70903
 O631 O 0.22704 0.54777 0.74823
 O632 O 0.23113 0.54068 0.78043
 Zr633 Zr 0.22800 0.52191 0.75937
 O634 O 0.24358 0.50587 0.77645
 Zr635 Zr 0.25915 0.52172 0.72770
 O636 O 0.27630 0.50620 0.74372
 Zr637 Zr 0.22763 0.49039 0.72800
 O638 O 0.24358 0.47319 0.74355
 Zr639 Zr 0.27069 0.51031 0.77089
 O640 O 0.25520 0.52779 0.75492
 Zr641 Zr 0.23938 0.47872 0.77075
 O642 O 0.22200 0.49468 0.75518
 Zr643 Zr 0.27075 0.47902 0.73936
 O644 O 0.25477 0.49453 0.72186
 O645 O 0.23218 0.51742 0.73228
 O646 O 0.26648 0.48313 0.76650
 C647 C 0.19423 0.51419 0.73636
 C648 C 0.23622 0.55548 0.73591
 C649 C 0.23541 0.51353 0.69427
 C650 C 0.30370 0.48627 0.76431
 C651 C 0.26421 0.48536 0.80362
 C652 C 0.26400 0.44587 0.76365
 H653 H 0.24082 0.50878 0.78905
 H654 H 0.24071 0.46064 0.74057
 H655 H 0.22456 0.52508 0.72466
 H656 H 0.28888 0.50924 0.74103
 H657 H 0.28573 0.54095 0.76575
 H658 H 0.28741 0.53993 0.73546
 H659 H 0.22027 0.45161 0.76033
 H660 H 0.20232 0.47069 0.74061
 H661 H 0.27727 0.52992 0.79892
 H662 H 0.22167 0.54990 0.77936
 H663 H 0.26025 0.45262 0.71946
 H664 H 0.23964 0.47012 0.70295
 H665 H 0.20284 0.50863 0.77894
 H666 H 0.21996 0.48919 0.79749
 H667 H 0.27812 0.50873 0.70194
 H668 H 0.29806 0.48942 0.72061
 O669 O 0.27336 -0.04760 0.25102
 O670 O 0.27075 -0.04196 0.22046
 O671 O 0.29774 -0.00059 0.27238
 O672 O 0.29235 0.02887 0.27290
 O673 O 0.25125 -0.02301 0.29763
 O674 O 0.22003 -0.02187 0.29121
 O675 O 0.24876 0.04645 0.22633
 O676 O 0.27924 0.04163 0.22972
 O677 O 0.22655 0.00111 0.20338
 O678 O 0.22805 -0.03118 0.20951
 O679 O 0.20321 0.02269 0.24864
 O680 O 0.20939 0.02190 0.28060
 O681 O 0.22731 0.04642 0.24786
 O682 O 0.22937 0.04003 0.28110
 O683 O 0.20303 0.00105 0.22736
 O684 O 0.20987 -0.03185 0.22940
 O685 O 0.24761 0.02301 0.20336
 O686 O 0.28007 0.01717 0.20883
 O687 O 0.25163 -0.04784 0.27231
 O688 O 0.21985 -0.04138 0.27098
 O689 O 0.27262 -0.00137 0.29761
 O690 O 0.26956 0.03094 0.29031
 O691 O 0.29765 -0.02251 0.25132
 O692 O 0.29046 -0.01862 0.21910
 Zr693 Zr 0.27178 -0.02170 0.24021
 O694 O 0.25563 -0.00628 0.22308
 Zr695 Zr 0.27160 0.00969 0.27173
 O696 O 0.25596 0.02668 0.25565
 Zr697 Zr 0.24042 -0.02198 0.27168
 O698 O 0.22310 -0.00619 0.25608
 Zr699 Zr 0.26000 0.02088 0.22851
 O700 O 0.27759 0.00556 0.24452
 Zr701 Zr 0.22855 -0.01056 0.22890
 O702 O 0.24461 -0.02778 0.24452
 Zr703 Zr 0.22883 0.02106 0.26010
 O704 O 0.24446 0.00524 0.27766
 O705 O 0.26738 -0.01734 0.26729
 O706 O 0.23287 0.01660 0.23299
 C707 C 0.26433 -0.05535 0.26345
 C708 C 0.30536 -0.01325 0.26361
 C709 C 0.26374 -0.01396 0.30527
 C710 C 0.23590 0.05388 0.23494
 C711 C 0.23483 0.01422 0.19595
 C712 C 0.19564 0.01396 0.23592
 H713 H 0.25849 -0.00911 0.21049
 H714 H 0.21058 -0.00909 0.25911
 H715 H 0.27510 -0.02490 0.27491
 H716 H 0.25896 0.03929 0.25826
 H717 H 0.29062 0.03602 0.23348
 H718 H 0.28961 0.03802 0.26378
 H719 H 0.20163 -0.02978 0.23951
 H720 H 0.22079 -0.04748 0.25928
 H721 H 0.27940 0.02734 0.20035
 H722 H 0.29971 -0.02805 0.22021
 H723 H 0.20262 0.01055 0.28016
 H724 H 0.22028 -0.00985 0.29677
 H725 H 0.25852 -0.04702 0.22078
 H726 H 0.23894 -0.03001 0.20212
 H727 H 0.25865 0.02875 0.29745
 H728 H 0.23918 0.04856 0.27866
 O729 O 0.50130 0.70278 0.22648
 O730 O 0.47077 0.70853 0.22889
 O731 O 0.52294 0.74953 0.20192
 O732 O 0.52355 0.77902 0.20714
 O733 O 0.54795 0.72741 0.24869
 O734 O 0.54147 0.72880 0.27987
 O735 O 0.47695 0.79707 0.25046
 O736 O 0.48040 0.79205 0.22001
 O737 O 0.45376 0.75190 0.27274
 O738 O 0.45980 0.71964 0.27156
 O739 O 0.49907 0.77365 0.29621
 O740 O 0.53104 0.77268 0.29020
 O741 O 0.49846 0.79715 0.27197
 O742 O 0.53167 0.79065 0.27010
 O743 O 0.47767 0.75210 0.29642
 O744 O 0.47966 0.71909 0.28982
 O745 O 0.45387 0.77367 0.25158
 O746 O 0.45943 0.76761 0.21918
 O747 O 0.52252 0.70264 0.24833
 O748 O 0.52115 0.70936 0.28008
 O749 O 0.54808 0.74888 0.22719
 O750 O 0.54090 0.78124 0.23000
 O751 O 0.50179 0.72766 0.20203
 O752 O 0.46957 0.73173 0.20904
 Zr753 Zr 0.49061 0.72873 0.22785
 O754 O 0.47352 0.74430 0.24384
 Zr755 Zr 0.52225 0.76002 0.22800
 O756 O 0.50621 0.77717 0.24347
 Zr757 Zr 0.52199 0.72859 0.25938
 O758 O 0.50643 0.74456 0.27654
 Zr759 Zr 0.47905 0.77142 0.23934
 O760 O 0.49504 0.75593 0.22191
 Zr761 Zr 0.47925 0.74022 0.27099
 O762 O 0.49482 0.72283 0.25508
 Zr763 Zr 0.51058 0.77175 0.27066
 O764 O 0.52809 0.75576 0.25520
 O765 O 0.51768 0.73303 0.23237
 O766 O 0.48346 0.76733 0.26652
 C767 C 0.51366 0.69506 0.23563
 C768 C 0.51414 0.73682 0.19433
 C769 C 0.55566 0.73634 0.23618
 C770 C 0.48559 0.80458 0.26330
 C771 C 0.44639 0.76495 0.26435
 C772 C 0.48627 0.76505 0.30377
 H773 H 0.46093 0.74148 0.24094
 H774 H 0.50942 0.74175 0.28910
 H775 H 0.52530 0.72540 0.22473
 H776 H 0.50888 0.78976 0.24041
 H777 H 0.48416 0.78635 0.20867
 H778 H 0.51445 0.78821 0.20977
 H779 H 0.48969 0.72127 0.29816
 H780 H 0.50942 0.70329 0.27912
 H781 H 0.45099 0.77780 0.21975
 H782 H 0.47066 0.72223 0.19984
 H783 H 0.53051 0.76140 0.29707
 H784 H 0.54705 0.74080 0.27960
 H785 H 0.47105 0.70354 0.24114
 H786 H 0.45251 0.72067 0.26057
 H787 H 0.54801 0.77911 0.24096
 H788 H 0.52928 0.79911 0.26023
 O789 O 0.04753 0.72712 0.74862
 O790 O 0.04175 0.72947 0.77916
 O791 O 0.00068 0.70264 0.72696
 O792 O -0.02881 0.70798 0.72645
 O793 O 0.02291 0.74947 0.70192
 O794 O 0.02190 0.78064 0.70856
 O795 O -0.04657 0.75177 0.77273
 O796 O -0.04188 0.72111 0.76950
 O797 O -0.00125 0.77345 0.79629
 O798 O 0.03110 0.77201 0.79008
 O799 O -0.02343 0.79673 0.75183
 O800 O -0.01849 0.79121 0.71903
 O801 O -0.04666 0.77320 0.75107
 O802 O -0.04064 0.77109 0.71875
 O803 O -0.00128 0.79718 0.77258
 O804 O 0.03155 0.79054 0.77030
 O805 O -0.02321 0.75246 0.79607
 O806 O -0.01750 0.72004 0.79046
 O807 O 0.04774 0.74895 0.72739
 O808 O 0.04117 0.78073 0.72881
 O809 O 0.00145 0.72793 0.70182
 O810 O -0.03081 0.73073 0.70895
 O811 O 0.02254 0.70269 0.74808
 O812 O 0.01845 0.70971 0.78030
 Zr813 Zr 0.02159 0.72852 0.75929
 O814 O 0.00610 0.74457 0.77642
 Zr815 Zr -0.00966 0.72876 0.72766
 O816 O -0.02663 0.74438 0.74370
 Zr817 Zr 0.02185 0.76009 0.72795
 O818 O 0.00601 0.77732 0.74361
 Zr819 Zr -0.02104 0.74024 0.77085
 O820 O -0.00564 0.72270 0.75488
 Zr821 Zr 0.01040 0.77171 0.77076
 O822 O 0.02764 0.75574 0.75510
 Zr823 Zr -0.02114 0.77160 0.73936
 O824 O -0.00534 0.75594 0.72184
 O825 O 0.01732 0.73306 0.73221
 O826 O -0.01667 0.76735 0.76646
 C827 C 0.05529 0.73627 0.73628
 C828 C 0.01332 0.69500 0.73575
 C829 C 0.01395 0.73696 0.69421
 C830 C -0.05406 0.76459 0.76401
 C831 C -0.01437 0.76512 0.80363
 C832 C -0.01456 0.80437 0.76442
 H833 H 0.00888 0.74163 0.78901
 H834 H 0.00871 0.78990 0.74054
 H835 H 0.02492 0.72540 0.72457
 H836 H -0.03922 0.74133 0.74106
 H837 H -0.03631 0.70972 0.76571
 H838 H -0.03806 0.71078 0.73544
 H839 H 0.02942 0.79879 0.76019
 H840 H 0.04728 0.77972 0.74051
 H841 H -0.02770 0.72069 0.79889
 H842 H 0.02790 0.70048 0.77922
 H843 H -0.02774 0.80052 0.72081
 H844 H 0.00984 0.78067 0.70313
 H845 H 0.04684 0.74169 0.77888
 H846 H 0.02979 0.76118 0.79755
 H847 H -0.02873 0.74178 0.70195
 H848 H -0.04834 0.76050 0.72056
 O849 O -0.02305 -0.04800 -0.00105
 O850 O -0.02074 -0.04225 0.02952
 O851 O -0.04763 -0.00126 -0.02267
 O852 O -0.04241 0.02825 -0.02321
 O853 O -0.00082 -0.02330 -0.04754
 O854 O 0.03034 -0.02178 -0.04095
 O855 O 0.00084 0.04634 0.02368
 O856 O -0.02961 0.04128 0.02005
 O857 O 0.02303 0.00118 0.04684
 O858 O 0.02187 -0.03107 0.04070
 O859 O 0.04659 0.02301 0.00168
 O860 O 0.04061 0.02203 -0.03036
 O861 O 0.02236 0.04647 0.00223
 O862 O 0.02058 0.04002 -0.03098
 O863 O 0.04675 0.00144 0.02304
 O864 O 0.04017 -0.03158 0.02093
 O865 O 0.00188 0.02292 0.04670
 O866 O -0.03050 0.01683 0.04096
 O867 O -0.00114 -0.04806 -0.02215
 O868 O 0.03056 -0.04124 -0.02069
 O869 O -0.02232 -0.00188 -0.04772
 O870 O -0.01952 0.03050 -0.04047
 O871 O -0.04754 -0.02316 -0.00159
 O872 O -0.04061 -0.01910 0.03067
 Zr873 Zr -0.02175 -0.02205 0.00971
 O874 O -0.00581 -0.00644 0.02692
 Zr875 Zr -0.02155 0.00927 -0.02186
 O876 O -0.00613 0.02645 -0.00570
 Zr877 Zr 0.00984 -0.02208 -0.02154
 O878 O 0.02696 -0.00610 -0.00585
 Zr879 Zr -0.01030 0.02068 0.02144
 O880 O -0.02769 0.00515 0.00533
 Zr881 Zr 0.02134 -0.01048 0.02130
 O882 O 0.00549 -0.02788 0.00560
 Zr883 Zr 0.02107 0.02108 -0.00996
 O884 O 0.00565 0.00508 -0.02759
 O885 O -0.01718 -0.01771 -0.01734
 O886 O 0.01688 0.01663 0.01714
 C887 C -0.01383 -0.05569 -0.01337
 C888 C -0.05523 -0.01398 -0.01393
 C889 C -0.01332 -0.01441 -0.05528
 C890 C 0.01370 0.05387 0.01511
 C891 C 0.01463 0.01421 0.05421
 C892 C 0.05411 0.01441 0.01451
 H893 H -0.00874 -0.00928 0.03949
 H894 H 0.03952 -0.00888 -0.00879
 H895 H -0.02480 -0.02537 -0.02500
 H896 H -0.00918 0.03903 -0.00835
 H897 H -0.04093 0.03557 0.01621
 H898 H -0.03979 0.03744 -0.01408
 H899 H 0.04854 -0.02936 0.01095
 H900 H 0.02962 -0.04731 -0.00897
 H901 H -0.02995 0.02702 0.04943
 H902 H -0.04979 -0.02862 0.02952
 H903 H 0.04754 0.01079 -0.02978
 H904 H 0.03005 -0.00978 -0.04652
 H905 H -0.00849 -0.04722 0.02928
 H906 H 0.01088 -0.03006 0.04796
 H907 H -0.00854 0.02838 -0.04753
 H908 H 0.01065 0.04842 -0.02866
 O909 O -0.04792 0.49868 0.47612
 O910 O -0.04217 0.52920 0.47840
 O911 O -0.00105 0.47710 0.45173
 O912 O 0.02838 0.47654 0.45709
 O913 O -0.02331 0.45211 0.49846
 O914 O -0.02203 0.45871 0.52962
 O915 O 0.04628 0.52340 0.50029
 O916 O 0.04131 0.51988 0.46988
 O917 O 0.00106 0.54655 0.52242
 O918 O -0.03117 0.54039 0.52113
 O919 O 0.02268 0.50132 0.54610
 O920 O 0.02186 0.46940 0.54014
 O921 O 0.04632 0.50198 0.52187
 O922 O 0.03979 0.46872 0.52008
 O923 O 0.00112 0.52264 0.54619
 O924 O -0.03180 0.52059 0.53940
 O925 O 0.02285 0.54646 0.50132
 O926 O 0.01688 0.54075 0.46892
 O927 O -0.04811 0.47753 0.49801
 O928 O -0.04144 0.47895 0.52975
 O929 O -0.00178 0.45200 0.47707
 O930 O 0.03054 0.45933 0.47999
 O931 O -0.02294 0.49814 0.45170
 O932 O -0.01891 0.53042 0.45867
 Zr933 Zr -0.02197 0.50942 0.47751
 O934 O -0.00646 0.52664 0.49353
 Zr935 Zr 0.00931 0.47789 0.47786
 O936 O 0.02640 0.49407 0.49335
 Zr937 Zr -0.02218 0.47814 0.50911
 O938 O -0.00627 0.49383 0.52629
 Zr939 Zr 0.02066 0.52120 0.48915
 O940 O 0.00523 0.50508 0.47169
 Zr941 Zr -0.01061 0.52099 0.52068
 O942 O -0.02792 0.50528 0.50473
 Zr943 Zr 0.02092 0.48977 0.52053
 O944 O 0.00499 0.47213 0.50505
 O945 O -0.01768 0.48236 0.48209
 O946 O 0.01652 0.51688 0.51633
 C947 C -0.05567 0.48637 0.48531
 C948 C -0.01371 0.48583 0.44406
 C949 C -0.01431 0.44438 0.48604
 C950 C 0.05378 0.51482 0.51315
 C951 C 0.01409 0.55397 0.51403
 C952 C 0.01400 0.51406 0.55363
 H953 H -0.00929 0.53922 0.49059
 H954 H -0.00912 0.49086 0.53884
 H955 H -0.02530 0.47469 0.47445
 H956 H 0.03898 0.49143 0.49034
 H957 H 0.03564 0.51605 0.45853
 H958 H 0.03750 0.48576 0.45967
 H959 H -0.02969 0.51054 0.54773
 H960 H -0.04750 0.49066 0.52877
 H961 H 0.02706 0.54924 0.46950
 H962 H -0.02836 0.52925 0.44942
 H963 H 0.01049 0.46977 0.54683
 H964 H -0.01004 0.45314 0.52940
 H965 H -0.04712 0.52903 0.49066
 H966 H -0.03010 0.54766 0.51015
 H967 H 0.02838 0.45223 0.49094
 H968 H 0.04830 0.47111 0.51024
 O969 O 0.54809 0.02357 0.50118
 O970 O 0.54234 0.02114 0.47067
 O971 O 0.50125 0.04791 0.52274
 O972 O 0.47184 0.04248 0.52350
 O973 O 0.52362 0.00118 0.54780
 O974 O 0.52237 -0.02998 0.54123
 O975 O 0.45392 -0.00084 0.47663
 O976 O 0.45882 0.02962 0.48018
 O977 O 0.49911 -0.02288 0.45346
 O978 O 0.53136 -0.02155 0.45959
 O979 O 0.47750 -0.04652 0.49870
 O980 O 0.47846 -0.04054 0.53067
 O981 O 0.45392 -0.02239 0.49809
 O982 O 0.46047 -0.02050 0.53135
 O983 O 0.49901 -0.04660 0.47732
 O984 O 0.53195 -0.03988 0.47937
 O985 O 0.47729 -0.00180 0.45358
 O986 O 0.48323 0.03063 0.45927
 O987 O 0.54836 0.00170 0.52236
 O988 O 0.54173 -0.03009 0.52092
 O989 O 0.50211 0.02259 0.54794
 O990 O 0.46975 0.01960 0.54070
 O991 O 0.52307 0.04792 0.50163
 O992 O 0.51908 0.04086 0.46942
 Zr993 Zr 0.52215 0.02208 0.49047
 O994 O 0.50662 0.00602 0.47331
 Zr995 Zr 0.49093 0.02174 0.52208
 O996 O 0.47381 0.00622 0.50597
 Zr997 Zr 0.52245 -0.00948 0.52179
 O998 O 0.50651 -0.02670 0.50616
 Zr999 Zr 0.47951 0.01040 0.47882
 O1000 O 0.49496 0.02788 0.49488
 Zr1001 Zr 0.51080 -0.02112 0.47899
 O1002 O 0.52814 -0.00514 0.49463
 Zr1003 Zr 0.47933 -0.02096 0.51027
 O1004 O 0.49529 -0.00545 0.52786
 O1005 O 0.51792 0.01753 0.51754
 O1006 O 0.48369 -0.01678 0.48317
 C1007 C 0.55588 0.01444 0.51351
 C1008 C 0.51386 0.05559 0.51393
 C1009 C 0.51465 0.01361 0.55554
 C1010 C 0.44646 -0.01374 0.48521
 C1011 C 0.48605 -0.01451 0.44608
 C1012 C 0.48610 -0.05402 0.48588
 H1013 H 0.50942 0.00896 0.46072
 H1014 H 0.50936 -0.03925 0.50913
 H1015 H 0.52553 0.02522 0.52518
 H1016 H 0.46123 0.00921 0.50862
 H1017 H 0.46447 0.04098 0.48398
 H1018 H 0.46274 0.03992 0.51427
 H1019 H 0.52983 -0.04821 0.48942
 H1020 H 0.54777 -0.02909 0.50920
 H1021 H 0.47305 0.03002 0.45080
 H1022 H 0.52854 0.05011 0.47053
 H1023 H 0.48978 -0.04733 0.53018
 H1024 H 0.51036 -0.02982 0.54677
 H1025 H 0.54735 0.00890 0.47091
 H1026 H 0.53026 -0.01059 0.45229
 H1027 H 0.47195 0.00866 0.54781
 H1028 H 0.45194 -0.01069 0.52894
 O1029 O 0.47616 0.45180 -0.00125
 O1030 O 0.47858 0.45753 0.02932
 O1031 O 0.45183 0.49866 -0.02283
 O1032 O 0.45717 0.52813 -0.02334
 O1033 O 0.49851 0.47644 -0.04780
 O1034 O 0.52966 0.47767 -0.04120
 O1035 O 0.50063 0.54602 0.02342
 O1036 O 0.47014 0.54111 0.01987
 O1037 O 0.52264 0.50075 0.04655
 O1038 O 0.52129 0.46851 0.04045
 O1039 O 0.54620 0.52242 0.00132
 O1040 O 0.54014 0.52147 -0.03071
 O1041 O 0.52211 0.54602 0.00193
 O1042 O 0.52022 0.53958 -0.03126
 O1043 O 0.54631 0.50087 0.02269
 O1044 O 0.53953 0.46787 0.02060
 O1045 O 0.50160 0.52259 0.04645
 O1046 O 0.46918 0.51667 0.04080
 O1047 O 0.49801 0.45162 -0.02242
 O1048 O 0.52976 0.45822 -0.02095
 O1049 O 0.47713 0.49798 -0.04792
 O1050 O 0.48004 0.53031 -0.04063
 O1051 O 0.45182 0.47678 -0.00174
 O1052 O 0.45885 0.48080 0.03052
 Zr1053 Zr 0.47764 0.47774 0.00951
 O1054 O 0.49371 0.49326 0.02669
 Zr1055 Zr 0.47795 0.50906 -0.02204
 O1056 O 0.49350 0.52616 -0.00592
 Zr1057 Zr 0.50917 0.47753 -0.02178
 O1058 O 0.52640 0.49343 -0.00614
 Zr1059 Zr 0.48935 0.52041 0.02122
 O1060 O 0.47185 0.50498 0.00515
 Zr1061 Zr 0.52083 0.48908 0.02102
 O1062 O 0.50484 0.47177 0.00536
 Zr1063 Zr 0.52065 0.52063 -0.01024
 O1064 O 0.50511 0.50472 -0.02783
 O1065 O 0.48218 0.48206 -0.01755
 O1066 O 0.51650 0.51622 0.01686
 C1067 C 0.48529 0.44406 -0.01360
 C1068 C 0.44417 0.48599 -0.01408
 C1069 C 0.48608 0.48545 -0.05552
 C1070 C 0.51350 0.55348 0.01482
 C1071 C 0.51432 0.51383 0.05394
 C1072 C 0.55372 0.51378 0.01412
 H1073 H 0.49078 0.49044 0.03927
 H1074 H 0.53894 0.49057 -0.00911
 H1075 H 0.47452 0.47445 -0.02521
 H1076 H 0.49051 0.53875 -0.00857
 H1077 H 0.45877 0.53545 0.01608
 H1078 H 0.45985 0.53731 -0.01422
 H1079 H 0.54789 0.47004 0.01061
 H1080 H 0.52878 0.45216 -0.00923
 H1081 H 0.46980 0.52686 0.04926
 H1082 H 0.44961 0.47133 0.02938
 H1083 H 0.54704 0.51023 -0.03010
 H1084 H 0.52948 0.48969 -0.04675
 H1085 H 0.49080 0.45251 0.02906
 H1086 H 0.51030 0.46956 0.04770
 H1087 H 0.49100 0.52818 -0.04770
 H1088 H 0.51036 0.54804 -0.02891
 O1089 O 0.77368 0.29758 0.49958
 O1090 O 0.77135 0.29184 0.53011
 O1091 O 0.79804 0.25068 0.47801
 O1092 O 0.79269 0.22123 0.47743
 O1093 O 0.75134 0.27291 0.45297
 O1094 O 0.72018 0.27163 0.45952
 O1095 O 0.74943 0.20332 0.52415
 O1096 O 0.77986 0.20829 0.52068
 O1097 O 0.72733 0.24856 0.54731
 O1098 O 0.72867 0.28081 0.54123
 O1099 O 0.70367 0.22698 0.50198
 O1100 O 0.70971 0.22776 0.47007
 O1101 O 0.72786 0.20330 0.50270
 O1102 O 0.72968 0.20975 0.46949
 O1103 O 0.70358 0.24856 0.52333
 O1104 O 0.71043 0.28148 0.52140
 O1105 O 0.74843 0.22677 0.54723
 O1106 O 0.78081 0.23274 0.54158
 O1107 O 0.75180 0.29774 0.47840
 O1108 O 0.72008 0.29108 0.47976
 O1109 O 0.77272 0.25137 0.45287
 O1110 O 0.76981 0.21905 0.46015
 O1111 O 0.79807 0.27259 0.49908
 O1112 O 0.79109 0.26859 0.53133
 Zr1113 Zr 0.77227 0.27162 0.51030
 O1114 O 0.75624 0.25610 0.52747
 Zr1115 Zr 0.77192 0.24030 0.47874
 O1116 O 0.75642 0.22320 0.49486
 Zr1117 Zr 0.74069 0.27180 0.47897
 O1118 O 0.72351 0.25590 0.49461
 Zr1119 Zr 0.76061 0.22896 0.52200
 O1120 O 0.77807 0.24440 0.50594
 Zr1121 Zr 0.72911 0.26025 0.52178
 O1122 O 0.74505 0.27757 0.50613
 Zr1123 Zr 0.72925 0.22869 0.49052
 O1124 O 0.74474 0.24461 0.47293
 O1125 O 0.76769 0.26731 0.48323
 O1126 O 0.73343 0.23311 0.51764
 C1127 C 0.76450 0.30532 0.48725
 C1128 C 0.80571 0.26336 0.48677
 C1129 C 0.76375 0.26391 0.44526
 C1130 C 0.73656 0.19583 0.51554
 C1131 C 0.73571 0.23553 0.55472
 C1132 C 0.69613 0.23570 0.51470
 H1133 H 0.75918 0.25893 0.54005
 H1134 H 0.71097 0.25876 0.49162
 H1135 H 0.77534 0.27492 0.47559
 H1136 H 0.75942 0.21061 0.49221
 H1137 H 0.79120 0.21396 0.51688
 H1138 H 0.79006 0.21207 0.48659
 H1139 H 0.70213 0.27940 0.51130
 H1140 H 0.72106 0.29716 0.49147
 H1141 H 0.78023 0.22255 0.55005
 H1142 H 0.80033 0.27806 0.53020
 H1143 H 0.70297 0.23912 0.47049
 H1144 H 0.72042 0.25964 0.45392
 H1145 H 0.75911 0.29681 0.52989
 H1146 H 0.73965 0.27974 0.54851
 H1147 H 0.75884 0.22118 0.45306
 H1148 H 0.73954 0.20128 0.47187
 O1149 O 0.79755 0.75105 -0.02410
 O1150 O 0.79164 0.72055 -0.02180
 O1151 O 0.75079 0.77293 -0.04841
 O1152 O 0.72135 0.77362 -0.04305
 O1153 O 0.77332 0.79775 -0.00168
 O1154 O 0.77212 0.79118 0.02946
 O1155 O 0.70334 0.72679 0.00021
 O1156 O 0.70821 0.73035 -0.03024
 O1157 O 0.74847 0.70350 0.02230
 O1158 O 0.78074 0.70945 0.02095
 O1159 O 0.72716 0.74880 0.04595
 O1160 O 0.72814 0.78075 0.03998
 O1161 O 0.70349 0.74819 0.02182
 O1162 O 0.71012 0.78148 0.01992
 O1163 O 0.74860 0.72736 0.04602
 O1164 O 0.78154 0.72928 0.03923
 O1165 O 0.72660 0.70369 0.00122
 O1166 O 0.73253 0.70934 -0.03122
 O1167 O 0.79795 0.77223 -0.00222
 O1168 O 0.79137 0.77078 0.02957
 O1169 O 0.75173 0.79801 -0.02307
 O1170 O 0.71935 0.79085 -0.02012
 O1171 O 0.77254 0.75174 -0.04845
 O1172 O 0.76830 0.71948 -0.04151
 Zr1173 Zr 0.77156 0.74045 -0.02266
 O1174 O 0.75602 0.72332 -0.00662
 Zr1175 Zr 0.74047 0.77218 -0.02228
 O1176 O 0.72333 0.75608 -0.00679
 Zr1177 Zr 0.77206 0.77174 0.00895
 O1178 O 0.75610 0.75616 0.02614
 Zr1179 Zr 0.72892 0.72892 -0.01100
 O1180 O 0.74437 0.74496 -0.02846
 Zr1181 Zr 0.76029 0.72898 0.02052
 O1182 O 0.77764 0.74456 0.00455
 Zr1183 Zr 0.72891 0.76035 0.02039
 O1184 O 0.74491 0.77790 0.00491
 O1185 O 0.76744 0.76754 -0.01806
 O1186 O 0.73318 0.73323 0.01618
 C1187 C 0.80540 0.76335 -0.01495
 C1188 C 0.76340 0.76414 -0.05608
 C1189 C 0.76435 0.80554 -0.01410
 C1190 C 0.69596 0.73535 0.01313
 C1191 C 0.73534 0.69617 0.01396
 C1192 C 0.73577 0.73598 0.05346
 H1193 H 0.75876 0.71073 -0.00957
 H1194 H 0.75900 0.75911 0.03869
 H1195 H 0.77507 0.77517 -0.02571
 H1196 H 0.71074 0.75878 -0.00979
 H1197 H 0.71386 0.73414 -0.04159
 H1198 H 0.71219 0.76446 -0.04045
 H1199 H 0.77948 0.73932 0.04758
 H1200 H 0.79742 0.75906 0.02852
 H1201 H 0.72231 0.70090 -0.03061
 H1202 H 0.77773 0.72059 -0.05077
 H1203 H 0.73951 0.78029 0.04671
 H1204 H 0.76014 0.79678 0.02929
 H1205 H 0.79665 0.72071 -0.00955
 H1206 H 0.77957 0.70216 0.00998
 H1207 H 0.72159 0.79794 -0.00916
 H1208 H 0.70152 0.77905 0.01016
 O1209 O 1.00087 0.20190 0.22712
 O1210 O 0.97035 0.20770 0.22955
 O1211 O 1.02262 0.24862 0.20266
 O1212 O 1.02330 0.27811 0.20791
 O1213 O 1.04756 0.22639 0.24940
 O1214 O 1.04107 0.22772 0.28057
 O1215 O 0.97672 0.29621 0.25122
 O1216 O 0.98015 0.29122 0.22080
 O1217 O 0.95341 0.25102 0.27343
 O1218 O 0.95937 0.21880 0.27226
 O1219 O 0.99883 0.27260 0.29701
 O1220 O 1.03072 0.27168 0.29096
 O1221 O 0.99821 0.29622 0.27275
 O1222 O 1.03141 0.28963 0.27088
 O1223 O 0.97738 0.25110 0.29718
 O1224 O 0.97924 0.21813 0.29047
 O1225 O 0.95355 0.27279 0.25227
 O1226 O 0.95917 0.26682 0.21989
 O1227 O 1.02210 0.20167 0.24897
 O1228 O 1.02070 0.20834 0.28074
 O1229 O 1.04775 0.24789 0.22794
 O1230 O 1.04064 0.28026 0.23079
 O1231 O 1.00142 0.22681 0.20272
 O1232 O 0.96921 0.23094 0.20973
 Zr1233 Zr 0.99024 0.22786 0.22854
 O1234 O 0.97318 0.24344 0.24455
 Zr1235 Zr 1.02194 0.25908 0.22875
 O1236 O 1.00593 0.27624 0.24423
 Zr1237 Zr 1.02160 0.22760 0.26008
 O1238 O 1.00608 0.24359 0.27725
 Zr1239 Zr 0.97876 0.27056 0.24009
 O1240 O 0.99473 0.25506 0.22264
 Zr1241 Zr 0.97889 0.23931 0.27170
 O1242 O 0.99442 0.22191 0.25577
 Zr1243 Zr 1.01027 0.27078 0.27142
 O1244 O 1.02776 0.25477 0.25595
 O1245 O 1.01732 0.23210 0.23307
 O1246 O 0.98314 0.26643 0.26728
 C1247 C 1.01322 0.19414 0.23625
 C1248 C 1.01380 0.23595 0.19504
 C1249 C 1.05529 0.23532 0.23692
 C1250 C 0.98538 0.30369 0.26406
 C1251 C 0.94604 0.26405 0.26500
 C1252 C 0.98606 0.26397 0.30458
 H1253 H 0.96059 0.24064 0.24163
 H1254 H 1.00907 0.24075 0.28981
 H1255 H 1.02492 0.22446 0.22542
 H1256 H 1.00863 0.28882 0.24119
 H1257 H 0.98393 0.28554 0.20946
 H1258 H 1.01422 0.28732 0.21055
 H1259 H 0.98932 0.22023 0.29878
 H1260 H 1.00898 0.20226 0.27973
 H1261 H 0.95074 0.27702 0.22046
 H1262 H 0.97028 0.22145 0.20052
 H1263 H 1.03028 0.26033 0.29772
 H1264 H 1.04671 0.23970 0.28031
 H1265 H 0.97064 0.20267 0.24178
 H1266 H 0.95216 0.21978 0.26122
 H1267 H 1.04774 0.27810 0.24175
 H1268 H 1.02903 0.29813 0.26103
 O1269 O 0.74926 1.04786 0.72716
 O1270 O 0.77980 1.04222 0.72969
 O1271 O 0.72780 1.00105 0.70250
 O1272 O 0.72721 0.97157 0.70770
 O1273 O 0.70266 1.02305 0.74926
 O1274 O 0.70921 1.02171 0.78045
 O1275 O 0.77385 0.95360 0.75107
 O1276 O 0.77037 0.95866 0.72062
 O1277 O 0.79694 0.99873 0.77352
 O1278 O 0.79086 1.03104 0.77227
 O1279 O 0.75167 0.97701 0.79687
 O1280 O 0.71971 0.97784 0.79073
 O1281 O 0.75240 0.95347 0.77258
 O1282 O 0.71918 0.95985 0.77067
 O1283 O 0.77299 0.99864 0.79715
 O1284 O 0.77105 1.03157 0.79052
 O1285 O 0.79687 0.97703 0.75227
 O1286 O 0.79130 0.98314 0.71989
 O1287 O 0.72803 1.04793 0.74894
 O1288 O 0.72944 1.04122 0.78067
 O1289 O 0.70261 1.00160 0.72774
 O1290 O 0.70988 0.96929 0.73050
 O1291 O 0.74891 1.02295 0.70268
 O1292 O 0.78111 1.01904 0.70981
 Zr1293 Zr 0.76003 1.02195 0.72854
 O1294 O 0.77717 1.00639 0.74455
 Zr1295 Zr 0.72848 0.99057 0.72858
 O1296 O 0.74455 0.97344 0.74407
 Zr1297 Zr 0.72865 1.02198 0.75998
 O1298 O 0.74427 1.00604 0.77716
 Zr1299 Zr 0.77169 0.97926 0.74000
 O1300 O 0.75567 0.99474 0.72256
 Zr1301 Zr 0.77144 1.01044 0.77169
 O1302 O 0.75581 1.02780 0.75577
 Zr1303 Zr 0.74019 0.97884 0.77126
 O1304 O 0.72263 0.99479 0.75577
 O1305 O 0.73296 1.01756 0.73297
 O1306 O 0.76729 0.98332 0.76719
 C1307 C 0.73687 1.05554 0.73627
 C1308 C 0.73661 1.01374 0.69492
 C1309 C 0.69497 1.01407 0.73676
 C1310 C 0.76526 0.94607 0.76390
 C1311 C 0.80433 0.98571 0.76510
 C1312 C 0.76440 0.98569 0.80449
 H1313 H 0.78975 1.00923 0.74167
 H1314 H 0.74127 1.00884 0.78971
 H1315 H 0.72532 1.02517 0.72532
 H1316 H 0.74191 0.96085 0.74100
 H1317 H 0.76661 0.96438 0.70929
 H1318 H 0.73633 0.96239 0.71034
 H1319 H 0.76091 1.02948 0.79873
 H1320 H 0.74115 1.04732 0.77975
 H1321 H 0.79975 0.97296 0.72044
 H1322 H 0.78000 1.02856 0.70062
 H1323 H 0.72021 0.98912 0.79761
 H1324 H 0.70364 1.00970 0.78016
 H1325 H 0.77952 1.04716 0.74195
 H1326 H 0.79821 1.02996 0.76135
 H1327 H 0.70281 0.97136 0.74148
 H1328 H 0.72157 0.95141 0.76077
 O1329 O 0.79785 0.49877 0.27336
 O1330 O 0.79221 0.52932 0.27095
 O1331 O 0.75094 0.47730 0.29781
 O1332 O 0.72151 0.47665 0.29246
 O1333 O 0.77310 0.45219 0.25105
 O1334 O 0.77183 0.45874 0.21990
 O1335 O 0.70372 0.52345 0.24909
 O1336 O 0.70867 0.51995 0.27957
 O1337 O 0.74899 0.54654 0.22696
 O1338 O 0.78120 0.54041 0.22825
 O1339 O 0.72718 0.50130 0.20343
 O1340 O 0.72804 0.46928 0.20946
 O1341 O 0.70363 0.50194 0.22759
 O1342 O 0.71001 0.46872 0.22946
 O1343 O 0.74877 0.52266 0.20328
 O1344 O 0.78174 0.52055 0.20999
 O1345 O 0.72719 0.54648 0.24806
 O1346 O 0.73316 0.54086 0.28048
 O1347 O 0.79796 0.47758 0.25150
 O1348 O 0.79131 0.47899 0.21975
 O1349 O 0.75162 0.45211 0.27250
 O1350 O 0.71931 0.45940 0.26960
 O1351 O 0.77287 0.49837 0.29777
 O1352 O 0.76899 0.53061 0.29071
 Zr1353 Zr 0.77195 0.50954 0.27193
 O1354 O 0.75646 0.52672 0.25589
 Zr1355 Zr 0.74058 0.47799 0.27167
 O1356 O 0.72351 0.49411 0.25616
 Zr1357 Zr 0.77205 0.47819 0.24039
 O1358 O 0.75617 0.49383 0.22318
 Zr1359 Zr 0.72933 0.52126 0.26030
 O1360 O 0.74473 0.50519 0.27777
 Zr1361 Zr 0.76058 0.52100 0.22875
 O1362 O 0.77787 0.50535 0.24471
 Zr1363 Zr 0.72898 0.48975 0.22898
 O1364 O 0.74487 0.47216 0.24449
 O1365 O 0.76757 0.48247 0.26740
 O1366 O 0.73346 0.51687 0.23313
 C1367 C 0.80555 0.48642 0.26420
 C1368 C 0.76361 0.48609 0.30546
 C1369 C 0.76411 0.44448 0.26351
 C1370 C 0.69622 0.51484 0.23623
 C1371 C 0.73595 0.55395 0.23532
 C1372 C 0.73582 0.51409 0.19590
 H1373 H 0.75932 0.53930 0.25880
 H1374 H 0.75900 0.49084 0.21063
 H1375 H 0.77516 0.47482 0.27507
 H1376 H 0.71092 0.49147 0.25918
 H1377 H 0.71433 0.51617 0.29092
 H1378 H 0.71242 0.48587 0.28987
 H1379 H 0.77954 0.51054 0.20163
 H1380 H 0.79739 0.49071 0.22071
 H1381 H 0.72300 0.54933 0.27988
 H1382 H 0.77845 0.52948 0.29994
 H1383 H 0.73930 0.46984 0.20257
 H1384 H 0.75981 0.45320 0.22009
 H1385 H 0.79720 0.52906 0.25871
 H1386 H 0.78017 0.54769 0.23924
 H1387 H 0.72144 0.45229 0.25864
 H1388 H 0.70156 0.47110 0.23933
 O1389 O 0.50094 0.20191 0.72691
 O1390 O 0.47045 0.20760 0.72919
 O1391 O 0.52256 0.24885 0.70252
 O1392 O 0.52343 0.27825 0.70790
 O1393 O 0.54749 0.22649 0.74936
 O1394 O 0.54089 0.22781 0.78050
 O1395 O 0.47644 0.29614 0.75087
 O1396 O 0.48002 0.29114 0.72047
 O1397 O 0.45320 0.25099 0.77310
 O1398 O 0.45922 0.21872 0.77189
 O1399 O 0.49848 0.27261 0.79680
 O1400 O 0.53029 0.27188 0.79095
 O1401 O 0.49780 0.29622 0.77254
 O1402 O 0.53112 0.28968 0.77070
 O1403 O 0.47708 0.25106 0.79690
 O1404 O 0.47902 0.21810 0.79019
 O1405 O 0.45338 0.27273 0.75191
 O1406 O 0.45909 0.26668 0.71954
 O1407 O 0.52205 0.20172 0.74886
 O1408 O 0.52054 0.20841 0.78062
 O1409 O 0.54770 0.24800 0.72791
 O1410 O 0.54049 0.28040 0.73084
 O1411 O 0.50149 0.22693 0.70249
 O1412 O 0.46924 0.23086 0.70944
 Zr1413 Zr 0.49025 0.22785 0.72829
 O1414 O 0.47307 0.24338 0.74425
 Zr1415 Zr 0.52188 0.25916 0.72866
 O1416 O 0.50574 0.27628 0.74405
 Zr1417 Zr 0.52149 0.22766 0.75995
 O1418 O 0.50586 0.24362 0.77706
 Zr1419 Zr 0.47861 0.27050 0.73979
 O1420 O 0.49470 0.25506 0.72242
 Zr1421 Zr 0.47870 0.23928 0.77142
 O1422 O 0.49434 0.22192 0.75554
 Zr1423 Zr 0.50999 0.27083 0.77125
 O1424 O 0.52759 0.25485 0.75587
 O1425 O 0.51730 0.23215 0.73292
 O1426 O 0.48290 0.26640 0.76700
 C1427 C 0.51323 0.19416 0.73612
 C1428 C 0.51379 0.23620 0.69484
 C1429 C 0.55525 0.23546 0.73692
 C1430 C 0.48498 0.30365 0.76378
 C1431 C 0.44585 0.26402 0.76466
 C1432 C 0.48570 0.26395 0.80433
 H1433 H 0.46050 0.24055 0.74129
 H1434 H 0.50881 0.24079 0.78962
 H1435 H 0.52494 0.22454 0.72528
 H1436 H 0.50841 0.28887 0.74101
 H1437 H 0.48383 0.28545 0.70915
 H1438 H 0.51411 0.28728 0.71032
 H1439 H 0.48907 0.22021 0.79852
 H1440 H 0.50885 0.20230 0.77957
 H1441 H 0.45063 0.27686 0.72007
 H1442 H 0.47039 0.22141 0.70020
 H1443 H 0.53004 0.26041 0.79752
 H1444 H 0.54652 0.23979 0.78026
 H1445 H 0.47060 0.20268 0.74147
 H1446 H 0.45197 0.21976 0.76087
 H1447 H 0.54764 0.27817 0.74175
 H1448 H 0.52864 0.29830 0.76099
 O1449 O 0.24914 0.70273 0.52311
 O1450 O 0.27966 0.70846 0.52082
 O1451 O 0.22767 0.74956 0.54770
 O1452 O 0.22704 0.77902 0.54244
 O1453 O 0.20262 0.72742 0.50081
 O1454 O 0.20919 0.72879 0.46967
 O1455 O 0.27390 0.79703 0.49930
 O1456 O 0.27037 0.79198 0.52974
 O1457 O 0.29693 0.75191 0.47697
 O1458 O 0.29083 0.71964 0.47817
 O1459 O 0.25176 0.77360 0.45344
 O1460 O 0.21980 0.77272 0.45941
 O1461 O 0.25248 0.79713 0.47771
 O1462 O 0.21923 0.79068 0.47952
 O1463 O 0.27307 0.75203 0.45326
 O1464 O 0.27099 0.71904 0.45989
 O1465 O 0.29687 0.77365 0.49817
 O1466 O 0.29124 0.76753 0.53056
 O1467 O 0.22799 0.70262 0.50121
 O1468 O 0.22943 0.70937 0.46948
 O1469 O 0.20252 0.74886 0.52233
 O1470 O 0.20984 0.78123 0.51955
 O1471 O 0.24870 0.72766 0.54762
 O1472 O 0.28095 0.73167 0.54065
 Zr1473 Zr 0.25991 0.72869 0.52181
 O1474 O 0.27711 0.74426 0.50586
 Zr1475 Zr 0.22839 0.75999 0.52160
 O1476 O 0.24455 0.77715 0.50619
 Zr1477 Zr 0.22862 0.72858 0.49020
 O1478 O 0.24427 0.74456 0.47309
 Zr1479 Zr 0.27167 0.77138 0.51038
 O1480 O 0.25557 0.75589 0.52775
 Zr1481 Zr 0.27142 0.74019 0.47870
 O1482 O 0.25575 0.72281 0.49456
 Zr1483 Zr 0.24022 0.77174 0.47898
 O1484 O 0.22261 0.75575 0.49438
 O1485 O 0.23286 0.73300 0.51724
 O1486 O 0.26731 0.76730 0.48318
 C1487 C 0.23681 0.69502 0.51390
 C1488 C 0.23642 0.73688 0.55532
 C1489 C 0.19491 0.73636 0.51328
 C1490 C 0.26536 0.80455 0.48642
 C1491 C 0.30433 0.76496 0.48538
 C1492 C 0.26452 0.76496 0.44589
 H1493 H 0.28969 0.74143 0.50879
 H1494 H 0.24130 0.74175 0.46053
 H1495 H 0.22521 0.72537 0.52486
 H1496 H 0.24192 0.78973 0.50926
 H1497 H 0.26657 0.78626 0.54106
 H1498 H 0.23629 0.78812 0.53994
 H1499 H 0.26096 0.72120 0.45154
 H1500 H 0.24112 0.70328 0.47047
 H1501 H 0.29973 0.77772 0.53002
 H1502 H 0.27979 0.72218 0.54985
 H1503 H 0.22027 0.76142 0.45256
 H1504 H 0.20365 0.74080 0.46991
 H1505 H 0.27946 0.70354 0.50853
 H1506 H 0.29812 0.72069 0.48915
 H1507 H 0.20274 0.77910 0.50858
 H1508 H 0.22165 0.79915 0.48938
 O1509 O 0.27286 0.29739 0.99886
 O1510 O 0.27047 0.29166 1.02939
 O1511 O 0.29731 0.25058 0.97730
 O1512 O 0.29200 0.22112 0.97662
 O1513 O 0.25056 0.27278 0.95226
 O1514 O 0.21940 0.27140 0.95878
 O1515 O 0.24871 0.20314 1.02345
 O1516 O 0.27917 0.20810 1.01986
 O1517 O 0.22657 0.24824 1.04655
 O1518 O 0.22779 0.28051 1.04048
 O1519 O 0.20300 0.22657 1.00121
 O1520 O 0.20902 0.22746 0.96928
 O1521 O 0.22717 0.20305 1.00197
 O1522 O 0.22911 0.20951 0.96868
 O1523 O 0.20285 0.24808 1.02263
 O1524 O 0.20952 0.28108 1.02062
 O1525 O 0.24776 0.22653 1.04645
 O1526 O 0.28013 0.23256 1.04079
 O1527 O 0.25099 0.29755 0.97766
 O1528 O 0.21924 0.29082 0.97909
 O1529 O 0.27201 0.25130 0.95214
 O1530 O 0.26911 0.21893 0.95937
 O1531 O 0.29726 0.27246 0.99840
 O1532 O 0.29025 0.26845 1.03065
 Zr1533 Zr 0.27145 0.27145 1.00959
 O1534 O 0.25545 0.25587 1.02673
 Zr1535 Zr 0.27120 0.24015 0.97799
 O1536 O 0.25574 0.22299 0.99408
 Zr1537 Zr 0.23990 0.27159 0.97824
 O1538 O 0.22273 0.25561 0.99385
 Zr1539 Zr 0.25991 0.22875 1.02122
 O1540 O 0.27734 0.24424 1.00519
 Zr1541 Zr 0.22831 0.25995 1.02103
 O1542 O 0.24423 0.27734 1.00541
 Zr1543 Zr 0.22856 0.22843 0.98973
 O1544 O 0.24402 0.24442 0.97217
 O1545 O 0.26690 0.26714 0.98252
 O1546 O 0.23274 0.23284 1.01685
 C1547 C 0.26371 0.30512 0.98650
 C1548 C 0.30494 0.26326 0.98609
 C1549 C 0.26303 0.26384 0.94455
 C1550 C 0.23581 0.19565 1.01488
 C1551 C 0.23500 0.23522 1.05393
 C1552 C 0.19547 0.23516 1.01401
 H1553 H 0.25838 0.25869 1.03932
 H1554 H 0.21018 0.25843 0.99086
 H1555 H 0.27455 0.27477 0.97489
 H1556 H 0.25877 0.21041 0.99143
 H1557 H 0.29052 0.21379 1.01608
 H1558 H 0.28941 0.21197 0.98579
 H1559 H 0.20119 0.27892 1.01058
 H1560 H 0.22023 0.29690 0.99081
 H1561 H 0.27958 0.22237 1.04925
 H1562 H 0.29947 0.27794 1.02952
 H1563 H 0.20224 0.23879 0.96972
 H1564 H 0.21965 0.25941 0.95318
 H1565 H 0.25821 0.29662 1.02914
 H1566 H 0.23879 0.27948 1.04775
 H1567 H 0.25817 0.22108 0.95225
 H1568 H 0.23888 0.20096 0.97116
 C1569 C 0.28123 0.39374 0.78055
 C1570 C 0.26677 0.40201 0.78901
 C1571 C 0.26093 0.41882 0.78331
 C1572 C 0.29346 0.36290 0.79273
 C1573 C 0.28390 0.41904 0.76048
 C1574 C 0.28970 0.40223 0.76621
 C1575 C 0.28778 0.37686 0.78703
 C1576 C 0.26952 0.42761 0.76905
 H1577 H 0.26015 0.39557 0.80016
 H1578 H 0.24987 0.42501 0.79025
 H1579 H 0.29086 0.42542 0.74950
 H1580 H 0.30095 0.39597 0.75961
 C1581 C 0.28088 -0.10782 0.27992
 C1582 C 0.26628 -0.09960 0.28817
 C1583 C 0.26056 -0.08274 0.28250
 C1584 C 0.29345 -0.13831 0.29261
 C1585 C 0.28384 -0.08243 0.25999
 C1586 C 0.28953 -0.09929 0.26570
 C1587 C 0.28756 -0.12455 0.28664
 C1588 C 0.26943 -0.07383 0.26848
 H1589 H 0.25953 -0.10607 0.29923
 H1590 H 0.24944 -0.07655 0.28936
 H1591 H 0.29100 -0.07598 0.24919
 H1592 H 0.30089 -0.10551 0.25926
 C1593 C 0.78233 0.89388 0.78079
 C1594 C 0.79102 0.90247 0.76664
 C1595 C 0.78529 0.91931 0.76092
 C1596 C 0.79435 0.86292 0.79288
 C1597 C 0.76199 0.91893 0.78340
 C1598 C 0.76775 0.90209 0.78909
 C1599 C 0.78877 0.87694 0.78723
 C1600 C 0.77077 0.92781 0.76932
 H1601 H 0.80237 0.89625 0.76017
 H1602 H 0.79240 0.92575 0.75009
 H1603 H 0.75080 0.92506 0.79021
 H1604 H 0.76097 0.89558 0.80010
 C1605 C 0.46864 0.85673 0.28038
 C1606 C 0.45989 0.84820 0.26620
 C1607 C 0.46559 0.83138 0.26040
 C1608 C 0.45664 0.88759 0.29269
 C1609 C 0.48898 0.83167 0.28286
 C1610 C 0.48325 0.84848 0.28862
 C1611 C 0.46221 0.87362 0.28693
 C1612 C 0.48013 0.82284 0.26875
 H1613 H 0.44851 0.85444 0.25978
 H1614 H 0.45842 0.82497 0.24956
 H1615 H 0.50018 0.82550 0.28963
 H1616 H 0.49007 0.85495 0.29965
 C1617 C -0.03212 0.85613 0.78212
 C1618 C -0.01731 0.84803 0.79015
 C1619 C -0.01139 0.83134 0.78421
 C1620 C -0.04432 0.88689 0.79455
 C1621 C -0.03502 0.83086 0.76202
 C1622 C -0.04090 0.84756 0.76799
 C1623 C -0.03866 0.87295 0.78877
 C1624 C -0.02025 0.82248 0.77014
 H1625 H -0.01044 0.85453 0.80115
 H1626 H -0.00003 0.82528 0.79081
 H1627 H -0.04220 0.82444 0.75120
 H1628 H -0.05242 0.85369 0.76172
 C1629 C -0.02948 -0.10855 -0.02963
 C1630 C -0.01489 -0.10016 -0.03776
 C1631 C -0.00948 -0.08316 -0.03216
 C1632 C -0.04147 -0.13935 -0.04221
 C1633 C -0.03308 -0.08303 -0.00998
 C1634 C -0.03845 -0.10004 -0.01562
 C1635 C -0.03584 -0.12545 -0.03629
 C1636 C -0.01866 -0.07428 -0.01834
 H1637 H -0.00789 -0.10662 -0.04866
 H1638 H 0.00166 -0.07685 -0.03891
 H1639 H -0.04048 -0.07661 0.00066
 H1640 H -0.04982 -0.10639 -0.00928
 C1641 C -0.03008 0.39139 0.47028
 C1642 C -0.01564 0.39979 0.46187
 C1643 C -0.01021 0.41684 0.46729
 C1644 C -0.04202 0.36038 0.45813
 C1645 C -0.03347 0.41702 0.48982
 C1646 C -0.03887 0.39996 0.48437
 C1647 C -0.03643 0.37439 0.46385
 C1648 C -0.01920 0.42577 0.48120
 H1649 H -0.00878 0.39329 0.45091
 H1650 H 0.00080 0.42315 0.46034
 H1651 H -0.04072 0.42348 0.50055
 H1652 H -0.05011 0.39360 0.49092
 C1653 C 0.46856 -0.10589 0.46833
 C1654 C 0.46008 -0.09752 0.48272
 C1655 C 0.46600 -0.08081 0.48870
 C1656 C 0.45601 -0.13643 0.45563
 C1657 C 0.48912 -0.08092 0.46602
 C1658 C 0.48317 -0.09762 0.46008
 C1659 C 0.46185 -0.12261 0.46156
 C1660 C 0.48051 -0.07223 0.48032
 H1661 H 0.44872 -0.10378 0.48916
 H1662 H 0.45902 -0.07451 0.49969
 H1663 H 0.50028 -0.07471 0.45921
 H1664 H 0.48979 -0.10396 0.44888
 C1665 C 0.46937 0.39121 -0.02972
 C1666 C 0.48397 0.39954 -0.03792
 C1667 C 0.48945 0.41654 -0.03238
 C1668 C 0.45737 0.36030 -0.04207
 C1669 C 0.46591 0.41681 -0.01014
 C1670 C 0.46047 0.39980 -0.01572
 C1671 C 0.46300 0.37426 -0.03627
 C1672 C 0.48035 0.42549 -0.01855
 H1673 H 0.49092 0.39303 -0.04882
 H1674 H 0.50059 0.42279 -0.03918
 H1675 H 0.45858 0.42328 0.00051
 H1676 H 0.44911 0.39350 -0.00932
 C1677 C 0.77994 0.35842 0.47157
 C1678 C 0.76542 0.35002 0.46327
 C1679 C 0.76012 0.33292 0.46865
 C1680 C 0.79157 0.38957 0.45955
 C1681 C 0.78369 0.33268 0.49090
 C1682 C 0.78896 0.34979 0.48549
 C1683 C 0.78612 0.37550 0.46521
 C1684 C 0.76932 0.32394 0.48241
 H1685 H 0.75838 0.35657 0.45244
 H1686 H 0.74901 0.32663 0.46179
 H1687 H 0.79110 0.32619 0.50151
 H1688 H 0.80027 0.35615 0.49196
 C1689 C 0.78071 0.85833 -0.02994
 C1690 C 0.76623 0.85004 -0.03842
 C1691 C 0.76059 0.83306 -0.03298
 C1692 C 0.79302 0.88917 -0.04212
 C1693 C 0.78372 0.83275 -0.01026
 C1694 C 0.78932 0.84973 -0.01574
 C1695 C 0.78727 0.87524 -0.03638
 C1696 C 0.76941 0.82410 -0.01896
 H1697 H 0.75950 0.85655 -0.04947
 H1698 H 0.74956 0.82683 -0.04000
 H1699 H 0.79084 0.82627 0.00055
 H1700 H 0.80059 0.85600 -0.00911
 C1701 C 0.77952 0.27970 0.39234
 C1702 C 0.78794 0.26527 0.40072
 C1703 C 0.78252 0.25983 0.41775
 C1704 C 0.79172 0.29171 0.36143
 C1705 C 0.75996 0.28306 0.41793
 C1706 C 0.76542 0.28847 0.40090
 C1707 C 0.78597 0.28608 0.37539
 C1708 C 0.76859 0.26879 0.42666
 H1709 H 0.79892 0.25843 0.39424
 H1710 H 0.78948 0.24882 0.42405
 H1711 H 0.74922 0.29028 0.42437
 H1712 H 0.75886 0.29971 0.39454
 C1713 C 0.77943 0.78054 -0.10873
 C1714 C 0.78791 0.76610 -0.10041
 C1715 C 0.78237 0.76043 -0.08349
 C1716 C 0.79197 0.79309 -0.13928
 C1717 C 0.75955 0.78340 -0.08332
 C1718 C 0.76513 0.78905 -0.10024
 C1719 C 0.78605 0.78722 -0.12550
 C1720 C 0.76827 0.76916 -0.07463
 H1721 H 0.79904 0.75946 -0.10683
 H1722 H 0.78940 0.74944 -0.07722
 H1723 H 0.74869 0.79046 -0.07691
 H1724 H 0.75852 0.80029 -0.10654
 C1725 C 0.28127 0.46833 0.85581
 C1726 C 0.28995 0.48254 0.84729
 C1727 C 0.28425 0.48826 0.83043
 C1728 C 0.29314 0.45655 0.88696
 C1729 C 0.26103 0.46561 0.83061
 C1730 C 0.26676 0.45993 0.84748
 C1731 C 0.28761 0.46202 0.87284
 C1732 C 0.26977 0.47980 0.82183
 H1733 H 0.30123 0.48910 0.85359
 H1734 H 0.29133 0.49917 0.82407
 H1735 H 0.24989 0.45876 0.82439
 H1736 H 0.25999 0.44887 0.85393
 C1737 C 0.28040 -0.03007 0.35785
 C1738 C 0.28862 -0.01550 0.34947
 C1739 C 0.28288 -0.00993 0.33258
 C1740 C 0.29320 -0.04237 0.38842
 C1741 C 0.26039 -0.03329 0.33253
 C1742 C 0.26616 -0.03883 0.34943
 C1743 C 0.28719 -0.03660 0.37462
 C1744 C 0.26883 -0.01891 0.32379
 H1745 H 0.29970 -0.00866 0.35585
 H1746 H 0.28971 0.00117 0.32627
 H1747 H 0.24957 -0.04054 0.32618
 H1748 H 0.25974 -0.05017 0.35577
 C1749 C -0.02964 -0.03108 -0.10780
 C1750 C -0.03802 -0.01656 -0.09956
 C1751 C -0.03238 -0.01078 -0.08270
 C1752 C -0.04236 -0.04380 -0.13826
 C1753 C -0.00966 -0.03384 -0.08243
 C1754 C -0.01533 -0.03959 -0.09929
 C1755 C -0.03636 -0.03786 -0.12452
 C1756 C -0.01828 -0.01951 -0.07380
 H1757 H -0.04915 -0.00991 -0.10601
 H1758 H -0.03935 0.00027 -0.07648
 H1759 H 0.00121 -0.04090 -0.07599
 H1760 H -0.00879 -0.05089 -0.10553
 C1761 C -0.02929 0.46969 0.39114
 C1762 C -0.01495 0.46126 0.39967
 C1763 C -0.00955 0.46681 0.41670
 C1764 C -0.04138 0.45739 0.36026
 C1765 C -0.03266 0.48949 0.41657
 C1766 C -0.03802 0.48392 0.39955
 C1767 C -0.03567 0.46314 0.37421
 C1768 C -0.01849 0.48086 0.42546
 H1769 H -0.00815 0.45018 0.39331
 H1770 H 0.00138 0.45983 0.42312
 H1771 H -0.03986 0.50033 0.42289
 H1772 H -0.04918 0.49049 0.39308
 C1773 C 0.46894 -0.03172 0.39396
 C1774 C 0.46031 -0.01748 0.40243
 C1775 C 0.46604 -0.01169 0.41926
 C1776 C 0.45692 -0.04369 0.36293
 C1777 C 0.48920 -0.03431 0.41914
 C1778 C 0.48344 -0.04007 0.40230
 C1779 C 0.46253 -0.03815 0.37699
 C1780 C 0.48050 -0.02011 0.42788
 H1781 H 0.44903 -0.01096 0.39611
 H1782 H 0.45899 -0.00076 0.42559
 H1783 H 0.50033 -0.04114 0.42537
 H1784 H 0.49017 -0.05116 0.39588
 C1785 C 0.47010 0.46946 -0.10834
 C1786 C 0.46172 0.48393 -0.10000
 C1787 C 0.46723 0.48945 -0.08301
 C1788 C 0.45764 0.45720 -0.13907
 C1789 C 0.48981 0.46625 -0.08281
 C1790 C 0.48426 0.46075 -0.09980
 C1791 C 0.46352 0.46295 -0.12520
 C1792 C 0.48120 0.48053 -0.07410
 H1793 H 0.45069 0.49072 -0.10647
 H1794 H 0.46028 0.50048 -0.07673
 H1795 H 0.50058 0.45905 -0.07636
 H1796 H 0.49080 0.44949 -0.10612
 C1797 C 0.46900 0.78268 0.35563
 C1798 C 0.48337 0.79116 0.34719
 C1799 C 0.48925 0.78521 0.33048
 C1800 C 0.45652 0.79521 0.38622
 C1801 C 0.46650 0.76209 0.33072
 C1802 C 0.46066 0.76807 0.34742
 C1803 C 0.46235 0.78939 0.37238
 C1804 C 0.48078 0.77068 0.32196
 H1805 H 0.48988 0.80252 0.35340
 H1806 H 0.50023 0.79218 0.32413
 H1807 H 0.45963 0.75092 0.32456
 H1808 H 0.44948 0.76145 0.35382
 C1809 C -0.03121 0.78203 0.85588
 C1810 C -0.03989 0.76780 0.84735
 C1811 C -0.03427 0.76214 0.83047
 C1812 C -0.04299 0.79365 0.88710
 C1813 C -0.01111 0.78485 0.83063
 C1814 C -0.01678 0.79048 0.84753
 C1815 C -0.03749 0.78827 0.87295
 C1816 C -0.01986 0.77065 0.82185
 H1817 H -0.05112 0.76120 0.85368
 H1818 H -0.04135 0.75121 0.82411
 H1819 H -0.00002 0.79175 0.82440
 H1820 H -0.01000 0.80156 0.85399
 C1821 C 0.39449 0.78222 0.28177
 C1822 C 0.40279 0.76767 0.29008
 C1823 C 0.41954 0.76185 0.28424
 C1824 C 0.36363 0.79433 0.29392
 C1825 C 0.41967 0.78504 0.26160
 C1826 C 0.40291 0.79082 0.26747
 C1827 C 0.37761 0.78868 0.28828
 C1828 C 0.42825 0.77054 0.26999
 H1829 H 0.39640 0.76095 0.30120
 H1830 H 0.42575 0.75069 0.29105
 H1831 H 0.42597 0.79208 0.25064
 H1832 H 0.39663 0.80214 0.26098
 C1833 C -0.10618 0.78167 0.78095
 C1834 C -0.09772 0.76744 0.78964
 C1835 C -0.08091 0.76165 0.78395
 C1836 C -0.13707 0.79391 0.79291
 C1837 C -0.08106 0.78421 0.76068
 C1838 C -0.09787 0.78997 0.76640
 C1839 C -0.12309 0.78819 0.78735
 C1840 C -0.07231 0.77006 0.76946
 H1841 H -0.10402 0.76097 0.80096
 H1842 H -0.07457 0.75076 0.79106
 H1843 H -0.07484 0.79103 0.74953
 H1844 H -0.10428 0.80104 0.75962
 C1845 C 0.85861 0.27901 0.47076
 C1846 C 0.85009 0.26466 0.46228
 C1847 C 0.83307 0.25923 0.46778
 C1848 C 0.88946 0.29114 0.45852
 C1849 C 0.83319 0.28233 0.49053
 C1850 C 0.85020 0.28771 0.48500
 C1851 C 0.87553 0.28542 0.46425
 C1852 C 0.82431 0.26815 0.48184
 H1853 H 0.85645 0.25787 0.45120
 H1854 H 0.82665 0.24830 0.46077
 H1855 H 0.82686 0.28952 0.50138
 H1856 H 0.85665 0.29889 0.49161
 C1857 C 0.85828 0.77899 -0.03101
 C1858 C 0.85004 0.78744 -0.01652
 C1859 C 0.83303 0.78206 -0.01098
 C1860 C 0.88916 0.79109 -0.04319
 C1861 C 0.83257 0.75949 -0.03424
 C1862 C 0.84959 0.76490 -0.03975
 C1863 C 0.87522 0.78538 -0.03749
 C1864 C 0.82398 0.76815 -0.01992
 H1865 H 0.85664 0.79840 -0.00970
 H1866 H 0.82684 0.78905 0.00007
 H1867 H 0.82603 0.74876 -0.04145
 H1868 H 0.85582 0.75831 -0.05103
 C1869 C -0.10800 -0.03007 -0.03014
 C1870 C -0.09955 -0.01570 -0.03864
 C1871 C -0.08258 -0.01013 -0.03308
 C1872 C -0.13882 -0.04237 -0.04240
 C1873 C -0.08259 -0.03313 -0.01024
 C1874 C -0.09956 -0.03865 -0.01583
 C1875 C -0.12490 -0.03658 -0.03666
 C1876 C -0.07379 -0.01893 -0.01894
 H1877 H -0.10594 -0.00900 -0.04977
 H1878 H -0.07622 0.00081 -0.04011
 H1879 H -0.07625 -0.04023 0.00067
 H1880 H -0.10595 -0.04983 -0.00919
 C1881 C -0.10881 0.47080 0.46989
 C1882 C -0.10016 0.48477 0.46093
 C1883 C -0.08304 0.49013 0.46619
 C1884 C -0.14002 0.45889 0.45826
 C1885 C -0.08329 0.46774 0.48962
 C1886 C -0.10041 0.46241 0.48433
 C1887 C -0.12592 0.46451 0.46371
 C1888 C -0.07430 0.48154 0.48049
 H1889 H -0.10653 0.49131 0.44969
 H1890 H -0.07654 0.50078 0.45884
 H1891 H -0.07699 0.46081 0.50067
 H1892 H -0.10697 0.45154 0.49131
 C1893 C 0.39436 -0.03096 0.46802
 C1894 C 0.40283 -0.01666 0.45943
 C1895 C 0.41963 -0.01083 0.46520
 C1896 C 0.36347 -0.04324 0.45593
 C1897 C 0.41947 -0.03350 0.48837
 C1898 C 0.40267 -0.03929 0.48256
 C1899 C 0.37746 -0.03751 0.46154
 C1900 C 0.42823 -0.01926 0.47968
 H1901 H 0.39654 -0.01016 0.44811
 H1902 H 0.42598 0.00011 0.45815
 H1903 H 0.42568 -0.04034 0.49951
 H1904 H 0.39626 -0.05041 0.48927
 C1905 C 0.39136 0.47015 -0.03034
 C1906 C 0.39976 0.46149 -0.01605
 C1907 C 0.41674 0.46694 -0.01043
 C1908 C 0.36056 0.45790 -0.04272
 C1909 C 0.41683 0.49002 -0.03319
 C1910 C 0.39985 0.48452 -0.03877
 C1911 C 0.37447 0.46367 -0.03692
 C1912 C 0.42559 0.48114 -0.01908
 H1913 H 0.39333 0.45030 -0.00946
 H1914 H 0.42306 0.45978 0.00045
 H1915 H 0.42323 0.50096 -0.04018
 H1916 H 0.39349 0.49128 -0.04990
 C1917 C 0.35587 0.46905 0.78105
 C1918 C 0.34744 0.48321 0.78988
 C1919 C 0.33060 0.48904 0.78426
 C1920 C 0.38678 0.45671 0.79290
 C1921 C 0.33069 0.46668 0.76079
 C1922 C 0.34751 0.46088 0.76644
 C1923 C 0.37279 0.46247 0.78739
 C1924 C 0.32196 0.48076 0.76971
 H1925 H 0.35377 0.48958 0.80126
 H1926 H 0.32427 0.49986 0.79148
 H1927 H 0.32444 0.45996 0.74958
 H1928 H 0.35390 0.44987 0.75955
 C1929 C 0.35813 -0.02909 0.27975
 C1930 C 0.34972 -0.03766 0.26539
 C1931 C 0.33277 -0.03218 0.25980
 C1932 C 0.38874 -0.04156 0.29220
 C1933 C 0.33273 -0.00924 0.28269
 C1934 C 0.34968 -0.01475 0.28826
 C1935 C 0.37493 -0.03567 0.28637
 C1936 C 0.32395 -0.01805 0.26854
 H1937 H 0.35612 -0.04882 0.25876
 H1938 H 0.32643 -0.03929 0.24888
 H1939 H 0.32635 0.00166 0.28975
 H1940 H 0.35605 -0.00807 0.29944
 C1941 C 0.14137 0.53001 0.72044
 C1942 C 0.14963 0.51542 0.71219
 C1943 C 0.16664 0.50998 0.71766
 C1944 C 0.11048 0.54199 0.70815
 C1945 C 0.16703 0.53351 0.73995
 C1946 C 0.15002 0.53893 0.73444
 C1947 C 0.12443 0.53637 0.71394
 C1948 C 0.17565 0.51909 0.73148
 H1949 H 0.14307 0.50846 0.70130
 H1950 H 0.17285 0.49884 0.71082
 H1951 H 0.17356 0.54086 0.75059
 H1952 H 0.14376 0.55028 0.74088
 C1953 C 0.14346 0.03085 0.21885
 C1954 C 0.15193 0.03950 0.23313
 C1955 C 0.16875 0.03381 0.23893
 C1956 C 0.11262 0.04291 0.20652
 C1957 C 0.16858 0.01060 0.21630
 C1958 C 0.15176 0.01632 0.21054
 C1959 C 0.12658 0.03730 0.21228
 C1960 C 0.17736 0.01936 0.23049
 H1961 H 0.14564 0.05081 0.23961
 H1962 H 0.17511 0.04091 0.24984
 H1963 H 0.17480 -0.00053 0.20946
 H1964 H 0.14535 0.00957 0.19943
 C1965 C 0.60819 0.71997 0.21992
 C1966 C 0.59970 0.71135 0.23418
 C1967 C 0.58282 0.71698 0.23983
 C1968 C 0.63871 0.70747 0.20732
 C1969 C 0.58303 0.74015 0.21717
 C1970 C 0.59991 0.73449 0.21156
 C1971 C 0.62494 0.71332 0.21325
 C1972 C 0.57417 0.73131 0.23123
 H1973 H 0.60597 0.70004 0.24071
 H1974 H 0.57640 0.70984 0.25066
 H1975 H 0.57679 0.75121 0.21023
 H1976 H 0.60635 0.74122 0.20047
 C1977 C 0.10830 0.72069 0.72072
 C1978 C 0.09993 0.73511 0.71227
 C1979 C 0.08285 0.74047 0.71760
 C1980 C 0.13942 0.70895 0.70886
 C1981 C 0.08259 0.71714 0.74010
 C1982 C 0.09967 0.71182 0.73474
 C1983 C 0.12536 0.71446 0.71444
 C1984 C 0.07388 0.73142 0.73146
 H1985 H 0.10647 0.74203 0.70136
 H1986 H 0.07658 0.75149 0.71063
 H1987 H 0.07611 0.70985 0.75079
 H1988 H 0.10601 0.70059 0.74132
 C1989 C 0.64350 0.21937 0.53095
 C1990 C 0.65202 0.21065 0.51678
 C1991 C 0.66903 0.21612 0.51130
 C1992 C 0.61216 0.20784 0.54251
 C1993 C 0.66897 0.23919 0.53407
 C1994 C 0.65196 0.23369 0.53951
 C1995 C 0.62636 0.21321 0.53711
 C1996 C 0.67777 0.23039 0.51995
 H1997 H 0.64560 0.19950 0.51010
 H1998 H 0.67539 0.20901 0.50042
 H1999 H 0.67529 0.25019 0.54107
 H2000 H 0.64551 0.24049 0.55054
 C2001 C 0.64393 0.71809 0.03037
 C2002 C 0.65227 0.73261 0.03873
 C2003 C 0.66905 0.73845 0.03294
 C2004 C 0.61310 0.70589 0.04265
 C2005 C 0.66910 0.71536 0.01019
 C2006 C 0.65233 0.70955 0.01602
 C2007 C 0.62706 0.71156 0.03692
 C2008 C 0.67774 0.72981 0.01866
 H2009 H 0.64591 0.73928 0.04990
 H2010 H 0.67529 0.74958 0.03981
 H2011 H 0.67540 0.70835 -0.00079
 H2012 H 0.64601 0.69825 0.00949
 C2013 C 0.10591 0.03205 0.03214
 C2014 C 0.09749 0.04060 0.01779
 C2015 C 0.08080 0.03465 0.01179
 C2016 C 0.13645 0.04456 0.04486
 C2017 C 0.08102 0.01139 0.03436
 C2018 C 0.09770 0.01737 0.04032
 C2019 C 0.12263 0.03875 0.03891
 C2020 C 0.07229 0.02005 0.02011
 H2021 H 0.10371 0.05202 0.01140
 H2022 H 0.07447 0.04167 0.00083
 H2023 H 0.07486 0.00016 0.04112
 H2024 H 0.10408 0.01070 0.05148
 C2025 C 0.10623 0.53149 0.52975
 C2026 C 0.09789 0.51701 0.53814
 C2027 C 0.08095 0.51140 0.53258
 C2028 C 0.13745 0.54315 0.54158
 C2029 C 0.08070 0.53468 0.51003
 C2030 C 0.09765 0.54025 0.51563
 C2031 C 0.12331 0.53774 0.53604
 C2032 C 0.07209 0.52024 0.51852
 H2033 H 0.10439 0.51017 0.54913
 H2034 H 0.07473 0.50027 0.53945
 H2035 H 0.07428 0.54183 0.49920
 H2036 H 0.10397 0.55153 0.50908
 C2037 C 0.60877 0.03047 0.52928
 C2038 C 0.60045 0.01598 0.53771
 C2039 C 0.58343 0.01046 0.53230
 C2040 C 0.63969 0.04260 0.54142
 C2041 C 0.58312 0.03372 0.50973
 C2042 C 0.60015 0.03921 0.51518
 C2043 C 0.62572 0.03692 0.53570
 C2044 C 0.57446 0.01940 0.51837
 H2045 H 0.60699 0.00916 0.54869
 H2046 H 0.57718 -0.00059 0.53926
 H2047 H 0.57664 0.04094 0.49899
 H2048 H 0.60644 0.05049 0.50861
 C2049 C 0.60567 0.53125 0.03145
 C2050 C 0.59736 0.51675 0.03985
 C2051 C 0.58063 0.51081 0.03399
 C2052 C 0.63629 0.54380 0.04392
 C2053 C 0.58056 0.53376 0.01111
 C2054 C 0.59729 0.53966 0.01700
 C2055 C 0.62243 0.53795 0.03810
 C2056 C 0.57194 0.51935 0.01964
 H2057 H 0.60371 0.51018 0.05109
 H2058 H 0.57439 0.49973 0.04091
 H2059 H 0.57427 0.54069 0.00006
 H2060 H 0.60359 0.55095 0.01044
 C2061 C 0.03197 0.03138 0.10628
 C2062 C 0.01773 0.04003 0.09780
 C2063 C 0.01188 0.03428 0.08099
 C2064 C 0.04409 0.04341 0.13725
 C2065 C 0.03443 0.01104 0.08117
 C2066 C 0.04024 0.01683 0.09797
 C2067 C 0.03846 0.03781 0.12322
 C2068 C 0.02024 0.01977 0.07241
 H2069 H 0.01127 0.05136 0.10409
 H2070 H 0.00097 0.04136 0.07465
 H2071 H 0.04121 -0.00013 0.07496
 H2072 H 0.05132 0.01007 0.10440
 C2073 C 0.03066 0.53073 0.60608
 C2074 C 0.01629 0.53921 0.59766
 C2075 C 0.01067 0.53361 0.58073
 C2076 C 0.04239 0.54259 0.63728
 C2077 C 0.03371 0.51086 0.58066
 C2078 C 0.03929 0.51649 0.59760
 C2079 C 0.03694 0.53705 0.62315
 C2080 C 0.01939 0.51944 0.57196
 H2081 H 0.00955 0.55029 0.60409
 H2082 H -0.00036 0.54056 0.57444
 H2083 H 0.04076 0.49995 0.57431
 H2084 H 0.05048 0.50987 0.60398
 C2085 C 0.53046 0.02926 0.60856
 C2086 C 0.51607 0.03774 0.60017
 C2087 C 0.51063 0.03238 0.58310
 C2088 C 0.54230 0.04120 0.63969
 C2089 C 0.53381 0.00977 0.58288
 C2090 C 0.53921 0.01517 0.59995
 C2091 C 0.53676 0.03558 0.62562
 C2092 C 0.51957 0.01845 0.57414
 H2093 H 0.50923 0.04870 0.60669
 H2094 H 0.49964 0.03937 0.57680
 H2095 H 0.54102 -0.00097 0.57640
 H2096 H 0.55041 0.00855 0.60630
 C2097 C 0.53189 0.53107 0.10590
 C2098 C 0.51759 0.53969 0.09748
 C2099 C 0.51167 0.53391 0.08071
 C2100 C 0.54414 0.54325 0.13676
 C2101 C 0.53424 0.51069 0.08081
 C2102 C 0.54013 0.51651 0.09758
 C2103 C 0.53846 0.53756 0.12278
 C2104 C 0.52001 0.51940 0.07211
 H2105 H 0.51116 0.55102 0.10378
 H2106 H 0.50073 0.54097 0.07441
 H2107 H 0.54101 0.49952 0.07458
 H2108 H 0.55125 0.50978 0.10396
 C2109 C 0.21956 0.52919 0.64132
 C2110 C 0.23401 0.53765 0.64968
 C2111 C 0.23947 0.53227 0.66672
 C2112 C 0.20758 0.54131 0.61035
 C2113 C 0.21619 0.50968 0.66698
 C2114 C 0.21077 0.51510 0.64993
 C2115 C 0.21319 0.53559 0.62434
 C2116 C 0.23048 0.51835 0.67568
 H2117 H 0.24087 0.54862 0.64315
 H2118 H 0.25050 0.53925 0.67299
 H2119 H 0.20895 0.49895 0.67346
 H2120 H 0.19951 0.50851 0.64360
 C2121 C 0.21676 0.03176 0.14429
 C2122 C 0.20852 0.01718 0.15263
 C2123 C 0.21458 0.01124 0.16929
 C2124 C 0.20420 0.04424 0.11369
 C2125 C 0.23732 0.03437 0.16922
 C2126 C 0.23123 0.04026 0.15257
 C2127 C 0.21000 0.03840 0.12755
 C2128 C 0.22899 0.01985 0.17785
 H2129 H 0.19726 0.01053 0.14636
 H2130 H 0.20781 0.00008 0.17555
 H2131 H 0.24840 0.04135 0.17541
 H2132 H 0.23767 0.05160 0.14625
 C2133 C 0.71863 0.21854 0.60688
 C2134 C 0.71026 0.23302 0.59853
 C2135 C 0.71597 0.23874 0.58167
 C2136 C 0.70679 0.20662 0.63798
 C2137 C 0.73858 0.21556 0.58156
 C2138 C 0.73284 0.20988 0.59840
 C2139 C 0.71227 0.21219 0.62389
 C2140 C 0.73015 0.23001 0.57293
 H2141 H 0.69920 0.23978 0.60495
 H2142 H 0.70914 0.24986 0.57543
 H2143 H 0.74949 0.20849 0.57522
 H2144 H 0.73937 0.19861 0.60473
 C2145 C 0.71875 0.71892 0.10561
 C2146 C 0.73318 0.71050 0.09725
 C2147 C 0.73894 0.71625 0.08044
 C2148 C 0.70668 0.70667 0.13648
 C2149 C 0.71596 0.73906 0.08037
 C2150 C 0.71023 0.73327 0.09719
 C2151 C 0.71229 0.71239 0.12251
 C2152 C 0.73031 0.73053 0.07172
 H2153 H 0.73984 0.69933 0.10363
 H2154 H 0.74999 0.70934 0.07418
 H2155 H 0.70897 0.75004 0.07406
 H2156 H 0.69900 0.73984 0.10353
 C2157 C 0.53040 0.72054 0.14173
 C2158 C 0.51602 0.71203 0.15013
 C2159 C 0.51039 0.71765 0.16702
 C2160 C 0.54286 0.70788 0.11120
 C2161 C 0.53330 0.74061 0.16702
 C2162 C 0.53890 0.73495 0.15012
 C2163 C 0.53703 0.71385 0.12497
 C2164 C 0.51911 0.73186 0.17579
 H2165 H 0.50939 0.70081 0.14377
 H2166 H 0.49945 0.71059 0.17335
 H2167 H 0.54034 0.75157 0.17337
 H2168 H 0.55009 0.74159 0.14376
 C2169 C 0.02984 0.72098 0.64139
 C2170 C 0.01536 0.71260 0.64974
 C2171 C 0.00988 0.71810 0.66672
 C2172 C 0.04192 0.70862 0.61058
 C2173 C 0.03317 0.74068 0.66693
 C2174 C 0.03862 0.73514 0.64994
 C2175 C 0.03626 0.71444 0.62449
 C2176 C 0.01886 0.73207 0.67564
 H2177 H 0.00852 0.70159 0.64326
 H2178 H -0.00116 0.71116 0.67300
 H2179 H 0.04041 0.75145 0.67338
 H2180 H 0.04989 0.74168 0.64362
 C2181 C 0.52988 0.64240 0.21948
 C2182 C 0.53816 0.65071 0.23406
 C2183 C 0.53256 0.66764 0.23965
 C2184 C 0.54245 0.61180 0.20712
 C2185 C 0.51009 0.66783 0.21628
 C2186 C 0.51572 0.65091 0.21072
 C2187 C 0.53654 0.62561 0.21292
 C2188 C 0.51860 0.67652 0.23067
 H2189 H 0.54918 0.64427 0.24089
 H2190 H 0.53944 0.67390 0.25075
 H2191 H 0.49933 0.67426 0.20904
 H2192 H 0.50926 0.64461 0.19938
 C2193 C 0.02886 0.64206 0.71980
 C2194 C 0.03757 0.65052 0.73405
 C2195 C 0.03223 0.66755 0.73955
 C2196 C 0.04089 0.61115 0.70764
 C2197 C 0.00916 0.66759 0.71677
 C2198 C 0.01454 0.65055 0.71130
 C2199 C 0.03521 0.62511 0.71334
 C2200 C 0.01809 0.67639 0.73084
 H2201 H 0.04872 0.64409 0.74068
 H2202 H 0.03942 0.67391 0.75041
 H2203 H -0.00175 0.67398 0.70974
 H2204 H 0.00775 0.64415 0.70021
 C2205 C 0.03092 0.10600 0.03229
 C2206 C 0.01676 0.09743 0.04102
 C2207 C 0.01092 0.08062 0.03525
 C2208 C 0.04328 0.13688 0.04434
 C2209 C 0.03327 0.08098 0.01182
 C2210 C 0.03907 0.09779 0.01762
 C2211 C 0.03750 0.12290 0.03875
 C2212 C 0.01919 0.07212 0.02065
 H2213 H 0.01040 0.10365 0.05244
 H2214 H 0.00010 0.07419 0.04241
 H2215 H 0.03998 0.07485 0.00057
 H2216 H 0.05008 0.10427 0.01080
 C2217 C 0.03096 0.60626 0.53102
 C2218 C 0.01649 0.59788 0.53940
 C2219 C 0.01082 0.58098 0.53372
 C2220 C 0.04278 0.63746 0.54280
 C2221 C 0.03402 0.58086 0.51112
 C2222 C 0.03965 0.59776 0.51683
 C2223 C 0.03726 0.62332 0.53734
 C2224 C 0.01958 0.57221 0.51957
 H2225 H 0.00971 0.60432 0.55044
 H2226 H -0.00029 0.57472 0.54057
 H2227 H 0.04111 0.57452 0.50023
 H2228 H 0.05091 0.60410 0.51029
 C2229 C 0.52926 0.10874 0.52945
 C2230 C 0.51507 0.10018 0.53812
 C2231 C 0.50974 0.08306 0.53280
 C2232 C 0.54128 0.13978 0.54137
 C2233 C 0.53259 0.08317 0.50985
 C2234 C 0.53788 0.10028 0.51520
 C2235 C 0.53560 0.12577 0.53577
 C2236 C 0.51858 0.07425 0.51872
 H2237 H 0.50836 0.10659 0.54922
 H2238 H 0.49893 0.07661 0.53995
 H2239 H 0.53971 0.07681 0.49898
 H2240 H 0.54893 0.10677 0.50844
 C2241 C 0.53092 0.60560 0.03179
 C2242 C 0.51678 0.59710 0.04060
 C2243 C 0.51087 0.58029 0.03491
 C2244 C 0.54334 0.63654 0.04365
 C2245 C 0.53316 0.58051 0.01141
 C2246 C 0.53902 0.59732 0.01713
 C2247 C 0.53754 0.62253 0.03815
 C2248 C 0.51908 0.57172 0.02030
 H2249 H 0.51045 0.60338 0.05201
 H2250 H 0.50006 0.57391 0.04211
 H2251 H 0.53982 0.57432 0.00016
 H2252 H 0.55002 0.60376 0.01025
 C2253 C 0.71980 0.14340 0.53215
 C2254 C 0.73391 0.15198 0.54097
 C2255 C 0.73956 0.16891 0.53542
 C2256 C 0.70790 0.11218 0.54375
 C2257 C 0.71709 0.16866 0.51205
 C2258 C 0.71147 0.15173 0.51763
 C2259 C 0.71346 0.12632 0.53836
 C2260 C 0.73115 0.17752 0.52094
 H2261 H 0.74040 0.14567 0.55228
 H2262 H 0.75037 0.17534 0.54262
 H2263 H 0.71027 0.17488 0.50089
 H2264 H 0.70050 0.14523 0.51075
 C2265 C 0.71775 0.64440 0.03169
 C2266 C 0.73249 0.65259 0.03980
 C2267 C 0.73842 0.66929 0.03384
 C2268 C 0.70541 0.61370 0.04417
 C2269 C 0.71497 0.66956 0.01146
 C2270 C 0.70907 0.65286 0.01745
 C2271 C 0.71115 0.62760 0.03837
 C2272 C 0.72965 0.67805 0.01967
 H2273 H 0.73927 0.64618 0.05087
 H2274 H 0.74973 0.67543 0.04051
 H2275 H 0.70786 0.67591 0.00056
 H2276 H 0.69760 0.64666 0.01111
 C2277 C 0.22084 0.60862 0.72040
 C2278 C 0.21214 0.60008 0.73458
 C2279 C 0.21742 0.58298 0.73992
 C2280 C 0.20903 0.63977 0.70861
 C2281 C 0.24038 0.58300 0.71709
 C2282 C 0.23507 0.60011 0.71178
 C2283 C 0.21460 0.62570 0.71414
 C2284 C 0.23148 0.57413 0.73110
 H2285 H 0.20107 0.60652 0.74130
 H2286 H 0.21024 0.57657 0.75074
 H2287 H 0.25123 0.57661 0.70998
 H2288 H 0.24185 0.60658 0.70074
 C2289 C 0.21860 0.10590 0.21778
 C2290 C 0.23281 0.09744 0.20910
 C2291 C 0.23866 0.08066 0.21486
 C2292 C 0.20628 0.13674 0.20569
 C2293 C 0.21620 0.08084 0.23819
 C2294 C 0.21038 0.09762 0.23239
 C2295 C 0.21202 0.12278 0.21131
 C2296 C 0.23035 0.07209 0.22941
 H2297 H 0.23922 0.10371 0.19773
 H2298 H 0.24953 0.07431 0.20774
 H2299 H 0.20945 0.07465 0.24939
 H2300 H 0.19933 0.10403 0.23917
 C2301 C 0.72066 1.10827 0.72026
 C2302 C 0.71235 1.09989 0.73476
 C2303 C 0.71792 1.08294 0.74029
 C2304 C 0.70822 1.13902 0.70805
 C2305 C 0.74043 1.08283 0.71701
 C2306 C 0.73482 1.09979 0.71151
 C2307 C 0.71406 1.12514 0.71378
 C2308 C 0.73190 1.07409 0.73134
 H2309 H 0.70133 1.10632 0.74158
 H2310 H 0.71103 1.07663 0.75134
 H2311 H 0.75120 1.07644 0.70979
 H2312 H 0.74131 1.10613 0.70023
 C2313 C 0.71888 0.60594 0.21783
 C2314 C 0.71023 0.59753 0.23212
 C2315 C 0.71595 0.58075 0.23801
 C2316 C 0.70684 0.63684 0.20563
 C2317 C 0.73916 0.58082 0.21542
 C2318 C 0.73340 0.59760 0.20956
 C2319 C 0.71246 0.62285 0.21129
 C2320 C 0.73043 0.57213 0.22966
 H2321 H 0.69893 0.60385 0.23857
 H2322 H 0.70888 0.57446 0.24896
 H2323 H 0.75030 0.57458 0.20864
 H2324 H 0.74015 0.60398 0.19844
 C2325 C 0.52897 0.14121 0.72034
 C2326 C 0.53739 0.14959 0.73481
 C2327 C 0.53199 0.16663 0.74024
 C2328 C 0.54103 0.11021 0.70841
 C2329 C 0.50947 0.16683 0.71692
 C2330 C 0.51490 0.14979 0.71152
 C2331 C 0.53536 0.12421 0.71400
 C2332 C 0.51809 0.17556 0.73123
 H2333 H 0.54835 0.14309 0.74169
 H2334 H 0.53895 0.17293 0.75128
 H2335 H 0.49874 0.17329 0.70966
 H2336 H 0.50833 0.14345 0.70027
 C2337 C 1.02939 0.14152 0.21989
 C2338 C 1.01519 0.15005 0.21121
 C2339 C 1.00958 0.16696 0.21684
 C2340 C 1.04194 0.11098 0.20735
 C2341 C 1.03214 0.16670 0.24013
 C2342 C 1.03772 0.14979 0.23447
 C2343 C 1.03604 0.12476 0.21323
 C2344 C 1.01814 0.17560 0.23123
 H2345 H 1.00870 0.14379 0.19987
 H2346 H 0.99879 0.17340 0.20966
 H2347 H 1.03906 0.17293 0.25123
 H2348 H 1.04877 0.14333 0.24124
 C2349 C 0.22080 0.64205 0.52944
 C2350 C 0.21253 0.65045 0.51492
 C2351 C 0.21802 0.66749 0.50957
 C2352 C 0.20848 0.61110 0.54128
 C2353 C 0.24037 0.66766 0.53305
 C2354 C 0.23484 0.65061 0.53838
 C2355 C 0.21428 0.62507 0.53572
 C2356 C 0.23188 0.67641 0.51871
 H2357 H 0.20160 0.64396 0.50795
 H2358 H 0.21116 0.67380 0.49849
 H2359 H 0.25106 0.67411 0.54041
 H2360 H 0.24130 0.64425 0.54968
 C2361 C 0.21822 0.14384 1.03251
 C2362 C 0.21004 0.15200 1.01781
 C2363 C 0.21599 0.16869 1.01183
 C2364 C 0.20553 0.11330 1.04504
 C2365 C 0.23853 0.16900 1.03514
 C2366 C 0.23255 0.15231 1.04108
 C2367 C 0.21146 0.12712 1.03922
 C2368 C 0.23022 0.17747 1.02052
 H2369 H 0.19890 0.14559 1.01112
 H2370 H 0.20924 0.17481 1.00058
 H2371 H 0.24947 0.17537 1.04219
 H2372 H 0.23893 0.14613 1.05252
 C2373 C 0.22073 0.72139 0.60836
 C2374 C 0.21220 0.73570 0.59987
 C2375 C 0.21758 0.74104 0.58278
 C2376 C 0.20883 0.70951 0.63945
 C2377 C 0.24028 0.71795 0.58278
 C2378 C 0.23487 0.71264 0.59986
 C2379 C 0.21440 0.71511 0.62541
 C2380 C 0.23156 0.73210 0.57394
 H2381 H 0.20119 0.74252 0.60631
 H2382 H 0.21055 0.75195 0.57639
 H2383 H 0.25106 0.71074 0.57640
 H2384 H 0.24152 0.70150 0.60630
 C2385 C 0.21779 0.21785 1.10592
 C2386 C 0.23211 0.20934 1.09747
 C2387 C 0.23790 0.21516 1.08069
 C2388 C 0.20581 0.20559 1.13682
 C2389 C 0.21515 0.23820 1.08083
 C2390 C 0.20938 0.23234 1.09762
 C2391 C 0.21136 0.21132 1.12283
 C2392 C 0.22941 0.22960 1.07211
 H2393 H 0.23867 0.19807 1.10376
 H2394 H 0.24888 0.20819 1.07437
 H2395 H 0.20827 0.24931 1.07462
 H2396 H 0.19824 0.23899 1.10403
 C2397 C 0.71834 0.53144 0.14398
 C2398 C 0.70987 0.51702 0.15237
 C2399 C 0.71577 0.51112 0.16910
 C2400 C 0.70582 0.54394 0.11338
 C2401 C 0.73884 0.53393 0.16898
 C2402 C 0.73290 0.53979 0.15225
 C2403 C 0.71166 0.53811 0.12723
 C2404 C 0.73025 0.51961 0.17768
 H2405 H 0.69854 0.51050 0.14611
 H2406 H 0.70881 0.50011 0.17541
 H2407 H 0.74997 0.54081 0.17519
 H2408 H 0.73952 0.55101 0.14590
 C2409 C 0.72093 1.02958 0.64198
 C2410 C 0.71229 1.01528 0.65040
 C2411 C 0.71768 1.00979 0.66744
 C2412 C 0.70894 1.04187 0.61109
 C2413 C 0.74062 1.03272 0.66753
 C2414 C 0.73521 1.03816 0.65050
 C2415 C 0.71456 1.03607 0.62503
 C2416 C 0.73178 1.01860 0.67631
 H2417 H 0.70118 1.00858 0.64394
 H2418 H 0.71055 0.99890 0.67378
 H2419 H 0.75151 1.03982 0.67394
 H2420 H 0.74194 1.04930 0.64412
 C2421 C 0.52955 0.22103 0.64176
 C2422 C 0.53801 0.23537 0.65031
 C2423 C 0.53260 0.24061 0.66740
 C2424 C 0.54163 0.20925 0.61074
 C2425 C 0.50999 0.21735 0.66731
 C2426 C 0.51543 0.21214 0.65022
 C2427 C 0.53597 0.21482 0.62474
 C2428 C 0.51865 0.23152 0.67621
 H2429 H 0.54900 0.24229 0.64391
 H2430 H 0.53959 0.25155 0.67384
 H2431 H 0.49923 0.21004 0.67366
 H2432 H 0.50884 0.20097 0.64373
 C2433 C 1.03001 0.21971 0.14240
 C2434 C 1.03855 0.23408 0.15082
 C2435 C 1.03296 0.23973 0.16774
 C2436 C 1.04242 0.20710 0.11182
 C2437 C 1.01000 0.21683 0.16770
 C2438 C 1.01561 0.21122 0.15079
 C2439 C 1.03661 0.21304 0.12562
 C2440 C 1.01876 0.23101 0.17649
 H2441 H 1.04976 0.24071 0.14447
 H2442 H 1.04004 0.25065 0.17410
 H2443 H 0.99904 0.20979 0.17402
 H2444 H 1.00895 0.20004 0.14441
 C2445 C 0.60803 0.21937 0.72109
 C2446 C 0.59975 0.23387 0.71268
 C2447 C 0.58277 0.23942 0.71813
 C2448 C 0.63884 0.20723 0.70884
 C2449 C 0.58245 0.21616 0.74070
 C2450 C 0.59943 0.21064 0.73521
 C2451 C 0.62493 0.21290 0.71461
 C2452 C 0.57381 0.23048 0.73207
 H2453 H 0.60626 0.24069 0.70169
 H2454 H 0.57655 0.25047 0.71117
 H2455 H 0.57596 0.20895 0.75144
 H2456 H 0.60570 0.19936 0.74177
 C2457 C 1.10780 0.21884 0.22068
 C2458 C 1.09957 0.23339 0.21233
 C2459 C 1.08270 0.23909 0.21794
 C2460 C 1.13829 0.20630 0.20805
 C2461 C 1.08240 0.21588 0.24056
 C2462 C 1.09928 0.21022 0.23492
 C2463 C 1.12453 0.21216 0.21401
 C2464 C 1.07380 0.23026 0.23197
 H2465 H 1.10603 0.24012 0.20126
 H2466 H 1.07649 0.25018 0.21100
 H2467 H 1.07596 0.20875 0.25137
 H2468 H 1.10551 0.19889 0.24143
 C2469 C 0.14203 0.72029 0.52894
 C2470 C 0.15041 0.73467 0.53750
 C2471 C 0.16742 0.74022 0.53212
 C2472 C 0.11116 0.70807 0.54105
 C2473 C 0.16759 0.71718 0.50931
 C2474 C 0.15058 0.71167 0.51473
 C2475 C 0.12510 0.71379 0.53534
 C2476 C 0.17632 0.73139 0.51809
 H2477 H 0.14393 0.74140 0.54856
 H2478 H 0.17372 0.75118 0.53919
 H2479 H 0.17403 0.71007 0.49849
 H2480 H 0.14424 0.70047 0.50805
 C2481 C 0.14340 0.21775 1.03100
 C2482 C 0.15187 0.20927 1.01666
 C2483 C 0.16866 0.21513 1.01090
 C2484 C 0.11258 0.20546 1.04319
 C2485 C 0.16847 0.23816 1.03371
 C2486 C 0.15168 0.23227 1.03943
 C2487 C 0.12654 0.21116 1.03749
 C2488 C 0.17723 0.22958 1.01944
 H2489 H 0.14560 0.19798 1.01008
 H2490 H 0.17501 0.20817 0.99993
 H2491 H 0.17467 0.24928 1.04063
 H2492 H 0.14527 0.23890 1.05059
 C2493 C 0.64416 0.53190 0.21898
 C2494 C 0.65269 0.54065 0.23316
 C2495 C 0.66948 0.53493 0.23901
 C2496 C 0.61330 0.54388 0.20664
 C2497 C 0.66917 0.51150 0.21660
 C2498 C 0.65238 0.51725 0.21080
 C2499 C 0.62727 0.53832 0.21241
 C2500 C 0.67800 0.52034 0.23071
 H2501 H 0.64646 0.55205 0.23955
 H2502 H 0.67589 0.54209 0.24985
 H2503 H 0.67532 0.50027 0.20987
 H2504 H 0.64592 0.51042 0.19977
 C2505 C 0.64198 1.02961 0.72096
 C2506 C 0.65040 1.01522 0.71254
 C2507 C 0.66745 1.00987 0.71795
 C2508 C 0.61091 1.04133 0.70887
 C2509 C 0.66761 1.03314 0.74051
 C2510 C 0.65055 1.03846 0.73506
 C2511 C 0.62494 1.03584 0.71456
 C2512 C 0.67637 1.01890 0.73188
 H2513 H 0.64391 1.00831 0.70157
 H2514 H 0.67377 0.99887 0.71099
 H2515 H 0.67406 1.04042 0.75125
 H2516 H 0.64417 1.04967 0.74163
 C2517 C 0.85841 0.47043 0.27996
 C2518 C 0.84986 0.48446 0.28886
 C2519 C 0.83285 0.48999 0.28347
 C2520 C 0.88930 0.45814 0.29190
 C2521 C 0.83302 0.46764 0.25999
 C2522 C 0.85003 0.46215 0.26542
 C2523 C 0.87535 0.46392 0.28630
 C2524 C 0.82412 0.48150 0.26909
 H2525 H 0.85621 0.49092 0.30018
 H2526 H 0.82641 0.50067 0.29080
 H2527 H 0.82672 0.46078 0.24889
 H2528 H 0.85650 0.45122 0.25847
 C2529 C 0.85617 0.96819 0.78259
 C2530 C 0.84777 0.95978 0.76813
 C2531 C 0.83105 0.96566 0.76225
 C2532 C 0.88695 0.95580 0.79473
 C2533 C 0.83114 0.98857 0.78518
 C2534 C 0.84787 0.98265 0.79103
 C2535 C 0.87301 0.96158 0.78911
 C2536 C 0.82246 0.98007 0.77077
 H2537 H 0.85406 0.94853 0.76154
 H2538 H 0.82478 0.95875 0.75117
 H2539 H 0.82492 0.99965 0.79209
 H2540 H 0.85423 0.98922 0.80228
 C2541 C 0.39386 0.28135 0.78177
 C2542 C 0.40213 0.26684 0.79018
 C2543 C 0.41891 0.26100 0.78445
 C2544 C 0.36295 0.29354 0.79370
 C2545 C 0.41914 0.28409 0.76171
 C2546 C 0.40236 0.28989 0.76747
 C2547 C 0.37695 0.28786 0.78817
 C2548 C 0.42768 0.26963 0.77021
 H2549 H 0.39569 0.26017 0.80131
 H2550 H 0.42509 0.24987 0.79134
 H2551 H 0.42549 0.29109 0.75075
 H2552 H 0.39610 0.30118 0.76090
 C2553 C 0.89381 0.28086 0.28187
 C2554 C 0.90214 0.26639 0.29028
 C2555 C 0.91903 0.26075 0.28465
 C2556 C 0.86262 0.29259 0.29355
 C2557 C 0.91922 0.28398 0.26205
 C2558 C 0.90234 0.28958 0.26770
 C2559 C 0.87675 0.28712 0.28813
 C2560 C 0.92782 0.26954 0.27052
 H2561 H 0.89568 0.25958 0.30130
 H2562 H 0.92525 0.24963 0.29151
 H2563 H 0.92559 0.29109 0.25117
 H2564 H 0.89602 0.30084 0.26115
 C2565 C 0.35607 0.78259 0.46770
 C2566 C 0.34770 0.79112 0.48206
 C2567 C 0.33102 0.78520 0.48804
 C2568 C 0.38672 0.79504 0.45527
 C2569 C 0.33112 0.76200 0.46539
 C2570 C 0.34780 0.76796 0.45945
 C2571 C 0.37284 0.78923 0.46104
 C2572 C 0.32245 0.77064 0.47969
 H2573 H 0.35396 0.80250 0.48850
 H2574 H 0.32474 0.79221 0.49903
 H2575 H 0.32492 0.75080 0.45862
 H2576 H 0.35415 0.76129 0.44828
 C2577 C 0.35783 0.27903 0.97017
 C2578 C 0.34939 0.28770 0.98441
 C2579 C 0.33237 0.28228 0.98991
 C2580 C 0.38870 0.29120 0.95802
 C2581 C 0.33233 0.25922 0.96713
 C2582 C 0.34935 0.26467 0.96167
 C2583 C 0.37476 0.28546 0.96371
 C2584 C 0.32353 0.26810 0.98119
 H2585 H 0.35581 0.29888 0.99105
 H2586 H 0.32602 0.28944 1.00075
 H2587 H 0.32594 0.24828 0.96009
 H2588 H 0.35575 0.25791 0.95058
 C2589 C 0.77894 0.47050 0.35861
 C2590 C 0.76468 0.46189 0.35006
 C2591 C 0.75939 0.46723 0.33294
 C2592 C 0.79079 0.45870 0.38975
 C2593 C 0.78242 0.49006 0.33301
 C2594 C 0.78768 0.48469 0.35012
 C2595 C 0.78518 0.46422 0.37568
 C2596 C 0.76833 0.48126 0.32411
 H2597 H 0.75787 0.45084 0.35649
 H2598 H 0.74852 0.46013 0.32651
 H2599 H 0.78963 0.50089 0.32664
 H2600 H 0.79878 0.49141 0.35659
 C2601 C 0.78117 0.96874 0.85679
 C2602 C 0.76695 0.96007 0.84823
 C2603 C 0.76127 0.96576 0.83135
 C2604 C 0.79318 0.95680 0.88783
 C2605 C 0.78392 0.98898 0.83164
 C2606 C 0.78956 0.98326 0.84851
 C2607 C 0.78756 0.96234 0.87378
 C2608 C 0.76978 0.98022 0.82278
 H2609 H 0.76040 0.94877 0.85450
 H2610 H 0.75039 0.95867 0.82493
 H2611 H 0.79081 1.00011 0.82545
 H2612 H 0.80062 0.99002 0.85500
 C2613 C 0.28159 0.78220 0.39381
 C2614 C 0.26730 0.79075 0.40227
 C2615 C 0.26151 0.78496 0.41907
 C2616 C 0.29384 0.79438 0.36298
 C2617 C 0.28419 0.76185 0.41889
 C2618 C 0.28995 0.76767 0.40210
 C2619 C 0.28812 0.78872 0.37694
 C2620 C 0.26998 0.77050 0.42765
 H2621 H 0.26078 0.80205 0.39599
 H2622 H 0.25058 0.79197 0.42541
 H2623 H 0.29105 0.75072 0.42510
 H2624 H 0.30106 0.76099 0.39569
 C2625 C 0.27924 0.28018 0.89194
 C2626 C 0.28756 0.26564 0.90022
 C2627 C 0.28197 0.25999 0.91713
 C2628 C 0.29184 0.29264 0.86137
 C2629 C 0.25941 0.28322 0.91736
 C2630 C 0.26504 0.28884 0.90045
 C2631 C 0.28590 0.28681 0.87516
 C2632 C 0.26797 0.26887 0.92602
 H2633 H 0.29861 0.25888 0.89377
 H2634 H 0.28888 0.24891 0.92337
 H2635 H 0.24863 0.29039 0.92379
 H2636 H 0.25855 0.30016 0.89418
 C2637 C 0.46906 0.28083 0.85666
 C2638 C 0.46051 0.26645 0.84827
 C2639 C 0.46609 0.26075 0.83138
 C2640 C 0.45722 0.29272 0.88776
 C2641 C 0.48899 0.28372 0.83130
 C2642 C 0.48337 0.28938 0.84819
 C2643 C 0.46276 0.28719 0.87368
 C2644 C 0.48034 0.26940 0.82262
 H2645 H 0.44937 0.25977 0.85469
 H2646 H 0.45909 0.24973 0.82511
 H2647 H 0.49996 0.29072 0.82495
 H2648 H 0.49005 0.30057 0.85454
 C2649 C 0.96960 0.28081 0.35698
 C2650 C 0.98385 0.28941 0.34844
 C2651 C 0.98942 0.28376 0.33153
 C2652 C 0.95784 0.29267 0.38811
 C2653 C 0.96658 0.26072 0.33171
 C2654 C 0.96105 0.26641 0.34863
 C2655 C 0.96334 0.28716 0.37401
 C2656 C 0.98076 0.26941 0.32289
 H2657 H 0.99052 0.30062 0.35477
 H2658 H 1.00034 0.29079 0.32513
 H2659 H 0.95958 0.24968 0.32548
 H2660 H 0.94997 0.25970 0.35510
 C2661 C 0.46786 0.35587 0.78048
 C2662 C 0.48232 0.34761 0.78898
 C2663 C 0.48811 0.33076 0.78336
 C2664 C 0.45578 0.38684 0.79243
 C2665 C 0.46507 0.33046 0.76054
 C2666 C 0.45932 0.34731 0.76619
 C2667 C 0.46139 0.37282 0.78683
 C2668 C 0.47947 0.32191 0.76915
 H2669 H 0.48899 0.35410 0.80009
 H2670 H 0.49919 0.32459 0.79032
 H2671 H 0.45807 0.32405 0.74961
 H2672 H 0.44807 0.35356 0.75957
 C2673 C 0.96886 0.35613 0.28076
 C2674 C 0.98332 0.34776 0.28915
 C2675 C 0.98889 0.33084 0.28354
 C2676 C 0.95724 0.38732 0.29261
 C2677 C 0.96562 0.33065 0.26096
 C2678 C 0.96009 0.34758 0.26660
 C2679 C 0.96265 0.37319 0.28708
 C2680 C 0.98003 0.32201 0.26945
 H2681 H 0.99017 0.35424 0.30016
 H2682 H 0.99999 0.32459 0.29041
 H2683 H 0.95845 0.32425 0.25012
 H2684 H 0.94883 0.35392 0.26006
 C2685 C 0.28269 0.85665 0.46941
 C2686 C 0.29133 0.84810 0.48362
 C2687 C 0.28550 0.83129 0.48940
 C2688 C 0.29491 0.88750 0.45717
 C2689 C 0.26220 0.83165 0.46686
 C2690 C 0.26806 0.84845 0.46112
 C2691 C 0.28924 0.87353 0.46290
 C2692 C 0.27093 0.82279 0.48099
 H2693 H 0.30272 0.85431 0.49009
 H2694 H 0.29259 0.82486 0.50026
 H2695 H 0.25098 0.82551 0.46004
 H2696 H 0.26131 0.85493 0.45007
 C2697 C 0.27976 0.35791 0.97038
 C2698 C 0.28852 0.34938 0.98453
 C2699 C 0.28301 0.33240 0.99011
 C2700 C 0.29197 0.38870 0.95800
 C2701 C 0.25969 0.33258 0.96759
 C2702 C 0.26523 0.34955 0.96205
 C2703 C 0.28624 0.37480 0.96382
 C2704 C 0.26866 0.32369 0.98156
 H2705 H 0.29982 0.35571 0.99104
 H2706 H 0.29024 0.32598 1.00088
 H2707 H 0.24862 0.32629 0.96068
 H2708 H 0.25840 0.35602 0.95103
 C2709 C 0.77994 0.39159 0.27933
 C2710 C 0.76557 0.39998 0.28782
 C2711 C 0.76011 0.41700 0.28238
 C2712 C 0.79205 0.36075 0.29157
 C2713 C 0.78319 0.41715 0.25966
 C2714 C 0.78862 0.40013 0.26514
 C2715 C 0.78637 0.37467 0.28581
 C2716 C 0.76899 0.42589 0.26837
 H2717 H 0.75880 0.39352 0.29887
 H2718 H 0.74915 0.42331 0.28940
 H2719 H 0.79035 0.42358 0.24886
 H2720 H 0.79981 0.39378 0.25852
   
