data_POSCAR
  _audit_creation_date              2014-09-24
  _audit_creation_method            'ToBaCCo'
  _symmetry_space_group_name_H-M    'P1'
  _symmetry_Int_Tables_number       1
  _symmetry_cell_setting            triclinic
  loop_
  _symmetry_equiv_pos_as_xyz
 x,y,z
_cell_length_a 48.1253
_cell_length_b 48.0565
_cell_length_c 47.9881
_cell_angle_alpha 89.956800
_cell_angle_beta 90.134600
_cell_angle_gamma 89.958100
loop_
  _atom_site_label
  _atom_site_type_symbol
  _atom_site_fract_x
  _atom_site_fract_y
  _atom_site_fract_z
O1 O 0.24216 1.02307 0.02225
 O2 O 0.24034 0.96921 -0.03216
 O3 O 0.23905 1.02320 -0.03200
 O4 O 0.24275 0.96895 0.02205
 O5 O 0.19688 0.96778 0.02384
 O6 O 0.19322 1.02198 -0.03023
 O7 O 0.19455 0.96782 -0.02960
 O8 O 0.19637 1.02192 0.02481
 Cu9 Cu 0.24567 0.99629 -0.00517
 Cu10 Cu 0.19061 0.99508 -0.00257
 C11 C 0.21960 1.03143 0.03305
 C12 C 0.21719 0.95914 -0.03999
 C13 C 0.21549 1.03155 -0.04058
 C14 C 0.22039 0.95896 0.03192
 O15 O 0.72017 0.52276 0.52320
 O16 O 0.73104 0.47552 0.46408
 O17 O 0.72364 0.46927 0.51695
 O18 O 0.72886 0.52986 0.46988
 O19 O 0.77414 0.53162 0.47733
 O20 O 0.76893 0.47136 0.52430
 O21 O 0.77645 0.47755 0.47060
 O22 O 0.76556 0.52501 0.52986
 Cu23 Cu 0.72138 0.49928 0.49266
 Cu24 Cu 0.77586 0.50144 0.50113
 C25 C 0.74099 0.53196 0.53656
 C26 C 0.75549 0.46811 0.45756
 C27 C 0.74545 0.46016 0.52877
 C28 C 0.75238 0.54127 0.46594
 O29 O 0.75173 0.96991 1.02272
 O30 O 0.74786 1.02618 0.97034
 O31 O 0.75447 0.97194 0.96813
 O32 O 0.74040 1.02213 1.02385
 O33 O 0.78537 1.03009 1.02874
 O34 O 0.79943 0.97980 0.97227
 O35 O 0.79239 1.03507 0.97734
 O36 O 0.79631 0.97898 1.02881
 Cu37 Cu 0.74416 0.99657 0.99547
 Cu38 Cu 0.79796 1.00575 1.00129
 C39 C 0.77457 0.96566 1.03547
 C40 C 0.76946 1.04070 0.96558
 C41 C 0.77926 0.96733 0.96059
 C42 C 0.76031 1.03450 1.03598
 O43 O 0.26678 0.46661 0.52499
 O44 O 0.27625 0.51706 0.46785
 O45 O 0.27645 0.51982 0.52145
 O46 O 0.26819 0.46308 0.47066
 O47 O 0.22286 0.47017 0.46958
 O48 O 0.23102 0.52654 0.52134
 O49 O 0.23092 0.52421 0.46688
 O50 O 0.22136 0.47318 0.52313
 Cu51 Cu 0.27645 0.49079 0.49625
 Cu52 Cu 0.22201 0.49937 0.49501
 C53 C 0.24240 0.46120 0.53360
 C54 C 0.25518 0.52959 0.45801
 C55 C 0.25521 0.53284 0.53004
 C56 C 0.24416 0.45673 0.46169
 O57 O 1.01972 0.19841 0.03338
 O58 O 0.96547 0.20857 -0.02056
 O59 O 1.02145 0.20134 -0.01903
 O60 O 0.96791 0.20046 0.03518
 O61 O 0.97058 0.24622 0.03882
 O62 O 1.02271 0.24727 -0.01771
 O63 O 0.96830 0.25401 -0.01502
 O64 O 1.02413 0.24411 0.03610
 Cu65 Cu 0.99236 0.19797 0.00574
 Cu66 Cu 0.99661 0.25250 0.01068
 C67 C 1.03118 0.21983 0.04385
 C68 C 0.95727 0.23305 -0.02654
 C69 C 1.03176 0.22423 -0.02713
 C70 C 0.96092 0.22297 0.04703
 O71 O 0.52388 0.76249 0.53150
 O72 O 0.47127 0.76999 0.47637
 O73 O 0.47010 0.75845 0.52913
 O74 O 0.52582 0.77207 0.47833
 O75 O 0.52863 0.72700 0.46984
 O76 O 0.47187 0.71360 0.51916
 O77 O 0.47447 0.72516 0.46674
 O78 O 0.52575 0.71725 0.52372
 Cu79 Cu 0.49754 0.77028 0.50462
 Cu80 Cu 0.50067 0.71624 0.49392
 C81 C 0.53354 0.73860 0.53728
 C82 C 0.46364 0.74892 0.46241
 C83 C 0.46129 0.73373 0.53249
 C84 C 0.53681 0.75174 0.46556
 O85 O 0.02912 0.74271 -0.03034
 O86 O -0.02796 0.73243 0.01940
 O87 O -0.02483 0.74157 -0.03334
 O88 O 0.02578 0.73360 0.02375
 O89 O 0.02514 0.77902 0.03069
 O90 O -0.02681 0.78674 -0.02526
 O91 O -0.02843 0.77763 0.02789
 O92 O 0.02789 0.78798 -0.02279
 Cu93 Cu 0.00093 0.73302 -0.00598
 Cu94 Cu -0.00056 0.78745 0.00322
 C95 C 0.03812 0.76708 -0.03524
 C96 C -0.03787 0.75331 0.03213
 C97 C -0.03506 0.76541 -0.03852
 C98 C 0.03379 0.75490 0.03718
 O99 O 0.52209 0.27882 0.48474
 O100 O 0.46998 0.27145 0.54047
 O101 O 0.52352 0.27207 0.53822
 O102 O 0.46734 0.27944 0.48675
 O103 O 0.46750 0.23399 0.47996
 O104 O 0.52304 0.22645 0.53253
 O105 O 0.46961 0.22593 0.53412
 O106 O 0.52179 0.23330 0.47848
 Cu107 Cu 0.49565 0.28005 0.51293
 Cu108 Cu 0.49539 0.22536 0.50544
 C109 C 0.53111 0.25726 0.47243
 C110 C 0.46141 0.24736 0.54719
 C111 C 0.53253 0.24802 0.54448
 C112 C 0.45785 0.25803 0.47459
 O113 O 1.02433 0.03081 0.28298
 O114 O 0.97092 -0.02316 0.27256
 O115 O 1.02389 -0.02391 0.28436
 O116 O 0.97171 0.03076 0.27086
 O117 O 0.98200 0.02959 0.22605
 O118 O 1.03463 -0.02465 0.23964
 O119 O 0.98167 -0.02522 0.22793
 O120 O 1.03458 0.02918 0.23817
 Cu121 Cu 0.99678 0.00371 0.28221
 Cu122 Cu 1.00911 0.00204 0.22842
 C123 C 1.03840 0.03932 0.26231
 C124 C 0.96724 -0.03348 0.24846
 C125 C 1.03821 -0.03351 0.26433
 C126 C 0.96809 0.03959 0.24616
 O127 O 0.53389 0.52295 0.71813
 O128 O 0.47411 0.47568 0.72018
 O129 O 0.48018 0.52925 0.71554
 O130 O 0.52836 0.47004 0.72541
 O131 O 0.52550 0.47556 0.77102
 O132 O 0.47642 0.53323 0.76124
 O133 O 0.47182 0.47988 0.76596
 O134 O 0.53059 0.52948 0.76357
 Cu135 Cu 0.50437 0.49886 0.71526
 Cu136 Cu 0.50095 0.50508 0.77004
 C137 C 0.54233 0.53441 0.74034
 C138 C 0.46267 0.46980 0.74323
 C139 C 0.46975 0.54096 0.73684
 C140 C 0.53531 0.46299 0.75002
 O141 O 0.98223 1.03180 0.71835
 O142 O 1.03489 0.97751 0.72888
 O143 O 0.98160 0.97791 0.71746
 O144 O 1.03396 1.03213 0.73216
 O145 O 1.02257 1.03090 0.77669
 O146 O 0.97265 0.97488 0.76250
 O147 O 1.02512 0.97601 0.77379
 O148 O 0.97034 1.02863 0.76268
 Cu149 Cu 1.00945 1.00486 0.71976
 Cu150 Cu 0.99685 1.00247 0.77347
 C151 C 0.96711 1.03929 0.73860
 C152 C 1.03885 0.96731 0.75297
 C153 C 0.96824 0.96717 0.73760
 C154 C 1.03644 1.04139 0.75685
 O155 O 0.46777 0.52767 0.25037
 O156 O 0.52697 0.48227 0.26796
 O157 O 0.51947 0.53570 0.26347
 O158 O 0.47493 0.47430 0.25502
 O159 O 0.48533 0.47244 0.21024
 O160 O 0.53209 0.53227 0.21936
 O161 O 0.53705 0.47876 0.22321
 O162 O 0.47996 0.52667 0.20602
 Cu163 Cu 0.49611 0.50518 0.26369
 Cu164 Cu 0.50964 0.50236 0.21016
 C165 C 0.46410 0.53527 0.22527
 C166 C 0.54187 0.47251 0.24847
 C167 C 0.53364 0.54419 0.24292
 C168 C 0.47248 0.46295 0.23125
 O169 O 0.26379 0.17593 0.20129
 O170 O 0.29661 0.16907 0.23908
 O171 O 0.19128 0.20336 0.24467
 O172 O 0.17854 0.23843 0.27167
 O173 O 0.22108 0.24805 0.17079
 O174 O 0.25789 0.28005 0.16309
 O175 O 0.26054 0.28337 0.31579
 O176 O 0.23043 0.24449 0.32262
 O177 O 0.33291 0.24970 0.27970
 O178 O 0.34329 0.22221 0.23912
 O179 O 0.29360 0.32084 0.24549
 O180 O 0.25273 0.32736 0.21403
 O181 O 0.25895 0.31732 0.28277
 O182 O 0.22423 0.32458 0.24485
 O183 O 0.32940 0.28998 0.24387
 O184 O 0.33959 0.25157 0.20985
 O185 O 0.30031 0.24839 0.31395
 O186 O 0.26446 0.21383 0.32235
 O187 O 0.26283 0.21065 0.16898
 O188 O 0.29023 0.25157 0.16194
 O189 O 0.18817 0.24262 0.20440
 O190 O 0.18050 0.27438 0.24427
 O191 O 0.22680 0.17229 0.24101
 O192 O 0.26645 0.16599 0.27080
 Zr193 Zr 0.26271 0.19707 0.23982
 O194 O 0.28751 0.22177 0.26618
 Zr195 Zr 0.21083 0.24249 0.24211
 O196 O 0.23332 0.26912 0.26891
 Zr197 Zr 0.25897 0.24732 0.19254
 O198 O 0.28340 0.27431 0.21682
 Zr199 Zr 0.26224 0.24618 0.29233
 O200 O 0.23726 0.21891 0.26814
 Zr201 Zr 0.30995 0.25073 0.24239
 O202 O 0.28772 0.22366 0.21565
 Zr203 Zr 0.25779 0.29606 0.24470
 O204 O 0.23290 0.27158 0.21791
 O205 O 0.23505 0.21918 0.21501
 O206 O 0.28598 0.27442 0.26965
 C207 C 0.26406 0.18490 0.17601
 C208 C 0.20097 0.17843 0.24346
 C209 C 0.19579 0.24575 0.17891
 C210 C 0.26007 0.30904 0.30813
 C211 C 0.32560 0.24903 0.30539
 C212 C 0.31953 0.31480 0.24517
 H213 H 0.30005 0.20947 0.27690
 H214 H 0.29379 0.28701 0.20445
 H215 H 0.22368 0.20689 0.20300
 H216 H 0.22046 0.27933 0.28125
 H217 H 0.21716 0.22999 0.31643
 H218 H 0.18448 0.24844 0.28866
 H219 H 0.33546 0.26780 0.19785
 H220 H 0.30595 0.23971 0.16800
 H221 H 0.27924 0.20074 0.31666
 H222 H 0.25361 0.17130 0.28599
 H223 H 0.26843 0.32590 0.20084
 H224 H 0.24492 0.29419 0.17053
 H225 H 0.30989 0.17634 0.22514
 H226 H 0.33889 0.20608 0.25113
 H227 H 0.18500 0.28805 0.22953
 H228 H 0.21199 0.31983 0.26068
 O229 O 0.74739 0.82668 0.21090
 O230 O 0.71235 0.83103 0.24644
 O231 O 0.81860 0.80017 0.25752
 O232 O 0.82870 0.76557 0.28744
 O233 O 0.79641 0.75898 0.18202
 O234 O 0.76243 0.72420 0.17033
 O235 O 0.74572 0.71499 0.32134
 O236 O 0.77467 0.75411 0.33221
 O237 O 0.67641 0.74532 0.28071
 O238 O 0.66819 0.77663 0.24089
 O239 O 0.72078 0.67916 0.24473
 O240 O 0.76534 0.67575 0.21919
 O241 O 0.75101 0.68241 0.28738
 O242 O 0.78948 0.67742 0.25342
 O243 O 0.68413 0.70901 0.24368
 O244 O 0.67491 0.74855 0.21067
 O245 O 0.70580 0.74961 0.31764
 O246 O 0.73996 0.78406 0.33034
 O247 O 0.75155 0.79293 0.17788
 O248 O 0.72919 0.75100 0.16641
 O249 O 0.82618 0.76234 0.21880
 O250 O 0.83197 0.73009 0.25765
 O251 O 0.78199 0.83012 0.25505
 O252 O 0.73952 0.83420 0.28021
 Zr253 Zr 0.74716 0.80428 0.24887
 O254 O 0.72128 0.77764 0.27213
 Zr255 Zr 0.80035 0.76058 0.25403
 O256 O 0.77677 0.73201 0.27764
 Zr257 Zr 0.75684 0.75592 0.20034
 O258 O 0.73138 0.72730 0.22128
 Zr259 Zr 0.74534 0.75309 0.29934
 O260 O 0.77108 0.78223 0.27847
 Zr261 Zr 0.70205 0.74882 0.24547
 O262 O 0.72539 0.77756 0.22173
 Zr263 Zr 0.75540 0.70519 0.25040
 O264 O 0.78162 0.73161 0.22699
 O265 O 0.77751 0.78418 0.22573
 O266 O 0.72465 0.72488 0.27369
 C267 C 0.74827 0.81829 0.18544
 C268 C 0.80802 0.82474 0.25778
 C269 C 0.82088 0.76109 0.19260
 C270 C 0.74744 0.68965 0.31282
 C271 C 0.68152 0.74641 0.30695
 C272 C 0.69472 0.68449 0.24316
 H273 H 0.70744 0.78893 0.28227
 H274 H 0.72254 0.71495 0.20740
 H275 H 0.78902 0.79748 0.21504
 H276 H 0.78888 0.72171 0.29072
 H277 H 0.78787 0.76930 0.32788
 H278 H 0.82317 0.75251 0.30237
 H279 H 0.68032 0.73284 0.19852
 H280 H 0.71167 0.76031 0.17182
 H281 H 0.72549 0.79716 0.32384
 H282 H 0.75090 0.82867 0.29651
 H283 H 0.75185 0.67815 0.20378
 H284 H 0.77693 0.71156 0.17773
 H285 H 0.69972 0.82293 0.23229
 H286 H 0.66962 0.79077 0.25578
 H287 H 0.82840 0.71598 0.24305
 H288 H 0.80021 0.68224 0.27033
 O289 O 0.74075 0.17911 0.78468
 O290 O 0.71094 0.17774 0.74467
 O291 O 0.81851 0.20311 0.74510
 O292 O 0.83459 0.23925 0.72085
 O293 O 0.79217 0.24276 0.82222
 O294 O 0.75830 0.27813 0.83203
 O295 O 0.75784 0.29442 0.68049
 O296 O 0.78518 0.25396 0.67081
 O297 O 0.68265 0.26472 0.71212
 O298 O 0.67037 0.23264 0.75185
 O299 O 0.72616 0.32877 0.75147
 O300 O 0.76599 0.32937 0.78562
 O301 O 0.76480 0.32514 0.71584
 O302 O 0.79577 0.32677 0.75638
 O303 O 0.68824 0.30058 0.75148
 O304 O 0.67325 0.26252 0.78062
 O305 O 0.71604 0.26408 0.67865
 O306 O 0.74835 0.22665 0.66773
 O307 O 0.74769 0.20973 0.82022
 O308 O 0.72319 0.25216 0.83062
 O309 O 0.82457 0.23740 0.78815
 O310 O 0.83589 0.27218 0.75221
 O311 O 0.78056 0.17489 0.74662
 O312 O 0.74214 0.17481 0.71462
 Zr313 Zr 0.74689 0.20275 0.74830
 O314 O 0.72486 0.23163 0.72382
 Zr315 Zr 0.80256 0.24345 0.75070
 O316 O 0.78299 0.27424 0.72626
 Zr317 Zr 0.75453 0.24810 0.80009
 O318 O 0.73262 0.27899 0.77782
 Zr319 Zr 0.75287 0.25585 0.70056
 O320 O 0.77485 0.22450 0.72246
 Zr321 Zr 0.70466 0.26015 0.74991
 O322 O 0.72411 0.22929 0.77465
 Zr323 Zr 0.76027 0.30114 0.75223
 O324 O 0.78275 0.27229 0.77705
 O325 O 0.77593 0.21999 0.77529
 O326 O 0.73104 0.28403 0.72515
 C327 C 0.74220 0.18533 0.81067
 C328 C 0.80685 0.17904 0.74488
 C329 C 0.81719 0.23843 0.81382
 C330 C 0.76250 0.31900 0.68992
 C331 C 0.69075 0.26620 0.68666
 C332 C 0.69978 0.32465 0.75136
 H333 H 0.71153 0.22153 0.71186
 H334 H 0.72294 0.29141 0.79103
 H335 H 0.78570 0.20560 0.78636
 H336 H 0.79707 0.28426 0.71514
 H337 H 0.79680 0.23765 0.67574
 H338 H 0.83024 0.25197 0.70523
 H339 H 0.68051 0.27383 0.79622
 H340 H 0.70676 0.24206 0.82342
 H341 H 0.73231 0.21456 0.67198
 H342 H 0.75587 0.18042 0.70035
 H343 H 0.74947 0.32833 0.79779
 H344 H 0.77249 0.29161 0.82568
 H345 H 0.69716 0.18539 0.75790
 H346 H 0.67083 0.22073 0.73504
 H347 H 0.83255 0.28452 0.76837
 H348 H 0.80944 0.32068 0.74228
 O349 O 0.25130 0.82158 0.77941
 O350 O 0.28479 0.82376 0.74280
 O351 O 0.17894 0.79116 0.73737
 O352 O 0.16896 0.75476 0.70964
 O353 O 0.20259 0.75553 0.81508
 O354 O 0.23755 0.72329 0.82920
 O355 O 0.25136 0.70189 0.67861
 O356 O 0.22329 0.73997 0.66473
 O357 O 0.32197 0.73872 0.71629
 O358 O 0.32937 0.77043 0.75524
 O359 O 0.27882 0.67199 0.75527
 O360 O 0.23616 0.66941 0.78362
 O361 O 0.24366 0.67201 0.71454
 O362 O 0.20905 0.66991 0.75228
 O363 O 0.31497 0.70238 0.75386
 O364 O 0.32368 0.74280 0.78589
 O365 O 0.29212 0.73615 0.67957
 O366 O 0.25781 0.76987 0.66429
 O367 O 0.24429 0.79153 0.81543
 O368 O 0.27113 0.75140 0.82924
 O369 O 0.17239 0.75401 0.77855
 O370 O 0.16626 0.72120 0.74083
 O371 O 0.21545 0.82125 0.73615
 O372 O 0.25720 0.82333 0.70957
 Zr373 Zr 0.25054 0.79624 0.74363
 O374 O 0.27654 0.76818 0.72256
 Zr375 Zr 0.19775 0.75191 0.74291
 O376 O 0.22144 0.72192 0.72134
 Zr377 Zr 0.24190 0.75221 0.79630
 O378 O 0.26731 0.72197 0.77734
 Zr379 Zr 0.25257 0.74134 0.69764
 O380 O 0.22652 0.77169 0.71633
 Zr381 Zr 0.29622 0.74178 0.75134
 O382 O 0.27287 0.77226 0.77280
 Zr383 Zr 0.24339 0.69733 0.75026
 O384 O 0.21728 0.72540 0.77193
 O385 O 0.22057 0.77793 0.76879
 O386 O 0.27380 0.71533 0.72516
 C387 C 0.24845 0.81600 0.80543
 C388 C 0.18941 0.81566 0.73478
 C389 C 0.17795 0.75506 0.80471
 C390 C 0.24712 0.67743 0.68859
 C391 C 0.31667 0.73656 0.69020
 C392 C 0.30488 0.67771 0.75538
 H393 H 0.29014 0.77895 0.71158
 H394 H 0.27654 0.71061 0.79182
 H395 H 0.20877 0.79167 0.77857
 H396 H 0.20900 0.71071 0.70938
 H397 H 0.21002 0.75540 0.66791
 H398 H 0.17503 0.74157 0.69506
 H399 H 0.31841 0.72769 0.79884
 H400 H 0.28748 0.76206 0.82276
 H401 H 0.27259 0.78319 0.66948
 H402 H 0.24555 0.81633 0.69406
 H403 H 0.24997 0.67337 0.79838
 H404 H 0.22470 0.70870 0.82240
 H405 H 0.29766 0.81758 0.75769
 H406 H 0.32766 0.78404 0.73985
 H407 H 0.16956 0.70814 0.75646
 H408 H 0.19727 0.67335 0.73570
 O409 O 0.24943 0.33438 0.72765
 O410 O 0.21762 0.34060 0.76495
 O411 O 0.31938 0.29725 0.76979
 O412 O 0.33104 0.25838 0.79016
 O413 O 0.28719 0.26577 0.69023
 O414 O 0.25036 0.23450 0.67925
 O415 O 0.24596 0.21829 0.83194
 O416 O 0.27482 0.25447 0.84343
 O417 O 0.17427 0.25821 0.79698
 O418 O 0.16510 0.28761 0.75976
 O419 O 0.21083 0.18754 0.75516
 O420 O 0.25025 0.17927 0.72892
 O421 O 0.24467 0.18640 0.79696
 O422 O 0.28095 0.18172 0.75759
 O423 O 0.17650 0.21991 0.75845
 O424 O 0.17007 0.26263 0.72646
 O425 O 0.20607 0.25389 0.83184
 O426 O 0.24442 0.28772 0.84258
 O427 O 0.24774 0.30305 0.69216
 O428 O 0.21788 0.26353 0.68137
 O429 O 0.32021 0.26219 0.72409
 O430 O 0.32447 0.22566 0.76240
 O431 O 0.28659 0.33138 0.76787
 O432 O 0.24612 0.33691 0.79810
 Zr433 Zr 0.24872 0.30954 0.76373
 O434 O 0.22143 0.28428 0.78681
 Zr435 Zr 0.29738 0.26041 0.76187
 O436 O 0.27288 0.23384 0.78663
 Zr437 Zr 0.24958 0.26395 0.71196
 O438 O 0.22383 0.23590 0.73346
 Zr439 Zr 0.24481 0.25659 0.81125
 O440 O 0.27242 0.28341 0.78985
 Zr441 Zr 0.19796 0.25839 0.76040
 O442 O 0.22213 0.28695 0.73699
 Zr443 Zr 0.24749 0.21026 0.76003
 O444 O 0.27371 0.23534 0.73497
 O445 O 0.27511 0.28807 0.73722
 O446 O 0.21998 0.23122 0.78621
 C447 C 0.24843 0.32804 0.70169
 C448 C 0.31179 0.32283 0.77069
 C449 C 0.31250 0.26443 0.69844
 C450 C 0.24521 0.19324 0.82287
 C451 C 0.18097 0.25585 0.82273
 C452 C 0.18523 0.19474 0.75554
 H453 H 0.20928 0.29634 0.79817
 H454 H 0.21317 0.22494 0.71969
 H455 H 0.28738 0.30091 0.72681
 H456 H 0.28513 0.22212 0.79832
 H457 H 0.29037 0.26667 0.83773
 H458 H 0.32322 0.25247 0.80825
 H459 H 0.17184 0.24589 0.71462
 H460 H 0.20365 0.27712 0.68741
 H461 H 0.22772 0.29945 0.83995
 H462 H 0.25955 0.33007 0.81218
 H463 H 0.24177 0.18713 0.71186
 H464 H 0.26394 0.22000 0.68475
 H465 H 0.20335 0.33517 0.75108
 H466 H 0.17176 0.30433 0.76974
 H467 H 0.32146 0.21538 0.74478
 H468 H 0.29060 0.18156 0.77582
 O469 O 0.74635 0.68363 0.70157
 O470 O 0.77590 0.66913 0.73880
 O471 O 0.67874 0.72135 0.74841
 O472 O 0.67133 0.75859 0.77400
 O473 O 0.71539 0.76239 0.67416
 O474 O 0.75643 0.78902 0.66798
 O475 O 0.75811 0.78382 0.82084
 O476 O 0.72460 0.74945 0.82640
 O477 O 0.82595 0.74047 0.78239
 O478 O 0.83121 0.71381 0.73986
 O479 O 0.79979 0.81929 0.75067
 O480 O 0.76099 0.83509 0.72265
 O481 O 0.76372 0.81967 0.79038
 O482 O 0.73131 0.83445 0.75186
 O483 O 0.82938 0.78238 0.75014
 O484 O 0.83294 0.74550 0.71296
 O485 O 0.79398 0.74552 0.81684
 O486 O 0.75278 0.71406 0.82298
 O487 O 0.75150 0.71940 0.67089
 O488 O 0.78438 0.75633 0.66557
 O489 O 0.68200 0.76065 0.70763
 O490 O 0.68060 0.79334 0.74870
 O491 O 0.70799 0.68467 0.74223
 O492 O 0.74631 0.67021 0.77045
 Zr493 Zr 0.74775 0.70286 0.74094
 O494 O 0.77662 0.72148 0.76814
 Zr495 Zr 0.70452 0.75650 0.74528
 O496 O 0.73122 0.77723 0.77334
 Zr497 Zr 0.75266 0.75524 0.69596
 O498 O 0.78129 0.77647 0.72143
 Zr499 Zr 0.75575 0.74849 0.79540
 O500 O 0.72634 0.72753 0.77015
 Zr501 Zr 0.80343 0.74748 0.74558
 O502 O 0.77689 0.72598 0.71784
 Zr503 Zr 0.76003 0.80108 0.75067
 O504 O 0.73134 0.78259 0.72259
 O505 O 0.72430 0.73035 0.71715
 O506 O 0.78398 0.77361 0.77424
 C507 C 0.74907 0.69346 0.67681
 C508 C 0.68377 0.69519 0.74634
 C509 C 0.68999 0.76329 0.68219
 C510 C 0.76172 0.80964 0.81516
 C511 C 0.81893 0.74170 0.80810
 C512 C 0.82424 0.80856 0.75100
 H513 H 0.78695 0.70679 0.77817
 H514 H 0.79371 0.78775 0.70957
 H515 H 0.71118 0.72030 0.70483
 H516 H 0.72000 0.78870 0.78618
 H517 H 0.70868 0.73863 0.81907
 H518 H 0.67949 0.76337 0.79230
 H519 H 0.83225 0.76328 0.70258
 H520 H 0.79825 0.74215 0.67115
 H521 H 0.76851 0.70132 0.81942
 H522 H 0.73569 0.67738 0.78655
 H523 H 0.77331 0.82991 0.70701
 H524 H 0.74555 0.80454 0.67601
 H525 H 0.79106 0.67498 0.72618
 H526 H 0.82495 0.69841 0.75200
 H527 H 0.68633 0.80578 0.73329
 H528 H 0.71849 0.83116 0.76759
 O529 O 0.23659 0.67541 0.28010
 O530 O 0.20503 0.67559 0.24163
 O531 O 0.31320 0.69788 0.23662
 O532 O 0.32876 0.73415 0.21221
 O533 O 0.29244 0.73790 0.31584
 O534 O 0.25901 0.77241 0.32868
 O535 O 0.25262 0.79250 0.17784
 O536 O 0.27748 0.75034 0.16587
 O537 O 0.17761 0.76467 0.21246
 O538 O 0.16625 0.73170 0.25131
 O539 O 0.22505 0.82594 0.25162
 O540 O 0.26691 0.82428 0.28335
 O541 O 0.26137 0.82236 0.21354
 O542 O 0.29464 0.82206 0.25211
 O543 O 0.18627 0.79895 0.25306
 O544 O 0.17190 0.75989 0.28159
 O545 O 0.20949 0.76474 0.17754
 O546 O 0.23509 0.72715 0.16412
 O547 O 0.24763 0.70455 0.31583
 O548 O 0.22398 0.74677 0.32844
 O549 O 0.32270 0.73178 0.27998
 O550 O 0.33297 0.76603 0.24346
 O551 O 0.27469 0.67071 0.24035
 O552 O 0.23336 0.67211 0.21036
 Zr553 Zr 0.24185 0.69947 0.24386
 O554 O 0.21951 0.72966 0.22121
 Zr555 Zr 0.29865 0.73849 0.24395
 O556 O 0.27878 0.77059 0.22157
 Zr557 Zr 0.25355 0.74331 0.29612
 O558 O 0.23136 0.77535 0.27586
 Zr559 Zr 0.24678 0.75378 0.19719
 O560 O 0.26890 0.72096 0.21681
 Zr561 Zr 0.20137 0.75809 0.24897
 O562 O 0.22125 0.72606 0.27192
 Zr563 Zr 0.25831 0.79741 0.24945
 O564 O 0.28122 0.76722 0.27211
 O565 O 0.27285 0.71522 0.26961
 O566 O 0.22717 0.78193 0.22359
 C567 C 0.24027 0.68074 0.30606
 C568 C 0.30091 0.67414 0.23683
 C569 C 0.31690 0.73344 0.30602
 C570 C 0.25796 0.81680 0.18760
 C571 C 0.18466 0.76728 0.18676
 C572 C 0.19859 0.82266 0.25312
 H573 H 0.20560 0.72035 0.20923
 H574 H 0.22279 0.78764 0.28993
 H575 H 0.28299 0.70052 0.27991
 H576 H 0.29257 0.78044 0.20995
 H577 H 0.28657 0.73202 0.16843
 H578 H 0.32259 0.74573 0.19633
 H579 H 0.18032 0.77051 0.29709
 H580 H 0.20705 0.73705 0.32187
 H581 H 0.24250 0.70857 0.16876
 H582 H 0.24938 0.67297 0.19749
 H583 H 0.25083 0.82380 0.29614
 H584 H 0.27298 0.78599 0.32205
 H585 H 0.19206 0.68356 0.25547
 H586 H 0.16601 0.71998 0.23437
 H587 H 0.33086 0.77858 0.25967
 H588 H 0.30727 0.81607 0.23703
 O589 O 0.74065 0.31186 0.29758
 O590 O 0.77199 0.32350 0.26203
 O591 O 0.67034 0.28276 0.24706
 O592 O 0.65986 0.24814 0.21972
 O593 O 0.69753 0.23823 0.32192
 O594 O 0.73492 0.20573 0.32971
 O595 O 0.75056 0.21268 0.17787
 O596 O 0.71660 0.24786 0.17058
 O597 O 0.81589 0.24454 0.21938
 O598 O 0.82195 0.27228 0.26296
 O599 O 0.77836 0.17109 0.24990
 O600 O 0.73703 0.15974 0.27407
 O601 O 0.74588 0.17608 0.20757
 O602 O 0.70866 0.16532 0.24378
 O603 O 0.81255 0.20356 0.25336
 O604 O 0.81937 0.23994 0.28936
 O605 O 0.78488 0.25158 0.18423
 O606 O 0.74622 0.28257 0.17619
 O607 O 0.73676 0.27578 0.32803
 O608 O 0.76651 0.23587 0.33450
 O609 O 0.66684 0.24070 0.28586
 O610 O 0.66426 0.21103 0.24310
 O611 O 0.70311 0.31570 0.25618
 O612 O 0.74420 0.32576 0.22886
 Zr613 Zr 0.74059 0.29302 0.25809
 O614 O 0.76857 0.27140 0.23237
 Zr615 Zr 0.69170 0.24480 0.24998
 O616 O 0.71725 0.22156 0.22303
 Zr617 Zr 0.73667 0.24022 0.30239
 O618 O 0.76393 0.21591 0.27814
 Zr619 Zr 0.74604 0.24774 0.20337
 O620 O 0.71792 0.27161 0.22719
 Zr621 Zr 0.79103 0.24182 0.25560
 O622 O 0.76560 0.26621 0.28227
 Zr623 Zr 0.74156 0.19438 0.24725
 O624 O 0.71388 0.21573 0.27407
 O625 O 0.71267 0.26822 0.27976
 O626 O 0.76990 0.21894 0.22551
 C627 C 0.73901 0.30179 0.32232
 C628 C 0.67811 0.30807 0.25051
 C629 C 0.67274 0.23835 0.31188
 C630 C 0.74976 0.18656 0.18323
 C631 C 0.80966 0.24913 0.19369
 C632 C 0.80394 0.17827 0.25180
 H633 H 0.78097 0.28504 0.22330
 H634 H 0.77409 0.20303 0.29059
 H635 H 0.70003 0.27942 0.29154
 H636 H 0.70585 0.21157 0.20910
 H637 H 0.70135 0.26042 0.17638
 H638 H 0.66783 0.24189 0.20181
 H639 H 0.81402 0.22401 0.30125
 H640 H 0.78168 0.24906 0.33015
 H641 H 0.75978 0.29623 0.18343
 H642 H 0.73096 0.32167 0.21358
 H643 H 0.74700 0.16416 0.29155
 H644 H 0.72152 0.19243 0.32148
 H645 H 0.78699 0.31492 0.27329
 H646 H 0.81984 0.28697 0.24867
 H647 H 0.66742 0.19745 0.25830
 H648 H 0.69891 0.16876 0.22593
 C649 C 0.22025 0.05186 0.05585
 C650 C 0.24422 0.06685 0.06225
 C651 C 0.24592 0.08564 0.08635
 N652 N 0.26629 0.10511 0.08757
 N653 N 0.26836 0.12205 0.10944
 C654 C 0.25036 0.11989 0.13109
 N655 N 0.23020 0.10019 0.13004
 N656 N 0.22794 0.08343 0.10803
 C657 C 0.25226 0.13869 0.15521
 C658 C 0.26510 0.16458 0.15322
 H659 H 0.26226 0.06511 0.04889
 H660 H 0.24140 0.13309 0.17415
 H661 H 0.20152 0.05509 0.06791
 H662 H 0.27340 0.17132 0.13336
 C663 C 0.73642 0.55100 0.55997
 C664 C 0.75713 0.56915 0.56884
 C665 C 0.75254 0.58918 0.59140
 N666 N 0.76869 0.61222 0.59313
 N667 N 0.76479 0.63065 0.61345
 C668 C 0.74479 0.62656 0.63293
 N669 N 0.72886 0.60333 0.63142
 N670 N 0.73255 0.58503 0.61090
 C671 C 0.74091 0.64648 0.65576
 C672 C 0.74992 0.67389 0.65340
 H673 H 0.77674 0.56987 0.55782
 H674 H 0.73053 0.63957 0.67454
 H675 H 0.71593 0.55199 0.56922
 H676 H 0.75801 0.68129 0.63368
 C677 C 0.77590 0.94704 0.05772
 C678 C 0.75295 0.93176 0.06663
 C679 C 0.75370 0.91481 0.09214
 N680 N 0.73431 0.89477 0.09613
 N681 N 0.73465 0.87926 0.11913
 C682 C 0.75415 0.88348 0.13920
 N683 N 0.77328 0.90386 0.13545
 N684 N 0.77311 0.91920 0.11229
 C685 C 0.75528 0.86552 0.16403
 C686 C 0.74508 0.83849 0.16278
 H687 H 0.73388 0.93201 0.05459
 H688 H 0.76641 0.87253 0.18237
 H689 H 0.79536 0.94514 0.06898
 H690 H 0.73682 0.83081 0.14321
 C691 C 0.23801 0.44035 0.55547
 C692 C 0.25891 0.43249 0.57393
 C693 C 0.25423 0.41071 0.59487
 N694 N 0.26969 0.41012 0.61853
 N695 N 0.26563 0.39034 0.63756
 C696 C 0.24618 0.37027 0.63344
 N697 N 0.23099 0.37066 0.60961
 N698 N 0.23480 0.39063 0.59075
 C699 C 0.24218 0.34785 0.65383
 C700 C 0.24952 0.35114 0.68170
 H701 H 0.27869 0.44323 0.57371
 H702 H 0.23287 0.32855 0.64685
 H703 H 0.21743 0.43145 0.55756
 H704 H 0.25645 0.37128 0.68909
 C705 C 0.76833 0.06482 0.94684
 C706 C 0.74597 0.07018 0.92917
 C707 C 0.74572 0.09489 0.91105
 N708 N 0.72879 0.09587 0.88842
 N709 N 0.72906 0.11790 0.87151
 C710 C 0.74605 0.13985 0.87682
 N711 N 0.76260 0.13905 0.89971
 N712 N 0.76252 0.11694 0.91644
 C713 C 0.74732 0.16393 0.85798
 C714 C 0.73789 0.16248 0.83056
 H715 H 0.72897 0.05549 0.92777
 H716 H 0.75796 0.18246 0.86515
 H717 H 0.78612 0.07863 0.94665
 H718 H 0.72909 0.14322 0.82282
 C719 C 0.25928 0.55126 0.43678
 C720 C 0.23714 0.56293 0.42213
 C721 C 0.24082 0.58683 0.40335
 N722 N 0.22099 0.59294 0.38416
 N723 N 0.22380 0.61486 0.36739
 C724 C 0.24638 0.63169 0.36945
 N725 N 0.26606 0.62577 0.38886
 N726 N 0.26339 0.60368 0.40544
 C727 C 0.24967 0.65595 0.35105
 C728 C 0.23594 0.65759 0.32554
 H729 H 0.21649 0.55426 0.42436
 H730 H 0.26448 0.67192 0.35683
 H731 H 0.28022 0.55861 0.43303
 H732 H 0.22324 0.64029 0.31865
 C733 C 0.21626 0.93810 0.94009
 C734 C 0.23984 0.92896 0.92590
 C735 C 0.23867 0.90567 0.90614
 N736 N 0.25866 0.90283 0.88645
 N737 N 0.25795 0.88163 0.86859
 C738 C 0.23742 0.86231 0.87002
 N739 N 0.21763 0.86496 0.88993
 N740 N 0.21816 0.88633 0.90758
 C741 C 0.23660 0.83863 0.85073
 C742 C 0.24972 0.83950 0.82491
 H743 H 0.25951 0.93958 0.92867
 H744 H 0.22420 0.82067 0.85634
 H745 H 0.19632 0.92874 0.93531
 H746 H 0.25981 0.85848 0.81815
 C747 C 0.75959 0.44798 0.43492
 C748 C 0.73881 0.42899 0.42805
 C749 C 0.74232 0.40778 0.40633
 N750 N 0.72558 0.38508 0.40613
 N751 N 0.72809 0.36584 0.38634
 C752 C 0.74729 0.36875 0.36586
 N753 N 0.76389 0.39157 0.36592
 N754 N 0.76158 0.41067 0.38590
 C755 C 0.74942 0.34827 0.34325
 C756 C 0.73886 0.32139 0.34580
 H757 H 0.71973 0.42872 0.43998
 H758 H 0.75987 0.35442 0.32424
 H759 H 0.77972 0.44674 0.42495
 H760 H 0.73066 0.31440 0.36561
 C761 C 0.05258 0.21651 0.06546
 C762 C 0.06975 0.23863 0.07286
 C763 C 0.09031 0.23680 0.09539
 N764 N 0.11088 0.25600 0.09689
 N765 N 0.12949 0.25510 0.11742
 C766 C 0.12803 0.23515 0.13741
 N767 N 0.10725 0.21611 0.13612
 N768 N 0.08876 0.21684 0.11539
 C769 C 0.14858 0.23415 0.16007
 C770 C 0.17446 0.24670 0.15710
 H771 H 0.06854 0.25797 0.06129
 H772 H 0.14388 0.22228 0.17868
 H773 H 0.05503 0.19644 0.07547
 H774 H 0.17995 0.25621 0.13738
 C775 C 0.55381 0.73557 0.56013
 C776 C 0.56821 0.75852 0.57055
 C777 C 0.58784 0.75665 0.59401
 N778 N 0.60679 0.77716 0.59795
 N779 N 0.62451 0.77614 0.61929
 C780 C 0.62368 0.75472 0.63775
 N781 N 0.60449 0.73435 0.63402
 N782 N 0.58696 0.73522 0.61247
 C783 C 0.64333 0.75334 0.66128
 C784 C 0.66889 0.76692 0.66033
 H785 H 0.56566 0.77860 0.56058
 H786 H 0.63862 0.73972 0.67863
 H787 H 0.55789 0.71501 0.56845
 H788 H 0.67480 0.77800 0.64160
 C789 C 0.05944 0.77120 0.94559
 C790 C 0.06919 0.74987 0.92850
 C791 C 0.09160 0.75429 0.90826
 N792 N 0.09357 0.73750 0.88566
 N793 N 0.11395 0.74097 0.86728
 C794 C 0.13332 0.76118 0.87100
 N795 N 0.13155 0.77779 0.89379
 N796 N 0.11094 0.77454 0.91200
 C797 C 0.15644 0.76437 0.85132
 C798 C 0.15423 0.75522 0.82388
 H799 H 0.05919 0.72967 0.92880
 H800 H 0.17537 0.77430 0.85844
 H801 H 0.06796 0.79194 0.94327
 H802 H 0.13438 0.74784 0.81615
 C803 C 0.55314 0.26029 0.45141
 C804 C 0.55966 0.23907 0.43274
 C805 C 0.58314 0.24119 0.41324
 N806 N 0.58417 0.22446 0.39050
 N807 N 0.60559 0.22577 0.37298
 C808 C 0.62696 0.24361 0.37777
 N809 N 0.62606 0.26013 0.40068
 N810 N 0.60450 0.25905 0.41803
 C811 C 0.65094 0.24496 0.35883
 C812 C 0.64919 0.23609 0.33123
 H813 H 0.54691 0.22051 0.43205
 H814 H 0.66992 0.25455 0.36629
 H815 H 0.56445 0.27976 0.45058
 H816 H 0.62942 0.22903 0.32304
 C817 C 0.93926 0.74909 0.05177
 C818 C 0.93247 0.76902 0.07163
 C819 C 0.90924 0.76511 0.09094
 N820 N 0.90804 0.78024 0.11474
 N821 N 0.88701 0.77695 0.13240
 C822 C 0.86629 0.75863 0.12674
 N823 N 0.86731 0.74374 0.10277
 N824 N 0.88850 0.74682 0.08523
 C825 C 0.84280 0.75519 0.14583
 C826 C 0.84459 0.76324 0.17362
 H827 H 0.94512 0.78754 0.07375
 H828 H 0.82403 0.74543 0.13807
 H829 H 0.92807 0.72954 0.05112
 H830 H 0.86414 0.77084 0.18189
 C831 C 0.44237 0.24389 0.57088
 C832 C 0.42982 0.26656 0.58384
 C833 C 0.41205 0.26348 0.60852
 N834 N 0.39365 0.28384 0.61497
 N835 N 0.37722 0.28138 0.63712
 C836 C 0.37885 0.25867 0.65392
 N837 N 0.39764 0.23852 0.64779
 N838 N 0.41387 0.24082 0.62541
 C839 C 0.35982 0.25553 0.67769
 C840 C 0.33349 0.26743 0.67654
 H841 H 0.43235 0.28720 0.57510
 H842 H 0.36555 0.24219 0.69498
 H843 H 0.43832 0.22304 0.57843
 H844 H 0.32710 0.27802 0.65763
 C845 C 0.93582 0.23755 0.95440
 C846 C 0.92378 0.21645 0.93851
 C847 C 0.90085 0.22243 0.91902
 N848 N 0.89690 0.20616 0.89627
 N849 N 0.87655 0.21177 0.87824
 C850 C 0.85916 0.23366 0.88248
 N851 N 0.86279 0.24963 0.90549
 N852 N 0.88337 0.24423 0.92334
 C853 C 0.83678 0.24014 0.86252
 C854 C 0.83906 0.23286 0.83454
 H855 H 0.93222 0.19555 0.93917
 H856 H 0.81903 0.25206 0.86957
 H857 H 0.92857 0.25873 0.95148
 H858 H 0.85810 0.22327 0.82727
 C859 C 0.44130 0.75228 0.44171
 C860 C 0.43363 0.73108 0.42345
 C861 C 0.40935 0.73369 0.40491
 N862 N 0.40634 0.71617 0.38296
 N863 N 0.38430 0.71813 0.36621
 C864 C 0.36427 0.73748 0.37099
 N865 N 0.36711 0.75478 0.39314
 N866 N 0.38929 0.75299 0.40973
 C867 C 0.33991 0.73998 0.35254
 C868 C 0.34013 0.72939 0.32554
 H869 H 0.44579 0.71213 0.42259
 H870 H 0.32221 0.75193 0.35967
 H871 H 0.43016 0.77187 0.44128
 H872 H 0.35880 0.71954 0.31771
 C873 C 0.05900 0.06153 0.26640
 C874 C 0.07915 0.06718 0.24639
 C875 C 0.09885 0.09038 0.24903
 N876 N 0.12203 0.09077 0.23304
 N877 N 0.13981 0.11194 0.23459
 C878 C 0.13490 0.13367 0.25197
 N879 N 0.11156 0.13343 0.26780
 N880 N 0.09390 0.11210 0.26645
 C881 C 0.15418 0.15737 0.25327
 C882 C 0.18145 0.15496 0.24390
 H883 H 0.08093 0.05382 0.22831
 H884 H 0.14705 0.17675 0.26229
 H885 H 0.05844 0.07346 0.28553
 H886 H 0.18904 0.13488 0.23704
 C887 C 0.56630 0.55320 0.73852
 C888 C 0.57198 0.57364 0.75826
 C889 C 0.59554 0.59283 0.75463
 N890 N 0.59585 0.61773 0.76795
 N891 N 0.61681 0.63546 0.76417
 C892 C 0.63832 0.62882 0.74711
 N893 N 0.63818 0.60377 0.73413
 N894 N 0.61712 0.58618 0.73769
 C895 C 0.66177 0.64798 0.74290
 C896 C 0.65998 0.67620 0.74932
 H897 H 0.55801 0.57668 0.77566
 H898 H 0.68065 0.63976 0.73380
 H899 H 0.57901 0.55193 0.71995
 H900 H 0.64048 0.68472 0.75665
 C901 C 0.94709 0.05967 0.73399
 C902 C 0.92764 0.06728 0.75404
 C903 C 0.90782 0.08993 0.74892
 N904 N 0.88370 0.09110 0.76341
 N905 N 0.86579 0.11182 0.75916
 C906 C 0.87153 0.13226 0.74047
 N907 N 0.89579 0.13126 0.72621
 N908 N 0.91354 0.11036 0.73022
 C909 C 0.85265 0.15594 0.73673
 C910 C 0.82475 0.15434 0.74408
 H911 H 0.92626 0.05592 0.77351
 H912 H 0.86096 0.17509 0.72825
 H913 H 0.94644 0.06962 0.71372
 H914 H 0.81596 0.13452 0.75024
 C915 C 0.44175 0.55492 0.21837
 C916 C 0.41989 0.55996 0.23664
 C917 C 0.39972 0.58243 0.23195
 N918 N 0.37566 0.58291 0.24661
 N919 N 0.35790 0.60399 0.24375
 C920 C 0.36368 0.62549 0.22632
 N921 N 0.38778 0.62505 0.21171
 N922 N 0.40542 0.60383 0.21437
 C923 C 0.34523 0.64980 0.22458
 C924 C 0.31797 0.64894 0.23421
 H925 H 0.41771 0.54732 0.25522
 H926 H 0.35350 0.66895 0.21605
 H927 H 0.44275 0.56595 0.19870
 H928 H 0.30904 0.62927 0.24064
 C929 C 0.05886 0.94447 0.75680
 C930 C 0.07690 0.93641 0.73561
 C931 C 0.09452 0.91150 0.73773
 N932 N 0.11590 0.90795 0.71971
 N933 N 0.13168 0.88519 0.72091
 C934 C 0.12642 0.86496 0.73995
 N935 N 0.10485 0.86836 0.75779
 N936 N 0.08922 0.89125 0.75677
 C937 C 0.14385 0.83985 0.74159
 C938 C 0.17061 0.83937 0.73061
 H939 H 0.07814 0.94871 0.71672
 H940 H 0.13635 0.82219 0.75343
 H941 H 0.05886 0.93330 0.77642
 H942 H 0.17902 0.85801 0.72114
 C943 C 0.56482 0.45351 0.25528
 C944 C 0.57616 0.43623 0.23501
 C945 C 0.59795 0.41579 0.24120
 N946 N 0.60159 0.39387 0.22384
 N947 N 0.62107 0.37492 0.22909
 C948 C 0.63785 0.37734 0.25173
 N949 N 0.63451 0.39950 0.26892
 N950 N 0.61477 0.41834 0.26384
 C951 C 0.65932 0.35635 0.25744
 C952 C 0.65663 0.32944 0.24709
 H953 H 0.56753 0.43638 0.21413
 H954 H 0.67688 0.36181 0.27049
 H955 H 0.57175 0.45193 0.27672
 H956 H 0.63770 0.32356 0.23633
 C957 C 0.94747 0.94571 0.24429
 C958 C 0.92898 0.93746 0.26511
 C959 C 0.90927 0.91442 0.26112
 N960 N 0.88642 0.91251 0.27753
 N961 N 0.86871 0.89139 0.27459
 C962 C 0.87342 0.87122 0.25536
 N963 N 0.89642 0.87298 0.23915
 N964 N 0.91395 0.89427 0.24186
 C965 C 0.85448 0.84739 0.25242
 C966 C 0.82688 0.84857 0.26107
 H967 H 0.92832 0.94864 0.28470
 H968 H 0.86209 0.82889 0.24203
 H969 H 0.94626 0.93593 0.22398
 H970 H 0.81845 0.86797 0.26886
 C971 C 0.43813 0.45161 0.74308
 C972 C 0.42765 0.43943 0.76720
 C973 C 0.40264 0.42186 0.76654
 N974 N 0.39838 0.40262 0.78679
 N975 N 0.37609 0.38620 0.78606
 C976 C 0.35703 0.38868 0.76527
 N977 N 0.36102 0.40828 0.74531
 N978 N 0.38348 0.42448 0.74586
 C979 C 0.33291 0.36996 0.76368
 C980 C 0.33393 0.34336 0.77511
 H981 H 0.43870 0.44178 0.78675
 H982 H 0.31525 0.37607 0.75103
 H983 H 0.42828 0.44733 0.72322
 H984 H 0.35288 0.33634 0.78515
 C985 C 0.05511 0.22354 0.95313
 C986 C 0.06495 0.24726 0.93969
 C987 C 0.08953 0.24640 0.92147
 N988 N 0.09324 0.26639 0.90187
 N989 N 0.11535 0.26585 0.88522
 C990 C 0.13482 0.24550 0.88780
 N991 N 0.13136 0.22574 0.90771
 N992 N 0.10905 0.22610 0.92415
 C993 C 0.15911 0.24464 0.86917
 C994 C 0.15782 0.25637 0.84266
 H995 H 0.05391 0.26678 0.94190
 H996 H 0.17748 0.23326 0.87561
 H997 H 0.06497 0.20366 0.94916
 H998 H 0.13832 0.26519 0.83552
 C999 C 0.55955 0.75706 0.44587
 C1000 C 0.56754 0.73730 0.42621
 C1001 C 0.59093 0.74181 0.40712
 N1002 N 0.59329 0.72600 0.38384
 N1003 N 0.61461 0.72950 0.36653
 C1004 C 0.63453 0.74875 0.37204
 N1005 N 0.63233 0.76437 0.39548
 N1006 N 0.61085 0.76107 0.41264
 C1007 C 0.65841 0.75240 0.35334
 C1008 C 0.65768 0.74337 0.32577
 H1009 H 0.55581 0.71816 0.42423
 H1010 H 0.67654 0.76328 0.36113
 H1011 H 0.56979 0.77712 0.44645
 H1012 H 0.63866 0.73466 0.31738
 C1013 C 0.94397 0.76829 0.94159
 C1014 C 0.93450 0.74583 0.92578
 C1015 C 0.91039 0.74789 0.90705
 N1016 N 0.90613 0.72795 0.88753
 N1017 N 0.88411 0.72912 0.87072
 C1018 C 0.86532 0.75009 0.87305
 N1019 N 0.86939 0.76987 0.89281
 N1020 N 0.89158 0.76885 0.90946
 C1021 C 0.84118 0.75168 0.85426
 C1022 C 0.84138 0.73834 0.82853
 H1023 H 0.94508 0.72595 0.92701
 H1024 H 0.82397 0.76514 0.85976
 H1025 H 0.93445 0.78856 0.93879
 H1026 H 0.85986 0.72724 0.82199
 C1027 C 0.43526 0.26143 0.45421
 C1028 C 0.42979 0.24152 0.43386
 C1029 C 0.40748 0.24517 0.41319
 N1030 N 0.40839 0.23097 0.38879
 N1031 N 0.38833 0.23404 0.36986
 C1032 C 0.36645 0.25121 0.37476
 N1033 N 0.36534 0.26515 0.39932
 N1034 N 0.38558 0.26232 0.41813
 C1035 C 0.34393 0.25426 0.35419
 C1036 C 0.34810 0.24813 0.32614
 H1037 H 0.44313 0.22344 0.43213
 H1038 H 0.32399 0.26207 0.36110
 H1039 H 0.42353 0.28068 0.45439
 H1040 H 0.36874 0.24269 0.31900
 C1041 C 0.05285 0.75133 0.06090
 C1042 C 0.06592 0.77394 0.07348
 C1043 C 0.08394 0.77082 0.09803
 N1044 N 0.10274 0.79090 0.10421
 N1045 N 0.11942 0.78830 0.12624
 C1046 C 0.11763 0.76570 0.14315
 N1047 N 0.09848 0.74583 0.13728
 N1048 N 0.08199 0.74828 0.11504
 C1049 C 0.13688 0.76212 0.16673
 C1050 C 0.16328 0.77386 0.16600
 H1051 H 0.06363 0.79452 0.06451
 H1052 H 0.13147 0.74780 0.18330
 H1053 H 0.05671 0.73048 0.06859
 H1054 H 0.16963 0.78547 0.14773
 C1055 C 0.55365 0.24495 0.56637
 C1056 C 0.56876 0.26767 0.57607
 C1057 C 0.58808 0.26543 0.59965
 N1058 N 0.60839 0.28469 0.60298
 N1059 N 0.62593 0.28307 0.62442
 C1060 C 0.62350 0.26237 0.64354
 N1061 N 0.60291 0.24335 0.64046
 N1062 N 0.58557 0.24478 0.61882
 C1063 C 0.64309 0.26013 0.66692
 C1064 C 0.66992 0.27066 0.66481
 H1065 H 0.56680 0.28763 0.56574
 H1066 H 0.63722 0.24801 0.68501
 H1067 H 0.55725 0.22448 0.57515
 H1068 H 0.67664 0.28008 0.64544
 C1069 C 0.94200 0.22162 0.07101
 C1070 C 0.93059 0.24533 0.08310
 C1071 C 0.91223 0.24372 0.10751
 N1072 N 0.89482 0.26513 0.11331
 N1073 N 0.87758 0.26372 0.13493
 C1074 C 0.87737 0.24101 0.15181
 N1075 N 0.89519 0.21981 0.14637
 N1076 N 0.91223 0.22109 0.12454
 C1077 C 0.85730 0.23880 0.17481
 C1078 C 0.83196 0.25267 0.17323
 H1079 H 0.93424 0.26552 0.07375
 H1080 H 0.86122 0.22425 0.19162
 H1081 H 0.93684 0.20130 0.07931
 H1082 H 0.82715 0.26470 0.15472
 C1083 C 0.43823 0.72815 0.55162
 C1084 C 0.43040 0.74716 0.57198
 C1085 C 0.40676 0.74202 0.59054
 N1086 N 0.40507 0.75572 0.61515
 N1087 N 0.38363 0.75153 0.63210
 C1088 C 0.36292 0.73371 0.62493
 N1089 N 0.36441 0.72024 0.60015
 N1090 N 0.38605 0.72419 0.58332
 C1091 C 0.33887 0.72974 0.64331
 C1092 C 0.34078 0.73582 0.67159
 H1093 H 0.44254 0.76588 0.57510
 H1094 H 0.31956 0.72215 0.63454
 H1095 H 0.42757 0.70836 0.55005
 H1096 H 0.36082 0.74117 0.68043
 C1097 C 0.21382 0.05217 0.93684
 C1098 C 0.23705 0.06720 0.92840
 C1099 C 0.23610 0.08717 0.90525
 N1100 N 0.25589 0.10713 0.90337
 N1101 N 0.25542 0.12547 0.88258
 C1102 C 0.23535 0.12431 0.86267
 N1103 N 0.21579 0.10405 0.86427
 N1104 N 0.21607 0.08587 0.88528
 C1105 C 0.23454 0.14499 0.84008
 C1106 C 0.24579 0.17133 0.84412
 H1107 H 0.25640 0.06505 0.93978
 H1108 H 0.22357 0.14016 0.82095
 H1109 H 0.19391 0.05578 0.92688
 H1110 H 0.25402 0.17677 0.86444
 C1111 C 0.75486 0.56632 0.44852
 C1112 C 0.73394 0.57498 0.43040
 C1113 C 0.73708 0.60001 0.41301
 N1114 N 0.72253 0.60235 0.38889
 N1115 N 0.72572 0.62455 0.37258
 C1116 C 0.74329 0.64543 0.37994
 N1117 N 0.75743 0.64337 0.40435
 N1118 N 0.75450 0.62098 0.42052
 C1119 C 0.74743 0.66955 0.36148
 C1120 C 0.74407 0.66675 0.33281
 H1121 H 0.71557 0.56224 0.42767
 H1122 H 0.75472 0.68902 0.37019
 H1123 H 0.77415 0.57791 0.44945
 H1124 H 0.73942 0.64637 0.32434
 C1125 C 0.75422 0.05270 0.05764
 C1126 C 0.77440 0.06895 0.07063
 C1127 C 0.76739 0.08717 0.09409
 N1128 N 0.78302 0.11003 0.09935
 N1129 N 0.77668 0.12686 0.12044
 C1130 C 0.75470 0.12120 0.13723
 N1131 N 0.73936 0.09807 0.13227
 N1132 N 0.74549 0.08144 0.11095
 C1133 C 0.74770 0.13966 0.16051
 C1134 C 0.75467 0.16772 0.15975
 H1135 H 0.79546 0.06937 0.06270
 H1136 H 0.73608 0.13135 0.17793
 H1137 H 0.73279 0.05447 0.06433
 H1138 H 0.76390 0.17634 0.14106
 C1139 C 0.25921 0.55581 0.54986
 C1140 C 0.23787 0.56586 0.56662
 C1141 C 0.24243 0.58899 0.58620
 N1142 N 0.22557 0.59210 0.60860
 N1143 N 0.22956 0.61291 0.62650
 C1144 C 0.25036 0.63158 0.62249
 N1145 N 0.26699 0.62870 0.59988
 N1146 N 0.26321 0.60769 0.58215
 C1147 C 0.25458 0.65494 0.64187
 C1148 C 0.24508 0.65379 0.66924
 H1149 H 0.21778 0.55571 0.56636
 H1150 H 0.26596 0.67302 0.63470
 H1151 H 0.27991 0.56438 0.55204
 H1152 H 0.23590 0.63469 0.67693
 C1153 C 0.78463 0.94753 0.93784
 C1154 C 0.76443 0.92840 0.92973
 C1155 C 0.76789 0.90921 0.90617
 N1156 N 0.75094 0.88680 0.90404
 N1157 N 0.75295 0.86957 0.88244
 C1158 C 0.77179 0.87426 0.86195
 N1159 N 0.78864 0.89684 0.86393
 N1160 N 0.78682 0.91396 0.88573
 C1161 C 0.77343 0.85554 0.83773
 C1162 C 0.76267 0.82866 0.83907
 H1163 H 0.74531 0.92695 0.94153
 H1164 H 0.78349 0.86276 0.81890
 H1165 H 0.80471 0.94770 0.92769
 H1166 H 0.75487 0.82093 0.85878
 C1167 C 0.24066 0.43311 0.44245
 C1168 C 0.26315 0.42113 0.42869
 C1169 C 0.26013 0.39691 0.41020
 N1170 N 0.27938 0.39220 0.39017
 N1171 N 0.27705 0.37043 0.37317
 C1172 C 0.25561 0.35226 0.37583
 N1173 N 0.23658 0.35666 0.39620
 N1174 N 0.23872 0.37868 0.41300
 C1175 C 0.25272 0.32866 0.35644
 C1176 C 0.26218 0.33112 0.32917
 H1177 H 0.28352 0.43053 0.43058
 H1178 H 0.24159 0.31019 0.36294
 H1179 H 0.21990 0.42516 0.43884
 H1180 H 0.27037 0.35098 0.32230
 C1181 C 0.22132 0.93644 0.05253
 C1182 C 0.24535 0.92976 0.06729
 C1183 C 0.24599 0.90611 0.08667
 N1184 N 0.26564 0.90471 0.10695
 N1185 N 0.26618 0.88334 0.12466
 C1186 C 0.24727 0.86247 0.12248
 N1187 N 0.22788 0.86370 0.10198
 N1188 N 0.22717 0.88519 0.08448
 C1189 C 0.24741 0.83878 0.14176
 C1190 C 0.26008 0.84002 0.16784
 H1191 H 0.26377 0.94253 0.06517
 H1192 H 0.23553 0.82050 0.13601
 H1193 H 0.20233 0.92501 0.05646
 H1194 H 0.26992 0.85913 0.17465
 C1195 C 0.74323 0.43628 0.54779
 C1196 C 0.76414 0.42985 0.56686
 C1197 C 0.76176 0.40643 0.58645
 N1198 N 0.77847 0.40531 0.60922
 N1199 N 0.77645 0.38432 0.62726
 C1200 C 0.75780 0.36354 0.62302
 N1201 N 0.74131 0.36449 0.60006
 N1202 N 0.74316 0.38561 0.58216
 C1203 C 0.75537 0.34023 0.64273
 C1204 C 0.76564 0.34191 0.66986
 H1205 H 0.78227 0.44312 0.56839
 H1206 H 0.74406 0.32187 0.63618
 H1207 H 0.72418 0.42427 0.54761
 H1208 H 0.77495 0.36112 0.67708
 C1209 C 0.05483 0.06514 0.76269
 C1210 C 0.07195 0.07658 0.74233
 C1211 C 0.08870 0.10169 0.74725
 N1212 N 0.10996 0.10774 0.72981
 N1213 N 0.12543 0.13033 0.73386
 C1214 C 0.12003 0.14796 0.75531
 N1215 N 0.09845 0.14218 0.77252
 N1216 N 0.08311 0.11939 0.76862
 C1217 C 0.13789 0.17237 0.76024
 C1218 C 0.16530 0.17207 0.75112
 H1219 H 0.07355 0.06654 0.72219
 H1220 H 0.13019 0.18963 0.77251
 H1221 H 0.05437 0.07424 0.78333
 H1222 H 0.17328 0.15335 0.74141
 C1223 C 0.55202 0.56816 0.24671
 C1224 C 0.57389 0.57340 0.22856
 C1225 C 0.59289 0.59682 0.23287
 N1226 N 0.61822 0.59675 0.22057
 N1227 N 0.63578 0.61777 0.22456
 C1228 C 0.62851 0.63972 0.24081
 N1229 N 0.60304 0.63996 0.25282
 N1230 N 0.58558 0.61880 0.24905
 C1231 C 0.64751 0.66314 0.24507
 C1232 C 0.67588 0.66074 0.24006
 H1233 H 0.57808 0.55913 0.21160
 H1234 H 0.63908 0.68246 0.25307
 H1235 H 0.54919 0.58109 0.26497
 H1236 H 0.68461 0.64080 0.23422
 C1237 C 0.05882 0.94451 0.26990
 C1238 C 0.08036 0.93882 0.25135
 C1239 C 0.09996 0.91563 0.25554
 N1240 N 0.12420 0.91500 0.24116
 N1241 N 0.14166 0.89360 0.24385
 C1242 C 0.13537 0.87189 0.26083
 N1243 N 0.11106 0.87245 0.27511
 N1244 N 0.09373 0.89398 0.27263
 C1245 C 0.15364 0.84735 0.26271
 C1246 C 0.18133 0.84796 0.25420
 H1247 H 0.08319 0.95201 0.23326
 H1248 H 0.14500 0.82826 0.27101
 H1249 H 0.05729 0.93289 0.28918
 H1250 H 0.19063 0.86755 0.24804
 C1251 C 0.55490 0.44001 0.75468
 C1252 C 0.57581 0.43355 0.73574
 C1253 C 0.59618 0.41140 0.74147
 N1254 N 0.62115 0.41138 0.72838
 N1255 N 0.63969 0.39135 0.73344
 C1256 C 0.63379 0.37049 0.75161
 N1257 N 0.60872 0.37038 0.76447
 N1258 N 0.59033 0.39056 0.75966
 C1259 C 0.65328 0.34738 0.75629
 C1260 C 0.68152 0.34922 0.75010
 H1261 H 0.57827 0.44606 0.71712
 H1262 H 0.64505 0.32825 0.76490
 H1263 H 0.55424 0.42937 0.77458
 H1264 H 0.69032 0.36897 0.74372
 C1265 C 0.94791 0.06201 0.24070
 C1266 C 0.92752 0.06899 0.26005
 C1267 C 0.90792 0.09212 0.25578
 N1268 N 0.88395 0.09286 0.27055
 N1269 N 0.86615 0.11387 0.26746
 C1270 C 0.87181 0.13517 0.24973
 N1271 N 0.89596 0.13462 0.23517
 N1272 N 0.91364 0.11341 0.23802
 C1273 C 0.85228 0.15861 0.24665
 C1274 C 0.82426 0.15545 0.25317
 H1275 H 0.92525 0.05653 0.27873
 H1276 H 0.85978 0.17819 0.23838
 H1277 H 0.94886 0.07291 0.22096
 H1278 H 0.81659 0.13503 0.25885
 C1279 C 0.44945 0.56355 0.73321
 C1280 C 0.43032 0.56972 0.75409
 C1281 C 0.40951 0.59194 0.75136
 N1282 N 0.38704 0.59214 0.76839
 N1283 N 0.36824 0.61243 0.76665
 C1284 C 0.37139 0.63341 0.74797
 N1285 N 0.39397 0.63333 0.73107
 N1286 N 0.41264 0.61288 0.73263
 C1287 C 0.35132 0.65642 0.74642
 C1288 C 0.32448 0.65431 0.75712
 H1289 H 0.42986 0.55709 0.77280
 H1290 H 0.35755 0.67525 0.73568
 H1291 H 0.44851 0.57437 0.71342
 H1292 H 0.31726 0.63468 0.76552
 C1293 C 0.94707 0.94587 0.73202
 C1294 C 0.93831 0.92785 0.75298
 C1295 C 0.91526 0.90822 0.74920
 N1296 N 0.91268 0.88623 0.76673
 N1297 N 0.89129 0.86883 0.76438
 C1298 C 0.87146 0.87301 0.74464
 N1299 N 0.87389 0.89515 0.72724
 N1300 N 0.89548 0.91239 0.72938
 C1301 C 0.84736 0.85438 0.74248
 C1302 C 0.84825 0.82729 0.75275
 H1303 H 0.94890 0.92792 0.77293
 H1304 H 0.82897 0.86173 0.73168
 H1305 H 0.93839 0.94424 0.71124
 H1306 H 0.86757 0.81907 0.76098
 C1307 C 0.45478 0.43833 0.22795
 C1308 C 0.43607 0.43052 0.24858
 C1309 C 0.41832 0.40589 0.24592
 N1310 N 0.39542 0.40355 0.26212
 N1311 N 0.37893 0.38144 0.25994
 C1312 C 0.38492 0.36071 0.24170
 N1313 N 0.40808 0.36282 0.22578
 N1314 N 0.42444 0.38510 0.22775
 C1315 C 0.36652 0.33651 0.23906
 C1316 C 0.33881 0.33828 0.24704
 H1317 H 0.43348 0.44350 0.26684
 H1318 H 0.37442 0.31764 0.22962
 H1319 H 0.45606 0.42654 0.20877
 H1320 H 0.33055 0.35804 0.25409
   
