data_POSCAR
  _audit_creation_date              2014-09-24
  _audit_creation_method            'ToBaCCo'
  _symmetry_space_group_name_H-M    'P1'
  _symmetry_Int_Tables_number       1
  _symmetry_cell_setting            triclinic
  loop_
  _symmetry_equiv_pos_as_xyz
 x,y,z
_cell_length_a 35.6150
_cell_length_b 35.3813
_cell_length_c 35.3038
_cell_angle_alpha 89.960700
_cell_angle_beta 89.906200
_cell_angle_gamma 90.198400
loop_
  _atom_site_label
  _atom_site_type_symbol
  _atom_site_fract_x
  _atom_site_fract_y
  _atom_site_fract_z
O1 O 0.27471 1.03998 0.02239
 O2 O 0.27543 0.95494 -0.03730
 O3 O 0.27021 1.02602 -0.05036
 O4 O 0.27872 0.96699 0.03480
 O5 O 0.21700 0.96481 0.04070
 O6 O 0.20846 1.02253 -0.04594
 O7 O 0.21402 0.94977 -0.03094
 O8 O 0.21300 1.03607 0.02732
 Cu9 Cu 0.28096 0.99762 -0.00787
 Cu10 Cu 0.20683 0.99319 -0.00209
 C11 C 0.24382 1.05227 0.03540
 C12 C 0.24495 0.93749 -0.04407
 C13 C 0.23786 1.03375 -0.06312
 C14 C 0.24947 0.95568 0.05215
 O15 O 0.71290 0.53737 0.53830
 O16 O 0.71729 0.45898 0.46972
 O17 O 0.71718 0.46542 0.54355
 O18 O 0.71254 0.53369 0.46481
 O19 O 0.77453 0.53614 0.46272
 O20 O 0.77908 0.46920 0.54199
 O21 O 0.77909 0.46377 0.46865
 O22 O 0.77472 0.54255 0.53599
 Cu23 Cu 0.70864 0.49830 0.50372
 Cu24 Cu 0.78306 0.50326 0.50230
 C25 C 0.74317 0.55319 0.54887
 C26 C 0.74905 0.44791 0.45767
 C27 C 0.74906 0.45612 0.55649
 C28 C 0.74275 0.54678 0.45071
 O29 O 0.78717 0.97246 1.04519
 O30 O 0.78228 1.03090 0.95874
 O31 O 0.78854 1.04550 1.03135
 O32 O 0.78355 0.95916 0.97317
 O33 O 0.72159 0.96146 0.97543
 O34 O 0.72683 1.04566 1.03614
 O35 O 0.72056 1.03327 0.96465
 O36 O 0.72537 0.97283 1.04855
 Cu37 Cu 0.79166 1.00206 1.00195
 Cu38 Cu 0.71741 1.00321 1.00696
 C39 C 0.75689 0.96207 1.06128
 C40 C 0.75041 1.04197 0.94701
 C41 C 0.75851 1.06054 1.04357
 C42 C 0.75167 0.94628 0.96353
 O43 O 0.29109 0.46186 0.53589
 O44 O 0.28700 0.53435 0.46104
 O45 O 0.28976 0.53507 0.53373
 O46 O 0.29147 0.46088 0.46152
 O47 O 0.22976 0.45488 0.46533
 O48 O 0.22782 0.53591 0.53118
 O49 O 0.22532 0.52754 0.45860
 O50 O 0.22925 0.46257 0.53952
 Cu51 Cu 0.29613 0.49791 0.49787
 Cu52 Cu 0.22177 0.49459 0.49893
 C53 C 0.26073 0.45088 0.55141
 C54 C 0.25535 0.54308 0.44703
 C55 C 0.25860 0.54915 0.54379
 C56 C 0.26111 0.44527 0.45118
 O57 O 1.04065 0.22239 0.03095
 O58 O 0.95883 0.21807 -0.03281
 O59 O 1.03215 0.21063 -0.04118
 O60 O 0.96936 0.22749 0.03954
 O61 O 0.97204 0.28894 0.02840
 O62 O 1.03672 0.27215 -0.05131
 O63 O 0.96483 0.27913 -0.04398
 O64 O 1.04496 0.28388 0.02116
 Cu65 Cu 0.99979 0.21334 -0.00026
 Cu66 Cu 1.00515 0.28720 -0.01243
 C67 C 1.05632 0.25403 0.03745
 C68 C 0.94773 0.24804 -0.04923
 C69 C 1.04544 0.23842 -0.05958
 C70 C 0.96007 0.26106 0.04774
 O71 O 0.53813 0.78363 0.53857
 O72 O 0.45918 0.77981 0.47139
 O73 O 0.46542 0.78328 0.54444
 O74 O 0.53210 0.78040 0.46459
 O75 O 0.53653 0.71853 0.47122
 O76 O 0.46154 0.72094 0.54303
 O77 O 0.46374 0.71757 0.46981
 O78 O 0.53464 0.72167 0.54506
 Cu79 Cu 0.49889 0.78811 0.50440
 Cu80 Cu 0.49935 0.71335 0.50762
 C81 C 0.54888 0.75327 0.55434
 C82 C 0.44854 0.74798 0.45865
 C83 C 0.45117 0.75255 0.55637
 C84 C 0.54615 0.74896 0.45472
 O85 O 0.03060 0.77345 -0.04283
 O86 O -0.03257 0.78720 0.03890
 O87 O 0.04137 0.78614 0.03068
 O88 O -0.03984 0.77923 -0.03295
 O89 O -0.04026 0.71730 -0.02562
 O90 O 0.03683 0.72520 0.04356
 O91 O -0.03449 0.72536 0.04761
 O92 O 0.03418 0.71285 -0.02887
 Cu93 Cu 0.00068 0.78777 -0.00214
 Cu94 Cu -0.00106 0.71384 0.00958
 C95 C 0.04338 0.74066 -0.04967
 C96 C -0.04467 0.75840 0.05680
 C97 C 0.05204 0.75723 0.04901
 C98 C -0.05383 0.74709 -0.04053
 O99 O 0.53654 0.27881 0.45127
 O100 O 0.46756 0.28319 0.52926
 O101 O 0.54130 0.28726 0.52527
 O102 O 0.46392 0.27795 0.45663
 O103 O 0.46857 0.21578 0.46000
 O104 O 0.54119 0.22538 0.53366
 O105 O 0.46923 0.22093 0.53413
 O106 O 0.54169 0.21728 0.46027
 Cu107 Cu 0.50241 0.28811 0.49012
 Cu108 Cu 0.50544 0.21360 0.49742
 C109 C 0.55089 0.24714 0.44260
 C110 C 0.45645 0.25264 0.54468
 C111 C 0.55357 0.25801 0.54200
 C112 C 0.45341 0.24526 0.44630
 O113 O 1.04041 0.04268 0.27720
 O114 O 0.96502 -0.02771 0.28460
 O115 O 1.03824 -0.03013 0.28159
 O116 O 0.96791 0.04576 0.27603
 O117 O 0.96380 0.03721 0.21419
 O118 O 1.03868 -0.03371 0.21911
 O119 O 0.96668 -0.03593 0.22269
 O120 O 1.03679 0.04071 0.21473
 Cu121 Cu 1.00283 0.00813 0.28613
 Cu122 Cu 1.00145 0.00165 0.21137
 C123 C 1.05077 0.05440 0.24489
 C124 C 0.95382 -0.04490 0.25512
 C125 C 1.05044 -0.04483 0.25114
 C126 C 0.95385 0.05431 0.24410
 O127 O 0.53022 0.53035 0.72234
 O128 O 0.46155 0.45179 0.72604
 O129 O 0.45670 0.52562 0.71966
 O130 O 0.53318 0.45609 0.72400
 O131 O 0.53154 0.45836 0.78654
 O132 O 0.45932 0.53273 0.78175
 O133 O 0.45826 0.45844 0.78818
 O134 O 0.53191 0.53089 0.78494
 Cu135 Cu 0.49534 0.49092 0.71667
 Cu136 Cu 0.49484 0.49542 0.79162
 C137 C 0.54329 0.54329 0.75327
 C138 C 0.44860 0.44157 0.75801
 C139 C 0.44574 0.54180 0.74975
 C140 C 0.54471 0.44471 0.75600
 O141 O 0.96309 1.03858 0.78183
 O142 O 1.03359 0.96297 0.78798
 O143 O 1.03443 1.03572 0.77624
 O144 O 0.96008 0.96518 0.79409
 O145 O 0.95626 0.95393 0.73264
 O146 O 1.02987 1.02497 0.71476
 O147 O 1.02769 0.95217 0.72664
 O148 O 0.95631 1.02713 0.72082
 Cu149 Cu 0.99816 1.00137 0.79130
 Cu150 Cu 0.99190 0.98881 0.71748
 C151 C 0.94814 1.04634 0.75014
 C152 C 1.04242 0.94452 0.75843
 C153 C 1.04441 1.04266 0.74242
 C154 C 0.94622 0.94697 0.76641
 O155 O 0.46592 0.54295 0.28114
 O156 O 0.54032 0.47105 0.28454
 O157 O 0.53838 0.54370 0.28307
 O158 O 0.46710 0.46844 0.28392
 O159 O 0.47010 0.46452 0.22155
 O160 O 0.53707 0.54421 0.22050
 O161 O 0.54180 0.47005 0.22196
 O162 O 0.46407 0.53799 0.21877
 Cu163 Cu 0.50251 0.50663 0.28950
 Cu164 Cu 0.50336 0.50421 0.21437
 C165 C 0.45253 0.55281 0.24933
 C166 C 0.55370 0.45837 0.25372
 C167 C 0.54943 0.55720 0.25167
 C168 C 0.45744 0.45274 0.25307
 O169 O 0.24946 0.15646 0.18303
 O170 O 0.29204 0.14098 0.23433
 O171 O 0.15626 0.20518 0.23666
 O172 O 0.14445 0.25332 0.27606
 O173 O 0.20800 0.25951 0.14026
 O174 O 0.26285 0.29876 0.13356
 O175 O 0.25750 0.29901 0.34076
 O176 O 0.21115 0.25181 0.34760
 O177 O 0.35182 0.24285 0.29535
 O178 O 0.36334 0.20422 0.24015
 O179 O 0.31401 0.34558 0.24978
 O180 O 0.26376 0.36252 0.20387
 O181 O 0.26133 0.34619 0.29724
 O182 O 0.22180 0.36282 0.24216
 O183 O 0.35647 0.29782 0.24629
 O184 O 0.36550 0.24462 0.20076
 O185 O 0.30544 0.24770 0.33945
 O186 O 0.25096 0.20440 0.34726
 O187 O 0.25756 0.20365 0.13980
 O188 O 0.30207 0.25450 0.13264
 O189 O 0.16154 0.25798 0.18471
 O190 O 0.15390 0.30221 0.23811
 O191 O 0.19882 0.15737 0.23841
 O192 O 0.25100 0.14068 0.27666
 Zr193 Zr 0.25135 0.18434 0.23577
 O194 O 0.28714 0.21284 0.27358
 Zr195 Zr 0.18952 0.25441 0.23692
 O196 O 0.22248 0.28594 0.27512
 Zr197 Zr 0.25756 0.25348 0.17233
 O198 O 0.29361 0.28512 0.20752
 Zr199 Zr 0.25560 0.24954 0.30788
 O200 O 0.21905 0.21756 0.27310
 Zr201 Zr 0.32357 0.24842 0.24316
 O202 O 0.29072 0.21639 0.20477
 Zr203 Zr 0.26157 0.31857 0.24457
 O204 O 0.22552 0.29036 0.20604
 O205 O 0.21961 0.21919 0.20122
 O206 O 0.29387 0.28404 0.27940
 C207 C 0.25299 0.16876 0.14890
 C208 C 0.16508 0.17003 0.23829
 C209 C 0.17331 0.25982 0.15037
 C210 C 0.25996 0.33406 0.33152
 C211 C 0.33999 0.24414 0.32976
 C212 C 0.34771 0.33284 0.24934
 H213 H 0.30112 0.19407 0.28868
 H214 H 0.31058 0.30061 0.19165
 H215 H 0.20282 0.20450 0.18441
 H216 H 0.20607 0.30163 0.29128
 H217 H 0.19091 0.23528 0.33776
 H218 H 0.15252 0.26744 0.29881
 H219 H 0.36284 0.26671 0.18379
 H220 H 0.32037 0.23525 0.14105
 H221 H 0.27215 0.18688 0.34316
 H222 H 0.23591 0.15007 0.29824
 H223 H 0.28497 0.35735 0.18654
 H224 H 0.24687 0.31940 0.14337
 H225 H 0.31140 0.14896 0.21579
 H226 H 0.35361 0.18297 0.25555
 H227 H 0.16299 0.31983 0.21828
 H228 H 0.20209 0.35736 0.26119
 O229 O 0.75754 0.85933 0.21295
 O230 O 0.71571 0.86839 0.26465
 O231 O 0.85132 0.80495 0.26362
 O232 O 0.86075 0.75425 0.30086
 O233 O 0.80810 0.76491 0.16103
 O234 O 0.75633 0.72456 0.14461
 O235 O 0.74243 0.69937 0.35116
 O236 O 0.78701 0.74531 0.36790
 O237 O 0.65190 0.75782 0.30397
 O238 O 0.64435 0.80321 0.25295
 O239 O 0.69596 0.66237 0.25282
 O240 O 0.74490 0.64871 0.21086
 O241 O 0.74670 0.65689 0.30308
 O242 O 0.79097 0.64997 0.24604
 O243 O 0.65290 0.70961 0.24965
 O244 O 0.64695 0.76763 0.20906
 O245 O 0.69415 0.74872 0.35135
 O246 O 0.74723 0.79329 0.36802
 O247 O 0.75713 0.81771 0.16366
 O248 O 0.71416 0.76636 0.14733
 O249 O 0.85063 0.75570 0.20813
 O250 O 0.85511 0.70832 0.25939
 O251 O 0.80851 0.85261 0.26692
 O252 O 0.75500 0.86172 0.30865
 Zr253 Zr 0.75624 0.82498 0.26145
 O254 O 0.71746 0.79191 0.29200
 Zr255 Zr 0.81882 0.75563 0.25853
 O256 O 0.78354 0.71994 0.29071
 Zr257 Zr 0.75613 0.76403 0.18955
 O258 O 0.71851 0.72751 0.21779
 Zr259 Zr 0.74684 0.75203 0.32439
 O260 O 0.78615 0.78769 0.29666
 Zr261 Zr 0.68481 0.75954 0.25451
 O262 O 0.72004 0.79665 0.22359
 Zr263 Zr 0.74798 0.69043 0.25359
 O264 O 0.78603 0.72332 0.22090
 O265 O 0.79086 0.79475 0.22520
 O266 O 0.71216 0.72052 0.28900
 C267 C 0.75745 0.85128 0.17752
 C268 C 0.84230 0.83996 0.26627
 C269 C 0.84180 0.76054 0.17317
 C270 C 0.74363 0.66548 0.33832
 C271 C 0.66050 0.75220 0.33881
 C272 C 0.66215 0.67459 0.25088
 H273 H 0.70169 0.80852 0.30785
 H274 H 0.70333 0.71348 0.19903
 H275 H 0.80804 0.81149 0.21084
 H276 H 0.79909 0.70286 0.30630
 H277 H 0.80794 0.76288 0.36206
 H278 H 0.85070 0.73912 0.32217
 H279 H 0.65077 0.74691 0.19068
 H280 H 0.69569 0.78545 0.15576
 H281 H 0.72474 0.80936 0.36530
 H282 H 0.77191 0.85071 0.32793
 H283 H 0.73838 0.66179 0.18705
 H284 H 0.77389 0.70422 0.15199
 H285 H 0.69571 0.86163 0.24640
 H286 H 0.65046 0.82132 0.27337
 H287 H 0.84928 0.69295 0.23673
 H288 H 0.80623 0.64965 0.26944
 O289 O 0.75207 0.14348 0.79103
 O290 O 0.71250 0.13675 0.73632
 O291 O 0.84840 0.19900 0.75095
 O292 O 0.86139 0.25102 0.71613
 O293 O 0.79561 0.23719 0.85034
 O294 O 0.74235 0.27591 0.86301
 O295 O 0.75385 0.30898 0.65802
 O296 O 0.79467 0.26111 0.64284
 O297 O 0.65427 0.24903 0.69364
 O298 O 0.64090 0.20216 0.74103
 O299 O 0.69314 0.34171 0.75894
 O300 O 0.74485 0.35155 0.80233
 O301 O 0.74379 0.34884 0.70756
 O302 O 0.78604 0.35654 0.76401
 O303 O 0.65027 0.29518 0.74833
 O304 O 0.64006 0.23533 0.78711
 O305 O 0.70054 0.26126 0.65093
 O306 O 0.75361 0.21572 0.63736
 O307 O 0.74363 0.18361 0.84070
 O308 O 0.70142 0.23432 0.85563
 O309 O 0.84250 0.24848 0.80786
 O310 O 0.85286 0.29524 0.75858
 O311 O 0.80575 0.15231 0.73943
 O312 O 0.75506 0.14387 0.69560
 Zr313 Zr 0.75340 0.17957 0.74355
 O314 O 0.71808 0.21404 0.71051
 Zr315 Zr 0.81590 0.24840 0.75464
 O316 O 0.78392 0.28555 0.72115
 Zr317 Zr 0.74672 0.23797 0.81699
 O318 O 0.71199 0.27544 0.78698
 Zr319 Zr 0.75055 0.25515 0.68257
 O320 O 0.78661 0.21806 0.71251
 Zr321 Zr 0.68208 0.24518 0.74572
 O322 O 0.71382 0.20680 0.77855
 Zr323 Zr 0.74504 0.31382 0.75585
 O324 O 0.77983 0.27946 0.79007
 O325 O 0.78480 0.20825 0.78402
 O326 O 0.71270 0.28559 0.71566
 C327 C 0.74682 0.15045 0.82636
 C328 C 0.83947 0.16442 0.74416
 C329 C 0.83011 0.24340 0.84168
 C330 C 0.74940 0.34200 0.67227
 C331 C 0.66581 0.25681 0.66008
 C332 C 0.65936 0.32978 0.75460
 H333 H 0.70377 0.19817 0.69258
 H334 H 0.69519 0.28838 0.80507
 H335 H 0.80074 0.19122 0.79932
 H336 H 0.80107 0.30317 0.70789
 H337 H 0.81468 0.24335 0.65059
 H338 H 0.85338 0.26697 0.69462
 H339 H 0.64089 0.25641 0.80550
 H340 H 0.68261 0.21720 0.84409
 H341 H 0.73004 0.20087 0.63665
 H342 H 0.77165 0.15644 0.67689
 H343 H 0.72675 0.34162 0.82117
 H344 H 0.75965 0.29718 0.85748
 H345 H 0.69182 0.14258 0.75414
 H346 H 0.65013 0.18352 0.72239
 H347 H 0.84271 0.31205 0.77849
 H348 H 0.80356 0.35589 0.74225
 O349 O 0.24349 0.83278 0.81602
 O350 O 0.28319 0.85147 0.76404
 O351 O 0.14611 0.79363 0.74924
 O352 O 0.13528 0.74786 0.70658
 O353 O 0.18535 0.72817 0.84569
 O354 O 0.23871 0.68742 0.85489
 O355 O 0.24810 0.70166 0.64896
 O356 O 0.20575 0.75495 0.64347
 O357 O 0.34309 0.74933 0.70485
 O358 O 0.34983 0.78695 0.76475
 O359 O 0.29793 0.64681 0.74251
 O360 O 0.24168 0.62960 0.78159
 O361 O 0.25228 0.65180 0.68946
 O362 O 0.20513 0.63271 0.73778
 O363 O 0.34165 0.69282 0.75178
 O364 O 0.35057 0.74177 0.79876
 O365 O 0.30013 0.74936 0.65728
 O366 O 0.25633 0.79443 0.64685
 O367 O 0.23693 0.78258 0.85595
 O368 O 0.27839 0.73035 0.86311
 O369 O 0.14326 0.73676 0.79800
 O370 O 0.13849 0.69738 0.74104
 O371 O 0.18935 0.83867 0.76407
 O372 O 0.24185 0.85658 0.72416
 Zr373 Zr 0.24084 0.80955 0.76121
 O374 O 0.27812 0.78211 0.72397
 Zr375 Zr 0.17651 0.74275 0.74931
 O376 O 0.21114 0.71180 0.71224
 Zr377 Zr 0.23820 0.73561 0.81945
 O378 O 0.27618 0.70539 0.78528
 Zr379 Zr 0.24816 0.74898 0.68494
 O380 O 0.21053 0.78086 0.71865
 Zr381 Zr 0.31050 0.74311 0.75458
 O382 O 0.27580 0.77337 0.79265
 Zr383 Zr 0.24626 0.67567 0.74354
 O384 O 0.20780 0.70286 0.78036
 O385 O 0.20472 0.77375 0.79046
 O386 O 0.28252 0.71116 0.71381
 C387 C 0.24111 0.81801 0.84919
 C388 C 0.15555 0.82784 0.75714
 C389 C 0.15169 0.73058 0.83275
 C390 C 0.25162 0.66629 0.65616
 C391 C 0.33396 0.75031 0.66963
 C392 C 0.33198 0.65820 0.74662
 H393 H 0.29380 0.80109 0.71071
 H394 H 0.29107 0.68832 0.80150
 H395 H 0.18783 0.78769 0.80779
 H396 H 0.19541 0.69794 0.69383
 H397 H 0.18955 0.77618 0.65159
 H398 H 0.14643 0.73818 0.68285
 H399 H 0.34289 0.72164 0.81664
 H400 H 0.29852 0.74888 0.85741
 H401 H 0.24868 0.81747 0.66051
 H402 H 0.22144 0.85280 0.70551
 H403 H 0.26181 0.63222 0.80069
 H404 H 0.22220 0.66840 0.84278
 H405 H 0.30295 0.84146 0.78095
 H406 H 0.34702 0.80605 0.74449
 H407 H 0.14594 0.67708 0.75879
 H408 H 0.18804 0.64012 0.71703
 O409 O 0.25601 0.34291 0.70297
 O410 O 0.21342 0.34889 0.75529
 O411 O 0.34938 0.28576 0.75163
 O412 O 0.35821 0.23243 0.78572
 O413 O 0.30588 0.25034 0.64617
 O414 O 0.25266 0.21175 0.62824
 O415 O 0.23872 0.17460 0.83149
 O416 O 0.28651 0.21821 0.85013
 O417 O 0.15044 0.23775 0.79014
 O418 O 0.14325 0.28611 0.74061
 O419 O 0.19306 0.14475 0.72754
 O420 O 0.24743 0.13590 0.68602
 O421 O 0.24138 0.13546 0.78044
 O422 O 0.28625 0.12954 0.72665
 O423 O 0.15046 0.19186 0.73524
 O424 O 0.14335 0.25077 0.69622
 O425 O 0.19322 0.22761 0.83666
 O426 O 0.24693 0.26602 0.85584
 O427 O 0.25696 0.30394 0.65158
 O428 O 0.21223 0.25595 0.63277
 O429 O 0.34859 0.23965 0.69281
 O430 O 0.35319 0.18964 0.73998
 O431 O 0.30638 0.33279 0.75828
 O432 O 0.25282 0.34103 0.79831
 Zr433 Zr 0.25426 0.30600 0.74984
 O434 O 0.21597 0.27127 0.77906
 Zr435 Zr 0.31677 0.23676 0.74305
 O436 O 0.28126 0.19895 0.77251
 Zr437 Zr 0.25393 0.24931 0.67478
 O438 O 0.21573 0.21181 0.70088
 Zr439 Zr 0.24521 0.22905 0.80857
 O440 O 0.28411 0.26663 0.78292
 Zr441 Zr 0.18266 0.24148 0.74018
 O442 O 0.21788 0.27992 0.71076
 Zr443 Zr 0.24526 0.17219 0.73362
 O444 O 0.28376 0.20691 0.70362
 O445 O 0.28896 0.27783 0.71204
 O446 O 0.20998 0.20002 0.77156
 C447 C 0.25722 0.33674 0.66712
 C448 C 0.34024 0.32044 0.75738
 C449 C 0.33965 0.24563 0.65806
 C450 C 0.23834 0.14172 0.81613
 C451 C 0.15941 0.23193 0.82490
 C452 C 0.15927 0.15705 0.73020
 H453 H 0.20061 0.28716 0.79604
 H454 H 0.20023 0.19937 0.68130
 H455 H 0.30649 0.29519 0.69888
 H456 H 0.29645 0.18061 0.78698
 H457 H 0.30712 0.23656 0.84575
 H458 H 0.34916 0.21379 0.80455
 H459 H 0.14723 0.23120 0.67663
 H460 H 0.19309 0.27309 0.64356
 H461 H 0.22838 0.28634 0.85176
 H462 H 0.26857 0.32859 0.81770
 H463 H 0.23000 0.14595 0.66674
 H464 H 0.26952 0.19053 0.63473
 H465 H 0.19413 0.34381 0.73576
 H466 H 0.14907 0.30245 0.76256
 H467 H 0.34530 0.17450 0.71779
 H468 H 0.30314 0.13040 0.74885
 O469 O 0.74238 0.65138 0.70153
 O470 O 0.78507 0.63671 0.75300
 O471 O 0.64685 0.69522 0.75617
 O472 O 0.63376 0.74149 0.79759
 O473 O 0.69580 0.75492 0.66152
 O474 O 0.74954 0.79494 0.65474
 O475 O 0.74751 0.79148 0.86190
 O476 O 0.70061 0.74322 0.86816
 O477 O 0.84117 0.74274 0.81489
 O478 O 0.85333 0.70205 0.75937
 O479 O 0.79928 0.84150 0.77240
 O480 O 0.74825 0.85709 0.72584
 O481 O 0.74512 0.83932 0.81886
 O482 O 0.70661 0.85557 0.76419
 O483 O 0.84325 0.79553 0.76650
 O484 O 0.85430 0.74341 0.72052
 O485 O 0.79506 0.73919 0.85951
 O486 O 0.74176 0.69663 0.86730
 O487 O 0.74742 0.69991 0.65932
 O488 O 0.78983 0.75220 0.65274
 O489 O 0.64969 0.74970 0.70605
 O490 O 0.64049 0.79179 0.76051
 O491 O 0.69102 0.64894 0.75594
 O492 O 0.74338 0.63381 0.79495
 Zr493 Zr 0.74254 0.67821 0.75487
 O494 O 0.77757 0.70742 0.79300
 Zr495 Zr 0.67820 0.74568 0.75791
 O496 O 0.71027 0.77785 0.79637
 Zr497 Zr 0.74577 0.74896 0.69282
 O498 O 0.78089 0.78127 0.72821
 Zr499 Zr 0.74503 0.74221 0.82833
 O500 O 0.70938 0.70937 0.79321
 Zr501 Zr 0.81229 0.74505 0.76297
 O502 O 0.78041 0.71249 0.72428
 Zr503 Zr 0.74778 0.81262 0.76604
 O504 O 0.71247 0.78371 0.72748
 O505 O 0.70935 0.71255 0.72112
 O506 O 0.78153 0.77874 0.80006
 C507 C 0.74508 0.66464 0.66769
 C508 C 0.65680 0.66033 0.75615
 C509 C 0.66120 0.75375 0.67180
 C510 C 0.74634 0.82665 0.85285
 C511 C 0.82960 0.74058 0.84928
 C512 C 0.83348 0.83013 0.77101
 H513 H 0.79244 0.68902 0.80767
 H514 H 0.79718 0.79768 0.71253
 H515 H 0.69312 0.69773 0.70386
 H516 H 0.69335 0.79258 0.81291
 H517 H 0.68101 0.72578 0.85857
 H518 H 0.64100 0.75629 0.82019
 H519 H 0.85053 0.76540 0.70364
 H520 H 0.80900 0.73367 0.66079
 H521 H 0.76117 0.67791 0.86046
 H522 H 0.72680 0.64169 0.81603
 H523 H 0.77085 0.85424 0.70979
 H524 H 0.73378 0.81530 0.66547
 H525 H 0.80473 0.64644 0.73566
 H526 H 0.84638 0.68192 0.77754
 H527 H 0.64861 0.81025 0.74104
 H528 H 0.68641 0.84844 0.78211
 O529 O 0.24981 0.65296 0.30046
 O530 O 0.21088 0.64436 0.24551
 O531 O 0.34879 0.70349 0.25257
 O532 O 0.36262 0.75495 0.21761
 O533 O 0.29926 0.75082 0.35334
 O534 O 0.24556 0.78920 0.36489
 O535 O 0.25507 0.81160 0.15892
 O536 O 0.29606 0.76194 0.14624
 O537 O 0.15564 0.75453 0.19858
 O538 O 0.14293 0.70982 0.25024
 O539 O 0.19685 0.84993 0.25787
 O540 O 0.25046 0.85983 0.30201
 O541 O 0.24784 0.85405 0.20678
 O542 O 0.28930 0.86440 0.26113
 O543 O 0.15309 0.80367 0.24994
 O544 O 0.14128 0.74794 0.29206
 O545 O 0.20143 0.76362 0.15457
 O546 O 0.25335 0.71812 0.14184
 O547 O 0.24935 0.69610 0.34837
 O548 O 0.20496 0.74616 0.36036
 O549 O 0.34608 0.75074 0.30938
 O550 O 0.35570 0.79985 0.26066
 O551 O 0.30463 0.65712 0.24751
 O552 O 0.25368 0.64739 0.20524
 Zr553 Zr 0.25317 0.68610 0.25080
 O554 O 0.21862 0.71976 0.21629
 Zr555 Zr 0.31784 0.75370 0.25708
 O556 O 0.28617 0.79022 0.22256
 Zr557 Zr 0.24977 0.74872 0.32107
 O558 O 0.21505 0.78508 0.28975
 Zr559 Zr 0.25163 0.75882 0.18596
 O560 O 0.28686 0.72205 0.21721
 Zr561 Zr 0.18395 0.75327 0.25052
 O562 O 0.21528 0.71625 0.28513
 Zr563 Zr 0.24844 0.82108 0.25638
 O564 O 0.28342 0.78773 0.29148
 O565 O 0.28617 0.71600 0.28890
 O566 O 0.21495 0.79155 0.21809
 C567 C 0.24892 0.66207 0.33574
 C568 C 0.33884 0.66874 0.24884
 C569 C 0.33403 0.75041 0.34371
 C570 C 0.25212 0.84543 0.17172
 C571 C 0.16683 0.76007 0.16447
 C572 C 0.16288 0.83834 0.25397
 H573 H 0.20373 0.70331 0.19938
 H574 H 0.19876 0.79932 0.30732
 H575 H 0.30200 0.69904 0.30437
 H576 H 0.30342 0.80688 0.20824
 H577 H 0.31550 0.74391 0.15479
 H578 H 0.35501 0.77156 0.19645
 H579 H 0.14466 0.76851 0.31071
 H580 H 0.18616 0.72850 0.34966
 H581 H 0.23103 0.70155 0.14404
 H582 H 0.26920 0.65911 0.18509
 H583 H 0.22941 0.85380 0.31933
 H584 H 0.26264 0.81024 0.35797
 H585 H 0.19054 0.65149 0.26324
 H586 H 0.14944 0.69197 0.22973
 H587 H 0.34687 0.81613 0.28164
 H588 H 0.30941 0.85908 0.24257
 O589 O 0.75638 0.34813 0.30906
 O590 O 0.79645 0.36651 0.25809
 O591 O 0.65909 0.31038 0.24161
 O592 O 0.64722 0.26511 0.19943
 O593 O 0.69712 0.24344 0.33833
 O594 O 0.74949 0.20310 0.34829
 O595 O 0.76391 0.21748 0.14189
 O596 O 0.71961 0.26905 0.13554
 O597 O 0.85559 0.26061 0.19920
 O598 O 0.86305 0.29978 0.25829
 O599 O 0.80838 0.16161 0.23378
 O600 O 0.75227 0.14472 0.27366
 O601 O 0.75939 0.16704 0.18172
 O602 O 0.71524 0.14884 0.23109
 O603 O 0.85247 0.20630 0.24679
 O604 O 0.86156 0.25556 0.29345
 O605 O 0.81399 0.26966 0.15134
 O606 O 0.76539 0.31098 0.13970
 O607 O 0.74785 0.29799 0.34871
 O608 O 0.79013 0.24529 0.35583
 O609 O 0.65518 0.25349 0.29083
 O610 O 0.65022 0.21408 0.23333
 O611 O 0.70292 0.35484 0.25666
 O612 O 0.75551 0.37115 0.21643
 Zr613 Zr 0.75391 0.32488 0.25435
 O614 O 0.79139 0.29703 0.21775
 Zr615 Zr 0.68861 0.25910 0.24191
 O616 O 0.72319 0.22829 0.20464
 Zr617 Zr 0.74978 0.25089 0.31234
 O618 O 0.78715 0.21982 0.27837
 Zr619 Zr 0.76138 0.26491 0.17787
 O620 O 0.72357 0.29668 0.21156
 Zr621 Zr 0.82240 0.25707 0.24846
 O622 O 0.78806 0.28815 0.28606
 Zr623 Zr 0.75711 0.19110 0.23599
 O624 O 0.71908 0.21868 0.27295
 O625 O 0.71701 0.28957 0.28324
 O626 O 0.79454 0.22601 0.20683
 C627 C 0.75266 0.33339 0.34212
 C628 C 0.66902 0.34437 0.24971
 C629 C 0.66354 0.24642 0.32551
 C630 C 0.76213 0.18183 0.14866
 C631 C 0.84749 0.26636 0.16423
 C632 C 0.84239 0.17220 0.23981
 H633 H 0.80786 0.31588 0.20538
 H634 H 0.80151 0.20236 0.29466
 H635 H 0.70009 0.30365 0.30041
 H636 H 0.70740 0.21488 0.18593
 H637 H 0.70130 0.28819 0.14430
 H638 H 0.65747 0.25408 0.17588
 H639 H 0.85340 0.23548 0.31118
 H640 H 0.80945 0.26496 0.35120
 H641 H 0.77498 0.33290 0.15409
 H642 H 0.73697 0.36570 0.19627
 H643 H 0.77304 0.14637 0.29215
 H644 H 0.73456 0.18343 0.33518
 H645 H 0.81681 0.35535 0.27347
 H646 H 0.86151 0.31837 0.23741
 H647 H 0.65571 0.19468 0.25275
 H648 H 0.69614 0.15827 0.21316
 C649 C 0.21588 0.08926 0.08851
 C650 C 0.24365 0.08529 0.06073
 C651 C 0.27201 0.11320 0.05893
 C652 C 0.27437 0.14155 0.08693
 C653 C 0.24929 0.14147 0.11784
 C654 C 0.21888 0.11641 0.11661
 C655 C 0.20289 0.09078 0.14614
 C656 C 0.19961 0.06088 0.11532
 H657 H 0.29315 0.11221 0.03688
 H658 H 0.29712 0.16191 0.08572
 H659 H 0.17524 0.10081 0.15671
 H660 H 0.22354 0.08338 0.16852
 H661 H 0.17005 0.05366 0.10823
 H662 H 0.21835 0.03620 0.11982
 C663 C 0.71323 0.58548 0.60391
 C664 C 0.74156 0.58423 0.57645
 C665 C 0.76857 0.61347 0.57638
 C666 C 0.76909 0.64060 0.60558
 C667 C 0.74351 0.63800 0.63595
 C668 C 0.71444 0.61150 0.63322
 C669 C 0.69978 0.58366 0.66139
 C670 C 0.69840 0.55505 0.62925
 H671 H 0.78994 0.61462 0.55455
 H672 H 0.79074 0.66218 0.60556
 H673 H 0.67152 0.59158 0.67215
 H674 H 0.72072 0.57651 0.68356
 H675 H 0.66935 0.54648 0.62155
 H676 H 0.71848 0.53130 0.63281
 C677 C 0.72484 0.92731 0.11159
 C678 C 0.75802 0.93860 0.09320
 C679 C 0.79229 0.92478 0.10794
 C680 C 0.79233 0.89699 0.13658
 C681 C 0.75825 0.88293 0.15109
 C682 C 0.72502 0.90034 0.14003
 C683 C 0.68890 0.88325 0.12719
 C684 C 0.68862 0.91275 0.09586
 H685 H 0.81892 0.93362 0.09596
 H686 H 0.81876 0.88517 0.14595
 H687 H 0.66605 0.88718 0.14829
 H688 H 0.69228 0.85387 0.11656
 H689 H 0.66551 0.93357 0.09887
 H690 H 0.69184 0.90045 0.06705
 C691 C 0.23158 0.42164 0.60905
 C692 C 0.26205 0.42491 0.58405
 C693 C 0.29421 0.40303 0.59176
 C694 C 0.29332 0.37517 0.62029
 C695 C 0.26065 0.36945 0.64206
 C696 C 0.23107 0.39481 0.63772
 C697 C 0.19011 0.38734 0.63291
 C698 C 0.19062 0.41668 0.60141
 H699 H 0.31908 0.40565 0.57426
 H700 H 0.31741 0.35698 0.62415
 H701 H 0.17360 0.39630 0.65807
 H702 H 0.18412 0.35820 0.62272
 H703 H 0.17432 0.44248 0.60841
 H704 H 0.18495 0.40451 0.57294
 C705 C 0.71650 0.08897 0.90770
 C706 C 0.74745 0.06531 0.91269
 C707 C 0.77503 0.06485 0.88394
 C708 C 0.77342 0.09092 0.85369
 C709 C 0.74485 0.11839 0.85257
 C710 C 0.71558 0.11533 0.87880
 C711 C 0.69704 0.14425 0.90322
 C712 C 0.69792 0.11521 0.93498
 H713 H 0.79859 0.04567 0.88575
 H714 H 0.79600 0.09160 0.83311
 H715 H 0.66815 0.15089 0.89345
 H716 H 0.71521 0.16921 0.90891
 H717 H 0.66954 0.10507 0.94341
 H718 H 0.71656 0.12337 0.95888
 C719 C 0.26912 0.60821 0.42515
 C720 C 0.25296 0.57286 0.41835
 C721 C 0.23063 0.56852 0.38570
 C722 C 0.22899 0.59756 0.35837
 C723 C 0.24847 0.63181 0.36417
 C724 C 0.26657 0.63713 0.39889
 C725 C 0.30553 0.65063 0.40692
 C726 C 0.30835 0.61875 0.43570
 H727 H 0.21590 0.54219 0.38056
 H728 H 0.21311 0.59306 0.33262
 H729 H 0.30582 0.67918 0.42006
 H730 H 0.32473 0.64722 0.38228
 H731 H 0.31030 0.62895 0.46541
 H732 H 0.32913 0.59675 0.42771
 C733 C 0.21400 0.88118 0.93010
 C734 C 0.24572 0.90448 0.93405
 C735 C 0.27875 0.89310 0.91490
 C736 C 0.27767 0.86345 0.88834
 C737 C 0.24408 0.84359 0.88158
 C738 C 0.21346 0.85090 0.90518
 C739 C 0.17301 0.85664 0.89608
 C740 C 0.17373 0.89025 0.92293
 H741 H 0.30469 0.90886 0.91800
 H742 H 0.30248 0.85744 0.87163
 H743 H 0.15540 0.83297 0.90685
 H744 H 0.16826 0.86451 0.86599
 H745 H 0.15602 0.88600 0.94854
 H746 H 0.17000 0.91782 0.90828
 C747 C 0.72422 0.38780 0.42909
 C748 C 0.75168 0.41621 0.43078
 C749 C 0.78306 0.41288 0.40660
 C750 C 0.78402 0.38491 0.37837
 C751 C 0.75422 0.35901 0.37461
 C752 C 0.72574 0.35946 0.40189
 C753 C 0.68416 0.35947 0.39674
 C754 C 0.68249 0.39054 0.42645
 H755 H 0.80573 0.43332 0.40784
 H756 H 0.80725 0.38447 0.35852
 H757 H 0.67106 0.33252 0.40629
 H758 H 0.67563 0.36908 0.36802
 H759 H 0.66839 0.38147 0.45307
 H760 H 0.67299 0.41815 0.41490
 C761 C 0.09297 0.22631 0.09069
 C762 C 0.08685 0.25630 0.06559
 C763 C 0.10832 0.28958 0.07068
 C764 C 0.13718 0.29098 0.09799
 C765 C 0.14451 0.25937 0.12094
 C766 C 0.12088 0.22797 0.11796
 C767 C 0.13115 0.18747 0.11241
 C768 C 0.10056 0.18562 0.08254
 H769 H 0.10348 0.31411 0.05302
 H770 H 0.15386 0.31646 0.10097
 H771 H 0.12489 0.16997 0.13780
 H772 H 0.15992 0.18390 0.10066
 H773 H 0.07661 0.16713 0.09081
 H774 H 0.11155 0.18097 0.05341
 C775 C 0.57969 0.72528 0.61107
 C776 C 0.57710 0.75476 0.58475
 C777 C 0.60056 0.78659 0.58998
 C778 C 0.62835 0.78659 0.61838
 C779 C 0.63231 0.75521 0.64252
 C780 C 0.60637 0.72572 0.63959
 C781 C 0.61344 0.68430 0.63603
 C782 C 0.58417 0.68379 0.60479
 H783 H 0.59849 0.81072 0.57123
 H784 H 0.64703 0.81065 0.62109
 H785 H 0.60456 0.66842 0.66167
 H786 H 0.64230 0.67787 0.62585
 H787 H 0.55842 0.66771 0.61256
 H788 H 0.59604 0.67706 0.57644
 C789 C 0.06708 0.75946 0.88816
 C790 C 0.06708 0.73488 0.91929
 C791 C 0.09120 0.70320 0.91716
 C792 C 0.11858 0.70078 0.88827
 C793 C 0.12039 0.72847 0.85963
 C794 C 0.09182 0.75537 0.85835
 C795 C 0.09300 0.79691 0.85098
 C796 C 0.06625 0.80147 0.88444
 H797 H 0.09134 0.68218 0.93949
 H798 H 0.13912 0.67830 0.88917
 H799 H 0.07997 0.80430 0.82337
 H800 H 0.12129 0.80923 0.85554
 H801 H 0.03809 0.81200 0.87607
 H802 H 0.07931 0.81609 0.90901
 C803 C 0.57430 0.26676 0.37868
 C804 C 0.57792 0.24447 0.41121
 C805 C 0.60697 0.21750 0.41188
 C806 C 0.63444 0.21704 0.38316
 C807 C 0.63247 0.24257 0.35260
 C808 C 0.60062 0.26540 0.34973
 C809 C 0.59763 0.30681 0.34224
 C810 C 0.56899 0.30837 0.37423
 H811 H 0.60981 0.19843 0.43571
 H812 H 0.65792 0.19781 0.38561
 H813 H 0.58532 0.31282 0.31396
 H814 H 0.62407 0.32234 0.34851
 H815 H 0.54025 0.31550 0.36437
 H816 H 0.57898 0.32465 0.39922
 C817 C 0.90008 0.78899 0.08796
 C818 C 0.92961 0.76308 0.08902
 C819 C 0.93310 0.74020 0.12153
 C820 C 0.90525 0.74055 0.14990
 C821 C 0.87278 0.76277 0.14556
 C822 C 0.87203 0.78845 0.11532
 C823 C 0.84209 0.79688 0.08704
 C824 C 0.87283 0.79751 0.05704
 H825 H 0.95649 0.72090 0.12422
 H826 H 0.90794 0.72161 0.17385
 H827 H 0.82912 0.82501 0.09185
 H828 H 0.82189 0.77313 0.08345
 H829 H 0.87752 0.82602 0.04460
 H830 H 0.87042 0.77417 0.03608
 C831 C 0.39753 0.27752 0.57378
 C832 C 0.42889 0.25394 0.57563
 C833 C 0.43295 0.23082 0.60785
 C834 C 0.40437 0.22895 0.63542
 C835 C 0.37062 0.24908 0.63051
 C836 C 0.36877 0.27469 0.60028
 C837 C 0.33916 0.28019 0.57091
 C838 C 0.37066 0.28362 0.54198
 H839 H 0.45763 0.21331 0.61110
 H840 H 0.40782 0.21015 0.65938
 H841 H 0.32345 0.30695 0.57495
 H842 H 0.32137 0.25463 0.56682
 H843 H 0.37326 0.31248 0.52979
 H844 H 0.37100 0.26024 0.52093
 C845 C 0.90650 0.27927 0.90570
 C846 C 0.91624 0.24731 0.92702
 C847 C 0.89266 0.21517 0.92387
 C848 C 0.86306 0.21438 0.89728
 C849 C 0.85735 0.24517 0.87268
 C850 C 0.87817 0.27802 0.87895
 C851 C 0.89908 0.30287 0.85202
 C852 C 0.93028 0.30436 0.88132
 H853 H 0.89770 0.19026 0.94094
 H854 H 0.84631 0.18894 0.89432
 H855 H 0.88491 0.33050 0.84782
 H856 H 0.90738 0.28801 0.82557
 H857 H 0.93411 0.33288 0.89395
 H858 H 0.95660 0.29040 0.87183
 C859 C 0.38521 0.76718 0.43546
 C860 C 0.41800 0.74601 0.43089
 C861 C 0.42017 0.72150 0.39954
 C862 C 0.39256 0.72264 0.37105
 C863 C 0.36178 0.74738 0.37419
 C864 C 0.35738 0.76732 0.40806
 C865 C 0.34917 0.80819 0.41433
 C866 C 0.37978 0.80800 0.44434
 H867 H 0.44427 0.70326 0.39588
 H868 H 0.39575 0.70500 0.34621
 H869 H 0.32061 0.81260 0.42624
 H870 H 0.35614 0.82596 0.38927
 H871 H 0.36884 0.81234 0.47352
 H872 H 0.40454 0.82565 0.43663
 C873 C 0.10996 0.08372 0.26713
 C874 C 0.07890 0.08468 0.24309
 C875 C 0.07360 0.11718 0.22064
 C876 C 0.10096 0.14614 0.22008
 C877 C 0.13451 0.14221 0.24086
 C878 C 0.13747 0.11141 0.26545
 C879 C 0.16840 0.08357 0.27062
 C880 C 0.13824 0.05317 0.27248
 H881 H 0.04866 0.11996 0.20337
 H882 H 0.09674 0.17055 0.20208
 H883 H 0.18339 0.08764 0.29791
 H884 H 0.18677 0.08111 0.24524
 H885 H 0.13588 0.03976 0.30087
 H886 H 0.13917 0.03324 0.24815
 C887 C 0.60510 0.56838 0.77329
 C888 C 0.57173 0.57328 0.75321
 C889 C 0.56413 0.60933 0.73822
 C890 C 0.59130 0.63837 0.74036
 C891 C 0.62689 0.63140 0.75646
 C892 C 0.63231 0.59646 0.77422
 C893 C 0.66358 0.56865 0.77109
 C894 C 0.63373 0.53783 0.77002
 H895 H 0.53742 0.61492 0.72475
 H896 H 0.58503 0.66566 0.72806
 H897 H 0.68107 0.56783 0.79712
 H898 H 0.67951 0.57136 0.74413
 H899 H 0.63407 0.51924 0.79542
 H900 H 0.63233 0.52272 0.74244
 C901 C 0.90160 0.08294 0.71490
 C902 C 0.92352 0.07705 0.74735
 C903 C 0.92107 0.10438 0.77650
 C904 C 0.89511 0.13423 0.77426
 C905 C 0.87002 0.13664 0.74362
 C906 C 0.87499 0.11155 0.71346
 C907 C 0.84734 0.08746 0.69288
 C908 C 0.87636 0.05607 0.69435
 H909 H 0.93866 0.10244 0.80143
 H910 H 0.89302 0.15394 0.79764
 H911 H 0.84197 0.09795 0.66371
 H912 H 0.82179 0.08122 0.70995
 H913 H 0.88764 0.04846 0.66600
 H914 H 0.86760 0.03165 0.71220
 C915 C 0.39279 0.57988 0.22461
 C916 C 0.42457 0.58307 0.24757
 C917 C 0.43046 0.61734 0.26695
 C918 C 0.40319 0.64601 0.26600
 C919 C 0.36900 0.64043 0.24663
 C920 C 0.36527 0.60762 0.22475
 C921 C 0.33425 0.57921 0.22301
 C922 C 0.36436 0.54883 0.22277
 H923 H 0.45576 0.62162 0.28341
 H924 H 0.40798 0.67160 0.28211
 H925 H 0.31838 0.58090 0.19598
 H926 H 0.31668 0.57887 0.24908
 H927 H 0.36583 0.53306 0.19559
 H928 H 0.36419 0.53087 0.24864
 C929 C 0.10041 0.91496 0.78506
 C930 C 0.06920 0.91310 0.76114
 C931 C 0.06394 0.87988 0.73977
 C932 C 0.09142 0.85136 0.73955
 C933 C 0.12524 0.85606 0.75978
 C934 C 0.12807 0.88737 0.78394
 C935 C 0.15882 0.91579 0.78849
 C936 C 0.12853 0.94595 0.78991
 H937 H 0.03918 0.87652 0.72230
 H938 H 0.08711 0.82675 0.72185
 H939 H 0.17710 0.91795 0.76300
 H940 H 0.17401 0.91250 0.81575
 H941 H 0.12933 0.96567 0.76537
 H942 H 0.12614 0.95975 0.81809
 C943 C 0.57908 0.39686 0.23161
 C944 C 0.58226 0.42864 0.25488
 C945 C 0.61224 0.42982 0.28086
 C946 C 0.64079 0.40231 0.27940
 C947 C 0.63904 0.37264 0.25274
 C948 C 0.60646 0.36922 0.23100
 C949 C 0.60206 0.36310 0.18941
 C950 C 0.57199 0.39354 0.19011
 H951 H 0.61468 0.45299 0.30075
 H952 H 0.66448 0.40467 0.29846
 H953 H 0.59075 0.33452 0.18287
 H954 H 0.62754 0.37134 0.17308
 H955 H 0.54339 0.38247 0.18397
 H956 H 0.58009 0.41945 0.17419
 C957 C 0.91017 0.91742 0.29314
 C958 C 0.92812 0.92528 0.25855
 C959 C 0.92072 0.90070 0.22788
 C960 C 0.89384 0.87170 0.23126
 C961 C 0.87303 0.86736 0.26486
 C962 C 0.88291 0.88938 0.29607
 C963 C 0.85898 0.91241 0.32182
 C964 C 0.88872 0.94321 0.31874
 H965 H 0.93505 0.90422 0.20101
 H966 H 0.88783 0.85404 0.20693
 H967 H 0.85696 0.89988 0.35063
 H968 H 0.83172 0.92034 0.30879
 H969 H 0.90374 0.94845 0.34581
 H970 H 0.87869 0.96905 0.30398
 C971 C 0.39427 0.40755 0.78719
 C972 C 0.42326 0.40880 0.76048
 C973 C 0.42872 0.37676 0.73744
 C974 C 0.40296 0.34644 0.73840
 C975 C 0.37074 0.34824 0.76160
 C976 C 0.36814 0.37839 0.78713
 C977 C 0.33645 0.40441 0.79611
 C978 C 0.36511 0.43638 0.79627
 H979 H 0.45213 0.37570 0.71785
 H980 H 0.40675 0.32305 0.71900
 H981 H 0.32415 0.39869 0.82451
 H982 H 0.31579 0.40676 0.77265
 H983 H 0.36934 0.44904 0.82476
 H984 H 0.36102 0.45704 0.77293
 C985 C 0.10864 0.21971 0.91845
 C986 C 0.07228 0.23145 0.90993
 C987 C 0.06321 0.23877 0.87190
 C988 C 0.09123 0.23752 0.84371
 C989 C 0.12892 0.22969 0.85330
 C990 C 0.13647 0.21936 0.89088
 C991 C 0.16506 0.23486 0.91780
 C992 C 0.13468 0.23456 0.94800
 H993 H 0.03497 0.24712 0.86430
 H994 H 0.08372 0.24477 0.81491
 H995 H 0.17454 0.26381 0.90996
 H996 H 0.18807 0.21468 0.92384
 H997 H 0.12689 0.26328 0.95805
 H998 H 0.13977 0.21353 0.97082
 C999 C 0.57183 0.77309 0.39315
 C1000 C 0.57343 0.74748 0.42336
 C1001 C 0.60118 0.71918 0.42193
 C1002 C 0.62930 0.72019 0.39384
 C1003 C 0.62951 0.74880 0.36609
 C1004 C 0.59888 0.77334 0.36481
 C1005 C 0.59815 0.81540 0.36173
 C1006 C 0.56857 0.81513 0.39288
 H1007 H 0.60249 0.69766 0.44372
 H1008 H 0.65141 0.69935 0.39445
 H1009 H 0.58711 0.82497 0.33392
 H1010 H 0.62510 0.82874 0.37046
 H1011 H 0.54053 0.82462 0.38299
 H1012 H 0.57843 0.82828 0.41970
 C1013 C 0.90175 0.77762 0.91700
 C1014 C 0.91544 0.74497 0.93480
 C1015 C 0.89634 0.71060 0.92738
 C1016 C 0.86739 0.70904 0.90010
 C1017 C 0.85770 0.74154 0.87935
 C1018 C 0.87378 0.77585 0.88995
 C1019 C 0.89090 0.80646 0.86653
 C1020 C 0.92185 0.80848 0.89612
 H1021 H 0.90443 0.68476 0.94161
 H1022 H 0.85392 0.68225 0.89398
 H1023 H 0.87307 0.83219 0.86574
 H1024 H 0.90080 0.79629 0.83845
 H1025 H 0.92193 0.83548 0.91220
 H1026 H 0.94973 0.79945 0.88522
 C1027 C 0.39012 0.26267 0.42175
 C1028 C 0.42306 0.24153 0.41837
 C1029 C 0.42597 0.21650 0.38745
 C1030 C 0.39876 0.21686 0.35838
 C1031 C 0.36759 0.24126 0.36059
 C1032 C 0.36272 0.26195 0.39395
 C1033 C 0.35398 0.30285 0.39917
 C1034 C 0.38425 0.30370 0.42949
 H1035 H 0.45038 0.19858 0.38450
 H1036 H 0.40260 0.19893 0.33384
 H1037 H 0.32530 0.30707 0.41077
 H1038 H 0.36092 0.32019 0.37379
 H1039 H 0.37288 0.30879 0.45834
 H1040 H 0.40891 0.32138 0.42157
 C1041 C 0.07502 0.74482 0.11406
 C1042 C 0.08085 0.76108 0.07849
 C1043 C 0.11389 0.78256 0.07310
 C1044 C 0.14229 0.78281 0.10111
 C1045 C 0.13737 0.76257 0.13528
 C1046 C 0.10226 0.74600 0.14185
 C1047 C 0.09234 0.70740 0.15588
 C1048 C 0.06239 0.70613 0.12523
 H1049 H 0.11866 0.79725 0.04660
 H1050 H 0.16824 0.79791 0.09566
 H1051 H 0.08048 0.70807 0.18502
 H1052 H 0.11532 0.68665 0.15146
 H1053 H 0.03331 0.70605 0.13672
 H1054 H 0.06806 0.68461 0.10302
 C1055 C 0.57431 0.24512 0.60787
 C1056 C 0.58115 0.26189 0.57271
 C1057 C 0.61464 0.28292 0.56848
 C1058 C 0.64249 0.28208 0.59707
 C1059 C 0.63665 0.26107 0.63066
 C1060 C 0.60103 0.24518 0.63620
 C1061 C 0.58984 0.20665 0.64945
 C1062 C 0.56046 0.20662 0.61819
 H1063 H 0.62029 0.29788 0.54230
 H1064 H 0.66883 0.29673 0.59239
 H1065 H 0.57744 0.20720 0.67836
 H1066 H 0.61235 0.18537 0.64515
 H1067 H 0.53119 0.20715 0.62914
 H1068 H 0.56600 0.18527 0.59579
 C1069 C 0.90443 0.29188 0.07724
 C1070 C 0.93510 0.26757 0.08013
 C1071 C 0.93999 0.24763 0.11431
 C1072 C 0.91241 0.24907 0.14291
 C1073 C 0.87889 0.26938 0.13717
 C1074 C 0.87663 0.29227 0.10483
 C1075 C 0.84614 0.29645 0.07616
 C1076 C 0.87662 0.29616 0.04595
 H1077 H 0.96415 0.22953 0.11813
 H1078 H 0.91605 0.23200 0.16811
 H1079 H 0.83161 0.32410 0.07856
 H1080 H 0.82729 0.27135 0.07482
 H1081 H 0.87972 0.32368 0.03105
 H1082 H 0.87540 0.27098 0.02712
 C1083 C 0.38692 0.73601 0.57840
 C1084 C 0.42133 0.75381 0.58503
 C1085 C 0.42525 0.77499 0.61862
 C1086 C 0.39695 0.77392 0.64669
 C1087 C 0.36383 0.75275 0.64088
 C1088 C 0.35869 0.73593 0.60541
 C1089 C 0.34711 0.69650 0.59576
 C1090 C 0.37813 0.69663 0.56609
 H1091 H 0.45083 0.79074 0.62394
 H1092 H 0.40118 0.78908 0.67299
 H1093 H 0.31847 0.69531 0.58334
 H1094 H 0.35220 0.67632 0.61935
 H1095 H 0.36733 0.69561 0.53658
 H1096 H 0.40114 0.67645 0.57247
 C1097 C 0.20291 0.07743 0.89355
 C1098 C 0.23472 0.05575 0.90153
 C1099 C 0.26454 0.05684 0.87509
 C1100 C 0.26432 0.08297 0.84493
 C1101 C 0.23470 0.10890 0.84129
 C1102 C 0.20312 0.10374 0.86437
 C1103 C 0.18060 0.13139 0.88656
 C1104 C 0.18032 0.10264 0.91863
 H1105 H 0.28900 0.03919 0.87903
 H1106 H 0.28869 0.08511 0.82666
 H1107 H 0.15242 0.13616 0.87397
 H1108 H 0.19681 0.15733 0.89335
 H1109 H 0.15194 0.09083 0.92449
 H1110 H 0.19613 0.11215 0.94406
 C1111 C 0.76481 0.57413 0.38957
 C1112 C 0.74140 0.57604 0.42135
 C1113 C 0.72098 0.60946 0.42735
 C1114 C 0.72201 0.63881 0.40046
 C1115 C 0.74241 0.63474 0.36643
 C1116 C 0.76478 0.60255 0.36238
 C1117 C 0.76735 0.57503 0.33052
 C1118 C 0.76737 0.54389 0.36021
 H1119 H 0.70450 0.61299 0.45292
 H1120 H 0.70614 0.66424 0.40586
 H1121 H 0.79441 0.57751 0.31497
 H1122 H 0.74187 0.57485 0.31240
 H1123 H 0.79442 0.52839 0.36170
 H1124 H 0.74190 0.52563 0.35930
 C1125 C 0.72699 0.11117 0.07800
 C1126 C 0.76001 0.09390 0.06503
 C1127 C 0.79442 0.11178 0.07447
 C1128 C 0.79526 0.14248 0.10006
 C1129 C 0.76179 0.15594 0.11635
 C1130 C 0.72791 0.14127 0.10303
 C1131 C 0.69405 0.12769 0.12398
 C1132 C 0.69292 0.09462 0.09652
 H1133 H 0.82081 0.10077 0.06403
 H1134 H 0.82207 0.15389 0.10902
 H1135 H 0.66987 0.14721 0.12080
 H1136 H 0.70041 0.11902 0.15354
 H1137 H 0.66807 0.09510 0.07753
 H1138 H 0.69858 0.06692 0.11026
 C1139 C 0.22910 0.60770 0.57036
 C1140 C 0.25864 0.58166 0.56981
 C1141 C 0.28945 0.58854 0.59394
 C1142 C 0.28781 0.61736 0.62129
 C1143 C 0.25591 0.64049 0.62416
 C1144 C 0.22798 0.63682 0.59667
 C1145 C 0.18645 0.63351 0.60131
 C1146 C 0.18767 0.60154 0.57254
 H1147 H 0.31373 0.57021 0.59339
 H1148 H 0.31071 0.62057 0.64119
 H1149 H 0.17159 0.65899 0.59075
 H1150 H 0.17813 0.62409 0.63020
 H1151 H 0.17343 0.60861 0.54547
 H1152 H 0.18009 0.57356 0.58479
 C1153 C 0.77838 0.88806 0.93387
 C1154 C 0.74958 0.91479 0.93649
 C1155 C 0.72054 0.91329 0.90950
 C1156 C 0.71928 0.88409 0.88259
 C1157 C 0.74630 0.85515 0.88291
 C1158 C 0.77661 0.85863 0.90780
 C1159 C 0.79177 0.83078 0.93554
 C1160 C 0.79383 0.86293 0.96399
 H1161 H 0.69893 0.93475 0.90909
 H1162 H 0.69678 0.88367 0.86199
 H1163 H 0.81983 0.82016 0.92705
 H1164 H 0.77100 0.80854 0.94329
 H1165 H 0.82309 0.87074 0.97173
 H1166 H 0.77431 0.85936 0.98836
 C1167 C 0.26083 0.37829 0.42929
 C1168 C 0.26254 0.41687 0.42122
 C1169 C 0.26844 0.42799 0.38345
 C1170 C 0.26783 0.40107 0.35418
 C1171 C 0.26220 0.36235 0.36223
 C1172 C 0.26065 0.35165 0.40044
 C1173 C 0.23306 0.32717 0.42091
 C1174 C 0.23329 0.35642 0.45249
 H1175 H 0.27177 0.45763 0.37643
 H1176 H 0.27055 0.41083 0.32524
 H1177 H 0.24553 0.29971 0.42949
 H1178 H 0.20567 0.32505 0.40596
 H1179 H 0.24591 0.34579 0.47921
 H1180 H 0.20605 0.37132 0.45588
 C1181 C 0.22867 0.93319 0.11635
 C1182 C 0.25350 0.93121 0.08559
 C1183 C 0.28242 0.90416 0.08725
 C1184 C 0.28266 0.87663 0.11605
 C1185 C 0.25476 0.87654 0.14438
 C1186 C 0.22975 0.90688 0.14550
 C1187 C 0.18805 0.90693 0.14987
 C1188 C 0.18686 0.93573 0.11783
 H1189 H 0.30308 0.90244 0.06478
 H1190 H 0.30363 0.85455 0.11529
 H1191 H 0.17911 0.91873 0.17762
 H1192 H 0.17504 0.87930 0.14238
 H1193 H 0.17721 0.96409 0.12717
 H1194 H 0.17316 0.92471 0.09179
 C1195 C 0.72382 0.42911 0.61710
 C1196 C 0.75150 0.43008 0.58885
 C1197 C 0.78236 0.40556 0.59273
 C1198 C 0.78230 0.37743 0.62090
 C1199 C 0.75203 0.37425 0.64642
 C1200 C 0.72439 0.40214 0.64566
 C1201 C 0.68265 0.39819 0.64559
 C1202 C 0.68201 0.42774 0.61427
 H1203 H 0.80519 0.40634 0.57244
 H1204 H 0.80505 0.35720 0.62174
 H1205 H 0.66986 0.40819 0.67251
 H1206 H 0.67319 0.36974 0.63609
 H1207 H 0.66887 0.45477 0.62318
 H1208 H 0.67209 0.41637 0.58667
 C1209 C 0.06784 0.10819 0.75203
 C1210 C 0.07202 0.07273 0.73520
 C1211 C 0.10272 0.06751 0.71053
 C1212 C 0.13104 0.09545 0.70763
 C1213 C 0.12823 0.12950 0.72827
 C1214 C 0.09491 0.13607 0.74818
 C1215 C 0.08894 0.14987 0.78769
 C1216 C 0.05931 0.11909 0.79196
 H1217 H 0.10613 0.04099 0.69564
 H1218 H 0.15568 0.08983 0.69055
 H1219 H 0.07694 0.17879 0.78814
 H1220 H 0.11390 0.14566 0.80609
 H1221 H 0.03038 0.13037 0.79514
 H1222 H 0.06723 0.09689 0.81274
 C1223 C 0.60174 0.59284 0.28189
 C1224 C 0.57639 0.58878 0.25195
 C1225 C 0.57618 0.61701 0.22370
 C1226 C 0.60335 0.64614 0.22392
 C1227 C 0.63177 0.64659 0.25162
 C1228 C 0.62910 0.62072 0.28142
 C1229 C 0.65790 0.59531 0.29836
 C1230 C 0.62786 0.56465 0.29899
 H1231 H 0.55564 0.61609 0.20113
 H1232 H 0.60340 0.66696 0.20140
 H1233 H 0.66657 0.60470 0.32710
 H1234 H 0.68135 0.58909 0.27852
 H1235 H 0.61918 0.55644 0.32813
 H1236 H 0.63396 0.54062 0.27967
 C1237 C 0.10240 0.92049 0.28342
 C1238 C 0.07745 0.92388 0.25305
 C1239 C 0.07769 0.89524 0.22527
 C1240 C 0.10482 0.86641 0.22627
 C1241 C 0.13281 0.86646 0.25438
 C1242 C 0.12980 0.89271 0.28377
 C1243 C 0.15852 0.91857 0.30034
 C1244 C 0.12861 0.94911 0.29985
 H1245 H 0.05753 0.89564 0.20234
 H1246 H 0.10518 0.84538 0.20397
 H1247 H 0.18226 0.92439 0.28066
 H1248 H 0.16676 0.90989 0.32941
 H1249 H 0.13503 0.97230 0.27968
 H1250 H 0.11980 0.95829 0.32862
 C1251 C 0.56897 0.38171 0.73606
 C1252 C 0.57283 0.41449 0.75787
 C1253 C 0.60317 0.41641 0.78334
 C1254 C 0.63133 0.38849 0.78278
 C1255 C 0.62883 0.35752 0.75772
 C1256 C 0.59597 0.35358 0.73646
 C1257 C 0.59102 0.34556 0.69525
 C1258 C 0.56154 0.37660 0.69478
 H1259 H 0.60625 0.44050 0.80202
 H1260 H 0.65546 0.39165 0.80115
 H1261 H 0.57912 0.31692 0.69018
 H1262 H 0.61646 0.35244 0.67828
 H1263 H 0.53270 0.36583 0.68931
 H1264 H 0.57003 0.40160 0.67764
 C1265 C 0.89883 0.08571 0.21367
 C1266 C 0.92686 0.08548 0.24141
 C1267 C 0.92996 0.11726 0.26521
 C1268 C 0.90317 0.14632 0.26360
 C1269 C 0.87218 0.14358 0.23894
 C1270 C 0.87175 0.11381 0.21287
 C1271 C 0.84133 0.08665 0.20251
 C1272 C 0.87099 0.05580 0.20336
 H1273 H 0.95255 0.11921 0.28564
 H1274 H 0.90555 0.16980 0.28313
 H1275 H 0.83008 0.09211 0.17366
 H1276 H 0.81976 0.08352 0.22512
 H1277 H 0.87677 0.04349 0.17499
 H1278 H 0.86661 0.03480 0.22641
 C1279 C 0.38728 0.56993 0.72271
 C1280 C 0.41804 0.57245 0.74719
 C1281 C 0.42288 0.60620 0.76775
 C1282 C 0.39555 0.63488 0.76634
 C1283 C 0.36227 0.62983 0.74529
 C1284 C 0.35968 0.59763 0.72232
 C1285 C 0.32888 0.56920 0.71842
 C1286 C 0.35905 0.53892 0.71868
 H1287 H 0.44736 0.61007 0.78552
 H1288 H 0.39953 0.66001 0.78338
 H1289 H 0.31415 0.57143 0.69081
 H1290 H 0.31020 0.56810 0.74367
 H1291 H 0.36179 0.52392 0.69116
 H1292 H 0.35777 0.52029 0.74401
 C1293 C 0.88617 0.92094 0.79317
 C1294 C 0.91978 0.91585 0.77334
 C1295 C 0.92735 0.87972 0.75861
 C1296 C 0.89992 0.85106 0.75986
 C1297 C 0.86391 0.85835 0.77482
 C1298 C 0.85862 0.89298 0.79341
 C1299 C 0.82769 0.92120 0.79061
 C1300 C 0.85784 0.95180 0.79036
 H1301 H 0.95381 0.87422 0.74449
 H1302 H 0.90607 0.82418 0.74662
 H1303 H 0.80992 0.92162 0.81653
 H1304 H 0.81202 0.91920 0.76346
 H1305 H 0.85739 0.96981 0.81614
 H1306 H 0.85963 0.96750 0.76311
 C1307 C 0.40749 0.41376 0.28422
 C1308 C 0.43221 0.41970 0.25397
 C1309 C 0.43315 0.39212 0.22510
 C1310 C 0.40680 0.36229 0.22468
 C1311 C 0.37853 0.36023 0.25253
 C1312 C 0.38095 0.38504 0.28324
 C1313 C 0.35191 0.40872 0.30210
 C1314 C 0.38095 0.44035 0.30312
 H1315 H 0.45331 0.39435 0.20219
 H1316 H 0.40694 0.34248 0.20130
 H1317 H 0.34462 0.39775 0.33069
 H1318 H 0.32767 0.41501 0.28335
 H1319 H 0.39007 0.44770 0.33230
 H1320 H 0.37358 0.46487 0.28490
   
