data_POSCAR
  _audit_creation_date              2014-09-24
  _audit_creation_method            'ToBaCCo'
  _symmetry_space_group_name_H-M    'P1'
  _symmetry_Int_Tables_number       1
  _symmetry_cell_setting            triclinic
  loop_
  _symmetry_equiv_pos_as_xyz
 x,y,z
_cell_length_a 70.7893
_cell_length_b 70.7622
_cell_length_c 70.7819
_cell_angle_alpha 89.999200
_cell_angle_beta 90.004600
_cell_angle_gamma 90.081700
loop_
  _atom_site_label
  _atom_site_type_symbol
  _atom_site_fract_x
  _atom_site_fract_y
  _atom_site_fract_z
C1 C 0.09857 0.01336 0.22884
 H2 H 0.09827 0.02438 0.23942
 C3 C 0.08795 0.01524 0.21230
 H4 H 0.07933 0.02769 0.21015
 C5 C 0.11079 -0.01600 0.21827
 H6 H 0.12007 -0.02790 0.22037
 C7 C 0.10040 -0.01468 0.20157
 H8 H 0.10156 -0.02568 0.19099
 N9 N 0.10969 -0.00210 0.23151
 C10 C 0.12086 -0.00563 0.29198
 H11 H 0.13612 -0.00632 0.29155
 C12 C 0.11143 -0.00691 0.30923
 H13 H 0.11944 -0.00851 0.32218
 C14 C 0.09174 -0.00300 0.27557
 H15 H 0.08415 -0.00176 0.26239
 C16 C 0.08174 -0.00424 0.29257
 H17 H 0.06645 -0.00377 0.29248
 Zn18 Zn 0.12536 -0.00282 0.25316
 N19 N 0.11097 -0.00356 0.27563
 C20 C 0.13958 0.03209 0.26680
 N21 N 0.14055 0.01919 0.25257
 C22 C 0.15120 0.02245 0.23689
 C23 C 0.16146 0.03924 0.23510
 C24 C 0.14961 0.04904 0.26559
 C25 C 0.13071 -0.04156 0.25489
 C26 C 0.14046 -0.05866 0.25534
 C27 C 0.16978 -0.04133 0.25220
 C28 C 0.15943 -0.02450 0.25181
 N29 N 0.14024 -0.02497 0.25297
 H30 H 0.13066 0.02951 0.27891
 H31 H 0.15142 0.01212 0.22562
 H32 H 0.16972 0.04185 0.22248
 H33 H 0.14856 0.05934 0.27686
 H34 H 0.11548 -0.04146 0.25607
 H35 H 0.13265 -0.07178 0.25680
 H36 H 0.18506 -0.04083 0.25122
 H37 H 0.16674 -0.01114 0.25069
 C38 C 0.09171 -0.00620 0.30953
 C39 C 0.08898 0.00112 0.19851
 C40 C 0.16018 -0.05857 0.25396
 C41 C 0.16055 0.05269 0.24955
 C42 C 0.40088 0.01771 0.77316
 H43 H 0.40162 0.02901 0.76288
 C44 C 0.41086 0.01917 0.79014
 H45 H 0.41943 0.03155 0.79294
 C46 C 0.38823 -0.01191 0.78249
 H47 H 0.37902 -0.02376 0.77973
 C48 C 0.39796 -0.01102 0.79961
 H49 H 0.39639 -0.02230 0.80984
 N50 N 0.38986 0.00232 0.76965
 C51 C 0.38079 -0.00003 0.70877
 H52 H 0.36554 -0.00105 0.70875
 C53 C 0.39070 -0.00063 0.69176
 H54 H 0.38308 -0.00207 0.67856
 C55 C 0.40938 0.00289 0.72604
 H56 H 0.41658 0.00403 0.73945
 C57 C 0.41987 0.00234 0.70929
 H58 H 0.43514 0.00320 0.70981
 Zn59 Zn 0.37501 0.00202 0.74740
 N60 N 0.39018 0.00189 0.72543
 C61 C 0.36132 0.03708 0.73386
 N62 N 0.35972 0.02394 0.74782
 C63 C 0.34837 0.02691 0.76306
 C64 C 0.33800 0.04364 0.76463
 C65 C 0.35119 0.05395 0.73487
 C66 C 0.36997 -0.03671 0.74453
 C67 C 0.36037 -0.05389 0.74350
 C68 C 0.33086 -0.03696 0.74623
 C69 C 0.34104 -0.02002 0.74722
 N70 N 0.36026 -0.02025 0.74656
 H71 H 0.37078 0.03474 0.72213
 H72 H 0.34767 0.01642 0.77415
 H73 H 0.32917 0.04601 0.77689
 H74 H 0.35273 0.06442 0.72380
 H75 H 0.38523 -0.03642 0.74378
 H76 H 0.36824 -0.06693 0.74202
 H77 H 0.31557 -0.03675 0.74687
 H78 H 0.33358 -0.00677 0.74845
 C79 C 0.41040 0.00060 0.69201
 C80 C 0.40928 0.00470 0.80352
 C81 C 0.34065 -0.05403 0.74441
 C82 C 0.33953 0.05731 0.75043
 C83 C 0.90066 0.51741 0.27367
 H84 H 0.90145 0.52874 0.26344
 C85 C 0.91066 0.51875 0.29066
 H86 H 0.91928 0.53110 0.29346
 C87 C 0.88788 0.48780 0.28288
 H88 H 0.87862 0.47600 0.28006
 C89 C 0.89762 0.48857 0.30000
 H90 H 0.89597 0.47721 0.31014
 N91 N 0.88957 0.50209 0.27010
 C92 C 0.88062 0.49996 0.20920
 H93 H 0.86536 0.49900 0.20915
 C94 C 0.89055 0.49934 0.19220
 H95 H 0.88294 0.49797 0.17899
 C96 C 0.90919 0.50271 0.22652
 H97 H 0.91637 0.50378 0.23994
 C98 C 0.91970 0.50214 0.20978
 H99 H 0.93497 0.50293 0.21033
 Zn100 Zn 0.87477 0.50190 0.24782
 N101 N 0.88999 0.50180 0.22588
 C102 C 0.86126 0.53706 0.23435
 N103 N 0.85954 0.52388 0.24826
 C104 C 0.84812 0.52684 0.26344
 C105 C 0.83780 0.54361 0.26501
 C106 C 0.85120 0.55397 0.23537
 C107 C 0.86969 0.46322 0.24476
 C108 C 0.86010 0.44604 0.24360
 C109 C 0.83058 0.46295 0.24635
 C110 C 0.84076 0.47988 0.24747
 N111 N 0.85998 0.47966 0.24685
 H112 H 0.87078 0.53473 0.22267
 H113 H 0.84731 0.51630 0.27449
 H114 H 0.82891 0.54597 0.27724
 H115 H 0.85285 0.56447 0.22435
 H116 H 0.88496 0.46351 0.24405
 H117 H 0.86799 0.43301 0.24206
 H118 H 0.81529 0.46316 0.24695
 H119 H 0.83330 0.49313 0.24875
 C120 C 0.91025 0.50047 0.19249
 C121 C 0.90903 0.50422 0.30399
 C122 C 0.84039 0.44589 0.24445
 C123 C 0.83946 0.55732 0.25088
 C124 C 0.59818 0.51449 0.72925
 H125 H 0.59770 0.52552 0.73982
 C126 C 0.58756 0.51621 0.71268
 H127 H 0.57877 0.52853 0.71050
 C128 C 0.61080 0.48528 0.71874
 H129 H 0.62023 0.47350 0.72088
 C130 C 0.60043 0.48644 0.70202
 H131 H 0.60175 0.47543 0.69146
 N132 N 0.60949 0.49919 0.73197
 C133 C 0.62051 0.49571 0.79246
 H134 H 0.63578 0.49516 0.79206
 C135 C 0.61106 0.49431 0.80969
 H136 H 0.61906 0.49276 0.82265
 C137 C 0.59140 0.49810 0.77600
 H138 H 0.58382 0.49930 0.76281
 C139 C 0.58138 0.49674 0.79298
 H140 H 0.56608 0.49707 0.79286
 Zn141 Zn 0.62509 0.49862 0.75367
 N142 N 0.61063 0.49772 0.77610
 C143 C 0.63896 0.53361 0.76744
 N144 N 0.64009 0.52077 0.75317
 C145 C 0.65082 0.52413 0.73757
 C146 C 0.66104 0.54096 0.73592
 C147 C 0.64895 0.55060 0.76636
 C148 C 0.63077 0.45993 0.75542
 C149 C 0.64067 0.44292 0.75585
 C150 C 0.66983 0.46049 0.75274
 C151 C 0.65935 0.47723 0.75237
 N152 N 0.64016 0.47661 0.75353
 H153 H 0.62998 0.53095 0.77948
 H154 H 0.65116 0.51384 0.72627
 H155 H 0.66938 0.54363 0.72337
 H156 H 0.64780 0.56085 0.77768
 H157 H 0.61553 0.45990 0.75658
 H158 H 0.63305 0.42971 0.75727
 H159 H 0.68509 0.46102 0.75176
 H160 H 0.66656 0.49065 0.75128
 C161 C 0.59134 0.49483 0.80996
 C162 C 0.58880 0.50209 0.69891
 C163 C 0.66036 0.44320 0.75446
 C164 C 0.66000 0.55434 0.75043
 C165 C 0.27346 0.09960 0.98226
 H166 H 0.26284 0.09921 0.97127
 C167 C 0.29011 0.08920 0.98026
 H168 H 0.29231 0.08065 0.96776
 C169 C 0.28395 0.11177 1.01168
 H170 H 0.28176 0.12093 1.02367
 C171 C 0.30076 0.10160 1.01025
 H172 H 0.31134 0.10279 1.02125
 N173 N 0.27068 0.11057 0.99781
 C174 C 0.21008 0.12049 1.00184
 H175 H 0.21026 0.13575 1.00273
 C176 C 0.19301 0.11073 1.00310
 H177 H 0.17994 0.11848 1.00489
 C178 C 0.22696 0.09171 0.99870
 H179 H 0.24026 0.08437 0.99728
 C180 C 0.21014 0.08138 0.99992
 H181 H 0.21049 0.06609 0.99924
 Zn182 Zn 0.24876 0.12579 0.99885
 N183 N 0.22658 0.11093 0.99952
 C184 C 0.23460 0.14007 0.96424
 N185 N 0.24889 0.14125 0.97705
 C186 C 0.26429 0.15235 0.97384
 C187 C 0.26570 0.16286 0.95718
 C188 C 0.23544 0.15035 0.94743
 C189 C 0.24710 0.13059 1.03764
 C190 C 0.24649 0.14009 1.05488
 C191 C 0.24897 0.16972 1.03800
 C192 C 0.24954 0.15961 1.02102
 N193 N 0.24877 0.14039 1.02120
 H194 H 0.22273 0.13081 0.96677
 H195 H 0.27562 0.15273 0.98408
 H196 H 0.27810 0.17148 0.95460
 H197 H 0.22412 0.14913 0.93720
 H198 H 0.24624 0.11533 1.03731
 H199 H 0.24522 0.13206 1.06788
 H200 H 0.24963 0.18503 1.03773
 H201 H 0.25046 0.16713 1.00777
 C202 C 0.19304 0.09101 1.00212
 C203 C 0.30390 0.09030 0.99436
 C204 C 0.24745 0.15984 1.05509
 C205 C 0.25117 0.16175 0.94383
 C206 C 0.72639 0.39959 0.98428
 H207 H 0.73665 0.40049 0.97298
 C208 C 0.70927 0.40934 0.98285
 H209 H 0.70637 0.41789 0.97049
 C210 C 0.71724 0.38681 1.01388
 H211 H 0.72013 0.37764 1.02572
 C212 C 0.70000 0.39630 1.01302
 H213 H 0.68981 0.39459 1.02431
 N214 N 0.73005 0.38863 0.99965
 C215 C 0.79108 0.38060 1.00208
 H216 H 0.79132 0.36535 1.00315
 C217 C 0.80793 0.39079 1.00270
 H218 H 0.82124 0.38339 1.00418
 C219 C 0.77339 0.40890 0.99906
 H220 H 0.75988 0.41587 0.99789
 C221 C 0.78998 0.41967 0.99962
 H222 H 0.78923 0.43493 0.99872
 Zn223 Zn 0.75254 0.37415 1.00001
 N224 N 0.77428 0.38971 1.00011
 C225 C 0.76634 0.36054 0.96501
 N226 N 0.75239 0.35873 0.97813
 C227 C 0.73737 0.34706 0.97518
 C228 C 0.73601 0.33659 0.95848
 C229 C 0.76553 0.35032 0.94816
 C230 C 0.75548 0.36943 1.03873
 C231 C 0.75660 0.36002 1.05599
 C232 C 0.75423 0.33028 1.03928
 C233 C 0.75316 0.34031 1.02227
 N234 N 0.75359 0.35955 1.02235
 H235 H 0.77789 0.37024 0.96732
 H236 H 0.72629 0.34619 0.98566
 H237 H 0.72391 0.32751 0.95611
 H238 H 0.77657 0.35204 0.93770
 H239 H 0.75604 0.38471 1.03832
 H240 H 0.75796 0.36812 1.06893
 H241 H 0.75376 0.31497 1.03909
 H242 H 0.75203 0.33273 1.00907
 C243 C 0.80739 0.41049 1.00142
 C244 C 0.69594 0.40758 0.99733
 C245 C 0.75591 0.34026 1.05631
 C246 C 0.75019 0.33834 0.94481
 C247 C 0.22673 0.90000 0.48399
 H248 H 0.23694 0.90083 0.47264
 C249 C 0.20959 0.90970 0.48257
 H250 H 0.20662 0.91816 0.47017
 C251 C 0.21772 0.88737 0.51370
 H252 H 0.22066 0.87827 0.52558
 C253 C 0.20046 0.89683 0.51285
 H254 H 0.19031 0.89516 0.52419
 N255 N 0.23046 0.88912 0.49940
 C256 C 0.29147 0.88098 0.50149
 H257 H 0.29169 0.86573 0.50257
 C258 C 0.30834 0.89114 0.50202
 H259 H 0.32164 0.88372 0.50345
 C260 C 0.27382 0.90931 0.49854
 H261 H 0.26031 0.91630 0.49744
 C262 C 0.29043 0.92005 0.49903
 H263 H 0.28970 0.93531 0.49814
 Zn264 Zn 0.25291 0.87461 0.49968
 N265 N 0.27468 0.89012 0.49960
 C266 C 0.26643 0.86083 0.46464
 N267 N 0.25258 0.85912 0.47787
 C268 C 0.23749 0.84751 0.47507
 C269 C 0.23594 0.83701 0.45841
 C270 C 0.26544 0.85059 0.44782
 C271 C 0.25608 0.87000 0.53841
 C272 C 0.25730 0.86062 0.55568
 C273 C 0.25481 0.83087 0.53906
 C274 C 0.25363 0.84084 0.52203
 N275 N 0.25408 0.86008 0.52207
 H276 H 0.27804 0.87050 0.46684
 H277 H 0.22648 0.84671 0.48565
 H278 H 0.22377 0.82798 0.45616
 H279 H 0.27640 0.85224 0.43726
 H280 H 0.25664 0.88528 0.53797
 H281 H 0.25875 0.86866 0.56862
 H282 H 0.25434 0.81557 0.53901
 H283 H 0.25242 0.83322 0.50886
 C284 C 0.30783 0.91084 0.50076
 C285 C 0.19631 0.90800 0.49711
 C286 C 0.25661 0.84089 0.55602
 C287 C 0.25001 0.83867 0.44463
 C288 C 0.77319 0.59878 0.48258
 H289 H 0.76259 0.59835 0.47157
 C290 C 0.78986 0.58841 0.48062
 H291 H 0.79210 0.57984 0.46814
 C292 C 0.78363 0.61104 0.51198
 H293 H 0.78142 0.62025 0.52394
 C294 C 0.80047 0.60091 0.51059
 H295 H 0.81103 0.60216 0.52159
 N296 N 0.77038 0.60979 0.49809
 C297 C 0.70980 0.61992 0.50188
 H298 H 0.71003 0.63518 0.50271
 C299 C 0.69269 0.61023 0.50313
 H300 H 0.67965 0.61804 0.50485
 C301 C 0.72658 0.59106 0.49891
 H302 H 0.73985 0.58367 0.49755
 C303 C 0.70972 0.58079 0.50012
 H304 H 0.71001 0.56550 0.49951
 Zn305 Zn 0.74850 0.62507 0.49900
 N306 N 0.72627 0.61028 0.49965
 C307 C 0.73449 0.63934 0.46431
 N308 N 0.74876 0.64046 0.47716
 C309 C 0.76422 0.65147 0.47399
 C310 C 0.76571 0.66200 0.45735
 C311 C 0.73542 0.64963 0.44752
 C312 C 0.74675 0.63009 0.53778
 C313 C 0.74612 0.63972 0.55495
 C314 C 0.74866 0.66921 0.53788
 C315 C 0.74925 0.65900 0.52097
 N316 N 0.74847 0.63977 0.52127
 H317 H 0.72258 0.63013 0.46682
 H318 H 0.77552 0.65180 0.48427
 H319 H 0.77815 0.67057 0.45482
 H320 H 0.72412 0.64849 0.43726
 H321 H 0.74588 0.61482 0.53756
 H322 H 0.74483 0.63188 0.56803
 H323 H 0.74933 0.68450 0.53760
 H324 H 0.75020 0.66643 0.50767
 C325 C 0.69264 0.59051 0.50224
 C326 C 0.80365 0.58958 0.49473
 C327 C 0.74711 0.65944 0.55500
 C328 C 0.75121 0.66098 0.44397
 C329 C 0.01497 0.22832 0.09822
 H330 H 0.02641 0.23845 0.09754
 C331 C 0.01618 0.21135 0.08819
 H332 H 0.02853 0.20841 0.07965
 C333 C -0.01479 0.21934 0.11078
 H334 H -0.02660 0.22222 0.11998
 C335 C -0.01414 0.20223 0.10099
 H336 H -0.02557 0.19214 0.10251
 N337 N -0.00036 0.23199 0.10923
 C338 C -0.00169 0.29287 0.11845
 H339 H -0.00260 0.29289 0.13371
 C340 C -0.00217 0.30990 0.10856
 H341 H -0.00338 0.32309 0.11625
 C342 C 0.00072 0.27558 0.08983
 H343 H 0.00158 0.26216 0.08262
 C344 C 0.00028 0.29234 0.07935
 H345 H 0.00097 0.29177 0.06406
 Zn346 Zn -0.00029 0.25418 0.12415
 N347 N -0.00011 0.27619 0.10904
 C348 C 0.03502 0.26713 0.13790
 N349 N 0.02165 0.25337 0.13943
 C350 C 0.02436 0.23802 0.15070
 C351 C 0.04107 0.23612 0.16105
 C352 C 0.05189 0.26578 0.14800
 C353 C -0.03893 0.25760 0.12923
 C354 C -0.05607 0.25886 0.13884
 C355 C -0.03912 0.25581 0.16834
 C356 C -0.02224 0.25460 0.15814
 N357 N -0.02250 0.25531 0.13892
 H358 H 0.03288 0.27895 0.12850
 H359 H 0.01367 0.22710 0.15135
 H360 H 0.04324 0.22376 0.16981
 H361 H 0.06256 0.27668 0.14651
 H362 H -0.03867 0.25838 0.11396
 H363 H -0.06909 0.26054 0.13098
 H364 H -0.03888 0.25513 0.18362
 H365 H -0.00899 0.25317 0.16558
 C366 C -0.00116 0.30965 0.08883
 C367 C 0.00152 0.19815 0.08969
 C368 C -0.05618 0.25791 0.15855
 C369 C 0.05499 0.25009 0.15959
 C370 C 0.01589 0.77171 0.40119
 H371 H 0.02670 0.76093 0.40164
 C372 C 0.01803 0.78827 0.41176
 H373 H 0.03045 0.79023 0.42048
 C374 C -0.01317 0.78276 0.38871
 H375 H -0.02506 0.78083 0.37935
 C376 C -0.01158 0.79949 0.39903
 H377 H -0.02238 0.81025 0.39775
 N378 N 0.00045 0.76926 0.38998
 C379 C -0.00441 0.70880 0.37899
 H380 H -0.00521 0.70925 0.36373
 C381 C -0.00592 0.69155 0.38840
 H382 H -0.00780 0.67864 0.38039
 C383 C -0.00121 0.72512 0.40810
 H384 H 0.00038 0.73827 0.41569
 C385 C -0.00265 0.70812 0.41809
 H386 H -0.00201 0.70818 0.43338
 Zn387 Zn -0.00071 0.74753 0.37441
 N388 N -0.00193 0.72510 0.38887
 C389 C 0.03386 0.73304 0.36037
 N390 N 0.02131 0.74756 0.35924
 C391 C 0.02494 0.76306 0.34844
 C392 C 0.04176 0.76435 0.33817
 C393 C 0.05082 0.73377 0.35033
 C394 C -0.03948 0.74653 0.36902
 C395 C -0.05659 0.74639 0.35927
 C396 C -0.03924 0.74909 0.32994
 C397 C -0.02240 0.74919 0.34029
 N398 N -0.02286 0.74809 0.35949
 H399 H 0.03100 0.72109 0.36941
 H400 H 0.01490 0.77457 0.34810
 H401 H 0.04466 0.77683 0.32979
 H402 H 0.06083 0.72226 0.35151
 H403 H -0.03938 0.74540 0.38426
 H404 H -0.06971 0.74521 0.36708
 H405 H -0.03874 0.75002 0.31466
 H406 H -0.00903 0.75002 0.33299
 C407 C -0.00500 0.69120 0.40812
 C408 C 0.00420 0.80232 0.41056
 C409 C -0.05650 0.74771 0.33954
 C410 C 0.05485 0.74960 0.33923
 C411 C 0.51702 0.27194 0.90107
 H412 H 0.52790 0.26122 0.90148
 C413 C 0.51905 0.28848 0.91168
 H414 H 0.53146 0.29049 0.92041
 C415 C 0.48789 0.28284 0.88862
 H416 H 0.47601 0.28086 0.87927
 C417 C 0.48936 0.29954 0.89900
 H418 H 0.47850 0.31024 0.89776
 N419 N 0.50160 0.26942 0.88985
 C420 C 0.49708 0.20896 0.87878
 H421 H 0.49630 0.20941 0.86353
 C422 C 0.49565 0.19170 0.88819
 H423 H 0.49385 0.17878 0.88018
 C424 C 0.50015 0.22529 0.90790
 H425 H 0.50165 0.23845 0.91550
 C426 C 0.49878 0.20829 0.91789
 H427 H 0.49939 0.20834 0.93318
 Zn428 Zn 0.50056 0.24772 0.87424
 N429 N 0.49946 0.22527 0.88868
 C430 C 0.53522 0.23345 0.86021
 N431 N 0.52259 0.24790 0.85910
 C432 C 0.52615 0.26346 0.84835
 C433 C 0.54298 0.26487 0.83811
 C434 C 0.55218 0.23429 0.85019
 C435 C 0.46181 0.24650 0.86882
 C436 C 0.44471 0.24633 0.85905
 C437 C 0.46205 0.24925 0.82977
 C438 C 0.47889 0.24937 0.84012
 N439 N 0.47842 0.24819 0.85931
 H440 H 0.53241 0.22145 0.86920
 H441 H 0.51605 0.27491 0.84803
 H442 H 0.54583 0.27739 0.82977
 H443 H 0.56226 0.22284 0.85135
 H444 H 0.46189 0.24532 0.88406
 H445 H 0.43155 0.24507 0.86676
 H446 H 0.46246 0.25025 0.81450
 H447 H 0.49225 0.25031 0.83282
 C448 C 0.49653 0.19136 0.90791
 C449 C 0.50513 0.30244 0.91054
 C450 C 0.44482 0.24775 0.83936
 C451 C 0.55615 0.25019 0.83915
 C452 C 0.51522 0.72792 0.59951
 H453 H 0.52665 0.73807 0.59878
 C454 C 0.51640 0.71095 0.58947
 H455 H 0.52872 0.70802 0.58088
 C456 C 0.48552 0.71893 0.61219
 H457 H 0.47374 0.72181 0.62142
 C458 C 0.48614 0.70182 0.60239
 H459 H 0.47472 0.69173 0.60395
 N460 N 0.49992 0.73159 0.61056
 C461 C 0.49840 0.79251 0.61951
 H462 H 0.49750 0.79261 0.63477
 C463 C 0.49790 0.80948 0.60952
 H464 H 0.49668 0.82274 0.61709
 C465 C 0.50086 0.77508 0.59098
 H466 H 0.50175 0.76162 0.58383
 C467 C 0.50040 0.79179 0.58041
 H468 H 0.50110 0.79119 0.56514
 Zn469 Zn 0.49997 0.75384 0.62540
 N470 N 0.50003 0.77579 0.61018
 C471 C 0.53525 0.76701 0.63897
 N472 N 0.52195 0.75319 0.64062
 C473 C 0.52478 0.73793 0.65197
 C474 C 0.54153 0.73617 0.66228
 C475 C 0.55216 0.76581 0.64903
 C476 C 0.46133 0.75717 0.63052
 C477 C 0.44419 0.75833 0.64015
 C478 C 0.46116 0.75533 0.66963
 C479 C 0.47805 0.75422 0.65943
 N480 N 0.47778 0.75494 0.64021
 H481 H 0.53302 0.77876 0.62951
 H482 H 0.51415 0.72695 0.65272
 H483 H 0.54379 0.72387 0.67111
 H484 H 0.56276 0.77675 0.64745
 H485 H 0.46158 0.75795 0.61526
 H486 H 0.43115 0.75995 0.63229
 H487 H 0.46141 0.75463 0.68492
 H488 H 0.49131 0.75283 0.66686
 C489 C 0.49894 0.80913 0.58981
 C490 C 0.50175 0.69775 0.59103
 C491 C 0.44409 0.75735 0.65986
 C492 C 0.55537 0.75021 0.66070
 C493 C 0.90380 0.98309 0.72789
 H494 H 0.90462 0.97177 0.73813
 C495 C 0.91389 0.98216 0.71188
 H496 H 0.92293 0.97011 0.70922
 C497 C 0.89010 1.01268 0.71920
 H498 H 0.88049 1.02422 0.72168
 C499 C 0.90099 1.01230 0.70147
 H500 H 0.89939 1.02378 0.69145
 N501 N 0.89166 0.99901 0.73145
 C502 C 0.88092 1.00307 0.79309
 H503 H 0.86579 1.00520 0.79262
 C504 C 0.88991 1.00274 0.80968
 H505 H 0.88205 1.00466 0.82267
 C506 C 0.90947 0.99811 0.77573
 H507 H 0.91694 0.99617 0.76258
 C508 C 0.92000 0.99763 0.79378
 H509 H 0.93513 0.99527 0.79361
 Zn510 Zn 0.87639 0.99932 0.75351
 N511 N 0.89118 1.00023 0.77577
 C512 C 0.86327 0.96477 0.76855
 N513 N 0.86161 0.97693 0.75373
 C514 C 0.85040 0.97274 0.73866
 C515 C 0.84012 0.95583 0.73826
 C516 C 0.85326 0.94779 0.76871
 C517 C 0.87036 1.03799 0.75570
 C518 C 0.86056 1.05503 0.75472
 C519 C 0.83169 1.03747 0.74963
 C520 C 0.84207 1.02068 0.75073
 N521 N 0.86111 1.02128 0.75336
 H522 H 0.87260 0.96801 0.78016
 H523 H 0.84962 0.98245 0.72687
 H524 H 0.83130 0.95253 0.72619
 H525 H 0.85478 0.93818 0.78053
 H526 H 0.88549 1.03803 0.75792
 H527 H 0.86813 1.06827 0.75622
 H528 H 0.81660 1.03695 0.74718
 H529 H 0.83494 1.00726 0.74919
 C530 C 0.91053 0.99961 0.81008
 C531 C 0.91236 0.99762 0.69788
 C532 C 0.84110 1.05479 0.75144
 C533 C 0.84161 0.94325 0.75344
 C534 C 0.40110 0.48338 0.22860
 H535 H 0.40186 0.47205 0.23885
 C536 C 0.41182 0.48244 0.21201
 H537 H 0.42094 0.47043 0.20949
 C538 C 0.38786 0.51259 0.21896
 H539 H 0.37822 0.52412 0.22141
 C540 C 0.39830 0.51222 0.20226
 H541 H 0.39678 0.52356 0.19209
 N542 N 0.38950 0.49838 0.23182
 C543 C 0.37925 0.50239 0.29252
 H544 H 0.36408 0.50421 0.29213
 C545 C 0.38868 0.50217 0.30981
 H546 H 0.38077 0.50387 0.32281
 C547 C 0.40805 0.49761 0.27606
 H548 H 0.41552 0.49584 0.26288
 C549 C 0.41805 0.49729 0.29311
 H550 H 0.43321 0.49519 0.29303
 Zn551 Zn 0.37419 0.49877 0.25383
 N552 N 0.38894 0.49976 0.27612
 C553 C 0.36106 0.46416 0.26881
 N554 N 0.35939 0.47638 0.25405
 C555 C 0.34817 0.47225 0.23897
 C556 C 0.33788 0.45535 0.23852
 C557 C 0.35105 0.44719 0.26893
 C558 C 0.36820 0.53746 0.25568
 C559 C 0.35838 0.55450 0.25465
 C560 C 0.32948 0.53689 0.24992
 C561 C 0.33986 0.52011 0.25104
 N562 N 0.35893 0.52074 0.25353
 H563 H 0.37042 0.46733 0.28042
 H564 H 0.34738 0.48200 0.22722
 H565 H 0.32905 0.45209 0.22644
 H566 H 0.35259 0.43753 0.28070
 H567 H 0.38333 0.53752 0.25779
 H568 H 0.36595 0.56774 0.25602
 H569 H 0.31436 0.53636 0.24760
 H570 H 0.33272 0.50669 0.24967
 C571 C 0.40821 0.49937 0.31013
 C572 C 0.41036 0.49702 0.19873
 C573 C 0.33889 0.55423 0.25155
 C574 C 0.33938 0.44271 0.25365
 C575 C 0.59856 0.98795 0.27466
 H576 H 0.59693 0.97628 0.26491
 C577 C 0.58916 0.98795 0.29110
 H578 H 0.57986 0.97630 0.29462
 C579 C 0.61356 1.01741 0.28157
 H580 H 0.62337 1.02858 0.27819
 C581 C 0.60348 1.01804 0.29975
 H582 H 0.60584 1.02987 0.30921
 N583 N 0.61097 1.00338 0.26991
 C584 C 0.61727 1.00472 0.20857
 H585 H 0.63246 1.00625 0.20784
 C586 C 0.60666 1.00403 0.19198
 H587 H 0.61368 1.00506 0.17842
 C588 C 0.58959 1.00119 0.22714
 H589 H 0.58301 1.00011 0.24086
 C590 C 0.57842 1.00042 0.21084
 H591 H 0.56326 0.99866 0.21205
 Zn592 Zn 0.62487 1.00262 0.24698
 N593 N 0.60869 1.00293 0.22568
 C594 C 0.63669 0.96733 0.23254
 N595 N 0.63935 0.98006 0.24673
 C596 C 0.65153 0.97644 0.26117
 C597 C 0.66189 0.95961 0.26148
 C598 C 0.64674 0.95040 0.23231
 C599 C 0.63133 1.04112 0.24316
 C600 C 0.64141 1.05806 0.24324
 C601 C 0.67027 1.04022 0.24708
 C602 C 0.65961 1.02356 0.24691
 N603 N 0.64045 1.02436 0.24540
 H604 H 0.62660 0.97011 0.22147
 H605 H 0.65310 0.98659 0.27250
 H606 H 0.67155 0.95681 0.27301
 H607 H 0.64448 0.94037 0.22096
 H608 H 0.61610 1.04131 0.24185
 H609 H 0.63391 1.07134 0.24193
 H610 H 0.68547 1.03951 0.24874
 H611 H 0.66661 1.01010 0.24836
 C612 C 0.58709 1.00164 0.19311
 C613 C 0.59176 1.00391 0.30437
 C614 C 0.66103 1.05764 0.24548
 C615 C 0.65946 0.94650 0.24687
 C616 C 0.09842 0.48834 0.77381
 H617 H 0.09674 0.47668 0.76406
 C618 C 0.08854 0.48840 0.79094
 H619 H 0.07915 0.47681 0.79439
 C620 C 0.11307 0.51748 0.78159
 H621 H 0.12292 0.52862 0.77819
 C622 C 0.10350 0.51809 0.79879
 H623 H 0.10588 0.52977 0.80839
 N624 N 0.11027 0.50286 0.76939
 C625 C 0.11673 0.50450 0.70805
 H626 H 0.13193 0.50598 0.70740
 C627 C 0.10620 0.50390 0.69141
 H628 H 0.11328 0.50496 0.67789
 C629 C 0.08895 0.50099 0.72648
 H630 H 0.08230 0.49988 0.74016
 C631 C 0.07785 0.50031 0.71012
 H632 H 0.06269 0.49858 0.71125
 Zn633 Zn 0.12418 0.50216 0.74647
 N634 N 0.10806 0.50268 0.72511
 C635 C 0.13593 0.46692 0.73184
 N636 N 0.13857 0.47955 0.74612
 C637 C 0.15070 0.47581 0.76057
 C638 C 0.16104 0.45897 0.76079
 C639 C 0.14595 0.44997 0.73152
 C640 C 0.13084 0.54066 0.74297
 C641 C 0.14103 0.55753 0.74318
 C642 C 0.16977 0.53950 0.74687
 C643 C 0.15902 0.52290 0.74657
 N644 N 0.13986 0.52382 0.74507
 H645 H 0.12587 0.46978 0.72076
 H646 H 0.15227 0.48589 0.77196
 H647 H 0.17067 0.45608 0.77233
 H648 H 0.14371 0.44002 0.72010
 H649 H 0.11561 0.54095 0.74166
 H650 H 0.13366 0.57089 0.74198
 H651 H 0.18496 0.53874 0.74852
 H652 H 0.16595 0.50939 0.74791
 C653 C 0.08662 0.50156 0.69244
 C654 C 0.09113 0.50345 0.80352
 C655 C 0.16063 0.55697 0.74541
 C656 C 0.15863 0.44596 0.74609
 C657 C 0.77363 0.90272 0.01322
 H658 H 0.76342 0.90387 0.02454
 C659 C 0.79035 0.91329 0.01387
 H660 H 0.79300 0.92269 0.02565
 C661 C 0.78305 0.88864 -0.01568
 H662 H 0.78047 0.87873 -0.02697
 C663 C 0.79987 0.89892 -0.01558
 H664 H 0.81000 0.89701 -0.02690
 N665 N 0.77024 0.89078 -0.00149
 C666 C 0.70944 0.88117 -0.00525
 H667 H 0.70965 0.86596 -0.00679
 C668 C 0.69226 0.89078 -0.00519
 H669 H 0.67917 0.88297 -0.00673
 C670 C 0.72625 0.90989 -0.00101
 H671 H 0.73952 0.91725 0.00062
 C672 C 0.70932 0.92008 -0.00085
 H673 H 0.70958 0.93527 0.00098
 Zn674 Zn 0.74803 0.87573 -0.00153
 N675 N 0.72595 0.89073 -0.00281
 C676 C 0.73289 0.86353 0.03331
 N677 N 0.74762 0.86141 0.02113
 C678 C 0.76252 0.85005 0.02546
 C679 C 0.76281 0.84006 0.04252
 C680 C 0.73261 0.85381 0.05045
 C681 C 0.74602 0.86897 -0.04005
 C682 C 0.74689 0.85881 -0.05690
 C683 C 0.75127 0.83019 -0.03877
 C684 C 0.75031 0.84093 -0.02219
 N685 N 0.74808 0.86001 -0.02317
 H686 H 0.72143 0.87299 0.02998
 H687 H 0.77425 0.84892 0.01573
 H688 H 0.77473 0.83110 0.04592
 H689 H 0.72086 0.85569 0.06007
 H690 H 0.74412 0.88413 -0.04039
 H691 H 0.74561 0.86613 -0.07028
 H692 H 0.75339 0.81506 -0.03796
 H693 H 0.75161 0.83404 -0.00864
 C694 C 0.69218 0.91037 -0.00274
 C695 C 0.80357 0.91133 -0.00069
 C696 C 0.74975 0.83928 -0.05627
 C697 C 0.74769 0.84199 0.05511
 C698 C 0.27330 0.40178 0.51262
 H699 H 0.26304 0.40281 0.52390
 C700 C 0.28998 0.41239 0.51342
 H701 H 0.29255 0.42171 0.52529
 C702 C 0.28288 0.38798 0.48363
 H703 H 0.28036 0.37816 0.47225
 C704 C 0.29966 0.39830 0.48389
 H705 H 0.30984 0.39653 0.47259
 N706 N 0.27000 0.38996 0.49779
 C707 C 0.20923 0.38030 0.49372
 H708 H 0.20946 0.36510 0.49208
 C709 C 0.19204 0.38989 0.49382
 H710 H 0.17897 0.38208 0.49220
 C711 C 0.22600 0.40901 0.49823
 H712 H 0.23925 0.41637 0.49995
 C713 C 0.20906 0.41917 0.49843
 H714 H 0.20930 0.43435 0.50038
 Zn715 Zn 0.24782 0.37488 0.49754
 N716 N 0.22572 0.38986 0.49629
 C717 C 0.23256 0.36247 0.53227
 N718 N 0.24733 0.36041 0.52011
 C719 C 0.26222 0.34903 0.52443
 C720 C 0.26246 0.33898 0.54147
 C721 C 0.23225 0.35271 0.54937
 C722 C 0.24597 0.36840 0.45896
 C723 C 0.24683 0.35835 0.44205
 C724 C 0.25109 0.32960 0.45998
 C725 C 0.25014 0.34022 0.47663
 N726 N 0.24796 0.35931 0.47579
 H727 H 0.22112 0.37196 0.52894
 H728 H 0.27397 0.34793 0.51473
 H729 H 0.27439 0.33003 0.54488
 H730 H 0.22048 0.35456 0.55897
 H731 H 0.24409 0.38357 0.45873
 H732 H 0.24558 0.36577 0.42872
 H733 H 0.25315 0.31445 0.46069
 H734 H 0.25138 0.33323 0.49014
 C735 C 0.19194 0.40946 0.49642
 C736 C 0.30327 0.41060 0.49890
 C737 C 0.24961 0.33881 0.44254
 C738 C 0.24732 0.34089 0.55404
 C739 C 0.22539 0.59765 0.01251
 H740 H 0.23512 0.59585 0.02416
 C741 C 0.20821 0.58783 0.01236
 H742 H 0.20476 0.57835 0.02389
 C743 C 0.21769 0.61258 -0.01647
 H744 H 0.22113 0.62252 -0.02750
 C745 C 0.20043 0.60307 -0.01718
 H746 H 0.19087 0.60563 -0.02886
 N747 N 0.22986 0.60962 -0.00188
 C748 C 0.29122 0.61612 -0.00331
 H749 H 0.29188 0.63134 -0.00463
 C750 C 0.30785 0.60559 -0.00276
 H751 H 0.32138 0.61270 -0.00369
 C752 C 0.27276 0.58829 -0.00014
 H753 H 0.25907 0.58162 0.00087
 C754 C 0.28911 0.57720 0.00049
 H755 H 0.28796 0.56201 0.00206
 Zn756 Zn 0.25280 0.62354 -0.00096
 N757 N 0.27414 0.60743 -0.00163
 C758 C 0.26735 0.63485 0.03448
 N759 N 0.25312 0.63766 0.02184
 C760 C 0.23866 0.64973 0.02571
 C761 C 0.23838 0.65983 0.04272
 C762 C 0.26761 0.64464 0.05157
 C763 C 0.25637 0.63066 -0.03936
 C764 C 0.25622 0.64106 -0.05609
 C765 C 0.25254 0.66959 -0.03769
 C766 C 0.25278 0.65863 -0.02124
 N767 N 0.25425 0.63948 -0.02241
 H768 H 0.27843 0.62484 0.03149
 H769 H 0.22730 0.65142 0.01563
 H770 H 0.22685 0.66941 0.04572
 H771 H 0.27900 0.64225 0.06153
 H772 H 0.25765 0.61544 -0.03986
 H773 H 0.25744 0.63385 -0.06954
 H774 H 0.25092 0.68478 -0.03672
 H775 H 0.25142 0.66541 -0.00764
 C776 C 0.30680 0.58599 -0.00062
 C777 C 0.19562 0.59059 -0.00265
 C778 C 0.25403 0.66067 -0.05527
 C779 C 0.25304 0.65724 0.05574
 C780 C 0.72645 0.09933 0.51211
 H781 H 0.73618 0.09765 0.52378
 C782 C 0.70931 0.08944 0.51203
 H783 H 0.70585 0.08004 0.52361
 C784 C 0.71872 0.11396 0.48299
 H785 H 0.72214 0.12381 0.47187
 C786 C 0.70150 0.10438 0.48236
 H787 H 0.69191 0.10675 0.47067
 N788 N 0.73090 0.11118 0.49761
 C789 C 0.79225 0.11755 0.49608
 H790 H 0.79298 0.13276 0.49470
 C791 C 0.80884 0.10695 0.49668
 H792 H 0.82240 0.11400 0.49572
 C793 C 0.77369 0.08980 0.49937
 H794 H 0.75997 0.08319 0.50040
 C795 C 0.78998 0.07865 0.50005
 H796 H 0.78877 0.06348 0.50168
 Zn797 Zn 0.75384 0.12509 0.49839
 N798 N 0.77514 0.10893 0.49780
 C799 C 0.76843 0.13658 0.53376
 N800 N 0.75419 0.13936 0.52111
 C801 C 0.73973 0.15144 0.52495
 C802 C 0.73944 0.16155 0.54194
 C803 C 0.76867 0.14639 0.55084
 C804 C 0.75739 0.13192 0.45994
 C805 C 0.75720 0.14217 0.44312
 C806 C 0.75345 0.17085 0.46128
 C807 C 0.75373 0.16003 0.47783
 N808 N 0.75526 0.14088 0.47682
 H809 H 0.77951 0.12656 0.53080
 H810 H 0.72837 0.15309 0.51487
 H811 H 0.72788 0.17112 0.54493
 H812 H 0.78004 0.14402 0.56081
 H813 H 0.75871 0.11669 0.45957
 H814 H 0.75843 0.13485 0.42974
 H815 H 0.75178 0.18604 0.46212
 H816 H 0.75235 0.16691 0.49137
 C817 C 0.80770 0.08736 0.49891
 C818 C 0.69675 0.09201 0.49698
 C819 C 0.75496 0.16178 0.44378
 C820 C 0.75408 0.15898 0.55499
 C821 C 0.98603 0.72662 0.90262
 H822 H 0.97431 0.73629 0.90414
 C823 C 0.98606 0.71019 0.91205
 H824 H 0.97438 0.70660 0.92126
 C825 C 1.01562 0.71988 0.88785
 H826 H 1.02681 0.72330 0.87810
 C827 C 1.01628 0.70171 0.89798
 H828 H 1.02816 0.69231 0.89571
 N829 N 1.00149 0.73143 0.89029
 C830 C 1.00262 0.79369 0.88277
 H831 H 1.00436 0.79416 0.86759
 C832 C 1.00183 0.80973 0.89269
 H833 H 1.00298 0.82321 0.88553
 C834 C 0.99919 0.77457 0.91041
 H835 H 0.99806 0.76095 0.91719
 C836 C 0.99823 0.79196 0.92196
 H837 H 0.99632 0.79085 0.93712
 Zn838 Zn 1.00059 0.75423 0.87617
 N839 N 1.00082 0.77572 0.89210
 C840 C 0.96529 0.76838 0.86417
 N841 N 0.97801 0.75418 0.86173
 C842 C 0.97436 0.73950 0.84983
 C843 C 0.95748 0.73893 0.83956
 C844 C 0.94830 0.76836 0.85419
 C845 C 1.03902 0.75833 0.86959
 C846 C 1.05592 0.75824 0.85945
 C847 C 1.03801 0.75379 0.83071
 C848 C 1.02139 0.75398 0.84141
 N849 N 1.02225 0.75580 0.86054
 H850 H 0.96811 0.77966 0.87404
 H851 H 0.98452 0.72818 0.84843
 H852 H 0.95464 0.72721 0.83014
 H853 H 0.93826 0.77972 0.85629
 H854 H 1.03927 0.75987 0.88479
 H855 H 1.06923 0.75978 0.86685
 H856 H 1.03731 0.75187 0.81554
 H857 H 1.00792 0.75228 0.83445
 C858 C 0.99926 0.80884 0.91338
 C859 C 1.00209 0.69700 0.90958
 C860 C 1.05543 0.75569 0.83988
 C861 C 0.94435 0.75353 0.84178
 C862 C 0.48654 0.22708 0.40038
 H863 H 0.47475 0.23667 0.40186
 C864 C 0.48669 0.20998 0.41032
 H865 H 0.47503 0.20641 0.41958
 C866 C 0.51591 0.21962 0.38611
 H867 H 0.52710 0.22312 0.37637
 C868 C 0.51661 0.20245 0.39575
 H869 H 0.52842 0.19298 0.39354
 N870 N 0.50112 0.23163 0.38867
 C871 C 0.50194 0.29295 0.38179
 H872 H 0.50343 0.29355 0.36659
 C873 C 0.50111 0.30963 0.39225
 H874 H 0.50200 0.32314 0.38511
 C875 C 0.49867 0.27460 0.40966
 H876 H 0.49775 0.26092 0.41637
 C877 C 0.49776 0.29099 0.42067
 H878 H 0.49607 0.28991 0.43584
 Zn879 Zn 0.50019 0.25442 0.37457
 N880 N 0.50035 0.27590 0.39054
 C881 C 0.46478 0.26838 0.36254
 N882 N 0.47763 0.25428 0.36009
 C883 C 0.47410 0.23958 0.34819
 C884 C 0.45723 0.23888 0.33791
 C885 C 0.44780 0.26822 0.35256
 C886 C 0.53864 0.25845 0.36806
 C887 C 0.55554 0.25833 0.35795
 C888 C 0.53767 0.25400 0.32917
 C889 C 0.52104 0.25421 0.33984
 N890 N 0.52187 0.25599 0.35898
 H891 H 0.46749 0.27966 0.37243
 H892 H 0.48435 0.22834 0.34680
 H893 H 0.45449 0.22712 0.32849
 H894 H 0.43766 0.27948 0.35467
 H895 H 0.53886 0.25996 0.38327
 H896 H 0.56885 0.25982 0.36537
 H897 H 0.53698 0.25211 0.31400
 H898 H 0.50757 0.25257 0.33287
 C899 C 0.49878 0.30865 0.41183
 C900 C 0.50189 0.19758 0.40796
 C901 C 0.55508 0.25583 0.33838
 C902 C 0.44397 0.25336 0.34014
 C903 C 0.98577 0.27289 0.59753
 H904 H 0.97456 0.26251 0.59667
 C905 C 0.98472 0.28951 0.58686
 H906 H 0.97271 0.29188 0.57766
 C907 C 1.01482 0.28280 0.61097
 H908 H 1.02633 0.28044 0.62067
 C909 C 1.01434 0.29954 0.60059
 H910 H 1.02561 0.30980 0.60223
 N911 N 1.00075 0.26978 0.60919
 C912 C 1.00539 0.20905 0.61907
 H913 H 1.00723 0.20938 0.63424
 C914 C 1.00532 0.19179 0.60956
 H915 H 1.00717 0.17877 0.61741
 C916 C 1.00037 0.22559 0.59035
 H917 H 0.99844 0.23879 0.58294
 C918 C 1.00020 0.20857 0.58027
 H919 H 0.99805 0.20870 0.56512
 Zn920 Zn 1.00138 0.24766 0.62436
 N921 N 1.00256 0.22546 0.60946
 C922 C 0.96696 0.23217 0.63739
 N923 N 0.97904 0.24706 0.63921
 C924 C 0.97482 0.26195 0.65063
 C925 C 0.95798 0.26206 0.66101
 C926 C 0.95006 0.23172 0.64749
 C927 C 1.04008 0.24621 0.63026
 C928 C 1.05715 0.24726 0.64005
 C929 C 1.03961 0.25143 0.66906
 C930 C 1.02281 0.25029 0.65869
 N931 N 1.02339 0.24807 0.63959
 H932 H 0.97020 0.22072 0.62787
 H933 H 0.98444 0.27380 0.65153
 H934 H 0.95466 0.27398 0.67002
 H935 H 0.94052 0.21984 0.64585
 H936 H 1.04010 0.24429 0.61510
 H937 H 1.07035 0.24610 0.63238
 H938 H 1.03906 0.25352 0.68422
 H939 H 1.00941 0.25143 0.66588
 C940 C 1.00248 0.19152 0.59003
 C941 C 0.99917 0.30296 0.58843
 C942 C 1.05694 0.25009 0.65960
 C943 C 0.94550 0.24678 0.65939
 C944 C 0.48509 0.77252 0.09854
 H945 H 0.47387 0.76217 0.09764
 C946 C 0.48408 0.78918 0.08791
 H947 H 0.47209 0.79164 0.07873
 C948 C 0.51416 0.78236 0.11200
 H949 H 0.52567 0.77995 0.12170
 C950 C 0.51370 0.79912 0.10167
 H951 H 0.52495 0.80939 0.10331
 N952 N 0.50007 0.76936 0.11019
 C953 C 0.50466 0.70861 0.11995
 H954 H 0.50648 0.70891 0.13512
 C955 C 0.50460 0.69138 0.11040
 H956 H 0.50643 0.67834 0.11821
 C957 C 0.49969 0.72523 0.09127
 H958 H 0.49778 0.73845 0.08389
 C959 C 0.49952 0.70824 0.08114
 H960 H 0.49740 0.70841 0.06598
 Zn961 Zn 0.50066 0.74722 0.12532
 N962 N 0.50186 0.72505 0.11038
 C963 C 0.46619 0.73174 0.13822
 N964 N 0.47827 0.74662 0.14009
 C965 C 0.47399 0.76153 0.15147
 C966 C 0.45706 0.76170 0.16171
 C967 C 0.44919 0.73135 0.14817
 C968 C 0.53934 0.74569 0.13128
 C969 C 0.55639 0.74680 0.14107
 C970 C 0.53885 0.75116 0.17004
 C971 C 0.52205 0.74995 0.15968
 N972 N 0.52263 0.74761 0.14059
 H973 H 0.46947 0.72027 0.12873
 H974 H 0.48362 0.77337 0.15242
 H975 H 0.45368 0.77364 0.17065
 H976 H 0.43964 0.71949 0.14646
 H977 H 0.53936 0.74369 0.11613
 H978 H 0.56962 0.74561 0.13346
 H979 H 0.53835 0.75336 0.18518
 H980 H 0.50864 0.75116 0.16685
 C981 C 0.50179 0.69117 0.09086
 C982 C 0.49854 0.80259 0.08953
 C983 C 0.55617 0.74976 0.16059
 C984 C 0.44456 0.74645 0.15999
 O985 O 0.04129 1.03644 1.00031
 O986 O 0.02763 1.03890 0.97075
 O987 O -0.00529 1.04481 1.03859
 O988 O -0.03306 1.03138 1.04476
 O989 O 0.03356 0.99814 1.04713
 O990 O 0.03707 0.96812 1.03265
 O991 O -0.05516 0.99305 0.99099
 O992 O -0.05524 1.02390 1.00062
 O993 O -0.01109 0.98745 0.95142
 O994 O 0.02235 0.99514 0.95106
 O995 O -0.01544 0.94819 0.99598
 O996 O -0.00784 0.94830 1.02910
 O997 O -0.04496 0.96704 1.00701
 O998 O -0.02942 0.96357 1.03883
 O999 O 0.00039 0.95801 0.96979
 O1000 O 0.03205 0.97332 0.96602
 O1001 O -0.03723 1.00308 0.96168
 O1002 O -0.03648 1.03558 0.97492
 O1003 O 0.05170 1.01022 1.01587
 O1004 O 0.05095 0.97698 1.00828
 O1005 O 0.00768 1.01413 1.05750
 O1006 O -0.02600 1.00459 1.05637
 O1007 O 0.01106 1.05470 1.01270
 O1008 O 0.00003 1.05285 0.97956
 Zr1009 Zr 0.01261 1.03061 0.99528
 O1010 O -0.00432 1.01389 0.97742
 Zr1011 Zr -0.01009 1.01588 1.03369
 O1012 O -0.02838 0.99910 1.01727
 Zr1013 Zr 0.02771 0.99269 1.01850
 O1014 O 0.01101 0.97446 1.00192
 Zr1015 Zr -0.03095 1.01017 0.98987
 O1016 O -0.01466 1.02847 1.00709
 Zr1017 Zr 0.00683 0.98654 0.97514
 O1018 O 0.02515 1.00393 0.99114
 Zr1019 Zr -0.01631 0.97229 1.01339
 O1020 O 0.00127 0.98849 1.03148
 O1021 O 0.01665 1.01959 1.02224
 O1022 O -0.02021 0.98294 0.98622
 C1023 C 0.05424 1.02648 1.00819
 C1024 C 0.00315 1.05752 1.02876
 C1025 C 0.02388 1.00641 1.06002
 C1026 C -0.05773 0.97673 0.99849
 C1027 C -0.02756 0.99458 0.94894
 C1028 C -0.00815 0.94541 0.97963
 H1029 H -0.00540 1.02017 0.96498
 H1030 H 0.01731 0.96203 1.00113
 H1031 H 0.02480 1.02774 1.03019
 H1032 H -0.04083 0.99842 1.02356
 H1033 H -0.05085 1.03593 1.00627
 H1034 H -0.04406 1.02864 1.03661
 H1035 H 0.03466 0.96265 0.97465
 H1036 H 0.05362 0.98172 0.99540
 H1037 H -0.04886 1.03423 0.96849
 H1038 H 0.00789 1.06440 0.98091
 H1039 H 0.00503 0.94487 1.02489
 H1040 H 0.02656 0.96406 1.04095
 H1041 H 0.03511 1.02782 0.96666
 H1042 H 0.01753 1.00764 0.94711
 H1043 H -0.01977 0.99266 1.06019
 H1044 H -0.04028 0.97204 1.04119
 O1045 O 0.54064 0.53644 0.50081
 O1046 O 0.52686 0.53902 0.47131
 O1047 O 0.49419 0.54464 0.53930
 O1048 O 0.46643 0.53117 0.54548
 O1049 O 0.53310 0.49800 0.54752
 O1050 O 0.53656 0.46800 0.53293
 O1051 O 0.44420 0.49301 0.49163
 O1052 O 0.44412 0.52383 0.50143
 O1053 O 0.48812 0.48762 0.45192
 O1054 O 0.52158 0.49537 0.45148
 O1055 O 0.48398 0.44818 0.49633
 O1056 O 0.49168 0.44817 0.52943
 O1057 O 0.45447 0.46694 0.50750
 O1058 O 0.47009 0.46336 0.53927
 O1059 O 0.49970 0.45813 0.47012
 O1060 O 0.53132 0.47347 0.46630
 O1061 O 0.46201 0.50319 0.46233
 O1062 O 0.46277 0.53563 0.47570
 O1063 O 0.55112 0.51016 0.51624
 O1064 O 0.55036 0.47695 0.50855
 O1065 O 0.50723 0.51392 0.55803
 O1066 O 0.47357 0.50432 0.55699
 O1067 O 0.51047 0.55463 0.51340
 O1068 O 0.49929 0.55292 0.48030
 Zr1069 Zr 0.51194 0.53062 0.49587
 O1070 O 0.49496 0.51397 0.47800
 Zr1071 Zr 0.48938 0.51572 0.53429
 O1072 O 0.47105 0.49899 0.51787
 Zr1073 Zr 0.52715 0.49262 0.51890
 O1074 O 0.51042 0.47445 0.50228
 Zr1075 Zr 0.46838 0.51017 0.49053
 O1076 O 0.48472 0.52841 0.50776
 Zr1077 Zr 0.50613 0.48664 0.47557
 O1078 O 0.52449 0.50397 0.49159
 Zr1079 Zr 0.48313 0.47220 0.51384
 O1080 O 0.50076 0.48835 0.53194
 O1081 O 0.51608 0.51950 0.52277
 O1082 O 0.47913 0.48297 0.48673
 C1083 C 0.55362 0.52646 0.50860
 C1084 C 0.50261 0.55738 0.52950
 C1085 C 0.52345 0.50622 0.56047
 C1086 C 0.44168 0.47665 0.49905
 C1087 C 0.47164 0.49473 0.44953
 C1088 C 0.49122 0.44548 0.47994
 H1089 H 0.49383 0.52029 0.46559
 H1090 H 0.51672 0.46203 0.50143
 H1091 H 0.52426 0.52762 0.53072
 H1092 H 0.45862 0.49826 0.52419
 H1093 H 0.44851 0.53584 0.50711
 H1094 H 0.45539 0.52839 0.53740
 H1095 H 0.53398 0.46278 0.47489
 H1096 H 0.55298 0.48173 0.49567
 H1097 H 0.45036 0.53430 0.46932
 H1098 H 0.50716 0.56447 0.48166
 H1099 H 0.50453 0.44476 0.52517
 H1100 H 0.52608 0.46392 0.54126
 H1101 H 0.53433 0.52797 0.46715
 H1102 H 0.51668 0.50785 0.44757
 H1103 H 0.47981 0.49238 0.56073
 H1104 H 0.45924 0.47182 0.54170
 O1105 O 0.45910 -0.03286 0.49456
 O1106 O 0.47289 -0.03581 0.46509
 O1107 O 0.50567 -0.03963 0.53317
 O1108 O 0.53315 -0.02564 0.53924
 O1109 O 0.46613 0.00679 0.54036
 O1110 O 0.46230 0.03637 0.52503
 O1111 O 0.55511 0.01146 0.48467
 O1112 O 0.55546 -0.01912 0.49503
 O1113 O 0.51121 0.01548 0.44462
 O1114 O 0.47787 0.00740 0.44425
 O1115 O 0.51470 0.05599 0.48820
 O1116 O 0.50703 0.05666 0.52121
 O1117 O 0.54449 0.03776 0.49991
 O1118 O 0.52866 0.04190 0.53150
 O1119 O 0.49913 0.04532 0.46218
 O1120 O 0.46779 0.02945 0.45856
 O1121 O 0.53747 0.00046 0.45547
 O1122 O 0.53700 -0.03167 0.46953
 O1123 O 0.44830 -0.00636 0.50939
 O1124 O 0.44866 0.02665 0.50085
 O1125 O 0.49213 -0.00866 0.55125
 O1126 O 0.52567 0.00132 0.55007
 O1127 O 0.48957 -0.05040 0.50747
 O1128 O 0.50061 -0.04924 0.47433
 Zr1129 Zr 0.48773 -0.02677 0.48946
 O1130 O 0.50458 -0.01032 0.47128
 Zr1131 Zr 0.51005 -0.01076 0.52759
 O1132 O 0.52822 0.00580 0.51086
 Zr1133 Zr 0.47205 0.01154 0.51162
 O1134 O 0.48862 0.02953 0.49464
 Zr1135 Zr 0.53109 -0.00594 0.48378
 O1136 O 0.51491 -0.02398 0.50136
 Zr1137 Zr 0.49312 0.01683 0.46820
 O1138 O 0.47490 -0.00036 0.48456
 Zr1139 Zr 0.51584 0.03235 0.50621
 O1140 O 0.49836 0.01641 0.52462
 O1141 O 0.48342 -0.01512 0.51612
 O1142 O 0.52006 0.02106 0.47934
 C1143 C 0.44600 -0.02287 0.50215
 C1144 C 0.49748 -0.05270 0.52361
 C1145 C 0.47584 -0.00105 0.55350
 C1146 C 0.55744 0.02799 0.49179
 C1147 C 0.52778 0.00847 0.44244
 C1148 C 0.50740 0.05828 0.47178
 H1149 H 0.50581 -0.01690 0.45902
 H1150 H 0.48216 0.04185 0.49351
 H1151 H 0.47535 -0.02317 0.52423
 H1152 H 0.54062 0.00680 0.51721
 H1153 H 0.55117 -0.03105 0.50097
 H1154 H 0.54416 -0.02302 0.53106
 H1155 H 0.46490 0.04022 0.46698
 H1156 H 0.44610 0.02152 0.48810
 H1157 H 0.54941 -0.03035 0.46316
 H1158 H 0.49286 -0.06083 0.47592
 H1159 H 0.49409 0.05975 0.51695
 H1160 H 0.47270 0.04076 0.53331
 H1161 H 0.46526 -0.02495 0.46073
 H1162 H 0.48282 -0.00517 0.44072
 H1163 H 0.51926 0.01325 0.55356
 H1164 H 0.53960 0.03363 0.53416
 O1165 O -0.04149 0.46711 0.99490
 O1166 O -0.02781 0.46428 0.96536
 O1167 O 0.00521 0.46018 1.03330
 O1168 O 0.03270 0.47415 1.03936
 O1169 O -0.03429 0.50661 1.04081
 O1170 O -0.03817 0.53624 1.02559
 O1171 O 0.05451 0.51141 0.98487
 O1172 O 0.05487 0.48080 0.99509
 O1173 O 0.01048 0.51563 0.94495
 O1174 O -0.02285 0.50758 0.94465
 O1175 O 0.01414 0.55597 0.98868
 O1176 O 0.00659 0.55653 1.02169
 O1177 O 0.04396 0.53767 1.00024
 O1178 O 0.02821 0.54169 1.03189
 O1179 O -0.00155 0.54541 0.96268
 O1180 O -0.03290 0.52956 0.95909
 O1181 O 0.03677 0.50055 0.95567
 O1182 O 0.03632 0.46837 0.96959
 O1183 O -0.05224 0.49356 1.00986
 O1184 O -0.05189 0.52661 1.00142
 O1185 O -0.00827 0.49109 1.05155
 O1186 O 0.02527 0.50106 1.05031
 O1187 O -0.01098 0.44951 1.00761
 O1188 O -0.00007 0.45080 0.97444
 Zr1189 Zr -0.01288 0.47322 0.98971
 O1190 O 0.00392 0.48973 0.97153
 Zr1191 Zr 0.00957 0.48907 1.02783
 O1192 O 0.02770 0.50569 1.01110
 Zr1193 Zr -0.02847 0.51145 1.01207
 O1194 O -0.01194 0.52949 0.99511
 Zr1195 Zr 0.03047 0.49405 0.98397
 O1196 O 0.01434 0.47595 1.00153
 Zr1197 Zr -0.00753 0.51690 0.96860
 O1198 O -0.02571 0.49965 0.98495
 Zr1199 Zr 0.01533 0.53226 1.00659
 O1200 O -0.00211 0.51626 1.02500
 O1201 O -0.01710 0.48477 1.01643
 O1202 O 0.01944 0.52107 0.97967
 C1203 C -0.05456 0.47707 1.00258
 C1204 C -0.00301 0.44714 1.02372
 C1205 C -0.02454 0.49871 1.05389
 C1206 C 0.05689 0.52790 0.99206
 C1207 C 0.02704 0.50862 0.94269
 C1208 C 0.00677 0.55833 0.97229
 H1209 H 0.00511 0.48319 0.95925
 H1210 H -0.01840 0.54182 0.99404
 H1211 H -0.02514 0.47669 1.02454
 H1212 H 0.04011 0.50665 1.01742
 H1213 H 0.05059 0.46885 1.00099
 H1214 H 0.04367 0.47676 1.03113
 H1215 H -0.03576 0.54029 0.96757
 H1216 H -0.05450 0.52149 0.98866
 H1217 H 0.04871 0.46970 0.96319
 H1218 H -0.00782 0.43921 0.97601
 H1219 H -0.00637 0.55962 1.01752
 H1220 H -0.02775 0.54060 1.03385
 H1221 H -0.03546 0.47517 0.96107
 H1222 H -0.01795 0.49500 0.94108
 H1223 H 0.01887 0.51297 1.05386
 H1224 H 0.03916 0.53342 1.03448
 O1225 O 0.04967 0.48777 0.51184
 O1226 O 0.05010 0.51907 0.50307
 O1227 O 0.00379 0.48475 0.55214
 O1228 O -0.02708 0.49012 0.55263
 O1229 O 0.00822 0.44304 0.50696
 O1230 O 0.00076 0.44368 0.47433
 O1231 O -0.04552 0.53314 0.50087
 O1232 O -0.03336 0.53474 0.53091
 O1233 O -0.00021 0.53947 0.46328
 O1234 O 0.03057 0.52425 0.45939
 O1235 O -0.03851 0.49485 0.45546
 O1236 O -0.04347 0.46423 0.47004
 O1237 O -0.05607 0.50719 0.48494
 O1238 O -0.05642 0.47276 0.49363
 O1239 O -0.01214 0.51020 0.44534
 O1240 O 0.02188 0.50087 0.44614
 O1241 O -0.01649 0.54989 0.48897
 O1242 O -0.00384 0.54878 0.52170
 O1243 O 0.03938 0.46204 0.49536
 O1244 O 0.02448 0.45827 0.46499
 O1245 O -0.00769 0.45340 0.53290
 O1246 O -0.03885 0.46927 0.53468
 O1247 O 0.03056 0.49952 0.54205
 O1248 O 0.03227 0.53100 0.52694
 Zr1249 Zr 0.02564 0.50512 0.51325
 O1250 O 0.00984 0.52325 0.49576
 Zr1251 Zr -0.01282 0.48223 0.52762
 O1252 O -0.03023 0.49990 0.51123
 Zr1253 Zr 0.01057 0.46726 0.48984
 O1254 O -0.00624 0.48379 0.47168
 Zr1255 Zr -0.01737 0.52633 0.50708
 O1256 O -0.00105 0.50954 0.52568
 Zr1257 Zr 0.00563 0.51090 0.46915
 O1258 O 0.02348 0.49371 0.48583
 Zr1259 Zr -0.03288 0.48851 0.48395
 O1260 O -0.01691 0.46972 0.50095
 O1261 O 0.01416 0.47825 0.51682
 O1262 O -0.02135 0.51531 0.48001
 C1263 C 0.05225 0.47173 0.50377
 C1264 C 0.02019 0.49201 0.55490
 C1265 C 0.00031 0.44045 0.52307
 C1266 C -0.05832 0.52369 0.49216
 C1267 C -0.00891 0.55229 0.47269
 C1268 C -0.02868 0.50327 0.44277
 H1269 H 0.01636 0.53559 0.49486
 H1270 H -0.00729 0.47738 0.45932
 H1271 H 0.02205 0.47010 0.52501
 H1272 H -0.04259 0.50132 0.51757
 H1273 H -0.02568 0.53163 0.54218
 H1274 H -0.03418 0.50176 0.54968
 H1275 H 0.01561 0.48941 0.44113
 H1276 H 0.03319 0.46860 0.46134
 H1277 H -0.01219 0.56001 0.52111
 H1278 H 0.04382 0.52926 0.53468
 H1279 H -0.03380 0.46007 0.46086
 H1280 H -0.01250 0.44158 0.47825
 H1281 H 0.05166 0.51526 0.48971
 H1282 H 0.03410 0.53407 0.46870
 H1283 H -0.04123 0.45936 0.52510
 H1284 H -0.06146 0.47913 0.50500
 O1285 O 0.50867 0.94370 0.00807
 O1286 O 0.50017 0.94368 -0.02334
 O1287 O 0.54986 0.98874 0.01183
 O1288 O 0.55114 1.01963 0.00685
 O1289 O 0.50393 0.98496 0.05294
 O1290 O 0.47150 0.99301 0.05184
 O1291 O 0.50066 1.03959 -0.03677
 O1292 O 0.53035 1.02658 -0.03810
 O1293 O 0.46187 0.99528 -0.04400
 O1294 O 0.45709 0.96438 -0.02925
 O1295 O 0.45442 1.03323 0.00075
 O1296 O 0.46857 1.03766 0.03153
 O1297 O 0.48454 1.05025 -0.01101
 O1298 O 0.49270 1.05002 0.02359
 O1299 O 0.44383 1.00716 -0.01483
 O1300 O 0.44380 0.97300 -0.00585
 O1301 O 0.48808 1.01112 -0.05389
 O1302 O 0.52042 0.99751 -0.05255
 O1303 O 0.49208 0.95417 0.03363
 O1304 O 0.46188 0.96961 0.03687
 O1305 O 0.53042 1.00031 0.04303
 O1306 O 0.53318 1.03158 0.02744
 O1307 O 0.53943 0.96232 -0.00331
 O1308 O 0.52459 0.96105 -0.03492
 Zr1309 Zr 0.51078 0.96783 -0.00917
 O1310 O 0.49394 0.98420 -0.02743
 Zr1311 Zr 0.52569 1.00581 0.01419
 O1312 O 0.51001 1.02374 -0.00357
 Zr1313 Zr 0.48718 0.98311 0.02844
 O1314 O 0.46969 1.00049 0.01178
 Zr1315 Zr 0.50594 1.01119 -0.03014
 O1316 O 0.52388 0.99430 -0.01321
 Zr1317 Zr 0.46726 0.98892 -0.01545
 O1318 O 0.48325 0.97052 0.00184
 Zr1319 Zr 0.48265 1.02690 0.00745
 O1320 O 0.49896 1.01037 0.02636
 O1321 O 0.51423 0.97903 0.01782
 O1322 O 0.47883 1.01570 -0.01948
 C1323 C 0.50039 0.94120 0.02403
 C1324 C 0.55239 0.97239 0.00444
 C1325 C 0.52019 0.99249 0.05580
 C1326 C 0.49214 1.05252 -0.02735
 C1327 C 0.47163 1.00399 -0.05657
 C1328 C 0.44159 1.02372 -0.00783
 H1329 H 0.49304 0.97784 -0.03984
 H1330 H 0.45727 1.00175 0.01804
 H1331 H 0.52214 0.97092 0.02602
 H1332 H 0.51668 1.03596 -0.00480
 H1333 H 0.54134 1.01855 -0.03492
 H1334 H 0.54860 1.02672 -0.00490
 H1335 H 0.43880 0.97923 0.00561
 H1336 H 0.45832 0.96093 0.02649
 H1337 H 0.52019 1.00599 -0.06370
 H1338 H 0.53203 0.94931 -0.03314
 H1339 H 0.45921 1.02810 0.03556
 H1340 H 0.47565 1.00618 0.05409
 H1341 H 0.48673 0.94243 -0.01971
 H1342 H 0.46652 0.96070 -0.03887
 H1343 H 0.52355 1.03406 0.03727
 H1344 H 0.50422 1.05493 0.01738
 O1345 O 0.44676 0.50290 0.01671
 O1346 O 0.44712 0.47166 0.00759
 O1347 O 0.49195 0.50654 0.05764
 O1348 O 0.52289 0.50161 0.05858
 O1349 O 0.48751 0.54848 0.01270
 O1350 O 0.49522 0.54826 -0.01980
 O1351 O 0.54308 0.45955 0.00664
 O1352 O 0.53049 0.45743 0.03652
 O1353 O 0.49857 0.45272 -0.03172
 O1354 O 0.46752 0.46711 -0.03589
 O1355 O 0.53583 0.49831 -0.03850
 O1356 O 0.53999 0.52883 -0.02336
 O1357 O 0.55326 0.48583 -0.00899
 O1358 O 0.55291 0.52010 0.00015
 O1359 O 0.50991 0.48257 -0.04919
 O1360 O 0.47562 0.49101 -0.04861
 O1361 O 0.51463 0.44236 -0.00586
 O1362 O 0.50143 0.44283 0.02667
 O1363 O 0.45683 0.52902 0.00070
 O1364 O 0.47197 0.53322 -0.02953
 O1365 O 0.50326 0.53824 0.03879
 O1366 O 0.53459 0.52288 0.04104
 O1367 O 0.46568 0.49124 0.04706
 O1368 O 0.46486 0.45985 0.03163
 Zr1369 Zr 0.47114 0.48600 0.01828
 O1370 O 0.48758 0.46837 0.00085
 Zr1371 Zr 0.50892 0.50951 0.03341
 O1372 O 0.52694 0.49237 0.01712
 Zr1373 Zr 0.48577 0.52435 -0.00457
 O1374 O 0.50319 0.50837 -0.02263
 Zr1375 Zr 0.51469 0.46573 0.01251
 O1376 O 0.49775 0.48199 0.03104
 Zr1377 Zr 0.49191 0.48105 -0.02559
 O1378 O 0.47345 0.49769 -0.00901
 Zr1379 Zr 0.52974 0.50409 -0.01000
 O1380 O 0.51313 0.52236 0.00693
 O1381 O 0.48203 0.51306 0.02226
 O1382 O 0.51883 0.47710 -0.01438
 C1383 C 0.44402 0.51902 0.00883
 C1384 C 0.47567 0.49892 0.06011
 C1385 C 0.49521 0.55111 0.02889
 C1386 C 0.55578 0.46931 -0.00189
 C1387 C 0.50742 0.44000 -0.02232
 C1388 C 0.52631 0.48994 -0.05145
 H1389 H 0.48136 0.45590 -0.00028
 H1390 H 0.50426 0.51496 -0.03489
 H1391 H 0.47389 0.52100 0.03040
 H1392 H 0.53924 0.49113 0.02362
 H1393 H 0.52255 0.46023 0.04770
 H1394 H 0.53034 0.49019 0.05561
 H1395 H 0.48168 0.50265 -0.05343
 H1396 H 0.46336 0.52283 -0.03326
 H1397 H 0.51004 0.43180 0.02611
 H1398 H 0.45315 0.46129 0.03920
 H1399 H 0.53046 0.53279 -0.03277
 H1400 H 0.50841 0.55059 -0.01575
 H1401 H 0.44569 0.47558 -0.00576
 H1402 H 0.46398 0.45726 -0.02662
 H1403 H 0.53701 0.53282 0.03150
 H1404 H 0.55790 0.51370 0.01152
 O1405 O -0.05289 0.00329 0.51638
 O1406 O -0.05268 -0.02797 0.50727
 O1407 O -0.00759 0.00675 0.55720
 O1408 O 0.02333 0.00177 0.55809
 O1409 O -0.01198 0.04869 0.51222
 O1410 O -0.00432 0.04840 0.47970
 O1411 O 0.04324 -0.04044 0.50617
 O1412 O 0.03070 -0.04249 0.53606
 O1413 O -0.00138 -0.04717 0.46790
 O1414 O -0.03237 -0.03266 0.46376
 O1415 O 0.03607 -0.00174 0.46100
 O1416 O 0.04034 0.02880 0.47608
 O1417 O 0.05349 -0.01421 0.49051
 O1418 O 0.05328 0.02007 0.49958
 O1419 O 0.01008 -0.01740 0.45037
 O1420 O -0.02419 -0.00881 0.45099
 O1421 O 0.01470 -0.05755 0.49373
 O1422 O 0.00157 -0.05700 0.52629
 O1423 O -0.04274 0.02934 0.50030
 O1424 O -0.02766 0.03344 0.47004
 O1425 O 0.00375 0.03842 0.53830
 O1426 O 0.03505 0.02296 0.54049
 O1427 O -0.03394 -0.00846 0.54670
 O1428 O -0.03495 -0.03983 0.53128
 Zr1429 Zr -0.02858 -0.01372 0.51790
 O1430 O -0.01224 -0.03143 0.50046
 Zr1431 Zr 0.00932 0.00967 0.53294
 O1432 O 0.02724 -0.00756 0.51663
 Zr1433 Zr -0.01384 0.02455 0.49498
 O1434 O 0.00348 0.00848 0.47691
 Zr1435 Zr 0.01489 -0.03416 0.51208
 O1436 O -0.00196 -0.01781 0.53062
 Zr1437 Zr -0.00790 -0.01880 0.47400
 O1438 O -0.02627 -0.00207 0.49059
 Zr1439 Zr 0.03004 0.00412 0.48949
 O1440 O 0.01353 0.02247 0.50643
 O1441 O -0.01758 0.01330 0.52183
 O1442 O 0.01902 -0.02284 0.48516
 C1443 C -0.05558 0.01941 0.50849
 C1444 C -0.02388 -0.00083 0.55972
 C1445 C -0.00426 0.05131 0.52840
 C1446 C 0.05597 -0.03072 0.49763
 C1447 C 0.00743 -0.05991 0.47730
 C1448 C 0.02651 -0.01011 0.44808
 H1449 H -0.01851 -0.04388 0.49936
 H1450 H 0.00455 0.01505 0.46463
 H1451 H -0.02567 0.02127 0.52999
 H1452 H 0.03955 -0.00884 0.52311
 H1453 H 0.02280 -0.03965 0.54725
 H1454 H 0.03069 -0.00971 0.55513
 H1455 H -0.01808 0.00280 0.44614
 H1456 H -0.03630 0.02307 0.46633
 H1457 H 0.01014 -0.06806 0.52572
 H1458 H -0.04664 -0.03835 0.53887
 H1459 H 0.03082 0.03278 0.46666
 H1460 H 0.00888 0.05068 0.48373
 H1461 H -0.05412 -0.02404 0.49392
 H1462 H -0.03595 -0.04246 0.47306
 H1463 H 0.03748 0.03290 0.53095
 H1464 H 0.05825 0.01368 0.51096
 O1465 O 0.74147 0.19794 0.26230
 O1466 O 0.77277 0.19807 0.25351
 O1467 O 0.73787 0.24343 0.30298
 O1468 O 0.74287 0.27436 0.30377
 O1469 O 0.69627 0.23891 0.25762
 O1470 O 0.69690 0.24649 0.22508
 O1471 O 0.78562 0.29402 0.25233
 O1472 O 0.78738 0.28150 0.28221
 O1473 O 0.79259 0.24918 0.21420
 O1474 O 0.77790 0.21818 0.21003
 O1475 O 0.74746 0.28675 0.20668
 O1476 O 0.71680 0.29112 0.22136
 O1477 O 0.75960 0.30428 0.23638
 O1478 O 0.72522 0.30406 0.24496
 O1479 O 0.76309 0.26066 0.19632
 O1480 O 0.75433 0.22646 0.19692
 O1481 O 0.80275 0.26540 0.24006
 O1482 O 0.80185 0.25234 0.27263
 O1483 O 0.71563 0.20805 0.24592
 O1484 O 0.71182 0.22309 0.21562
 O1485 O 0.70641 0.25469 0.28375
 O1486 O 0.72192 0.28600 0.28595
 O1487 O 0.75302 0.21699 0.29269
 O1488 O 0.78449 0.21585 0.27755
 Zr1489 Zr 0.75854 0.22224 0.26392
 O1490 O 0.77648 0.23850 0.24661
 Zr1491 Zr 0.73519 0.26023 0.27861
 O1492 O 0.75262 0.27808 0.26240
 Zr1493 Zr 0.72055 0.23696 0.24060
 O1494 O 0.73688 0.25420 0.22262
 Zr1495 Zr 0.77920 0.26566 0.25817
 O1496 O 0.76262 0.24890 0.27660
 Zr1497 Zr 0.76413 0.24276 0.22002
 O1498 O 0.74716 0.22448 0.23650
 Zr1499 Zr 0.74124 0.28080 0.23514
 O1500 O 0.72266 0.26437 0.25197
 O1501 O 0.73153 0.23329 0.26757
 O1502 O 0.76818 0.26973 0.23112
 C1503 C 0.72544 0.19523 0.25422
 C1504 C 0.74537 0.22713 0.30561
 C1505 C 0.69356 0.24668 0.27377
 C1506 C 0.77602 0.30676 0.24372
 C1507 C 0.80526 0.25803 0.22370
 C1508 C 0.75592 0.27711 0.19388
 H1509 H 0.78891 0.23220 0.24565
 H1510 H 0.73045 0.25524 0.21027
 H1511 H 0.72347 0.22522 0.27568
 H1512 H 0.75387 0.29040 0.26887
 H1513 H 0.78439 0.27363 0.29338
 H1514 H 0.75443 0.28166 0.30091
 H1515 H 0.74277 0.23254 0.19197
 H1516 H 0.72221 0.21447 0.21199
 H1517 H 0.81295 0.26090 0.27214
 H1518 H 0.78288 0.20419 0.28518
 H1519 H 0.71284 0.28153 0.21200
 H1520 H 0.69465 0.25971 0.22904
 H1521 H 0.76898 0.19659 0.24013
 H1522 H 0.78767 0.21468 0.21938
 H1523 H 0.71206 0.28839 0.27633
 H1524 H 0.73146 0.30904 0.25644
 O1525 O 0.75342 0.71352 0.70701
 O1526 O 0.78296 0.71041 0.72056
 O1527 O 0.71512 0.70633 0.75380
 O1528 O 0.70929 0.72009 0.78144
 O1529 O 0.70772 0.75302 0.71461
 O1530 O 0.72300 0.78270 0.71095
 O1531 O 0.76411 0.75696 0.80324
 O1532 O 0.75368 0.72637 0.80343
 O1533 O 0.80375 0.76153 0.75914
 O1534 O 0.80390 0.75362 0.72571
 O1535 O 0.76028 0.80188 0.76321
 O1536 O 0.72724 0.80262 0.75582
 O1537 O 0.74886 0.78337 0.79293
 O1538 O 0.71707 0.78761 0.77740
 O1539 O 0.78616 0.79137 0.74734
 O1540 O 0.78952 0.77574 0.71585
 O1541 O 0.79309 0.74623 0.78535
 O1542 O 0.77906 0.71404 0.78469
 O1543 O 0.73856 0.74011 0.69650
 O1544 O 0.74708 0.77314 0.69705
 O1545 O 0.69700 0.73737 0.74059
 O1546 O 0.69843 0.74712 0.77421
 O1547 O 0.74068 0.69570 0.73742
 O1548 O 0.77392 0.69678 0.74826
 Zr1549 Zr 0.75872 0.71935 0.73564
 O1550 O 0.77707 0.73567 0.75246
 Zr1551 Zr 0.72077 0.73516 0.75835
 O1552 O 0.73767 0.75156 0.77652
 Zr1553 Zr 0.73649 0.75779 0.72040
 O1554 O 0.75361 0.77565 0.73697
 Zr1555 Zr 0.76475 0.73979 0.77909
 O1556 O 0.74702 0.72190 0.76292
 Zr1557 Zr 0.78007 0.76292 0.74118
 O1558 O 0.76355 0.74588 0.72297
 Zr1559 Zr 0.74226 0.77822 0.76431
 O1560 O 0.72369 0.76243 0.74684
 O1561 O 0.73206 0.73104 0.73161
 O1562 O 0.76913 0.76689 0.76822
 C1563 C 0.74576 0.72363 0.69404
 C1564 C 0.72459 0.69333 0.74543
 C1565 C 0.69464 0.74507 0.72435
 C1566 C 0.75709 0.77348 0.80574
 C1567 C 0.80603 0.75443 0.77566
 C1568 C 0.77665 0.80424 0.75581
 H1569 H 0.78933 0.72909 0.75357
 H1570 H 0.75470 0.78802 0.73059
 H1571 H 0.72388 0.72304 0.72354
 H1572 H 0.73143 0.75245 0.78898
 H1573 H 0.74772 0.71446 0.79909
 H1574 H 0.71758 0.72260 0.79239
 H1575 H 0.78111 0.78655 0.71312
 H1576 H 0.75981 0.76803 0.69435
 H1577 H 0.78553 0.71526 0.79706
 H1578 H 0.77223 0.68524 0.74047
 H1579 H 0.73132 0.80576 0.74283
 H1580 H 0.71476 0.78694 0.72142
 H1581 H 0.78735 0.72138 0.71306
 H1582 H 0.80753 0.74106 0.73063
 H1583 H 0.69491 0.75908 0.76789
 H1584 H 0.71455 0.77929 0.78834
 O1585 O 0.28570 0.20955 0.74599
 O1586 O 0.28834 0.22315 0.71635
 O1587 O 0.29309 0.25633 0.78419
 O1588 O 0.27931 0.28389 0.79026
 O1589 O 0.24661 0.21689 0.79211
 O1590 O 0.21682 0.21306 0.77715
 O1591 O 0.24165 0.30558 0.73589
 O1592 O 0.27233 0.30599 0.74600
 O1593 O 0.23706 0.26144 0.69621
 O1594 O 0.24489 0.22809 0.69597
 O1595 O 0.19706 0.26536 0.74026
 O1596 O 0.19673 0.25779 0.77333
 O1597 O 0.21551 0.29510 0.75155
 O1598 O 0.21172 0.27949 0.78332
 O1599 O 0.20734 0.24965 0.71419
 O1600 O 0.22296 0.21815 0.71062
 O1601 O 0.25234 0.28774 0.70673
 O1602 O 0.28457 0.28734 0.72050
 O1603 O 0.25932 0.19888 0.76116
 O1604 O 0.22622 0.19925 0.75291
 O1605 O 0.26230 0.24292 0.80268
 O1606 O 0.25243 0.27651 0.80143
 O1607 O 0.30349 0.24007 0.75846
 O1608 O 0.30200 0.25091 0.72527
 Zr1609 Zr 0.27965 0.23817 0.74073
 O1610 O 0.26307 0.25494 0.72264
 Zr1611 Zr 0.26420 0.26074 0.77891
 O1612 O 0.24753 0.27886 0.76226
 Zr1613 Zr 0.24154 0.22267 0.76340
 O1614 O 0.22343 0.23919 0.74654
 Zr1615 Zr 0.25897 0.28155 0.73503
 O1616 O 0.27713 0.26543 0.75250
 Zr1617 Zr 0.23585 0.24351 0.71993
 O1618 O 0.25314 0.22535 0.73620
 Zr1619 Zr 0.22089 0.26649 0.75799
 O1620 O 0.23695 0.24907 0.77632
 O1621 O 0.26828 0.23403 0.76753
 O1622 O 0.23188 0.27053 0.73097
 C1623 C 0.27575 0.19652 0.75380
 C1624 C 0.30601 0.24805 0.77454
 C1625 C 0.25467 0.22665 0.80510
 C1626 C 0.22521 0.30797 0.74317
 C1627 C 0.24415 0.27798 0.69384
 C1628 C 0.19455 0.25805 0.72387
 H1629 H 0.26953 0.25608 0.71030
 H1630 H 0.21107 0.23276 0.74558
 H1631 H 0.27640 0.22600 0.77561
 H1632 H 0.24665 0.29130 0.76854
 H1633 H 0.28430 0.30173 0.75184
 H1634 H 0.27662 0.29486 0.78206
 H1635 H 0.21222 0.21540 0.71914
 H1636 H 0.23122 0.19660 0.74012
 H1637 H 0.28325 0.29972 0.71406
 H1638 H 0.31357 0.24315 0.72677
 H1639 H 0.19350 0.24485 0.76913
 H1640 H 0.21259 0.22351 0.78543
 H1641 H 0.27741 0.21544 0.71221
 H1642 H 0.25750 0.23290 0.69234
 H1643 H 0.24053 0.27011 0.80510
 H1644 H 0.22004 0.29046 0.78578
 O1645 O 0.21443 0.79151 0.24667
 O1646 O 0.21146 0.77793 0.21711
 O1647 O 0.20711 0.74473 0.28497
 O1648 O 0.22086 0.71711 0.29090
 O1649 O 0.25375 0.78401 0.29258
 O1650 O 0.28347 0.78772 0.27744
 O1651 O 0.25795 0.69532 0.23629
 O1652 O 0.22734 0.69507 0.24657
 O1653 O 0.26261 0.73941 0.19661
 O1654 O 0.25473 0.77282 0.19639
 O1655 O 0.30282 0.73546 0.24033
 O1656 O 0.30341 0.74288 0.27337
 O1657 O 0.28428 0.70568 0.25169
 O1658 O 0.28840 0.72126 0.28347
 O1659 O 0.29240 0.75129 0.21438
 O1660 O 0.27677 0.78274 0.21088
 O1661 O 0.24728 0.71318 0.20723
 O1662 O 0.21508 0.71377 0.22111
 O1663 O 0.24094 0.80208 0.26167
 O1664 O 0.27399 0.80159 0.25329
 O1665 O 0.23807 0.75801 0.30325
 O1666 O 0.24783 0.72440 0.30190
 O1667 O 0.19658 0.76106 0.25932
 O1668 O 0.19780 0.75020 0.22611
 Zr1669 Zr 0.22029 0.76287 0.24141
 O1670 O 0.23668 0.74606 0.22318
 Zr1671 Zr 0.23595 0.74023 0.27947
 O1672 O 0.25243 0.72206 0.26268
 Zr1673 Zr 0.25863 0.77821 0.26384
 O1674 O 0.27655 0.76165 0.24683
 Zr1675 Zr 0.24077 0.71944 0.23554
 O1676 O 0.22280 0.73560 0.25315
 Zr1677 Zr 0.26393 0.75739 0.22030
 O1678 O 0.24682 0.77559 0.23671
 Zr1679 Zr 0.27909 0.73432 0.25822
 O1680 O 0.26323 0.75178 0.27669
 O1681 O 0.23187 0.76695 0.26814
 O1682 O 0.26787 0.73035 0.23129
 C1683 C 0.22448 0.80451 0.25439
 C1684 C 0.19415 0.75307 0.27541
 C1685 C 0.24576 0.77427 0.30563
 C1686 C 0.27443 0.69285 0.24342
 C1687 C 0.25550 0.72287 0.19430
 C1688 C 0.30525 0.74287 0.22397
 H1689 H 0.23015 0.74493 0.21087
 H1690 H 0.28892 0.76805 0.24579
 H1691 H 0.22385 0.77502 0.27627
 H1692 H 0.25330 0.70961 0.26895
 H1693 H 0.21542 0.69939 0.25247
 H1694 H 0.22342 0.70614 0.28265
 H1695 H 0.28753 0.78551 0.21937
 H1696 H 0.26891 0.80427 0.24053
 H1697 H 0.21632 0.70139 0.21467
 H1698 H 0.18626 0.75799 0.22771
 H1699 H 0.30657 0.75587 0.26929
 H1700 H 0.28769 0.77726 0.28571
 H1701 H 0.22243 0.78548 0.21280
 H1702 H 0.24216 0.76791 0.19275
 H1703 H 0.25978 0.73075 0.30548
 H1704 H 0.28006 0.71031 0.28597
 O1705 O 0.19658 0.73864 0.75918
 O1706 O 0.19667 0.74742 0.72788
 O1707 O 0.24203 0.69796 0.76277
 O1708 O 0.27294 0.69719 0.75782
 O1709 O 0.23756 0.74332 0.80439
 O1710 O 0.24523 0.77589 0.80375
 O1711 O 0.29255 0.74866 0.71501
 O1712 O 0.28004 0.71874 0.71329
 O1713 O 0.24776 0.78673 0.70802
 O1714 O 0.21679 0.79090 0.72274
 O1715 O 0.28540 0.79429 0.75317
 O1716 O 0.28981 0.77965 0.78382
 O1717 O 0.30287 0.76461 0.74103
 O1718 O 0.30267 0.75599 0.77544
 O1719 O 0.25933 0.80463 0.73750
 O1720 O 0.22516 0.80406 0.74627
 O1721 O 0.26391 0.76086 0.69787
 O1722 O 0.25086 0.72827 0.69882
 O1723 O 0.20673 0.75504 0.78501
 O1724 O 0.22181 0.78534 0.78884
 O1725 O 0.25330 0.71719 0.79424
 O1726 O 0.28461 0.71504 0.77876
 O1727 O 0.21558 0.70824 0.74764
 O1728 O 0.21440 0.72338 0.71616
 Zr1729 Zr 0.22084 0.73702 0.74211
 O1730 O 0.23708 0.75433 0.72416
 Zr1731 Zr 0.25884 0.72235 0.76548
 O1732 O 0.27667 0.73856 0.74803
 Zr1733 Zr 0.23563 0.76036 0.78010
 O1734 O 0.25285 0.77835 0.76375
 Zr1735 Zr 0.26422 0.74277 0.72145
 O1736 O 0.24747 0.72434 0.73804
 Zr1737 Zr 0.24139 0.78093 0.73650
 O1738 O 0.22313 0.76445 0.75349
 Zr1739 Zr 0.27943 0.76583 0.75941
 O1740 O 0.26302 0.74900 0.77800
 O1741 O 0.23192 0.73338 0.76912
 O1742 O 0.26833 0.76983 0.73246
 C1743 C 0.19390 0.74672 0.77520
 C1744 C 0.22572 0.69532 0.75528
 C1745 C 0.24530 0.72716 0.80709
 C1746 C 0.30530 0.75729 0.72460
 C1747 C 0.25656 0.77721 0.69535
 C1748 C 0.27578 0.80707 0.74467
 H1749 H 0.23076 0.75527 0.71173
 H1750 H 0.25392 0.79070 0.77018
 H1751 H 0.22385 0.72527 0.77718
 H1752 H 0.28898 0.73209 0.74678
 H1753 H 0.27217 0.70755 0.71629
 H1754 H 0.28022 0.70004 0.74626
 H1755 H 0.23126 0.80901 0.75784
 H1756 H 0.21322 0.78899 0.77843
 H1757 H 0.25939 0.72875 0.68772
 H1758 H 0.20273 0.71574 0.71778
 H1759 H 0.28020 0.78896 0.78782
 H1760 H 0.25843 0.77188 0.80602
 H1761 H 0.19520 0.76080 0.73167
 H1762 H 0.21327 0.78156 0.71296
 H1763 H 0.28699 0.72465 0.78865
 H1764 H 0.30766 0.74455 0.76918
 O1765 O 0.21429 0.20503 0.25178
 O1766 O 0.21153 0.21845 0.28143
 O1767 O 0.20712 0.25203 0.21379
 O1768 O 0.22097 0.27967 0.20802
 O1769 O 0.25356 0.21272 0.20574
 O1770 O 0.28322 0.20872 0.22076
 O1771 O 0.25849 0.30101 0.26252
 O1772 O 0.22780 0.30142 0.25247
 O1773 O 0.26302 0.25657 0.30195
 O1774 O 0.25494 0.22320 0.30196
 O1775 O 0.30301 0.26087 0.25816
 O1776 O 0.30346 0.25346 0.22501
 O1777 O 0.28466 0.29065 0.24690
 O1778 O 0.28858 0.27521 0.21509
 O1779 O 0.29262 0.24487 0.28404
 O1780 O 0.27689 0.21334 0.28729
 O1781 O 0.24790 0.28297 0.29157
 O1782 O 0.21559 0.28261 0.27788
 O1783 O 0.24066 0.19445 0.23659
 O1784 O 0.27375 0.19478 0.24487
 O1785 O 0.23797 0.23884 0.19531
 O1786 O 0.24784 0.27240 0.19684
 O1787 O 0.19659 0.23560 0.23938
 O1788 O 0.19802 0.24628 0.27265
 Zr1789 Zr 0.22036 0.23361 0.25718
 O1790 O 0.23694 0.25024 0.27546
 Zr1791 Zr 0.23600 0.25644 0.21921
 O1792 O 0.25267 0.27444 0.23604
 Zr1793 Zr 0.25851 0.21827 0.23451
 O1794 O 0.27662 0.23467 0.25154
 Zr1795 Zr 0.24116 0.27693 0.26326
 O1796 O 0.22300 0.26095 0.24562
 Zr1797 Zr 0.26413 0.23879 0.27814
 O1798 O 0.24683 0.22076 0.26169
 Zr1799 Zr 0.27927 0.26206 0.24030
 O1800 O 0.26321 0.24477 0.22181
 O1801 O 0.23180 0.22965 0.23038
 O1802 O 0.26820 0.26588 0.26730
 C1803 C 0.22423 0.19203 0.24394
 C1804 C 0.19414 0.24369 0.22335
 C1805 C 0.24561 0.22260 0.19279
 C1806 C 0.27493 0.30347 0.25529
 C1807 C 0.25608 0.27313 0.30440
 C1808 C 0.30544 0.25341 0.27449
 H1809 H 0.23048 0.25131 0.28779
 H1810 H 0.28896 0.22824 0.25250
 H1811 H 0.22371 0.22166 0.22222
 H1812 H 0.25358 0.28693 0.22984
 H1813 H 0.21583 0.29717 0.24660
 H1814 H 0.22361 0.29057 0.21634
 H1815 H 0.28768 0.21068 0.27881
 H1816 H 0.26871 0.19204 0.25763
 H1817 H 0.21697 0.29494 0.28440
 H1818 H 0.18642 0.23855 0.27105
 H1819 H 0.30670 0.24053 0.22920
 H1820 H 0.28759 0.21928 0.21268
 H1821 H 0.22245 0.21081 0.28564
 H1822 H 0.24241 0.22812 0.30570
 H1823 H 0.25975 0.26607 0.19317
 H1824 H 0.28026 0.28616 0.21263
 O1825 O 0.78613 0.70983 0.24649
 O1826 O 0.78876 0.72356 0.21690
 O1827 O 0.79359 0.75642 0.28490
 O1828 O 0.77984 0.78397 0.29110
 O1829 O 0.74705 0.71701 0.29264
 O1830 O 0.71726 0.71327 0.27767
 O1831 O 0.74220 0.80598 0.23686
 O1832 O 0.77289 0.80628 0.24696
 O1833 O 0.73751 0.76204 0.19698
 O1834 O 0.74529 0.72870 0.19653
 O1835 O 0.69754 0.76577 0.24107
 O1836 O 0.69723 0.75807 0.27409
 O1837 O 0.71605 0.79545 0.25246
 O1838 O 0.71225 0.77971 0.28417
 O1839 O 0.70779 0.75016 0.21492
 O1840 O 0.72341 0.71867 0.21119
 O1841 O 0.75284 0.78826 0.20761
 O1842 O 0.78508 0.78775 0.22135
 O1843 O 0.75974 0.69913 0.26162
 O1844 O 0.72664 0.69958 0.25336
 O1845 O 0.76279 0.74297 0.30333
 O1846 O 0.75296 0.77657 0.30225
 O1847 O 0.80396 0.74027 0.25908
 O1848 O 0.80247 0.75126 0.22594
 Zr1849 Zr 0.78011 0.73848 0.24136
 O1850 O 0.76354 0.75536 0.22335
 Zr1851 Zr 0.76470 0.76090 0.27965
 O1852 O 0.74805 0.77912 0.26310
 Zr1853 Zr 0.74199 0.72293 0.26397
 O1854 O 0.72389 0.73956 0.24720
 Zr1855 Zr 0.75948 0.78192 0.23587
 O1856 O 0.77763 0.76569 0.25326
 Zr1857 Zr 0.73630 0.74399 0.22060
 O1858 O 0.75358 0.72572 0.23677
 Zr1859 Zr 0.72139 0.76681 0.25877
 O1860 O 0.73743 0.74928 0.27701
 O1861 O 0.76875 0.73424 0.26814
 O1862 O 0.73238 0.77096 0.23177
 C1863 C 0.77617 0.69677 0.25425
 C1864 C 0.80649 0.74818 0.27520
 C1865 C 0.75513 0.72669 0.30567
 C1866 C 0.72576 0.80835 0.24414
 C1867 C 0.74462 0.77858 0.19468
 C1868 C 0.69501 0.75851 0.22466
 H1869 H 0.76999 0.75656 0.21101
 H1870 H 0.71152 0.73314 0.24622
 H1871 H 0.77685 0.72616 0.27618
 H1872 H 0.74719 0.79154 0.26943
 H1873 H 0.78486 0.80198 0.25277
 H1874 H 0.77717 0.79499 0.28295
 H1875 H 0.71267 0.71589 0.21969
 H1876 H 0.73165 0.69697 0.24057
 H1877 H 0.78377 0.80016 0.21498
 H1878 H 0.81403 0.74347 0.22740
 H1879 H 0.69399 0.74516 0.26985
 H1880 H 0.71305 0.72369 0.28600
 H1881 H 0.77782 0.71588 0.21274
 H1882 H 0.75793 0.73348 0.19296
 H1883 H 0.74105 0.77017 0.30589
 H1884 H 0.72058 0.79066 0.28667
 O1885 O 0.70852 0.24563 0.78542
 O1886 O 0.72206 0.21597 0.78803
 O1887 O 0.75536 0.28381 0.79270
 O1888 O 0.78301 0.28968 0.77889
 O1889 O 0.71599 0.29184 0.74634
 O1890 O 0.71200 0.27692 0.71658
 O1891 O 0.80442 0.23548 0.74108
 O1892 O 0.80487 0.24542 0.77180
 O1893 O 0.76009 0.19582 0.73648
 O1894 O 0.72678 0.19563 0.74455
 O1895 O 0.76411 0.23983 0.69659
 O1896 O 0.75663 0.27299 0.69632
 O1897 O 0.79394 0.25115 0.71497
 O1898 O 0.77843 0.28288 0.71116
 O1899 O 0.74825 0.21383 0.70691
 O1900 O 0.71680 0.21036 0.72269
 O1901 O 0.78649 0.20627 0.75163
 O1902 O 0.78618 0.21988 0.78395
 O1903 O 0.69787 0.26088 0.75910
 O1904 O 0.69813 0.25270 0.72598
 O1905 O 0.74210 0.30233 0.76193
 O1906 O 0.77562 0.30101 0.75204
 O1907 O 0.73905 0.25809 0.80313
 O1908 O 0.74987 0.22488 0.80159
 Zr1909 Zr 0.73710 0.24035 0.77930
 O1910 O 0.75376 0.22222 0.76263
 Zr1911 Zr 0.75978 0.27849 0.76379
 O1912 O 0.77778 0.26181 0.74703
 Zr1913 Zr 0.72162 0.26311 0.74124
 O1914 O 0.73802 0.24622 0.72306
 Zr1915 Zr 0.78039 0.23455 0.75843
 O1916 O 0.76440 0.25205 0.77668
 Zr1917 Zr 0.74225 0.21958 0.73544
 O1918 O 0.72421 0.23588 0.75282
 Zr1919 Zr 0.76536 0.25759 0.72042
 O1920 O 0.74806 0.27595 0.73658
 O1921 O 0.73305 0.26718 0.76796
 O1922 O 0.76930 0.23055 0.73138
 C1923 C 0.69550 0.25348 0.77552
 C1924 C 0.74705 0.27418 0.80564
 C1925 C 0.72583 0.30480 0.75435
 C1926 C 0.80682 0.24279 0.72465
 C1927 C 0.77666 0.19341 0.74343
 C1928 C 0.75668 0.22348 0.69410
 H1929 H 0.75488 0.20986 0.76906
 H1930 H 0.73155 0.24528 0.71072
 H1931 H 0.72505 0.27527 0.77608
 H1932 H 0.79024 0.26807 0.74612
 H1933 H 0.80064 0.25124 0.78379
 H1934 H 0.79395 0.28150 0.77606
 H1935 H 0.71407 0.21888 0.71195
 H1936 H 0.69543 0.23992 0.73099
 H1937 H 0.79853 0.21341 0.78255
 H1938 H 0.74214 0.22638 0.81319
 H1939 H 0.74372 0.26873 0.69307
 H1940 H 0.72250 0.28511 0.71228
 H1941 H 0.71435 0.21183 0.77712
 H1942 H 0.73168 0.19192 0.75709
 H1943 H 0.76928 0.30467 0.74012
 H1944 H 0.78934 0.28540 0.71953
 C1945 C 0.06228 1.00593 1.14770
 N1946 N 0.04646 0.99581 1.14387
 N1947 N 0.03866 0.99646 1.12674
 C1948 C 0.04645 1.00723 1.11294
 N1949 N 0.06225 1.01738 1.11678
 N1950 N 0.07005 1.01674 1.13391
 C1951 C 0.07120 1.00455 1.16585
 C1952 C 0.07907 1.00312 1.18088
 C1953 C 0.03845 1.00735 1.09432
 C1954 C 0.03180 1.00711 1.07865
 C1955 C 0.56204 0.50631 0.64809
 N1956 N 0.54663 0.49560 0.64416
 N1957 N 0.53882 0.49607 0.62704
 C1958 C 0.54619 0.50724 0.61332
 N1959 N 0.56158 0.51797 0.61725
 N1960 N 0.56939 0.51750 0.63437
 C1961 C 0.57098 0.50515 0.66623
 C1962 C 0.57887 0.50390 0.68127
 C1963 C 0.53816 0.50723 0.59471
 C1964 C 0.53145 0.50693 0.57906
 C1965 C 0.43772 -0.00097 0.64134
 N1966 N 0.44676 0.01451 0.63454
 N1967 N 0.45445 0.01427 0.61736
 C1968 C 0.45329 -0.00145 0.60644
 N1969 N 0.44428 -0.01694 0.61325
 N1970 N 0.43659 -0.01669 0.63044
 C1971 C 0.42872 -0.00045 0.65949
 C1972 C 0.42067 0.00002 0.67449
 C1973 C 0.46122 -0.00154 0.58779
 C1974 C 0.46786 -0.00144 0.57211
 C1975 C -0.06241 0.49880 1.14183
 N1976 N -0.05324 0.51421 1.13506
 N1977 N -0.04558 0.51395 1.11787
 C1978 C -0.04690 0.49828 1.10691
 N1979 N -0.05605 0.48286 1.11368
 N1980 N -0.06371 0.48312 1.13088
 C1981 C -0.07140 0.49936 1.15998
 C1982 C -0.07945 0.49986 1.17498
 C1983 C -0.03903 0.49818 1.08823
 C1984 C -0.03245 0.49830 1.07253
 C1985 C -0.06621 0.50688 0.35474
 N1986 N -0.04914 0.49878 0.35783
 N1987 N -0.04166 0.49861 0.37511
 C1988 C -0.05103 0.50651 0.38983
 N1989 N -0.06809 0.51464 0.38674
 N1990 N -0.07557 0.51481 0.36946
 C1991 C -0.07467 0.50631 0.33633
 C1992 C -0.08212 0.50549 0.32103
 C1993 C -0.04324 0.50574 0.40853
 C1994 C -0.03666 0.50478 0.42421
 C1995 C 0.43432 1.00771 -0.14467
 N1996 N 0.45177 1.00041 -0.14167
 N1997 N 0.45919 1.00028 -0.12437
 C1998 C 0.44939 1.00742 -0.10954
 N1999 N 0.43195 1.01475 -0.11255
 N2000 N 0.42453 1.01489 -0.12985
 C2001 C 0.42595 1.00706 -0.16313
 C2002 C 0.41858 1.00617 -0.17846
 C2003 C 0.45712 1.00663 -0.09082
 C2004 C 0.46367 1.00562 -0.07513
 C2005 C 0.56495 0.49076 -0.13901
 N2006 N 0.57288 0.48009 -0.12522
 N2007 N 0.56512 0.47934 -0.10808
 C2008 C 0.54919 0.48924 -0.10423
 N2009 N 0.54124 0.49989 -0.11803
 N2010 N 0.54900 0.50064 -0.13517
 C2011 C 0.57373 0.49210 -0.15722
 C2012 C 0.58150 0.49333 -0.17232
 C2013 C 0.54118 0.48898 -0.08562
 C2014 C 0.53444 0.48917 -0.06998
 C2015 C 0.06528 -0.00986 0.36057
 N2016 N 0.07304 -0.02062 0.37439
 N2017 N 0.06523 -0.02125 0.39152
 C2018 C 0.04944 -0.01112 0.39533
 N2019 N 0.04167 -0.00038 0.38150
 N2020 N 0.04947 0.00025 0.36438
 C2021 C 0.07410 -0.00867 0.34237
 C2022 C 0.08188 -0.00756 0.32727
 C2023 C 0.04139 -0.01126 0.41393
 C2024 C 0.03463 -0.01098 0.42955
 C2025 C 0.14233 1.06393 1.00597
 N2026 N 0.13621 1.05228 0.99205
 N2027 N 0.11904 1.04460 0.99290
 C2028 C 0.10746 1.04836 1.00769
 N2029 N 0.11359 1.05999 1.02164
 N2030 N 0.13077 1.06767 1.02078
 C2031 C 0.16047 1.07289 1.00466
 C2032 C 0.17547 1.08087 1.00350
 C2033 C 0.08875 1.04058 1.00826
 C2034 C 0.07299 1.03414 1.00843
 C2035 C 0.64182 0.56366 0.50616
 N2036 N 0.63567 0.55194 0.49230
 N2037 N 0.61846 0.54433 0.49319
 C2038 C 0.60688 0.54824 0.50795
 N2039 N 0.61305 0.55993 0.52183
 N2040 N 0.63026 0.56754 0.52094
 C2041 C 0.66000 0.57252 0.50481
 C2042 C 0.67504 0.58044 0.50363
 C2043 C 0.58815 0.54052 0.50857
 C2044 C 0.57238 0.53410 0.50878
 C2045 C 0.64393 0.43217 -0.00543
 N2046 N 0.62905 0.42210 -0.01214
 N2047 N 0.61172 0.42944 -0.01196
 C2048 C 0.60874 0.44706 -0.00504
 N2049 N 0.62363 0.45714 0.00164
 N2050 N 0.64096 0.44980 0.00146
 C2051 C 0.66244 0.42394 -0.00487
 C2052 C 0.67783 0.41670 -0.00406
 C2053 C 0.59001 0.45476 -0.00429
 C2054 C 0.57433 0.46131 -0.00335
 C2055 C 0.14419 -0.06769 0.49426
 N2056 N 0.12927 -0.07806 0.48811
 N2057 N 0.11191 -0.07079 0.48825
 C2058 C 0.10894 -0.05294 0.49456
 N2059 N 0.12387 -0.04257 0.50067
 N2060 N 0.14122 -0.04983 0.50054
 C2061 C 0.16273 -0.07582 0.49485
 C2062 C 0.17816 -0.08297 0.49570
 C2063 C 0.09019 -0.04529 0.49528
 C2064 C 0.07450 -0.03875 0.49619
 C2065 C 0.35819 -0.06120 0.50231
 N2066 N 0.36498 -0.05223 0.48679
 N2067 N 0.38213 -0.04443 0.48703
 C2068 C 0.39301 -0.04538 0.50277
 N2069 N 0.38621 -0.05432 0.51830
 N2070 N 0.36907 -0.06213 0.51806
 C2071 C 0.34013 -0.07039 0.50179
 C2072 C 0.32522 -0.07863 0.50131
 C2073 C 0.41166 -0.03741 0.50282
 C2074 C 0.42735 -0.03078 0.50265
 C2075 C -0.14230 0.43856 1.00298
 N2076 N -0.13572 0.44787 0.98758
 N2077 N -0.11859 0.45573 0.98777
 C2078 C -0.10752 0.45448 1.00336
 N2079 N -0.11411 0.44519 1.01878
 N2080 N -0.13123 0.43733 1.01858
 C2081 C -0.16034 0.42932 1.00247
 C2082 C -0.17523 0.42105 1.00200
 C2083 C -0.08889 0.46249 1.00336
 C2084 C -0.07321 0.46914 1.00314
 C2085 C -0.14540 0.56320 0.49019
 N2086 N -0.13038 0.57284 0.48316
 N2087 N -0.11331 0.56495 0.48283
 C2088 C -0.11073 0.54718 0.48953
 N2089 N -0.12575 0.53753 0.49651
 N2090 N -0.14283 0.54542 0.49685
 C2091 C -0.16357 0.57206 0.49138
 C2092 C -0.17864 0.57983 0.49274
 C2093 C -0.09223 0.53897 0.48995
 C2094 C -0.07670 0.53205 0.49073
 C2095 C 0.35470 1.06360 -0.01014
 N2096 N 0.36977 1.07311 -0.01721
 N2097 N 0.38680 1.06512 -0.01750
 C2098 C 0.38927 1.04737 -0.01071
 N2099 N 0.37419 1.03785 -0.00368
 N2100 N 0.35716 1.04584 -0.00339
 C2101 C 0.33659 1.07259 -0.00898
 C2102 C 0.32156 1.08045 -0.00764
 C2103 C 0.40773 1.03907 -0.01022
 C2104 C 0.42323 1.03209 -0.00937
 C2105 C 0.00428 1.14628 1.06476
 N2106 N 0.01600 1.13290 1.07188
 N2107 N 0.01611 1.11551 1.06465
 C2108 C 0.00449 1.11097 1.05011
 N2109 N -0.00721 1.12435 1.04297
 N2110 N -0.00732 1.14174 1.05020
 C2111 C 0.00361 1.16476 1.07306
 C2112 C 0.00280 1.18011 1.08040
 C2113 C 0.00426 1.09213 1.04262
 C2114 C 0.00385 1.07630 1.03633
 C2115 C 0.50425 0.64597 0.56591
 N2116 N 0.49267 0.64159 0.55128
 N2117 N 0.49267 0.62423 0.54398
 C2118 C 0.50422 0.61071 0.55111
 N2119 N 0.51582 0.61510 0.56572
 N2120 N 0.51582 0.63246 0.57302
 C2121 C 0.50370 0.66442 0.57428
 C2122 C 0.50296 0.67974 0.58168
 C2123 C 0.50387 0.59191 0.54353
 C2124 C 0.50339 0.57612 0.53717
 C2125 C -0.00883 0.64002 0.43431
 N2126 N 0.00072 0.63631 0.45050
 N2127 N 0.00011 0.61912 0.45818
 C2128 C -0.01007 0.60513 0.44991
 N2129 N -0.01965 0.60884 0.43374
 N2130 N -0.01904 0.62603 0.42606
 C2131 C -0.00761 0.65829 0.42562
 C2132 C -0.00646 0.67344 0.41790
 C2133 C -0.01017 0.58648 0.45785
 C2134 C -0.00984 0.57082 0.46456
 C2135 C 0.49276 1.14019 -0.06585
 N2136 N 0.50296 1.13625 -0.05012
 N2137 N 0.50230 1.11908 -0.04241
 C2138 C 0.49144 1.10533 -0.05021
 N2139 N 0.48122 1.10928 -0.06592
 N2140 N 0.48188 1.12645 -0.07362
 C2141 C 0.49398 1.15845 -0.07457
 C2142 C 0.49512 1.17359 -0.08230
 C2143 C 0.49123 1.08669 -0.04223
 C2144 C 0.49141 1.07105 -0.03550
 C2145 C 0.50981 0.35310 -0.06241
 N2146 N 0.51716 0.36815 -0.07175
 N2147 N 0.51746 0.38517 -0.06369
 C2148 C 0.51041 0.38766 -0.04605
 N2149 N 0.50310 0.37260 -0.03670
 N2150 N 0.50280 0.35558 -0.04475
 C2151 C 0.50860 0.33501 -0.07149
 C2152 C 0.50720 0.32002 -0.07946
 C2153 C 0.50991 0.40613 -0.03771
 C2154 C 0.50902 0.42164 -0.03071
 C2155 C 0.00923 -0.14694 0.43743
 N2156 N 0.00235 -0.14438 0.45512
 N2157 N 0.00277 -0.12733 0.46313
 C2158 C 0.01008 -0.11233 0.45368
 N2159 N 0.01700 -0.11490 0.43600
 N2160 N 0.01658 -0.13195 0.42800
 C2161 C 0.00789 -0.16506 0.42842
 C2162 C 0.00639 -0.18007 0.42050
 C2163 C 0.00971 -0.09383 0.46197
 C2164 C 0.00893 -0.07831 0.46893
 C2165 C 0.49749 -0.14037 0.56216
 N2166 N 0.51309 -0.13349 0.55340
 N2167 N 0.51286 -0.11635 0.54558
 C2168 C 0.49705 -0.10558 0.54633
 N2169 N 0.48145 -0.11247 0.55507
 N2170 N 0.48167 -0.12960 0.56288
 C2171 C 0.49798 -0.15845 0.57130
 C2172 C 0.49842 -0.17340 0.57944
 C2173 C 0.49698 -0.08697 0.53830
 C2174 C 0.49709 -0.07131 0.53161
 C2175 C -0.00269 0.35931 1.06188
 N2176 N 0.01299 0.36642 1.05344
 N2177 N 0.01270 0.38358 1.04570
 C2178 C -0.00326 0.39416 1.04620
 N2179 N -0.01894 0.38704 1.05461
 N2180 N -0.01865 0.36988 1.06235
 C2181 C -0.00214 0.34120 1.07097
 C2182 C -0.00167 0.32624 1.07909
 C2183 C -0.00341 0.41281 1.03825
 C2184 C -0.00334 0.42850 1.03164
 C2185 C 0.75800 0.31490 0.10592
 N2186 N 0.74633 0.30028 0.11014
 N2187 N 0.74639 0.29272 0.12739
 C2188 C 0.75809 0.29958 0.14094
 N2189 N 0.76977 0.31418 0.13672
 N2190 N 0.76972 0.32174 0.11947
 C2191 C 0.75739 0.32358 0.08762
 C2192 C 0.75673 0.33134 0.07246
 C2193 C 0.75773 0.29177 0.15965
 C2194 C 0.75710 0.28516 0.17533
 C2195 C 0.25900 0.81495 0.60740
 N2196 N 0.24889 0.79909 0.61110
 N2197 N 0.24895 0.79157 0.62836
 C2198 C 0.25911 0.79970 0.64245
 N2199 N 0.26924 0.81555 0.63874
 N2200 N 0.26918 0.82307 0.62148
 C2201 C 0.25834 0.82352 0.58904
 C2202 C 0.25762 0.83115 0.57383
 C2203 C 0.25867 0.79191 0.66115
 C2204 C 0.25792 0.78530 0.67683
 C2205 C 0.74532 0.68621 0.60594
 N2206 N 0.73038 0.68336 0.61760
 N2207 N 0.73015 0.69096 0.63482
 C2208 C 0.74488 0.70162 0.64090
 N2209 N 0.75981 0.70450 0.62924
 N2210 N 0.76004 0.69689 0.61202
 C2211 C 0.74590 0.67735 0.58774
 C2212 C 0.74645 0.66946 0.57266
 C2213 C 0.74489 0.70941 0.65960
 C2214 C 0.74514 0.71589 0.67534
 C2215 C 0.24570 0.18549 0.10454
 N2216 N 0.23031 0.18339 0.11576
 N2217 N 0.23002 0.19091 0.13302
 C2218 C 0.24513 0.20071 0.13959
 N2219 N 0.26051 0.20283 0.12836
 N2220 N 0.26080 0.19531 0.11110
 C2221 C 0.24631 0.17670 0.08630
 C2222 C 0.24686 0.16885 0.07120
 C2223 C 0.24502 0.20842 0.15833
 C2224 C 0.24515 0.21486 0.17408
 C2225 C 0.25471 0.18828 0.89282
 N2226 N 0.26677 0.18170 0.87947
 N2227 N 0.26717 0.18946 0.86232
 C2228 C 0.25552 0.20403 0.85800
 N2229 N 0.24348 0.21063 0.87136
 N2230 N 0.24307 0.20287 0.88851
 C2231 C 0.25373 0.17940 0.91101
 C2232 C 0.25268 0.17158 0.92610
 C2233 C 0.25553 0.21203 0.83938
 C2234 C 0.25528 0.21869 0.82372
 C2235 C 0.75495 0.68776 0.39312
 N2236 N 0.76672 0.68097 0.37962
 N2237 N 0.76719 0.68885 0.36253
 C2238 C 0.75590 0.70376 0.35843
 N2239 N 0.74415 0.71058 0.37194
 N2240 N 0.74368 0.70269 0.38903
 C2241 C 0.75389 0.67877 0.41125
 C2242 C 0.75277 0.67087 0.42629
 C2243 C 0.75595 0.71189 0.33987
 C2244 C 0.75572 0.71865 0.32425
 C2245 C 0.24612 0.81231 0.39353
 N2246 N 0.23415 0.81908 0.38019
 N2247 N 0.23368 0.81141 0.36300
 C2248 C 0.24520 0.79676 0.35862
 N2249 N 0.25715 0.78997 0.37196
 N2250 N 0.25762 0.79763 0.38915
 C2251 C 0.24719 0.82110 0.41177
 C2252 C 0.24834 0.82887 0.42688
 C2253 C 0.24511 0.78884 0.33995
 C2254 C 0.24528 0.78221 0.32426
 C2255 C 0.74691 0.31200 0.89365
 N2256 N 0.73427 0.31803 0.88057
 N2257 N 0.73397 0.31039 0.86336
 C2258 C 0.74633 0.29653 0.85870
 N2259 N 0.75895 0.29048 0.87178
 N2260 N 0.75925 0.29812 0.88899
 C2261 C 0.74776 0.32079 0.91191
 C2262 C 0.74873 0.32855 0.92705
 C2263 C 0.74635 0.28864 0.84001
 C2264 C 0.74657 0.28206 0.82431
 C2265 C 0.81392 0.39474 0.24199
 N2266 N 0.82070 0.38125 0.23019
 N2267 N 0.81311 0.36401 0.23004
 C2268 C 0.79852 0.35973 0.24169
 N2269 N 0.79172 0.37323 0.25347
 N2270 N 0.79931 0.39047 0.25363
 C2271 C 0.82265 0.41303 0.24271
 C2272 C 0.83044 0.42817 0.24345
 C2273 C 0.79068 0.34102 0.24197
 C2274 C 0.78407 0.32533 0.24256
 C2275 C 0.31406 0.89487 0.74240
 N2276 N 0.32068 0.88130 0.73060
 N2277 N 0.31300 0.86409 0.73057
 C2278 C 0.29849 0.85993 0.74237
 N2279 N 0.29186 0.87351 0.75416
 N2280 N 0.29953 0.89071 0.75418
 C2281 C 0.32286 0.91313 0.74295
 C2282 C 0.33069 0.92825 0.74356
 C2283 C 0.29056 0.84127 0.74278
 C2284 C 0.28388 0.82561 0.74344
 C2285 C 0.18657 0.89237 0.25517
 N2286 N 0.19607 0.88594 0.23984
 N2287 N 0.20382 0.86879 0.23996
 C2288 C 0.20226 0.85754 0.25540
 N2289 N 0.19277 0.86398 0.27074
 N2290 N 0.18503 0.88114 0.27062
 C2291 C 0.17751 0.91048 0.25476
 C2292 C 0.16943 0.92546 0.25437
 C2293 C 0.21015 0.83889 0.25531
 C2294 C 0.21670 0.82318 0.25502
 C2295 C 0.68779 0.39261 0.75543
 N2296 N 0.69686 0.38606 0.73989
 N2297 N 0.70461 0.36891 0.73992
 C2298 C 0.70348 0.35778 0.75547
 N2299 N 0.69442 0.36433 0.77103
 N2300 N 0.68668 0.38148 0.77100
 C2301 C 0.67872 0.41071 0.75513
 C2302 C 0.67063 0.42568 0.75483
 C2303 C 0.71140 0.33914 0.75531
 C2304 C 0.71798 0.32345 0.75499
 C2305 C 0.68605 0.60561 0.74631
 N2306 N 0.67833 0.61936 0.73543
 N2307 N 0.68608 0.63653 0.73482
 C2308 C 0.70178 0.64046 0.74509
 N2309 N 0.70951 0.62670 0.75594
 N2310 N 0.70176 0.60953 0.75655
 C2311 C 0.67728 0.58736 0.74750
 C2312 C 0.66960 0.57220 0.74873
 C2313 C 0.70982 0.65908 0.74488
 C2314 C 0.71654 0.67473 0.74498
 C2315 C 0.18640 0.10402 0.24490
 N2316 N 0.17830 0.11780 0.23434
 N2317 N 0.18593 0.13500 0.23361
 C2318 C 0.20190 0.13896 0.24345
 N2319 N 0.21002 0.12518 0.25399
 N2320 N 0.20238 0.10797 0.25472
 C2321 C 0.17773 0.08574 0.24628
 C2322 C 0.17011 0.07055 0.24767
 C2323 C 0.20978 0.15765 0.24321
 C2324 C 0.21636 0.17336 0.24335
 C2325 C 0.31344 0.10851 0.75414
 N2326 N 0.29852 0.11274 0.74288
 N2327 N 0.29093 0.12996 0.74323
 C2328 C 0.29804 0.14348 0.75481
 N2329 N 0.31293 0.13925 0.76609
 N2330 N 0.32053 0.12203 0.76575
 C2331 C 0.32215 0.09025 0.75317
 C2332 C 0.32983 0.07510 0.75207
 C2333 C 0.29020 0.16217 0.75475
 C2334 C 0.28363 0.17787 0.75445
 C2335 C 0.81358 0.60864 0.25455
 N2336 N 0.79870 0.61292 0.24328
 N2337 N 0.79118 0.63018 0.24360
 C2338 C 0.79834 0.64368 0.25517
 N2339 N 0.81321 0.63939 0.26647
 N2340 N 0.82072 0.62214 0.26614
 C2341 C 0.82221 0.59033 0.25360
 C2342 C 0.82984 0.57515 0.25252
 C2343 C 0.79056 0.66239 0.25512
 C2344 C 0.78402 0.67812 0.25484
 C2345 C 0.89284 0.26045 0.18520
 N2346 N 0.88919 0.25000 0.20084
 N2347 N 0.87203 0.25011 0.20857
 C2348 C 0.85800 0.26064 0.20089
 N2349 N 0.86166 0.27112 0.18527
 N2350 N 0.87882 0.27102 0.17754
 C2351 C 0.91107 0.25973 0.17638
 C2352 C 0.92615 0.25896 0.16853
 C2353 C 0.83937 0.26020 0.20885
 C2354 C 0.82375 0.25944 0.21557
 C2355 C 0.39306 0.75953 0.68645
 N2356 N 0.38895 0.74791 0.70112
 N2357 N 0.37175 0.74795 0.70877
 C2358 C 0.35815 0.75960 0.70197
 N2359 N 0.36227 0.77124 0.68732
 N2360 N 0.37947 0.77120 0.67967
 C2361 C 0.41131 0.75893 0.67766
 C2362 C 0.42641 0.75827 0.66984
 C2363 C 0.33949 0.75920 0.70987
 C2364 C 0.32383 0.75853 0.71653
 C2365 C 0.39400 0.24726 0.81227
 N2366 N 0.38368 0.23112 0.81159
 N2367 N 0.36647 0.23111 0.80394
 C2368 C 0.35906 0.24726 0.79679
 N2369 N 0.36940 0.26340 0.79745
 N2370 N 0.38661 0.26341 0.80509
 C2371 C 0.41218 0.24743 0.82123
 C2372 C 0.42722 0.24758 0.82921
 C2373 C 0.34039 0.24737 0.78892
 C2374 C 0.32468 0.24759 0.78237
 C2375 C 0.89440 0.74727 0.31316
 N2376 N 0.88405 0.73113 0.31244
 N2377 N 0.86688 0.73114 0.30472
 C2378 C 0.85952 0.74729 0.29752
 N2379 N 0.86988 0.76342 0.29821
 N2380 N 0.88705 0.76341 0.30593
 C2381 C 0.91252 0.74743 0.32222
 C2382 C 0.92752 0.74757 0.33029
 C2383 C 0.84087 0.74742 0.28960
 C2384 C 0.82517 0.74767 0.28303
 C2385 C 0.10617 0.75267 0.31323
 N2386 N 0.11830 0.76694 0.31737
 N2387 N 0.13552 0.76734 0.30977
 C2388 C 0.14114 0.75346 0.29783
 N2389 N 0.12901 0.73920 0.29367
 N2390 N 0.11179 0.73880 0.30127
 C2391 C 0.08790 0.75185 0.32196
 C2392 C 0.07271 0.75094 0.32962
 C2393 C 0.15982 0.75362 0.28996
 C2394 C 0.17552 0.75350 0.28335
 C2395 C 0.60752 0.25358 0.81330
 N2396 N 0.62080 0.26572 0.81993
 N2397 N 0.63803 0.26609 0.81233
 C2398 C 0.64249 0.25432 0.79789
 N2399 N 0.62920 0.24220 0.79125
 N2400 N 0.61198 0.24183 0.79884
 C2401 C 0.58922 0.25266 0.82197
 C2402 C 0.57403 0.25165 0.82959
 C2403 C 0.66117 0.25434 0.79003
 C2404 C 0.67687 0.25409 0.78344
 C2405 C 0.60663 0.74586 0.68663
 N2406 N 0.61085 0.75658 0.70195
 N2407 N 0.62807 0.75601 0.70953
 C2408 C 0.64160 0.74474 0.70201
 N2409 N 0.63738 0.73400 0.68671
 N2410 N 0.62015 0.73456 0.67912
 C2411 C 0.58835 0.74707 0.67797
 C2412 C 0.57318 0.74836 0.67033
 C2413 C 0.66029 0.74456 0.70986
 C2414 C 0.67600 0.74466 0.71644
 C2415 C 0.10615 0.24521 0.18560
 N2416 N 0.11039 0.25570 0.20108
 N2417 N 0.12759 0.25495 0.20869
 C2418 C 0.14109 0.24371 0.20104
 N2419 N 0.13685 0.23320 0.18559
 N2420 N 0.11964 0.23395 0.17798
 C2421 C 0.08790 0.24663 0.17691
 C2422 C 0.07277 0.24807 0.16924
 C2423 C 0.15977 0.24338 0.20890
 C2424 C 0.17548 0.24337 0.21547
 C2425 C -0.06473 0.99550 0.86074
 N2426 N -0.04767 1.00341 0.86441
 N2427 N -0.04026 1.00247 0.88170
 C2428 C -0.04969 0.99357 0.89583
 N2429 N -0.06675 0.98564 0.89216
 N2430 N -0.07415 0.98658 0.87487
 C2431 C -0.07304 0.99700 0.84231
 C2432 C -0.08048 0.99828 0.82704
 C2433 C -0.04203 0.99325 0.91460
 C2434 C -0.03552 0.99351 0.93034
 C2435 C 0.43388 0.49557 0.36157
 N2436 N 0.45048 0.50438 0.36535
 N2437 N 0.45802 0.50349 0.38258
 C2438 C 0.44919 0.49377 0.39655
 N2439 N 0.43260 0.48494 0.39277
 N2440 N 0.42507 0.48582 0.37554
 C2441 C 0.42541 0.49698 0.34321
 C2442 C 0.41786 0.49814 0.32798
 C2443 C 0.45698 0.49345 0.41527
 C2444 C 0.46359 0.49370 0.43096
 C2445 C 0.56633 0.00603 0.35483
 N2446 N 0.55500 -0.00806 0.36118
 N2447 N 0.54726 -0.00705 0.37832
 C2448 C 0.55062 0.00808 0.38961
 N2449 N 0.56194 0.02218 0.38326
 N2450 N 0.56968 0.02117 0.36612
 C2451 C 0.57502 0.00484 0.33655
 C2452 C 0.58268 0.00416 0.32134
 C2453 C 0.54261 0.00888 0.40823
 C2454 C 0.53588 0.00907 0.42387
 C2455 C 0.06539 0.50604 0.85501
 N2456 N 0.05162 0.49377 0.86025
 N2457 N 0.04391 0.49489 0.87739
 C2458 C 0.04971 0.50831 0.88980
 N2459 N 0.06348 0.52058 0.88455
 N2460 N 0.07119 0.51946 0.86741
 C2461 C 0.07398 0.50469 0.83669
 C2462 C 0.08156 0.50386 0.82146
 C2463 C 0.04176 0.50911 0.90843
 C2464 C 0.03508 0.50926 0.92410
 C2465 C 0.05790 0.49645 0.64276
 N2466 N 0.06030 0.48063 0.63221
 N2467 N 0.05232 0.47919 0.61521
 C2468 C 0.04170 0.49352 0.60825
 N2469 N 0.03927 0.50932 0.61883
 N2470 N 0.04725 0.51077 0.63582
 C2471 C 0.06734 0.49837 0.66060
 C2472 C 0.07581 0.49992 0.67530
 C2473 C 0.03386 0.49240 0.58959
 C2474 C 0.02752 0.49191 0.57379
 C2475 C 0.55814 0.99651 0.14357
 N2476 N 0.56085 0.98091 0.13277
 N2477 N 0.55281 0.97952 0.11580
 C2478 C 0.54180 0.99369 0.10912
 N2479 N 0.53905 1.00927 0.11993
 N2480 N 0.54710 1.01067 0.13690
 C2481 C 0.56766 0.99841 0.16137
 C2482 C 0.57620 0.99997 0.17603
 C2483 C 0.53391 0.99266 0.09047
 C2484 C 0.52754 0.99227 0.07468
 C2485 C 0.43788 0.49656 0.14811
 N2486 N 0.44628 0.51260 0.14179
 N2487 N 0.45403 0.51321 0.12464
 C2488 C 0.45356 0.49779 0.11326
 N2489 N 0.44518 0.48174 0.11958
 N2490 N 0.43743 0.48114 0.13673
 C2491 C 0.42874 0.49622 0.16621
 C2492 C 0.42063 0.49631 0.18119
 C2493 C 0.46151 0.49853 0.09461
 C2494 C 0.46803 0.49890 0.07888
 C2495 C -0.06107 -0.00319 0.64798
 N2496 N -0.05150 0.01236 0.64210
 N2497 N -0.04391 0.01295 0.62488
 C2498 C -0.04570 -0.00198 0.61300
 N2499 N -0.05524 -0.01754 0.61889
 N2500 N -0.06284 -0.01813 0.63611
 C2501 C -0.07006 -0.00342 0.66616
 C2502 C -0.07807 -0.00319 0.68120
 C2503 C -0.03788 -0.00124 0.59430
 C2504 C -0.03145 -0.00085 0.57853
 C2505 C -0.14559 0.93851 0.99914
 N2506 N -0.13653 0.94301 1.01541
 N2507 N -0.11937 0.95077 1.01493
 C2508 C -0.11073 0.95422 0.99817
 N2509 N -0.11979 0.94974 0.98190
 N2510 N -0.13696 0.94198 0.98238
 C2511 C -0.16375 0.92947 0.99962
 C2512 C -0.17879 0.92146 0.99972
 C2513 C -0.09209 0.96222 0.99774
 C2514 C -0.07639 0.96886 0.99778
 C2515 C 0.35398 0.43802 0.49917
 N2516 N 0.36304 0.44224 0.51552
 N2517 N 0.38016 0.45009 0.51517
 C2518 C 0.38876 0.45393 0.49847
 N2519 N 0.37970 0.44972 0.48212
 N2520 N 0.36257 0.44187 0.48247
 C2521 C 0.33587 0.42889 0.49950
 C2522 C 0.32086 0.42080 0.49947
 C2523 C 0.40736 0.46202 0.49817
 C2524 C 0.42303 0.46871 0.49829
 C2525 C 0.35642 0.55722 0.00446
 N2526 N 0.36714 0.55989 0.02013
 N2527 N 0.38409 0.55185 0.02157
 C2528 C 0.39084 0.54089 0.00738
 N2529 N 0.38010 0.53819 -0.00826
 N2530 N 0.36315 0.54623 -0.00971
 C2531 C 0.33861 0.56669 0.00254
 C2532 C 0.32393 0.57517 0.00100
 C2533 C 0.40945 0.53295 0.00850
 C2534 C 0.42520 0.52650 0.00897
 C2535 C -0.14287 0.05828 0.50413
 N2536 N -0.13196 0.06121 0.51961
 N2537 N -0.11508 0.05301 0.52108
 C2538 C -0.10861 0.04163 0.50710
 N2539 N -0.11954 0.03866 0.49164
 N2540 N -0.13641 0.04686 0.49017
 C2541 C -0.16060 0.06789 0.50216
 C2542 C -0.17522 0.07647 0.50058
 C2543 C -0.09006 0.03354 0.50821
 C2544 C -0.07436 0.02698 0.50866
 C2545 C 0.64526 0.06619 0.49443
 N2546 N 0.63939 0.05368 0.50772
 N2547 N 0.62223 0.04598 0.50664
 C2548 C 0.61042 0.05054 0.49224
 N2549 N 0.61630 0.06303 0.47895
 N2550 N 0.63346 0.07073 0.48003
 C2551 C 0.66357 0.07482 0.49574
 C2552 C 0.67880 0.08243 0.49655
 C2553 C 0.59177 0.04260 0.49143
 C2554 C 0.57608 0.03595 0.49123
 C2555 C 0.14494 0.56557 0.99480
 N2556 N 0.13870 0.55367 1.00846
 N2557 N 0.12148 0.54610 1.00738
 C2558 C 0.10998 0.55020 0.99261
 N2559 N 0.11622 0.56209 0.97893
 N2560 N 0.13344 0.56966 0.98002
 C2561 C 0.16330 0.57409 0.99611
 C2562 C 0.17858 0.58162 0.99691
 C2563 C 0.09127 0.54239 0.99175
 C2564 C 0.07555 0.53582 0.99152
 C2565 C 0.14072 0.43544 0.50039
 N2566 N 0.12955 0.43166 0.51550
 N2567 N 0.11225 0.43898 0.51665
 C2568 C 0.10560 0.45030 0.50270
 N2569 N 0.11678 0.45410 0.48760
 N2570 N 0.13407 0.44677 0.48645
 C2571 C 0.15903 0.42692 0.49885
 C2572 C 0.17419 0.41928 0.49764
 C2573 C 0.08680 0.45779 0.50362
 C2574 C 0.07100 0.46409 0.50397
 C2575 C 0.64099 0.93640 0.00108
 N2576 N 0.63016 0.93337 0.01660
 N2577 N 0.61284 0.94067 0.01771
 C2578 C 0.60583 0.95119 0.00333
 N2579 N 0.61667 0.95424 -0.01218
 N2580 N 0.63399 0.94695 -0.01330
 C2581 C 0.65930 0.92788 -0.00042
 C2582 C 0.67445 0.92021 -0.00159
 C2583 C 0.58701 0.95862 0.00424
 C2584 C 0.57118 0.96486 0.00461
 C2585 C -0.00599 0.85789 0.94099
 N2586 N 0.00566 0.86265 0.95545
 N2587 N 0.00441 0.87963 0.96350
 C2588 C -0.00852 0.89236 0.95735
 N2589 N -0.02018 0.88759 0.94292
 N2590 N -0.01894 0.87061 0.93487
 C2591 C -0.00408 0.83998 0.93168
 C2592 C -0.00246 0.82520 0.92336
 C2593 C -0.00913 0.91097 0.96536
 C2594 C -0.00906 0.92669 0.97193
 C2595 C 0.49346 0.35830 0.44057
 N2596 N 0.50529 0.36303 0.45488
 N2597 N 0.50401 0.37992 0.46311
 C2598 C 0.49088 0.39259 0.45729
 N2599 N 0.47903 0.38784 0.44300
 N2600 N 0.48030 0.37095 0.43477
 C2601 C 0.49539 0.34050 0.43106
 C2602 C 0.49701 0.32581 0.42258
 C2603 C 0.49024 0.41113 0.46547
 C2604 C 0.49030 0.42680 0.47215
 C2605 C -0.00155 0.35256 0.56124
 N2606 N 0.01448 0.35897 0.55289
 N2607 N 0.01499 0.37609 0.54504
 C2608 C -0.00051 0.38734 0.54535
 N2609 N -0.01654 0.38091 0.55367
 N2610 N -0.01705 0.36379 0.56152
 C2611 C -0.00178 0.33449 0.57048
 C2612 C -0.00159 0.31955 0.57867
 C2613 C 0.00012 0.40596 0.53732
 C2614 C 0.00041 0.42168 0.53075
 C2615 C 0.49800 0.85328 0.06211
 N2616 N 0.51386 0.85939 0.05323
 N2617 N 0.51447 0.87654 0.04547
 C2618 C 0.49926 0.88814 0.04641
 N2619 N 0.48340 0.88202 0.05527
 N2620 N 0.48278 0.86487 0.06302
 C2621 C 0.49767 0.83516 0.07123
 C2622 C 0.49778 0.82016 0.07931
 C2623 C 0.50001 0.90676 0.03840
 C2624 C 0.50039 0.92247 0.03180
 C2625 C 0.49813 0.63979 0.06499
 N2626 N 0.48300 0.62858 0.06864
 N2627 N 0.48197 0.61124 0.06134
 C2628 C 0.49605 0.60459 0.05020
 N2629 N 0.51116 0.61582 0.04654
 N2630 N 0.51220 0.63315 0.05383
 C2631 C 0.49954 0.65816 0.07348
 C2632 C 0.50066 0.67336 0.08109
 C2633 C 0.49524 0.58575 0.04274
 C2634 C 0.49495 0.56991 0.03647
 C2635 C -0.00117 0.14008 0.56431
 N2636 N 0.01312 0.13321 0.55356
 N2637 N 0.01207 0.11585 0.54632
 C2638 C -0.00327 0.10482 0.54963
 N2639 N -0.01757 0.11170 0.56036
 N2640 N -0.01652 0.12906 0.56760
 C2641 C 0.00025 0.15847 0.57274
 C2642 C 0.00136 0.17369 0.58031
 C2643 C -0.00412 0.08597 0.54221
 C2644 C -0.00445 0.07012 0.53596
 C2645 C 0.50455 0.14610 0.43371
 N2646 N 0.49092 0.13991 0.44567
 N2647 N 0.49203 0.12273 0.45332
 C2648 C 0.50680 0.11123 0.44924
 N2649 N 0.52044 0.11743 0.43730
 N2650 N 0.51933 0.13461 0.42965
 C2651 C 0.50320 0.16441 0.42512
 C2652 C 0.50236 0.17964 0.41753
 C2653 C 0.50769 0.09257 0.45713
 C2654 C 0.50793 0.07689 0.46377
 C2655 C 0.00408 0.64641 0.93476
 N2656 N 0.02064 0.63678 0.93478
 N2657 N 0.02164 0.61954 0.94229
 C2658 C 0.00609 0.61139 0.94998
 N2659 N -0.01047 0.62103 0.94998
 N2660 N -0.01147 0.63827 0.94247
 C2661 C 0.00294 0.66475 0.92618
 C2662 C 0.00231 0.68000 0.91860
 C2663 C 0.00699 0.59269 0.95779
 C2664 C 0.00726 0.57698 0.96436
 C2665 C 0.24947 0.68907 0.89482
 N2666 N 0.23365 0.68674 0.88425
 N2667 N 0.23227 0.69471 0.86725
 C2668 C 0.24670 0.70525 0.86029
 N2669 N 0.26251 0.70761 0.87087
 N2670 N 0.26388 0.69964 0.88787
 C2671 C 0.25127 0.67971 0.91271
 C2672 C 0.25266 0.67134 0.92748
 C2673 C 0.24561 0.71317 0.84166
 C2674 C 0.24515 0.71962 0.82590
 C2675 C 0.75021 0.18971 0.39361
 N2676 N 0.73415 0.18767 0.38335
 N2677 N 0.73268 0.19548 0.36628
 C2678 C 0.74724 0.20556 0.35894
 N2679 N 0.76329 0.20763 0.36922
 N2680 N 0.76476 0.19982 0.38629
 C2681 C 0.75208 0.18052 0.41159
 C2682 C 0.75353 0.17229 0.42643
 C2683 C 0.74601 0.21333 0.34026
 C2684 C 0.74541 0.21969 0.32447
 C2685 C 0.25451 0.31147 0.39208
 N2686 N 0.24359 0.29635 0.38763
 N2687 N 0.24466 0.28853 0.37054
 C2688 C 0.25667 0.29559 0.35737
 N2689 N 0.26762 0.31068 0.36183
 N2690 N 0.26655 0.31850 0.37892
 C2691 C 0.25279 0.32045 0.41017
 C2692 C 0.25130 0.32850 0.42510
 C2693 C 0.25716 0.28767 0.33871
 C2694 C 0.25702 0.28106 0.32302
 C2695 C 0.75495 0.81168 0.89345
 N2696 N 0.74353 0.79703 0.88869
 N2697 N 0.74472 0.78919 0.87162
 C2698 C 0.75735 0.79577 0.85878
 N2699 N 0.76879 0.81039 0.86354
 N2700 N 0.76760 0.81823 0.88062
 C2701 C 0.75310 0.82074 0.91148
 C2702 C 0.75152 0.82887 0.92636
 C2703 C 0.75796 0.78788 0.84011
 C2704 C 0.75792 0.78131 0.82440
 C2705 C 0.74647 0.81629 0.10668
 N2706 N 0.72959 0.81161 0.11446
 N2707 N 0.72877 0.80415 0.13174
 C2708 C 0.74482 0.80119 0.14177
 N2709 N 0.76170 0.80586 0.13397
 N2710 N 0.76252 0.81331 0.11670
 C2711 C 0.74728 0.82486 0.08832
 C2712 C 0.74770 0.83243 0.07306
 C2713 C 0.74404 0.79329 0.16042
 C2714 C 0.74392 0.78662 0.17610
 C2715 C 0.24605 0.31525 0.60564
 N2716 N 0.22913 0.31109 0.61364
 N2717 N 0.22830 0.30370 0.63095
 C2718 C 0.24438 0.30030 0.64079
 N2719 N 0.26129 0.30445 0.63279
 N2720 N 0.26212 0.31184 0.61548
 C2721 C 0.24689 0.32378 0.58726
 C2722 C 0.24732 0.33133 0.57199
 C2723 C 0.24359 0.29250 0.65950
 C2724 C 0.24346 0.28592 0.67521
 C2725 C 0.75532 0.18535 0.60623
 N2726 N 0.77168 0.18539 0.61622
 N2727 N 0.77237 0.19309 0.63340
 C2728 C 0.75672 0.20097 0.64110
 N2729 N 0.74036 0.20095 0.63110
 N2730 N 0.73967 0.19324 0.61393
 C2731 C 0.75449 0.17653 0.58798
 C2732 C 0.75407 0.16877 0.57282
 C2733 C 0.75729 0.20893 0.65975
 C2734 C 0.75733 0.21557 0.67544
 C2735 C 0.25445 0.68382 0.10686
 N2736 N 0.26983 0.68147 0.11804
 N2737 N 0.27053 0.68936 0.13513
 C2738 C 0.25586 0.69986 0.14154
 N2739 N 0.24048 0.70223 0.13035
 N2740 N 0.23978 0.69433 0.11327
 C2741 C 0.25356 0.67491 0.08867
 C2742 C 0.25309 0.66707 0.07354
 C2743 C 0.25634 0.70799 0.16012
 C2744 C 0.25629 0.71478 0.17574
 C2745 C 0.18841 0.60724 0.75027
 N2746 N 0.18623 0.61753 0.76629
 N2747 N 0.19401 0.63463 0.76780
 C2748 C 0.20420 0.64195 0.75332
 N2749 N 0.20642 0.63165 0.73732
 N2750 N 0.19864 0.61455 0.73581
 C2751 C 0.17927 0.58924 0.74836
 C2752 C 0.17108 0.57436 0.74687
 C2753 C 0.21195 0.66066 0.75460
 C2754 C 0.21829 0.67646 0.75522
 C2755 C 0.68808 0.10713 0.24986
 N2756 N 0.68592 0.11751 0.26582
 N2757 N 0.69366 0.13464 0.26720
 C2758 C 0.70379 0.14190 0.25264
 N2759 N 0.70598 0.13150 0.23669
 N2760 N 0.69824 0.11437 0.23531
 C2761 C 0.67899 0.08908 0.24809
 C2762 C 0.67084 0.07417 0.24674
 C2763 C 0.71154 0.16061 0.25378
 C2764 C 0.71791 0.17641 0.25430
 C2765 C 0.81453 0.10559 0.74582
 N2766 N 0.79829 0.10964 0.75513
 N2767 N 0.79063 0.12678 0.75383
 C2768 C 0.79895 0.14038 0.74317
 N2769 N 0.81517 0.13632 0.73383
 N2770 N 0.82283 0.11917 0.73514
 C2771 C 0.82326 0.08740 0.74781
 C2772 C 0.83107 0.07237 0.74951
 C2773 C 0.79113 0.15908 0.74252
 C2774 C 0.78457 0.17479 0.74256
 C2775 C 0.31219 0.60496 0.24601
 N2776 N 0.29655 0.60933 0.25616
 N2777 N 0.28886 0.62647 0.25487
 C2778 C 0.29658 0.63975 0.24339
 N2779 N 0.31220 0.63537 0.23322
 N2780 N 0.31988 0.61823 0.23451
 C2781 C 0.32097 0.58680 0.24797
 C2782 C 0.32883 0.57179 0.24964
 C2783 C 0.28878 0.65845 0.24270
 C2784 C 0.28226 0.67418 0.24267
 C2785 C 0.31299 0.39144 0.25447
 N2786 N 0.31290 0.38139 0.27080
 N2787 N 0.30524 0.36418 0.27139
 C2788 C 0.29744 0.35650 0.25566
 N2789 N 0.29751 0.36655 0.23934
 N2790 N 0.30518 0.38376 0.23875
 C2791 C 0.32178 0.40971 0.25376
 C2792 C 0.32955 0.42488 0.25346
 C2793 C 0.28951 0.33782 0.25613
 C2794 C 0.28288 0.32212 0.25608
 C2795 C 0.81516 0.89201 0.75451
 N2796 N 0.81524 0.88196 0.77083
 N2797 N 0.80751 0.86478 0.77152
 C2798 C 0.79948 0.85713 0.75589
 N2799 N 0.79939 0.86719 0.73957
 N2800 N 0.80712 0.88437 0.73888
 C2801 C 0.82398 0.91027 0.75369
 C2802 C 0.83177 0.92543 0.75332
 C2803 C 0.79146 0.83850 0.75647
 C2804 C 0.78473 0.82284 0.75650
 C2805 C 0.68669 0.89575 0.24551
 N2806 N 0.69539 0.88847 0.26095
 N2807 N 0.70336 0.87143 0.26022
 C2808 C 0.70287 0.86115 0.24405
 N2809 N 0.69419 0.86843 0.22861
 N2810 N 0.68622 0.88547 0.22934
 C2811 C 0.67758 0.91383 0.24640
 C2812 C 0.66955 0.92885 0.24686
 C2813 C 0.71102 0.84260 0.24349
 C2814 C 0.71778 0.82696 0.24346
 C2815 C 0.18589 0.39524 0.74448
 N2816 N 0.19606 0.38867 0.75932
 N2817 N 0.20410 0.37167 0.75856
 C2818 C 0.20221 0.36071 0.74294
 N2819 N 0.19206 0.36729 0.72809
 N2820 N 0.18403 0.38429 0.72885
 C2821 C 0.17676 0.41331 0.74544
 C2822 C 0.16872 0.42831 0.74597
 C2823 C 0.21042 0.34218 0.74240
 C2824 C 0.21720 0.32657 0.74242
 C2825 C 0.10582 0.75114 0.81239
 N2826 N 0.11297 0.76554 0.80197
 N2827 N 0.13010 0.76415 0.79427
 C2828 C 0.14059 0.74832 0.79678
 N2829 N 0.13343 0.73390 0.80718
 N2830 N 0.11631 0.73530 0.81488
 C2831 C 0.08777 0.75294 0.82143
 C2832 C 0.07286 0.75433 0.82953
 C2833 C 0.15930 0.74717 0.78907
 C2834 C 0.17509 0.74666 0.78271
 C2835 C 0.60548 0.25114 0.31091
 N2836 N 0.61249 0.26537 0.30015
 N2837 N 0.62960 0.26394 0.29244
 C2838 C 0.64022 0.24825 0.29527
 N2839 N 0.63320 0.23401 0.30600
 N2840 N 0.61609 0.23544 0.31371
 C2841 C 0.58743 0.25299 0.31994
 C2842 C 0.57252 0.25442 0.32804
 C2843 C 0.65893 0.24710 0.28756
 C2844 C 0.67473 0.24658 0.28123
 C2845 C 0.60699 0.75553 0.18715
 N2846 N 0.62019 0.76706 0.17937
 N2847 N 0.63736 0.76843 0.18699
 C2848 C 0.64184 0.75830 0.20262
 N2849 N 0.62863 0.74680 0.21042
 N2850 N 0.61146 0.74543 0.20280
 C2851 C 0.58879 0.75349 0.17843
 C2852 C 0.57375 0.75174 0.17062
 C2853 C 0.66057 0.75909 0.21036
 C2854 C 0.67632 0.75919 0.21684
 C2855 C 0.10671 0.25542 0.68590
 N2856 N 0.11988 0.26724 0.67850
 N2857 N 0.13700 0.26851 0.68623
 C2858 C 0.14148 0.25799 0.70159
 N2859 N 0.12831 0.24618 0.70901
 N2860 N 0.11118 0.24492 0.70129
 C2861 C 0.08857 0.25350 0.67705
 C2862 C 0.07357 0.25186 0.66914
 C2863 C 0.16017 0.25869 0.70944
 C2864 C 0.17589 0.25875 0.71600
 C2865 C 0.89449 0.24491 0.68616
 N2866 N 0.88430 0.22867 0.68544
 N2867 N 0.86719 0.22777 0.69323
 C2868 C 0.85973 0.24309 0.70199
 N2869 N 0.86993 0.25932 0.70273
 N2870 N 0.88705 0.26023 0.69493
 C2871 C 0.91267 0.24599 0.67723
 C2872 C 0.92776 0.24661 0.66934
 C2873 C 0.84112 0.24233 0.71000
 C2874 C 0.82545 0.24218 0.71669
 C2875 C 0.39322 0.74484 0.18614
 N2876 N 0.38338 0.72837 0.18616
 N2877 N 0.36616 0.72753 0.19375
 C2878 C 0.35826 0.74314 0.20153
 N2879 N 0.36811 0.75961 0.20153
 N2880 N 0.38532 0.76045 0.19394
 C2881 C 0.41152 0.74583 0.17744
 C2882 C 0.42671 0.74636 0.16974
 C2883 C 0.33958 0.74241 0.20941
 C2884 C 0.32388 0.74227 0.21602
 C2885 C 0.39300 0.25338 0.31329
 N2886 N 0.38461 0.23713 0.30755
 N2887 N 0.36749 0.23749 0.29972
 C2888 C 0.35823 0.25410 0.29741
 N2889 N 0.36662 0.27036 0.30314
 N2890 N 0.38374 0.27000 0.31097
 C2891 C 0.41116 0.25299 0.32228
 C2892 C 0.42625 0.25293 0.33019
 C2893 C 0.33965 0.25438 0.28930
 C2894 C 0.32402 0.25423 0.28254
 C2895 C 0.89342 0.75404 0.81483
 N2896 N 0.88565 0.73811 0.80754
 N2897 N 0.86858 0.73859 0.79963
 C2898 C 0.85874 0.75500 0.79878
 N2899 N 0.86651 0.77095 0.80606
 N2900 N 0.88359 0.77047 0.81397
 C2901 C 0.91156 0.75347 0.82387
 C2902 C 0.92663 0.75327 0.83181
 C2903 C 0.84019 0.75537 0.79060
 C2904 C 0.82458 0.75525 0.78378
   
