data_POSCAR
  _audit_creation_date              2014-09-24
  _audit_creation_method            'ToBaCCo'
  _symmetry_space_group_name_H-M    'P1'
  _symmetry_Int_Tables_number       1
  _symmetry_cell_setting            triclinic
  loop_
  _symmetry_equiv_pos_as_xyz
 x,y,z
_cell_length_a 62.1455
_cell_length_b 62.8853
_cell_length_c 62.0053
_cell_angle_alpha 90.490200
_cell_angle_beta 91.006700
_cell_angle_gamma 89.182900
loop_
  _atom_site_label
  _atom_site_type_symbol
  _atom_site_fract_x
  _atom_site_fract_y
  _atom_site_fract_z
C1 C 0.36146 1.35225 0.32799
 C2 C 0.36393 1.33502 0.34214
 C3 C 0.34971 1.33273 0.35879
 C4 C 0.33284 1.34737 0.36154
 C5 C 0.33031 1.36439 0.34772
 C6 C 0.34476 1.36683 0.33071
 C7 C 0.37273 1.35837 0.31021
 N8 N 0.36331 1.37632 0.30197
 C9 C 0.34619 1.38154 0.31444
 C10 C 0.31238 1.37576 0.35438
 N11 N 0.30412 1.36585 0.37184
 C12 C 0.31658 1.34850 0.37619
 C13 C 0.35553 1.31465 0.36979
 N14 N 0.37307 1.30580 0.36029
 C15 C 0.37827 1.31808 0.34328
 H16 H 0.38659 1.35004 0.30385
 H17 H 0.33548 1.39504 0.31181
 H18 H 0.30589 1.38995 0.34682
 H19 H 0.31396 1.33741 0.38913
 H20 H 0.34716 1.30825 0.38338
 H21 H 0.39143 1.31483 0.33247
 C22 C 0.35734 0.84518 0.82853
 C23 C 0.35786 0.83249 0.84724
 C24 C 0.34402 0.83726 0.86401
 C25 C 0.32965 0.85461 0.86250
 C26 C 0.32906 0.86677 0.84413
 C27 C 0.34275 0.86200 0.82715
 C28 C 0.36816 0.84460 0.80913
 N29 N 0.36005 0.86046 0.79641
 C30 C 0.34450 0.87099 0.80728
 C31 C 0.31332 0.88205 0.84655
 N32 N 0.30424 0.87960 0.86606
 C33 C 0.31411 0.86275 0.87601
 C34 C 0.34700 0.82196 0.87947
 N35 N 0.36224 0.80791 0.87275
 C36 C 0.36907 0.81418 0.85304
 H37 H 0.38050 0.83324 0.80443
 H38 H 0.33509 0.88428 0.80107
 H39 H 0.30866 0.89404 0.83485
 H40 H 0.31025 0.85656 0.89167
 H41 H 0.33830 0.82082 0.89439
 H42 H 0.38073 0.80577 0.84328
 C43 C 0.84220 1.31932 0.80523
 C44 C 0.84027 1.30161 0.81840
 C45 C 0.82564 1.30188 0.83477
 C46 C 0.81249 1.31977 0.83799
 C47 C 0.81423 1.33757 0.82508
 C48 C 0.82958 1.33742 0.80844
 C49 C 0.85615 1.32328 0.78905
 N50 N 0.85283 1.34341 0.78212
 C51 C 0.83654 1.35236 0.79381
 C52 C 0.79945 1.35246 0.83278
 N53 N 0.78909 1.34381 0.84981
 C54 C 0.79717 1.32398 0.85303
 C55 C 0.82871 1.28346 0.84629
 N56 N 0.84508 1.27217 0.83727
 C57 C 0.85205 1.28302 0.82002
 H58 H 0.86836 1.31236 0.78306
 H59 H 0.83039 1.36845 0.79213
 H60 H 0.79657 1.36822 0.82640
 H61 H 0.79214 1.31322 0.86548
 H62 H 0.82018 1.27912 0.86063
 H63 H 0.86559 1.27832 0.81021
 C64 C 0.83817 0.82152 0.30581
 C65 C 0.83709 0.80475 0.32027
 C66 C 0.82471 0.80666 0.33839
 C67 C 0.81267 0.82532 0.34192
 C68 C 0.81348 0.84212 0.32755
 C69 C 0.82688 0.84035 0.30935
 C70 C 0.85057 0.82396 0.28808
 N71 N 0.84777 0.84396 0.28062
 C72 C 0.83316 0.85426 0.29339
 C73 C 0.79994 0.85795 0.33554
 N74 N 0.79121 0.85094 0.35418
 C75 C 0.79918 0.83120 0.35823
 C76 C 0.82847 0.78867 0.35053
 N77 N 0.84293 0.77608 0.34002
 C78 C 0.84807 0.78570 0.32142
 H79 H 0.86169 0.81222 0.28160
 H80 H 0.82789 0.87064 0.29167
 H81 H 0.79676 0.87332 0.32834
 H82 H 0.79509 0.82162 0.37195
 H83 H 0.82169 0.78538 0.36608
 H84 H 0.85986 0.77977 0.31011
 C85 C 0.66174 0.68202 0.30551
 C86 C 0.65993 0.69872 0.32035
 C87 C 0.67141 0.69807 0.33957
 C88 C 0.68521 0.68080 0.34398
 C89 C 0.68697 0.66407 0.32936
 C90 C 0.67487 0.66458 0.30994
 C91 C 0.65103 0.67813 0.28648
 N92 N 0.65688 0.65859 0.27916
 C93 C 0.67162 0.65009 0.29332
 C94 C 0.70121 0.64945 0.33834
 N95 N 0.70809 0.65709 0.35786
 C96 C 0.69827 0.67613 0.36141
 C97 C 0.66470 0.71521 0.35178
 N98 N 0.64930 0.72604 0.34034
 C99 C 0.64651 0.71622 0.32100
 H100 H 0.63904 0.68845 0.27892
 H101 H 0.67902 0.63446 0.29207
 H102 H 0.70638 0.63464 0.33096
 H103 H 0.70067 0.68601 0.37562
 H104 H 0.67004 0.71895 0.36806
 H105 H 0.63461 0.72076 0.30887
 C106 C 0.66121 0.18140 0.80601
 C107 C 0.66549 0.20003 0.81767
 C108 C 0.68253 0.20055 0.83213
 C109 C 0.69527 0.18238 0.83542
 C110 C 0.69098 0.16364 0.82431
 C111 C 0.67372 0.16320 0.80913
 C112 C 0.64522 0.17666 0.79139
 N113 N 0.64753 0.15609 0.78512
 C114 C 0.66488 0.14755 0.79595
 C115 C 0.70514 0.14839 0.83261
 N116 N 0.71760 0.15774 0.84830
 C117 C 0.71162 0.17845 0.84990
 C118 C 0.68164 0.21978 0.84277
 N119 N 0.66418 0.23078 0.83537
 C120 C 0.65429 0.21895 0.81977
 H121 H 0.63272 0.18750 0.78565
 H122 H 0.67068 0.13131 0.79452
 H123 H 0.70584 0.13180 0.82790
 H124 H 0.71829 0.18978 0.86136
 H125 H 0.69194 0.22474 0.85610
 H126 H 0.63947 0.22321 0.81137
 C127 C 1.15351 0.66816 0.82403
 C128 C 1.15492 0.68789 0.83495
 C129 C 1.17048 0.69054 0.85098
 C130 C 1.18413 0.67374 0.85690
 C131 C 1.18254 0.65434 0.84658
 C132 C 1.16735 0.65160 0.82987
 C133 C 1.14114 0.66089 0.80682
 N134 N 1.14737 0.64051 0.80219
 C135 C 1.16326 0.63477 0.81627
 C136 C 1.19755 0.64091 0.85604
 N137 N 1.20808 0.65187 0.87196
 C138 C 1.20002 0.67200 0.87243
 C139 C 1.16877 0.71089 0.85876
 N140 N 1.15226 0.72074 0.84830
 C141 C 1.14353 0.70695 0.83366
 H142 H 1.12917 0.67007 0.79792
 H143 H 1.17167 0.61956 0.81623
 H144 H 1.20039 0.62447 0.85154
 H145 H 1.20518 0.68442 0.88349
 H146 H 1.17842 0.71790 0.87161
 H147 H 1.12997 0.71050 0.82304
 C148 C 1.15842 0.18454 0.30696
 C149 C 1.16178 0.20339 0.31850
 C150 C 1.17636 0.20379 0.33550
 C151 C 1.18804 0.18536 0.34094
 C152 C 1.18476 0.16655 0.32962
 C153 C 1.16959 0.16609 0.31244
 C154 C 1.14371 0.17956 0.29113
 N155 N 1.14536 0.15849 0.28667
 C156 C 1.16122 0.14999 0.29958
 C157 C 1.19754 0.15117 0.33951
 N158 N 1.20842 0.16040 0.35638
 C159 C 1.20253 0.18121 0.35733
 C160 C 1.17403 0.22319 0.34568
 N161 N 1.15819 0.23439 0.33528
 C162 C 1.15088 0.22254 0.31843
 H163 H 1.13207 0.19041 0.28382
 H164 H 1.16597 0.13338 0.30014
 H165 H 1.19860 0.13461 0.33474
 H166 H 1.20831 0.19256 0.36925
 H167 H 1.18233 0.22814 0.36032
 H168 H 1.13732 0.22682 0.30806
 C169 C 0.64704 1.33688 0.67198
 C170 C 0.64823 1.31869 0.65847
 C171 C 0.66501 1.31666 0.64416
 C172 C 0.68034 1.33252 0.64264
 C173 C 0.67910 1.35043 0.65551
 C174 C 0.66244 1.35255 0.67038
 C175 C 0.63340 1.34319 0.68834
 N176 N 0.64031 1.36217 0.69657
 C177 C 0.65793 1.36793 0.68553
 C178 C 0.69621 1.36308 0.65036
 N179 N 0.70761 1.35306 0.63461
 C180 C 0.69804 1.33434 0.62993
 C181 C 0.66296 1.29768 0.63347
 N182 N 0.64518 1.28798 0.64049
 C183 C 0.63590 1.30059 0.65583
 H184 H 0.61982 1.33434 0.69394
 H185 H 0.66713 1.38218 0.68861
 H186 H 0.70004 1.37827 0.65765
 H187 H 0.70354 1.32293 0.61799
 H188 H 0.67361 1.29136 0.62126
 H189 H 0.62156 1.29677 0.66458
 C190 C 0.64651 0.84089 1.17498
 C191 C 0.64884 0.82461 1.15920
 C192 C 0.66624 0.82502 1.14545
 C193 C 0.68123 0.84133 1.14689
 C194 C 0.67896 0.85706 1.16225
 C195 C 0.66168 0.85683 1.17625
 C196 C 0.63187 0.84524 1.19121
 N197 N 0.63819 0.86328 1.20189
 C198 C 0.65632 0.87027 1.19272
 C199 C 0.69588 0.87066 1.16030
 N200 N 0.70828 0.86364 1.14391
 C201 C 0.69953 0.84559 1.13560
 C202 C 0.66529 0.80746 1.13234
 N203 N 0.64774 0.79620 1.13738
 C204 C 0.63742 0.80646 1.15379
 H205 H 0.61799 0.83587 1.19499
 H206 H 0.66516 0.88422 1.19783
 H207 H 0.69893 0.88473 1.17001
 H208 H 0.70602 0.83610 1.12255
 H209 H 0.67671 0.80303 1.12002
 H210 H 0.62309 0.80094 1.16153
 C211 C 1.14541 1.34623 1.17026
 C212 C 1.14507 1.32870 1.15591
 C213 C 1.15982 1.32755 1.13943
 C214 C 1.17484 1.34363 1.13686
 C215 C 1.17514 1.36082 1.15079
 C216 C 1.16041 1.36209 1.16762
 C217 C 1.13388 1.35155 1.18845
 N218 N 1.14164 1.37014 1.19671
 C219 C 1.15781 1.37659 1.18406
 C220 C 1.19179 1.37361 1.14478
 N221 N 1.20159 1.36444 1.12748
 C222 C 1.19128 1.34610 1.12260
 C223 C 1.15671 1.30881 1.12851
 N224 N 1.14034 1.29840 1.13766
 C225 C 1.13301 1.31036 1.15451
 H226 H 1.12123 1.34228 1.19534
 H227 H 1.16727 1.39071 1.18686
 H228 H 1.19645 1.38822 1.15277
 H229 H 1.19558 1.33520 1.10971
 H230 H 1.16587 1.30298 1.11493
 H231 H 1.12032 1.30589 1.16522
 C232 C 1.13913 0.85069 0.67524
 C233 C 1.13477 0.83380 0.66087
 C234 C 1.14751 0.83066 0.64298
 C235 C 1.16475 0.84420 0.63920
 C236 C 1.16898 0.86074 0.65336
 C237 C 1.15623 0.86394 0.67148
 C238 C 1.12973 0.85776 0.69403
 N239 N 1.14084 0.87487 0.70158
 C240 C 1.15711 0.87862 0.68796
 C241 C 1.18655 0.87121 0.64594
 N242 N 1.19311 0.86146 0.62751
 C243 C 1.17998 0.84481 0.62334
 C244 C 1.13994 0.81311 0.63208
 N245 N 1.12287 0.80546 0.64285
 C246 C 1.11965 0.81795 0.66052
 H247 H 1.11607 0.85076 0.70173
 H248 H 1.16870 0.89123 0.68989
 H249 H 1.19418 0.88466 0.65373
 H250 H 1.18143 0.83397 0.60976
 H251 H 1.14681 0.80624 0.61767
 H252 H 1.10731 0.81556 0.67233
 C253 C 0.36263 0.64922 0.66599
 C254 C 0.36560 0.66641 0.65215
 C255 C 0.35177 0.66955 0.63468
 C256 C 0.33468 0.65553 0.63087
 C257 C 0.33190 0.63857 0.64452
 C258 C 0.34586 0.63543 0.66219
 C259 C 0.37316 0.64260 0.68451
 N260 N 0.36308 0.62513 0.69197
 C261 C 0.34634 0.62071 0.67845
 C262 C 0.31406 0.62781 0.63743
 N263 N 0.30572 0.63780 0.61971
 C264 C 0.31823 0.65483 0.61564
 C265 C 0.35834 0.68760 0.62438
 N266 N 0.37581 0.69540 0.63520
 C267 C 0.38025 0.68260 0.65224
 H268 H 0.38674 0.65034 0.69218
 H269 H 0.33519 0.60783 0.68047
 H270 H 0.30759 0.61401 0.64516
 H271 H 0.31549 0.66599 0.60263
 H272 H 0.35065 0.69464 0.61033
 H273 H 0.39319 0.68497 0.66390
 C274 C 0.36758 0.15717 1.16173
 C275 C 0.36330 0.17146 1.14486
 C276 C 0.34582 0.16835 1.13102
 C277 C 0.33239 0.15081 1.13389
 C278 C 0.33675 0.13683 1.15051
 C279 C 0.35438 0.13995 1.16434
 C280 C 0.38270 0.15656 1.17832
 N281 N 0.37893 0.13927 1.19062
 C282 C 0.36156 0.12911 1.18218
 C283 C 0.32096 0.12185 1.15031
 N284 N 0.30696 0.12617 1.13389
 C285 C 0.31381 0.14389 1.12363
 C286 C 0.34533 0.18504 1.11672
 N287 N 0.36210 0.19802 1.12143
 C288 C 0.37310 0.18986 1.13871
 H289 H 0.39524 0.16800 1.18145
 H290 H 0.35403 0.11533 1.18893
 H291 H 0.31959 0.10882 1.16151
 H292 H 0.30580 0.15158 1.11012
 H293 H 0.33357 0.18765 1.10389
 H294 H 0.38694 0.19690 1.14663
 C295 C 0.85686 0.66742 1.17085
 C296 C 0.85405 0.68401 1.15599
 C297 C 0.83517 0.68555 1.14403
 C298 C 0.81910 0.67054 1.14633
 C299 C 0.82191 0.65384 1.16052
 C300 C 0.84091 0.65243 1.17313
 C301 C 0.87321 0.66234 1.18521
 N302 N 0.86759 0.64483 1.19632
 C303 C 0.84791 0.63853 1.18892
 C304 C 0.80395 0.64123 1.15826
 N305 N 0.79058 0.65018 1.14316
 C306 C 0.79964 0.66814 1.13600
 C307 C 0.83671 0.70268 1.13068
 N308 N 0.85619 0.71156 1.13399
 C309 C 0.86698 0.70037 1.14956
 H310 H 0.88797 0.67104 1.18776
 H311 H 0.83907 0.62508 1.19467
 H312 H 0.80097 0.62663 1.16676
 H313 H 0.79282 0.67835 1.12359
 H314 H 0.82471 0.70804 1.11899
 H315 H 0.88300 0.70372 1.15568
 C316 C 0.85376 0.15761 0.67585
 C317 C 0.85597 0.17384 0.66075
 C318 C 0.84014 0.17743 0.64504
 C319 C 0.82163 0.16454 0.64443
 C320 C 0.81954 0.14884 0.65979
 C321 C 0.83561 0.14532 0.67537
 C322 C 0.86642 0.15077 0.69299
 N323 N 0.85620 0.13454 0.70280
 C324 C 0.83731 0.13123 0.69211
 C325 C 0.80000 0.13948 0.65662
 N326 N 0.79005 0.14864 0.63948
 C327 C 0.80299 0.16403 0.63173
 C328 C 0.84653 0.19499 0.63350
 N329 N 0.86563 0.20189 0.64199
 C330 C 0.87140 0.18900 0.65854
 H331 H 0.88173 0.15737 0.69786
 H332 H 0.82561 0.11940 0.69625
 H333 H 0.79336 0.12692 0.66620
 H334 H 0.79889 0.17438 0.61838
 H335 H 0.83756 0.20250 0.62047
 H336 H 0.88564 0.19087 0.66866
 C337 C 1.31431 0.32645 0.70785
 C338 C 1.30196 0.33042 0.68926
 C339 C 1.30545 0.31893 0.67039
 C340 C 1.32159 0.30278 0.67026
 C341 C 1.33348 0.29885 0.68900
 C342 C 1.32990 0.31072 0.70775
 C343 C 1.31607 0.33709 0.72725
 N344 N 1.33260 0.32821 0.73879
 C345 C 1.34092 0.31183 0.72713
 C346 C 1.34849 0.28343 0.68459
 N347 N 1.34639 0.27754 0.66364
 C348 C 1.32996 0.28926 0.65455
 C349 C 1.29141 0.32746 0.65495
 N350 N 1.27977 0.34350 0.66434
 C351 C 1.28623 0.34530 0.68519
 H352 H 1.30674 0.35096 0.73200
 H353 H 1.35503 0.30252 0.73174
 H354 H 1.36041 0.27709 0.69587
 H355 H 1.32459 0.28832 0.63788
 H356 H 1.28977 0.32232 0.63831
 H357 H 1.27995 0.35684 0.69662
 C358 C 1.31799 0.82445 1.19721
 C359 C 1.30692 0.82603 1.17729
 C360 C 1.30972 0.81036 1.16169
 C361 C 1.32363 0.79303 1.16568
 C362 C 1.33393 0.79122 1.18548
 C363 C 1.33104 0.80689 1.20128
 C364 C 1.32082 0.83835 1.21437
 N365 N 1.33529 0.82944 1.22854
 C366 C 1.34126 0.81011 1.22074
 C367 C 1.34807 0.77431 1.18430
 N368 N 1.34706 0.76604 1.16407
 C369 C 1.33188 0.77721 1.15257
 C370 C 1.29762 0.81621 1.14389
 N371 N 1.28741 0.83492 1.14824
 C372 C 1.29313 0.84118 1.16860
 H373 H 1.31360 0.85404 1.21579
 H374 H 1.35337 0.79974 1.22801
 H375 H 1.35942 0.76937 1.19680
 H376 H 1.32777 0.77489 1.13571
 H377 H 1.29614 0.80738 1.12888
 H378 H 1.28746 0.85541 1.17674
 C379 C 0.86899 0.37361 1.15375
 C380 C 0.85282 0.37719 1.13808
 C381 C 0.85014 0.36292 1.12119
 C382 C 0.86350 0.34484 1.11978
 C383 C 0.87936 0.34126 1.13528
 C384 C 0.88216 0.35577 1.15237
 C385 C 0.87433 0.38404 1.17264
 N386 N 0.89045 0.37292 1.18281
 C387 C 0.89530 0.35562 1.17047
 C388 C 0.88868 0.32179 1.13080
 N389 N 0.87878 0.31343 1.11293
 C390 C 0.86344 0.32752 1.10608
 C391 C 0.83220 0.36931 1.10956
 N392 N 0.82389 0.38713 1.11901
 C393 C 0.83641 0.39204 1.13645
 H394 H 0.86645 0.39831 1.17858
 H395 H 0.90718 0.34350 1.17463
 H396 H 0.90132 0.31428 1.14034
 H397 H 0.85253 0.32503 1.09250
 H398 H 0.82520 0.36087 1.09595
 H399 H 0.83325 0.40498 1.14764
 C400 C 0.86138 0.87213 0.65835
 C401 C 0.84387 0.87538 0.64413
 C402 C 0.84013 0.86113 0.62744
 C403 C 0.85374 0.84339 0.62478
 C404 C 0.87101 0.84015 0.63879
 C405 C 0.87485 0.85462 0.65574
 C406 C 0.86836 0.88290 0.67649
 N407 N 0.88577 0.87236 0.68495
 C408 C 0.88978 0.85501 0.67241
 C409 C 0.88082 0.82129 0.63286
 N410 N 0.86988 0.81307 0.61558
 C411 C 0.85327 0.82645 0.61062
 C412 C 0.82165 0.86768 0.61680
 N413 N 0.81407 0.88560 0.62665
 C414 C 0.82751 0.89037 0.64343
 H415 H 0.86081 0.89698 0.68326
 H416 H 0.90244 0.84336 0.67542
 H417 H 0.89449 0.81391 0.64101
 H418 H 0.84151 0.82384 0.59781
 H419 H 0.81401 0.85949 0.60338
 H420 H 0.82529 0.90357 0.65454
 C421 C 0.64782 0.63083 0.65985
 C422 C 0.66218 0.63376 0.64299
 C423 C 0.65945 0.65085 0.62931
 C424 C 0.64230 0.66521 0.63224
 C425 C 0.62810 0.66240 0.64888
 C426 C 0.63086 0.64502 0.66279
 C427 C 0.64707 0.61607 0.67604
 N428 N 0.63005 0.62083 0.68870
 C429 C 0.62004 0.63857 0.68075
 C430 C 0.61368 0.67925 0.64826
 N431 N 0.61875 0.69205 0.63162
 C432 C 0.63631 0.68358 0.62179
 C433 C 0.67618 0.65024 0.61508
 N434 N 0.68895 0.63316 0.61972
 C435 C 0.68052 0.62298 0.63684
 H436 H 0.65824 0.60294 0.67862
 H437 H 0.60625 0.64658 0.68767
 H438 H 0.60061 0.68217 0.65927
 H439 H 0.64462 0.69045 0.60841
 H440 H 0.67908 0.66159 0.60245
 H441 H 0.68740 0.60913 0.64471
 C442 C 0.65359 1.13756 1.17713
 C443 C 0.67077 1.14012 1.16330
 C444 C 0.67002 1.15560 1.14756
 C445 C 0.65182 1.16925 1.14600
 C446 C 0.63481 1.16665 1.15992
 C447 C 0.63563 1.15059 1.17550
 C448 C 0.65042 1.12359 1.19355
 N449 N 0.63085 1.12765 1.20206
 C450 C 0.62159 1.14426 1.19116
 C451 C 0.61975 1.18224 1.15539
 N452 N 0.62706 1.19449 1.13924
 C453 C 0.64668 1.18660 1.13327
 C454 C 0.68917 1.15376 1.13650
 N455 N 0.70117 1.13778 1.14557
 C456 C 0.69008 1.12955 1.16199
 H457 H 0.66157 1.11125 1.19892
 H458 H 0.60598 1.15133 1.19426
 H459 H 0.60469 1.18479 1.16363
 H460 H 0.65676 1.19305 1.12096
 H461 H 0.69411 1.16343 1.12315
 H462 H 0.69564 1.11657 1.17212
 C463 C 0.16228 0.64983 1.18684
 C464 C 0.17761 0.64756 1.17057
 C465 C 0.17999 0.66345 1.15534
 C466 C 0.16673 0.68192 1.15622
 C467 C 0.15225 0.68412 1.17281
 C468 C 0.15000 0.66817 1.18797
 C469 C 0.15549 0.63671 1.20310
 N470 N 0.13935 0.64696 1.21382
 C471 C 0.13613 0.66625 1.20472
 C472 C 0.14119 0.70282 1.17017
 N473 N 0.14792 0.71226 1.15205
 C474 C 0.16370 0.69973 1.14326
 C475 C 0.19648 0.65678 1.14201
 N476 N 0.20400 0.63747 1.14892
 C477 C 0.19235 0.63173 1.16615
 H478 H 0.16168 0.62091 1.20649
 H479 H 0.12404 0.67784 1.20955
 H480 H 0.12843 0.70880 1.18037
 H481 H 0.17213 0.70304 1.12857
 H482 H 0.20260 0.66550 1.12852
 H483 H 0.19483 0.61721 1.17520
 C484 C 0.17693 1.16035 0.69888
 C485 C 0.19227 1.16148 0.68280
 C486 C 0.18878 1.17432 0.66499
 C487 C 0.16982 1.18691 0.66361
 C488 C 0.15471 1.18574 0.67975
 C489 C 0.15817 1.17219 0.69733
 C490 C 0.17580 1.14806 0.71699
 N491 N 0.15661 1.15189 0.72641
 C492 C 0.14571 1.16685 0.71459
 C493 C 0.13817 1.19957 0.67465
 N494 N 0.14273 1.20946 0.65596
 C495 C 0.16202 1.20169 0.64890
 C496 C 0.20610 1.17084 0.65156
 N497 N 0.21970 1.15646 0.66116
 C498 C 0.21143 1.15088 0.68026
 H499 H 0.18777 1.13653 0.72247
 H500 H 0.12979 1.17312 0.71779
 H501 H 0.12398 1.20259 0.68417
 H502 H 0.17012 1.20659 0.63451
 H503 H 0.20853 1.17803 0.63601
 H504 H 0.21857 1.13933 0.69121
 C505 C 1.34313 0.63221 0.32871
 C506 C 1.32541 0.63573 0.34183
 C507 C 1.32525 0.65226 0.35675
 C508 C 1.34311 0.66590 0.35826
 C509 C 1.36064 0.66224 0.34508
 C510 C 1.36068 0.64528 0.33031
 C511 C 1.34703 0.61763 0.31262
 N512 N 1.36658 0.62152 0.30428
 C513 C 1.37514 0.63847 0.31503
 C514 C 1.37519 0.67802 0.34908
 N515 N 1.36713 0.69147 0.36420
 C516 C 1.34748 0.68419 0.37005
 C517 C 1.30556 0.65149 0.36692
 N518 N 1.29416 0.63511 0.35813
 C519 C 1.30614 0.62559 0.34276
 H520 H 1.33623 0.60527 0.30710
 H521 H 1.39044 0.64571 0.31187
 H522 H 1.39042 0.67988 0.34111
 H523 H 1.33690 0.69167 0.38161
 H524 H 1.29982 0.66223 0.37935
 H525 H 1.30115 0.61213 0.33297
 C526 C 1.32931 1.15416 0.81604
 C527 C 1.31662 1.15162 0.83435
 C528 C 1.31591 1.16739 0.85019
 C529 C 1.32819 1.18594 0.84792
 C530 C 1.34004 1.18848 0.82947
 C531 C 1.34059 1.17268 0.81360
 C532 C 1.33437 1.14113 0.79871
 N533 N 1.34839 1.15159 0.78609
 C534 C 1.35206 1.17092 0.79500
 C535 C 1.35097 1.20710 0.83136
 N536 N 1.34668 1.21606 0.85074
 C537 C 1.33257 1.20336 0.86109
 C538 C 1.30201 1.16051 0.86578
 N539 N 1.29432 1.14115 0.85964
 C540 C 1.30340 1.13557 0.84064
 H541 H 1.32859 1.12520 0.79576
 H542 H 1.36301 1.18253 0.78879
 H543 H 1.36212 1.21325 0.81978
 H544 H 1.32634 1.20618 0.87706
 H545 H 1.29777 1.16907 0.88033
 H546 H 1.30020 1.12101 0.83176
 C547 C 0.84575 0.63596 0.83952
 C548 C 0.83108 0.63684 0.85637
 C549 C 0.83125 0.65381 0.87056
 C550 C 0.84605 0.67009 0.86817
 C551 C 0.86074 0.66937 0.85161
 C552 C 0.86056 0.65202 0.83703
 C553 C 0.84819 0.62185 0.82276
 N554 N 0.86413 0.62868 0.81004
 C555 C 0.87187 0.64716 0.81856
 C556 C 0.87228 0.68804 0.85302
 N557 N 0.86468 0.69975 0.86992
 C558 C 0.84867 0.68887 0.87912
 C559 C 0.81454 0.65124 0.88446
 N560 N 0.80421 0.63308 0.87905
 C561 C 0.81421 0.62411 0.86182
 H562 H 0.83875 0.60775 0.81975
 H563 H 0.88427 0.65671 0.81161
 H564 H 0.88470 0.69296 0.84219
 H565 H 0.83932 0.69446 0.89267
 H566 H 0.80984 0.66209 0.89726
 H567 H 0.80929 0.60983 0.85336
 C568 C 0.83391 1.14591 0.33237
 C569 C 0.81580 1.14678 0.34582
 C570 C 0.81418 1.16288 0.36111
 C571 C 0.83032 1.17792 0.36355
 C572 C 0.84813 1.17705 0.35064
 C573 C 0.84989 1.16100 0.33488
 C574 C 0.83985 1.13289 0.31530
 N575 N 0.85889 1.13985 0.30758
 C576 C 0.86505 1.15694 0.31951
 C577 C 0.86096 1.19395 0.35657
 N578 N 0.85115 1.20486 0.37280
 C579 C 0.83240 1.19519 0.37705
 C580 C 0.79511 1.16070 0.37146
 N581 N 0.78493 1.14354 0.36321
 C582 C 0.79734 1.13478 0.34745
 H583 H 0.83073 1.11971 0.30882
 H584 H 0.87943 1.16603 0.31690
 H585 H 0.87606 1.19803 0.34937
 H586 H 0.82105 1.20042 0.38912
 H587 H 0.78900 1.17090 0.38419
 H588 H 0.79314 1.12105 0.33769
 C589 C 0.66287 0.34075 0.32207
 C590 C 0.67628 0.34128 0.34074
 C591 C 0.67508 0.32513 0.35584
 C592 C 0.66067 0.30833 0.35264
 C593 C 0.64813 0.30767 0.33411
 C594 C 0.64921 0.32378 0.31895
 C595 C 0.65920 0.35429 0.30474
 N596 N 0.64374 0.34557 0.29159
 C597 C 0.63785 0.32690 0.30020
 C598 C 0.63548 0.29007 0.33498
 N599 N 0.63969 0.28004 0.35379
 C600 C 0.65519 0.29095 0.36481
 C601 C 0.68996 0.32929 0.37190
 N602 N 0.70040 0.34739 0.36709
 C603 C 0.69208 0.35498 0.34811
 H604 H 0.66699 0.36931 0.30218
 H605 H 0.62560 0.31651 0.29353
 H606 H 0.62355 0.28520 0.32305
 H607 H 0.66184 0.28672 0.38046
 H608 H 0.69335 0.31955 0.38590
 H609 H 0.69738 0.36903 0.33992
 C610 C 0.65571 0.86318 0.83396
 C611 C 0.66964 0.86016 0.85166
 C612 C 0.66670 0.84337 0.86548
 C613 C 0.64960 0.82942 0.86179
 C614 C 0.63575 0.83240 0.84431
 C615 C 0.63882 0.84947 0.83028
 C616 C 0.65536 0.87777 0.81761
 N617 N 0.63859 0.87341 0.80413
 C618 C 0.62835 0.85606 0.81168
 C619 C 0.62114 0.81614 0.84445
 N620 N 0.62570 0.80350 0.86162
 C621 C 0.64316 0.81148 0.87228
 C622 C 0.68310 0.84401 0.88071
 N623 N 0.69570 0.86088 0.87649
 C624 C 0.68761 0.87078 0.85866
 H625 H 0.66659 0.89058 0.81554
 H626 H 0.61467 0.84844 0.80405
 H627 H 0.60821 0.81356 0.83283
 H628 H 0.65102 0.80463 0.88633
 H629 H 0.68582 0.83293 0.89378
 H630 H 0.69453 0.88434 0.85088
 C631 C 0.15808 0.34937 0.83168
 C632 C 0.17680 0.34875 0.84485
 C633 C 0.17917 0.33300 0.86017
 C634 C 0.16303 0.31818 0.86305
 C635 C 0.14446 0.31892 0.85054
 C636 C 0.14206 0.33454 0.83455
 C637 C 0.15159 0.36205 0.81464
 N638 N 0.13212 0.35520 0.80707
 C639 C 0.12620 0.33851 0.81929
 C640 C 0.13164 0.30257 0.85735
 N641 N 0.14223 0.29220 0.87365
 C642 C 0.16145 0.30159 0.87707
 C643 C 0.19863 0.33559 0.87043
 N644 N 0.20823 0.35275 0.86210
 C645 C 0.19512 0.36103 0.84636
 H646 H 0.16073 0.37495 0.80817
 H647 H 0.11156 0.32956 0.81695
 H648 H 0.11595 0.29853 0.85084
 H649 H 0.17334 0.29678 0.88911
 H650 H 0.20527 0.32586 0.88332
 H651 H 0.19868 0.37475 0.83669
 C652 C 0.18166 0.82783 0.30658
 C653 C 0.19933 0.82621 0.32066
 C654 C 0.19804 0.81438 0.33916
 C655 C 0.17918 0.80338 0.34341
 C656 C 0.16148 0.80483 0.32948
 C657 C 0.16259 0.81768 0.31093
 C658 C 0.17831 0.84032 0.28891
 N659 N 0.15754 0.83865 0.28231
 C660 C 0.14765 0.82469 0.29555
 C661 C 0.14551 0.79263 0.33833
 N662 N 0.15334 0.78395 0.35703
 C663 C 0.17372 0.79072 0.36028
 C664 C 0.21635 0.81832 0.35133
 N665 N 0.22849 0.83238 0.34051
 C666 C 0.21836 0.83700 0.32161
 H667 H 0.18994 0.85086 0.28200
 H668 H 0.13083 0.82050 0.29466
 H669 H 0.12956 0.79023 0.33157
 H670 H 0.18403 0.78640 0.37386
 H671 H 0.21989 0.81238 0.36735
 H672 H 0.22360 0.84877 0.31025
 O673 O 1.07590 1.01718 1.11534
 O674 O 1.10106 1.01716 1.14085
 C675 C 1.08311 1.02397 1.13335
 C676 C 1.07077 1.04028 1.14549
 C677 C 1.07822 1.04728 1.16577
 H678 H 1.09268 1.04022 1.17284
 O679 O 0.92059 0.97506 1.10672
 O680 O 0.89461 0.97269 1.13033
 C681 C 0.91284 0.96664 1.12336
 C682 C 0.92482 0.94934 1.13458
 C683 C 0.91770 0.94223 1.15451
 H684 H 0.90400 0.95000 1.16197
 O685 O 1.01518 1.10108 1.09085
 O686 O 1.01383 1.12496 1.11707
 C687 C 1.02170 1.11832 1.09945
 C688 C 1.03887 1.13057 1.08912
 C689 C 1.04521 1.15027 1.09783
 H690 H 1.03713 1.15676 1.11183
 O691 O 0.98262 0.89262 1.07614
 O692 O 0.98289 0.86661 1.09978
 C693 C 0.97612 0.87461 1.08213
 C694 C 0.96024 0.86299 1.06871
 C695 C 0.95467 0.84222 1.07405
 H696 H 0.96258 0.83442 1.08762
 O697 O 1.10181 1.07807 1.03227
 O698 O 1.12585 1.10347 1.03509
 C699 C 1.11904 1.08531 1.04052
 C700 C 1.13137 1.07263 1.05658
 C701 C 1.15278 1.07762 1.06123
 H702 H 1.16024 1.09048 1.05268
 O703 O 0.89822 0.92020 1.01614
 O704 O 0.87420 0.89473 1.01428
 C705 C 0.88093 0.91203 1.02255
 C706 C 0.86864 0.92252 1.03998
 C707 C 0.84879 0.91432 1.04608
 H708 H 0.84227 0.90058 1.03771
 O709 O 0.97340 1.07062 1.11789
 O710 O 0.97207 1.09447 1.14410
 C711 C 0.96521 1.07752 1.13531
 C712 C 0.94693 1.06610 1.14476
 C713 C 0.93768 1.07281 1.16431
 H714 H 0.94493 1.08581 1.17314
 O715 O 1.02174 0.92154 1.10988
 O716 O 1.02177 0.89570 1.13370
 C717 C 1.02877 0.91343 1.12735
 C718 C 1.04592 0.92420 1.13993
 C719 C 1.05289 0.91608 1.15984
 H720 H 1.04481 0.90257 1.16661
 O721 O 1.10723 0.97751 1.08482
 O722 O 1.13229 0.97724 1.11044
 C723 C 1.12492 0.97031 1.09252
 C724 C 1.13667 0.95324 1.08084
 C725 C 1.15628 0.94515 1.08906
 H726 H 1.16325 0.95202 1.10362
 O727 O 0.88898 1.01685 1.07902
 O728 O 0.86281 1.01435 1.10237
 C729 C 0.87073 1.02295 1.08591
 C730 C 0.85905 1.04051 1.07475
 C731 C 0.83834 1.04737 1.08099
 H732 H 0.83030 1.03946 1.09397
 O733 O 0.91787 1.10253 1.02780
 O734 O 0.89255 1.12745 1.02848
 C735 C 0.91004 1.11946 1.03598
 C736 C 0.92130 1.12969 1.05458
 C737 C 0.91518 1.15016 1.06173
 H738 H 0.90219 1.15848 1.05342
 O739 O 1.07974 0.89610 1.02245
 O740 O 1.10541 0.87155 1.02153
 C741 C 1.08775 0.87860 1.02902
 C742 C 1.07700 0.86671 1.04621
 C743 C 1.08544 0.84704 1.05292
 H744 H 1.09910 0.84006 1.04468
 O745 O 0.91774 1.01629 1.10986
 O746 O 0.89165 1.01391 1.13333
 C747 C 0.90910 1.02216 1.12739
 C748 C 0.91929 1.03907 1.14066
 C749 C 0.91027 1.04590 1.16017
 H750 H 0.89597 1.03825 1.16594
 O751 O 1.07827 0.97596 1.11420
 O752 O 1.10315 0.97566 1.13999
 C753 C 1.08591 0.96831 1.13168
 C754 C 1.07455 0.95049 1.14195
 C755 C 1.08172 0.94172 1.16171
 H756 H 1.09555 0.94836 1.17006
 O757 O 1.02432 0.89306 1.07955
 O758 O 1.02468 0.86712 1.10326
 C759 C 1.03223 0.87559 1.08649
 C760 C 1.05050 0.86537 1.07493
 C761 C 1.05959 0.84580 1.08174
 H762 H 1.05290 0.83773 1.09538
 O763 O 0.97339 1.09909 1.08802
 O764 O 0.97210 1.12319 1.11404
 C765 C 0.96548 1.11613 1.09582
 C766 C 0.94834 1.12785 1.08373
 C767 C 0.94199 1.14824 1.09055
 H768 H 0.94996 1.15544 1.10442
 O769 O 0.88871 1.07360 1.02448
 O770 O 0.86316 1.09831 1.02504
 C771 C 0.87084 1.08060 1.03142
 C772 C 0.85917 1.06834 1.04754
 C773 C 0.83834 1.07450 1.05340
 H774 H 0.83039 1.08775 1.04533
 O775 O 1.10962 0.92423 1.02543
 O776 O 1.13531 0.89967 1.02468
 C777 C 1.12717 0.91643 1.03295
 C778 C 1.13779 0.92672 1.05185
 C779 C 1.15742 0.91875 1.06036
 H780 H 1.16530 0.90556 1.05229
 O781 O 0.97963 0.91958 1.10792
 O782 O 0.97955 0.89380 1.13178
 C783 C 0.97173 0.91118 1.12456
 C784 C 0.95308 0.92177 1.13521
 C785 C 0.94516 0.91442 1.15499
 H786 H 0.95289 0.90100 1.16292
 O787 O 1.01572 1.07024 1.11839
 O788 O 1.01454 1.09409 1.14463
 C789 C 1.02276 1.07734 1.13636
 C790 C 1.04127 1.06639 1.14716
 C791 C 1.04918 1.07339 1.16737
 H792 H 1.04089 1.08617 1.17573
 O793 O 0.89254 0.97549 1.07542
 O794 O 0.86645 0.97292 1.09887
 C795 C 0.87530 0.96695 1.08145
 C796 C 0.86577 0.94944 1.06852
 C797 C 0.84590 0.94103 1.07426
 H798 H 0.83705 0.94841 1.08725
 O799 O 1.10572 1.01903 1.08668
 O800 O 1.13121 1.01892 1.11188
 C801 C 1.12310 1.02646 1.09452
 C802 C 1.13362 1.04419 1.08327
 C803 C 1.15510 1.04978 1.08804
 H804 H 1.16435 1.04086 1.09994
 O805 O 0.92856 0.89159 1.01551
 O806 O 0.90473 0.86596 1.01355
 C807 C 0.92174 0.87378 1.02182
 C808 C 0.93347 0.86248 1.03938
 C809 C 0.92778 0.84178 1.04526
 H810 H 0.91526 0.83360 1.03628
 O811 O 1.07193 1.10714 1.03426
 O812 O 1.09573 1.13272 1.03728
 C813 C 1.07859 1.12404 1.04345
 C814 C 1.06660 1.13340 1.06182
 C815 C 1.07269 1.15307 1.07083
 H816 H 1.08546 1.16181 1.06347
 Cu817 Cu 1.08932 0.99744 1.09769
 Cu818 Cu 1.11949 0.99732 1.12834
 Cu819 Cu 0.90751 0.99630 1.09035
 Cu820 Cu 0.87624 0.99314 1.11856
 Cu821 Cu 0.99458 1.08276 1.10131
 Cu822 Cu 0.99297 1.11151 1.13261
 Cu823 Cu 1.00204 0.90933 1.09109
 Cu824 Cu 1.00216 0.87826 1.11958
 C825 C 1.05215 1.04973 1.13643
 H826 H 1.04650 1.04455 1.12065
 C827 C 1.06781 1.06398 1.17666
 C828 C 0.94271 0.93926 1.12519
 H829 H 0.94824 0.94475 1.10976
 C830 C 0.92750 0.92478 1.16471
 C831 C 1.04959 1.12233 1.07103
 H832 H 1.04499 1.10703 1.06438
 C833 C 1.06221 1.16153 1.08901
 C834 C 0.94980 0.87290 1.05116
 H835 H 0.95394 0.88904 1.04709
 C836 C 0.93833 0.83164 1.06268
 C837 C 1.12195 1.05571 1.06742
 H838 H 1.10535 1.05179 1.06381
 C839 C 1.16477 1.06640 1.07679
 C840 C 0.87700 0.94018 1.05123
 H841 H 0.89250 0.94637 1.04689
 C842 C 0.83751 0.92323 1.06336
 C843 C 0.93770 1.04913 1.13325
 H844 H 0.94454 1.04410 1.11806
 C845 C 0.91919 1.06281 1.17213
 C846 C 1.05660 0.94159 1.13129
 H847 H 1.05129 0.94779 1.11581
 C848 C 1.07086 0.92443 1.17068
 C849 C 1.12766 0.94403 1.06215
 H850 H 1.11237 0.95003 1.05591
 C851 C 1.16669 0.92779 1.07915
 C852 C 0.86924 1.05114 1.05799
 H853 H 0.88538 1.04641 1.05346
 C854 C 0.82792 1.06436 1.07018
 C855 C 0.93806 1.11875 1.06559
 H856 H 0.94279 1.10292 1.06032
 C857 C 0.92568 1.15963 1.07961
 C858 C 1.05939 0.87564 1.05712
 H859 H 1.05292 0.89091 1.05205
 C860 C 1.07717 0.83662 1.07076
 O861 O 1.08269 0.98782 0.89947
 O862 O 1.10817 0.98921 0.87523
 C863 C 1.09068 0.98149 0.88176
 C864 C 1.07936 0.96496 0.86888
 C865 C 1.08552 0.95986 0.84764
 H866 H 1.09868 0.96816 0.84038
 O867 O 0.92290 1.02440 0.89518
 O868 O 0.89827 1.02495 0.86912
 C869 C 0.91546 1.03212 0.87768
 C870 C 0.92691 1.04980 0.86753
 C871 C 0.92092 1.05713 0.84688
 H872 H 0.90818 1.04921 0.83801
 O873 O 0.97575 1.10828 0.93100
 O874 O 0.97509 1.13397 0.90697
 C875 C 0.96771 1.12555 0.92379
 C876 C 0.94920 1.13561 0.93473
 C877 C 0.93961 1.15426 0.92650
 H878 H 0.94658 1.16192 0.91276
 O879 O 1.02587 0.90116 0.92099
 O880 O 1.02782 0.87786 0.89426
 C881 C 1.03401 0.88441 0.91276
 C882 C 1.05107 0.87252 0.92457
 C883 C 1.05759 0.85238 0.91721
 H884 H 1.04954 0.84524 0.90334
 O885 O 1.10925 0.92801 0.98366
 O886 O 1.13509 0.90361 0.98301
 C887 C 1.12727 0.92136 0.97680
 C888 C 1.13916 0.93424 0.96125
 C889 C 1.16044 0.92882 0.95624
 H890 H 1.16830 0.91546 0.96420
 O891 O 0.88951 1.07617 0.98271
 O892 O 0.86383 1.10072 0.98316
 C893 C 0.87200 1.08387 0.97505
 C894 C 0.86151 1.07318 0.95626
 C895 C 0.84145 1.08027 0.94785
 H896 H 0.83309 1.09341 0.95557
 O897 O 1.02018 1.08191 0.90246
 O898 O 1.01966 1.10778 0.87865
 C899 C 1.02766 1.09046 0.88575
 C900 C 1.04621 1.08052 0.87473
 C901 C 1.05368 1.08914 0.85553
 H902 H 1.04535 1.10267 0.84837
 O903 O 0.98378 0.93016 0.89060
 O904 O 0.98578 0.90697 0.86380
 C905 C 0.97735 0.92348 0.87222
 C906 C 0.95951 0.93480 0.86092
 C907 C 0.95348 0.92948 0.83959
 H908 H 0.96271 0.91754 0.83098
 O909 O 1.10969 1.02909 0.93188
 O910 O 1.13541 1.03070 0.90794
 C911 C 1.12688 1.03737 0.92526
 C912 C 1.13643 1.05544 0.93751
 C913 C 1.15511 1.06545 0.93037
 H914 H 1.16282 1.05944 0.91603
 O915 O 0.89524 0.98097 0.92162
 O916 O 0.87026 0.98132 0.89590
 C917 C 0.87813 0.97355 0.91324
 C918 C 0.86758 0.95547 0.92365
 C919 C 0.84693 0.94914 0.91703
 H920 H 0.83843 0.95786 0.90441
 O921 O 1.07219 1.11008 0.99213
 O922 O 1.09577 1.13586 0.99511
 C923 C 1.07889 1.12814 0.98645
 C924 C 1.06715 1.13975 0.96909
 C925 C 1.07309 1.16033 0.96294
 H926 H 1.08595 1.16833 0.97159
 O927 O 0.92862 0.89322 0.97339
 O928 O 0.90464 0.86774 0.97130
 C929 C 0.92177 0.87615 0.96476
 C930 C 0.93362 0.86654 0.94650
 C931 C 0.92776 0.84677 0.93756
 H932 H 0.91507 0.83793 0.94493
 O933 O 0.92451 0.98330 0.89262
 O934 O 0.89972 0.98375 0.86671
 C935 C 0.91754 0.97684 0.87436
 C936 C 0.93018 0.96093 0.86211
 C937 C 0.92440 0.95556 0.84081
 H938 H 0.91077 0.96351 0.83307
 O939 O 1.08048 1.02896 0.90192
 O940 O 1.10596 1.03067 0.87771
 C941 C 1.08800 1.03711 0.88504
 C942 C 1.07587 1.05461 0.87432
 C943 C 1.08324 1.06358 0.85517
 H944 H 1.09741 1.05693 0.84764
 O945 O 0.98424 0.89957 0.91829
 O946 O 0.98628 0.87630 0.89155
 C947 C 0.97816 0.88243 0.90923
 C948 C 0.96122 0.86975 0.91924
 C949 C 0.95527 0.84997 0.91054
 H950 H 0.96350 0.84363 0.89657
 O951 O 1.01741 1.10978 0.93339
 O952 O 1.01668 1.13570 0.90962
 C953 C 1.02374 1.12780 0.92719
 C954 C 1.03987 1.13945 0.94026
 C955 C 1.04562 1.16010 0.93465
 H956 H 1.03755 1.16789 0.92117
 O957 O 0.89823 0.92171 0.97434
 O958 O 0.87404 0.89640 0.97245
 C959 C 0.88094 0.91426 0.96634
 C960 C 0.86896 0.92643 0.94958
 C961 C 0.84824 0.92036 0.94281
 H962 H 0.84080 0.90713 0.95063
 O963 O 1.10376 1.08268 0.99059
 O964 O 1.12736 1.10845 0.99355
 C965 C 1.12095 1.09144 0.98449
 C966 C 1.13330 1.08201 0.96638
 C967 C 1.15202 1.09175 0.95905
 H968 H 1.15786 1.10594 0.96712
 O969 O 1.02571 0.93214 0.89370
 O970 O 1.02757 0.90896 0.86686
 C971 C 1.03385 0.92598 0.87605
 C972 C 1.05104 0.93842 0.86616
 C973 C 1.05698 0.93404 0.84492
 H974 H 1.04840 0.92208 0.83561
 O975 O 0.97824 1.08036 0.90025
 O976 O 0.97788 1.10605 0.87622
 C977 C 0.97116 1.08827 0.88269
 C978 C 0.95451 1.07697 0.86996
 C979 C 0.94845 1.08402 0.84933
 H980 H 0.95662 1.09738 0.84237
 O981 O 0.89312 1.02241 0.92374
 O982 O 0.86833 1.02280 0.89785
 C983 C 0.87541 1.02949 0.91597
 C984 C 0.86321 1.04613 0.92776
 C985 C 0.84305 1.05305 0.91993
 H986 H 0.83602 1.04551 0.90574
 O987 O 1.11083 0.98749 0.93081
 O988 O 1.13667 0.98877 0.90697
 C989 C 1.12877 0.98080 0.92382
 C990 C 1.14009 0.96320 0.93525
 C991 C 1.16138 0.95739 0.93026
 H992 H 1.16991 0.96647 0.91848
 O993 O 1.08164 0.89753 0.98024
 O994 O 1.10726 0.87294 0.97928
 C995 C 1.08975 0.88079 0.97184
 C996 C 1.07875 0.87072 0.95303
 C997 C 1.08562 0.85081 0.94485
 H998 H 1.09899 0.84237 0.95248
 O999 O 0.91852 1.10510 0.98581
 O1000 O 0.89293 1.12976 0.98640
 C1001 C 0.91062 1.12263 0.97916
 C1002 C 0.92156 1.13437 0.96212
 C1003 C 0.91231 1.15312 0.95381
 H1004 H 0.89771 1.15965 0.96072
 Cu1005 Cu 1.09346 1.00812 0.91846
 Cu1006 Cu 1.12421 1.00990 0.88959
 Cu1007 Cu 0.91141 1.00272 0.91092
 Cu1008 Cu 0.88157 1.00324 0.87984
 Cu1009 Cu 1.08498 1.09202 1.01195
 Cu1010 Cu 1.11351 1.12270 1.01569
 Cu1011 Cu 1.09245 0.91386 1.00297
 Cu1012 Cu 1.12327 0.88442 1.00193
 Cu1013 Cu 0.90622 1.08689 1.00515
 Cu1014 Cu 0.87558 1.11659 1.00593
 Cu1015 Cu 0.91591 0.90914 0.99501
 Cu1016 Cu 0.88702 0.87860 0.99273
 Cu1017 Cu 0.99797 1.09244 0.91916
 Cu1018 Cu 0.99732 1.12345 0.89042
 Cu1019 Cu 1.00463 0.91816 0.90854
 Cu1020 Cu 1.00717 0.89022 0.87638
 C1021 C 1.06208 0.95410 0.87795
 H1022 H 1.05747 0.95755 0.89440
 C1023 C 1.07417 0.94448 0.83559
 C1024 C 0.94380 1.05976 0.87885
 H1025 H 0.94828 1.05444 0.89490
 C1026 C 0.93163 1.07436 0.83773
 C1027 C 0.94015 1.12584 0.95263
 H1028 H 0.94716 1.11117 0.95875
 C1029 C 0.92092 1.16286 0.93575
 C1030 C 1.06145 0.88143 0.94271
 H1031 H 1.05639 0.89699 0.94847
 C1032 C 1.07487 0.84157 0.92703
 C1033 C 1.12918 0.95158 0.95087
 H1034 H 1.11266 0.95570 0.95457
 C1035 C 1.17162 0.94013 0.94074
 C1036 C 0.87217 1.05607 0.94607
 H1037 H 0.88782 1.05081 0.95206
 C1038 C 0.83219 1.07020 0.92959
 C1039 C 1.05727 1.06313 0.88390
 H1040 H 1.05169 1.05659 0.89887
 C1041 C 1.07227 1.08102 0.84582
 C1042 C 0.94784 0.95061 0.87194
 H1043 H 0.95221 0.95456 0.88847
 C1044 C 0.93584 0.93981 0.82944
 C1045 C 1.12584 1.06374 0.95565
 H1046 H 1.11129 1.05632 0.96106
 C1047 C 1.16313 1.08362 0.94115
 C1048 C 0.87842 0.94408 0.94001
 H1049 H 0.89448 0.94872 0.94503
 C1050 C 0.83713 0.93161 0.92644
 C1051 C 1.05045 1.12954 0.95768
 H1052 H 1.04612 1.11351 0.96192
 C1053 C 1.06232 1.17054 0.94565
 C1054 C 0.95042 0.87779 0.93727
 H1055 H 0.95481 0.89316 0.94387
 C1056 C 0.93846 0.83843 0.91942
 O1057 O 0.97768 0.42362 0.39402
 O1058 O 0.97744 0.39832 0.36916
 C1059 C 0.97015 0.41585 0.37653
 C1060 C 0.95245 0.42725 0.36503
 C1061 C 0.94639 0.42170 0.34377
 H1062 H 0.95533 0.40931 0.33553
 O1063 O 1.01630 0.57552 0.39232
 O1064 O 1.01534 0.59979 0.36685
 C1065 C 1.02315 0.58264 0.37464
 C1066 C 1.04075 0.57100 0.36355
 C1067 C 1.04787 0.57732 0.34317
 H1068 H 1.03989 0.59046 0.33501
 O1069 O 0.89032 0.47824 0.42415
 O1070 O 0.86482 0.47786 0.39898
 C1071 C 0.87285 0.47079 0.41652
 C1072 C 0.86199 0.45340 0.42783
 C1073 C 0.84222 0.44572 0.42003
 H1074 H 0.83460 0.45311 0.40608
 O1075 O 1.10503 0.52101 0.42216
 O1076 O 1.12991 0.52086 0.39724
 C1077 C 1.12230 0.52838 0.41463
 C1078 C 1.13327 0.54601 0.42626
 C1079 C 1.15347 0.55343 0.41980
 H1080 H 1.16150 0.54598 0.40628
 O1081 O 0.92266 0.39536 0.48156
 O1082 O 0.89801 0.37049 0.48160
 C1083 C 0.91529 0.37798 0.47422
 C1084 C 0.92679 0.36677 0.45661
 C1085 C 0.92045 0.34646 0.44952
 H1086 H 0.90756 0.33860 0.45765
 O1087 O 1.07419 0.60681 0.47836
 O1088 O 1.09931 0.63120 0.47828
 C1089 C 1.08180 0.62374 0.47068
 C1090 C 1.07034 0.63434 0.45233
 C1091 C 1.07790 0.65338 0.44347
 H1092 H 1.09184 0.66081 0.45075
 O1093 O 0.91823 0.51990 0.39448
 O1094 O 0.89259 0.51945 0.36944
 C1095 C 0.91011 0.52690 0.37692
 C1096 C 0.92084 0.54416 0.36529
 C1097 C 0.91244 0.55142 0.34548
 H1098 H 0.89843 0.54384 0.33836
 O1099 O 1.07640 0.47837 0.39327
 O1100 O 1.10114 0.47790 0.36820
 C1101 C 1.08389 0.47071 0.37584
 C1102 C 1.07246 0.45302 0.36478
 C1103 C 1.07925 0.44492 0.34470
 H1104 H 1.09264 0.45224 0.33689
 O1105 O 1.02050 0.39547 0.42421
 O1106 O 1.02051 0.37006 0.39947
 C1107 C 1.02811 0.37810 0.41682
 C1108 C 1.04646 0.36755 0.42815
 C1109 C 1.05575 0.34883 0.41968
 H1110 H 1.04884 0.34151 0.40534
 O1111 O 0.97478 0.60470 0.42229
 O1112 O 0.97341 0.62923 0.39708
 C1113 C 0.96671 0.62179 0.41472
 C1114 C 0.94895 0.63266 0.42633
 C1115 C 0.94002 0.65192 0.41872
 H1116 H 0.94675 0.65938 0.40474
 O1117 O 0.88978 0.57637 0.48083
 O1118 O 0.86421 0.60104 0.48114
 C1119 C 0.87190 0.58372 0.47366
 C1120 C 0.86042 0.57224 0.45602
 C1121 C 0.84027 0.57948 0.44810
 H1122 H 0.83256 0.59301 0.45577
 O1123 O 1.10794 0.42445 0.48205
 O1124 O 1.13352 0.39979 0.48165
 C1125 C 1.12547 0.41707 0.47451
 C1126 C 1.13620 0.42855 0.45694
 C1127 C 1.15701 0.42262 0.45012
 H1128 H 1.16566 0.40990 0.45827
 O1129 O 0.97433 0.57566 0.39255
 O1130 O 0.97319 0.60001 0.36716
 C1131 C 0.96629 0.58288 0.37505
 C1132 C 0.94830 0.57152 0.36421
 C1133 C 0.93959 0.57865 0.34439
 H1134 H 0.94654 0.59232 0.33688
 O1135 O 1.01967 0.42372 0.39422
 O1136 O 1.01936 0.39835 0.36942
 C1137 C 1.02676 0.41573 0.37679
 C1138 C 1.04422 0.42640 0.36531
 C1139 C 1.05109 0.41863 0.34528
 H1140 H 1.04296 0.40522 0.33786
 O1141 O 1.10472 0.47963 0.42444
 O1142 O 1.12964 0.47940 0.39954
 C1143 C 1.12240 0.47255 0.41721
 C1144 C 1.13454 0.45592 0.42918
 C1145 C 1.15531 0.45005 0.42287
 H1146 H 1.16264 0.45827 0.40964
 O1147 O 0.88978 0.51976 0.42457
 O1148 O 0.86412 0.51932 0.39954
 C1149 C 0.87195 0.52678 0.41706
 C1150 C 0.86053 0.54422 0.42846
 C1151 C 0.84039 0.55154 0.42091
 H1152 H 0.83280 0.54378 0.40713
 O1153 O 0.91980 0.60443 0.48018
 O1154 O 0.89438 0.62926 0.48049
 C1155 C 0.91177 0.62163 0.47289
 C1156 C 0.92235 0.63258 0.45498
 C1157 C 0.91399 0.65196 0.44739
 H1158 H 0.90029 0.65935 0.45521
 O1159 O 1.07783 0.39626 0.48211
 O1160 O 1.10338 0.37156 0.48158
 C1161 C 1.08555 0.37905 0.47447
 C1162 C 1.07422 0.36796 0.45657
 C1163 C 1.08293 0.34905 0.44813
 H1164 H 1.09731 0.34205 0.45543
 O1165 O 1.07379 0.51973 0.39394
 O1166 O 1.09849 0.51936 0.36882
 C1167 C 1.08083 0.52651 0.37624
 C1168 C 1.06869 0.54323 0.36442
 C1169 C 1.07525 0.54944 0.34397
 H1170 H 1.08875 0.54135 0.33649
 O1171 O 0.91957 0.47849 0.39484
 O1172 O 0.89415 0.47816 0.36956
 C1173 C 0.91201 0.47123 0.37715
 C1174 C 0.92403 0.45441 0.36547
 C1175 C 0.91817 0.44875 0.34428
 H1176 H 0.90492 0.45707 0.33629
 O1177 O 1.01680 0.60505 0.42163
 O1178 O 1.01561 0.62951 0.39636
 C1179 C 1.02369 0.62223 0.41382
 C1180 C 1.04171 0.63349 0.42473
 C1181 C 1.04937 0.65249 0.41627
 H1182 H 1.04145 0.65932 0.40218
 O1183 O 0.97851 0.39557 0.42447
 O1184 O 0.97848 0.37011 0.39979
 C1185 C 0.97138 0.37802 0.41725
 C1186 C 0.95437 0.36688 0.42896
 C1187 C 0.94793 0.34656 0.42225
 H1188 H 0.95590 0.33878 0.40886
 O1189 O 1.10369 0.57728 0.47928
 O1190 O 1.12889 0.60163 0.47970
 C1191 C 1.12129 0.58436 0.47232
 C1192 C 1.13278 0.57283 0.45502
 C1193 C 1.15311 0.57956 0.44879
 H1194 H 1.16077 0.59260 0.45735
 O1195 O 0.89151 0.42318 0.48127
 O1196 O 0.86670 0.39849 0.48166
 C1197 C 0.87395 0.41553 0.47394
 C1198 C 0.86233 0.42627 0.45582
 C1199 C 0.84251 0.41863 0.44763
 H1200 H 0.83517 0.40526 0.45532
 Cu1201 Cu 0.99904 0.41216 0.41169
 Cu1202 Cu 0.99887 0.38162 0.38201
 Cu1203 Cu 0.99567 0.58779 0.40970
 Cu1204 Cu 0.99429 0.61712 0.37935
 Cu1205 Cu 0.90703 0.49913 0.41205
 Cu1206 Cu 0.87632 0.49863 0.38189
 Cu1207 Cu 1.08753 0.49972 0.41093
 Cu1208 Cu 1.11728 0.49935 0.38094
 C1209 C 0.94127 0.44369 0.37564
 H1210 H 0.94571 0.44789 0.39209
 C1211 C 0.92921 0.43248 0.33324
 C1212 C 1.05125 0.55388 0.37396
 H1213 H 1.04625 0.54920 0.38986
 C1214 C 1.06521 0.56655 0.33337
 C1215 C 0.87179 0.44372 0.44584
 H1216 H 0.88716 0.44946 0.45176
 C1217 C 0.83235 0.42832 0.42960
 C1218 C 1.12311 0.55588 0.44389
 H1219 H 1.10736 0.55069 0.44868
 C1220 C 1.16346 0.57022 0.43116
 C1221 C 0.94384 0.37679 0.44627
 H1222 H 0.94861 0.39258 0.45137
 C1223 C 0.93092 0.33632 0.43222
 C1224 C 1.05217 0.62466 0.44286
 H1225 H 1.04645 0.60985 0.44928
 C1226 C 1.06747 0.66254 0.42530
 C1227 C 0.93893 0.55414 0.37438
 H1228 H 0.94531 0.54877 0.38980
 C1229 C 0.92165 0.56858 0.33483
 C1230 C 1.05487 0.44369 0.37482
 H1231 H 1.04975 0.44957 0.39040
 C1232 C 1.06859 0.42761 0.33485
 C1233 C 1.05580 0.37699 0.44667
 H1234 H 1.04915 0.39176 0.45296
 C1235 C 1.07414 0.33970 0.42951
 C1236 C 0.94001 0.62315 0.44453
 H1237 H 0.94642 0.60806 0.45021
 C1238 C 0.92244 0.66152 0.42915
 C1239 C 0.87031 0.55452 0.44616
 H1240 H 0.88600 0.54910 0.45187
 C1241 C 0.83023 0.56924 0.43038
 C1242 C 1.12519 0.44528 0.44639
 H1243 H 1.10905 0.44970 0.45121
 C1244 C 1.16665 0.43345 0.43305
 O1245 O 1.02342 0.42198 0.61075
 O1246 O 1.02441 0.39735 0.63583
 C1247 C 1.03138 0.41464 0.62823
 C1248 C 1.04925 0.42620 0.63934
 C1249 C 1.05824 0.41886 0.65899
 H1250 H 1.05165 0.40486 0.66622
 O1251 O 0.98070 0.57907 0.60891
 O1252 O 0.98072 0.60453 0.63360
 C1253 C 0.97373 0.58692 0.62644
 C1254 C 0.95710 0.57564 0.63846
 C1255 C 0.95093 0.58290 0.65888
 H1256 H 0.95888 0.59651 0.66611
 O1257 O 0.89662 0.52210 0.58153
 O1258 O 0.87184 0.52244 0.60657
 C1259 C 0.87898 0.52926 0.58889
 C1260 C 0.86666 0.54578 0.57690
 C1261 C 0.84572 0.55142 0.58303
 H1262 H 0.83845 0.54337 0.59641
 O1263 O 1.10850 0.47948 0.58228
 O1264 O 1.13429 0.48020 0.60713
 C1265 C 1.12642 0.47249 0.58978
 C1266 C 1.13772 0.45486 0.57832
 C1267 C 1.15752 0.44635 0.58601
 H1268 H 1.16517 0.45318 0.60022
 O1269 O 1.07945 0.39554 0.52426
 O1270 O 1.10487 0.37073 0.52359
 C1271 C 1.08746 0.37815 0.53128
 C1272 C 1.07677 0.36665 0.54888
 C1273 C 1.08530 0.34719 0.55621
 H1274 H 1.09930 0.34031 0.54845
 O1275 O 0.92038 0.60603 0.52211
 O1276 O 0.89501 0.63092 0.52252
 C1277 C 0.91295 0.62354 0.52943
 C1278 C 0.92527 0.63514 0.54635
 C1279 C 0.91982 0.65623 0.55207
 H1280 H 0.90680 0.66427 0.54352
 O1281 O 0.92696 0.48068 0.61130
 O1282 O 0.90224 0.48134 0.63638
 C1283 C 0.91955 0.47363 0.62877
 C1284 C 0.93059 0.45572 0.63995
 C1285 C 0.92275 0.44842 0.65955
 H1286 H 0.90933 0.45665 0.66702
 O1287 O 1.07858 0.52133 0.61137
 O1288 O 1.10428 0.52232 0.63630
 C1289 C 1.08652 0.52934 0.62862
 C1290 C 1.07522 0.54748 0.63921
 C1291 C 1.08232 0.55574 0.65930
 H1292 H 1.09572 0.54813 0.66766
 O1293 O 0.98096 0.39282 0.58127
 O1294 O 0.98164 0.36781 0.60595
 C1295 C 0.97372 0.37557 0.58860
 C1296 C 0.95555 0.36497 0.57695
 C1297 C 0.94777 0.34506 0.58351
 H1298 H 0.95554 0.33691 0.59688
 O1299 O 1.02110 0.60820 0.57883
 O1300 O 1.02111 0.63365 0.60352
 C1301 C 1.02808 0.62585 0.58601
 C1302 C 1.04474 0.63712 0.57399
 C1303 C 1.05141 0.65757 0.58030
 H1304 H 1.04354 0.66549 0.59361
 O1305 O 0.89395 0.42510 0.52353
 O1306 O 0.86901 0.40052 0.52401
 C1307 C 0.87680 0.41785 0.53126
 C1308 C 0.86630 0.42944 0.54926
 C1309 C 0.84619 0.42311 0.55680
 H1310 H 0.83786 0.41028 0.54865
 O1311 O 1.10315 0.57747 0.52139
 O1312 O 1.12835 0.60181 0.52170
 C1313 C 1.12072 0.58467 0.52900
 C1314 C 1.13230 0.57314 0.54666
 C1315 C 1.15312 0.57927 0.55316
 H1316 H 1.16081 0.59193 0.54465
 O1317 O 1.02253 0.57865 0.60787
 O1318 O 1.02245 0.60405 0.63262
 C1319 C 1.02990 0.58652 0.62536
 C1320 C 1.04749 0.57540 0.63729
 C1321 C 1.05457 0.58319 0.65736
 H1322 H 1.04670 0.59708 0.66429
 O1323 O 0.98148 0.42195 0.61107
 O1324 O 0.98203 0.39725 0.63608
 C1325 C 0.97444 0.41463 0.62858
 C1326 C 0.95692 0.42639 0.63983
 C1327 C 0.94846 0.41902 0.65932
 H1328 H 0.95529 0.40488 0.66672
 O1329 O 1.10500 0.52090 0.57956
 O1330 O 1.13099 0.52174 0.60420
 C1331 C 1.12256 0.52854 0.58663
 C1332 C 1.13316 0.54573 0.57458
 C1333 C 1.15391 0.55216 0.58071
 H1334 H 1.16228 0.54419 0.59389
 O1335 O 0.89697 0.48078 0.58172
 O1336 O 0.87222 0.48126 0.60678
 C1337 C 0.87953 0.47386 0.58918
 C1338 C 0.86777 0.45683 0.57750
 C1339 C 0.84762 0.45038 0.58464
 H1340 H 0.84043 0.45827 0.59842
 O1341 O 1.07458 0.60793 0.52058
 O1342 O 1.09962 0.63244 0.52054
 C1343 C 1.08221 0.62529 0.52779
 C1344 C 1.07105 0.63689 0.54526
 C1345 C 1.07752 0.65731 0.55170
 H1346 H 1.09032 0.66501 0.54321
 O1347 O 0.92305 0.39510 0.52370
 O1348 O 0.89821 0.37042 0.52373
 C1349 C 0.91582 0.37784 0.53105
 C1350 C 0.92759 0.36635 0.54857
 C1351 C 0.92042 0.34644 0.55513
 H1352 H 0.90680 0.33930 0.54681
 O1353 O 1.07791 0.47949 0.61030
 O1354 O 1.10362 0.48034 0.63523
 C1355 C 1.08618 0.47251 0.62775
 C1356 C 1.07585 0.45464 0.63906
 C1357 C 1.08446 0.44710 0.65866
 H1358 H 1.09822 0.45497 0.66596
 O1359 O 0.92611 0.52243 0.61167
 O1360 O 0.90145 0.52303 0.63681
 C1361 C 0.91871 0.53012 0.62910
 C1362 C 0.93008 0.54791 0.63998
 C1363 C 0.92392 0.55552 0.66045
 H1364 H 0.91124 0.54761 0.66882
 O1365 O 0.97923 0.60668 0.57811
 O1366 O 0.97935 0.63223 0.60271
 C1367 C 0.97183 0.62421 0.58532
 C1368 C 0.95420 0.63532 0.57351
 C1369 C 0.94865 0.65633 0.57891
 H1370 H 0.95767 0.66453 0.59151
 O1371 O 1.02320 0.39295 0.58095
 O1372 O 1.02429 0.36800 0.60571
 C1373 C 1.03127 0.37576 0.58832
 C1374 C 1.04942 0.36526 0.57680
 C1375 C 1.05835 0.34578 0.58396
 H1376 H 1.05117 0.33794 0.59744
 O1377 O 1.10824 0.42505 0.52424
 O1378 O 1.13366 0.40023 0.52369
 C1379 C 1.12600 0.41747 0.53136
 C1380 C 1.13751 0.42835 0.54927
 C1381 C 1.15743 0.42046 0.55678
 H1382 H 1.16490 0.40698 0.54870
 O1383 O 0.89213 0.57619 0.52291
 O1384 O 0.86652 0.60082 0.52335
 C1385 C 0.87478 0.58364 0.53060
 C1386 C 0.86445 0.57236 0.54844
 C1387 C 0.84349 0.57788 0.55485
 H1388 H 0.83459 0.58998 0.54604
 Cu1389 Cu 1.00214 0.40980 0.59354
 Cu1390 Cu 1.00318 0.38008 0.62334
 Cu1391 Cu 1.00092 0.59061 0.59092
 Cu1392 Cu 1.00090 0.62116 0.62061
 Cu1393 Cu 0.91018 0.41219 0.50246
 Cu1394 Cu 0.88051 0.38253 0.50283
 Cu1395 Cu 1.09085 0.41285 0.50320
 Cu1396 Cu 1.12137 0.38307 0.50259
 Cu1397 Cu 0.90802 0.58824 0.50151
 Cu1398 Cu 0.87746 0.61799 0.50193
 Cu1399 Cu 1.08633 0.59000 0.49989
 Cu1400 Cu 1.11656 0.61921 0.50012
 Cu1401 Cu 0.91425 0.50151 0.59413
 Cu1402 Cu 0.88452 0.50206 0.62422
 Cu1403 Cu 1.08993 0.50016 0.59350
 Cu1404 Cu 1.12079 0.50129 0.62320
 C1405 C 1.05810 0.44420 0.62966
 H1406 H 1.05154 0.44977 0.61439
 C1407 C 1.07588 0.42929 0.66883
 C1408 C 0.94676 0.55803 0.62924
 H1409 H 0.95136 0.55253 0.61335
 C1410 C 0.93435 0.57312 0.67000
 C1411 C 0.87584 0.55622 0.55948
 H1412 H 0.89208 0.55205 0.55479
 C1413 C 0.83402 0.56744 0.57221
 C1414 C 1.12795 0.44572 0.55991
 H1415 H 1.11249 0.45175 0.55418
 C1416 C 1.16742 0.42906 0.57523
 C1417 C 1.05872 0.37547 0.55916
 H1418 H 1.05224 0.39063 0.55375
 C1419 C 1.07644 0.33666 0.57376
 C1420 C 0.94256 0.62490 0.55709
 H1421 H 0.94671 0.60859 0.55297
 C1422 C 0.93156 0.66695 0.56837
 C1423 C 0.94784 0.44480 0.63036
 H1424 H 0.95380 0.45032 0.61511
 C1425 C 0.93124 0.43000 0.66919
 C1426 C 1.05772 0.55741 0.62845
 H1427 H 1.05238 0.55146 0.61284
 C1428 C 1.07197 0.57368 0.66847
 C1429 C 0.94530 0.37539 0.55941
 H1430 H 0.95080 0.39084 0.55446
 C1431 C 0.93014 0.33569 0.57254
 C1432 C 1.05454 0.62703 0.55638
 H1433 H 1.04970 0.61115 0.55165
 C1434 C 1.06791 0.66776 0.56924
 C1435 C 0.87691 0.44640 0.55967
 H1436 H 0.89257 0.45116 0.55422
 C1437 C 0.83684 0.43346 0.57461
 C1438 C 1.12249 0.55623 0.55740
 H1439 H 1.10637 0.55153 0.55267
 C1440 C 1.16402 0.56889 0.57023
 O1441 O 0.46651 0.91977 0.39367
 O1442 O 0.46544 0.89466 0.36865
 C1443 C 0.45835 0.91213 0.37643
 C1444 C 0.44011 0.92355 0.36578
 C1445 C 0.43000 0.91515 0.34719
 H1446 H 0.43620 0.90062 0.34001
 O1447 O 0.50831 1.07662 0.39431
 O1448 O 0.50697 1.10161 0.36956
 C1449 C 0.51438 1.08396 0.37644
 C1450 C 0.53028 1.07195 0.36358
 C1451 C 0.53547 1.07882 0.34288
 H1452 H 0.52750 1.09278 0.33618
 O1453 O 0.38380 0.97866 0.42457
 O1454 O 0.35768 0.97881 0.40002
 C1455 C 0.36611 0.97144 0.41728
 C1456 C 0.35568 0.95389 0.42876
 C1457 C 0.33648 0.94497 0.42076
 H1458 H 0.32870 0.95140 0.40642
 O1459 O 0.59345 1.01785 0.41713
 O1460 O 0.61653 1.01856 0.39054
 C1461 C 0.61013 1.02545 0.40876
 C1462 C 0.62211 1.04265 0.42006
 C1463 C 0.64188 1.04923 0.41209
 H1464 H 0.64856 1.04134 0.39805
 O1465 O 0.41499 0.89285 0.48023
 O1466 O 0.38979 0.86857 0.48151
 C1467 C 0.40685 0.87558 0.47337
 C1468 C 0.41701 0.86375 0.45543
 C1469 C 0.40842 0.84448 0.44805
 H1470 H 0.39470 0.83790 0.45609
 O1471 O 0.56960 1.10360 0.47907
 O1472 O 0.59432 1.12839 0.47811
 C1473 C 0.57629 1.12113 0.47189
 C1474 C 0.56340 1.13298 0.45567
 C1475 C 0.56944 1.15346 0.44978
 H1476 H 0.58295 1.16098 0.45792
 O1477 O 0.41183 1.01998 0.39503
 O1478 O 0.38592 1.02035 0.37026
 C1479 C 0.40362 1.02744 0.37774
 C1480 C 0.41461 1.04485 0.36661
 C1481 C 0.40824 1.05103 0.34570
 H1482 H 0.39540 1.04267 0.33734
 O1483 O 0.56368 0.97585 0.38811
 O1484 O 0.58666 0.97634 0.36144
 C1485 C 0.57015 0.96858 0.37014
 C1486 C 0.55868 0.95049 0.35973
 C1487 C 0.56527 0.94200 0.33975
 H1488 H 0.57822 0.94948 0.33136
 O1489 O 0.51041 0.89155 0.42200
 O1490 O 0.50984 0.86623 0.39718
 C1491 C 0.51799 0.87432 0.41429
 C1492 C 0.53687 0.86407 0.42503
 C1493 C 0.54435 0.84396 0.41823
 H1494 H 0.53580 0.83545 0.40555
 O1495 O 0.46816 1.10630 0.42561
 O1496 O 0.46680 1.13134 0.40091
 C1497 C 0.46038 1.12372 0.41852
 C1498 C 0.44326 1.13484 0.43062
 C1499 C 0.43606 1.15523 0.42460
 H1500 H 0.44416 1.16323 0.41177
 O1501 O 0.38462 1.07577 0.48239
 O1502 O 0.35915 1.10050 0.48361
 C1503 C 0.36672 1.08337 0.47558
 C1504 C 0.35502 1.07240 0.45776
 C1505 C 0.33488 1.07998 0.45008
 H1506 H 0.32735 1.09353 0.45791
 O1507 O 0.60399 0.92290 0.47177
 O1508 O 0.62932 0.89804 0.47070
 C1509 C 0.62095 0.91509 0.46340
 C1510 C 0.63034 0.92579 0.44455
 C1511 C 0.64935 0.91818 0.43478
 H1512 H 0.65768 0.90453 0.44157
 O1513 O 0.46679 1.07707 0.39610
 O1514 O 0.46543 1.10193 0.37119
 C1515 C 0.45875 1.08453 0.37875
 C1516 C 0.44145 1.07287 0.36730
 C1517 C 0.43499 1.07872 0.34637
 H1518 H 0.44344 1.09131 0.33851
 O1519 O 0.50824 0.91944 0.39166
 O1520 O 0.50736 0.89429 0.36667
 C1521 C 0.51474 0.91175 0.37387
 C1522 C 0.53147 0.92285 0.36171
 C1523 C 0.53814 0.91478 0.34174
 H1524 H 0.53045 0.90084 0.33490
 O1525 O 0.59622 0.97651 0.41497
 O1526 O 0.61917 0.97727 0.38828
 C1527 C 0.61338 0.96978 0.40616
 C1528 C 0.62637 0.95269 0.41654
 C1529 C 0.64532 0.94504 0.40707
 H1530 H 0.65088 0.95231 0.39243
 O1531 O 0.38354 1.02004 0.42519
 O1532 O 0.35748 1.02027 0.40058
 C1533 C 0.36567 1.02737 0.41807
 C1534 C 0.35457 1.04475 0.42984
 C1535 C 0.33441 1.05231 0.42261
 H1536 H 0.32658 1.04479 0.40884
 O1537 O 0.41356 1.10510 0.48252
 O1538 O 0.38817 1.12991 0.48391
 C1539 C 0.40549 1.12263 0.47597
 C1540 C 0.41622 1.13430 0.45864
 C1541 C 0.40907 1.15467 0.45235
 H1542 H 0.39575 1.16227 0.46061
 O1543 O 0.57309 0.89579 0.47405
 O1544 O 0.59822 0.87068 0.47322
 C1545 C 0.58003 0.87807 0.46690
 C1546 C 0.56703 0.86602 0.45087
 C1547 C 0.57386 0.84572 0.44425
 H1548 H 0.58829 0.83862 0.45135
 O1549 O 0.56295 1.01766 0.38815
 O1550 O 0.58583 1.01814 0.36138
 C1551 C 0.56895 1.02523 0.37032
 C1552 C 0.55666 1.04303 0.36034
 C1553 C 0.56167 1.05016 0.33962
 H1554 H 0.57365 1.04156 0.33043
 O1555 O 0.41203 0.97834 0.39452
 O1556 O 0.38595 0.97876 0.36994
 C1557 C 0.40361 0.97108 0.37721
 C1558 C 0.41379 0.95282 0.36595
 C1559 C 0.40415 0.94438 0.34721
 H1560 H 0.38994 0.95204 0.34025
 O1561 O 0.51007 1.10578 0.42413
 O1562 O 0.50879 1.13092 0.39954
 C1563 C 0.51697 1.12311 0.41669
 C1564 C 0.53490 1.13393 0.42809
 C1565 C 0.54163 1.15424 0.42189
 H1566 H 0.53337 1.16245 0.40880
 O1567 O 0.46831 0.88997 0.42221
 O1568 O 0.46754 0.86468 0.39737
 C1569 C 0.46079 0.87255 0.41495
 C1570 C 0.44346 0.86196 0.42682
 C1571 C 0.43459 0.84259 0.41953
 H1572 H 0.44102 0.83494 0.40531
 O1573 O 0.59864 1.07374 0.47609
 O1574 O 0.62340 1.09841 0.47458
 C1575 C 0.61522 1.08124 0.46737
 C1576 C 0.62471 1.07001 0.44843
 C1577 C 0.64439 1.07651 0.43988
 H1578 H 0.65307 1.08936 0.44761
 O1579 O 0.38686 0.92359 0.48155
 O1580 O 0.36167 0.89928 0.48257
 C1581 C 0.36897 0.91636 0.47489
 C1582 C 0.35695 0.92739 0.45740
 C1583 C 0.33745 0.91918 0.44961
 H1584 H 0.33058 0.90545 0.45723
 Cu1585 Cu 0.48839 0.90761 0.40994
 Cu1586 Cu 0.48750 0.87741 0.37999
 Cu1587 Cu 0.48853 1.08902 0.41263
 Cu1588 Cu 0.48688 1.11902 0.38283
 Cu1589 Cu 0.40045 0.99927 0.41226
 Cu1590 Cu 0.36916 0.99964 0.38269
 Cu1591 Cu 0.57669 0.99683 0.40466
 Cu1592 Cu 0.60428 0.99772 0.37272
 C1593 C 0.43191 0.94246 0.37498
 H1594 H 0.43924 0.94877 0.38962
 C1595 C 0.41181 0.92540 0.33801
 C1596 C 0.54081 1.05393 0.37212
 H1597 H 0.53710 1.04876 0.38824
 C1598 C 0.55127 1.06823 0.33088
 C1599 C 0.36577 0.94498 0.44713
 H1600 H 0.38092 0.95128 0.45302
 C1601 C 0.32743 0.92753 0.43112
 C1602 C 0.61373 1.05300 0.43838
 H1603 H 0.59840 1.04806 0.44456
 C1604 C 0.65304 1.06615 0.42167
 C1605 C 0.43467 0.87220 0.44492
 H1606 H 0.44115 0.88723 0.45046
 C1607 C 0.41702 0.83369 0.43021
 C1608 C 0.54590 1.12347 0.44503
 H1609 H 0.54127 1.10759 0.44953
 C1610 C 0.55892 1.16405 0.43281
 C1611 C 0.43128 1.05584 0.37723
 H1612 H 0.43613 1.05136 0.39346
 C1613 C 0.41828 1.06800 0.33549
 C1614 C 0.54168 0.94081 0.37049
 H1615 H 0.53674 0.94693 0.38604
 C1616 C 0.55512 0.92397 0.33074
 C1617 C 0.54832 0.87498 0.44142
 H1618 H 0.54302 0.89073 0.44639
 C1619 C 0.56287 0.83480 0.42781
 C1620 C 0.43338 1.12462 0.44774
 H1621 H 0.43875 1.10878 0.45225
 C1622 C 0.41879 1.16522 0.43524
 C1623 C 0.36463 1.05472 0.44756
 H1624 H 0.38031 1.04904 0.45305
 C1625 C 0.32455 1.07002 0.43236
 C1626 C 0.61922 0.94317 0.43538
 H1627 H 0.60445 0.94892 0.44256
 C1628 C 0.65702 0.92787 0.41597
 O1629 O 0.52179 0.92262 0.60270
 O1630 O 0.52383 0.89768 0.62748
 C1631 C 0.53012 0.91524 0.61996
 C1632 C 0.54743 0.92697 0.63140
 C1633 C 0.55351 0.92119 0.65241
 H1634 H 0.54512 0.90851 0.66031
 O1635 O 0.47739 1.07494 0.61014
 O1636 O 0.47824 1.09982 0.63540
 C1637 C 0.47086 1.08242 0.62800
 C1638 C 0.45414 1.07090 0.63981
 C1639 C 0.44700 1.07802 0.66010
 H1640 H 0.45425 1.09181 0.66768
 O1641 O 0.39107 1.01995 0.58274
 O1642 O 0.36729 1.01993 0.60872
 C1643 C 0.37396 1.02736 0.59106
 C1644 C 0.36198 1.04486 0.57996
 C1645 C 0.34231 1.05289 0.58789
 H1646 H 0.33554 1.04621 0.60227
 O1647 O 0.60672 0.97963 0.57325
 O1648 O 0.63288 0.97886 0.59774
 C1649 C 0.62470 0.97225 0.58001
 C1650 C 0.63597 0.95567 0.56718
 C1651 C 0.65729 0.94956 0.57231
 H1652 H 0.66567 0.95771 0.58528
 O1653 O 0.57717 0.89533 0.51568
 O1654 O 0.60249 0.87042 0.51484
 C1655 C 0.58524 0.87798 0.52270
 C1656 C 0.57445 0.86654 0.54017
 C1657 C 0.58148 0.84609 0.54622
 H1658 H 0.59479 0.83855 0.53789
 O1659 O 0.41611 1.10367 0.52445
 O1660 O 0.39061 1.12838 0.52577
 C1661 C 0.40860 1.12083 0.53244
 C1662 C 0.42053 1.13195 0.54999
 C1663 C 0.41313 1.15178 0.55742
 H1664 H 0.39918 1.15922 0.54972
 O1665 O 0.42191 0.97714 0.60958
 O1666 O 0.39830 0.97652 0.63568
 C1667 C 0.41534 0.96926 0.62704
 C1668 C 0.42760 0.95127 0.63695
 C1669 C 0.42179 0.94279 0.65698
 H1670 H 0.40845 0.94978 0.66567
 O1671 O 0.57781 1.02044 0.60459
 O1672 O 0.60378 1.01978 0.62929
 C1673 C 0.58592 1.02729 0.62220
 C1674 C 0.57477 1.04453 0.63430
 C1675 C 0.58318 1.05167 0.65414
 H1676 H 0.59746 1.04403 0.66095
 O1677 O 0.47919 0.89230 0.57496
 O1678 O 0.48140 0.86715 0.59951
 C1679 C 0.47274 0.87482 0.58253
 C1680 C 0.45454 0.86381 0.57170
 C1681 C 0.44858 0.84314 0.57761
 H1682 H 0.45797 0.83470 0.58974
 O1683 O 0.51703 1.10333 0.57838
 O1684 O 0.51797 1.12847 0.60338
 C1685 C 0.52458 1.12067 0.58563
 C1686 C 0.54170 1.13155 0.57376
 C1687 C 0.54842 1.15173 0.58048
 H1688 H 0.54040 1.15970 0.59374
 O1689 O 0.38826 0.92289 0.52353
 O1690 O 0.36302 0.89862 0.52451
 C1691 C 0.37104 0.91586 0.53143
 C1692 C 0.36044 0.92768 0.54907
 C1693 C 0.33980 0.92211 0.55577
 H1694 H 0.33132 0.90967 0.54717
 O1695 O 0.60327 1.07408 0.51829
 O1696 O 0.62800 1.09879 0.51678
 C1697 C 0.62124 1.08158 0.52452
 C1698 C 0.63396 1.07074 0.54164
 C1699 C 0.65443 1.07798 0.54765
 H1700 H 0.66157 1.09081 0.53879
 O1701 O 0.51937 1.07549 0.60877
 O1702 O 0.52044 1.10040 0.63399
 C1703 C 0.52774 1.08313 0.62597
 C1704 C 0.54652 1.07200 0.63624
 C1705 C 0.55540 1.07909 0.65607
 H1706 H 0.54784 1.09231 0.66441
 O1707 O 0.47990 0.92172 0.60444
 O1708 O 0.48212 0.89663 0.62905
 C1709 C 0.47383 0.91390 0.62211
 C1710 C 0.45659 0.92462 0.63452
 C1711 C 0.45090 0.91680 0.65470
 H1712 H 0.45972 0.90341 0.66156
 O1713 O 0.60736 1.02085 0.57568
 O1714 O 0.63353 1.02034 0.60015
 C1715 C 0.62517 1.02789 0.58296
 C1716 C 0.63577 1.04516 0.57109
 C1717 C 0.65604 1.05317 0.57746
 H1718 H 0.66455 1.04654 0.59129
 O1719 O 0.39110 0.97863 0.58109
 O1720 O 0.36721 0.97847 0.60698
 C1721 C 0.37388 0.97163 0.58893
 C1722 C 0.36180 0.95504 0.57713
 C1723 C 0.34119 0.94929 0.58365
 H1724 H 0.33381 0.95752 0.59712
 O1725 O 0.57282 1.10257 0.52093
 O1726 O 0.59742 1.12745 0.51995
 C1727 C 0.58054 1.11988 0.52816
 C1728 C 0.56966 1.13108 0.54632
 C1729 C 0.57653 1.15117 0.55380
 H1730 H 0.58986 1.15883 0.54614
 O1731 O 0.41858 0.89408 0.52205
 O1732 O 0.39348 0.86967 0.52317
 C1733 C 0.41158 0.87682 0.52948
 C1734 C 0.42458 0.86505 0.54572
 C1735 C 0.41902 0.84441 0.55154
 H1736 H 0.40530 0.83692 0.54376
 O1737 O 0.57878 0.97896 0.60378
 O1738 O 0.60458 0.97808 0.62864
 C1739 C 0.58682 0.97124 0.62103
 C1740 C 0.57536 0.95400 0.63206
 C1741 C 0.58141 0.94775 0.65310
 H1742 H 0.59427 0.95596 0.66152
 O1743 O 0.42242 1.01861 0.61083
 O1744 O 0.39884 1.01818 0.63699
 C1745 C 0.41588 1.02541 0.62893
 C1746 C 0.42770 1.04249 0.64032
 C1747 C 0.42126 1.04940 0.66076
 H1748 H 0.40832 1.04140 0.66875
 O1749 O 0.47499 1.10421 0.58094
 O1750 O 0.47579 1.12929 0.60598
 C1751 C 0.46759 1.12155 0.58875
 C1752 C 0.44900 1.13240 0.57781
 C1753 C 0.44096 1.15218 0.58532
 H1754 H 0.44880 1.15998 0.59888
 O1755 O 0.52126 0.89346 0.57293
 O1756 O 0.52338 0.86842 0.59759
 C1757 C 0.52959 0.87625 0.57999
 C1758 C 0.54706 0.86555 0.56791
 C1759 C 0.55428 0.84506 0.57369
 H1760 H 0.54612 0.83682 0.58631
 O1761 O 0.60535 0.92531 0.51406
 O1762 O 0.63076 0.90050 0.51310
 C1763 C 0.62332 0.91789 0.52074
 C1764 C 0.63535 0.92931 0.53799
 C1765 C 0.65661 0.92341 0.54333
 H1766 H 0.66453 0.91084 0.53425
 O1767 O 0.38711 1.07458 0.52457
 O1768 O 0.36152 1.09919 0.52575
 C1769 C 0.36986 1.08191 0.53262
 C1770 C 0.35977 1.07077 0.55070
 C1771 C 0.33988 1.07792 0.55837
 H1772 H 0.33137 1.09083 0.55028
 Cu1773 Cu 0.50029 0.90995 0.58619
 Cu1774 Cu 0.50297 0.87996 0.61588
 Cu1775 Cu 0.49702 1.08701 0.59210
 Cu1776 Cu 0.49821 1.11703 0.62216
 Cu1777 Cu 0.40470 0.91082 0.50179
 Cu1778 Cu 0.37442 0.88163 0.50312
 Cu1779 Cu 0.58752 0.91244 0.49399
 Cu1780 Cu 0.61779 0.88248 0.49285
 Cu1781 Cu 0.40286 1.08726 0.50324
 Cu1782 Cu 0.37227 1.11694 0.50495
 Cu1783 Cu 0.58369 1.08596 0.49873
 Cu1784 Cu 0.61332 1.11566 0.49722
 Cu1785 Cu 0.40901 0.99862 0.59349
 Cu1786 Cu 0.38057 0.99826 0.62476
 Cu1787 Cu 0.59010 1.00005 0.58688
 Cu1788 Cu 0.62125 0.99911 0.61650
 C1789 C 0.55827 0.94355 0.62140
 H1790 H 0.55367 0.94802 0.60511
 C1791 C 0.57041 0.93135 0.66336
 C1792 C 0.44439 1.05308 0.63013
 H1793 H 0.44930 1.04785 0.61424
 C1794 C 0.43051 1.06726 0.67059
 C1795 C 0.37056 1.05401 0.56136
 H1796 H 0.38596 1.04844 0.55546
 C1797 C 0.33122 1.06939 0.57701
 C1798 C 0.62523 0.94557 0.54989
 H1799 H 0.60871 0.95001 0.54603
 C1800 C 0.66771 0.93334 0.56047
 C1801 C 0.55715 0.87610 0.55105
 H1802 H 0.55178 0.89197 0.54666
 C1803 C 0.57160 0.83523 0.56299
 C1804 C 0.43862 1.12248 0.56010
 H1805 H 0.44431 1.10708 0.55446
 C1806 C 0.42295 1.16191 0.57512
 C1807 C 0.44504 0.94201 0.62590
 H1808 H 0.44936 0.94805 0.61027
 C1809 C 0.43347 0.92552 0.66590
 C1810 C 0.55633 1.05465 0.62558
 H1811 H 0.54990 1.04932 0.61014
 C1812 C 0.57386 1.06900 0.66507
 C1813 C 0.44247 0.87452 0.55570
 H1814 H 0.44671 0.89055 0.55131
 C1815 C 0.43080 0.83333 0.56744
 C1816 C 0.55221 1.12144 0.55650
 H1817 H 0.54706 1.10582 0.55127
 C1818 C 0.56585 1.16155 0.57087
 C1819 C 0.37122 0.94426 0.55972
 H1820 H 0.38726 0.94843 0.55480
 C1821 C 0.33011 0.93279 0.57317
 C1822 C 0.62497 1.05413 0.55318
 H1823 H 0.60913 1.04856 0.54850
 C1824 C 0.66546 1.06955 0.56559
 O1825 O 0.47289 0.42276 0.89244
 O1826 O 0.47012 0.39782 0.86736
 C1827 C 0.46406 0.41554 0.87534
 C1828 C 0.44597 0.42746 0.86516
 C1829 C 0.43429 0.41848 0.84787
 H1830 H 0.43954 0.40342 0.84105
 O1831 O 0.52127 0.57818 0.89330
 O1832 O 0.52066 0.60293 0.86828
 C1833 C 0.52753 0.58514 0.87532
 C1834 C 0.54299 0.57249 0.86247
 C1835 C 0.54818 0.57882 0.84159
 H1836 H 0.54054 0.59288 0.83475
 O1837 O 0.39327 0.48423 0.92482
 O1838 O 0.36680 0.48622 0.90072
 C1839 C 0.37504 0.47817 0.91775
 C1840 C 0.36354 0.46113 0.92896
 C1841 C 0.34338 0.45450 0.92118
 H1842 H 0.33585 0.46247 0.90751
 O1843 O 0.60209 0.51563 0.91691
 O1844 O 0.62598 0.51537 0.89103
 C1845 C 0.61937 0.52249 0.90907
 C1846 C 0.63187 0.53901 0.92089
 C1847 C 0.65240 0.54446 0.91381
 H1848 H 0.65918 0.53638 0.89994
 O1849 O 0.42028 0.39743 0.98081
 O1850 O 0.39421 0.37402 0.98152
 C1851 C 0.41172 0.38047 0.97376
 C1852 C 0.42181 0.36838 0.95596
 C1853 C 0.41339 0.34879 0.94937
 H1854 H 0.40008 0.34211 0.95799
 O1855 O 0.58219 0.60427 0.97805
 O1856 O 0.60861 0.62728 0.97710
 C1857 C 0.59025 0.62108 0.97058
 C1858 C 0.57832 0.63319 0.95378
 C1859 C 0.58508 0.65338 0.94759
 H1860 H 0.59887 0.66047 0.95565
 O1861 O 0.42253 0.52464 0.89487
 O1862 O 0.39621 0.52641 0.87060
 C1863 C 0.41439 0.53254 0.87774
 C1864 C 0.42607 0.54931 0.86634
 C1865 C 0.41991 0.55549 0.84532
 H1866 H 0.40690 0.54734 0.83711
 O1867 O 0.57126 0.47500 0.88692
 O1868 O 0.59511 0.47438 0.86102
 C1869 C 0.57801 0.46734 0.86921
 C1870 C 0.56617 0.44955 0.85862
 C1871 C 0.57308 0.44053 0.83897
 H1872 H 0.58666 0.44738 0.83109
 O1873 O 0.51535 0.39168 0.92000
 O1874 O 0.51294 0.36689 0.89473
 C1875 C 0.52175 0.37417 0.91185
 C1876 C 0.54035 0.36274 0.92169
 C1877 C 0.54865 0.34434 0.91177
 H1878 H 0.54064 0.33776 0.89759
 O1879 O 0.48183 0.60919 0.92449
 O1880 O 0.48131 0.63387 0.89941
 C1881 C 0.47455 0.62669 0.91709
 C1882 C 0.45760 0.63854 0.92879
 C1883 C 0.45063 0.65859 0.92165
 H1884 H 0.45838 0.66571 0.90800
 O1885 O 0.39883 0.58170 0.98334
 O1886 O 0.37401 0.60710 0.98439
 C1887 C 0.38092 0.58944 0.97691
 C1888 C 0.36835 0.57782 0.96030
 C1889 C 0.34685 0.58352 0.95556
 H1890 H 0.33918 0.59617 0.96469
 O1891 O 0.60664 0.41798 0.97107
 O1892 O 0.63137 0.39253 0.96968
 C1893 C 0.62354 0.41002 0.96277
 C1894 C 0.63372 0.42117 0.94462
 C1895 C 0.65355 0.41416 0.93612
 H1896 H 0.66190 0.40076 0.94341
 O1897 O 0.47974 0.57967 0.89536
 O1898 O 0.47918 0.60423 0.87012
 C1899 C 0.47194 0.58717 0.87792
 C1900 C 0.45424 0.57599 0.86663
 C1901 C 0.44804 0.58182 0.84566
 H1902 H 0.45652 0.59437 0.83766
 O1903 O 0.51466 0.42034 0.89031
 O1904 O 0.51203 0.39562 0.86500
 C1905 C 0.52059 0.41250 0.87238
 C1906 C 0.53805 0.42276 0.86034
 C1907 C 0.54511 0.41409 0.84073
 H1908 H 0.53718 0.40023 0.83401
 O1909 O 0.60257 0.47420 0.91513
 O1910 O 0.62645 0.47404 0.88923
 C1911 C 0.61972 0.46678 0.90688
 C1912 C 0.63173 0.44922 0.91758
 C1913 C 0.65155 0.44221 0.90953
 H1914 H 0.65836 0.45023 0.89588
 O1915 O 0.39514 0.52546 0.92605
 O1916 O 0.36864 0.52726 0.90195
 C1917 C 0.37736 0.53348 0.91953
 C1918 C 0.36674 0.55031 0.93238
 C1919 C 0.34527 0.55601 0.92800
 H1920 H 0.33634 0.54771 0.91541
 O1921 O 0.42724 0.61149 0.98172
 O1922 O 0.40266 0.63709 0.98277
 C1923 C 0.41955 0.62905 0.97468
 C1924 C 0.43031 0.63981 0.95664
 C1925 C 0.42329 0.65993 0.94908
 H1926 H 0.41011 0.66805 0.95697
 O1927 O 0.57639 0.39016 0.97269
 O1928 O 0.60098 0.36458 0.97124
 C1929 C 0.58318 0.37267 0.96480
 C1930 C 0.57063 0.36214 0.94736
 C1931 C 0.57881 0.34385 0.93705
 H1932 H 0.59372 0.33667 0.94284
 O1933 O 0.57247 0.51682 0.88704
 O1934 O 0.59612 0.51627 0.86094
 C1935 C 0.57934 0.52414 0.86943
 C1936 C 0.56813 0.54251 0.85929
 C1937 C 0.57332 0.54919 0.83841
 H1938 H 0.58488 0.54004 0.82921
 O1939 O 0.42084 0.48304 0.89419
 O1940 O 0.39431 0.48487 0.87015
 C1941 C 0.41167 0.47626 0.87706
 C1942 C 0.42056 0.45741 0.86578
 C1943 C 0.40915 0.44824 0.84840
 H1944 H 0.39449 0.45579 0.84234
 O1945 O 0.52382 0.60751 0.92300
 O1946 O 0.52329 0.63235 0.89810
 C1947 C 0.53123 0.62453 0.91535
 C1948 C 0.54952 0.63492 0.92657
 C1949 C 0.55651 0.65515 0.92047
 H1950 H 0.54780 0.66358 0.90786
 O1951 O 0.47334 0.39327 0.92139
 O1952 O 0.47085 0.36824 0.89639
 C1953 C 0.46484 0.37630 0.91419
 C1954 C 0.44742 0.36630 0.92650
 C1955 C 0.43841 0.34681 0.91983
 H1956 H 0.44479 0.33851 0.90593
 O1957 O 0.60829 0.57196 0.97620
 O1958 O 0.63493 0.59469 0.97516
 C1959 C 0.62567 0.57803 0.96798
 C1960 C 0.63500 0.56589 0.94964
 C1961 C 0.65555 0.57087 0.94232
 H1962 H 0.66476 0.58274 0.95098
 O1963 O 0.39206 0.42796 0.98119
 O1964 O 0.36586 0.40470 0.98152
 C1965 C 0.37408 0.42139 0.97392
 C1966 C 0.36305 0.43309 0.95608
 C1967 C 0.34302 0.42642 0.94771
 H1968 H 0.33511 0.41305 0.95489
 Cu1969 Cu 0.49427 0.40946 0.90859
 Cu1970 Cu 0.49123 0.37963 0.87835
 Cu1971 Cu 0.50183 0.59124 0.91166
 Cu1972 Cu 0.50107 0.62089 0.88150
 Cu1973 Cu 0.41071 0.50425 0.91233
 Cu1974 Cu 0.37888 0.50650 0.88336
 Cu1975 Cu 0.58460 0.49542 0.90397
 Cu1976 Cu 0.61324 0.49504 0.87293
 C1977 C 0.43909 0.44702 0.87390
 H1978 H 0.44770 0.45377 0.88761
 C1979 C 0.41556 0.42856 0.83978
 C1980 C 0.55287 0.55421 0.87110
 H1981 H 0.54905 0.54937 0.88730
 C1982 C 0.56336 0.56741 0.82946
 C1983 C 0.37314 0.45050 0.94657
 H1984 H 0.38879 0.45546 0.95252
 C1985 C 0.33320 0.43703 0.93014
 C1986 C 0.62330 0.54978 0.93891
 H1987 H 0.60735 0.54592 0.94432
 C1988 C 0.66425 0.56043 0.92426
 C1989 C 0.43900 0.37688 0.94464
 H1990 H 0.44542 0.39212 0.94961
 C1991 C 0.42130 0.33803 0.93126
 C1992 C 0.56045 0.62419 0.94331
 H1993 H 0.55535 0.60848 0.94788
 C1994 C 0.57437 0.66449 0.93095
 C1995 C 0.44332 0.55959 0.87678
 H1996 H 0.44798 0.55512 0.89306
 C1997 C 0.43095 0.57176 0.83487
 C1998 C 0.54856 0.44060 0.86902
 H1999 H 0.54335 0.44718 0.88429
 C2000 C 0.56263 0.42266 0.82991
 C2001 C 0.55130 0.37139 0.93965
 H2002 H 0.54519 0.38584 0.94713
 C2003 C 0.56809 0.33515 0.91898
 C2004 C 0.44753 0.62940 0.94640
 H2005 H 0.45280 0.61381 0.95182
 C2006 C 0.43349 0.66943 0.93148
 C2007 C 0.37811 0.56111 0.94871
 H2008 H 0.39479 0.55683 0.95201
 C2009 C 0.33526 0.57263 0.93934
 C2010 C 0.62306 0.43876 0.93523
 H2011 H 0.60765 0.44405 0.94137
 C2012 C 0.66255 0.42469 0.91847
 O2013 O 0.52716 0.42055 1.10459
 O2014 O 0.52772 0.39582 1.12959
 C2015 C 0.53514 0.41281 1.12189
 C2016 C 0.55366 0.42349 1.13259
 C2017 C 0.56195 0.41672 1.15276
 H2018 H 0.55416 0.40398 1.16110
 O2019 O 0.49047 0.57595 1.10827
 O2020 O 0.49271 0.59998 1.13430
 C2021 C 0.48455 0.58315 1.12645
 C2022 C 0.46769 0.57205 1.13832
 C2023 C 0.46250 0.57834 1.15939
 H2024 H 0.47131 0.59107 1.16724
 O2025 O 0.39989 0.52620 1.08155
 O2026 O 0.37642 0.52740 1.10778
 C2027 C 0.38337 0.53463 1.09016
 C2028 C 0.37263 0.55332 1.07968
 C2029 C 0.35370 0.56269 1.08810
 H2030 H 0.34664 0.55599 1.10228
 O2031 O 0.61305 0.47324 1.07123
 O2032 O 0.63967 0.47189 1.09522
 C2033 C 0.63095 0.46542 1.07773
 C2034 C 0.64160 0.44854 1.06489
 C2035 C 0.66308 0.44253 1.06926
 H2036 H 0.67192 0.45105 1.08165
 O2037 O 0.57903 0.39067 1.01476
 O2038 O 0.60358 0.36505 1.01353
 C2039 C 0.58677 0.37323 1.02183
 C2040 C 0.57647 0.36264 1.04025
 C2041 C 0.58472 0.34321 1.04796
 H2042 H 0.59818 0.33566 1.03989
 O2043 O 0.43168 0.60972 1.02355
 O2044 O 0.40729 0.63550 1.02478
 C2045 C 0.42501 0.62724 1.03134
 C2046 C 0.43749 0.63759 1.04888
 C2047 C 0.43091 0.65743 1.05694
 H2048 H 0.41737 0.66575 1.04944
 O2049 O 0.42892 0.48153 1.10782
 O2050 O 0.40550 0.48238 1.13412
 C2051 C 0.42209 0.47416 1.12542
 C2052 C 0.43336 0.45563 1.13562
 C2053 C 0.42658 0.44775 1.15556
 H2054 H 0.41355 0.45580 1.16372
 O2055 O 0.58649 0.51550 1.10273
 O2056 O 0.61301 0.51399 1.12681
 C2057 C 0.59539 0.52221 1.12003
 C2058 C 0.58560 0.54023 1.13200
 C2059 C 0.59529 0.54767 1.15118
 H2060 H 0.60945 0.53961 1.15774
 O2061 O 0.48316 0.39357 1.07544
 O2062 O 0.48381 0.36849 1.10008
 C2063 C 0.47567 0.37655 1.08301
 C2064 C 0.45685 0.36645 1.07227
 C2065 C 0.44996 0.34640 1.07877
 H2066 H 0.45900 0.33793 1.09118
 O2067 O 0.53115 0.60416 1.07778
 O2068 O 0.53290 0.62864 1.10342
 C2069 C 0.53904 0.62121 1.08540
 C2070 C 0.55579 0.63230 1.07339
 C2071 C 0.56186 0.65285 1.07941
 H2072 H 0.55371 0.66089 1.09255
 O2073 O 0.39335 0.42837 1.02332
 O2074 O 0.36713 0.40514 1.02381
 C2075 C 0.37572 0.42206 1.03093
 C2076 C 0.36546 0.43429 1.04858
 C2077 C 0.34512 0.42873 1.05612
 H2078 H 0.33649 0.41611 1.04801
 O2079 O 0.61267 0.57284 1.01815
 O2080 O 0.63908 0.59585 1.01736
 C2081 C 0.63100 0.57907 1.02481
 C2082 C 0.64269 0.56691 1.04180
 C2083 C 0.66274 0.57372 1.04994
 H2084 H 0.67019 0.58753 1.04312
 O2085 O 0.53233 0.57461 1.10652
 O2086 O 0.53466 0.59890 1.13229
 C2087 C 0.54107 0.58150 1.12383
 C2088 C 0.55925 0.56940 1.13380
 C2089 C 0.56929 0.57669 1.15291
 H2090 H 0.56291 0.59067 1.16099
 O2091 O 0.48505 0.42294 1.10479
 O2092 O 0.48549 0.39805 1.12962
 C2093 C 0.47809 0.41561 1.12233
 C2094 C 0.46081 0.42726 1.13409
 C2095 C 0.45377 0.41976 1.15400
 H2096 H 0.46148 0.40582 1.16102
 O2097 O 0.61404 0.51456 1.07201
 O2098 O 0.64053 0.51303 1.09613
 C2099 C 0.63216 0.52089 1.07910
 C2100 C 0.64331 0.53812 1.06799
 C2101 C 0.66349 0.54485 1.07557
 H2102 H 0.67140 0.53669 1.08891
 O2103 O 0.39781 0.48471 1.07966
 O2104 O 0.37420 0.48576 1.10580
 C2105 C 0.38041 0.47845 1.08775
 C2106 C 0.36772 0.46199 1.07632
 C2107 C 0.34744 0.45618 1.08373
 H2108 H 0.34062 0.46441 1.09750
 O2109 O 0.58458 0.60362 1.02000
 O2110 O 0.61075 0.62690 1.01921
 C2111 C 0.59333 0.62044 1.02723
 C2112 C 0.58295 0.63207 1.04533
 C2113 C 0.58932 0.65262 1.05199
 H2114 H 0.60207 0.66053 1.04368
 O2115 O 0.42173 0.39754 1.02273
 O2116 O 0.39571 0.37411 1.02347
 C2117 C 0.41395 0.38059 1.03017
 C2118 C 0.42633 0.36851 1.04685
 C2119 C 0.41962 0.34837 1.05366
 H2120 H 0.40548 0.34145 1.04622
 O2121 O 0.58503 0.47408 1.10194
 O2122 O 0.61158 0.47272 1.12598
 C2123 C 0.59336 0.46648 1.11911
 C2124 C 0.58197 0.44995 1.13104
 C2125 C 0.58978 0.44329 1.15124
 H2126 H 0.60382 0.45080 1.15838
 O2127 O 0.43160 0.52286 1.10914
 O2128 O 0.40832 0.52380 1.13558
 C2129 C 0.42574 0.52995 1.12737
 C2130 C 0.43903 0.54595 1.13881
 C2131 C 0.43420 0.55226 1.15996
 H2132 H 0.42153 0.54422 1.16820
 O2133 O 0.48943 0.60596 1.07983
 O2134 O 0.49114 0.63016 1.10574
 C2135 C 0.48285 0.62335 1.08816
 C2136 C 0.46519 0.63548 1.07732
 C2137 C 0.45787 0.65515 1.08562
 H2138 H 0.46546 0.66189 1.09992
 O2139 O 0.52540 0.39208 1.07409
 O2140 O 0.52613 0.36721 1.09893
 C2141 C 0.53295 0.37458 1.08131
 C2142 C 0.55026 0.36313 1.06935
 C2143 C 0.55889 0.34362 1.07684
 H2144 H 0.55245 0.33675 1.09123
 O2145 O 0.60926 0.41841 1.01306
 O2146 O 0.63403 0.39298 1.01172
 C2147 C 0.62717 0.41053 1.01943
 C2148 C 0.63981 0.42175 1.03628
 C2149 C 0.66125 0.41581 1.04091
 H2150 H 0.66879 0.40311 1.03169
 O2151 O 0.40053 0.58300 1.02543
 O2152 O 0.37604 0.60869 1.02642
 C2153 C 0.38369 0.59124 1.03359
 C2154 C 0.37306 0.58079 1.05190
 C2155 C 0.35428 0.58979 1.06052
 H2156 H 0.34731 0.60398 1.05328
 Cu2157 Cu 0.50522 0.40973 1.08725
 Cu2158 Cu 0.50581 0.37989 1.11701
 Cu2159 Cu 0.51060 0.58773 1.09053
 Cu2160 Cu 0.51305 0.61684 1.12157
 Cu2161 Cu 0.40942 0.41520 1.00206
 Cu2162 Cu 0.37806 0.38718 1.00270
 Cu2163 Cu 0.59039 0.40687 0.99299
 Cu2164 Cu 0.61990 0.37615 0.99146
 Cu2165 Cu 0.41701 0.59395 1.00328
 Cu2166 Cu 0.38755 0.62467 1.00470
 Cu2167 Cu 0.59429 0.58593 0.99829
 Cu2168 Cu 0.62606 0.61341 0.99706
 Cu2169 Cu 0.41683 0.50376 1.09190
 Cu2170 Cu 0.38876 0.50495 1.12345
 Cu2171 Cu 0.59695 0.49440 1.08455
 Cu2172 Cu 0.62884 0.49267 1.11349
 C2173 C 0.56378 0.44018 1.12198
 H2174 H 0.55783 0.44522 1.10628
 C2175 C 0.58010 0.42664 1.16214
 C2176 C 0.45594 0.55576 1.12820
 H2177 H 0.45956 0.55114 1.11178
 C2178 C 0.44567 0.56872 1.17028
 C2179 C 0.38201 0.56247 1.06147
 H2180 H 0.39666 0.55562 1.05502
 C2181 C 0.34439 0.58099 1.07848
 C2182 C 0.63018 0.43819 1.04828
 H2183 H 0.61355 0.44266 1.04498
 C2184 C 0.67305 0.42608 1.05737
 C2185 C 0.55909 0.37236 1.05093
 H2186 H 0.55282 0.38750 1.04523
 C2187 C 0.57615 0.33350 1.06615
 C2188 C 0.45489 0.62689 1.05891
 H2189 H 0.45996 0.61147 1.05278
 C2190 C 0.44069 0.66610 1.07543
 C2191 C 0.45056 0.44530 1.12509
 H2192 H 0.45571 0.45106 1.10962
 C2193 C 0.43665 0.42971 1.16484
 C2194 C 0.56748 0.55108 1.12353
 H2195 H 0.56014 0.54559 1.10856
 C2196 C 0.58753 0.56604 1.16150
 C2197 C 0.44502 0.37730 1.05619
 H2198 H 0.45014 0.39289 1.05126
 C2199 C 0.43141 0.33720 1.06968
 C2200 C 0.56620 0.62215 1.05623
 H2201 H 0.56147 0.60622 1.05160
 C2202 C 0.57855 0.66312 1.06899
 C2203 C 0.37650 0.45107 1.05865
 H2204 H 0.39233 0.45522 1.05312
 C2205 C 0.33606 0.43949 1.07388
 C2206 C 0.63315 0.54904 1.05091
 H2207 H 0.61746 0.54400 1.04515
 C2208 C 0.67309 0.56281 1.06698
 C2209 C 1.13215 1.14872 1.27209
 C2210 C 1.13249 1.12690 1.26775
 C2211 C 1.11735 1.11773 1.25174
 N2212 N 1.11804 1.09663 1.24701
 N2213 N 1.10469 1.08846 1.23214
 C2214 C 1.09014 1.10108 1.22152
 N2215 N 1.08936 1.12211 1.22637
 N2216 N 1.10267 1.13027 1.24120
 C2217 C 1.07622 1.09271 1.20408
 C2218 C 1.07763 1.07162 1.19715
 H2219 H 1.14382 1.11641 1.27594
 H2220 H 1.06611 1.10397 1.19536
 H2221 H 1.12044 1.15853 1.26346
 H2222 H 1.08862 1.06091 1.20560
 C2223 C 1.14031 0.62708 0.78466
 C2224 C 1.12240 0.63180 0.77166
 C2225 C 1.11607 0.61804 0.75332
 N2226 N 1.09734 0.62194 0.74246
 N2227 N 1.09156 0.60985 0.72565
 C2228 C 1.10430 0.59340 0.71899
 N2229 N 1.12308 0.58951 0.72983
 N2230 N 1.12883 0.60157 0.74671
 C2231 C 1.09830 0.58042 0.69991
 C2232 C 1.07851 0.58352 0.68936
 H2233 H 1.11258 0.64574 0.77504
 H2234 H 1.10998 0.56910 0.69376
 H2235 H 1.14930 0.61250 0.78163
 H2236 H 1.06744 0.59514 0.69615
 C2237 C 0.63414 1.14699 0.77019
 C2238 C 0.63612 1.12606 0.76270
 C2239 C 0.62162 1.11803 0.74540
 N2240 N 0.62369 1.09774 0.73799
 N2241 N 0.61103 1.09068 0.72195
 C2242 C 0.59583 1.10363 0.71271
 N2243 N 0.59372 1.12385 0.72018
 N2244 N 0.60634 1.13089 0.73621
 C2245 C 0.58237 1.09648 0.69426
 C2246 C 0.58438 1.07604 0.68554
 H2247 H 0.64855 1.11555 0.76909
 H2248 H 0.57170 1.10806 0.68675
 H2249 H 0.62128 1.15681 0.76338
 H2250 H 0.59576 1.06510 0.69311
 C2251 C 0.64783 0.64977 1.26117
 C2252 C 0.65090 0.62861 1.25480
 C2253 C 0.63833 0.61988 1.23647
 N2254 N 0.63848 0.59867 1.23224
 N2255 N 0.62641 0.59075 1.21617
 C2256 C 0.61376 0.60378 1.20379
 N2257 N 0.61376 0.62495 1.20793
 N2258 N 0.62577 0.63284 1.22397
 C2259 C 0.60027 0.59557 1.18599
 C2260 C 0.59938 0.57403 1.18074
 H2261 H 0.66139 0.61803 1.26393
 H2262 H 0.59150 0.60710 1.17627
 H2263 H 0.63657 0.65950 1.25187
 H2264 H 0.60928 0.56285 1.18985
 C2265 C 0.85927 0.85125 1.26379
 C2266 C 0.85971 0.87242 1.25728
 C2267 C 0.87441 0.87889 1.24008
 N2268 N 0.87679 0.89974 1.23536
 N2269 N 0.89027 0.90557 1.22004
 C2270 C 0.90193 0.89080 1.20890
 N2271 N 0.89952 0.86998 1.21362
 N2272 N 0.88609 0.86416 1.22893
 C2273 C 0.91615 0.89692 1.19123
 C2274 C 0.91835 0.91809 1.18540
 H2275 H 0.85013 0.88447 1.26537
 H2276 H 0.92353 0.88446 1.18160
 H2277 H 0.86972 0.83996 1.25559
 H2278 H 0.91014 0.93021 1.19484
 C2279 C 0.86498 0.35187 0.76638
 C2280 C 0.86382 0.37301 0.75974
 C2281 C 0.87846 0.38059 0.74297
 N2282 N 0.87914 0.40153 0.73797
 N2283 N 0.89244 0.40831 0.72291
 C2284 C 0.90558 0.39440 0.71230
 N2285 N 0.90485 0.37349 0.71728
 N2286 N 0.89161 0.36675 0.73234
 C2287 C 0.91976 0.40141 0.69498
 C2288 C 0.92097 0.42269 0.68914
 H2289 H 0.85273 0.38418 0.76712
 H2290 H 0.92821 0.38932 0.68578
 H2291 H 0.87688 0.34155 0.75889
 H2292 H 0.91176 0.43434 0.69824
 C2293 C 0.36542 0.86570 0.77476
 C2294 C 0.38660 0.86654 0.76791
 C2295 C 0.39196 0.87812 0.74813
 N2296 N 0.41281 0.88085 0.74275
 N2297 N 0.41772 0.89226 0.72554
 C2298 C 0.40199 0.90149 0.71312
 N2299 N 0.38117 0.89870 0.71847
 N2300 N 0.37627 0.88728 0.73564
 C2301 C 0.40708 0.91407 0.69395
 C2302 C 0.42808 0.91589 0.68677
 H2303 H 0.39950 0.86053 0.77823
 H2304 H 0.39386 0.92093 0.68464
 H2305 H 0.35283 0.87278 0.76473
 H2306 H 0.44094 0.90782 0.69562
 C2307 C 0.36921 0.38750 1.28429
 C2308 C 0.38727 0.38216 1.27207
 C2309 C 0.39337 0.39394 1.25268
 N2310 N 0.41167 0.38834 1.24230
 N2311 N 0.41742 0.39849 1.22458
 C2312 C 0.40508 0.41465 1.21649
 N2313 N 0.38676 0.42028 1.22687
 N2314 N 0.38102 0.41013 1.24465
 C2315 C 0.41110 0.42571 1.19658
 C2316 C 0.42999 0.42045 1.18566
 H2317 H 0.39760 0.36895 1.27668
 H2318 H 0.40007 0.43767 1.19034
 H2319 H 0.35954 0.40121 1.27953
 H2320 H 0.44030 0.40806 1.19241
 C2321 C 0.86272 1.12315 0.72033
 C2322 C 0.88247 1.12607 0.73093
 C2323 C 0.88863 1.11374 0.75016
 N2324 N 0.90834 1.11630 0.75946
 N2325 N 0.91398 1.10552 0.77711
 C2326 C 0.90013 1.09179 0.78613
 N2327 N 0.88043 1.08919 0.77680
 N2328 N 0.87480 1.09994 0.75912
 C2329 C 0.90586 1.08042 0.80609
 C2330 C 0.92584 1.08303 0.81627
 H2331 H 0.89381 1.13750 0.72519
 H2332 H 0.89364 1.07086 0.81332
 H2333 H 0.85208 1.11110 0.72628
 H2334 H 0.93737 1.09334 0.80886
 C2335 C 0.88046 0.63579 0.21352
 C2336 C 0.87311 0.61965 0.22671
 C2337 C 0.88565 0.61186 0.24550
 N2338 N 0.87722 0.59689 0.25838
 N2339 N 0.88805 0.59004 0.27577
 C2340 C 0.90775 0.59790 0.28096
 N2341 N 0.91622 0.61281 0.26802
 N2342 N 0.90538 0.61967 0.25063
 C2343 C 0.91968 0.59079 0.30043
 C2344 C 0.91119 0.57589 0.31442
 H2345 H 0.85741 0.61293 0.22379
 H2346 H 0.93531 0.59758 0.30359
 H2347 H 0.89614 0.64249 0.21689
 H2348 H 0.89579 0.56901 0.31012
 C2349 C 0.39026 1.13380 0.21021
 C2350 C 0.38852 1.11365 0.21919
 C2351 C 0.39648 1.10841 0.24093
 N2352 N 0.39330 1.08865 0.24876
 N2353 N 0.39935 1.08378 0.26883
 C2354 C 0.40876 1.09854 0.28185
 N2355 N 0.41207 1.11829 0.27399
 N2356 N 0.40599 1.12317 0.25390
 C2357 C 0.41527 1.09350 0.30413
 C2358 C 0.41140 1.07372 0.31328
 H2359 H 0.38020 1.10127 0.21032
 H2360 H 0.42278 1.10599 0.31354
 H2361 H 0.39986 1.14578 0.21835
 H2362 H 0.40244 1.06205 0.30397
 C2363 C 0.36804 0.61348 0.71127
 C2364 C 0.38740 0.61590 0.72261
 C2365 C 0.39218 0.60472 0.74288
 N2366 N 0.41165 0.60715 0.75269
 N2367 N 0.41614 0.59766 0.77136
 C2368 C 0.40133 0.58538 0.78097
 N2369 N 0.38186 0.58286 0.77111
 N2370 N 0.37736 0.59235 0.75239
 C2371 C 0.40597 0.57557 0.80207
 C2372 C 0.42565 0.57877 0.81267
 H2373 H 0.39958 0.62628 0.71654
 H2374 H 0.39334 0.56680 0.80963
 H2375 H 0.35641 0.60223 0.71693
 H2376 H 0.43756 0.58825 0.80476
 C2377 C 1.13700 0.88718 0.72075
 C2378 C 1.11705 0.88781 0.73059
 C2379 C 1.11289 0.90117 0.74970
 N2380 N 1.09254 0.90326 0.75699
 N2381 N 1.08847 0.91500 0.77445
 C2382 C 1.10457 0.92511 0.78533
 N2383 N 1.12495 0.92304 0.77802
 N2384 N 1.12903 0.91135 0.76048
 C2385 C 1.10022 0.93692 0.80548
 C2386 C 1.07934 0.93864 0.81316
 H2387 H 1.10383 0.87886 0.72372
 H2388 H 1.11367 0.94250 0.81520
 H2389 H 1.14972 0.89727 0.72692
 H2390 H 1.06629 0.93242 0.80328
 C2391 C 1.13533 0.38137 0.21592
 C2392 C 1.11714 0.37635 0.22760
 C2393 C 1.11122 0.38832 0.24724
 N2394 N 1.09257 0.38405 0.25730
 N2395 N 1.08708 0.39468 0.27510
 C2396 C 1.10003 0.40999 0.28358
 N2397 N 1.11870 0.41423 0.27354
 N2398 N 1.12417 0.40363 0.25571
 C2399 C 1.09433 0.42159 0.30353
 C2400 C 1.07494 0.41806 0.31386
 H2401 H 1.10678 0.36365 0.22214
 H2402 H 1.10595 0.43251 0.31029
 H2403 H 1.14504 0.39465 0.22128
 H2404 H 1.06399 0.40669 0.30659
 C2405 C 0.62937 0.87357 0.21906
 C2406 C 0.61044 0.86777 0.22913
 C2407 C 0.60281 0.88019 0.24795
 N2408 N 0.58314 0.87674 0.25633
 N2409 N 0.57635 0.88813 0.27323
 C2410 C 0.58899 0.90336 0.28238
 N2411 N 0.60865 0.90669 0.27407
 N2412 N 0.61538 0.89538 0.25720
 C2413 C 0.58212 0.91585 0.30135
 C2414 C 0.56181 0.91376 0.31020
 H2415 H 0.60108 0.85453 0.22316
 H2416 H 0.59381 0.92624 0.30888
 H2417 H 0.63764 0.88747 0.22527
 H2418 H 0.55075 0.90272 0.30257
 C2419 C 0.63233 0.37391 0.71328
 C2420 C 0.61450 0.36817 0.72530
 C2421 C 0.60734 0.38107 0.74397
 N2422 N 0.58965 0.37545 0.75501
 N2423 N 0.58328 0.38680 0.77208
 C2424 C 0.59436 0.40421 0.77880
 N2425 N 0.61203 0.40982 0.76776
 N2426 N 0.61838 0.39850 0.75069
 C2427 C 0.58784 0.41671 0.79797
 C2428 C 0.56953 0.41184 0.80964
 H2429 H 0.60567 0.35395 0.72126
 H2430 H 0.59806 0.42966 0.80296
 H2431 H 0.64046 0.38849 0.71772
 H2432 H 0.55985 0.39869 0.80389
 C2433 C 1.28914 1.11440 1.12977
 C2434 C 1.27510 1.11806 1.11238
 C2435 C 1.25564 1.10531 1.10903
 N2436 N 1.24400 1.10728 1.09047
 N2437 N 1.22614 1.09616 1.08734
 C2438 C 1.21916 1.08268 1.10266
 N2439 N 1.23077 1.08072 1.12128
 N2440 N 1.24873 1.09179 1.12437
 C2441 C 1.19875 1.07126 1.09960
 C2442 C 1.18737 1.07271 1.08011
 H2443 H 1.27842 1.13019 1.10069
 H2444 H 1.19202 1.06309 1.11316
 H2445 H 1.28577 1.10135 1.14046
 H2446 H 1.19462 1.08123 1.06704
 C2447 C 1.28771 0.63251 0.60810
 C2448 C 1.27611 0.61413 0.61219
 C2449 C 1.25579 0.60885 0.60105
 N2450 N 1.24622 0.59020 0.60553
 N2451 N 1.22743 0.58524 0.59635
 C2452 C 1.21743 0.59876 0.58234
 N2453 N 1.22704 0.61742 0.57776
 N2454 N 1.24590 0.62239 0.58695
 C2455 C 1.19626 0.59362 0.57274
 C2456 C 1.18596 0.57470 0.57771
 H2457 H 1.28185 0.60286 0.62408
 H2458 H 1.18854 0.60533 0.56244
 H2459 H 1.28221 0.64288 0.59520
 H2460 H 1.19411 0.56377 0.58864
 C2461 C 0.76876 1.14303 0.63255
 C2462 C 0.76428 1.13632 0.61151
 C2463 C 0.74517 1.12333 0.60637
 N2464 N 0.74171 1.11590 0.58601
 N2465 N 0.72509 1.10332 0.58150
 C2466 C 0.71138 1.09753 0.59721
 N2467 N 0.71487 1.10495 0.61755
 N2468 N 0.73144 1.11756 0.62204
 C2469 C 0.69261 1.08402 0.59241
 C2470 C 0.68664 1.07862 0.57133
 H2471 H 0.77606 1.13875 0.59914
 H2472 H 0.68230 1.07976 0.60556
 H2473 H 0.75731 1.13952 0.64496
 H2474 H 0.69631 1.08425 0.55823
 C2475 C 0.77059 0.64239 1.13470
 C2476 C 0.76628 0.62077 1.13306
 C2477 C 0.74813 0.61314 1.11967
 N2478 N 0.74538 0.59199 1.11637
 N2479 N 0.72950 0.58505 1.10354
 C2480 C 0.71586 0.59901 1.09346
 N2481 N 0.71860 0.62012 1.09680
 N2482 N 0.73445 0.62705 1.10962
 C2483 C 0.69794 0.59169 1.07965
 C2484 C 0.69337 0.57020 1.07704
 H2485 H 0.77735 0.60925 1.14013
 H2486 H 0.68721 0.60361 1.07273
 H2487 H 0.75986 0.65365 1.12668
 H2488 H 0.70356 0.55853 1.08515
 C2489 C 1.28776 0.89210 0.87317
 C2490 C 1.27848 0.88986 0.89332
 C2491 C 1.25966 0.90277 0.89959
 N2492 N 1.25114 0.90042 0.91938
 N2493 N 1.23358 0.91139 0.92492
 C2494 C 1.22388 0.92512 0.91087
 N2495 N 1.23249 0.92759 0.89113
 N2496 N 1.25007 0.91663 0.88560
 C2497 C 1.20368 0.93624 0.91627
 C2498 C 1.19378 0.93299 0.93593
 H2499 H 1.28469 0.87828 0.90470
 H2500 H 1.19580 0.94568 0.90387
 H2501 H 1.28143 0.90436 0.86253
 H2502 H 1.20183 0.92282 0.94767
 C2503 C 1.28645 0.37125 0.38347
 C2504 C 1.27399 0.38954 0.37976
 C2505 C 1.25476 0.39451 0.39255
 N2506 N 1.24433 0.41341 0.38992
 N2507 N 1.22676 0.41803 0.40112
 C2508 C 1.21889 0.40394 0.41539
 N2509 N 1.22931 0.38501 0.41802
 N2510 N 1.24695 0.38040 0.40685
 C2511 C 1.19893 0.40867 0.42718
 C2512 C 1.18842 0.42829 0.42498
 H2513 H 1.27838 0.40072 0.36750
 H2514 H 1.19199 0.39619 0.43662
 H2515 H 1.28193 0.36089 0.39648
 H2516 H 1.19581 0.44017 0.41508
 C2517 C 0.77592 0.86138 0.36798
 C2518 C 0.76212 0.87776 0.36111
 C2519 C 0.74423 0.88552 0.37468
 N2520 N 0.72997 0.90022 0.36691
 N2521 N 0.71332 0.90671 0.37869
 C2522 C 0.71026 0.89875 0.39872
 N2523 N 0.72459 0.88414 0.40653
 N2524 N 0.74122 0.87764 0.39474
 C2525 C 0.69163 0.90548 0.41181
 C2526 C 0.67642 0.92033 0.40422
 H2527 H 0.76357 0.88410 0.34504
 H2528 H 0.69010 0.89860 0.42762
 H2529 H 0.77367 0.85477 0.38385
 H2530 H 0.67903 0.92720 0.38852
 C2531 C 0.77308 0.35210 0.86218
 C2532 C 0.76373 0.37224 0.85946
 C2533 C 0.74558 0.37925 0.87306
 N2534 N 0.73687 0.39905 0.87091
 N2535 N 0.72024 0.40521 0.88288
 C2536 C 0.71166 0.39182 0.89745
 N2537 N 0.72039 0.37206 0.89961
 N2538 N 0.73702 0.36593 0.88768
 C2539 C 0.69273 0.39806 0.91026
 C2540 C 0.68320 0.41819 0.90849
 H2541 H 0.76943 0.38287 0.84726
 H2542 H 0.68571 0.38615 0.92035
 H2543 H 0.76696 0.34221 0.87488
 H2544 H 0.69045 0.42946 0.89778
 C2545 C 0.72737 0.87401 1.13725
 C2546 C 0.73664 0.86996 1.11734
 C2547 C 0.75561 0.88154 1.11045
 N2548 N 0.76287 0.87904 1.09008
 N2549 N 0.77998 0.88964 1.08364
 C2550 C 0.79043 0.90308 1.09738
 N2551 N 0.78321 0.90551 1.11776
 N2552 N 0.76609 0.89497 1.12417
 C2553 C 0.80949 0.91464 1.09074
 C2554 C 0.81729 0.91321 1.06984
 H2555 H 0.72946 0.85868 1.10619
 H2556 H 0.81792 0.92376 1.10301
 H2557 H 0.73407 0.88620 1.14773
 H2558 H 0.80916 0.90306 1.05819
 C2559 C 0.72659 0.36006 0.62412
 C2560 C 0.73431 0.38068 0.62617
 C2561 C 0.75336 0.38743 0.61440
 N2562 N 0.76011 0.40780 0.61606
 N2563 N 0.77737 0.41403 0.60547
 C2564 C 0.78848 0.40013 0.59283
 N2565 N 0.78171 0.37978 0.59115
 N2566 N 0.76446 0.37356 0.60171
 C2567 C 0.80791 0.40656 0.58151
 C2568 C 0.81599 0.42706 0.58349
 H2569 H 0.72609 0.39226 0.63619
 H2570 H 0.81654 0.39449 0.57248
 H2571 H 0.73474 0.34892 0.61351
 H2572 H 0.80756 0.43850 0.59355
 C2573 C 0.21127 0.86698 0.61482
 C2574 C 0.22094 0.88678 0.61691
 C2575 C 0.24066 0.89224 0.60568
 N2576 N 0.24909 0.91184 0.60858
 N2577 N 0.26743 0.91692 0.59928
 C2578 C 0.27806 0.90257 0.58675
 N2579 N 0.26956 0.88298 0.58373
 N2580 N 0.25118 0.87789 0.59304
 C2581 C 0.29875 0.90776 0.57710
 C2582 C 0.30852 0.92732 0.58092
 H2583 H 0.21404 0.89878 0.62741
 H2584 H 0.30675 0.89547 0.56779
 H2585 H 0.21743 0.85547 0.60330
 H2586 H 0.30050 0.93883 0.59124
 C2587 C 0.21898 0.37134 1.11664
 C2588 C 0.22938 0.39039 1.12151
 C2589 C 0.24877 0.39676 1.11005
 N2590 N 0.25790 0.41580 1.11452
 N2591 N 0.27570 0.42156 1.10456
 C2592 C 0.28504 0.40847 1.08979
 N2593 N 0.27589 0.38945 1.08530
 N2594 N 0.25808 0.38371 1.09523
 C2595 C 0.30503 0.41425 1.07908
 C2596 C 0.31502 0.43370 1.08290
 H2597 H 0.22345 0.40096 1.13395
 H2598 H 0.31227 0.40240 1.06866
 H2599 H 0.22508 0.36152 1.10359
 H2600 H 0.30764 0.44482 1.09408
 C2601 C 0.73310 1.14909 0.86142
 C2602 C 0.73893 1.12757 0.86165
 C2603 C 0.75563 1.11975 0.87701
 N2604 N 0.76106 1.09879 0.87767
 N2605 N 0.77633 1.09181 0.89136
 C2606 C 0.78670 1.10552 0.90495
 N2607 N 0.78120 1.12643 0.90434
 N2608 N 0.76596 1.13339 0.89068
 C2609 C 0.80444 1.09832 0.91934
 C2610 C 0.81157 1.07723 0.91951
 H2611 H 0.73121 1.11634 0.85084
 H2612 H 0.81311 1.11025 0.92854
 H2613 H 0.74117 1.15961 0.87280
 H2614 H 0.80308 1.06579 0.90947
 C2615 C 0.72385 0.64804 0.37242
 C2616 C 0.73265 0.62770 0.36974
 C2617 C 0.74991 0.61959 0.38417
 N2618 N 0.75741 0.59936 0.38180
 N2619 N 0.77349 0.59208 0.39430
 C2620 C 0.78271 0.60476 0.40963
 N2621 N 0.77517 0.62497 0.41203
 N2622 N 0.75905 0.63224 0.39957
 C2623 C 0.80127 0.59731 0.42275
 C2624 C 0.80953 0.57666 0.42065
 H2625 H 0.72701 0.61752 0.35675
 H2626 H 0.80922 0.60878 0.43312
 H2627 H 0.72917 0.65763 0.38605
 H2628 H 0.80136 0.56582 0.40969
 C2629 C 0.22297 1.15150 0.37040
 C2630 C 0.22932 1.13011 0.36981
 C2631 C 0.24621 1.12181 0.38463
 N2632 N 0.25201 1.10094 0.38390
 N2633 N 0.26776 1.09346 0.39671
 C2634 C 0.27831 1.10655 0.41076
 N2635 N 0.27242 1.12739 0.41157
 N2636 N 0.25666 1.13486 0.39878
 C2637 C 0.29663 1.09881 0.42408
 C2638 C 0.30383 1.07773 0.42294
 H2639 H 0.22224 1.11925 0.35819
 H2640 H 0.30547 1.11035 0.43361
 H2641 H 0.23023 1.16170 0.38261
 H2642 H 0.29500 1.06677 0.41265
 C2643 C 0.22401 0.64487 0.88550
 C2644 C 0.23144 0.62385 0.88577
 C2645 C 0.24959 0.61723 0.89972
 N2646 N 0.25625 0.59663 0.89971
 N2647 N 0.27335 0.59059 0.91145
 C2648 C 0.28442 0.60494 0.92364
 N2649 N 0.27762 0.62551 0.92384
 N2650 N 0.26048 0.63154 0.91211
 C2651 C 0.30440 0.59882 0.93508
 C2652 C 0.31289 0.57829 0.93324
 H2653 H 0.22420 0.61190 0.87545
 H2654 H 0.31352 0.61122 0.94305
 H2655 H 0.23119 0.65616 0.89671
 H2656 H 0.30369 0.56644 0.92443
 C2657 C 1.13358 1.27778 1.13038
 C2658 C 1.11404 1.26877 1.13580
 C2659 C 1.10748 1.24819 1.12629
 N2660 N 1.08743 1.24061 1.12943
 N2661 N 1.08137 1.22227 1.12035
 C2662 C 1.09516 1.21085 1.10782
 N2663 N 1.11520 1.21838 1.10482
 N2664 N 1.12122 1.23668 1.11384
 C2665 C 1.08893 1.19068 1.09737
 C2666 C 1.06848 1.18204 1.09919
 H2667 H 1.10307 1.27723 1.14631
 H2668 H 1.10116 1.18229 1.08832
 H2669 H 1.14380 1.26939 1.11906
 H2670 H 1.05690 1.19008 1.10939
 C2671 C 1.11067 0.78683 0.63742
 C2672 C 1.11201 0.77698 0.61722
 C2673 C 1.10103 0.75705 0.61167
 N2674 N 1.10314 0.74862 0.59160
 N2675 N 1.09397 0.73025 0.58633
 C2676 C 1.08233 0.71956 0.60095
 N2677 N 1.08013 0.72803 0.62102
 N2678 N 1.08931 0.74644 0.62630
 C2679 C 1.07271 0.69887 0.59545
 C2680 C 1.07565 0.68924 0.57529
 H2681 H 1.12163 0.78396 0.60484
 H2682 H 1.06407 0.69083 0.60790
 H2683 H 1.10011 0.78040 0.64937
 H2684 H 1.08525 0.69739 0.56360
 C2685 C 0.63865 1.26760 0.63242
 C2686 C 0.61721 1.26157 0.63077
 C2687 C 0.61103 1.24248 0.61820
 N2688 N 0.58997 1.23766 0.61521
 N2689 N 0.58431 1.22080 0.60334
 C2690 C 0.59947 1.20816 0.59392
 N2691 N 0.62051 1.21298 0.59692
 N2692 N 0.62616 1.22982 0.60878
 C2693 C 0.59350 1.18908 0.58127
 C2694 C 0.57220 1.18261 0.57941
 H2695 H 0.60473 1.27172 0.63742
 H2696 H 0.60624 1.17919 0.57472
 H2697 H 0.65078 1.25769 0.62480
 H2698 H 0.55985 1.19220 0.58708
 C2699 C 0.64272 0.77639 1.12690
 C2700 C 0.62232 0.76751 1.12671
 C2701 C 0.61768 0.74819 1.11381
 N2702 N 0.59728 0.74089 1.11214
 N2703 N 0.59295 0.72357 1.10041
 C2704 C 0.60882 0.71286 1.08984
 N2705 N 0.62921 0.72015 1.09152
 N2706 N 0.63354 0.73750 1.10322
 C2707 C 0.60431 0.69311 1.07758
 C2708 C 0.58361 0.68492 1.07644
 H2709 H 0.60936 0.77528 1.13531
 H2710 H 0.61765 0.68418 1.07084
 H2711 H 0.65516 0.76884 1.11735
 H2712 H 0.57073 0.69387 1.08402
 C2713 C 0.85548 1.25337 0.84548
 C2714 C 0.85407 1.24764 0.86705
 C2715 C 0.86796 1.23101 0.87650
 N2716 N 0.86793 1.22778 0.89809
 N2717 N 0.88102 1.21329 0.90703
 C2718 C 0.89466 1.20154 0.89470
 N2719 N 0.89463 1.20470 0.87310
 N2720 N 0.88156 1.21922 0.86416
 C2721 C 0.90893 1.18527 0.90426
 C2722 C 0.90928 1.18125 0.92633
 H2723 H 0.84379 1.25662 0.87779
 H2724 H 0.91838 1.17550 0.89341
 H2725 H 0.86659 1.24483 0.83515
 H2726 H 0.89880 1.19046 0.93674
 C2727 C 0.85317 0.75688 0.34743
 C2728 C 0.85482 0.75187 0.36923
 C2729 C 0.86886 0.73444 0.37693
 N2730 N 0.87153 0.73117 0.39840
 N2731 N 0.88471 0.71583 0.40560
 C2732 C 0.89577 0.70324 0.39160
 N2733 N 0.89309 0.70649 0.37013
 N2734 N 0.87992 0.72184 0.36293
 C2735 C 0.90989 0.68587 0.39932
 C2736 C 0.91188 0.68115 0.42117
 H2737 H 0.84690 0.76180 0.38110
 H2738 H 0.91755 0.67573 0.38743
 H2739 H 0.86191 0.74726 0.33584
 H2740 H 0.90311 0.69082 0.43269
 C2741 C 0.38387 1.28632 0.36630
 C2742 C 0.38041 1.27669 0.38614
 C2743 C 0.38981 1.25593 0.39208
 N2744 N 0.38591 1.24778 0.41180
 N2745 N 0.39375 1.22874 0.41735
 C2746 C 0.40576 1.21711 0.40334
 N2747 N 0.40971 1.22528 0.38362
 N2748 N 0.40187 1.24434 0.37807
 C2749 C 0.41430 1.19592 0.40907
 C2750 C 0.41061 1.18664 0.42906
 H2751 H 0.37029 1.28450 0.39788
 H2752 H 0.42320 1.18738 0.39686
 H2753 H 0.39501 1.27902 0.35511
 H2754 H 0.40057 1.19513 0.44047
 C2755 C 0.36833 0.78918 0.88469
 C2756 C 0.38573 0.77605 0.87931
 C2757 C 0.39146 0.75684 0.89183
 N2758 N 0.40964 0.74564 0.88721
 N2759 N 0.41497 0.72819 0.89823
 C2760 C 0.40233 0.72118 0.91430
 N2761 N 0.38411 0.73235 0.91890
 N2762 N 0.37880 0.74986 0.90791
 C2763 C 0.40793 0.70151 0.92623
 C2764 C 0.42714 0.69044 0.92236
 H2765 H 0.39568 0.78004 0.86583
 H2766 H 0.39648 0.69552 0.93753
 H2767 H 0.35911 0.78537 0.89879
 H2768 H 0.43796 0.69711 0.91078
 C2769 C 1.14539 0.74191 0.85353
 C2770 C 1.12404 0.74653 0.85830
 C2771 C 1.11831 0.76508 0.87182
 N2772 N 1.09773 0.76805 0.87825
 N2773 N 1.09265 0.78403 0.89155
 C2774 C 1.10799 0.79753 0.89909
 N2775 N 1.12856 0.79458 0.89264
 N2776 N 1.13362 0.77863 0.87932
 C2777 C 1.10251 0.81560 0.91333
 C2778 C 1.08123 0.82079 0.91786
 H2779 H 1.11177 0.73499 0.85438
 H2780 H 1.11525 0.82607 0.91872
 H2781 H 1.15766 0.75308 0.85851
 H2782 H 1.06854 0.81096 0.91115
 C2783 C 1.14777 0.25357 0.34248
 C2784 C 1.14761 0.25925 0.36423
 C2785 C 1.13238 0.27510 0.37274
 N2786 N 1.13058 0.27759 0.39436
 N2787 N 1.11613 0.29113 0.40245
 C2788 C 1.10289 0.30264 0.38922
 N2789 N 1.10475 0.30024 0.36757
 N2790 N 1.11917 0.28664 0.35946
 C2791 C 1.08736 0.31809 0.39802
 C2792 C 1.08546 0.32116 0.42019
 H2793 H 1.15728 0.25034 0.37577
 H2794 H 1.07857 0.32826 0.38685
 H2795 H 1.13723 0.26197 0.33124
 H2796 H 1.09514 0.31140 0.43105
 C2797 C 0.63608 0.74341 0.34759
 C2798 C 0.63281 0.74739 0.36941
 C2799 C 0.61689 0.76313 0.37682
 N2800 N 0.61373 0.76589 0.39824
 N2801 N 0.59936 0.78012 0.40524
 C2802 C 0.58754 0.79203 0.39108
 N2803 N 0.59058 0.78917 0.36964
 N2804 N 0.60497 0.77493 0.36263
 C2805 C 0.57282 0.80884 0.39866
 C2806 C 0.57196 0.81433 0.42043
 H2807 H 0.64133 0.73804 0.38148
 H2808 H 0.56451 0.81857 0.38674
 H2809 H 0.62677 0.75228 0.33569
 H2810 H 0.58137 0.80515 0.43201
 C2811 C 0.65628 0.24994 0.84526
 C2812 C 0.63442 0.25515 0.84511
 C2813 C 0.62550 0.27131 0.85976
 N2814 N 0.60386 0.27348 0.86154
 N2815 N 0.59549 0.28725 0.87562
 C2816 C 0.60847 0.29930 0.88847
 N2817 N 0.63011 0.29724 0.88659
 N2818 N 0.63848 0.28343 0.87254
 C2819 C 0.59950 0.31471 0.90389
 C2820 C 0.57738 0.31741 0.90636
 H2821 H 0.62320 0.24574 0.83568
 H2822 H 0.61063 0.32492 0.91253
 H2823 H 0.66719 0.25888 0.85557
 H2824 H 0.56649 0.30779 0.89669
 C2825 C 0.86334 0.72946 1.12207
 C2826 C 0.88491 0.73493 1.12093
 C2827 C 0.89177 0.75241 1.10715
 N2828 N 0.91290 0.75725 1.10603
 N2829 N 0.91921 0.77320 1.09375
 C2830 C 0.90462 0.78483 1.08208
 N2831 N 0.88351 0.77989 1.08309
 N2832 N 0.87721 0.76395 1.09537
 C2833 C 0.91116 0.80333 1.06957
 C2834 C 0.93229 0.81038 1.07018
 H2835 H 0.89709 0.72597 1.12979
 H2836 H 0.89868 0.81268 1.06157
 H2837 H 0.85150 0.73820 1.11250
 H2838 H 0.94430 0.80134 1.07924
 C2839 C 0.87785 0.22026 0.63637
 C2840 C 0.87389 0.23224 0.61785
 C2841 C 0.88699 0.25097 0.61278
 N2842 N 0.88410 0.26098 0.59363
 N2843 N 0.89570 0.27794 0.58889
 C2844 C 0.91064 0.28562 0.60311
 N2845 N 0.91350 0.27564 0.62229
 N2846 N 0.90195 0.25863 0.62701
 C2847 C 0.92312 0.30485 0.59819
 C2848 C 0.92096 0.31481 0.57822
 H2849 H 0.86126 0.22765 0.60660
 H2850 H 0.93328 0.31160 0.61076
 H2851 H 0.89116 0.22467 0.64693
 H2852 H 0.91038 0.30756 0.56627
 C2853 C 0.38765 0.71422 0.63047
 C2854 C 0.38535 0.72476 0.61087
 C2855 C 0.39705 0.74431 0.60609
 N2856 N 0.39451 0.75337 0.58644
 N2857 N 0.40448 0.77133 0.58190
 C2858 C 0.41740 0.78097 0.59682
 N2859 N 0.42004 0.77185 0.61648
 N2860 N 0.41006 0.75384 0.62103
 C2861 C 0.42767 0.80139 0.59213
 C2862 C 0.42388 0.81154 0.57248
 H2863 H 0.37472 0.71854 0.59842
 H2864 H 0.43711 0.80899 0.60475
 H2865 H 0.39907 0.72006 0.64244
 H2866 H 0.41364 0.80377 0.56058
 C2867 C 0.36656 0.21735 1.11019
 C2868 C 0.38604 0.22790 1.11293
 C2869 C 0.39083 0.24807 1.10224
 N2870 N 0.41046 0.25684 1.10531
 N2871 N 0.41514 0.27527 1.09623
 C2872 C 0.40035 0.28572 1.08372
 N2873 N 0.38068 0.27694 1.08059
 N2874 N 0.37600 0.25844 1.08967
 C2875 C 0.40531 0.30643 1.07405
 C2876 C 0.42533 0.31587 1.07745
 H2877 H 0.39853 0.22116 1.12323
 H2878 H 0.39274 0.31445 1.06485
 H2879 H 0.35453 0.22363 1.09900
 H2880 H 0.43718 0.30746 1.08731
 C2881 C 1.14993 1.14120 0.74398
 C2882 C 1.12927 1.14336 0.75224
 C2883 C 1.12213 1.13000 0.77000
 N2884 N 1.10125 1.13067 0.77594
 N2885 N 1.09449 1.11837 0.79175
 C2886 C 1.10837 1.10492 0.80219
 N2887 N 1.12927 1.10430 0.79630
 N2888 N 1.13602 1.11657 0.78045
 C2889 C 1.10122 1.09163 0.81999
 C2890 C 1.07978 1.09162 0.82622
 H2891 H 1.11762 1.15423 0.74508
 H2892 H 1.11332 1.08264 0.82891
 H2893 H 1.16093 1.12974 0.75136
 H2894 H 1.06823 1.10144 0.81741
 C2895 C 1.12728 0.63999 0.23033
 C2896 C 1.12861 0.61941 0.23850
 C2897 C 1.11419 0.61271 0.25569
 N2898 N 1.11403 0.59210 0.26192
 N2899 N 1.10103 0.58595 0.27748
 C2900 C 1.08771 0.60017 0.28738
 N2901 N 1.08788 0.62077 0.28115
 N2902 N 1.10083 0.62690 0.26556
 C2903 C 1.07416 0.59382 0.30538
 C2904 C 1.07400 0.57288 0.31245
 H2905 H 1.13972 0.60779 0.23189
 H2906 H 1.06566 0.60616 0.31419
 H2907 H 1.11538 0.65085 0.23700
 H2908 H 1.08322 0.56100 0.30367
 C2909 C 0.62300 1.11639 0.21871
 C2910 C 0.60273 1.11999 0.22749
 C2911 C 0.59562 1.10751 0.24597
 N2912 N 0.57577 1.11086 0.25421
 N2913 N 0.56947 1.09991 0.27124
 C2914 C 0.58280 1.08522 0.28062
 N2915 N 0.60258 1.08183 0.27232
 N2916 N 0.60886 1.09274 0.25531
 C2917 C 0.57661 1.07368 0.29999
 C2918 C 0.55675 1.07700 0.30963
 H2919 H 0.59193 1.13204 0.22101
 H2920 H 0.58866 1.06342 0.30744
 H2921 H 0.63311 1.10386 0.22553
 H2922 H 0.54539 1.08808 0.30223
 C2923 C 0.62480 0.60911 0.70764
 C2924 C 0.60580 0.61267 0.71883
 C2925 C 0.60086 0.60116 0.73868
 N2926 N 0.58194 0.60505 0.74865
 N2927 N 0.57737 0.59518 0.76689
 C2928 C 0.59154 0.58104 0.77588
 N2929 N 0.61044 0.57708 0.76587
 N2930 N 0.61501 0.58694 0.74759
 C2931 C 0.58693 0.57064 0.79649
 C2932 C 0.56807 0.57525 0.80761
 H2933 H 0.59408 0.62422 0.71302
 H2934 H 0.59912 0.56017 0.80338
 H2935 H 0.63600 0.59692 0.71324
 H2936 H 0.55666 0.58649 0.80055
 C2937 C 0.89754 0.87749 0.70442
 C2938 C 0.89489 0.89694 0.71510
 C2939 C 0.90566 0.90184 0.73582
 N2940 N 0.90222 0.92107 0.74530
 N2941 N 0.91122 0.92564 0.76439
 C2942 C 0.92400 0.91116 0.77475
 N2943 N 0.92754 0.89195 0.76521
 N2944 N 0.91854 0.88736 0.74609
 C2945 C 0.93335 0.91581 0.79625
 C2946 C 0.92876 0.93488 0.80704
 H2947 H 0.88439 0.90907 0.70827
 H2948 H 0.94299 0.90353 0.80398
 H2949 H 0.90884 0.86582 0.71091
 H2950 H 0.91819 0.94637 0.79915
 C2951 C 0.89998 0.37720 0.20230
 C2952 C 0.89468 0.39507 0.21477
 C2953 C 0.90408 0.39889 0.23637
 N2954 N 0.89827 0.41664 0.24751
 N2955 N 0.90616 0.42024 0.26728
 C2956 C 0.92016 0.40621 0.27670
 N2957 N 0.92604 0.38846 0.26553
 N2958 N 0.91814 0.38486 0.24572
 C2959 C 0.92860 0.40990 0.29875
 C2960 C 0.92230 0.42778 0.31071
 H2961 H 0.88311 0.40672 0.20889
 H2962 H 0.93935 0.39802 0.30563
 H2963 H 0.91208 0.36615 0.20850
 H2964 H 0.91097 0.43888 0.30330
 C2965 C 0.34455 0.83813 0.24650
 C2966 C 0.34227 0.85950 0.25240
 C2967 C 0.35606 0.86863 0.26955
 N2968 N 0.35684 0.89001 0.27250
 N2969 N 0.37017 0.89838 0.28724
 C2970 C 0.38323 0.88568 0.29954
 N2971 N 0.38230 0.86432 0.29672
 N2972 N 0.36903 0.85597 0.28197
 C2973 C 0.39795 0.89453 0.31597
 C2974 C 0.39969 0.91635 0.31949
 H2975 H 0.33181 0.87011 0.24327
 H2976 H 0.40676 0.88347 0.32621
 H2977 H 0.35577 0.82830 0.25575
 H2978 H 0.38990 0.92711 0.30975
 C2979 C 0.34244 0.33638 0.75816
 C2980 C 0.34063 0.35781 0.76383
 C2981 C 0.35518 0.36762 0.77978
 N2982 N 0.35567 0.38910 0.78171
 N2983 N 0.36975 0.39835 0.79508
 C2984 C 0.38386 0.38643 0.80698
 N2985 N 0.38322 0.36494 0.80523
 N2986 N 0.36919 0.35569 0.79181
 C2987 C 0.39958 0.39636 0.82168
 C2988 C 0.40160 0.41838 0.82332
 H2989 H 0.33000 0.36826 0.75472
 H2990 H 0.40915 0.38598 0.83198
 H2991 H 0.35393 0.32631 0.76675
 H2992 H 0.39104 0.42852 0.81369
 C2993 C 1.14925 0.85068 1.26595
 C2994 C 1.12741 0.85234 1.26051
 C2995 C 1.11998 0.86771 1.24396
 N2996 N 1.09867 0.87070 1.23967
 N2997 N 1.09204 0.88477 1.22491
 C2998 C 1.10645 0.89644 1.21395
 N2999 N 1.12772 0.89345 1.21825
 N3000 N 1.13433 0.87943 1.23299
 C3001 C 1.09954 0.91136 1.19688
 C3002 C 1.07797 0.91396 1.19090
 H3003 H 1.11562 0.84320 1.26892
 H3004 H 1.11186 0.91902 1.18771
 H3005 H 1.16030 0.86057 1.25731
 H3006 H 1.06601 0.90539 1.19973
 C3007 C 1.12024 0.36259 0.78991
 C3008 C 1.12670 0.37930 0.77685
 C3009 C 1.11409 0.38620 0.75767
 N3010 N 1.12131 0.40229 0.74541
 N3011 N 1.11035 0.40853 0.72786
 C3012 C 1.09171 0.39893 0.72184
 N3013 N 1.08445 0.38285 0.73412
 N3014 N 1.09542 0.37660 0.75169
 C3015 C 1.07956 0.40552 0.70223
 C3016 C 1.08661 0.42196 0.68917
 H3017 H 1.14154 0.38749 0.78033
 H3018 H 1.06493 0.39716 0.69828
 H3019 H 1.10517 0.35488 0.78596
 H3020 H 1.10113 0.43012 0.69417
 C3021 C 0.63373 0.88514 0.78486
 C3022 C 0.61425 0.88320 0.77365
 C3023 C 0.60947 0.89504 0.75376
 N3024 N 0.58977 0.89349 0.74423
 N3025 N 0.58525 0.90371 0.72596
 C3026 C 0.60026 0.91587 0.71650
 N3027 N 0.61998 0.91748 0.72606
 N3028 N 0.62450 0.90727 0.74438
 C3029 C 0.59560 0.92641 0.69577
 C3030 C 0.57559 0.92425 0.68553
 H3031 H 0.60194 0.87292 0.77965
 H3032 H 0.60843 0.93474 0.68805
 H3033 H 0.64548 0.89630 0.77926
 H3034 H 0.56340 0.91521 0.69355
 C3035 C 0.63429 0.35314 1.27320
 C3036 C 0.63770 0.37325 1.26467
 C3037 C 0.62519 0.38027 1.24544
 N3038 N 0.62650 0.40053 1.23826
 N3039 N 0.61487 0.40688 1.22115
 C3040 C 0.60146 0.39322 1.21059
 N3041 N 0.60021 0.37299 1.21772
 N3042 N 0.61180 0.36667 1.23481
 C3043 C 0.58881 0.39973 1.19135
 C3044 C 0.58981 0.42021 1.18312
 H3045 H 0.64874 0.38416 1.27243
 H3046 H 0.57949 0.38773 1.18295
 H3047 H 0.62257 0.34310 1.26509
 H3048 H 0.59998 0.43162 1.19143
 C3049 C 0.87090 1.13199 1.28947
 C3050 C 0.86515 1.11411 1.27728
 C3051 C 0.87773 1.10714 1.25840
 N3052 N 0.87234 1.08921 1.24734
 N3053 N 0.88348 1.08295 1.23016
 C3054 C 0.90044 1.09441 1.22335
 N3055 N 0.90580 1.11233 1.23441
 N3056 N 0.89469 1.11856 1.25159
 C3057 C 0.91276 1.08802 1.20413
 C3058 C 0.90830 1.06949 1.19236
 H3059 H 0.85124 1.10500 1.28153
 H3060 H 0.92522 1.09860 1.19911
 H3061 H 0.88517 1.14055 1.28509
 H3062 H 0.89542 1.05957 1.19787
 C3063 C 0.87010 0.61790 0.79049
 C3064 C 0.88822 0.62299 0.77877
 C3065 C 0.89376 0.61127 0.75888
 N3066 N 0.91238 0.61537 0.74872
 N3067 N 0.91750 0.60489 0.73071
 C3068 C 0.90420 0.58993 0.72214
 N3069 N 0.88556 0.58586 0.73228
 N3070 N 0.88046 0.59630 0.75032
 C3071 C 0.90945 0.57859 0.70194
 C3072 C 0.92871 0.58210 0.69140
 H3073 H 0.89878 0.63546 0.78439
 H3074 H 0.89756 0.56802 0.69506
 H3075 H 0.86022 0.60480 0.78496
 H3076 H 0.93993 0.59320 0.69868
 C3077 C 0.35904 1.14412 0.76712
 C3078 C 0.36298 1.12263 0.76302
 C3079 C 0.37738 1.11571 0.74561
 N3080 N 0.38202 1.09476 0.74270
 N3081 N 0.39534 1.08842 0.72724
 C3082 C 0.40462 1.10280 0.71418
 N3083 N 0.40002 1.12374 0.71714
 N3084 N 0.38670 1.13008 0.73259
 C3085 C 0.41852 1.09598 0.69636
 C3086 C 0.42172 1.07455 0.69137
 H3087 H 0.35652 1.11073 0.77352
 H3088 H 0.42461 1.10805 0.68581
 H3089 H 0.36636 1.15583 0.75694
 H3090 H 0.41450 1.06272 0.70147
 C3091 C 0.37486 0.61030 1.28747
 C3092 C 0.39482 0.61443 1.27853
 C3093 C 0.40196 0.60308 1.25906
 N3094 N 0.42148 0.60710 1.25065
 N3095 N 0.42768 0.59742 1.23254
 C3096 C 0.41454 0.58340 1.22220
 N3097 N 0.39509 0.57933 1.23067
 N3098 N 0.38893 0.58897 1.24876
 C3099 C 0.42050 0.57329 1.20171
 C3100 C 0.44025 0.57672 1.19209
 H3101 H 0.40524 0.62643 1.28539
 H3102 H 0.40833 0.56385 1.19369
 H3103 H 0.36523 0.59769 1.28041
 H3104 H 0.45172 0.58696 1.20026
 C3105 C 1.13541 1.27429 0.88580
 C3106 C 1.11408 1.26791 0.88646
 C3107 C 1.10763 1.25025 0.90029
 N3108 N 1.08664 1.24485 0.90134
 N3109 N 1.08071 1.22877 0.91366
 C3110 C 1.09554 1.21753 0.92543
 N3111 N 1.11651 1.22300 0.92445
 N3112 N 1.12244 1.23908 0.91215
 C3113 C 1.08939 1.19893 0.93808
 C3114 C 1.06829 1.19177 0.93793
 H3115 H 1.10178 1.27628 0.87718
 H3116 H 1.10205 1.18971 0.94596
 H3117 H 1.14733 1.26619 0.89585
 H3118 H 1.05609 1.20079 0.92910
 C3119 C 1.14328 0.76940 0.37138
 C3120 C 1.12386 0.75934 0.36674
 C3121 C 1.11580 0.74244 0.38080
 N3122 N 1.09681 0.73292 0.37607
 N3123 N 1.08981 0.71714 0.38823
 C3124 C 1.10155 0.71022 0.40559
 N3125 N 1.12049 0.71978 0.41034
 N3126 N 1.12746 0.73558 0.39821
 C3127 C 1.09445 0.69219 0.41872
 C3128 C 1.07489 0.68215 0.41458
 H3129 H 1.11479 0.76325 0.35222
 H3130 H 1.10530 0.68647 0.43125
 H3131 H 1.15200 0.76514 0.38604
 H3132 H 1.06466 0.68851 0.40178
 C3133 C 0.62842 1.26150 0.36023
 C3134 C 0.62551 1.25639 0.38176
 C3135 C 0.61079 1.23939 0.38783
 N3136 N 0.60708 1.23558 0.40891
 N3137 N 0.59359 1.22039 0.41452
 C3138 C 0.58321 1.20853 0.39925
 N3139 N 0.58686 1.21240 0.37817
 N3140 N 0.60035 1.22758 0.37257
 C3141 C 0.56927 1.19088 0.40522
 C3142 C 0.56716 1.18495 0.42664
 H3143 H 0.63310 1.26576 0.39439
 H3144 H 0.56243 1.18111 0.39244
 H3145 H 0.61994 1.25252 0.34783
 H3146 H 0.57505 1.19431 0.43913
 C3147 C 0.61419 0.78457 0.86666
 C3148 C 0.61730 0.77397 0.88617
 C3149 C 0.60646 0.75404 0.89121
 N3150 N 0.61018 0.74479 0.91061
 N3151 N 0.60097 0.72648 0.91539
 C3152 C 0.58768 0.71669 0.90094
 N3153 N 0.58387 0.72598 0.88153
 N3154 N 0.59309 0.74432 0.87674
 C3155 C 0.57789 0.69614 0.90591
 C3156 C 0.58235 0.68581 0.92536
 H3157 H 0.62812 0.78037 0.89835
 H3158 H 0.56782 0.68881 0.89363
 H3159 H 0.60260 0.77852 0.85496
 H3160 H 0.59328 0.69328 0.93683
 C3161 C 0.88231 1.29409 1.10350
 C3162 C 0.89715 1.27922 1.11169
 C3163 C 0.89983 1.25786 1.10224
 N3164 N 0.91299 1.24354 1.11225
 N3165 N 0.91550 1.22401 1.10421
 C3166 C 0.90497 1.21801 1.08582
 N3167 N 0.89186 1.23236 1.07571
 N3168 N 0.88928 1.25193 1.08381
 C3169 C 0.90790 1.19643 1.07681
 C3170 C 0.92027 1.18120 1.08784
 H3171 H 0.90676 1.28279 1.12590
 H3172 H 0.90066 1.19291 1.06124
 H3173 H 0.87276 1.28981 1.08936
 H3174 H 0.92735 1.18567 1.10329
 C3175 C 0.87389 0.79319 0.60470
 C3176 C 0.89287 0.78150 0.60791
 C3177 C 0.89667 0.76068 0.59759
 N3178 N 0.91576 0.75045 0.60092
 N3179 N 0.91938 0.73134 0.59222
 C3180 C 0.90404 0.72171 0.57985
 N3181 N 0.88495 0.73198 0.57644
 N3182 N 0.88133 0.75113 0.58515
 C3183 C 0.90774 0.70024 0.57083
 C3184 C 0.92703 0.68924 0.57490
 H3185 H 0.90549 0.78768 0.61831
 H3186 H 0.89477 0.69284 0.56182
 H3187 H 0.86179 0.78730 0.59346
 H3188 H 0.93929 0.69706 0.58460
 C3189 C 0.35945 1.26242 0.65471
 C3190 C 0.35862 1.25600 0.63311
 C3191 C 0.37340 1.23911 0.62522
 N3192 N 0.37315 1.23323 0.60411
 N3193 N 0.38621 1.21773 0.59710
 C3194 C 0.40004 1.20752 0.61091
 N3195 N 0.40033 1.21345 0.63198
 N3196 N 0.38731 1.22895 0.63896
 C3197 C 0.41377 1.18956 0.60370
 C3198 C 0.41335 1.18240 0.58237
 H3199 H 0.34722 1.26322 0.62190
 H3200 H 0.42305 1.18094 0.61578
 H3201 H 0.37143 1.25488 0.66516
 H3202 H 0.40331 1.19099 0.57083
 C3203 C 0.36086 0.75065 1.15697
 C3204 C 0.36277 0.74508 1.13527
 C3205 C 0.37993 0.73059 1.12791
 N3206 N 0.38355 0.72834 1.10652
 N3207 N 0.39917 0.71545 1.09959
 C3208 C 0.41181 0.70437 1.11377
 N3209 N 0.40818 0.70661 1.13518
 N3210 N 0.39260 0.71957 1.14213
 C3211 C 0.42799 0.68892 1.10613
 C3212 C 0.43140 0.68594 1.08418
 H3213 H 0.35255 0.75243 1.12309
 H3214 H 0.43536 0.67817 1.11774
 H3215 H 0.37197 0.74346 1.16855
 H3216 H 0.42337 0.69655 1.07285
 C3217 C 0.87071 0.72059 0.87714
 C3218 C 0.88997 0.73018 0.87183
 C3219 C 0.89583 0.75089 0.88150
 N3220 N 0.91567 0.75905 0.87861
 N3221 N 0.92112 0.77746 0.88791
 C3222 C 0.90692 0.78838 0.90042
 N3223 N 0.88708 0.78028 0.90317
 N3224 N 0.88166 0.76191 0.89393
 C3225 C 0.91252 0.80862 0.91107
 C3226 C 0.93272 0.81777 0.90931
 H3227 H 0.90125 0.72207 0.86139
 H3228 H 0.90007 0.81664 0.92015
 H3229 H 0.86017 0.72866 0.88840
 H3230 H 0.94452 0.81002 0.89913
 C3231 C 0.85821 0.22370 0.38387
 C3232 C 0.87874 0.23194 0.38169
 C3233 C 0.88541 0.25120 0.39352
 N3234 N 0.90574 0.25845 0.39168
 N3235 N 0.91186 0.27600 0.40214
 C3236 C 0.89788 0.28695 0.41485
 N3237 N 0.87757 0.27967 0.41673
 N3238 N 0.87146 0.26212 0.40628
 C3239 C 0.90416 0.30675 0.42593
 C3240 C 0.92464 0.31517 0.42380
 H3241 H 0.89029 0.22408 0.37137
 H3242 H 0.89196 0.31532 0.43486
 H3243 H 0.84713 0.23148 0.39481
 H3244 H 0.93616 0.30662 0.41395
 C3245 C 0.37764 0.70926 0.37098
 C3246 C 0.36936 0.72400 0.38575
 C3247 C 0.38123 0.74346 0.39167
 N3248 N 0.37267 0.75771 0.40577
 N3249 N 0.38316 0.77540 0.41108
 C3250 C 0.40263 0.77955 0.40249
 N3251 N 0.41119 0.76530 0.38839
 N3252 N 0.40070 0.74761 0.38308
 C3253 C 0.41444 0.79909 0.40826
 C3254 C 0.40624 0.81383 0.42305
 H3255 H 0.35386 0.72161 0.39293
 H3256 H 0.42989 0.80148 0.40101
 H3257 H 0.39324 0.71236 0.36419
 H3258 H 0.39101 0.81035 0.43040
 C3259 C 0.35657 0.23408 0.85768
 C3260 C 0.35559 0.24219 0.87866
 C3261 C 0.36910 0.26037 0.88521
 N3262 N 0.37062 0.26648 0.90621
 N3263 N 0.38335 0.28248 0.91216
 C3264 C 0.39505 0.29293 0.89736
 N3265 N 0.39344 0.28688 0.87638
 N3266 N 0.38076 0.27089 0.87044
 C3267 C 0.40886 0.31093 0.90352
 C3268 C 0.41078 0.31794 0.92482
 H3269 H 0.34603 0.23454 0.89069
 H3270 H 0.41659 0.31951 0.89081
 H3271 H 0.36696 0.24195 0.84646
 H3272 H 0.40214 0.30958 0.93710
 C3273 C 1.13869 0.73070 1.14490
 C3274 C 1.14184 0.73948 1.12462
 C3275 C 1.12874 0.75817 1.11778
 N3276 N 1.12816 0.76438 1.09686
 N3277 N 1.11560 0.78068 1.09064
 C3278 C 1.10313 0.79135 1.10508
 N3279 N 1.10386 0.78526 1.12598
 N3280 N 1.11636 0.76898 1.13217
 C3281 C 1.08931 0.80958 1.09865
 C3282 C 1.08784 0.81643 1.07737
 H3283 H 1.15258 0.73193 1.11326
 H3284 H 1.08107 0.81838 1.11119
 H3285 H 1.12692 0.73837 1.15519
 H3286 H 1.09693 0.80781 1.06528
 C3287 C 1.12984 0.22498 0.64727
 C3288 C 1.13448 0.23593 0.62842
 C3289 C 1.12073 0.25380 0.62080
 N3290 N 1.12514 0.26365 0.60204
 N3291 N 1.11317 0.28015 0.59531
 C3292 C 1.09633 0.28747 0.60710
 N3293 N 1.09190 0.27760 0.62585
 N3294 N 1.10384 0.26108 0.63255
 C3295 C 1.08337 0.30618 0.60026
 C3296 C 1.08712 0.31652 0.58086
 H3297 H 1.14852 0.23173 0.61917
 H3298 H 1.07130 0.31213 0.61118
 H3299 H 1.11529 0.22941 0.65572
 H3300 H 1.09955 0.31000 0.57059
 C3301 C 0.60779 0.71167 0.62641
 C3302 C 0.61147 0.72243 0.60726
 C3303 C 0.60154 0.74320 0.60223
 N3304 N 0.60569 0.75255 0.58314
 N3305 N 0.59732 0.77159 0.57842
 C3306 C 0.58450 0.78203 0.59265
 N3307 N 0.58030 0.77267 0.61173
 N3308 N 0.58866 0.75359 0.61645
 C3309 C 0.57545 0.80326 0.58779
 C3310 C 0.57970 0.81361 0.56850
 H3311 H 0.62210 0.71556 0.59539
 H3312 H 0.56585 0.81092 0.60005
 H3313 H 0.59630 0.71818 0.63772
 H3314 H 0.59024 0.80579 0.55708
 C3315 C 0.61610 0.21189 1.13164
 C3316 C 0.62379 0.22522 1.11565
 C3317 C 0.61180 0.24452 1.10874
 N3318 N 0.62000 0.25721 1.09342
 N3319 N 0.60952 0.27482 1.08722
 C3320 C 0.59040 0.28047 1.09611
 N3321 N 0.58219 0.26777 1.11143
 N3322 N 0.59268 0.25015 1.11763
 C3323 C 0.57870 0.30005 1.08952
 C3324 C 0.58660 0.31339 1.07367
 H3325 H 0.63905 0.22183 1.10816
 H3326 H 0.56361 0.30370 1.09723
 H3327 H 0.60068 0.21585 1.13867
 H3328 H 0.60144 0.30865 1.06595
 C3329 C 1.27881 1.12827 0.87025
 C3330 C 1.26562 1.13595 0.88668
 C3331 C 1.24821 1.12302 0.89557
 N3332 N 1.23458 1.13161 0.91026
 N3333 N 1.21844 1.12030 0.91791
 C3334 C 1.21530 1.09993 0.91118
 N3335 N 1.22899 1.09131 0.89658
 N3336 N 1.24511 1.10262 0.88892
 C3337 C 1.19721 1.08725 0.91901
 C3338 C 1.18221 1.09537 0.93361
 H3339 H 1.26733 1.15210 0.89252
 H3340 H 1.19591 1.07114 0.91299
 H3341 H 1.27634 1.11226 0.86417
 H3342 H 1.18465 1.11122 0.94009
 C3343 C 1.27289 0.62831 0.36296
 C3344 C 1.26498 0.62843 0.38382
 C3345 C 1.24548 0.61650 0.38905
 N3346 N 1.23961 0.61435 0.40987
 N3347 N 1.22255 0.60283 0.41478
 C3348 C 1.21075 0.59295 0.39907
 N3349 N 1.21657 0.59518 0.37825
 N3350 N 1.23363 0.60668 0.37335
 C3351 C 1.19157 0.58053 0.40425
 C3352 C 1.18463 0.57874 0.42538
 H3353 H 1.27423 0.63574 0.39679
 H3354 H 1.18205 0.57392 0.39109
 H3355 H 1.26404 0.61988 0.35042
 H3356 H 1.19393 0.58634 0.43815
 C3357 C 0.76425 1.13721 0.37055
 C3358 C 0.75660 1.11656 0.36861
 C3359 C 0.73684 1.11035 0.37972
 N3360 N 0.73024 1.08988 0.37914
 N3361 N 0.71276 1.08416 0.38973
 C3362 C 0.70128 1.09869 0.40134
 N3363 N 0.70786 1.11914 0.40187
 N3364 N 0.72530 1.12484 0.39129
 C3365 C 0.68184 1.09276 0.41305
 C3366 C 0.67370 1.07224 0.41207
 H3367 H 0.76580 1.10456 0.36001
 H3368 H 0.67329 1.10515 0.42175
 H3369 H 0.75512 1.14871 0.37992
 H3370 H 0.68192 1.06044 0.40226
 C3371 C 0.78511 0.62613 0.88936
 C3372 C 0.77523 0.60694 0.88422
 C3373 C 0.75478 0.60105 0.89391
 N3374 N 0.74583 0.58200 0.88909
 N3375 N 0.72705 0.57673 0.89744
 C3376 C 0.71652 0.59037 0.91085
 N3377 N 0.72548 0.60939 0.91566
 N3378 N 0.74426 0.61463 0.90736
 C3379 C 0.69563 0.58512 0.91993
 C3380 C 0.68567 0.56572 0.91588
 H3381 H 0.78236 0.59605 0.87272
 H3382 H 0.68777 0.59731 0.92948
 H3383 H 0.77804 0.63646 0.90148
 H3384 H 0.69339 0.55431 0.90524
 C3385 C 1.27227 0.84497 1.13366
 C3386 C 1.26308 0.86495 1.13767
 C3387 C 1.24616 0.87412 1.12348
 N3388 N 1.23820 0.89390 1.12760
 N3389 N 1.22235 0.90211 1.11539
 C3390 C 1.21383 0.89082 1.09860
 N3391 N 1.22185 0.87106 1.09443
 N3392 N 1.23773 0.86287 1.10662
 C3393 C 1.19560 0.89926 1.08561
 C3394 C 1.18680 0.91947 1.08945
 H3395 H 1.26809 0.87409 1.15168
 H3396 H 1.18844 0.88876 1.07370
 H3397 H 1.26765 0.83644 1.11908
 H3398 H 1.19422 0.92925 1.10190
 C3399 C 1.26296 0.35683 0.65542
 C3400 C 1.25869 0.35913 0.63342
 C3401 C 1.24197 0.37441 0.62575
 N3402 N 1.23809 0.37708 0.60432
 N3403 N 1.22294 0.39080 0.59745
 C3404 C 1.21115 0.40243 0.61173
 N3405 N 1.21510 0.39981 0.63311
 N3406 N 1.23022 0.38612 0.63997
 C3407 C 1.19358 0.41690 0.60451
 C3408 C 1.18779 0.41888 0.58280
 H3409 H 1.26792 0.35012 0.62175
 H3410 H 1.18396 0.42471 0.61671
 H3411 H 1.25377 0.36649 0.66663
 H3412 H 1.19711 0.41013 0.57098
 C3413 C 0.79453 0.89708 0.62156
 C3414 C 0.78315 0.89377 0.60226
 C3415 C 0.76222 0.90403 0.59761
 N3416 N 0.75217 0.90033 0.57839
 N3417 N 0.73285 0.90886 0.57410
 C3418 C 0.72284 0.92140 0.58889
 N3419 N 0.73294 0.92519 0.60810
 N3420 N 0.75228 0.91667 0.61239
 C3421 C 0.70118 0.93033 0.58460
 C3422 C 0.69011 0.92624 0.56525
 H3423 H 0.78958 0.88312 0.59013
 H3424 H 0.69372 0.93944 0.59736
 H3425 H 0.78853 0.90864 0.63312
 H3426 H 0.69792 0.91633 0.55324
 C3427 C 0.80406 0.39793 1.11351
 C3428 C 0.79226 0.39317 1.09479
 C3429 C 0.77065 0.40215 1.09060
 N3430 N 0.75977 0.39679 1.07224
 N3431 N 0.73982 0.40408 1.06859
 C3432 C 0.72999 0.41696 1.08322
 N3433 N 0.74090 0.42240 1.10153
 N3434 N 0.76086 0.41513 1.10517
 C3435 C 0.70777 0.42469 1.07974
 C3436 C 0.69572 0.41927 1.06133
 H3437 H 0.79865 0.38209 1.08303
 H3438 H 0.70081 0.43426 1.09244
 H3439 H 0.79786 0.40978 1.12466
 H3440 H 0.70305 0.40889 1.04943
 C3441 C 0.72213 1.13009 1.13990
 C3442 C 0.72839 1.12771 1.11857
 C3443 C 0.74738 1.11452 1.11303
 N3444 N 0.75191 1.11033 1.09209
 N3445 N 0.76854 1.09777 1.08700
 C3446 C 0.78122 1.08880 1.10265
 N3447 N 0.77670 1.09301 1.12358
 N3448 N 0.76007 1.10556 1.12866
 C3449 C 0.80015 1.07551 1.09726
 C3450 C 0.80638 1.07247 1.07599
 H3451 H 0.71819 1.13395 1.10571
 H3452 H 0.81035 1.06963 1.11030
 H3453 H 0.73191 1.12273 1.15249
 H3454 H 0.79655 1.07944 1.06321
 C3455 C 0.70850 0.62804 0.60871
 C3456 C 0.71994 0.60912 0.61226
 C3457 C 0.74059 0.60442 0.60193
 N3458 N 0.75087 0.58567 0.60590
 N3459 N 0.76986 0.58131 0.59716
 C3460 C 0.77931 0.59556 0.58412
 N3461 N 0.76899 0.61430 0.58007
 N3462 N 0.74997 0.61866 0.58881
 C3463 C 0.80059 0.59114 0.57490
 C3464 C 0.81193 0.57237 0.57954
 H3465 H 0.71377 0.59733 0.62303
 H3466 H 0.80762 0.60331 0.56516
 H3467 H 0.71448 0.63934 0.59724
 H3468 H 0.80466 0.56100 0.59012
 C3469 C 0.23930 1.14737 0.65321
 C3470 C 0.24174 1.14171 0.63163
 C3471 C 0.25920 1.12707 0.62495
 N3472 N 0.26024 1.12021 0.60419
 N3473 N 0.27550 1.10636 0.59822
 C3474 C 0.29021 1.09874 0.61281
 N3475 N 0.28916 1.10559 0.63356
 N3476 N 0.27392 1.11944 0.63952
 C3477 C 0.30771 1.08411 0.60629
 C3478 C 0.31083 1.07873 0.58473
 H3479 H 0.22960 1.14649 0.61984
 H3480 H 0.31950 1.07916 0.61838
 H3481 H 0.25102 1.14157 0.66497
 H3482 H 0.29958 1.08485 0.57268
 C3483 C 0.22159 0.62476 1.14078
 C3484 C 0.23643 0.63226 1.12612
 C3485 C 0.25547 0.61949 1.11960
 N3486 N 0.26979 0.62776 1.10582
 N3487 N 0.28720 0.61663 1.10002
 C3488 C 0.29105 0.59675 1.10780
 N3489 N 0.27671 0.58845 1.12159
 N3490 N 0.25929 0.59961 1.12739
 C3491 C 0.31035 0.58425 1.10137
 C3492 C 0.32499 0.59232 1.08678
 H3493 H 0.23455 0.64814 1.11972
 H3494 H 0.31261 0.56846 1.10785
 H3495 H 0.22404 0.60896 1.14732
 H3496 H 0.32162 0.60798 1.08027
 C3497 C 0.71492 0.86627 0.88836
 C3498 C 0.72457 0.88598 0.88613
 C3499 C 0.74531 0.89122 0.89637
 N3500 N 0.75364 0.91077 0.89347
 N3501 N 0.77280 0.91566 0.90189
 C3502 C 0.78437 0.90115 0.91351
 N3503 N 0.77600 0.88160 0.91651
 N3504 N 0.75681 0.87671 0.90808
 C3505 C 0.80582 0.90619 0.92236
 C3506 C 0.81522 0.92587 0.91887
 H3507 H 0.71689 0.89808 0.87625
 H3508 H 0.81446 0.89379 0.93099
 H3509 H 0.72199 0.85467 0.89930
 H3510 H 0.80641 0.93749 0.90925
 C3511 C 0.71799 0.35549 0.38002
 C3512 C 0.72867 0.37427 0.37545
 C3513 C 0.74743 0.38148 0.38844
 N3514 N 0.75672 0.40031 0.38402
 N3515 N 0.77388 0.40683 0.39532
 C3516 C 0.78249 0.39477 0.41149
 N3517 N 0.77319 0.37593 0.41593
 N3518 N 0.75599 0.36943 0.40465
 C3519 C 0.80193 0.40155 0.42373
 C3520 C 0.81168 0.42100 0.41978
 H3521 H 0.72335 0.38396 0.36200
 H3522 H 0.80888 0.39064 0.43538
 H3523 H 0.72331 0.34634 0.39390
 H3524 H 0.80421 0.43122 0.40773
 C3525 C 0.24686 0.84369 0.34846
 C3526 C 0.24974 0.84814 0.37034
 C3527 C 0.26472 0.86450 0.37806
 N3528 N 0.26526 0.86999 0.39925
 N3529 N 0.27813 0.88535 0.40639
 C3530 C 0.29085 0.89589 0.39258
 N3531 N 0.29032 0.89040 0.37138
 N3532 N 0.27742 0.87504 0.36423
 C3533 C 0.30588 0.91215 0.40044
 C3534 C 0.30838 0.91658 0.42237
 H3535 H 0.23932 0.84102 0.38198
 H3536 H 0.31667 0.91910 0.38900
 H3537 H 0.25675 0.85168 0.33689
 H3538 H 0.29824 0.90860 0.43372
 C3539 C 0.22881 0.35995 0.86963
 C3540 C 0.23456 0.38127 0.86962
 C3541 C 0.25369 0.38850 0.88189
 N3542 N 0.25804 0.40953 0.88361
 N3543 N 0.27483 0.41615 0.89543
 C3544 C 0.28782 0.40198 0.90604
 N3545 N 0.28350 0.38097 0.90425
 N3546 N 0.26675 0.37437 0.89245
 C3547 C 0.30660 0.40889 0.91896
 C3548 C 0.31262 0.43012 0.92020
 H3549 H 0.22405 0.39297 0.86200
 H3550 H 0.31660 0.39675 0.92653
 H3551 H 0.23906 0.34864 0.87818
 H3552 H 0.30310 0.44187 0.91145
   
