data_POSCAR
  _audit_creation_date              2014-09-24
  _audit_creation_method            'ToBaCCo'
  _symmetry_space_group_name_H-M    'P1'
  _symmetry_Int_Tables_number       1
  _symmetry_cell_setting            triclinic
  loop_
  _symmetry_equiv_pos_as_xyz
 x,y,z
_cell_length_a 79.0514
_cell_length_b 75.2146
_cell_length_c 73.3988
_cell_angle_alpha 90.788000
_cell_angle_beta 88.675700
_cell_angle_gamma 90.838400
loop_
  _atom_site_label
  _atom_site_type_symbol
  _atom_site_fract_x
  _atom_site_fract_y
  _atom_site_fract_z
N1 N 0.35355 0.30259 0.33009
 N2 N 0.35967 0.31684 0.32202
 C3 C 0.37583 0.31396 0.31671
 C4 C 0.38006 0.29693 0.32181
 C5 C 0.36554 0.29011 0.33020
 H6 H 0.38385 0.32354 0.30968
 H7 H 0.36366 0.27698 0.33578
 Cu8 Cu 0.34559 0.33740 0.31872
 Cu9 Cu 0.33034 0.30111 0.33933
 Cu10 Cu 0.30969 0.34132 0.34367
 N11 N 0.32824 0.35403 0.31229
 N12 N 0.31424 0.35587 0.32211
 C13 C 0.30464 0.36828 0.31445
 C14 C 0.31306 0.37442 0.29888
 C15 C 0.32802 0.36504 0.29806
 H16 H 0.29234 0.37222 0.31968
 H17 H 0.33810 0.36605 0.28792
 N18 N 0.30304 0.32024 0.35800
 N19 N 0.31027 0.30470 0.35524
 C20 C 0.30295 0.29270 0.36637
 C21 C 0.29057 0.30102 0.37681
 C22 C 0.29098 0.31856 0.37122
 H23 H 0.30692 0.27906 0.36745
 H24 H 0.28310 0.32925 0.37632
 H25 H 0.31892 0.32242 0.32701
 H26 H 0.33229 0.32714 0.34716
 N27 N 0.36364 0.81006 -0.19262
 N28 N 0.36528 0.82559 -0.20044
 C29 C 0.38095 0.82731 -0.20767
 C30 C 0.38967 0.81180 -0.20465
 C31 C 0.37814 0.80105 -0.19510
 H32 H 0.38527 0.83870 -0.21538
 H33 H 0.38013 0.78781 -0.19008
 Cu34 Cu 0.34623 0.84115 -0.20251
 Cu35 Cu 0.34256 0.80336 -0.17993
 Cu36 Cu 0.31695 0.83970 -0.16897
 N37 N 0.32768 0.85750 -0.20161
 N38 N 0.31624 0.85750 -0.18835
 C39 C 0.30558 0.87110 -0.19090
 C40 C 0.31059 0.87990 -0.20682
 C41 C 0.32465 0.87067 -0.21313
 H42 H 0.29507 0.87427 -0.18182
 H43 H 0.33251 0.87342 -0.22499
 N44 N 0.31590 0.81698 -0.15548
 N45 N 0.32503 0.80307 -0.16044
 C46 C 0.32136 0.78954 -0.14921
 C47 C 0.30943 0.79509 -0.13640
 C48 C 0.30624 0.81260 -0.14074
 H49 H 0.32743 0.77675 -0.14993
 H50 H 0.29745 0.82141 -0.13380
 H51 H 0.32477 0.82197 -0.18811
 H52 H 0.34144 0.82939 -0.17204
 N53 N 0.86286 0.32414 -0.16894
 N54 N 0.86308 0.33995 -0.17640
 C55 C 0.87738 0.34196 -0.18647
 C56 C 0.88671 0.32661 -0.18538
 C57 C 0.87707 0.31554 -0.17412
 H58 H 0.88045 0.35356 -0.19449
 H59 H 0.88014 0.30225 -0.16999
 Cu60 Cu 0.84443 0.35635 -0.17367
 Cu61 Cu 0.84409 0.31593 -0.15311
 Cu62 Cu 0.81064 0.34485 -0.14856
 N63 N 0.82280 0.36802 -0.17653
 N64 N 0.80948 0.36260 -0.16709
 C65 C 0.79603 0.37213 -0.17143
 C66 C 0.80103 0.38448 -0.18438
 C67 C 0.81827 0.38154 -0.18722
 H68 H 0.78370 0.37045 -0.16499
 H69 H 0.82683 0.38845 -0.19650
 N70 N 0.81101 0.32208 -0.13646
 N71 N 0.82365 0.31082 -0.13766
 C72 C 0.81956 0.29650 -0.12738
 C73 C 0.80342 0.29894 -0.11993
 C74 C 0.79855 0.31526 -0.12597
 H75 H 0.82753 0.28510 -0.12567
 H76 H 0.78673 0.32180 -0.12277
 H77 H 0.82660 0.33082 -0.16616
 H78 H 0.83687 0.34047 -0.14553
 N79 N 0.86887 0.81877 0.30711
 N80 N 0.86774 0.83196 0.29573
 C81 C 0.87867 0.82953 0.28167
 C82 C 0.88730 0.81391 0.28436
 C83 C 0.88072 0.80745 0.30074
 H84 H 0.88031 0.83867 0.27052
 H85 H 0.88429 0.79552 0.30765
 Cu86 Cu 0.85230 0.85115 0.30054
 Cu87 Cu 0.85524 0.81805 0.32958
 Cu88 Cu 0.82085 0.84677 0.33175
 N89 N 0.83255 0.86576 0.30015
 N90 N 0.82042 0.86476 0.31264
 C91 C 0.80825 0.87638 0.30856
 C92 C 0.81291 0.88471 0.29231
 C93 C 0.82846 0.87755 0.28753
 H94 H 0.79655 0.87794 0.31629
 H95 H 0.83641 0.88064 0.27580
 N96 N 0.82406 0.82742 0.34943
 N97 N 0.83696 0.81643 0.34818
 C98 C 0.83500 0.80384 0.36087
 C99 C 0.82025 0.80700 0.37074
 C100 C 0.81367 0.82214 0.36324
 H101 H 0.84351 0.79290 0.36259
 H102 H 0.80178 0.82828 0.36699
 H103 H 0.83526 0.82900 0.31642
 H104 H 0.84645 0.84403 0.33264
 N105 N 0.62946 0.69376 0.32179
 N106 N 0.62713 0.68167 0.30898
 C107 C 0.61460 0.68707 0.29816
 C108 C 0.60904 0.70350 0.30459
 C109 C 0.61869 0.70712 0.31966
 H110 H 0.61033 0.67998 0.28616
 H111 H 0.61821 0.71888 0.32826
 Cu112 Cu 0.64169 0.66082 0.30753
 Cu113 Cu 0.64747 0.69284 0.33911
 Cu114 Cu 0.67480 0.65752 0.33591
 N115 N 0.65743 0.64102 0.30583
 N116 N 0.67032 0.63996 0.31674
 C117 C 0.67917 0.62527 0.31245
 C118 C 0.67139 0.61652 0.29812
 C119 C 0.65761 0.62692 0.29428
 H120 H 0.69028 0.62111 0.31946
 H121 H 0.64849 0.62448 0.28376
 N122 N 0.67705 0.67672 0.35441
 N123 N 0.66637 0.69003 0.35551
 C124 C 0.67180 0.70191 0.36794
 C125 C 0.68659 0.69593 0.37509
 C126 C 0.68955 0.67978 0.36638
 H127 H 0.66592 0.71453 0.37099
 H128 H 0.70055 0.67157 0.36776
 H129 H 0.66394 0.67800 0.32247
 H130 H 0.65028 0.66527 0.33901
 N131 N 0.63668 0.18693 -0.16184
 N132 N 0.63956 0.17746 -0.17677
 C133 C 0.62962 0.18342 -0.19005
 C134 C 0.62031 0.19750 -0.18295
 C135 C 0.62508 0.19927 -0.16507
 H136 H 0.62979 0.17854 -0.20398
 H137 H 0.62079 0.20918 -0.15526
 Cu138 Cu 0.65717 0.15938 -0.17735
 Cu139 Cu 0.64899 0.18355 -0.13956
 Cu140 Cu 0.68919 0.16878 -0.14909
 N141 N 0.67770 0.14517 -0.17765
 N142 N 0.69030 0.14963 -0.16706
 C143 C 0.70314 0.13846 -0.17005
 C144 C 0.69841 0.12587 -0.18303
 C145 C 0.68206 0.13062 -0.18757
 H146 H 0.71473 0.13918 -0.16256
 H147 H 0.67396 0.12411 -0.19736
 N148 N 0.68305 0.18164 -0.12641
 N149 N 0.66743 0.18641 -0.12242
 C150 C 0.66690 0.19407 -0.10579
 C151 C 0.68307 0.19414 -0.09883
 C152 C 0.69298 0.18610 -0.11235
 H153 H 0.65558 0.19951 -0.09953
 H154 H 0.70637 0.18347 -0.11199
 H155 H 0.66850 0.18288 -0.15757
 H156 H 0.66471 0.16154 -0.14530
 N157 N 0.13925 0.69783 -0.19398
 N158 N 0.13498 0.68302 -0.20247
 C159 C 0.12264 0.68648 -0.21427
 C160 C 0.11901 0.70450 -0.21306
 C161 C 0.12986 0.71117 -0.19999
 H162 H 0.11670 0.67660 -0.22295
 H163 H 0.13054 0.72462 -0.19472
 Cu164 Cu 0.14602 0.66079 -0.19694
 Cu165 Cu 0.15559 0.69874 -0.17465
 Cu166 Cu 0.17588 0.65971 -0.16483
 N167 N 0.16213 0.64149 -0.19589
 N168 N 0.17403 0.64128 -0.18366
 C169 C 0.18327 0.62650 -0.18615
 C170 C 0.17677 0.61688 -0.20069
 C171 C 0.16336 0.62682 -0.20652
 H172 H 0.19370 0.62285 -0.17775
 H173 H 0.15516 0.62369 -0.21774
 N174 N 0.17976 0.68215 -0.15114
 N175 N 0.17232 0.69707 -0.15539
 C176 C 0.17737 0.71007 -0.14393
 C177 C 0.18856 0.70313 -0.13181
 C178 C 0.18977 0.68531 -0.13675
 H179 H 0.17283 0.72354 -0.14407
 H180 H 0.19742 0.67543 -0.13044
 H181 H 0.16977 0.67729 -0.18426
 H182 H 0.15298 0.67273 -0.16659
 N183 N 0.12507 0.17344 0.33946
 N184 N 0.12754 0.15861 0.33014
 C185 C 0.11525 0.15666 0.31781
 C186 C 0.10461 0.17111 0.31944
 C187 C 0.11128 0.18148 0.33330
 H188 H 0.11421 0.14568 0.30823
 H189 H 0.10624 0.19377 0.33877
 Cu190 Cu 0.14671 0.14331 0.33468
 Cu191 Cu 0.13932 0.18097 0.35941
 Cu192 Cu 0.17532 0.15686 0.36540
 N193 N 0.16787 0.13071 0.33789
 N194 N 0.17892 0.13598 0.35000
 C195 C 0.19266 0.12569 0.34858
 C196 C 0.19022 0.11325 0.33476
 C197 C 0.17426 0.11680 0.32834
 H198 H 0.20379 0.12747 0.35671
 H199 H 0.16807 0.11028 0.31703
 N200 N 0.16888 0.17675 0.38165
 N201 N 0.15534 0.18632 0.37893
 C202 C 0.15478 0.19970 0.39129
 C203 C 0.16856 0.19842 0.40244
 C204 C 0.17719 0.18366 0.39599
 H205 H 0.14512 0.20972 0.39209
 H206 H 0.18900 0.17876 0.40094
 H207 H 0.16002 0.17005 0.34692
 H208 H 0.14893 0.15648 0.36498
 N209 N 0.64007 0.31638 0.67117
 N210 N 0.64061 0.32629 0.68604
 C211 C 0.62639 0.32324 0.69613
 C212 C 0.61649 0.31073 0.68696
 C213 C 0.62551 0.30706 0.67103
 H214 H 0.62398 0.32880 0.70959
 H215 H 0.62242 0.29737 0.66057
 Cu216 Cu 0.66073 0.34076 0.69104
 Cu217 Cu 0.65946 0.31307 0.65487
 Cu218 Cu 0.69740 0.32510 0.67392
 N219 N 0.68178 0.35453 0.69291
 N220 N 0.69608 0.34784 0.68669
 C221 C 0.70872 0.35955 0.68945
 C222 C 0.70210 0.37471 0.69762
 C223 C 0.68488 0.37099 0.69972
 H224 H 0.72170 0.35718 0.68530
 H225 H 0.67527 0.37966 0.70542
 N226 N 0.69573 0.30797 0.65364
 N227 N 0.68120 0.30367 0.64615
 C228 C 0.68399 0.29176 0.63264
 C229 C 0.70115 0.28870 0.63141
 C230 C 0.70828 0.29929 0.64478
 H231 H 0.67430 0.28593 0.62417
 H232 H 0.72158 0.30063 0.64778
 H233 H 0.67312 0.31384 0.67786
 H234 H 0.67615 0.33348 0.66276
 N235 N 0.63430 0.81919 1.17255
 N236 N 0.63645 0.83300 1.18349
 C237 C 0.62313 0.83427 1.19506
 C238 C 0.61191 0.82051 1.19133
 C239 C 0.61948 0.81104 1.17702
 H240 H 0.62171 0.84461 1.20535
 H241 H 0.61433 0.79954 1.16995
 Cu242 Cu 0.65602 0.84870 1.18161
 Cu243 Cu 0.65083 0.81412 1.15281
 Cu244 Cu 0.67022 0.85351 1.13902
 N245 N 0.67171 0.86775 1.17522
 N246 N 0.67697 0.86990 1.15829
 C247 C 0.68707 0.88440 1.15735
 C248 C 0.68838 0.89168 1.17473
 C249 C 0.67838 0.88071 1.18573
 H250 H 0.69315 0.88904 1.14492
 H251 H 0.67587 0.88213 1.20021
 N252 N 0.66974 0.83176 1.12376
 N253 N 0.66349 0.81634 1.12937
 C254 C 0.66944 0.80333 1.11823
 C255 C 0.67982 0.81103 1.10496
 C256 C 0.67962 0.82899 1.10891
 H257 H 0.66797 0.78926 1.12082
 H258 H 0.68800 0.83895 1.10297
 H259 H 0.67065 0.83290 1.15697
 H260 H 0.64930 0.84034 1.15021
 N261 N 0.15454 0.27741 1.19195
 N262 N 0.15038 0.29162 1.20153
 C263 C 0.13642 0.28791 1.21173
 C264 C 0.13161 0.27038 1.20833
 C265 C 0.14348 0.26418 1.19572
 H266 H 0.13003 0.29739 1.22060
 H267 H 0.14358 0.25132 1.18898
 Cu268 Cu 0.16301 0.31387 1.19873
 Cu269 Cu 0.17239 0.27781 1.17345
 Cu270 Cu 0.19960 0.31415 1.17375
 N271 N 0.17955 0.33314 1.20054
 N272 N 0.19375 0.33324 1.19087
 C273 C 0.20270 0.34806 1.19498
 C274 C 0.19366 0.35780 1.20800
 C275 C 0.17901 0.34785 1.21116
 H276 H 0.21495 0.35136 1.18901
 H277 H 0.16865 0.35102 1.22045
 N278 N 0.20303 0.29326 1.15753
 N279 N 0.19296 0.27912 1.15808
 C280 C 0.19837 0.26712 1.14562
 C281 C 0.21237 0.27410 1.13653
 C282 C 0.21497 0.29074 1.14436
 H283 H 0.19209 0.25459 1.14266
 H284 H 0.22466 0.30036 1.14055
 H285 H 0.18658 0.29538 1.18897
 H286 H 0.17564 0.30512 1.16921
 N287 N 0.14086 0.81742 0.66682
 N288 N 0.14090 0.82566 0.68273
 C289 C 0.12564 0.82385 0.69092
 C290 C 0.11549 0.81369 0.67972
 C291 C 0.12553 0.80967 0.66454
 H292 H 0.12208 0.82972 0.70397
 H293 H 0.12169 0.80247 0.65243
 Cu294 Cu 0.16049 0.83858 0.69122
 Cu295 Cu 0.16017 0.81944 0.64969
 Cu296 Cu 0.19206 0.84932 0.66230
 N297 N 0.17651 0.85721 0.69716
 N298 N 0.18888 0.86164 0.68580
 C299 C 0.19768 0.87537 0.69307
 C300 C 0.19034 0.87980 0.70991
 C301 C 0.17691 0.86789 0.71195
 H302 H 0.20842 0.88179 0.68642
 H303 H 0.16779 0.86721 0.72312
 N304 N 0.19278 0.83538 0.63925
 N305 N 0.18079 0.82392 0.63450
 C306 C 0.18522 0.81631 0.61838
 C307 C 0.20078 0.82325 0.61270
 C308 C 0.20513 0.83531 0.62631
 H309 H 0.17782 0.80620 0.61148
 H310 H 0.21651 0.84340 0.62684
 H311 H 0.17913 0.82574 0.66778
 H312 H 0.16642 0.84450 0.65932
 N313 N 0.35385 0.69619 0.67261
 N314 N 0.35373 0.68482 0.68611
 C315 C 0.36708 0.68858 0.69679
 C316 C 0.37578 0.70319 0.68964
 C317 C 0.36704 0.70748 0.67429
 H318 H 0.36986 0.68176 0.70923
 H319 H 0.36987 0.71832 0.66515
 Cu320 Cu 0.33503 0.66741 0.68873
 Cu321 Cu 0.33632 0.69719 0.65452
 Cu322 Cu 0.30371 0.66659 0.65859
 N323 N 0.31662 0.64949 0.69026
 N324 N 0.30470 0.64958 0.67805
 C325 C 0.29309 0.63700 0.68192
 C326 C 0.29757 0.62845 0.69754
 C327 C 0.31278 0.63658 0.70246
 H328 H 0.28197 0.63438 0.67396
 H329 H 0.32011 0.63372 0.71430
 N330 N 0.30463 0.68469 0.63966
 N331 N 0.31730 0.69614 0.63761
 C332 C 0.31381 0.70720 0.62389
 C333 C 0.29806 0.70258 0.61732
 C334 C 0.29267 0.68827 0.62758
 H335 H 0.32163 0.71838 0.61967
 H336 H 0.28068 0.68128 0.62655
 H337 H 0.31743 0.68692 0.67108
 H338 H 0.32963 0.67086 0.65643
 N339 N 0.36222 0.19863 1.17905
 N340 N 0.36398 0.18580 1.19080
 C341 C 0.37652 0.19023 1.20217
 C342 C 0.38293 0.20680 1.19732
 C343 C 0.37347 0.21172 1.18260
 H344 H 0.38052 0.18208 1.21326
 H345 H 0.37484 0.22373 1.17476
 Cu346 Cu 0.34939 0.16479 1.19053
 Cu347 Cu 0.34558 0.19745 1.15990
 Cu348 Cu 0.32705 0.15609 1.15326
 N349 N 0.33098 0.14731 1.19078
 N350 N 0.32187 0.14444 1.17624
 C351 C 0.30944 0.13265 1.18019
 C352 C 0.31094 0.12774 1.19812
 C353 C 0.32481 0.13717 1.20447
 H354 H 0.30000 0.12801 1.17073
 H355 H 0.32965 0.13710 1.21813
 N356 N 0.32748 0.17446 1.13464
 N357 N 0.33364 0.19062 1.13748
 C358 C 0.33127 0.20038 1.12251
 C359 C 0.32337 0.18971 1.10963
 C360 C 0.32118 0.17337 1.11782
 H361 H 0.33534 0.21408 1.12094
 H362 H 0.31506 0.16166 1.11215
 H363 H 0.32936 0.17759 1.16973
 H364 H 0.34954 0.17095 1.15793
 N365 N 0.86128 0.67754 1.17703
 N366 N 0.86024 0.66357 1.18774
 C367 C 0.87233 0.66488 1.20027
 C368 C 0.88158 0.68039 1.19743
 C369 C 0.87421 0.68808 1.18252
 H370 H 0.87431 0.65506 1.21057
 H371 H 0.87796 0.70043 1.17614
 Cu372 Cu 0.84332 0.64429 1.18517
 Cu373 Cu 0.84581 0.68091 1.15643
 Cu374 Cu 0.81850 0.64706 1.14950
 N375 N 0.82240 0.63034 1.18361
 N376 N 0.81274 0.63141 1.16938
 C377 C 0.79911 0.62075 1.17166
 C378 C 0.80024 0.61241 1.18827
 C379 C 0.81531 0.61873 1.19545
 H380 H 0.78916 0.61923 1.16187
 H381 H 0.82058 0.61542 1.20842
 N382 N 0.81881 0.66769 1.13426
 N383 N 0.82925 0.68120 1.13687
 C384 C 0.82529 0.69434 1.12539
 C385 C 0.81144 0.68869 1.11544
 C386 C 0.80778 0.67173 1.12140
 H387 H 0.83126 0.70736 1.12514
 H388 H 0.79732 0.66327 1.11732
 H389 H 0.83114 0.66489 1.17343
 H390 H 0.84753 0.65392 1.15875
 N391 N 0.85566 0.19322 0.68271
 N392 N 0.86013 0.18093 0.69415
 C393 C 0.87238 0.18767 0.70485
 C394 C 0.87559 0.20520 0.69990
 C395 C 0.86466 0.20819 0.68585
 H396 H 0.87849 0.18037 0.71539
 H397 H 0.86372 0.22012 0.67791
 Cu398 Cu 0.84909 0.15749 0.69378
 Cu399 Cu 0.83923 0.18879 0.66380
 Cu400 Cu 0.83290 0.14433 0.65386
 N401 N 0.83575 0.13546 0.69168
 N402 N 0.82985 0.13027 0.67583
 C403 C 0.81974 0.11595 0.67819
 C404 C 0.81914 0.11189 0.69647
 C405 C 0.82946 0.12455 0.70472
 H406 H 0.81216 0.10988 0.66763
 H407 H 0.83104 0.12660 0.71920
 N408 N 0.82833 0.16313 0.63644
 N409 N 0.82984 0.18015 0.64066
 C410 C 0.82442 0.18980 0.62671
 C411 C 0.81911 0.17827 0.61298
 C412 C 0.82186 0.16142 0.61971
 H413 H 0.82427 0.20416 0.62671
 H414 H 0.81888 0.14879 0.61327
 H415 H 0.82801 0.16464 0.67130
 H416 H 0.84998 0.16480 0.66141
 N417 N 0.32693 0.36221 0.68754
 N418 N 0.33955 0.36158 0.69887
 C419 C 0.33854 0.37549 0.71057
 C420 C 0.32454 0.38540 0.70637
 C421 C 0.31744 0.37649 0.69170
 H422 H 0.34743 0.37825 0.72127
 H423 H 0.30658 0.38049 0.68415
 Cu424 Cu 0.35659 0.34310 0.69709
 Cu425 Cu 0.32491 0.34549 0.66716
 Cu426 Cu 0.34929 0.30794 0.66939
 N427 N 0.36914 0.32108 0.69906
 N428 N 0.36574 0.30729 0.68853
 C429 C 0.37600 0.29390 0.69256
 C430 C 0.38652 0.29949 0.70637
 C431 C 0.38184 0.31691 0.71015
 H432 H 0.37615 0.28119 0.68551
 H433 H 0.38722 0.32583 0.72021
 N434 N 0.33211 0.31104 0.65084
 N435 N 0.32248 0.32517 0.65005
 C436 C 0.31263 0.32356 0.63530
 C437 C 0.31659 0.30781 0.62630
 C438 C 0.32892 0.30025 0.63655
 H439 H 0.30394 0.33351 0.63087
 H440 H 0.33541 0.28798 0.63349
 H441 H 0.33382 0.32599 0.68327
 H442 H 0.34906 0.33505 0.66577
 N443 N 0.30843 0.86268 0.16991
 N444 N 0.31617 0.86281 0.18557
 C445 C 0.31222 0.87779 0.19490
 C446 C 0.30147 0.88765 0.18450
 C447 C 0.29936 0.87761 0.16871
 H448 H 0.31714 0.88141 0.20808
 H449 H 0.29170 0.88085 0.15723
 Cu450 Cu 0.33119 0.84385 0.19227
 Cu451 Cu 0.31046 0.84299 0.15243
 Cu452 Cu 0.34145 0.81256 0.16091
 N453 N 0.35077 0.82878 0.19484
 N454 N 0.35504 0.81702 0.18222
 C455 C 0.36910 0.80868 0.18723
 C456 C 0.37386 0.81548 0.20398
 C457 C 0.36190 0.82821 0.20843
 H458 H 0.37515 0.79811 0.17950
 H459 H 0.36141 0.83654 0.22055
 N460 N 0.32634 0.81026 0.14012
 N461 N 0.31460 0.82196 0.13664
 C462 C 0.30609 0.81635 0.12186
 C463 C 0.31270 0.80026 0.11595
 C464 C 0.32553 0.79687 0.12784
 H465 H 0.29545 0.82310 0.11624
 H466 H 0.33356 0.78537 0.12769
 H467 H 0.31867 0.82379 0.16984
 H468 H 0.33510 0.83927 0.15973
 N469 N 0.83433 0.37235 0.18840
 N470 N 0.84222 0.36680 0.20279
 C471 C 0.83785 0.37716 0.21724
 C472 C 0.82669 0.38995 0.21150
 C473 C 0.82490 0.38647 0.19307
 H474 H 0.84231 0.37540 0.23090
 H475 H 0.81677 0.39319 0.18381
 Cu476 Cu 0.85721 0.34636 0.20096
 Cu477 Cu 0.83595 0.36032 0.16482
 Cu478 Cu 0.85141 0.31774 0.16626
 N479 N 0.87331 0.32734 0.19566
 N480 N 0.87090 0.31635 0.18184
 C481 C 0.88383 0.30501 0.18044
 C482 C 0.89506 0.30902 0.19410
 C483 C 0.88794 0.32321 0.20366
 H484 H 0.88506 0.29472 0.17007
 H485 H 0.89328 0.33034 0.21511
 N486 N 0.83732 0.32589 0.14650
 N487 N 0.83219 0.34243 0.14544
 C488 C 0.82327 0.34411 0.13019
 C489 C 0.82274 0.32778 0.12121
 C490 C 0.83183 0.31655 0.13199
 H491 H 0.81712 0.35618 0.12630
 H492 H 0.83444 0.30266 0.12942
 H493 H 0.83607 0.33733 0.17877
 H494 H 0.85671 0.34387 0.16776
 N495 N 0.81483 0.86153 0.68281
 N496 N 0.82419 0.85690 0.69646
 C497 C 0.82202 0.86863 0.71028
 C498 C 0.81064 0.88131 0.70502
 C499 C 0.80642 0.87642 0.68743
 H500 H 0.82794 0.86770 0.72336
 H501 H 0.79713 0.88257 0.67906
 Cu502 Cu 0.83723 0.83518 0.69557
 Cu503 Cu 0.81236 0.84617 0.66154
 Cu504 Cu 0.84191 0.81297 0.65536
 N505 N 0.85498 0.81801 0.69126
 N506 N 0.85728 0.80973 0.67552
 C507 C 0.87054 0.79873 0.67674
 C508 C 0.87671 0.80014 0.69425
 C509 C 0.86655 0.81255 0.70299
 H510 H 0.87501 0.78997 0.66592
 H511 H 0.86755 0.81738 0.71687
 N512 N 0.82484 0.81846 0.63697
 N513 N 0.81369 0.83122 0.63946
 C514 C 0.80255 0.83048 0.62593
 C515 C 0.80667 0.81648 0.61437
 C516 C 0.82101 0.80924 0.62166
 H517 H 0.79167 0.83893 0.62506
 H518 H 0.82735 0.79733 0.61695
 H519 H 0.82166 0.82183 0.67037
 H520 H 0.83753 0.83903 0.66281
 N521 N 0.67874 0.62700 0.66253
 N522 N 0.66511 0.62642 0.67308
 C523 C 0.66816 0.61667 0.68782
 C524 C 0.68453 0.61057 0.68625
 C525 C 0.69087 0.61721 0.66994
 H526 H 0.65911 0.61413 0.69878
 H527 H 0.70350 0.61559 0.66423
 Cu528 Cu 0.64466 0.63822 0.66644
 Cu529 Cu 0.67954 0.64141 0.64072
 Cu530 Cu 0.64858 0.67410 0.63985
 N531 N 0.62702 0.65546 0.66543
 N532 N 0.62867 0.67007 0.65590
 C533 C 0.61495 0.68024 0.65923
 C534 C 0.60420 0.67126 0.67134
 C535 C 0.61235 0.65564 0.67493
 H536 H 0.61292 0.69309 0.65329
 H537 H 0.60827 0.64547 0.68438
 N538 N 0.66969 0.67492 0.62460
 N539 N 0.68115 0.66232 0.62503
 C540 C 0.69437 0.66679 0.61418
 C541 C 0.69117 0.68290 0.60633
 C542 C 0.67533 0.68768 0.61306
 H543 H 0.70574 0.65906 0.61245
 H544 H 0.66877 0.69984 0.61032
 H545 H 0.66525 0.65968 0.65502
 H546 H 0.65424 0.64802 0.63605
 N547 N 0.69621 0.15499 0.19079
 N548 N 0.68236 0.14981 0.19953
 C549 C 0.68585 0.13572 0.20985
 C550 C 0.70287 0.13195 0.20746
 C551 C 0.70901 0.14446 0.19524
 H552 H 0.67669 0.12879 0.21844
 H553 H 0.72172 0.14557 0.18957
 Cu554 Cu 0.66112 0.16184 0.19628
 Cu555 Cu 0.69623 0.17409 0.17335
 Cu556 Cu 0.66283 0.20318 0.17873
 N557 N 0.64263 0.17823 0.19942
 N558 N 0.64350 0.19459 0.19336
 C559 C 0.62897 0.20290 0.19787
 C560 C 0.61844 0.19101 0.20712
 C561 C 0.62758 0.17552 0.20786
 H562 H 0.62607 0.21637 0.19419
 H563 H 0.62366 0.16320 0.21423
 N564 N 0.68352 0.20877 0.16407
 N565 N 0.69593 0.19735 0.16174
 C566 C 0.70741 0.20394 0.14977
 C567 C 0.70201 0.22031 0.14412
 C568 C 0.68685 0.22303 0.15355
 H569 H 0.71868 0.19710 0.14516
 H570 H 0.67840 0.23406 0.15201
 H571 H 0.68005 0.18709 0.19110
 H572 H 0.67044 0.17888 0.16951
 N573 N 0.18545 0.62871 0.16912
 N574 N 0.17091 0.62563 0.17762
 C575 C 0.17243 0.61199 0.18897
 C576 C 0.18887 0.60608 0.18782
 C577 C 0.19682 0.61687 0.17486
 H578 H 0.16239 0.60723 0.19798
 H579 H 0.21003 0.61672 0.17068
 Cu580 Cu 0.15191 0.64117 0.17590
 Cu581 Cu 0.18830 0.64900 0.15263
 Cu582 Cu 0.15528 0.67928 0.15381
 N583 N 0.13691 0.66052 0.18168
 N584 N 0.13833 0.67576 0.17325
 C585 C 0.12648 0.68687 0.18007
 C586 C 0.11730 0.67808 0.19367
 C587 C 0.12432 0.66136 0.19423
 H588 H 0.12478 0.70033 0.17555
 H589 H 0.12054 0.65050 0.20299
 N590 N 0.17580 0.68226 0.13833
 N591 N 0.18812 0.67056 0.13722
 C592 C 0.19971 0.67614 0.12466
 C593 C 0.19451 0.69223 0.11788
 C594 C 0.17937 0.69567 0.12689
 H595 H 0.21117 0.66919 0.12088
 H596 H 0.17135 0.70697 0.12492
 H597 H 0.17201 0.66459 0.16808
 H598 H 0.16332 0.65346 0.14740
 N599 N 0.18082 0.14316 0.69507
 N600 N 0.16537 0.14041 0.70150
 C601 C 0.16541 0.12724 0.71367
 C602 C 0.18178 0.12121 0.71493
 C603 C 0.19125 0.13157 0.70283
 H604 H 0.15429 0.12231 0.72092
 H605 H 0.20474 0.13096 0.70014
 Cu606 Cu 0.14650 0.15413 0.69355
 Cu607 Cu 0.18590 0.16197 0.67754
 Cu608 Cu 0.15340 0.19131 0.66958
 N609 N 0.12940 0.17208 0.69191
 N610 N 0.13209 0.18689 0.68294
 C611 C 0.11816 0.19700 0.68458
 C612 C 0.10613 0.18789 0.69506
 C613 C 0.11379 0.17217 0.69948
 H614 H 0.11683 0.20988 0.67846
 H615 H 0.10856 0.16169 0.70793
 N616 N 0.17591 0.19315 0.65740
 N617 N 0.18822 0.18194 0.66038
 C618 C 0.20158 0.18607 0.64946
 C619 C 0.19754 0.20055 0.63900
 C620 C 0.18114 0.20467 0.64446
 H621 H 0.21317 0.17865 0.64876
 H622 H 0.17342 0.21505 0.63916
 H623 H 0.16706 0.17788 0.68858
 H624 H 0.16201 0.16549 0.66706
 N625 N 0.31546 0.63041 0.30781
 N626 N 0.33023 0.62985 0.29929
 C627 C 0.32981 0.61732 0.28609
 C628 C 0.31387 0.60946 0.28628
 C629 C 0.30509 0.61808 0.30035
 H630 H 0.34041 0.61421 0.27710
 H631 H 0.29209 0.61576 0.30468
 Cu632 Cu 0.34847 0.64585 0.30570
 Cu633 Cu 0.31116 0.64739 0.32773
 Cu634 Cu 0.34147 0.68086 0.33368
 N635 N 0.36351 0.66623 0.30589
 N636 N 0.36102 0.68007 0.31670
 C637 C 0.37296 0.69258 0.31282
 C638 C 0.38317 0.68618 0.29861
 C639 C 0.37681 0.66943 0.29469
 H640 H 0.37362 0.70564 0.31914
 H641 H 0.38119 0.66041 0.28406
 N642 N 0.32066 0.67877 0.34920
 N643 N 0.30935 0.66584 0.34701
 C644 C 0.29739 0.66712 0.36027
 C645 C 0.30122 0.68157 0.37133
 C646 C 0.31602 0.68874 0.36385
 H647 H 0.28678 0.65802 0.36195
 H648 H 0.32323 0.69988 0.36919
 H649 H 0.32689 0.66648 0.31578
 H650 H 0.33586 0.65400 0.33511
 N651 N 0.30517 0.16030 0.80271
 N652 N 0.31827 0.15936 0.79141
 C653 C 0.31707 0.14448 0.78121
 C654 C 0.30236 0.13544 0.78626
 C655 C 0.29511 0.14590 0.80003
 H656 H 0.32651 0.14039 0.77120
 H657 H 0.28340 0.14331 0.80748
 Cu658 Cu 0.33627 0.17694 0.79144
 Cu659 Cu 0.30232 0.18045 0.81966
 Cu660 Cu 0.33307 0.21403 0.81628
 N661 N 0.35614 0.19092 0.79765
 N662 N 0.35484 0.20595 0.80683
 C663 C 0.37035 0.21333 0.80860
 C664 C 0.38201 0.20207 0.80035
 C665 C 0.37253 0.18798 0.79352
 H666 H 0.37293 0.22571 0.81574
 H667 H 0.37713 0.17658 0.78586
 N668 N 0.31310 0.21551 0.83258
 N669 N 0.30196 0.20244 0.83485
 C670 C 0.29139 0.20677 0.84886
 C671 C 0.29615 0.22337 0.85563
 C672 C 0.30990 0.22847 0.84488
 H673 H 0.28127 0.19830 0.85406
 H674 H 0.31783 0.24016 0.84672
 H675 H 0.31489 0.19788 0.80326
 H676 H 0.32764 0.18775 0.82136
 N677 N 0.83718 0.62375 0.83855
 N678 N 0.84991 0.61987 0.82744
 C679 C 0.84487 0.60759 0.81520
 C680 C 0.82808 0.60345 0.81882
 C681 C 0.82358 0.61382 0.83384
 H682 H 0.85242 0.60317 0.80356
 H683 H 0.81096 0.61539 0.83961
 Cu684 Cu 0.87054 0.63388 0.82711
 Cu685 Cu 0.83825 0.64414 0.85533
 Cu686 Cu 0.87424 0.67141 0.85136
 N687 N 0.88721 0.65176 0.82048
 N688 N 0.88875 0.66663 0.82993
 C689 C 0.90045 0.67715 0.82162
 C690 C 0.90622 0.66844 0.80595
 C691 C 0.89757 0.65235 0.80573
 H692 H 0.90376 0.69050 0.82606
 H693 H 0.89828 0.64208 0.79530
 N694 N 0.85528 0.67626 0.86866
 N695 N 0.84194 0.66560 0.87065
 C696 C 0.83117 0.67281 0.88306
 C697 C 0.83789 0.68889 0.88893
 C698 C 0.85317 0.69068 0.87952
 H699 H 0.81890 0.66729 0.88683
 H700 H 0.86193 0.70183 0.88026
 H701 H 0.85454 0.65888 0.83877
 H702 H 0.86411 0.64638 0.85755
 N703 N 0.79954 0.15148 0.31758
 N704 N 0.81347 0.14408 0.31126
 C705 C 0.81040 0.12667 0.30807
 C706 C 0.79357 0.12300 0.31265
 C707 C 0.78710 0.13917 0.31849
 H708 H 0.81973 0.11744 0.30283
 H709 H 0.77433 0.14195 0.32315
 Cu710 Cu 0.83397 0.15828 0.30751
 Cu711 Cu 0.79884 0.17639 0.32480
 Cu712 Cu 0.83816 0.19424 0.33473
 N713 N 0.85236 0.17536 0.30390
 N714 N 0.85448 0.18895 0.31512
 C715 C 0.86823 0.19840 0.30971
 C716 C 0.87486 0.19048 0.29404
 C717 C 0.86446 0.17588 0.29073
 H718 H 0.87262 0.21053 0.31624
 H719 H 0.86561 0.16635 0.27963
 N720 N 0.81703 0.20316 0.34586
 N721 N 0.80205 0.19722 0.34080
 C722 C 0.79000 0.20537 0.35083
 C723 C 0.79770 0.21692 0.36301
 C724 C 0.81491 0.21522 0.35942
 H725 H 0.77670 0.20186 0.35044
 H726 H 0.82514 0.22173 0.36656
 H727 H 0.82176 0.18720 0.31527
 H728 H 0.82180 0.17190 0.33506
 N729 N 0.67471 0.35971 0.33456
 N730 N 0.66774 0.35211 0.32031
 C731 C 0.67215 0.36134 0.30531
 C732 C 0.68232 0.37560 0.31054
 C733 C 0.68355 0.37421 0.32923
 H734 H 0.66827 0.35795 0.29166
 H735 H 0.69087 0.38265 0.33823
 Cu736 Cu 0.65352 0.33098 0.32298
 Cu737 Cu 0.67258 0.34958 0.35870
 Cu738 Cu 0.65779 0.30593 0.35993
 N739 N 0.63798 0.31140 0.32827
 N740 N 0.63994 0.30121 0.34246
 C741 C 0.62822 0.28804 0.34219
 C742 C 0.61821 0.29031 0.32717
 C743 C 0.62478 0.30530 0.31868
 H744 H 0.62696 0.27773 0.35229
 H745 H 0.62052 0.31108 0.30621
 N746 N 0.67108 0.31695 0.37961
 N747 N 0.67636 0.33368 0.37920
 C748 C 0.68665 0.33683 0.39324
 C749 C 0.68786 0.32138 0.40307
 C750 C 0.67768 0.30908 0.39416
 H751 H 0.69363 0.34911 0.39543
 H752 H 0.67627 0.29510 0.39721
 H753 H 0.67345 0.32488 0.34684
 H754 H 0.65227 0.33145 0.35626
 N755 N 0.67663 0.85698 0.82281
 N756 N 0.66407 0.85561 0.81141
 C757 C 0.66501 0.86933 0.79981
 C758 C 0.67883 0.87995 0.80424
 C759 C 0.68585 0.87172 0.81898
 H760 H 0.65646 0.87123 0.78874
 H761 H 0.69730 0.87569 0.82582
 Cu762 Cu 0.64813 0.83560 0.81201
 Cu763 Cu 0.68109 0.83860 0.84052
 Cu764 Cu 0.65398 0.80190 0.84029
 N765 N 0.63624 0.81289 0.80877
 N766 N 0.63894 0.79967 0.81980
 C767 C 0.62912 0.78568 0.81511
 C768 C 0.61963 0.79027 0.80030
 C769 C 0.62447 0.80773 0.79666
 H770 H 0.62859 0.77327 0.82236
 H771 H 0.61975 0.81607 0.78609
 N772 N 0.67317 0.80438 0.85674
 N773 N 0.68334 0.81844 0.85728
 C774 C 0.69542 0.81565 0.86959
 C775 C 0.69283 0.79890 0.87684
 C776 C 0.67863 0.79220 0.86839
 H777 H 0.70581 0.82469 0.87245
 H778 H 0.67288 0.77921 0.87034
 H779 H 0.67019 0.81815 0.82541
 H780 H 0.65685 0.82946 0.84322
 N781 N 0.18773 0.35575 0.82537
 N782 N 0.17766 0.35602 0.81135
 C783 C 0.18369 0.36829 0.79944
 C784 C 0.19840 0.37582 0.80643
 C785 C 0.20039 0.36758 0.82289
 H786 H 0.17816 0.37117 0.78649
 H787 H 0.21040 0.36999 0.83242
 Cu788 Cu 0.15848 0.33912 0.81023
 Cu789 Cu 0.18463 0.33991 0.84585
 Cu790 Cu 0.15062 0.31078 0.84459
 N791 N 0.13902 0.32255 0.80976
 N792 N 0.13643 0.31159 0.82342
 C793 C 0.12346 0.30058 0.81969
 C794 C 0.11743 0.30460 0.80280
 C795 C 0.12748 0.31879 0.79685
 H796 H 0.11897 0.29000 0.82846
 H797 H 0.12694 0.32523 0.78379
 N798 N 0.16637 0.31184 0.86491
 N799 N 0.17944 0.32289 0.86536
 C800 C 0.18840 0.31966 0.88032
 C801 C 0.18061 0.30585 0.88978
 C802 C 0.16665 0.30129 0.87955
 H803 H 0.19999 0.32655 0.88377
 H804 H 0.15763 0.29067 0.88220
 H805 H 0.17243 0.31989 0.83160
 H806 H 0.15886 0.33691 0.84329
 N807 N 0.18407 0.86040 0.31318
 N808 N 0.17093 0.86245 0.30280
 C809 C 0.17384 0.87618 0.29164
 C810 C 0.18964 0.88328 0.29517
 C811 C 0.19578 0.87304 0.30907
 H812 H 0.16518 0.88044 0.28142
 H813 H 0.20812 0.87417 0.31508
 Cu814 Cu 0.15170 0.84640 0.30353
 Cu815 Cu 0.18525 0.84031 0.32980
 Cu816 Cu 0.15399 0.80761 0.32484
 N817 N 0.13636 0.82701 0.29799
 N818 N 0.13715 0.81169 0.30625
 C819 C 0.12526 0.80059 0.29942
 C820 C 0.11672 0.80948 0.28602
 C821 C 0.12415 0.82624 0.28559
 H822 H 0.12321 0.78699 0.30362
 H823 H 0.12096 0.83714 0.27693
 N824 N 0.17214 0.80625 0.34284
 N825 N 0.18390 0.81873 0.34492
 C826 C 0.19414 0.81401 0.35842
 C827 C 0.18860 0.79776 0.36515
 C828 C 0.17461 0.79330 0.35492
 H829 H 0.20490 0.82178 0.36293
 H830 H 0.16662 0.78161 0.35635
 H831 H 0.17173 0.82420 0.31230
 H832 H 0.15978 0.83372 0.33233
 C833 C 0.25998 1.02519 0.25265
 C834 C 0.24905 1.02140 0.26764
 C835 C 0.24303 1.00394 0.27013
 C836 C 0.24778 0.99021 0.25797
 C837 C 0.25961 0.99382 0.24366
 C838 C 0.26555 1.01130 0.24120
 H839 H 0.27400 1.01426 0.22976
 H840 H 0.23409 1.00118 0.28119
 C841 C 0.25434 0.51902 0.74855
 C842 C 0.23961 0.51438 0.75896
 C843 C 0.23707 0.49672 0.76441
 C844 C 0.24884 0.48347 0.76000
 C845 C 0.26368 0.48811 0.74983
 C846 C 0.26627 0.50581 0.74438
 H847 H 0.27742 0.50914 0.73618
 H848 H 0.22590 0.49333 0.77256
 C849 C 0.75007 -0.01582 0.25501
 C850 C 0.74018 -0.01118 0.23998
 C851 C 0.73547 0.00655 0.23786
 C852 C 0.74038 0.01968 0.25038
 C853 C 0.74894 0.01479 0.26617
 C854 C 0.75379 -0.00285 0.26834
 H855 H 0.76128 -0.00625 0.27995
 H856 H 0.72855 0.01031 0.22596
 C857 C 0.75404 0.48623 0.76038
 C858 C 0.74318 0.48645 0.74542
 C859 C 0.73715 0.50263 0.73929
 C860 C 0.74276 0.51873 0.74712
 C861 C 0.75543 0.51857 0.76043
 C862 C 0.76049 0.50226 0.76742
 H863 H 0.76966 0.50199 0.77816
 H864 H 0.72817 0.50269 0.72836
 C865 C 0.26115 0.47206 0.23969
 C866 C 0.24341 0.47166 0.23765
 C867 C 0.23487 0.48766 0.23529
 C868 C 0.24363 0.50400 0.23498
 C869 C 0.26131 0.50439 0.23714
 C870 C 0.26991 0.48840 0.23914
 H871 H 0.28344 0.48876 0.24128
 H872 H 0.22129 0.48739 0.23348
 C873 C 0.75488 1.01678 0.75224
 C874 C 0.74154 1.01758 0.76540
 C875 C 0.73287 1.00193 0.77044
 C876 C 0.73831 0.98538 0.76370
 C877 C 0.75332 0.98444 0.75291
 C878 C 0.76110 1.00017 0.74665
 H879 H 0.77202 0.99948 0.73748
 H880 H 0.72198 1.00260 0.77965
 C881 C 0.74514 0.51398 0.24809
 C882 C 0.72940 0.51111 0.25728
 C883 C 0.72504 0.49397 0.26320
 C884 C 0.73612 0.47975 0.26052
 C885 C 0.75241 0.48290 0.25279
 C886 C 0.75665 0.49993 0.24643
 H887 H 0.76883 0.50212 0.23969
 H888 H 0.71269 0.49156 0.26949
 C889 C 0.25344 -0.01272 0.76609
 C890 C 0.23568 -0.01365 0.76468
 C891 C 0.22643 0.00213 0.76433
 C892 C 0.23464 0.01882 0.76430
 C893 C 0.25247 0.01970 0.76546
 C894 C 0.26161 0.00393 0.76653
 H895 H 0.27529 0.00461 0.76742
 H896 H 0.21283 0.00137 0.76273
 C897 C 0.25531 0.25086 1.01592
 C898 C 0.27044 0.24338 1.00876
 C899 C 0.27423 0.24482 0.99006
 C900 C 0.26295 0.25279 0.97832
 C901 C 0.24745 0.25937 0.98531
 C902 C 0.24403 0.25877 1.00410
 H903 H 0.23206 0.26370 1.00947
 H904 H 0.28586 0.23926 0.98450
 C905 C 0.24557 0.76699 0.50451
 C906 C 0.25480 0.75155 0.50814
 C907 C 0.25934 0.74003 0.49379
 C908 C 0.25386 0.74291 0.47605
 C909 C 0.24336 0.75756 0.47266
 C910 C 0.23979 0.76979 0.48687
 H911 H 0.23197 0.78118 0.48438
 H912 H 0.26662 0.72830 0.49658
 C913 C 0.26184 0.74937 -0.02430
 C914 C 0.24538 0.74178 -0.02334
 C915 C 0.23813 0.73738 -0.00635
 C916 C 0.24684 0.74100 0.00975
 C917 C 0.26306 0.74911 0.00879
 C918 C 0.27044 0.75321 -0.00821
 H919 H 0.28307 0.75901 -0.00893
 H920 H 0.22541 0.73181 -0.00559
 C921 C 0.24256 0.26674 0.49243
 C922 C 0.22767 0.25761 0.49820
 C923 C 0.22553 0.25283 0.51650
 C924 C 0.23789 0.25718 0.52936
 C925 C 0.25215 0.26762 0.52385
 C926 C 0.25431 0.27222 0.50544
 H927 H 0.26566 0.27938 0.50107
 H928 H 0.21451 0.24497 0.52055
 C929 C 0.75307 0.76170 1.01183
 C930 C 0.76608 0.74910 1.01349
 C931 C 0.77515 0.74351 0.99787
 C932 C 0.77064 0.74911 0.98054
 C933 C 0.75623 0.75982 0.97867
 C934 C 0.74799 0.76656 0.99440
 H935 H 0.73734 0.77532 0.99307
 H936 H 0.78558 0.73444 0.99916
 C937 C 0.75578 0.25138 0.52185
 C938 C 0.76660 0.23808 0.51462
 C939 C 0.76994 0.23740 0.49574
 C940 C 0.76283 0.24977 0.48411
 C941 C 0.75304 0.26375 0.49164
 C942 C 0.74953 0.26434 0.51036
 H943 H 0.74132 0.27460 0.51592
 H944 H 0.77773 0.22688 0.49001
 C945 C 0.75660 0.26012 -0.00730
 C946 C 0.74378 0.24856 -0.00021
 C947 C 0.74148 0.24734 0.01875
 C948 C 0.75061 0.25819 0.03078
 C949 C 0.76314 0.26997 0.02377
 C950 C 0.76626 0.27043 0.00488
 H951 H 0.77581 0.27957 -0.00046
 H952 H 0.73162 0.23860 0.02421
 C953 C 0.76364 0.75615 0.47552
 C954 C 0.74957 0.74431 0.47507
 C955 C 0.74270 0.73775 0.49150
 C956 C 0.74874 0.74399 0.50828
 C957 C 0.76095 0.75795 0.50854
 C958 C 0.76879 0.76338 0.49220
 H959 H 0.77882 0.77336 0.49245
 H960 H 0.73257 0.72789 0.49123
 C961 C 1.01223 0.22395 0.25805
 C962 C 1.01846 0.23652 0.24527
 C963 C 1.00703 0.24742 0.23643
 C964 C 0.98948 0.24536 0.23923
 C965 C 0.98331 0.23230 0.25147
 C966 C 0.99474 0.22214 0.26109
 H967 H 0.98996 0.21204 0.27037
 H968 H 1.01180 0.25699 0.22659
 C969 C 0.52303 0.25234 0.76872
 C970 C 0.52032 0.26329 0.75364
 C971 C 0.50379 0.26671 0.74835
 C972 C 0.48985 0.25851 0.75711
 C973 C 0.49256 0.24713 0.77199
 C974 C 0.50911 0.24454 0.77785
 H975 H 0.51121 0.23590 0.78926
 H976 H 0.50185 0.27456 0.73631
 C977 C -0.01692 0.27401 0.75337
 C978 C -0.02154 0.25990 0.74142
 C979 C -0.00893 0.24867 0.73436
 C980 C 0.00805 0.25071 0.73924
 C981 C 0.01268 0.26469 0.75138
 C982 C 0.00016 0.27636 0.75794
 H983 H 0.00358 0.28683 0.76753
 H984 H -0.01238 0.23812 0.72487
 C985 C 0.48574 0.25229 0.27476
 C986 C 0.48421 0.24369 0.25768
 C987 C 0.49833 0.23550 0.24955
 C988 C 0.51412 0.23620 0.25788
 C989 C 0.51592 0.24601 0.27430
 C990 C 0.50167 0.25379 0.28266
 H991 H 0.50284 0.26041 0.29580
 H992 H 0.49697 0.22833 0.23673
 C993 C 1.01742 0.74239 0.73013
 C994 C 1.01272 0.75620 0.71832
 C995 C 0.99551 0.75869 0.71482
 C996 C 0.98294 0.74775 0.72270
 C997 C 0.98778 0.73301 0.73301
 C998 C 1.00487 0.73056 0.73673
 H999 H 1.00830 0.71980 0.74554
 H1000 H 0.99183 0.76985 0.70668
 C1001 C 0.51091 0.75839 0.25561
 C1002 C 0.50861 0.77393 0.24521
 C1003 C 0.49216 0.77929 0.24135
 C1004 C 0.47806 0.76926 0.24708
 C1005 C 0.48038 0.75300 0.25590
 C1006 C 0.49672 0.74777 0.26030
 H1007 H 0.49831 0.73557 0.26772
 H1008 H 0.49028 0.79152 0.23406
 C1009 C -0.01426 0.75365 0.23860
 C1010 C -0.01469 0.73490 0.23742
 C1011 C 0.00054 0.72557 0.23717
 C1012 C 0.01618 0.73459 0.23787
 C1013 C 0.01659 0.75335 0.23923
 C1014 C 0.00136 0.76266 0.23936
 H1015 H 0.00162 0.77704 0.24076
 H1016 H 0.00024 0.71120 0.23584
 C1017 C 0.48857 0.75559 0.74777
 C1018 C 0.48365 0.74205 0.73533
 C1019 C 0.49589 0.73033 0.72844
 C1020 C 0.51294 0.73188 0.73341
 C1021 C 0.51788 0.74552 0.74580
 C1022 C 0.50555 0.75721 0.75273
 H1023 H 0.50909 0.76743 0.76255
 H1024 H 0.49221 0.72018 0.71860
 C1025 C 0.42311 0.28436 0.30248
 C1026 C 0.42626 0.26955 0.31256
 C1027 C 0.41512 0.26321 0.32594
 C1028 C 0.40003 0.27247 0.32902
 C1029 C 0.39635 0.28775 0.31874
 C1030 C 0.40821 0.29383 0.30537
 O1031 O 0.43515 0.28782 0.29006
 C1032 C 0.44612 0.27487 0.29234
 C1033 C 0.44125 0.26336 0.30596
 C1034 C 0.45058 0.24855 0.31034
 C1035 C 0.46545 0.24538 0.30012
 C1036 C 0.47063 0.25693 0.28589
 C1037 C 0.46097 0.27204 0.28209
 H1038 H 0.41787 0.25148 0.33365
 H1039 H 0.39129 0.26769 0.33946
 H1040 H 0.40577 0.30528 0.29711
 H1041 H 0.44642 0.23962 0.32103
 H1042 H 0.47281 0.23375 0.30300
 H1043 H 0.46474 0.28108 0.27136
 C1044 C 0.42832 0.78667 0.78218
 C1045 C 0.43834 0.80019 0.77532
 C1046 C 0.43323 0.81773 0.77512
 C1047 C 0.41702 0.82151 0.78207
 C1048 C 0.40622 0.80783 0.78926
 C1049 C 0.41226 0.79015 0.78956
 O1050 O 0.43522 0.77077 0.78007
 C1051 C 0.44991 0.77438 0.77170
 C1052 C 0.45247 0.79222 0.76859
 C1053 C 0.46675 0.79895 0.75950
 C1054 C 0.47883 0.78674 0.75316
 C1055 C 0.47628 0.76825 0.75579
 C1056 C 0.46173 0.76201 0.76544
 H1057 H 0.44133 0.82811 0.76949
 H1058 H 0.41309 0.83521 0.78186
 H1059 H 0.40451 0.77922 0.79457
 H1060 H 0.46840 0.81304 0.75712
 H1061 H 0.48992 0.79158 0.74572
 H1062 H 0.45952 0.74794 0.76759
 C1063 C -0.07615 0.30230 0.79292
 C1064 C -0.06672 0.31637 0.78624
 C1065 C -0.07156 0.33394 0.78865
 C1066 C -0.08680 0.33714 0.79821
 C1067 C -0.09690 0.32287 0.80517
 C1068 C -0.09134 0.30518 0.80256
 O1069 O -0.06939 0.28662 0.78892
 C1070 C -0.05540 0.29091 0.77950
 C1071 C -0.05318 0.30896 0.77750
 C1072 C -0.03944 0.31637 0.76798
 C1073 C -0.02753 0.30471 0.76018
 C1074 C -0.02961 0.28604 0.76191
 C1075 C -0.04370 0.27908 0.77188
 H1076 H -0.06391 0.34480 0.78327
 H1077 H -0.09065 0.35079 0.80020
 H1078 H -0.09873 0.29395 0.80750
 H1079 H -0.03799 0.33062 0.76656
 H1080 H -0.01679 0.31015 0.75258
 H1081 H -0.04549 0.26490 0.77359
 C1082 C -0.07624 0.78554 0.26761
 C1083 C -0.07212 0.79362 0.25138
 C1084 C -0.08098 0.80794 0.24490
 C1085 C -0.09455 0.81429 0.25567
 C1086 C -0.09894 0.80638 0.27266
 C1087 C -0.08966 0.79163 0.27853
 O1088 O -0.06588 0.77252 0.27160
 C1089 C -0.05494 0.77243 0.25763
 C1090 C -0.05817 0.78510 0.24487
 C1091 C -0.04776 0.78789 0.22959
 C1092 C -0.03339 0.77725 0.22746
 C1093 C -0.02988 0.76410 0.24043
 C1094 C -0.04086 0.76160 0.25566
 H1095 H -0.07745 0.81414 0.23212
 H1096 H -0.10144 0.82547 0.25071
 H1097 H -0.09242 0.78529 0.29142
 H1098 H -0.05044 0.79810 0.21986
 H1099 H -0.02492 0.77927 0.21584
 H1100 H -0.03821 0.75188 0.26592
 C1101 C 0.57094 0.72126 0.28044
 C1102 C 0.57229 0.73896 0.28520
 C1103 C 0.58547 0.74590 0.29533
 C1104 C 0.59768 0.73410 0.30110
 C1105 C 0.59651 0.71562 0.29687
 C1106 C 0.58304 0.70916 0.28605
 O1107 O 0.55705 0.71749 0.27114
 C1108 C 0.54953 0.73316 0.27013
 C1109 C 0.55838 0.74667 0.27859
 C1110 C 0.55255 0.76396 0.28008
 C1111 C 0.53692 0.76756 0.27247
 C1112 C 0.52762 0.75406 0.26320
 C1113 C 0.53400 0.73653 0.26216
 H1114 H 0.58623 0.75991 0.29886
 H1115 H 0.60801 0.73947 0.30896
 H1116 H 0.58170 0.69516 0.28270
 H1117 H 0.55961 0.77424 0.28719
 H1118 H 0.53193 0.78083 0.27405
 H1119 H 0.52705 0.72589 0.25548
 C1120 C 0.58343 0.21527 0.79158
 C1121 C 0.58609 0.23326 0.79408
 C1122 C 0.60004 0.24027 0.80301
 C1123 C 0.61156 0.22825 0.80995
 C1124 C 0.60910 0.20965 0.80763
 C1125 C 0.59500 0.20305 0.79799
 O1126 O 0.56870 0.21139 0.78401
 C1127 C 0.56194 0.22726 0.78172
 C1128 C 0.57212 0.24108 0.78757
 C1129 C 0.56719 0.25875 0.78729
 C1130 C 0.55107 0.26233 0.78076
 C1131 C 0.54030 0.24833 0.77474
 C1132 C 0.54584 0.23053 0.77520
 H1133 H 0.60169 0.25446 0.80511
 H1134 H 0.62226 0.23338 0.81745
 H1135 H 0.59261 0.18890 0.79652
 H1136 H 0.57532 0.26937 0.79224
 H1137 H 0.54677 0.27593 0.78080
 H1138 H 0.53774 0.21961 0.77088
 C1139 C 1.08049 0.71571 0.75953
 C1140 C 1.08029 0.73387 0.76191
 C1141 C 1.09254 0.74319 0.77151
 C1142 C 1.10546 0.73341 0.77918
 C1143 C 1.10586 0.71456 0.77741
 C1144 C 1.09323 0.70565 0.76715
 O1145 O 1.06727 0.70945 0.75045
 C1146 C 1.05853 0.72399 0.74715
 C1147 C 1.06595 0.73924 0.75396
 C1148 C 1.05846 0.75580 0.75319
 C1149 C 1.04260 0.75667 0.74515
 C1150 C 1.03475 0.74124 0.73756
 C1151 C 1.04291 0.72463 0.73865
 H1152 H 1.09206 0.75749 0.77322
 H1153 H 1.11500 0.74068 0.78666
 H1154 H 1.09296 0.69133 0.76559
 H1155 H 1.06436 0.76753 0.75911
 H1156 H 1.03624 0.76932 0.74527
 H1157 H 1.03708 0.71255 0.73342
 C1158 C 1.06884 0.19520 0.29771
 C1159 C 1.05987 0.18116 0.29033
 C1160 C 1.06500 0.16362 0.29164
 C1161 C 1.07991 0.16041 0.30106
 C1162 C 1.08923 0.17465 0.30906
 C1163 C 1.08355 0.19230 0.30728
 O1164 O 1.06210 0.21088 0.29454
 C1165 C 1.04853 0.20667 0.28500
 C1166 C 1.04652 0.18865 0.28213
 C1167 C 1.03317 0.18135 0.27238
 C1168 C 1.02157 0.19312 0.26507
 C1169 C 1.02364 0.21177 0.26745
 C1170 C 1.03720 0.21860 0.27778
 H1171 H 1.05780 0.15279 0.28562
 H1172 H 1.08400 0.14683 0.30236
 H1173 H 1.09047 0.20350 0.31299
 H1174 H 1.03185 0.16713 0.27028
 H1175 H 1.01130 0.18779 0.25705
 H1176 H 1.03906 0.23279 0.27976
 C1177 C 0.57769 0.29695 0.71501
 C1178 C 0.57395 0.28090 0.70676
 C1179 C 0.58316 0.27412 0.69203
 C1180 C 0.59691 0.28425 0.68550
 C1181 C 0.60130 0.30086 0.69377
 C1182 C 0.59145 0.30729 0.70878
 O1183 O 0.56730 0.30072 0.72900
 C1184 C 0.55687 0.28668 0.72955
 C1185 C 0.56051 0.27418 0.71623
 C1186 C 0.55161 0.25822 0.71446
 C1187 C 0.53836 0.25495 0.72698
 C1188 C 0.53429 0.26760 0.74078
 C1189 C 0.54355 0.28379 0.74206
 H1190 H 0.57998 0.26139 0.68587
 H1191 H 0.60428 0.27877 0.67426
 H1192 H 0.59441 0.31984 0.71543
 H1193 H 0.55483 0.24857 0.70391
 H1194 H 0.53126 0.24256 0.72603
 H1195 H 0.54059 0.29360 0.75254
 C1196 C 0.57191 0.79838 0.20996
 C1197 C 0.56421 0.81273 0.21828
 C1198 C 0.57119 0.82976 0.21804
 C1199 C 0.58682 0.83212 0.20896
 C1200 C 0.59515 0.81757 0.20029
 C1201 C 0.58745 0.80045 0.20067
 O1202 O 0.56317 0.78329 0.21207
 C1203 C 0.54968 0.78829 0.22191
 C1204 C 0.54972 0.80618 0.22601
 C1205 C 0.53687 0.81430 0.23617
 C1206 C 0.52337 0.80353 0.24237
 C1207 C 0.52303 0.78501 0.23844
 C1208 C 0.53640 0.77729 0.22802
 H1209 H 0.56486 0.84084 0.22468
 H1210 H 0.59232 0.84537 0.20862
 H1211 H 0.59352 0.78906 0.19432
 H1212 H 0.53723 0.82841 0.23924
 H1213 H 0.51326 0.80953 0.25042
 H1214 H 0.53638 0.76321 0.22475
 C1215 C 1.08749 0.26066 0.22704
 C1216 C 1.08645 0.24261 0.22398
 C1217 C 1.09984 0.23280 0.21681
 C1218 C 1.11485 0.24202 0.21231
 C1219 C 1.11619 0.26076 0.21486
 C1220 C 1.10232 0.27012 0.22266
 O1221 O 1.07312 0.26748 0.23351
 C1222 C 1.06279 0.25342 0.23446
 C1223 C 1.07035 0.23790 0.22872
 C1224 C 1.06169 0.22172 0.22775
 C1225 C 1.04456 0.22149 0.23306
 C1226 C 1.03655 0.23721 0.23953
 C1227 C 1.04579 0.25345 0.24004
 H1228 H 1.09869 0.21859 0.21454
 H1229 H 1.12533 0.23450 0.20665
 H1230 H 1.10276 0.28440 0.22464
 H1231 H 1.06784 0.20976 0.22283
 H1232 H 1.03747 0.20911 0.23205
 H1233 H 1.03990 0.26568 0.24464
 C1234 C 1.07464 0.78814 0.68716
 C1235 C 1.06443 0.80155 0.69375
 C1236 C 1.06992 0.81913 0.69524
 C1237 C 1.08670 0.82302 0.68999
 C1238 C 1.09749 0.80946 0.68316
 C1239 C 1.09129 0.79181 0.68140
 O1240 O 1.06737 0.77214 0.68835
 C1241 C 1.05228 0.77556 0.69584
 C1242 C 1.04984 0.79338 0.69929
 C1243 C 1.03536 0.79988 0.70798
 C1244 C 1.02293 0.78751 0.71355
 C1245 C 1.02528 0.76902 0.71057
 C1246 C 1.04007 0.76300 0.70128
 H1247 H 1.06176 0.82937 0.70083
 H1248 H 1.09142 0.83654 0.69152
 H1249 H 1.09946 0.78116 0.67674
 H1250 H 1.03386 0.81394 0.71077
 H1251 H 1.01179 0.79224 0.72086
 H1252 H 1.04224 0.74896 0.69898
 C1253 C 0.41729 0.71500 0.71221
 C1254 C 0.41865 0.73274 0.70798
 C1255 C 0.40635 0.74159 0.69859
 C1256 C 0.39214 0.73173 0.69310
 C1257 C 0.39042 0.71332 0.69699
 C1258 C 0.40310 0.70491 0.70700
 O1259 O 0.43079 0.70910 0.72063
 C1260 C 0.44083 0.72342 0.72168
 C1261 C 0.43395 0.73822 0.71414
 C1262 C 0.44247 0.75450 0.71315
 C1263 C 0.45878 0.75561 0.72024
 C1264 C 0.46617 0.74063 0.72829
 C1265 C 0.45705 0.72426 0.72891
 H1266 H 0.40775 0.75554 0.69537
 H1267 H 0.38251 0.73851 0.68571
 H1268 H 0.40225 0.69087 0.71000
 H1269 H 0.43686 0.76588 0.70689
 H1270 H 0.46576 0.76806 0.71924
 H1271 H 0.46248 0.71256 0.73476
 C1272 C 0.42193 0.21813 0.22425
 C1273 C 0.42392 0.23590 0.22051
 C1274 C 0.41291 0.24499 0.20959
 C1275 C 0.39933 0.23533 0.20216
 C1276 C 0.39702 0.21692 0.20573
 C1277 C 0.40851 0.20829 0.21707
 O1278 O 0.43404 0.21191 0.23455
 C1279 C 0.44389 0.22607 0.23735
 C1280 C 0.43825 0.24111 0.22906
 C1281 C 0.44691 0.25732 0.22979
 C1282 C 0.46203 0.25804 0.23944
 C1283 C 0.46798 0.24275 0.24820
 C1284 C 0.45884 0.22653 0.24709
 H1285 H 0.41476 0.25898 0.20679
 H1286 H 0.39065 0.24228 0.19369
 H1287 H 0.40733 0.19425 0.21993
 H1288 H 0.44234 0.26891 0.22297
 H1289 H 0.46924 0.27038 0.23992
 H1290 H 0.46334 0.21464 0.25346
 C1291 C -0.07896 0.70600 0.21123
 C1292 C -0.07521 0.69751 0.22708
 C1293 C -0.08517 0.68380 0.23418
 C1294 C -0.09952 0.67851 0.22448
 C1295 C -0.10362 0.68684 0.20790
 C1296 C -0.09317 0.70095 0.20133
 O1297 O -0.06761 0.71844 0.20664
 C1298 C -0.05646 0.71772 0.21986
 C1299 C -0.06051 0.70511 0.23269
 C1300 C -0.05026 0.70168 0.24737
 C1301 C -0.03519 0.71165 0.24884
 C1302 C -0.03080 0.72479 0.23584
 C1303 C -0.04162 0.72789 0.22116
 H1304 H -0.08195 0.67731 0.24667
 H1305 H -0.10732 0.66787 0.23000
 H1306 H -0.09573 0.70755 0.18871
 H1307 H -0.05365 0.69158 0.25720
 H1308 H -0.02694 0.70921 0.26008
 H1309 H -0.03839 0.73767 0.21092
 C1310 C -0.08480 0.22398 0.72151
 C1311 C -0.08620 0.24171 0.71754
 C1312 C -0.09999 0.24841 0.70862
 C1313 C -0.11273 0.23633 0.70336
 C1314 C -0.11147 0.21787 0.70697
 C1315 C -0.09735 0.21172 0.71646
 O1316 O -0.07035 0.22024 0.72939
 C1317 C -0.06247 0.23592 0.73034
 C1318 C -0.07160 0.24952 0.72327
 C1319 C -0.06532 0.26686 0.72207
 C1320 C -0.04890 0.27030 0.72832
 C1321 C -0.03925 0.25650 0.73576
 C1322 C -0.04624 0.23909 0.73682
 H1323 H -0.10081 0.26240 0.70556
 H1324 H -0.12348 0.24142 0.69633
 H1325 H -0.09581 0.19775 0.71923
 H1326 H -0.07263 0.27728 0.71616
 H1327 H -0.04357 0.28357 0.72702
 H1328 H -0.03911 0.22825 0.74223
 C1329 C 0.28836 0.41108 0.27719
 C1330 C 0.29767 0.41352 0.26134
 C1331 C 0.31185 0.40357 0.25683
 C1332 C 0.31669 0.39062 0.26918
 C1333 C 0.30741 0.38787 0.28577
 C1334 C 0.29294 0.39828 0.28969
 O1335 O 0.27561 0.42230 0.27912
 C1336 C 0.27694 0.43203 0.26418
 C1337 C 0.29025 0.42720 0.25285
 C1338 C 0.29439 0.43613 0.23684
 C1339 C 0.28449 0.45073 0.23241
 C1340 C 0.27071 0.45593 0.24388
 C1341 C 0.26683 0.44636 0.25993
 H1342 H 0.31903 0.40578 0.24431
 H1343 H 0.32769 0.38282 0.26568
 H1344 H 0.28560 0.39677 0.30220
 H1345 H 0.30505 0.43221 0.22826
 H1346 H 0.28759 0.45810 0.22018
 H1347 H 0.25660 0.45034 0.26909
 C1348 C 0.28429 -0.08009 0.78553
 C1349 C 0.29157 -0.07424 0.76948
 C1350 C 0.30459 -0.08305 0.76047
 C1351 C 0.31058 -0.09849 0.76835
 C1352 C 0.30366 -0.10492 0.78520
 C1353 C 0.29007 -0.09552 0.79373
 O1354 O 0.27221 -0.06941 0.79194
 C1355 C 0.27199 -0.05657 0.77966
 C1356 C 0.28365 -0.05893 0.76568
 C1357 C 0.28607 -0.04686 0.75165
 C1358 C 0.27607 -0.03164 0.75204
 C1359 C 0.26385 -0.02890 0.76618
 C1360 C 0.26172 -0.04159 0.78017
 H1361 H 0.31006 -0.07815 0.74781
 H1362 H 0.32069 -0.10519 0.76107
 H1363 H 0.28437 -0.09972 0.80653
 H1364 H 0.29543 -0.04901 0.74089
 H1365 H 0.27769 -0.02201 0.74127
 H1366 H 0.25254 -0.03967 0.79118
 C1367 C 0.78694 0.42448 0.79107
 C1368 C 0.76976 0.42293 0.79398
 C1369 C 0.76220 0.40898 0.80339
 C1370 C 0.77279 0.39614 0.81036
 C1371 C 0.79070 0.39727 0.80777
 C1372 C 0.79779 0.41164 0.79763
 O1373 O 0.79145 0.43918 0.78223
 C1374 C 0.77675 0.44699 0.77953
 C1375 C 0.76312 0.43747 0.78641
 C1376 C 0.74653 0.44311 0.78534
 C1377 C 0.74384 0.45926 0.77673
 C1378 C 0.75763 0.46937 0.76949
 C1379 C 0.77436 0.46323 0.77099
 H1380 H 0.74862 0.40811 0.80547
 H1381 H 0.76676 0.38526 0.81759
 H1382 H 0.81130 0.41323 0.79543
 H1383 H 0.73605 0.43538 0.79095
 H1384 H 0.73102 0.46400 0.77576
 H1385 H 0.78506 0.47077 0.76555
 C1386 C 0.78262 -0.08007 0.28030
 C1387 C 0.78786 -0.07693 0.26264
 C1388 C 0.80089 -0.08612 0.25403
 C1389 C 0.80904 -0.09901 0.26404
 C1390 C 0.80400 -0.10271 0.28239
 C1391 C 0.79027 -0.09321 0.29046
 O1392 O 0.77087 -0.06879 0.28628
 C1393 C 0.76870 -0.05839 0.27204
 C1394 C 0.77874 -0.06296 0.25721
 C1395 C 0.77929 -0.05336 0.24118
 C1396 C 0.76924 -0.03824 0.24044
 C1397 C 0.75889 -0.03304 0.25558
 C1398 C 0.75855 -0.04335 0.27160
 H1399 H 0.80491 -0.08322 0.24017
 H1400 H 0.81916 -0.10615 0.25720
 H1401 H 0.78621 -0.09526 0.30446
 H1402 H 0.78756 -0.05708 0.22983
 H1403 H 0.77002 -0.03018 0.22834
 H1404 H 0.75104 -0.03944 0.28347
 C1405 C 0.28412 0.58681 0.72326
 C1406 C 0.26725 0.58618 0.71907
 C1407 C 0.25948 0.59933 0.70940
 C1408 C 0.26956 0.61356 0.70332
 C1409 C 0.28722 0.61434 0.70661
 C1410 C 0.29454 0.60093 0.71719
 O1411 O 0.28889 0.57254 0.73228
 C1412 C 0.27473 0.56276 0.73362
 C1413 C 0.26121 0.57052 0.72559
 C1414 C 0.24550 0.56219 0.72415
 C1415 C 0.24352 0.54518 0.73146
 C1416 C 0.25694 0.53706 0.74066
 C1417 C 0.27289 0.54597 0.74151
 H1418 H 0.24614 0.59855 0.70641
 H1419 H 0.26352 0.62385 0.69575
 H1420 H 0.30795 0.60104 0.71984
 H1421 H 0.23523 0.56838 0.71721
 H1422 H 0.23156 0.53825 0.72977
 H1423 H 0.28351 0.53998 0.74802
 C1424 C 0.29480 1.08899 0.22571
 C1425 C 0.27763 1.09158 0.22500
 C1426 C 0.27066 1.10587 0.21614
 C1427 C 0.28185 1.11791 0.20754
 C1428 C 0.29958 1.11562 0.20827
 C1429 C 0.30617 1.10111 0.21771
 O1430 O 0.29873 1.07374 0.23335
 C1431 C 0.28373 1.06657 0.23758
 C1432 C 0.27041 1.07705 0.23292
 C1433 C 0.25359 1.07178 0.23531
 C1434 C 0.25035 1.05490 0.24258
 C1435 C 0.26384 1.04368 0.24713
 C1436 C 0.28078 1.04966 0.24472
 H1437 H 0.25710 1.10739 0.21541
 H1438 H 0.27675 1.12893 0.20019
 H1439 H 0.31966 1.09887 0.21799
 H1440 H 0.24335 1.08016 0.23130
 H1441 H 0.23736 1.05027 0.24405
 H1442 H 0.29127 1.04119 0.24777
 C1443 C 0.78075 0.57564 0.21688
 C1444 C 0.76477 0.57472 0.20987
 C1445 C 0.75949 0.58591 0.19630
 C1446 C 0.77119 0.59848 0.18954
 C1447 C 0.78788 0.59962 0.19633
 C1448 C 0.79261 0.58810 0.21039
 O1449 O 0.78338 0.56328 0.22922
 C1450 C 0.76875 0.55437 0.22994
 C1451 C 0.75696 0.56086 0.21836
 C1452 C 0.74112 0.55300 0.21618
 C1453 C 0.73728 0.53775 0.22629
 C1454 C 0.74912 0.53083 0.23850
 C1455 C 0.76511 0.53932 0.24032
 H1456 H 0.74686 0.58486 0.19095
 H1457 H 0.76718 0.60727 0.17899
 H1458 H 0.80525 0.58841 0.21574
 H1459 H 0.73220 0.55816 0.20668
 H1460 H 0.72525 0.53104 0.22424
 H1461 H 0.77451 0.53416 0.24927
 C1462 C 0.79778 1.07446 0.72249
 C1463 C 0.78115 1.07775 0.71876
 C1464 C 0.77620 1.09210 0.70853
 C1465 C 0.78894 1.10344 0.70164
 C1466 C 0.80619 1.10041 0.70524
 C1467 C 0.81070 1.08584 0.71603
 O1468 O 0.79968 1.05958 0.73180
 C1469 C 0.78390 1.05342 0.73396
 C1470 C 0.77214 1.06414 0.72628
 C1471 C 0.75492 1.06018 0.72655
 C1472 C 0.74955 1.04453 0.73517
 C1473 C 0.76133 1.03319 0.74329
 C1474 C 0.77882 1.03765 0.74257
 H1475 H 0.76304 1.09428 0.70563
 H1476 H 0.78542 1.11453 0.69332
 H1477 H 0.82383 1.08310 0.71866
 H1478 H 0.74595 1.06878 0.72027
 H1479 H 0.73619 1.04113 0.73543
 H1480 H 0.78807 1.02918 0.74859
 C1481 C 0.69756 0.57714 0.28254
 C1482 C 0.68574 0.56729 0.27318
 C1483 C 0.66918 0.57285 0.27120
 C1484 C 0.66462 0.58921 0.27926
 C1485 C 0.67653 0.59956 0.28919
 C1486 C 0.69327 0.59336 0.29075
 O1487 O 0.71256 0.56946 0.28293
 C1488 C 0.71015 0.55438 0.27368
 C1489 C 0.69393 0.55237 0.26747
 C1490 C 0.68854 0.53732 0.25788
 C1491 C 0.70034 0.52380 0.25459
 C1492 C 0.71717 0.52563 0.26073
 C1493 C 0.72212 0.54119 0.27038
 H1494 H 0.66008 0.56485 0.26382
 H1495 H 0.65173 0.59358 0.27801
 H1496 H 0.70274 0.60090 0.29809
 H1497 H 0.67569 0.53597 0.25322
 H1498 H 0.69645 0.51194 0.24717
 H1499 H 0.73484 0.54282 0.27539
 C1500 C 0.71097 1.08302 0.79455
 C1501 C 0.72750 1.08233 0.79979
 C1502 C 0.73517 1.09554 0.81014
 C1503 C 0.72537 1.11008 0.81558
 C1504 C 0.70809 1.11133 0.81062
 C1505 C 0.70092 1.09754 0.79965
 O1506 O 0.70621 1.06881 0.78483
 C1507 C 0.72011 1.05902 0.78395
 C1508 C 0.73347 1.06681 0.79288
 C1509 C 0.74929 1.05914 0.79371
 C1510 C 0.75153 1.04277 0.78479
 C1511 C 0.73807 1.03443 0.77534
 C1512 C 0.72203 1.04255 0.77507
 H1513 H 0.74827 1.09467 0.81399
 H1514 H 0.73155 1.12034 0.82355
 H1515 H 0.68787 1.09775 0.79556
 H1516 H 0.75957 1.06558 0.80084
 H1517 H 0.76381 1.03658 0.78509
 H1518 H 0.71161 1.03646 0.76784
 C1519 C 0.20437 0.57775 0.78645
 C1520 C 0.19287 0.56689 0.77776
 C1521 C 0.17609 0.57157 0.77560
 C1522 C 0.17095 0.58811 0.78269
 C1523 C 0.18250 0.59951 0.79189
 C1524 C 0.19947 0.59415 0.79384
 O1525 O 0.21981 0.57099 0.78661
 C1526 C 0.21798 0.55552 0.77787
 C1527 C 0.20171 0.55234 0.77227
 C1528 C 0.19696 0.53696 0.76287
 C1529 C 0.20952 0.52439 0.75894
 C1530 C 0.22647 0.52751 0.76421
 C1531 C 0.23071 0.54325 0.77399
 H1532 H 0.16729 0.56284 0.76862
 H1533 H 0.15790 0.59189 0.78118
 H1534 H 0.20865 0.60261 0.80058
 H1535 H 0.18407 0.53475 0.75862
 H1536 H 0.20617 0.51241 0.75142
 H1537 H 0.24354 0.54590 0.77822
 C1538 C 0.20961 1.07429 0.30887
 C1539 C 0.22638 1.07666 0.31298
 C1540 C 0.23209 1.09035 0.32424
 C1541 C 0.22005 1.10215 0.33155
 C1542 C 0.20263 1.10018 0.32742
 C1543 C 0.19740 1.08593 0.31592
 O1544 O 0.20689 1.06058 0.29765
 C1545 C 0.22230 1.05421 0.29457
 C1546 C 0.23468 1.06362 0.30359
 C1547 C 0.25177 1.05965 0.30182
 C1548 C 0.25631 1.04548 0.29017
 C1549 C 0.24381 1.03559 0.28069
 C1550 C 0.22653 1.03990 0.28309
 H1551 H 0.24538 1.09200 0.32719
 H1552 H 0.22445 1.11300 0.34010
 H1553 H 0.18426 1.08395 0.31248
 H1554 H 0.26129 1.06736 0.30893
 H1555 H 0.26956 1.04227 0.28834
 H1556 H 0.21679 1.03271 0.27578
 C1557 C 0.71342 0.42065 0.71613
 C1558 C 0.73008 0.42189 0.71049
 C1559 C 0.73823 0.40854 0.70067
 C1560 C 0.72884 0.39319 0.69645
 C1561 C 0.71158 0.39133 0.70215
 C1562 C 0.70377 0.40542 0.71211
 O1563 O 0.70832 0.43482 0.72570
 C1564 C 0.72212 0.44514 0.72608
 C1565 C 0.73576 0.43775 0.71696
 C1566 C 0.75167 0.44580 0.71613
 C1567 C 0.75370 0.46211 0.72525
 C1568 C 0.73992 0.47000 0.73483
 C1569 C 0.72381 0.46155 0.73509
 H1570 H 0.75139 0.40985 0.69645
 H1571 H 0.73519 0.38286 0.68870
 H1572 H 0.69072 0.40452 0.71679
 H1573 H 0.76222 0.43959 0.70901
 H1574 H 0.76606 0.46852 0.72516
 H1575 H 0.71321 0.46726 0.74260
 C1576 C 0.70931 -0.07280 0.20376
 C1577 C 0.71635 -0.06203 0.19055
 C1578 C 0.71485 -0.06563 0.17204
 C1579 C 0.70569 -0.08095 0.16693
 C1580 C 0.69822 -0.09230 0.18030
 C1581 C 0.70018 -0.08808 0.19901
 O1582 O 0.71187 -0.06682 0.22057
 C1583 C 0.72071 -0.05192 0.21792
 C1584 C 0.72379 -0.04837 0.19979
 C1585 C 0.73243 -0.03319 0.19393
 C1586 C 0.73800 -0.02111 0.20730
 C1587 C 0.73489 -0.02445 0.22608
 C1588 C 0.72620 -0.04015 0.23143
 H1589 H 0.72041 -0.05688 0.16189
 H1590 H 0.70432 -0.08375 0.15256
 H1591 H 0.69477 -0.09633 0.20965
 H1592 H 0.73464 -0.03065 0.17958
 H1593 H 0.74471 -0.00914 0.20310
 H1594 H 0.72348 -0.04288 0.24565
 C1595 C 0.21680 0.40115 0.21811
 C1596 C 0.20704 0.40775 0.23232
 C1597 C 0.19295 0.39871 0.23934
 C1598 C 0.18871 0.38222 0.23136
 C1599 C 0.19851 0.37510 0.21656
 C1600 C 0.21283 0.38481 0.20996
 O1601 O 0.22947 0.41197 0.21322
 C1602 C 0.22765 0.42572 0.22459
 C1603 C 0.21411 0.42382 0.23656
 C1604 C 0.20964 0.43688 0.24931
 C1605 C 0.21950 0.45256 0.24968
 C1606 C 0.23353 0.45479 0.23750
 C1607 C 0.23766 0.44113 0.22480
 H1608 H 0.18543 0.40419 0.25052
 H1609 H 0.17779 0.37510 0.23679
 H1610 H 0.22057 0.38002 0.19865
 H1611 H 0.19887 0.43513 0.25851
 H1612 H 0.21624 0.46298 0.25941
 H1613 H 0.24813 0.44265 0.21514
 C1614 C 0.21219 -0.07952 0.72997
 C1615 C 0.20286 -0.07713 0.74584
 C1616 C 0.18962 -0.08846 0.75096
 C1617 C 0.18578 -0.10276 0.73920
 C1618 C 0.19508 -0.10546 0.72258
 C1619 C 0.20861 -0.09363 0.71808
 O1620 O 0.22395 -0.06700 0.72737
 C1621 C 0.22197 -0.05646 0.74188
 C1622 C 0.20922 -0.06203 0.75363
 C1623 C 0.20463 -0.05253 0.76935
 C1624 C 0.21354 -0.03662 0.77307
 C1625 C 0.22677 -0.03073 0.76118
 C1626 C 0.23101 -0.04081 0.74537
 H1627 H 0.18239 -0.08628 0.76347
 H1628 H 0.17542 -0.11153 0.74312
 H1629 H 0.21600 -0.09508 0.70559
 H1630 H 0.19443 -0.05707 0.77830
 H1631 H 0.21015 -0.02885 0.78510
 H1632 H 0.24080 -0.03636 0.73586
 C1633 C 0.26729 0.29319 0.42166
 C1634 C 0.26389 0.27525 0.42003
 C1635 C 0.26799 0.26537 0.40447
 C1636 C 0.27621 0.27424 0.39007
 C1637 C 0.28017 0.29267 0.39143
 C1638 C 0.27531 0.30237 0.40734
 O1639 O 0.26326 0.29976 0.43809
 C1640 C 0.25726 0.28563 0.44698
 C1641 C 0.25740 0.27035 0.43648
 C1642 C 0.25280 0.25379 0.44327
 C1643 C 0.24782 0.25291 0.46166
 C1644 C 0.24719 0.26847 0.47280
 C1645 C 0.25210 0.28509 0.46534
 H1646 H 0.26533 0.25123 0.40363
 H1647 H 0.27975 0.26667 0.37797
 H1648 H 0.27849 0.31635 0.40892
 H1649 H 0.25349 0.24188 0.43484
 H1650 H 0.24491 0.24001 0.46737
 H1651 H 0.25219 0.29709 0.47366
 C1652 C 0.29065 0.78142 -0.09062
 C1653 C 0.29020 0.76325 -0.09293
 C1654 C 0.29539 0.75481 -0.10900
 C1655 C 0.30147 0.76552 -0.12326
 C1656 C 0.30217 0.78432 -0.12131
 C1657 C 0.29651 0.79239 -0.10474
 O1658 O 0.28519 0.78667 -0.07416
 C1659 C 0.28122 0.77146 -0.06596
 C1660 C 0.28403 0.75676 -0.07692
 C1661 C 0.28055 0.73950 -0.07128
 C1662 C 0.27369 0.73728 -0.05367
 C1663 C 0.27050 0.75219 -0.04215
 C1664 C 0.27452 0.76954 -0.04828
 H1665 H 0.29487 0.74047 -0.11048
 H1666 H 0.30556 0.75910 -0.13586
 H1667 H 0.29704 0.80667 -0.10275
 H1668 H 0.28281 0.72817 -0.08020
 H1669 H 0.27058 0.72399 -0.04905
 H1670 H 0.27198 0.78111 -0.03977
 C1671 C 0.78910 0.27378 -0.07828
 C1672 C 0.77184 0.27456 -0.08024
 C1673 C 0.76445 0.28097 -0.09576
 C1674 C 0.77526 0.28751 -0.10954
 C1675 C 0.79308 0.28774 -0.10753
 C1676 C 0.80014 0.28015 -0.09197
 O1677 O 0.79340 0.26870 -0.06177
 C1678 C 0.77857 0.26645 -0.05314
 C1679 C 0.76500 0.27000 -0.06381
 C1680 C 0.74848 0.27066 -0.05696
 C1681 C 0.74580 0.26741 -0.03835
 C1682 C 0.75947 0.26296 -0.02714
 C1683 C 0.77612 0.26258 -0.03472
 H1684 H 0.75085 0.28168 -0.09686
 H1685 H 0.76970 0.29331 -0.12140
 H1686 H 0.81365 0.28072 -0.08982
 H1687 H 0.73810 0.27427 -0.06547
 H1688 H 0.73313 0.26867 -0.03261
 H1689 H 0.78688 0.25989 -0.02637
 C1690 C 0.79650 0.79125 0.41298
 C1691 C 0.79941 0.77329 0.41169
 C1692 C 0.80876 0.76560 0.39749
 C1693 C 0.81550 0.77690 0.38408
 C1694 C 0.81266 0.79549 0.38496
 C1695 C 0.80286 0.80275 0.39958
 O1696 O 0.78754 0.79579 0.42783
 C1697 C 0.78472 0.78033 0.43602
 C1698 C 0.79166 0.76617 0.42660
 C1699 C 0.79009 0.74873 0.43247
 C1700 C 0.78090 0.74572 0.44871
 C1701 C 0.77366 0.76006 0.45874
 C1702 C 0.77573 0.77766 0.45241
 H1703 H 0.81088 0.75142 0.39682
 H1704 H 0.82281 0.77111 0.37291
 H1705 H 0.80061 0.81689 0.40068
 H1706 H 0.79564 0.73782 0.42477
 H1707 H 0.77937 0.73223 0.45352
 H1708 H 0.77019 0.78879 0.45978
 C1709 C 0.73017 0.27431 0.59307
 C1710 C 0.72410 0.25735 0.58976
 C1711 C 0.71095 0.24971 0.60001
 C1712 C 0.70368 0.26004 0.61411
 C1713 C 0.70987 0.27746 0.61781
 C1714 C 0.72350 0.28457 0.60737
 O1715 O 0.74129 0.27987 0.58052
 C1716 C 0.74228 0.26615 0.56904
 C1717 C 0.73216 0.25194 0.57417
 C1718 C 0.73037 0.23667 0.56344
 C1719 C 0.73910 0.23619 0.54658
 C1720 C 0.74911 0.25093 0.54079
 C1721 C 0.75094 0.26599 0.55231
 H1722 H 0.70603 0.23655 0.59682
 H1723 H 0.69308 0.25464 0.62197
 H1724 H 0.72800 0.29808 0.60957
 H1725 H 0.72211 0.22579 0.56760
 H1726 H 0.73742 0.22474 0.53765
 H1727 H 0.75822 0.27754 0.54795
 C1728 C 0.70466 0.78759 1.06759
 C1729 C 0.72084 0.79084 1.07348
 C1730 C 0.72425 0.79945 1.08988
 C1731 C 0.71044 0.80530 1.10049
 C1732 C 0.69365 0.80244 1.09461
 C1733 C 0.69066 0.79322 1.07805
 O1734 O 0.70434 0.77970 1.05127
 C1735 C 0.72064 0.77801 1.04681
 C1736 C 0.73121 0.78468 1.05996
 C1737 C 0.74873 0.78484 1.05797
 C1738 C 0.75569 0.77760 1.04185
 C1739 C 0.74515 0.77021 1.02821
 C1740 C 0.72733 0.77064 1.03065
 H1741 H 0.73710 0.80194 1.09413
 H1742 H 0.71277 0.81251 1.11309
 H1743 H 0.67795 0.79122 1.07315
 H1744 H 0.75675 0.79039 1.06842
 H1745 H 0.76932 0.77762 1.04000
 H1746 H 0.71899 0.76514 1.02045
 C1747 C 0.23394 0.26878 1.09051
 C1748 C 0.23413 0.25053 1.08882
 C1749 C 0.22823 0.23934 1.10255
 C1750 C 0.22159 0.24729 1.11853
 C1751 C 0.22109 0.26607 1.12051
 C1752 C 0.22767 0.27695 1.10639
 O1753 O 0.23914 0.27700 1.07547
 C1754 C 0.24266 0.26366 1.06404
 C1755 C 0.23987 0.24719 1.07155
 C1756 C 0.24202 0.23141 1.06168
 C1757 C 0.24727 0.23270 1.04334
 C1758 C 0.25026 0.24955 1.03536
 C1759 C 0.24787 0.26523 1.04587
 H1760 H 0.22832 0.22503 1.10084
 H1761 H 0.21662 0.23880 1.12924
 H1762 H 0.22708 0.29130 1.10732
 H1763 H 0.23952 0.21860 1.06781
 H1764 H 0.24884 0.22065 1.03527
 H1765 H 0.24987 0.27824 1.03997
 C1766 C 0.21382 0.80352 0.56673
 C1767 C 0.23065 0.80839 0.56592
 C1768 C 0.23838 0.81823 0.57963
 C1769 C 0.22838 0.82328 0.59483
 C1770 C 0.21097 0.81834 0.59617
 C1771 C 0.20363 0.80834 0.58176
 O1772 O 0.20913 0.79353 0.55260
 C1773 C 0.22333 0.79202 0.54269
 C1774 C 0.23688 0.80085 0.55029
 C1775 C 0.25320 0.80011 0.54285
 C1776 C 0.25573 0.78953 0.52716
 C1777 C 0.24202 0.78015 0.51920
 C1778 C 0.22552 0.78172 0.52684
 H1779 H 0.25170 0.82171 0.57879
 H1780 H 0.23439 0.83070 0.60567
 H1781 H 0.19045 0.80426 0.58223
 H1782 H 0.26370 0.80692 0.54925
 H1783 H 0.26842 0.78814 0.52150
 H1784 H 0.21497 0.77425 0.52128
 C1785 C 0.28565 0.72611 0.57459
 C1786 C 0.26841 0.72684 0.57741
 C1787 C 0.26026 0.72040 0.59299
 C1788 C 0.27027 0.71271 0.60616
 C1789 C 0.28809 0.71174 0.60364
 C1790 C 0.29593 0.71880 0.58773
 O1791 O 0.29066 0.73201 0.55832
 C1792 C 0.27625 0.73654 0.55075
 C1793 C 0.26230 0.73370 0.56196
 C1794 C 0.24587 0.73677 0.55661
 C1795 C 0.24369 0.74296 0.53893
 C1796 C 0.25782 0.74602 0.52706
 C1797 C 0.27435 0.74272 0.53305
 H1798 H 0.24665 0.72095 0.59477
 H1799 H 0.26413 0.70745 0.61832
 H1800 H 0.30946 0.71794 0.58534
 H1801 H 0.23510 0.73416 0.56559
 H1802 H 0.23097 0.74496 0.53428
 H1803 H 0.28529 0.74465 0.52411
 C1804 C 0.30757 0.21593 1.07010
 C1805 C 0.30628 0.20269 1.05707
 C1806 C 0.31077 0.18522 1.06016
 C1807 C 0.31671 0.18117 1.07746
 C1808 C 0.31809 0.19455 1.09119
 C1809 C 0.31367 0.21225 1.08733
 O1810 O 0.30157 0.23137 1.06476
 C1811 C 0.29636 0.22777 1.04802
 C1812 C 0.29902 0.21042 1.04266
 C1813 C 0.29369 0.20349 1.02607
 C1814 C 0.28495 0.21481 1.01469
 C1815 C 0.28163 0.23263 1.02008
 C1816 C 0.28783 0.23932 1.03681
 H1817 H 0.30943 0.17498 1.04977
 H1818 H 0.32013 0.16760 1.08015
 H1819 H 0.31425 0.22267 1.09763
 H1820 H 0.29574 0.18972 1.02228
 H1821 H 0.28013 0.20950 1.00200
 H1822 H 0.28542 0.25284 1.04129
 C1823 C 0.79760 0.71751 1.07686
 C1824 C 0.78037 0.71474 1.07814
 C1825 C 0.77263 0.70449 1.09161
 C1826 C 0.78308 0.69648 1.10414
 C1827 C 0.80091 0.69888 1.10308
 C1828 C 0.80828 0.70986 1.08944
 O1829 O 0.80233 0.72692 1.06235
 C1830 C 0.78776 0.73008 1.05435
 C1831 C 0.77398 0.72292 1.06354
 C1832 C 0.75758 0.72386 1.05728
 C1833 C 0.75524 0.73260 1.04083
 C1834 C 0.76915 0.74030 1.03108
 C1835 C 0.78570 0.73893 1.03793
 H1836 H 0.75905 0.70240 1.09220
 H1837 H 0.77728 0.68819 1.11456
 H1838 H 0.82187 0.71163 1.08815
 H1839 H 0.74700 0.71784 1.06463
 H1840 H 0.74259 0.73316 1.03552
 H1841 H 0.79656 0.74449 1.03064
 C1842 C 0.80094 0.20495 0.57488
 C1843 C 0.79556 0.19160 0.56332
 C1844 C 0.79777 0.17371 0.56694
 C1845 C 0.80574 0.16941 0.58319
 C1846 C 0.81129 0.18295 0.59549
 C1847 C 0.80888 0.20100 0.59105
 O1848 O 0.79741 0.22109 0.56914
 C1849 C 0.78960 0.21788 0.55362
 C1850 C 0.78812 0.20006 0.54939
 C1851 C 0.78006 0.19379 0.53387
 C1852 C 0.77316 0.20642 0.52232
 C1853 C 0.77441 0.22486 0.52652
 C1854 C 0.78295 0.23061 0.54232
 H1855 H 0.79339 0.16341 0.55767
 H1856 H 0.80739 0.15551 0.58614
 H1857 H 0.81283 0.21179 0.59993
 H1858 H 0.77896 0.17970 0.53085
 H1859 H 0.76657 0.20186 0.51031
 H1860 H 0.78424 0.24459 0.54578
 C1861 C 0.71507 0.70964 0.41371
 C1862 C 0.71587 0.72769 0.41098
 C1863 C 0.70822 0.73587 0.39656
 C1864 C 0.69906 0.72506 0.38456
 C1865 C 0.69776 0.70641 0.38710
 C1866 C 0.70618 0.69851 0.40170
 O1867 O 0.72261 0.70484 0.42888
 C1868 C 0.72820 0.72023 0.43580
 C1869 C 0.72438 0.73455 0.42528
 C1870 C 0.72826 0.75199 0.43019
 C1871 C 0.73653 0.75485 0.44661
 C1872 C 0.74093 0.74038 0.45769
 C1873 C 0.73657 0.72277 0.45227
 H1874 H 0.70896 0.75013 0.39482
 H1875 H 0.69281 0.73126 0.37337
 H1876 H 0.70514 0.68436 0.40409
 H1877 H 0.72480 0.76302 0.42180
 H1878 H 0.73932 0.76840 0.45086
 H1879 H 0.73956 0.71152 0.46059
 C1880 C 0.71041 0.21052 -0.06008
 C1881 C 0.69824 0.21719 -0.04832
 C1882 C 0.68108 0.21638 -0.05192
 C1883 C 0.67623 0.20846 -0.06841
 C1884 C 0.68850 0.20166 -0.08104
 C1885 C 0.70588 0.20261 -0.07662
 O1886 O 0.72606 0.21325 -0.05427
 C1887 C 0.72365 0.22191 -0.03854
 C1888 C 0.70684 0.22466 -0.03435
 C1889 C 0.70136 0.23428 -0.01913
 C1890 C 0.71374 0.24164 -0.00785
 C1891 C 0.73123 0.23919 -0.01184
 C1892 C 0.73623 0.22880 -0.02724
 H1893 H 0.67176 0.22183 -0.04246
 H1894 H 0.66289 0.20785 -0.07126
 H1895 H 0.71566 0.19776 -0.08587
 H1896 H 0.68805 0.23649 -0.01632
 H1897 H 0.70971 0.24976 0.00371
 H1898 H 0.74946 0.22675 -0.03068
 C1899 C 0.21068 0.71393 -0.08759
 C1900 C 0.21118 0.73219 -0.08828
 C1901 C 0.20501 0.74161 -0.10276
 C1902 C 0.19783 0.73184 -0.11708
 C1903 C 0.19691 0.71296 -0.11674
 C1904 C 0.20362 0.70389 -0.10177
 O1905 O 0.21739 0.70766 -0.07256
 C1906 C 0.22221 0.72232 -0.06362
 C1907 C 0.21868 0.73765 -0.07271
 C1908 C 0.22282 0.75451 -0.06608
 C1909 C 0.23116 0.75563 -0.04947
 C1910 C 0.23516 0.74004 -0.03991
 C1911 C 0.23044 0.72313 -0.04696
 H1912 H 0.20567 0.75599 -0.10302
 H1913 H 0.19309 0.73910 -0.12846
 H1914 H 0.20310 0.68953 -0.10100
 H1915 H 0.21994 0.76636 -0.07354
 H1916 H 0.23481 0.76859 -0.04415
 H1917 H 0.23359 0.71107 -0.03999
 C1918 C 0.18919 0.21749 0.44442
 C1919 C 0.18482 0.23507 0.44327
 C1920 C 0.17476 0.24137 0.42954
 C1921 C 0.16904 0.22907 0.41642
 C1922 C 0.17371 0.21093 0.41706
 C1923 C 0.18385 0.20509 0.43138
 O1924 O 0.19931 0.21434 0.45815
 C1925 C 0.20148 0.23029 0.46575
 C1926 C 0.19298 0.24347 0.45710
 C1927 C 0.19458 0.26136 0.46193
 C1928 C 0.20561 0.26586 0.47603
 C1929 C 0.21452 0.25249 0.48507
 C1930 C 0.21211 0.23442 0.48016
 H1931 H 0.17161 0.25529 0.42882
 H1932 H 0.16145 0.23381 0.40546
 H1933 H 0.18764 0.19136 0.43225
 H1934 H 0.18804 0.27153 0.45468
 H1935 H 0.20761 0.27973 0.47964
 H1936 H 0.21916 0.22406 0.48656
 C1937 C 0.29761 0.42446 0.72123
 C1938 C 0.30930 0.43474 0.73033
 C1939 C 0.32597 0.42960 0.73231
 C1940 C 0.33081 0.41323 0.72455
 C1941 C 0.31906 0.40242 0.71489
 C1942 C 0.30219 0.40821 0.71326
 O1943 O 0.28236 0.43165 0.72113
 C1944 C 0.28449 0.44682 0.73031
 C1945 C 0.30077 0.44939 0.73617
 C1946 C 0.30580 0.46445 0.74597
 C1947 C 0.29353 0.47730 0.75004
 C1948 C 0.27659 0.47479 0.74448
 C1949 C 0.27207 0.45938 0.73430
 H1950 H 0.33494 0.43790 0.73956
 H1951 H 0.34380 0.40917 0.72583
 H1952 H 0.29285 0.40026 0.70614
 H1953 H 0.31869 0.46619 0.75040
 H1954 H 0.29707 0.48904 0.75785
 H1955 H 0.25924 0.45721 0.72982
 C1956 C 0.28612 0.92791 0.21124
 C1957 C 0.28067 0.93838 0.19740
 C1958 C 0.28151 0.93305 0.17919
 C1959 C 0.28827 0.91626 0.17508
 C1960 C 0.29414 0.90523 0.18909
 C1961 C 0.29301 0.91125 0.20746
 O1962 O 0.28406 0.93537 0.22764
 C1963 C 0.27720 0.95091 0.22406
 C1964 C 0.27491 0.95344 0.20575
 C1965 C 0.26803 0.96886 0.19898
 C1966 C 0.26325 0.98218 0.21158
 C1967 C 0.26528 0.97980 0.23055
 C1968 C 0.27243 0.96393 0.23684
 H1969 H 0.27712 0.94151 0.16852
 H1970 H 0.28914 0.91202 0.16095
 H1971 H 0.29718 0.90316 0.21852
 H1972 H 0.26637 0.97056 0.18451
 H1973 H 0.25770 0.99422 0.20665
 H1974 H 0.27420 0.96183 0.25123
 C1975 C 0.79977 0.42952 0.22457
 C1976 C 0.79838 0.42763 0.24315
 C1977 C 0.80640 0.41417 0.25231
 C1978 C 0.81611 0.40206 0.24186
 C1979 C 0.81750 0.40352 0.22261
 C1980 C 0.80930 0.41766 0.21396
 O1981 O 0.79087 0.44292 0.21842
 C1982 C 0.78362 0.44963 0.23342
 C1983 C 0.78776 0.44074 0.24894
 C1984 C 0.78107 0.44519 0.26607
 C1985 C 0.76961 0.45929 0.26721
 C1986 C 0.76511 0.46859 0.25138
 C1987 C 0.77238 0.46377 0.23428
 H1988 H 0.80506 0.41287 0.26694
 H1989 H 0.82212 0.39132 0.24877
 H1990 H 0.81009 0.41934 0.19936
 H1991 H 0.78438 0.43795 0.27809
 H1992 H 0.76412 0.46292 0.28038
 H1993 H 0.76899 0.47051 0.22197
 C1994 C 0.78775 0.92316 0.71961
 C1995 C 0.78755 0.92135 0.73823
 C1996 C 0.79496 0.90718 0.74681
 C1997 C 0.80281 0.89423 0.73574
 C1998 C 0.80300 0.89558 0.71646
 C1999 C 0.79536 0.91034 0.70832
 O2000 O 0.78016 0.93778 0.71426
 C2001 C 0.77501 0.94532 0.72985
 C2002 C 0.77915 0.93571 0.74490
 C2003 C 0.77494 0.94104 0.76260
 C2004 C 0.76618 0.95700 0.76491
 C2005 C 0.76184 0.96725 0.74967
 C2006 C 0.76637 0.96135 0.73186
 H2007 H 0.79466 0.90609 0.76150
 H2008 H 0.80840 0.88298 0.74225
 H2009 H 0.79537 0.91186 0.69368
 H2010 H 0.77837 0.93326 0.77421
 H2011 H 0.76301 0.96157 0.77861
 H2012 H 0.76326 0.96898 0.72003
 C2013 C 0.71167 0.57551 0.70645
 C2014 C 0.70847 0.57846 0.72474
 C2015 C 0.69782 0.59176 0.73128
 C2016 C 0.69007 0.60238 0.71842
 C2017 C 0.69330 0.59970 0.69950
 C2018 C 0.70443 0.58620 0.69345
 O2019 O 0.72131 0.56148 0.70310
 C2020 C 0.72427 0.55548 0.71963
 C2021 C 0.71682 0.56550 0.73335
 C2022 C 0.71792 0.56136 0.75167
 C2023 C 0.72696 0.54617 0.75604
 C2024 C 0.73448 0.53542 0.74212
 C2025 C 0.73317 0.54021 0.72366
 H2026 H 0.69530 0.59366 0.74573
 H2027 H 0.68158 0.61271 0.72317
 H2028 H 0.70683 0.58366 0.67907
 H2029 H 0.71185 0.56939 0.76220
 H2030 H 0.72775 0.54246 0.77020
 H2031 H 0.73872 0.53215 0.71280
 C2032 C 0.71345 0.08792 0.22823
 C2033 C 0.73080 0.08933 0.22853
 C2034 C 0.73969 0.10434 0.22267
 C2035 C 0.73032 0.11846 0.21608
 C2036 C 0.71240 0.11732 0.21544
 C2037 C 0.70386 0.10185 0.22184
 O2038 O 0.70757 0.07218 0.23366
 C2039 C 0.72153 0.06347 0.23743
 C2040 C 0.73607 0.07342 0.23453
 C2041 C 0.75215 0.06673 0.23674
 C2042 C 0.75331 0.04902 0.24216
 C2043 C 0.73854 0.03853 0.24548
 C2044 C 0.72240 0.04583 0.24298
 H2045 H 0.75337 0.10506 0.22293
 H2046 H 0.73708 0.13021 0.21142
 H2047 H 0.69024 0.10041 0.22128
 H2048 H 0.76341 0.07471 0.23401
 H2049 H 0.76572 0.04331 0.24336
 H2050 H 0.71097 0.03793 0.24505
 C2051 C 0.21571 0.56858 0.20463
 C2052 C 0.20742 0.56504 0.22090
 C2053 C 0.19373 0.57475 0.22738
 C2054 C 0.18813 0.58854 0.21655
 C2055 C 0.19613 0.59232 0.19946
 C2056 C 0.21037 0.58236 0.19358
 O2057 O 0.22802 0.55720 0.20075
 C2058 C 0.22739 0.54625 0.21483
 C2059 C 0.21497 0.55049 0.22751
 C2060 C 0.21142 0.54032 0.24285
 C2061 C 0.22106 0.52506 0.24521
 C2062 C 0.23399 0.52043 0.23241
 C2063 C 0.23729 0.53124 0.21706
 H2064 H 0.18742 0.57166 0.24022
 H2065 H 0.17746 0.59617 0.22154
 H2066 H 0.21663 0.58479 0.18057
 H2067 H 0.20142 0.54384 0.25248
 H2068 H 0.21848 0.51680 0.25696
 H2069 H 0.24695 0.52778 0.20698
 C2070 C 0.20669 0.08291 0.73291
 C2071 C 0.19705 0.07859 0.74810
 C2072 C 0.18263 0.08785 0.75338
 C2073 C 0.17788 0.10204 0.74249
 C2074 C 0.18755 0.10674 0.72666
 C2075 C 0.20230 0.09709 0.72197
 O2076 O 0.21956 0.07202 0.72993
 C2077 C 0.21799 0.06061 0.74354
 C2078 C 0.20445 0.06406 0.75507
 C2079 C 0.20022 0.05343 0.76992
 C2080 C 0.21038 0.03865 0.77300
 C2081 C 0.22444 0.03486 0.76131
 C2082 C 0.22821 0.04599 0.74631
 H2083 H 0.17518 0.08415 0.76533
 H2084 H 0.16666 0.10935 0.74643
 H2085 H 0.20982 0.10015 0.70988
 H2086 H 0.18939 0.05631 0.77871
 H2087 H 0.20733 0.03012 0.78441
 H2088 H 0.23857 0.04313 0.73688
 C2089 C 0.28836 0.57072 0.26749
 C2090 C 0.29779 0.56653 0.25209
 C2091 C 0.31222 0.57608 0.24684
 C2092 C 0.31721 0.59042 0.25799
 C2093 C 0.30784 0.59490 0.27414
 C2094 C 0.29306 0.58494 0.27877
 O2095 O 0.27550 0.55952 0.27047
 C2096 C 0.27689 0.54800 0.25668
 C2097 C 0.29032 0.55167 0.24503
 C2098 C 0.29463 0.54073 0.23023
 C2099 C 0.28474 0.52531 0.22744
 C2100 C 0.27084 0.52130 0.23929
 C2101 C 0.26682 0.53288 0.25404
 H2102 H 0.31950 0.57248 0.23471
 H2103 H 0.32844 0.59792 0.25400
 H2104 H 0.28571 0.58775 0.29106
 H2105 H 0.30541 0.54376 0.22140
 H2106 H 0.28796 0.51638 0.21624
 H2107 H 0.25653 0.52983 0.26354
 C2108 C 0.27882 0.09148 0.78060
 C2109 C 0.28677 0.08495 0.76511
 C2110 C 0.29931 0.09433 0.75565
 C2111 C 0.30403 0.11108 0.76254
 C2112 C 0.29633 0.11812 0.77874
 C2113 C 0.28334 0.10816 0.78775
 O2114 O 0.26741 0.08020 0.78762
 C2115 C 0.26826 0.06627 0.77631
 C2116 C 0.27996 0.06852 0.76235
 C2117 C 0.28335 0.05545 0.74925
 C2118 C 0.27426 0.03937 0.75056
 C2119 C 0.26199 0.03676 0.76470
 C2120 C 0.25894 0.05041 0.77778
 H2121 H 0.30535 0.08889 0.74346
 H2122 H 0.31377 0.11845 0.75518
 H2123 H 0.27723 0.11297 0.80016
 H2124 H 0.29272 0.05752 0.73848
 H2125 H 0.27660 0.02899 0.74049
 H2126 H 0.24973 0.04864 0.78878
 C2127 C 0.79477 0.57200 0.80056
 C2128 C 0.79643 0.57536 0.78221
 C2129 C 0.80791 0.58773 0.77511
 C2130 C 0.81819 0.59698 0.78742
 C2131 C 0.81667 0.59388 0.80641
 C2132 C 0.80462 0.58139 0.81312
 O2133 O 0.78399 0.55874 0.80424
 C2134 C 0.77875 0.55367 0.78787
 C2135 C 0.78590 0.56354 0.77398
 C2136 C 0.78288 0.56004 0.75571
 C2137 C 0.77223 0.54559 0.75153
 C2138 C 0.76490 0.53497 0.76554
 C2139 C 0.76811 0.53918 0.78401
 H2140 H 0.80917 0.58990 0.76060
 H2141 H 0.82735 0.60658 0.78217
 H2142 H 0.80346 0.57859 0.82753
 H2143 H 0.78887 0.56786 0.74503
 H2144 H 0.77021 0.54224 0.73734
 H2145 H 0.76290 0.53112 0.79495
 C2146 C 0.78188 0.07564 0.29964
 C2147 C 0.76562 0.07455 0.30665
 C2148 C 0.75804 0.08842 0.31628
 C2149 C 0.76754 0.10413 0.31868
 C2150 C 0.78425 0.10580 0.31124
 C2151 C 0.79156 0.09114 0.30182
 O2152 O 0.78624 0.06150 0.28970
 C2153 C 0.77239 0.05132 0.29036
 C2154 C 0.75939 0.05872 0.30053
 C2155 C 0.74316 0.05131 0.30138
 C2156 C 0.74011 0.03594 0.29087
 C2157 C 0.75325 0.02831 0.28005
 C2158 C 0.76975 0.03573 0.28028
 H2159 H 0.74513 0.08735 0.32144
 H2160 H 0.76166 0.11500 0.32609
 H2161 H 0.80410 0.09194 0.29566
 H2162 H 0.73302 0.05766 0.30905
 H2163 H 0.72738 0.03046 0.29040
 H2164 H 0.77977 0.03046 0.27155
 C2165 C 0.70404 0.41778 0.29471
 C2166 C 0.70767 0.41348 0.27680
 C2167 C 0.70308 0.39721 0.26897
 C2168 C 0.69450 0.38485 0.28013
 C2169 C 0.69084 0.38890 0.29874
 C2170 C 0.69569 0.40566 0.30606
 O2171 O 0.70908 0.43409 0.29938
 C2172 C 0.71610 0.44020 0.28409
 C2173 C 0.71566 0.42808 0.26988
 C2174 C 0.72221 0.43180 0.25258
 C2175 C 0.72933 0.44877 0.24979
 C2176 C 0.72973 0.46154 0.26418
 C2177 C 0.72304 0.45716 0.28158
 H2178 H 0.70599 0.39416 0.25480
 H2179 H 0.69099 0.37205 0.27433
 H2180 H 0.69291 0.40927 0.32013
 H2181 H 0.72167 0.42208 0.24159
 H2182 H 0.73419 0.45213 0.23634
 H2183 H 0.72310 0.46674 0.29274
 C2184 C 0.70229 0.92288 0.79300
 C2185 C 0.69890 0.92418 0.77478
 C2186 C 0.68888 0.91184 0.76557
 C2187 C 0.68209 0.89752 0.77550
 C2188 C 0.68557 0.89563 0.79426
 C2189 C 0.69584 0.90857 0.80311
 O2190 O 0.71212 0.93607 0.79910
 C2191 C 0.71506 0.94584 0.78437
 C2192 C 0.70733 0.93903 0.76912
 C2193 C 0.70913 0.94673 0.75207
 C2194 C 0.71935 0.96205 0.75064
 C2195 C 0.72734 0.96945 0.76614
 C2196 C 0.72507 0.96133 0.78332
 H2197 H 0.68643 0.91316 0.75120
 H2198 H 0.67445 0.88770 0.76843
 H2199 H 0.69868 0.90758 0.81741
 H2200 H 0.70304 0.94103 0.74025
 H2201 H 0.72112 0.96820 0.73746
 H2202 H 0.73121 0.96666 0.79528
 C2203 C 0.21577 0.41647 0.78190
 C2204 C 0.23222 0.41644 0.78765
 C2205 C 0.23852 0.40316 0.79840
 C2206 C 0.22736 0.38950 0.80379
 C2207 C 0.21015 0.38937 0.79856
 C2208 C 0.20438 0.40289 0.78707
 O2209 O 0.21224 0.43084 0.77244
 C2210 C 0.22674 0.44004 0.77231
 C2211 C 0.23934 0.43181 0.78148
 C2212 C 0.25520 0.43955 0.78407
 C2213 C 0.25823 0.45652 0.77689
 C2214 C 0.24561 0.46523 0.76702
 C2215 C 0.22960 0.45681 0.76478
 H2216 H 0.25150 0.40347 0.80279
 H2217 H 0.23213 0.37916 0.81231
 H2218 H 0.19130 0.40330 0.78305
 H2219 H 0.26475 0.43296 0.79174
 H2220 H 0.27030 0.46300 0.77932
 H2221 H 0.21962 0.46326 0.75762
 C2222 C 0.21667 0.92371 0.28381
 C2223 C 0.21234 0.92610 0.26598
 C2224 C 0.20123 0.91483 0.25687
 C2225 C 0.19411 0.90059 0.26660
 C2226 C 0.19821 0.89783 0.28508
 C2227 C 0.20988 0.90944 0.29372
 O2228 O 0.22691 0.93647 0.29005
 C2229 C 0.22904 0.94709 0.27583
 C2230 C 0.22041 0.94126 0.26077
 C2231 C 0.22034 0.95058 0.24456
 C2232 C 0.22955 0.96661 0.24382
 C2233 C 0.23867 0.97290 0.25909
 C2234 C 0.23834 0.96303 0.27538
 H2235 H 0.19796 0.91708 0.24286
 H2236 H 0.18536 0.89173 0.25970
 H2237 H 0.21307 0.90780 0.30786
 H2238 H 0.21324 0.94582 0.23300
 H2239 H 0.22939 0.97429 0.23146
 H2240 H 0.24500 0.96770 0.28729
 C2241 C 0.42707 0.28726 0.72939
 C2242 C 0.42662 0.26908 0.72710
 C2243 C 0.41330 0.26008 0.71889
 C2244 C 0.39999 0.27024 0.71254
 C2245 C 0.40020 0.28907 0.71440
 C2246 C 0.41390 0.29765 0.72323
 O2247 O 0.44111 0.29317 0.73720
 C2248 C 0.44969 0.27839 0.73984
 C2249 C 0.44136 0.26330 0.73386
 C2250 C 0.44822 0.24642 0.73479
 C2251 C 0.46429 0.24503 0.74230
 C2252 C 0.47299 0.26033 0.74895
 C2253 C 0.46565 0.27729 0.74749
 H2254 H 0.41324 0.24576 0.71726
 H2255 H 0.38956 0.26334 0.70611
 H2256 H 0.41458 0.31198 0.72473
 H2257 H 0.44151 0.23478 0.72977
 H2258 H 0.46998 0.23205 0.74298
 H2259 H 0.47215 0.28918 0.75225
 C2260 C 0.41572 0.79639 0.21704
 C2261 C 0.41471 0.79820 0.23570
 C2262 C 0.40094 0.80584 0.24478
 C2263 C 0.38761 0.81177 0.23419
 C2264 C 0.38822 0.80978 0.21493
 C2265 C 0.40255 0.80198 0.20629
 O2266 O 0.43004 0.78910 0.21106
 C2267 C 0.43824 0.78617 0.22628
 C2268 C 0.42935 0.79140 0.24175
 C2269 C 0.43552 0.78944 0.25918
 C2270 C 0.45154 0.78188 0.26072
 C2271 C 0.46099 0.77659 0.24496
 C2272 C 0.45426 0.77878 0.22749
 H2273 H 0.40046 0.80720 0.25948
 H2274 H 0.37671 0.81759 0.24104
 H2275 H 0.40351 0.80044 0.19162
 H2276 H 0.42831 0.79363 0.27115
 H2277 H 0.45672 0.78032 0.27412
 H2278 H 0.46129 0.77482 0.21530
 C2279 C 0.93280 0.28841 0.21603
 C2280 C 0.94159 0.28252 0.20077
 C2281 C 0.93611 0.28521 0.18319
 C2282 C 0.92086 0.29420 0.18124
 C2283 C 0.91152 0.30047 0.19672
 C2284 C 0.91772 0.29774 0.21439
 O2285 O 0.93979 0.28361 0.23148
 C2286 C 0.95327 0.27453 0.22580
 C2287 C 0.95497 0.27358 0.20712
 C2288 C 0.96791 0.26434 0.19822
 C2289 C 0.97950 0.25556 0.20900
 C2290 C 0.97787 0.25601 0.22828
 C2291 C 0.96464 0.26583 0.23679
 H2292 H 0.94315 0.28027 0.17140
 H2293 H 0.91632 0.29626 0.16763
 H2294 H 0.91071 0.30211 0.22644
 H2295 H 0.96888 0.26367 0.18349
 H2296 H 0.98946 0.24794 0.20235
 H2297 H 0.96307 0.26633 0.25148
 C2298 C 0.91778 0.77574 0.70028
 C2299 C 0.91740 0.77383 0.71889
 C2300 C 0.90408 0.77965 0.72998
 C2301 C 0.89063 0.78797 0.72160
 C2302 C 0.89068 0.79033 0.70243
 C2303 C 0.90439 0.78386 0.69159
 O2304 O 0.93206 0.77000 0.69244
 C2305 C 0.94085 0.76440 0.70644
 C2306 C 0.93237 0.76645 0.72289
 C2307 C 0.93945 0.76239 0.73943
 C2308 C 0.95598 0.75598 0.73905
 C2309 C 0.96503 0.75346 0.72230
 C2310 C 0.95733 0.75783 0.70573
 H2311 H 0.90416 0.77809 0.74462
 H2312 H 0.88020 0.79259 0.73012
 H2313 H 0.90493 0.78568 0.67698
 H2314 H 0.93264 0.76453 0.75223
 H2315 H 0.96195 0.75348 0.75187
 H2316 H 0.96408 0.75645 0.69279
 C2317 C 0.57768 0.27591 0.30489
 C2318 C 0.57699 0.25815 0.30912
 C2319 C 0.58920 0.25014 0.31948
 C2320 C 0.60269 0.26087 0.32564
 C2321 C 0.60378 0.27916 0.32116
 C2322 C 0.59103 0.28671 0.31064
 O2323 O 0.56470 0.28109 0.29527
 C2324 C 0.55560 0.26627 0.29330
 C2325 C 0.56258 0.25179 0.30141
 C2326 C 0.55507 0.23492 0.30083
 C2327 C 0.53972 0.23299 0.29164
 C2328 C 0.53229 0.24784 0.28343
 C2329 C 0.54034 0.26468 0.28430
 H2330 H 0.58838 0.23616 0.32274
 H2331 H 0.61239 0.25487 0.33360
 H2332 H 0.59134 0.30066 0.30717
 H2333 H 0.56078 0.22370 0.30726
 H2334 H 0.53353 0.22007 0.29103
 H2335 H 0.53485 0.27617 0.27811
 C2336 C 0.58113 0.77578 0.77365
 C2337 C 0.58113 0.75774 0.77651
 C2338 C 0.59352 0.74952 0.78638
 C2339 C 0.60635 0.76032 0.79375
 C2340 C 0.60658 0.77904 0.79126
 C2341 C 0.59383 0.78679 0.78079
 O2342 O 0.56776 0.78102 0.76460
 C2343 C 0.55914 0.76597 0.76174
 C2344 C 0.56678 0.75134 0.76874
 C2345 C 0.55947 0.73440 0.76813
 C2346 C 0.54356 0.73249 0.76012
 C2347 C 0.53538 0.74737 0.75275
 C2348 C 0.54342 0.76433 0.75353
 H2349 H 0.59319 0.73532 0.78856
 H2350 H 0.61601 0.75403 0.80151
 H2351 H 0.59342 0.80100 0.77881
 H2352 H 0.56558 0.72314 0.77405
 H2353 H 0.53739 0.71955 0.76017
 H2354 H 0.53739 0.77599 0.74831
 C2355 C 0.07811 0.29246 0.77653
 C2356 C 0.07703 0.27456 0.78010
 C2357 C 0.08917 0.26569 0.78969
 C2358 C 0.10280 0.27573 0.79629
 C2359 C 0.10410 0.29433 0.79331
 C2360 C 0.09176 0.30276 0.78287
 O2361 O 0.06468 0.29833 0.76794
 C2362 C 0.05497 0.28382 0.76617
 C2363 C 0.06199 0.26897 0.77344
 C2364 C 0.05365 0.25259 0.77413
 C2365 C 0.03741 0.25140 0.76691
 C2366 C 0.02997 0.26635 0.75885
 C2367 C 0.03887 0.28287 0.75864
 H2368 H 0.08797 0.25162 0.79240
 H2369 H 0.11221 0.26904 0.80409
 H2370 H 0.09226 0.31697 0.78066
 H2371 H 0.05930 0.24121 0.78035
 H2372 H 0.03055 0.23886 0.76776
 H2373 H 0.03336 0.29458 0.75293
 C2374 C 0.07934 0.78258 0.26883
 C2375 C 0.07575 0.79181 0.25337
 C2376 C 0.08522 0.80646 0.24762
 C2377 C 0.09887 0.81194 0.25831
 C2378 C 0.10277 0.80282 0.27449
 C2379 C 0.09291 0.78776 0.27966
 O2380 O 0.06838 0.76944 0.27223
 C2381 C 0.05764 0.77043 0.25864
 C2382 C 0.06159 0.78390 0.24672
 C2383 C 0.05163 0.78781 0.23196
 C2384 C 0.03693 0.77746 0.22943
 C2385 C 0.03260 0.76350 0.24153
 C2386 C 0.04317 0.75990 0.25630
 H2387 H 0.08211 0.81355 0.23544
 H2388 H 0.10632 0.82333 0.25390
 H2389 H 0.09536 0.78061 0.29199
 H2390 H 0.05491 0.79862 0.22289
 H2391 H 0.02885 0.78034 0.21816
 H2392 H 0.03993 0.74956 0.26593
 C2393 C 0.56952 0.69929 0.69282
 C2394 C 0.55867 0.68608 0.69891
 C2395 C 0.56147 0.66815 0.69560
 C2396 C 0.57625 0.66357 0.68592
 C2397 C 0.58793 0.67684 0.67977
 C2398 C 0.58433 0.69503 0.68299
 O2399 O 0.56451 0.71548 0.69778
 C2400 C 0.55023 0.71235 0.70721
 C2401 C 0.54617 0.69455 0.70830
 C2402 C 0.53193 0.68815 0.71767
 C2403 C 0.52128 0.70064 0.72614
 C2404 C 0.52504 0.71910 0.72513
 C2405 C 0.53978 0.72504 0.71555
 H2406 H 0.55269 0.65803 0.70052
 H2407 H 0.57866 0.64962 0.68338
 H2408 H 0.59306 0.70544 0.67866
 H2409 H 0.52909 0.67405 0.71839
 H2410 H 0.51007 0.69597 0.73348
 H2411 H 0.54284 0.73907 0.71444
 C2412 C 0.57887 0.21295 0.22594
 C2413 C 0.56842 0.19832 0.22813
 C2414 C 0.57342 0.18116 0.22363
 C2415 C 0.58992 0.17895 0.21666
 C2416 C 0.60101 0.19380 0.21423
 C2417 C 0.59531 0.21109 0.21885
 O2418 O 0.57167 0.22804 0.23136
 C2419 C 0.55634 0.22278 0.23705
 C2420 C 0.55374 0.20472 0.23529
 C2421 C 0.53863 0.19631 0.24039
 C2422 C 0.52566 0.20695 0.24765
 C2423 C 0.52806 0.22557 0.24979
 C2424 C 0.54362 0.23363 0.24433
 H2425 H 0.56495 0.16987 0.22549
 H2426 H 0.59395 0.16566 0.21301
 H2427 H 0.60348 0.22266 0.21732
 H2428 H 0.53690 0.18207 0.23886
 H2429 H 0.51379 0.20070 0.25185
 H2430 H 0.54569 0.24784 0.24571
 C2431 C 0.07967 0.70489 0.20999
 C2432 C 0.07485 0.69572 0.22539
 C2433 C 0.08357 0.68110 0.23142
 C2434 C 0.09774 0.67562 0.22106
 C2435 C 0.10288 0.68470 0.20495
 C2436 C 0.09375 0.69971 0.19952
 O2437 O 0.06932 0.71801 0.20626
 C2438 C 0.05771 0.71706 0.21957
 C2439 C 0.06049 0.70365 0.23165
 C2440 C 0.04946 0.69985 0.24618
 C2441 C 0.03494 0.71027 0.24828
 C2442 C 0.03186 0.72418 0.23600
 C2443 C 0.04345 0.72764 0.22149
 H2444 H 0.07950 0.67404 0.24354
 H2445 H 0.10461 0.66425 0.22564
 H2446 H 0.09712 0.70683 0.18723
 H2447 H 0.05183 0.68910 0.25539
 H2448 H 0.02605 0.70753 0.25938
 H2449 H 0.04118 0.73796 0.21173
 C2450 C 0.06851 0.21629 0.70820
 C2451 C 0.05707 0.20333 0.71356
 C2452 C 0.06062 0.18531 0.71267
 C2453 C 0.07671 0.18042 0.70618
 C2454 C 0.08891 0.19348 0.70076
 C2455 C 0.08461 0.21171 0.70158
 O2456 O 0.06271 0.23265 0.71074
 C2457 C 0.04731 0.22991 0.71789
 C2458 C 0.04328 0.21219 0.71988
 C2459 C 0.02807 0.20624 0.72764
 C2460 C 0.01654 0.21911 0.73373
 C2461 C 0.02036 0.23751 0.73196
 C2462 C 0.03593 0.24297 0.72370
 H2463 H 0.05139 0.17538 0.71702
 H2464 H 0.07962 0.16642 0.70544
 H2465 H 0.09366 0.22202 0.69778
 H2466 H 0.02529 0.19221 0.72922
 H2467 H 0.00476 0.21476 0.74017
 H2468 H 0.03916 0.25691 0.72214
 C2469 C 0.42145 0.71477 0.28633
 C2470 C 0.42323 0.71053 0.26810
 C2471 C 0.41223 0.69910 0.25908
 C2472 C 0.39894 0.69145 0.26932
 C2473 C 0.39679 0.69542 0.28820
 C2474 C 0.40810 0.70748 0.29678
 O2475 O 0.43356 0.72575 0.29219
 C2476 C 0.44313 0.72845 0.27731
 C2477 C 0.43727 0.71945 0.26222
 C2478 C 0.44516 0.72040 0.24514
 C2479 C 0.45963 0.73125 0.24346
 C2480 C 0.46594 0.74067 0.25875
 C2481 C 0.45768 0.73920 0.27598
 H2482 H 0.41391 0.69601 0.24471
 H2483 H 0.39029 0.68244 0.26248
 H2484 H 0.40684 0.71063 0.31118
 H2485 H 0.44023 0.71323 0.23349
 H2486 H 0.46586 0.73254 0.23023
 H2487 H 0.46221 0.74651 0.28774
 C2488 C 0.42532 0.22362 0.79647
 C2489 C 0.43525 0.20887 0.79412
 C2490 C 0.42867 0.19163 0.79413
 C2491 C 0.41111 0.18951 0.79653
 C2492 C 0.40056 0.20452 0.79888
 C2493 C 0.40785 0.22181 0.79910
 O2494 O 0.43389 0.23882 0.79462
 C2495 C 0.44957 0.23354 0.79098
 C2496 C 0.45109 0.21533 0.79060
 C2497 C 0.46610 0.20690 0.78579
 C2498 C 0.47999 0.21766 0.78068
 C2499 C 0.47860 0.23644 0.78039
 C2500 C 0.46330 0.24449 0.78621
 H2501 H 0.43672 0.18024 0.79196
 H2502 H 0.40575 0.17619 0.79644
 H2503 H 0.40012 0.23354 0.80045
 H2504 H 0.46690 0.19255 0.78530
 H2505 H 0.49157 0.21135 0.77604
 H2506 H 0.46185 0.25878 0.78595
 C2507 C 0.94092 0.69401 0.78106
 C2508 C 0.93792 0.68879 0.76337
 C2509 C 0.92504 0.67692 0.75876
 C2510 C 0.91483 0.67013 0.77298
 C2511 C 0.91747 0.67549 0.79133
 C2512 C 0.93070 0.68766 0.79539
 O2513 O 0.95382 0.70542 0.78244
 C2514 C 0.95899 0.70751 0.76525
 C2515 C 0.94959 0.69773 0.75304
 C2516 C 0.95232 0.69854 0.73427
 C2517 C 0.96516 0.71004 0.72782
 C2518 C 0.97506 0.72017 0.74015
 C2519 C 0.97210 0.71869 0.75914
 H2520 H 0.92291 0.67306 0.74474
 H2521 H 0.90464 0.66098 0.76961
 H2522 H 0.93304 0.69194 0.80926
 H2523 H 0.94461 0.69087 0.72494
 H2524 H 0.96734 0.71125 0.71327
 H2525 H 0.97934 0.72655 0.76876
 C2526 C 0.91669 0.21150 0.28032
 C2527 C 0.91708 0.20792 0.26188
 C2528 C 0.90414 0.19872 0.25315
 C2529 C 0.89023 0.19298 0.26387
 C2530 C 0.88948 0.19667 0.28289
 C2531 C 0.90289 0.20618 0.29116
 O2532 O 0.93067 0.21948 0.28613
 C2533 C 0.94010 0.22101 0.27104
 C2534 C 0.93233 0.21426 0.25579
 C2535 C 0.94020 0.21393 0.23865
 C2536 C 0.95684 0.22059 0.23724
 C2537 C 0.96518 0.22732 0.25284
 C2538 C 0.95664 0.22763 0.26995
 H2539 H 0.90483 0.19586 0.23866
 H2540 H 0.88003 0.18578 0.25735
 H2541 H 0.90282 0.20891 0.30568
 H2542 H 0.93390 0.20838 0.22688
 H2543 H 0.96345 0.21998 0.22416
 H2544 H 0.96287 0.23242 0.28209
 C2545 C 0.28833 0.29589 0.58698
 C2546 C 0.29972 0.28734 0.57556
 C2547 C 0.31660 0.28526 0.57978
 C2548 C 0.32198 0.29218 0.59653
 C2549 C 0.31056 0.30116 0.60855
 C2550 C 0.29351 0.30321 0.60360
 O2551 O 0.27273 0.29577 0.58062
 C2552 C 0.27435 0.28701 0.56484
 C2553 C 0.29064 0.28169 0.56108
 C2554 C 0.29522 0.27224 0.54536
 C2555 C 0.28245 0.26802 0.53302
 C2556 C 0.26549 0.27305 0.53672
 C2557 C 0.26140 0.28278 0.55283
 H2558 H 0.32527 0.27836 0.57062
 H2559 H 0.33509 0.29062 0.60008
 H2560 H 0.28449 0.30981 0.61262
 H2561 H 0.30814 0.26817 0.54275
 H2562 H 0.28566 0.26047 0.52079
 H2563 H 0.24853 0.28677 0.55593
 C2564 C 0.29297 0.78406 0.07218
 C2565 C 0.29592 0.76612 0.07311
 C2566 C 0.30422 0.75856 0.08751
 C2567 C 0.30976 0.76997 0.10150
 C2568 C 0.30680 0.78854 0.10096
 C2569 C 0.29820 0.79563 0.08605
 O2570 O 0.28487 0.78851 0.05730
 C2571 C 0.28263 0.77303 0.04870
 C2572 C 0.28910 0.75890 0.05785
 C2573 C 0.28779 0.74142 0.05152
 C2574 C 0.27937 0.73838 0.03513
 C2575 C 0.27266 0.75274 0.02546
 C2576 C 0.27440 0.77032 0.03225
 H2577 H 0.30634 0.74440 0.08797
 H2578 H 0.31611 0.76423 0.11288
 H2579 H 0.29583 0.80973 0.08516
 H2580 H 0.29288 0.73052 0.05904
 H2581 H 0.27791 0.72489 0.02999
 H2582 H 0.26914 0.78142 0.02516
 C2583 C 0.80164 0.30148 0.08358
 C2584 C 0.79684 0.31495 0.07242
 C2585 C 0.80021 0.33278 0.07628
 C2586 C 0.80885 0.33689 0.09233
 C2587 C 0.81394 0.32323 0.10412
 C2588 C 0.81029 0.30525 0.09954
 O2589 O 0.79687 0.28546 0.07767
 C2590 C 0.78888 0.28890 0.06244
 C2591 C 0.78853 0.30674 0.05859
 C2592 C 0.78057 0.31332 0.04345
 C2593 C 0.77251 0.30100 0.03189
 C2594 C 0.77251 0.28256 0.03570
 C2595 C 0.78100 0.27643 0.05111
 H2596 H 0.79625 0.34316 0.06732
 H2597 H 0.81160 0.35071 0.09547
 H2598 H 0.81374 0.29447 0.10826
 H2599 H 0.78039 0.32742 0.04074
 H2600 H 0.76594 0.30584 0.02020
 H2601 H 0.78125 0.26242 0.05428
 C2602 C 0.79290 0.79235 0.57144
 C2603 C 0.77582 0.79554 0.57228
 C2604 C 0.76816 0.80543 0.58618
 C2605 C 0.77852 0.81237 0.59983
 C2606 C 0.79621 0.80923 0.59947
 C2607 C 0.80348 0.79899 0.58504
 O2608 O 0.79755 0.78271 0.55689
 C2609 C 0.78305 0.77974 0.54846
 C2610 C 0.76939 0.78725 0.55743
 C2611 C 0.75295 0.78567 0.55126
 C2612 C 0.75045 0.77592 0.53514
 C2613 C 0.76428 0.76807 0.52555
 C2614 C 0.78086 0.77011 0.53223
 H2615 H 0.75467 0.80771 0.58652
 H2616 H 0.77262 0.81989 0.61085
 H2617 H 0.81692 0.79641 0.58434
 H2618 H 0.74243 0.79169 0.55861
 H2619 H 0.73775 0.77452 0.53003
 H2620 H 0.79159 0.76419 0.52516
 C2621 C 0.28372 0.70944 0.41057
 C2622 C 0.27503 0.69662 0.42032
 C2623 C 0.27431 0.67889 0.41482
 C2624 C 0.28288 0.67415 0.39857
 C2625 C 0.29213 0.68704 0.38830
 C2626 C 0.29257 0.70497 0.39448
 O2627 O 0.28270 0.72554 0.41818
 C2628 C 0.27322 0.72276 0.43310
 C2629 C 0.26830 0.70526 0.43508
 C2630 C 0.25873 0.69927 0.44996
 C2631 C 0.25408 0.71182 0.46340
 C2632 C 0.25880 0.72998 0.46157
 C2633 C 0.26847 0.73554 0.44616
 H2634 H 0.26739 0.66904 0.42275
 H2635 H 0.28254 0.66035 0.39420
 H2636 H 0.29942 0.71513 0.38691
 H2637 H 0.25511 0.68540 0.45126
 H2638 H 0.24669 0.70750 0.47517
 H2639 H 0.27237 0.74931 0.44459
 C2640 C 0.27722 0.23236 0.90255
 C2641 C 0.28146 0.25004 0.90477
 C2642 C 0.28946 0.25994 0.89116
 C2643 C 0.29356 0.25116 0.87471
 C2644 C 0.28978 0.23278 0.87220
 C2645 C 0.28114 0.22336 0.88627
 O2646 O 0.27041 0.22520 0.91750
 C2647 C 0.27044 0.23865 0.92942
 C2648 C 0.27712 0.25414 0.92231
 C2649 C 0.27941 0.26954 0.93272
 C2650 C 0.27460 0.26896 0.95122
 C2651 C 0.26739 0.25327 0.95872
 C2652 C 0.26533 0.23788 0.94771
 H2653 H 0.29275 0.27382 0.89327
 H2654 H 0.29997 0.25867 0.86408
 H2655 H 0.27833 0.20928 0.88499
 H2656 H 0.28506 0.28144 0.92692
 H2657 H 0.27660 0.28061 0.95977
 H2658 H 0.26024 0.22563 0.95335
 C2659 C 0.81034 0.70904 0.92619
 C2660 C 0.81303 0.72687 0.92313
 C2661 C 0.82403 0.73314 0.90953
 C2662 C 0.83251 0.72050 0.89857
 C2663 C 0.82963 0.70204 0.90119
 C2664 C 0.81839 0.69628 0.91525
 O2665 O 0.79971 0.70586 0.94005
 C2666 C 0.79551 0.72203 0.94582
 C2667 C 0.80319 0.73537 0.93583
 C2668 C 0.80036 0.75331 0.93939
 C2669 C 0.78927 0.75766 0.95394
 C2670 C 0.78151 0.74414 0.96465
 C2671 C 0.78468 0.72607 0.96052
 H2672 H 0.82603 0.74724 0.90745
 H2673 H 0.84098 0.72511 0.88778
 H2674 H 0.81606 0.68228 0.91769
 H2675 H 0.80647 0.76357 0.93129
 H2676 H 0.78694 0.77153 0.95710
 H2677 H 0.77884 0.71553 0.96848
 C2678 C 0.78892 0.23597 0.41003
 C2679 C 0.77165 0.23772 0.40944
 C2680 C 0.76250 0.23452 0.39379
 C2681 C 0.77145 0.22874 0.37819
 C2682 C 0.78918 0.22602 0.37858
 C2683 C 0.79810 0.23022 0.39464
 O2684 O 0.79498 0.23874 0.42658
 C2685 C 0.78121 0.24215 0.43665
 C2686 C 0.76662 0.24157 0.42678
 C2687 C 0.75061 0.24307 0.43476
 C2688 C 0.74959 0.24549 0.45368
 C2689 C 0.76444 0.24697 0.46413
 C2690 C 0.78050 0.24504 0.45548
 H2691 H 0.74890 0.23592 0.39373
 H2692 H 0.76443 0.22587 0.36599
 H2693 H 0.81154 0.22799 0.39554
 H2694 H 0.73929 0.24186 0.42679
 H2695 H 0.73722 0.24585 0.46024
 H2696 H 0.79200 0.24554 0.46322
 C2697 C 0.70874 0.30082 0.44320
 C2698 C 0.72439 0.30906 0.44228
 C2699 C 0.72854 0.32201 0.42954
 C2700 C 0.71612 0.32651 0.41713
 C2701 C 0.70007 0.31779 0.41742
 C2702 C 0.69631 0.30485 0.43077
 O2703 O 0.70758 0.28841 0.45586
 C2704 C 0.72287 0.28871 0.46296
 C2705 C 0.73369 0.30099 0.45502
 C2706 C 0.75077 0.30233 0.45916
 C2707 C 0.75697 0.29031 0.47176
 C2708 C 0.74601 0.27760 0.48008
 C2709 C 0.72863 0.27712 0.47602
 H2710 H 0.74099 0.32818 0.42897
 H2711 H 0.71929 0.33626 0.40684
 H2712 H 0.68423 0.29789 0.43122
 H2713 H 0.75913 0.31180 0.45240
 H2714 H 0.77033 0.29054 0.47473
 H2715 H 0.72017 0.26718 0.48189
 C2716 C 0.72105 0.78848 0.91616
 C2717 C 0.72231 0.77036 0.91394
 C2718 C 0.71459 0.76095 0.89991
 C2719 C 0.70506 0.77059 0.88769
 C2720 C 0.70354 0.78931 0.88957
 C2721 C 0.71185 0.79842 0.90391
 O2722 O 0.72865 0.79462 0.93100
 C2723 C 0.73483 0.78004 0.93826
 C2724 C 0.73136 0.76488 0.92824
 C2725 C 0.73608 0.74805 0.93356
 C2726 C 0.74464 0.74673 0.94996
 C2727 C 0.74837 0.76209 0.96067
 C2728 C 0.74337 0.77902 0.95470
 H2729 H 0.71564 0.74666 0.89859
 H2730 H 0.69889 0.76346 0.87673
 H2731 H 0.71069 0.81265 0.90584
 H2732 H 0.73297 0.73631 0.92556
 H2733 H 0.74795 0.73366 0.95461
 H2734 H 0.74581 0.79092 0.96274
 C2735 C 0.20796 0.29269 0.92897
 C2736 C 0.19877 0.27854 0.93579
 C2737 C 0.18341 0.27300 0.92870
 C2738 C 0.17733 0.28233 0.91384
 C2739 C 0.18670 0.29684 0.90624
 C2740 C 0.20219 0.30214 0.91419
 O2741 O 0.22249 0.29549 0.93736
 C2742 C 0.22248 0.28275 0.94970
 C2743 C 0.20825 0.27201 0.94929
 C2744 C 0.20590 0.25746 0.96059
 C2745 C 0.21884 0.25371 0.97265
 C2746 C 0.23371 0.26447 0.97317
 C2747 C 0.23540 0.27941 0.96177
 H2748 H 0.17643 0.26175 0.93426
 H2749 H 0.16544 0.27798 0.90820
 H2750 H 0.20981 0.31302 0.90888
 H2751 H 0.19465 0.24912 0.95993
 H2752 H 0.21749 0.24223 0.98133
 H2753 H 0.24646 0.28802 0.96214
 C2754 C 0.21346 0.78520 0.40652
 C2755 C 0.20848 0.76773 0.40839
 C2756 C 0.19736 0.75926 0.39662
 C2757 C 0.19104 0.76923 0.38233
 C2758 C 0.19584 0.78736 0.38008
 C2759 C 0.20734 0.79538 0.39238
 O2760 O 0.22383 0.79079 0.41947
 C2761 C 0.22539 0.77652 0.42974
 C2762 C 0.21625 0.76206 0.42351
 C2763 C 0.21560 0.74590 0.43246
 C2764 C 0.22473 0.74458 0.44851
 C2765 C 0.23447 0.75919 0.45516
 C2766 C 0.23471 0.77544 0.44564
 H2767 H 0.19361 0.74549 0.39841
 H2768 H 0.18245 0.76269 0.37306
 H2769 H 0.21118 0.80919 0.39127
 H2770 H 0.20809 0.73481 0.42744
 H2771 H 0.22393 0.73228 0.45599
 H2772 H 0.24179 0.78689 0.45056
 C2773 C 0.70949 0.71077 0.56795
 C2774 C 0.72646 0.70942 0.57137
 C2775 C 0.73255 0.70034 0.58613
 C2776 C 0.72068 0.69204 0.59775
 C2777 C 0.70309 0.69305 0.59455
 C2778 C 0.69738 0.70283 0.57959
 O2779 O 0.70654 0.71934 0.55264
 C2780 C 0.72199 0.72346 0.54632
 C2781 C 0.73457 0.71771 0.55735
 C2782 C 0.75167 0.72007 0.55321
 C2783 C 0.75604 0.72878 0.53701
 C2784 C 0.74339 0.73497 0.52536
 C2785 C 0.72607 0.73217 0.53004
 H2786 H 0.74598 0.69938 0.58841
 H2787 H 0.72523 0.68471 0.60921
 H2788 H 0.68405 0.70357 0.57668
 H2789 H 0.76131 0.71522 0.56204
 H2790 H 0.76932 0.73055 0.53341
 H2791 H 0.71618 0.73666 0.52132
 C2792 C 0.72655 0.23327 0.10161
 C2793 C 0.72340 0.25118 0.10096
 C2794 C 0.71351 0.25990 0.11414
 C2795 C 0.70659 0.24971 0.12851
 C2796 C 0.70978 0.23122 0.12946
 C2797 C 0.72003 0.22301 0.11581
 O2798 O 0.73520 0.22719 0.08722
 C2799 C 0.73761 0.24156 0.07719
 C2800 C 0.73075 0.25665 0.08498
 C2801 C 0.73110 0.27296 0.07624
 C2802 C 0.73849 0.27361 0.05865
 C2803 C 0.74528 0.25809 0.05025
 C2804 C 0.74501 0.24192 0.05981
 H2805 H 0.71094 0.27394 0.11322
 H2806 H 0.69876 0.25619 0.13883
 H2807 H 0.72235 0.20887 0.11576
 H2808 H 0.72542 0.28462 0.08248
 H2809 H 0.73832 0.28597 0.05126
 H2810 H 0.74978 0.22982 0.05354
 C2811 C 0.21803 0.70738 0.07523
 C2812 C 0.21613 0.72549 0.07691
 C2813 C 0.20791 0.73346 0.09175
 C2814 C 0.20114 0.72232 0.10531
 C2815 C 0.20285 0.70359 0.10395
 C2816 C 0.21166 0.69603 0.08878
 O2817 O 0.22567 0.70253 0.05965
 C2818 C 0.22866 0.71791 0.05138
 C2819 C 0.22313 0.73236 0.06144
 C2820 C 0.22482 0.74974 0.05535
 C2821 C 0.23257 0.75236 0.03820
 C2822 C 0.23830 0.73771 0.02753
 C2823 C 0.23628 0.72022 0.03417
 H2824 H 0.20647 0.74774 0.09269
 H2825 H 0.19449 0.72829 0.11686
 H2826 H 0.21292 0.68177 0.08724
 H2827 H 0.22035 0.76088 0.06352
 H2828 H 0.23415 0.76577 0.03316
 H2829 H 0.24066 0.70887 0.02625
 C2830 C 0.21102 0.22770 0.59784
 C2831 C 0.22768 0.22291 0.59586
 C2832 C 0.23535 0.21141 0.60769
 C2833 C 0.22543 0.20444 0.62208
 C2834 C 0.20809 0.20891 0.62433
 C2835 C 0.20090 0.22092 0.61204
 O2836 O 0.20601 0.23827 0.58471
 C2837 C 0.21980 0.24012 0.57419
 C2838 C 0.23340 0.23097 0.58041
 C2839 C 0.24881 0.23022 0.57095
 C2840 C 0.25023 0.23918 0.55434
 C2841 C 0.23648 0.24895 0.54767
 C2842 C 0.22104 0.24939 0.55783
 H2843 H 0.24848 0.20777 0.60580
 H2844 H 0.23133 0.19548 0.63131
 H2845 H 0.18772 0.22453 0.61308
 H2846 H 0.25921 0.22259 0.57591
 H2847 H 0.26189 0.23805 0.54641
 H2848 H 0.21021 0.25639 0.55293
   
