data_POSCAR
  _audit_creation_date              2014-09-24
  _audit_creation_method            'ToBaCCo'
  _symmetry_space_group_name_H-M    'P1'
  _symmetry_Int_Tables_number       1
  _symmetry_cell_setting            triclinic
  loop_
  _symmetry_equiv_pos_as_xyz
 x,y,z
_cell_length_a 65.7401
_cell_length_b 65.8366
_cell_length_c 66.0085
_cell_angle_alpha 89.999700
_cell_angle_beta 90.011400
_cell_angle_gamma 90.009100
loop_
  _atom_site_label
  _atom_site_type_symbol
  _atom_site_fract_x
  _atom_site_fract_y
  _atom_site_fract_z
N1 N 0.17428 0.22336 0.22719
 N2 N 0.17956 0.20703 0.23742
 C3 C 0.16654 0.20447 0.25298
 C4 C 0.15250 0.22000 0.25233
 C5 C 0.15775 0.23173 0.23587
 H6 H 0.16717 0.19229 0.26395
 H7 H 0.15011 0.24529 0.23060
 Cu8 Cu 0.20289 0.19075 0.22938
 Cu9 Cu 0.18919 0.23253 0.20341
 Cu10 Cu 0.23133 0.20425 0.18920
 N11 N 0.22683 0.17529 0.22147
 N12 N 0.23788 0.18066 0.20574
 C13 C 0.25342 0.16751 0.20361
 C14 C 0.25195 0.15325 0.21881
 C15 C 0.23500 0.15852 0.22990
 H16 H 0.26492 0.16825 0.19191
 H17 H 0.22912 0.15072 0.24308
 N18 N 0.22226 0.22860 0.17439
 N19 N 0.20620 0.23938 0.17980
 C20 C 0.20391 0.25495 0.16674
 C21 C 0.21923 0.25381 0.15257
 C22 C 0.23060 0.23703 0.15774
 H23 H 0.19201 0.26626 0.16743
 H24 H 0.24391 0.23142 0.14992
 H25 H 0.20045 0.20443 0.19511
 H26 H 0.21686 0.22028 0.21196
 N27 N 0.67503 0.72425 0.72817
 N28 N 0.68077 0.70835 0.73882
 C29 C 0.66778 0.70576 0.75440
 C30 C 0.65328 0.72083 0.75334
 C31 C 0.65822 0.73232 0.73661
 H32 H 0.66873 0.69385 0.76564
 H33 H 0.65019 0.74551 0.73100
 Cu34 Cu 0.70461 0.69258 0.73123
 Cu35 Cu 0.68969 0.73326 0.70419
 Cu36 Cu 0.73173 0.70494 0.68979
 N37 N 0.72796 0.67658 0.72267
 N38 N 0.73850 0.68150 0.70645
 C39 C 0.75371 0.66803 0.70395
 C40 C 0.75255 0.65403 0.71941
 C41 C 0.73613 0.65978 0.73104
 H42 H 0.76477 0.66839 0.69182
 H43 H 0.73059 0.65227 0.74453
 N44 N 0.72248 0.72917 0.67489
 N45 N 0.70646 0.73996 0.68038
 C46 C 0.70407 0.75548 0.66727
 C47 C 0.71928 0.75428 0.65299
 C48 C 0.73070 0.73753 0.65815
 H49 H 0.69220 0.76681 0.66802
 H50 H 0.74398 0.73191 0.65027
 H51 H 0.70102 0.70496 0.69660
 H52 H 0.71772 0.72163 0.71234
 N53 N 0.32468 0.77661 0.72797
 N54 N 0.31914 0.79274 0.73837
 C55 C 0.33212 0.79535 0.75397
 C56 C 0.34640 0.78005 0.75317
 C57 C 0.34134 0.76841 0.73657
 H58 H 0.33130 0.80741 0.76505
 H59 H 0.34919 0.75503 0.73117
 Cu60 Cu 0.29553 0.80868 0.73043
 Cu61 Cu 0.30994 0.76746 0.70406
 Cu62 Cu 0.26780 0.79569 0.68966
 N63 N 0.27187 0.82441 0.72222
 N64 N 0.26108 0.81922 0.70624
 C65 C 0.24567 0.83249 0.70389
 C66 C 0.24700 0.84664 0.71920
 C67 C 0.26369 0.84120 0.73060
 H68 H 0.23440 0.83190 0.69196
 H69 H 0.26941 0.84889 0.74392
 N70 N 0.27702 0.77139 0.67484
 N71 N 0.29308 0.76064 0.68032
 C72 C 0.29548 0.74511 0.66724
 C73 C 0.28023 0.74624 0.65299
 C74 C 0.26879 0.76297 0.65813
 H75 H 0.30740 0.73382 0.66797
 H76 H 0.25549 0.76856 0.65026
 H77 H 0.29859 0.79560 0.69600
 H78 H 0.28206 0.77934 0.71231
 N79 N 0.82553 0.27623 0.22799
 N80 N 0.81995 0.29233 0.23842
 C81 C 0.83291 0.29495 0.25403
 C82 C 0.84721 0.27968 0.25319
 C83 C 0.84221 0.26804 0.23658
 H84 H 0.83205 0.30700 0.26514
 H85 H 0.85008 0.25468 0.23115
 Cu86 Cu 0.79632 0.30825 0.23049
 Cu87 Cu 0.81081 0.26709 0.20406
 Cu88 Cu 0.76862 0.29527 0.18969
 N89 N 0.77263 0.32394 0.22229
 N90 N 0.76186 0.31876 0.20630
 C91 C 0.74644 0.33201 0.20397
 C92 C 0.74770 0.34615 0.21930
 C93 C 0.76440 0.34070 0.23069
 H94 H 0.73517 0.33143 0.19204
 H95 H 0.77006 0.34837 0.24403
 N96 N 0.77789 0.27101 0.17484
 N97 N 0.79396 0.26027 0.18031
 C98 C 0.79636 0.24474 0.16722
 C99 C 0.78110 0.24587 0.15297
 C100 C 0.76965 0.26259 0.15813
 H101 H 0.80828 0.23345 0.16795
 H102 H 0.75634 0.26816 0.15027
 H103 H 0.79941 0.29522 0.19605
 H104 H 0.78290 0.27891 0.21232
 N105 N 0.82553 0.72364 0.27252
 N106 N 0.82024 0.70728 0.26235
 C107 C 0.83324 0.70467 0.24678
 C108 C 0.84729 0.72020 0.24736
 C109 C 0.84206 0.73198 0.26380
 H110 H 0.83259 0.69245 0.23585
 H111 H 0.84970 0.74556 0.26900
 Cu112 Cu 0.79691 0.69102 0.27046
 Cu113 Cu 0.81064 0.73290 0.29628
 Cu114 Cu 0.76850 0.70468 0.31060
 N115 N 0.77295 0.67561 0.27843
 N116 N 0.76191 0.68104 0.29414
 C117 C 0.74635 0.66791 0.29632
 C118 C 0.74781 0.65360 0.28117
 C119 C 0.76477 0.65882 0.27006
 H120 H 0.73486 0.66870 0.30802
 H121 H 0.77063 0.65097 0.25691
 N122 N 0.77759 0.72907 0.32533
 N123 N 0.79366 0.73982 0.31988
 C124 C 0.79597 0.75542 0.33290
 C125 C 0.78066 0.75433 0.34709
 C126 C 0.76927 0.73755 0.34196
 H127 H 0.80789 0.76672 0.33219
 H128 H 0.75596 0.73196 0.34981
 H129 H 0.79937 0.70483 0.30468
 H130 H 0.78298 0.72062 0.28778
 N131 N 0.32597 0.22364 -0.22777
 N132 N 0.32068 0.20730 -0.23798
 C133 C 0.33372 0.20469 -0.25353
 C134 C 0.34777 0.22021 -0.25286
 C135 C 0.34253 0.23199 -0.23642
 H136 H 0.33307 0.19248 -0.26448
 H137 H 0.35017 0.24555 -0.23116
 Cu138 Cu 0.29731 0.19106 -0.22994
 Cu139 Cu 0.31104 0.23286 -0.20402
 Cu140 Cu 0.26886 0.20462 -0.18981
 N141 N 0.27336 0.17561 -0.22203
 N142 N 0.26230 0.18101 -0.20631
 C143 C 0.24677 0.16785 -0.20415
 C144 C 0.24826 0.15355 -0.21931
 C145 C 0.26520 0.15881 -0.23042
 H146 H 0.23528 0.16860 -0.19245
 H147 H 0.27110 0.15098 -0.24356
 N148 N 0.27793 0.22900 -0.17503
 N149 N 0.29400 0.23976 -0.18044
 C150 C 0.29629 0.25535 -0.16740
 C151 C 0.28096 0.25423 -0.15325
 C152 C 0.26958 0.23746 -0.15841
 H153 H 0.30821 0.26665 -0.16808
 H154 H 0.25626 0.23186 -0.15059
 H155 H 0.29974 0.20478 -0.19569
 H156 H 0.28337 0.22062 -0.21257
 N157 N 0.67416 0.27620 -0.22778
 N158 N 0.67948 0.29251 -0.23801
 C159 C 0.66647 0.29512 -0.25359
 C160 C 0.65240 0.27962 -0.25292
 C161 C 0.65760 0.26786 -0.23645
 H162 H 0.66714 0.30732 -0.26455
 H163 H 0.64993 0.25432 -0.23118
 Cu164 Cu 0.70287 0.30874 -0.22996
 Cu165 Cu 0.68905 0.26700 -0.20399
 Cu166 Cu 0.73124 0.29521 -0.18976
 N167 N 0.72683 0.32417 -0.22204
 N168 N 0.73786 0.31879 -0.20629
 C169 C 0.75342 0.33192 -0.20414
 C170 C 0.75198 0.34618 -0.21934
 C171 C 0.73503 0.34093 -0.23046
 H172 H 0.76490 0.33116 -0.19242
 H173 H 0.72917 0.34874 -0.24364
 N174 N 0.72212 0.27088 -0.17495
 N175 N 0.70604 0.26012 -0.18037
 C176 C 0.70372 0.24456 -0.16731
 C177 C 0.71904 0.24568 -0.15313
 C178 C 0.73044 0.26244 -0.15830
 H179 H 0.69180 0.23326 -0.16800
 H180 H 0.74376 0.26803 -0.15047
 H181 H 0.70037 0.29508 -0.19569
 H182 H 0.71674 0.27919 -0.21251
 N183 N 0.17539 0.77648 0.27197
 N184 N 0.18094 0.79260 0.26156
 C185 C 0.16796 0.79520 0.24597
 C186 C 0.15366 0.77992 0.24678
 C187 C 0.15872 0.76829 0.26338
 H188 H 0.16878 0.80726 0.23487
 H189 H 0.15085 0.75492 0.26880
 Cu190 Cu 0.20455 0.80856 0.26949
 Cu191 Cu 0.19013 0.76734 0.29589
 Cu192 Cu 0.23226 0.79561 0.31029
 N193 N 0.22820 0.82430 0.27770
 N194 N 0.23897 0.81913 0.29370
 C195 C 0.25437 0.83242 0.29606
 C196 C 0.25307 0.84655 0.28072
 C197 C 0.23639 0.84108 0.26931
 H198 H 0.26563 0.83185 0.30801
 H199 H 0.23070 0.84874 0.25597
 N200 N 0.22303 0.77131 0.32512
 N201 N 0.20699 0.76054 0.31963
 C202 C 0.20461 0.74499 0.33270
 C203 C 0.21985 0.74614 0.34696
 C204 C 0.23127 0.76289 0.34183
 H205 H 0.19271 0.73368 0.33196
 H206 H 0.24456 0.76849 0.34971
 H207 H 0.20147 0.79549 0.30393
 H208 H 0.21802 0.77924 0.28765
 N209 N 0.47345 0.42442 0.47784
 N210 N 0.45710 0.42977 0.48802
 C211 C 0.45447 0.41681 0.50361
 C212 C 0.46997 0.40273 0.50303
 C213 C 0.48176 0.40791 0.48657
 H214 H 0.44225 0.41751 0.51456
 H215 H 0.49534 0.40023 0.48136
 Cu216 Cu 0.44090 0.45312 0.47993
 Cu217 Cu 0.48274 0.43924 0.45405
 Cu218 Cu 0.45463 0.48142 0.43975
 N219 N 0.42556 0.47711 0.47198
 N220 N 0.43102 0.48811 0.45625
 C221 C 0.41795 0.50370 0.45409
 C222 C 0.40364 0.50232 0.46927
 C223 C 0.40881 0.48537 0.48038
 H224 H 0.41877 0.51517 0.44239
 H225 H 0.40094 0.47955 0.49355
 N226 N 0.47898 0.47223 0.42498
 N227 N 0.48970 0.45616 0.43043
 C228 C 0.50529 0.45379 0.41739
 C229 C 0.50423 0.46908 0.40320
 C230 C 0.48748 0.48051 0.40833
 H231 H 0.51657 0.44186 0.41810
 H232 H 0.48193 0.49382 0.40049
 H233 H 0.47057 0.46691 0.46256
 H234 H 0.45466 0.45059 0.44569
 N235 N -0.02632 -0.07540 0.97716
 N236 N -0.04266 -0.07007 0.98737
 C237 C -0.04528 -0.08303 1.00295
 C238 C -0.02979 -0.09711 1.00234
 C239 C -0.01801 -0.09193 0.98587
 H240 H -0.05749 -0.08234 1.01391
 H241 H -0.00444 -0.09960 0.98064
 Cu242 Cu -0.05888 -0.04671 0.97929
 Cu243 Cu -0.01705 -0.06057 0.95338
 Cu244 Cu -0.04519 -0.01838 0.93913
 N245 N -0.07424 -0.02273 0.97136
 N246 N -0.06880 -0.01172 0.95563
 C247 C -0.08190 0.00385 0.95348
 C248 C -0.09620 0.00244 0.96866
 C249 C -0.09101 -0.01451 0.97976
 H250 H -0.08110 0.01533 0.94179
 H251 H -0.09887 -0.02035 0.99293
 N252 N -0.02083 -0.02754 0.92434
 N253 N -0.01011 -0.04362 0.92976
 C254 C 0.00548 -0.04598 0.91672
 C255 C 0.00441 -0.03068 0.90254
 C256 C -0.01234 -0.01925 0.90770
 H257 H 0.01675 -0.05792 0.91741
 H258 H -0.01789 -0.00593 0.89987
 H259 H -0.02922 -0.03290 0.96191
 H260 H -0.04514 -0.04921 0.94504
 N261 N 1.02582 0.57481 0.97796
 N262 N 1.04169 0.56900 0.98864
 C263 C 1.04436 0.58201 1.00418
 C264 C 1.02937 0.59660 1.00306
 C265 C 1.01785 0.59168 0.98633
 H266 H 1.05626 0.58102 1.01544
 H267 H 1.00470 0.59976 0.98068
 Cu268 Cu 1.05732 0.54505 0.98116
 Cu269 Cu 1.01670 0.56013 0.95403
 Cu270 Cu 1.04475 0.51788 0.93984
 N271 N 1.07318 0.52159 0.97270
 N272 N 1.06818 0.51103 0.95653
 C273 C 1.08156 0.49574 0.95408
 C274 C 1.09561 0.49688 0.96953
 C275 C 1.08996 0.51337 0.98110
 H276 H 1.08114 0.48466 0.94200
 H277 H 1.09753 0.51891 0.99455
 N278 N 1.02056 0.52721 0.92488
 N279 N 1.00987 0.54332 0.93029
 C280 C 0.99436 0.54576 0.91716
 C281 C 0.99545 0.53049 0.90295
 C282 C 1.01213 0.51899 0.90817
 H283 H 0.98310 0.55771 0.91784
 H284 H 1.01766 0.50565 0.90037
 H285 H 1.02814 0.53209 0.96231
 H286 H 1.04496 0.54857 0.94651
 N287 N 0.52626 0.07557 0.47792
 N288 N 0.54260 0.07022 0.48812
 C289 C 0.54524 0.08320 0.50370
 C290 C 0.52976 0.09729 0.50308
 C291 C 0.51797 0.09211 0.48662
 H292 H 0.55746 0.08251 0.51465
 H293 H 0.50441 0.09979 0.48138
 Cu294 Cu 0.55880 0.04686 0.48003
 Cu295 Cu 0.51697 0.06073 0.45414
 Cu296 Cu 0.54511 0.01856 0.43985
 N297 N 0.57419 0.02291 0.47208
 N298 N 0.56874 0.01191 0.45634
 C299 C 0.58186 -0.00364 0.45416
 C300 C 0.59618 -0.00223 0.46932
 C301 C 0.59098 0.01470 0.48046
 H302 H 0.58106 -0.01509 0.44244
 H303 H 0.59884 0.02053 0.49362
 N304 N 0.52073 0.02772 0.42509
 N305 N 0.51001 0.04379 0.43053
 C306 C 0.49440 0.04614 0.41749
 C307 C 0.49546 0.03085 0.40331
 C308 C 0.51222 0.01943 0.40845
 H309 H 0.48312 0.05807 0.41820
 H310 H 0.51778 0.00611 0.40061
 H311 H 0.52915 0.03306 0.46264
 H312 H 0.54506 0.04939 0.44578
 N313 N -0.02595 0.07516 0.52189
 N314 N -0.04186 0.06937 0.51126
 C315 C -0.04455 0.08237 0.49572
 C316 C -0.02952 0.09693 0.49677
 C317 C -0.01796 0.09200 0.51347
 H318 H -0.05650 0.08139 0.48449
 H319 H -0.00477 0.10007 0.51907
 Cu320 Cu -0.05752 0.04546 0.51881
 Cu321 Cu -0.01679 0.06049 0.54581
 Cu322 Cu -0.04490 0.01830 0.56012
 N323 N -0.07341 0.02203 0.52732
 N324 N -0.06838 0.01147 0.54349
 C325 C -0.08177 -0.00380 0.54597
 C326 C -0.09585 -0.00266 0.53055
 C327 C -0.09021 0.01381 0.51897
 H328 H -0.08133 -0.01489 0.55805
 H329 H -0.09780 0.01935 0.50552
 N330 N -0.02065 0.02760 0.57500
 N331 N -0.00993 0.04368 0.56955
 C332 C 0.00562 0.04610 0.58263
 C333 C 0.00453 0.03085 0.59686
 C334 C -0.01219 0.01938 0.59169
 H335 H 0.01691 0.05803 0.58191
 H336 H -0.01773 0.00606 0.59952
 H337 H -0.02831 0.03247 0.53758
 H338 H -0.04505 0.04899 0.55342
 N339 N 0.47412 0.57485 0.02205
 N340 N 0.45823 0.56908 0.01138
 C341 C 0.45560 0.58208 -0.00417
 C342 C 0.47064 0.59662 -0.00307
 C343 C 0.48214 0.59169 0.01366
 H344 H 0.44369 0.58112 -0.01543
 H345 H 0.49532 0.59974 0.01930
 Cu346 Cu 0.44252 0.54519 0.01888
 Cu347 Cu 0.48317 0.56018 0.04602
 Cu348 Cu 0.45495 0.51804 0.06026
 N349 N 0.42658 0.52178 0.02735
 N350 N 0.43153 0.51123 0.04354
 C351 C 0.41810 0.49598 0.04598
 C352 C 0.40409 0.49713 0.03051
 C353 C 0.40979 0.51359 0.01893
 H354 H 0.41848 0.48490 0.05808
 H355 H 0.40226 0.51913 0.00546
 N356 N 0.47916 0.52733 0.07522
 N357 N 0.48991 0.54339 0.06980
 C358 C 0.50542 0.54581 0.08294
 C359 C 0.50426 0.53057 0.09718
 C360 C 0.48754 0.51912 0.09196
 H361 H 0.51673 0.55771 0.08224
 H362 H 0.48195 0.50581 0.09978
 H363 H 0.47164 0.53217 0.03777
 H364 H 0.45487 0.54873 0.05353
 N365 N 0.52604 -0.07480 0.02235
 N366 N 0.54190 -0.06899 0.01166
 C367 C 0.54452 -0.08197 -0.00391
 C368 C 0.52951 -0.09653 -0.00281
 C369 C 0.51802 -0.09163 0.01395
 H370 H 0.55641 -0.08096 -0.01519
 H371 H 0.50486 -0.09971 0.01959
 Cu372 Cu 0.55758 -0.04508 0.01918
 Cu373 Cu 0.51698 -0.06016 0.04632
 Cu374 Cu 0.54512 -0.01797 0.06056
 N375 N 0.57349 -0.02164 0.02765
 N376 N 0.56853 -0.01111 0.04385
 C377 C 0.58193 0.00417 0.04630
 C378 C 0.59594 0.00305 0.03082
 C379 C 0.59026 -0.01342 0.01924
 H380 H 0.58154 0.01524 0.05840
 H381 H 0.59780 -0.01894 0.00577
 N382 N 0.52094 -0.02730 0.07553
 N383 N 0.51022 -0.04339 0.07010
 C384 C 0.49472 -0.04584 0.08324
 C385 C 0.49585 -0.03060 0.09748
 C386 C 0.51254 -0.01910 0.09226
 H387 H 0.48344 -0.05777 0.08255
 H388 H 0.51810 -0.00578 0.10009
 H389 H 0.52845 -0.03212 0.03808
 H390 H 0.54527 -0.04864 0.05383
 N391 N 1.02650 0.42473 0.52230
 N392 N 1.04281 0.43009 0.51206
 C393 C 1.04541 0.41712 0.49648
 C394 C 1.02993 0.40302 0.49713
 C395 C 1.01819 0.40819 0.51362
 H396 H 1.05759 0.41783 0.48549
 H397 H 1.00465 0.40049 0.51889
 Cu398 Cu 1.05901 0.45348 0.52011
 Cu399 Cu 1.01726 0.43955 0.54610
 Cu400 Cu 1.04538 0.48177 0.56031
 N401 N 1.07437 0.47746 0.52802
 N402 N 1.06896 0.48846 0.54376
 C403 C 1.08206 0.50404 0.54590
 C404 C 1.09634 0.50264 0.53069
 C405 C 1.09113 0.48570 0.51959
 H406 H 1.08128 0.51549 0.55762
 H407 H 1.09896 0.47987 0.50641
 N408 N 1.02106 0.47258 0.57514
 N409 N 1.01034 0.45649 0.56973
 C410 C 0.99477 0.45412 0.58280
 C411 C 0.99585 0.46942 0.59697
 C412 C 1.01259 0.48086 0.59179
 H413 H 0.98350 0.44217 0.58212
 H414 H 1.01814 0.49419 0.59961
 H415 H 1.02938 0.46724 0.53756
 H416 H 1.04536 0.45095 0.55439
 C417 C 0.40469 0.00923 0.22307
 H418 H 0.40547 0.02301 0.23196
 C419 C 0.41800 0.00638 0.20684
 H420 H 0.42911 0.01803 0.20340
 C421 C 0.38965 -0.02296 0.21726
 H422 H 0.37876 -0.03447 0.22150
 C423 C 0.40269 -0.02645 0.20093
 H424 H 0.40138 -0.04050 0.19251
 N425 N 0.39071 -0.00524 0.22780
 C426 C 0.34237 0.02707 0.25958
 H427 H 0.34156 0.01823 0.27337
 C428 C 0.32911 0.04337 0.25664
 H429 H 0.31829 0.04717 0.26842
 C430 C 0.35762 0.03284 0.22757
 H431 H 0.36848 0.02848 0.21611
 C432 C 0.34467 0.04927 0.22401
 H433 H 0.34573 0.05737 0.20978
 Zn434 Zn 0.37354 -0.00028 0.25029
 N435 N 0.35642 0.02228 0.24524
 C436 C 0.38935 0.02251 0.28340
 N437 N 0.39055 0.00477 0.27289
 C438 C 0.40458 -0.00961 0.27773
 C439 C 0.41780 -0.00667 0.29402
 C440 C 0.40230 0.02609 0.29979
 C441 C 0.34254 -0.02777 0.24081
 C442 C 0.32933 -0.04413 0.24366
 C443 C 0.34474 -0.04998 0.27637
 C444 C 0.35765 -0.03351 0.27290
 N445 N 0.35650 -0.02293 0.25523
 H446 H 0.37844 0.03396 0.27908
 H447 H 0.40547 -0.02341 0.26886
 H448 H 0.42895 -0.01825 0.29752
 H449 H 0.40089 0.04016 0.30817
 H450 H 0.34176 -0.01893 0.22702
 H451 H 0.31858 -0.04796 0.23183
 H452 H 0.34576 -0.05810 0.29060
 H453 H 0.36844 -0.02910 0.28442
 C454 C 0.33020 0.05476 0.23869
 C455 C 0.41707 -0.01164 0.19549
 C456 C 0.33037 -0.05553 0.26162
 C457 C 0.41673 0.01137 0.30533
 C458 C 0.09556 -0.00948 0.72239
 H459 H 0.09467 -0.02326 0.73127
 C460 C 0.08230 -0.00654 0.70613
 H461 H 0.07113 -0.01812 0.70267
 C462 C 0.11080 0.02262 0.71663
 H463 H 0.12174 0.03408 0.72092
 C464 C 0.09781 0.02620 0.70027
 H465 H 0.09922 0.04025 0.69187
 N466 N 0.10960 0.00491 0.72717
 C467 C 0.15771 -0.02760 0.75913
 H468 H 0.15854 -0.01872 0.77290
 C469 C 0.17091 -0.04396 0.75627
 H470 H 0.18169 -0.04777 0.76807
 C471 C 0.14248 -0.03339 0.72711
 H472 H 0.13165 -0.02901 0.71562
 C473 C 0.15537 -0.04988 0.72362
 H474 H 0.15429 -0.05803 0.70941
 Zn475 Zn 0.12667 -0.00013 0.74973
 N476 N 0.14370 -0.02279 0.74476
 C477 C 0.11068 -0.02280 0.78282
 N478 N 0.10956 -0.00509 0.77226
 C479 C 0.09557 0.00935 0.77702
 C480 C 0.08229 0.00649 0.79327
 C481 C 0.09767 -0.02631 0.79917
 C482 C 0.15783 0.02721 0.74035
 C483 C 0.17110 0.04352 0.74323
 C484 C 0.15564 0.04943 0.77591
 C485 C 0.14265 0.03302 0.77238
 N486 N 0.14381 0.02244 0.75472
 H487 H 0.12158 -0.03430 0.77856
 H488 H 0.09475 0.02313 0.76812
 H489 H 0.07117 0.01811 0.79671
 H490 H 0.09902 -0.04036 0.80759
 H491 H 0.15868 0.01829 0.72661
 H492 H 0.18224 0.04698 0.73166
 H493 H 0.15425 0.05787 0.78991
 H494 H 0.13173 0.02874 0.78382
 C495 C 0.16979 -0.05539 0.73834
 C496 C 0.08335 0.01148 0.69479
 C497 C 0.17007 0.05491 0.76120
 C498 C 0.08327 -0.01153 0.80463
 C499 C 0.59513 0.49046 0.22291
 H500 H 0.59429 0.47668 0.23179
 C501 C 0.58187 0.49335 0.20664
 H502 H 0.57074 0.48174 0.20317
 C503 C 0.61026 0.52262 0.21717
 H504 H 0.62115 0.53411 0.22146
 C505 C 0.59727 0.52615 0.20080
 H506 H 0.59863 0.54021 0.19240
 N507 N 0.60913 0.50490 0.22770
 C508 C 0.65733 0.47249 0.25960
 H509 H 0.65813 0.48133 0.27339
 C510 C 0.67057 0.45617 0.25670
 H511 H 0.68136 0.45236 0.26850
 C512 C 0.64213 0.46673 0.22755
 H513 H 0.63130 0.47110 0.21606
 C514 C 0.65507 0.45028 0.22403
 H515 H 0.65402 0.44217 0.20980
 Zn516 Zn 0.62623 0.49990 0.25023
 N517 N 0.64332 0.47729 0.24522
 C518 C 0.61032 0.47715 0.28331
 N519 N 0.60917 0.49488 0.27279
 C520 C 0.59518 0.50931 0.27760
 C521 C 0.58194 0.50641 0.29388
 C522 C 0.59735 0.47361 0.29968
 C523 C 0.65731 0.52731 0.24082
 C524 C 0.67055 0.54364 0.24369
 C525 C 0.65510 0.54954 0.27636
 C526 C 0.64216 0.53309 0.27287
 N527 N 0.64332 0.52251 0.25521
 H528 H 0.62121 0.46567 0.27900
 H529 H 0.59433 0.52310 0.26873
 H530 H 0.57081 0.51802 0.29737
 H531 H 0.59872 0.45954 0.30807
 H532 H 0.65809 0.51846 0.22703
 H533 H 0.68132 0.54745 0.23188
 H534 H 0.65407 0.55767 0.29059
 H535 H 0.63134 0.52872 0.28437
 C536 C 0.66950 0.44477 0.23874
 C537 C 0.58287 0.51138 0.19530
 C538 C 0.66951 0.55505 0.26164
 C539 C 0.58295 0.48837 0.30520
 C540 C 0.90472 0.50935 0.72254
 H541 H 0.90555 0.52312 0.73146
 C542 C 0.91801 0.50650 0.70629
 H543 H 0.92914 0.51812 0.70287
 C544 C 0.88958 0.47722 0.71668
 H545 H 0.87868 0.46572 0.72092
 C546 C 0.90260 0.47372 0.70033
 H547 H 0.90124 0.45968 0.69190
 N548 N 0.89071 0.49491 0.72726
 C549 C 0.84246 0.52719 0.75921
 H550 H 0.84159 0.51823 0.77293
 C551 C 0.82922 0.54352 0.75637
 H552 H 0.81808 0.54697 0.76794
 C553 C 0.85767 0.53306 0.72720
 H554 H 0.86859 0.52881 0.71575
 C555 C 0.84471 0.54950 0.72372
 H556 H 0.84612 0.55798 0.70973
 Zn557 Zn 0.87359 0.49985 0.74980
 N558 N 0.85649 0.52244 0.74483
 C559 C 0.88947 0.52253 0.78294
 N560 N 0.89065 0.50484 0.77237
 C561 C 0.90468 0.49043 0.77714
 C562 C 0.91792 0.49332 0.79342
 C563 C 0.90243 0.52607 0.79932
 C564 C 0.84253 0.47244 0.74033
 C565 C 0.82929 0.45610 0.74317
 C566 C 0.84479 0.45012 0.77582
 C567 C 0.85772 0.46658 0.77235
 N568 N 0.85654 0.47721 0.75472
 H569 H 0.87855 0.53400 0.77866
 H570 H 0.90556 0.47667 0.76823
 H571 H 0.92908 0.48173 0.79688
 H572 H 0.90103 0.54011 0.80775
 H573 H 0.84172 0.48132 0.72656
 H574 H 0.81849 0.45233 0.73137
 H575 H 0.84584 0.44196 0.79002
 H576 H 0.86855 0.47092 0.78386
 C577 C 0.83028 0.55496 0.73844
 C578 C 0.91702 0.48850 0.69491
 C579 C 0.83035 0.44465 0.76110
 C580 C 0.91687 0.51133 0.80480
 C581 C 0.22248 0.40688 0.00931
 H582 H 0.23137 0.40766 0.02308
 C583 C 0.20609 0.42007 0.00649
 H584 H 0.20229 0.43080 0.01833
 C585 C 0.21665 0.39178 -0.02275
 H586 H 0.22103 0.38101 -0.03429
 C587 C 0.20014 0.40467 -0.02620
 H588 H 0.19198 0.40364 -0.04041
 N589 N 0.22728 0.39294 -0.00511
 C590 C 0.25950 0.34484 0.02707
 H591 H 0.27334 0.34410 0.01823
 C592 C 0.25664 0.33155 0.04330
 H593 H 0.26851 0.32079 0.04705
 C594 C 0.22730 0.35990 0.03289
 H595 H 0.21572 0.37070 0.02856
 C596 C 0.22381 0.34692 0.04925
 H597 H 0.20953 0.34790 0.05736
 Zn598 Zn 0.24997 0.37592 -0.00020
 N599 N 0.24503 0.35881 0.02233
 C600 C 0.28318 0.39187 0.02245
 N601 N 0.27258 0.39302 0.00479
 C602 C 0.27735 0.40702 -0.00959
 C603 C 0.29368 0.42027 -0.00672
 C604 C 0.29962 0.40484 0.02596
 C605 C 0.24054 0.34492 -0.02759
 C606 C 0.24345 0.33171 -0.04387
 C607 C 0.27626 0.34716 -0.04971
 C608 C 0.27271 0.36010 -0.03332
 N609 N 0.25497 0.35891 -0.02278
 H610 H 0.27891 0.38097 0.03390
 H611 H 0.26841 0.40787 -0.02332
 H612 H 0.29715 0.43139 -0.01829
 H613 H 0.30808 0.40346 0.03997
 H614 H 0.22674 0.34404 -0.01870
 H615 H 0.23183 0.32058 -0.04736
 H616 H 0.29034 0.34856 -0.05811
 H617 H 0.28420 0.37099 -0.02902
 C618 C 0.23861 0.33253 0.05468
 C619 C 0.19463 0.41902 -0.01144
 C620 C 0.26150 0.33276 -0.05521
 C621 C 0.30510 0.41925 0.01124
 C622 C 0.72268 0.09305 -0.00938
 H623 H 0.73151 0.09227 -0.02319
 C624 C 0.70632 0.07984 -0.00647
 H625 H 0.70247 0.06910 -0.01828
 C626 C 0.71700 0.10817 0.02270
 H627 H 0.72142 0.11896 0.03420
 C628 C 0.70051 0.09527 0.02623
 H629 H 0.69242 0.09630 0.04047
 N630 N 0.72754 0.10702 0.00501
 C631 C 0.75957 0.15507 -0.02743
 H632 H 0.77345 0.15584 -0.01865
 C633 C 0.75664 0.16830 -0.04370
 H634 H 0.76850 0.17904 -0.04753
 C635 C 0.72735 0.13997 -0.03307
 H636 H 0.71579 0.12919 -0.02866
 C637 C 0.72379 0.15290 -0.04947
 H638 H 0.70947 0.15188 -0.05751
 Zn639 Zn 0.75018 0.12407 -0.00003
 N640 N 0.74512 0.14111 -0.02258
 C641 C 0.78334 0.10813 -0.02274
 N642 N 0.77280 0.10701 -0.00504
 C643 C 0.77766 0.09305 0.00935
 C644 C 0.79398 0.07981 0.00644
 C645 C 0.79979 0.09519 -0.02628
 C646 C 0.74077 0.15510 0.02733
 C647 C 0.74369 0.16833 0.04360
 C648 C 0.77658 0.15301 0.04934
 C649 C 0.77301 0.14005 0.03298
 N650 N 0.75523 0.14115 0.02250
 H651 H 0.77892 0.11892 -0.03425
 H652 H 0.76884 0.09229 0.02317
 H653 H 0.79782 0.06907 0.01826
 H654 H 0.80786 0.09620 -0.04054
 H655 H 0.72693 0.15591 0.01849
 H656 H 0.73204 0.17941 0.04712
 H657 H 0.79069 0.15167 0.05770
 H658 H 0.78452 0.12919 0.02865
 C659 C 0.73857 0.16727 -0.05501
 C660 C 0.69494 0.08090 0.01151
 C661 C 0.76178 0.16736 0.05489
 C662 C 0.80534 0.08082 -0.01155
 C663 C 0.22270 0.59322 0.49046
 H664 H 0.23160 0.59246 0.47669
 C665 C 0.20635 0.57998 0.49328
 H666 H 0.20257 0.56924 0.48145
 C667 C 0.21683 0.60832 0.52252
 H668 H 0.22119 0.61910 0.53405
 C669 C 0.20036 0.59538 0.52596
 H670 H 0.19219 0.59639 0.54017
 N671 N 0.22747 0.60718 0.50488
 C672 C 0.25972 0.65526 0.47269
 H673 H 0.27354 0.65601 0.48156
 C674 C 0.25689 0.66851 0.45643
 H675 H 0.26878 0.67927 0.45269
 C676 C 0.22753 0.64017 0.46682
 H677 H 0.21595 0.62938 0.47113
 C678 C 0.22408 0.65313 0.45042
 H679 H 0.20981 0.65213 0.44229
 Zn680 Zn 0.25014 0.62424 0.50000
 N681 N 0.24524 0.64129 0.47742
 C682 C 0.28343 0.60829 0.47748
 N683 N 0.27279 0.60717 0.49512
 C684 C 0.27755 0.59321 0.50955
 C685 C 0.29388 0.57995 0.50673
 C686 C 0.29988 0.59533 0.47404
 C687 C 0.24055 0.65527 0.52728
 C688 C 0.24337 0.66854 0.54354
 C689 C 0.27621 0.65322 0.54952
 C690 C 0.27275 0.64022 0.53315
 N691 N 0.25504 0.64132 0.52256
 H692 H 0.27908 0.61908 0.46595
 H693 H 0.26866 0.59246 0.52332
 H694 H 0.29764 0.56920 0.51856
 H695 H 0.30803 0.59631 0.45982
 H696 H 0.22677 0.65608 0.51834
 H697 H 0.23170 0.67963 0.54695
 H698 H 0.29027 0.65189 0.55796
 H699 H 0.28429 0.62936 0.52892
 C700 C 0.23889 0.66752 0.44501
 C701 C 0.19489 0.58101 0.51120
 C702 C 0.26138 0.66758 0.55493
 C703 C 0.30533 0.58094 0.48879
 C704 C 0.72252 0.90720 0.50953
 H705 H 0.73138 0.90794 0.52332
 C706 C 0.70618 0.92044 0.50669
 H707 H 0.70238 0.93117 0.51852
 C708 C 0.71671 0.89213 0.47745
 H709 H 0.72108 0.88135 0.46592
 C710 C 0.70025 0.90507 0.47398
 H711 H 0.69211 0.90408 0.45975
 N712 N 0.72731 0.89325 0.49511
 C713 C 0.75944 0.84514 0.52736
 H714 H 0.77329 0.84439 0.51854
 C715 C 0.75656 0.83187 0.54361
 H716 H 0.76842 0.82112 0.54739
 C717 C 0.72723 0.86022 0.53313
 H718 H 0.71567 0.87101 0.52878
 C719 C 0.72372 0.84726 0.54951
 H720 H 0.70943 0.84825 0.55759
 Zn721 Zn 0.74995 0.87618 0.50005
 N722 N 0.74498 0.85910 0.52259
 C723 C 0.78320 0.89208 0.52268
 N724 N 0.77260 0.89324 0.50502
 C725 C 0.77740 0.90721 0.49062
 C726 C 0.79376 0.92043 0.49349
 C727 C 0.79968 0.90501 0.52617
 C728 C 0.74045 0.84519 0.47268
 C729 C 0.74333 0.83196 0.45640
 C730 C 0.77621 0.84729 0.45060
 C731 C 0.77269 0.86025 0.46698
 N732 N 0.75493 0.85913 0.47749
 H733 H 0.77882 0.88129 0.53419
 H734 H 0.76853 0.90799 0.47684
 H735 H 0.79757 0.93118 0.48167
 H736 H 0.80782 0.90398 0.54039
 H737 H 0.72664 0.84437 0.48155
 H738 H 0.73168 0.82087 0.45291
 H739 H 0.79030 0.84863 0.44222
 H740 H 0.78421 0.87110 0.47129
 C741 C 0.73852 0.83287 0.55497
 C742 C 0.69476 0.91944 0.48873
 C743 C 0.76140 0.83294 0.44509
 C744 C 0.80519 0.91939 0.51144
 C745 C 0.00926 0.22294 0.40570
 H746 H 0.02306 0.23187 0.40640
 C747 C 0.00651 0.20666 0.41897
 H748 H 0.01843 0.20296 0.42967
 C749 C -0.02295 0.21695 0.39075
 H750 H -0.03457 0.22122 0.38001
 C751 C -0.02633 0.20053 0.40372
 H752 H -0.04058 0.19234 0.40278
 N753 N -0.00527 0.22762 0.39181
 C754 C 0.02687 0.25983 0.34375
 H755 H 0.01795 0.27363 0.34302
 C756 C 0.04315 0.25701 0.33047
 H757 H 0.04686 0.26887 0.31972
 C758 C 0.03284 0.22770 0.35879
 H759 H 0.02854 0.21614 0.36957
 C760 C 0.04925 0.22426 0.34581
 H761 H 0.05742 0.21001 0.34677
 Zn762 Zn -0.00046 0.25024 0.37475
 N763 N 0.02217 0.24538 0.35769
 C764 C 0.02215 0.28353 0.39061
 N765 N 0.00445 0.27289 0.39175
 C766 C -0.01001 0.27759 0.40571
 C767 C -0.00715 0.29386 0.41897
 C768 C 0.02563 0.29993 0.40358
 C769 C -0.02791 0.24058 0.34388
 C770 C -0.04425 0.24336 0.33066
 C771 C -0.05025 0.27618 0.34590
 C772 C -0.03381 0.27275 0.35885
 N773 N -0.02316 0.25507 0.35777
 H774 H 0.03370 0.27923 0.37982
 H775 H -0.02382 0.26869 0.40647
 H776 H -0.01901 0.29757 0.42974
 H777 H 0.03990 0.30809 0.40259
 H778 H -0.01894 0.22683 0.34309
 H779 H -0.04769 0.23170 0.31961
 H780 H -0.05874 0.29021 0.34720
 H781 H -0.02955 0.28429 0.36967
 C782 C 0.05462 0.23904 0.33143
 C783 C -0.01147 0.19517 0.41805
 C784 C -0.05570 0.26135 0.33159
 C785 C 0.01085 0.30530 0.41799
 C786 C -0.00946 0.72280 0.09384
 H787 H -0.02323 0.73176 0.09307
 C788 C -0.00670 0.70650 0.08060
 H789 H -0.01858 0.70282 0.06985
 C790 C 0.02268 0.71675 0.10892
 H791 H 0.03427 0.72101 0.11971
 C792 C 0.02607 0.70031 0.09598
 H793 H 0.04029 0.69208 0.09699
 N794 N 0.00503 0.72747 0.10778
 C795 C -0.02711 0.75971 0.15582
 H796 H -0.01811 0.77344 0.15664
 C797 C -0.04341 0.75690 0.16908
 H798 H -0.04679 0.76853 0.18018
 C799 C -0.03311 0.72760 0.14075
 H800 H -0.02891 0.71609 0.12988
 C801 C -0.04952 0.72415 0.15373
 H802 H -0.05804 0.71013 0.15240
 Zn803 Zn 0.00021 0.75011 0.12480
 N804 N -0.02243 0.74526 0.14186
 C805 C -0.02237 0.78342 0.10893
 N806 N -0.00470 0.77273 0.10777
 C807 C 0.00974 0.77740 0.09378
 C808 C 0.00692 0.79370 0.08054
 C809 C -0.02583 0.79982 0.09597
 C810 C 0.02765 0.74056 0.15572
 C811 C 0.04400 0.74338 0.16891
 C812 C 0.05006 0.77611 0.15352
 C813 C 0.03359 0.77266 0.14060
 N814 N 0.02291 0.75500 0.14177
 H815 H -0.03387 0.77922 0.11983
 H816 H 0.02348 0.76840 0.09293
 H817 H 0.01854 0.79706 0.06942
 H818 H -0.03985 0.80833 0.09734
 H819 H 0.01865 0.72683 0.15658
 H820 H 0.04742 0.73176 0.18001
 H821 H 0.05857 0.79012 0.15214
 H822 H 0.02935 0.78415 0.12973
 C823 C -0.05490 0.73893 0.16811
 C824 C 0.01125 0.69497 0.08160
 C825 C 0.05549 0.76134 0.16789
 C826 C -0.01105 0.80518 0.08156
 C827 C 0.49033 0.22278 0.59462
 H828 H 0.47653 0.23171 0.59390
 C829 C 0.49311 0.20652 0.58133
 H830 H 0.48121 0.20285 0.57059
 C831 C 0.52251 0.21675 0.60963
 H832 H 0.53410 0.22101 0.62041
 C833 C 0.52591 0.20036 0.59664
 H834 H 0.54016 0.19217 0.59759
 N835 N 0.50483 0.22744 0.60855
 C836 C 0.47270 0.25963 0.65662
 H837 H 0.48165 0.27341 0.65738
 C838 C 0.45641 0.25682 0.66989
 H839 H 0.45272 0.26867 0.68065
 C840 C 0.46667 0.22754 0.64152
 H841 H 0.47094 0.21599 0.63072
 C842 C 0.45024 0.22410 0.65449
 H843 H 0.44203 0.20988 0.65349
 Zn844 Zn 0.50001 0.25005 0.62560
 N845 N 0.47737 0.24519 0.64265
 C846 C 0.47744 0.28335 0.60973
 N847 N 0.49513 0.27270 0.60860
 C848 C 0.50959 0.27741 0.59465
 C849 C 0.50676 0.29369 0.58141
 C850 C 0.47396 0.29975 0.59676
 C851 C 0.52745 0.24041 0.65650
 C852 C 0.54379 0.24319 0.66972
 C853 C 0.54984 0.27598 0.65443
 C854 C 0.53339 0.27255 0.64149
 N855 N 0.52271 0.25489 0.64259
 H856 H 0.46592 0.27913 0.62060
 H857 H 0.52335 0.26843 0.59382
 H858 H 0.51840 0.29709 0.57030
 H859 H 0.45992 0.30823 0.59810
 H860 H 0.51846 0.22667 0.65732
 H861 H 0.54721 0.23154 0.68078
 H862 H 0.55834 0.29000 0.65311
 H863 H 0.52914 0.28408 0.63066
 C864 C 0.44490 0.23887 0.66889
 C865 C 0.51108 0.19503 0.58226
 C866 C 0.55526 0.26117 0.66876
 C867 C 0.48876 0.30514 0.58238
 C868 C 0.50942 0.72287 0.90618
 H869 H 0.52315 0.73190 0.90702
 C870 C 0.50668 0.70653 0.91938
 H871 H 0.51835 0.70315 0.93045
 C872 C 0.47727 0.71684 0.89112
 H873 H 0.46572 0.72105 0.88027
 C874 C 0.47388 0.70039 0.90405
 H875 H 0.45987 0.69185 0.90269
 N876 N 0.49493 0.72755 0.89226
 C877 C 0.52708 0.75986 0.84427
 H878 H 0.51806 0.77358 0.84345
 C879 C 0.54342 0.75710 0.83105
 H880 H 0.54680 0.76875 0.81997
 C881 C 0.53311 0.72775 0.85932
 H882 H 0.52890 0.71623 0.87018
 C883 C 0.54955 0.72435 0.84637
 H884 H 0.55809 0.71035 0.84772
 Zn885 Zn 0.49975 0.75022 0.87526
 N886 N 0.52240 0.74539 0.85821
 C887 C 0.52230 0.78353 0.89113
 N888 N 0.50464 0.77283 0.89230
 C889 C 0.49020 0.77748 0.90629
 C890 C 0.49302 0.79376 0.91955
 C891 C 0.52575 0.79995 0.90409
 C892 C 0.47234 0.74066 0.84431
 C893 C 0.45599 0.74347 0.83110
 C894 C 0.44991 0.77619 0.84652
 C895 C 0.46636 0.77274 0.85945
 N896 N 0.47706 0.75509 0.85828
 H897 H 0.53385 0.77928 0.88031
 H898 H 0.47641 0.76854 0.90707
 H899 H 0.48117 0.79744 0.93033
 H900 H 0.53998 0.80817 0.90305
 H901 H 0.48135 0.72694 0.84344
 H902 H 0.45259 0.73186 0.81999
 H903 H 0.44139 0.79019 0.84791
 H904 H 0.47060 0.78423 0.87033
 C905 C 0.55493 0.73916 0.83202
 C906 C 0.48873 0.69501 0.91838
 C907 C 0.44450 0.76142 0.83213
 C908 C 0.51098 0.80528 0.91851
 C909 C 0.10490 0.22926 0.29092
 C910 C 0.08706 0.23842 0.28384
 C911 C 0.07071 0.24162 0.29699
 C912 C 0.13578 0.22324 0.26595
 C913 C 0.09001 0.22647 0.32440
 C914 C 0.10634 0.22330 0.31121
 C915 C 0.12172 0.22598 0.27735
 C916 C 0.07199 0.23567 0.31744
 H917 H 0.08576 0.24304 0.26814
 H918 H 0.05696 0.24848 0.29110
 H919 H 0.09157 0.22196 0.34010
 H920 H 0.12011 0.21624 0.31686
 C921 C 0.60543 0.72969 0.79171
 C922 C 0.59230 0.71362 0.79632
 C923 C 0.57588 0.71667 0.80943
 C924 C 0.63645 0.72392 0.76686
 C925 C 0.58567 0.75195 0.81336
 C926 C 0.60209 0.74886 0.80025
 C927 C 0.62232 0.72654 0.77820
 C928 C 0.57238 0.73588 0.81810
 H929 H 0.59472 0.69874 0.78974
 H930 H 0.56577 0.70407 0.81257
 H931 H 0.58354 0.76684 0.81998
 H932 H 0.61219 0.76140 0.79682
 C933 C 0.39406 0.77106 0.79175
 C934 C 0.39737 0.75187 0.80026
 C935 C 0.41375 0.74872 0.81339
 C936 C 0.36316 0.77691 0.76678
 C937 C 0.42359 0.78400 0.80959
 C938 C 0.40720 0.78711 0.79645
 C939 C 0.37724 0.77425 0.77817
 C940 C 0.42706 0.76476 0.81821
 H941 H 0.38726 0.73935 0.79676
 H942 H 0.41586 0.73381 0.81998
 H943 H 0.43370 0.79658 0.81277
 H944 H 0.40481 0.80201 0.78990
 C945 C -0.10606 0.27091 0.29111
 C946 C -0.10286 0.25178 0.29977
 C947 C -0.08649 0.24865 0.31294
 C948 C -0.13694 0.27672 0.26608
 C949 C -0.07649 0.28386 0.30887
 C950 C -0.09285 0.28694 0.29569
 C951 C -0.12287 0.27408 0.27750
 C952 C -0.07311 0.26467 0.31764
 H953 H -0.11302 0.23928 0.29637
 H954 H -0.08446 0.23378 0.31965
 H955 H -0.06631 0.29641 0.31196
 H956 H -0.09516 0.30179 0.28901
 C957 C -0.10519 0.72929 0.20865
 C958 C -0.09204 0.71325 0.20396
 C959 C -0.07570 0.71636 0.19076
 C960 C -0.13601 0.72339 0.23371
 C961 C -0.08560 0.75162 0.18691
 C962 C -0.10194 0.74846 0.20010
 C963 C -0.12197 0.72608 0.22228
 C964 C -0.07228 0.73559 0.18209
 H965 H -0.09438 0.69836 0.21054
 H966 H -0.06557 0.70379 0.18757
 H967 H -0.08353 0.76652 0.18029
 H968 H -0.11205 0.76097 0.20359
 C969 C 0.39455 0.22917 0.70935
 C970 C 0.41242 0.23825 0.71646
 C971 C 0.42880 0.24142 0.70332
 C972 C 0.36362 0.22323 0.73427
 C973 C 0.40946 0.22639 0.67587
 C974 C 0.39310 0.22325 0.68903
 C975 C 0.37771 0.22593 0.72289
 C976 C 0.42751 0.23552 0.68287
 H977 H 0.41372 0.24283 0.73217
 H978 H 0.44257 0.24822 0.70923
 H979 H 0.40790 0.22192 0.66016
 H980 H 0.37931 0.21626 0.68336
 C981 C 0.60566 0.27075 0.70920
 C982 C 0.60241 0.25159 0.70061
 C983 C 0.58603 0.24846 0.68745
 C984 C 0.63655 0.27661 0.73420
 C985 C 0.57611 0.28370 0.69142
 C986 C 0.59249 0.28679 0.70458
 C987 C 0.62248 0.27394 0.72279
 C988 C 0.57269 0.26449 0.68271
 H989 H 0.61255 0.23909 0.70404
 H990 H 0.58396 0.23358 0.68079
 H991 H 0.56596 0.29626 0.68829
 H992 H 0.59483 0.30166 0.71121
 C993 C 0.10596 0.77096 0.20823
 C994 C 0.10265 0.75178 0.19971
 C995 C 0.08625 0.74864 0.18659
 C996 C 0.13689 0.77680 0.23319
 C997 C 0.07642 0.78392 0.19043
 C998 C 0.09282 0.78702 0.20356
 C999 C 0.12280 0.77415 0.22180
 C1000 C 0.07294 0.76468 0.18180
 H1001 H 0.11276 0.73926 0.20319
 H1002 H 0.08414 0.73373 0.17999
 H1003 H 0.06630 0.79649 0.18726
 H1004 H 0.09521 0.80191 0.21012
 C1005 C 0.29000 0.10529 0.22865
 C1006 C 0.28269 0.08755 0.23779
 C1007 C 0.29575 0.07112 0.24108
 C1008 C 0.26531 0.13636 0.22232
 C1009 C 0.32350 0.09012 0.22605
 C1010 C 0.31042 0.10654 0.22280
 C1011 C 0.27655 0.12219 0.22523
 C1012 C 0.31631 0.07221 0.23523
 H1013 H 0.26690 0.08641 0.24232
 H1014 H 0.28969 0.05746 0.24793
 H1015 H 0.33929 0.09154 0.22163
 H1016 H 0.31624 0.12022 0.21575
 C1017 C 0.79021 0.60566 0.72875
 C1018 C 0.79869 0.60229 0.74790
 C1019 C 0.81169 0.58580 0.75108
 C1020 C 0.76576 0.63699 0.72273
 C1021 C 0.80777 0.57596 0.71590
 C1022 C 0.79476 0.59246 0.71277
 C1023 C 0.77689 0.62270 0.72548
 C1024 C 0.81640 0.57244 0.73510
 H1025 H 0.79531 0.61246 0.76037
 H1026 H 0.81830 0.58366 0.76595
 H1027 H 0.81087 0.56581 0.70337
 H1028 H 0.78823 0.59490 0.69790
 C1029 C 0.79010 0.39411 0.77093
 C1030 C 0.78282 0.41188 0.76183
 C1031 C 0.79589 0.42832 0.75861
 C1032 C 0.76537 0.36306 0.77717
 C1033 C 0.82361 0.40925 0.77361
 C1034 C 0.81052 0.39283 0.77680
 C1035 C 0.77663 0.37722 0.77430
 C1036 C 0.81645 0.42719 0.76447
 H1037 H 0.76703 0.41305 0.75729
 H1038 H 0.78985 0.44200 0.75179
 H1039 H 0.83940 0.40782 0.77805
 H1040 H 0.81632 0.37913 0.78381
 C1041 C 0.29028 -0.10622 0.27140
 C1042 C 0.28297 -0.08851 0.26220
 C1043 C 0.29599 -0.07202 0.25900
 C1044 C 0.26567 -0.13740 0.27752
 C1045 C 0.32370 -0.09091 0.27423
 C1046 C 0.31066 -0.10738 0.27740
 C1047 C 0.27687 -0.12318 0.27471
 C1048 C 0.31651 -0.07303 0.26499
 H1049 H 0.26720 -0.08743 0.25756
 H1050 H 0.28992 -0.05839 0.25210
 H1051 H 0.33947 -0.09226 0.27876
 H1052 H 0.31649 -0.12104 0.28449
 C1053 C 0.20982 -0.10611 0.72852
 C1054 C 0.21718 -0.08836 0.73761
 C1055 C 0.20418 -0.07187 0.74082
 C1056 C 0.23440 -0.13730 0.72240
 C1057 C 0.17638 -0.09082 0.72583
 C1058 C 0.18941 -0.10730 0.72265
 C1059 C 0.22321 -0.12308 0.72521
 C1060 C 0.18363 -0.07291 0.73495
 H1061 H 0.23298 -0.08726 0.74216
 H1062 H 0.21029 -0.05820 0.74763
 H1063 H 0.16058 -0.09219 0.72139
 H1064 H 0.18354 -0.12099 0.71565
 C1065 C 0.70968 0.39419 0.22885
 C1066 C 0.71698 0.41193 0.23799
 C1067 C 0.70394 0.42839 0.24122
 C1068 C 0.73435 0.36307 0.22270
 C1069 C 0.67620 0.40940 0.22614
 C1070 C 0.68928 0.39296 0.22294
 C1071 C 0.72312 0.37727 0.22552
 C1072 C 0.68339 0.42731 0.23533
 H1073 H 0.73277 0.41307 0.24256
 H1074 H 0.70999 0.44205 0.24807
 H1075 H 0.66042 0.40799 0.22168
 H1076 H 0.68345 0.37928 0.21590
 C1077 C 0.70972 0.60562 0.27151
 C1078 C 0.68932 0.60686 0.27743
 C1079 C 0.67624 0.59043 0.27423
 C1080 C 0.73443 0.63670 0.27772
 C1081 C 0.70394 0.57143 0.25912
 C1082 C 0.71700 0.58788 0.26235
 C1083 C 0.72318 0.62253 0.27487
 C1084 C 0.68340 0.57252 0.26503
 H1085 H 0.68352 0.62054 0.28448
 H1086 H 0.66046 0.59183 0.27870
 H1087 H 0.70998 0.55777 0.25226
 H1088 H 0.73278 0.58674 0.25777
 C1089 C 0.21033 0.10544 0.77106
 C1090 C 0.20183 0.10218 0.75190
 C1091 C 0.18876 0.08573 0.74867
 C1092 C 0.23493 0.13662 0.77724
 C1093 C 0.19265 0.07575 0.78380
 C1094 C 0.20572 0.09220 0.78699
 C1095 C 0.22372 0.12241 0.77440
 C1096 C 0.18401 0.07234 0.76460
 H1097 H 0.20524 0.11238 0.73947
 H1098 H 0.18215 0.08367 0.73378
 H1099 H 0.18952 0.06557 0.79630
 H1100 H 0.21227 0.09456 0.80188
 C1101 C 0.22874 0.29213 0.10492
 C1102 C 0.23793 0.28495 0.08719
 C1103 C 0.24116 0.29807 0.07085
 C1104 C 0.22260 0.26729 0.13580
 C1105 C 0.22599 0.32564 0.08994
 C1106 C 0.22279 0.31249 0.10626
 C1107 C 0.22541 0.27861 0.12173
 C1108 C 0.23522 0.31857 0.07203
 H1109 H 0.24253 0.26920 0.08597
 H1110 H 0.24804 0.29211 0.05719
 H1111 H 0.22149 0.34139 0.09142
 H1112 H 0.21572 0.31822 0.11994
 C1113 C 0.72864 0.79253 0.60526
 C1114 C 0.73783 0.78533 0.58754
 C1115 C 0.74106 0.79843 0.57118
 C1116 C 0.72257 0.76773 0.63619
 C1117 C 0.72586 0.82601 0.59022
 C1118 C 0.72267 0.81289 0.60657
 C1119 C 0.72533 0.77904 0.62209
 C1120 C 0.73511 0.81893 0.57233
 H1121 H 0.74245 0.76958 0.58635
 H1122 H 0.74795 0.79245 0.55753
 H1123 H 0.72135 0.84176 0.59168
 H1124 H 0.71559 0.81863 0.62023
 C1125 C 0.77126 0.79263 0.39477
 C1126 C 0.78724 0.79717 0.40802
 C1127 C 0.78406 0.81028 0.42438
 C1128 C 0.77734 0.76782 0.36385
 C1129 C 0.74883 0.81433 0.41430
 C1130 C 0.75206 0.80123 0.39794
 C1131 C 0.77456 0.77913 0.37794
 C1132 C 0.76480 0.81901 0.42771
 H1133 H 0.80215 0.79054 0.40574
 H1134 H 0.79658 0.81336 0.43458
 H1135 H 0.73392 0.82100 0.41630
 H1136 H 0.73959 0.79785 0.38774
 C1137 C 0.27145 0.29250 -0.10555
 C1138 C 0.28744 0.29711 -0.09232
 C1139 C 0.28422 0.31020 -0.07595
 C1140 C 0.27760 0.26771 -0.13647
 C1141 C 0.24896 0.31410 -0.08598
 C1142 C 0.25222 0.30102 -0.10235
 C1143 C 0.27479 0.27902 -0.12238
 C1144 C 0.26494 0.31885 -0.07259
 H1145 H 0.30237 0.29054 -0.09462
 H1146 H 0.29675 0.31333 -0.06577
 H1147 H 0.23402 0.32072 -0.08396
 H1148 H 0.23976 0.29759 -0.11253
 C1149 C 0.72854 0.20748 -0.10538
 C1150 C 0.73781 0.21472 -0.08771
 C1151 C 0.74108 0.20167 -0.07132
 C1152 C 0.72238 0.23222 -0.13634
 C1153 C 0.72579 0.17404 -0.09024
 C1154 C 0.72254 0.18712 -0.10661
 C1155 C 0.72519 0.22093 -0.12223
 C1156 C 0.73510 0.18116 -0.07240
 H1157 H 0.74246 0.23047 -0.08658
 H1158 H 0.74804 0.20768 -0.05772
 H1159 H 0.72125 0.15829 -0.09163
 H1160 H 0.71540 0.18135 -0.12024
 C1161 C 0.22916 0.70785 0.39468
 C1162 C 0.22318 0.68750 0.39336
 C1163 C 0.22633 0.67437 0.40971
 C1164 C 0.22313 0.73266 0.36375
 C1165 C 0.24150 0.70195 0.42879
 C1166 C 0.23832 0.71505 0.41242
 C1167 C 0.22588 0.72135 0.37785
 C1168 C 0.23554 0.68145 0.42763
 H1169 H 0.21612 0.68176 0.37968
 H1170 H 0.22181 0.65863 0.40825
 H1171 H 0.24838 0.70793 0.44245
 H1172 H 0.24295 0.73080 0.41363
 C1173 C 0.27103 0.70798 0.60522
 C1174 C 0.28707 0.70342 0.59205
 C1175 C 0.28396 0.69029 0.57570
 C1176 C 0.27698 0.73278 0.63618
 C1177 C 0.24869 0.68625 0.58562
 C1178 C 0.25185 0.69937 0.60197
 C1179 C 0.27427 0.72148 0.62206
 C1180 C 0.26472 0.68154 0.57230
 H1181 H 0.30198 0.71005 0.59440
 H1182 H 0.29653 0.68719 0.56556
 H1183 H 0.23378 0.67957 0.58356
 H1184 H 0.23934 0.70276 0.61211
 C1185 C 0.77172 0.20762 0.10523
 C1186 C 0.75252 0.19902 0.10207
 C1187 C 0.74926 0.18594 0.08570
 C1188 C 0.77782 0.23239 0.13618
 C1189 C 0.78447 0.19001 0.07558
 C1190 C 0.78768 0.20310 0.09195
 C1191 C 0.77504 0.22110 0.12207
 C1192 C 0.76521 0.18127 0.07226
 H1193 H 0.74006 0.20238 0.11228
 H1194 H 0.73434 0.17926 0.08371
 H1195 H 0.79698 0.18694 0.06536
 H1196 H 0.80260 0.20973 0.09423
 C1197 C 0.47905 0.35533 0.54182
 C1198 C 0.49825 0.35213 0.55040
 C1199 C 0.50142 0.33582 0.56360
 C1200 C 0.47315 0.38607 0.51671
 C1201 C 0.46614 0.32587 0.55971
 C1202 C 0.46301 0.34217 0.54650
 C1203 C 0.47583 0.37207 0.52817
 C1204 C 0.48539 0.32250 0.56840
 H1205 H 0.51077 0.36225 0.54691
 H1206 H 0.51634 0.33379 0.57024
 H1207 H 0.45357 0.31573 0.56289
 H1208 H 0.44810 0.34448 0.53989
 C1209 C -0.02072 0.85543 0.04106
 C1210 C -0.00150 0.85217 0.04959
 C1211 C 0.00165 0.83585 0.06277
 C1212 C -0.02660 0.88621 0.01600
 C1213 C -0.03367 0.82599 0.05896
 C1214 C -0.03679 0.84232 0.04577
 C1215 C -0.02392 0.87219 0.02744
 C1216 C -0.01440 0.82256 0.06760
 H1217 H 0.01103 0.86226 0.04609
 H1218 H 0.01658 0.83377 0.06938
 H1219 H -0.04626 0.81588 0.06216
 H1220 H -0.05171 0.84467 0.03920
 C1221 C 0.02070 0.64451 0.04131
 C1222 C 0.02666 0.64312 0.06162
 C1223 C 0.02361 0.65952 0.07472
 C1224 C 0.02636 0.61345 0.01654
 C1225 C 0.00861 0.67879 0.04723
 C1226 C 0.01168 0.66237 0.03415
 C1227 C 0.02380 0.62761 0.02784
 C1228 C 0.01454 0.67755 0.06768
 H1229 H 0.03360 0.62934 0.06733
 H1230 H 0.02810 0.65800 0.09043
 H1231 H 0.00184 0.69254 0.04128
 H1232 H 0.00706 0.66363 0.01844
 C1233 C 0.52071 0.14483 0.54171
 C1234 C 0.52668 0.14335 0.56200
 C1235 C 0.52357 0.15967 0.57520
 C1236 C 0.52660 0.11399 0.51671
 C1237 C 0.50846 0.17901 0.54782
 C1238 C 0.51160 0.16268 0.53465
 C1239 C 0.52393 0.12803 0.52812
 C1240 C 0.51441 0.17769 0.56826
 H1241 H 0.53370 0.12957 0.56764
 H1242 H 0.52808 0.15808 0.59090
 H1243 H 0.50163 0.19277 0.54194
 H1244 H 0.50698 0.16400 0.51894
 C1245 C -0.02089 0.14478 0.45844
 C1246 C -0.02697 0.14339 0.43817
 C1247 C -0.02393 0.15977 0.42503
 C1248 C -0.02652 0.11376 0.48327
 C1249 C -0.00870 0.17901 0.45243
 C1250 C -0.01176 0.16261 0.46554
 C1251 C -0.02397 0.12789 0.47194
 C1252 C -0.01475 0.17777 0.43201
 H1253 H -0.03399 0.12963 0.43250
 H1254 H -0.02852 0.15825 0.40934
 H1255 H -0.00185 0.19274 0.45833
 H1256 H -0.00705 0.16387 0.48122
 C1257 C 0.47937 0.64449 0.95862
 C1258 C 0.49854 0.64788 0.95006
 C1259 C 0.50160 0.66429 0.93698
 C1260 C 0.47368 0.61346 0.98344
 C1261 C 0.46625 0.67399 0.94095
 C1262 C 0.46324 0.65757 0.95404
 C1263 C 0.47626 0.62760 0.97212
 C1264 C 0.48548 0.67755 0.93227
 H1265 H 0.51112 0.63781 0.95347
 H1266 H 0.51650 0.66646 0.93034
 H1267 H 0.45361 0.68407 0.93784
 H1268 H 0.44835 0.65512 0.96063
 C1269 C 0.52064 0.85565 0.95886
 C1270 C 0.51164 0.83778 0.96603
 C1271 C 0.50849 0.82140 0.95293
 C1272 C 0.52644 0.88665 0.98368
 C1273 C 0.52340 0.84070 0.92541
 C1274 C 0.52651 0.85708 0.93853
 C1275 C 0.52382 0.87253 0.97236
 C1276 C 0.51433 0.82267 0.93245
 H1277 H 0.50709 0.83650 0.98175
 H1278 H 0.50173 0.80763 0.95888
 H1279 H 0.52782 0.84225 0.90968
 H1280 H 0.53344 0.87087 0.93282
 C1281 C 0.02073 0.35550 0.45851
 C1282 C 0.01156 0.33768 0.46559
 C1283 C 0.00834 0.32135 0.45243
 C1284 C 0.02673 0.38633 0.48349
 C1285 C 0.02349 0.34063 0.42502
 C1286 C 0.02669 0.35694 0.43821
 C1287 C 0.02401 0.37229 0.47209
 C1288 C 0.01426 0.32264 0.43198
 H1289 H 0.00694 0.33638 0.48129
 H1290 H 0.00146 0.30763 0.45832
 H1291 H 0.02799 0.34219 0.40932
 H1292 H 0.03375 0.37069 0.43256
 C1293 C 0.35580 0.54058 0.47898
 C1294 C 0.35713 0.56094 0.47303
 C1295 C 0.34073 0.57407 0.47622
 C1296 C 0.38680 0.51576 0.47274
 C1297 C 0.32160 0.54650 0.49137
 C1298 C 0.33801 0.53339 0.48815
 C1299 C 0.37266 0.52706 0.47561
 C1300 C 0.32277 0.56700 0.48543
 H1301 H 0.37085 0.56667 0.46596
 H1302 H 0.34220 0.58982 0.47172
 H1303 H 0.30789 0.54053 0.49825
 H1304 H 0.33680 0.51764 0.49276
 C1305 C 0.85587 0.04058 -0.02156
 C1306 C 0.83814 0.03335 -0.01232
 C1307 C 0.82170 0.04642 -0.00904
 C1308 C 0.88693 0.01584 -0.02785
 C1309 C 0.84070 0.07403 -0.02427
 C1310 C 0.85712 0.06094 -0.02751
 C1311 C 0.87277 0.02711 -0.02496
 C1312 C 0.82279 0.06692 -0.01499
 H1313 H 0.83698 0.01760 -0.00771
 H1314 H 0.80803 0.04041 -0.00212
 H1315 H 0.84212 0.08978 -0.02877
 H1316 H 0.87081 0.06671 -0.03463
 C1317 C 0.64419 0.04088 0.02137
 C1318 C 0.66192 0.03356 0.01219
 C1319 C 0.67844 0.04656 0.00897
 C1320 C 0.61295 0.01632 0.02746
 C1321 C 0.65952 0.07425 0.02414
 C1322 C 0.64303 0.06124 0.02733
 C1323 C 0.62720 0.02750 0.02467
 C1324 C 0.67742 0.06706 0.01492
 H1325 H 0.66301 0.01781 0.00757
 H1326 H 0.69209 0.04049 0.00208
 H1327 H 0.65817 0.09001 0.02864
 H1328 H 0.62935 0.06707 0.03440
 C1329 C 0.14428 0.54078 0.52097
 C1330 C 0.16206 0.53354 0.51184
 C1331 C 0.17852 0.54660 0.50863
 C1332 C 0.11321 0.51605 0.52721
 C1333 C 0.15944 0.57424 0.52370
 C1334 C 0.14300 0.56115 0.52688
 C1335 C 0.12737 0.52731 0.52434
 C1336 C 0.17740 0.56711 0.51454
 H1337 H 0.16324 0.51778 0.50726
 H1338 H 0.19222 0.54059 0.50179
 H1339 H 0.15800 0.59000 0.52818
 H1340 H 0.12928 0.56693 0.53392
 C1341 C 0.14386 0.45905 -0.02110
 C1342 C 0.14265 0.43868 -0.02704
 C1343 C 0.15915 0.42566 -0.02392
 C1344 C 0.11261 0.48361 -0.02713
 C1345 C 0.17815 0.45336 -0.00883
 C1346 C 0.16163 0.46636 -0.01199
 C1347 C 0.12686 0.47243 -0.02436
 C1348 C 0.17710 0.43286 -0.01477
 H1349 H 0.12894 0.43285 -0.03406
 H1350 H 0.15777 0.40990 -0.02841
 H1351 H 0.19184 0.45942 -0.00200
 H1352 H 0.16275 0.48212 -0.00739
 C1353 C 0.64417 0.95967 0.47894
 C1354 C 0.64290 0.93932 0.47298
 C1355 C 0.65934 0.92623 0.47615
 C1356 C 0.61308 0.98439 0.47277
 C1357 C 0.67840 0.95384 0.49132
 C1358 C 0.66195 0.96690 0.48811
 C1359 C 0.62726 0.97314 0.47560
 C1360 C 0.67729 0.93334 0.48536
 H1361 H 0.62919 0.93355 0.46591
 H1362 H 0.65791 0.91048 0.47164
 H1363 H 0.69209 0.95984 0.49820
 H1364 H 0.66311 0.98265 0.49273
 C1365 C 0.85591 0.95947 0.52120
 C1366 C 0.83814 0.96676 0.51206
 C1367 C 0.82164 0.95375 0.50888
 C1368 C 0.88715 0.98405 0.52723
 C1369 C 0.84064 0.92607 0.52399
 C1370 C 0.85712 0.93911 0.52715
 C1371 C 0.87290 0.97287 0.52447
 C1372 C 0.82270 0.93324 0.51481
 H1373 H 0.83702 0.98252 0.50745
 H1374 H 0.80796 0.95980 0.50202
 H1375 H 0.84203 0.91032 0.52849
 H1376 H 0.87083 0.93330 0.53418
 C1377 C 0.35576 0.45939 0.02104
 C1378 C 0.34249 0.45485 0.03698
 C1379 C 0.32601 0.44181 0.03381
 C1380 C 0.38706 0.48388 0.02714
 C1381 C 0.33599 0.43785 -0.00132
 C1382 C 0.35247 0.45088 0.00189
 C1383 C 0.37278 0.47274 0.02435
 C1384 C 0.32257 0.43315 0.01462
 H1385 H 0.34487 0.46140 0.05185
 H1386 H 0.31581 0.43871 0.04631
 H1387 H 0.33391 0.43123 -0.01619
 H1388 H 0.36269 0.45426 -0.01054
 C1389 C 0.54261 0.47846 0.35552
 C1390 C 0.55118 0.49765 0.35233
 C1391 C 0.56429 0.50089 0.33597
 C1392 C 0.51776 0.47237 0.38643
 C1393 C 0.56031 0.46570 0.32592
 C1394 C 0.54719 0.46250 0.34228
 C1395 C 0.52909 0.47514 0.37235
 C1396 C 0.56901 0.48494 0.32258
 H1397 H 0.54777 0.51009 0.36252
 H1398 H 0.57095 0.51580 0.33396
 H1399 H 0.56342 0.45319 0.31573
 H1400 H 0.54059 0.44760 0.34457
 C1401 C 0.04281 -0.02134 0.85487
 C1402 C 0.05138 -0.00215 0.85166
 C1403 C 0.06453 0.00106 0.83533
 C1404 C 0.01793 -0.02738 0.88577
 C1405 C 0.06058 -0.03416 0.82534
 C1406 C 0.04743 -0.03732 0.84168
 C1407 C 0.02927 -0.02462 0.87169
 C1408 C 0.06929 -0.01492 0.82198
 H1409 H 0.04795 0.01032 0.86181
 H1410 H 0.07118 0.01596 0.83330
 H1411 H 0.06372 -0.04669 0.81519
 H1412 H 0.04082 -0.05222 0.84400
 C1413 C 0.04295 0.02147 0.64452
 C1414 C 0.04764 0.03743 0.65771
 C1415 C 0.06077 0.03421 0.67406
 C1416 C 0.01806 0.02757 0.61363
 C1417 C 0.06457 -0.00102 0.66407
 C1418 C 0.05144 0.00225 0.64773
 C1419 C 0.02941 0.02479 0.62771
 C1420 C 0.06940 0.01494 0.67743
 H1421 H 0.04109 0.05236 0.65540
 H1422 H 0.06396 0.04672 0.68421
 H1423 H 0.07116 -0.01595 0.66610
 H1424 H 0.04795 -0.01021 0.63757
 C1425 C 0.54251 0.52123 0.14497
 C1426 C 0.54709 0.53720 0.15819
 C1427 C 0.56021 0.53402 0.17456
 C1428 C 0.51772 0.52729 0.11400
 C1429 C 0.56420 0.49882 0.16454
 C1430 C 0.55109 0.50204 0.14818
 C1431 C 0.52902 0.52452 0.12811
 C1432 C 0.56892 0.51478 0.17793
 H1433 H 0.54049 0.55210 0.15588
 H1434 H 0.56332 0.54654 0.18474
 H1435 H 0.57086 0.48392 0.16657
 H1436 H 0.54769 0.48959 0.13800
 C1437 C 0.45756 -0.02136 0.14525
 C1438 C 0.45299 -0.03735 0.15846
 C1439 C 0.43984 -0.03421 0.17480
 C1440 C 0.48238 -0.02735 0.11430
 C1441 C 0.43577 0.00098 0.16478
 C1442 C 0.44892 -0.00220 0.14844
 C1443 C 0.47107 -0.02462 0.12841
 C1444 C 0.43107 -0.01500 0.17815
 H1445 H 0.45964 -0.05223 0.15616
 H1446 H 0.43674 -0.04674 0.18497
 H1447 H 0.42907 0.01587 0.16679
 H1448 H 0.45231 0.01027 0.13827
 C1449 C 0.95748 0.47874 0.64466
 C1450 C 0.94893 0.49793 0.64790
 C1451 C 0.93578 0.50112 0.66424
 C1452 C 0.98234 0.47271 0.61375
 C1453 C 0.93969 0.46589 0.67416
 C1454 C 0.95284 0.46273 0.65782
 C1455 C 0.97101 0.47546 0.62784
 C1456 C 0.93100 0.48513 0.67756
 H1457 H 0.95238 0.51041 0.63777
 H1458 H 0.92915 0.51603 0.66629
 H1459 H 0.93653 0.45334 0.68430
 H1460 H 0.95942 0.44783 0.65549
 C1461 C 0.95718 0.52119 0.85517
 C1462 C 0.94868 0.50198 0.85190
 C1463 C 0.93558 0.49876 0.83553
 C1464 C 0.98197 0.52723 0.88614
 C1465 C 0.93943 0.53400 0.82561
 C1466 C 0.95254 0.53718 0.84199
 C1467 C 0.97067 0.52448 0.87202
 C1468 C 0.93080 0.51474 0.82219
 H1469 H 0.95213 0.48951 0.86204
 H1470 H 0.92898 0.48383 0.83346
 H1471 H 0.93628 0.54653 0.81547
 H1472 H 0.95909 0.55210 0.84435
 C1473 C 0.45706 0.02140 0.35565
 C1474 C 0.45243 0.03735 0.34241
 C1475 C 0.43931 0.03411 0.32605
 C1476 C 0.48193 0.02754 0.38655
 C1477 C 0.43542 -0.00109 0.33612
 C1478 C 0.44853 0.00219 0.35247
 C1479 C 0.47058 0.02475 0.37247
 C1480 C 0.43065 0.01484 0.32271
 H1481 H 0.45900 0.05227 0.34470
 H1482 H 0.43617 0.04660 0.31586
 H1483 H 0.42880 -0.01601 0.33411
 H1484 H 0.45197 -0.01024 0.36266
   
