data_POSCAR
  _audit_creation_date              2014-09-24
  _audit_creation_method            'ToBaCCo'
  _symmetry_space_group_name_H-M    'P1'
  _symmetry_Int_Tables_number       1
  _symmetry_cell_setting            triclinic
  loop_
  _symmetry_equiv_pos_as_xyz
 x,y,z
_cell_length_a 78.9729
_cell_length_b 78.9827
_cell_length_c 79.0045
_cell_angle_alpha 90.006200
_cell_angle_beta 90.003500
_cell_angle_gamma 90.008800
loop_
  _atom_site_label
  _atom_site_type_symbol
  _atom_site_fract_x
  _atom_site_fract_y
  _atom_site_fract_z
C1 C 0.19498 0.21094 0.21941
 C2 C 0.20594 0.19726 0.22212
 C3 C 0.21963 0.19454 0.21116
 C4 C 0.22235 0.20551 0.19750
 C5 C 0.21139 0.21920 0.19478
 C6 C 0.19771 0.22190 0.20574
 H7 H 0.20383 0.18876 0.23269
 H8 H 0.23294 0.20341 0.18902
 H9 H 0.18923 0.23250 0.20365
 C10 C 0.69490 0.71163 0.71952
 C11 C 0.70585 0.69794 0.72220
 C12 C 0.71953 0.69523 0.71124
 C13 C 0.72226 0.70622 0.69759
 C14 C 0.71131 0.71992 0.69490
 C15 C 0.69764 0.72262 0.70587
 H16 H 0.70374 0.68943 0.73276
 H17 H 0.73284 0.70413 0.68910
 H18 H 0.68916 0.73322 0.70379
 C19 C 0.30467 0.78900 0.71973
 C20 C 0.29369 0.80267 0.72243
 C21 C 0.27999 0.80537 0.71148
 C22 C 0.27729 0.79437 0.69781
 C23 C 0.28827 0.78070 0.69511
 C24 C 0.30195 0.77802 0.70607
 H25 H 0.29583 0.81116 0.73302
 H26 H 0.26670 0.79641 0.68929
 H27 H 0.31045 0.76744 0.70398
 C28 C 0.80547 0.28847 0.21976
 C29 C 0.80275 0.27752 0.20606
 C30 C 0.78908 0.28024 0.19509
 C31 C 0.77811 0.29391 0.19782
 C32 C 0.78081 0.30487 0.21150
 C33 C 0.79448 0.30215 0.22247
 H34 H 0.81122 0.26692 0.20391
 H35 H 0.76753 0.29602 0.18933
 H36 H 0.79654 0.31065 0.23306
 C37 C 0.80518 0.71158 0.28051
 C38 C 0.80244 0.72258 0.29416
 C39 C 0.78876 0.71989 0.30513
 C40 C 0.77781 0.70619 0.30244
 C41 C 0.78053 0.69519 0.28879
 C42 C 0.79421 0.69789 0.27783
 H43 H 0.81093 0.73318 0.29624
 H44 H 0.76722 0.70411 0.31092
 H45 H 0.79632 0.68938 0.26727
 C46 C 0.30552 0.21120 -0.21991
 C47 C 0.30277 0.22216 -0.20622
 C48 C 0.28909 0.21943 -0.19526
 C49 C 0.27815 0.20574 -0.19799
 C50 C 0.28086 0.19477 -0.21166
 C51 C 0.29454 0.19750 -0.22262
 H52 H 0.31123 0.23277 -0.20407
 H53 H 0.26756 0.20362 -0.18951
 H54 H 0.29662 0.18899 -0.23320
 C55 C 0.69448 0.28839 -0.21978
 C56 C 0.69720 0.27744 -0.20608
 C57 C 0.71089 0.28016 -0.19512
 C58 C 0.72186 0.29383 -0.19787
 C59 C 0.71916 0.30478 -0.21155
 C60 C 0.70547 0.30206 -0.22250
 H61 H 0.68873 0.26685 -0.20392
 H62 H 0.73246 0.29594 -0.18939
 H63 H 0.70341 0.31057 -0.23309
 C64 C 0.19518 0.78881 0.28045
 C65 C 0.20618 0.80247 0.27774
 C66 C 0.21986 0.80518 0.28873
 C67 C 0.22252 0.79420 0.30242
 C68 C 0.21151 0.78055 0.30512
 C69 C 0.19785 0.77786 0.29414
 H70 H 0.20408 0.81093 0.26713
 H71 H 0.23309 0.79625 0.31096
 H72 H 0.18933 0.76730 0.29623
 C73 C 0.46120 0.44481 0.46984
 C74 C 0.44753 0.45579 0.47253
 C75 C 0.44482 0.46946 0.46156
 C76 C 0.45579 0.47215 0.44789
 C77 C 0.46947 0.46118 0.44518
 C78 C 0.47217 0.44751 0.45616
 H79 H 0.43904 0.45371 0.48312
 H80 H 0.45370 0.48273 0.43939
 H81 H 0.48275 0.43902 0.45407
 C82 C -0.03891 -0.05452 0.96946
 C83 C -0.05261 -0.04358 0.97213
 C84 C -0.05534 -0.02990 0.96114
 C85 C -0.04433 -0.02721 0.94748
 C86 C -0.03063 -0.03815 0.94481
 C87 C -0.02792 -0.05180 0.95580
 H88 H -0.06109 -0.04572 0.98271
 H89 H -0.04639 -0.01664 0.93894
 H90 H -0.01732 -0.06028 0.95373
 C91 C 1.03860 0.55508 0.96943
 C92 C 1.02763 0.55233 0.95577
 C93 C 1.03032 0.53865 0.94481
 C94 C 1.04401 0.52769 0.94753
 C95 C 1.05500 0.53042 0.96119
 C96 C 1.05228 0.54412 0.97213
 H97 H 1.01703 0.56082 0.95366
 H98 H 1.04611 0.51710 0.93905
 H99 H 1.06079 0.54624 0.98270
 C100 C 0.53895 0.05484 0.46972
 C101 C 0.55265 0.04390 0.47242
 C102 C 0.55538 0.03020 0.46147
 C103 C 0.54438 0.02747 0.44781
 C104 C 0.53068 0.03841 0.44511
 C105 C 0.52797 0.05209 0.45606
 H106 H 0.56113 0.04607 0.48301
 H107 H 0.54645 0.01688 0.43930
 H108 H 0.51737 0.06056 0.45397
 C109 C -0.03902 0.05515 0.53035
 C110 C -0.05272 0.04421 0.52762
 C111 C -0.05546 0.03050 0.53856
 C112 C -0.04447 0.02776 0.55222
 C113 C -0.03077 0.03870 0.55495
 C114 C -0.02806 0.05239 0.54401
 H115 H -0.06119 0.04638 0.51703
 H116 H -0.04654 0.01716 0.56072
 H117 H -0.01745 0.06086 0.54612
 C118 C 0.46151 0.55516 0.03046
 C119 C 0.47247 0.55245 0.04414
 C120 C 0.46977 0.53877 0.05510
 C121 C 0.45609 0.52780 0.05238
 C122 C 0.44512 0.53050 0.03870
 C123 C 0.44784 0.54418 0.02775
 H124 H 0.48305 0.56094 0.04624
 H125 H 0.45399 0.51721 0.06086
 H126 H 0.43935 0.54628 0.01716
 C127 C 0.53872 -0.05547 0.03035
 C128 C 0.52776 -0.05274 0.04404
 C129 C 0.53050 -0.03909 0.05503
 C130 C 0.54420 -0.02816 0.05234
 C131 C 0.55517 -0.03086 0.03867
 C132 C 0.55243 -0.04451 0.02768
 H133 H 0.51713 -0.06119 0.04616
 H134 H 0.54632 -0.01759 0.06085
 H135 H 0.56095 -0.04657 0.01710
 C136 C 1.03886 0.44524 0.53019
 C137 C 1.05254 0.45621 0.52749
 C138 C 1.05528 0.46988 0.53847
 C139 C 1.04430 0.47256 0.55216
 C140 C 1.03062 0.46159 0.55486
 C141 C 1.02791 0.44793 0.54387
 H142 H 1.06101 0.45408 0.51688
 H143 H 1.04637 0.48313 0.56070
 H144 H 1.01732 0.43944 0.54596
 C145 C 0.40093 0.00733 0.22740
 H146 H 0.40161 0.01881 0.23483
 C147 C 0.41198 0.00495 0.21380
 H148 H 0.42118 0.01465 0.21069
 C149 C 0.38830 -0.01948 0.22248
 H150 H 0.37926 -0.02908 0.22604
 C151 C 0.39912 -0.02236 0.20879
 H152 H 0.39826 -0.03411 0.20176
 N153 N 0.38926 -0.00472 0.23134
 C154 C 0.34913 0.02222 0.25808
 H155 H 0.34844 0.01479 0.26957
 C156 C 0.33809 0.03582 0.25568
 H157 H 0.32889 0.03895 0.26536
 C158 C 0.36178 0.02710 0.23129
 H159 H 0.37083 0.02351 0.22170
 C160 C 0.35098 0.04079 0.22838
 H161 H 0.35186 0.04781 0.21663
 Zn162 Zn 0.37502 -0.00061 0.25018
 N163 N 0.36080 0.01825 0.24605
 C164 C 0.38827 0.01828 0.27789
 N165 N 0.38923 0.00351 0.26904
 C166 C 0.40090 -0.00854 0.27301
 C167 C 0.41194 -0.00614 0.28661
 C168 C 0.39909 0.02118 0.29157
 C169 C 0.34914 -0.02344 0.24222
 C170 C 0.33809 -0.03703 0.24461
 C171 C 0.35090 -0.04199 0.27194
 C172 C 0.36173 -0.02830 0.26905
 N173 N 0.36079 -0.01947 0.25428
 H174 H 0.37923 0.02788 0.27430
 H175 H 0.40157 -0.02003 0.26559
 H176 H 0.42114 -0.01583 0.28974
 H177 H 0.39822 0.03294 0.29858
 H178 H 0.34848 -0.01602 0.23073
 H179 H 0.32891 -0.04017 0.23491
 H180 H 0.35175 -0.04900 0.28370
 H181 H 0.37076 -0.02471 0.27866
 C182 C 0.33906 0.04521 0.24071
 C183 C 0.41103 -0.01001 0.20440
 C184 C 0.33901 -0.04641 0.25959
 C185 C 0.41099 0.00884 0.29599
 C186 C 0.09916 -0.00816 0.72696
 H187 H 0.09847 -0.01963 0.73441
 C188 C 0.08810 -0.00578 0.71337
 H189 H 0.07888 -0.01546 0.71028
 C190 C 0.11182 0.01862 0.72200
 H191 H 0.12088 0.02822 0.72555
 C192 C 0.10099 0.02151 0.70832
 H193 H 0.10186 0.03324 0.70127
 N194 N 0.11085 0.00388 0.73088
 C195 C 0.15093 -0.02303 0.75773
 H196 H 0.15162 -0.01557 0.76919
 C197 C 0.16196 -0.03665 0.75537
 H198 H 0.17115 -0.03976 0.76507
 C199 C 0.13829 -0.02799 0.73094
 H200 H 0.12924 -0.02442 0.72133
 C201 C 0.14908 -0.04170 0.72808
 H202 H 0.14820 -0.04876 0.71635
 Zn203 Zn 0.12507 -0.00020 0.74974
 N204 N 0.13927 -0.01909 0.74567
 C205 C 0.11179 -0.01896 0.77751
 N206 N 0.11085 -0.00423 0.76860
 C207 C 0.09920 0.00784 0.77252
 C208 C 0.08815 0.00552 0.78613
 C209 C 0.10097 -0.02180 0.79121
 C210 C 0.15100 0.02257 0.74174
 C211 C 0.16207 0.03616 0.74410
 C212 C 0.14925 0.04120 0.77142
 C213 C 0.13840 0.02752 0.76855
 N214 N 0.13933 0.01865 0.75380
 H215 H 0.12082 -0.02859 0.77396
 H216 H 0.09854 0.01931 0.76506
 H217 H 0.07898 0.01523 0.78922
 H218 H 0.10182 -0.03352 0.79827
 H219 H 0.15165 0.01513 0.73026
 H220 H 0.17126 0.03926 0.73440
 H221 H 0.14840 0.04824 0.78316
 H222 H 0.12936 0.02397 0.77816
 C223 C 0.16098 -0.04609 0.74043
 C224 C 0.08906 0.00917 0.70395
 C225 C 0.16115 0.04557 0.75906
 C226 C 0.08909 -0.00942 0.79557
 C227 C 0.59929 0.49196 0.22739
 H228 H 0.59860 0.48047 0.23481
 C229 C 0.58826 0.49436 0.21379
 H230 H 0.57907 0.48468 0.21065
 C231 C 0.61194 0.51877 0.22254
 H232 H 0.62099 0.52837 0.22613
 C233 C 0.60114 0.52168 0.20884
 H234 H 0.60202 0.53343 0.20183
 N235 N 0.61096 0.50400 0.23137
 C236 C 0.65104 0.47705 0.25820
 H237 H 0.65171 0.48448 0.26968
 C238 C 0.66210 0.46346 0.25581
 H239 H 0.67128 0.46034 0.26550
 C240 C 0.63843 0.47216 0.23138
 H241 H 0.62940 0.47574 0.22178
 C242 C 0.64926 0.45847 0.22849
 H243 H 0.64840 0.45146 0.21674
 Zn244 Zn 0.62516 0.49988 0.25024
 N245 N 0.63939 0.48102 0.24614
 C246 C 0.61186 0.48102 0.27794
 N247 N 0.61091 0.49577 0.26908
 C248 C 0.59924 0.50782 0.27302
 C249 C 0.58818 0.50544 0.28660
 C250 C 0.60103 0.47813 0.29161
 C251 C 0.65108 0.52268 0.24234
 C252 C 0.66213 0.53628 0.24474
 C253 C 0.64922 0.54130 0.27202
 C254 C 0.63841 0.52760 0.26912
 N255 N 0.63939 0.51873 0.25437
 H256 H 0.62091 0.47141 0.27437
 H257 H 0.59858 0.51931 0.26558
 H258 H 0.57898 0.51513 0.28970
 H259 H 0.60189 0.46638 0.29864
 H260 H 0.65178 0.51524 0.23087
 H261 H 0.67134 0.53939 0.23506
 H262 H 0.64833 0.54833 0.28376
 H263 H 0.62935 0.52403 0.27871
 C264 C 0.66115 0.45407 0.24084
 C265 C 0.58923 0.50934 0.20441
 C266 C 0.66115 0.54569 0.25970
 C267 C 0.58912 0.49047 0.29600
 C268 C 0.90068 0.50786 0.72698
 H269 H 0.90132 0.51934 0.73442
 C270 C 0.91175 0.50549 0.71340
 H271 H 0.92093 0.51520 0.71030
 C272 C 0.88810 0.48103 0.72206
 H273 H 0.87907 0.47140 0.72562
 C274 C 0.89894 0.47815 0.70838
 H275 H 0.89811 0.46640 0.70136
 N276 N 0.88902 0.49578 0.73092
 C277 C 0.84886 0.52266 0.75769
 H278 H 0.84818 0.51522 0.76917
 C279 C 0.83781 0.53626 0.75531
 H280 H 0.82862 0.53938 0.76500
 C281 C 0.86150 0.52757 0.73090
 H282 H 0.87055 0.52400 0.72130
 C283 C 0.85068 0.54126 0.72801
 H284 H 0.85156 0.54830 0.71627
 Zn285 Zn 0.87477 0.49986 0.74976
 N286 N 0.86053 0.51871 0.74565
 C287 C 0.88800 0.51872 0.77750
 N288 N 0.88898 0.50397 0.76863
 C289 C 0.90065 0.49193 0.77258
 C290 C 0.91169 0.49432 0.78619
 C291 C 0.89880 0.52162 0.79119
 C292 C 0.84892 0.47700 0.74177
 C293 C 0.83788 0.46339 0.74414
 C294 C 0.85070 0.45843 0.77148
 C295 C 0.86151 0.47213 0.76860
 N296 N 0.86056 0.48098 0.75384
 H297 H 0.87895 0.52832 0.77392
 H298 H 0.90134 0.48045 0.76514
 H299 H 0.92089 0.48463 0.78930
 H300 H 0.89792 0.53336 0.79823
 H301 H 0.84825 0.48443 0.73029
 H302 H 0.82871 0.46025 0.73444
 H303 H 0.85156 0.45141 0.78323
 H304 H 0.87054 0.47573 0.77821
 C305 C 0.83878 0.54566 0.74035
 C306 C 0.91084 0.49052 0.70400
 C307 C 0.83882 0.45400 0.75912
 C308 C 0.91072 0.50928 0.79559
 C309 C 0.22728 0.40074 0.00779
 H310 H 0.23471 0.40141 0.01928
 C311 C 0.21369 0.41180 0.00542
 H312 H 0.21057 0.42099 0.01511
 C313 C 0.22237 0.38813 -0.01902
 H314 H 0.22594 0.37909 -0.02862
 C315 C 0.20868 0.39896 -0.02190
 H316 H 0.20166 0.39811 -0.03365
 N317 N 0.23123 0.38908 -0.00426
 C318 C 0.25802 0.34895 0.02263
 H319 H 0.26951 0.34827 0.01520
 C320 C 0.25563 0.33790 0.03622
 H321 H 0.26532 0.32870 0.03933
 C322 C 0.23121 0.36158 0.02753
 H323 H 0.22161 0.37062 0.02396
 C324 C 0.22832 0.35075 0.04122
 H325 H 0.21657 0.35162 0.04824
 Zn326 Zn 0.25009 0.37485 -0.00016
 N327 N 0.24597 0.36062 0.01868
 C328 C 0.27780 0.38811 0.01871
 N329 N 0.26895 0.38908 0.00396
 C330 C 0.27290 0.40076 -0.00807
 C331 C 0.28649 0.41181 -0.00567
 C332 C 0.29149 0.39893 0.02162
 C333 C 0.24215 0.34898 -0.02300
 C334 C 0.24454 0.33794 -0.03661
 C335 C 0.27186 0.35081 -0.04157
 C336 C 0.26896 0.36162 -0.02788
 N337 N 0.25420 0.36065 -0.01903
 H338 H 0.27423 0.37905 0.02830
 H339 H 0.26547 0.40144 -0.01956
 H340 H 0.28961 0.42102 -0.01535
 H341 H 0.29852 0.39805 0.03337
 H342 H 0.23066 0.34830 -0.01558
 H343 H 0.23485 0.32875 -0.03974
 H344 H 0.28362 0.35169 -0.04859
 H345 H 0.27857 0.37066 -0.02429
 C346 C 0.24066 0.33885 0.04561
 C347 C 0.20429 0.41086 -0.00955
 C348 C 0.25952 0.33891 -0.04599
 C349 C 0.29589 0.41085 0.00929
 C350 C 0.72738 0.09892 -0.00796
 H351 H 0.73477 0.09828 -0.01947
 C352 C 0.71380 0.08785 -0.00555
 H353 H 0.71065 0.07868 -0.01525
 C354 C 0.72257 0.11148 0.01889
 H355 H 0.72617 0.12051 0.02850
 C356 C 0.70890 0.10064 0.02181
 H357 H 0.70192 0.10147 0.03359
 N358 N 0.73137 0.11057 0.00410
 C359 C 0.75805 0.15072 -0.02288
 H360 H 0.76957 0.15140 -0.01550
 C361 C 0.75560 0.16177 -0.03646
 H362 H 0.76529 0.17096 -0.03962
 C363 C 0.73121 0.13810 -0.02767
 H364 H 0.72162 0.12906 -0.02405
 C365 C 0.72826 0.14893 -0.04134
 H366 H 0.71647 0.14807 -0.04831
 Zn367 Zn 0.75020 0.12483 -0.00005
 N368 N 0.74601 0.13906 -0.01888
 C369 C 0.77786 0.11160 -0.01902
 N370 N 0.76906 0.11063 -0.00423
 C371 C 0.77307 0.09897 0.00780
 C372 C 0.78667 0.08794 0.00537
 C373 C 0.79155 0.10079 -0.02196
 C374 C 0.74228 0.15067 0.02281
 C375 C 0.74469 0.16171 0.03641
 C376 C 0.77206 0.14893 0.04129
 C377 C 0.76914 0.13811 0.02760
 N378 N 0.75434 0.13904 0.01880
 H379 H 0.77424 0.12063 -0.02861
 H380 H 0.76569 0.09829 0.01932
 H381 H 0.78984 0.07875 0.01504
 H382 H 0.79853 0.10166 -0.03374
 H383 H 0.73076 0.15132 0.01543
 H384 H 0.73498 0.17087 0.03957
 H385 H 0.78384 0.14808 0.04827
 H386 H 0.77875 0.12910 0.02398
 C387 C 0.74059 0.16083 -0.04579
 C388 C 0.70446 0.08876 0.00946
 C389 C 0.75970 0.16079 0.04575
 C390 C 0.79601 0.08889 -0.00964
 C391 C 0.22683 0.59905 0.49222
 H392 H 0.23427 0.59839 0.48074
 C393 C 0.21323 0.58799 0.49458
 H394 H 0.21012 0.57882 0.48488
 C395 C 0.22193 0.61163 0.51904
 H396 H 0.22550 0.62066 0.52866
 C397 C 0.20823 0.60081 0.52191
 H398 H 0.20121 0.60165 0.53366
 N399 N 0.23079 0.61069 0.50429
 C400 C 0.25761 0.65083 0.47743
 H401 H 0.26909 0.65150 0.48487
 C402 C 0.25524 0.66189 0.46384
 H403 H 0.26494 0.67108 0.46074
 C404 C 0.23080 0.63822 0.47249
 H405 H 0.22119 0.62917 0.47605
 C406 C 0.22792 0.64904 0.45881
 H407 H 0.21618 0.64818 0.45178
 Zn408 Zn 0.24965 0.62493 0.50021
 N409 N 0.24555 0.63917 0.48136
 C410 C 0.27738 0.61169 0.48135
 N411 N 0.26852 0.61072 0.49610
 C412 C 0.27248 0.59905 0.50815
 C413 C 0.28608 0.58801 0.50576
 C414 C 0.29108 0.60088 0.47846
 C415 C 0.24168 0.65079 0.52303
 C416 C 0.24406 0.66184 0.53663
 C417 C 0.27140 0.64903 0.54161
 C418 C 0.26851 0.63820 0.52792
 N419 N 0.25374 0.63914 0.51907
 H420 H 0.27380 0.62073 0.47175
 H421 H 0.26504 0.59837 0.51963
 H422 H 0.28920 0.57882 0.51545
 H423 H 0.29811 0.60175 0.46672
 H424 H 0.23018 0.65145 0.51561
 H425 H 0.23435 0.67102 0.53975
 H426 H 0.28315 0.64818 0.54862
 H427 H 0.27812 0.62918 0.52434
 C428 C 0.24028 0.66095 0.45443
 C429 C 0.20383 0.58892 0.50955
 C430 C 0.25904 0.66091 0.54601
 C431 C 0.29548 0.58897 0.49080
 C432 C 0.72721 0.90151 0.50797
 H433 H 0.73465 0.90220 0.51944
 C434 C 0.71359 0.91253 0.50559
 H435 H 0.71046 0.92172 0.51528
 C436 C 0.72229 0.88886 0.48118
 H437 H 0.72587 0.87982 0.47157
 C438 C 0.70858 0.89966 0.47829
 H439 H 0.70154 0.89878 0.46656
 N440 N 0.73117 0.88984 0.49592
 C441 C 0.75805 0.84977 0.52282
 H442 H 0.76953 0.84911 0.51538
 C443 C 0.75569 0.83872 0.53641
 H444 H 0.76539 0.82954 0.53952
 C445 C 0.73123 0.86236 0.52774
 H446 H 0.72161 0.87139 0.52417
 C447 C 0.72836 0.85154 0.54143
 H448 H 0.71661 0.85239 0.54846
 Zn449 Zn 0.75005 0.87565 0.50001
 N450 N 0.74598 0.86142 0.51887
 C451 C 0.77778 0.88895 0.51884
 N452 N 0.76890 0.88990 0.50410
 C453 C 0.77284 0.90156 0.49204
 C454 C 0.78643 0.91262 0.49441
 C455 C 0.79147 0.89978 0.52172
 C456 C 0.74211 0.84974 0.47722
 C457 C 0.74449 0.83869 0.46362
 C458 C 0.77179 0.85158 0.45859
 C459 C 0.76890 0.86240 0.47228
 N460 N 0.75415 0.86142 0.48116
 H461 H 0.77421 0.87991 0.52845
 H462 H 0.76539 0.90223 0.48057
 H463 H 0.78954 0.92181 0.48472
 H464 H 0.79851 0.89892 0.53346
 H465 H 0.73064 0.84905 0.48467
 H466 H 0.73481 0.82948 0.46052
 H467 H 0.78353 0.85247 0.45155
 H468 H 0.77850 0.87146 0.47584
 C469 C 0.74072 0.83965 0.54582
 C470 C 0.70417 0.91156 0.49064
 C471 C 0.75945 0.83966 0.45421
 C472 C 0.79585 0.91168 0.50937
 C473 C 0.00775 0.22737 0.40068
 H474 H 0.01925 0.23480 0.40134
 C475 C 0.00536 0.21380 0.41175
 H476 H 0.01506 0.21069 0.42094
 C477 C -0.01907 0.22247 0.38808
 H478 H -0.02867 0.22603 0.37903
 C479 C -0.02197 0.20880 0.39892
 H480 H -0.03372 0.20178 0.39807
 N481 N -0.00430 0.23131 0.38901
 C482 C 0.02268 0.25799 0.34886
 H483 H 0.01526 0.26949 0.34816
 C484 C 0.03628 0.25556 0.33783
 H485 H 0.03942 0.26523 0.32862
 C486 C 0.02752 0.23119 0.36153
 H487 H 0.02392 0.22161 0.37058
 C488 C 0.04121 0.22826 0.35073
 H489 H 0.04821 0.21650 0.35161
 Zn490 Zn -0.00017 0.25013 0.37474
 N491 N 0.01869 0.24597 0.36054
 C492 C 0.01874 0.27785 0.38795
 N493 N 0.00396 0.26902 0.38892
 C494 C -0.00810 0.27304 0.40055
 C495 C -0.00569 0.28666 0.41157
 C496 C 0.02165 0.29156 0.39874
 C497 C -0.02300 0.24212 0.34889
 C498 C -0.03660 0.24448 0.33784
 C499 C -0.04156 0.27184 0.35059
 C500 C -0.02787 0.26898 0.36142
 N501 N -0.01903 0.25421 0.36051
 H502 H 0.02835 0.27422 0.37894
 H503 H -0.01961 0.26563 0.40123
 H504 H -0.01539 0.28982 0.42074
 H505 H 0.03343 0.29855 0.39788
 H506 H -0.01557 0.23063 0.34825
 H507 H -0.03973 0.23476 0.32868
 H508 H -0.04858 0.28360 0.35142
 H509 H -0.02428 0.27861 0.37042
 C510 C 0.04565 0.24057 0.33881
 C511 C -0.00962 0.20441 0.41082
 C512 C -0.04598 0.25946 0.33874
 C513 C 0.00931 0.29601 0.41062
 C514 C -0.00786 0.72755 0.09890
 H515 H -0.01936 0.73497 0.09825
 C516 C -0.00549 0.71396 0.08784
 H517 H -0.01520 0.71083 0.07867
 C518 C 0.01898 0.72266 0.11146
 H519 H 0.02860 0.72624 0.12049
 C520 C 0.02186 0.70897 0.10063
 H521 H 0.03361 0.70195 0.10147
 N522 N 0.00421 0.73150 0.11054
 C523 C -0.02268 0.75823 0.15071
 H524 H -0.01525 0.76972 0.15139
 C525 C -0.03626 0.75582 0.16177
 H526 H -0.03938 0.76550 0.17098
 C527 C -0.02758 0.73143 0.13806
 H528 H -0.02401 0.72184 0.12901
 C529 C -0.04126 0.72852 0.14889
 H530 H -0.04828 0.71676 0.14802
 Zn531 Zn 0.00011 0.75034 0.12480
 N532 N -0.01873 0.74620 0.13903
 C533 C -0.01880 0.77804 0.11159
 N534 N -0.00402 0.76922 0.11062
 C535 C 0.00803 0.77323 0.09897
 C536 C 0.00562 0.78684 0.08796
 C537 C -0.02172 0.79175 0.10081
 C538 C 0.02297 0.74235 0.15063
 C539 C 0.03657 0.74472 0.16167
 C540 C 0.04152 0.77208 0.14891
 C541 C 0.02782 0.76921 0.13810
 N542 N 0.01898 0.75443 0.13901
 H543 H -0.02840 0.77443 0.12062
 H544 H 0.01953 0.76582 0.09828
 H545 H 0.01531 0.79000 0.07878
 H546 H -0.03348 0.79875 0.10168
 H547 H 0.01555 0.73084 0.15127
 H548 H 0.03971 0.73500 0.17082
 H549 H 0.04852 0.78385 0.14809
 H550 H 0.02422 0.77883 0.12909
 C551 C -0.04566 0.74084 0.16081
 C552 C 0.00949 0.70457 0.08876
 C553 C 0.04595 0.75971 0.16077
 C554 C -0.00937 0.79621 0.08892
 C555 C 0.49211 0.22698 0.59948
 H556 H 0.48062 0.23440 0.59881
 C557 C 0.49452 0.21339 0.58842
 H558 H 0.48483 0.21027 0.57923
 C559 C 0.51893 0.22210 0.61210
 H560 H 0.52853 0.22568 0.62114
 C561 C 0.52184 0.20842 0.60127
 H562 H 0.53360 0.20141 0.60213
 N563 N 0.50416 0.23094 0.61114
 C564 C 0.47720 0.25771 0.65125
 H565 H 0.48463 0.26919 0.65194
 C566 C 0.46359 0.25531 0.66228
 H567 H 0.46046 0.26500 0.67147
 C568 C 0.47231 0.23090 0.63861
 H569 H 0.47590 0.22131 0.62956
 C570 C 0.45860 0.22800 0.64940
 H571 H 0.45158 0.21625 0.64852
 Zn572 Zn 0.50004 0.24979 0.62538
 N573 N 0.48117 0.24566 0.63959
 C574 C 0.48116 0.27750 0.61213
 N575 N 0.49593 0.26866 0.61117
 C576 C 0.50798 0.27263 0.59952
 C577 C 0.50559 0.28623 0.58848
 C578 C 0.47826 0.29120 0.60133
 C579 C 0.52286 0.24184 0.65126
 C580 C 0.53646 0.24423 0.66231
 C581 C 0.54143 0.27156 0.64949
 C582 C 0.52773 0.26867 0.63867
 N583 N 0.51889 0.25390 0.63961
 H584 H 0.47155 0.27391 0.62116
 H585 H 0.51947 0.26520 0.59884
 H586 H 0.51528 0.28936 0.57930
 H587 H 0.46651 0.29822 0.60219
 H588 H 0.51543 0.23035 0.65192
 H589 H 0.53959 0.23453 0.67148
 H590 H 0.54844 0.28332 0.64864
 H591 H 0.52415 0.27828 0.62964
 C592 C 0.45419 0.24034 0.66130
 C593 C 0.50950 0.20401 0.58936
 C594 C 0.54584 0.25921 0.66137
 C595 C 0.49061 0.29562 0.58943
 C596 C 0.50785 0.72763 0.90101
 H597 H 0.51933 0.73506 0.90169
 C598 C 0.50546 0.71402 0.91204
 H599 H 0.51516 0.71090 0.92122
 C600 C 0.48103 0.72273 0.88839
 H601 H 0.47142 0.72631 0.87935
 C602 C 0.47814 0.70903 0.89919
 H603 H 0.46639 0.70200 0.89832
 N604 N 0.49579 0.73159 0.88935
 C605 C 0.52274 0.75840 0.84927
 H606 H 0.51532 0.76989 0.84860
 C607 C 0.53634 0.75601 0.83823
 H608 H 0.53947 0.76570 0.82904
 C609 C 0.52761 0.73158 0.86187
 H610 H 0.52402 0.72197 0.87090
 C611 C 0.54130 0.72868 0.85106
 H612 H 0.54831 0.71692 0.85191
 Zn613 Zn 0.49990 0.75045 0.87514
 N614 N 0.51876 0.74634 0.86092
 C615 C 0.51879 0.77814 0.88843
 N616 N 0.50402 0.76930 0.88937
 C617 C 0.49196 0.77327 0.90102
 C618 C 0.49436 0.78686 0.91208
 C619 C 0.52170 0.79182 0.89926
 C620 C 0.47709 0.74252 0.84925
 C621 C 0.46348 0.74490 0.83821
 C622 C 0.45849 0.77221 0.85107
 C623 C 0.47218 0.76932 0.86188
 N624 N 0.48104 0.75456 0.86092
 H625 H 0.52840 0.77456 0.87940
 H626 H 0.48046 0.76585 0.90168
 H627 H 0.48466 0.78999 0.92126
 H628 H 0.53346 0.79883 0.89841
 H629 H 0.48452 0.73103 0.84857
 H630 H 0.46036 0.73521 0.82902
 H631 H 0.45146 0.78396 0.85194
 H632 H 0.47576 0.77893 0.87093
 C633 C 0.54572 0.74102 0.83917
 C634 C 0.49049 0.70462 0.91108
 C635 C 0.45408 0.75987 0.83917
 C636 C 0.50935 0.79623 0.91115
 C637 C 0.18092 0.21372 0.23066
 C638 C 0.16915 0.21606 0.24009
 C639 C 0.15509 0.21887 0.25133
 C640 C 0.15262 0.20823 0.26528
 C641 C 0.13896 0.21093 0.27620
 C642 C 0.12758 0.22434 0.27332
 C643 C 0.13019 0.23497 0.25926
 C644 C 0.14385 0.23223 0.24834
 C645 C 0.11306 0.22722 0.28492
 C646 C 0.10839 0.24375 0.28965
 C647 C 0.09473 0.24644 0.30057
 C648 C 0.08554 0.23268 0.30690
 C649 C 0.09008 0.21619 0.30227
 C650 C 0.10374 0.21346 0.29135
 C651 C 0.07148 0.23546 0.31814
 C652 C 0.05970 0.23779 0.32756
 H653 H 0.16127 0.19787 0.26773
 H654 H 0.13742 0.20267 0.28703
 H655 H 0.12154 0.24525 0.25657
 H656 H 0.14562 0.24051 0.23756
 H657 H 0.11544 0.25459 0.28509
 H658 H 0.09135 0.25926 0.30412
 H659 H 0.08302 0.20544 0.30705
 H660 H 0.10688 0.20061 0.28778
 C661 C 0.68085 0.71441 0.73078
 C662 C 0.66909 0.71674 0.74022
 C663 C 0.65505 0.71952 0.75149
 C664 C 0.65598 0.71412 0.76834
 C665 C 0.64235 0.71681 0.77930
 C666 C 0.62758 0.72495 0.77354
 C667 C 0.62677 0.73034 0.75658
 C668 C 0.64042 0.72763 0.74564
 C669 C 0.61308 0.72781 0.78517
 C670 C 0.60401 0.74315 0.78475
 C671 C 0.59037 0.74582 0.79571
 C672 C 0.58559 0.73322 0.80721
 C673 C 0.59452 0.71792 0.80773
 C674 C 0.60818 0.71523 0.79679
 C675 C 0.57154 0.73598 0.81846
 C676 C 0.55977 0.73828 0.82790
 H677 H 0.66727 0.70788 0.77301
 H678 H 0.64344 0.71272 0.79233
 H679 H 0.61551 0.73644 0.75171
 H680 H 0.63955 0.73182 0.73261
 H681 H 0.60761 0.75316 0.77611
 H682 H 0.58357 0.75772 0.79524
 H683 H 0.59090 0.70807 0.81655
 H684 H 0.61476 0.70321 0.79727
 C685 C 0.31873 0.78624 0.73098
 C686 C 0.33052 0.78393 0.74040
 C687 C 0.34459 0.78119 0.75164
 C688 C 0.34244 0.77159 0.76637
 C689 C 0.35610 0.76892 0.77731
 C690 C 0.37212 0.77582 0.77364
 C691 C 0.37414 0.78545 0.75878
 C692 C 0.36046 0.78811 0.74787
 C693 C 0.38664 0.77299 0.78524
 C694 C 0.40290 0.76965 0.77876
 C695 C 0.41656 0.76698 0.78970
 C696 C 0.41417 0.76763 0.80724
 C697 C 0.39806 0.77096 0.81381
 C698 C 0.38438 0.77362 0.80290
 C699 C 0.42824 0.76489 0.81848
 C700 C 0.44002 0.76260 0.82791
 H701 H 0.33022 0.76614 0.76939
 H702 H 0.35419 0.76128 0.78852
 H703 H 0.38625 0.79111 0.75571
 H704 H 0.36225 0.79560 0.73652
 H705 H 0.40501 0.76886 0.76524
 H706 H 0.42898 0.76436 0.78448
 H707 H 0.39608 0.77154 0.82737
 H708 H 0.37207 0.77639 0.80827
 C709 C -0.18123 0.28582 0.23042
 C710 C -0.16946 0.28349 0.23985
 C711 C -0.15540 0.28072 0.25111
 C712 C -0.15778 0.28150 0.26864
 C713 C -0.14413 0.27881 0.27959
 C714 C -0.12790 0.27532 0.27312
 C715 C -0.12564 0.27457 0.25547
 C716 C -0.13932 0.27725 0.24455
 C717 C -0.11338 0.27249 0.28474
 C718 C -0.09733 0.27929 0.28101
 C719 C -0.08368 0.27663 0.29196
 C720 C -0.08587 0.26715 0.30676
 C721 C -0.10177 0.26033 0.31058
 C722 C -0.11545 0.26298 0.29966
 C723 C -0.07181 0.26443 0.31803
 C724 C -0.06004 0.26216 0.32747
 H725 H -0.17017 0.28423 0.27385
 H726 H -0.14623 0.27970 0.29310
 H727 H -0.11336 0.27169 0.25010
 H728 H -0.13735 0.27657 0.23099
 H729 H -0.09539 0.28685 0.26974
 H730 H -0.07144 0.28201 0.28891
 H731 H -0.10359 0.25293 0.32198
 H732 H -0.12758 0.25740 0.30277
 C733 C -0.18077 0.71434 0.26925
 C734 C -0.16900 0.71666 0.25982
 C735 C -0.15495 0.71943 0.24855
 C736 C -0.15597 0.71421 0.23165
 C737 C -0.14234 0.71689 0.22069
 C738 C -0.12748 0.72482 0.22650
 C739 C -0.12658 0.73002 0.24352
 C740 C -0.14024 0.72733 0.25445
 C741 C -0.11298 0.72767 0.21487
 C742 C -0.09625 0.72514 0.22045
 C743 C -0.08261 0.72780 0.20948
 C744 C -0.08550 0.73304 0.19281
 C745 C -0.10209 0.73561 0.18714
 C746 C -0.11575 0.73293 0.19807
 C747 C -0.07146 0.73578 0.18154
 C748 C -0.05969 0.73809 0.17209
 H749 H -0.16729 0.70803 0.22696
 H750 H -0.14333 0.71255 0.20772
 H751 H -0.11541 0.73635 0.24832
 H752 H -0.13934 0.73147 0.26750
 H753 H -0.09371 0.72088 0.23323
 H754 H -0.06982 0.72574 0.21400
 H755 H -0.10446 0.73971 0.17427
 H756 H -0.12846 0.73520 0.19346
 C757 C 0.31882 0.21384 0.76944
 C758 C 0.33060 0.21618 0.76001
 C759 C 0.34465 0.21897 0.74876
 C760 C 0.34293 0.21576 0.73143
 C761 C 0.35658 0.21844 0.72049
 C762 C 0.37217 0.22439 0.72677
 C763 C 0.37377 0.22759 0.74422
 C764 C 0.36009 0.22489 0.75513
 C765 C 0.38670 0.22722 0.71516
 C766 C 0.39724 0.24145 0.71715
 C767 C 0.41091 0.24410 0.70622
 C768 C 0.41424 0.23258 0.69319
 C769 C 0.40384 0.21838 0.69111
 C770 C 0.39015 0.21571 0.70201
 C771 C 0.42832 0.23531 0.68196
 C772 C 0.44012 0.23760 0.67255
 H773 H 0.33101 0.21122 0.72636
 H774 H 0.35489 0.21607 0.70710
 H775 H 0.38566 0.23196 0.74947
 H776 H 0.36158 0.22737 0.76854
 H777 H 0.39478 0.25065 0.72701
 H778 H 0.41886 0.25516 0.70792
 H779 H 0.40633 0.20936 0.68108
 H780 H 0.38241 0.20453 0.70029
 C781 C 0.68116 0.28575 0.76958
 C782 C 0.66938 0.28342 0.76016
 C783 C 0.65531 0.28065 0.74892
 C784 C 0.64360 0.29362 0.74598
 C785 C 0.62992 0.29094 0.73507
 C786 C 0.62778 0.27523 0.72693
 C787 C 0.63963 0.26228 0.72996
 C788 C 0.65329 0.26498 0.74089
 C789 C 0.61326 0.27238 0.71532
 C790 C 0.61545 0.26334 0.70013
 C791 C 0.60178 0.26068 0.68921
 C792 C 0.58574 0.26699 0.69332
 C793 C 0.58342 0.27598 0.70841
 C794 C 0.59708 0.27867 0.71934
 C795 C 0.57168 0.26424 0.68207
 C796 C 0.55990 0.26194 0.67264
 H797 H 0.64507 0.30581 0.75209
 H798 H 0.62114 0.30123 0.73282
 H799 H 0.63822 0.24999 0.72407
 H800 H 0.66226 0.25484 0.74312
 H801 H 0.62779 0.25853 0.69657
 H802 H 0.60372 0.25374 0.67754
 H803 H 0.57104 0.28088 0.71174
 H804 H 0.59493 0.28548 0.73104
 C805 C 0.18114 0.78605 0.26917
 C806 C 0.16937 0.78374 0.25973
 C807 C 0.15532 0.78100 0.24846
 C808 C 0.14658 0.76559 0.24874
 C809 C 0.13293 0.76291 0.23779
 C810 C 0.12783 0.77563 0.22642
 C811 C 0.13670 0.79109 0.22624
 C812 C 0.15036 0.79373 0.23719
 C813 C 0.11332 0.77281 0.21479
 C814 C 0.10155 0.78581 0.21167
 C815 C 0.08789 0.78313 0.20072
 C816 C 0.08583 0.76745 0.19274
 C817 C 0.09747 0.75444 0.19575
 C818 C 0.11112 0.75708 0.20670
 C819 C 0.07178 0.76471 0.18148
 C820 C 0.06000 0.76243 0.17203
 H821 H 0.15028 0.75566 0.25745
 H822 H 0.12622 0.75097 0.23839
 H823 H 0.13323 0.80104 0.21749
 H824 H 0.15707 0.80569 0.23684
 H825 H 0.10276 0.79798 0.21786
 H826 H 0.07893 0.79328 0.19852
 H827 H 0.09601 0.74226 0.18960
 H828 H 0.12009 0.74690 0.20867
 C829 C 0.23088 0.18048 0.21395
 C830 C 0.24030 0.16870 0.21629
 C831 C 0.25154 0.15464 0.21909
 C832 C 0.26892 0.15744 0.22114
 C833 C 0.27986 0.14379 0.22385
 C834 C 0.27354 0.12714 0.22456
 C835 C 0.25604 0.12447 0.22249
 C836 C 0.24513 0.13814 0.21976
 C837 C 0.28515 0.11263 0.22744
 C838 C 0.28039 0.09920 0.23814
 C839 C 0.29132 0.08555 0.24083
 C840 C 0.30715 0.08512 0.23287
 C841 C 0.31200 0.09840 0.22220
 C842 C 0.30110 0.11207 0.21950
 C843 C 0.31839 0.07105 0.23564
 C844 C 0.32781 0.05927 0.23796
 H845 H 0.27401 0.17017 0.22069
 H846 H 0.29323 0.14628 0.22562
 H847 H 0.25082 0.11180 0.22274
 H848 H 0.23171 0.13583 0.21814
 H849 H 0.26830 0.09937 0.24460
 H850 H 0.28746 0.07535 0.24915
 H851 H 0.32421 0.09816 0.21594
 H852 H 0.30504 0.12209 0.21102
 C853 C 0.73077 0.68116 0.71399
 C854 C 0.74018 0.66936 0.71630
 C855 C 0.75140 0.65528 0.71906
 C856 C 0.74581 0.64110 0.72809
 C857 C 0.75670 0.62741 0.73077
 C858 C 0.77335 0.62772 0.72443
 C859 C 0.77885 0.64204 0.71536
 C860 C 0.76794 0.65572 0.71271
 C861 C 0.78493 0.61317 0.72725
 C862 C 0.79577 0.60757 0.71427
 C863 C 0.80666 0.59387 0.71694
 C864 C 0.80688 0.58560 0.73260
 C865 C 0.79616 0.59107 0.74560
 C866 C 0.78524 0.60476 0.74295
 C867 C 0.81811 0.57152 0.73534
 C868 C 0.82753 0.55973 0.73763
 H869 H 0.73302 0.64061 0.73302
 H870 H 0.75202 0.61649 0.73760
 H871 H 0.79165 0.64276 0.71052
 H872 H 0.77241 0.66666 0.70574
 H873 H 0.79567 0.61363 0.70198
 H874 H 0.81488 0.58971 0.70678
 H875 H 0.79626 0.58479 0.75779
 H876 H 0.77722 0.60890 0.75326
 C877 C 0.73043 0.31882 0.78565
 C878 C 0.73987 0.33058 0.78331
 C879 C 0.75115 0.34463 0.78053
 C880 C 0.74481 0.36005 0.77453
 C881 C 0.75575 0.37370 0.77183
 C882 C 0.77320 0.37211 0.77512
 C883 C 0.77943 0.35654 0.78115
 C884 C 0.76847 0.34290 0.78383
 C885 C 0.78483 0.38661 0.77227
 C886 C 0.79795 0.39011 0.78381
 C887 C 0.80888 0.40377 0.78112
 C888 C 0.80687 0.41410 0.76688
 C889 C 0.79387 0.41073 0.75532
 C890 C 0.78292 0.39708 0.75799
 C891 C 0.81813 0.42816 0.76413
 C892 C 0.82756 0.43994 0.76184
 H893 H 0.73142 0.36153 0.77199
 H894 H 0.75053 0.38557 0.76740
 H895 H 0.79282 0.35485 0.78358
 H896 H 0.77351 0.33101 0.78843
 H897 H 0.79961 0.38242 0.79503
 H898 H 0.81887 0.40630 0.79018
 H899 H 0.79223 0.41863 0.74423
 H900 H 0.77309 0.39459 0.74876
 C901 C 0.23055 -0.18154 0.28611
 C902 C 0.24001 -0.16978 0.28379
 C903 C 0.25129 -0.15574 0.28102
 C904 C 0.26127 -0.14962 0.29431
 C905 C 0.27222 -0.13596 0.29165
 C906 C 0.27333 -0.12826 0.27562
 C907 C 0.26324 -0.13452 0.26234
 C908 C 0.25229 -0.14817 0.26504
 C909 C 0.28497 -0.11376 0.27277
 C910 C 0.29442 -0.11255 0.25772
 C911 C 0.30537 -0.09890 0.25506
 C912 C 0.30701 -0.08627 0.26738
 C913 C 0.29766 -0.08734 0.28238
 C914 C 0.28671 -0.10099 0.28508
 C915 C 0.31829 -0.07222 0.26462
 C916 C 0.32774 -0.06046 0.26232
 H917 H 0.26063 -0.15542 0.30672
 H918 H 0.27999 -0.13158 0.30206
 H919 H 0.26364 -0.12873 0.24993
 H920 H 0.24457 -0.15278 0.25468
 H921 H 0.29353 -0.12228 0.24811
 H922 H 0.31259 -0.09822 0.24342
 H923 H 0.29880 -0.07761 0.29198
 H924 H 0.27945 -0.10144 0.29669
 C925 C 0.26932 -0.18133 0.71410
 C926 C 0.25988 -0.16956 0.71642
 C927 C 0.24863 -0.15551 0.71920
 C928 C 0.23300 -0.15808 0.72714
 C929 C 0.22204 -0.14443 0.72982
 C930 C 0.22659 -0.12802 0.72460
 C931 C 0.24235 -0.12557 0.71664
 C932 C 0.25328 -0.13923 0.71396
 C933 C 0.21496 -0.11351 0.72744
 C934 C 0.22131 -0.09770 0.73266
 C935 C 0.21035 -0.08405 0.73531
 C936 C 0.19293 -0.08601 0.73277
 C937 C 0.18648 -0.10168 0.72758
 C938 C 0.19742 -0.11535 0.72493
 C939 C 0.18166 -0.07195 0.73547
 C940 C 0.17224 -0.06016 0.73773
 H941 H 0.22929 -0.17062 0.73129
 H942 H 0.21011 -0.14669 0.73618
 H943 H 0.24612 -0.11313 0.71228
 H944 H 0.26533 -0.13711 0.70776
 H945 H 0.23472 -0.09595 0.73491
 H946 H 0.21547 -0.07199 0.73938
 H947 H 0.17302 -0.10332 0.72553
 H948 H 0.19217 -0.12729 0.72071
 C949 C 0.76954 0.31891 0.21428
 C950 C 0.76011 0.33069 0.21661
 C951 C 0.74885 0.34474 0.21940
 C952 C 0.73323 0.34216 0.22736
 C953 C 0.72228 0.35580 0.23006
 C954 C 0.72682 0.37222 0.22484
 C955 C 0.74256 0.37467 0.21685
 C956 C 0.75349 0.36101 0.21415
 C957 C 0.71519 0.38672 0.22769
 C958 C 0.72153 0.40253 0.23291
 C959 C 0.71057 0.41617 0.23559
 C960 C 0.69314 0.41420 0.23307
 C961 C 0.68670 0.39854 0.22789
 C962 C 0.69763 0.38487 0.22522
 C963 C 0.68188 0.42826 0.23581
 C964 C 0.67243 0.44003 0.23810
 H965 H 0.72954 0.32962 0.23152
 H966 H 0.71035 0.35354 0.23644
 H967 H 0.74632 0.38711 0.21249
 H968 H 0.76553 0.36313 0.20793
 H969 H 0.73495 0.40429 0.23514
 H970 H 0.71569 0.42823 0.23965
 H971 H 0.67323 0.39689 0.22586
 H972 H 0.69238 0.37293 0.22099
 C973 C 0.76928 0.68112 0.28604
 C974 C 0.75986 0.66933 0.28374
 C975 C 0.74863 0.65525 0.28100
 C976 C 0.73191 0.65809 0.27588
 C977 C 0.72097 0.64442 0.27322
 C978 C 0.72665 0.62770 0.27564
 C979 C 0.74349 0.62499 0.28078
 C980 C 0.75440 0.63868 0.28344
 C981 C 0.71505 0.61317 0.27282
 C982 C 0.72087 0.59836 0.26479
 C983 C 0.70994 0.58469 0.26213
 C984 C 0.69307 0.58562 0.26746
 C985 C 0.68715 0.60028 0.27547
 C986 C 0.69806 0.61397 0.27812
 C987 C 0.68183 0.57154 0.26472
 C988 C 0.67240 0.55975 0.26243
 H989 H 0.72732 0.67087 0.27390
 H990 H 0.70815 0.64692 0.26906
 H991 H 0.74817 0.61229 0.28296
 H992 H 0.76731 0.63634 0.28745
 H993 H 0.73381 0.59744 0.26036
 H994 H 0.71463 0.57342 0.25588
 H995 H 0.67413 0.60111 0.27969
 H996 H 0.69326 0.62510 0.28454
 C997 C 0.26961 0.18071 0.78555
 C998 C 0.26018 0.16894 0.78323
 C999 C 0.24892 0.15488 0.78046
 C1000 C 0.23557 0.15185 0.79171
 C1001 C 0.22462 0.13820 0.78904
 C1002 C 0.22688 0.12739 0.77506
 C1003 C 0.24034 0.13056 0.76382
 C1004 C 0.25128 0.14421 0.76652
 C1005 C 0.21525 0.11288 0.77221
 C1006 C 0.20968 0.10883 0.75578
 C1007 C 0.19872 0.09518 0.75312
 C1008 C 0.19319 0.08540 0.76682
 C1009 C 0.19866 0.08932 0.78320
 C1010 C 0.20961 0.10297 0.78590
 C1011 C 0.18190 0.07137 0.76407
 C1012 C 0.17244 0.05961 0.76178
 H1013 H 0.23360 0.16006 0.80252
 H1014 H 0.21425 0.13623 0.79779
 H1015 H 0.24254 0.12235 0.75307
 H1016 H 0.26160 0.14642 0.75776
 H1017 H 0.21361 0.11634 0.74502
 H1018 H 0.19452 0.09228 0.74039
 H1019 H 0.19450 0.08181 0.79389
 H1020 H 0.21385 0.10563 0.79866
 C1021 C 0.21418 0.23046 0.18074
 C1022 C 0.21652 0.23990 0.16898
 C1023 C 0.21930 0.25117 0.15494
 C1024 C 0.21955 0.26870 0.15753
 C1025 C 0.22222 0.27966 0.14389
 C1026 C 0.22471 0.27321 0.12747
 C1027 C 0.22445 0.25557 0.12501
 C1028 C 0.22176 0.24463 0.13866
 C1029 C 0.22754 0.28484 0.11297
 C1030 C 0.23958 0.28092 0.10043
 C1031 C 0.24223 0.29188 0.08679
 C1032 C 0.23290 0.30688 0.08548
 C1033 C 0.22090 0.31090 0.09788
 C1034 C 0.21823 0.29997 0.11154
 C1035 C 0.23563 0.31814 0.07142
 C1036 C 0.23792 0.32758 0.05965
 H1037 H 0.21770 0.27389 0.17009
 H1038 H 0.22257 0.29316 0.14623
 H1039 H 0.22610 0.25023 0.11250
 H1040 H 0.22154 0.23108 0.13652
 H1041 H 0.24710 0.26949 0.10129
 H1042 H 0.25159 0.28867 0.07729
 H1043 H 0.21357 0.32246 0.09696
 H1044 H 0.20872 0.30324 0.12086
 C1045 C 0.71411 0.73120 0.68087
 C1046 C 0.71646 0.74065 0.66912
 C1047 C 0.71926 0.75191 0.65508
 C1048 C 0.72877 0.76670 0.65731
 C1049 C 0.73149 0.77766 0.64368
 C1050 C 0.72473 0.77396 0.62762
 C1051 C 0.71519 0.75905 0.62551
 C1052 C 0.71248 0.74811 0.63916
 C1053 C 0.72760 0.78559 0.61313
 C1054 C 0.73109 0.77915 0.59689
 C1055 C 0.73377 0.79012 0.58327
 C1056 C 0.73299 0.80765 0.58567
 C1057 C 0.72953 0.81419 0.60176
 C1058 C 0.72686 0.80325 0.61541
 C1059 C 0.73572 0.81893 0.57162
 C1060 C 0.73800 0.82837 0.55986
 H1061 H 0.73412 0.76973 0.66957
 H1062 H 0.73907 0.78891 0.64566
 H1063 H 0.70964 0.75596 0.61337
 H1064 H 0.70506 0.73673 0.63731
 H1065 H 0.73197 0.76563 0.59478
 H1066 H 0.73649 0.78492 0.57087
 H1067 H 0.72885 0.82775 0.60375
 H1068 H 0.72398 0.80860 0.62770
 C1069 C 0.78597 0.73118 0.31915
 C1070 C 0.78364 0.74063 0.33090
 C1071 C 0.78086 0.75192 0.34493
 C1072 C 0.77634 0.74543 0.36078
 C1073 C 0.77365 0.75637 0.37442
 C1074 C 0.77545 0.77398 0.37238
 C1075 C 0.78000 0.78038 0.35639
 C1076 C 0.78268 0.76941 0.34276
 C1077 C 0.77260 0.78563 0.38687
 C1078 C 0.78328 0.79966 0.38945
 C1079 C 0.78060 0.81060 0.40311
 C1080 C 0.76722 0.80768 0.41435
 C1081 C 0.75652 0.79377 0.41189
 C1082 C 0.75919 0.78280 0.39826
 C1083 C 0.76447 0.81895 0.42839
 C1084 C 0.76218 0.82839 0.44016
 H1085 H 0.77495 0.73190 0.36260
 H1086 H 0.77038 0.75105 0.38662
 H1087 H 0.78127 0.79388 0.35436
 H1088 H 0.78612 0.77457 0.33053
 H1089 H 0.79384 0.80204 0.38105
 H1090 H 0.78899 0.82130 0.40492
 H1091 H 0.74610 0.79142 0.42049
 H1092 H 0.75062 0.77225 0.39649
 C1093 C 0.28628 0.23068 -0.18121
 C1094 C 0.28393 0.24011 -0.16944
 C1095 C 0.28114 0.25135 -0.15539
 C1096 C 0.27606 0.26808 -0.15827
 C1097 C 0.27334 0.27902 -0.14462
 C1098 C 0.27567 0.27336 -0.12789
 C1099 C 0.28078 0.25651 -0.12514
 C1100 C 0.28349 0.24560 -0.13880
 C1101 C 0.27279 0.28497 -0.11339
 C1102 C 0.26468 0.27917 -0.09862
 C1103 C 0.26198 0.29012 -0.08497
 C1104 C 0.26735 0.30698 -0.08589
 C1105 C 0.27542 0.31287 -0.10051
 C1106 C 0.27813 0.30195 -0.11418
 C1107 C 0.26458 0.31822 -0.07182
 C1108 C 0.26227 0.32765 -0.06005
 H1109 H 0.27415 0.27265 -0.17105
 H1110 H 0.26920 0.29184 -0.14715
 H1111 H 0.28289 0.25184 -0.11243
 H1112 H 0.28747 0.23269 -0.13644
 H1113 H 0.26023 0.26624 -0.09771
 H1114 H 0.25567 0.28544 -0.07373
 H1115 H 0.27968 0.32589 -0.10133
 H1116 H 0.28460 0.30674 -0.12527
 C1117 C 0.71368 0.26893 -0.18105
 C1118 C 0.71601 0.25953 -0.16927
 C1119 C 0.71881 0.24831 -0.15519
 C1120 C 0.70628 0.23673 -0.15044
 C1121 C 0.70898 0.22583 -0.13676
 C1122 C 0.72429 0.22636 -0.12766
 C1123 C 0.73682 0.23805 -0.13256
 C1124 C 0.73408 0.24895 -0.14623
 C1125 C 0.72719 0.21477 -0.11314
 C1126 C 0.74307 0.20706 -0.11073
 C1127 C 0.74577 0.19613 -0.09707
 C1128 C 0.73266 0.19278 -0.08564
 C1129 C 0.71682 0.20039 -0.08791
 C1130 C 0.71409 0.21131 -0.10157
 C1131 C 0.73546 0.18153 -0.07159
 C1132 C 0.73780 0.17210 -0.05983
 H1133 H 0.69443 0.23610 -0.15732
 H1134 H 0.69918 0.21683 -0.13345
 H1135 H 0.74865 0.23892 -0.12568
 H1136 H 0.74386 0.25790 -0.14978
 H1137 H 0.75333 0.20929 -0.11954
 H1138 H 0.75807 0.19027 -0.09546
 H1139 H 0.70660 0.19792 -0.07911
 H1140 H 0.70179 0.21721 -0.10295
 C1141 C 0.21423 0.76929 0.31919
 C1142 C 0.21651 0.75987 0.33097
 C1143 C 0.21922 0.74862 0.34504
 C1144 C 0.20677 0.74683 0.35751
 C1145 C 0.20939 0.73590 0.37118
 C1146 C 0.22452 0.72659 0.37255
 C1147 C 0.23696 0.72848 0.35993
 C1148 C 0.23432 0.73943 0.34628
 C1149 C 0.22731 0.71497 0.38706
 C1150 C 0.23501 0.69909 0.38459
 C1151 C 0.23762 0.68815 0.39826
 C1152 C 0.23260 0.69293 0.41456
 C1153 C 0.22494 0.70870 0.41715
 C1154 C 0.22230 0.71965 0.40350
 C1155 C 0.23530 0.68167 0.42862
 C1156 C 0.23756 0.67222 0.44039
 H1157 H 0.19501 0.75385 0.35664
 H1158 H 0.19948 0.73456 0.38056
 H1159 H 0.24883 0.72166 0.36074
 H1160 H 0.24406 0.74075 0.33672
 H1161 H 0.23881 0.69503 0.37206
 H1162 H 0.24352 0.67596 0.39611
 H1163 H 0.22104 0.71254 0.42973
 H1164 H 0.21655 0.73187 0.40584
 C1165 C 0.28549 0.76942 0.68107
 C1166 C 0.28318 0.75997 0.66932
 C1167 C 0.28042 0.74869 0.65528
 C1168 C 0.26641 0.75096 0.64468
 C1169 C 0.26372 0.74000 0.63104
 C1170 C 0.27504 0.72663 0.62781
 C1171 C 0.28910 0.72447 0.63855
 C1172 C 0.29176 0.73543 0.65219
 C1173 C 0.27220 0.71499 0.61332
 C1174 C 0.28588 0.70946 0.60333
 C1175 C 0.28319 0.69850 0.58969
 C1176 C 0.26681 0.69292 0.58586
 C1177 C 0.25312 0.69834 0.59571
 C1178 C 0.25578 0.70930 0.60935
 C1179 C 0.26406 0.68164 0.57182
 C1180 C 0.26177 0.67219 0.56005
 H1181 H 0.25759 0.76121 0.64693
 H1182 H 0.25291 0.74213 0.62288
 H1183 H 0.29791 0.71416 0.63653
 H1184 H 0.30262 0.73353 0.66034
 H1185 H 0.29863 0.71378 0.60593
 H1186 H 0.29387 0.69442 0.58212
 H1187 H 0.24040 0.69406 0.59287
 H1188 H 0.24502 0.71315 0.61692
 C1189 C 0.78629 0.26900 0.18102
 C1190 C 0.78397 0.25958 0.16924
 C1191 C 0.78121 0.24834 0.15517
 C1192 C 0.79379 0.23681 0.15042
 C1193 C 0.79112 0.22588 0.13675
 C1194 C 0.77580 0.22634 0.12766
 C1195 C 0.76323 0.23799 0.13255
 C1196 C 0.76594 0.24891 0.14621
 C1197 C 0.77295 0.21474 0.11314
 C1198 C 0.75709 0.20697 0.11074
 C1199 C 0.75442 0.19604 0.09707
 C1200 C 0.76754 0.19273 0.08563
 C1201 C 0.78335 0.20040 0.08790
 C1202 C 0.78606 0.21132 0.10156
 C1203 C 0.76477 0.18148 0.07157
 C1204 C 0.76246 0.17205 0.05980
 H1205 H 0.80564 0.23623 0.15730
 H1206 H 0.80095 0.21692 0.13344
 H1207 H 0.75140 0.23881 0.12567
 H1208 H 0.75613 0.25783 0.14976
 H1209 H 0.74682 0.20916 0.11955
 H1210 H 0.74214 0.19013 0.09546
 H1211 H 0.79358 0.19796 0.07909
 H1212 H 0.79833 0.21728 0.10294
 C1213 C 0.46398 0.43077 0.48111
 C1214 C 0.46631 0.41901 0.49055
 C1215 C 0.46909 0.40497 0.50182
 C1216 C 0.45551 0.39792 0.51074
 C1217 C 0.45820 0.38428 0.52169
 C1218 C 0.47453 0.37750 0.52385
 C1219 C 0.48811 0.38469 0.51482
 C1220 C 0.48539 0.39833 0.50388
 C1221 C 0.47740 0.36300 0.53548
 C1222 C 0.48852 0.34983 0.53096
 C1223 C 0.49119 0.33618 0.54190
 C1224 C 0.48281 0.33551 0.55750
 C1225 C 0.47174 0.34854 0.56212
 C1226 C 0.46904 0.36220 0.55119
 C1227 C 0.48557 0.32145 0.56874
 C1228 C 0.48787 0.30967 0.57817
 H1229 H 0.44283 0.40293 0.50919
 H1230 H 0.44746 0.37889 0.52829
 H1231 H 0.50086 0.37990 0.51637
 H1232 H 0.49600 0.40373 0.49707
 H1233 H 0.49497 0.34996 0.51887
 H1234 H 0.49975 0.32613 0.53818
 H1235 H 0.46523 0.34817 0.57418
 H1236 H 0.46058 0.37225 0.55513
 C1237 C -0.03612 0.93144 -0.01927
 C1238 C -0.03378 0.91968 -0.00983
 C1239 C -0.03098 0.90564 0.00143
 C1240 C -0.04149 0.90331 0.01550
 C1241 C -0.03880 0.88966 0.02644
 C1242 C -0.02553 0.87815 0.02344
 C1243 C -0.01503 0.88062 0.00926
 C1244 C -0.01775 0.89427 -0.00166
 C1245 C -0.02266 0.86364 0.03505
 C1246 C -0.00612 0.85882 0.03962
 C1247 C -0.00344 0.84516 0.05054
 C1248 C -0.01723 0.83612 0.05704
 C1249 C -0.03372 0.84080 0.05257
 C1250 C -0.03644 0.85447 0.04166
 C1251 C -0.01446 0.82206 0.06827
 C1252 C -0.01214 0.81027 0.07768
 H1253 H -0.05174 0.91207 0.01804
 H1254 H -0.04696 0.88824 0.03736
 H1255 H -0.00485 0.87186 0.00649
 H1256 H -0.00957 0.89593 -0.01255
 H1257 H 0.00473 0.86576 0.03492
 H1258 H 0.00938 0.84167 0.05396
 H1259 H -0.04449 0.83386 0.05749
 H1260 H -0.04930 0.85772 0.03821
 C1261 C 0.03583 0.56915 -0.01934
 C1262 C 0.03351 0.58094 -0.00993
 C1263 C 0.03075 0.59502 0.00130
 C1264 C 0.02779 0.61119 -0.00530
 C1265 C 0.02512 0.62489 0.00559
 C1266 C 0.02536 0.62257 0.02326
 C1267 C 0.02834 0.60625 0.02976
 C1268 C 0.03102 0.59258 0.01884
 C1269 C 0.02253 0.63711 0.03484
 C1270 C 0.01259 0.63520 0.04950
 C1271 C 0.00994 0.64889 0.06040
 C1272 C 0.01719 0.66465 0.05682
 C1273 C 0.02709 0.66669 0.04228
 C1274 C 0.02975 0.65302 0.03135
 C1275 C 0.01447 0.67872 0.06806
 C1276 C 0.01220 0.69051 0.07749
 H1277 H 0.02750 0.61321 -0.01886
 H1278 H 0.02264 0.63724 0.00020
 H1279 H 0.02883 0.60410 0.04328
 H1280 H 0.03335 0.58012 0.02408
 H1281 H 0.00668 0.62317 0.05242
 H1282 H 0.00221 0.64718 0.07160
 H1283 H 0.03280 0.67883 0.03941
 H1284 H 0.03764 0.65484 0.02029
 C1285 C 0.53615 0.06890 0.48097
 C1286 C 0.53382 0.08067 0.49039
 C1287 C 0.53104 0.09473 0.50165
 C1288 C 0.54419 0.10611 0.50506
 C1289 C 0.54151 0.11976 0.51601
 C1290 C 0.52562 0.12221 0.52368
 C1291 C 0.51248 0.11069 0.52016
 C1292 C 0.51519 0.09704 0.50922
 C1293 C 0.52276 0.13670 0.53532
 C1294 C 0.50748 0.14586 0.53479
 C1295 C 0.50480 0.15951 0.54574
 C1296 C 0.51733 0.16418 0.55737
 C1297 C 0.53257 0.15515 0.55800
 C1298 C 0.53528 0.14151 0.54705
 C1299 C 0.51456 0.17822 0.56864
 C1300 C 0.51225 0.18998 0.57809
 H1301 H 0.55650 0.10445 0.49923
 H1302 H 0.55181 0.12852 0.51829
 H1303 H 0.50018 0.11210 0.52604
 H1304 H 0.50494 0.08828 0.50670
 H1305 H 0.49769 0.14262 0.52576
 H1306 H 0.49298 0.16644 0.54512
 H1307 H 0.54233 0.15863 0.56698
 H1308 H 0.54707 0.13458 0.54792
 C1309 C -0.03622 0.06921 0.51911
 C1310 C -0.03387 0.08099 0.50970
 C1311 C -0.03109 0.09505 0.49845
 C1312 C -0.03651 0.09415 0.48161
 C1313 C -0.03381 0.10780 0.47067
 C1314 C -0.02565 0.12255 0.47644
 C1315 C -0.02025 0.12332 0.49341
 C1316 C -0.02295 0.10966 0.50432
 C1317 C -0.02278 0.13706 0.46483
 C1318 C -0.02507 0.15379 0.47051
 C1319 C -0.02240 0.16744 0.45956
 C1320 C -0.01739 0.16455 0.44281
 C1321 C -0.01507 0.14797 0.43705
 C1322 C -0.01775 0.13430 0.44797
 C1323 C -0.01465 0.17861 0.43155
 C1324 C -0.01235 0.19037 0.42210
 H1325 H -0.04286 0.08292 0.47695
 H1326 H -0.03831 0.10690 0.45775
 H1327 H -0.01374 0.13441 0.49817
 H1328 H -0.01866 0.11047 0.51732
 H1329 H -0.02916 0.15633 0.48334
 H1330 H -0.02428 0.18023 0.46414
 H1331 H -0.01114 0.14559 0.42412
 H1332 H -0.01567 0.12158 0.44329
 C1333 C 0.46428 0.56922 1.01921
 C1334 C 0.46660 0.58100 1.00979
 C1335 C 0.46935 0.59506 0.99855
 C1336 C 0.47753 0.60965 1.00440
 C1337 C 0.48018 0.62334 0.99349
 C1338 C 0.47469 0.62260 0.97656
 C1339 C 0.46648 0.60786 0.97080
 C1340 C 0.46383 0.59420 0.98174
 C1341 C 0.47749 0.63713 0.96496
 C1342 C 0.48243 0.63441 0.94807
 C1343 C 0.48507 0.64810 0.93716
 C1344 C 0.48279 0.66468 0.94298
 C1345 C 0.47788 0.66752 0.95976
 C1346 C 0.47525 0.65386 0.97069
 C1347 C 0.48550 0.67876 0.93174
 C1348 C 0.48777 0.69055 0.92233
 H1349 H 0.48189 0.61043 1.01738
 H1350 H 0.48673 0.63440 0.99824
 H1351 H 0.46191 0.60699 0.95791
 H1352 H 0.45744 0.58298 0.97709
 H1353 H 0.48448 0.62170 0.94334
 H1354 H 0.48892 0.64575 0.92421
 H1355 H 0.47603 0.68031 0.96438
 H1356 H 0.47124 0.65636 0.98355
 C1357 C 0.53606 0.93125 1.01968
 C1358 C 0.53372 0.91949 1.01023
 C1359 C 0.53093 0.90545 0.99896
 C1360 C 0.51681 0.90531 0.98826
 C1361 C 0.51409 0.89168 0.97730
 C1362 C 0.52548 0.87799 0.97690
 C1363 C 0.53965 0.87825 0.98771
 C1364 C 0.54233 0.89189 0.99866
 C1365 C 0.52262 0.86350 0.96525
 C1366 C 0.53626 0.85605 0.95655
 C1367 C 0.53355 0.84242 0.94558
 C1368 C 0.51719 0.83605 0.94318
 C1369 C 0.50353 0.84337 0.95177
 C1370 C 0.50621 0.85701 0.96274
 C1371 C 0.51442 0.82202 0.93189
 C1372 C 0.51210 0.81027 0.92244
 H1373 H 0.50792 0.91577 0.98835
 H1374 H 0.50319 0.89195 0.96899
 H1375 H 0.54852 0.86781 0.98786
 H1376 H 0.55328 0.89185 1.00693
 H1377 H 0.54900 0.86090 0.95804
 H1378 H 0.54420 0.83688 0.93895
 H1379 H 0.49082 0.83850 0.95004
 H1380 H 0.49549 0.86232 0.96942
 C1381 C 0.03607 0.43120 0.51892
 C1382 C 0.03373 0.41944 0.50948
 C1383 C 0.03094 0.40539 0.49821
 C1384 C 0.01688 0.40529 0.48744
 C1385 C 0.01416 0.39165 0.47650
 C1386 C 0.02549 0.37790 0.47618
 C1387 C 0.03960 0.37813 0.48707
 C1388 C 0.04229 0.39178 0.49801
 C1389 C 0.02262 0.36340 0.46456
 C1390 C 0.03627 0.35586 0.45595
 C1391 C 0.03355 0.34221 0.44501
 C1392 C 0.01717 0.33591 0.44254
 C1393 C 0.00351 0.34331 0.45105
 C1394 C 0.00620 0.35697 0.46198
 C1395 C 0.01439 0.32185 0.43129
 C1396 C 0.01207 0.31007 0.42187
 H1397 H 0.00804 0.41578 0.48746
 H1398 H 0.00331 0.39195 0.46812
 H1399 H 0.04843 0.36765 0.48729
 H1400 H 0.05319 0.39171 0.50633
 H1401 H 0.04902 0.36066 0.45749
 H1402 H 0.04421 0.33660 0.43845
 H1403 H -0.00922 0.33850 0.44927
 H1404 H -0.00454 0.36236 0.46860
 C1405 C 0.43078 0.48073 0.46433
 C1406 C 0.41901 0.49017 0.46666
 C1407 C 0.40495 0.50142 0.46944
 C1408 C 0.40497 0.51760 0.46221
 C1409 C 0.39131 0.52854 0.46490
 C1410 C 0.37744 0.52343 0.47485
 C1411 C 0.37756 0.50713 0.48205
 C1412 C 0.39123 0.49622 0.47936
 C1413 C 0.36292 0.53503 0.47769
 C1414 C 0.34620 0.52886 0.47744
 C1415 C 0.33254 0.53980 0.48010
 C1416 C 0.33539 0.55704 0.48305
 C1417 C 0.35196 0.56331 0.48333
 C1418 C 0.36565 0.55239 0.48066
 C1419 C 0.32132 0.56828 0.48577
 C1420 C 0.30954 0.57771 0.48806
 H1421 H 0.41551 0.52174 0.45447
 H1422 H 0.39150 0.54092 0.45900
 H1423 H 0.36718 0.50291 0.48994
 H1424 H 0.39111 0.48374 0.48505
 H1425 H 0.34368 0.51561 0.47497
 H1426 H 0.31976 0.53482 0.47981
 H1427 H 0.35432 0.57662 0.48564
 H1428 H 0.37836 0.55749 0.48114
 C1429 C 0.93134 -0.01927 -0.03627
 C1430 C 0.91954 -0.00985 -0.03396
 C1431 C 0.90547 0.00138 -0.03120
 C1432 C 0.89209 -0.00355 -0.02069
 C1433 C 0.87841 0.00735 -0.01801
 C1434 C 0.87794 0.02337 -0.02580
 C1435 C 0.89147 0.02821 -0.03634
 C1436 C 0.90513 0.01727 -0.03902
 C1437 C 0.86342 0.03497 -0.02294
 C1438 C 0.86610 0.05245 -0.02069
 C1439 C 0.85243 0.06335 -0.01799
 C1440 C 0.83590 0.05697 -0.01752
 C1441 C 0.83310 0.03962 -0.01975
 C1442 C 0.84676 0.02868 -0.02244
 C1443 C 0.82184 0.06821 -0.01475
 C1444 C 0.81006 0.07764 -0.01242
 H1445 H 0.89225 -0.01581 -0.01454
 H1446 H 0.86831 0.00335 -0.00965
 H1447 H 0.89138 0.04035 -0.04270
 H1448 H 0.91540 0.02120 -0.04722
 H1449 H 0.87879 0.05764 -0.02079
 H1450 H 0.85474 0.07676 -0.01623
 H1451 H 0.82035 0.03455 -0.01946
 H1452 H 0.84426 0.01533 -0.02435
 C1453 C 0.56924 -0.01961 0.03591
 C1454 C 0.58103 -0.01019 0.03361
 C1455 C 0.59509 0.00107 0.03087
 C1456 C 0.61003 -0.00093 0.04019
 C1457 C 0.62370 0.01000 0.03754
 C1458 C 0.62261 0.02308 0.02549
 C1459 C 0.60753 0.02498 0.01618
 C1460 C 0.59388 0.01404 0.01887
 C1461 C 0.63713 0.03470 0.02266
 C1462 C 0.64152 0.03984 0.00617
 C1463 C 0.65519 0.05078 0.00352
 C1464 C 0.66462 0.05674 0.01728
 C1465 C 0.66036 0.05171 0.03371
 C1466 C 0.64671 0.04076 0.03640
 C1467 C 0.67867 0.06802 0.01453
 C1468 C 0.69043 0.07747 0.01222
 H1469 H 0.61112 -0.01096 0.04948
 H1470 H 0.63520 0.00808 0.04475
 H1471 H 0.60622 0.03505 0.00698
 H1472 H 0.58236 0.01572 0.01161
 H1473 H 0.63454 0.03522 -0.00468
 H1474 H 0.65841 0.05455 -0.00927
 H1475 H 0.66755 0.05629 0.04446
 H1476 H 0.64351 0.03722 0.04925
 C1477 C 0.06858 0.48054 0.53585
 C1478 C 0.08036 0.48998 0.53354
 C1479 C 0.09442 0.50124 0.53080
 C1480 C 0.10965 0.49501 0.52425
 C1481 C 0.12332 0.50593 0.52159
 C1482 C 0.12192 0.52328 0.52544
 C1483 C 0.10654 0.52942 0.53201
 C1484 C 0.09289 0.51846 0.53468
 C1485 C 0.13644 0.53490 0.52261
 C1486 C 0.13381 0.55122 0.51596
 C1487 C 0.14748 0.56215 0.51330
 C1488 C 0.16394 0.55694 0.51727
 C1489 C 0.16670 0.54074 0.52389
 C1490 C 0.15305 0.52978 0.52655
 C1491 C 0.17800 0.56820 0.51454
 C1492 C 0.18978 0.57765 0.51226
 H1493 H 0.11095 0.48170 0.52116
 H1494 H 0.13491 0.50086 0.51630
 H1495 H 0.10514 0.54265 0.53531
 H1496 H 0.08117 0.52341 0.53980
 H1497 H 0.12121 0.55545 0.51260
 H1498 H 0.14521 0.57465 0.50812
 H1499 H 0.17939 0.53660 0.52705
 H1500 H 0.15546 0.51739 0.53189
 C1501 C 0.06906 0.51918 -0.03603
 C1502 C 0.08084 0.50976 -0.03370
 C1503 C 0.09490 0.49851 -0.03091
 C1504 C 0.11061 0.50499 -0.02592
 C1505 C 0.12429 0.49408 -0.02323
 C1506 C 0.12240 0.47650 -0.02548
 C1507 C 0.10653 0.47011 -0.03048
 C1508 C 0.09288 0.48105 -0.03318
 C1509 C 0.13692 0.46489 -0.02264
 C1510 C 0.13453 0.44924 -0.01446
 C1511 C 0.14820 0.43831 -0.01180
 C1512 C 0.16442 0.44286 -0.01728
 C1513 C 0.16694 0.45839 -0.02543
 C1514 C 0.15329 0.46934 -0.02809
 C1515 C 0.17848 0.43159 -0.01456
 C1516 C 0.19025 0.42214 -0.01228
 H1517 H 0.11230 0.51848 -0.02408
 H1518 H 0.13627 0.49936 -0.01918
 H1519 H 0.10474 0.45667 -0.03253
 H1520 H 0.08078 0.47590 -0.03709
 H1521 H 0.12213 0.44555 -0.00992
 H1522 H 0.14612 0.42634 -0.00543
 H1523 H 0.17944 0.46201 -0.02976
 H1524 H 0.15550 0.48119 -0.03461
 C1525 C 0.56871 1.01957 0.46409
 C1526 C 0.58050 1.01016 0.46642
 C1527 C 0.59458 0.99894 0.46921
 C1528 C 0.59264 0.98149 0.46681
 C1529 C 0.60631 0.97058 0.46951
 C1530 C 0.62213 0.97699 0.47465
 C1531 C 0.62394 0.99456 0.47703
 C1532 C 0.61025 1.00544 0.47433
 C1533 C 0.63667 0.96541 0.47750
 C1534 C 0.65306 0.96996 0.47218
 C1535 C 0.66673 0.95904 0.47485
 C1536 C 0.66423 0.94345 0.48289
 C1537 C 0.64799 0.93881 0.48824
 C1538 C 0.63429 0.94970 0.48557
 C1539 C 0.67831 0.93222 0.48562
 C1540 C 0.69010 0.92280 0.48791
 H1541 H 0.58058 0.97633 0.46280
 H1542 H 0.60458 0.95715 0.46736
 H1543 H 0.63588 0.99985 0.48119
 H1544 H 0.61187 1.01893 0.47627
 H1545 H 0.65526 0.98186 0.46574
 H1546 H 0.67924 0.96274 0.47062
 H1547 H 0.64591 0.92679 0.49452
 H1548 H 0.62188 0.94593 0.49001
 C1549 C 0.93122 1.01986 0.53590
 C1550 C 0.91943 1.01045 0.53357
 C1551 C 0.90535 0.99921 0.53079
 C1552 C 0.89067 1.00516 0.52287
 C1553 C 0.87698 0.99426 0.52016
 C1554 C 0.87782 0.97723 0.52535
 C1555 C 0.89266 0.97138 0.53329
 C1556 C 0.90632 0.98231 0.53599
 C1557 C 0.86329 0.96563 0.52248
 C1558 C 0.86602 0.94883 0.51722
 C1559 C 0.85234 0.93792 0.51454
 C1560 C 0.83576 0.94364 0.51709
 C1561 C 0.83291 0.96032 0.52232
 C1562 C 0.84657 0.97126 0.52500
 C1563 C 0.82169 0.93239 0.51436
 C1564 C 0.80991 0.92295 0.51208
 H1565 H 0.88981 1.01821 0.51874
 H1566 H 0.86583 0.99909 0.51382
 H1567 H 0.89361 0.95841 0.53763
 H1568 H 0.91762 0.97758 0.54218
 H1569 H 0.87872 0.94418 0.51496
 H1570 H 0.85468 0.92504 0.51045
 H1571 H 0.82013 0.96487 0.52438
 H1572 H 0.84407 0.98405 0.52926
 C1573 C 0.43107 0.51923 0.03591
 C1574 C 0.41930 0.50980 0.03359
 C1575 C 0.40525 0.49853 0.03082
 C1576 C 0.39596 0.49946 0.01576
 C1577 C 0.38230 0.48852 0.01306
 C1578 C 0.37775 0.47650 0.02540
 C1579 C 0.38719 0.47568 0.04049
 C1580 C 0.40084 0.48663 0.04317
 C1581 C 0.36325 0.46487 0.02254
 C1582 C 0.36426 0.44776 0.02740
 C1583 C 0.35061 0.43682 0.02470
 C1584 C 0.33576 0.44283 0.01712
 C1585 C 0.33461 0.45983 0.01225
 C1586 C 0.34826 0.47078 0.01493
 C1587 C 0.32171 0.43157 0.01436
 C1588 C 0.30994 0.42212 0.01204
 H1589 H 0.39930 0.50860 0.00610
 H1590 H 0.37543 0.48932 0.00123
 H1591 H 0.38387 0.46672 0.05032
 H1592 H 0.40792 0.48584 0.05489
 H1593 H 0.37570 0.44277 0.03308
 H1594 H 0.35164 0.42368 0.02847
 H1595 H 0.32316 0.46462 0.00642
 H1596 H 0.34700 0.48393 0.01125
 C1597 C 0.48073 0.46394 0.43113
 C1598 C 0.49016 0.46626 0.41935
 C1599 C 0.50142 0.46904 0.40531
 C1600 C 0.51645 0.45975 0.40400
 C1601 C 0.52741 0.46243 0.39037
 C1602 C 0.52346 0.47446 0.37783
 C1603 C 0.50831 0.48374 0.37926
 C1604 C 0.49738 0.48103 0.39292
 C1605 C 0.53508 0.47732 0.36333
 C1606 C 0.52864 0.47978 0.34691
 C1607 C 0.53960 0.48245 0.33327
 C1608 C 0.55712 0.48271 0.33585
 C1609 C 0.56367 0.48029 0.35213
 C1610 C 0.55273 0.47761 0.36579
 C1611 C 0.56839 0.48545 0.32180
 C1612 C 0.57784 0.48774 0.31004
 H1613 H 0.51968 0.45039 0.41350
 H1614 H 0.53886 0.45494 0.38951
 H1615 H 0.50502 0.49323 0.36995
 H1616 H 0.48580 0.48833 0.39384
 H1617 H 0.51513 0.47941 0.34457
 H1618 H 0.53440 0.48427 0.32071
 H1619 H 0.57721 0.48052 0.35428
 H1620 H 0.55808 0.47598 0.37831
 C1621 C -0.01934 -0.03538 0.93078
 C1622 C -0.00989 -0.03308 0.91902
 C1623 C 0.00139 -0.03033 0.90499
 C1624 C 0.01641 -0.03966 0.90371
 C1625 C 0.02737 -0.03702 0.89007
 C1626 C 0.02345 -0.02501 0.87751
 C1627 C 0.00832 -0.01571 0.87891
 C1628 C -0.00262 -0.01836 0.89257
 C1629 C 0.03508 -0.02222 0.86299
 C1630 C 0.02863 -0.01981 0.84656
 C1631 C 0.03959 -0.01721 0.83291
 C1632 C 0.05712 -0.01698 0.83548
 C1633 C 0.06366 -0.01936 0.85177
 C1634 C 0.05273 -0.02197 0.86544
 C1635 C 0.06838 -0.01432 0.82142
 C1636 C 0.07782 -0.01209 0.80963
 H1637 H 0.01961 -0.04900 0.91323
 H1638 H 0.03881 -0.04454 0.88923
 H1639 H 0.00505 -0.00622 0.86957
 H1640 H -0.01419 -0.01104 0.89347
 H1641 H 0.01512 -0.02015 0.84423
 H1642 H 0.03439 -0.01543 0.82034
 H1643 H 0.07721 -0.01916 0.85391
 H1644 H 0.05807 -0.02357 0.87796
 C1645 C -0.01950 0.03587 0.56898
 C1646 C -0.01005 0.03352 0.58073
 C1647 C 0.00123 0.03072 0.59476
 C1648 C 0.01823 0.03557 0.59360
 C1649 C 0.02921 0.03286 0.60722
 C1650 C 0.02330 0.02525 0.62220
 C1651 C 0.00618 0.02042 0.62324
 C1652 C -0.00477 0.02313 0.60960
 C1653 C 0.03494 0.02237 0.63669
 C1654 C 0.02948 0.02525 0.65340
 C1655 C 0.04046 0.02256 0.66702
 C1656 C 0.05702 0.01695 0.66414
 C1657 C 0.06257 0.01404 0.64757
 C1658 C 0.05162 0.01673 0.63393
 C1659 C 0.06831 0.01420 0.67817
 C1660 C 0.07777 0.01190 0.68992
 H1661 H 0.02300 0.04150 0.58218
 H1662 H 0.04225 0.03692 0.60611
 H1663 H 0.00130 0.01433 0.63451
 H1664 H -0.01790 0.01928 0.61061
 H1665 H 0.01680 0.02980 0.65592
 H1666 H 0.03605 0.02490 0.67979
 H1667 H 0.07535 0.00965 0.64520
 H1668 H 0.05613 0.01419 0.62124
 C1669 C 0.48103 0.53599 0.06915
 C1670 C 0.49045 0.53366 0.08092
 C1671 C 0.50170 0.53089 0.09498
 C1672 C 0.49567 0.52332 0.10982
 C1673 C 0.50658 0.52063 0.12349
 C1674 C 0.52370 0.52547 0.12249
 C1675 C 0.52964 0.53307 0.10751
 C1676 C 0.51870 0.53576 0.09386
 C1677 C 0.53531 0.52261 0.13700
 C1678 C 0.55200 0.51697 0.13429
 C1679 C 0.56291 0.51427 0.14796
 C1680 C 0.55731 0.51718 0.16451
 C1681 C 0.54075 0.52280 0.16735
 C1682 C 0.52981 0.52550 0.15370
 C1683 C 0.56856 0.51441 0.17857
 C1684 C 0.57798 0.51210 0.19035
 H1685 H 0.48254 0.51947 0.11080
 H1686 H 0.50168 0.51456 0.13476
 H1687 H 0.54269 0.53713 0.10643
 H1688 H 0.52349 0.54167 0.08245
 H1689 H 0.55654 0.51442 0.12161
 H1690 H 0.57569 0.50987 0.14562
 H1691 H 0.53630 0.52514 0.18011
 H1692 H 0.51712 0.53005 0.15619
 C1693 C 0.51925 -0.03631 0.06909
 C1694 C 0.50982 -0.03399 0.08086
 C1695 C 0.49857 -0.03122 0.09492
 C1696 C 0.50413 -0.02216 0.10909
 C1697 C 0.49322 -0.01949 0.12277
 C1698 C 0.47657 -0.02585 0.12244
 C1699 C 0.47111 -0.03494 0.10812
 C1700 C 0.48205 -0.03760 0.09446
 C1701 C 0.46497 -0.02303 0.13696
 C1702 C 0.44781 -0.01907 0.13422
 C1703 C 0.43690 -0.01642 0.14790
 C1704 C 0.44297 -0.01771 0.16449
 C1705 C 0.46000 -0.02165 0.16736
 C1706 C 0.47094 -0.02429 0.15370
 C1707 C 0.43172 -0.01500 0.17856
 C1708 C 0.42229 -0.01273 0.19034
 H1709 H 0.51688 -0.01712 0.10955
 H1710 H 0.49773 -0.01226 0.13350
 H1711 H 0.45845 -0.04018 0.10757
 H1712 H 0.47763 -0.04468 0.08357
 H1713 H 0.44288 -0.01779 0.12149
 H1714 H 0.42374 -0.01333 0.14553
 H1715 H 0.46482 -0.02273 0.18015
 H1716 H 0.48402 -0.02754 0.15623
 C1717 C 1.01937 0.46434 0.56892
 C1718 C 1.00994 0.46664 0.58070
 C1719 C 0.99868 0.46937 0.59475
 C1720 C 0.98789 0.48343 0.59489
 C1721 C 0.97694 0.48610 0.60854
 C1722 C 0.97662 0.47471 0.62224
 C1723 C 0.98752 0.46061 0.62197
 C1724 C 0.99847 0.45798 0.60832
 C1725 C 0.96498 0.47751 0.63673
 C1726 C 0.95636 0.46382 0.64420
 C1727 C 0.94539 0.46648 0.65783
 C1728 C 0.94289 0.48282 0.66419
 C1729 C 0.95140 0.49652 0.65686
 C1730 C 0.96237 0.49390 0.64322
 C1731 C 0.93160 0.48554 0.67823
 C1732 C 0.92214 0.48780 0.68998
 H1733 H 0.98791 0.49230 0.58443
 H1734 H 0.96855 0.49694 0.60826
 H1735 H 0.98774 0.45175 0.63242
 H1736 H 1.00681 0.44708 0.60836
 H1737 H 0.95792 0.45109 0.63936
 H1738 H 0.93882 0.45579 0.66339
 H1739 H 0.94960 0.50923 0.66171
 H1740 H 0.96898 0.50467 0.63789
 C1741 C 1.01905 0.53584 0.93078
 C1742 C 1.00961 0.53351 0.91902
 C1743 C 0.99835 0.53072 0.90497
 C1744 C 0.98213 0.53786 0.90504
 C1745 C 0.97117 0.53517 0.89140
 C1746 C 0.97631 0.52531 0.87749
 C1747 C 0.99265 0.51819 0.87754
 C1748 C 1.00358 0.52089 0.89120
 C1749 C 0.96469 0.52246 0.86298
 C1750 C 0.97083 0.52280 0.84626
 C1751 C 0.95988 0.52013 0.83261
 C1752 C 0.94267 0.51707 0.83548
 C1753 C 0.93643 0.51669 0.85206
 C1754 C 0.94736 0.51937 0.86572
 C1755 C 0.93141 0.51431 0.82143
 C1756 C 0.92197 0.51201 0.80965
 H1757 H 0.97797 0.54554 0.91562
 H1758 H 0.95877 0.54100 0.89164
 H1759 H 0.99690 0.51036 0.86713
 H1760 H 1.01609 0.51526 0.89104
 H1761 H 0.98406 0.52536 0.84372
 H1762 H 0.96483 0.52049 0.81983
 H1763 H 0.92313 0.51429 0.85442
 H1764 H 0.94228 0.51881 0.87844
 C1765 C 0.51941 0.03560 0.43107
 C1766 C 0.50996 0.03325 0.41932
 C1767 C 0.49869 0.03046 0.40528
 C1768 C 0.49052 0.04417 0.39759
 C1769 C 0.47957 0.04148 0.38395
 C1770 C 0.47665 0.02501 0.37781
 C1771 C 0.48493 0.01131 0.38563
 C1772 C 0.49587 0.01403 0.39927
 C1773 C 0.46501 0.02213 0.36331
 C1774 C 0.46908 0.01028 0.35065
 C1775 C 0.45813 0.00759 0.33701
 C1776 C 0.44297 0.01669 0.33584
 C1777 C 0.43880 0.02850 0.34837
 C1778 C 0.44974 0.03122 0.36202
 C1779 C 0.43171 0.01391 0.32179
 C1780 C 0.42227 0.01160 0.31003
 H1781 H 0.49265 0.05695 0.40211
 H1782 H 0.47356 0.05230 0.37806
 H1783 H 0.48278 -0.00153 0.38134
 H1784 H 0.50210 0.00333 0.40517
 H1785 H 0.48084 0.00325 0.35117
 H1786 H 0.46150 -0.00155 0.32735
 H1787 H 0.42708 0.03558 0.34761
 H1788 H 0.44614 0.04026 0.37167
   
