data_POSCAR
  _audit_creation_date              2014-09-24
  _audit_creation_method            'ToBaCCo'
  _symmetry_space_group_name_H-M    'P1'
  _symmetry_Int_Tables_number       1
  _symmetry_cell_setting            triclinic
  loop_
  _symmetry_equiv_pos_as_xyz
 x,y,z
_cell_length_a 88.7365
_cell_length_b 88.5696
_cell_length_c 88.5744
_cell_angle_alpha 90.023700
_cell_angle_beta 90.033700
_cell_angle_gamma 90.011600
loop_
  _atom_site_label
  _atom_site_type_symbol
  _atom_site_fract_x
  _atom_site_fract_y
  _atom_site_fract_z
C1 C 0.30876 0.44134 0.92243
 N2 N 0.32120 0.44766 0.92877
 C3 C 0.32740 0.44180 0.94154
 N4 N 0.32094 0.42943 0.94792
 C5 C 0.30849 0.42296 0.94174
 N6 N 0.30250 0.42898 0.92898
 C7 C 0.44169 0.82806 0.44202
 N8 N 0.44803 0.82164 0.42960
 C9 C 0.44218 0.80887 0.42343
 N10 N 0.42979 0.80251 0.42980
 C11 C 0.42329 0.80873 0.44222
 N12 N 0.42931 0.82150 0.44823
 C13 C 0.93951 0.92122 0.81080
 N14 N 0.94565 0.92742 0.82342
 C15 C 0.93950 0.93990 0.82990
 N16 N 0.92701 0.94615 0.82356
 C17 C 0.92072 0.94011 0.81094
 N18 N 0.92703 0.92763 0.80465
 C19 C 0.44085 -0.07738 0.30866
 N20 N 0.44698 -0.07117 0.32130
 C21 C 0.44068 -0.05885 0.32791
 N22 N 0.42806 -0.05272 0.32176
 C23 C 0.42177 -0.05873 0.30913
 N24 N 0.42823 -0.07105 0.30267
 C25 C 0.80962 0.30904 0.32740
 N26 N 0.82230 0.30298 0.32131
 C27 C 0.82893 0.30935 0.30904
 N28 N 0.82275 0.32197 0.30290
 C29 C 0.81008 0.32819 0.30884
 N30 N 0.80360 0.32167 0.32111
 C31 C -0.19018 0.82931 0.80956
 N32 N -0.17758 0.82296 0.80357
 C33 C -0.17144 0.81032 0.80972
 N34 N -0.17804 0.80402 0.82204
 C35 C -0.19064 0.81016 0.82823
 N36 N -0.19661 0.82280 0.82189
 C37 C 0.94230 0.32594 0.44178
 N38 N 0.92988 0.31945 0.44798
 C39 C 0.92353 0.30701 0.44163
 N40 N 0.92972 0.30110 0.42890
 C41 C 0.94213 0.30745 0.42255
 N42 N 0.94833 0.31988 0.42906
 C43 C 0.44065 0.44095 0.82772
 N44 N 0.42801 0.44708 0.82156
 C45 C 0.42137 0.44076 0.80926
 N46 N 0.42748 0.42811 0.80311
 C47 C 0.44011 0.42182 0.80909
 N48 N 0.44659 0.42830 0.82139
 C49 C 0.81035 0.92209 0.94076
 N50 N 0.82300 0.92839 0.94673
 C51 C 0.82956 0.94067 0.94026
 N52 N 0.82325 0.94665 0.92761
 C53 C 0.81061 0.94054 0.92147
 N54 N 0.80426 0.92827 0.92810
 C55 C 0.30816 0.82810 0.30797
 N56 N 0.32055 0.82157 0.30173
 C57 C 0.32661 0.80882 0.30772
 N58 N 0.32015 0.80258 0.32014
 C59 C 0.30775 0.80891 0.32654
 N60 N 0.30186 0.82166 0.32039
 C61 C 0.80754 0.42340 0.44196
 N62 N 0.81996 0.42988 0.44819
 C63 C 0.82633 0.44230 0.44185
 N64 N 0.82018 0.44821 0.42911
 C65 C 0.80776 0.44187 0.42273
 N66 N 0.80153 0.42946 0.42922
 C67 C 0.94068 0.82908 -0.05982
 N68 N 0.94667 0.82293 -0.07254
 C69 C 0.94064 0.81031 -0.07887
 N70 N 0.92841 0.80383 -0.07227
 C71 C 0.92226 0.80977 -0.05955
 N72 N 0.92845 0.82240 -0.05342
 C73 C 0.30929 0.32825 0.80916
 N74 N 0.30283 0.32172 0.82143
 C75 C 0.30886 0.30910 0.82772
 N76 N 0.32155 0.30306 0.82163
 C77 C 0.32817 0.30944 0.80936
 N78 N 0.32197 0.32205 0.80321
 C79 C 0.17162 0.55954 0.55854
 N80 N 0.17807 0.55308 0.57087
 C81 C 0.19070 0.55907 0.57716
 N82 N 0.19684 0.57171 0.57101
 C83 C 0.19055 0.57831 0.55869
 N84 N 0.17792 0.57217 0.55254
 C85 C 0.57946 0.68987 0.06018
 N86 N 0.57313 0.69611 0.07268
 C87 C 0.56066 0.68992 0.07906
 N88 N 0.55453 0.67731 0.07282
 C89 C 0.56071 0.67092 0.06033
 N90 N 0.57319 0.67726 0.05409
 C91 C 0.69171 0.19223 0.67272
 N92 N 0.67929 0.19844 0.67921
 C93 C 0.67328 0.19244 0.69197
 N94 N 0.67980 0.18004 0.69821
 C95 C 0.69221 0.17368 0.69188
 N96 N 0.69807 0.17983 0.67912
 C97 C 1.07652 0.05646 0.19283
 N98 N 1.07019 0.05022 0.18030
 C99 C 1.05763 0.05628 0.17391
 N100 N 1.05140 0.06879 0.18026
 C101 C 1.05752 0.07519 0.19278
 N102 N 1.07008 0.06897 0.19896
 C103 C 0.05845 0.17256 1.05830
 N104 N 0.05227 0.17914 1.07071
 C105 C 0.05860 0.19160 1.07709
 N106 N 0.07131 0.19746 1.07085
 C107 C 0.07766 0.19107 1.05844
 N108 N 0.07116 0.17863 1.05226
 C109 C 0.17309 0.69242 0.69190
 N110 N 0.17912 0.69844 0.67915
 C111 C 0.19154 0.69224 0.67267
 N112 N 0.19791 0.67984 0.67907
 C113 C 0.19204 0.67368 0.69182
 N114 N 0.17961 0.68003 0.69814
 C115 C 1.19260 0.17283 0.19145
 N116 N 1.18023 0.17928 0.19780
 C117 C 1.17377 0.19173 0.19162
 N118 N 1.17980 0.19774 0.17887
 C119 C 1.19217 0.19150 0.17230
 N120 N 1.19847 0.17905 0.17870
 C121 C 0.67354 1.05836 0.55742
 N122 N 0.67966 1.07114 0.55155
 C123 C 0.69206 1.07758 0.55790
 N124 N 0.69829 1.07102 0.57031
 C125 C 0.69232 1.05825 0.57633
 N126 N 0.67993 1.05201 0.56982
 C127 C 0.55925 0.55973 0.17138
 N128 N 0.57151 0.55335 0.17800
 C129 C 0.57771 0.55948 0.19062
 N130 N 0.57154 0.57219 0.19659
 C131 C 0.55928 0.57873 0.19012
 N132 N 0.55323 0.57244 0.17751
 C133 C 0.67124 0.69086 0.19042
 N134 N 0.67735 0.69695 0.17774
 C135 C 0.68995 0.69093 0.17145
 N136 N 0.69643 0.67865 0.17797
 C137 C 0.69047 0.67242 0.19065
 N138 N 0.67786 0.67858 0.19678
 C139 C 0.17271 0.05795 1.05808
 N140 N 0.17888 0.07072 1.05222
 C141 C 0.19130 0.07709 1.05855
 N142 N 0.19756 0.07056 1.07093
 C143 C 0.19159 0.05779 1.07699
 N144 N 0.17917 0.05159 1.07047
 C145 C 0.57722 0.19221 0.55794
 N146 N 0.57071 0.17982 0.55167
 C147 C 0.55791 0.17384 0.55758
 N148 N 0.55164 0.18038 0.56996
 C149 C 0.55799 0.19278 0.57638
 N150 N 0.57080 0.19861 0.57031
 C151 C 0.07642 0.55801 0.69174
 N152 N 0.06990 0.57041 0.69799
 C153 C 0.05748 0.57677 0.69166
 N154 N 0.05160 0.57061 0.67889
 C155 C 0.05797 0.55822 0.67248
 N156 N 0.07039 0.55201 0.67897
 C157 C 0.67130 0.56008 0.05881
 N158 N 0.67780 0.55358 0.07109
 C159 C 0.69044 0.55956 0.07737
 N160 N 0.69654 0.57224 0.07126
 C161 C 0.69019 0.57889 0.05899
 N162 N 0.67756 0.57275 0.05285
 C163 C 0.05932 0.69088 0.57771
 N164 N 0.07198 0.69689 0.57152
 C165 C 0.07855 0.69041 0.55927
 N166 N 0.07233 0.67775 0.55324
 C167 C 0.05968 0.67158 0.55929
 N168 N 0.05327 0.67821 0.57154
 C169 C 0.55729 1.05695 0.67353
 N170 N 0.55108 1.06948 0.67988
 C171 C 0.55717 1.07584 0.69244
 N172 N 0.56968 1.06956 0.69867
 C173 C 0.57606 1.05704 0.69253
 N174 N 0.56981 1.05083 0.67996
 C175 C 0.44177 0.32703 0.94188
 N176 N 0.44777 0.32086 0.92917
 C177 C 0.44158 0.30838 0.92274
 N178 N 0.42919 0.30205 0.92916
 C179 C 0.42303 0.30801 0.94187
 N180 N 0.42938 0.32050 0.94813
 C181 C 0.94064 0.44014 0.32797
 N182 N 0.92797 0.44621 0.32180
 C183 C 0.92137 0.43987 0.30949
 N184 N 0.92756 0.42727 0.30333
 C185 C 0.94022 0.42104 0.30930
 N186 N 0.94666 0.42754 0.32161
 C187 C 0.31026 0.94094 0.42142
 N188 N 0.32296 0.94696 0.42753
 C189 C 0.32920 0.94097 0.44022
 N190 N 0.32253 0.92880 0.44675
 C191 C 0.30982 0.92264 0.44080
 N192 N 0.30378 0.92877 0.42811
 O193 O 0.20948 0.51984 0.74908
 O194 O 0.21435 0.51785 0.77484
 O195 O 0.24901 0.54054 0.73087
 O196 O 0.27380 0.53603 0.73023
 O197 O 0.23021 0.50101 0.70969
 O198 O 0.23127 0.47471 0.71523
 O199 O 0.28896 0.49950 0.76977
 O200 O 0.28477 0.52519 0.76683
 O201 O 0.25085 0.48075 0.78935
 O202 O 0.22369 0.48175 0.78421
 O203 O 0.26906 0.46083 0.75104
 O204 O 0.26833 0.46593 0.72410
 O205 O 0.28897 0.48131 0.75163
 O206 O 0.28346 0.48289 0.72356
 O207 O 0.25093 0.46069 0.76912
 O208 O 0.22314 0.46636 0.76745
 O209 O 0.26921 0.49861 0.78927
 O210 O 0.26418 0.52596 0.78449
 O211 O 0.20931 0.50136 0.73119
 O212 O 0.21494 0.47456 0.73236
 O213 O 0.24833 0.51913 0.70958
 O214 O 0.27561 0.51672 0.71571
 O215 O 0.23057 0.54050 0.74868
 O216 O 0.23395 0.53454 0.77590
 Zr217 Zr 0.23137 0.51867 0.75811
 O218 O 0.24449 0.50514 0.77259
 Zr219 Zr 0.25772 0.51846 0.73142
 O220 O 0.27217 0.50540 0.74503
 Zr221 Zr 0.23118 0.49202 0.73165
 O222 O 0.24463 0.47752 0.74483
 Zr223 Zr 0.26735 0.50890 0.76796
 O224 O 0.25431 0.52363 0.75440
 Zr225 Zr 0.24100 0.48221 0.76779
 O226 O 0.22637 0.49567 0.75459
 Zr227 Zr 0.26755 0.48244 0.74136
 O228 O 0.25408 0.49550 0.72652
 O229 O 0.23496 0.51485 0.73524
 O230 O 0.26387 0.48594 0.76427
 C231 C 0.20293 0.51207 0.73869
 C232 C 0.23837 0.54700 0.73831
 C233 C 0.23778 0.51151 0.70316
 C234 C 0.29527 0.48865 0.76248
 C235 C 0.26183 0.48786 0.79561
 C236 C 0.26178 0.45444 0.76182
 H237 H 0.24211 0.50761 0.78322
 H238 H 0.24223 0.46692 0.74231
 H239 H 0.22854 0.52131 0.72880
 H240 H 0.28277 0.50797 0.74278
 H241 H 0.27999 0.53477 0.76363
 H242 H 0.28146 0.53391 0.73805
 H243 H 0.22493 0.45933 0.75896
 H244 H 0.20984 0.47538 0.74226
 H245 H 0.27277 0.52549 0.79163
 H246 H 0.22598 0.54234 0.77495
 H247 H 0.25876 0.46021 0.72445
 H248 H 0.24138 0.47489 0.71051
 H249 H 0.21017 0.50749 0.77466
 H250 H 0.22454 0.49106 0.79033
 H251 H 0.27377 0.50748 0.70969
 H252 H 0.29064 0.49119 0.72559
 O253 O 0.20975 0.01964 0.24867
 O254 O 0.21467 0.01780 0.27441
 O255 O 0.24924 0.04031 0.23028
 O256 O 0.27403 0.03583 0.22962
 O257 O 0.23043 0.00068 0.20930
 O258 O 0.23153 -0.02560 0.21495
 O259 O 0.28929 -0.00049 0.26928
 O260 O 0.28506 0.02518 0.26623
 O261 O 0.25126 -0.01923 0.28901
 O262 O 0.22407 -0.01823 0.28394
 O263 O 0.26937 -0.03930 0.25077
 O264 O 0.26861 -0.03431 0.22381
 O265 O 0.28928 -0.01879 0.25125
 O266 O 0.28373 -0.01734 0.22318
 O267 O 0.25125 -0.03938 0.26886
 O268 O 0.22348 -0.03371 0.26726
 O269 O 0.26960 -0.00133 0.28882
 O270 O 0.26450 0.02599 0.28394
 O271 O 0.20956 0.00109 0.23086
 O272 O 0.21523 -0.02568 0.23210
 O273 O 0.24856 0.01881 0.20908
 O274 O 0.27583 0.01646 0.21518
 O275 O 0.23082 0.04034 0.24811
 O276 O 0.23426 0.03451 0.27535
 Zr277 Zr 0.23166 0.01856 0.25765
 O278 O 0.24481 0.00511 0.27217
 Zr279 Zr 0.25797 0.01825 0.23091
 O280 O 0.27244 0.00526 0.24455
 Zr281 Zr 0.23145 -0.00821 0.23130
 O282 O 0.24493 -0.02264 0.24453
 Zr283 Zr 0.26766 0.00887 0.26747
 O284 O 0.25459 0.02352 0.25387
 Zr285 Zr 0.24134 -0.01785 0.26747
 O286 O 0.22667 -0.00447 0.25424
 Zr287 Zr 0.26784 -0.01772 0.24100
 O288 O 0.25434 -0.00474 0.22613
 O289 O 0.23522 0.01463 0.23478
 O290 O 0.26420 -0.01412 0.26390
 C291 C 0.20318 0.01181 0.23833
 C292 C 0.23860 0.04680 0.23771
 C293 C 0.23800 0.01115 0.20271
 C294 C 0.29559 -0.01138 0.26205
 C295 C 0.26226 -0.01208 0.29520
 C296 C 0.26208 -0.04566 0.26156
 H297 H 0.24246 0.00762 0.28279
 H298 H 0.24253 -0.03326 0.24205
 H299 H 0.22877 0.02106 0.22832
 H300 H 0.28305 0.00783 0.24227
 H301 H 0.28025 0.03475 0.26300
 H302 H 0.28171 0.03374 0.23743
 H303 H 0.22523 -0.04075 0.25876
 H304 H 0.21015 -0.02484 0.24201
 H305 H 0.27311 0.02556 0.29106
 H306 H 0.22628 0.04230 0.27438
 H307 H 0.25904 -0.04001 0.22419
 H308 H 0.24163 -0.02542 0.21022
 H309 H 0.21053 0.00742 0.27432
 H310 H 0.22497 -0.00893 0.29005
 H311 H 0.27401 0.00717 0.20923
 H312 H 0.29090 -0.00902 0.22516
 O313 O 0.45961 0.75157 0.26952
 O314 O 0.46446 0.72581 0.26758
 O315 O 0.49914 0.76982 0.29026
 O316 O 0.52394 0.77046 0.28578
 O317 O 0.48038 0.79094 0.25069
 O318 O 0.48147 0.78537 0.22440
 O319 O 0.53908 0.73085 0.24929
 O320 O 0.53488 0.73383 0.27499
 O321 O 0.50097 0.71125 0.23052
 O322 O 0.47380 0.71639 0.23150
 O323 O 0.51925 0.74949 0.21061
 O324 O 0.51850 0.77647 0.21567
 O325 O 0.53913 0.74896 0.23109
 O326 O 0.53364 0.77704 0.23264
 O327 O 0.50110 0.73142 0.21046
 O328 O 0.47329 0.73313 0.21608
 O329 O 0.51933 0.71135 0.24839
 O330 O 0.51427 0.71617 0.27574
 O331 O 0.45947 0.76943 0.25104
 O332 O 0.46513 0.76823 0.22425
 O333 O 0.49849 0.79108 0.26884
 O334 O 0.52577 0.78494 0.26646
 O335 O 0.48069 0.75202 0.29021
 O336 O 0.48405 0.72478 0.28429
 Zr337 Zr 0.48150 0.74254 0.26840
 O338 O 0.49460 0.72804 0.25489
 Zr339 Zr 0.50787 0.76923 0.26820
 O340 O 0.52231 0.75561 0.25516
 Zr341 Zr 0.48134 0.76896 0.24173
 O342 O 0.49479 0.75576 0.22724
 Zr343 Zr 0.51747 0.73268 0.25867
 O344 O 0.50444 0.74626 0.27338
 Zr345 Zr 0.49114 0.73281 0.23196
 O346 O 0.47651 0.74603 0.24539
 Zr347 Zr 0.51771 0.75924 0.23219
 O348 O 0.50425 0.77409 0.24523
 O349 O 0.48511 0.76541 0.26456
 O350 O 0.51400 0.73634 0.23571
 C351 C 0.45308 0.76195 0.26174
 C352 C 0.48849 0.76240 0.29672
 C353 C 0.48795 0.79749 0.26121
 C354 C 0.54540 0.73811 0.23844
 C355 C 0.51195 0.70501 0.23763
 C356 C 0.51197 0.73868 0.20423
 H357 H 0.49222 0.71741 0.25737
 H358 H 0.49240 0.75826 0.21664
 H359 H 0.47868 0.77186 0.27101
 H360 H 0.53292 0.75786 0.25774
 H361 H 0.53009 0.73705 0.28456
 H362 H 0.53159 0.76263 0.28367
 H363 H 0.47512 0.74159 0.20903
 H364 H 0.46001 0.75833 0.22506
 H365 H 0.52286 0.70902 0.27527
 H366 H 0.47608 0.72575 0.29208
 H367 H 0.50896 0.77607 0.20991
 H368 H 0.49159 0.79006 0.22459
 H369 H 0.46029 0.72596 0.25721
 H370 H 0.47466 0.71027 0.24079
 H371 H 0.52394 0.79094 0.25721
 H372 H 0.54080 0.77502 0.24096
 O373 O 0.04000 0.73047 0.74920
 O374 O 0.03517 0.73247 0.77497
 O375 O 0.00041 0.70982 0.73100
 O376 O -0.02438 0.71436 0.73040
 O377 O 0.01924 0.74929 0.70982
 O378 O 0.01823 0.77560 0.71534
 O379 O -0.03940 0.75099 0.76992
 O380 O -0.03527 0.72526 0.76698
 O381 O -0.00123 0.76968 0.78947
 O382 O 0.02593 0.76859 0.78433
 O383 O -0.01948 0.78957 0.75121
 O384 O -0.01876 0.78445 0.72423
 O385 O -0.03941 0.76915 0.75178
 O386 O -0.03396 0.76754 0.72372
 O387 O -0.00130 0.78969 0.76927
 O388 O 0.02648 0.78398 0.76756
 O389 O -0.01964 0.75187 0.78941
 O390 O -0.01465 0.72449 0.78465
 O391 O 0.04017 0.74893 0.73132
 O392 O 0.03459 0.77574 0.73246
 O393 O 0.00109 0.73120 0.70972
 O394 O -0.02618 0.73366 0.71586
 O395 O 0.01889 0.70984 0.74879
 O396 O 0.01554 0.71582 0.77602
 Zr397 Zr 0.01813 0.73167 0.75824
 O398 O 0.00506 0.74524 0.77273
 Zr399 Zr -0.00827 0.73190 0.73157
 O400 O -0.02266 0.74501 0.74517
 Zr401 Zr 0.01832 0.75830 0.73178
 O402 O 0.00493 0.77285 0.74496
 Zr403 Zr -0.01782 0.74153 0.76810
 O404 O -0.00483 0.72675 0.75454
 Zr405 Zr 0.00859 0.76816 0.76791
 O406 O 0.02317 0.75466 0.75471
 Zr407 Zr -0.01801 0.76796 0.74150
 O408 O -0.00459 0.75486 0.72666
 O409 O 0.01450 0.73549 0.73537
 O410 O -0.01429 0.76448 0.76440
 C411 C 0.04655 0.73823 0.73881
 C412 C 0.01107 0.70335 0.73842
 C413 C 0.01164 0.73879 0.70329
 C414 C -0.04570 0.76185 0.76264
 C415 C -0.01223 0.76262 0.79573
 C416 C -0.01217 0.79595 0.76200
 H417 H 0.00745 0.74278 0.78336
 H418 H 0.00734 0.78344 0.74244
 H419 H 0.02091 0.72901 0.72892
 H420 H -0.03328 0.74247 0.74293
 H421 H -0.03051 0.71567 0.76379
 H422 H -0.03203 0.71653 0.73821
 H423 H 0.02467 0.79103 0.75909
 H424 H 0.03970 0.77493 0.74236
 H425 H -0.02324 0.72500 0.79180
 H426 H 0.02350 0.70800 0.77507
 H427 H -0.00921 0.79020 0.72464
 H428 H 0.00810 0.77544 0.71065
 H429 H 0.03937 0.74283 0.77479
 H430 H 0.02505 0.75931 0.79047
 H431 H -0.02434 0.74290 0.70985
 H432 H -0.04113 0.75923 0.72574
 O433 O 0.04040 0.01955 0.00128
 O434 O 0.03549 0.01767 -0.02447
 O435 O 0.00097 0.04020 0.01970
 O436 O -0.02385 0.03573 0.02029
 O437 O 0.01970 0.00055 0.04065
 O438 O 0.01866 -0.02570 0.03497
 O439 O -0.03911 -0.00068 -0.01936
 O440 O -0.03490 0.02501 -0.01629
 O441 O -0.00107 -0.01939 -0.03906
 O442 O 0.02613 -0.01836 -0.03398
 O443 O -0.01922 -0.03943 -0.00087
 O444 O -0.01840 -0.03440 0.02616
 O445 O -0.03911 -0.01896 -0.00133
 O446 O -0.03360 -0.01750 0.02673
 O447 O -0.00109 -0.03950 -0.01895
 O448 O 0.02669 -0.03384 -0.01730
 O449 O -0.01942 -0.00152 -0.03887
 O450 O -0.01434 0.02583 -0.03399
 O451 O 0.04060 0.00103 0.01911
 O452 O 0.03495 -0.02577 0.01781
 O453 O 0.00159 0.01868 0.04088
 O454 O -0.02567 0.01637 0.03476
 O455 O 0.01935 0.04021 0.00183
 O456 O 0.01590 0.03437 -0.02541
 Zr457 Zr 0.01850 0.01843 -0.00770
 O458 O 0.00536 0.00496 -0.02223
 Zr459 Zr -0.00780 0.01814 0.01903
 O460 O -0.02228 0.00512 0.00540
 Zr461 Zr 0.01872 -0.00832 0.01864
 O462 O 0.00524 -0.02277 0.00541
 Zr463 Zr -0.01749 0.00871 -0.01753
 O464 O -0.00443 0.02339 -0.00393
 Zr465 Zr 0.00884 -0.01799 -0.01752
 O466 O 0.02350 -0.00458 -0.00429
 Zr467 Zr -0.01767 -0.01786 0.00894
 O468 O -0.00417 -0.00485 0.02381
 O469 O 0.01495 0.01452 0.01516
 O470 O -0.01401 -0.01427 -0.01395
 C471 C 0.04696 0.01176 0.01164
 C472 C 0.01160 0.04668 0.01226
 C473 C 0.01213 0.01101 0.04726
 C474 C -0.04541 -0.01158 -0.01215
 C475 C -0.01207 -0.01227 -0.04525
 C476 C -0.01194 -0.04578 -0.01169
 H477 H 0.00771 0.00747 -0.03285
 H478 H 0.00764 -0.03338 0.00788
 H479 H 0.02139 0.02095 0.02163
 H480 H -0.03288 0.00768 0.00767
 H481 H -0.03010 0.03458 -0.01306
 H482 H -0.03155 0.03359 0.01252
 H483 H 0.02493 -0.04089 -0.00882
 H484 H 0.04005 -0.02490 0.00792
 H485 H -0.02294 0.02537 -0.04113
 H486 H 0.02388 0.04216 -0.02445
 H487 H -0.00890 -0.04021 0.02566
 H488 H 0.00853 -0.02558 0.03966
 H489 H 0.03966 0.00730 -0.02436
 H490 H 0.02522 -0.00907 -0.04010
 H491 H -0.02388 0.00706 0.04068
 H492 H -0.04074 -0.00916 0.02476
 O493 O -0.04030 0.49882 0.47995
 O494 O -0.03543 0.52457 0.48184
 O495 O -0.00084 0.48048 0.45924
 O496 O 0.02399 0.47999 0.46369
 O497 O -0.01949 0.45943 0.49880
 O498 O -0.01843 0.46503 0.52508
 O499 O 0.03918 0.51955 0.50017
 O500 O 0.03496 0.51656 0.47449
 O501 O 0.00109 0.53914 0.51895
 O502 O -0.02609 0.53400 0.51792
 O503 O 0.01932 0.50091 0.53891
 O504 O 0.01863 0.47394 0.53382
 O505 O 0.03923 0.50148 0.51841
 O506 O 0.03378 0.47341 0.51689
 O507 O 0.00115 0.51895 0.53903
 O508 O -0.02661 0.51729 0.53335
 O509 O 0.01943 0.53904 0.50106
 O510 O 0.01435 0.53421 0.47372
 O511 O -0.04044 0.48094 0.49842
 O512 O -0.03476 0.48214 0.52521
 O513 O -0.00137 0.45928 0.48069
 O514 O 0.02587 0.46546 0.48302
 O515 O -0.01928 0.49830 0.45927
 O516 O -0.01584 0.52555 0.46514
 Zr517 Zr -0.01841 0.50782 0.48106
 O518 O -0.00530 0.52234 0.49456
 Zr519 Zr 0.00796 0.48115 0.48129
 O520 O 0.02240 0.49479 0.49433
 Zr521 Zr -0.01855 0.48142 0.50774
 O522 O -0.00510 0.49464 0.52223
 Zr523 Zr 0.01756 0.51771 0.49080
 O524 O 0.00452 0.50411 0.47609
 Zr525 Zr -0.00876 0.51758 0.51750
 O526 O -0.02339 0.50435 0.50406
 Zr527 Zr 0.01782 0.49118 0.51731
 O528 O 0.00436 0.47631 0.50426
 O529 O -0.01480 0.48496 0.48492
 O530 O 0.01411 0.51408 0.51377
 C531 C -0.04684 0.48844 0.48773
 C532 C -0.01152 0.48788 0.45279
 C533 C -0.01190 0.45287 0.48833
 C534 C 0.04551 0.51232 0.51104
 C535 C 0.01206 0.54539 0.51182
 C536 C 0.01201 0.51167 0.54530
 H537 H -0.00769 0.53297 0.49208
 H538 H -0.00749 0.49214 0.53283
 H539 H -0.02124 0.47849 0.47848
 H540 H 0.03301 0.49254 0.49177
 H541 H 0.03016 0.51333 0.46492
 H542 H 0.03170 0.48775 0.46586
 H543 H -0.02484 0.50878 0.54036
 H544 H -0.03989 0.49204 0.52439
 H545 H 0.02294 0.54136 0.47419
 H546 H -0.02382 0.52458 0.45735
 H547 H 0.00909 0.47432 0.53956
 H548 H -0.00830 0.46034 0.52491
 H549 H -0.03957 0.52445 0.49221
 H550 H -0.02519 0.54015 0.50865
 H551 H 0.02411 0.45951 0.49231
 H552 H 0.04092 0.47542 0.50856
 O553 O 0.50105 0.04034 0.51972
 O554 O 0.47535 0.03548 0.51780
 O555 O 0.51928 0.00075 0.54043
 O556 O 0.51989 -0.02410 0.53593
 O557 O 0.54035 0.01951 0.50085
 O558 O 0.53477 0.01846 0.47458
 O559 O 0.48036 -0.03929 0.49945
 O560 O 0.48331 -0.03505 0.52513
 O561 O 0.46080 -0.00108 0.48068
 O562 O 0.46593 0.02612 0.48170
 O563 O 0.49895 -0.01938 0.46074
 O564 O 0.52588 -0.01867 0.46582
 O565 O 0.49842 -0.03934 0.48123
 O566 O 0.52642 -0.03385 0.48275
 O567 O 0.48095 -0.00116 0.46061
 O568 O 0.48265 0.02667 0.46631
 O569 O 0.46089 -0.01949 0.49852
 O570 O 0.46569 -0.01441 0.52588
 O571 O 0.51888 0.04048 0.50124
 O572 O 0.51768 0.03481 0.47444
 O573 O 0.54050 0.00137 0.51898
 O574 O 0.53434 -0.02595 0.51661
 O575 O 0.50151 0.01923 0.54040
 O576 O 0.47433 0.01585 0.53448
 Zr577 Zr 0.49205 0.01841 0.51859
 O578 O 0.47756 0.00529 0.50507
 Zr579 Zr 0.51868 -0.00801 0.51836
 O580 O 0.50506 -0.02247 0.50530
 Zr581 Zr 0.51841 0.01857 0.49191
 O582 O 0.50522 0.00509 0.47742
 Zr583 Zr 0.48218 -0.01762 0.50882
 O584 O 0.49575 -0.00457 0.52354
 Zr585 Zr 0.48232 0.00877 0.48214
 O586 O 0.49552 0.02342 0.49559
 Zr587 Zr 0.50867 -0.01787 0.48234
 O588 O 0.52351 -0.00439 0.49539
 O589 O 0.51487 0.01480 0.51474
 O590 O 0.48582 -0.01415 0.48586
 C591 C 0.51141 0.04689 0.51193
 C592 C 0.51187 0.01142 0.54690
 C593 C 0.54690 0.01191 0.51133
 C594 C 0.48761 -0.04563 0.48860
 C595 C 0.45456 -0.01209 0.48777
 C596 C 0.48820 -0.01205 0.45435
 H597 H 0.46695 0.00768 0.50755
 H598 H 0.50772 0.00749 0.46682
 H599 H 0.52133 0.02124 0.52119
 H600 H 0.50730 -0.03310 0.50788
 H601 H 0.48653 -0.03025 0.53471
 H602 H 0.51206 -0.03175 0.53382
 H603 H 0.49110 0.02486 0.45926
 H604 H 0.50781 0.03995 0.47528
 H605 H 0.45855 -0.02301 0.52540
 H606 H 0.47529 0.02384 0.54228
 H607 H 0.52548 -0.00911 0.46006
 H608 H 0.53943 0.00830 0.47473
 H609 H 0.47549 0.03965 0.50743
 H610 H 0.45982 0.02526 0.49100
 H611 H 0.54031 -0.02414 0.50735
 H612 H 0.52443 -0.04099 0.49110
 O613 O 0.45960 0.49896 -0.02007
 O614 O 0.46445 0.52472 -0.01811
 O615 O 0.49906 0.48069 -0.04080
 O616 O 0.52388 0.48013 -0.03634
 O617 O 0.48039 0.45958 -0.00123
 O618 O 0.48149 0.46518 0.02506
 O619 O 0.53909 0.51969 0.00014
 O620 O 0.53484 0.51670 -0.02555
 O621 O 0.50105 0.53928 0.01896
 O622 O 0.47384 0.53416 0.01792
 O623 O 0.51927 0.50106 0.03887
 O624 O 0.51854 0.47407 0.03378
 O625 O 0.53915 0.50162 0.01838
 O626 O 0.53368 0.47354 0.01684
 O627 O 0.50109 0.51909 0.03901
 O628 O 0.47332 0.51744 0.03335
 O629 O 0.51937 0.53917 0.00107
 O630 O 0.51425 0.53437 -0.02628
 O631 O 0.45947 0.48108 -0.00161
 O632 O 0.46514 0.48230 0.02520
 O633 O 0.49849 0.45945 -0.01937
 O634 O 0.52575 0.46560 -0.01702
 O635 O 0.48063 0.49851 -0.04075
 O636 O 0.48402 0.52574 -0.03484
 Zr637 Zr 0.48148 0.50799 -0.01894
 O638 O 0.49461 0.52250 -0.00545
 Zr639 Zr 0.50785 0.48130 -0.01874
 O640 O 0.52231 0.49493 -0.00570
 Zr641 Zr 0.48135 0.48157 0.00773
 O642 O 0.49482 0.49478 0.02221
 Zr643 Zr 0.51746 0.51786 -0.00922
 O644 O 0.50441 0.50427 -0.02393
 Zr645 Zr 0.49116 0.51773 0.01749
 O646 O 0.47651 0.50450 0.00406
 Zr647 Zr 0.51774 0.49132 0.01727
 O648 O 0.50426 0.47645 0.00423
 O649 O 0.48510 0.48512 -0.01510
 O650 O 0.51402 0.51421 0.01374
 C651 C 0.45307 0.48856 -0.01231
 C652 C 0.48839 0.48811 -0.04725
 C653 C 0.48796 0.45303 -0.01173
 C654 C 0.54542 0.51246 0.01102
 C655 C 0.51204 0.54551 0.01185
 C656 C 0.51196 0.51183 0.04526
 H657 H 0.49223 0.53313 -0.00792
 H658 H 0.49244 0.49228 0.03281
 H659 H 0.47866 0.47866 -0.02155
 H660 H 0.53291 0.49269 -0.00828
 H661 H 0.53004 0.51349 -0.03512
 H662 H 0.53158 0.48790 -0.03419
 H663 H 0.47509 0.50892 0.04036
 H664 H 0.46002 0.49219 0.02436
 H665 H 0.52284 0.54152 -0.02581
 H666 H 0.47603 0.52478 -0.04262
 H667 H 0.50901 0.47447 0.03954
 H668 H 0.49161 0.46048 0.02488
 H669 H 0.46030 0.52458 -0.00774
 H670 H 0.47475 0.54032 0.00865
 H671 H 0.52397 0.45963 -0.00774
 H672 H 0.54083 0.47556 0.00851
 O673 O 0.75108 0.26927 0.45947
 O674 O 0.72536 0.26728 0.46428
 O675 O 0.76929 0.29000 0.49901
 O676 O 0.76995 0.28555 0.52386
 O677 O 0.79034 0.25034 0.48031
 O678 O 0.78471 0.22407 0.48138
 O679 O 0.73039 0.24918 0.53910
 O680 O 0.73339 0.27483 0.53484
 O681 O 0.71075 0.23037 0.50093
 O682 O 0.71588 0.23126 0.47374
 O683 O 0.74895 0.21037 0.51926
 O684 O 0.77585 0.21541 0.51856
 O685 O 0.74843 0.23094 0.53919
 O686 O 0.77645 0.23241 0.53367
 O687 O 0.73092 0.21022 0.50106
 O688 O 0.73257 0.21583 0.47324
 O689 O 0.71089 0.24829 0.51928
 O690 O 0.71577 0.27560 0.51419
 O691 O 0.76890 0.25076 0.45934
 O692 O 0.76759 0.22395 0.46501
 O693 O 0.79051 0.26853 0.49840
 O694 O 0.78438 0.26622 0.52573
 O695 O 0.75148 0.28995 0.48055
 O696 O 0.72432 0.28403 0.48388
 Zr697 Zr 0.74204 0.26814 0.48137
 O698 O 0.72756 0.25468 0.49453
 Zr699 Zr 0.76870 0.26795 0.50779
 O700 O 0.75509 0.25495 0.52228
 Zr701 Zr 0.76838 0.24144 0.48125
 O702 O 0.75519 0.22700 0.49476
 Zr703 Zr 0.73221 0.25849 0.51743
 O704 O 0.74578 0.27315 0.50434
 Zr705 Zr 0.73229 0.23173 0.49110
 O706 O 0.74549 0.24512 0.47641
 Zr707 Zr 0.75867 0.23196 0.51772
 O708 O 0.77351 0.24496 0.50420
 O709 O 0.76487 0.26428 0.48500
 O710 O 0.73581 0.23550 0.51400
 C711 C 0.76145 0.26149 0.45293
 C712 C 0.76185 0.29646 0.48835
 C713 C 0.79690 0.26085 0.48788
 C714 C 0.73763 0.23834 0.54547
 C715 C 0.70453 0.23755 0.51189
 C716 C 0.73819 0.20397 0.51194
 H717 H 0.71696 0.25717 0.49213
 H718 H 0.75768 0.21639 0.49238
 H719 H 0.77132 0.27072 0.47856
 H720 H 0.75734 0.25754 0.53290
 H721 H 0.73662 0.28439 0.53004
 H722 H 0.76215 0.28347 0.53153
 H723 H 0.74106 0.20882 0.47502
 H724 H 0.75773 0.22482 0.45986
 H725 H 0.70863 0.27517 0.52279
 H726 H 0.72527 0.29180 0.47586
 H727 H 0.77549 0.20969 0.50898
 H728 H 0.78941 0.22425 0.49152
 H729 H 0.72554 0.25692 0.46009
 H730 H 0.70984 0.24060 0.47454
 H731 H 0.79035 0.25695 0.52392
 H732 H 0.77446 0.24075 0.54083
 O733 O 0.76995 0.79091 -0.00088
 O734 O 0.76787 0.78599 0.02487
 O735 O 0.79044 0.75132 -0.01921
 O736 O 0.78586 0.72647 -0.01988
 O737 O 0.75110 0.77032 -0.04037
 O738 O 0.72485 0.76937 -0.03489
 O739 O 0.74923 0.71134 0.01952
 O740 O 0.77491 0.71543 0.01664
 O741 O 0.73065 0.74957 0.03917
 O742 O 0.73178 0.77678 0.03412
 O743 O 0.71078 0.73144 0.00081
 O744 O 0.71590 0.73225 -0.02615
 O745 O 0.73112 0.71143 0.00134
 O746 O 0.73277 0.71701 -0.02671
 O747 O 0.71069 0.74957 0.01894
 O748 O 0.71645 0.77741 0.01731
 O749 O 0.74838 0.73108 0.03907
 O750 O 0.77573 0.73603 0.03437
 O751 O 0.75156 0.79121 -0.01883
 O752 O 0.72475 0.78568 -0.01768
 O753 O 0.76912 0.75209 -0.04051
 O754 O 0.76659 0.72476 -0.03447
 O755 O 0.79045 0.76973 -0.00132
 O756 O 0.78446 0.76628 0.02588
 Zr757 Zr 0.76865 0.76897 0.00808
 O758 O 0.75506 0.75586 0.02249
 Zr759 Zr 0.76838 0.74264 -0.01870
 O760 O 0.75525 0.72819 -0.00517
 Zr761 Zr 0.74210 0.76934 -0.01843
 O762 O 0.72754 0.75589 -0.00533
 Zr763 Zr 0.75872 0.73295 0.01779
 O764 O 0.77351 0.74598 0.00430
 Zr765 Zr 0.73220 0.75946 0.01764
 O766 O 0.74573 0.77410 0.00453
 Zr767 Zr 0.73236 0.73291 -0.00886
 O768 O 0.74548 0.74639 -0.02363
 O769 O 0.76485 0.76544 -0.01480
 O770 O 0.73583 0.73655 0.01406
 C771 C 0.76228 0.79752 -0.01130
 C772 C 0.79691 0.76195 -0.01174
 C773 C 0.76157 0.76271 -0.04691
 C774 C 0.73839 0.70508 0.01220
 C775 C 0.73767 0.73851 0.04540
 C776 C 0.70443 0.73871 0.01162
 H777 H 0.75751 0.75821 0.03313
 H778 H 0.71697 0.75834 -0.00786
 H779 H 0.77134 0.77186 -0.02122
 H780 H 0.75777 0.71756 -0.00744
 H781 H 0.78450 0.72019 0.01347
 H782 H 0.78366 0.71877 -0.01212
 H783 H 0.70941 0.77563 0.00883
 H784 H 0.72560 0.79079 -0.00777
 H785 H 0.77519 0.72741 0.04149
 H786 H 0.79227 0.77424 0.02498
 H787 H 0.71020 0.74183 -0.02573
 H788 H 0.72496 0.75923 -0.03960
 H789 H 0.75757 0.79025 0.02466
 H790 H 0.74106 0.77588 0.04024
 H791 H 0.75738 0.72664 -0.04049
 H792 H 0.74102 0.70979 -0.02468
 O793 O 1.00148 0.20926 0.23000
 O794 O 0.97578 0.21409 0.23191
 O795 O 1.01968 0.24889 0.20934
 O796 O 1.02021 0.27375 0.21385
 O797 O 1.04078 0.23013 0.24888
 O798 O 1.03522 0.23117 0.27517
 O799 O 0.98071 0.28883 0.25036
 O800 O 0.98370 0.28465 0.22466
 O801 O 0.96121 0.25063 0.26906
 O802 O 0.96637 0.22340 0.26798
 O803 O 0.99939 0.26889 0.28906
 O804 O 1.02630 0.26825 0.28396
 O805 O 0.99876 0.28887 0.26860
 O806 O 1.02679 0.28346 0.26706
 O807 O 0.98139 0.25067 0.28914
 O808 O 0.98306 0.22287 0.28341
 O809 O 0.96128 0.26901 0.25119
 O810 O 0.96609 0.26398 0.22385
 O811 O 1.01932 0.20912 0.24849
 O812 O 1.01816 0.21476 0.27528
 O813 O 1.04089 0.24831 0.23079
 O814 O 1.03471 0.27560 0.23319
 O815 O 1.00193 0.23038 0.20934
 O816 O 0.97474 0.23373 0.21524
 Zr817 Zr 0.99246 0.23118 0.23114
 O818 O 0.97797 0.24427 0.24466
 Zr819 Zr 1.01906 0.25764 0.23141
 O820 O 1.00545 0.27207 0.24448
 Zr821 Zr 1.01884 0.23103 0.25783
 O822 O 1.00564 0.24446 0.27233
 Zr823 Zr 0.98257 0.26719 0.24094
 O824 O 0.99614 0.25417 0.22621
 Zr825 Zr 0.98274 0.24078 0.26759
 O826 O 0.99596 0.22616 0.25414
 Zr827 Zr 1.00907 0.26744 0.26745
 O828 O 1.02392 0.25400 0.25438
 O829 O 1.01528 0.23482 0.23500
 O830 O 0.98622 0.26370 0.26390
 C831 C 1.01184 0.20271 0.23779
 C832 C 1.01228 0.23821 0.20286
 C833 C 1.04731 0.23776 0.23840
 C834 C 0.98793 0.29516 0.26124
 C835 C 0.95497 0.26162 0.26195
 C836 C 0.98865 0.26153 0.29543
 H837 H 0.96736 0.24188 0.24218
 H838 H 1.00815 0.24206 0.28293
 H839 H 1.02174 0.22839 0.22855
 H840 H 1.00767 0.28270 0.24193
 H841 H 0.98691 0.27987 0.21508
 H842 H 1.01244 0.28144 0.21602
 H843 H 0.99156 0.22463 0.29043
 H844 H 1.00829 0.20963 0.27446
 H845 H 0.95895 0.27258 0.22432
 H846 H 0.97571 0.22575 0.20743
 H847 H 1.02594 0.25867 0.28968
 H848 H 1.03991 0.24131 0.27499
 H849 H 0.97590 0.20993 0.24228
 H850 H 0.96021 0.22431 0.25872
 H851 H 1.04067 0.27381 0.24247
 H852 H 1.02476 0.29063 0.25874
 O853 O 0.70975 1.01970 0.74897
 O854 O 0.71458 1.01775 0.77473
 O855 O 0.74925 1.04052 0.73080
 O856 O 0.77405 1.03610 0.73022
 O857 O 0.73062 1.00092 0.70960
 O858 O 0.73174 0.97463 0.71516
 O859 O 0.78924 0.99962 0.76979
 O860 O 0.78499 1.02531 0.76680
 O861 O 0.75121 0.98075 0.78931
 O862 O 0.72401 0.98172 0.78414
 O863 O 0.76951 0.96088 0.75107
 O864 O 0.76877 0.96597 0.72409
 O865 O 0.78934 0.98140 0.75168
 O866 O 0.78389 0.98296 0.72359
 O867 O 0.75134 0.96070 0.76911
 O868 O 0.72355 0.96628 0.76741
 O869 O 0.76950 0.99869 0.78924
 O870 O 0.76437 1.02602 0.78445
 O871 O 0.70966 1.00123 0.73108
 O872 O 0.71537 0.97446 0.73225
 O873 O 0.74870 1.01909 0.70952
 O874 O 0.77595 1.01679 0.71571
 O875 O 0.73078 1.04043 0.74858
 O876 O 0.73413 1.03450 0.77581
 Zr877 Zr 0.73163 1.01862 0.75803
 O878 O 0.74476 1.00514 0.77254
 Zr879 Zr 0.75803 1.01848 0.73138
 O880 O 0.77249 1.00546 0.74501
 Zr881 Zr 0.73156 0.99196 0.73158
 O882 O 0.74503 0.97749 0.74479
 Zr883 Zr 0.76762 1.00896 0.76793
 O884 O 0.75456 1.02365 0.75435
 Zr885 Zr 0.74135 0.98219 0.76774
 O886 O 0.72670 0.99560 0.75451
 Zr887 Zr 0.76794 0.98248 0.74135
 O888 O 0.75446 0.99550 0.72649
 O889 O 0.73527 1.01479 0.73516
 O890 O 0.76421 0.98599 0.76425
 C891 C 0.70323 1.01191 0.73858
 C892 C 0.73857 1.04696 0.73823
 C893 C 0.73819 1.01144 0.70307
 C894 C 0.79559 0.98876 0.76255
 C895 C 0.76218 0.98790 0.79556
 C896 C 0.76223 0.95448 0.76184
 H897 H 0.74237 1.00760 0.78316
 H898 H 0.74266 0.96688 0.74227
 H899 H 0.72883 1.02123 0.72870
 H900 H 0.78309 1.00805 0.74278
 H901 H 0.78018 1.03488 0.76361
 H902 H 0.78172 1.03398 0.73803
 H903 H 0.72536 0.95926 0.75890
 H904 H 0.71027 0.97524 0.74216
 H905 H 0.77296 1.02558 0.79160
 H906 H 0.72614 1.04228 0.77484
 H907 H 0.75925 0.96019 0.72448
 H908 H 0.74186 0.97483 0.71048
 H909 H 0.71046 1.00737 0.77458
 H910 H 0.72490 0.99098 0.79031
 H911 H 0.77418 1.00752 0.70972
 H912 H 0.79104 0.99128 0.72564
 O913 O 0.74900 0.54020 0.23009
 O914 O 0.77472 0.53537 0.23207
 O915 O 0.73080 0.50066 0.20930
 O916 O 0.73029 0.47578 0.21372
 O917 O 0.70971 0.51933 0.24886
 O918 O 0.71526 0.51822 0.27516
 O919 O 0.76975 0.46059 0.25025
 O920 O 0.76679 0.46483 0.22456
 O921 O 0.78924 0.49873 0.26913
 O922 O 0.78413 0.52595 0.26814
 O923 O 0.75103 0.48044 0.28898
 O924 O 0.72414 0.48110 0.28383
 O925 O 0.75169 0.46050 0.26846
 O926 O 0.72366 0.46594 0.26687
 O927 O 0.76904 0.49866 0.28917
 O928 O 0.76739 0.52649 0.28350
 O929 O 0.78918 0.48039 0.25120
 O930 O 0.78440 0.48549 0.22386
 O931 O 0.73114 0.54030 0.24854
 O932 O 0.73234 0.53462 0.27534
 O933 O 0.70960 0.50120 0.23070
 O934 O 0.71576 0.47389 0.23303
 O935 O 0.74858 0.51915 0.20939
 O936 O 0.77576 0.51576 0.21532
 Zr937 Zr 0.75804 0.51829 0.23120
 O938 O 0.77252 0.50515 0.24471
 Zr939 Zr 0.73142 0.49184 0.23134
 O940 O 0.74502 0.47737 0.24438
 Zr941 Zr 0.73164 0.51838 0.25785
 O942 O 0.74482 0.50490 0.27232
 Zr943 Zr 0.76790 0.48225 0.24090
 O944 O 0.75435 0.49531 0.22619
 Zr945 Zr 0.76772 0.50859 0.26764
 O946 O 0.75453 0.52326 0.25421
 Zr947 Zr 0.74138 0.48194 0.26735
 O948 O 0.72655 0.49543 0.25431
 O949 O 0.73522 0.51464 0.23502
 O950 O 0.76424 0.48569 0.26387
 C951 C 0.73860 0.54672 0.23784
 C952 C 0.73820 0.51137 0.20288
 C953 C 0.70319 0.51175 0.23833
 C954 C 0.76252 0.45423 0.26110
 C955 C 0.79549 0.48775 0.26200
 C956 C 0.76176 0.48778 0.29541
 H957 H 0.78312 0.50755 0.24225
 H958 H 0.74230 0.50729 0.28293
 H959 H 0.72876 0.52108 0.22857
 H960 H 0.74280 0.46674 0.24179
 H961 H 0.76358 0.46964 0.21499
 H962 H 0.73804 0.46807 0.21588
 H963 H 0.75889 0.52470 0.29050
 H964 H 0.74220 0.53978 0.27451
 H965 H 0.79154 0.47690 0.22432
 H966 H 0.77481 0.52377 0.20755
 H967 H 0.72448 0.49067 0.28957
 H968 H 0.71056 0.50809 0.27494
 H969 H 0.77456 0.53953 0.24244
 H970 H 0.79024 0.52510 0.25884
 H971 H 0.70979 0.47567 0.24230
 H972 H 0.72569 0.45878 0.25854
 O973 O 0.50088 0.20965 0.73030
 O974 O 0.47519 0.21443 0.73226
 O975 O 0.51898 0.24936 0.70969
 O976 O 0.51958 0.27418 0.71426
 O977 O 0.54017 0.23053 0.74920
 O978 O 0.53462 0.23152 0.77549
 O979 O 0.48004 0.28917 0.75075
 O980 O 0.48300 0.28501 0.72506
 O981 O 0.46058 0.25093 0.76945
 O982 O 0.46577 0.22371 0.76837
 O983 O 0.49876 0.26923 0.78943
 O984 O 0.52563 0.26864 0.78436
 O985 O 0.49810 0.28923 0.76898
 O986 O 0.52616 0.28379 0.76740
 O987 O 0.48078 0.25100 0.78953
 O988 O 0.48249 0.22319 0.78378
 O989 O 0.46063 0.26933 0.75161
 O990 O 0.46542 0.26432 0.72426
 O991 O 0.51874 0.20950 0.74877
 O992 O 0.51756 0.21511 0.77559
 O993 O 0.54023 0.24872 0.73112
 O994 O 0.53403 0.27602 0.73358
 O995 O 0.50126 0.23082 0.70968
 O996 O 0.47408 0.23409 0.71563
 Zr997 Zr 0.49183 0.23155 0.73150
 O998 O 0.47733 0.24461 0.74504
 Zr999 Zr 0.51840 0.25804 0.73179
 O1000 O 0.50478 0.27244 0.74487
 Zr1001 Zr 0.51823 0.23140 0.75816
 O1002 O 0.50503 0.24481 0.77268
 Zr1003 Zr 0.48191 0.26754 0.74133
 O1004 O 0.49548 0.25455 0.72659
 Zr1005 Zr 0.48213 0.24111 0.76797
 O1006 O 0.49534 0.22651 0.75449
 Zr1007 Zr 0.50843 0.26780 0.76782
 O1008 O 0.52328 0.25437 0.75475
 O1009 O 0.51465 0.23522 0.73534
 O1010 O 0.48558 0.26403 0.76429
 C1011 C 0.51127 0.20310 0.73806
 C1012 C 0.51158 0.23869 0.70320
 C1013 C 0.54667 0.23817 0.73872
 C1014 C 0.48727 0.29551 0.76162
 C1015 C 0.45432 0.26192 0.76235
 C1016 C 0.48803 0.26187 0.79581
 H1017 H 0.46673 0.24221 0.74257
 H1018 H 0.50755 0.24240 0.78328
 H1019 H 0.52111 0.22881 0.72887
 H1020 H 0.50699 0.28308 0.74232
 H1021 H 0.48620 0.28023 0.71547
 H1022 H 0.51173 0.28181 0.71638
 H1023 H 0.49098 0.22497 0.79080
 H1024 H 0.50769 0.20996 0.77475
 H1025 H 0.45826 0.27290 0.72474
 H1026 H 0.47505 0.22613 0.70781
 H1027 H 0.52535 0.25902 0.79000
 H1028 H 0.53929 0.24166 0.77533
 H1029 H 0.47533 0.21026 0.74263
 H1030 H 0.45963 0.22460 0.75909
 H1031 H 0.54004 0.27419 0.74283
 H1032 H 0.52409 0.29102 0.75914
 O1033 O 0.25101 0.77016 0.45977
 O1034 O 0.22530 0.76818 0.46460
 O1035 O 0.26922 0.79078 0.49941
 O1036 O 0.26977 0.78626 0.52426
 O1037 O 0.29034 0.75130 0.48058
 O1038 O 0.28479 0.72500 0.48156
 O1039 O 0.23033 0.74971 0.53931
 O1040 O 0.23325 0.77540 0.53515
 O1041 O 0.21080 0.73099 0.50104
 O1042 O 0.21595 0.73208 0.47383
 O1043 O 0.24896 0.71104 0.51932
 O1044 O 0.27588 0.71613 0.51865
 O1045 O 0.24841 0.73150 0.53933
 O1046 O 0.27642 0.73305 0.53385
 O1047 O 0.23097 0.71094 0.50108
 O1048 O 0.23265 0.71667 0.47329
 O1049 O 0.21087 0.74881 0.51949
 O1050 O 0.21564 0.77617 0.51450
 O1051 O 0.26888 0.75171 0.45959
 O1052 O 0.26770 0.72489 0.46517
 O1053 O 0.29044 0.76938 0.49879
 O1054 O 0.28428 0.76695 0.52608
 O1055 O 0.25145 0.79077 0.48092
 O1056 O 0.22427 0.78484 0.48427
 Zr1057 Zr 0.24200 0.76896 0.48168
 O1058 O 0.22753 0.75541 0.49475
 Zr1059 Zr 0.26862 0.76871 0.50813
 O1060 O 0.25502 0.75561 0.52254
 Zr1061 Zr 0.26841 0.74232 0.48147
 O1062 O 0.25523 0.72778 0.49489
 Zr1063 Zr 0.23214 0.75912 0.51767
 O1064 O 0.24569 0.77388 0.50468
 Zr1065 Zr 0.23232 0.73249 0.49121
 O1066 O 0.24551 0.74597 0.47661
 Zr1067 Zr 0.25867 0.73265 0.51788
 O1068 O 0.27349 0.74575 0.50444
 O1069 O 0.26483 0.76513 0.48531
 O1070 O 0.23581 0.73616 0.51414
 C1071 C 0.26139 0.76242 0.45321
 C1072 C 0.26182 0.79726 0.48874
 C1073 C 0.29686 0.76177 0.48823
 C1074 C 0.23759 0.73885 0.54564
 C1075 C 0.20455 0.73807 0.51206
 C1076 C 0.23822 0.70466 0.51196
 H1077 H 0.21692 0.75788 0.49236
 H1078 H 0.25774 0.71719 0.49247
 H1079 H 0.27128 0.77160 0.47890
 H1080 H 0.25726 0.75816 0.53317
 H1081 H 0.23646 0.78498 0.53038
 H1082 H 0.26199 0.78408 0.53194
 H1083 H 0.24115 0.70966 0.47505
 H1084 H 0.25783 0.72572 0.46003
 H1085 H 0.20850 0.77567 0.52309
 H1086 H 0.22522 0.79265 0.47630
 H1087 H 0.27551 0.71043 0.50906
 H1088 H 0.28946 0.72514 0.49171
 H1089 H 0.22547 0.75783 0.46039
 H1090 H 0.20980 0.74135 0.47474
 H1091 H 0.29026 0.75769 0.52426
 H1092 H 0.27441 0.74136 0.54104
 O1093 O 0.29020 0.25076 0.98063
 O1094 O 0.28535 0.22500 0.98257
 O1095 O 0.25068 0.26901 0.95995
 O1096 O 0.22587 0.26959 0.96443
 O1097 O 0.26944 0.29013 0.99951
 O1098 O 0.26838 0.28454 1.02580
 O1099 O 0.21074 0.23001 1.00087
 O1100 O 0.21493 0.23299 0.97520
 O1101 O 0.24887 0.21041 1.01962
 O1102 O 0.27603 0.21557 1.01863
 O1103 O 0.23065 0.24868 1.03962
 O1104 O 0.23132 0.27562 1.03456
 O1105 O 0.21070 0.24811 1.01911
 O1106 O 0.21620 0.27618 1.01760
 O1107 O 0.24881 0.23063 1.03973
 O1108 O 0.27657 0.23229 1.03406
 O1109 O 0.23052 0.21051 1.00174
 O1110 O 0.23554 0.21535 0.97441
 O1111 O 0.29036 0.26864 0.99911
 O1112 O 0.28473 0.26742 1.02592
 O1113 O 0.25130 0.29026 0.98138
 O1114 O 0.22404 0.28410 0.98376
 O1115 O 0.26912 0.25120 0.95997
 O1116 O 0.26576 0.22397 0.96586
 Zr1117 Zr 0.26832 0.24172 0.98177
 O1118 O 0.25522 0.22721 0.99526
 Zr1119 Zr 0.24194 0.26840 0.98201
 O1120 O 0.22752 0.25477 0.99505
 Zr1121 Zr 0.26849 0.26815 1.00846
 O1122 O 0.25505 0.25493 1.02293
 Zr1123 Zr 0.23235 0.23185 0.99150
 O1124 O 0.24538 0.24543 0.97680
 Zr1125 Zr 0.25870 0.23198 1.01820
 O1126 O 0.27332 0.24521 1.00477
 Zr1127 Zr 0.23213 0.25839 1.01802
 O1128 O 0.24558 0.27326 1.00498
 O1129 O 0.26471 0.26459 0.98563
 O1130 O 0.23583 0.23549 1.01448
 C1131 C 0.29674 0.26116 0.98840
 C1132 C 0.26134 0.26160 0.95348
 C1133 C 0.26185 0.29667 0.98901
 C1134 C 0.20441 0.23728 1.01173
 C1135 C 0.23790 0.20416 1.01248
 C1136 C 0.23797 0.23791 1.04600
 H1137 H 0.25760 0.21659 0.99278
 H1138 H 0.25745 0.25744 1.03354
 H1139 H 0.27113 0.27105 0.97918
 H1140 H 0.21691 0.25702 0.99248
 H1141 H 0.21971 0.23622 0.96563
 H1142 H 0.21819 0.26180 0.96657
 H1143 H 0.27481 0.24080 1.04106
 H1144 H 0.28986 0.25753 1.02508
 H1145 H 0.22696 0.20820 0.97487
 H1146 H 0.27373 0.22493 0.95807
 H1147 H 0.24091 0.27529 1.04025
 H1148 H 0.25827 0.28926 1.02561
 H1149 H 0.28954 0.22517 0.99293
 H1150 H 0.27517 0.20945 1.00932
 H1151 H 0.22586 0.29009 0.99303
 H1152 H 0.20903 0.27417 1.00928
 C1153 C 0.29124 0.36945 0.79093
 C1154 C 0.30398 0.36283 0.78440
 C1155 C 0.30975 0.34933 0.79019
 C1156 C 0.30286 0.34227 0.80264
 C1157 C 0.28993 0.34894 0.80901
 C1158 C 0.28419 0.36244 0.80319
 C1159 C 0.28567 0.38364 0.78535
 C1160 C 0.28113 0.39565 0.78084
 C1161 C 0.27588 0.41012 0.77566
 C1162 C 0.28311 0.41734 0.76363
 C1163 C 0.27840 0.43166 0.75897
 C1164 C 0.26635 0.43897 0.76630
 C1165 C 0.25905 0.43151 0.77828
 C1166 C 0.26379 0.41720 0.78292
 H1167 H 0.30955 0.36818 0.77492
 H1168 H 0.31970 0.34453 0.78500
 H1169 H 0.28432 0.34383 0.81858
 H1170 H 0.27433 0.36748 0.80835
 H1171 H 0.29251 0.41197 0.75796
 H1172 H 0.28431 0.43705 0.74974
 H1173 H 0.24977 0.43680 0.78421
 H1174 H 0.25814 0.41172 0.79227
 C1175 C 0.29085 -0.13101 0.29039
 C1176 C 0.28396 -0.13784 0.30283
 C1177 C 0.28954 -0.15144 0.30855
 C1178 C 0.30219 -0.15846 0.30191
 C1179 C 0.30890 -0.15152 0.28923
 C1180 C 0.30327 -0.13792 0.28356
 C1181 C 0.28544 -0.11672 0.28489
 C1182 C 0.28103 -0.10463 0.28045
 C1183 C 0.27592 -0.09009 0.27534
 C1184 C 0.26390 -0.08293 0.28262
 C1185 C 0.25925 -0.06857 0.27803
 C1186 C 0.26660 -0.06114 0.26605
 C1187 C 0.27860 -0.06852 0.25871
 C1188 C 0.28322 -0.08288 0.26334
 H1189 H 0.27434 -0.13257 0.30821
 H1190 H 0.28398 -0.15633 0.31827
 H1191 H 0.31860 -0.15648 0.28372
 H1192 H 0.30870 -0.13271 0.27392
 H1193 H 0.25820 -0.08840 0.29196
 H1194 H 0.25001 -0.06324 0.28396
 H1195 H 0.28454 -0.06314 0.24949
 H1196 H 0.29257 -0.08830 0.25765
 C1197 C 0.79204 0.86975 0.79142
 C1198 C 0.78507 0.86287 0.80378
 C1199 C 0.79081 0.84942 0.80969
 C1200 C 0.80372 0.84261 0.80333
 C1201 C 0.81052 0.84960 0.79073
 C1202 C 0.80472 0.86306 0.78487
 C1203 C 0.78643 0.88390 0.78573
 C1204 C 0.78185 0.89586 0.78114
 C1205 C 0.77653 0.91028 0.77588
 C1206 C 0.76438 0.91731 0.78306
 C1207 C 0.75956 0.93158 0.77836
 C1208 C 0.76687 0.93904 0.76637
 C1209 C 0.77898 0.93177 0.75912
 C1210 C 0.78377 0.91750 0.76385
 H1211 H 0.77525 0.86798 0.80895
 H1212 H 0.78517 0.84448 0.81933
 H1213 H 0.82042 0.84481 0.78543
 H1214 H 0.81022 0.86831 0.77529
 H1215 H 0.75872 0.91184 0.79242
 H1216 H 0.75024 0.93683 0.78424
 H1217 H 0.78490 0.93718 0.74989
 H1218 H 0.79322 0.91217 0.75824
 C1219 C 0.45934 0.88287 0.28974
 C1220 C 0.44672 0.88962 0.28313
 C1221 C 0.44071 0.90288 0.28923
 C1222 C 0.44724 0.90961 0.30213
 C1223 C 0.46013 0.90278 0.30851
 C1224 C 0.46608 0.88953 0.30236
 C1225 C 0.46502 0.86881 0.28394
 C1226 C 0.46959 0.85685 0.27932
 C1227 C 0.47481 0.84237 0.27413
 C1228 C 0.46743 0.83507 0.26223
 C1229 C 0.47191 0.82061 0.25778
 C1230 C 0.48385 0.81322 0.26522
 C1231 C 0.49138 0.82080 0.27699
 C1232 C 0.48687 0.83526 0.28141
 H1233 H 0.44139 0.88454 0.27336
 H1234 H 0.43084 0.90771 0.28390
 H1235 H 0.46557 0.90753 0.31838
 H1236 H 0.47585 0.88436 0.30759
 H1237 H 0.45805 0.84046 0.25654
 H1238 H 0.46584 0.81512 0.24869
 H1239 H 0.50059 0.81548 0.28298
 H1240 H 0.49264 0.84080 0.29067
 C1241 C -0.04205 0.88047 0.79198
 C1242 C -0.03532 0.88713 0.80463
 C1243 C -0.04119 0.90049 0.81064
 C1244 C -0.05392 0.90736 0.80409
 C1245 C -0.06049 0.90066 0.79126
 C1246 C -0.05459 0.88730 0.78527
 C1247 C -0.03636 0.86641 0.78618
 C1248 C -0.03174 0.85450 0.78151
 C1249 C -0.02639 0.84013 0.77615
 C1250 C -0.01424 0.83307 0.78332
 C1251 C -0.00943 0.81881 0.77856
 C1252 C -0.01676 0.81140 0.76655
 C1253 C -0.02886 0.81870 0.75930
 C1254 C -0.03364 0.83296 0.76409
 H1255 H -0.02562 0.88192 0.80993
 H1256 H -0.03583 0.90532 0.82051
 H1257 H -0.07028 0.90563 0.78592
 H1258 H -0.05990 0.88222 0.77549
 H1259 H -0.00858 0.83851 0.79270
 H1260 H -0.00011 0.81353 0.78443
 H1261 H -0.03479 0.81332 0.75005
 H1262 H -0.04309 0.83831 0.75849
 C1263 C -0.04151 -0.13050 -0.04161
 C1264 C -0.05376 -0.13756 -0.03466
 C1265 C -0.05956 -0.15101 -0.04055
 C1266 C -0.05319 -0.15763 -0.05357
 C1267 C -0.04070 -0.15045 -0.06034
 C1268 C -0.03494 -0.13700 -0.05440
 C1269 C -0.03592 -0.11636 -0.03588
 C1270 C -0.03138 -0.10439 -0.03123
 C1271 C -0.02611 -0.08998 -0.02591
 C1272 C -0.03337 -0.08282 -0.01385
 C1273 C -0.02863 -0.06854 -0.00906
 C1274 C -0.01653 -0.06121 -0.01628
 C1275 C -0.00920 -0.06861 -0.02829
 C1276 C -0.01397 -0.08288 -0.03305
 H1277 H -0.05894 -0.13260 -0.02476
 H1278 H -0.06914 -0.15609 -0.03493
 H1279 H -0.03540 -0.15510 -0.07033
 H1280 H -0.02545 -0.13161 -0.05988
 H1281 H -0.04281 -0.08820 -0.00827
 H1282 H -0.03457 -0.06319 0.00019
 H1283 H 0.00011 -0.06331 -0.03414
 H1284 H -0.00829 -0.08830 -0.04243
 C1285 C -0.03953 0.36687 0.46052
 C1286 C -0.05191 0.35987 0.46734
 C1287 C -0.05769 0.34643 0.46141
 C1288 C -0.05116 0.33982 0.44851
 C1289 C -0.03857 0.34684 0.44187
 C1290 C -0.03282 0.36028 0.44784
 C1291 C -0.03408 0.38110 0.46616
 C1292 C -0.02969 0.39317 0.47064
 C1293 C -0.02466 0.40778 0.47569
 C1294 C -0.03216 0.41512 0.48748
 C1295 C -0.02782 0.42967 0.49183
 C1296 C -0.01591 0.43709 0.48438
 C1297 C -0.00829 0.42948 0.47270
 C1298 C -0.01265 0.41494 0.46839
 H1299 H -0.05722 0.36490 0.47714
 H1300 H -0.06738 0.34135 0.46682
 H1301 H -0.03325 0.34208 0.43195
 H1302 H -0.02325 0.36563 0.44244
 H1303 H -0.04151 0.40969 0.49318
 H1304 H -0.03396 0.43517 0.50084
 H1305 H 0.00091 0.43483 0.46671
 H1306 H -0.00680 0.40937 0.45921
 C1307 C 0.45887 -0.13101 0.45968
 C1308 C 0.44646 -0.13795 0.46648
 C1309 C 0.44087 -0.15157 0.46078
 C1310 C 0.44761 -0.15848 0.44810
 C1311 C 0.46026 -0.15142 0.44150
 C1312 C 0.46580 -0.13780 0.44725
 C1313 C 0.46425 -0.11670 0.46521
 C1314 C 0.46864 -0.10462 0.46968
 C1315 C 0.47374 -0.09006 0.47480
 C1316 C 0.46633 -0.08278 0.48669
 C1317 C 0.47095 -0.06842 0.49133
 C1318 C 0.48307 -0.06112 0.48411
 C1319 C 0.49053 -0.06862 0.47225
 C1320 C 0.48588 -0.08299 0.46764
 H1321 H 0.44100 -0.13277 0.47612
 H1322 H 0.43117 -0.15656 0.46626
 H1323 H 0.46585 -0.15629 0.43178
 H1324 H 0.47542 -0.13251 0.44189
 H1325 H 0.45688 -0.08814 0.49228
 H1326 H 0.46491 -0.06298 0.50046
 H1327 H 0.49987 -0.06336 0.46641
 H1328 H 0.49167 -0.08851 0.45840
 C1329 C 0.45987 0.36724 -0.03974
 C1330 C 0.44750 0.36029 -0.03288
 C1331 C 0.44162 0.34688 -0.03880
 C1332 C 0.44803 0.34021 -0.05178
 C1333 C 0.46067 0.34724 -0.05842
 C1334 C 0.46649 0.36064 -0.05245
 C1335 C 0.46542 0.38142 -0.03409
 C1336 C 0.46989 0.39347 -0.02958
 C1337 C 0.47500 0.40803 -0.02449
 C1338 C 0.46758 0.41535 -0.01264
 C1339 C 0.47199 0.42986 -0.00825
 C1340 C 0.48389 0.43728 -0.01571
 C1341 C 0.49145 0.42968 -0.02745
 C1342 C 0.48701 0.41517 -0.03181
 H1343 H 0.44226 0.36532 -0.02304
 H1344 H 0.43195 0.34190 -0.03327
 H1345 H 0.46601 0.34254 -0.06836
 H1346 H 0.47607 0.36595 -0.05787
 H1347 H 0.45823 0.40994 -0.00693
 H1348 H 0.46590 0.43535 0.00081
 H1349 H 0.50064 0.43503 -0.03346
 H1350 H 0.49280 0.40962 -0.04103
 C1351 C 0.78934 0.38249 0.46064
 C1352 C 0.78265 0.38906 0.44794
 C1353 C 0.78840 0.40250 0.44199
 C1354 C 0.80098 0.40954 0.44867
 C1355 C 0.80748 0.40294 0.46160
 C1356 C 0.80169 0.38951 0.46751
 C1357 C 0.78390 0.36826 0.46626
 C1358 C 0.77952 0.35618 0.47072
 C1359 C 0.77452 0.34156 0.47574
 C1360 C 0.76266 0.33430 0.46829
 C1361 C 0.75833 0.31975 0.47258
 C1362 C 0.76584 0.31224 0.48441
 C1363 C 0.77759 0.31976 0.49200
 C1364 C 0.78190 0.33432 0.48768
 H1365 H 0.77310 0.38370 0.44251
 H1366 H 0.78311 0.40725 0.43205
 H1367 H 0.81715 0.40804 0.46704
 H1368 H 0.80698 0.38449 0.47733
 H1369 H 0.75690 0.33979 0.45900
 H1370 H 0.74925 0.31432 0.46647
 H1371 H 0.78364 0.31433 0.50113
 H1372 H 0.79114 0.33983 0.49349
 C1373 C 0.79158 0.88254 -0.04017
 C1374 C 0.78490 0.88918 -0.05283
 C1375 C 0.79095 0.90236 -0.05903
 C1376 C 0.80389 0.90913 -0.05267
 C1377 C 0.81036 0.90242 -0.03974
 C1378 C 0.80426 0.88924 -0.03359
 C1379 C 0.78578 0.86855 -0.03430
 C1380 C 0.78110 0.85666 -0.02963
 C1381 C 0.77575 0.84226 -0.02437
 C1382 C 0.76356 0.83526 -0.03154
 C1383 C 0.75893 0.82085 -0.02706
 C1384 C 0.76648 0.81322 -0.01534
 C1385 C 0.77855 0.82050 -0.00801
 C1386 C 0.78315 0.83491 -0.01252
 H1387 H 0.77509 0.88406 -0.05803
 H1388 H 0.78555 0.90709 -0.06892
 H1389 H 0.82027 0.90721 -0.03443
 H1390 H 0.80954 0.88416 -0.02380
 H1391 H 0.75778 0.84083 -0.04076
 H1392 H 0.74961 0.81561 -0.03297
 H1393 H 0.78464 0.81498 0.00103
 H1394 H 0.79264 0.84021 -0.00692
 C1395 C 0.79039 0.29011 0.36772
 C1396 C 0.78376 0.30274 0.36094
 C1397 C 0.78987 0.30878 0.34771
 C1398 C 0.80274 0.30227 0.34107
 C1399 C 0.80918 0.28943 0.34787
 C1400 C 0.80305 0.28342 0.36110
 C1401 C 0.78457 0.28438 0.38175
 C1402 C 0.77991 0.27979 0.39368
 C1403 C 0.77463 0.27458 0.40812
 C1404 C 0.76280 0.28207 0.41538
 C1405 C 0.75826 0.27760 0.42981
 C1406 C 0.76554 0.26556 0.43722
 C1407 C 0.77725 0.25792 0.42968
 C1408 C 0.78176 0.26242 0.41524
 H1409 H 0.77398 0.30804 0.36599
 H1410 H 0.78460 0.31865 0.34280
 H1411 H 0.81908 0.28411 0.34309
 H1412 H 0.80829 0.27366 0.36628
 H1413 H 0.75723 0.29152 0.40998
 H1414 H 0.74923 0.28375 0.43526
 H1415 H 0.78313 0.24863 0.43502
 H1416 H 0.79097 0.25657 0.40974
 C1417 C 0.79040 0.79161 -0.13208
 C1418 C 0.80301 0.78486 -0.13871
 C1419 C 0.80917 0.79085 -0.15194
 C1420 C 0.80282 0.80377 -0.15876
 C1421 C 0.78994 0.81030 -0.15206
 C1422 C 0.78383 0.80427 -0.13883
 C1423 C 0.78456 0.78588 -0.11805
 C1424 C 0.77992 0.78127 -0.10612
 C1425 C 0.77467 0.77600 -0.09169
 C1426 C 0.78187 0.76388 -0.08459
 C1427 C 0.77740 0.75932 -0.07017
 C1428 C 0.76564 0.76686 -0.06261
 C1429 C 0.75828 0.77887 -0.06999
 C1430 C 0.76279 0.78340 -0.08441
 H1431 H 0.80820 0.77507 -0.13355
 H1432 H 0.81902 0.78540 -0.15667
 H1433 H 0.78464 0.82019 -0.15689
 H1434 H 0.77407 0.80960 -0.13376
 H1435 H 0.79112 0.75810 -0.09011
 H1436 H 0.78333 0.75005 -0.06485
 H1437 H 0.74921 0.78495 -0.06452
 H1438 H 0.75716 0.79284 -0.08979
 C1439 C 0.29095 0.45878 0.88078
 C1440 C 0.30340 0.46570 0.88758
 C1441 C 0.30909 0.46016 0.90122
 C1442 C 0.30240 0.44757 0.90824
 C1443 C 0.28977 0.44080 0.90139
 C1444 C 0.28410 0.44637 0.88775
 C1445 C 0.28545 0.46417 0.86648
 C1446 C 0.28099 0.46858 0.85440
 C1447 C 0.27586 0.47373 0.83987
 C1448 C 0.28326 0.48566 0.83265
 C1449 C 0.27859 0.49039 0.81833
 C1450 C 0.26644 0.48322 0.81102
 C1451 C 0.25901 0.47129 0.81845
 C1452 C 0.26370 0.46660 0.83277
 H1453 H 0.30880 0.47530 0.88227
 H1454 H 0.31881 0.46566 0.90616
 H1455 H 0.28433 0.43111 0.90646
 H1456 H 0.27447 0.44092 0.88257
 H1457 H 0.29271 0.49124 0.83803
 H1458 H 0.28460 0.49956 0.81295
 H1459 H 0.24965 0.46549 0.81317
 H1460 H 0.25793 0.45732 0.83825
 C1461 C 0.29213 -0.04128 0.38006
 C1462 C 0.30490 -0.03469 0.38657
 C1463 C 0.31070 -0.04034 0.40012
 C1464 C 0.30381 -0.05270 0.40733
 C1465 C 0.29086 -0.05914 0.40075
 C1466 C 0.28508 -0.05346 0.38721
 C1467 C 0.28649 -0.03581 0.36584
 C1468 C 0.28191 -0.03135 0.35383
 C1469 C 0.27663 -0.02617 0.33937
 C1470 C 0.28393 -0.01422 0.33210
 C1471 C 0.27914 -0.00949 0.31782
 C1472 C 0.26695 -0.01669 0.31060
 C1473 C 0.25960 -0.02862 0.31809
 C1474 C 0.26442 -0.03332 0.33237
 H1475 H 0.31045 -0.02526 0.38111
 H1476 H 0.32067 -0.03510 0.40485
 H1477 H 0.28525 -0.06865 0.40598
 H1478 H 0.27520 -0.05867 0.38224
 H1479 H 0.29343 -0.00863 0.33740
 H1480 H 0.28510 -0.00031 0.31240
 H1481 H 0.25021 -0.03445 0.31287
 H1482 H 0.25871 -0.04261 0.33788
 C1483 C -0.04229 -0.04221 -0.12972
 C1484 C -0.05483 -0.03540 -0.13643
 C1485 C -0.06077 -0.04119 -0.14986
 C1486 C -0.05425 -0.05396 -0.15682
 C1487 C -0.04147 -0.06058 -0.15000
 C1488 C -0.03558 -0.05474 -0.13657
 C1489 C -0.03655 -0.03657 -0.11561
 C1490 C -0.03190 -0.03197 -0.10367
 C1491 C -0.02655 -0.02665 -0.08929
 C1492 C -0.03386 -0.01467 -0.08206
 C1493 C -0.02903 -0.00983 -0.06784
 C1494 C -0.01679 -0.01695 -0.06063
 C1495 C -0.00942 -0.02889 -0.06808
 C1496 C -0.01428 -0.03370 -0.08231
 H1497 H -0.06012 -0.02569 -0.13121
 H1498 H -0.07056 -0.03569 -0.15467
 H1499 H -0.03605 -0.07037 -0.15491
 H1500 H -0.02587 -0.06010 -0.13145
 H1501 H -0.04340 -0.00916 -0.08735
 H1502 H -0.03499 -0.00064 -0.06243
 H1503 H 0.00000 -0.03466 -0.06287
 H1504 H -0.00857 -0.04302 -0.08779
 C1505 C -0.04037 0.45883 0.36763
 C1506 C -0.03375 0.44621 0.36085
 C1507 C -0.03988 0.44013 0.34763
 C1508 C -0.05282 0.44658 0.34097
 C1509 C -0.05923 0.45947 0.34782
 C1510 C -0.05305 0.46549 0.36103
 C1511 C -0.03452 0.46459 0.38164
 C1512 C -0.02985 0.46924 0.39356
 C1513 C -0.02460 0.47455 0.40799
 C1514 C -0.01257 0.46731 0.41519
 C1515 C -0.00806 0.47187 0.42962
 C1516 C -0.01557 0.48374 0.43707
 C1517 C -0.02747 0.49113 0.42958
 C1518 C -0.03195 0.48654 0.41515
 H1519 H -0.02394 0.44094 0.36589
 H1520 H -0.03453 0.43027 0.34279
 H1521 H -0.06913 0.46485 0.34312
 H1522 H -0.05828 0.47526 0.36621
 H1523 H -0.00683 0.45798 0.40976
 H1524 H 0.00112 0.46591 0.43503
 H1525 H -0.03353 0.50028 0.43495
 H1526 H -0.04131 0.49219 0.40970
 C1527 C 0.45896 -0.04106 0.36921
 C1528 C 0.46584 -0.05340 0.36216
 C1529 C 0.46003 -0.05907 0.34862
 C1530 C 0.44720 -0.05248 0.34196
 C1531 C 0.44048 -0.03995 0.34907
 C1532 C 0.44633 -0.03431 0.36260
 C1533 C 0.46459 -0.03560 0.38344
 C1534 C 0.46912 -0.03115 0.39548
 C1535 C 0.47432 -0.02599 0.40998
 C1536 C 0.48627 -0.03334 0.41719
 C1537 C 0.49095 -0.02868 0.43154
 C1538 C 0.48370 -0.01659 0.43887
 C1539 C 0.47179 -0.00917 0.43143
 C1540 C 0.46714 -0.01386 0.41709
 H1541 H 0.47561 -0.05873 0.36720
 H1542 H 0.46550 -0.06872 0.34348
 H1543 H 0.43062 -0.03459 0.34427
 H1544 H 0.44090 -0.02476 0.36798
 H1545 H 0.49188 -0.04277 0.41180
 H1546 H 0.50012 -0.03468 0.43693
 H1547 H 0.46592 0.00014 0.43673
 H1548 H 0.45784 -0.00811 0.41162
 C1549 C 0.45970 0.45950 -0.13259
 C1550 C 0.44708 0.46625 -0.13920
 C1551 C 0.44089 0.46028 -0.15243
 C1552 C 0.44722 0.44736 -0.15928
 C1553 C 0.46012 0.44083 -0.15261
 C1554 C 0.46626 0.44685 -0.13937
 C1555 C 0.46555 0.46519 -0.11854
 C1556 C 0.47020 0.46976 -0.10660
 C1557 C 0.47542 0.47499 -0.09213
 C1558 C 0.46807 0.48697 -0.08494
 C1559 C 0.47251 0.49148 -0.07048
 C1560 C 0.48437 0.48402 -0.06298
 C1561 C 0.49188 0.47217 -0.07046
 C1562 C 0.48741 0.46769 -0.08492
 H1563 H 0.44190 0.47604 -0.13402
 H1564 H 0.43102 0.46572 -0.15714
 H1565 H 0.46542 0.43093 -0.15745
 H1566 H 0.47603 0.44151 -0.13432
 H1567 H 0.45874 0.49267 -0.09040
 H1568 H 0.46647 0.50063 -0.06508
 H1569 H 0.50103 0.46616 -0.06504
 H1570 H 0.49314 0.45837 -0.09038
 C1571 C 0.46084 0.79048 0.38259
 C1572 C 0.44853 0.78346 0.38951
 C1573 C 0.44259 0.78929 0.40292
 C1574 C 0.44889 0.80228 0.40958
 C1575 C 0.46143 0.80912 0.40264
 C1576 C 0.46734 0.80326 0.38923
 C1577 C 0.46644 0.78492 0.36840
 C1578 C 0.47088 0.78044 0.35634
 C1579 C 0.47590 0.77532 0.34176
 C1580 C 0.46839 0.76346 0.33452
 C1581 C 0.47268 0.75903 0.32000
 C1582 C 0.48456 0.76644 0.31249
 C1583 C 0.49220 0.77819 0.32000
 C1584 C 0.48788 0.78260 0.33452
 H1585 H 0.44339 0.77358 0.38444
 H1586 H 0.43296 0.78372 0.40794
 H1587 H 0.46657 0.81911 0.40745
 H1588 H 0.47685 0.80881 0.38395
 H1589 H 0.45907 0.75779 0.34001
 H1590 H 0.46653 0.74997 0.31458
 H1591 H 0.50136 0.78417 0.31457
 H1592 H 0.49373 0.79183 0.34001
 C1593 C -0.04164 0.79263 0.88045
 C1594 C -0.03505 0.80533 0.88712
 C1595 C -0.04078 0.81110 0.90065
 C1596 C -0.05327 0.80425 0.90774
 C1597 C -0.05968 0.79132 0.90096
 C1598 C -0.05391 0.78560 0.88743
 C1599 C -0.03607 0.78703 0.86626
 C1600 C -0.03156 0.78245 0.85427
 C1601 C -0.02636 0.77713 0.83983
 C1602 C -0.01414 0.78414 0.83275
 C1603 C -0.00939 0.77931 0.81850
 C1604 C -0.01685 0.76736 0.81111
 C1605 C -0.02906 0.76029 0.81840
 C1606 C -0.03377 0.76516 0.83266
 H1607 H -0.02555 0.81087 0.88179
 H1608 H -0.03545 0.82102 0.90542
 H1609 H -0.06925 0.78564 0.90598
 H1610 H -0.05910 0.77576 0.88235
 H1611 H -0.00835 0.79345 0.83819
 H1612 H 0.00001 0.78504 0.81322
 H1613 H -0.03509 0.75111 0.81305
 H1614 H -0.04328 0.75968 0.83802
 C1615 C 0.36738 0.79011 0.28937
 C1616 C 0.36083 0.80284 0.28272
 C1617 C 0.34744 0.80880 0.28853
 C1618 C 0.34043 0.80211 0.30112
 C1619 C 0.34701 0.78916 0.30757
 C1620 C 0.36039 0.78322 0.30174
 C1621 C 0.38155 0.78445 0.28387
 C1622 C 0.39358 0.77994 0.27947
 C1623 C 0.40813 0.77482 0.27445
 C1624 C 0.41527 0.78198 0.26234
 C1625 C 0.42977 0.77760 0.25799
 C1626 C 0.43735 0.76597 0.26574
 C1627 C 0.42994 0.75867 0.27775
 C1628 C 0.41545 0.76308 0.28207
 H1629 H 0.36616 0.80828 0.27316
 H1630 H 0.34271 0.81876 0.28326
 H1631 H 0.34193 0.78370 0.31725
 H1632 H 0.36539 0.77338 0.30700
 H1633 H 0.40973 0.79112 0.25639
 H1634 H 0.43511 0.78348 0.24871
 H1635 H 0.43542 0.74970 0.28398
 H1636 H 0.41003 0.75749 0.29150
 C1637 C -0.13034 0.79182 0.79189
 C1638 C -0.13739 0.78496 0.80423
 C1639 C -0.15086 0.79085 0.80992
 C1640 C -0.15745 0.80374 0.80335
 C1641 C -0.15033 0.81045 0.79083
 C1642 C -0.13687 0.80453 0.78516
 C1643 C -0.11619 0.78608 0.78640
 C1644 C -0.10423 0.78144 0.78192
 C1645 C -0.08982 0.77611 0.77672
 C1646 C -0.08263 0.76418 0.78416
 C1647 C -0.06837 0.75937 0.77945
 C1648 C -0.06111 0.76645 0.76722
 C1649 C -0.06854 0.77834 0.75973
 C1650 C -0.08278 0.78312 0.76446
 H1651 H -0.13242 0.77514 0.80954
 H1652 H -0.15600 0.78539 0.81956
 H1653 H -0.15507 0.82036 0.78548
 H1654 H -0.13149 0.80994 0.77561
 H1655 H -0.08796 0.75870 0.79369
 H1656 H -0.06299 0.75023 0.78552
 H1657 H -0.06329 0.78408 0.75030
 H1658 H -0.08824 0.79239 0.75864
 C1659 C 0.88270 0.28838 0.45991
 C1660 C 0.88935 0.28183 0.44718
 C1661 C 0.90276 0.28773 0.44136
 C1662 C 0.90969 0.30031 0.44819
 C1663 C 0.90300 0.30666 0.46113
 C1664 C 0.88960 0.30074 0.46693
 C1665 C 0.86850 0.28280 0.46543
 C1666 C 0.85645 0.27837 0.46988
 C1667 C 0.84188 0.27338 0.47497
 C1668 C 0.83453 0.26153 0.46754
 C1669 C 0.82002 0.25723 0.47193
 C1670 C 0.81264 0.26476 0.48382
 C1671 C 0.82025 0.27649 0.49138
 C1672 C 0.83476 0.28076 0.48696
 H1673 H 0.88408 0.27229 0.44164
 H1674 H 0.90758 0.28254 0.43140
 H1675 H 0.90801 0.31633 0.46669
 H1676 H 0.88451 0.30592 0.47677
 H1677 H 0.83993 0.25577 0.45820
 H1678 H 0.81451 0.24817 0.46584
 H1679 H 0.81493 0.28255 0.50056
 H1680 H 0.84034 0.28998 0.49276
 C1681 C 0.88208 0.79050 -0.04050
 C1682 C 0.88872 0.78393 -0.05323
 C1683 C 0.90192 0.79005 -0.05930
 C1684 C 0.90864 0.80287 -0.05273
 C1685 C 0.90198 0.80925 -0.03978
 C1686 C 0.88878 0.80310 -0.03374
 C1687 C 0.86807 0.78469 -0.03474
 C1688 C 0.85616 0.78006 -0.03012
 C1689 C 0.84173 0.77485 -0.02486
 C1690 C 0.83451 0.76282 -0.03213
 C1691 C 0.82008 0.75837 -0.02764
 C1692 C 0.81264 0.76593 -0.01580
 C1693 C 0.82014 0.77782 -0.00836
 C1694 C 0.83457 0.78224 -0.01288
 H1695 H 0.88360 0.77419 -0.05858
 H1696 H 0.90673 0.78483 -0.06925
 H1697 H 0.90683 0.81910 -0.03442
 H1698 H 0.88370 0.80830 -0.02391
 H1699 H 0.83994 0.75706 -0.04145
 H1700 H 0.81466 0.74920 -0.03363
 H1701 H 0.81477 0.78390 0.00077
 H1702 H 0.84004 0.79159 -0.00721
 C1703 C -0.13001 -0.04127 -0.04194
 C1704 C -0.13693 -0.05359 -0.03492
 C1705 C -0.15037 -0.05947 -0.04068
 C1706 C -0.15714 -0.05313 -0.05363
 C1707 C -0.15011 -0.04057 -0.06047
 C1708 C -0.13666 -0.03473 -0.05467
 C1709 C -0.11588 -0.03559 -0.03632
 C1710 C -0.10393 -0.03099 -0.03174
 C1711 C -0.08953 -0.02571 -0.02643
 C1712 C -0.08250 -0.03285 -0.01423
 C1713 C -0.06825 -0.02811 -0.00942
 C1714 C -0.06082 -0.01614 -0.01677
 C1715 C -0.06809 -0.00893 -0.02894
 C1716 C -0.08233 -0.01370 -0.03372
 H1717 H -0.13185 -0.05874 -0.02506
 H1718 H -0.15534 -0.06909 -0.03501
 H1719 H -0.15487 -0.03529 -0.07041
 H1720 H -0.13138 -0.02519 -0.06020
 H1721 H -0.08796 -0.04219 -0.00853
 H1722 H -0.06300 -0.03395 -0.00005
 H1723 H -0.06270 0.00028 -0.03490
 H1724 H -0.08766 -0.00812 -0.04321
 C1725 C -0.13277 0.46082 0.46016
 C1726 C -0.13943 0.46740 0.44744
 C1727 C -0.15286 0.46154 0.44162
 C1728 C -0.15980 0.44897 0.44843
 C1729 C -0.15312 0.44260 0.46136
 C1730 C -0.13969 0.44848 0.46716
 C1731 C -0.11855 0.46636 0.46566
 C1732 C -0.10647 0.47078 0.47007
 C1733 C -0.09187 0.47579 0.47506
 C1734 C -0.08454 0.48755 0.46750
 C1735 C -0.07001 0.49188 0.47180
 C1736 C -0.06258 0.48447 0.48374
 C1737 C -0.07018 0.47282 0.49144
 C1738 C -0.08471 0.46851 0.48711
 H1739 H -0.13414 0.47693 0.44191
 H1740 H -0.15768 0.46674 0.43167
 H1741 H -0.15814 0.43294 0.46691
 H1742 H -0.13460 0.44328 0.47699
 H1743 H -0.08998 0.49322 0.45813
 H1744 H -0.06453 0.50087 0.46561
 H1745 H -0.06482 0.46685 0.50066
 H1746 H -0.09026 0.45936 0.49301
 C1747 C 0.36985 -0.04137 0.45792
 C1748 C 0.36328 -0.03482 0.44516
 C1749 C 0.34976 -0.04051 0.43938
 C1750 C 0.34258 -0.05295 0.44629
 C1751 C 0.34927 -0.05931 0.45927
 C1752 C 0.36279 -0.05357 0.46500
 C1753 C 0.38405 -0.03585 0.46351
 C1754 C 0.39604 -0.03137 0.46808
 C1755 C 0.41048 -0.02619 0.47338
 C1756 C 0.41754 -0.01393 0.46637
 C1757 C 0.43179 -0.00921 0.47117
 C1758 C 0.43919 -0.01670 0.48307
 C1759 C 0.43192 -0.02894 0.49013
 C1760 C 0.41766 -0.03364 0.48530
 H1761 H 0.36868 -0.02537 0.43958
 H1762 H 0.34506 -0.03522 0.42942
 H1763 H 0.34418 -0.06884 0.46500
 H1764 H 0.36780 -0.05874 0.47488
 H1765 H 0.41209 -0.00812 0.45710
 H1766 H 0.43705 0.00022 0.46544
 H1767 H 0.43728 -0.03500 0.49929
 H1768 H 0.41231 -0.04317 0.49078
 C1769 C 0.36749 0.46027 -0.04033
 C1770 C 0.36087 0.46675 -0.05310
 C1771 C 0.34751 0.46080 -0.05899
 C1772 C 0.34054 0.44819 -0.05220
 C1773 C 0.34724 0.44193 -0.03917
 C1774 C 0.36060 0.44793 -0.03332
 C1775 C 0.38164 0.46594 -0.03474
 C1776 C 0.39365 0.47047 -0.03027
 C1777 C 0.40817 0.47562 -0.02518
 C1778 C 0.41546 0.48741 -0.03273
 C1779 C 0.42994 0.49185 -0.02835
 C1780 C 0.43735 0.48452 -0.01634
 C1781 C 0.42979 0.47284 -0.00866
 C1782 C 0.41531 0.46843 -0.01307
 H1783 H 0.36613 0.47631 -0.05863
 H1784 H 0.34278 0.46603 -0.06898
 H1785 H 0.34231 0.43228 -0.03352
 H1786 H 0.36566 0.44281 -0.02343
 H1787 H 0.41005 0.49302 -0.04215
 H1788 H 0.43540 0.50086 -0.03453
 H1789 H 0.43513 0.46693 0.00061
 H1790 H 0.40978 0.45925 -0.00718
 C1791 C 0.38015 0.45912 0.79154
 C1792 C 0.38723 0.46601 0.80386
 C1793 C 0.40073 0.46017 0.80952
 C1794 C 0.40734 0.44730 0.80292
 C1795 C 0.40020 0.44057 0.79042
 C1796 C 0.38670 0.44644 0.78479
 C1797 C 0.36596 0.46479 0.78609
 C1798 C 0.35396 0.46937 0.78165
 C1799 C 0.33950 0.47461 0.77648
 C1800 C 0.33228 0.48652 0.78391
 C1801 C 0.31798 0.49125 0.77924
 C1802 C 0.31070 0.48410 0.76704
 C1803 C 0.31815 0.47223 0.75955
 C1804 C 0.33244 0.46753 0.76425
 H1805 H 0.38224 0.47582 0.80919
 H1806 H 0.40590 0.46565 0.81914
 H1807 H 0.40495 0.43067 0.78505
 H1808 H 0.38129 0.44100 0.77526
 H1809 H 0.33763 0.49206 0.79342
 H1810 H 0.31258 0.50039 0.78530
 H1811 H 0.31290 0.46644 0.75016
 H1812 H 0.33792 0.45827 0.75844
 C1813 C 0.38055 -0.04053 0.29126
 C1814 C 0.38745 -0.05285 0.28421
 C1815 C 0.40096 -0.05866 0.28989
 C1816 C 0.40774 -0.05222 0.30274
 C1817 C 0.40078 -0.03970 0.30964
 C1818 C 0.38728 -0.03392 0.30393
 C1819 C 0.36635 -0.03494 0.28575
 C1820 C 0.35434 -0.03042 0.28127
 C1821 C 0.33987 -0.02524 0.27607
 C1822 C 0.33280 -0.03243 0.26390
 C1823 C 0.31850 -0.02779 0.25919
 C1824 C 0.31104 -0.01587 0.26661
 C1825 C 0.31833 -0.00862 0.27875
 C1826 C 0.33263 -0.01329 0.28343
 H1827 H 0.38232 -0.05807 0.27440
 H1828 H 0.40599 -0.06829 0.28429
 H1829 H 0.40567 -0.03445 0.31954
 H1830 H 0.38201 -0.02439 0.30949
 H1831 H 0.33829 -0.04172 0.25815
 H1832 H 0.31324 -0.03365 0.24984
 H1833 H 0.31292 0.00055 0.28475
 H1834 H 0.33799 -0.00769 0.29289
 C1835 C 0.11724 0.53978 0.71048
 C1836 C 0.11022 0.55213 0.71736
 C1837 C 0.09682 0.55793 0.71141
 C1838 C 0.09026 0.55146 0.69845
 C1839 C 0.09731 0.53888 0.69176
 C1840 C 0.11071 0.53311 0.69773
 C1841 C 0.13142 0.53429 0.71615
 C1842 C 0.14345 0.52989 0.72068
 C1843 C 0.15800 0.52486 0.72580
 C1844 C 0.16533 0.53248 0.73754
 C1845 C 0.17983 0.52813 0.74196
 C1846 C 0.18721 0.51610 0.73466
 C1847 C 0.17961 0.50835 0.72304
 C1848 C 0.16512 0.51272 0.71865
 H1849 H 0.11520 0.55740 0.72721
 H1850 H 0.09172 0.56760 0.71687
 H1851 H 0.09260 0.53360 0.68179
 H1852 H 0.11608 0.52356 0.69230
 H1853 H 0.15994 0.54193 0.74312
 H1854 H 0.18532 0.53437 0.75093
 H1855 H 0.18493 0.49905 0.71716
 H1856 H 0.15956 0.50677 0.70952
 C1857 C 0.11703 0.03884 0.21084
 C1858 C 0.11027 0.03195 0.19836
 C1859 C 0.09676 0.03760 0.19252
 C1860 C 0.08979 0.05035 0.19907
 C1861 C 0.09663 0.05702 0.21183
 C1862 C 0.11014 0.05131 0.21762
 C1863 C 0.13132 0.03348 0.21635
 C1864 C 0.14344 0.02918 0.22074
 C1865 C 0.15808 0.02429 0.22573
 C1866 C 0.16524 0.01220 0.21853
 C1867 C 0.17979 0.00794 0.22281
 C1868 C 0.18742 0.01576 0.23437
 C1869 C 0.18001 0.02775 0.24171
 C1870 C 0.16545 0.03198 0.23739
 H1871 H 0.11553 0.02229 0.19300
 H1872 H 0.09193 0.03206 0.18274
 H1873 H 0.09170 0.06678 0.21729
 H1874 H 0.11530 0.05675 0.22729
 H1875 H 0.15965 0.00619 0.20945
 H1876 H 0.18514 -0.00133 0.21691
 H1877 H 0.18552 0.03404 0.25063
 H1878 H 0.16003 0.04139 0.24301
 C1879 C 0.63011 0.70875 0.20881
 C1880 C 0.63717 0.69644 0.21573
 C1881 C 0.65064 0.69073 0.20987
 C1882 C 0.65724 0.69725 0.19697
 C1883 C 0.65012 0.70974 0.19020
 C1884 C 0.63665 0.71543 0.19608
 C1885 C 0.61596 0.71427 0.21450
 C1886 C 0.60399 0.71876 0.21910
 C1887 C 0.58957 0.72399 0.22437
 C1888 C 0.58235 0.71660 0.23630
 C1889 C 0.56808 0.72132 0.24105
 C1890 C 0.56082 0.73352 0.23389
 C1891 C 0.56828 0.74097 0.22200
 C1892 C 0.58254 0.73622 0.21728
 H1893 H 0.63219 0.69117 0.22557
 H1894 H 0.65580 0.68111 0.21538
 H1895 H 0.65486 0.71505 0.18027
 H1896 H 0.63126 0.72495 0.19062
 H1897 H 0.58767 0.70708 0.24183
 H1898 H 0.56267 0.71529 0.25019
 H1899 H 0.56304 0.75037 0.21621
 H1900 H 0.58802 0.74200 0.20801
 C1901 C 0.13225 0.71060 0.71062
 C1902 C 0.13876 0.71727 0.69788
 C1903 C 0.15216 0.71152 0.69192
 C1904 C 0.15924 0.69896 0.69861
 C1905 C 0.15270 0.69247 0.71156
 C1906 C 0.13929 0.69825 0.71750
 C1907 C 0.11807 0.71605 0.71629
 C1908 C 0.10603 0.72044 0.72082
 C1909 C 0.09147 0.72544 0.72593
 C1910 C 0.08436 0.73760 0.71881
 C1911 C 0.06987 0.74197 0.72319
 C1912 C 0.06227 0.73419 0.73478
 C1913 C 0.06965 0.72214 0.74205
 C1914 C 0.08414 0.71780 0.73763
 H1915 H 0.13337 0.72681 0.69245
 H1916 H 0.15687 0.71681 0.68196
 H1917 H 0.15782 0.68282 0.71702
 H1918 H 0.13433 0.69298 0.72735
 H1919 H 0.08992 0.74357 0.70970
 H1920 H 0.06455 0.75128 0.71734
 H1921 H 0.06415 0.71588 0.75099
 H1922 H 0.08953 0.70834 0.74320
 C1923 C 0.61905 0.20934 0.54046
 C1924 C 0.61207 0.19696 0.53357
 C1925 C 0.59836 0.19150 0.53911
 C1926 C 0.59145 0.19836 0.55168
 C1927 C 0.59849 0.21092 0.55841
 C1928 C 0.61220 0.21635 0.55284
 C1929 C 0.63342 0.21459 0.53509
 C1930 C 0.64556 0.21887 0.53074
 C1931 C 0.66015 0.22384 0.52571
 C1932 C 0.66724 0.21660 0.51360
 C1933 C 0.68160 0.22114 0.50899
 C1934 C 0.68910 0.23302 0.51645
 C1935 C 0.68181 0.24029 0.52856
 C1936 C 0.66744 0.23571 0.53314
 H1937 H 0.61729 0.19143 0.52399
 H1938 H 0.59328 0.18182 0.53364
 H1939 H 0.59351 0.21648 0.56808
 H1940 H 0.61752 0.22593 0.55827
 H1941 H 0.66170 0.20736 0.50779
 H1942 H 0.68687 0.21526 0.49966
 H1943 H 0.68723 0.24943 0.53459
 H1944 H 0.66207 0.24137 0.54256
 C1945 C 0.62014 0.70848 0.04151
 C1946 C 0.61336 0.71528 0.05404
 C1947 C 0.60004 0.70935 0.06002
 C1948 C 0.59331 0.69649 0.05353
 C1949 C 0.60013 0.68984 0.04081
 C1950 C 0.61346 0.69580 0.03487
 C1951 C 0.63416 0.71424 0.03575
 C1952 C 0.64604 0.71893 0.03109
 C1953 C 0.66036 0.72434 0.02575
 C1954 C 0.66742 0.73649 0.03297
 C1955 C 0.68163 0.74135 0.02821
 C1956 C 0.68901 0.73409 0.01615
 C1957 C 0.68172 0.72200 0.00885
 C1958 C 0.66750 0.71717 0.01363
 H1959 H 0.61846 0.72509 0.05929
 H1960 H 0.59511 0.71477 0.06980
 H1961 H 0.59528 0.67994 0.03553
 H1962 H 0.61863 0.69042 0.02518
 H1963 H 0.66201 0.74210 0.04239
 H1964 H 0.68691 0.75066 0.03413
 H1965 H 0.68706 0.71612 -0.00044
 H1966 H 0.66216 0.70772 0.00799
 C1967 C 0.13264 0.03975 0.03964
 C1968 C 0.13955 0.03276 0.05199
 C1969 C 0.15291 0.03862 0.05796
 C1970 C 0.15958 0.05166 0.05169
 C1971 C 0.15260 0.05843 0.03907
 C1972 C 0.13924 0.05252 0.03314
 C1973 C 0.11848 0.03416 0.03402
 C1974 C 0.10645 0.02968 0.02952
 C1975 C 0.09191 0.02460 0.02443
 C1976 C 0.08480 0.01250 0.03165
 C1977 C 0.07030 0.00810 0.02729
 C1978 C 0.06270 0.01579 0.01564
 C1979 C 0.07008 0.02778 0.00827
 C1980 C 0.08458 0.03215 0.01267
 H1981 H 0.13451 0.02287 0.05712
 H1982 H 0.15786 0.03299 0.06762
 H1983 H 0.15730 0.06842 0.03383
 H1984 H 0.13395 0.05803 0.02359
 H1985 H 0.09036 0.00661 0.04081
 H1986 H 0.06497 -0.00116 0.03322
 H1987 H 0.06459 0.03397 -0.00072
 H1988 H 0.08997 0.04157 0.00703
 C1989 C 0.13040 0.54168 0.54030
 C1990 C 0.13712 0.55435 0.53371
 C1991 C 0.15062 0.56006 0.53951
 C1992 C 0.15759 0.55317 0.55202
 C1993 C 0.15081 0.54031 0.55844
 C1994 C 0.13731 0.53463 0.55262
 C1995 C 0.11620 0.53616 0.53469
 C1996 C 0.10420 0.53166 0.53016
 C1997 C 0.08974 0.52643 0.52496
 C1998 C 0.08249 0.53379 0.51303
 C1999 C 0.06819 0.52908 0.50834
 C2000 C 0.06094 0.51691 0.51555
 C2001 C 0.06843 0.50950 0.52746
 C2002 C 0.08272 0.51424 0.53212
 H2003 H 0.13184 0.55992 0.52418
 H2004 H 0.15551 0.56997 0.53428
 H2005 H 0.15584 0.53470 0.56807
 H2006 H 0.13218 0.52482 0.55782
 H2007 H 0.08781 0.54328 0.50744
 H2008 H 0.06277 0.53508 0.49918
 H2009 H 0.06319 0.50013 0.53330
 H2010 H 0.08822 0.50849 0.54140
 C2011 C 0.63273 0.03994 0.53881
 C2012 C 0.63932 0.05273 0.53230
 C2013 C 0.65272 0.05859 0.53818
 C2014 C 0.65971 0.05175 0.55071
 C2015 C 0.65309 0.03875 0.55703
 C2016 C 0.63969 0.03291 0.55111
 C2017 C 0.61853 0.03438 0.53326
 C2018 C 0.60648 0.02991 0.52884
 C2019 C 0.59190 0.02482 0.52386
 C2020 C 0.58458 0.03220 0.51198
 C2021 C 0.57006 0.02781 0.50769
 C2022 C 0.56264 0.01597 0.51525
 C2023 C 0.57023 0.00845 0.52702
 C2024 C 0.58475 0.01286 0.53129
 H2025 H 0.63399 0.05828 0.52279
 H2026 H 0.65748 0.06860 0.53303
 H2027 H 0.65815 0.03318 0.56666
 H2028 H 0.63467 0.02303 0.55627
 H2029 H 0.59000 0.04150 0.50619
 H2030 H 0.56457 0.03387 0.49860
 H2031 H 0.56489 -0.00070 0.53311
 H2032 H 0.59031 0.00710 0.54053
 C2033 C 0.63013 0.54212 0.04052
 C2034 C 0.63708 0.53505 0.05281
 C2035 C 0.65056 0.54077 0.05866
 C2036 C 0.65728 0.55369 0.05229
 C2037 C 0.65027 0.56061 0.03982
 C2038 C 0.63679 0.55486 0.03399
 C2039 C 0.61597 0.53655 0.03487
 C2040 C 0.60400 0.53200 0.03031
 C2041 C 0.58958 0.52672 0.02506
 C2042 C 0.58257 0.51449 0.03219
 C2043 C 0.56831 0.50970 0.02748
 C2044 C 0.56084 0.51709 0.01556
 C2045 C 0.56807 0.52928 0.00836
 C2046 C 0.58233 0.53405 0.01310
 H2047 H 0.63200 0.52519 0.05796
 H2048 H 0.65562 0.53514 0.06825
 H2049 H 0.65511 0.57056 0.03462
 H2050 H 0.63149 0.56044 0.02449
 H2051 H 0.58807 0.50877 0.04149
 H2052 H 0.56309 0.50031 0.03331
 H2053 H 0.56265 0.53527 -0.00081
 H2054 H 0.58764 0.54355 0.00753
 C2055 C 0.03981 0.03815 0.13347
 C2056 C 0.05234 0.03143 0.14029
 C2057 C 0.05812 0.03725 0.15378
 C2058 C 0.05146 0.04999 0.16067
 C2059 C 0.03865 0.05647 0.15377
 C2060 C 0.03293 0.05060 0.14029
 C2061 C 0.03436 0.03264 0.11919
 C2062 C 0.02997 0.02827 0.10707
 C2063 C 0.02495 0.02335 0.09242
 C2064 C 0.03239 0.01157 0.08501
 C2065 C 0.02804 0.00733 0.07044
 C2066 C 0.01617 0.01488 0.06305
 C2067 C 0.00860 0.02656 0.07072
 C2068 C 0.01298 0.03076 0.08529
 H2069 H 0.05777 0.02179 0.13508
 H2070 H 0.06792 0.03185 0.15865
 H2071 H 0.03312 0.06622 0.15864
 H2072 H 0.02323 0.05590 0.13508
 H2073 H 0.04171 0.00579 0.09041
 H2074 H 0.03414 -0.00169 0.06489
 H2075 H -0.00057 0.03262 0.06539
 H2076 H 0.00716 0.03993 0.09091
 C2077 C 0.04058 0.54041 0.63079
 C2078 C 0.03361 0.55281 0.63765
 C2079 C 0.03913 0.55849 0.65130
 C2080 C 0.05175 0.55185 0.65829
 C2081 C 0.05857 0.53926 0.65138
 C2082 C 0.05302 0.53361 0.63772
 C2083 C 0.03523 0.53493 0.61646
 C2084 C 0.03086 0.53050 0.60435
 C2085 C 0.02579 0.52541 0.58978
 C2086 C 0.01373 0.53266 0.58264
 C2087 C 0.00911 0.52807 0.56826
 C2088 C 0.01652 0.51615 0.56080
 C2089 C 0.02855 0.50884 0.56815
 C2090 C 0.03315 0.51346 0.58254
 H2091 H 0.02398 0.55817 0.63236
 H2092 H 0.03360 0.56818 0.65628
 H2093 H 0.06829 0.53386 0.65642
 H2094 H 0.05852 0.52401 0.63250
 H2095 H 0.00799 0.54195 0.58813
 H2096 H -0.00016 0.53398 0.56294
 H2097 H 0.03454 0.49966 0.56275
 H2098 H 0.04253 0.50780 0.58795
 C2099 C 0.53952 0.03887 0.63304
 C2100 C 0.53267 0.05136 0.63983
 C2101 C 0.53838 0.05722 0.65332
 C2102 C 0.55114 0.05069 0.66026
 C2103 C 0.55777 0.03793 0.65339
 C2104 C 0.55201 0.03212 0.63990
 C2105 C 0.53407 0.03333 0.61877
 C2106 C 0.52968 0.02893 0.60666
 C2107 C 0.52465 0.02396 0.59202
 C2108 C 0.51283 0.03147 0.58477
 C2109 C 0.50845 0.02721 0.57022
 C2110 C 0.51589 0.01535 0.56268
 C2111 C 0.52762 0.00770 0.57020
 C2112 C 0.53196 0.01200 0.58475
 H2113 H 0.52300 0.05669 0.63459
 H2114 H 0.53287 0.06700 0.65817
 H2115 H 0.56755 0.03250 0.65830
 H2116 H 0.55742 0.02245 0.63472
 H2117 H 0.50712 0.04078 0.59028
 H2118 H 0.49940 0.03336 0.56479
 H2119 H 0.53361 -0.00145 0.56475
 H2120 H 0.54117 0.00613 0.59025
 C2121 C 0.54128 0.54137 0.13019
 C2122 C 0.53466 0.55411 0.13675
 C2123 C 0.54037 0.55999 0.15024
 C2124 C 0.55283 0.55319 0.15736
 C2125 C 0.55930 0.54026 0.15075
 C2126 C 0.55356 0.53441 0.13726
 C2127 C 0.53576 0.53569 0.11601
 C2128 C 0.53126 0.53111 0.10401
 C2129 C 0.52603 0.52585 0.08955
 C2130 C 0.51390 0.53302 0.08246
 C2131 C 0.50916 0.52832 0.06816
 C2132 C 0.51654 0.51636 0.06072
 C2133 C 0.52864 0.50912 0.06803
 C2134 C 0.53334 0.51385 0.08234
 H2135 H 0.52517 0.55960 0.13136
 H2136 H 0.53510 0.56994 0.15500
 H2137 H 0.56888 0.53472 0.15591
 H2138 H 0.55879 0.52455 0.13226
 H2139 H 0.50819 0.54235 0.08793
 H2140 H 0.49984 0.53418 0.06287
 H2141 H 0.53460 0.49992 0.06264
 H2142 H 0.54278 0.50825 0.08771
 C2143 C 0.20934 0.53996 0.61768
 C2144 C 0.21614 0.55255 0.61100
 C2145 C 0.21022 0.55864 0.59770
 C2146 C 0.19738 0.55222 0.59090
 C2147 C 0.19077 0.53942 0.59760
 C2148 C 0.19672 0.53335 0.61090
 C2149 C 0.21498 0.53419 0.63178
 C2150 C 0.21951 0.52960 0.64376
 C2151 C 0.22469 0.52443 0.65826
 C2152 C 0.23675 0.53170 0.66539
 C2153 C 0.24124 0.52729 0.67986
 C2154 C 0.23369 0.51553 0.68743
 C2155 C 0.22174 0.50811 0.68002
 C2156 C 0.21728 0.51255 0.66555
 H2157 H 0.22590 0.55778 0.61618
 H2158 H 0.21561 0.56849 0.59287
 H2159 H 0.18090 0.53417 0.59269
 H2160 H 0.19135 0.52362 0.61600
 H2161 H 0.24254 0.54094 0.65986
 H2162 H 0.25046 0.53326 0.68520
 H2163 H 0.21566 0.49903 0.68549
 H2164 H 0.20790 0.50688 0.66014
 C2165 C 0.20982 0.03912 0.11699
 C2166 C 0.21643 0.05188 0.11047
 C2167 C 0.21057 0.05794 0.09713
 C2168 C 0.19791 0.05134 0.09009
 C2169 C 0.19152 0.03830 0.09667
 C2170 C 0.19743 0.03229 0.11001
 C2171 C 0.21538 0.03341 0.13113
 C2172 C 0.21986 0.02887 0.14316
 C2173 C 0.22499 0.02379 0.15770
 C2174 C 0.23708 0.03106 0.16479
 C2175 C 0.24153 0.02674 0.17930
 C2176 C 0.23392 0.01507 0.18695
 C2177 C 0.22195 0.00765 0.17959
 C2178 C 0.21752 0.01200 0.16508
 H2179 H 0.22602 0.05727 0.11580
 H2180 H 0.21590 0.06791 0.09250
 H2181 H 0.18183 0.03280 0.09167
 H2182 H 0.19221 0.02242 0.11499
 H2183 H 0.24291 0.04023 0.15920
 H2184 H 0.25077 0.03272 0.18460
 H2185 H 0.21582 -0.00136 0.18513
 H2186 H 0.20812 0.00633 0.15971
 C2187 C 0.70906 0.20995 0.63102
 C2188 C 0.71605 0.19758 0.63790
 C2189 C 0.71054 0.19193 0.65156
 C2190 C 0.69791 0.19857 0.65853
 C2191 C 0.69108 0.21113 0.65159
 C2192 C 0.69662 0.21676 0.63792
 C2193 C 0.71440 0.21538 0.61668
 C2194 C 0.71876 0.21976 0.60456
 C2195 C 0.72383 0.22478 0.58997
 C2196 C 0.73592 0.21753 0.58289
 C2197 C 0.74055 0.22206 0.56850
 C2198 C 0.73311 0.23392 0.56097
 C2199 C 0.72104 0.24122 0.56827
 C2200 C 0.71644 0.23666 0.58266
 H2201 H 0.72568 0.19221 0.63264
 H2202 H 0.71609 0.18226 0.65657
 H2203 H 0.68136 0.21654 0.65661
 H2204 H 0.69111 0.22633 0.63267
 H2205 H 0.74169 0.20829 0.58844
 H2206 H 0.74985 0.21616 0.56324
 H2207 H 0.71503 0.25035 0.56281
 H2208 H 0.70704 0.24232 0.58802
 C2209 C 0.70780 0.70901 0.13012
 C2210 C 0.71485 0.69674 0.13711
 C2211 C 0.70917 0.69096 0.15064
 C2212 C 0.69630 0.69739 0.15737
 C2213 C 0.68940 0.70984 0.15033
 C2214 C 0.69511 0.71560 0.13679
 C2215 C 0.71336 0.71459 0.11592
 C2216 C 0.71791 0.71911 0.10392
 C2217 C 0.72321 0.72431 0.08948
 C2218 C 0.73512 0.71688 0.08230
 C2219 C 0.73997 0.72160 0.06805
 C2220 C 0.73294 0.73386 0.06077
 C2221 C 0.72104 0.74134 0.06817
 C2222 C 0.71622 0.73658 0.08242
 H2223 H 0.72467 0.69154 0.13203
 H2224 H 0.71478 0.68138 0.15574
 H2225 H 0.67949 0.71508 0.15517
 H2226 H 0.68955 0.72509 0.13146
 H2227 H 0.74058 0.70733 0.08765
 H2228 H 0.74912 0.71555 0.06269
 H2229 H 0.71534 0.75078 0.06290
 H2230 H 0.70696 0.74239 0.08787
 C2231 C 0.54214 0.70863 0.11983
 C2232 C 0.55467 0.71537 0.11303
 C2233 C 0.56060 0.70941 0.09968
 C2234 C 0.55406 0.69658 0.09294
 C2235 C 0.54134 0.68999 0.09979
 C2236 C 0.53544 0.69598 0.11314
 C2237 C 0.53641 0.71441 0.13388
 C2238 C 0.53174 0.71909 0.14577
 C2239 C 0.52635 0.72445 0.16012
 C2240 C 0.53355 0.73654 0.16730
 C2241 C 0.52873 0.74136 0.18153
 C2242 C 0.51661 0.73411 0.18880
 C2243 C 0.50934 0.72207 0.18139
 C2244 C 0.51419 0.71728 0.16716
 H2245 H 0.55996 0.72515 0.11813
 H2246 H 0.57038 0.71478 0.09473
 H2247 H 0.53601 0.68012 0.09493
 H2248 H 0.52575 0.69065 0.11832
 H2249 H 0.54301 0.74214 0.16196
 H2250 H 0.53462 0.75062 0.18690
 H2251 H 0.50001 0.71619 0.18665
 H2252 H 0.50857 0.70788 0.16172
 C2253 C 0.04032 0.71008 0.61801
 C2254 C 0.05296 0.71672 0.61130
 C2255 C 0.05901 0.71063 0.59807
 C2256 C 0.05251 0.69776 0.59137
 C2257 C 0.03965 0.69131 0.59809
 C2258 C 0.03362 0.69743 0.61132
 C2259 C 0.03458 0.71588 0.63205
 C2260 C 0.02998 0.72051 0.64399
 C2261 C 0.02475 0.72574 0.65844
 C2262 C 0.03212 0.73768 0.66570
 C2263 C 0.02765 0.74217 0.68015
 C2264 C 0.01573 0.73474 0.68757
 C2265 C 0.00820 0.72293 0.68003
 C2266 C 0.01271 0.71847 0.66558
 H2267 H 0.05825 0.72650 0.61641
 H2268 H 0.06890 0.71590 0.59322
 H2269 H 0.03435 0.68142 0.59325
 H2270 H 0.02386 0.69218 0.61645
 H2271 H 0.04150 0.74335 0.66030
 H2272 H 0.03371 0.75128 0.68560
 H2273 H -0.00100 0.71695 0.68538
 H2274 H 0.00696 0.70919 0.66007
 C2275 C 0.54134 0.62014 0.20798
 C2276 C 0.53472 0.61344 0.19530
 C2277 C 0.54042 0.59988 0.18959
 C2278 C 0.55288 0.59284 0.19648
 C2279 C 0.55935 0.59961 0.20933
 C2280 C 0.55362 0.61316 0.21502
 C2281 C 0.53580 0.63437 0.21352
 C2282 C 0.53130 0.64639 0.21805
 C2283 C 0.52611 0.66085 0.22331
 C2284 C 0.51390 0.66791 0.21623
 C2285 C 0.50916 0.68219 0.22100
 C2286 C 0.51658 0.68961 0.23294
 C2287 C 0.52877 0.68233 0.24007
 C2288 C 0.53349 0.66806 0.23527
 H2289 H 0.52522 0.61876 0.18975
 H2290 H 0.53515 0.59500 0.17969
 H2291 H 0.56894 0.59452 0.21493
 H2292 H 0.55885 0.61827 0.22482
 H2293 H 0.50813 0.66245 0.20693
 H2294 H 0.49977 0.68746 0.21523
 H2295 H 0.53478 0.68771 0.24926
 H2296 H 0.54298 0.66270 0.24080
 C2297 C 0.03876 0.61753 0.71018
 C2298 C 0.05110 0.61062 0.71716
 C2299 C 0.05706 0.59724 0.71129
 C2300 C 0.05075 0.59059 0.69830
 C2301 C 0.03818 0.59752 0.69149
 C2302 C 0.03225 0.61091 0.69740
 C2303 C 0.03314 0.63171 0.71578
 C2304 C 0.02868 0.64374 0.72029
 C2305 C 0.02365 0.65831 0.72544
 C2306 C 0.03116 0.66553 0.73732
 C2307 C 0.02686 0.68005 0.74177
 C2308 C 0.01498 0.68757 0.73437
 C2309 C 0.00733 0.68008 0.72262
 C2310 C 0.01166 0.66556 0.71819
 H2311 H 0.05625 0.61568 0.72704
 H2312 H 0.06672 0.59223 0.71683
 H2313 H 0.03302 0.59273 0.68150
 H2314 H 0.02271 0.61619 0.69188
 H2315 H 0.04049 0.66004 0.74298
 H2316 H 0.03302 0.68546 0.75084
 H2317 H -0.00184 0.68551 0.71665
 H2318 H 0.00580 0.66008 0.70895
 C2319 C 0.03981 0.13242 0.04029
 C2320 C 0.03303 0.13945 0.05268
 C2321 C 0.03903 0.15283 0.05852
 C2322 C 0.05201 0.15941 0.05206
 C2323 C 0.05858 0.15230 0.03941
 C2324 C 0.05253 0.13892 0.03361
 C2325 C 0.03408 0.11825 0.03478
 C2326 C 0.02952 0.10622 0.03033
 C2327 C 0.02441 0.09167 0.02523
 C2328 C 0.01252 0.08440 0.03262
 C2329 C 0.00811 0.06989 0.02821
 C2330 C 0.01559 0.06243 0.01633
 C2331 C 0.02737 0.06998 0.00880
 C2332 C 0.03174 0.08448 0.01324
 H2333 H 0.02319 0.13449 0.05795
 H2334 H 0.03356 0.15788 0.06821
 H2335 H 0.06852 0.15692 0.03403
 H2336 H 0.05789 0.13355 0.02403
 H2337 H 0.00680 0.08985 0.04195
 H2338 H -0.00097 0.06444 0.03428
 H2339 H 0.03339 0.06460 -0.00037
 H2340 H 0.04099 0.08999 0.00746
 C2341 C 0.04160 0.63025 0.54137
 C2342 C 0.05428 0.63686 0.53473
 C2343 C 0.06006 0.65040 0.54042
 C2344 C 0.05323 0.65751 0.55289
 C2345 C 0.04037 0.65083 0.55938
 C2346 C 0.03461 0.63729 0.55365
 C2347 C 0.03600 0.61604 0.53584
 C2348 C 0.03147 0.60402 0.53133
 C2349 C 0.02625 0.58956 0.52609
 C2350 C 0.03361 0.58234 0.51413
 C2351 C 0.02888 0.56806 0.50935
 C2352 C 0.01670 0.56079 0.51649
 C2353 C 0.00929 0.56822 0.52842
 C2354 C 0.01405 0.58250 0.53318
 H2355 H 0.05979 0.63149 0.52523
 H2356 H 0.06997 0.65520 0.53514
 H2357 H 0.03482 0.65598 0.56897
 H2358 H 0.02480 0.63225 0.55890
 H2359 H 0.04309 0.58769 0.50860
 H2360 H 0.03488 0.56267 0.50017
 H2361 H -0.00009 0.56296 0.53421
 H2362 H 0.00830 0.58798 0.54248
 C2363 C 0.53923 0.13295 0.53930
 C2364 C 0.55197 0.13947 0.53268
 C2365 C 0.55792 0.15290 0.53845
 C2366 C 0.55119 0.15999 0.55099
 C2367 C 0.53822 0.15346 0.55741
 C2368 C 0.53231 0.14002 0.55160
 C2369 C 0.53362 0.11872 0.53385
 C2370 C 0.52915 0.10663 0.52949
 C2371 C 0.52410 0.09201 0.52453
 C2372 C 0.53128 0.08484 0.51243
 C2373 C 0.52696 0.07028 0.50813
 C2374 C 0.51539 0.06267 0.51590
 C2375 C 0.50807 0.07010 0.52790
 C2376 C 0.51242 0.08466 0.53217
 H2377 H 0.55744 0.13407 0.52317
 H2378 H 0.56789 0.15760 0.53322
 H2379 H 0.53274 0.15859 0.56704
 H2380 H 0.52246 0.13505 0.55684
 H2381 H 0.54037 0.09041 0.50647
 H2382 H 0.53285 0.06492 0.49886
 H2383 H 0.49914 0.06460 0.53415
 H2384 H 0.50682 0.09010 0.54159
 C2385 C 0.54230 0.62988 0.04207
 C2386 C 0.53557 0.63670 0.05462
 C2387 C 0.54145 0.65013 0.06046
 C2388 C 0.55417 0.65693 0.05383
 C2389 C 0.56074 0.65005 0.04110
 C2390 C 0.55484 0.63662 0.03528
 C2391 C 0.53657 0.61578 0.03639
 C2392 C 0.53191 0.60385 0.03176
 C2393 C 0.52655 0.58949 0.02639
 C2394 C 0.51430 0.58247 0.03345
 C2395 C 0.50942 0.56827 0.02859
 C2396 C 0.51675 0.56086 0.01659
 C2397 C 0.52897 0.56811 0.00947
 C2398 C 0.53382 0.58231 0.01436
 H2399 H 0.52587 0.63156 0.05997
 H2400 H 0.53609 0.65510 0.07026
 H2401 H 0.57053 0.65496 0.03570
 H2402 H 0.56015 0.63142 0.02557
 H2403 H 0.50862 0.58792 0.04281
 H2404 H 0.50002 0.56303 0.03436
 H2405 H 0.53491 0.56274 0.00024
 H2406 H 0.54333 0.58763 0.00884
 C2407 C 0.70957 0.11854 0.54069
 C2408 C 0.69716 0.11171 0.53375
 C2409 C 0.69146 0.09809 0.53930
 C2410 C 0.69809 0.09105 0.55197
 C2411 C 0.71074 0.09798 0.55872
 C2412 C 0.71639 0.11161 0.55312
 C2413 C 0.71504 0.13286 0.53531
 C2414 C 0.71945 0.14496 0.53091
 C2415 C 0.72452 0.15952 0.52581
 C2416 C 0.71727 0.16663 0.51373
 C2417 C 0.72183 0.18101 0.50908
 C2418 C 0.73374 0.18848 0.51648
 C2419 C 0.74105 0.18115 0.52854
 C2420 C 0.73646 0.16678 0.53316
 H2421 H 0.69178 0.11700 0.52412
 H2422 H 0.68176 0.09320 0.53371
 H2423 H 0.71625 0.09301 0.56843
 H2424 H 0.72601 0.11682 0.55858
 H2425 H 0.70798 0.16113 0.50798
 H2426 H 0.71591 0.18630 0.49978
 H2427 H 0.75022 0.18657 0.53452
 H2428 H 0.74213 0.16138 0.54256
 C2429 C 0.70850 0.62018 0.04124
 C2430 C 0.69581 0.61363 0.03453
 C2431 C 0.68995 0.60011 0.04017
 C2432 C 0.69670 0.59296 0.05266
 C2433 C 0.70957 0.59957 0.05922
 C2434 C 0.71540 0.61309 0.05355
 C2435 C 0.71418 0.63438 0.03577
 C2436 C 0.71879 0.64638 0.03131
 C2437 C 0.72411 0.66084 0.02615
 C2438 C 0.71706 0.66796 0.01395
 C2439 C 0.72184 0.68225 0.00925
 C2440 C 0.73376 0.68963 0.01673
 C2441 C 0.74087 0.68228 0.02890
 C2442 C 0.73606 0.66799 0.03356
 H2443 H 0.69036 0.61904 0.02501
 H2444 H 0.68004 0.59535 0.03483
 H2445 H 0.71507 0.59440 0.06882
 H2446 H 0.72522 0.61809 0.05885
 H2447 H 0.70776 0.66254 0.00815
 H2448 H 0.71607 0.68756 -0.00012
 H2449 H 0.75004 0.68763 0.03495
 H2450 H 0.74157 0.66259 0.04305
 C2451 C 0.21074 0.63289 0.71028
 C2452 C 0.19840 0.63979 0.71726
 C2453 C 0.19245 0.65318 0.71141
 C2454 C 0.19877 0.65985 0.69844
 C2455 C 0.21133 0.65292 0.69164
 C2456 C 0.21725 0.63953 0.69752
 C2457 C 0.21634 0.61869 0.71585
 C2458 C 0.22079 0.60664 0.72033
 C2459 C 0.22580 0.59206 0.72544
 C2460 C 0.21829 0.58482 0.73728
 C2461 C 0.22258 0.57029 0.74170
 C2462 C 0.23445 0.56278 0.73429
 C2463 C 0.24210 0.57029 0.72256
 C2464 C 0.23779 0.58482 0.71817
 H2465 H 0.19325 0.63472 0.72712
 H2466 H 0.18279 0.65819 0.71695
 H2467 H 0.21649 0.65772 0.68166
 H2468 H 0.22679 0.63425 0.69200
 H2469 H 0.20897 0.59031 0.74295
 H2470 H 0.21642 0.56487 0.75075
 H2471 H 0.25127 0.56486 0.71659
 H2472 H 0.24364 0.59031 0.70895
 C2473 C 0.21098 0.13266 0.20956
 C2474 C 0.21748 0.13930 0.19682
 C2475 C 0.21158 0.15270 0.19094
 C2476 C 0.19897 0.15968 0.19771
 C2477 C 0.19270 0.15296 0.21072
 C2478 C 0.19865 0.13957 0.21655
 C2479 C 0.21657 0.11847 0.21513
 C2480 C 0.22102 0.10641 0.21961
 C2481 C 0.22602 0.09184 0.22473
 C2482 C 0.23797 0.08456 0.21745
 C2483 C 0.24229 0.07003 0.22186
 C2484 C 0.23467 0.06256 0.23363
 C2485 C 0.22283 0.07011 0.24106
 C2486 C 0.21854 0.08463 0.23662
 H2487 H 0.22702 0.13402 0.19130
 H2488 H 0.21682 0.15743 0.18096
 H2489 H 0.18305 0.15790 0.21635
 H2490 H 0.19351 0.13449 0.22642
 H2491 H 0.24381 0.09002 0.20820
 H2492 H 0.25143 0.06458 0.21588
 H2493 H 0.21669 0.06472 0.25015
 H2494 H 0.20924 0.09015 0.24230
 C2495 C 0.71089 1.13286 0.71030
 C2496 C 0.69855 1.13976 0.71729
 C2497 C 0.69261 1.15317 0.71146
 C2498 C 0.69893 1.15984 0.69849
 C2499 C 0.71149 1.15291 0.69168
 C2500 C 0.71740 1.13951 0.69755
 C2501 C 0.71648 1.11866 0.71585
 C2502 C 0.72093 1.10660 0.72031
 C2503 C 0.72595 1.09201 0.72539
 C2504 C 0.71843 1.08474 0.73721
 C2505 C 0.72273 1.07021 0.74161
 C2506 C 0.73462 1.06272 0.73420
 C2507 C 0.74228 1.07026 0.72249
 C2508 C 0.73794 1.08480 0.71812
 H2509 H 0.69340 1.13469 0.72714
 H2510 H 0.68296 1.15818 0.71700
 H2511 H 0.71665 1.15772 0.68171
 H2512 H 0.72694 1.13423 0.69202
 H2513 H 0.70910 1.09021 0.74289
 H2514 H 0.71658 1.06477 0.75065
 H2515 H 0.75145 1.06486 0.71653
 H2516 H 0.74381 1.09031 0.70892
 C2517 C 0.70970 0.63205 0.20948
 C2518 C 0.71628 0.63881 0.19682
 C2519 C 0.71018 0.65206 0.19082
 C2520 C 0.69736 0.65873 0.19740
 C2521 C 0.69097 0.65195 0.21027
 C2522 C 0.69710 0.63870 0.21624
 C2523 C 0.71552 0.61799 0.21516
 C2524 C 0.72018 0.60605 0.21971
 C2525 C 0.72545 0.59158 0.22487
 C2526 C 0.73725 0.58431 0.21733
 C2527 C 0.74178 0.56986 0.22176
 C2528 C 0.73452 0.56245 0.23380
 C2529 C 0.72285 0.57000 0.24149
 C2530 C 0.71835 0.58445 0.23703
 H2531 H 0.72602 0.63373 0.19148
 H2532 H 0.71541 0.65696 0.18093
 H2533 H 0.68111 0.65676 0.21563
 H2534 H 0.69189 0.63353 0.22602
 H2535 H 0.74279 0.58972 0.20787
 H2536 H 0.75078 0.56441 0.21557
 H2537 H 0.71699 0.56465 0.25078
 H2538 H 0.70916 0.58996 0.24292
 C2539 C 0.53888 0.11700 0.71051
 C2540 C 0.55133 0.11019 0.71741
 C2541 C 0.55715 0.09668 0.71169
 C2542 C 0.55060 0.08980 0.69894
 C2543 C 0.53793 0.09664 0.69222
 C2544 C 0.53214 0.11015 0.69797
 C2545 C 0.53338 0.13128 0.71595
 C2546 C 0.52898 0.14339 0.72032
 C2547 C 0.52398 0.15803 0.72531
 C2548 C 0.53123 0.16520 0.73737
 C2549 C 0.52691 0.17974 0.74172
 C2550 C 0.51527 0.18734 0.73403
 C2551 C 0.50789 0.17991 0.72206
 C2552 C 0.51224 0.16537 0.71774
 H2553 H 0.55666 0.11542 0.72710
 H2554 H 0.56689 0.09175 0.71715
 H2555 H 0.53259 0.09167 0.68242
 H2556 H 0.52251 0.11535 0.69252
 H2557 H 0.54036 0.15963 0.74328
 H2558 H 0.53285 0.18510 0.75097
 H2559 H 0.49891 0.18540 0.71587
 H2560 H 0.50658 0.15993 0.70835
 C2561 C 1.03923 0.11640 0.21072
 C2562 C 1.05173 0.10965 0.21760
 C2563 C 1.05754 0.09612 0.21193
 C2564 C 1.05093 0.08916 0.19925
 C2565 C 1.03822 0.09593 0.19256
 C2566 C 1.03243 0.10946 0.19826
 C2567 C 1.03375 0.13072 0.21608
 C2568 C 1.02937 0.14286 0.22038
 C2569 C 1.02442 0.15754 0.22527
 C2570 C 1.03165 0.16473 0.23733
 C2571 C 1.02738 0.17931 0.24160
 C2572 C 1.01580 0.18693 0.23383
 C2573 C 1.00845 0.17948 0.22185
 C2574 C 1.01275 0.16490 0.21762
 H2575 H 1.05710 0.11494 0.22723
 H2576 H 1.06732 0.09123 0.21737
 H2577 H 1.03284 0.09090 0.18281
 H2578 H 1.02278 0.11461 0.19283
 H2579 H 1.04073 0.15915 0.24331
 H2580 H 1.03330 0.18468 0.25085
 H2581 H 0.99951 0.18498 0.21560
 H2582 H 1.00710 0.15944 0.20823
 C2583 C 0.20888 0.61957 0.54090
 C2584 C 0.21575 0.61252 0.55325
 C2585 C 0.20992 0.59900 0.55892
 C2586 C 0.19708 0.59235 0.55233
 C2587 C 0.19037 0.59946 0.53980
 C2588 C 0.19623 0.61298 0.53415
 C2589 C 0.21453 0.63378 0.53544
 C2590 C 0.21908 0.64581 0.53100
 C2591 C 0.22430 0.66030 0.52584
 C2592 C 0.23626 0.66750 0.53321
 C2593 C 0.24096 0.68183 0.52857
 C2594 C 0.23372 0.68918 0.51647
 C2595 C 0.22180 0.68175 0.50904
 C2596 C 0.21714 0.66742 0.51370
 H2597 H 0.22553 0.61755 0.55858
 H2598 H 0.21539 0.59386 0.56856
 H2599 H 0.18049 0.59468 0.53443
 H2600 H 0.19080 0.61836 0.52460
 H2601 H 0.24186 0.66210 0.54265
 H2602 H 0.25013 0.68722 0.53458
 H2603 H 0.21595 0.68706 0.49972
 H2604 H 0.20784 0.66196 0.50795
 C2605 C 0.20901 0.11880 1.04120
 C2606 C 0.19659 0.11199 1.03425
 C2607 C 0.19093 0.09832 1.03976
 C2608 C 0.19763 0.09129 1.05234
 C2609 C 0.21025 0.09816 1.05913
 C2610 C 0.21587 0.11182 1.05359
 C2611 C 0.21447 0.13313 1.03586
 C2612 C 0.21889 0.14524 1.03150
 C2613 C 0.22398 0.15981 1.02642
 C2614 C 0.21657 0.16706 1.01452
 C2615 C 0.22120 0.18141 1.00986
 C2616 C 0.23333 0.18872 1.01707
 C2617 C 0.24077 0.18126 1.02897
 C2618 C 0.23611 0.16691 1.03360
 H2619 H 0.19118 0.11731 1.02466
 H2620 H 0.18122 0.09337 1.03425
 H2621 H 0.21570 0.09308 1.06881
 H2622 H 0.22549 0.11701 1.05907
 H2623 H 0.20714 0.16168 1.00891
 H2624 H 0.21518 0.18681 1.00070
 H2625 H 0.25011 0.18654 1.03481
 H2626 H 0.24190 0.16140 1.04286
 C2627 C 0.20894 0.71005 0.63102
 C2628 C 0.19649 0.71684 0.63793
 C2629 C 0.19093 0.71118 0.65157
 C2630 C 0.19776 0.69861 0.65849
 C2631 C 0.21039 0.69197 0.65152
 C2632 C 0.21592 0.69766 0.63789
 C2633 C 0.21430 0.71552 0.61671
 C2634 C 0.21867 0.71995 0.60461
 C2635 C 0.22375 0.72505 0.59005
 C2636 C 0.21635 0.73696 0.58279
 C2637 C 0.22096 0.74159 0.56843
 C2638 C 0.23306 0.73435 0.56111
 C2639 C 0.24050 0.72246 0.56859
 C2640 C 0.23587 0.71786 0.58295
 H2641 H 0.19099 0.72642 0.63270
 H2642 H 0.18121 0.71658 0.65660
 H2643 H 0.21594 0.68230 0.65652
 H2644 H 0.22556 0.69230 0.63262
 H2645 H 0.20693 0.74258 0.58817
 H2646 H 0.21494 0.75074 0.56301
 H2647 H 0.24982 0.71661 0.56331
 H2648 H 0.24165 0.70860 0.58846
 C2649 C 0.20939 0.20915 1.13142
 C2650 C 0.21629 0.19669 1.13820
 C2651 C 0.21074 0.19095 1.15181
 C2652 C 0.19811 0.19759 1.15887
 C2653 C 0.19140 0.21030 1.15198
 C2654 C 0.19700 0.21599 1.13837
 C2655 C 0.21476 0.21466 1.11712
 C2656 C 0.21914 0.21910 1.10503
 C2657 C 0.22422 0.22420 1.09047
 C2658 C 0.23627 0.21695 1.08333
 C2659 C 0.24088 0.22153 1.06896
 C2660 C 0.23348 0.23345 1.06150
 C2661 C 0.22145 0.24076 1.06885
 C2662 C 0.21686 0.23615 1.08323
 H2663 H 0.22589 0.19130 1.13290
 H2664 H 0.21630 0.18121 1.15666
 H2665 H 0.18172 0.21581 1.15697
 H2666 H 0.19157 0.22564 1.13320
 H2667 H 0.24202 0.20765 1.08882
 H2668 H 0.25015 0.21561 1.06364
 H2669 H 0.21546 0.24994 1.06345
 H2670 H 0.20748 0.24182 1.08864
 C2671 C 0.70933 0.54023 0.11768
 C2672 C 0.71606 0.55288 0.11105
 C2673 C 0.71006 0.55905 0.09782
 C2674 C 0.69719 0.55265 0.09105
 C2675 C 0.69064 0.53979 0.09770
 C2676 C 0.69667 0.53365 0.11093
 C2677 C 0.71506 0.53438 0.13171
 C2678 C 0.71968 0.52972 0.14363
 C2679 C 0.72496 0.52446 0.15807
 C2680 C 0.73690 0.53185 0.16527
 C2681 C 0.74145 0.52737 0.17970
 C2682 C 0.73408 0.51542 0.18716
 C2683 C 0.72227 0.50787 0.17967
 C2684 C 0.71774 0.51239 0.16524
 H2685 H 0.72584 0.55809 0.11621
 H2686 H 0.71540 0.56893 0.09302
 H2687 H 0.68075 0.53456 0.09281
 H2688 H 0.69135 0.52388 0.11600
 H2689 H 0.74253 0.54125 0.15984
 H2690 H 0.75057 0.53345 0.18511
 H2691 H 0.71633 0.49866 0.18505
 H2692 H 0.70845 0.50662 0.15978
 C2693 C 0.71059 1.03945 0.61716
 C2694 C 0.71722 1.05221 0.61066
 C2695 C 0.71145 1.05820 0.59725
 C2696 C 0.69890 1.05150 0.59017
 C2697 C 0.69246 1.03852 0.59670
 C2698 C 0.69826 1.03256 0.61011
 C2699 C 0.71605 1.03377 0.63137
 C2700 C 0.72043 1.02925 0.64343
 C2701 C 0.72545 1.02417 0.65802
 C2702 C 0.73748 1.03143 0.66519
 C2703 C 0.74184 1.02708 0.67972
 C2704 C 0.73418 1.01540 0.68731
 C2705 C 0.72225 1.00800 0.67986
 C2706 C 0.71792 1.01237 0.66533
 H2707 H 0.72675 1.05765 0.61605
 H2708 H 0.71670 1.06818 0.59255
 H2709 H 0.68281 1.03306 0.59157
 H2710 H 0.69301 1.02270 0.61507
 H2711 H 0.74336 1.04060 0.65965
 H2712 H 0.75105 1.03305 0.68509
 H2713 H 0.71609 0.99898 0.68535
 H2714 H 0.70856 1.00670 0.65989
 C2715 C 0.53953 0.21144 0.61718
 C2716 C 0.55232 0.21792 0.61063
 C2717 C 0.55820 0.21203 0.59722
 C2718 C 0.55136 0.19951 0.59020
 C2719 C 0.53834 0.19323 0.59677
 C2720 C 0.53249 0.19915 0.61017
 C2721 C 0.53397 0.21698 0.63139
 C2722 C 0.52950 0.22138 0.64347
 C2723 C 0.52440 0.22632 0.65807
 C2724 C 0.53163 0.23833 0.66536
 C2725 C 0.52726 0.24257 0.67991
 C2726 C 0.51560 0.23483 0.68741
 C2727 C 0.50823 0.22293 0.67985
 C2728 C 0.51262 0.21872 0.66530
 H2729 H 0.55788 0.22741 0.61598
 H2730 H 0.56822 0.21716 0.59249
 H2731 H 0.53277 0.18361 0.59168
 H2732 H 0.52260 0.19402 0.61517
 H2733 H 0.54080 0.24426 0.65988
 H2734 H 0.53320 0.25176 0.68537
 H2735 H 0.49922 0.21671 0.68526
 H2736 H 0.50698 0.20937 0.65977
 C2737 C 1.04046 0.21024 0.11713
 C2738 C 1.03350 0.19783 0.11030
 C2739 C 1.03934 0.19178 0.09695
 C2740 C 1.05233 0.19805 0.09021
 C2741 C 1.05906 0.21074 0.09711
 C2742 C 1.05317 0.21674 0.11047
 C2743 C 1.03488 0.21593 0.13129
 C2744 C 1.03039 0.22045 0.14331
 C2745 C 1.02525 0.22552 0.15786
 C2746 C 1.01337 0.21806 0.16506
 C2747 C 1.00892 0.22239 0.17956
 C2748 C 1.01634 0.23426 0.18710
 C2749 C 1.02810 0.24188 0.17963
 C2750 C 1.03253 0.23752 0.16512
 H2751 H 1.02366 0.19269 0.11539
 H2752 H 1.03374 0.18207 0.09206
 H2753 H 1.06901 0.21598 0.09236
 H2754 H 1.05866 0.22635 0.11569
 H2755 H 1.00768 0.20873 0.15955
 H2756 H 0.99983 0.21626 0.18495
 H2757 H 1.03408 0.25104 0.18508
 H2758 H 1.04177 0.24334 0.15967
 C2759 C 0.63245 0.21064 0.71070
 C2760 C 0.63950 0.19829 0.71758
 C2761 C 0.65290 0.19251 0.71164
 C2762 C 0.65944 0.19899 0.69869
 C2763 C 0.65237 0.21155 0.69199
 C2764 C 0.63896 0.21731 0.69796
 C2765 C 0.61826 0.21609 0.71636
 C2766 C 0.60622 0.22047 0.72087
 C2767 C 0.59165 0.22547 0.72596
 C2768 C 0.58436 0.21792 0.73775
 C2769 C 0.56986 0.22224 0.74213
 C2770 C 0.56241 0.23418 0.73474
 C2771 C 0.56997 0.24186 0.72306
 C2772 C 0.58448 0.23752 0.71871
 H2773 H 0.63453 0.19302 0.72743
 H2774 H 0.65802 0.18285 0.71710
 H2775 H 0.65707 0.21683 0.68203
 H2776 H 0.63358 0.22685 0.69252
 H2777 H 0.58980 0.20854 0.74341
 H2778 H 0.56439 0.21605 0.75114
 H2779 H 0.56461 0.25109 0.71711
 H2780 H 0.59000 0.24342 0.70954
 C2781 C 1.13304 0.21006 0.21043
 C2782 C 1.13959 0.21675 0.19772
 C2783 C 1.15296 0.21095 0.19173
 C2784 C 1.15997 0.19833 0.19837
 C2785 C 1.15340 0.19183 0.21130
 C2786 C 1.14002 0.19765 0.21726
 C2787 C 1.11887 0.21555 0.21610
 C2788 C 1.10684 0.21995 0.22061
 C2789 C 1.09228 0.22499 0.22569
 C2790 C 1.08512 0.23704 0.21842
 C2791 C 1.07062 0.24140 0.22276
 C2792 C 1.06305 0.23375 0.23444
 C2793 C 1.07047 0.22181 0.24186
 C2794 C 1.08498 0.21747 0.23749
 H2795 H 1.13425 0.22634 0.19233
 H2796 H 1.15769 0.21625 0.18179
 H2797 H 1.15847 0.18212 0.21671
 H2798 H 1.13503 0.19236 0.22709
 H2799 H 1.09066 0.24291 0.20924
 H2800 H 1.06527 0.25062 0.21678
 H2801 H 1.06500 0.21565 0.25088
 H2802 H 1.09041 0.20810 0.24317
 C2803 C 0.11983 0.70836 0.54131
 C2804 C 0.11319 0.69565 0.53469
 C2805 C 0.09967 0.68991 0.54040
 C2806 C 0.09260 0.69681 0.55285
 C2807 C 0.09930 0.70970 0.55931
 C2808 C 0.11282 0.71542 0.55357
 C2809 C 0.13402 0.71392 0.53577
 C2810 C 0.14602 0.71846 0.53129
 C2811 C 0.16046 0.72372 0.52612
 C2812 C 0.16753 0.71666 0.51390
 C2813 C 0.18179 0.72144 0.50918
 C2814 C 0.18918 0.73337 0.51666
 C2815 C 0.18189 0.74048 0.52886
 C2816 C 0.16764 0.73567 0.53355
 H2817 H 0.11853 0.69008 0.52521
 H2818 H 0.09484 0.67998 0.53514
 H2819 H 0.09419 0.71531 0.56888
 H2820 H 0.11788 0.72526 0.55879
 H2821 H 0.16209 0.70737 0.50810
 H2822 H 0.18706 0.71568 0.49978
 H2823 H 0.18725 0.74966 0.53491
 H2824 H 0.16227 0.74119 0.54305
 C2825 C 0.11918 0.20851 1.04052
 C2826 C 0.11227 0.19602 1.03375
 C2827 C 0.09866 0.19046 1.03944
 C2828 C 0.09179 0.19731 1.05203
 C2829 C 0.09876 0.20998 1.05863
 C2830 C 0.11236 0.21552 1.05291
 C2831 C 0.13346 0.21388 1.03501
 C2832 C 0.14554 0.21827 1.03057
 C2833 C 0.16007 0.22338 1.02547
 C2834 C 0.16733 0.21596 1.01357
 C2835 C 0.18167 0.22060 1.00895
 C2836 C 0.18896 0.23273 1.01620
 C2837 C 0.18147 0.24019 1.02808
 C2838 C 0.16714 0.23553 1.03267
 H2839 H 0.11746 0.19050 1.02416
 H2840 H 0.09363 0.18070 1.03406
 H2841 H 0.09381 0.21554 1.06832
 H2842 H 0.11764 0.22518 1.05825
 H2843 H 0.16197 0.20651 1.00795
 H2844 H 0.18709 0.21456 0.99982
 H2845 H 0.18674 0.24953 1.03394
 H2846 H 0.16163 0.24132 1.04192
 C2847 C 0.61801 0.54053 0.20978
 C2848 C 0.61128 0.53375 0.19720
 C2849 C 0.59805 0.53977 0.19109
 C2850 C 0.59137 0.55270 0.19749
 C2851 C 0.59812 0.55929 0.21029
 C2852 C 0.61135 0.55324 0.21637
 C2853 C 0.63204 0.53479 0.21556
 C2854 C 0.64396 0.53018 0.22017
 C2855 C 0.65841 0.52493 0.22537
 C2856 C 0.66552 0.51288 0.21806
 C2857 C 0.67995 0.50836 0.22249
 C2858 C 0.68749 0.51586 0.23431
 C2859 C 0.68009 0.52778 0.24179
 C2860 C 0.66566 0.53228 0.23732
 H2861 H 0.61636 0.52393 0.19199
 H2862 H 0.59318 0.53439 0.18126
 H2863 H 0.59330 0.56923 0.21551
 H2864 H 0.61649 0.55860 0.22609
 H2865 H 0.66002 0.50715 0.20876
 H2866 H 0.68528 0.49915 0.21647
 H2867 H 0.68554 0.53382 0.25091
 H2868 H 0.66027 0.54165 0.24303
 C2869 C 0.61718 1.03906 0.71085
 C2870 C 0.61044 1.03220 0.69833
 C2871 C 0.59694 1.03789 0.69249
 C2872 C 0.59001 1.05057 0.69911
 C2873 C 0.59679 1.05724 0.71186
 C2874 C 0.61028 1.05152 0.71766
 C2875 C 0.63146 1.03366 0.71638
 C2876 C 0.64356 1.02934 0.72080
 C2877 C 0.65818 1.02443 0.72583
 C2878 C 0.66538 1.01238 0.71859
 C2879 C 0.67992 1.00810 0.72293
 C2880 C 0.68748 1.01585 0.73457
 C2881 C 0.68003 1.02780 0.74193
 C2882 C 0.66549 1.03205 0.73757
 H2883 H 0.61571 1.02256 0.69295
 H2884 H 0.59205 1.03246 0.68269
 H2885 H 0.59178 1.06700 0.71725
 H2886 H 0.61543 1.05694 0.72734
 H2887 H 0.65984 1.00643 0.70945
 H2888 H 0.68530 0.99887 0.71699
 H2889 H 0.68549 1.03404 0.75092
 H2890 H 0.66003 1.04143 0.74322
 C2891 C 0.88011 0.45805 0.29167
 C2892 C 0.88675 0.44542 0.28492
 C2893 C 0.90026 0.43960 0.29059
 C2894 C 0.90732 0.44634 0.30314
 C2895 C 0.90062 0.45916 0.30974
 C2896 C 0.88711 0.46495 0.30404
 C2897 C 0.86594 0.46369 0.28615
 C2898 C 0.85396 0.46825 0.28163
 C2899 C 0.83954 0.47350 0.27636
 C2900 C 0.83236 0.46615 0.26436
 C2901 C 0.81812 0.47090 0.25955
 C2902 C 0.81085 0.48310 0.26669
 C2903 C 0.81825 0.49050 0.27867
 C2904 C 0.83249 0.48572 0.28345
 H2905 H 0.88141 0.43998 0.27535
 H2906 H 0.90508 0.42974 0.28522
 H2907 H 0.90572 0.46465 0.31940
 H2908 H 0.88205 0.47473 0.30937
 H2909 H 0.83770 0.45665 0.25882
 H2910 H 0.81276 0.46490 0.25034
 H2911 H 0.81299 0.49989 0.28446
 H2912 H 0.83793 0.49146 0.29278
 C2913 C 0.87996 0.95885 0.79256
 C2914 C 0.88670 0.96545 0.80523
 C2915 C 0.90005 0.95949 0.81111
 C2916 C 0.90685 0.94678 0.80439
 C2917 C 0.90006 0.94034 0.79154
 C2918 C 0.88671 0.94633 0.78569
 C2919 C 0.86591 0.96462 0.78689
 C2920 C 0.85401 0.96928 0.78226
 C2921 C 0.83966 0.97462 0.77691
 C2922 C 0.83242 0.98658 0.78425
 C2923 C 0.81819 0.99136 0.77944
 C2924 C 0.81099 0.98422 0.76719
 C2925 C 0.81847 0.97231 0.75978
 C2926 C 0.83269 0.96756 0.76462
 H2927 H 0.88155 0.97513 0.81065
 H2928 H 0.90495 0.96475 0.82100
 H2929 H 0.90497 0.93057 0.78607
 H2930 H 0.88157 0.94111 0.77589
 H2931 H 0.83770 0.99209 0.79381
 H2932 H 0.81277 1.00052 0.78545
 H2933 H 0.81327 0.96652 0.75035
 H2934 H 0.83818 0.95826 0.75888
 C2935 C 0.36953 0.29136 0.79171
 C2936 C 0.36248 0.28441 0.80400
 C2937 C 0.34894 0.29017 0.80964
 C2938 C 0.34226 0.30300 0.80305
 C2939 C 0.34936 0.30980 0.79058
 C2940 C 0.36291 0.30401 0.78496
 C2941 C 0.38374 0.28576 0.78625
 C2942 C 0.39575 0.28123 0.78179
 C2943 C 0.41021 0.27603 0.77659
 C2944 C 0.41729 0.26385 0.78371
 C2945 C 0.43155 0.25912 0.77898
 C2946 C 0.43895 0.26653 0.76702
 C2947 C 0.43164 0.27869 0.75985
 C2948 C 0.41738 0.28340 0.76461
 H2949 H 0.36753 0.27463 0.80932
 H2950 H 0.34379 0.28464 0.81924
 H2951 H 0.34456 0.31967 0.78522
 H2952 H 0.36829 0.30949 0.77545
 H2953 H 0.41184 0.25810 0.79303
 H2954 H 0.43684 0.24975 0.78479
 H2955 H 0.43699 0.28469 0.75065
 H2956 H 0.41202 0.29287 0.75904
 C2957 C 0.87025 0.29121 0.29136
 C2958 C 0.86320 0.28428 0.30366
 C2959 C 0.84967 0.29005 0.30931
 C2960 C 0.84300 0.30289 0.30273
 C2961 C 0.85011 0.30968 0.29024
 C2962 C 0.86364 0.30387 0.28462
 C2963 C 0.88444 0.28559 0.28589
 C2964 C 0.89644 0.28104 0.28141
 C2965 C 0.91088 0.27581 0.27619
 C2966 C 0.91793 0.26361 0.28330
 C2967 C 0.93219 0.25885 0.27856
 C2968 C 0.93960 0.26626 0.26661
 C2969 C 0.93232 0.27844 0.25945
 C2970 C 0.91807 0.28317 0.26422
 H2971 H 0.86824 0.27448 0.30898
 H2972 H 0.84453 0.28454 0.31893
 H2973 H 0.84531 0.31955 0.28489
 H2974 H 0.86901 0.30934 0.27510
 H2975 H 0.91248 0.25786 0.29261
 H2976 H 0.93745 0.24946 0.28436
 H2977 H 0.93768 0.28444 0.25026
 H2978 H 0.91272 0.29266 0.25867
 C2979 C 0.38255 0.78990 0.46050
 C2980 C 0.38955 0.78305 0.44812
 C2981 C 0.40293 0.78902 0.44230
 C2982 C 0.40948 0.80197 0.44879
 C2983 C 0.40245 0.80863 0.46139
 C2984 C 0.38907 0.80264 0.46718
 C2985 C 0.36838 0.78421 0.46599
 C2986 C 0.35635 0.77968 0.47040
 C2987 C 0.34181 0.77458 0.47544
 C2988 C 0.33451 0.76276 0.46792
 C2989 C 0.32002 0.75836 0.47227
 C2990 C 0.31259 0.76577 0.48421
 C2991 C 0.32016 0.77747 0.49187
 C2992 C 0.33465 0.78184 0.48749
 H2993 H 0.38457 0.77320 0.44284
 H2994 H 0.40802 0.78359 0.43261
 H2995 H 0.40717 0.81860 0.46669
 H2996 H 0.38372 0.80805 0.47675
 H2997 H 0.33994 0.75709 0.45854
 H2998 H 0.31455 0.74933 0.46610
 H2999 H 0.31481 0.78344 0.50110
 H3000 H 0.34018 0.79104 0.49337
 C3001 C 0.38232 0.28934 0.96038
 C3002 C 0.38899 0.28272 0.94769
 C3003 C 0.40235 0.28864 0.94180
 C3004 C 0.40922 0.30131 0.94851
 C3005 C 0.40252 0.30774 0.96140
 C3006 C 0.38916 0.30180 0.96727
 C3007 C 0.36817 0.28371 0.96597
 C3008 C 0.35615 0.27920 0.97044
 C3009 C 0.34163 0.27408 0.97553
 C3010 C 0.33432 0.26228 0.96798
 C3011 C 0.31985 0.25784 0.97236
 C3012 C 0.31245 0.26519 0.98436
 C3013 C 0.32003 0.27688 0.99204
 C3014 C 0.33450 0.28128 0.98763
 H3015 H 0.38376 0.27309 0.94225
 H3016 H 0.40719 0.28339 0.93188
 H3017 H 0.40749 0.31749 0.96687
 H3018 H 0.38406 0.30703 0.97708
 H3019 H 0.33972 0.25665 0.95857
 H3020 H 0.31438 0.24883 0.96618
 H3021 H 0.31470 0.28280 1.00130
 H3022 H 0.34004 0.29046 0.99352
 C3023 C 0.79006 0.45929 0.38103
 C3024 C 0.80244 0.46626 0.38790
 C3025 C 0.80809 0.46073 0.40156
 C3026 C 0.80141 0.44812 0.40854
 C3027 C 0.78884 0.44131 0.40163
 C3028 C 0.78322 0.44686 0.38796
 C3029 C 0.78464 0.46463 0.36668
 C3030 C 0.78027 0.46898 0.35455
 C3031 C 0.77527 0.47404 0.33995
 C3032 C 0.78254 0.48611 0.33283
 C3033 C 0.77804 0.49071 0.31843
 C3034 C 0.76616 0.48328 0.31092
 C3035 C 0.75883 0.47124 0.31825
 C3036 C 0.76337 0.46666 0.33266
 H3037 H 0.80783 0.47588 0.38261
 H3038 H 0.81777 0.46626 0.40655
 H3039 H 0.78341 0.43159 0.40667
 H3040 H 0.77363 0.44137 0.38273
 H3041 H 0.79180 0.49187 0.33837
 H3042 H 0.78396 0.49999 0.31313
 H3043 H 0.74969 0.46523 0.31281
 H3044 H 0.75769 0.45727 0.33805
 C3045 C 0.79225 0.95837 0.88023
 C3046 C 0.80496 0.96505 0.88677
 C3047 C 0.81084 0.95939 0.90027
 C3048 C 0.80408 0.94691 0.90742
 C3049 C 0.79119 0.94038 0.90082
 C3050 C 0.78533 0.94607 0.88732
 C3051 C 0.78653 0.96388 0.86606
 C3052 C 0.78190 0.96837 0.85408
 C3053 C 0.77658 0.97362 0.83965
 C3054 C 0.78381 0.98567 0.83247
 C3055 C 0.77900 0.99046 0.81823
 C3056 C 0.76687 0.98323 0.81094
 C3057 C 0.75958 0.97120 0.81834
 C3058 C 0.76442 0.96644 0.83260
 H3059 H 0.81041 0.97457 0.88136
 H3060 H 0.82076 0.96470 0.90502
 H3061 H 0.78568 0.93078 0.90600
 H3062 H 0.77550 0.94080 0.88234
 H3063 H 0.79327 0.99128 0.83782
 H3064 H 0.78491 0.99971 0.81287
 H3065 H 0.75024 0.96535 0.81307
 H3066 H 0.75877 0.95707 0.83804
 C3067 C 0.28920 0.79046 0.36739
 C3068 C 0.30153 0.78348 0.36046
 C3069 C 0.30743 0.78933 0.34705
 C3070 C 0.30108 0.80229 0.34039
 C3071 C 0.28853 0.80909 0.34735
 C3072 C 0.28266 0.80321 0.36076
 C3073 C 0.28363 0.78489 0.38159
 C3074 C 0.27919 0.78042 0.39364
 C3075 C 0.27414 0.77533 0.40822
 C3076 C 0.28139 0.76326 0.41534
 C3077 C 0.27705 0.75884 0.42986
 C3078 C 0.26539 0.76648 0.43746
 C3079 C 0.25800 0.77846 0.43007
 C3080 C 0.26237 0.78284 0.41556
 H3081 H 0.30671 0.77363 0.36552
 H3082 H 0.31708 0.78380 0.34201
 H3083 H 0.28335 0.81906 0.34255
 H3084 H 0.27313 0.80872 0.36606
 H3085 H 0.29055 0.75739 0.40978
 H3086 H 0.28300 0.74959 0.43519
 H3087 H 0.24900 0.78461 0.43557
 H3088 H 0.25671 0.79224 0.41015
 C3089 C 0.28971 0.29022 0.86808
 C3090 C 0.30236 0.28352 0.86146
 C3091 C 0.30846 0.28951 0.84821
 C3092 C 0.30200 0.30233 0.84140
 C3093 C 0.28913 0.30884 0.84804
 C3094 C 0.28305 0.30283 0.86130
 C3095 C 0.28393 0.28452 0.88215
 C3096 C 0.27934 0.27994 0.89410
 C3097 C 0.27417 0.27471 0.90858
 C3098 C 0.28157 0.26276 0.91577
 C3099 C 0.27718 0.25826 0.93023
 C3100 C 0.26532 0.26568 0.93774
 C3101 C 0.25776 0.27751 0.93028
 C3102 C 0.26218 0.28199 0.91581
 H3103 H 0.30762 0.27378 0.86665
 H3104 H 0.31835 0.28419 0.84342
 H3105 H 0.28385 0.31870 0.84312
 H3106 H 0.27327 0.30813 0.86636
 H3107 H 0.29090 0.25709 0.91029
 H3108 H 0.28327 0.24913 0.93562
 H3109 H 0.24860 0.28349 0.93570
 H3110 H 0.25641 0.29129 0.91036
 C3111 C 0.45938 0.29067 0.88121
 C3112 C 0.46617 0.30318 0.88807
 C3113 C 0.46052 0.30883 0.90168
 C3114 C 0.44795 0.30205 0.90861
 C3115 C 0.44132 0.28936 0.90170
 C3116 C 0.44700 0.28373 0.88809
 C3117 C 0.46484 0.28523 0.86692
 C3118 C 0.46926 0.28081 0.85483
 C3119 C 0.47435 0.27569 0.84028
 C3120 C 0.48630 0.28302 0.83306
 C3121 C 0.49090 0.27841 0.81868
 C3122 C 0.48358 0.26637 0.81131
 C3123 C 0.47166 0.25898 0.81876
 C3124 C 0.46708 0.26362 0.83313
 H3125 H 0.47575 0.30865 0.88283
 H3126 H 0.46592 0.31860 0.90667
 H3127 H 0.43164 0.28384 0.90670
 H3128 H 0.44164 0.27406 0.88286
 H3129 H 0.49197 0.29241 0.83848
 H3130 H 0.50009 0.28439 0.81330
 H3131 H 0.46574 0.24971 0.81343
 H3132 H 0.45779 0.25789 0.83860
 C3133 C 0.95999 0.29001 0.38094
 C3134 C 0.94758 0.28304 0.38774
 C3135 C 0.94188 0.28857 0.40137
 C3136 C 0.94852 0.30120 0.40839
 C3137 C 0.96112 0.30801 0.40153
 C3138 C 0.96679 0.30244 0.38790
 C3139 C 0.96547 0.28465 0.36661
 C3140 C 0.96990 0.28030 0.35451
 C3141 C 0.97498 0.27524 0.33993
 C3142 C 0.96775 0.26316 0.33277
 C3143 C 0.97232 0.25856 0.31839
 C3144 C 0.98420 0.26601 0.31094
 C3145 C 0.99149 0.27807 0.31831
 C3146 C 0.98689 0.28264 0.33270
 H3147 H 0.94221 0.27341 0.38243
 H3148 H 0.93219 0.28304 0.40631
 H3149 H 0.96653 0.31773 0.40660
 H3150 H 0.97640 0.30794 0.38271
 H3151 H 0.95849 0.25738 0.33825
 H3152 H 0.96643 0.24927 0.31306
 H3153 H 1.00064 0.28409 0.31292
 H3154 H 0.99254 0.29204 0.33813
 C3155 C 0.45792 0.38051 0.79087
 C3156 C 0.44523 0.38721 0.78431
 C3157 C 0.43953 0.40074 0.79010
 C3158 C 0.44646 0.40776 0.80257
 C3159 C 0.45933 0.40101 0.80897
 C3160 C 0.46500 0.38748 0.80315
 C3161 C 0.46343 0.36630 0.78527
 C3162 C 0.46792 0.35427 0.78076
 C3163 C 0.47314 0.33979 0.77557
 C3164 C 0.46581 0.33253 0.76362
 C3165 C 0.47052 0.31822 0.75892
 C3166 C 0.48266 0.31096 0.76615
 C3167 C 0.49005 0.31845 0.77807
 C3168 C 0.48531 0.33276 0.78274
 H3169 H 0.43964 0.38190 0.77481
 H3170 H 0.42962 0.40561 0.78489
 H3171 H 0.46496 0.40608 0.81856
 H3172 H 0.47482 0.38237 0.80833
 H3173 H 0.45634 0.33786 0.75802
 H3174 H 0.46454 0.31279 0.74975
 H3175 H 0.49941 0.31320 0.78392
 H3176 H 0.49104 0.33827 0.79203
 C3177 C 0.95829 0.37992 0.29091
 C3178 C 0.94558 0.38659 0.28436
 C3179 C 0.93980 0.40006 0.29021
 C3180 C 0.94666 0.40704 0.30274
 C3181 C 0.95955 0.40032 0.30913
 C3182 C 0.96530 0.38685 0.30325
 C3183 C 0.96388 0.36576 0.28523
 C3184 C 0.96843 0.35379 0.28064
 C3185 C 0.97370 0.33936 0.27537
 C3186 C 0.96637 0.33212 0.26340
 C3187 C 0.97113 0.31784 0.25863
 C3188 C 0.98331 0.31059 0.26581
 C3189 C 0.99070 0.31806 0.27774
 C3190 C 0.98592 0.33234 0.28247
 H3191 H 0.94005 0.38130 0.27481
 H3192 H 0.92988 0.40490 0.28499
 H3193 H 0.96513 0.40537 0.31876
 H3194 H 0.97513 0.38176 0.30842
 H3195 H 0.95687 0.33743 0.25784
 H3196 H 0.96514 0.31242 0.24946
 H3197 H 1.00008 0.31283 0.28356
 H3198 H 0.99165 0.33783 0.29178
 C3199 C 0.29065 0.88252 0.46020
 C3200 C 0.28396 0.88918 0.44754
 C3201 C 0.29004 0.90236 0.44136
 C3202 C 0.30295 0.90905 0.44775
 C3203 C 0.30945 0.90238 0.46063
 C3204 C 0.30334 0.88920 0.46679
 C3205 C 0.28488 0.86851 0.46603
 C3206 C 0.28025 0.85659 0.47067
 C3207 C 0.27497 0.84214 0.47588
 C3208 C 0.26302 0.83497 0.46847
 C3209 C 0.25850 0.82052 0.47288
 C3210 C 0.26590 0.81300 0.48477
 C3211 C 0.27771 0.82046 0.49234
 C3212 C 0.28222 0.83492 0.48790
 H3213 H 0.27415 0.88407 0.44233
 H3214 H 0.28473 0.90718 0.43147
 H3215 H 0.31937 0.90722 0.46586
 H3216 H 0.30864 0.88411 0.47656
 H3217 H 0.25737 0.84045 0.45911
 H3218 H 0.24938 0.81514 0.46678
 H3219 H 0.28368 0.81503 0.50152
 H3220 H 0.29152 0.84035 0.49368
 C3221 C 0.29002 0.38230 0.96072
 C3222 C 0.28336 0.38884 0.94799
 C3223 C 0.28922 0.40219 0.94194
 C3224 C 0.30186 0.40917 0.94854
 C3225 C 0.30833 0.40261 0.96149
 C3226 C 0.30245 0.38926 0.96751
 C3227 C 0.28445 0.36816 0.96646
 C3228 C 0.27997 0.35616 0.97103
 C3229 C 0.27484 0.34163 0.97617
 C3230 C 0.26278 0.33450 0.96891
 C3231 C 0.25833 0.32001 0.97330
 C3232 C 0.26592 0.31242 0.98502
 C3233 C 0.27787 0.31982 0.99243
 C3234 C 0.28230 0.33432 0.98801
 H3235 H 0.27375 0.38352 0.94261
 H3236 H 0.28393 0.40691 0.93198
 H3237 H 0.31806 0.40766 0.96688
 H3238 H 0.30772 0.38427 0.97736
 H3239 H 0.25696 0.34004 0.95970
 H3240 H 0.24910 0.31467 0.96733
 H3241 H 0.28399 0.31434 1.00148
 H3242 H 0.29169 0.33972 0.99368
 C3243 C 0.79208 0.36938 0.29054
 C3244 C 0.78503 0.36241 0.30282
 C3245 C 0.79076 0.34892 0.30867
 C3246 C 0.80366 0.34221 0.30231
 C3247 C 0.81056 0.34923 0.28983
 C3248 C 0.80481 0.36272 0.28401
 C3249 C 0.78651 0.38355 0.28490
 C3250 C 0.78197 0.39554 0.28034
 C3251 C 0.77671 0.40999 0.27510
 C3252 C 0.76449 0.41699 0.28221
 C3253 C 0.75972 0.43128 0.27752
 C3254 C 0.76713 0.43879 0.26563
 C3255 C 0.77931 0.43155 0.25845
 C3256 C 0.78406 0.41726 0.26317
 H3257 H 0.77518 0.36748 0.30797
 H3258 H 0.78515 0.34385 0.31826
 H3259 H 0.82050 0.34440 0.28464
 H3260 H 0.81037 0.36804 0.27451
 H3261 H 0.75875 0.41148 0.29148
 H3262 H 0.75034 0.43651 0.28332
 H3263 H 0.78532 0.43700 0.24931
 H3264 H 0.79356 0.41196 0.25762
   
