data_POSCAR
  _audit_creation_date              2014-09-24
  _audit_creation_method            'ToBaCCo'
  _symmetry_space_group_name_H-M    'P1'
  _symmetry_Int_Tables_number       1
  _symmetry_cell_setting            triclinic
  loop_
  _symmetry_equiv_pos_as_xyz
 x,y,z
_cell_length_a 60.0371
_cell_length_b 60.0413
_cell_length_c 52.3780
_cell_angle_alpha 88.960400
_cell_angle_beta 92.248300
_cell_angle_gamma 90.171500
loop_
  _atom_site_label
  _atom_site_type_symbol
  _atom_site_fract_x
  _atom_site_fract_y
  _atom_site_fract_z
C1 C 0.33790 -0.00965 0.23343
 C2 C 0.34764 0.01093 0.22738
 C3 C 0.36475 0.01192 0.21003
 C4 C 0.37239 -0.00755 0.19878
 C5 C 0.36362 -0.02823 0.20635
 C6 C 0.34617 -0.02956 0.22360
 C7 C 0.34233 0.03065 0.24228
 C8 C 0.35648 0.03599 0.26322
 C9 C 0.35017 0.05195 0.28085
 C10 C 0.33002 0.06339 0.27619
 C11 C 0.31653 0.05941 0.25427
 C12 C 0.32255 0.04272 0.23742
 H13 H 0.32516 -0.01021 0.24754
 H14 H 0.37223 0.02789 0.20550
 H15 H 0.37146 0.02622 0.26692
 H16 H 0.31181 0.03893 0.22094
 H17 H 0.36936 -0.04318 0.19741
 H18 H 0.32530 0.07639 0.28901
 C19 C 0.16935 -0.04846 0.73576
 C20 C 0.15703 -0.02869 0.73712
 C21 C 0.14283 -0.02568 0.75735
 C22 C 0.14136 -0.04165 0.77718
 C23 C 0.15477 -0.06073 0.77627
 C24 C 0.16775 -0.06487 0.75508
 C25 C 0.15645 -0.01189 0.71624
 C26 C 0.13845 -0.01182 0.69846
 C27 C 0.13451 0.00628 0.68114
 C28 C 0.14966 0.02437 0.68235
 C29 C 0.16751 0.02464 0.70060
 C30 C 0.17089 0.00634 0.71732
 H31 H 0.17903 -0.05154 0.71916
 H32 H 0.13220 -0.01114 0.75669
 H33 H 0.12658 -0.02531 0.70005
 H34 H 0.18417 0.00671 0.73194
 H35 H 0.15452 -0.07313 0.79149
 H36 H 0.14769 0.03857 0.66949
 C37 C 0.65647 0.49511 0.28363
 C38 C 0.64730 0.51567 0.29004
 C39 C 0.63255 0.51681 0.31002
 C40 C 0.62654 0.49744 0.32350
 C41 C 0.63641 0.47718 0.31758
 C42 C 0.65083 0.47569 0.29722
 C43 C 0.64943 0.53501 0.27279
 C44 C 0.63540 0.53650 0.25083
 C45 C 0.63705 0.55462 0.23385
 C46 C 0.65295 0.57120 0.23881
 C47 C 0.66667 0.57017 0.26115
 C48 C 0.66476 0.55209 0.27829
 H49 H 0.66671 0.49408 0.26712
 H50 H 0.62472 0.53256 0.31394
 H51 H 0.62338 0.52339 0.24679
 H52 H 0.67534 0.55113 0.29552
 H53 H 0.63150 0.46209 0.32754
 H54 H 0.65431 0.58517 0.22554
 C55 C 0.83770 0.47225 0.75405
 C56 C 0.84660 0.49172 0.74322
 C57 C 0.85402 0.49158 0.71817
 C58 C 0.85369 0.47171 0.70445
 C59 C 0.84523 0.45229 0.71560
 C60 C 0.83716 0.45249 0.74035
 C61 C 0.85238 0.51049 0.75986
 C62 C 0.86761 0.50678 0.78035
 C63 C 0.87418 0.52400 0.79694
 C64 C 0.86484 0.54527 0.79227
 C65 C 0.84922 0.54909 0.77190
 C66 C 0.84338 0.53169 0.75539
 H67 H 0.83269 0.47211 0.77372
 H68 H 0.86160 0.50640 0.71013
 H69 H 0.87513 0.49044 0.78228
 H70 H 0.83132 0.53440 0.73971
 H71 H 0.84534 0.43685 0.70518
 H72 H 0.86884 0.55881 0.80500
 C73 C 0.26588 0.38647 1.02653
 C74 C 0.27849 0.39120 1.00499
 C75 C 0.30063 0.39813 1.00825
 C76 C 0.31010 0.40126 1.03274
 C77 C 0.29733 0.39717 1.05415
 C78 C 0.27515 0.38915 1.05153
 C79 C 0.26848 0.38951 0.97892
 C80 C 0.25018 0.40279 0.97145
 C81 C 0.24033 0.40125 0.94683
 C82 C 0.24888 0.38623 0.92954
 C83 C 0.26707 0.37256 0.93695
 C84 C 0.27698 0.37447 0.96157
 H85 H 0.24871 0.38123 1.02355
 H86 H 0.31043 0.40147 0.99164
 H87 H 0.24314 0.41391 0.98507
 H88 H 0.29080 0.36377 0.96751
 H89 H 0.30555 0.39862 1.07281
 H90 H 0.24045 0.38409 0.91106
 C91 C 0.76187 0.11201 1.05214
 C92 C 0.76203 0.09558 1.03359
 C93 C 0.74907 0.07641 1.03636
 C94 C 0.73397 0.07452 1.05601
 C95 C 0.73364 0.09114 1.07447
 C96 C 0.74754 0.11013 1.07277
 C97 C 0.77155 0.10012 1.00859
 C98 C 0.78840 0.08647 1.00003
 C99 C 0.79473 0.08775 0.97449
 C100 C 0.78369 0.10291 0.95761
 C101 C 0.76710 0.11707 0.96617
 C102 C 0.76125 0.11575 0.99180
 H103 H 0.77130 0.12717 1.04899
 H104 H 0.74887 0.06411 1.02144
 H105 H 0.79641 0.07484 1.01348
 H106 H 0.74785 0.12600 0.99833
 H107 H 0.72182 0.08963 1.08949
 H108 H 0.78798 0.10382 0.93772
 C109 C 0.23250 0.61438 0.53229
 C110 C 0.22009 0.60727 0.51070
 C111 C 0.19905 0.59772 0.51346
 C112 C 0.19037 0.59472 0.53779
 C113 C 0.20279 0.60214 0.55930
 C114 C 0.22392 0.61199 0.55672
 C115 C 0.22949 0.60912 0.48526
 C116 C 0.24865 0.59705 0.48003
 C117 C 0.25888 0.60001 0.45665
 C118 C 0.24957 0.61483 0.43823
 C119 C 0.23033 0.62696 0.44329
 C120 C 0.22026 0.62398 0.46682
 H121 H 0.24892 0.62154 0.53004
 H122 H 0.18960 0.59231 0.49663
 H123 H 0.25626 0.58624 0.49470
 H124 H 0.20583 0.63382 0.47116
 H125 H 0.19612 0.59998 0.57810
 H126 H 0.25808 0.61796 0.42064
 C127 C 0.72215 0.87596 0.54119
 C128 C 0.72736 0.88769 0.51901
 C129 C 0.74475 0.90314 0.51960
 C130 C 0.75759 0.90700 0.54222
 C131 C 0.75152 0.89574 0.56485
 C132 C 0.73434 0.87968 0.56412
 C133 C 0.71582 0.88303 0.49447
 C134 C 0.69576 0.89381 0.48789
 C135 C 0.68639 0.89262 0.46296
 C136 C 0.69720 0.87999 0.44482
 C137 C 0.71734 0.86896 0.45136
 C138 C 0.72647 0.87043 0.47629
 H139 H 0.70930 0.86324 0.54038
 H140 H 0.74821 0.91214 0.50207
 H141 H 0.68787 0.90378 0.50202
 H142 H 0.74247 0.86283 0.48118
 H143 H 0.76160 0.89742 0.58232
 H144 H 0.69043 0.87944 0.42535
 C145 C -0.04566 0.24704 0.36367
 C146 C -0.02460 0.24190 0.37436
 C147 C -0.02076 0.22102 0.38589
 C148 C -0.03823 0.20537 0.38805
 C149 C -0.05943 0.21082 0.37688
 C150 C -0.06333 0.23153 0.36414
 C151 C -0.00711 0.25924 0.37496
 C152 C -0.01022 0.27839 0.38932
 C153 C 0.00606 0.29509 0.39036
 C154 C 0.02523 0.29295 0.37621
 C155 C 0.02849 0.27405 0.36117
 C156 C 0.01225 0.25705 0.36098
 H157 H -0.04766 0.26300 0.35390
 H158 H -0.00450 0.21780 0.39487
 H159 H -0.02516 0.28010 0.40009
 H160 H 0.01452 0.24221 0.34994
 H161 H -0.07289 0.19888 0.37815
 H162 H 0.03731 0.30639 0.37647
 C163 C -0.02474 0.74564 0.12156
 C164 C -0.00749 0.74492 0.10423
 C165 C -0.00581 0.76142 0.08518
 C166 C -0.02110 0.77889 0.08334
 C167 C -0.03814 0.77970 0.10085
 C168 C -0.04073 0.76294 0.11998
 C169 C 0.01015 0.72802 0.10687
 C170 C 0.01013 0.70970 0.09046
 C171 C 0.02927 0.69617 0.08904
 C172 C 0.04788 0.70121 0.10524
 C173 C 0.04808 0.71961 0.12124
 C174 C 0.02902 0.73274 0.12239
 H175 H -0.02574 0.73227 0.13558
 H176 H 0.00762 0.76074 0.07198
 H177 H -0.00414 0.70734 0.07751
 H178 H 0.02946 0.74763 0.13381
 H179 H -0.04856 0.79437 0.10007
 H180 H 0.06266 0.69091 0.10562
 C181 C 0.47136 0.25474 0.62686
 C182 C 0.49203 0.25884 0.61598
 C183 C 0.49682 0.28009 0.60589
 C184 C 0.48102 0.29719 0.60672
 C185 C 0.46044 0.29292 0.61752
 C186 C 0.45545 0.27177 0.62753
 C187 C 0.50863 0.24088 0.61511
 C188 C 0.50562 0.22358 0.59773
 C189 C 0.52163 0.20671 0.59651
 C190 C 0.54050 0.20698 0.61320
 C191 C 0.54333 0.22379 0.63149
 C192 C 0.52732 0.24086 0.63201
 H193 H 0.46759 0.23831 0.63446
 H194 H 0.51277 0.28332 0.59754
 H195 H 0.49095 0.22335 0.58500
 H196 H 0.52891 0.25387 0.64603
 H197 H 0.44821 0.30615 0.61806
 H198 H 0.55274 0.19384 0.61214
 C199 C 0.48939 0.73885 0.88445
 C200 C 0.51118 0.73596 0.89490
 C201 C 0.51766 0.71516 0.90538
 C202 C 0.50206 0.69780 0.90778
 C203 C 0.48024 0.70116 0.89776
 C204 C 0.47390 0.72125 0.88536
 C205 C 0.52658 0.75509 0.89796
 C206 C 0.52131 0.77220 0.91469
 C207 C 0.53717 0.78859 0.92126
 C208 C 0.55800 0.78819 0.91011
 C209 C 0.56350 0.77140 0.89316
 C210 C 0.54769 0.75478 0.88720
 H211 H 0.48439 0.75484 0.87623
 H212 H 0.53435 0.71327 0.91380
 H213 H 0.50533 0.77206 0.92362
 H214 H 0.55200 0.74126 0.87492
 H215 H 0.46835 0.68756 0.89845
 H216 H 0.57000 0.80122 0.91453
 C217 C -0.25189 0.57340 1.01935
 C218 C -0.23163 0.58504 1.02294
 C219 C -0.22905 0.60016 1.04292
 C220 C -0.24592 0.60306 1.06037
 C221 C -0.26512 0.58982 1.05779
 C222 C -0.26943 0.57659 1.03612
 C223 C -0.21521 0.58587 1.00271
 C224 C -0.21689 0.60316 0.98449
 C225 C -0.20067 0.60655 0.96587
 C226 C -0.18256 0.59143 0.96636
 C227 C -0.18024 0.57457 0.98532
 C228 C -0.19664 0.57185 1.00348
 H229 H -0.25450 0.56380 1.00219
 H230 H -0.21438 0.61070 1.04354
 H231 H -0.23043 0.61470 0.98655
 H232 H -0.19477 0.55915 1.01837
 H233 H -0.27729 0.59042 1.07244
 H234 H -0.16986 0.59249 0.95237
 C235 C -0.30425 0.42299 0.50461
 C236 C -0.28466 0.41069 0.50239
 C237 C -0.28234 0.39687 0.48152
 C238 C -0.29893 0.39578 0.46201
 C239 C -0.31803 0.40900 0.46363
 C240 C -0.32105 0.42269 0.48493
 C241 C -0.26567 0.41260 0.52089
 C242 C -0.26580 0.40084 0.54427
 C243 C -0.24596 0.39811 0.55908
 C244 C -0.22622 0.40777 0.55072
 C245 C -0.22599 0.41996 0.52761
 C246 C -0.24582 0.42247 0.51286
 H247 H -0.30561 0.43384 0.52078
 H248 H -0.26742 0.38684 0.48065
 H249 H -0.28091 0.39253 0.55003
 H250 H -0.24550 0.43069 0.49427
 H251 H -0.33080 0.40810 0.44852
 H252 H -0.21084 0.40535 0.56197
 C253 C 0.23053 -0.07792 -0.02380
 C254 C 0.24973 -0.09077 -0.02064
 C255 C 0.25262 -0.10937 -0.03584
 C256 C 0.23636 -0.11545 -0.05476
 C257 C 0.21710 -0.10205 -0.05772
 C258 C 0.21406 -0.08353 -0.04222
 C259 C 0.26615 -0.08584 -0.00003
 C260 C 0.26314 -0.09477 0.02451
 C261 C 0.27956 -0.09203 0.04418
 C262 C 0.29857 -0.07934 0.03875
 C263 C 0.30238 -0.07178 0.01377
 C264 C 0.28588 -0.07455 -0.00549
 H265 H 0.22832 -0.06374 -0.01165
 H266 H 0.26713 -0.11962 -0.03158
 H267 H 0.24807 -0.10414 0.02802
 H268 H 0.28898 -0.06936 -0.02496
 H269 H 0.20432 -0.10566 -0.07215
 H270 H 0.31207 -0.07789 0.05298
 C271 C 0.20438 1.06448 0.50055
 C272 C 0.22338 1.07808 0.50171
 C273 C 0.22798 1.09093 0.52334
 C274 C 0.21466 1.08953 0.54488
 C275 C 0.19653 1.07460 0.54399
 C276 C 0.19052 1.06302 0.52155
 C277 C 0.23866 1.07977 0.48038
 C278 C 0.23347 1.09369 0.45914
 C279 C 0.24983 1.09941 0.44131
 C280 C 0.27115 1.08968 0.44505
 C281 C 0.27659 1.07620 0.46657
 C282 C 0.26017 1.07104 0.48392
 H283 H 0.20013 1.05568 0.48315
 H284 H 0.24175 1.10253 0.52260
 H285 H 0.21677 1.10036 0.45721
 H286 H 0.26450 1.06156 0.50121
 H287 H 0.18645 1.07228 0.56046
 H288 H 0.28451 1.09413 0.43268
 C289 C 0.14622 0.51004 0.24233
 C290 C 0.15811 0.51881 0.26335
 C291 C 0.17084 0.53808 0.26044
 C292 C 0.17246 0.54854 0.23634
 C293 C 0.16049 0.53951 0.21520
 C294 C 0.14707 0.52038 0.21818
 C295 C 0.15643 0.50812 0.28860
 C296 C 0.16712 0.48781 0.29392
 C297 C 0.16260 0.47556 0.31615
 C298 C 0.14755 0.48405 0.33342
 C299 C 0.13700 0.50462 0.32826
 C300 C 0.14169 0.51664 0.30593
 H301 H 0.13623 0.49514 0.24487
 H302 H 0.17925 0.54503 0.27717
 H303 H 0.17761 0.48073 0.27977
 H304 H 0.13279 0.53196 0.30125
 H305 H 0.16142 0.54741 0.19652
 H306 H 0.14284 0.47397 0.34972
 C307 C -0.12779 1.02421 0.19275
 C308 C -0.14514 1.01979 0.20933
 C309 C -0.15756 1.00005 0.20707
 C310 C -0.15061 0.98316 0.19108
 C311 C -0.13188 0.98691 0.17639
 C312 C -0.12079 1.00754 0.17643
 C313 C -0.14604 1.03198 0.23333
 C314 C -0.15934 1.05096 0.23523
 C315 C -0.16132 1.06169 0.25896
 C316 C -0.14902 1.05254 0.28028
 C317 C -0.13686 1.03273 0.27877
 C318 C -0.13499 1.02283 0.25511
 H319 H -0.11815 1.03943 0.19472
 H320 H -0.17060 0.99667 0.22038
 H321 H -0.16877 1.05618 0.21822
 H322 H -0.12584 1.00738 0.25377
 H323 H -0.12642 0.97390 0.16396
 H324 H -0.14852 1.06051 0.29859
 C325 C 0.37743 0.48001 -0.27070
 C326 C 0.37003 0.46958 -0.24836
 C327 C 0.35941 0.44882 -0.24981
 C328 C 0.35504 0.43891 -0.27356
 C329 C 0.36165 0.45010 -0.29588
 C330 C 0.37290 0.47079 -0.29485
 C331 C 0.37058 0.48198 -0.22422
 C332 C 0.36296 0.50397 -0.22463
 C333 C 0.36198 0.51629 -0.20217
 C334 C 0.36868 0.50591 -0.17881
 C335 C 0.37752 0.48413 -0.17824
 C336 C 0.37793 0.47211 -0.20100
 H337 H 0.38514 0.49628 -0.26918
 H338 H 0.35390 0.44079 -0.23247
 H339 H 0.35666 0.51118 -0.24261
 H340 H 0.38428 0.45522 -0.20073
 H341 H 0.35817 0.44238 -0.31410
 H342 H 0.36885 0.51542 -0.16141
 C343 C 0.63547 0.00218 -0.30968
 C344 C 0.64598 0.01129 -0.28807
 C345 C 0.65591 0.03225 -0.28957
 C346 C 0.65596 0.04408 -0.31293
 C347 C 0.64565 0.03468 -0.33480
 C348 C 0.63493 0.01371 -0.33333
 C349 C 0.64726 -0.00178 -0.26416
 C350 C 0.66125 -0.02032 -0.26219
 C351 C 0.66175 -0.03420 -0.24027
 C352 C 0.64802 -0.02868 -0.22006
 C353 C 0.63431 -0.00960 -0.22165
 C354 C 0.63401 0.00371 -0.24391
 H355 H 0.62841 -0.01440 -0.30803
 H356 H 0.66368 0.03928 -0.27250
 H357 H 0.67190 -0.02364 -0.27789
 H358 H 0.62354 0.01839 -0.24552
 H359 H 0.64533 0.04417 -0.35259
 H360 H 0.64755 -0.03939 -0.20325
 C361 C -0.00297 0.21293 0.88040
 C362 C -0.00220 0.23529 0.87213
 C363 C -0.02110 0.24500 0.85976
 C364 C -0.04024 0.23204 0.85465
 C365 C -0.04063 0.20968 0.86275
 C366 C -0.02220 0.20007 0.87591
 C367 C 0.01896 0.24776 0.87498
 C368 C 0.03816 0.23934 0.86406
 C369 C 0.05860 0.25045 0.86700
 C370 C 0.05978 0.27008 0.88106
 C371 C 0.04061 0.27916 0.89149
 C372 C 0.02019 0.26779 0.88849
 H373 H 0.01160 0.20542 0.88989
 H374 H -0.02062 0.26222 0.85326
 H375 H 0.03719 0.22411 0.85327
 H376 H 0.00527 0.27458 0.89631
 H377 H -0.05558 0.19985 0.85920
 H378 H 0.07563 0.27864 0.88330
 C379 C 0.49248 0.20961 0.11367
 C380 C 0.48932 0.22869 0.12826
 C381 C 0.50519 0.23452 0.14738
 C382 C 0.52423 0.22148 0.15209
 C383 C 0.52737 0.20261 0.13731
 C384 C 0.51156 0.19624 0.11816
 C385 C 0.47062 0.24400 0.12248
 C386 C 0.45194 0.24393 0.13783
 C387 C 0.43650 0.26157 0.13607
 C388 C 0.44019 0.27929 0.11869
 C389 C 0.45880 0.27936 0.10324
 C390 C 0.47368 0.26147 0.10489
 H391 H 0.48006 0.20527 0.09904
 H392 H 0.50280 0.24939 0.15838
 H393 H 0.45020 0.23085 0.15215
 H394 H 0.48875 0.26211 0.09413
 H395 H 0.54267 0.19327 0.14038
 H396 H 0.42897 0.29341 0.11763
 C397 C 0.01087 0.71682 0.62652
 C398 C 0.01500 0.73753 0.63778
 C399 C 0.03513 0.74107 0.65169
 C400 C 0.05081 0.72380 0.65522
 C401 C 0.04618 0.70294 0.64439
 C402 C 0.02645 0.69948 0.62958
 C403 C -0.00227 0.75505 0.63615
 C404 C -0.02052 0.75356 0.65219
 C405 C -0.03678 0.77050 0.65198
 C406 C -0.03496 0.78793 0.63375
 C407 C -0.01640 0.79031 0.61827
 C408 C -0.00003 0.77359 0.61961
 H409 H -0.00465 0.71409 0.61573
 H410 H 0.03834 0.75711 0.66027
 H411 H -0.02106 0.73980 0.66580
 H412 H 0.01453 0.77500 0.60811
 H413 H 0.05827 0.68962 0.64674
 H414 H -0.04850 0.79968 0.63108
 C415 C 0.50705 0.72745 0.37051
 C416 C 0.50496 0.74762 0.35655
 C417 C 0.48411 0.75400 0.34570
 C418 C 0.46529 0.74063 0.34915
 C419 C 0.46758 0.72055 0.36302
 C420 C 0.48831 0.71371 0.37375
 C421 C 0.52346 0.76378 0.35653
 C422 C 0.54130 0.76168 0.34019
 C423 C 0.55760 0.77857 0.33892
 C424 C 0.55613 0.79712 0.35492
 C425 C 0.53826 0.79933 0.37113
 C426 C 0.52206 0.78254 0.37183
 H427 H 0.52304 0.72282 0.37931
 H428 H 0.48235 0.76993 0.33576
 H429 H 0.54186 0.74753 0.32770
 H430 H 0.50807 0.78417 0.38414
 H431 H 0.45288 0.71047 0.36607
 H432 H 0.56852 0.81025 0.35413
 B433 B -0.01565 -0.00646 0.98969
 B434 B -0.03154 -0.01282 0.96372
 B435 B -0.01185 0.00717 0.96195
 B436 B 0.01037 -0.00060 0.98069
 B437 B 0.00431 -0.02606 0.99377
 B438 B -0.02187 -0.03333 0.98346
 B439 B 0.00413 -0.03040 0.94193
 B440 B 0.02008 -0.02394 0.96797
 B441 B 0.00042 -0.04416 0.96972
 B442 B -0.02196 -0.03627 0.95102
 B443 B -0.01583 -0.01105 0.93790
 B444 B 0.01036 -0.00346 0.94842
 B445 B 0.45688 0.52261 0.51503
 B446 B 0.44381 0.51417 0.48776
 B447 B 0.46436 0.53331 0.48637
 B448 B 0.48415 0.52702 0.50916
 B449 B 0.47579 0.50329 0.52446
 B450 B 0.45054 0.49532 0.51121
 B451 B 0.48127 0.49339 0.47445
 B452 B 0.49446 0.50224 0.50136
 B453 B 0.47408 0.48283 0.50275
 B454 B 0.45408 0.48904 0.48005
 B455 B 0.46242 0.51269 0.46482
 B456 B 0.48750 0.52066 0.47789
 B457 B 0.50722 0.98745 0.49755
 B458 B 0.51632 0.99717 0.46913
 B459 B 0.49524 0.97845 0.47013
 B460 B 0.47920 0.98431 0.49486
 B461 B 0.49069 1.00691 0.50959
 B462 B 0.51391 1.01462 0.49387
 B463 B 0.47797 1.01946 0.46068
 B464 B 0.46873 1.01006 0.48887
 B465 B 0.49001 1.02843 0.48842
 B466 B 0.50586 1.02262 0.46342
 B467 B 0.49431 0.99991 0.44861
 B468 B 0.47114 0.99236 0.46454
 B469 B 0.04890 0.48086 1.01518
 B470 B 0.05827 0.48197 0.98521
 B471 B 0.03829 0.46339 0.99229
 B472 B 0.02125 0.47503 1.01339
 B473 B 0.03059 0.50163 1.01845
 B474 B 0.05378 0.50571 1.00099
 B475 B 0.01866 0.49848 0.96775
 B476 B 0.00907 0.49673 0.99760
 B477 B 0.02887 0.51563 0.99022
 B478 B 0.04630 0.50405 0.96944
 B479 B 0.03675 0.47782 0.96420
 B480 B 0.01372 0.47331 0.98170
 B481 B -0.00258 0.51618 0.48333
 B482 B 0.00808 0.50549 0.51125
 B483 B -0.01174 0.52542 0.51108
 B484 B -0.03012 0.52100 0.48617
 B485 B -0.02131 0.49787 0.47107
 B486 B 0.00251 0.48863 0.48645
 B487 B -0.03117 0.48551 0.51988
 B488 B -0.04180 0.49571 0.49188
 B489 B -0.02161 0.47613 0.49199
 B490 B -0.00363 0.48064 0.51693
 B491 B -0.01250 0.50361 0.53210
 B492 B -0.03625 0.51314 0.51647
 B493 B 0.53541 0.00655 -0.02202
 B494 B 0.54603 0.00501 0.00831
 B495 B 0.52720 0.02482 0.00020
 B496 B 0.50826 0.01418 -0.02118
 B497 B 0.51552 -0.01282 -0.02579
 B498 B 0.53914 -0.01853 -0.00747
 B499 B 0.50619 -0.00859 0.02467
 B500 B 0.49541 -0.00670 -0.00537
 B501 B 0.51430 -0.02671 0.00241
 B502 B 0.53328 -0.01610 0.02389
 B503 B 0.52587 0.01088 0.02857
 B504 B 0.50247 0.01665 0.01022
 B505 B 0.50653 0.47345 0.00091
 B506 B 0.49868 0.47879 0.03079
 B507 B 0.52078 0.46215 0.02648
 B508 B 0.53480 0.47197 0.00125
 B509 B 0.52118 0.49532 -0.01006
 B510 B 0.49859 0.49938 0.00826
 B511 B 0.53600 0.50295 0.03911
 B512 B 0.54413 0.49758 0.00948
 B513 B 0.52191 0.51415 0.01349
 B514 B 0.50791 0.50431 0.03874
 B515 B 0.52153 0.48120 0.05007
 B516 B 0.54409 0.47697 0.03184
 B517 B -0.04389 0.98812 0.48233
 B518 B -0.05851 0.99103 0.50902
 B519 B -0.03681 0.97330 0.50946
 B520 B -0.01665 0.98444 0.49128
 B521 B -0.02617 1.00962 0.48001
 B522 B -0.05236 1.01359 0.49097
 B523 B -0.02330 1.01142 0.53229
 B524 B -0.00848 1.00828 0.50586
 B525 B -0.03039 1.02608 0.50518
 B526 B -0.05048 1.01489 0.52344
 B527 B -0.04087 0.98989 0.53460
 B528 B -0.01479 0.98578 0.52369
 B529 B 0.73705 0.25294 0.22927
 B530 B 0.73387 0.23617 0.25517
 B531 B 0.75347 0.25638 0.25574
 B532 B 0.74321 0.27885 0.23911
 B533 B 0.71685 0.27223 0.22854
 B534 B 0.71129 0.24550 0.23851
 B535 B 0.71784 0.27066 0.28086
 B536 B 0.72081 0.28736 0.25506
 B537 B 0.70140 0.26693 0.25431
 B538 B 0.71182 0.24465 0.27111
 B539 B 0.73814 0.25147 0.28162
 B540 B 0.74349 0.27806 0.27155
 B541 B 0.75613 0.77527 0.76278
 B542 B 0.76508 0.79120 0.78743
 B543 B 0.74596 0.77103 0.79176
 B544 B 0.75217 0.74906 0.77359
 B545 B 0.77580 0.75584 0.75804
 B546 B 0.78335 0.78223 0.76637
 B547 B 0.78609 0.75564 0.80933
 B548 B 0.77710 0.73983 0.78477
 B549 B 0.79650 0.76001 0.78020
 B550 B 0.79020 0.78196 0.79847
 B551 B 0.76674 0.77510 0.81401
 B552 B 0.75865 0.74897 0.80548
 B553 B 0.26742 0.24544 0.76284
 B554 B 0.25648 0.26006 0.73760
 B555 B 0.27692 0.24128 0.73365
 B556 B 0.27305 0.21924 0.75356
 B557 B 0.24972 0.22455 0.76983
 B558 B 0.23964 0.25006 0.76011
 B559 B 0.23754 0.22268 0.71902
 B560 B 0.24833 0.20801 0.74417
 B561 B 0.22795 0.22677 0.74838
 B562 B 0.23182 0.24881 0.72842
 B563 B 0.25515 0.24350 0.71218
 B564 B 0.26536 0.21812 0.72198
 B565 B 0.23750 0.75258 0.26343
 B566 B 0.24529 0.74026 0.23656
 B567 B 0.22657 0.76120 0.23498
 B568 B 0.23380 0.78009 0.25727
 B569 B 0.25764 0.77074 0.27264
 B570 B 0.26450 0.74577 0.25996
 B571 B 0.26663 0.77770 0.22228
 B572 B 0.25890 0.79018 0.24927
 B573 B 0.27766 0.76914 0.25077
 B574 B 0.27029 0.75018 0.22864
 B575 B 0.24658 0.75966 0.21334
 B576 B 0.23966 0.78456 0.22591
 B577 B 0.27478 0.71119 0.74612
 B578 B 0.27184 0.69922 0.77518
 B579 B 0.28961 0.72070 0.77187
 B580 B 0.27853 0.73896 0.74990
 B581 B 0.25330 0.72856 0.73992
 B582 B 0.24920 0.70364 0.75555
 B583 B 0.25174 0.73624 0.79123
 B584 B 0.25486 0.74847 0.76239
 B585 B 0.23692 0.72685 0.76535
 B586 B 0.24800 0.70858 0.78740
 B587 B 0.27317 0.71901 0.79728
 B588 B 0.27740 0.74382 0.78169
 B589 B 0.22640 0.28263 0.23599
 B590 B 0.23458 0.29113 0.26539
 B591 B 0.21242 0.27399 0.26205
 B592 B 0.21728 0.25600 0.23837
 B593 B 0.24330 0.26190 0.22765
 B594 B 0.25377 0.28392 0.24447
 B595 B 0.24801 0.24923 0.27806
 B596 B 0.23941 0.24077 0.24870
 B597 B 0.26199 0.25776 0.25230
 B598 B 0.25702 0.27594 0.27582
 B599 B 0.23132 0.27003 0.28639
 B600 B 0.22048 0.24810 0.26975
 B601 B 0.76702 0.79011 0.25250
 B602 B 0.76226 0.80100 0.22287
 B603 B 0.78339 0.78278 0.22800
 B604 B 0.77534 0.76341 0.24979
 B605 B 0.74849 0.76953 0.25720
 B606 B 0.74070 0.79308 0.24052
 B607 B 0.74857 0.76072 0.20614
 B608 B 0.75372 0.74987 0.23572
 B609 B 0.73232 0.76793 0.23009
 B610 B 0.74039 0.78754 0.20866
 B611 B 0.76682 0.78132 0.20123
 B612 B 0.77505 0.75791 0.21801
 B613 B 0.73266 0.23226 0.78009
 B614 B 0.73538 0.22383 0.74957
 B615 B 0.71750 0.24453 0.75628
 B616 B 0.72926 0.26025 0.77979
 B617 B 0.75457 0.24881 0.78777
 B618 B 0.75809 0.22613 0.76934
 B619 B 0.75497 0.26284 0.73779
 B620 B 0.75282 0.27116 0.76798
 B621 B 0.77026 0.25018 0.76177
 B622 B 0.75860 0.23498 0.73804
 B623 B 0.73316 0.24640 0.73004
 B624 B 0.72976 0.26890 0.74880
 C625 C 0.36478 1.05739 0.34996
 C626 C 0.38821 1.05534 0.35049
 C627 C 0.39901 1.05615 0.32697
 C628 C 0.38643 1.05505 0.30384
 C629 C 0.36298 1.05520 0.30361
 C630 C 0.35245 1.05774 0.32687
 C631 C 0.42224 1.05749 0.32681
 C632 C 0.43498 1.05711 0.34962
 C633 C 0.42493 1.05352 0.37326
 C634 C 0.40119 1.05181 0.37351
 C635 C 0.39125 1.04443 0.39612
 C636 C 0.40422 1.03745 0.41720
 C637 C 0.42737 1.03934 0.41721
 C638 C 0.43790 1.04927 0.39623
 C639 C 0.46107 1.05344 0.39883
 C640 C 0.47344 1.04607 0.42060
 C641 C 0.46327 1.03348 0.43984
 C642 C 0.44012 1.03017 0.43756
 H643 H 0.35561 1.05886 0.36716
 H644 H 0.39492 1.05445 0.28596
 H645 H 0.33445 1.05827 0.32756
 H646 H 0.43065 1.05869 0.30890
 H647 H 0.45284 1.05774 0.34806
 H648 H 0.37351 1.04191 0.39725
 H649 H 0.39607 1.03032 0.43357
 H650 H 0.46995 1.06238 0.38431
 H651 H 0.49124 1.04904 0.42147
 H652 H 0.43179 1.01921 0.45065
 C653 C -0.09219 0.49324 0.84740
 C654 C -0.07669 0.50945 0.85595
 C655 C -0.07935 0.53149 0.84629
 C656 C -0.09590 0.53648 0.82728
 C657 C -0.11024 0.51975 0.81752
 C658 C -0.10845 0.49828 0.82862
 C659 C -0.06531 0.54837 0.85543
 C660 C -0.04869 0.54388 0.87406
 C661 C -0.04498 0.52204 0.88374
 C662 C -0.05887 0.50448 0.87396
 C663 C -0.05418 0.48237 0.88197
 C664 C -0.03739 0.47760 0.89998
 C665 C -0.02458 0.49459 0.91079
 C666 C -0.02786 0.51703 0.90279
 C667 C -0.01386 0.53334 0.91439
 C668 C 0.00165 0.52757 0.93406
 C669 C 0.00349 0.50553 0.94310
 C670 C -0.00872 0.48905 0.93001
 H671 H -0.09258 0.47652 0.85518
 H672 H -0.09661 0.55323 0.81929
 H673 H -0.12012 0.48518 0.82347
 H674 H -0.06728 0.56533 0.84825
 H675 H -0.03875 0.55790 0.88020
 H676 H -0.06295 0.46816 0.87432
 H677 H -0.03460 0.46037 0.90575
 H678 H -0.01470 0.55073 0.90905
 H679 H 0.01207 0.54053 0.94214
 H680 H -0.00676 0.47167 0.93554
 C681 C 0.09843 -0.01600 0.81921
 C682 C 0.08825 -0.03487 0.83024
 C683 C 0.09790 -0.05594 0.82654
 C684 C 0.11516 -0.05816 0.80941
 C685 C 0.12439 -0.03933 0.79721
 C686 C 0.11641 -0.01821 0.80343
 C687 C 0.09011 -0.07463 0.83982
 C688 C 0.07329 -0.07262 0.85724
 C689 C 0.06256 -0.05206 0.86056
 C690 C 0.06916 -0.03336 0.84537
 C691 C 0.05602 -0.01396 0.84499
 C692 C 0.03792 -0.01229 0.86042
 C693 C 0.03307 -0.02934 0.87777
 C694 C 0.04538 -0.04942 0.87838
 C695 C 0.04083 -0.06534 0.89779
 C696 C 0.02603 -0.06053 0.91698
 C697 C 0.01470 -0.04012 0.91682
 C698 C 0.01702 -0.02556 0.89576
 H699 H 0.09325 0.00075 0.82318
 H700 H 0.12084 -0.07474 0.80530
 H701 H 0.12389 -0.00315 0.79600
 H702 H 0.09744 -0.09086 0.83720
 H703 H 0.06830 -0.08766 0.86706
 H704 H 0.05900 -0.00004 0.83223
 H705 H 0.02834 0.00300 0.85966
 H706 H 0.04985 -0.08082 0.89985
 H707 H 0.02473 -0.07226 0.93269
 H708 H 0.00830 -0.00977 0.89490
 C709 C 0.56839 0.50632 0.34592
 C710 C 0.56748 0.49161 0.36728
 C711 C 0.58741 0.48068 0.37569
 C712 C 0.60702 0.48357 0.36223
 C713 C 0.60724 0.49731 0.34029
 C714 C 0.58787 0.50893 0.33264
 C715 C 0.58764 0.46680 0.39734
 C716 C 0.56864 0.46397 0.41135
 C717 C 0.54842 0.47461 0.40388
 C718 C 0.54763 0.48788 0.38089
 C719 C 0.52705 0.49716 0.37232
 C720 C 0.50858 0.49601 0.38726
 C721 C 0.50983 0.48537 0.41110
 C722 C 0.52922 0.47341 0.41920
 C723 C 0.52888 0.46201 0.44307
 C724 C 0.51174 0.46566 0.45978
 C725 C 0.49445 0.48060 0.45311
 C726 C 0.49242 0.48823 0.42767
 H727 H 0.55438 0.51609 0.33889
 H728 H 0.62205 0.47479 0.36856
 H729 H 0.58744 0.51949 0.31564
 H730 H 0.60280 0.45830 0.40377
 H731 H 0.57044 0.45342 0.42816
 H732 H 0.52469 0.50580 0.35423
 H733 H 0.49345 0.50445 0.38058
 H734 H 0.54233 0.45153 0.45024
 H735 H 0.51358 0.45872 0.47893
 H736 H 0.47852 0.49870 0.42139
 C737 C 0.58601 0.55589 0.18938
 C738 C 0.59535 0.55294 0.16528
 C739 C 0.61893 0.55168 0.16437
 C740 C 0.63240 0.55368 0.18667
 C741 C 0.62280 0.55560 0.21036
 C742 C 0.59961 0.55683 0.21162
 C743 C 0.62893 0.54746 0.14139
 C744 C 0.61601 0.54236 0.11976
 C745 C 0.59254 0.54208 0.12022
 C746 C 0.58209 0.54965 0.14241
 C747 C 0.55883 0.55324 0.14097
 C748 C 0.54605 0.54786 0.11912
 C749 C 0.55579 0.53745 0.09869
 C750 C 0.57916 0.53407 0.09932
 C751 C 0.58812 0.52096 0.08026
 C752 C 0.57440 0.51143 0.06156
 C753 C 0.55142 0.51594 0.05964
 C754 C 0.54226 0.52929 0.07833
 H755 H 0.56826 0.55626 0.19178
 H756 H 0.65038 0.55243 0.18584
 H757 H 0.59201 0.55818 0.22995
 H758 H 0.64693 0.54707 0.14039
 H759 H 0.62479 0.53897 0.10266
 H760 H 0.55014 0.56056 0.15638
 H761 H 0.52823 0.55076 0.11881
 H762 H 0.60547 0.51627 0.08055
 H763 H 0.58205 0.49998 0.04887
 H764 H 0.52444 0.53216 0.07802
 C765 C 0.08367 0.98634 0.64486
 C766 C 0.07309 1.00631 0.63681
 C767 C 0.08489 1.02647 0.64035
 C768 C 0.10541 1.02660 0.65449
 C769 C 0.11503 1.00657 0.66453
 C770 C 0.10416 0.98650 0.65810
 C771 C 0.07602 1.04629 0.62977
 C772 C 0.05597 1.04630 0.61526
 C773 C 0.04332 1.02660 0.61211
 C774 C 0.05155 1.00664 0.62443
 C775 C 0.03785 0.98756 0.62446
 C776 C 0.01806 0.98700 0.61018
 C777 C 0.01127 1.00535 0.59525
 C778 C 0.02306 1.02575 0.59663
 C779 C 0.01434 1.04390 0.58162
 C780 C -0.00321 1.04067 0.56336
 C781 C -0.01182 1.01928 0.55912
 C782 C -0.00640 1.00265 0.57756
 H783 H 0.07683 0.97017 0.64038
 H784 H 0.11305 1.04256 0.65843
 H785 H 0.11158 0.97046 0.66273
 H786 H 0.08497 1.06187 0.63215
 H787 H 0.05056 1.06205 0.60701
 H788 H 0.04202 0.97274 0.63556
 H789 H 0.00852 0.97164 0.60989
 H790 H 0.02146 1.06038 0.58260
 H791 H -0.00897 1.05461 0.55157
 H792 H -0.01414 0.98635 0.57644
 C793 C -0.13457 0.48423 0.63562
 C794 C -0.11659 0.46974 0.63110
 C795 C -0.10832 0.45604 0.65160
 C796 C -0.11856 0.45623 0.67527
 C797 C -0.13629 0.47076 0.67928
 C798 C -0.14407 0.48479 0.65942
 C799 C -0.08952 0.44281 0.64855
 C800 C -0.07792 0.44386 0.62601
 C801 C -0.08531 0.45757 0.60524
 C802 C -0.10584 0.46943 0.60734
 C803 C -0.11486 0.48091 0.58570
 C804 C -0.10280 0.48355 0.56398
 C805 C -0.08147 0.47464 0.56294
 C806 C -0.07268 0.46061 0.58274
 C807 C -0.05109 0.45157 0.57964
 C808 C -0.03839 0.45774 0.55856
 C809 C -0.04675 0.47308 0.54010
 C810 C -0.06854 0.48099 0.54265
 H811 H -0.14108 0.49604 0.62152
 H812 H -0.11226 0.44565 0.69092
 H813 H -0.15760 0.49626 0.66237
 H814 H -0.08320 0.43216 0.66410
 H815 H -0.06317 0.43374 0.62537
 H816 H -0.13124 0.48824 0.58503
 H817 H -0.10995 0.49340 0.54815
 H818 H -0.04323 0.44054 0.59370
 H819 H -0.02155 0.45149 0.55756
 H820 H -0.07527 0.49384 0.53000
 C821 C 0.39863 0.01136 0.13787
 C822 C 0.41599 -0.00423 0.13505
 C823 C 0.41976 -0.02037 0.15481
 C824 C 0.40578 -0.02135 0.17581
 C825 C 0.38822 -0.00611 0.17774
 C826 C 0.38503 0.01030 0.15870
 C827 C 0.43742 -0.03538 0.15343
 C828 C 0.45153 -0.03467 0.13290
 C829 C 0.44820 -0.01919 0.11252
 C830 C 0.42976 -0.00409 0.11342
 C831 C 0.42540 0.01050 0.09245
 C832 C 0.43909 0.01126 0.07195
 C833 C 0.45764 -0.00249 0.07130
 C834 C 0.46253 -0.01818 0.09117
 C835 C 0.48164 -0.03184 0.08867
 C836 C 0.49537 -0.02941 0.06757
 C837 C 0.49049 -0.01338 0.04839
 C838 C 0.47133 -0.00027 0.05060
 H839 H 0.39509 0.02479 0.12448
 H840 H 0.40863 -0.03389 0.19072
 H841 H 0.37156 0.02221 0.15961
 H842 H 0.44049 -0.04772 0.16851
 H843 H 0.46484 -0.04669 0.13337
 H844 H 0.41130 0.02152 0.09097
 H845 H 0.43512 0.02297 0.05643
 H846 H 0.48657 -0.04431 0.10282
 H847 H 0.50996 -0.03986 0.06646
 H848 H 0.46672 0.01206 0.03602
 C849 C 0.37240 0.39963 0.02715
 C850 C 0.37968 0.41895 0.04021
 C851 C 0.36331 0.43268 0.05067
 C852 C 0.34065 0.42653 0.04899
 C853 C 0.33389 0.40737 0.03587
 C854 C 0.34989 0.39410 0.02496
 C855 C 0.36961 0.45268 0.06213
 C856 C 0.39170 0.45989 0.06241
 C857 C 0.40855 0.44689 0.05202
 C858 C 0.40255 0.42550 0.04216
 C859 C 0.41960 0.41131 0.03446
 C860 C 0.44144 0.41855 0.03384
 C861 C 0.44717 0.44015 0.04083
 C862 C 0.43114 0.45456 0.05061
 C863 C 0.43830 0.47635 0.05716
 C864 C 0.46008 0.48365 0.05258
 C865 C 0.47547 0.46953 0.04150
 C866 C 0.46874 0.44763 0.03663
 H867 H 0.38354 0.38886 0.01755
 H868 H 0.32816 0.43702 0.05711
 H869 H 0.34491 0.37932 0.01460
 H870 H 0.35722 0.46322 0.07031
 H871 H 0.39514 0.47572 0.07114
 H872 H 0.41663 0.39435 0.02889
 H873 H 0.45390 0.40726 0.02707
 H874 H 0.42722 0.48845 0.06472
 H875 H 0.46443 0.50077 0.05663
 H876 H 0.47923 0.43683 0.02658
 C877 C -0.19486 0.94520 0.56028
 C878 C -0.18212 0.94478 0.53812
 C879 C -0.18987 0.93112 0.51784
 C880 C -0.21001 0.91957 0.51922
 C881 C -0.22267 0.91996 0.54122
 C882 C -0.21452 0.93259 0.56199
 C883 C -0.17730 0.92857 0.49630
 C884 C -0.15651 0.93834 0.49496
 C885 C -0.14788 0.95178 0.51478
 C886 C -0.16154 0.95661 0.53563
 C887 C -0.15425 0.97330 0.55275
 C888 C -0.13403 0.98451 0.54964
 C889 C -0.11965 0.97831 0.53061
 C890 C -0.12611 0.96097 0.51392
 C891 C -0.11014 0.95246 0.49783
 C892 C -0.08908 0.96175 0.49711
 C893 C -0.08328 0.98086 0.51106
 C894 C -0.09865 0.98877 0.52841
 H895 H -0.18956 0.95451 0.57688
 H896 H -0.21494 0.90890 0.50350
 H897 H -0.22368 0.93338 0.57934
 H898 H -0.18334 0.91844 0.48054
 H899 H -0.14778 0.93581 0.47761
 H900 H -0.16436 0.97861 0.56810
 H901 H -0.12930 0.99762 0.56274
 H902 H -0.11310 0.93775 0.48662
 H903 H -0.07724 0.95366 0.48535
 H904 H -0.09406 1.00246 0.54075
 C905 C -0.15377 0.06933 0.94104
 C906 C -0.14924 0.04831 0.95267
 C907 C -0.16424 0.04005 0.97082
 C908 C -0.18324 0.05223 0.97641
 C909 C -0.18693 0.07356 0.96569
 C910 C -0.17212 0.08181 0.94775
 C911 C -0.15973 0.02011 0.98407
 C912 C -0.13969 0.00912 0.98130
 C913 C -0.12384 0.01726 0.96425
 C914 C -0.12962 0.03593 0.94809
 C915 C -0.11548 0.04176 0.92815
 C916 C -0.09528 0.03103 0.92563
 C917 C -0.08812 0.01478 0.94343
 C918 C -0.10226 0.00759 0.96299
 C919 C -0.09369 -0.00800 0.98136
 C920 C -0.07165 -0.01521 0.98092
 C921 C -0.05754 -0.00743 0.96196
 C922 C -0.06646 0.00645 0.94242
 H923 H -0.14269 0.07720 0.92790
 H924 H -0.19478 0.04532 0.98986
 H925 H -0.17411 0.09839 0.93954
 H926 H -0.17135 0.01347 0.99762
 H927 H -0.13715 -0.00594 0.99254
 H928 H -0.11976 0.05442 0.91395
 H929 H -0.08469 0.03627 0.91032
 H930 H -0.10312 -0.01386 0.99725
 H931 H -0.06547 -0.02617 0.99622
 H932 H -0.05631 0.01166 0.92687
 C933 C 0.32111 0.59839 0.45533
 C934 C 0.32572 0.57540 0.45844
 C935 C 0.30768 0.56020 0.45627
 C936 C 0.28562 0.56814 0.45472
 C937 C 0.28145 0.59111 0.45386
 C938 C 0.29928 0.60605 0.45309
 C939 C 0.31184 0.53731 0.45638
 C940 C 0.33357 0.52919 0.45900
 C941 C 0.35183 0.54371 0.46328
 C942 C 0.34758 0.56712 0.46405
 C943 C 0.36495 0.58150 0.47216
 C944 C 0.38584 0.57335 0.47910
 C945 C 0.39058 0.55080 0.47702
 C946 C 0.37405 0.53567 0.46817
 C947 C 0.38058 0.51324 0.46485
 C948 C 0.40261 0.50634 0.47050
 C949 C 0.41858 0.52137 0.48027
 C950 C 0.41192 0.54341 0.48406
 H951 H 0.33405 0.61085 0.45451
 H952 H 0.27172 0.55657 0.45476
 H953 H 0.29628 0.62384 0.45196
 H954 H 0.29817 0.52556 0.45441
 H955 H 0.33548 0.51134 0.45911
 H956 H 0.36254 0.59908 0.47481
 H957 H 0.39854 0.58493 0.48593
 H958 H 0.36919 0.50088 0.45728
 H959 H 0.40701 0.48914 0.46745
 H960 H 0.42330 0.55512 0.49307
 C961 C 0.13217 0.58066 0.55891
 C962 C 0.12669 0.56157 0.54437
 C963 C 0.14309 0.55342 0.52817
 C964 C 0.16380 0.56407 0.52659
 C965 C 0.16872 0.58318 0.54064
 C966 C 0.15284 0.59121 0.55702
 C967 C 0.13871 0.53487 0.51323
 C968 C 0.11803 0.52459 0.51309
 C969 C 0.10080 0.53239 0.52816
 C970 C 0.10541 0.55070 0.54473
 C971 C 0.08848 0.55771 0.56075
 C972 C 0.06735 0.54821 0.55945
 C973 C 0.06217 0.53147 0.54210
 C974 C 0.07890 0.52292 0.52665
 C975 C 0.07273 0.50576 0.50963
 C976 C 0.05061 0.49909 0.50635
 C977 C 0.03372 0.50908 0.51999
 C978 C 0.04003 0.52395 0.53928
 H979 H 0.12073 0.58819 0.57150
 H980 H 0.17617 0.55747 0.51423
 H981 H 0.15621 0.60606 0.56798
 H982 H 0.15130 0.52845 0.50103
 H983 H 0.11614 0.51057 0.50068
 H984 H 0.09094 0.57073 0.57445
 H985 H 0.05470 0.55458 0.57160
 H986 H 0.08431 0.49775 0.49763
 H987 H 0.04678 0.48684 0.49193
 H988 H 0.02764 0.53062 0.55131
 C989 C 0.68625 0.03514 0.07123
 C990 C 0.67410 0.03509 0.04749
 C991 C 0.68348 0.04660 0.02654
 C992 C 0.70379 0.05769 0.02944
 C993 C 0.71503 0.05873 0.05325
 C994 C 0.70628 0.04716 0.07412
 C995 C 0.67206 0.04807 0.00295
 C996 C 0.65045 0.04040 0.00029
 C997 C 0.63981 0.03037 0.02106
 C998 C 0.65238 0.02546 0.04404
 C999 C 0.64257 0.01146 0.06251
 C1000 C 0.62082 0.00324 0.05862
 C1001 C 0.60760 0.01026 0.03736
 C1002 C 0.61689 0.02498 0.01923
 C1003 C 0.60266 0.03520 0.00074
 C1004 C 0.58043 0.02955 -0.00119
 C1005 C 0.57149 0.01245 0.01406
 C1006 C 0.58514 0.00328 0.03407
 H1007 H 0.67996 0.02716 0.08812
 H1008 H 0.70999 0.06712 0.01333
 H1009 H 0.71464 0.04789 0.09278
 H1010 H 0.67949 0.05620 -0.01332
 H1011 H 0.64237 0.04216 -0.01843
 H1012 H 0.65165 0.00607 0.07970
 H1013 H 0.61403 -0.00791 0.07285
 H1014 H 0.60815 0.04845 -0.01177
 H1015 H 0.57039 0.03855 -0.01546
 H1016 H 0.57829 -0.00883 0.04720
 C1017 C 0.62908 0.90872 0.43562
 C1018 C 0.62667 0.93077 0.44440
 C1019 C 0.64497 0.94018 0.45840
 C1020 C 0.66445 0.92785 0.46366
 C1021 C 0.66622 0.90583 0.45563
 C1022 C 0.64856 0.89654 0.44118
 C1023 C 0.64362 0.96170 0.46769
 C1024 C 0.62405 0.97380 0.46473
 C1025 C 0.60494 0.96488 0.45207
 C1026 C 0.60656 0.94343 0.44073
 C1027 C 0.58782 0.93517 0.42671
 C1028 C 0.56762 0.94642 0.42580
 C1029 C 0.56522 0.96617 0.43900
 C1030 C 0.58398 0.97618 0.45146
 C1031 C 0.58057 0.99654 0.46395
 C1032 C 0.55910 1.00447 0.46735
 C1033 C 0.54040 0.99250 0.45821
 C1034 C 0.54383 0.97513 0.44131
 H1035 H 0.61604 0.90013 0.42504
 H1036 H 0.67826 0.93536 0.47438
 H1037 H 0.64955 0.87953 0.43476
 H1038 H 0.65770 0.96908 0.47806
 H1039 H 0.62440 0.99007 0.47303
 H1040 H 0.58807 0.91973 0.41658
 H1041 H 0.55343 0.93896 0.41573
 H1042 H 0.59391 1.00604 0.47279
 H1043 H 0.55724 1.01902 0.47898
 H1044 H 0.52973 0.96732 0.43156
 C1045 C 0.19590 0.44445 0.93087
 C1046 C 0.17709 0.43441 0.94196
 C1047 C 0.17953 0.41234 0.95195
 C1048 C 0.19986 0.40119 0.95117
 C1049 C 0.21852 0.41183 0.94171
 C1050 C 0.21647 0.43335 0.93115
 C1051 C 0.16200 0.40176 0.96387
 C1052 C 0.14275 0.41331 0.96841
 C1053 C 0.14019 0.43578 0.96060
 C1054 C 0.15645 0.44581 0.94500
 C1055 C 0.15140 0.46677 0.93342
 C1056 C 0.13128 0.47765 0.93774
 C1057 C 0.11639 0.46888 0.95526
 C1058 C 0.12157 0.44833 0.96777
 C1059 C 0.10862 0.44141 0.98812
 C1060 C 0.08995 0.45316 0.99419
 C1061 C 0.08266 0.47206 0.97988
 C1062 C 0.09650 0.48028 0.96070
 H1063 H 0.19550 0.46129 0.92332
 H1064 H 0.20165 0.38460 0.95960
 H1065 H 0.23096 0.44185 0.92404
 H1066 H 0.16353 0.38467 0.97076
 H1067 H 0.12979 0.40413 0.97776
 H1068 H 0.16244 0.47474 0.92027
 H1069 H 0.12775 0.49339 0.92800
 H1070 H 0.11291 0.42718 1.00020
 H1071 H 0.08059 0.44640 1.00974
 H1072 H 0.09184 0.49530 0.95004
 C1073 C 0.01407 0.33737 0.44261
 C1074 C -0.00289 0.35314 0.43636
 C1075 C -0.01658 0.34943 0.41412
 C1076 C -0.01394 0.33021 0.39962
 C1077 C 0.00294 0.31491 0.40613
 C1078 C 0.01701 0.31870 0.42753
 C1079 C -0.03266 0.36506 0.40624
 C1080 C -0.03483 0.38484 0.41924
 C1081 C -0.02139 0.38948 0.44123
 C1082 C -0.00624 0.37276 0.45089
 C1083 C 0.00478 0.37612 0.47484
 C1084 C 0.00193 0.39565 0.48827
 C1085 C -0.01120 0.41298 0.47791
 C1086 C -0.02271 0.41026 0.45401
 C1087 C -0.03419 0.42885 0.44319
 C1088 C -0.03414 0.44919 0.45554
 C1089 C -0.02354 0.45174 0.47975
 C1090 C -0.01227 0.43329 0.49091
 H1091 H 0.02578 0.33939 0.45853
 H1092 H -0.02463 0.32739 0.38281
 H1093 H 0.03028 0.30706 0.43264
 H1094 H -0.04339 0.36219 0.38948
 H1095 H -0.04771 0.39599 0.41197
 H1096 H 0.01535 0.36364 0.48403
 H1097 H 0.01068 0.39747 0.50661
 H1098 H -0.04237 0.42859 0.42452
 H1099 H -0.04246 0.46309 0.44584
 H1100 H -0.00340 0.43495 0.50919
 C1101 C 0.54536 -0.16958 -0.02583
 C1102 C 0.52628 -0.15593 -0.02933
 C1103 C 0.50980 -0.16239 -0.04800
 C1104 C 0.51273 -0.18137 -0.06280
 C1105 C 0.53239 -0.19377 -0.06022
 C1106 C 0.54838 -0.18803 -0.04120
 C1107 C 0.49089 -0.14932 -0.05262
 C1108 C 0.48899 -0.12885 -0.04107
 C1109 C 0.50591 -0.12083 -0.02414
 C1110 C 0.52369 -0.13538 -0.01628
 C1111 C 0.53852 -0.12849 0.00372
 C1112 C 0.53709 -0.10728 0.01403
 C1113 C 0.52162 -0.09181 0.00395
 C1114 C 0.50595 -0.09847 -0.01543
 C1115 C 0.49235 -0.08200 -0.02731
 C1116 C 0.49470 -0.05983 -0.02084
 C1117 C 0.50939 -0.05298 -0.00084
 C1118 C 0.52261 -0.06939 0.01183
 H1119 H 0.55876 -0.16576 -0.01231
 H1120 H 0.50034 -0.18565 -0.07753
 H1121 H 0.56361 -0.19758 -0.03862
 H1122 H 0.47784 -0.15450 -0.06615
 H1123 H 0.47396 -0.11958 -0.04569
 H1124 H 0.55138 -0.13924 0.01187
 H1125 H 0.54902 -0.10257 0.02905
 H1126 H 0.48114 -0.08538 -0.04337
 H1127 H 0.48543 -0.04790 -0.03270
 H1128 H 0.53491 -0.06450 0.02638
 C1129 C -0.03698 -0.17819 1.03205
 C1130 C -0.01667 -0.16672 1.02834
 C1131 C 0.00254 -0.17427 1.04256
 C1132 C 0.00124 -0.19257 1.05964
 C1133 C -0.01918 -0.20322 1.06358
 C1134 C -0.03814 -0.19599 1.04944
 C1135 C 0.02280 -0.16312 1.04026
 C1136 C 0.02424 -0.14387 1.02526
 C1137 C 0.00543 -0.13514 1.01151
 C1138 C -0.01503 -0.14745 1.01197
 C1139 C -0.03327 -0.13984 0.99641
 C1140 C -0.03233 -0.11985 0.98279
 C1141 C -0.01325 -0.10657 0.98417
 C1142 C 0.00611 -0.11420 0.99792
 C1143 C 0.02494 -0.09994 0.99851
 C1144 C 0.02380 -0.07843 0.98784
 C1145 C 0.00412 -0.07032 0.97583
 C1146 C -0.01394 -0.08518 0.97290
 H1147 H -0.05248 -0.17338 1.02252
 H1148 H 0.01596 -0.19790 1.07074
 H1149 H -0.05408 -0.20406 1.05207
 H1150 H 0.03762 -0.16898 1.05079
 H1151 H 0.04043 -0.13613 1.02493
 H1152 H -0.04871 -0.14894 0.99441
 H1153 H -0.04702 -0.11436 0.97176
 H1154 H 0.04050 -0.10441 1.00814
 H1155 H 0.03827 -0.06806 0.99006
 H1156 H -0.02935 -0.07963 0.96342
 C1157 C 0.48858 0.35938 0.60419
 C1158 C 0.48806 0.36422 0.57757
 C1159 C 0.48661 0.34601 0.56068
 C1160 C 0.48579 0.32398 0.57029
 C1161 C 0.48562 0.31975 0.59664
 C1162 C 0.48717 0.33752 0.61343
 C1163 C 0.48523 0.34990 0.53433
 C1164 C 0.48426 0.37148 0.52426
 C1165 C 0.48502 0.39019 0.54023
 C1166 C 0.48799 0.38647 0.56725
 C1167 C 0.49063 0.40513 0.58310
 C1168 C 0.48913 0.42665 0.57320
 C1169 C 0.48486 0.43055 0.54718
 C1170 C 0.48284 0.41251 0.53019
 C1171 C 0.47796 0.41766 0.50404
 C1172 C 0.47540 0.43974 0.49537
 C1173 C 0.47798 0.45753 0.51223
 C1174 C 0.48233 0.45256 0.53823
 H1175 H 0.48912 0.37208 0.61845
 H1176 H 0.48415 0.31016 0.55730
 H1177 H 0.48672 0.33447 0.63386
 H1178 H 0.48434 0.33606 0.52131
 H1179 H 0.48306 0.37296 0.50373
 H1180 H 0.49409 0.40373 0.60338
 H1181 H 0.49106 0.44043 0.58620
 H1182 H 0.47546 0.40502 0.48987
 H1183 H 0.47118 0.44283 0.47534
 H1184 H 0.48331 0.46581 0.55198
 C1185 C 0.52915 1.16603 0.54308
 C1186 C 0.51145 1.15076 0.54671
 C1187 C 0.49719 1.15462 0.56718
 C1188 C 0.50018 1.17336 0.58256
 C1189 C 0.51792 1.18801 0.57890
 C1190 C 0.53244 1.18421 0.55919
 C1191 C 0.48026 1.13954 0.57255
 C1192 C 0.47792 1.11996 0.55907
 C1193 C 0.49209 1.11502 0.53907
 C1194 C 0.50794 1.13137 0.53150
 C1195 C 0.51952 1.12779 0.50896
 C1196 C 0.51639 1.10836 0.49501
 C1197 C 0.50260 1.09128 0.50371
 C1198 C 0.49077 1.09424 0.52629
 C1199 C 0.47909 1.07584 0.53617
 C1200 C 0.47890 1.05551 0.52396
 C1201 C 0.48923 1.05280 0.50057
 C1202 C 0.50115 1.07096 0.49056
 H1203 H 0.54118 1.16386 0.52859
 H1204 H 0.48915 1.17617 0.59811
 H1205 H 0.54638 1.19534 0.55631
 H1206 H 0.46904 1.14261 0.58783
 H1207 H 0.46436 1.10919 0.56427
 H1208 H 0.53071 1.14005 0.50128
 H1209 H 0.52549 1.10638 0.47773
 H1210 H 0.47103 1.07622 0.55420
 H1211 H 0.47050 1.04175 0.53316
 H1212 H 0.51015 1.06902 0.47321
 C1213 C 0.05345 0.65438 1.04608
 C1214 C 0.03492 0.64097 1.03921
 C1215 C 0.01368 0.64799 1.04675
 C1216 C 0.01159 0.66670 1.06242
 C1217 C 0.03056 0.67867 1.07119
 C1218 C 0.05130 0.67263 1.06173
 C1219 C -0.00530 0.63589 1.03927
 C1220 C -0.00359 0.61650 1.02532
 C1221 C 0.01733 0.60811 1.01871
 C1222 C 0.03690 0.62060 1.02572
 C1223 C 0.05793 0.61170 1.02033
 C1224 C 0.05990 0.59081 1.00989
 C1225 C 0.04107 0.57811 1.00383
 C1226 C 0.01951 0.58695 1.00681
 C1227 C 0.00113 0.57385 0.99835
 C1228 C 0.00411 0.55195 0.99050
 C1229 C 0.02535 0.54219 0.99124
 C1230 C 0.04382 0.55612 0.99603
 H1231 H 0.06996 0.65136 1.03965
 H1232 H -0.00473 0.67087 1.06900
 H1233 H 0.06618 0.68236 1.06578
 H1234 H -0.02165 0.64124 1.04469
 H1235 H -0.01900 0.60785 1.02099
 H1236 H 0.07344 0.61993 1.02513
 H1237 H 0.07645 0.58426 1.00722
 H1238 H -0.01575 0.57994 0.99785
 H1239 H -0.01044 0.54264 0.98428
 H1240 H 0.06057 0.54959 0.99514
 C1241 C 0.53327 0.64633 -0.07231
 C1242 C 0.51809 0.63545 -0.05625
 C1243 C 0.49853 0.64700 -0.05026
 C1244 C 0.49304 0.66724 -0.06279
 C1245 C 0.50785 0.67756 -0.07954
 C1246 C 0.52845 0.66730 -0.08317
 C1247 C 0.48460 0.63830 -0.03178
 C1248 C 0.48975 0.61831 -0.01907
 C1249 C 0.50818 0.60545 -0.02581
 C1250 C 0.52175 0.61359 -0.04578
 C1251 C 0.53759 0.59915 -0.05575
 C1252 C 0.53982 0.57733 -0.04670
 C1253 C 0.52760 0.56967 -0.02616
 C1254 C 0.51265 0.58406 -0.01439
 C1255 C 0.50279 0.57638 0.00824
 C1256 C 0.50684 0.55483 0.01793
 C1257 C 0.52017 0.53994 0.00495
 C1258 C 0.53007 0.54757 -0.01750
 H1259 H 0.54924 0.63921 -0.07622
 H1260 H 0.47760 0.67548 -0.05855
 H1261 H 0.54043 0.67488 -0.09561
 H1262 H 0.46972 0.64718 -0.02685
 H1263 H 0.47818 0.61255 -0.00513
 H1264 H 0.54744 0.60386 -0.07178
 H1265 H 0.55146 0.56644 -0.05564
 H1266 H 0.49232 0.58691 0.01913
 H1267 H 0.49886 0.54967 0.03526
 H1268 H 0.54003 0.53635 -0.02828
 C1269 C -0.01001 1.15401 0.41432
 C1270 C -0.02644 1.14427 0.42962
 C1271 C -0.04673 1.15593 0.43172
 C1272 C -0.05099 1.17551 0.41709
 C1273 C -0.03455 1.18497 0.40167
 C1274 C -0.01390 1.17404 0.40100
 C1275 C -0.06249 1.14812 0.44871
 C1276 C -0.05851 1.12902 0.46371
 C1277 C -0.03907 1.11620 0.46124
 C1278 C -0.02328 1.12348 0.44304
 C1279 C -0.00539 1.10927 0.43791
 C1280 C -0.00314 1.08856 0.44986
 C1281 C -0.01794 1.08158 0.46825
 C1282 C -0.03544 1.09566 0.47522
 C1283 C -0.04873 1.08829 0.49553
 C1284 C -0.04572 1.06709 0.50693
 C1285 C -0.02964 1.05238 0.49825
 C1286 C -0.01575 1.06013 0.47893
 H1287 H 0.00634 1.14689 0.41285
 H1288 H -0.06669 1.18408 0.41899
 H1289 H -0.00078 1.18050 0.38931
 H1290 H -0.07798 1.15704 0.45067
 H1291 H -0.07152 1.12403 0.47624
 H1292 H 0.00648 1.11313 0.42357
 H1293 H 0.01035 1.07783 0.44454
 H1294 H -0.06160 1.09856 0.50294
 H1295 H -0.05685 1.06183 0.52166
 H1296 H -0.00345 1.04913 0.47138
 C1297 C 0.77656 0.65714 0.93088
 C1298 C 0.79536 0.66583 0.91893
 C1299 C 0.81491 0.65280 0.91958
 C1300 C 0.81633 0.63321 0.93485
 C1301 C 0.79785 0.62530 0.94850
 C1302 C 0.77766 0.63718 0.94473
 C1303 C 0.83286 0.65948 0.90496
 C1304 C 0.83131 0.67835 0.88901
 C1305 C 0.81227 0.69212 0.88852
 C1306 C 0.79485 0.68655 0.90530
 C1307 C 0.77762 0.70203 0.90838
 C1308 C 0.77612 0.72129 0.89351
 C1309 C 0.79119 0.72534 0.87438
 C1310 C 0.80967 0.71108 0.87169
 C1311 C 0.82379 0.71563 0.85118
 C1312 C 0.81810 0.73195 0.83257
 C1313 C 0.79856 0.74452 0.83414
 C1314 C 0.78664 0.74256 0.85665
 H1315 H 0.76041 0.66499 0.92881
 H1316 H 0.83224 0.62487 0.93636
 H1317 H 0.76211 0.63113 0.95189
 H1318 H 0.84797 0.64964 0.90521
 H1319 H 0.84558 0.68220 0.87783
 H1320 H 0.76522 0.69975 0.92259
 H1321 H 0.76225 0.73246 0.89604
 H1322 H 0.83824 0.70565 0.84785
 H1323 H 0.82826 0.73347 0.81618
 H1324 H 0.77182 0.75249 0.85889
 C1325 C 0.22953 0.15206 0.40889
 C1326 C 0.24395 0.15444 0.38827
 C1327 C 0.25845 0.13653 0.38378
 C1328 C 0.25928 0.11778 0.40031
 C1329 C 0.24618 0.11637 0.42214
 C1330 C 0.23066 0.13354 0.42538
 C1331 C 0.27236 0.13752 0.36304
 C1332 C 0.27272 0.15621 0.34698
 C1333 C 0.25926 0.17492 0.35119
 C1334 C 0.24450 0.17393 0.37208
 C1335 C 0.23095 0.19256 0.37630
 C1336 C 0.23112 0.21113 0.36026
 C1337 C 0.24496 0.21216 0.33955
 C1338 C 0.25967 0.19445 0.33496
 C1339 C 0.27392 0.19712 0.31413
 C1340 C 0.27201 0.21559 0.29741
 C1341 C 0.25583 0.23197 0.30064
 C1342 C 0.24339 0.23059 0.32286
 H1343 H 0.21739 0.16442 0.41330
 H1344 H 0.27026 0.10425 0.39586
 H1345 H 0.22021 0.13379 0.44170
 H1346 H 0.28328 0.12372 0.35925
 H1347 H 0.28379 0.15547 0.33133
 H1348 H 0.21983 0.19341 0.39186
 H1349 H 0.22002 0.22481 0.36400
 H1350 H 0.28633 0.18497 0.30981
 H1351 H 0.28244 0.21624 0.28122
 H1352 H 0.23110 0.24318 0.32655
 C1353 C 0.72922 0.36320 0.41144
 C1354 C 0.71186 0.34953 0.40154
 C1355 C 0.69001 0.35325 0.40972
 C1356 C 0.68634 0.36854 0.42919
 C1357 C 0.70413 0.38091 0.44003
 C1358 C 0.72535 0.37860 0.43024
 C1359 C 0.67209 0.34160 0.39848
 C1360 C 0.67539 0.32661 0.37895
 C1361 C 0.69699 0.32184 0.37084
 C1362 C 0.71553 0.33270 0.38338
 C1363 C 0.73728 0.32598 0.37796
 C1364 C 0.74095 0.31061 0.35932
 C1365 C 0.72317 0.30159 0.34510
 C1366 C 0.70090 0.30665 0.35069
 C1367 C 0.68371 0.29670 0.33534
 C1368 C 0.68872 0.28371 0.31427
 C1369 C 0.71088 0.28045 0.30775
 C1370 C 0.72785 0.28815 0.32459
 H1371 H 0.74591 0.36280 0.40459
 H1372 H 0.66973 0.37040 0.43625
 H1373 H 0.73916 0.38875 0.43719
 H1374 H 0.65528 0.34440 0.40451
 H1375 H 0.66071 0.31854 0.37098
 H1376 H 0.75191 0.33201 0.38827
 H1377 H 0.75800 0.30626 0.35548
 H1378 H 0.66630 0.29945 0.33841
 H1379 H 0.67515 0.27727 0.30238
 H1380 H 0.74518 0.28486 0.32105
 C1381 C 0.26393 0.83838 0.91162
 C1382 C 0.24573 0.82654 0.90059
 C1383 C 0.22409 0.83503 0.90360
 C1384 C 0.22095 0.85395 0.91853
 C1385 C 0.23924 0.86540 0.93008
 C1386 C 0.26073 0.85729 0.92591
 C1387 C 0.20574 0.82476 0.89143
 C1388 C 0.20854 0.80674 0.87547
 C1389 C 0.22983 0.79771 0.87190
 C1390 C 0.24851 0.80712 0.88579
 C1391 C 0.26948 0.79684 0.88452
 C1392 C 0.27280 0.77974 0.86788
 C1393 C 0.25532 0.77201 0.85218
 C1394 C 0.23339 0.77999 0.85452
 C1395 C 0.21633 0.77021 0.83879
 C1396 C 0.22145 0.75477 0.82000
 C1397 C 0.24367 0.74931 0.81578
 C1398 C 0.26013 0.75684 0.83344
 H1399 H 0.28103 0.83405 0.90870
 H1400 H 0.20403 0.85910 0.92157
 H1401 H 0.27554 0.86604 0.93262
 H1402 H 0.18906 0.83113 0.89366
 H1403 H 0.19366 0.80019 0.86615
 H1404 H 0.28380 0.80165 0.89620
 H1405 H 0.28944 0.77293 0.86679
 H1406 H 0.19901 0.77455 0.84008
 H1407 H 0.20806 0.74789 0.80818
 H1408 H 0.27736 0.75186 0.83199
 C1409 C 0.29066 0.89073 0.11237
 C1410 C 0.28334 0.86832 0.11253
 C1411 C 0.27351 0.85999 0.08956
 C1412 C 0.27061 0.87379 0.06778
 C1413 C 0.27886 0.89572 0.06748
 C1414 C 0.28874 0.90398 0.09021
 C1415 C 0.26718 0.83769 0.08806
 C1416 C 0.27069 0.82326 0.10875
 C1417 C 0.28007 0.83076 0.13218
 C1418 C 0.28570 0.85382 0.13446
 C1419 C 0.29284 0.86166 0.15873
 C1420 C 0.29359 0.84764 0.18018
 C1421 C 0.28804 0.82514 0.17812
 C1422 C 0.28258 0.81617 0.15389
 C1423 C 0.27935 0.79291 0.15257
 C1424 C 0.27753 0.78000 0.17474
 C1425 C 0.27882 0.78980 0.19894
 C1426 C 0.28657 0.81183 0.20031
 H1427 H 0.29872 0.89833 0.12877
 H1428 H 0.26367 0.86659 0.05038
 H1429 H 0.29491 0.92093 0.09103
 H1430 H 0.25964 0.83122 0.07056
 H1431 H 0.26496 0.80639 0.10612
 H1432 H 0.29688 0.87888 0.16209
 H1433 H 0.29805 0.85460 0.19865
 H1434 H 0.27753 0.78434 0.13469
 H1435 H 0.27338 0.76255 0.17266
 H1436 H 0.29031 0.81920 0.21844
 C1437 C 0.74194 0.37610 0.62499
 C1438 C 0.75651 0.35760 0.62793
 C1439 C 0.76942 0.35197 0.60695
 C1440 C 0.76881 0.36544 0.58469
 C1441 C 0.75462 0.38397 0.58245
 C1442 C 0.74098 0.38893 0.60252
 C1443 C 0.78260 0.33279 0.60822
 C1444 C 0.78266 0.31861 0.62959
 C1445 C 0.77026 0.32364 0.65107
 C1446 C 0.75806 0.34415 0.65067
 C1447 C 0.74800 0.35077 0.67314
 C1448 C 0.74798 0.33696 0.69451
 C1449 C 0.75773 0.31594 0.69427
 C1450 C 0.76940 0.30894 0.67294
 C1451 C 0.77877 0.28720 0.67419
 C1452 C 0.77557 0.27284 0.69529
 C1453 C 0.76321 0.27976 0.71587
 C1454 C 0.75493 0.30167 0.71514
 H1455 H 0.73056 0.38069 0.63939
 H1456 H 0.77903 0.36130 0.56883
 H1457 H 0.72969 0.40297 0.60090
 H1458 H 0.79255 0.32840 0.59224
 H1459 H 0.79295 0.30397 0.62896
 H1460 H 0.74021 0.36678 0.67493
 H1461 H 0.73964 0.34259 0.71122
 H1462 H 0.78778 0.28048 0.65870
 H1463 H 0.78201 0.25603 0.69499
 H1464 H 0.74496 0.30759 0.73036
 C1465 C 0.24266 0.13217 0.58858
 C1466 C 0.22510 0.13896 0.60373
 C1467 C 0.20509 0.12653 0.60257
 C1468 C 0.20169 0.11032 0.58371
 C1469 C 0.21876 0.10483 0.56707
 C1470 C 0.23966 0.11512 0.57109
 C1471 C 0.18858 0.13067 0.62001
 C1472 C 0.19173 0.14682 0.63866
 C1473 C 0.21082 0.16062 0.63920
 C1474 C 0.22699 0.15745 0.62032
 C1475 C 0.24399 0.17344 0.61766
 C1476 C 0.24585 0.19137 0.63386
 C1477 C 0.23171 0.19330 0.65419
 C1478 C 0.21424 0.17778 0.65757
 C1479 C 0.20185 0.17940 0.67992
 C1480 C 0.20773 0.19487 0.69881
 C1481 C 0.22532 0.21002 0.69545
 C1482 C 0.23605 0.20992 0.67205
 H1483 H 0.25912 0.13939 0.59047
 H1484 H 0.18542 0.10263 0.58179
 H1485 H 0.25395 0.11030 0.56058
 H1486 H 0.17326 0.12107 0.61953
 H1487 H 0.17841 0.14901 0.65162
 H1488 H 0.25557 0.17292 0.60243
 H1489 H 0.25915 0.20333 0.63108
 H1490 H 0.18892 0.16759 0.68435
 H1491 H 0.19968 0.19352 0.71683
 H1492 H 0.24976 0.22125 0.66874
 C1493 C 0.77647 0.65002 0.10207
 C1494 C 0.75678 0.66103 0.10870
 C1495 C 0.73613 0.65091 0.10209
 C1496 C 0.73536 0.63204 0.08665
 C1497 C 0.75506 0.62180 0.07891
 C1498 C 0.77556 0.63064 0.08773
 C1499 C 0.71636 0.65986 0.11065
 C1500 C 0.71673 0.67847 0.12614
 C1501 C 0.73686 0.68967 0.13227
 C1502 C 0.75696 0.68154 0.12200
 C1503 C 0.77642 0.69461 0.12438
 C1504 C 0.77659 0.71437 0.13761
 C1505 C 0.75774 0.72125 0.15004
 C1506 C 0.73766 0.70894 0.14797
 C1507 C 0.71962 0.71599 0.16250
 C1508 C 0.72211 0.73363 0.17961
 C1509 C 0.74237 0.74516 0.18222
 C1510 C 0.75944 0.73976 0.16573
 H1511 H 0.79282 0.65572 0.10830
 H1512 H 0.71920 0.62591 0.08012
 H1513 H 0.79110 0.62272 0.08343
 H1514 H 0.70045 0.65216 0.10571
 H1515 H 0.70083 0.68434 0.13214
 H1516 H 0.79164 0.69031 0.11536
 H1517 H 0.79194 0.72391 0.13896
 H1518 H 0.70389 0.70728 0.16233
 H1519 H 0.70837 0.73756 0.19133
 H1520 H 0.77520 0.74860 0.16683
 C1521 C 0.21719 0.59198 0.24954
 C1522 C 0.20922 0.61066 0.23515
 C1523 C 0.19037 0.60754 0.21842
 C1524 C 0.17883 0.58711 0.21816
 C1525 C 0.18604 0.56924 0.23399
 C1526 C 0.20581 0.57170 0.24886
 C1527 C 0.18278 0.62500 0.20250
 C1528 C 0.19332 0.64563 0.20297
 C1529 C 0.21153 0.64988 0.22011
 C1530 C 0.21918 0.63228 0.23699
 C1531 C 0.23575 0.63716 0.25599
 C1532 C 0.24443 0.65849 0.25856
 C1533 C 0.23753 0.67568 0.24187
 C1534 C 0.22160 0.67146 0.22184
 C1535 C 0.21632 0.68914 0.20448
 C1536 C 0.22491 0.71047 0.20832
 C1537 C 0.23883 0.71511 0.22969
 C1538 C 0.24599 0.69726 0.24562
 H1539 H 0.23227 0.59241 0.26137
 H1540 H 0.16371 0.58547 0.20634
 H1541 H 0.21244 0.55792 0.26038
 H1542 H 0.16842 0.62274 0.18959
 H1543 H 0.18609 0.65829 0.19041
 H1544 H 0.24166 0.62502 0.27004
 H1545 H 0.25658 0.66160 0.27396
 H1546 H 0.20569 0.68701 0.18764
 H1547 H 0.22025 0.72339 0.19458
 H1548 H 0.25735 0.70026 0.26179
 C1549 C 0.66375 0.10624 0.67728
 C1550 C 0.68401 0.11020 0.69133
 C1551 C 0.69573 0.09141 0.70165
 C1552 C 0.68709 0.06989 0.69871
 C1553 C 0.66643 0.06643 0.68614
 C1554 C 0.65513 0.08467 0.67484
 C1555 C 0.71570 0.09414 0.71565
 C1556 C 0.72363 0.11521 0.72132
 C1557 C 0.71186 0.13451 0.71305
 C1558 C 0.69254 0.13205 0.69646
 C1559 C 0.68230 0.15150 0.68600
 C1560 C 0.68993 0.17260 0.69263
 C1561 C 0.70753 0.17519 0.71054
 C1562 C 0.71867 0.15618 0.72108
 C1563 C 0.73561 0.15957 0.74010
 C1564 C 0.74082 0.18080 0.74864
 C1565 C 0.72935 0.19962 0.73879
 C1566 C 0.71361 0.19667 0.71857
 H1567 H 0.65368 0.11948 0.66889
 H1568 H 0.69611 0.05576 0.70710
 H1569 H 0.63906 0.08237 0.66510
 H1570 H 0.72501 0.07979 0.72297
 H1571 H 0.73921 0.11579 0.73220
 H1572 H 0.66834 0.15097 0.67246
 H1573 H 0.68140 0.18706 0.68434
 H1574 H 0.74458 0.14612 0.74966
 H1575 H 0.75351 0.18220 0.76378
 H1576 H 0.70531 0.21104 0.70979
 C1577 C 0.80476 0.10595 0.28922
 C1578 C 0.79690 0.11882 0.26805
 C1579 C 0.80165 0.11132 0.24341
 C1580 C 0.81575 0.09297 0.24043
 C1581 C 0.82440 0.08051 0.26174
 C1582 C 0.81780 0.08713 0.28610
 C1583 C 0.79236 0.12225 0.22180
 C1584 C 0.77821 0.14029 0.22419
 C1585 C 0.77377 0.14886 0.24839
 C1586 C 0.78423 0.13868 0.27056
 C1587 C 0.78264 0.14928 0.29428
 C1588 C 0.77139 0.16934 0.29616
 C1589 C 0.76039 0.17898 0.27481
 C1590 C 0.76038 0.16819 0.25098
 C1591 C 0.74702 0.17730 0.23065
 C1592 C 0.73662 0.19781 0.23302
 C1593 C 0.73983 0.21025 0.25526
 C1594 C 0.75026 0.19989 0.27680
 H1595 H 0.80025 0.10947 0.30847
 H1596 H 0.82016 0.08909 0.22124
 H1597 H 0.82180 0.07755 0.30328
 H1598 H 0.79585 0.11665 0.20281
 H1599 H 0.77191 0.14803 0.20662
 H1600 H 0.79113 0.14314 0.31150
 H1601 H 0.77145 0.17745 0.31448
 H1602 H 0.74430 0.16889 0.21276
 H1603 H 0.72668 0.20416 0.21694
 H1604 H 0.75187 0.20865 0.29469
 C1605 C 0.35376 0.57398 0.77257
 C1606 C 0.33910 0.58315 0.78996
 C1607 C 0.33216 0.56948 0.81051
 C1608 C 0.34100 0.54786 0.81429
 C1609 C 0.35506 0.53874 0.79629
 C1610 C 0.36125 0.55221 0.77552
 C1611 C 0.31583 0.57720 0.82645
 C1612 C 0.30556 0.59777 0.82169
 C1613 C 0.31223 0.61199 0.80160
 C1614 C 0.33038 0.60511 0.78676
 C1615 C 0.33951 0.62046 0.76935
 C1616 C 0.33023 0.64130 0.76518
 C1617 C 0.31121 0.64746 0.77767
 C1618 C 0.30172 0.63300 0.79592
 C1619 C 0.28186 0.64007 0.80712
 C1620 C 0.27208 0.66069 0.80037
 C1621 C 0.28187 0.67500 0.78250
 C1622 C 0.30169 0.66814 0.77171
 H1623 H 0.35889 0.58282 0.75570
 H1624 H 0.33549 0.53757 0.83007
 H1625 H 0.37241 0.54604 0.76151
 H1626 H 0.31035 0.56691 0.84223
 H1627 H 0.29281 0.60243 0.83449
 H1628 H 0.35435 0.61708 0.75917
 H1629 H 0.33779 0.65257 0.75160
 H1630 H 0.27323 0.62979 0.82064
 H1631 H 0.25688 0.66542 0.80929
 H1632 H 0.30983 0.67885 0.75809
 C1633 C 0.33660 0.38180 0.70395
 C1634 C 0.31830 0.37690 0.71936
 C1635 C 0.31312 0.39239 0.73834
 C1636 C 0.32501 0.41252 0.74052
 C1637 C 0.34276 0.41736 0.72462
 C1638 C 0.34858 0.40160 0.70666
 C1639 C 0.29618 0.38766 0.75512
 C1640 C 0.28465 0.36757 0.75403
 C1641 C 0.28909 0.35164 0.73540
 C1642 C 0.30543 0.35692 0.71702
 C1643 C 0.30819 0.34218 0.69670
 C1644 C 0.29666 0.32219 0.69538
 C1645 C 0.28222 0.31589 0.71441
 C1646 C 0.27795 0.33052 0.73456
 C1647 C 0.26328 0.32296 0.75344
 C1648 C 0.25488 0.30120 0.75328
 C1649 C 0.26073 0.28630 0.73433
 C1650 C 0.27286 0.29451 0.71391
 H1651 H 0.34251 0.37040 0.69010
 H1652 H 0.32021 0.42453 0.75447
 H1653 H 0.36268 0.40445 0.69474
 H1654 H 0.29207 0.39946 0.76962
 H1655 H 0.27203 0.36516 0.76788
 H1656 H 0.31903 0.34577 0.68123
 H1657 H 0.29968 0.31119 0.67969
 H1658 H 0.25899 0.33292 0.76941
 H1659 H 0.24504 0.29566 0.76909
 H1660 H 0.27617 0.28389 0.69814
 C1661 C 0.84566 0.92230 0.20094
 C1662 C 0.82249 0.91889 0.20199
 C1663 C 0.80803 0.93679 0.19547
 C1664 C 0.81682 0.95840 0.19250
 C1665 C 0.84006 0.96178 0.19278
 C1666 C 0.85423 0.94330 0.19579
 C1667 C 0.78512 0.93277 0.19196
 C1668 C 0.77654 0.91119 0.19462
 C1669 C 0.79035 0.89345 0.20342
 C1670 C 0.81335 0.89804 0.20903
 C1671 C 0.82635 0.88224 0.22298
 C1672 C 0.81733 0.86213 0.23043
 C1673 C 0.79567 0.85644 0.22250
 C1674 C 0.78205 0.87149 0.20799
 C1675 C 0.76113 0.86359 0.19831
 C1676 C 0.75455 0.84131 0.20251
 C1677 C 0.76812 0.82681 0.21756
 C1678 C 0.78795 0.83536 0.22866
 H1679 H 0.85746 0.90882 0.20343
 H1680 H 0.80568 0.97241 0.18900
 H1681 H 0.87219 0.94523 0.19589
 H1682 H 0.77387 0.94626 0.18650
 H1683 H 0.75881 0.90899 0.19129
 H1684 H 0.84324 0.88563 0.22968
 H1685 H 0.82771 0.85056 0.24166
 H1686 H 0.75021 0.87400 0.18639
 H1687 H 0.73891 0.83548 0.19403
 H1688 H 0.79831 0.82511 0.24146
 C1689 C 0.69653 0.91669 0.73956
 C1690 C 0.70636 0.90884 0.76293
 C1691 C 0.70002 0.91911 0.78567
 C1692 C 0.68585 0.93776 0.78460
 C1693 C 0.67657 0.94577 0.76115
 C1694 C 0.68170 0.93454 0.73881
 C1695 C 0.70768 0.91055 0.80936
 C1696 C 0.72059 0.89133 0.81099
 C1697 C 0.72730 0.88059 0.78881
 C1698 C 0.72151 0.89052 0.76449
 C1699 C 0.73127 0.88203 0.74261
 C1700 C 0.74493 0.86337 0.74423
 C1701 C 0.74836 0.85182 0.76740
 C1702 C 0.73947 0.86015 0.79001
 C1703 C 0.74206 0.84701 0.81259
 C1704 C 0.75143 0.82578 0.81211
 C1705 C 0.75900 0.81709 0.78933
 C1706 C 0.75937 0.83121 0.76772
 H1707 H 0.69927 0.90873 0.72166
 H1708 H 0.68220 0.94603 0.80215
 H1709 H 0.67404 0.93931 0.72049
 H1710 H 0.70309 0.91839 0.82687
 H1711 H 0.72564 0.88559 0.82995
 H1712 H 0.72902 0.88984 0.72399
 H1713 H 0.75187 0.85725 0.72690
 H1714 H 0.73562 0.85199 0.83053
 H1715 H 0.75203 0.81597 0.82962
 H1716 H 0.76612 0.82522 0.75022
 C1717 C 0.15948 0.41456 0.30453
 C1718 C 0.18221 0.40841 0.30514
 C1719 C 0.19811 0.42368 0.31523
 C1720 C 0.19163 0.44560 0.32054
 C1721 C 0.16920 0.45196 0.31734
 C1722 C 0.15316 0.43604 0.31056
 C1723 C 0.22036 0.41711 0.31896
 C1724 C 0.22715 0.39577 0.31250
 C1725 C 0.21217 0.38080 0.30033
 C1726 C 0.18960 0.38779 0.29554
 C1727 C 0.17544 0.37476 0.27974
 C1728 C 0.18288 0.35530 0.26935
 C1729 C 0.20426 0.34742 0.27542
 C1730 C 0.21905 0.35947 0.29168
 C1731 C 0.23982 0.34941 0.29874
 C1732 C 0.24520 0.32803 0.29028
 C1733 C 0.23046 0.31647 0.27377
 C1734 C 0.21054 0.32709 0.26562
 H1735 H 0.14625 0.40312 0.29930
 H1736 H 0.20404 0.45791 0.32618
 H1737 H 0.13574 0.44065 0.30835
 H1738 H 0.23263 0.42856 0.32699
 H1739 H 0.24456 0.39187 0.31580
 H1740 H 0.15878 0.37987 0.27389
 H1741 H 0.17155 0.34604 0.25685
 H1742 H 0.25169 0.35724 0.31173
 H1743 H 0.26075 0.32046 0.29695
 H1744 H 0.19900 0.31895 0.25241
 C1745 C 0.11758 0.23096 0.85845
 C1746 C 0.11861 0.22937 0.83154
 C1747 C 0.09903 0.23442 0.81654
 C1748 C 0.07920 0.24019 0.82828
 C1749 C 0.07872 0.24207 0.85488
 C1750 C 0.09801 0.23742 0.86979
 C1751 C 0.09954 0.23434 0.78992
 C1752 C 0.11933 0.23047 0.77775
 C1753 C 0.13937 0.22584 0.79181
 C1754 C 0.13863 0.22394 0.81907
 C1755 C 0.15798 0.21678 0.83297
 C1756 C 0.17785 0.21339 0.82101
 C1757 C 0.17940 0.21732 0.79482
 C1758 C 0.16023 0.22335 0.77969
 C1759 C 0.16312 0.22785 0.75335
 C1760 C 0.18430 0.22744 0.74301
 C1761 C 0.20331 0.22183 0.75821
 C1762 C 0.20038 0.21628 0.78407
 H1763 H 0.13183 0.22825 0.87124
 H1764 H 0.06435 0.24421 0.81667
 H1765 H 0.09798 0.23901 0.89036
 H1766 H 0.08459 0.23796 0.77832
 H1767 H 0.11835 0.23098 0.75716
 H1768 H 0.15826 0.21345 0.85326
 H1769 H 0.19238 0.20833 0.83260
 H1770 H 0.14956 0.23299 0.74053
 H1771 H 0.18586 0.23249 0.72321
 H1772 H 0.21468 0.21271 0.79667
 C1773 C 0.59788 0.79744 0.28902
 C1774 C 0.61081 0.77817 0.28526
 C1775 C 0.60490 0.75837 0.29861
 C1776 C 0.58722 0.75831 0.31556
 C1777 C 0.57531 0.77788 0.31985
 C1778 C 0.58059 0.79722 0.30600
 C1779 C 0.61703 0.73889 0.29549
 C1780 C 0.63549 0.73873 0.28024
 C1781 C 0.64262 0.75819 0.26733
 C1782 C 0.62978 0.77811 0.26946
 C1783 C 0.63682 0.79754 0.25642
 C1784 C 0.65659 0.79807 0.24362
 C1785 C 0.66998 0.77923 0.24278
 C1786 C 0.66278 0.75875 0.25347
 C1787 C 0.67653 0.73994 0.25036
 C1788 C 0.69767 0.74216 0.24021
 C1789 C 0.70602 0.76310 0.23305
 C1790 C 0.69111 0.78116 0.23244
 H1791 H 0.60079 0.81313 0.27947
 H1792 H 0.58323 0.74321 0.32611
 H1793 H 0.57125 0.81241 0.30834
 H1794 H 0.61253 0.72365 0.30547
 H1795 H 0.64426 0.72315 0.27955
 H1796 H 0.62778 0.81298 0.25631
 H1797 H 0.66177 0.81367 0.23489
 H1798 H 0.67163 0.72335 0.25601
 H1799 H 0.70735 0.72735 0.23818
 H1800 H 0.69648 0.79738 0.22560
 C1801 C 0.56711 0.21718 0.20686
 C1802 C 0.57758 0.23834 0.20617
 C1803 C 0.56915 0.25431 0.18798
 C1804 C 0.55092 0.24915 0.17142
 C1805 C 0.54142 0.22783 0.17174
 C1806 C 0.54951 0.21202 0.18973
 C1807 C 0.57947 0.27505 0.18574
 C1808 C 0.59902 0.27974 0.19973
 C1809 C 0.60873 0.26394 0.21706
 C1810 C 0.59688 0.24370 0.22181
 C1811 C 0.60500 0.22934 0.24168
 C1812 C 0.62517 0.23351 0.25469
 C1813 C 0.63832 0.25172 0.24795
 C1814 C 0.63018 0.26738 0.22928
 C1815 C 0.64459 0.28486 0.22214
 C1816 C 0.66657 0.28572 0.23170
 C1817 C 0.67489 0.26987 0.24970
 C1818 C 0.66014 0.25350 0.25856
 H1819 H 0.57282 0.20389 0.21955
 H1820 H 0.54490 0.26135 0.15728
 H1821 H 0.54237 0.19543 0.19026
 H1822 H 0.57285 0.28753 0.17229
 H1823 H 0.60612 0.29603 0.19667
 H1824 H 0.59605 0.21469 0.24765
 H1825 H 0.63103 0.22170 0.26934
 H1826 H 0.64000 0.29715 0.20765
 H1827 H 0.67743 0.29822 0.22371
 H1828 H 0.66614 0.24086 0.27215
 C1829 C 0.10654 0.74939 0.67445
 C1830 C 0.11492 0.73469 0.69401
 C1831 C 0.10084 0.71709 0.70193
 C1832 C 0.08000 0.71351 0.68927
 C1833 C 0.07239 0.72781 0.66930
 C1834 C 0.08566 0.74598 0.66246
 C1835 C 0.10771 0.70311 0.72233
 C1836 C 0.12835 0.70603 0.73496
 C1837 C 0.14344 0.72263 0.72704
 C1838 C 0.13677 0.73683 0.70580
 C1839 C 0.15249 0.75207 0.69629
 C1840 C 0.17402 0.75319 0.70676
 C1841 C 0.18066 0.73974 0.72763
 C1842 C 0.16536 0.72488 0.73880
 C1843 C 0.17294 0.71268 0.76093
 C1844 C 0.19509 0.71435 0.77047
 C1845 C 0.21051 0.72811 0.75829
 C1846 C 0.20286 0.74072 0.73681
 H1847 H 0.11556 0.76388 0.66815
 H1848 H 0.06957 0.69968 0.69505
 H1849 H 0.08001 0.75739 0.64732
 H1850 H 0.09698 0.68972 0.72865
 H1851 H 0.13243 0.69438 0.75032
 H1852 H 0.14902 0.76275 0.67989
 H1853 H 0.18568 0.76469 0.69826
 H1854 H 0.16215 0.70167 0.77127
 H1855 H 0.20029 0.70424 0.78695
 H1856 H 0.21438 0.75119 0.72660
 C1857 C 0.91991 0.79242 0.69448
 C1858 C 0.91075 0.77296 0.70542
 C1859 C 0.91961 0.75222 0.69830
 C1860 C 0.93727 0.75130 0.68124
 C1861 C 0.94593 0.77087 0.66996
 C1862 C 0.93694 0.79135 0.67727
 C1863 C 0.91046 0.73248 0.70783
 C1864 C 0.89226 0.73281 0.72355
 C1865 C 0.88269 0.75306 0.73096
 C1866 C 0.89270 0.77345 0.72256
 C1867 C 0.88424 0.79370 0.73143
 C1868 C 0.86568 0.79421 0.74634
 C1869 C 0.85470 0.77463 0.75309
 C1870 C 0.86321 0.75373 0.74607
 C1871 C 0.85141 0.73451 0.75398
 C1872 C 0.83127 0.73622 0.76646
 C1873 C 0.82202 0.75699 0.77175
 C1874 C 0.83474 0.77606 0.76609
 H1875 H 0.91407 0.80890 0.69838
 H1876 H 0.94331 0.73515 0.67581
 H1877 H 0.94354 0.80706 0.67044
 H1878 H 0.91714 0.71651 0.70262
 H1879 H 0.88605 0.71681 0.72963
 H1880 H 0.89160 0.80965 0.72723
 H1881 H 0.85953 0.81023 0.75214
 H1882 H 0.85695 0.71788 0.75025
 H1883 H 0.82321 0.72104 0.77200
 H1884 H 0.82853 0.79242 0.77051
 C1885 C 0.39458 0.28373 0.18177
 C1886 C 0.38131 0.26481 0.18725
 C1887 C 0.38684 0.24452 0.17558
 C1888 C 0.40492 0.24345 0.15925
 C1889 C 0.41765 0.26247 0.15377
 C1890 C 0.41231 0.28251 0.16537
 C1891 C 0.37410 0.22546 0.17994
 C1892 C 0.35557 0.22612 0.19503
 C1893 C 0.34905 0.24595 0.20674
 C1894 C 0.36251 0.26547 0.20335
 C1895 C 0.35655 0.28506 0.21594
 C1896 C 0.33745 0.28603 0.22999
 C1897 C 0.32344 0.26760 0.23219
 C1898 C 0.32922 0.24715 0.22118
 C1899 C 0.31450 0.22897 0.22461
 C1900 C 0.29415 0.23165 0.23634
 C1901 C 0.28754 0.25236 0.24538
 C1902 C 0.30319 0.26989 0.24450
 H1903 H 0.39160 0.29988 0.18952
 H1904 H 0.40878 0.22786 0.15029
 H1905 H 0.42206 0.29740 0.16193
 H1906 H 0.37829 0.20986 0.17121
 H1907 H 0.34656 0.21069 0.19698
 H1908 H 0.36623 0.30015 0.21520
 H1909 H 0.33332 0.30164 0.23874
 H1910 H 0.31786 0.21253 0.21785
 H1911 H 0.28372 0.21723 0.23800
 H1912 H 0.29911 0.28600 0.25204
 C1913 C 0.40382 0.75327 0.34915
 C1914 C 0.39849 0.75881 0.32323
 C1915 C 0.41616 0.75933 0.30600
 C1916 C 0.43815 0.75435 0.31463
 C1917 C 0.44279 0.74814 0.34019
 C1918 C 0.42552 0.74797 0.35732
 C1919 C 0.41168 0.76422 0.28017
 C1920 C 0.38995 0.76774 0.27075
 C1921 C 0.37170 0.76675 0.28695
 C1922 C 0.37617 0.76305 0.31378
 C1923 C 0.35814 0.76338 0.33026
 C1924 C 0.33640 0.76571 0.32087
 C1925 C 0.33163 0.76794 0.29474
 C1926 C 0.34907 0.76897 0.27731
 C1927 C 0.34294 0.77146 0.25098
 C1928 C 0.32051 0.77222 0.24252
 C1929 C 0.30339 0.77070 0.25992
 C1930 C 0.30930 0.76871 0.28606
 H1931 H 0.39159 0.75221 0.36360
 H1932 H 0.45150 0.75440 0.30127
 H1933 H 0.42882 0.74344 0.37723
 H1934 H 0.42511 0.76486 0.26692
 H1935 H 0.38800 0.77113 0.25053
 H1936 H 0.36016 0.76180 0.35071
 H1937 H 0.32309 0.76539 0.33429
 H1938 H 0.35503 0.77231 0.23633
 H1939 H 0.31668 0.77335 0.22220
 H1940 H 0.29646 0.76737 0.29997
 C1941 C 0.90620 0.26359 0.84255
 C1942 C 0.89676 0.25275 0.82083
 C1943 C 0.91040 0.23767 0.80806
 C1944 C 0.93156 0.23189 0.81847
 C1945 C 0.93977 0.24141 0.84119
 C1946 C 0.92738 0.25790 0.85255
 C1947 C 0.90254 0.22778 0.78554
 C1948 C 0.88105 0.23189 0.77578
 C1949 C 0.86619 0.24543 0.78878
 C1950 C 0.87412 0.25580 0.81187
 C1951 C 0.85881 0.26768 0.82615
 C1952 C 0.83643 0.26873 0.81873
 C1953 C 0.82850 0.25876 0.79634
 C1954 C 0.84332 0.24791 0.78033
 C1955 C 0.83440 0.23966 0.75684
 C1956 C 0.81156 0.24114 0.75039
 C1957 C 0.79679 0.25059 0.76719
 C1958 C 0.80562 0.25930 0.79020
 H1959 H 0.89756 0.27634 0.85244
 H1960 H 0.94139 0.21934 0.80945
 H1961 H 0.93366 0.26563 0.86994
 H1962 H 0.91302 0.21646 0.77552
 H1963 H 0.87615 0.22319 0.75863
 H1964 H 0.86336 0.27540 0.84401
 H1965 H 0.82513 0.27732 0.83084
 H1966 H 0.84467 0.23215 0.74296
 H1967 H 0.80544 0.23439 0.73241
 H1968 H 0.79465 0.26684 0.80350
 C1969 C 0.62004 0.99846 0.59936
 C1970 C 0.60023 0.98602 0.60221
 C1971 C 0.59211 0.98324 0.62706
 C1972 C 0.60416 0.99162 0.64824
 C1973 C 0.62364 1.00438 0.64522
 C1974 C 0.63123 1.00783 0.62042
 C1975 C 0.57153 0.97295 0.63055
 C1976 C 0.55791 0.96716 0.60964
 C1977 C 0.56501 0.97046 0.58451
 C1978 C 0.58734 0.97779 0.58099
 C1979 C 0.59582 0.97718 0.55631
 C1980 C 0.58194 0.97268 0.53523
 C1981 C 0.55909 0.96976 0.53807
 C1982 C 0.55033 0.96786 0.56269
 C1983 C 0.52696 0.96562 0.56431
 C1984 C 0.51293 0.96869 0.54260
 C1985 C 0.52177 0.97339 0.51863
 C1986 C 0.54481 0.97097 0.51640
 H1987 H 0.62667 1.00213 0.58090
 H1988 H 0.59726 0.98956 0.66696
 H1989 H 0.64632 1.01722 0.61720
 H1990 H 0.56538 0.97040 0.64957
 H1991 H 0.54190 0.96001 0.61367
 H1992 H 0.61316 0.98026 0.55281
 H1993 H 0.58885 0.97333 0.51641
 H1994 H 0.51895 0.96383 0.58229
 H1995 H 0.49513 0.96947 0.54514
 H1996 H 0.55210 0.97205 0.49814
 C1997 C 0.09885 0.49632 1.17825
 C1998 C 0.10832 0.49347 1.15420
 C1999 C 0.13108 0.49949 1.15194
 C2000 C 0.14352 0.50817 1.17275
 C2001 C 0.13381 0.51112 1.19626
 C2002 C 0.11145 0.50494 1.19887
 C2003 C 0.14141 0.49690 1.12886
 C2004 C 0.12934 0.48993 1.10738
 C2005 C 0.10626 0.48542 1.10808
 C2006 C 0.09591 0.48564 1.13213
 C2007 C 0.07351 0.47833 1.13304
 C2008 C 0.06127 0.47254 1.11090
 C2009 C 0.07052 0.47463 1.08689
 C2010 C 0.09316 0.48120 1.08533
 C2011 C 0.10137 0.48533 1.06095
 C2012 C 0.08761 0.48389 1.03925
 C2013 C 0.06526 0.47675 1.04016
 C2014 C 0.05699 0.47167 1.06440
 H2015 H 0.08164 0.49254 1.18159
 H2016 H 0.16090 0.51258 1.17069
 H2017 H 0.10353 0.50718 1.21687
 H2018 H 0.15897 0.50070 1.12723
 H2019 H 0.13868 0.48800 1.09041
 H2020 H 0.06497 0.47688 1.15071
 H2021 H 0.04406 0.46737 1.11250
 H2022 H 0.11785 0.49181 1.05802
 H2023 H 0.09454 0.49012 1.02182
 H2024 H 0.03957 0.46728 1.06595
 C2025 C -0.06902 -0.00567 1.14410
 C2026 C -0.06869 0.01101 1.12479
 C2027 C -0.08522 0.02784 1.12457
 C2028 C -0.10091 0.02824 1.14385
 C2029 C -0.10212 0.01042 1.16147
 C2030 C -0.08583 -0.00627 1.16156
 C2031 C -0.08698 0.04304 1.10406
 C2032 C -0.07413 0.04049 1.08269
 C2033 C -0.05805 0.02343 1.08190
 C2034 C -0.05378 0.01014 1.10439
 C2035 C -0.03514 -0.00410 1.10550
 C2036 C -0.02279 -0.00742 1.08415
 C2037 C -0.02897 0.00281 1.06085
 C2038 C -0.04644 0.01866 1.05933
 C2039 C -0.05250 0.02781 1.03496
 C2040 C -0.04230 0.02060 1.01302
 C2041 C -0.02545 0.00441 1.01461
 C2042 C -0.01837 -0.00363 1.03890
 H2043 H -0.05764 -0.01956 1.14489
 H2044 H -0.11376 0.04094 1.14325
 H2045 H -0.08628 -0.02011 1.17512
 H2046 H -0.09937 0.05614 1.10378
 H2047 H -0.07697 0.05222 1.06707
 H2048 H -0.02968 -0.01281 1.12282
 H2049 H -0.00896 -0.01900 1.08560
 H2050 H -0.06594 0.03958 1.03211
 H2051 H -0.04824 0.02728 0.99469
 H2052 H -0.00528 -0.01598 1.04091
 C2053 C 0.37041 0.49177 0.63760
 C2054 C 0.38942 0.50564 0.63653
 C2055 C 0.40304 0.50775 0.65902
 C2056 C 0.39724 0.49678 0.68182
 C2057 C 0.37848 0.48254 0.68251
 C2058 C 0.36522 0.48040 0.65997
 C2059 C 0.42281 0.52008 0.65833
 C2060 C 0.43017 0.52898 0.63537
 C2061 C 0.41755 0.52650 0.61230
 C2062 C 0.39608 0.51615 0.61341
 C2063 C 0.38225 0.51588 0.59106
 C2064 C 0.39051 0.52170 0.56762
 C2065 C 0.41262 0.52842 0.56573
 C2066 C 0.42604 0.53255 0.58791
 C2067 C 0.44798 0.54054 0.58433
 C2068 C 0.45695 0.54113 0.55993
 C2069 C 0.44447 0.53355 0.53850
 C2070 C 0.42182 0.52876 0.54172
 H2071 H 0.35955 0.48862 0.62120
 H2072 H 0.40831 0.49828 0.69854
 H2073 H 0.35015 0.47046 0.65954
 H2074 H 0.43324 0.52202 0.67553
 H2075 H 0.44604 0.53745 0.63619
 H2076 H 0.36507 0.51063 0.59096
 H2077 H 0.37982 0.51970 0.55063
 H2078 H 0.45908 0.54493 0.60012
 H2079 H 0.47445 0.54519 0.55841
 H2080 H 0.41170 0.52178 0.52652
 C2081 C 0.38963 0.47196 -0.10802
 C2082 C 0.41148 0.46303 -0.10781
 C2083 C 0.42086 0.45893 -0.13168
 C2084 C 0.40909 0.46458 -0.15460
 C2085 C 0.38813 0.47484 -0.15431
 C2086 C 0.37831 0.47787 -0.13088
 C2087 C 0.44236 0.45028 -0.13258
 C2088 C 0.45554 0.44720 -0.11037
 C2089 C 0.44761 0.45263 -0.08626
 C2090 C 0.42482 0.45950 -0.08487
 C2091 C 0.41649 0.46379 -0.06066
 C2092 C 0.43052 0.46450 -0.03913
 C2093 C 0.45322 0.46029 -0.04072
 C2094 C 0.46197 0.45287 -0.06372
 C2095 C 0.48504 0.44768 -0.06336
 C2096 C 0.49898 0.45195 -0.04183
 C2097 C 0.49045 0.46156 -0.02004
 C2098 C 0.46733 0.46504 -0.01974
 H2099 H 0.38105 0.47548 -0.09089
 H2100 H 0.41692 0.46227 -0.17267
 H2101 H 0.36196 0.48538 -0.13020
 H2102 H 0.44945 0.44670 -0.15078
 H2103 H 0.47220 0.44122 -0.11282
 H2104 H 0.39926 0.46752 -0.05773
 H2105 H 0.42364 0.46922 -0.02116
 H2106 H 0.49300 0.44119 -0.07973
 H2107 H 0.51671 0.44908 -0.04296
 H2108 H 0.46012 0.47358 -0.00414
 C2109 C -0.13590 1.00962 0.34605
 C2110 C -0.11363 1.00239 0.35034
 C2111 C -0.09931 1.00339 0.32944
 C2112 C -0.10690 1.01269 0.30570
 C2113 C -0.12859 1.02130 0.30264
 C2114 C -0.14306 1.01901 0.32277
 C2115 C -0.07739 0.99572 0.33265
 C2116 C -0.06897 0.98817 0.35647
 C2117 C -0.08213 0.98833 0.37823
 C2118 C -0.10497 0.99516 0.37491
 C2119 C -0.11813 0.99585 0.39660
 C2120 C -0.10891 0.99233 0.42084
 C2121 C -0.08648 0.98702 0.42449
 C2122 C -0.07300 0.98342 0.40349
 C2123 C -0.05072 0.97639 0.40907
 C2124 C -0.04197 0.97510 0.43445
 C2125 C -0.05496 0.98116 0.45497
 C2126 C -0.07732 0.98686 0.44929
 H2127 H -0.14833 1.00858 0.36025
 H2128 H -0.09572 1.01400 0.28998
 H2129 H -0.16016 1.02469 0.32051
 H2130 H -0.06642 0.99608 0.31669
 H2131 H -0.05173 0.98317 0.35752
 H2132 H -0.13549 1.00026 0.39586
 H2133 H -0.11941 0.99438 0.43703
 H2134 H -0.03953 0.97239 0.39423
 H2135 H -0.02454 0.97097 0.43778
 H2136 H -0.08758 0.99335 0.46387
 C2137 C 0.07859 0.51843 0.34587
 C2138 C 0.08107 0.52335 0.37216
 C2139 C 0.10299 0.52360 0.38338
 C2140 C 0.12131 0.51739 0.36914
 C2141 C 0.11822 0.51167 0.34348
 C2142 C 0.09689 0.51272 0.33188
 C2143 C 0.10644 0.52968 0.40881
 C2144 C 0.08856 0.53484 0.42370
 C2145 C 0.06636 0.53339 0.41389
 C2146 C 0.06255 0.52736 0.38777
 C2147 C 0.04035 0.52412 0.37858
 C2148 C 0.02269 0.52483 0.39482
 C2149 C 0.02631 0.52973 0.42053
 C2150 C 0.04784 0.53580 0.42995
 C2151 C 0.04992 0.54305 0.45548
 C2152 C 0.03233 0.54030 0.47195
 C2153 C 0.01257 0.52966 0.46368
 C2154 C 0.00887 0.52685 0.43730
 H2155 H 0.06278 0.51896 0.33543
 H2156 H 0.13796 0.51702 0.37794
 H2157 H 0.09433 0.50870 0.31189
 H2158 H 0.12314 0.53014 0.41744
 H2159 H 0.09258 0.53865 0.44339
 H2160 H 0.03608 0.51947 0.35925
 H2161 H 0.00612 0.52070 0.38735
 H2162 H 0.06511 0.55023 0.46339
 H2163 H 0.03495 0.54509 0.49159
 H2164 H -0.00692 0.52036 0.42993
 C2165 C 0.58598 0.00997 -0.18295
 C2166 C 0.59505 0.00857 -0.15762
 C2167 C 0.61749 0.00130 -0.15411
 C2168 C 0.63003 -0.00434 -0.17502
 C2169 C 0.62072 -0.00329 -0.19986
 C2170 C 0.59867 0.00411 -0.20368
 C2171 C 0.62738 -0.00049 -0.12971
 C2172 C 0.61504 0.00311 -0.10844
 C2173 C 0.59223 0.00868 -0.11082
 C2174 C 0.58251 0.01327 -0.13560
 C2175 C 0.56068 0.02216 -0.13730
 C2176 C 0.54843 0.02523 -0.11546
 C2177 C 0.55696 0.01843 -0.09135
 C2178 C 0.57884 0.00959 -0.08906
 C2179 C 0.58603 0.00016 -0.06547
 C2180 C 0.57229 -0.00025 -0.04498
 C2181 C 0.55115 0.00998 -0.04610
 C2182 C 0.54354 0.01931 -0.06970
 H2183 H 0.56898 0.01489 -0.18728
 H2184 H 0.64721 -0.00960 -0.17192
 H2185 H 0.59103 0.00496 -0.22275
 H2186 H 0.64473 -0.00524 -0.12696
 H2187 H 0.62395 0.00174 -0.09019
 H2188 H 0.55275 0.02719 -0.15530
 H2189 H 0.53177 0.03207 -0.11763
 H2190 H 0.60161 -0.00863 -0.06273
 H2191 H 0.57850 -0.00928 -0.02815
 H2192 H 0.52683 0.02607 -0.07162
 C2193 C 0.66847 0.57631 0.03225
 C2194 C 0.66319 0.55721 0.01798
 C2195 C 0.68098 0.54369 0.01045
 C2196 C 0.70337 0.55013 0.01583
 C2197 C 0.70839 0.56933 0.03021
 C2198 C 0.69038 0.58215 0.03814
 C2199 C 0.67620 0.52364 -0.00187
 C2200 C 0.65420 0.51638 -0.00587
 C2201 C 0.63601 0.52943 0.00132
 C2202 C 0.64072 0.55078 0.01199
 C2203 C 0.62279 0.56513 0.01646
 C2204 C 0.60100 0.55799 0.01361
 C2205 C 0.59613 0.53640 0.00596
 C2206 C 0.61328 0.52192 -0.00116
 C2207 C 0.60684 0.50025 -0.00899
 C2208 C 0.58456 0.49303 -0.00790
 C2209 C 0.56798 0.50712 0.00092
 C2210 C 0.57414 0.52902 0.00692
 H2211 H 0.65602 0.58693 0.03987
 H2212 H 0.71672 0.53956 0.00988
 H2213 H 0.69295 0.59760 0.04818
 H2214 H 0.68962 0.51311 -0.00779
 H2215 H 0.65191 0.50049 -0.01488
 H2216 H 0.62504 0.58218 0.02211
 H2217 H 0.58779 0.56936 0.01819
 H2218 H 0.61879 0.48818 -0.01485
 H2219 H 0.58065 0.47592 -0.01253
 H2220 H 0.56239 0.53997 0.01534
 C2221 C 0.14360 1.02226 0.50413
 C2222 C 0.12482 1.03302 0.51391
 C2223 C 0.12859 1.05346 0.52658
 C2224 C 0.14997 1.06253 0.52921
 C2225 C 0.16837 1.05189 0.51936
 C2226 C 0.16501 1.03167 0.50673
 C2227 C 0.11099 1.06505 0.53651
 C2228 C 0.08937 1.05756 0.53295
 C2229 C 0.08447 1.03804 0.51921
 C2230 C 0.10242 1.02471 0.51105
 C2231 C 0.09721 1.00366 0.50063
 C2232 C 0.07514 0.99619 0.49795
 C2233 C 0.05741 1.00985 0.50423
 C2234 C 0.06206 1.03127 0.51399
 C2235 C 0.04406 1.04560 0.51749
 C2236 C 0.02236 1.03838 0.51369
 C2237 C 0.01715 1.01666 0.50617
 C2238 C 0.03504 1.00247 0.50089
 H2239 H 0.14216 1.00689 0.49386
 H2240 H 0.15217 1.07850 0.53834
 H2241 H 0.17895 1.02312 0.49885
 H2242 H 0.11392 1.08031 0.54691
 H2243 H 0.07679 1.06719 0.54184
 H2244 H 0.10996 0.99234 0.49502
 H2245 H 0.07193 0.97976 0.49039
 H2246 H 0.04615 1.06280 0.52264
 H2247 H 0.00979 1.05029 0.51736
 H2248 H 0.03167 0.98569 0.49452
 C2249 C 0.16179 -0.05562 0.93061
 C2250 C 0.14993 -0.05146 0.95290
 C2251 C 0.16056 -0.05680 0.97688
 C2252 C 0.18183 -0.06630 0.97824
 C2253 C 0.19286 -0.07110 0.95599
 C2254 C 0.18287 -0.06536 0.93223
 C2255 C 0.14967 -0.05334 0.99944
 C2256 C 0.12788 -0.04582 0.99885
 C2257 C 0.11612 -0.04128 0.97549
 C2258 C 0.12765 -0.04313 0.95219
 C2259 C 0.11636 -0.03702 0.92897
 C2260 C 0.09415 -0.03079 0.92829
 C2261 C 0.08228 -0.03059 0.95060
 C2262 C 0.09306 -0.03541 0.97457
 C2263 C 0.08009 -0.03467 0.99654
 C2264 C 0.05725 -0.03057 0.99443
 C2265 C 0.04642 -0.02745 0.97044
 C2266 C 0.05946 -0.02599 0.94888
 H2267 H 0.15508 -0.05224 0.91158
 H2268 H 0.18937 -0.07098 0.99671
 H2269 H 0.19126 -0.06872 0.91478
 H2270 H 0.15790 -0.05706 1.01782
 H2271 H 0.12070 -0.04391 1.01718
 H2272 H 0.12418 -0.03694 0.91083
 H2273 H 0.08602 -0.02671 0.90995
 H2274 H 0.08683 -0.03775 1.01561
 H2275 H 0.04797 -0.03063 1.01175
 H2276 H 0.05201 -0.02136 0.93049
 C2277 C 0.63059 0.45843 0.46449
 C2278 C 0.61994 0.46174 0.48767
 C2279 C 0.62931 0.45147 0.51014
 C2280 C 0.64946 0.43962 0.50944
 C2281 C 0.65966 0.43604 0.48611
 C2282 C 0.64979 0.44557 0.46372
 C2283 C 0.61812 0.45248 0.53298
 C2284 C 0.59724 0.46244 0.53364
 C2285 C 0.58731 0.47286 0.51168
 C2286 C 0.59971 0.47398 0.48896
 C2287 C 0.59157 0.48736 0.46828
 C2288 C 0.57105 0.49775 0.46890
 C2289 C 0.55756 0.49455 0.48972
 C2290 C 0.56537 0.48211 0.51146
 C2291 C 0.55043 0.47857 0.53144
 C2292 C 0.52832 0.48591 0.52900
 C2293 C 0.52045 0.49720 0.50683
 C2294 C 0.53580 0.50282 0.48817
 H2295 H 0.62394 0.46478 0.44638
 H2296 H 0.65624 0.43182 0.52687
 H2297 H 0.65728 0.44375 0.44540
 H2298 H 0.62519 0.44477 0.55032
 H2299 H 0.58943 0.46218 0.55183
 H2300 H 0.60096 0.49044 0.45143
 H2301 H 0.56526 0.50755 0.45237
 H2302 H 0.55498 0.46914 0.54855
 H2303 H 0.51732 0.48226 0.54435
 H2304 H 0.53039 0.51199 0.47105
 C2305 C -0.16661 0.41758 0.50777
 C2306 C -0.16201 0.43979 0.50003
 C2307 C -0.17936 0.45568 0.50110
 C2308 C -0.20057 0.44918 0.50929
 C2309 C -0.20445 0.42714 0.51741
 C2310 C -0.18739 0.41151 0.51630
 C2311 C -0.17516 0.47799 0.49475
 C2312 C -0.15385 0.48510 0.48857
 C2313 C -0.13593 0.46998 0.48790
 C2314 C -0.14046 0.44681 0.49255
 C2315 C -0.12309 0.43135 0.49023
 C2316 C -0.10151 0.43831 0.48703
 C2317 C -0.09645 0.46087 0.48498
 C2318 C -0.11344 0.47709 0.48385
 C2319 C -0.10675 0.49963 0.48025
 C2320 C -0.08400 0.50559 0.47994
 C2321 C -0.06729 0.48937 0.48371
 C2322 C -0.07414 0.46707 0.48571
 H2323 H -0.15438 0.40451 0.50838
 H2324 H -0.21379 0.46137 0.51026
 H2325 H -0.19013 0.39437 0.52227
 H2326 H -0.18835 0.49024 0.49537
 H2327 H -0.15178 0.50267 0.48473
 H2328 H -0.12547 0.41359 0.49125
 H2329 H -0.08848 0.42583 0.48676
 H2330 H -0.11863 0.51305 0.47855
 H2331 H -0.07955 0.52306 0.47868
 H2332 H -0.06246 0.45420 0.49117
 C2333 C 0.36410 -0.07736 0.01035
 C2334 C 0.37079 -0.05623 0.00117
 C2335 C 0.35408 -0.04112 -0.00792
 C2336 C 0.33139 -0.04618 -0.00464
 C2337 C 0.32542 -0.06636 0.00724
 C2338 C 0.34184 -0.08216 0.01351
 C2339 C 0.36030 -0.02105 -0.01963
 C2340 C 0.38276 -0.01554 -0.02203
 C2341 C 0.39984 -0.02943 -0.01151
 C2342 C 0.39354 -0.04973 0.00105
 C2343 C 0.40996 -0.06238 0.01461
 C2344 C 0.43193 -0.05588 0.01535
 C2345 C 0.43854 -0.03684 0.00218
 C2346 C 0.42297 -0.02347 -0.01196
 C2347 C 0.43141 -0.00475 -0.02552
 C2348 C 0.45434 0.00041 -0.02442
 C2349 C 0.46940 -0.01275 -0.00961
 C2350 C 0.46089 -0.03109 0.00378
 H2351 H 0.37567 -0.09064 0.01508
 H2352 H 0.31855 -0.03428 -0.01046
 H2353 H 0.33737 -0.09834 0.02134
 H2354 H 0.34768 -0.00949 -0.02699
 H2355 H 0.38630 0.00024 -0.03118
 H2356 H 0.40622 -0.07689 0.02608
 H2357 H 0.44393 -0.06593 0.02645
 H2358 H 0.42072 0.00600 -0.03726
 H2359 H 0.46019 0.01491 -0.03480
 H2360 H 0.47169 -0.04120 0.01617
 C2361 C 0.33879 1.08261 0.47658
 C2362 C 0.34580 1.06111 0.48494
 C2363 C 0.32925 1.04436 0.48730
 C2364 C 0.30665 1.04923 0.48152
 C2365 C 0.30022 1.07058 0.47286
 C2366 C 0.31648 1.08716 0.47077
 C2367 C 0.33540 1.02280 0.49504
 C2368 C 0.35770 1.01721 0.49960
 C2369 C 0.37484 1.03313 0.49684
 C2370 C 0.36868 1.05561 0.49023
 C2371 C 0.38564 1.07183 0.48864
 C2372 C 0.40787 1.06607 0.49103
 C2373 C 0.41418 1.04405 0.49559
 C2374 C 0.39799 1.02731 0.49954
 C2375 C 0.40581 1.00534 0.50465
 C2376 C 0.42852 1.00016 0.50361
 C2377 C 0.44420 1.01661 0.49750
 C2378 C 0.43670 1.03866 0.49454
 H2379 H 0.35005 1.09635 0.47390
 H2380 H 0.29411 1.03631 0.48324
 H2381 H 0.31190 1.10395 0.46475
 H2382 H 0.32284 1.00995 0.49709
 H2383 H 0.36100 1.00012 0.50503
 H2384 H 0.38242 1.08925 0.48515
 H2385 H 0.42031 1.07900 0.48863
 H2386 H 0.39476 0.99163 0.50850
 H2387 H 0.43352 0.98292 0.50608
 H2388 H 0.44784 1.05156 0.48822
 C2389 C -0.13427 0.53601 0.96636
 C2390 C -0.11898 0.53682 0.98767
 C2391 C -0.12471 0.55010 1.00854
 C2392 C -0.14521 0.56145 1.00818
 C2393 C -0.15989 0.56065 0.98675
 C2394 C -0.15425 0.54790 0.96592
 C2395 C -0.10971 0.55247 1.02936
 C2396 C -0.08874 0.54266 1.02959
 C2397 C -0.08210 0.52947 1.00919
 C2398 C -0.09792 0.52560 0.98853
 C2399 C -0.09220 0.51060 0.96943
 C2400 C -0.07134 0.50074 0.96960
 C2401 C -0.05517 0.50571 0.98848
 C2402 C -0.06018 0.52004 1.00863
 C2403 C -0.04278 0.52477 1.02686
 C2404 C -0.02118 0.51649 1.02425
 C2405 C -0.01617 0.50321 1.00347
 C2406 C -0.03374 0.49684 0.98672
 H2407 H -0.13096 0.52704 0.94931
 H2408 H -0.14937 0.57171 1.02414
 H2409 H -0.16530 0.54734 0.94908
 H2410 H -0.11402 0.56251 1.04543
 H2411 H -0.07814 0.54549 1.04629
 H2412 H -0.10366 0.50585 0.95413
 H2413 H -0.06763 0.48956 0.95430
 H2414 H -0.04501 0.53561 1.04271
 H2415 H -0.00817 0.52144 1.03791
 H2416 H -0.03072 0.48546 0.97154
 C2417 C 0.01729 0.63756 0.62165
 C2418 C 0.01237 0.63574 0.59507
 C2419 C 0.01340 0.65542 0.57979
 C2420 C 0.01766 0.67618 0.59115
 C2421 C 0.02195 0.67765 0.61759
 C2422 C 0.02210 0.65816 0.63259
 C2423 C 0.01032 0.65424 0.55328
 C2424 C 0.00645 0.63392 0.54147
 C2425 C 0.00461 0.61392 0.55586
 C2426 C 0.00677 0.61505 0.58317
 C2427 C 0.00263 0.59561 0.59776
 C2428 C -0.00277 0.57562 0.58621
 C2429 C -0.00374 0.57395 0.55968
 C2430 C 0.00022 0.59288 0.54400
 C2431 C -0.00031 0.58976 0.51717
 C2432 C -0.00430 0.56869 0.50667
 C2433 C -0.00786 0.54998 0.52240
 C2434 C -0.00849 0.55320 0.54890
 H2435 H 0.01807 0.62333 0.63447
 H2436 H 0.01802 0.69121 0.57938
 H2437 H 0.02570 0.65892 0.65299
 H2438 H 0.01118 0.66920 0.54146
 H2439 H 0.00432 0.63450 0.52095
 H2440 H 0.00274 0.59544 0.61833
 H2441 H -0.00596 0.56119 0.59827
 H2442 H 0.00277 0.60316 0.50381
 H2443 H -0.00457 0.56715 0.48612
 H2444 H -0.01190 0.53928 0.56161
 C2445 C 0.53254 0.13908 0.10160
 C2446 C 0.52704 0.13753 0.07524
 C2447 C 0.51391 0.15467 0.06349
 C2448 C 0.50871 0.17386 0.07730
 C2449 C 0.51547 0.17569 0.10327
 C2450 C 0.52664 0.15763 0.11528
 C2451 C 0.50603 0.15236 0.03815
 C2452 C 0.51024 0.13301 0.02469
 C2453 C 0.52366 0.11577 0.03561
 C2454 C 0.53341 0.11897 0.06063
 C2455 C 0.54950 0.10367 0.07028
 C2456 C 0.55398 0.08445 0.05736
 C2457 C 0.54238 0.07956 0.03459
 C2458 C 0.52748 0.09522 0.02286
 C2459 C 0.51611 0.08888 -0.00016
 C2460 C 0.51798 0.06715 -0.00952
 C2461 C 0.53152 0.05121 0.00345
 C2462 C 0.54456 0.05830 0.02469
 H2463 H 0.54072 0.12579 0.11242
 H2464 H 0.49969 0.18739 0.06768
 H2465 H 0.53087 0.15770 0.13556
 H2466 H 0.49596 0.16534 0.02890
 H2467 H 0.50317 0.13217 0.00549
 H2468 H 0.55912 0.10631 0.08780
 H2469 H 0.56598 0.07278 0.06593
 H2470 H 0.50448 0.09982 -0.01031
 H2471 H 0.50750 0.06239 -0.02583
 H2472 H 0.55472 0.04651 0.03572
 C2473 C -0.03174 0.13792 0.87492
 C2474 C -0.02470 0.13093 0.89993
 C2475 C -0.01721 0.14753 0.91720
 C2476 C -0.01614 0.16998 0.90924
 C2477 C -0.02293 0.17643 0.88430
 C2478 C -0.03086 0.16025 0.86737
 C2479 C -0.01086 0.14166 0.94232
 C2480 C -0.01157 0.11960 0.95078
 C2481 C -0.01830 0.10233 0.93421
 C2482 C -0.02476 0.10811 0.90828
 C2483 C -0.03054 0.09083 0.89134
 C2484 C -0.02972 0.06873 0.89917
 C2485 C -0.02349 0.06284 0.92425
 C2486 C -0.01817 0.07940 0.94239
 C2487 C -0.01243 0.07211 0.96771
 C2488 C -0.01131 0.04940 0.97423
 C2489 C -0.01618 0.03312 0.95596
 C2490 C -0.02199 0.04025 0.93092
 H2491 H -0.03826 0.12670 0.86068
 H2492 H -0.01035 0.18255 0.92257
 H2493 H -0.03621 0.16488 0.84800
 H2494 H -0.00525 0.15429 0.95565
 H2495 H -0.00625 0.11657 0.97040
 H2496 H -0.03523 0.09368 0.87152
 H2497 H -0.03389 0.05605 0.88528
 H2498 H -0.00845 0.08349 0.98289
 H2499 H -0.00596 0.04463 0.99352
 H2500 H -0.02462 0.02825 0.91593
 C2501 C 0.49896 0.67289 0.42923
 C2502 C 0.48589 0.65425 0.42159
 C2503 C 0.47535 0.65523 0.39687
 C2504 C 0.47750 0.67407 0.38101
 C2505 C 0.48951 0.69275 0.38930
 C2506 C 0.50063 0.69183 0.41332
 C2507 C 0.46227 0.63761 0.38810
 C2508 C 0.45884 0.61905 0.40346
 C2509 C 0.46847 0.61724 0.42845
 C2510 C 0.48268 0.63484 0.43750
 C2511 C 0.49325 0.63228 0.46198
 C2512 C 0.49039 0.61306 0.47685
 C2513 C 0.47655 0.59579 0.46828
 C2514 C 0.46489 0.59800 0.44429
 C2515 C 0.45035 0.58060 0.43686
 C2516 C 0.44928 0.56100 0.45116
 C2517 C 0.46177 0.55804 0.47424
 C2518 C 0.47486 0.57599 0.48310
 H2519 H 0.50758 0.67365 0.44762
 H2520 H 0.46919 0.67445 0.36223
 H2521 H 0.50991 0.70612 0.42029
 H2522 H 0.45439 0.63822 0.36911
 H2523 H 0.44876 0.60618 0.39479
 H2524 H 0.50428 0.64470 0.47003
 H2525 H 0.49929 0.61164 0.49522
 H2526 H 0.43983 0.58123 0.41976
 H2527 H 0.43902 0.54774 0.44333
 H2528 H 0.48469 0.57416 0.50081
 C2529 C 0.54995 0.84796 0.41506
 C2530 C 0.52909 0.85902 0.41457
 C2531 C 0.51161 0.85015 0.39878
 C2532 C 0.51480 0.83071 0.38499
 C2533 C 0.53541 0.81985 0.38596
 C2534 C 0.55301 0.82875 0.40086
 C2535 C 0.49099 0.86071 0.39670
 C2536 C 0.48737 0.88037 0.40934
 C2537 C 0.50424 0.89013 0.42501
 C2538 C 0.52506 0.87873 0.42869
 C2539 C 0.54096 0.88729 0.44655
 C2540 C 0.53697 0.90670 0.45970
 C2541 C 0.51741 0.91883 0.45490
 C2542 C 0.50092 0.91090 0.43722
 C2543 C 0.48215 0.92457 0.43172
 C2544 C 0.48022 0.94536 0.44278
 C2545 C 0.49661 0.95332 0.46020
 C2546 C 0.51470 0.93934 0.46692
 H2547 H 0.56434 0.85395 0.42582
 H2548 H 0.50125 0.82418 0.37300
 H2549 H 0.56914 0.82067 0.40174
 H2550 H 0.47751 0.85383 0.38490
 H2551 H 0.47087 0.88726 0.40687
 H2552 H 0.55658 0.87910 0.45117
 H2553 H 0.54969 0.91268 0.47318
 H2554 H 0.46915 0.92024 0.41794
 H2555 H 0.46593 0.95541 0.43690
 H2556 H 0.52765 0.94499 0.48006
 C2557 C 0.05643 0.33910 0.90265
 C2558 C 0.04729 0.34373 0.92647
 C2559 C 0.03443 0.32686 0.93820
 C2560 C 0.03196 0.30578 0.92681
 C2561 C 0.04205 0.30132 0.90366
 C2562 C 0.05389 0.31834 0.89164
 C2563 C 0.02409 0.33125 0.96105
 C2564 C 0.02581 0.35217 0.97223
 C2565 C 0.03849 0.36946 0.96128
 C2566 C 0.05001 0.36479 0.93850
 C2567 C 0.06404 0.38131 0.92839
 C2568 C 0.06503 0.40237 0.93836
 C2569 C 0.05260 0.40775 0.95923
 C2570 C 0.03985 0.39143 0.97184
 C2571 C 0.02858 0.39826 0.99379
 C2572 C 0.02927 0.42061 1.00179
 C2573 C 0.04108 0.43685 0.98816
 C2574 C 0.05256 0.42980 0.96684
 H2575 H 0.06526 0.35126 0.89156
 H2576 H 0.02249 0.29278 0.93611
 H2577 H 0.06111 0.31565 0.87332
 H2578 H 0.01423 0.31847 0.97018
 H2579 H 0.01700 0.35436 0.98954
 H2580 H 0.07460 0.37857 0.91261
 H2581 H 0.07551 0.41474 0.92935
 H2582 H 0.01867 0.38685 1.00473
 H2583 H 0.01974 0.42533 1.01795
 H2584 H 0.06104 0.44175 0.95494
 C2585 C 0.47585 0.31921 0.05039
 C2586 C 0.48273 0.33821 0.06438
 C2587 C 0.48075 0.33724 0.09132
 C2588 C 0.47166 0.31848 0.10334
 C2589 C 0.46526 0.29984 0.08931
 C2590 C 0.46756 0.30020 0.06282
 C2591 C 0.48820 0.35484 0.10633
 C2592 C 0.49812 0.37331 0.09541
 C2593 C 0.50055 0.37520 0.06875
 C2594 C 0.49183 0.35792 0.05282
 C2595 C 0.49196 0.36130 0.02602
 C2596 C 0.49982 0.38114 0.01527
 C2597 C 0.50870 0.39798 0.03070
 C2598 C 0.51025 0.39457 0.05755
 C2599 C 0.52120 0.41096 0.07232
 C2600 C 0.52654 0.43147 0.06162
 C2601 C 0.52146 0.43642 0.03571
 C2602 C 0.51488 0.41872 0.01980
 H2603 H 0.47742 0.31825 0.03002
 H2604 H 0.47044 0.31793 0.12397
 H2605 H 0.46314 0.28565 0.05177
 H2606 H 0.48654 0.35424 0.12687
 H2607 H 0.50291 0.38636 0.10838
 H2608 H 0.48508 0.34928 0.01285
 H2609 H 0.49863 0.38345 -0.00531
 H2610 H 0.52547 0.40858 0.09237
 H2611 H 0.53369 0.44382 0.07433
 H2612 H 0.51220 0.42173 -0.00052
 C2613 C -0.00531 0.83003 0.56177
 C2614 C -0.01577 0.84986 0.56940
 C2615 C -0.02508 0.84967 0.59388
 C2616 C -0.02338 0.83090 0.60998
 C2617 C -0.01443 0.81086 0.60174
 C2618 C -0.00497 0.81075 0.57758
 C2619 C -0.03661 0.86806 0.60219
 C2620 C -0.04037 0.88629 0.58618
 C2621 C -0.03187 0.88724 0.56147
 C2622 C -0.01791 0.86966 0.55363
 C2623 C -0.00630 0.87298 0.53085
 C2624 C -0.00805 0.89307 0.51673
 C2625 C -0.02278 0.90983 0.52363
 C2626 C -0.03594 0.90607 0.54512
 C2627 C -0.05278 0.92140 0.54977
 C2628 C -0.05421 0.94139 0.53640
 C2629 C -0.03933 0.94710 0.51713
 C2630 C -0.02412 0.93057 0.51006
 H2631 H 0.00173 0.82871 0.54322
 H2632 H -0.02982 0.83181 0.62898
 H2633 H 0.00210 0.79561 0.57051
 H2634 H -0.04339 0.86814 0.62108
 H2635 H -0.04922 0.89998 0.59415
 H2636 H 0.00519 0.86071 0.52434
 H2637 H 0.00200 0.89541 0.50016
 H2638 H -0.06495 0.91851 0.56410
 H2639 H -0.06618 0.95303 0.54315
 H2640 H -0.01263 0.93422 0.49509
 C2641 C 0.25856 0.38604 0.11943
 C2642 C 0.24456 0.36706 0.11988
 C2643 C 0.23874 0.35711 0.09622
 C2644 C 0.24760 0.36539 0.07332
 C2645 C 0.26322 0.38305 0.07355
 C2646 C 0.26776 0.39365 0.09689
 C2647 C 0.22500 0.33827 0.09570
 C2648 C 0.21814 0.32816 0.11825
 C2649 C 0.22471 0.33660 0.14238
 C2650 C 0.23728 0.35696 0.14310
 C2651 C 0.24318 0.36596 0.16713
 C2652 C 0.23949 0.35426 0.18954
 C2653 C 0.22917 0.33347 0.18904
 C2654 C 0.22037 0.32482 0.16584
 C2655 C 0.20895 0.30411 0.16722
 C2656 C 0.20842 0.29172 0.19028
 C2657 C 0.21934 0.29944 0.21264
 C2658 C 0.22905 0.32077 0.21163
 H2659 H 0.26342 0.39515 0.13625
 H2660 H 0.24371 0.35667 0.05578
 H2661 H 0.27844 0.40819 0.09795
 H2662 H 0.22017 0.33073 0.07767
 H2663 H 0.20824 0.31326 0.11619
 H2664 H 0.25146 0.38175 0.16942
 H2665 H 0.24548 0.36128 0.20747
 H2666 H 0.20105 0.29661 0.15066
 H2667 H 0.20085 0.27533 0.19006
 H2668 H 0.23868 0.32699 0.22781
 C2669 C 0.73614 0.82579 0.60163
 C2670 C 0.73118 0.83237 0.62657
 C2671 C 0.72499 0.85487 0.63008
 C2672 C 0.72593 0.87047 0.60973
 C2673 C 0.73207 0.86371 0.58557
 C2674 C 0.73658 0.84125 0.58158
 C2675 C 0.71829 0.86167 0.65394
 C2676 C 0.71816 0.84678 0.67461
 C2677 C 0.72571 0.82467 0.67245
 C2678 C 0.73274 0.81750 0.64814
 C2679 C 0.74251 0.79623 0.64653
 C2680 C 0.74663 0.78303 0.66815
 C2681 C 0.74029 0.79002 0.69198
 C2682 C 0.72826 0.81007 0.69423
 C2683 C 0.72006 0.81488 0.71847
 C2684 C 0.72663 0.80214 0.74008
 C2685 C 0.74214 0.78485 0.73827
 C2686 C 0.74718 0.77772 0.71380
 H2687 H 0.73958 0.80880 0.59688
 H2688 H 0.72194 0.88782 0.61264
 H2689 H 0.74096 0.83570 0.56286
 H2690 H 0.71328 0.87876 0.65673
 H2691 H 0.71333 0.85345 0.69255
 H2692 H 0.74867 0.78985 0.62908
 H2693 H 0.75545 0.76745 0.66626
 H2694 H 0.70901 0.82867 0.72133
 H2695 H 0.72095 0.80712 0.75846
 H2696 H 0.75776 0.76337 0.71153
 C2697 C 0.24857 0.61334 0.62412
 C2698 C 0.25833 0.63483 0.62543
 C2699 C 0.25822 0.64800 0.60268
 C2700 C 0.24779 0.64017 0.58001
 C2701 C 0.23701 0.61940 0.57965
 C2702 C 0.23804 0.60591 0.60169
 C2703 C 0.26772 0.66926 0.60293
 C2704 C 0.27603 0.67841 0.62561
 C2705 C 0.27511 0.66658 0.64908
 C2706 C 0.26696 0.64410 0.64877
 C2707 C 0.26655 0.63200 0.67209
 C2708 C 0.27096 0.64227 0.69513
 C2709 C 0.27678 0.66471 0.69585
 C2710 C 0.28053 0.67687 0.67307
 C2711 C 0.28802 0.69921 0.67554
 C2712 C 0.28907 0.70953 0.69943
 C2713 C 0.28253 0.69803 0.72150
 C2714 C 0.27720 0.67532 0.71931
 H2715 H 0.24816 0.60195 0.64019
 H2716 H 0.24714 0.65070 0.56297
 H2717 H 0.23040 0.58954 0.60168
 H2718 H 0.26803 0.67928 0.58551
 H2719 H 0.28232 0.69520 0.62428
 H2720 H 0.26192 0.61471 0.67342
 H2721 H 0.26899 0.63270 0.71266
 H2722 H 0.29228 0.70941 0.65931
 H2723 H 0.29329 0.72706 0.70020
 H2724 H 0.27097 0.66606 0.73540
 C2725 C 0.72117 0.15322 0.11166
 C2726 C 0.73943 0.16704 0.11849
 C2727 C 0.76098 0.16024 0.11201
 C2728 C 0.76363 0.14154 0.09667
 C2729 C 0.74519 0.12825 0.08925
 C2730 C 0.72408 0.13406 0.09768
 C2731 C 0.77968 0.17198 0.12118
 C2732 C 0.77740 0.18980 0.13754
 C2733 C 0.75614 0.19742 0.14393
 C2734 C 0.73696 0.18688 0.13250
 C2735 C 0.71588 0.19662 0.13513
 C2736 C 0.71326 0.21462 0.15080
 C2737 C 0.73138 0.22298 0.16507
 C2738 C 0.75317 0.21488 0.16165
 C2739 C 0.77073 0.22379 0.17723
 C2740 C 0.76624 0.23801 0.19731
 C2741 C 0.74426 0.24377 0.20228
 C2742 C 0.72739 0.23817 0.18418
 H2743 H 0.70448 0.15650 0.11750
 H2744 H 0.78024 0.13684 0.09140
 H2745 H 0.70933 0.12459 0.09224
 H2746 H 0.79628 0.16688 0.11636
 H2747 H 0.79257 0.19772 0.14439
 H2748 H 0.70110 0.19078 0.12490
 H2749 H 0.69665 0.22123 0.15287
 H2750 H 0.78787 0.21895 0.17548
 H2751 H 0.77995 0.24374 0.20935
 H2752 H 0.71038 0.24347 0.18663
 C2753 C 0.74607 0.17109 0.93603
 C2754 C 0.73880 0.16447 0.91120
 C2755 C 0.73884 0.14136 0.90603
 C2756 C 0.74742 0.12596 0.92433
 C2757 C 0.75585 0.13304 0.94812
 C2758 C 0.75445 0.15557 0.95411
 C2759 C 0.73105 0.13376 0.88234
 C2760 C 0.72432 0.14863 0.86298
 C2761 C 0.72550 0.17187 0.86644
 C2762 C 0.73245 0.17994 0.89109
 C2763 C 0.73408 0.20320 0.89433
 C2764 C 0.73114 0.21794 0.87378
 C2765 C 0.72587 0.21020 0.84936
 C2766 C 0.72159 0.18729 0.84558
 C2767 C 0.71463 0.18077 0.82069
 C2768 C 0.71546 0.19570 0.79997
 C2769 C 0.72325 0.21751 0.80326
 C2770 C 0.72636 0.22507 0.82842
 H2771 H 0.74589 0.18814 0.94203
 H2772 H 0.74798 0.10840 0.91987
 H2773 H 0.76063 0.16133 0.97255
 H2774 H 0.73072 0.11608 0.87844
 H2775 H 0.71929 0.14132 0.84503
 H2776 H 0.73874 0.21061 0.91232
 H2777 H 0.73385 0.23556 0.87689
 H2778 H 0.70910 0.16411 0.81643
 H2779 H 0.71079 0.18957 0.78138
 H2780 H 0.73109 0.24224 0.83178
 C2781 C 0.22113 0.68451 0.41553
 C2782 C 0.21706 0.68026 0.38925
 C2783 C 0.21373 0.65780 0.38199
 C2784 C 0.21711 0.64036 0.39995
 C2785 C 0.22297 0.64495 0.42542
 C2786 C 0.22406 0.66705 0.43327
 C2787 C 0.20796 0.65284 0.35668
 C2788 C 0.20634 0.66960 0.33808
 C2789 C 0.21138 0.69196 0.34394
 C2790 C 0.21709 0.69734 0.36989
 C2791 C 0.22434 0.71922 0.37531
 C2792 C 0.22743 0.73482 0.35588
 C2793 C 0.22244 0.72959 0.33048
 C2794 C 0.21282 0.70872 0.32436
 C2795 C 0.20580 0.70531 0.29867
 C2796 C 0.21129 0.72058 0.27951
 C2797 C 0.22439 0.73938 0.28518
 C2798 C 0.22824 0.74462 0.31101
 H2799 H 0.22239 0.70110 0.42295
 H2800 H 0.21586 0.62317 0.39401
 H2801 H 0.22826 0.67084 0.45303
 H2802 H 0.20510 0.63574 0.35108
 H2803 H 0.20258 0.66427 0.31884
 H2804 H 0.22930 0.72441 0.39428
 H2805 H 0.23438 0.75095 0.36075
 H2806 H 0.19632 0.69088 0.29278
 H2807 H 0.20599 0.71697 0.26008
 H2808 H 0.23702 0.75978 0.31615
 C2809 C 0.74864 0.82594 0.41446
 C2810 C 0.75304 0.83778 0.39154
 C2811 C 0.74636 0.86046 0.38969
 C2812 C 0.73510 0.87036 0.40942
 C2813 C 0.73007 0.85818 0.43139
 C2814 C 0.73738 0.83609 0.43411
 C2815 C 0.75055 0.87316 0.36790
 C2816 C 0.75913 0.86332 0.34676
 C2817 C 0.76365 0.84029 0.34662
 C2818 C 0.76266 0.82776 0.36991
 C2819 C 0.77064 0.80561 0.37028
 C2820 C 0.77745 0.79557 0.34798
 C2821 C 0.77530 0.80678 0.32435
 C2822 C 0.76821 0.82928 0.32358
 C2823 C 0.76311 0.83921 0.29963
 C2824 C 0.76383 0.82705 0.27756
 C2825 C 0.77194 0.80506 0.27752
 C2826 C 0.77830 0.79524 0.30138
 H2827 H 0.75304 0.80866 0.41739
 H2828 H 0.72994 0.88764 0.40757
 H2829 H 0.73382 0.82650 0.45119
 H2830 H 0.74645 0.89073 0.36685
 H2831 H 0.76205 0.87417 0.33057
 H2832 H 0.77174 0.79561 0.38759
 H2833 H 0.78302 0.77842 0.34902
 H2834 H 0.75581 0.85557 0.29751
 H2835 H 0.75583 0.83476 0.26095
 H2836 H 0.78325 0.77789 0.30232
 C2837 C 0.27560 0.31465 0.91258
 C2838 C 0.28093 0.31864 0.88680
 C2839 C 0.28437 0.34106 0.87879
 C2840 C 0.28029 0.35868 0.89532
 C2841 C 0.27367 0.35433 0.92026
 C2842 C 0.27208 0.33225 0.92895
 C2843 C 0.29128 0.34576 0.85414
 C2844 C 0.29421 0.32877 0.83690
 C2845 C 0.28942 0.30637 0.84337
 C2846 C 0.28230 0.30128 0.86858
 C2847 C 0.27524 0.27932 0.87417
 C2848 C 0.27373 0.26332 0.85537
 C2849 C 0.28015 0.26823 0.83062
 C2850 C 0.28966 0.28922 0.82478
 C2851 C 0.29810 0.29235 0.80015
 C2852 C 0.29384 0.27675 0.78108
 C2853 C 0.28064 0.25789 0.78578
 C2854 C 0.27569 0.25282 0.81123
 H2855 H 0.27404 0.29814 0.92070
 H2856 H 0.28197 0.37581 0.88873
 H2857 H 0.26729 0.32859 0.94832
 H2858 H 0.29416 0.36282 0.84796
 H2859 H 0.29890 0.33387 0.81801
 H2860 H 0.26924 0.27432 0.89252
 H2861 H 0.26684 0.24712 0.86011
 H2862 H 0.30742 0.30700 0.79487
 H2863 H 0.29925 0.28066 0.76207
 H2864 H 0.26665 0.23772 0.81581
 C2865 C 0.84028 0.39283 0.76170
 C2866 C 0.81804 0.38809 0.76795
 C2867 C 0.80309 0.40617 0.76967
 C2868 C 0.80965 0.42774 0.76202
 C2869 C 0.83096 0.43131 0.75268
 C2870 C 0.84644 0.41403 0.75377
 C2871 C 0.78149 0.40235 0.77781
 C2872 C 0.77397 0.38076 0.78280
 C2873 C 0.78755 0.36212 0.77870
 C2874 C 0.80996 0.36596 0.77113
 C2875 C 0.82305 0.34762 0.76463
 C2876 C 0.81421 0.32648 0.76385
 C2877 C 0.79241 0.32256 0.77072
 C2878 C 0.77911 0.33978 0.77985
 C2879 C 0.75768 0.33382 0.78838
 C2880 C 0.74969 0.31180 0.78644
 C2881 C 0.76252 0.29535 0.77525
 C2882 C 0.78367 0.30144 0.76712
 H2883 H 0.85329 0.38049 0.76234
 H2884 H 0.79787 0.44140 0.76191
 H2885 H 0.86331 0.41685 0.74776
 H2886 H 0.77009 0.41613 0.77970
 H2887 H 0.75691 0.37907 0.78828
 H2888 H 0.83979 0.34912 0.75817
 H2889 H 0.82450 0.31305 0.75735
 H2890 H 0.74681 0.34580 0.79658
 H2891 H 0.73309 0.30793 0.79260
 H2892 H 0.79325 0.29031 0.75606
 C2893 C 0.34317 0.91053 0.24324
 C2894 C 0.32014 0.90746 0.24668
 C2895 C 0.30572 0.92566 0.24105
 C2896 C 0.31447 0.94669 0.23467
 C2897 C 0.33744 0.94956 0.23116
 C2898 C 0.35152 0.93104 0.23503
 C2899 C 0.28265 0.92256 0.24113
 C2900 C 0.27363 0.90148 0.24536
 C2901 C 0.28745 0.88301 0.25139
 C2902 C 0.31092 0.88657 0.25425
 C2903 C 0.32434 0.86926 0.26487
 C2904 C 0.31531 0.84854 0.27067
 C2905 C 0.29294 0.84395 0.26459
 C2906 C 0.27873 0.86102 0.25456
 C2907 C 0.25680 0.85504 0.24658
 C2908 C 0.25004 0.83275 0.24664
 C2909 C 0.26456 0.81574 0.25554
 C2910 C 0.28521 0.82196 0.26674
 H2911 H 0.35497 0.89707 0.24567
 H2912 H 0.30314 0.96047 0.23072
 H2913 H 0.36932 0.93253 0.23272
 H2914 H 0.27144 0.93638 0.23692
 H2915 H 0.25569 0.90022 0.24464
 H2916 H 0.34186 0.87154 0.26950
 H2917 H 0.32625 0.83561 0.27858
 H2918 H 0.24513 0.86697 0.23823
 H2919 H 0.23367 0.82883 0.23849
 H2920 H 0.29633 0.80960 0.27496
 C2921 C 0.16946 0.87258 0.75597
 C2922 C 0.19217 0.86778 0.75267
 C2923 C 0.20654 0.88570 0.74650
 C2924 C 0.19865 0.90787 0.74637
 C2925 C 0.17644 0.91227 0.75206
 C2926 C 0.16188 0.89438 0.75581
 C2927 C 0.22868 0.88130 0.74096
 C2928 C 0.23689 0.85954 0.74168
 C2929 C 0.22346 0.84135 0.74908
 C2930 C 0.20092 0.84576 0.75539
 C2931 C 0.18803 0.82824 0.76542
 C2932 C 0.19651 0.80699 0.76852
 C2933 C 0.21803 0.80217 0.76142
 C2934 C 0.23183 0.81897 0.75123
 C2935 C 0.25330 0.81245 0.74379
 C2936 C 0.26054 0.79023 0.74677
 C2937 C 0.24675 0.77384 0.75740
 C2938 C 0.22568 0.78039 0.76482
 H2939 H 0.15699 0.85988 0.75850
 H2940 H 0.20988 0.92164 0.74273
 H2941 H 0.14440 0.89732 0.75898
 H2942 H 0.23978 0.89483 0.73597
 H2943 H 0.25414 0.85755 0.73723
 H2944 H 0.17147 0.83053 0.77210
 H2945 H 0.18602 0.79414 0.77659
 H2946 H 0.26474 0.82405 0.73535
 H2947 H 0.27707 0.78601 0.74091
 H2948 H 0.21467 0.76850 0.77319
 C2949 C 0.64658 0.41488 0.28170
 C2950 C 0.66887 0.40903 0.27747
 C2951 C 0.68490 0.42634 0.27612
 C2952 C 0.67906 0.44836 0.28191
 C2953 C 0.65721 0.45336 0.28847
 C2954 C 0.64095 0.43662 0.28711
 C2955 C 0.70661 0.42141 0.26943
 C2956 C 0.71276 0.39963 0.26420
 C2957 C 0.69762 0.38173 0.26674
 C2958 C 0.67560 0.38654 0.27451
 C2959 C 0.66123 0.36871 0.28038
 C2960 C 0.66780 0.34688 0.27791
 C2961 C 0.68867 0.34191 0.26891
 C2962 C 0.70383 0.35908 0.26272
 C2963 C 0.72446 0.35267 0.25282
 C2964 C 0.72968 0.33012 0.24976
 C2965 C 0.71466 0.31327 0.25661
 C2966 C 0.69436 0.31962 0.26640
 H2967 H 0.63301 0.40309 0.28059
 H2968 H 0.69160 0.46139 0.28208
 H2969 H 0.62368 0.44033 0.29053
 H2970 H 0.71896 0.43455 0.26811
 H2971 H 0.72982 0.39716 0.25925
 H2972 H 0.64505 0.37105 0.28808
 H2973 H 0.65630 0.33371 0.28300
 H2974 H 0.73671 0.36467 0.24694
 H2975 H 0.74568 0.32595 0.24228
 H2976 H 0.68258 0.30723 0.27229
 C2977 C 0.69378 0.62079 0.29061
 C2978 C 0.70790 0.62815 0.27105
 C2979 C 0.71030 0.61398 0.24994
 C2980 C 0.69776 0.59438 0.24771
 C2981 C 0.68267 0.58835 0.26623
 C2982 C 0.68134 0.60117 0.28812
 C2983 C 0.72445 0.61985 0.23052
 C2984 C 0.73525 0.64024 0.23053
 C2985 C 0.73207 0.65581 0.24994
 C2986 C 0.71879 0.64942 0.27100
 C2987 C 0.71592 0.66496 0.29054
 C2988 C 0.72422 0.68653 0.28864
 C2989 C 0.73583 0.69345 0.26738
 C2990 C 0.74069 0.67798 0.24823
 C2991 C 0.75317 0.68570 0.22752
 C2992 C 0.75821 0.70815 0.22452
 C2993 C 0.75111 0.72385 0.24191
 C2994 C 0.74163 0.71605 0.26447
 H2995 H 0.69140 0.63008 0.30768
 H2996 H 0.69899 0.58419 0.23092
 H2997 H 0.66981 0.59658 0.30273
 H2998 H 0.72667 0.60883 0.21465
 H2999 H 0.74538 0.64351 0.21439
 H3000 H 0.70665 0.66122 0.30727
 H3001 H 0.72080 0.69816 0.30359
 H3002 H 0.75884 0.67503 0.21284
 H3003 H 0.76733 0.71314 0.20799
 H3004 H 0.73702 0.72780 0.27883
 C3005 C 0.20301 0.07529 0.68623
 C3006 C 0.20601 0.08501 0.71061
 C3007 C 0.19594 0.07426 0.73155
 C3008 C 0.18408 0.05429 0.72817
 C3009 C 0.18128 0.04496 0.70395
 C3010 C 0.19072 0.05566 0.68303
 C3011 C 0.19737 0.08365 0.75571
 C3012 C 0.20786 0.10402 0.75948
 C3013 C 0.21792 0.11558 0.73925
 C3014 C 0.21802 0.10534 0.71476
 C3015 C 0.23020 0.11569 0.69531
 C3016 C 0.24088 0.13592 0.69917
 C3017 C 0.23926 0.14701 0.72218
 C3018 C 0.22777 0.13713 0.74259
 C3019 C 0.22588 0.14969 0.76507
 C3020 C 0.23375 0.17161 0.76635
 C3021 C 0.24398 0.18167 0.74554
 C3022 C 0.24811 0.16853 0.72430
 H3023 H 0.20933 0.08277 0.66911
 H3024 H 0.17632 0.04635 0.74434
 H3025 H 0.18855 0.04881 0.66410
 H3026 H 0.18985 0.07539 0.77182
 H3027 H 0.20812 0.11013 0.77870
 H3028 H 0.23206 0.10839 0.67688
 H3029 H 0.24980 0.14338 0.68355
 H3030 H 0.21740 0.14355 0.78152
 H3031 H 0.23118 0.18083 0.78348
 H3032 H 0.25661 0.17563 0.70819
 C3033 C 0.26734 0.09496 0.26772
 C3034 C 0.26798 0.11113 0.24773
 C3035 C 0.28159 0.10663 0.22689
 C3036 C 0.29576 0.08797 0.22766
 C3037 C 0.29688 0.07384 0.24923
 C3038 C 0.28180 0.07683 0.26853
 C3039 C 0.28217 0.12157 0.20623
 C3040 C 0.27091 0.14176 0.20659
 C3041 C 0.25890 0.14800 0.22797
 C3042 C 0.25683 0.13215 0.24854
 C3043 C 0.24508 0.13846 0.27010
 C3044 C 0.23732 0.16000 0.27253
 C3045 C 0.24053 0.17599 0.25344
 C3046 C 0.25024 0.17007 0.23032
 C3047 C 0.25180 0.18691 0.21113
 C3048 C 0.24670 0.20910 0.21616
 C3049 C 0.24028 0.21521 0.24052
 C3050 C 0.23518 0.19820 0.25806
 H3051 H 0.25665 0.09628 0.28365
 H3052 H 0.30737 0.08562 0.21260
 H3053 H 0.28217 0.06579 0.28515
 H3054 H 0.29216 0.11803 0.19001
 H3055 H 0.27292 0.15262 0.19025
 H3056 H 0.24250 0.12747 0.28618
 H3057 H 0.22952 0.16440 0.29007
 H3058 H 0.25761 0.18366 0.19236
 H3059 H 0.24945 0.22166 0.20151
 H3060 H 0.22833 0.20230 0.27621
 C3061 C 0.82614 0.60291 0.74286
 C3062 C 0.81815 0.61379 0.76451
 C3063 C 0.81991 0.60221 0.78836
 C3064 C 0.82975 0.58113 0.79036
 C3065 C 0.83815 0.57099 0.76897
 C3066 C 0.83595 0.58184 0.74515
 C3067 C 0.81219 0.61178 0.81030
 C3068 C 0.80311 0.63292 0.80942
 C3069 C 0.80132 0.64547 0.78637
 C3070 C 0.80887 0.63576 0.76349
 C3071 C 0.80739 0.64855 0.74058
 C3072 C 0.79965 0.67034 0.74016
 C3073 C 0.79282 0.68021 0.76241
 C3074 C 0.79295 0.66773 0.78566
 C3075 C 0.78494 0.67823 0.80739
 C3076 C 0.77921 0.70061 0.80658
 C3077 C 0.78133 0.71357 0.78427
 C3078 C 0.78652 0.70277 0.76173
 H3079 H 0.82526 0.61022 0.72394
 H3080 H 0.83092 0.57253 0.80876
 H3081 H 0.84226 0.57420 0.72832
 H3082 H 0.81349 0.60294 0.82853
 H3083 H 0.79814 0.63910 0.82748
 H3084 H 0.81255 0.64238 0.72257
 H3085 H 0.79938 0.67971 0.72226
 H3086 H 0.78300 0.66980 0.82548
 H3087 H 0.77336 0.70774 0.82388
 H3088 H 0.78708 0.71221 0.74393
 C3089 C 0.92384 0.75482 0.17759
 C3090 C 0.90473 0.76763 0.17064
 C3091 C 0.90433 0.77841 0.14634
 C3092 C 0.92181 0.77597 0.12978
 C3093 C 0.94116 0.76385 0.13688
 C3094 C 0.94167 0.75305 0.16111
 C3095 C 0.88635 0.79161 0.13827
 C3096 C 0.86878 0.79488 0.15393
 C3097 C 0.86819 0.78467 0.17840
 C3098 C 0.88596 0.77013 0.18661
 C3099 C 0.88383 0.75814 0.20991
 C3100 C 0.86462 0.75976 0.22412
 C3101 C 0.84721 0.77407 0.21629
 C3102 C 0.84955 0.78754 0.19406
 C3103 C 0.83261 0.80289 0.18759
 C3104 C 0.81265 0.80221 0.19969
 C3105 C 0.80899 0.78782 0.22070
 C3106 C 0.82703 0.77436 0.22961
 H3107 H 0.92576 0.74647 0.19593
 H3108 H 0.91966 0.78321 0.11078
 H3109 H 0.95617 0.74385 0.16813
 H3110 H 0.88585 0.79966 0.11954
 H3111 H 0.85539 0.80482 0.14562
 H3112 H 0.89638 0.74659 0.21709
 H3113 H 0.86329 0.74950 0.24123
 H3114 H 0.83374 0.81511 0.17239
 H3115 H 0.79948 0.81208 0.19068
 H3116 H 0.82480 0.76287 0.24550
 C3117 C 0.39301 0.26962 0.63198
 C3118 C 0.39011 0.26230 0.65750
 C3119 C 0.40952 0.25804 0.67313
 C3120 C 0.43084 0.26030 0.66307
 C3121 C 0.43322 0.26760 0.63778
 C3122 C 0.41420 0.27229 0.62245
 C3123 C 0.40756 0.25191 0.69877
 C3124 C 0.38675 0.25015 0.70945
 C3125 C 0.36690 0.25387 0.69464
 C3126 C 0.36864 0.25940 0.66805
 C3127 C 0.34888 0.26142 0.65271
 C3128 C 0.32815 0.25849 0.66290
 C3129 C 0.32613 0.25378 0.68883
 C3130 C 0.34531 0.25174 0.70528
 C3131 C 0.34191 0.24742 0.73157
 C3132 C 0.32041 0.24478 0.74073
 C3133 C 0.30152 0.24664 0.72421
 C3134 C 0.30482 0.25071 0.69814
 H3135 H 0.37935 0.27406 0.61898
 H3136 H 0.44563 0.25708 0.67512
 H3137 H 0.41577 0.27818 0.60292
 H3138 H 0.42232 0.24868 0.71084
 H3139 H 0.38677 0.24536 0.72936
 H3140 H 0.34878 0.26466 0.63243
 H3141 H 0.31347 0.25996 0.65025
 H3142 H 0.35548 0.24595 0.74556
 H3143 H 0.31866 0.24082 0.76079
 H3144 H 0.29074 0.25114 0.68458
 C3145 C 0.41182 0.71316 0.87604
 C3146 C 0.40772 0.71935 0.85010
 C3147 C 0.42528 0.72966 0.83694
 C3148 C 0.44677 0.73139 0.84879
 C3149 C 0.45090 0.72328 0.87389
 C3150 C 0.43299 0.71503 0.88757
 C3151 C 0.42130 0.73771 0.81194
 C3152 C 0.40026 0.73580 0.79978
 C3153 C 0.38253 0.72484 0.81180
 C3154 C 0.38673 0.71573 0.83700
 C3155 C 0.37008 0.70256 0.84810
 C3156 C 0.34950 0.69960 0.83591
 C3157 C 0.34448 0.70980 0.81231
 C3158 C 0.36076 0.72243 0.79962
 C3159 C 0.35419 0.73250 0.77573
 C3160 C 0.33209 0.73086 0.76578
 C3161 C 0.31596 0.71884 0.77902
 C3162 C 0.32280 0.70788 0.80195
 H3163 H 0.39896 0.70693 0.88807
 H3164 H 0.46044 0.73818 0.83815
 H3165 H 0.43551 0.70951 0.90728
 H3166 H 0.43457 0.74573 0.80172
 H3167 H 0.39852 0.74254 0.78060
 H3168 H 0.37262 0.69379 0.86610
 H3169 H 0.33717 0.68950 0.84537
 H3170 H 0.36548 0.74254 0.76486
 H3171 H 0.32747 0.73974 0.74820
 H3172 H 0.31087 0.69855 0.81286
 C3173 C 0.88884 0.26464 0.33584
 C3174 C 0.87560 0.24834 0.32332
 C3175 C 0.88278 0.22589 0.32561
 C3176 C 0.90238 0.22024 0.33998
 C3177 C 0.91582 0.23676 0.35165
 C3178 C 0.90843 0.25897 0.34951
 C3179 C 0.87052 0.20918 0.31328
 C3180 C 0.85127 0.21417 0.29868
 C3181 C 0.84331 0.23623 0.29593
 C3182 C 0.85553 0.25356 0.30873
 C3183 C 0.84706 0.27549 0.30686
 C3184 C 0.82700 0.28021 0.29392
 C3185 C 0.81472 0.26348 0.28180
 C3186 C 0.82304 0.24144 0.28170
 C3187 C 0.81048 0.22560 0.26753
 C3188 C 0.78943 0.23087 0.25673
 C3189 C 0.77995 0.25196 0.25979
 C3190 C 0.79365 0.26858 0.27073
 H3191 H 0.88475 0.28208 0.33538
 H3192 H 0.90773 0.20302 0.34064
 H3193 H 0.91745 0.27226 0.35908
 H3194 H 0.87585 0.19196 0.31494
 H3195 H 0.84265 0.20020 0.29023
 H3196 H 0.85519 0.28947 0.31582
 H3197 H 0.82084 0.29718 0.29379
 H3198 H 0.81631 0.20891 0.26465
 H3199 H 0.78060 0.21811 0.24627
 H3200 H 0.78747 0.28543 0.27213
 C3201 C 0.06688 0.26325 0.30630
 C3202 C 0.08754 0.27195 0.31569
 C3203 C 0.08819 0.28074 0.34068
 C3204 C 0.06921 0.28059 0.35543
 C3205 C 0.04880 0.27240 0.34575
 C3206 C 0.04788 0.26357 0.32109
 C3207 C 0.10778 0.28980 0.35105
 C3208 C 0.12686 0.29071 0.33715
 C3209 C 0.12728 0.28238 0.31211
 C3210 C 0.10751 0.27233 0.30136
 C3211 C 0.10862 0.26268 0.27698
 C3212 C 0.12845 0.26245 0.26386
 C3213 C 0.14786 0.27229 0.27411
 C3214 C 0.14719 0.28302 0.29798
 C3215 C 0.16674 0.29363 0.30718
 C3216 C 0.18656 0.29157 0.29488
 C3217 C 0.18794 0.28006 0.27181
 C3218 C 0.16813 0.27089 0.26116
 H3219 H 0.06473 0.25650 0.28744
 H3220 H 0.07038 0.28700 0.37465
 H3221 H 0.03229 0.25735 0.31290
 H3222 H 0.10839 0.29636 0.37022
 H3223 H 0.14121 0.29760 0.34710
 H3224 H 0.09450 0.25459 0.26778
 H3225 H 0.12861 0.25431 0.24557
 H3226 H 0.16762 0.30332 0.32426
 H3227 H 0.20114 0.29855 0.30450
 H3228 H 0.16867 0.26171 0.24356
 C3229 C 0.62600 0.77713 0.88976
 C3230 C 0.62965 0.77492 0.86340
 C3231 C 0.61106 0.76947 0.84711
 C3232 C 0.58955 0.76769 0.85686
 C3233 C 0.58620 0.77113 0.88285
 C3234 C 0.60469 0.77534 0.89917
 C3235 C 0.61404 0.76602 0.82119
 C3236 C 0.63510 0.76757 0.81105
 C3237 C 0.65409 0.77317 0.82641
 C3238 C 0.65113 0.77764 0.85283
 C3239 C 0.66967 0.78504 0.86779
 C3240 C 0.69064 0.78673 0.85785
 C3241 C 0.69412 0.78107 0.83266
 C3242 C 0.67599 0.77443 0.81638
 C3243 C 0.68081 0.76866 0.79106
 C3244 C 0.70273 0.76871 0.78283
 C3245 C 0.72063 0.77491 0.79925
 C3246 C 0.71592 0.78141 0.82406
 H3247 H 0.63925 0.77999 0.90377
 H3248 H 0.57535 0.76424 0.84412
 H3249 H 0.60266 0.77733 0.91946
 H3250 H 0.59993 0.76190 0.80859
 H3251 H 0.63588 0.76459 0.79089
 H3252 H 0.66853 0.78999 0.88735
 H3253 H 0.70441 0.79220 0.87024
 H3254 H 0.66816 0.76319 0.77742
 H3255 H 0.70569 0.76307 0.76374
 H3256 H 0.72934 0.78565 0.83748
 C3257 C 0.58862 0.20248 0.67862
 C3258 C 0.59922 0.22235 0.68688
 C3259 C 0.59061 0.24277 0.67672
 C3260 C 0.57274 0.24307 0.65860
 C3261 C 0.56259 0.22326 0.65039
 C3262 C 0.57065 0.20301 0.66080
 C3263 C 0.59996 0.26291 0.68446
 C3264 C 0.61802 0.26339 0.70174
 C3265 C 0.62775 0.24359 0.71190
 C3266 C 0.61820 0.22269 0.70443
 C3267 C 0.62841 0.20292 0.71411
 C3268 C 0.64792 0.20349 0.72933
 C3269 C 0.65793 0.22371 0.73581
 C3270 C 0.64747 0.24401 0.72815
 C3271 C 0.65773 0.26396 0.73643
 C3272 C 0.67902 0.26378 0.74796
 C3273 C 0.69079 0.24376 0.75213
 C3274 C 0.67902 0.22377 0.74858
 H3275 H 0.59366 0.18623 0.68565
 H3276 H 0.56695 0.25888 0.65057
 H3277 H 0.56283 0.18741 0.65544
 H3278 H 0.59337 0.27857 0.67685
 H3279 H 0.62440 0.27971 0.70610
 H3280 H 0.62217 0.18658 0.70955
 H3281 H 0.65566 0.18787 0.73537
 H3282 H 0.65020 0.28009 0.73347
 H3283 H 0.68666 0.27970 0.75225
 H3284 H 0.68680 0.20813 0.75389
 C3285 C 0.10821 0.73663 0.12821
 C3286 C 0.11130 0.74033 0.15472
 C3287 C 0.09286 0.73674 0.17043
 C3288 C 0.07196 0.73054 0.15956
 C3289 C 0.06943 0.72695 0.13326
 C3290 C 0.08766 0.73006 0.11781
 C3291 C 0.09554 0.73891 0.19686
 C3292 C 0.11630 0.74391 0.20818
 C3293 C 0.13513 0.74766 0.19333
 C3294 C 0.13227 0.74678 0.16609
 C3295 C 0.15045 0.75248 0.15099
 C3296 C 0.17115 0.75720 0.16197
 C3297 C 0.17465 0.75653 0.18838
 C3298 C 0.15680 0.75216 0.20462
 C3299 C 0.16163 0.75229 0.23136
 C3300 C 0.18342 0.75569 0.24119
 C3301 C 0.20116 0.75857 0.22481
 C3302 C 0.19620 0.76005 0.19844
 H3303 H 0.12142 0.73798 0.11497
 H3304 H 0.05785 0.72789 0.17156
 H3305 H 0.08598 0.72734 0.09742
 H3306 H 0.08154 0.73621 0.20900
 H3307 H 0.11701 0.74489 0.22871
 H3308 H 0.14922 0.75372 0.13046
 H3309 H 0.18471 0.76111 0.14954
 H3310 H 0.14903 0.74959 0.24517
 H3311 H 0.18627 0.75602 0.26167
 H3312 H 0.20927 0.76347 0.18524
   
