data_POSCAR
  _audit_creation_date              2014-09-24
  _audit_creation_method            'ToBaCCo'
  _symmetry_space_group_name_H-M    'P1'
  _symmetry_Int_Tables_number       1
  _symmetry_cell_setting            triclinic
  loop_
  _symmetry_equiv_pos_as_xyz
 x,y,z
_cell_length_a 58.9551
_cell_length_b 58.9489
_cell_length_c 58.9205
_cell_angle_alpha 89.107200
_cell_angle_beta 89.120900
_cell_angle_gamma 89.140500
loop_
  _atom_site_label
  _atom_site_type_symbol
  _atom_site_fract_x
  _atom_site_fract_y
  _atom_site_fract_z
C1 C 0.74745 0.61363 1.02929
 C2 C 0.75875 0.62306 1.01032
 C3 C 0.78028 0.63253 1.01289
 C4 C 0.79027 0.63277 1.03433
 C5 C 0.77897 0.62311 1.05315
 C6 C 0.75763 0.61344 1.05061
 C7 C 0.74804 0.62282 0.98784
 C8 C 0.72615 0.63207 0.98494
 C9 C 0.71588 0.63154 0.96369
 C10 C 0.72726 0.62136 0.94537
 C11 C 0.74898 0.61192 0.94821
 C12 C 0.75945 0.61287 0.96934
 H13 H 0.73093 0.60611 1.02731
 H14 H 0.78898 0.64000 0.99832
 H15 H 0.71728 0.63990 0.99912
 H16 H 0.77623 0.60545 0.97152
 H17 H 0.78676 0.62317 1.06973
 H18 H 0.71922 0.62077 0.92896
 C19 C 0.74380 0.39256 0.47038
 C20 C 0.75501 0.38285 0.48909
 C21 C 0.77686 0.37339 0.48610
 C22 C 0.78725 0.37344 0.46455
 C23 C 0.77605 0.38335 0.44602
 C24 C 0.75438 0.39301 0.44894
 C25 C 0.74387 0.38257 0.51171
 C26 C 0.72214 0.37338 0.51466
 C27 C 0.71169 0.37297 0.53617
 C28 C 0.72271 0.38217 0.55472
 C29 C 0.74425 0.39155 0.55184
 C30 C 0.75490 0.39154 0.53044
 H31 H 0.72701 0.40002 0.47258
 H32 H 0.78552 0.36560 0.50040
 H33 H 0.71362 0.36617 0.50034
 H34 H 0.77159 0.39883 0.52826
 H35 H 0.78410 0.38343 0.42934
 H36 H 0.71459 0.38193 0.57137
 C37 C 0.24339 -0.10931 -0.02968
 C38 C 0.25463 -0.11910 -0.01103
 C39 C 0.27651 -0.12848 -0.01408
 C40 C 0.28691 -0.12828 -0.03564
 C41 C 0.27565 -0.11826 -0.05412
 C42 C 0.25395 -0.10870 -0.05112
 C43 C 0.24352 -0.11945 0.01160
 C44 C 0.22181 -0.12867 0.01458
 C45 C 0.21136 -0.12905 0.03611
 C46 C 0.22240 -0.11979 0.05464
 C47 C 0.24393 -0.11039 0.05171
 C48 C 0.25456 -0.11042 0.03030
 H49 H 0.22658 -0.10189 -0.02742
 H50 H 0.28516 -0.13630 0.00022
 H51 H 0.21332 -0.13588 0.00023
 H52 H 0.27122 -0.10310 0.02810
 H53 H 0.28365 -0.11801 -0.07083
 H54 H 0.21433 -0.11995 0.07132
 C55 C 0.24724 0.11251 0.52873
 C56 C 0.25857 0.12191 0.50976
 C57 C 0.28010 0.13136 0.51237
 C58 C 0.29004 0.13162 0.53382
 C59 C 0.27872 0.12200 0.55261
 C60 C 0.25738 0.11236 0.55005
 C61 C 0.24788 0.12170 0.48728
 C62 C 0.22599 0.13095 0.48437
 C63 C 0.21576 0.13051 0.46309
 C64 C 0.22718 0.12042 0.44475
 C65 C 0.24890 0.11098 0.44759
 C66 C 0.25934 0.11184 0.46874
 H67 H 0.23071 0.10500 0.52680
 H68 H 0.28887 0.13884 0.49785
 H69 H 0.21709 0.13873 0.49856
 H70 H 0.27612 0.10444 0.47092
 H71 H 0.28646 0.12208 0.56919
 H72 H 0.21919 0.11991 0.42831
 C73 C 0.11210 0.52911 0.24684
 C74 C 0.12153 0.51017 0.25816
 C75 C 0.13099 0.51277 0.27969
 C76 C 0.13122 0.53420 0.28965
 C77 C 0.12158 0.55298 0.27836
 C78 C 0.11191 0.55043 0.25700
 C79 C 0.12136 0.48770 0.24746
 C80 C 0.13063 0.48482 0.22556
 C81 C 0.13022 0.46356 0.21531
 C82 C 0.12015 0.44520 0.22673
 C83 C 0.11069 0.44801 0.24846
 C84 C 0.11151 0.46915 0.25891
 H85 H 0.10459 0.52712 0.23030
 H86 H 0.13849 0.49827 0.28845
 H87 H 0.13839 0.49902 0.21666
 H88 H 0.10409 0.47130 0.27570
 H89 H 0.12167 0.56953 0.28617
 H90 H 0.11967 0.42877 0.21873
 C91 C -0.10847 -0.02998 0.24363
 C92 C -0.11825 -0.01132 0.25486
 C93 C -0.12765 -0.01435 0.27674
 C94 C -0.12749 -0.03589 0.28717
 C95 C -0.11749 -0.05437 0.27593
 C96 C -0.10790 -0.05140 0.25422
 C97 C -0.11859 0.01129 0.24371
 C98 C -0.12781 0.01423 0.22198
 C99 C -0.12822 0.03574 0.21150
 C100 C -0.11900 0.05429 0.22252
 C101 C -0.10960 0.05140 0.24407
 C102 C -0.10961 0.03001 0.25473
 H103 H -0.10104 -0.02774 0.22681
 H104 H -0.13547 -0.00004 0.28537
 H105 H -0.13500 -0.00013 0.21350
 H106 H -0.10229 0.02784 0.27141
 H107 H -0.11727 -0.07107 0.28395
 H108 H -0.11919 0.07096 0.21444
 C109 C 0.39186 0.47035 0.74400
 C110 C 0.38212 0.48904 0.75520
 C111 C 0.37264 0.48605 0.77705
 C112 C 0.37268 0.46450 0.78748
 C113 C 0.38265 0.44598 0.77626
 C114 C 0.39232 0.44893 0.75459
 C115 C 0.38185 0.51165 0.74404
 C116 C 0.37266 0.51459 0.72231
 C117 C 0.37229 0.53609 0.71183
 C118 C 0.38152 0.55462 0.72284
 C119 C 0.39090 0.55175 0.74439
 C120 C 0.39086 0.53036 0.75506
 H121 H 0.39935 0.47256 0.72720
 H122 H 0.36484 0.50038 0.78566
 H123 H 0.36543 0.50028 0.71379
 H124 H 0.39815 0.52819 0.77175
 H125 H 0.38277 0.42928 0.78428
 H126 H 0.38131 0.57126 0.71470
 C127 C 0.61371 1.02875 0.74780
 C128 C 0.62312 1.00977 0.75906
 C129 C 0.63261 1.01230 0.78060
 C130 C 0.63291 1.03372 0.79062
 C131 C 0.62327 1.05254 0.77934
 C132 C 0.61358 1.05003 0.75801
 C133 C 0.62283 0.98733 0.74831
 C134 C 0.63208 0.98445 0.72640
 C135 C 0.63152 0.96323 0.71609
 C136 C 0.62132 0.94491 0.72746
 C137 C 0.61189 0.94772 0.74920
 C138 C 0.61287 0.96881 0.75971
 H139 H 0.60617 1.02687 0.73128
 H140 H 0.64008 0.99771 0.78928
 H141 H 0.63992 0.99864 0.71755
 H142 H 0.60546 0.97097 0.77651
 H143 H 0.62333 1.06912 0.78709
 H144 H 0.62071 0.92852 0.71940
 C145 C -0.02971 0.24348 -0.10877
 C146 C -0.01107 0.25475 -0.11854
 C147 C -0.01414 0.27664 -0.12791
 C148 C -0.03569 0.28702 -0.12772
 C149 C -0.05415 0.27571 -0.11773
 C150 C -0.05114 0.25401 -0.10817
 C151 C 0.01156 0.24366 -0.11890
 C152 C 0.01452 0.22193 -0.12808
 C153 C 0.03605 0.21150 -0.12849
 C154 C 0.05458 0.22257 -0.11930
 C155 C 0.05167 0.24412 -0.10994
 C156 C 0.03027 0.25473 -0.10994
 H157 H -0.02744 0.22666 -0.10135
 H158 H 0.00015 0.28532 -0.13572
 H159 H 0.00017 0.21341 -0.13525
 H160 H 0.02807 0.27141 -0.10265
 H161 H -0.07086 0.28370 -0.11748
 H162 H 0.07126 0.21452 -0.11948
 C163 C 0.52881 0.24733 0.11210
 C164 C 0.50985 0.25869 0.12144
 C165 C 0.51248 0.28023 0.13087
 C166 C 0.53393 0.29014 0.13116
 C167 C 0.55271 0.27878 0.12160
 C168 C 0.55013 0.25744 0.11197
 C169 C 0.48736 0.24803 0.12121
 C170 C 0.48442 0.22613 0.13045
 C171 C 0.46314 0.21592 0.12998
 C172 C 0.44483 0.22738 0.11990
 C173 C 0.44770 0.24911 0.11047
 C174 C 0.46886 0.25952 0.11135
 H175 H 0.52687 0.23079 0.10461
 H176 H 0.49797 0.28903 0.13831
 H177 H 0.49859 0.21720 0.13823
 H178 H 0.47106 0.27631 0.10395
 H179 H 0.56929 0.28649 0.12170
 H180 H 0.42839 0.21940 0.11937
 C181 C 1.02880 0.74776 0.61396
 C182 C 1.00983 0.75901 0.62339
 C183 C 1.01238 0.78053 0.63288
 C184 C 1.03380 0.79056 0.63312
 C185 C 1.05260 0.77929 0.62345
 C186 C 1.05007 0.75796 0.61378
 C187 C 0.98738 0.74826 0.62314
 C188 C 0.98451 0.72636 0.63240
 C189 C 0.96328 0.71605 0.63186
 C190 C 0.94496 0.72741 0.62168
 C191 C 0.94777 0.74914 0.61223
 C192 C 0.96887 0.75965 0.61319
 H193 H 1.02690 0.73124 0.60641
 H194 H 0.99780 0.78921 0.64036
 H195 H 0.99869 0.71751 0.64023
 H196 H 0.97103 0.77644 0.60576
 H197 H 1.06918 0.78704 0.62348
 H198 H 0.92856 0.71935 0.62109
 C199 C 0.47049 0.74377 0.39223
 C200 C 0.48919 0.75500 0.38252
 C201 C 0.48621 0.77686 0.37308
 C202 C 0.46468 0.78725 0.37314
 C203 C 0.44616 0.77603 0.38305
 C204 C 0.44908 0.75434 0.39268
 C205 C 0.51180 0.74386 0.38223
 C206 C 0.51475 0.72215 0.37300
 C207 C 0.53625 0.71171 0.37258
 C208 C 0.55479 0.72271 0.38181
 C209 C 0.55191 0.74424 0.39123
 C210 C 0.53052 0.75488 0.39123
 H211 H 0.47269 0.72696 0.39968
 H212 H 0.50050 0.78553 0.36529
 H213 H 0.50044 0.71363 0.36577
 H214 H 0.52834 0.77155 0.39855
 H215 H 0.42949 0.78408 0.38313
 H216 H 0.57142 0.71460 0.38156
 C217 C 0.40862 -0.01928 0.27684
 H218 H 0.40957 -0.00187 0.28225
 C219 C 0.42029 -0.03644 0.28873
 H220 H 0.43040 -0.03224 0.30324
 C221 C 0.39316 -0.04634 0.25229
 H222 H 0.38200 -0.05034 0.23862
 C223 C 0.40456 -0.06393 0.26362
 H224 H 0.40231 -0.08129 0.25842
 N225 N 0.39523 -0.02452 0.25910
 C226 C 0.38124 0.03663 0.21880
 H227 H 0.36304 0.03486 0.21790
 C228 C 0.39177 0.05477 0.20775
 H229 H 0.38165 0.06705 0.19829
 C230 C 0.41659 0.02292 0.23252
 H231 H 0.42613 0.01043 0.24221
 C232 C 0.42785 0.04095 0.22170
 H233 H 0.44606 0.04241 0.22313
 Zn234 Zn 0.37658 -0.00155 0.24594
 N235 N 0.39364 0.02135 0.23114
 C236 C 0.36027 0.03405 0.27374
 N237 N 0.35891 0.01144 0.26966
 C238 C 0.34604 -0.00238 0.28318
 C239 C 0.33361 0.00653 0.30146
 C240 C 0.34813 0.04362 0.29180
 C241 C 0.36857 -0.02204 0.20468
 C242 C 0.35613 -0.03168 0.18743
 C243 C 0.32183 -0.02458 0.20935
 C244 C 0.33493 -0.01506 0.22623
 N245 N 0.35791 -0.01424 0.22372
 H246 H 0.37102 0.04469 0.26325
 H247 H 0.34560 -0.02036 0.27983
 H248 H 0.32345 -0.00456 0.31219
 H249 H 0.34940 0.06161 0.29496
 H250 H 0.38682 -0.02089 0.20301
 H251 H 0.36480 -0.03802 0.17242
 H252 H 0.30357 -0.02534 0.21148
 H253 H 0.32673 -0.00834 0.24125
 C254 C 0.41523 0.05708 0.20935
 C255 C 0.41800 -0.05899 0.28218
 C256 C 0.33257 -0.03305 0.18984
 C257 C 0.33472 0.02975 0.30579
 C258 C 0.09022 1.01887 0.77979
 H259 H 0.08902 1.00145 0.78570
 C260 C 0.07866 1.03612 0.79148
 H261 H 0.06841 1.03200 0.80635
 C262 C 0.10616 1.04583 0.75410
 H263 H 0.11746 1.04974 0.74006
 C264 C 0.09488 1.06350 0.76521
 H265 H 0.09738 1.08085 0.75947
 N266 N 0.10379 1.02401 0.76157
 C267 C 0.11727 0.96262 0.72294
 H268 H 0.13554 0.96392 0.72183
 C269 C 0.10649 0.94491 0.71232
 H270 H 0.11647 0.93247 0.70301
 C271 C 0.08197 0.97725 0.73652
 H272 H 0.07255 0.98998 0.74591
 C273 C 0.07045 0.95968 0.72611
 H274 H 0.05215 0.95881 0.72758
 Zn275 Zn 0.12227 1.00089 0.74860
 N276 N 0.10501 0.97818 0.73497
 C277 C 0.13866 0.96524 0.77703
 N278 N 0.13989 0.98785 0.77218
 C279 C 0.15280 1.00174 0.78475
 C280 C 0.16550 0.99289 0.80276
 C281 C 0.15107 0.95572 0.79486
 C282 C 0.13053 1.02147 0.70651
 C283 C 0.14311 1.03119 0.68873
 C284 C 0.17728 1.02365 0.70988
 C285 C 0.16405 1.01405 0.72732
 N286 N 0.14108 1.01345 0.72546
 H287 H 0.12788 0.95455 0.76729
 H288 H 0.15314 1.01972 0.78080
 H289 H 0.17575 1.00403 0.81268
 H290 H 0.14998 0.93771 0.79862
 H291 H 0.11228 1.02048 0.70537
 H292 H 0.13454 1.03776 0.67382
 H293 H 0.19554 1.02429 0.71152
 H294 H 0.17216 1.00715 0.74226
 C295 C 0.08290 0.94333 0.71400
 C296 C 0.08126 1.05867 0.78423
 C297 C 0.16667 1.03240 0.69049
 C298 C 0.16461 0.96965 0.80782
 C299 C 0.59124 0.51889 0.27882
 H300 H 0.59015 0.50144 0.28465
 C301 C 0.57960 0.53602 0.29061
 H302 H 0.56940 0.53177 0.30548
 C303 C 0.60697 0.54607 0.25322
 H304 H 0.61823 0.55010 0.23918
 C305 C 0.59561 0.56362 0.26444
 H306 H 0.59800 0.58101 0.25879
 N307 N 0.60474 0.52420 0.26060
 C308 C 0.61846 0.46296 0.22181
 H309 H 0.63673 0.46427 0.22072
 C310 C 0.60769 0.44527 0.21113
 H311 H 0.61768 0.43285 0.20181
 C312 C 0.58313 0.47756 0.23536
 H313 H 0.57369 0.49027 0.24474
 C314 C 0.57163 0.46001 0.22489
 H315 H 0.55332 0.45914 0.22632
 Zn316 Zn 0.62334 0.50123 0.24755
 N317 N 0.60617 0.47849 0.23384
 C318 C 0.63989 0.46559 0.27593
 N319 N 0.64099 0.48822 0.27112
 C320 C 0.65376 0.50218 0.28375
 C321 C 0.66641 0.49340 0.30182
 C322 C 0.65226 0.45614 0.29383
 C323 C 0.63156 0.52202 0.20554
 C324 C 0.64412 0.53188 0.18783
 C325 C 0.67829 0.52439 0.20900
 C326 C 0.66508 0.51465 0.22637
 N327 N 0.64211 0.51395 0.22447
 H328 H 0.62922 0.45485 0.26613
 H329 H 0.65399 0.52016 0.27983
 H330 H 0.67652 0.50460 0.31182
 H331 H 0.65124 0.43813 0.29758
 H332 H 0.61331 0.52096 0.20437
 H333 H 0.63555 0.53848 0.17293
 H334 H 0.69654 0.52510 0.21068
 H335 H 0.67319 0.50771 0.24130
 C336 C 0.58410 0.44368 0.21277
 C337 C 0.58206 0.55862 0.28346
 C338 C 0.66767 0.53319 0.18963
 C339 C 0.66563 0.47016 0.30688
 C340 C 0.90879 0.48026 0.77810
 H341 H 0.90987 0.49763 0.78359
 C342 C 0.92038 0.46296 0.78988
 H343 H 0.93055 0.46701 0.80439
 C344 C 0.89312 0.45343 0.75342
 H345 H 0.88192 0.44958 0.73974
 C346 C 0.90444 0.43572 0.76464
 H347 H 0.90207 0.41840 0.75935
 N348 N 0.89535 0.47520 0.76034
 C349 C 0.88169 0.53657 0.72026
 H350 H 0.86349 0.53485 0.71932
 C351 C 0.89228 0.55472 0.70929
 H352 H 0.88220 0.56705 0.69985
 C353 C 0.91699 0.52274 0.73401
 H354 H 0.92648 0.51021 0.74368
 C355 C 0.92831 0.54078 0.72326
 H356 H 0.94652 0.54220 0.72474
 Zn357 Zn 0.87684 0.49835 0.74726
 N358 N 0.89403 0.52123 0.73258
 C359 C 0.86072 0.53394 0.77515
 N360 N 0.85920 0.51136 0.77100
 C361 C 0.84615 0.49760 0.78441
 C362 C 0.83369 0.50657 0.80265
 C363 C 0.84856 0.54356 0.79316
 C364 C 0.86882 0.47812 0.70588
 C365 C 0.85638 0.46869 0.68853
 C366 C 0.82205 0.47586 0.71037
 C367 C 0.83516 0.48519 0.72736
 N368 N 0.85815 0.48587 0.72494
 H369 H 0.87160 0.54452 0.76475
 H370 H 0.84559 0.47964 0.78101
 H371 H 0.82338 0.49553 0.81329
 H372 H 0.84994 0.56153 0.79638
 H373 H 0.88709 0.47917 0.70428
 H374 H 0.86506 0.46239 0.67350
 H375 H 0.80378 0.47522 0.71243
 H376 H 0.82695 0.49187 0.74240
 C377 C 0.91574 0.55698 0.71094
 C378 C 0.91795 0.44046 0.78320
 C379 C 0.83281 0.46746 0.69084
 C380 C 0.83494 0.52977 0.80704
 C381 C 0.27711 0.40904 -0.01994
 H382 H 0.28253 0.41003 -0.00253
 C383 C 0.28897 0.42068 -0.03715
 H384 H 0.30348 0.43080 -0.03300
 C385 C 0.25253 0.39351 -0.04694
 H386 H 0.23886 0.38234 -0.05089
 C387 C 0.26383 0.40488 -0.06458
 H388 H 0.25862 0.40258 -0.08194
 N389 N 0.25936 0.39564 -0.02512
 C390 C 0.21921 0.38174 0.03615
 H391 H 0.21832 0.36353 0.03443
 C392 C 0.20818 0.39229 0.05429
 H393 H 0.19875 0.38218 0.06661
 C394 C 0.23286 0.41709 0.02233
 H395 H 0.24251 0.42661 0.00980
 C396 C 0.22205 0.42837 0.04034
 H397 H 0.22346 0.44659 0.04175
 Zn398 Zn 0.24624 0.37702 -0.00208
 N399 N 0.23150 0.39412 0.02082
 C400 C 0.27409 0.36077 0.03352
 N401 N 0.26996 0.35937 0.01092
 C402 C 0.28342 0.34645 -0.00290
 C403 C 0.30169 0.33401 0.00602
 C404 C 0.29214 0.34863 0.04310
 C405 C 0.20496 0.36900 -0.02249
 C406 C 0.18769 0.35654 -0.03205
 C407 C 0.20956 0.32223 -0.02488
 C408 C 0.22647 0.33535 -0.01543
 N409 N 0.22400 0.35833 -0.01469
 H410 H 0.26365 0.37156 0.04416
 H411 H 0.28004 0.34597 -0.02088
 H412 H 0.31238 0.32381 -0.00507
 H413 H 0.29534 0.34993 0.06109
 H414 H 0.20332 0.38725 -0.02140
 H415 H 0.17268 0.36521 -0.03839
 H416 H 0.21166 0.30397 -0.02557
 H417 H 0.24149 0.32716 -0.00871
 C418 C 0.20974 0.41576 0.05654
 C419 C 0.28239 0.41834 -0.05970
 C420 C 0.19005 0.33298 -0.03334
 C421 C 0.30607 0.33516 0.02924
 C422 C 0.77973 0.08995 1.01895
 H423 H 0.78563 0.08878 1.00153
 C424 C 0.79142 0.07837 1.03620
 H425 H 0.80628 0.06813 1.03207
 C426 C 0.75406 0.10584 1.04594
 H427 H 0.74003 0.11714 1.04987
 C428 C 0.76518 0.09455 1.06361
 H429 H 0.75945 0.09702 1.08098
 N430 N 0.76153 0.10351 1.02411
 C431 C 0.72294 0.11708 0.96268
 H432 H 0.72185 0.13535 0.96398
 C433 C 0.71232 0.10631 0.94495
 H434 H 0.70302 0.11631 0.93251
 C435 C 0.73648 0.08176 0.97731
 H436 H 0.74584 0.07232 0.99005
 C437 C 0.72606 0.07026 0.95973
 H438 H 0.72750 0.05195 0.95886
 Zn439 Zn 0.74857 0.12202 1.00099
 N440 N 0.73494 0.10480 0.97825
 C441 C 0.77701 0.13847 0.96535
 N442 N 0.77216 0.13965 0.98797
 C443 C 0.78471 0.15254 1.00190
 C444 C 0.80272 0.16525 0.99308
 C445 C 0.79485 0.15090 0.95586
 C446 C 0.70651 0.13029 1.02158
 C447 C 0.68874 0.14287 1.03128
 C448 C 0.70990 0.17704 1.02372
 C449 C 0.72732 0.16380 1.01414
 N450 N 0.72545 0.14083 1.01355
 H451 H 0.76728 0.12771 0.95464
 H452 H 0.78076 0.15284 1.01989
 H453 H 0.81264 0.17548 1.00425
 H454 H 0.79862 0.14983 0.93785
 H455 H 0.70536 0.11203 1.02060
 H456 H 0.67383 0.13431 1.03785
 H457 H 0.71155 0.19530 1.02433
 H458 H 0.74227 0.17191 1.00723
 C459 C 0.71397 0.08273 0.94337
 C460 C 0.78419 0.08094 1.05876
 C461 C 0.69051 0.16644 1.03247
 C462 C 0.80780 0.16441 0.96984
 C463 C 0.27900 0.59099 0.51863
 H464 H 0.28485 0.58990 0.50118
 C465 C 0.29075 0.57936 0.53580
 H466 H 0.30561 0.56915 0.53158
 C467 C 0.25340 0.60675 0.54577
 H468 H 0.23938 0.61802 0.54978
 C469 C 0.26458 0.59539 0.56336
 H470 H 0.25891 0.59779 0.58075
 N471 N 0.26080 0.60452 0.52390
 C472 C 0.22210 0.61831 0.46259
 H473 H 0.22104 0.63658 0.46391
 C474 C 0.21142 0.60757 0.44488
 H475 H 0.20212 0.61759 0.43246
 C476 C 0.23558 0.58295 0.47719
 H477 H 0.24494 0.57349 0.48991
 C478 C 0.22511 0.57148 0.45962
 H479 H 0.22651 0.55317 0.45874
 Zn480 Zn 0.24780 0.62313 0.50089
 N481 N 0.23410 0.60600 0.47813
 C482 C 0.27621 0.63968 0.46527
 N483 N 0.27139 0.64077 0.48790
 C484 C 0.28402 0.65353 0.50188
 C485 C 0.30209 0.66619 0.49310
 C486 C 0.29411 0.65206 0.45582
 C487 C 0.20581 0.63138 0.52163
 C488 C 0.18812 0.64394 0.53149
 C489 C 0.20933 0.67811 0.52405
 C490 C 0.22668 0.66489 0.51432
 N491 N 0.22475 0.64192 0.51360
 H492 H 0.26642 0.62902 0.45451
 H493 H 0.28009 0.65376 0.51987
 H494 H 0.31208 0.67630 0.50432
 H495 H 0.29786 0.65105 0.43780
 H496 H 0.20462 0.61314 0.52056
 H497 H 0.17322 0.63538 0.53808
 H498 H 0.21103 0.69635 0.52478
 H499 H 0.24162 0.67299 0.50740
 C500 C 0.21302 0.58398 0.44329
 C501 C 0.28359 0.58182 0.55839
 C502 C 0.18996 0.66749 0.53283
 C503 C 0.30715 0.66542 0.46986
 C504 C 0.77785 0.90890 0.48034
 H505 H 0.78330 0.90997 0.49773
 C506 C 0.78966 0.92048 0.46305
 H507 H 0.80417 0.93064 0.46713
 C508 C 0.75322 0.89323 0.45346
 H509 H 0.73955 0.88203 0.44959
 C510 C 0.76448 0.90454 0.43575
 H511 H 0.75922 0.90216 0.41842
 N512 N 0.76010 0.89546 0.47525
 C513 C 0.71995 0.88176 0.53658
 H514 H 0.71900 0.86356 0.53485
 C515 C 0.70896 0.89233 0.55473
 H516 H 0.69951 0.88225 0.56704
 C517 C 0.73372 0.91707 0.52278
 H518 H 0.74341 0.92657 0.51025
 C519 C 0.72295 0.92837 0.54081
 H520 H 0.72443 0.94658 0.54224
 Zn521 Zn 0.74699 0.87694 0.49839
 N522 N 0.73228 0.89411 0.52126
 C523 C 0.77481 0.86080 0.53405
 N524 N 0.77069 0.85930 0.51145
 C525 C 0.78412 0.84627 0.49771
 C526 C 0.80234 0.83381 0.50671
 C527 C 0.79280 0.84864 0.54370
 C528 C 0.70567 0.86889 0.47808
 C529 C 0.68835 0.85644 0.46860
 C530 C 0.71018 0.82212 0.47585
 C531 C 0.72714 0.83524 0.48521
 N532 N 0.72471 0.85823 0.48587
 H533 H 0.76439 0.87167 0.54462
 H534 H 0.78075 0.84571 0.47973
 H535 H 0.81299 0.82351 0.49568
 H536 H 0.79598 0.85001 0.56169
 H537 H 0.70406 0.88716 0.47911
 H538 H 0.67335 0.86510 0.46227
 H539 H 0.71225 0.80385 0.47522
 H540 H 0.74216 0.82704 0.49192
 C541 C 0.71061 0.91579 0.55700
 C542 C 0.78303 0.91804 0.44053
 C543 C 0.69068 0.83286 0.46739
 C544 C 0.80669 0.83505 0.52993
 C545 C -0.01936 0.27720 0.40840
 H546 H -0.00195 0.28262 0.40935
 C547 C -0.03653 0.28908 0.42007
 H548 H -0.03235 0.30358 0.43018
 C549 C -0.04640 0.25261 0.39295
 H550 H -0.05038 0.23894 0.38180
 C551 C -0.06399 0.26393 0.40436
 H552 H -0.08135 0.25871 0.40211
 N553 N -0.02458 0.25945 0.39502
 C554 C 0.03662 0.21928 0.38111
 H555 H 0.03488 0.21836 0.36290
 C556 C 0.05475 0.20826 0.39166
 H557 H 0.06705 0.19882 0.38156
 C558 C 0.02284 0.23297 0.41646
 H559 H 0.01033 0.24263 0.42599
 C560 C 0.04086 0.22218 0.42775
 H561 H 0.04229 0.22361 0.44598
 Zn562 Zn -0.00160 0.24630 0.37639
 N563 N 0.02131 0.23158 0.39349
 C564 C 0.03397 0.27414 0.36004
 N565 N 0.01137 0.27001 0.35866
 C566 C -0.00245 0.28345 0.34573
 C567 C 0.00644 0.30173 0.33327
 C568 C 0.04352 0.29219 0.34787
 C569 C -0.02203 0.20501 0.36848
 C570 C -0.03160 0.18771 0.35608
 C571 C -0.02449 0.20952 0.32169
 C572 C -0.01502 0.22646 0.33476
 N573 N -0.01425 0.22403 0.35776
 H574 H 0.04461 0.26371 0.37083
 H575 H -0.02042 0.28006 0.34529
 H576 H -0.00465 0.31241 0.32307
 H577 H 0.06150 0.29541 0.34915
 H578 H -0.02091 0.20340 0.38675
 H579 H -0.03793 0.17271 0.36479
 H580 H -0.02521 0.21159 0.30341
 H581 H -0.00832 0.24147 0.32652
 C582 C 0.05703 0.20986 0.41514
 C583 C -0.05908 0.28249 0.41779
 C584 C -0.03293 0.19003 0.33249
 C585 C 0.02965 0.30612 0.33440
 C586 C 1.01884 0.77910 0.09058
 H587 H 1.00144 0.78502 0.08943
 C588 C 1.03609 0.79078 0.07898
 H589 H 1.03197 0.80565 0.06875
 C590 C 1.04580 0.75337 0.10644
 H591 H 1.04971 0.73932 0.11773
 C592 C 1.06346 0.76447 0.09512
 H593 H 1.08081 0.75872 0.09757
 N594 N 1.02399 0.76087 0.10413
 C595 C 0.96255 0.72235 0.11778
 H596 H 0.96387 0.72123 0.13606
 C597 C 0.94479 0.71176 0.10702
 H598 H 0.93235 0.70247 0.11704
 C599 C 0.97714 0.73589 0.08242
 H600 H 0.98988 0.74525 0.07297
 C601 C 0.95954 0.72551 0.07093
 H602 H 0.95864 0.72698 0.05262
 Zn603 Zn 1.00088 0.74793 0.12268
 N604 N 0.97811 0.73434 0.10548
 C605 C 0.96533 0.77641 0.13916
 N606 N 0.98794 0.77153 0.14033
 C607 C 1.00189 0.78407 0.15320
 C608 C 0.99311 0.80211 0.16589
 C609 C 0.95589 0.79428 0.15157
 C610 C 1.02140 0.70583 0.13092
 C611 C 1.03112 0.68805 0.14348
 C612 C 1.02372 0.70922 0.17768
 C613 C 1.01411 0.72665 0.16446
 N614 N 1.01344 0.72478 0.14148
 H615 H 0.95460 0.76668 0.12842
 H616 H 1.01986 0.78010 0.15349
 H617 H 1.00431 0.81203 0.17609
 H618 H 0.93790 0.79807 0.15051
 H619 H 1.02036 0.70469 0.11266
 H620 H 1.03765 0.67314 0.13490
 H621 H 1.02441 0.71087 0.19594
 H622 H 1.00726 0.74160 0.17258
 C623 C 0.94318 0.71343 0.08343
 C624 C 1.05863 0.78351 0.08152
 C625 C 1.03241 0.68982 0.16705
 C626 C 0.96989 0.80722 0.16505
 C627 C 0.51872 0.27940 0.59118
 H628 H 0.50128 0.28522 0.59009
 C629 C 0.53587 0.29120 0.57956
 H630 H 0.53163 0.30607 0.56936
 C631 C 0.54587 0.25381 0.60693
 H632 H 0.54989 0.23976 0.61818
 C633 C 0.56344 0.26504 0.59558
 H634 H 0.58082 0.25938 0.59797
 N635 N 0.52401 0.26118 0.60469
 C636 C 0.46279 0.22233 0.61832
 H637 H 0.46409 0.22121 0.63660
 C638 C 0.44511 0.21166 0.60752
 H639 H 0.43269 0.20230 0.61750
 C640 C 0.47738 0.23596 0.58299
 H641 H 0.49009 0.24537 0.57357
 C642 C 0.45986 0.22550 0.57147
 H643 H 0.45899 0.22696 0.55315
 Zn644 Zn 0.50102 0.24809 0.62326
 N645 N 0.47831 0.23440 0.60605
 C646 C 0.46535 0.27640 0.63982
 N647 N 0.48797 0.27161 0.64094
 C648 C 0.50190 0.28423 0.65376
 C649 C 0.49309 0.30226 0.66644
 C650 C 0.45586 0.29424 0.65222
 C651 C 0.52179 0.20611 0.63145
 C652 C 0.53164 0.18839 0.64400
 C653 C 0.52412 0.20949 0.67822
 C654 C 0.51439 0.22687 0.66501
 N655 N 0.51373 0.22501 0.64202
 H656 H 0.45463 0.26661 0.62911
 H657 H 0.51989 0.28033 0.65400
 H658 H 0.50427 0.31224 0.67659
 H659 H 0.43785 0.29796 0.65119
 H660 H 0.52075 0.20497 0.61319
 H661 H 0.53825 0.17352 0.63541
 H662 H 0.52480 0.21114 0.69648
 H663 H 0.50745 0.24178 0.67314
 C664 C 0.44353 0.21334 0.58392
 C665 C 0.55845 0.28406 0.58202
 C666 C 0.53292 0.19016 0.66757
 C667 C 0.46985 0.30727 0.66564
 C668 C 0.48015 0.77758 0.90903
 H669 H 0.49752 0.78307 0.91011
 C670 C 0.46285 0.78935 0.92062
 H671 H 0.46690 0.80386 0.93078
 C672 C 0.45333 0.75290 0.89336
 H673 H 0.44948 0.73922 0.88216
 C674 C 0.43561 0.76411 0.90467
 H675 H 0.41830 0.75882 0.90230
 N676 N 0.47510 0.75982 0.89559
 C677 C 0.53644 0.71976 0.88191
 H678 H 0.53471 0.71882 0.86370
 C679 C 0.55459 0.70880 0.89249
 H680 H 0.56691 0.69937 0.88241
 C681 C 0.52263 0.73351 0.91723
 H682 H 0.51011 0.74319 0.92673
 C683 C 0.54067 0.72278 0.92854
 H684 H 0.54209 0.72426 0.94676
 Zn685 Zn 0.49823 0.74676 0.87707
 N686 N 0.52111 0.73208 0.89426
 C687 C 0.53384 0.77464 0.86092
 N688 N 0.51125 0.77049 0.85942
 C689 C 0.49750 0.78391 0.84638
 C690 C 0.50647 0.80215 0.83391
 C691 C 0.54346 0.79265 0.84875
 C692 C 0.47799 0.70540 0.86903
 C693 C 0.46852 0.68808 0.85657
 C694 C 0.47570 0.70995 0.82223
 C695 C 0.48506 0.72691 0.83536
 N696 N 0.48575 0.72445 0.85835
 H697 H 0.54442 0.76423 0.87179
 H698 H 0.47954 0.78051 0.84583
 H699 H 0.49544 0.81279 0.82361
 H700 H 0.56143 0.79586 0.85012
 H701 H 0.47905 0.70377 0.88730
 H702 H 0.46221 0.67306 0.86524
 H703 H 0.47503 0.71204 0.80395
 H704 H 0.49174 0.74194 0.82715
 C705 C 0.55686 0.71046 0.91597
 C706 C 0.44035 0.78267 0.91818
 C707 C 0.46727 0.69042 0.83298
 C708 C 0.52968 0.80653 0.83515
 C709 C 0.43761 -0.11798 0.34423
 C710 C 0.42843 -0.14178 0.33903
 C711 C 0.45263 -0.15161 0.34080
 C712 C 0.46194 -0.12812 0.34621
 C713 C 0.44184 -0.11394 0.31870
 C714 C 0.46607 -0.12372 0.32043
 C715 C 0.43258 -0.13746 0.31336
 C716 C 0.45686 -0.14756 0.31527
 C717 C 0.45779 -0.17300 0.35277
 C718 C 0.46128 -0.19096 0.36224
 C719 C 0.43476 -0.09351 0.30603
 C720 C 0.42776 -0.07737 0.29530
 H721 H 0.42963 -0.10558 0.35601
 H722 H 0.41300 -0.14942 0.34679
 H723 H 0.47408 -0.12453 0.35986
 H724 H 0.48147 -0.11605 0.31265
 H725 H 0.42043 -0.14111 0.29972
 H726 H 0.46482 -0.15996 0.30349
 C727 C 0.92852 0.37557 0.83991
 C728 C 0.92968 0.35178 0.82920
 C729 C 0.95240 0.34724 0.84099
 C730 C 0.95134 0.37075 0.85190
 C731 C 0.94165 0.38513 0.81924
 C732 C 0.96439 0.38067 0.83102
 C733 C 0.94272 0.36159 0.80839
 C734 C 0.96555 0.35678 0.82034
 C735 C 0.95754 0.32573 0.85276
 C736 C 0.96102 0.30769 0.86209
 C737 C 0.93460 0.40569 0.80677
 C738 C 0.92765 0.42194 0.79618
 H739 H 0.91322 0.38351 0.84784
 H740 H 0.91545 0.33969 0.82856
 H741 H 0.95494 0.37427 0.86993
 H742 H 0.97859 0.39280 0.83162
 H743 H 0.93912 0.35803 0.79036
 H744 H 0.98084 0.34880 0.81242
 C745 C 0.07524 1.13131 0.82722
 C746 C 0.05971 1.15051 0.81783
 C747 C 0.04750 1.15157 0.84102
 C748 C 0.06296 1.13263 0.85057
 C749 C 0.05790 1.11382 0.81974
 C750 C 0.04569 1.11481 0.84293
 C751 C 0.04244 1.13276 0.81018
 C752 C 0.03010 1.13413 0.83357
 C753 C 0.04254 1.17299 0.85250
 C754 C 0.03920 1.19094 0.86159
 C755 C 0.06479 1.09333 0.80750
 C756 C 0.07164 1.07712 0.79707
 H757 H 0.09388 1.12995 0.82450
 H758 H 0.06545 1.16540 0.80762
 H759 H 0.07136 1.13281 0.86730
 H760 H 0.03998 1.09989 0.85311
 H761 H 0.03405 1.13258 0.79344
 H762 H 0.01146 1.13555 0.83632
 C763 C 0.57185 0.63555 0.31734
 C764 C 0.54919 0.64890 0.31511
 C765 C 0.54800 0.65090 0.34107
 C766 C 0.57059 0.63781 0.34344
 C767 C 0.55852 0.61338 0.31944
 C768 C 0.55734 0.61535 0.34540
 C769 C 0.53592 0.62644 0.31703
 C770 C 0.53462 0.62878 0.34323
 C771 C 0.54297 0.67220 0.35275
 C772 C 0.53958 0.69005 0.36198
 C773 C 0.56548 0.59304 0.30701
 C774 C 0.57238 0.57694 0.29644
 H775 H 0.58723 0.63814 0.30656
 H776 H 0.54580 0.66292 0.30277
 H777 H 0.58480 0.64271 0.35440
 H778 H 0.56075 0.60132 0.35772
 H779 H 0.52173 0.62152 0.30605
 H780 H 0.51924 0.62625 0.35403
 C781 C 0.56662 0.36441 0.18840
 C782 C 0.54216 0.35534 0.18736
 C783 C 0.54589 0.35071 0.16197
 C784 C 0.57026 0.35950 0.16289
 C785 C 0.55759 0.38823 0.18207
 C786 C 0.56132 0.38358 0.15669
 C787 C 0.53320 0.37951 0.18120
 C788 C 0.53682 0.37450 0.15559
 C789 C 0.54047 0.32946 0.15083
 C790 C 0.53701 0.31167 0.14178
 C791 C 0.56540 0.40868 0.19321
 C792 C 0.57319 0.42497 0.20224
 H793 H 0.57895 0.36046 0.20201
 H794 H 0.53422 0.34348 0.19985
 H795 H 0.58545 0.35108 0.15526
 H796 H 0.56927 0.39542 0.14419
 H797 H 0.51805 0.38798 0.18886
 H798 H 0.52451 0.37840 0.14197
 C799 C 0.05226 0.88578 0.65789
 C800 C 0.06664 0.86359 0.65763
 C801 C 0.04518 0.85007 0.66338
 C802 C 0.03065 0.87194 0.66347
 C803 C 0.05658 0.88772 0.68343
 C804 C 0.03509 0.87425 0.68924
 C805 C 0.07104 0.86581 0.68329
 C806 C 0.04950 0.85203 0.68892
 C807 C 0.03994 0.82877 0.65225
 C808 C 0.03663 0.81094 0.64320
 C809 C 0.06426 0.90824 0.69454
 C810 C 0.07199 0.92458 0.70353
 H811 H 0.05347 0.89989 0.64525
 H812 H 0.07958 0.85900 0.64453
 H813 H 0.01397 0.87420 0.65518
 H814 H 0.02220 0.87888 0.70235
 H815 H 0.08773 0.86348 0.69156
 H816 H 0.04831 0.83792 0.70156
 C817 C 0.92393 0.63126 0.66981
 C818 C 0.93539 0.65108 0.68185
 C819 C 0.95173 0.65365 0.66144
 C820 C 0.94034 0.63409 0.64925
 C821 C 0.94101 0.61467 0.68083
 C822 C 0.95736 0.61718 0.66042
 C823 C 0.95240 0.63423 0.69304
 C824 C 0.96888 0.63712 0.67245
 C825 C 0.95675 0.67564 0.65074
 C826 C 0.96008 0.69396 0.64206
 C827 C 0.93374 0.59339 0.69165
 C828 C 0.92632 0.57644 0.70050
 H829 H 0.90536 0.62864 0.66882
 H830 H 0.92638 0.66524 0.69055
 H831 H 0.93542 0.63427 0.63114
 H832 H 0.96633 0.60299 0.65175
 H833 H 0.95730 0.63404 0.71116
 H834 H 0.98743 0.63981 0.67340
 C835 C 0.42570 0.12770 0.16186
 C836 C 0.43015 0.14990 0.17459
 C837 C 0.45137 0.15359 0.15962
 C838 C 0.44700 0.13166 0.14672
 C839 C 0.44051 0.11469 0.17907
 C840 C 0.46175 0.11830 0.16410
 C841 C 0.44488 0.13662 0.19195
 C842 C 0.46624 0.14063 0.17682
 C843 C 0.45648 0.17555 0.14889
 C844 C 0.45987 0.19385 0.14019
 C845 C 0.43319 0.09345 0.18993
 C846 C 0.42577 0.07652 0.19883
 H847 H 0.40895 0.12218 0.15582
 H848 H 0.41720 0.16310 0.17880
 H849 H 0.44791 0.12987 0.12800
 H850 H 0.47467 0.10506 0.15992
 H851 H 0.44396 0.13843 0.21067
 H852 H 0.48298 0.14621 0.18284
 C853 C 0.34366 0.43532 -0.11992
 C854 C 0.33675 0.42835 -0.14404
 C855 C 0.34092 0.45274 -0.15250
 C856 C 0.34803 0.45983 -0.12868
 C857 C 0.31885 0.44204 -0.11477
 C858 C 0.32298 0.46645 -0.12317
 C859 C 0.31180 0.43498 -0.13862
 C860 C 0.31611 0.45945 -0.14736
 C861 C 0.35287 0.45784 -0.17393
 C862 C 0.36234 0.46128 -0.19191
 C863 C 0.30621 0.43500 -0.09431
 C864 C 0.29549 0.42805 -0.07813
 H865 H 0.35486 0.42533 -0.10841
 H866 H 0.34253 0.41272 -0.15284
 H867 H 0.36308 0.47012 -0.12485
 H868 H 0.31718 0.48205 -0.11435
 H869 H 0.29677 0.42469 -0.14252
 H870 H 0.30491 0.46943 -0.15888
 C871 C 0.84259 0.95283 0.38417
 C872 C 0.85016 0.93581 0.36563
 C873 C 0.84108 0.95231 0.34736
 C874 C 0.83370 0.96946 0.36552
 C875 C 0.81922 0.94166 0.38523
 C876 C 0.81012 0.95815 0.36696
 C877 C 0.82663 0.92457 0.36702
 C878 C 0.81771 0.94113 0.34849
 C879 C 0.85290 0.95741 0.32587
 C880 C 0.86227 0.96086 0.30784
 C881 C 0.80669 0.93464 0.40577
 C882 C 0.79605 0.92772 0.42202
 H883 H 0.85268 0.95759 0.39907
 H884 H 0.86675 0.92667 0.36485
 H885 H 0.83676 0.98799 0.36465
 H886 H 0.79353 0.96728 0.36774
 H887 H 0.82360 0.90603 0.36783
 H888 H 0.80759 0.93635 0.33361
 C889 C 0.84227 0.04412 1.11491
 C890 C 0.85121 0.06147 1.13202
 C891 C 0.84114 0.04716 1.15161
 C892 C 0.83240 0.02968 1.13488
 C893 C 0.81978 0.05757 1.11389
 C894 C 0.80971 0.04325 1.13348
 C895 C 0.82855 0.07499 1.13066
 C896 C 0.81865 0.06060 1.15051
 C897 C 0.85268 0.04220 1.17301
 C898 C 0.86181 0.03887 1.19095
 C899 C 0.80750 0.06446 1.09341
 C900 C 0.79704 0.07131 1.07722
 H901 H 0.85183 0.03740 1.10003
 H902 H 0.86839 0.06893 1.13165
 H903 H 0.83413 0.01098 1.13688
 H904 H 0.79252 0.03581 1.13385
 H905 H 0.82685 0.09369 1.12873
 H906 H 0.80906 0.06735 1.16536
 C907 C 0.31166 0.56556 0.63715
 C908 C 0.31643 0.54113 0.64600
 C909 C 0.34094 0.54780 0.65089
 C910 C 0.33631 0.57215 0.64231
 C911 C 0.31943 0.55831 0.61329
 C912 C 0.34395 0.56499 0.61818
 C913 C 0.32402 0.53394 0.62181
 C914 C 0.34878 0.54052 0.62707
 C915 C 0.35256 0.54280 0.67224
 C916 C 0.36175 0.53941 0.69014
 C917 C 0.30706 0.56526 0.59289
 C918 C 0.29652 0.57215 0.57676
 H919 H 0.29626 0.57592 0.64110
 H920 H 0.30523 0.53126 0.65768
 H921 H 0.34147 0.58782 0.65095
 H922 H 0.35514 0.57487 0.60651
 H923 H 0.31883 0.51830 0.61314
 H924 H 0.36419 0.53016 0.62318
 C925 C 0.18824 0.53623 0.37423
 C926 C 0.16254 0.53145 0.37208
 C927 C 0.16212 0.54603 0.35024
 C928 C 0.18760 0.55068 0.35203
 C929 C 0.18226 0.55761 0.38779
 C930 C 0.18179 0.57212 0.36590
 C931 C 0.15678 0.55296 0.38600
 C932 C 0.15619 0.56739 0.36384
 C933 C 0.15095 0.54067 0.32898
 C934 C 0.14187 0.53724 0.31119
 C935 C 0.19343 0.56536 0.40825
 C936 C 0.20247 0.57310 0.42456
 H937 H 0.20155 0.52349 0.37875
 H938 H 0.15448 0.51466 0.37436
 H939 H 0.20015 0.54970 0.33783
 H940 H 0.18982 0.58893 0.36355
 H941 H 0.14423 0.55396 0.40021
 H942 H 0.14290 0.58017 0.35936
 C943 C 0.66367 0.06986 0.87688
 C944 C 0.67557 0.06750 0.85346
 C945 C 0.66322 0.04505 0.85014
 C946 C 0.65115 0.04732 0.87330
 C947 C 0.68335 0.05644 0.88776
 C948 C 0.67101 0.03397 0.88452
 C949 C 0.69540 0.05417 0.86458
 C950 C 0.68290 0.03159 0.86096
 C951 C 0.65207 0.03982 0.82883
 C952 C 0.64300 0.03653 0.81101
 C953 C 0.69448 0.06411 0.90827
 C954 C 0.70349 0.07183 0.92461
 H955 H 0.65586 0.08568 0.88363
 H956 H 0.67733 0.08125 0.84049
 H957 H 0.63283 0.04446 0.87665
 H958 H 0.66928 0.02027 0.89754
 H959 H 0.71372 0.05705 0.86121
 H960 H 0.69067 0.01578 0.85416
 C961 C 0.67157 0.92373 0.63234
 C962 C 0.68289 0.93728 0.65125
 C963 C 0.66109 0.95171 0.65368
 C964 C 0.64964 0.93822 0.63504
 C965 C 0.68048 0.94102 0.61469
 C966 C 0.65868 0.95545 0.61706
 C967 C 0.69196 0.95450 0.63332
 C968 C 0.66997 0.96906 0.63608
 C969 C 0.65039 0.95671 0.67567
 C970 C 0.64171 0.96003 0.69400
 C971 C 0.69130 0.93376 0.59341
 C972 C 0.70016 0.92636 0.57645
 H973 H 0.67233 0.90501 0.63061
 H974 H 0.69273 0.92984 0.66553
 H975 H 0.63213 0.93157 0.63598
 H976 H 0.64886 0.96286 0.60275
 H977 H 0.70948 0.96113 0.63237
 H978 H 0.66918 0.98777 0.63789
 C979 C 0.17672 0.42478 0.13454
 C980 C 0.18469 0.44373 0.15031
 C981 C 0.15994 0.45190 0.15299
 C982 C 0.15185 0.43303 0.13750
 C983 C 0.17942 0.44108 0.11410
 C984 C 0.15467 0.44925 0.11675
 C985 C 0.18756 0.45996 0.12956
 C986 C 0.16260 0.46827 0.13260
 C987 C 0.14918 0.45698 0.17495
 C988 C 0.14046 0.46033 0.19324
 C989 C 0.19031 0.43376 0.09287
 C990 C 0.19922 0.42633 0.07595
 H991 H 0.18265 0.40682 0.13514
 H992 H 0.19692 0.44149 0.16434
 H993 H 0.13707 0.42199 0.14100
 H994 H 0.14246 0.45146 0.10271
 H995 H 0.20235 0.47097 0.12604
 H996 H 0.15665 0.48622 0.13207
 C997 C -0.11502 0.34369 0.44954
 C998 C -0.13512 0.34832 0.43339
 C999 C -0.15165 0.34108 0.45247
 C1000 C -0.13191 0.33664 0.46876
 C1001 C -0.11402 0.31897 0.44166
 C1002 C -0.13054 0.31170 0.46075
 C1003 C -0.13381 0.32344 0.42543
 C1004 C -0.15060 0.31636 0.44458
 C1005 C -0.17304 0.35304 0.45765
 C1006 C -0.19098 0.36253 0.46115
 C1007 C -0.09360 0.30631 0.43456
 C1008 C -0.07746 0.29559 0.42756
 H1009 H -0.10015 0.35478 0.45152
 H1010 H -0.13723 0.36349 0.42218
 H1011 H -0.13139 0.34222 0.48665
 H1012 H -0.12842 0.29652 0.47193
 H1013 H -0.13440 0.31789 0.40754
 H1014 H -0.16544 0.30524 0.44257
 C1015 C 0.37722 0.82389 0.96622
 C1016 C 0.37095 0.84846 0.95851
 C1017 C 0.34713 0.84044 0.95251
 C1018 C 0.35303 0.81610 0.96032
 C1019 C 0.38502 0.81871 0.94182
 C1020 C 0.36116 0.81075 0.93585
 C1021 C 0.37911 0.84305 0.93401
 C1022 C 0.35498 0.83523 0.92814
 C1023 C 0.32561 0.85220 0.95762
 C1024 C 0.30758 0.86153 0.96109
 C1025 C 0.40558 0.80624 0.93479
 C1026 C 0.42184 0.79565 0.92786
 H1027 H 0.38661 0.81909 0.98180
 H1028 H 0.37472 0.86412 0.96788
 H1029 H 0.34206 0.80514 0.97119
 H1030 H 0.35733 0.79511 0.92647
 H1031 H 0.39006 0.85401 0.92313
 H1032 H 0.34563 0.84001 0.91252
 C1033 C 1.13600 0.80728 0.05057
 C1034 C 1.13866 0.82525 0.03127
 C1035 C 1.15148 0.84036 0.04763
 C1036 C 1.14911 0.82255 0.06680
 C1037 C 1.11376 0.81904 0.05809
 C1038 C 1.12662 0.83416 0.07440
 C1039 C 1.11605 0.83684 0.03890
 C1040 C 1.12925 0.85215 0.05515
 C1041 C 1.17288 0.85187 0.04264
 C1042 C 1.19082 0.86099 0.03928
 C1043 C 1.09328 0.80678 0.06501
 C1044 C 1.07708 0.79634 0.07188
 H1045 H 1.13856 0.78869 0.04874
 H1046 H 1.14387 0.82173 0.01347
 H1047 H 1.16291 0.81679 0.07823
 H1048 H 1.12146 0.83770 0.09221
 H1049 H 1.10221 0.84256 0.02750
 H1050 H 1.12672 0.87073 0.05698
 C1051 C 0.62127 0.34144 0.57031
 C1052 C 0.64547 0.33101 0.57137
 C1053 C 0.65082 0.34157 0.54793
 C1054 C 0.62689 0.35219 0.54676
 C1055 C 0.61327 0.31999 0.55849
 C1056 C 0.61854 0.33052 0.53501
 C1057 C 0.63721 0.30942 0.55964
 C1058 C 0.64284 0.32012 0.53609
 C1059 C 0.67214 0.35321 0.54290
 C1060 C 0.69001 0.36241 0.53950
 C1061 C 0.59290 0.30759 0.56545
 C1062 C 0.57679 0.29703 0.57235
 H1063 H 0.61217 0.35009 0.58444
 H1064 H 0.65675 0.33132 0.58628
 H1065 H 0.62290 0.36993 0.54140
 H1066 H 0.60722 0.33018 0.52014
 H1067 H 0.64126 0.29170 0.56500
 H1068 H 0.65196 0.31148 0.52197
 C1069 C 0.36570 0.19509 0.55201
 C1070 C 0.36314 0.18006 0.53087
 C1071 C 0.35059 0.16249 0.54573
 C1072 C 0.35285 0.17736 0.56673
 C1073 C 0.38810 0.18264 0.55739
 C1074 C 0.37549 0.16506 0.57219
 C1075 C 0.38593 0.16777 0.53637
 C1076 C 0.37299 0.15002 0.55111
 C1077 C 0.32935 0.15133 0.54033
 C1078 C 0.31157 0.14226 0.53688
 C1079 C 0.40854 0.19378 0.56519
 C1080 C 0.42483 0.20281 0.57299
 H1081 H 0.36292 0.21375 0.55245
 H1082 H 0.35780 0.18609 0.51380
 H1083 H 0.33904 0.18119 0.57918
 H1084 H 0.38077 0.15899 0.58927
 H1085 H 0.39977 0.16397 0.52396
 H1086 H 0.37575 0.13136 0.55068
 C1087 C 0.88512 0.65723 0.05435
 C1088 C 0.86248 0.65830 0.06797
 C1089 C 0.84982 0.66296 0.04574
 C1090 C 0.87215 0.66172 0.03198
 C1091 C 0.88750 0.68295 0.05715
 C1092 C 0.87489 0.68767 0.03490
 C1093 C 0.86513 0.68414 0.07085
 C1094 C 0.85220 0.68868 0.04854
 C1095 C 0.82850 0.65186 0.04049
 C1096 C 0.81067 0.64283 0.03717
 C1097 C 0.90803 0.69403 0.06483
 C1098 C 0.92439 0.70300 0.07254
 H1099 H 0.89889 0.64441 0.05681
 H1100 H 0.85717 0.64612 0.08152
 H1101 H 0.87478 0.65236 0.01593
 H1102 H 0.88024 0.69987 0.02138
 H1103 H 0.86243 0.69347 0.08691
 H1104 H 0.83843 0.70150 0.04610
 C1105 C 0.62125 0.67360 0.96555
 C1106 C 0.63019 0.65046 0.95660
 C1107 C 0.65350 0.66107 0.95206
 C1108 C 0.64496 0.68402 0.96111
 C1109 C 0.61454 0.68041 0.94126
 C1110 C 0.63787 0.69099 0.93674
 C1111 C 0.62312 0.65747 0.93224
 C1112 C 0.64671 0.66791 0.92780
 C1113 C 0.67548 0.65039 0.95711
 C1114 C 0.69380 0.64172 0.96046
 C1115 C 0.59327 0.69120 0.93397
 C1116 C 0.57631 0.70004 0.92655
 H1117 H 0.61053 0.67607 0.98099
 H1118 H 0.62728 0.63366 0.96482
 H1119 H 0.65420 0.69482 0.97303
 H1120 H 0.64082 0.70778 0.92851
 H1121 H 0.61391 0.64665 0.92030
 H1122 H 0.65739 0.66547 0.91232
 C1123 C 0.13386 0.17410 0.42352
 C1124 C 0.15107 0.18380 0.44023
 C1125 C 0.15347 0.16016 0.45136
 C1126 C 0.13653 0.15033 0.43472
 C1127 C 0.11458 0.17961 0.44050
 C1128 C 0.11694 0.15596 0.45163
 C1129 C 0.13150 0.18947 0.45714
 C1130 C 0.13424 0.16563 0.46841
 C1131 C 0.17541 0.14943 0.45646
 C1132 C 0.19370 0.14073 0.45984
 C1133 C 0.09336 0.19046 0.43316
 C1134 C 0.07644 0.19936 0.42572
 H1135 H 0.13350 0.17770 0.40497
 H1136 H 0.16533 0.19513 0.43557
 H1137 H 0.13882 0.13414 0.42554
 H1138 H 0.10265 0.14465 0.45626
 H1139 H 0.12918 0.20568 0.46630
 H1140 H 0.13467 0.16201 0.48695
 C1141 C 0.55413 0.12707 0.72547
 C1142 C 0.55939 0.10344 0.71533
 C1143 C 0.58333 0.10422 0.72520
 C1144 C 0.57825 0.12755 0.73554
 C1145 C 0.56341 0.13820 0.70357
 C1146 C 0.58735 0.13899 0.71343
 C1147 C 0.56850 0.11487 0.69325
 C1148 C 0.59260 0.11536 0.70329
 C1149 C 0.59433 0.08512 0.73705
 C1150 C 0.60322 0.06922 0.74665
 C1151 C 0.55237 0.15695 0.69120
 C1152 C 0.54341 0.17218 0.68064
 H1153 H 0.53819 0.13209 0.73445
 H1154 H 0.54802 0.08860 0.71624
 H1155 H 0.58240 0.13254 0.75307
 H1156 H 0.59872 0.15384 0.71251
 H1157 H 0.56436 0.10986 0.67572
 H1158 H 0.60854 0.11034 0.69431
 C1159 C 1.06018 0.63307 0.22871
 C1160 C 1.05657 0.60763 0.22382
 C1161 C 1.08235 0.60363 0.22472
 C1162 C 1.08615 0.62876 0.22981
 C1163 C 1.06260 0.63771 0.20307
 C1164 C 1.08838 0.63371 0.20397
 C1165 C 1.05881 0.61257 0.19800
 C1166 C 1.08475 0.60829 0.19908
 C1167 C 1.09327 0.58449 0.23658
 C1168 C 1.10211 0.56858 0.24621
 C1169 C 1.05166 0.65651 0.19069
 C1170 C 1.04279 0.67179 0.18013
 H1171 H 1.04995 0.64347 0.24075
 H1172 H 1.04361 0.59669 0.23212
 H1173 H 1.09753 0.63519 0.24302
 H1174 H 1.10134 0.64465 0.19566
 H1175 H 1.04744 0.60612 0.18479
 H1176 H 1.09498 0.59789 0.18703
 C1177 C 0.94802 0.86823 0.22381
 C1178 C 0.94767 0.89320 0.21519
 C1179 C 0.92229 0.89483 0.22139
 C1180 C 0.92248 0.87016 0.23020
 C1181 C 0.94157 0.86063 0.19997
 C1182 C 0.91620 0.86226 0.20617
 C1183 C 0.94138 0.88529 0.19116
 C1184 C 0.91585 0.88722 0.19755
 C1185 C 0.91149 0.91392 0.23318
 C1186 C 0.90261 0.92969 0.24280
 C1187 C 0.95207 0.84159 0.18783
 C1188 C 0.96040 0.82593 0.17760
 H1189 H 0.96138 0.86021 0.23447
 H1190 H 0.96048 0.90615 0.21903
 H1191 H 0.91457 0.86416 0.24638
 H1192 H 0.90338 0.84932 0.20233
 H1193 H 0.94928 0.89131 0.17498
 H1194 H 0.90250 0.89523 0.18688
 C1195 C 0.43316 0.38275 0.68883
 C1196 C 0.41096 0.38152 0.70316
 C1197 C 0.42234 0.39503 0.72182
 C1198 C 0.44439 0.39655 0.70767
 C1199 C 0.44153 0.36074 0.70047
 C1200 C 0.45293 0.37424 0.71913
 C1201 C 0.41949 0.35922 0.71462
 C1202 C 0.43071 0.37303 0.73348
 C1203 C 0.41160 0.41417 0.73359
 C1204 C 0.40277 0.42997 0.74319
 C1205 C 0.45200 0.34167 0.68836
 C1206 C 0.46032 0.32598 0.67815
 H1207 H 0.43429 0.38654 0.67033
 H1208 H 0.39359 0.38472 0.69672
 H1209 H 0.45450 0.41212 0.70494
 H1210 H 0.47030 0.37103 0.72556
 H1211 H 0.40937 0.34366 0.71735
 H1212 H 0.42957 0.36925 0.75197
 C1213 C 0.42814 0.64103 0.77374
 C1214 C 0.44029 0.61846 0.76740
 C1215 C 0.41959 0.60540 0.77643
 C1216 C 0.40726 0.62767 0.78257
 C1217 C 0.43840 0.63914 0.79751
 C1218 C 0.41769 0.62608 0.80653
 C1219 C 0.45071 0.61687 0.79137
 C1220 C 0.42985 0.60354 0.80020
 C1221 C 0.40919 0.58644 0.76488
 C1222 C 0.40076 0.57070 0.75551
 C1223 C 0.44883 0.65772 0.80962
 C1224 C 0.45731 0.67277 0.82001
 H1225 H 0.42756 0.65666 0.76300
 H1226 H 0.44947 0.61510 0.75118
 H1227 H 0.38928 0.63188 0.77883
 H1228 H 0.40851 0.62942 0.82275
 H1229 H 0.46870 0.61265 0.79511
 H1230 H 0.43043 0.58791 0.81096
 C1231 C -0.06233 0.13633 0.27123
 C1232 C -0.05560 0.11094 0.27414
 C1233 C -0.08086 0.10504 0.27609
 C1234 C -0.08777 0.13012 0.27298
 C1235 C -0.06199 0.13877 0.29714
 C1236 C -0.08725 0.13287 0.29908
 C1237 C -0.05510 0.11369 0.30023
 C1238 C -0.08051 0.10751 0.30199
 C1239 C -0.09129 0.08609 0.26456
 C1240 C -0.09973 0.07035 0.25519
 C1241 C -0.05151 0.15734 0.30921
 C1242 C -0.04297 0.17238 0.31957
 H1243 H -0.05474 0.14839 0.25872
 H1244 H -0.04271 0.10170 0.26376
 H1245 H -0.10133 0.13665 0.26165
 H1246 H -0.10014 0.14210 0.30947
 H1247 H -0.04154 0.10714 0.31156
 H1248 H -0.08810 0.09546 0.31452
 C1249 C 0.04880 0.37403 0.28112
 C1250 C 0.05600 0.39609 0.29285
 C1251 C 0.07912 0.39449 0.28055
 C1252 C 0.07210 0.37274 0.26863
 C1253 C 0.05886 0.36014 0.30091
 C1254 C 0.08199 0.35855 0.28860
 C1255 C 0.06588 0.38189 0.31282
 C1256 C 0.08917 0.38058 0.30034
 C1257 C 0.09047 0.41358 0.26923
 C1258 C 0.09976 0.42927 0.25985
 C1259 C 0.04790 0.34095 0.31246
 C1260 C 0.03930 0.32510 0.32226
 H1261 H 0.03208 0.37113 0.27334
 H1262 H 0.04545 0.41176 0.29449
 H1263 H 0.07481 0.36919 0.25033
 H1264 H 0.09255 0.34289 0.28697
 H1265 H 0.06319 0.38544 0.33112
 H1266 H 0.10589 0.38348 0.30812
 C1267 C 0.58499 0.86405 0.80179
 C1268 C 0.58451 0.86933 0.77597
 C1269 C 0.57983 0.89443 0.78120
 C1270 C 0.58048 0.88943 0.80684
 C1271 C 0.55925 0.86029 0.80157
 C1272 C 0.55458 0.88540 0.80680
 C1273 C 0.55860 0.86528 0.77592
 C1274 C 0.55410 0.89069 0.78097
 C1275 C 0.59136 0.91342 0.76988
 C1276 C 0.60080 0.92904 0.76052
 C1277 C 0.54812 0.84121 0.81314
 C1278 C 0.53942 0.82544 0.82298
 H1279 H 0.59756 0.85287 0.81047
 H1280 H 0.59695 0.86294 0.76317
 H1281 H 0.58962 0.89956 0.81943
 H1282 H 0.54213 0.89179 0.81960
 H1283 H 0.54946 0.85515 0.76334
 H1284 H 0.54153 0.90188 0.77228
 C1285 C 0.69277 0.58075 0.12099
 C1286 C 0.71352 0.59631 0.12334
 C1287 C 0.72537 0.58370 0.10375
 C1288 C 0.70481 0.56831 0.10112
 C1289 C 0.70370 0.56374 0.13771
 C1290 C 0.71556 0.55113 0.11812
 C1291 C 0.72427 0.57913 0.14036
 C1292 C 0.73632 0.56669 0.12046
 C1293 C 0.73724 0.59471 0.08466
 C1294 C 0.74686 0.60361 0.06876
 C1295 C 0.69132 0.55268 0.15644
 C1296 C 0.68075 0.54370 0.17167
 H1297 H 0.67473 0.58640 0.12142
 H1298 H 0.71281 0.61501 0.12526
 H1299 H 0.69694 0.56399 0.08478
 H1300 H 0.71626 0.53243 0.11619
 H1301 H 0.73213 0.58344 0.15671
 H1302 H 0.75437 0.56104 0.12002
 C1303 C 0.22868 1.06404 0.63624
 C1304 C 0.22719 1.05714 0.61104
 C1305 C 0.22443 1.08229 0.60428
 C1306 C 0.22611 1.08938 0.62918
 C1307 C 0.20274 1.06256 0.63836
 C1308 C 0.19998 1.08772 0.63160
 C1309 C 0.20107 1.05549 0.61347
 C1310 C 0.19850 1.08080 0.60642
 C1311 C 0.23632 1.09320 0.58514
 C1312 C 0.24596 1.10204 0.56923
 C1313 C 0.19034 1.05163 0.65716
 C1314 C 0.17977 1.04277 0.67245
 H1315 H 0.24094 1.05701 0.64872
 H1316 H 0.23852 1.04469 0.60236
 H1317 H 0.23654 1.10345 0.63541
 H1318 H 0.18865 1.10016 0.64028
 H1319 H 0.19064 1.04142 0.60722
 H1320 H 0.18622 1.08782 0.59396
 C1321 C 0.20927 0.91674 0.86097
 C1322 C 0.23143 0.92543 0.87138
 C1323 C 0.22107 0.92166 0.89520
 C1324 C 0.19909 0.91281 0.88508
 C1325 C 0.19960 0.94109 0.86108
 C1326 C 0.18925 0.93732 0.88491
 C1327 C 0.22158 0.94995 0.87119
 C1328 C 0.21141 0.94601 0.89532
 C1329 C 0.23289 0.91078 0.91424
 C1330 C 0.24252 0.90186 0.92999
 C1331 C 0.18744 0.95168 0.84210
 C1332 C 0.17718 0.96007 0.82648
 H1333 H 0.20826 0.90483 0.84662
 H1334 H 0.24891 0.92040 0.86603
 H1335 H 0.18998 0.89742 0.89099
 H1336 H 0.17177 0.94233 0.89026
 H1337 H 0.23068 0.96535 0.86527
 H1338 H 0.21242 0.95792 0.90967
 C1339 C 0.69343 0.44496 0.38555
 C1340 C 0.69661 0.41907 0.38945
 C1341 C 0.72165 0.42289 0.39491
 C1342 C 0.71866 0.44862 0.39130
 C1343 C 0.70034 0.44198 0.36052
 C1344 C 0.72538 0.44581 0.36596
 C1345 C 0.70334 0.41625 0.36413
 C1346 C 0.72856 0.41990 0.36988
 C1347 C 0.73339 0.41220 0.41410
 C1348 C 0.74298 0.40341 0.42995
 C1349 C 0.68827 0.45239 0.34138
 C1350 C 0.67809 0.46068 0.32565
 H1351 H 0.67886 0.45539 0.39178
 H1352 H 0.68491 0.40795 0.39932
 H1353 H 0.72509 0.46181 0.40270
 H1354 H 0.73707 0.45693 0.35609
 H1355 H 0.69691 0.40305 0.35274
 H1356 H 0.74314 0.40947 0.36365
 C1357 C 0.80617 0.43869 0.61475
 C1358 C 0.80025 0.41325 0.61335
 C1359 C 0.77631 0.42007 0.60559
 C1360 C 0.78206 0.44536 0.60670
 C1361 C 0.79737 0.43875 0.63943
 C1362 C 0.77343 0.44558 0.63168
 C1363 C 0.79163 0.41346 0.63832
 C1364 C 0.76749 0.42012 0.63026
 C1365 C 0.76477 0.40974 0.58659
 C1366 C 0.75539 0.40136 0.57081
 C1367 C 0.80947 0.44912 0.65806
 C1368 C 0.81985 0.45755 0.67314
 H1369 H 0.82220 0.44645 0.60857
 H1370 H 0.81114 0.39985 0.60560
 H1371 H 0.77800 0.45836 0.59349
 H1372 H 0.76255 0.45899 0.63943
 H1373 H 0.79569 0.40047 0.65153
 H1374 H 0.75145 0.41236 0.63642
 C1375 C 0.27130 -0.06526 0.13782
 C1376 C 0.27192 -0.05685 0.11277
 C1377 C 0.27600 -0.08143 0.10521
 C1378 C 0.27518 -0.09001 0.12996
 C1379 C 0.29712 -0.06237 0.13880
 C1380 C 0.30118 -0.08695 0.13124
 C1381 C 0.29792 -0.05381 0.11405
 C1382 C 0.30181 -0.07853 0.10621
 C1383 C 0.26444 -0.09194 0.08632
 C1384 C 0.25506 -0.10045 0.07063
 C1385 C 0.30923 -0.05179 0.15729
 C1386 C 0.31962 -0.04317 0.17226
 H1387 H 0.25889 -0.05968 0.15103
 H1388 H 0.25976 -0.04460 0.10495
 H1389 H 0.26570 -0.10502 0.13628
 H1390 H 0.31335 -0.09920 0.13905
 H1391 H 0.30740 -0.03880 0.10771
 H1392 H 0.31423 -0.08411 0.09301
 C1393 C 0.30883 0.05681 0.38459
 C1394 C 0.30587 0.08282 0.38703
 C1395 C 0.28097 0.07934 0.39412
 C1396 C 0.28374 0.05350 0.39198
 C1397 C 0.30130 0.05903 0.35980
 C1398 C 0.27640 0.05554 0.36688
 C1399 C 0.29852 0.08487 0.36195
 C1400 C 0.27344 0.08156 0.36933
 C1401 C 0.26966 0.09071 0.41320
 C1402 C 0.26028 0.10003 0.42888
 C1403 C 0.31283 0.04804 0.34062
 C1404 C 0.32261 0.03943 0.32478
 H1405 H 0.32350 0.04649 0.39065
 H1406 H 0.31786 0.09416 0.39551
 H1407 H 0.27755 0.04073 0.40457
 H1408 H 0.26441 0.04420 0.35839
 H1409 H 0.30471 0.09765 0.34938
 H1410 H 0.25877 0.09188 0.36327
 C1411 C 0.78274 0.54870 0.87585
 C1412 C 0.79474 0.55764 0.89709
 C1413 C 0.78099 0.57990 0.89493
 C1414 C 0.76881 0.57114 0.87400
 C1415 C 0.80137 0.55933 0.86079
 C1416 C 0.78762 0.58159 0.85865
 C1417 C 0.81354 0.56809 0.88173
 C1418 C 0.79962 0.59052 0.87986
 C1419 C 0.76968 0.59142 0.91392
 C1420 C 0.76031 0.60085 0.92954
 C1421 C 0.81294 0.54821 0.84172
 C1422 C 0.82277 0.53951 0.82595
 H1423 H 0.77594 0.53138 0.87399
 H1424 H 0.79755 0.54793 0.91312
 H1425 H 0.75029 0.57255 0.87104
 H1426 H 0.78481 0.59131 0.84262
 H1427 H 0.83206 0.56670 0.88470
 H1428 H 0.80644 0.60783 0.88172
 C1429 C 0.13428 0.70442 0.58924
 C1430 C 0.12934 0.73025 0.58703
 C1431 C 0.10418 0.72517 0.58341
 C1432 C 0.10883 0.69954 0.58579
 C1433 C 0.13810 0.70352 0.56341
 C1434 C 0.11294 0.69845 0.55981
 C1435 C 0.13347 0.72915 0.56102
 C1436 C 0.10800 0.72426 0.55758
 C1437 C 0.08511 0.73702 0.59445
 C1438 C 0.06924 0.74662 0.60337
 C1439 C 0.15681 0.69114 0.55234
 C1440 C 0.17202 0.68058 0.54334
 H1441 H 0.14531 0.69613 0.60213
 H1442 H 0.13586 0.74346 0.59836
 H1443 H 0.09850 0.68750 0.59610
 H1444 H 0.10640 0.68525 0.54849
 H1445 H 0.14381 0.74118 0.55070
 H1446 H 0.09698 0.73255 0.54470
 C1447 C 0.61523 0.20699 1.05153
 C1448 C 0.60347 0.19970 1.07411
 C1449 C 0.60434 0.22435 1.08210
 C1450 C 0.61581 0.23184 1.05968
 C1451 C 0.63840 0.20258 1.06247
 C1452 C 0.63929 0.22723 1.07045
 C1453 C 0.62692 0.19510 1.08489
 C1454 C 0.62750 0.21994 1.09305
 C1455 C 0.58521 0.23629 1.09294
 C1456 C 0.56930 0.24597 1.10172
 C1457 C 0.65719 0.19014 1.05161
 C1458 C 0.67248 0.17955 1.04279
 H1459 H 0.61040 0.20154 1.03434
 H1460 H 0.58854 0.18852 1.07575
 H1461 H 0.61102 0.24709 1.04944
 H1462 H 0.65423 0.23841 1.06881
 H1463 H 0.63170 0.17986 1.09514
 H1464 H 0.63232 0.22540 1.11024
 C1465 C 0.85855 0.22060 0.92598
 C1466 C 0.87811 0.23179 0.93880
 C1467 C 0.89519 0.22100 0.92205
 C1468 C 0.87592 0.21000 0.90907
 C1469 C 0.86107 0.19947 0.94139
 C1470 C 0.87815 0.18870 0.92464
 C1471 C 0.88033 0.21047 0.95438
 C1472 C 0.89770 0.19988 0.93746
 C1473 C 0.91423 0.23287 0.91123
 C1474 C 0.92997 0.24253 0.90234
 C1475 C 0.84208 0.18727 0.95193
 C1476 C 0.82646 0.17699 0.96029
 H1477 H 0.84223 0.22898 0.92138
 H1478 H 0.87831 0.24965 0.94449
 H1479 H 0.87432 0.20994 0.89032
 H1480 H 0.87796 0.17085 0.91894
 H1481 H 0.88192 0.21053 0.97313
 H1482 H 0.91401 0.19149 0.94206
 C1483 C 0.35843 0.72133 0.42624
 C1484 C 0.37796 0.73243 0.43920
 C1485 C 0.39509 0.72155 0.42257
 C1486 C 0.37586 0.71065 0.40945
 C1487 C 0.36073 0.70020 0.44167
 C1488 C 0.37788 0.68934 0.42504
 C1489 C 0.37996 0.71110 0.45480
 C1490 C 0.39739 0.70042 0.43800
 C1491 C 0.41426 0.73332 0.41188
 C1492 C 0.43010 0.74293 0.40309
 C1493 C 0.34162 0.68810 0.45209
 C1494 C 0.32590 0.67791 0.46037
 H1495 H 0.34219 0.72980 0.42153
 H1496 H 0.37821 0.75028 0.44488
 H1497 H 0.37439 0.71059 0.39069
 H1498 H 0.37763 0.67148 0.41935
 H1499 H 0.38142 0.71115 0.47356
 H1500 H 0.41363 0.69195 0.44271
 C1501 C 0.61745 0.80907 0.43038
 C1502 C 0.61920 0.79534 0.40822
 C1503 C 0.60559 0.77629 0.41984
 C1504 C 0.60356 0.78985 0.44185
 C1505 C 0.63937 0.79738 0.43859
 C1506 C 0.62576 0.77834 0.45022
 C1507 C 0.64141 0.78382 0.41657
 C1508 C 0.62750 0.76458 0.42804
 C1509 C 0.58662 0.76474 0.40947
 C1510 C 0.57086 0.75537 0.40107
 C1511 C 0.65796 0.80949 0.44899
 C1512 C 0.67301 0.81989 0.45745
 H1513 H 0.61351 0.82750 0.43146
 H1514 H 0.61629 0.80220 0.39084
 H1515 H 0.58778 0.79222 0.45212
 H1516 H 0.62867 0.77148 0.46760
 H1517 H 0.65720 0.78147 0.40631
 H1518 H 0.63141 0.74614 0.42694
 C1519 C 0.13864 0.27184 -0.06671
 C1520 C 0.11398 0.27109 -0.05726
 C1521 C 0.10523 0.27630 -0.08124
 C1522 C 0.12959 0.27685 -0.09087
 C1523 C 0.13890 0.29746 -0.06237
 C1524 C 0.13014 0.30266 -0.08636
 C1525 C 0.11454 0.29690 -0.05276
 C1526 C 0.10551 0.30192 -0.07689
 C1527 C 0.08632 0.26471 -0.09166
 C1528 C 0.07060 0.25529 -0.10009
 C1529 C 0.15743 0.30960 -0.05190
 C1530 C 0.17244 0.32001 -0.04337
 H1531 H 0.15248 0.25961 -0.06240
 H1532 H 0.10711 0.25799 -0.04541
 H1533 H 0.13555 0.26848 -0.10666
 H1534 H 0.13700 0.31577 -0.09821
 H1535 H 0.10856 0.30527 -0.03697
 H1536 H 0.09168 0.31416 -0.08120
 C1537 C 0.36930 0.30848 0.08163
 C1538 C 0.37016 0.28312 0.08889
 C1539 C 0.39430 0.28128 0.07883
 C1540 C 0.39373 0.30647 0.07174
 C1541 C 0.36002 0.30167 0.05852
 C1542 C 0.38415 0.29983 0.04845
 C1543 C 0.36058 0.27648 0.06562
 C1544 C 0.38502 0.27445 0.05572
 C1545 C 0.41335 0.26994 0.09020
 C1546 C 0.42901 0.26053 0.09951
 C1547 C 0.34086 0.31323 0.04753
 C1548 C 0.32504 0.32304 0.03892
 H1549 H 0.36262 0.32260 0.09217
 H1550 H 0.36462 0.27614 0.10565
 H1551 H 0.40756 0.31867 0.07439
 H1552 H 0.38968 0.30681 0.03169
 H1553 H 0.34675 0.26427 0.06296
 H1554 H 0.39171 0.26032 0.04520
 C1555 C 0.87711 0.81341 0.57501
 C1556 C 0.87492 0.79358 0.59242
 C1557 C 0.89451 0.78112 0.58017
 C1558 C 0.89699 0.80077 0.56293
 C1559 C 0.86039 0.80148 0.55957
 C1560 C 0.87998 0.78902 0.54731
 C1561 C 0.85791 0.78182 0.57682
 C1562 C 0.87780 0.76918 0.56474
 C1563 C 0.91348 0.76981 0.59171
 C1564 C 0.92910 0.76046 0.60115
 C1565 C 0.84133 0.81305 0.54842
 C1566 C 0.82558 0.82288 0.53970
 H1567 H 0.87662 0.83173 0.57910
 H1568 H 0.87305 0.79534 0.61109
 H1569 H 0.91327 0.80845 0.55737
 H1570 H 0.88183 0.78727 0.52864
 H1571 H 0.84164 0.77415 0.58239
 H1572 H 0.87830 0.75085 0.56066
   
