data_POSCAR
  _audit_creation_date              2014-09-24
  _audit_creation_method            'ToBaCCo'
  _symmetry_space_group_name_H-M    'P1'
  _symmetry_Int_Tables_number       1
  _symmetry_cell_setting            triclinic
  loop_
  _symmetry_equiv_pos_as_xyz
 x,y,z
_cell_length_a 71.3564
_cell_length_b 71.3515
_cell_length_c 71.3314
_cell_angle_alpha 90.258300
_cell_angle_beta 89.982700
_cell_angle_gamma 90.291800
loop_
  _atom_site_label
  _atom_site_type_symbol
  _atom_site_fract_x
  _atom_site_fract_y
  _atom_site_fract_z
C1 C 0.09837 0.01581 0.22684
 H2 H 0.09757 0.02668 0.23743
 C3 C 0.08840 0.01761 0.21008
 H4 H 0.07992 0.02994 0.20785
 C5 C 0.11123 -0.01299 0.21648
 H6 H 0.12045 -0.02470 0.21878
 C7 C 0.10155 -0.01174 0.19957
 H8 H 0.10312 -0.02280 0.18925
 N9 N 0.10951 0.00067 0.22972
 C10 C 0.11942 -0.00377 0.28977
 H11 H 0.13455 -0.00470 0.28939
 C12 C 0.10999 -0.00537 0.30679
 H13 H 0.11801 -0.00723 0.31952
 C14 C 0.09073 -0.00010 0.27349
 H15 H 0.08330 0.00163 0.26042
 C16 C 0.08069 -0.00159 0.29028
 H17 H 0.06554 -0.00095 0.28999
 Zn18 Zn 0.12447 -0.00024 0.25160
 N19 N 0.10976 -0.00110 0.27360
 C20 C 0.13855 0.03397 0.26616
 N21 N 0.13984 0.02143 0.25181
 C22 C 0.15099 0.02483 0.23672
 C23 C 0.16146 0.04140 0.23570
 C24 C 0.14879 0.05066 0.26574
 C25 C 0.12896 -0.03857 0.25317
 C26 C 0.13806 -0.05577 0.25358
 C27 C 0.16763 -0.03938 0.25110
 C28 C 0.15783 -0.02245 0.25070
 N29 N 0.13884 -0.02239 0.25152
 H30 H 0.12920 0.03131 0.27777
 H31 H 0.15151 0.01476 0.22535
 H32 H 0.17028 0.04387 0.22360
 H33 H 0.14720 0.06064 0.27710
 H34 H 0.11385 -0.03805 0.25433
 H35 H 0.12931 -0.06794 0.25582
 H36 H 0.18264 -0.03850 0.24946
 H37 H 0.16546 -0.00937 0.24963
 C38 C 0.09036 -0.00434 0.30720
 C39 C 0.09012 0.00380 0.19609
 C40 C 0.15788 -0.05673 0.25242
 C41 C 0.16035 0.05462 0.25031
 C42 C 0.40063 0.01516 0.77198
 H43 H 0.40176 0.02675 0.76232
 C44 C 0.41014 0.01582 0.78912
 H45 H 0.41858 0.02801 0.79255
 C46 C 0.38734 -0.01431 0.77969
 H47 H 0.37810 -0.02584 0.77624
 C48 C 0.39655 -0.01422 0.79692
 H49 H 0.39464 -0.02597 0.80630
 N50 N 0.38946 0.00026 0.76764
 C51 C 0.38058 0.00037 0.70718
 H52 H 0.36545 -0.00067 0.70722
 C53 C 0.39028 0.00052 0.69024
 H54 H 0.38249 -0.00058 0.67725
 C55 C 0.40903 0.00250 0.72423
 H56 H 0.41624 0.00311 0.73754
 C57 C 0.41934 0.00264 0.70754
 H58 H 0.43447 0.00365 0.70813
 Zn59 Zn 0.37488 0.00102 0.74547
 N60 N 0.38999 0.00159 0.72371
 C61 C 0.36213 0.03643 0.73346
 N62 N 0.36003 0.02293 0.74671
 C63 C 0.34856 0.02551 0.76172
 C64 C 0.33859 0.04222 0.76381
 C65 C 0.35247 0.05330 0.73500
 C66 C 0.36958 -0.03708 0.74065
 C67 C 0.36006 -0.05410 0.73907
 C68 C 0.33087 -0.03759 0.74329
 C69 C 0.34099 -0.02080 0.74474
 N70 N 0.36002 -0.02091 0.74364
 H71 H 0.37162 0.03437 0.72186
 H72 H 0.34746 0.01473 0.77228
 H73 H 0.32983 0.04420 0.77605
 H74 H 0.35432 0.06383 0.72426
 H75 H 0.38471 -0.03671 0.73968
 H76 H 0.36802 -0.06685 0.73713
 H77 H 0.31573 -0.03731 0.74419
 H78 H 0.33364 -0.00775 0.74674
 C79 C 0.40992 0.00177 0.69024
 C80 C 0.40794 0.00109 0.80195
 C81 C 0.34045 -0.05454 0.74046
 C82 C 0.34065 0.05647 0.75042
 C83 C 0.90127 0.51459 0.27317
 H84 H 0.90261 0.52604 0.26336
 C85 C 0.91085 0.51529 0.29028
 H86 H 0.91914 0.52766 0.29327
 C87 C 0.88745 0.48556 0.28127
 H88 H 0.87811 0.47408 0.27792
 C89 C 0.89667 0.48566 0.29847
 H90 H 0.89473 0.47360 0.30738
 N91 N 0.88985 0.49987 0.26900
 C92 C 0.88172 0.49802 0.20848
 H93 H 0.86658 0.49711 0.20837
 C94 C 0.89164 0.49711 0.19169
 H95 H 0.88399 0.49578 0.17864
 C96 C 0.90995 0.50101 0.22577
 H97 H 0.91700 0.50223 0.23913
 C98 C 0.92047 0.50020 0.20923
 H99 H 0.93562 0.50082 0.21000
 Zn100 Zn 0.87555 0.50014 0.24662
 N101 N 0.89092 0.50004 0.22505
 C102 C 0.86291 0.53511 0.23337
 N103 N 0.86067 0.52205 0.24703
 C104 C 0.84902 0.52511 0.26182
 C105 C 0.83909 0.54190 0.26329
 C106 C 0.85329 0.55204 0.23429
 C107 C 0.87065 0.46202 0.24270
 C108 C 0.86145 0.44479 0.24194
 C109 C 0.83197 0.46090 0.24570
 C110 C 0.84179 0.47793 0.24641
 N111 N 0.86082 0.47810 0.24522
 H112 H 0.87251 0.53265 0.22194
 H113 H 0.84779 0.51466 0.27270
 H114 H 0.83022 0.54428 0.27538
 H115 H 0.85528 0.56222 0.22324
 H116 H 0.88576 0.46263 0.24151
 H117 H 0.86959 0.43216 0.23995
 H118 H 0.81686 0.46090 0.24711
 H119 H 0.83423 0.49091 0.24810
 C120 C 0.91128 0.49815 0.19191
 C121 C 0.90850 0.50079 0.30354
 C122 C 0.84188 0.44403 0.24368
 C123 C 0.84135 0.55573 0.24949
 C124 C 0.59767 0.51735 0.72615
 H125 H 0.59715 0.52832 0.73665
 C126 C 0.58741 0.51908 0.70955
 H127 H 0.57900 0.53146 0.70736
 C128 C 0.61013 0.48836 0.71581
 H129 H 0.61933 0.47662 0.71803
 C130 C 0.60015 0.48953 0.69906
 H131 H 0.60146 0.47839 0.68880
 N132 N 0.60876 0.50217 0.72894
 C133 C 0.62004 0.49845 0.78882
 H134 H 0.63516 0.49753 0.78813
 C135 C 0.61098 0.49705 0.80605
 H136 H 0.61926 0.49534 0.81864
 C137 C 0.59100 0.50188 0.77311
 H138 H 0.58330 0.50343 0.76018
 C139 C 0.58132 0.50058 0.79012
 H140 H 0.56616 0.50116 0.79014
 Zn141 Zn 0.62422 0.50144 0.75048
 N142 N 0.61003 0.50091 0.77282
 C143 C 0.63892 0.53574 0.76427
 N144 N 0.63968 0.52303 0.75003
 C145 C 0.65044 0.52614 0.73460
 C146 C 0.66108 0.54256 0.73311
 C147 C 0.64934 0.55230 0.76338
 C148 C 0.62871 0.46305 0.75228
 C149 C 0.63791 0.44589 0.75260
 C150 C 0.66740 0.46239 0.74942
 C151 C 0.65758 0.47930 0.74911
 N152 N 0.63856 0.47927 0.75033
 H153 H 0.62988 0.53332 0.77616
 H154 H 0.65055 0.51593 0.72334
 H155 H 0.66959 0.54478 0.72074
 H156 H 0.64820 0.56242 0.77467
 H157 H 0.61361 0.46350 0.75357
 H158 H 0.62979 0.43315 0.75430
 H159 H 0.68252 0.46258 0.74816
 H160 H 0.66517 0.49238 0.74794
 C161 C 0.59136 0.49803 0.80687
 C162 C 0.58879 0.50515 0.69564
 C163 C 0.65751 0.44539 0.75107
 C164 C 0.66054 0.55594 0.74760
 C165 C 0.27265 0.09775 0.98674
 H166 H 0.26282 0.09770 0.97519
 C167 C 0.28908 0.08725 0.98547
 H168 H 0.29174 0.07910 0.97292
 C169 C 0.28174 0.10951 1.01651
 H170 H 0.27909 0.11850 1.02842
 C171 C 0.29830 0.09925 1.01583
 H172 H 0.30800 0.10017 1.02747
 N173 N 0.26935 0.10874 1.00203
 C174 C 0.20965 0.12047 1.00589
 H175 H 0.21056 0.13507 1.00992
 C176 C 0.19229 0.11146 1.00597
 H177 H 0.17994 0.11932 1.00988
 C178 C 0.22483 0.09227 0.99727
 H179 H 0.23754 0.08475 0.99418
 C180 C 0.20770 0.08267 0.99721
 H181 H 0.20740 0.06789 0.99369
 Zn182 Zn 0.24820 0.12482 1.00228
 N183 N 0.22547 0.11093 1.00131
 C184 C 0.23457 0.15147 0.97621
 N185 N 0.24974 0.14123 0.98137
 C186 C 0.26591 0.14189 0.97126
 C187 C 0.26694 0.15236 0.95481
 C188 C 0.23499 0.16213 0.95985
 C189 C 0.24400 0.12879 1.04069
 C190 C 0.24337 0.13777 1.05805
 C191 C 0.25043 0.16699 1.04256
 C192 C 0.25093 0.15733 1.02547
 N193 N 0.24786 0.13857 1.02490
 H194 H 0.22196 0.15111 0.98453
 H195 H 0.27800 0.13406 0.97575
 H196 H 0.27972 0.15209 0.94664
 H197 H 0.22267 0.16996 0.95585
 H198 H 0.24125 0.11388 1.03974
 H199 H 0.23931 0.12924 1.06984
 H200 H 0.25392 0.18172 1.04216
 H201 H 0.25404 0.16480 1.01267
 C202 C 0.19112 0.09233 1.00149
 C203 C 0.30230 0.08816 1.00004
 C204 C 0.24672 0.15734 1.05955
 C205 C 0.25122 0.16237 0.94871
 C206 C 0.72926 0.40126 0.98521
 H207 H 0.73922 0.40154 0.97378
 C208 C 0.71270 0.41159 0.98404
 H209 H 0.71014 0.42005 0.97175
 C210 C 0.72035 0.38957 1.01497
 H211 H 0.72307 0.38058 1.02678
 C212 C 0.70370 0.39969 1.01440
 H213 H 0.69383 0.39836 1.02586
 N214 N 0.73277 0.39055 1.00053
 C215 C 0.79290 0.38031 1.00219
 H216 H 0.79252 0.36522 1.00352
 C217 C 0.81004 0.38976 1.00234
 H218 H 0.82282 0.38181 1.00395
 C219 C 0.77653 0.40894 0.99905
 H220 H 0.76340 0.41634 0.99795
 C221 C 0.79341 0.41899 0.99918
 H222 H 0.79314 0.43410 0.99786
 Zn223 Zn 0.75444 0.37533 1.00067
 N224 N 0.77662 0.38993 1.00034
 C225 C 0.76720 0.36093 0.96595
 N226 N 0.75340 0.35981 0.97906
 C227 C 0.73800 0.34882 0.97626
 C228 C 0.73608 0.33839 0.95973
 C229 C 0.76588 0.35071 0.94929
 C230 C 0.75791 0.37107 1.03898
 C231 C 0.75881 0.36207 1.05624
 C232 C 0.75460 0.33248 1.04023
 C233 C 0.75377 0.34217 1.02323
 N234 N 0.75519 0.36113 1.02297
 H235 H 0.77905 0.37015 0.96811
 H236 H 0.72707 0.34844 0.98676
 H237 H 0.72373 0.32973 0.95772
 H238 H 0.77681 0.35219 0.93887
 H239 H 0.75951 0.38614 1.03829
 H240 H 0.76187 0.37084 1.06823
 H241 H 0.75241 0.31752 1.03954
 H242 H 0.75182 0.33448 1.01029
 C243 C 0.81047 0.40935 1.00073
 C244 C 0.69963 0.41081 0.99875
 C245 C 0.75699 0.34231 1.05744
 C246 C 0.75011 0.33934 0.94593
 C247 C 0.22810 0.90119 0.48583
 H248 H 0.23814 0.90224 0.47450
 C249 C 0.21105 0.91070 0.48472
 H250 H 0.20805 0.91907 0.47247
 C251 C 0.21938 0.88810 0.51504
 H252 H 0.22241 0.87893 0.52663
 C253 C 0.20222 0.89732 0.51451
 H254 H 0.19246 0.89548 0.52599
 N255 N 0.23191 0.89012 0.50081
 C256 C 0.29228 0.88113 0.50228
 H257 H 0.29209 0.86602 0.50346
 C258 C 0.30930 0.89077 0.50236
 H259 H 0.32219 0.88296 0.50378
 C260 C 0.27553 0.90958 0.49951
 H261 H 0.26230 0.91682 0.49852
 C262 C 0.29230 0.91983 0.49957
 H263 H 0.29185 0.93494 0.49835
 Zn264 Zn 0.25400 0.87550 0.50062
 N265 N 0.27587 0.89056 0.50061
 C266 C 0.26696 0.86257 0.46546
 N267 N 0.25333 0.86050 0.47864
 C268 C 0.23830 0.84909 0.47557
 C269 C 0.23653 0.83927 0.45865
 C270 C 0.26575 0.85304 0.44840
 C271 C 0.25745 0.87060 0.53883
 C272 C 0.25822 0.86130 0.55593
 C273 C 0.25463 0.83188 0.53936
 C274 C 0.25390 0.84180 0.52249
 N275 N 0.25505 0.86084 0.52260
 H276 H 0.27858 0.87201 0.46790
 H277 H 0.22745 0.84801 0.48611
 H278 H 0.22424 0.83062 0.45627
 H279 H 0.27676 0.85493 0.43812
 H280 H 0.25863 0.88572 0.53845
 H281 H 0.26018 0.86938 0.56868
 H282 H 0.25332 0.81676 0.53912
 H283 H 0.25232 0.83429 0.50940
 C284 C 0.30949 0.91037 0.50084
 C285 C 0.19774 0.90861 0.49910
 C286 C 0.25662 0.84169 0.55639
 C287 C 0.25027 0.84139 0.44470
 C288 C 0.77275 0.59534 0.48338
 H289 H 0.76269 0.59527 0.47204
 C290 C 0.78879 0.58425 0.48213
 H291 H 0.79077 0.57537 0.46995
 C292 C 0.78271 0.60750 0.51271
 H293 H 0.78062 0.61695 0.52438
 C294 C 0.79888 0.59661 0.51206
 H295 H 0.80902 0.59785 0.52329
 N296 N 0.77005 0.60676 0.49847
 C297 C 0.71077 0.62011 0.50339
 H298 H 0.71213 0.63476 0.50707
 C299 C 0.69319 0.61154 0.50406
 H300 H 0.68114 0.61979 0.50809
 C301 C 0.72503 0.59136 0.49502
 H302 H 0.73747 0.58346 0.49178
 C303 C 0.70767 0.58219 0.49555
 H304 H 0.70692 0.56736 0.49234
 Zn305 Zn 0.74932 0.62339 0.49876
 N306 N 0.72623 0.61008 0.49864
 C307 C 0.73580 0.64983 0.47244
 N308 N 0.75079 0.63926 0.47744
 C309 C 0.76676 0.63934 0.46699
 C310 C 0.76775 0.64960 0.45041
 C311 C 0.73618 0.66029 0.45595
 C312 C 0.74616 0.62840 0.53720
 C313 C 0.74614 0.63792 0.55429
 C314 C 0.75338 0.66659 0.53780
 C315 C 0.75330 0.65647 0.52096
 N316 N 0.74982 0.63772 0.52102
 H317 H 0.72336 0.64993 0.48103
 H318 H 0.77872 0.63124 0.47134
 H319 H 0.78036 0.64891 0.44199
 H320 H 0.72401 0.66844 0.45212
 H321 H 0.74326 0.61351 0.53676
 H322 H 0.74302 0.63025 0.56699
 H323 H 0.75644 0.68146 0.53760
 H324 H 0.75611 0.66356 0.50788
 C325 C 0.69144 0.59236 0.50001
 C326 C 0.80219 0.58494 0.49653
 C327 C 0.74986 0.65725 0.55477
 C328 C 0.75220 0.66001 0.44452
 C329 C 0.01622 0.22872 0.09878
 H330 H 0.02775 0.23859 0.09806
 C331 C 0.01692 0.21198 0.08855
 H332 H 0.02894 0.20918 0.07972
 C333 C -0.01329 0.22022 0.11149
 H334 H -0.02480 0.22318 0.12085
 C335 C -0.01319 0.20339 0.10149
 H336 H -0.02471 0.19362 0.10328
 N337 N 0.00125 0.23252 0.10996
 C338 C 0.00064 0.29273 0.12022
 H339 H -0.00049 0.29238 0.13535
 C340 C 0.00046 0.30984 0.11093
 H341 H -0.00141 0.32232 0.11936
 C342 C 0.00298 0.27628 0.09147
 H343 H 0.00388 0.26313 0.08397
 C344 C 0.00278 0.29314 0.08151
 H345 H 0.00423 0.29239 0.06645
 Zn346 Zn 0.00177 0.25439 0.12510
 N347 N 0.00211 0.27642 0.11049
 C348 C 0.03702 0.26692 0.13828
 N349 N 0.02367 0.25337 0.14009
 C350 C 0.02641 0.23831 0.15137
 C351 C 0.04313 0.23647 0.16141
 C352 C 0.05389 0.26564 0.14803
 C353 C -0.03636 0.25843 0.13014
 C354 C -0.05341 0.25987 0.13953
 C355 C -0.03700 0.25572 0.16884
 C356 C -0.02018 0.25441 0.15884
 N357 N -0.02023 0.25559 0.13981
 H358 H 0.03484 0.27857 0.12895
 H359 H 0.01574 0.22752 0.15225
 H360 H 0.04523 0.22420 0.17001
 H361 H 0.06429 0.27661 0.14640
 H362 H -0.03594 0.25948 0.11502
 H363 H -0.06612 0.26175 0.13148
 H364 H -0.03677 0.25484 0.18399
 H365 H -0.00715 0.25254 0.16629
 C366 C 0.00165 0.31046 0.09118
 C367 C 0.00210 0.19901 0.08992
 C368 C -0.05391 0.25850 0.15914
 C369 C 0.05722 0.25017 0.15963
 C370 C 0.01494 0.77044 0.40127
 H371 H 0.02607 0.76021 0.40172
 C372 C 0.01666 0.78722 0.41134
 H373 H 0.02919 0.78982 0.41953
 C374 C -0.01443 0.77992 0.38918
 H375 H -0.02633 0.77730 0.38020
 C376 C -0.01328 0.79684 0.39898
 H377 H -0.02459 0.80681 0.39775
 N378 N -0.00042 0.76714 0.39044
 C379 C -0.00370 0.70701 0.37985
 H380 H -0.00483 0.70738 0.36473
 C381 C -0.00478 0.68994 0.38919
 H382 H -0.00645 0.67715 0.38111
 C383 C -0.00005 0.72336 0.40862
 H384 H 0.00146 0.73647 0.41613
 C385 C -0.00103 0.70653 0.41857
 H386 H -0.00024 0.70684 0.43373
 Zn387 Zn -0.00112 0.74539 0.37516
 N388 N -0.00128 0.72325 0.38959
 C389 C 0.03318 0.73208 0.36037
 N390 N 0.02034 0.74608 0.35960
 C391 C 0.02331 0.76153 0.34888
 C392 C 0.03973 0.76333 0.33835
 C393 C 0.04974 0.73327 0.35004
 C394 C -0.03951 0.74269 0.37083
 C395 C -0.05680 0.74223 0.36179
 C396 C -0.04074 0.74601 0.33226
 C397 C -0.02372 0.74642 0.34198
 N398 N -0.02346 0.74502 0.36094
 H399 H 0.03086 0.72017 0.36937
 H400 H 0.01302 0.77262 0.34878
 H401 H 0.04186 0.77573 0.32991
 H402 H 0.05997 0.72219 0.35123
 H403 H -0.03883 0.74110 0.38589
 H404 H -0.06886 0.73948 0.37051
 H405 H -0.04001 0.74818 0.31731
 H406 H -0.01074 0.74804 0.33434
 C407 C -0.00350 0.68953 0.40882
 C408 C 0.00252 0.80078 0.41005
 C409 C -0.05798 0.74409 0.34204
 C410 C 0.05327 0.74912 0.33895
 C411 C 0.51475 0.27098 0.90220
 H412 H 0.52573 0.26058 0.90227
 C413 C 0.51673 0.28737 0.91283
 H414 H 0.52916 0.28938 0.92132
 C415 C 0.48537 0.28116 0.89072
 H416 H 0.47343 0.27900 0.88167
 C417 C 0.48674 0.29768 0.90115
 H418 H 0.47574 0.30801 0.90001
 N419 N 0.49924 0.26818 0.89145
 C420 C 0.49492 0.20826 0.88010
 H421 H 0.49385 0.20876 0.86498
 C422 C 0.49359 0.19113 0.88933
 H423 H 0.49179 0.17843 0.88115
 C424 C 0.49869 0.22436 0.90900
 H425 H 0.50036 0.23739 0.91661
 C426 C 0.49747 0.20748 0.91883
 H427 H 0.49822 0.20768 0.93399
 Zn428 Zn 0.49813 0.24671 0.87581
 N429 N 0.49754 0.22440 0.88997
 C430 C 0.53222 0.23299 0.86087
 N431 N 0.51963 0.24723 0.86030
 C432 C 0.52287 0.26278 0.84981
 C433 C 0.53932 0.26444 0.83930
 C434 C 0.54880 0.23404 0.85056
 C435 C 0.45965 0.24493 0.87134
 C436 C 0.44243 0.24488 0.86214
 C437 C 0.45882 0.24845 0.83270
 C438 C 0.47579 0.24847 0.84252
 N439 N 0.47585 0.24696 0.86152
 H440 H 0.52968 0.22099 0.86969
 H441 H 0.51277 0.27404 0.84986
 H442 H 0.54166 0.27692 0.83103
 H443 H 0.55883 0.22276 0.85158
 H444 H 0.46016 0.24342 0.88642
 H445 H 0.42971 0.24316 0.87024
 H446 H 0.45896 0.24998 0.81761
 H447 H 0.48885 0.24972 0.83495
 C448 C 0.49482 0.19058 0.90896
 C449 C 0.50262 0.30102 0.91231
 C450 C 0.44185 0.24678 0.84257
 C451 C 0.55260 0.24998 0.83969
 C452 C 0.51527 0.72993 0.59845
 H453 H 0.52680 0.73980 0.59763
 C454 C 0.51589 0.71318 0.58822
 H455 H 0.52784 0.71038 0.57930
 C456 C 0.48585 0.72145 0.61137
 H457 H 0.47440 0.72442 0.62080
 C458 C 0.48587 0.70461 0.60139
 H459 H 0.47437 0.69484 0.60326
 N460 N 0.50038 0.73375 0.60972
 C461 C 0.49975 0.79403 0.61954
 H462 H 0.49885 0.79388 0.63468
 C463 C 0.49958 0.81103 0.61002
 H464 H 0.49838 0.82394 0.61796
 C465 C 0.50186 0.77721 0.59089
 H466 H 0.50259 0.76397 0.58353
 C467 C 0.50169 0.79396 0.58077
 H468 H 0.50260 0.79347 0.56562
 Zn469 Zn 0.50100 0.75568 0.62474
 N470 N 0.50112 0.77760 0.60995
 C471 C 0.53641 0.76836 0.63726
 N472 N 0.52312 0.75481 0.63941
 C473 C 0.52614 0.73977 0.65065
 C474 C 0.54314 0.73792 0.66022
 C475 C 0.55355 0.76707 0.64653
 C476 C 0.46295 0.75973 0.63010
 C477 C 0.44595 0.76103 0.63960
 C478 C 0.46253 0.75671 0.66879
 C479 C 0.47930 0.75555 0.65869
 N480 N 0.47915 0.75687 0.63967
 H481 H 0.53401 0.77999 0.62795
 H482 H 0.51551 0.72898 0.65180
 H483 H 0.54548 0.72564 0.66874
 H484 H 0.56392 0.77803 0.64458
 H485 H 0.46328 0.76086 0.61499
 H486 H 0.43319 0.76291 0.63163
 H487 H 0.46284 0.75569 0.68392
 H488 H 0.49238 0.75363 0.66604
 C489 C 0.50068 0.81117 0.59038
 C490 C 0.50108 0.70022 0.58970
 C491 C 0.44556 0.75949 0.65920
 C492 C 0.55721 0.75159 0.65800
 C493 C 0.90140 0.98822 0.72575
 H494 H 0.90279 0.97683 0.73562
 C495 C 0.91085 0.98781 0.70950
 H496 H 0.91946 0.97573 0.70654
 C497 C 0.88660 1.01701 0.71811
 H498 H 0.87680 1.02809 0.72106
 C499 C 0.89675 1.01726 0.70018
 H500 H 0.89478 1.02942 0.69143
 N501 N 0.88897 1.00345 0.72998
 C502 C 0.87876 1.00775 0.79111
 H503 H 0.86377 1.00992 0.79048
 C504 C 0.88746 1.00754 0.80766
 H505 H 0.87896 1.00912 0.82011
 C506 C 0.90698 1.00172 0.77430
 H507 H 0.91443 0.99927 0.76135
 C508 C 0.91724 1.00130 0.79231
 H509 H 0.93223 0.99929 0.79171
 Zn510 Zn 0.87416 1.00314 0.75214
 N511 N 0.88897 1.00439 0.77411
 C512 C 0.86238 0.96868 0.76721
 N513 N 0.86007 0.98051 0.75250
 C514 C 0.84888 0.97577 0.73777
 C515 C 0.83942 0.95852 0.73753
 C516 C 0.85324 0.95139 0.76755
 C517 C 0.86763 1.04114 0.75516
 C518 C 0.85793 1.05798 0.75399
 C519 C 0.82950 1.04043 0.74795
 C520 C 0.83980 1.02383 0.74922
 N521 N 0.85860 1.02455 0.75235
 H522 H 0.87158 0.97241 0.77864
 H523 H 0.84756 0.98524 0.72605
 H524 H 0.83084 0.95481 0.72556
 H525 H 0.85523 0.94229 0.77948
 H526 H 0.88256 1.04127 0.75779
 H527 H 0.86547 1.07103 0.75606
 H528 H 0.81467 1.03970 0.74484
 H529 H 0.83286 1.01048 0.74723
 C530 C 0.90802 1.00389 0.80872
 C531 C 0.90845 1.00316 0.69548
 C532 C 0.83868 1.05780 0.74997
 C533 C 0.84172 0.94600 0.75252
 C534 C 0.40054 0.48715 0.22565
 H535 H 0.40213 0.47614 0.23589
 C536 C 0.41058 0.48639 0.20879
 H537 H 0.41988 0.47473 0.20615
 C538 C 0.38585 0.51527 0.21623
 H539 H 0.37596 0.52635 0.21888
 C540 C 0.39553 0.51505 0.19927
 H541 H 0.39325 0.52626 0.18935
 N542 N 0.38855 0.50153 0.22909
 C543 C 0.37981 0.50702 0.28936
 H544 H 0.36477 0.50887 0.28908
 C545 C 0.38931 0.50737 0.30641
 H546 H 0.38142 0.50939 0.31922
 C547 C 0.40810 0.50135 0.27291
 H548 H 0.41534 0.49902 0.25982
 C549 C 0.41819 0.50151 0.28973
 H550 H 0.43320 0.49939 0.28942
 Zn551 Zn 0.37405 0.50191 0.25140
 N552 N 0.38919 0.50371 0.27310
 C553 C 0.36248 0.46772 0.26729
 N554 N 0.35986 0.47938 0.25250
 C555 C 0.34829 0.47451 0.23810
 C556 C 0.33875 0.45732 0.23831
 C557 C 0.35327 0.45048 0.26807
 C558 C 0.36783 0.54002 0.25310
 C559 C 0.35816 0.55686 0.25186
 C560 C 0.32941 0.53928 0.24767
 C561 C 0.33970 0.52268 0.24896
 N562 N 0.35862 0.52339 0.25124
 H563 H 0.37200 0.47153 0.27843
 H564 H 0.34674 0.48385 0.22630
 H565 H 0.32986 0.45350 0.22659
 H566 H 0.35552 0.44151 0.28005
 H567 H 0.38286 0.54014 0.25510
 H568 H 0.36582 0.56993 0.25322
 H569 H 0.31444 0.53854 0.24531
 H570 H 0.33262 0.50932 0.24776
 C571 C 0.40872 0.50436 0.30678
 C572 C 0.40800 0.50044 0.19529
 C573 C 0.33874 0.55666 0.24878
 C574 C 0.34135 0.44498 0.25339
 C575 C 0.59947 0.98723 0.27307
 H576 H 0.59750 0.97520 0.26397
 C577 C 0.59065 0.98803 0.28966
 H578 H 0.58196 0.97625 0.29366
 C579 C 0.61507 1.01633 0.27840
 H580 H 0.62489 1.02712 0.27437
 C581 C 0.60562 1.01791 0.29667
 H582 H 0.60815 1.03061 0.30459
 N583 N 0.61198 1.00201 0.26747
 C584 C 0.61854 1.00120 0.20667
 H585 H 0.63361 1.00292 0.20619
 C586 C 0.60838 0.99979 0.19005
 H587 H 0.61572 1.00074 0.17680
 C588 C 0.59080 0.99793 0.22466
 H589 H 0.58406 0.99710 0.23820
 C590 C 0.58003 0.99647 0.20831
 H591 H 0.56504 0.99437 0.20942
 Zn592 Zn 0.62568 1.00004 0.24472
 N593 N 0.60974 0.99985 0.22351
 C594 C 0.63605 0.96434 0.23146
 N595 N 0.63945 0.97732 0.24509
 C596 C 0.65167 0.97378 0.25926
 C597 C 0.66127 0.95672 0.25989
 C598 C 0.64527 0.94718 0.23156
 C599 C 0.63270 1.03767 0.23885
 C600 C 0.64269 1.05448 0.23843
 C601 C 0.67100 1.03722 0.24474
 C602 C 0.66040 1.02068 0.24491
 N603 N 0.64154 1.02127 0.24243
 H604 H 0.62599 0.96708 0.22055
 H605 H 0.65382 0.98413 0.27019
 H606 H 0.67080 0.95403 0.27136
 H607 H 0.64246 0.93719 0.22043
 H608 H 0.61765 1.03774 0.23699
 H609 H 0.63474 1.06720 0.23666
 H610 H 0.68599 1.03610 0.24655
 H611 H 0.66724 1.00744 0.24733
 C612 C 0.58890 0.99705 0.19072
 C613 C 0.59383 1.00430 0.30261
 C614 C 0.66221 1.05468 0.24176
 C615 C 0.65801 0.94312 0.24593
 C616 C 0.09919 0.48752 0.77310
 H617 H 0.09767 0.47572 0.76363
 C618 C 0.08920 0.48789 0.78999
 H619 H 0.07979 0.47643 0.79331
 C620 C 0.11351 0.51667 0.78042
 H621 H 0.12334 0.52767 0.77699
 C622 C 0.10381 0.51763 0.79734
 H623 H 0.10633 0.52940 0.80666
 N624 N 0.11096 0.50187 0.76858
 C625 C 0.11856 0.50279 0.70792
 H626 H 0.13362 0.50467 0.70762
 C627 C 0.10859 0.50147 0.69117
 H628 H 0.11604 0.50266 0.67801
 C629 C 0.09067 0.49891 0.72556
 H630 H 0.08378 0.49780 0.73899
 C631 C 0.08010 0.49753 0.70909
 H632 H 0.06513 0.49518 0.71002
 Zn633 Zn 0.12518 0.50073 0.74612
 N634 N 0.10961 0.50104 0.72464
 C635 C 0.13603 0.46543 0.73216
 N636 N 0.13903 0.47808 0.74619
 C637 C 0.15071 0.47412 0.76070
 C638 C 0.16001 0.45690 0.76137
 C639 C 0.14498 0.44814 0.73228
 C640 C 0.13200 0.53866 0.74201
 C641 C 0.14190 0.55552 0.74271
 C642 C 0.17028 0.53810 0.74837
 C643 C 0.15978 0.52149 0.74757
 N644 N 0.14092 0.52213 0.74490
 H645 H 0.12639 0.46851 0.72096
 H646 H 0.15254 0.48421 0.77193
 H647 H 0.16901 0.45383 0.77318
 H648 H 0.14243 0.43838 0.72088
 H649 H 0.11701 0.53873 0.73974
 H650 H 0.13445 0.56853 0.74064
 H651 H 0.18516 0.53744 0.75119
 H652 H 0.16664 0.50820 0.74962
 C653 C 0.08914 0.49843 0.69160
 C654 C 0.09145 0.50314 0.80234
 C655 C 0.16123 0.55543 0.74633
 C656 C 0.15703 0.44358 0.74708
 C657 C 0.77216 0.90041 0.01405
 H658 H 0.76225 0.90173 0.02545
 C659 C 0.78908 0.91044 0.01458
 H660 H 0.79209 0.91946 0.02645
 C661 C 0.78071 0.88638 -0.01485
 H662 H 0.77768 0.87675 -0.02615
 C663 C 0.79770 0.89607 -0.01488
 H664 H 0.80728 0.89406 -0.02648
 N665 N 0.76828 0.88870 -0.00056
 C666 C 0.70797 0.87928 -0.00438
 H667 H 0.70831 0.86425 -0.00640
 C668 C 0.69088 0.88861 -0.00442
 H669 H 0.67809 0.88059 -0.00634
 C670 C 0.72432 0.90776 0.00122
 H671 H 0.73741 0.91513 0.00335
 C672 C 0.70745 0.91768 0.00137
 H673 H 0.70771 0.93271 0.00353
 Zn674 Zn 0.74606 0.87395 -0.00056
 N675 N 0.72421 0.88885 -0.00132
 C676 C 0.73104 0.86124 0.03368
 N677 N 0.74567 0.85934 0.02160
 C678 C 0.76035 0.84797 0.02569
 C679 C 0.76052 0.83775 0.04240
 C680 C 0.73061 0.85129 0.05044
 C681 C 0.74298 0.86811 -0.03876
 C682 C 0.74341 0.85855 -0.05582
 C683 C 0.74891 0.82979 -0.03898
 C684 C 0.74830 0.83993 -0.02216
 N685 N 0.74570 0.85880 -0.02241
 H686 H 0.71976 0.87075 0.03057
 H687 H 0.77200 0.84696 0.01603
 H688 H 0.77225 0.82867 0.04538
 H689 H 0.71896 0.85330 0.05995
 H690 H 0.74090 0.88312 -0.03852
 H691 H 0.74178 0.86636 -0.06869
 H692 H 0.75114 0.81479 -0.03861
 H693 H 0.75016 0.83276 -0.00899
 C694 C 0.69043 0.90804 -0.00136
 C695 C 0.80217 0.90818 0.00002
 C696 C 0.74659 0.83916 -0.05611
 C697 C 0.74546 0.83934 0.05501
 C698 C 0.28195 0.38759 0.51729
 H699 H 0.27942 0.37834 0.52897
 C700 C 0.29887 0.39744 0.51630
 H701 H 0.30897 0.39598 0.52752
 C702 C 0.27218 0.40030 0.48829
 H703 H 0.26184 0.40096 0.47722
 C704 C 0.28893 0.41042 0.48673
 H705 H 0.29138 0.41886 0.47438
 N706 N 0.26904 0.38912 0.50337
 C707 C 0.20895 0.37809 0.50595
 H708 H 0.20946 0.36296 0.50652
 C709 C 0.19178 0.38721 0.50724
 H710 H 0.17908 0.37894 0.50850
 C711 C 0.22502 0.40713 0.50348
 H712 H 0.23806 0.41480 0.50232
 C713 C 0.20808 0.41686 0.50468
 H714 H 0.20823 0.43203 0.50442
 Zn715 Zn 0.24732 0.37374 0.50350
 N716 N 0.22510 0.38807 0.50401
 C717 C 0.24441 0.36839 0.54174
 N718 N 0.24677 0.35886 0.52537
 C719 C 0.24747 0.33982 0.52497
 C720 C 0.24592 0.32962 0.54162
 C721 C 0.24277 0.35880 0.55863
 C722 C 0.23429 0.36057 0.46835
 C723 C 0.23567 0.35122 0.45119
 C724 C 0.26530 0.33844 0.46119
 C725 C 0.26335 0.34806 0.47819
 N726 N 0.24805 0.35891 0.48142
 H727 H 0.24370 0.38353 0.54160
 H728 H 0.24895 0.33250 0.51176
 H729 H 0.24626 0.31446 0.54107
 H730 H 0.24111 0.36671 0.57151
 H731 H 0.22244 0.36956 0.47095
 H732 H 0.22457 0.35278 0.44098
 H733 H 0.27780 0.33027 0.45867
 H734 H 0.27428 0.34730 0.48866
 C735 C 0.19117 0.40686 0.50667
 C736 C 0.30266 0.40886 0.50075
 C737 C 0.25145 0.34017 0.44731
 C738 C 0.24341 0.33914 0.55873
 C739 C 0.22869 0.59931 0.01147
 H740 H 0.23785 0.59760 0.02342
 C741 C 0.21137 0.59003 0.01092
 H742 H 0.20753 0.58158 0.02287
 C743 C 0.22246 0.61373 -0.01761
 H744 H 0.22660 0.62314 -0.02867
 C745 C 0.20509 0.60481 -0.01876
 H746 H 0.19691 0.60710 -0.03128
 N747 N 0.23392 0.61086 -0.00271
 C748 C 0.29479 0.61731 -0.00271
 H749 H 0.29541 0.63235 -0.00453
 C750 C 0.31130 0.60708 -0.00135
 H751 H 0.32462 0.61432 -0.00244
 C752 C 0.27653 0.58972 0.00089
 H753 H 0.26295 0.58305 0.00185
 C754 C 0.29277 0.57889 0.00229
 H755 H 0.29151 0.56393 0.00450
 Zn756 Zn 0.25674 0.62458 -0.00118
 N757 N 0.27786 0.60863 -0.00115
 C758 C 0.27029 0.63589 0.03425
 N759 N 0.25650 0.63873 0.02143
 C760 C 0.24206 0.65058 0.02510
 C761 C 0.24127 0.66029 0.04218
 C762 C 0.27003 0.64525 0.05143
 C763 C 0.26194 0.63105 -0.03905
 C764 C 0.26151 0.64080 -0.05592
 C765 C 0.25557 0.66931 -0.03855
 C766 C 0.25612 0.65898 -0.02193
 N767 N 0.25875 0.64011 -0.02255
 H768 H 0.28142 0.62611 0.03139
 H769 H 0.23102 0.65228 0.01487
 H770 H 0.22954 0.66945 0.04500
 H771 H 0.28127 0.64285 0.06133
 H772 H 0.26414 0.61606 -0.03910
 H773 H 0.26374 0.63323 -0.06891
 H774 H 0.25269 0.68418 -0.03791
 H775 H 0.25383 0.66595 -0.00867
 C776 C 0.31044 0.58764 0.00152
 C777 C 0.19898 0.59280 -0.00430
 C778 C 0.25783 0.66010 -0.05586
 C779 C 0.25534 0.65755 0.05566
 C780 C 0.72807 0.10016 0.51149
 H781 H 0.73726 0.09845 0.52342
 C782 C 0.71077 0.09085 0.51096
 H783 H 0.70671 0.08199 0.52258
 C784 C 0.72180 0.11449 0.48228
 H785 H 0.72588 0.12396 0.47125
 C786 C 0.70445 0.10550 0.48119
 H787 H 0.69565 0.10787 0.46908
 N788 N 0.73327 0.11167 0.49723
 C789 C 0.79414 0.11799 0.49748
 H790 H 0.79482 0.13303 0.49572
 C791 C 0.81062 0.10770 0.49888
 H792 H 0.82397 0.11491 0.49787
 C793 C 0.77579 0.09043 0.50087
 H794 H 0.76218 0.08380 0.50173
 C795 C 0.79199 0.07955 0.50231
 H796 H 0.79067 0.06459 0.50445
 Zn797 Zn 0.75610 0.12537 0.49878
 N798 N 0.77719 0.10935 0.49892
 C799 C 0.76951 0.13659 0.53430
 N800 N 0.75584 0.13957 0.52137
 C801 C 0.74152 0.15159 0.52494
 C802 C 0.74073 0.16134 0.54200
 C803 C 0.76926 0.14599 0.55146
 C804 C 0.76149 0.13176 0.46090
 C805 C 0.76186 0.14161 0.44407
 C806 C 0.75633 0.17020 0.46144
 C807 C 0.75614 0.15978 0.47801
 N808 N 0.75830 0.14085 0.47737
 H809 H 0.78055 0.12669 0.53153
 H810 H 0.73056 0.15340 0.51464
 H811 H 0.72909 0.17065 0.54473
 H812 H 0.78040 0.14349 0.56143
 H813 H 0.76318 0.11670 0.46081
 H814 H 0.76373 0.13396 0.43107
 H815 H 0.75433 0.18522 0.46212
 H816 H 0.75389 0.16678 0.49127
 C817 C 0.80969 0.08825 0.50166
 C818 C 0.69864 0.09360 0.49570
 C819 C 0.75898 0.16105 0.44415
 C820 C 0.75468 0.15847 0.55558
 C821 C 0.98858 0.72630 0.90241
 H822 H 0.97654 0.73533 0.90402
 C823 C 0.98955 0.71030 0.91212
 H824 H 0.97841 0.70719 0.92191
 C825 C 1.01807 0.72101 0.88776
 H826 H 1.02898 0.72482 0.87801
 C827 C 1.01983 0.70335 0.89821
 H828 H 1.03189 0.69481 0.89505
 N829 N 1.00338 0.73156 0.88976
 C830 C 1.00383 0.79314 0.88071
 H831 H 1.00820 0.79320 0.86619
 C832 C 1.00223 0.80934 0.89000
 H833 H 1.00569 0.82210 0.88264
 C834 C 0.99701 0.77511 0.90788
 H835 H 0.99492 0.76187 0.91481
 C836 C 0.99508 0.79267 0.91878
 H837 H 0.99086 0.79139 0.93327
 Zn838 Zn 1.00163 0.75364 0.87484
 N839 N 1.00053 0.77562 0.88999
 C840 C 0.97597 0.76765 0.84846
 N841 N 0.97981 0.75266 0.85951
 C842 C 0.96792 0.73770 0.86023
 C843 C 0.95102 0.73788 0.85032
 C844 C 0.95925 0.76842 0.83834
 C845 C 1.03947 0.76100 0.86808
 C846 C 1.05630 0.76091 0.85814
 C847 C 1.03953 0.74946 0.83094
 C848 C 1.02296 0.74982 0.84141
 N849 N 1.02330 0.75533 0.85968
 H850 H 0.98575 0.77918 0.84766
 H851 H 0.97131 0.72571 0.86873
 H852 H 0.94147 0.72612 0.85163
 H853 H 0.95642 0.78058 0.82979
 H854 H 1.03934 0.76508 0.88270
 H855 H 1.06911 0.76491 0.86528
 H856 H 1.03907 0.74486 0.81646
 H857 H 1.00993 0.74522 0.83511
 C858 C 0.99707 0.80950 0.91029
 C859 C 1.00609 0.69767 0.90997
 C860 C 1.05653 0.75486 0.83937
 C861 C 0.94634 0.75356 0.83947
 C862 C 0.48880 0.22825 0.40018
 H863 H 0.47707 0.23771 0.40160
 C864 C 0.48894 0.21136 0.41008
 H865 H 0.47737 0.20802 0.41932
 C866 C 0.51802 0.22100 0.38624
 H867 H 0.52915 0.22448 0.37661
 C868 C 0.51875 0.20407 0.39586
 H869 H 0.53048 0.19479 0.39347
 N870 N 0.50330 0.23281 0.38865
 C871 C 0.50569 0.29345 0.38149
 H872 H 0.50763 0.29373 0.36645
 C873 C 0.50516 0.31018 0.39162
 H874 H 0.50659 0.32332 0.38421
 C875 C 0.50075 0.27586 0.40918
 H876 H 0.49905 0.26246 0.41595
 C877 C 0.50005 0.29233 0.41989
 H878 H 0.49793 0.29142 0.43489
 Zn879 Zn 0.50256 0.25531 0.37457
 N880 N 0.50316 0.27676 0.39029
 C881 C 0.46789 0.26987 0.36271
 N882 N 0.48008 0.25546 0.36036
 C883 C 0.47595 0.24083 0.34875
 C884 C 0.45910 0.24052 0.33871
 C885 C 0.45099 0.27016 0.35295
 C886 C 0.54061 0.25946 0.36790
 C887 C 0.55739 0.25921 0.35791
 C888 C 0.53975 0.25347 0.32953
 C889 C 0.52324 0.25390 0.34010
 N890 N 0.52402 0.25647 0.35899
 H891 H 0.47105 0.28111 0.37240
 H892 H 0.48570 0.22934 0.34738
 H893 H 0.45609 0.22885 0.32942
 H894 H 0.44140 0.28164 0.35530
 H895 H 0.54081 0.26150 0.38294
 H896 H 0.57047 0.26097 0.36541
 H897 H 0.53895 0.25118 0.31453
 H898 H 0.50990 0.25183 0.33324
 C899 C 0.50209 0.30979 0.41105
 C900 C 0.50412 0.19904 0.40800
 C901 C 0.55713 0.25594 0.33849
 C902 C 0.44638 0.25538 0.34074
 C903 C 0.98468 0.27230 0.59917
 H904 H 0.97308 0.26258 0.59773
 C905 C 0.98470 0.28913 0.58914
 H906 H 0.97270 0.29202 0.58038
 C907 C 1.01340 0.28048 0.61360
 H908 H 1.02452 0.27731 0.62330
 C909 C 1.01401 0.29738 0.60394
 H910 H 1.02623 0.30616 0.60599
 N911 N 0.99894 0.26827 0.61109
 C912 C 1.00099 0.20791 0.62065
 H913 H 1.00296 0.20842 0.63568
 C914 C 1.00030 0.19067 0.61144
 H915 H 1.00205 0.17796 0.61947
 C916 C 0.99644 0.22401 0.59204
 H917 H 0.99488 0.23706 0.58458
 C918 C 0.99569 0.20699 0.58221
 H919 H 0.99336 0.20709 0.56721
 Zn920 Zn 0.99831 0.24615 0.62584
 N921 N 0.99868 0.22410 0.61098
 C922 C 0.96359 0.23188 0.63831
 N923 N 0.97602 0.24627 0.64042
 C924 C 0.97224 0.26096 0.65202
 C925 C 0.95555 0.26135 0.66234
 C926 C 0.94685 0.23168 0.64836
 C927 C 1.03638 0.24270 0.63175
 C928 C 1.05344 0.24348 0.64120
 C929 C 1.03659 0.24928 0.66999
 C930 C 1.01979 0.24840 0.65989
 N931 N 1.02005 0.24560 0.64105
 H932 H 0.96643 0.22062 0.62860
 H933 H 0.98216 0.27243 0.65318
 H934 H 0.95283 0.27306 0.67164
 H935 H 0.93708 0.22020 0.64621
 H936 H 1.03613 0.24013 0.61679
 H937 H 1.06597 0.24067 0.63318
 H938 H 1.03575 0.25255 0.68477
 H939 H 1.00664 0.25047 0.66707
 C940 C 0.99731 0.19002 0.59201
 C941 C 0.99944 0.30227 0.59153
 C942 C 1.05397 0.24725 0.66065
 C943 C 0.94263 0.24650 0.66061
 C944 C 0.48482 0.77254 0.09796
 H945 H 0.47301 0.76299 0.09730
 C946 C 0.48486 0.78876 0.08702
 H947 H 0.47319 0.79139 0.07771
 C948 C 0.51411 0.78098 0.11121
 H949 H 0.52533 0.77824 0.12093
 C950 C 0.51474 0.79728 0.10051
 H951 H 0.52646 0.80684 0.10224
 N952 N 0.49932 0.76894 0.10980
 C953 C 0.50221 0.70889 0.12125
 H954 H 0.50651 0.70970 0.13575
 C955 C 0.50123 0.69147 0.11237
 H956 H 0.50469 0.67901 0.12022
 C957 C 0.49354 0.72423 0.09322
 H958 H 0.49066 0.73698 0.08572
 C959 C 0.49239 0.70704 0.08375
 H960 H 0.48836 0.70680 0.06912
 Zn961 Zn 0.49883 0.74755 0.12579
 N962 N 0.49802 0.72482 0.11176
 C963 C 0.47388 0.73375 0.15332
 N964 N 0.47745 0.74850 0.14180
 C965 C 0.46545 0.76324 0.14090
 C966 C 0.44869 0.76302 0.15103
 C967 C 0.45730 0.73295 0.16368
 C968 C 0.53717 0.74304 0.13082
 C969 C 0.55440 0.74401 0.13996
 C970 C 0.53833 0.75355 0.16824
 C971 C 0.52133 0.75241 0.15852
 N972 N 0.52112 0.74745 0.14009
 H973 H 0.48373 0.72238 0.15426
 H974 H 0.46862 0.77506 0.13204
 H975 H 0.43903 0.77456 0.14952
 H976 H 0.45464 0.72096 0.17255
 H977 H 0.53656 0.73914 0.11616
 H978 H 0.56701 0.74051 0.13229
 H979 H 0.53833 0.75803 0.18276
 H980 H 0.50838 0.75597 0.16553
 C981 C 0.49603 0.69034 0.09343
 C982 C 0.49996 0.80143 0.08828
 C983 C 0.55519 0.74958 0.15885
 C984 C 0.44424 0.74754 0.16232
 O985 O 0.03167 0.99967 1.04526
 O986 O 0.03378 0.96935 1.03167
 O987 O 0.03862 1.03633 0.99810
 O988 O 0.02441 1.04207 0.97091
 O989 O -0.00686 1.04513 1.03781
 O990 O -0.03645 1.03037 1.04220
 O991 O -0.01325 0.98788 0.95067
 O992 O 0.01738 0.99775 0.94999
 O993 O -0.01773 0.94915 0.99522
 O994 O -0.00818 0.94878 1.02611
 O995 O -0.05698 0.99258 0.99117
 O996 O -0.05728 1.02545 0.99811
 O997 O -0.03901 1.00352 0.96118
 O998 O -0.04252 1.03526 0.97651
 O999 O -0.04665 0.96714 1.00720
 O1000 O -0.03047 0.96465 1.03837
 O1001 O -0.00308 0.95916 0.96871
 O1002 O 0.02903 0.97225 0.96827
 O1003 O 0.00577 1.01493 1.05599
 O1004 O -0.02708 1.00651 1.05610
 O1005 O 0.00841 1.05509 1.01163
 O1006 O -0.00197 1.05325 0.97848
 O1007 O 0.04909 1.01140 1.01493
 O1008 O 0.04694 0.97875 1.00285
 Zr1009 Zr 0.02544 0.99376 1.01698
 O1010 O 0.00853 0.97554 1.00091
 Zr1011 Zr 0.00980 1.03118 0.99426
 O1012 O -0.00708 1.01432 0.97678
 Zr1013 Zr -0.01213 1.01653 1.03256
 O1014 O -0.03041 0.99949 1.01668
 Zr1015 Zr 0.00412 0.98725 0.97437
 O1016 O 0.02243 1.00493 0.98983
 Zr1017 Zr -0.01826 0.97303 1.01263
 O1018 O -0.00069 0.98948 1.03019
 Zr1019 Zr -0.03335 1.01029 0.98947
 O1020 O -0.01706 1.02883 1.00625
 O1021 O 0.01422 1.02039 1.02082
 O1022 O -0.02259 0.98345 0.98573
 C1023 C 0.02206 1.00769 1.05821
 C1024 C 0.05151 1.02708 1.00649
 C1025 C 0.00110 1.05782 1.02785
 C1026 C -0.02951 0.99511 0.94837
 C1027 C -0.01116 0.94656 0.97866
 C1028 C -0.05941 0.97650 0.99880
 H1029 H 0.01469 0.96317 1.00000
 H1030 H -0.04258 0.99866 1.02324
 H1031 H 0.02240 1.02858 1.02855
 H1032 H -0.00808 1.02034 0.96437
 H1033 H 0.02942 1.00337 0.95410
 H1034 H 0.02177 1.03356 0.96025
 H1035 H -0.04135 0.97283 1.04085
 H1036 H -0.02193 0.99401 1.05903
 H1037 H 0.02738 0.96588 0.95599
 H1038 H 0.05900 0.98059 1.00953
 H1039 H -0.06011 1.02175 1.01116
 H1040 H -0.04075 1.03837 1.03176
 H1041 H 0.04649 0.97140 1.03695
 H1042 H 0.00291 0.95280 1.03343
 H1043 H -0.01362 1.05706 0.98497
 H1044 H -0.03443 1.03755 0.96548
 O1045 O 0.49215 0.54652 0.53708
 O1046 O 0.46210 0.53226 0.53956
 O1047 O 0.52997 0.50081 0.54531
 O1048 O 0.53594 0.47299 0.53225
 O1049 O 0.53803 0.53861 0.49845
 O1050 O 0.52315 0.54200 0.46901
 O1051 O 0.48269 0.45026 0.49472
 O1052 O 0.49238 0.45079 0.52545
 O1053 O 0.44312 0.49368 0.48885
 O1054 O 0.44187 0.52476 0.49770
 O1055 O 0.48696 0.48953 0.44992
 O1056 O 0.51992 0.49723 0.44978
 O1057 O 0.49815 0.46036 0.46866
 O1058 O 0.52955 0.47588 0.46475
 O1059 O 0.46110 0.50533 0.45972
 O1060 O 0.45768 0.53683 0.47523
 O1061 O 0.45354 0.46793 0.50436
 O1062 O 0.46636 0.46886 0.53652
 O1063 O 0.50749 0.55664 0.51094
 O1064 O 0.49903 0.55558 0.47813
 O1065 O 0.54852 0.51320 0.51444
 O1066 O 0.54735 0.47971 0.50554
 O1067 O 0.50451 0.51722 0.55533
 O1068 O 0.47216 0.50413 0.55356
 Zr1069 Zr 0.48691 0.51792 0.53164
 O1070 O 0.46915 0.50088 0.51516
 Zr1071 Zr 0.52490 0.49552 0.51669
 O1072 O 0.50854 0.47713 0.50028
 Zr1073 Zr 0.50953 0.53272 0.49363
 O1074 O 0.49300 0.51589 0.47579
 Zr1075 Zr 0.48145 0.47448 0.51149
 O1076 O 0.49865 0.49093 0.52941
 Zr1077 Zr 0.46656 0.51165 0.48803
 O1078 O 0.48248 0.53014 0.50513
 Zr1079 Zr 0.50444 0.48886 0.47366
 O1080 O 0.52246 0.50656 0.48949
 O1081 O 0.51352 0.52196 0.52030
 O1082 O 0.47761 0.48488 0.48447
 C1083 C 0.50008 0.55927 0.52714
 C1084 C 0.52046 0.50942 0.55795
 C1085 C 0.55094 0.52914 0.50651
 C1086 C 0.48997 0.44766 0.47846
 C1087 C 0.44082 0.47729 0.49586
 C1088 C 0.47080 0.49682 0.44720
 H1089 H 0.45675 0.49989 0.52132
 H1090 H 0.49213 0.52206 0.46345
 H1091 H 0.52156 0.53016 0.52818
 H1092 H 0.51482 0.46482 0.49962
 H1093 H 0.49778 0.45541 0.53740
 H1094 H 0.52790 0.46198 0.52960
 H1095 H 0.46593 0.53923 0.46435
 H1096 H 0.48650 0.55846 0.48333
 H1097 H 0.46029 0.45638 0.53520
 H1098 H 0.47378 0.51125 0.56542
 H1099 H 0.51546 0.50979 0.44612
 H1100 H 0.53126 0.53157 0.46482
 H1101 H 0.46396 0.53801 0.55212
 H1102 H 0.44559 0.53242 0.50869
 H1103 H 0.55091 0.48561 0.49351
 H1104 H 0.53208 0.46530 0.47328
 O1105 O 0.46088 -0.03152 0.49368
 O1106 O 0.47510 -0.03446 0.46379
 O1107 O 0.50716 -0.03806 0.53166
 O1108 O 0.53454 -0.02407 0.53764
 O1109 O 0.46809 0.00792 0.53901
 O1110 O 0.46423 0.03715 0.52380
 O1111 O 0.55615 0.01267 0.48349
 O1112 O 0.55642 -0.01774 0.49386
 O1113 O 0.51233 0.01634 0.44383
 O1114 O 0.48138 0.00718 0.44291
 O1115 O 0.51598 0.05662 0.48704
 O1116 O 0.50851 0.05739 0.51993
 O1117 O 0.54564 0.03878 0.49863
 O1118 O 0.53009 0.04300 0.52997
 O1119 O 0.50039 0.04587 0.46129
 O1120 O 0.46913 0.02976 0.45827
 O1121 O 0.53846 0.00166 0.45451
 O1122 O 0.53844 -0.03001 0.46818
 O1123 O 0.45023 -0.00527 0.50849
 O1124 O 0.45066 0.02739 0.49980
 O1125 O 0.49390 -0.00726 0.54976
 O1126 O 0.52717 0.00268 0.54849
 O1127 O 0.49068 -0.04892 0.50645
 O1128 O 0.50355 -0.04756 0.47408
 Zr1129 Zr 0.48936 -0.02565 0.48847
 O1130 O 0.50594 -0.00921 0.47042
 Zr1131 Zr 0.51159 -0.00941 0.52621
 O1132 O 0.52956 0.00704 0.50954
 Zr1133 Zr 0.47385 0.01249 0.51046
 O1134 O 0.49022 0.03032 0.49359
 Zr1135 Zr 0.53233 -0.00469 0.48265
 O1136 O 0.51634 -0.02258 0.50017
 Zr1137 Zr 0.49458 0.01761 0.46735
 O1138 O 0.47655 0.00048 0.48359
 Zr1139 Zr 0.51725 0.03330 0.50496
 O1140 O 0.49998 0.01748 0.52329
 O1141 O 0.48518 -0.01385 0.51488
 O1142 O 0.52134 0.02200 0.47830
 C1143 C 0.44792 -0.02165 0.50130
 C1144 C 0.49875 -0.05108 0.52237
 C1145 C 0.47775 0.00025 0.55203
 C1146 C 0.55848 0.02909 0.49054
 C1147 C 0.52878 0.00949 0.44160
 C1148 C 0.50863 0.05880 0.47079
 H1149 H 0.50698 -0.01565 0.45815
 H1150 H 0.48380 0.04250 0.49249
 H1151 H 0.47718 -0.02178 0.52300
 H1152 H 0.54188 0.00812 0.51580
 H1153 H 0.55213 -0.02963 0.49957
 H1154 H 0.54545 -0.02141 0.52952
 H1155 H 0.46662 0.04082 0.46627
 H1156 H 0.44790 0.02203 0.48727
 H1157 H 0.55086 -0.02859 0.46208
 H1158 H 0.49672 -0.05954 0.47592
 H1159 H 0.49572 0.06048 0.51563
 H1160 H 0.47458 0.04159 0.53196
 H1161 H 0.46965 -0.04710 0.46586
 H1162 H 0.47404 -0.00393 0.44684
 H1163 H 0.52089 0.01455 0.55191
 H1164 H 0.54086 0.03477 0.53266
 O1165 O 0.00768 0.46082 1.03344
 O1166 O 0.03757 0.47525 1.03603
 O1167 O -0.03032 0.50679 1.04105
 O1168 O -0.03644 0.53419 1.02747
 O1169 O -0.03811 0.46772 0.99480
 O1170 O -0.02326 0.46393 0.96530
 O1171 O 0.01727 0.55611 0.98994
 O1172 O 0.00719 0.55637 1.02052
 O1173 O 0.05684 0.51253 0.98523
 O1174 O 0.05791 0.48160 0.99406
 O1175 O 0.01315 0.51591 0.94569
 O1176 O -0.01976 0.50826 0.94544
 O1177 O 0.00181 0.54553 0.96398
 O1178 O -0.02957 0.52984 0.96017
 O1179 O 0.03904 0.50050 0.95587
 O1180 O 0.04229 0.46925 0.97164
 O1181 O 0.04633 0.53860 1.00037
 O1182 O 0.03300 0.53854 1.03225
 O1183 O -0.00743 0.45006 1.00734
 O1184 O 0.00088 0.45054 0.97452
 O1185 O -0.04873 0.49348 1.01038
 O1186 O -0.04762 0.52677 1.00079
 O1187 O -0.00495 0.49050 1.05132
 O1188 O 0.02736 0.50363 1.04956
 Zr1189 Zr 0.01277 0.48933 1.02775
 O1190 O 0.03058 0.50601 1.01116
 Zr1191 Zr -0.02519 0.51132 1.01235
 O1192 O -0.00875 0.52939 0.99579
 Zr1193 Zr -0.00964 0.47366 0.98983
 O1194 O 0.00697 0.49014 0.97186
 Zr1195 Zr 0.01827 0.53232 1.00710
 O1196 O 0.00098 0.51623 1.02513
 Zr1197 Zr 0.03334 0.49465 0.98418
 O1198 O 0.01734 0.47653 1.00142
 Zr1199 Zr -0.00447 0.51711 0.96933
 O1200 O -0.02257 0.49971 0.98530
 O1201 O -0.01377 0.48497 1.01635
 O1202 O 0.02231 0.52135 0.98023
 C1203 C -0.00003 0.44780 1.02359
 C1204 C -0.02087 0.49842 1.05383
 C1205 C -0.05106 0.47731 1.00275
 C1206 C 0.01004 0.55840 0.97364
 C1207 C 0.05914 0.52899 0.99222
 C1208 C 0.02938 0.50867 0.94317
 H1209 H 0.04292 0.50712 1.01741
 H1210 H 0.00792 0.48372 0.95959
 H1211 H -0.02178 0.47691 1.02432
 H1212 H -0.01502 0.54168 0.99493
 H1213 H 0.00161 0.55206 1.03247
 H1214 H -0.02841 0.54516 1.02472
 H1215 H 0.03417 0.46670 0.96067
 H1216 H 0.01346 0.44784 0.97968
 H1217 H 0.03907 0.55099 1.03085
 H1218 H 0.02566 0.49679 1.06151
 H1219 H -0.01544 0.49552 0.94211
 H1220 H -0.03145 0.47424 0.96107
 H1221 H 0.03565 0.46979 1.04865
 H1222 H 0.05414 0.47427 1.00519
 H1223 H -0.05114 0.52049 0.98889
 H1224 H -0.03215 0.54060 0.96855
 O1225 O -0.04606 0.53012 0.50124
 O1226 O -0.03347 0.53282 0.53097
 O1227 O 0.00161 0.53776 0.46479
 O1228 O 0.02904 0.52404 0.45940
 O1229 O -0.03746 0.49176 0.45540
 O1230 O -0.04154 0.46197 0.46973
 O1231 O 0.04879 0.48684 0.51384
 O1232 O 0.04948 0.51729 0.50395
 O1233 O 0.00390 0.48187 0.55175
 O1234 O -0.02922 0.48970 0.55105
 O1235 O 0.00901 0.44236 0.50797
 O1236 O 0.00267 0.44202 0.47503
 O1237 O 0.03892 0.46084 0.49790
 O1238 O 0.02440 0.45712 0.46576
 O1239 O -0.00737 0.45250 0.53340
 O1240 O -0.03865 0.46792 0.53609
 O1241 O 0.03026 0.49717 0.54216
 O1242 O 0.03023 0.52925 0.52881
 O1243 O -0.05620 0.50392 0.48576
 O1244 O -0.05602 0.47102 0.49345
 O1245 O -0.01131 0.50741 0.44580
 O1246 O 0.02191 0.49741 0.44793
 O1247 O -0.01540 0.54795 0.48982
 O1248 O -0.00566 0.54643 0.52308
 Zr1249 Zr -0.01784 0.52426 0.50720
 O1250 O -0.00179 0.50783 0.52556
 Zr1251 Zr 0.00569 0.50906 0.46990
 O1252 O 0.02314 0.49255 0.48686
 Zr1253 Zr -0.03251 0.48644 0.48396
 O1254 O -0.01667 0.46850 0.50109
 Zr1255 Zr 0.02494 0.50389 0.51401
 O1256 O 0.00952 0.52188 0.49631
 Zr1257 Zr -0.01321 0.48078 0.52770
 O1258 O -0.03069 0.49790 0.51111
 Zr1259 Zr 0.01076 0.46606 0.49057
 O1260 O -0.00595 0.48198 0.47194
 O1261 O -0.02112 0.51303 0.48042
 O1262 O 0.01390 0.47697 0.51754
 C1263 C -0.05877 0.52018 0.49313
 C1264 C -0.00692 0.55052 0.47417
 C1265 C -0.02744 0.49992 0.44289
 C1266 C 0.05140 0.47053 0.50668
 C1267 C 0.02025 0.48890 0.55459
 C1268 C 0.00123 0.43984 0.52399
 H1269 H -0.00101 0.51420 0.53788
 H1270 H -0.02309 0.45621 0.50176
 H1271 H -0.02885 0.52110 0.47228
 H1272 H 0.03567 0.49173 0.48102
 H1273 H 0.04542 0.52916 0.49812
 H1274 H 0.03965 0.52142 0.46788
 H1275 H -0.04113 0.45727 0.52750
 H1276 H -0.05903 0.47585 0.50613
 H1277 H 0.04230 0.52795 0.53556
 H1278 H -0.01327 0.55790 0.52139
 H1279 H -0.01042 0.43902 0.47847
 H1280 H -0.03097 0.45798 0.46169
 H1281 H -0.04109 0.52190 0.53490
 H1282 H -0.02438 0.50211 0.55502
 H1283 H 0.01558 0.48566 0.44398
 H1284 H 0.03542 0.46534 0.46378
 O1285 O 0.49918 1.03861 -0.03618
 O1286 O 0.52914 1.02462 -0.03863
 O1287 O 0.46140 0.99231 -0.04497
 O1288 O 0.45540 0.96450 -0.03196
 O1289 O 0.45288 1.03044 0.00173
 O1290 O 0.46726 1.03403 0.03146
 O1291 O 0.50869 0.94286 0.00607
 O1292 O 0.49899 0.94286 -0.02465
 O1293 O 0.54789 0.98702 0.01192
 O1294 O 0.54890 1.01808 0.00357
 O1295 O 0.50372 0.98219 0.05079
 O1296 O 0.47070 0.98952 0.05069
 O1297 O 0.49279 0.95281 0.03195
 O1298 O 0.46125 0.96791 0.03556
 O1299 O 0.52966 0.99813 0.04115
 O1300 O 0.53286 1.02981 0.02597
 O1301 O 0.53775 0.96098 -0.00371
 O1302 O 0.52485 0.96126 -0.03579
 O1303 O 0.48365 1.04875 -0.01013
 O1304 O 0.49150 1.04789 0.02280
 O1305 O 0.44257 1.00475 -0.01433
 O1306 O 0.44374 0.97133 -0.00529
 O1307 O 0.48685 1.00911 -0.05467
 O1308 O 0.51918 0.99629 -0.05270
 Zr1309 Zr 0.50428 1.01009 -0.03086
 O1310 O 0.52196 0.99345 -0.01427
 Zr1311 Zr 0.46624 0.98731 -0.01630
 O1312 O 0.48255 0.96924 0.00023
 Zr1313 Zr 0.48130 1.02486 0.00700
 O1314 O 0.49773 1.00837 0.02496
 Zr1315 Zr 0.50975 0.96690 -0.01076
 O1316 O 0.49261 0.98297 -0.02880
 Zr1317 Zr 0.52427 1.00446 0.01290
 O1318 O 0.50843 1.02258 -0.00430
 Zr1319 Zr 0.48639 0.98119 0.02692
 O1320 O 0.46843 0.99854 0.01096
 O1321 O 0.47758 1.01388 -0.01973
 O1322 O 0.51334 0.97754 0.01630
 C1323 C 0.49126 1.05136 -0.02624
 C1324 C 0.47097 1.00105 -0.05748
 C1325 C 0.44008 1.02078 -0.00652
 C1326 C 0.50128 0.94023 0.02225
 C1327 C 0.55038 0.97069 0.00475
 C1328 C 0.51992 0.98956 0.05359
 H1329 H 0.53439 0.99263 -0.02037
 H1330 H 0.49850 1.01461 0.03734
 H1331 H 0.46964 1.02196 -0.02767
 H1332 H 0.47634 0.95684 0.00082
 H1333 H 0.49355 0.94724 -0.03661
 H1334 H 0.46338 0.95359 -0.02916
 H1335 H 0.52470 1.03194 0.03698
 H1336 H 0.50413 1.05087 0.01786
 H1337 H 0.53100 0.94890 -0.03446
 H1338 H 0.51760 1.00328 -0.06457
 H1339 H 0.47507 1.00218 0.05439
 H1340 H 0.45914 1.02350 0.03549
 H1341 H 0.52736 1.03024 -0.05120
 H1342 H 0.54524 1.02551 -0.00751
 H1343 H 0.44004 0.97734 0.00668
 H1344 H 0.45885 0.95724 0.02698
 O1345 O 0.54643 0.46206 0.00523
 O1346 O 0.53326 0.45883 0.03474
 O1347 O 0.50013 0.45325 -0.03244
 O1348 O 0.47234 0.46592 -0.03820
 O1349 O 0.53755 0.50099 -0.04004
 O1350 O 0.54055 0.53047 -0.02476
 O1351 O 0.44981 0.50209 0.01623
 O1352 O 0.45045 0.47167 0.00586
 O1353 O 0.49354 0.50815 0.05544
 O1354 O 0.52691 0.50149 0.05548
 O1355 O 0.48807 0.54780 0.01226
 O1356 O 0.49557 0.54863 -0.02065
 O1357 O 0.45929 0.52850 0.00098
 O1358 O 0.47444 0.53309 -0.03058
 O1359 O 0.50416 0.53806 0.03793
 O1360 O 0.53595 0.52376 0.04115
 O1361 O 0.46793 0.49213 0.04491
 O1362 O 0.46943 0.46018 0.03104
 O1363 O 0.55605 0.48868 -0.00961
 O1364 O 0.55467 0.52140 -0.00093
 O1365 O 0.51225 0.48447 -0.05054
 O1366 O 0.47866 0.49289 -0.04902
 O1367 O 0.51668 0.44337 -0.00707
 O1368 O 0.50614 0.44428 0.02594
 Zr1369 Zr 0.51791 0.46699 0.01072
 O1370 O 0.50080 0.48268 0.02894
 Zr1371 Zr 0.49482 0.48171 -0.02688
 O1372 O 0.47638 0.49745 -0.01011
 Zr1373 Zr 0.53188 0.50549 -0.01143
 O1374 O 0.51498 0.52272 0.00558
 Zr1375 Zr 0.47423 0.48582 0.01679
 O1376 O 0.49075 0.46854 -0.00080
 Zr1377 Zr 0.51122 0.51008 0.03187
 O1378 O 0.52974 0.49372 0.01545
 Zr1379 Zr 0.48778 0.52429 -0.00563
 O1380 O 0.50549 0.50913 -0.02407
 O1381 O 0.52149 0.47858 -0.01577
 O1382 O 0.48428 0.51305 0.02105
 C1383 C 0.55898 0.47243 -0.00252
 C1384 C 0.50875 0.44068 -0.02301
 C1385 C 0.52806 0.49274 -0.05296
 C1386 C 0.44689 0.51837 0.00925
 C1387 C 0.47734 0.50060 0.05774
 C1388 C 0.49528 0.55046 0.02852
 H1389 H 0.49992 0.47617 0.04113
 H1390 H 0.52092 0.53521 0.00665
 H1391 H 0.52966 0.47089 -0.02394
 H1392 H 0.46398 0.49789 -0.01627
 H1393 H 0.45507 0.45998 -0.00002
 H1394 H 0.46142 0.46808 -0.02996
 H1395 H 0.53829 0.53454 0.03278
 H1396 H 0.55749 0.51644 0.01169
 H1397 H 0.45714 0.46101 0.03748
 H1398 H 0.51423 0.43311 0.02430
 H1399 H 0.50819 0.55244 -0.01631
 H1400 H 0.52997 0.53442 -0.03277
 H1401 H 0.54054 0.46994 0.03891
 H1402 H 0.52250 0.48883 0.05901
 H1403 H 0.48452 0.50499 -0.05252
 H1404 H 0.46384 0.52445 -0.03307
 O1405 O 0.04472 -0.03919 0.50524
 O1406 O 0.03105 -0.04192 0.53547
 O1407 O -0.00175 -0.04813 0.46805
 O1408 O -0.02969 -0.03541 0.46249
 O1409 O 0.03578 -0.00083 0.45964
 O1410 O 0.03921 0.02875 0.47455
 O1411 O -0.05148 0.00184 0.51650
 O1412 O -0.05111 -0.02883 0.50640
 O1413 O -0.00727 0.00798 0.55534
 O1414 O 0.02393 -0.00012 0.55596
 O1415 O -0.01265 0.04706 0.51172
 O1416 O -0.00550 0.04736 0.47865
 O1417 O -0.04183 0.02798 0.50090
 O1418 O -0.02696 0.03204 0.46921
 O1419 O 0.00358 0.03747 0.53737
 O1420 O 0.03537 0.02259 0.54012
 O1421 O -0.03315 -0.00789 0.54522
 O1422 O -0.03245 -0.03988 0.53199
 O1423 O 0.05446 -0.01290 0.48993
 O1424 O 0.05336 0.01988 0.49845
 O1425 O 0.01022 -0.01717 0.44947
 O1426 O -0.02327 -0.00859 0.45115
 O1427 O 0.01527 -0.05788 0.49319
 O1428 O 0.00281 -0.05631 0.52574
 Zr1429 Zr 0.01620 -0.03420 0.51090
 O1430 O -0.00055 -0.01797 0.52899
 Zr1431 Zr -0.00701 -0.01957 0.47332
 O1432 O -0.02516 -0.00343 0.49004
 Zr1433 Zr 0.03039 0.00402 0.48825
 O1434 O 0.01380 0.02162 0.50513
 Zr1435 Zr -0.02722 -0.01469 0.51711
 O1436 O -0.01102 -0.03236 0.49956
 Zr1437 Zr 0.01014 0.00931 0.53158
 O1438 O 0.02839 -0.00752 0.51528
 Zr1439 Zr -0.01345 0.02334 0.49410
 O1440 O 0.00396 0.00777 0.47573
 O1441 O 0.01967 -0.02280 0.48429
 O1442 O -0.01686 0.01247 0.52094
 C1443 C 0.05729 -0.02907 0.49724
 C1444 C 0.00713 -0.06064 0.47736
 C1445 C 0.02610 -0.00908 0.44686
 C1446 C -0.05428 0.01807 0.50935
 C1447 C -0.02354 0.00065 0.55787
 C1448 C -0.00521 0.04986 0.52786
 H1449 H -0.00125 -0.02417 0.54136
 H1450 H 0.01990 0.03405 0.50599
 H1451 H 0.02775 -0.03058 0.47612
 H1452 H -0.03760 -0.00292 0.48396
 H1453 H -0.04660 -0.04071 0.50081
 H1454 H -0.04058 -0.03287 0.47066
 H1455 H 0.03744 0.03360 0.53198
 H1456 H 0.05643 0.01484 0.51097
 H1457 H -0.04482 -0.03877 0.53825
 H1458 H 0.00996 -0.06807 0.52394
 H1459 H 0.00713 0.05119 0.48294
 H1460 H 0.02861 0.03273 0.46658
 H1461 H 0.03683 -0.05439 0.53346
 H1462 H 0.03155 -0.01100 0.55205
 H1463 H -0.01744 0.00348 0.44754
 H1464 H -0.03760 0.02341 0.46685
 O1465 O 0.74389 0.19574 0.26159
 O1466 O 0.77491 0.19636 0.25288
 O1467 O 0.73984 0.24074 0.30230
 O1468 O 0.74437 0.27145 0.30329
 O1469 O 0.69854 0.23579 0.25722
 O1470 O 0.69913 0.24330 0.22498
 O1471 O 0.78657 0.29171 0.25231
 O1472 O 0.78845 0.27930 0.28191
 O1473 O 0.79404 0.24744 0.21424
 O1474 O 0.77978 0.21651 0.20984
 O1475 O 0.74882 0.28407 0.20706
 O1476 O 0.71828 0.28783 0.22170
 O1477 O 0.76062 0.30155 0.23660
 O1478 O 0.72657 0.30082 0.24513
 O1479 O 0.76465 0.25850 0.19655
 O1480 O 0.75632 0.22444 0.19689
 O1481 O 0.80392 0.26359 0.24003
 O1482 O 0.80314 0.25060 0.27224
 O1483 O 0.71815 0.20544 0.24542
 O1484 O 0.71417 0.22034 0.21548
 O1485 O 0.70845 0.25149 0.28326
 O1486 O 0.72351 0.28273 0.28570
 O1487 O 0.75516 0.21477 0.29191
 O1488 O 0.78637 0.21412 0.27681
 Zr1489 Zr 0.76053 0.22010 0.26338
 O1490 O 0.77814 0.23654 0.24630
 Zr1491 Zr 0.73694 0.25738 0.27822
 O1492 O 0.75403 0.27539 0.26227
 Zr1493 Zr 0.72269 0.23419 0.24035
 O1494 O 0.73869 0.25158 0.22261
 Zr1495 Zr 0.78053 0.26349 0.25797
 O1496 O 0.76429 0.24656 0.27614
 Zr1497 Zr 0.76586 0.24067 0.21994
 O1498 O 0.74922 0.22224 0.23618
 Zr1499 Zr 0.74269 0.27799 0.23524
 O1500 O 0.72446 0.26137 0.25183
 O1501 O 0.73361 0.23064 0.26709
 O1502 O 0.76956 0.26743 0.23116
 C1503 C 0.72803 0.19284 0.25354
 C1504 C 0.74750 0.22470 0.30481
 C1505 C 0.69577 0.24345 0.27328
 C1506 C 0.77690 0.30422 0.24385
 C1507 C 0.80651 0.25636 0.22375
 C1508 C 0.75735 0.27471 0.19429
 H1509 H 0.79054 0.23048 0.24531
 H1510 H 0.73230 0.25255 0.21037
 H1511 H 0.72569 0.22250 0.27508
 H1512 H 0.75513 0.28761 0.26877
 H1513 H 0.78559 0.27142 0.29295
 H1514 H 0.75579 0.27883 0.30053
 H1515 H 0.74479 0.23032 0.19202
 H1516 H 0.72461 0.21202 0.21178
 H1517 H 0.81405 0.25926 0.27185
 H1518 H 0.78491 0.20253 0.28432
 H1519 H 0.71458 0.27837 0.21220
 H1520 H 0.69678 0.25639 0.22895
 H1521 H 0.77120 0.19490 0.23958
 H1522 H 0.78950 0.21315 0.21910
 H1523 H 0.71371 0.28500 0.27616
 H1524 H 0.73268 0.30578 0.25658
 O1525 O 0.75556 0.71542 0.70605
 O1526 O 0.78534 0.71291 0.72047
 O1527 O 0.71725 0.70779 0.75195
 O1528 O 0.71101 0.72142 0.77947
 O1529 O 0.70976 0.75385 0.71318
 O1530 O 0.72467 0.78345 0.70968
 O1531 O 0.76460 0.75897 0.80170
 O1532 O 0.75455 0.72836 0.80164
 O1533 O 0.80447 0.76395 0.75821
 O1534 O 0.80574 0.75488 0.72717
 O1535 O 0.76091 0.80325 0.76183
 O1536 O 0.72814 0.80350 0.75420
 O1537 O 0.74931 0.78490 0.79130
 O1538 O 0.71800 0.78863 0.77551
 O1539 O 0.78683 0.79311 0.74629
 O1540 O 0.79027 0.77730 0.71496
 O1541 O 0.79377 0.74883 0.78417
 O1542 O 0.78052 0.71682 0.78374
 O1543 O 0.74057 0.74146 0.69546
 O1544 O 0.74887 0.77430 0.69618
 O1545 O 0.69899 0.73830 0.73884
 O1546 O 0.69993 0.74802 0.77221
 O1547 O 0.74269 0.69755 0.73558
 O1548 O 0.77493 0.69942 0.74876
 Zr1549 Zr 0.76048 0.72116 0.73460
 O1550 O 0.77825 0.73782 0.75141
 Zr1551 Zr 0.72243 0.73650 0.75669
 O1552 O 0.73881 0.75312 0.77489
 Zr1553 Zr 0.73821 0.75899 0.71919
 O1554 O 0.75479 0.77702 0.73581
 Zr1555 Zr 0.76579 0.74187 0.77774
 O1556 O 0.74854 0.72378 0.76152
 Zr1557 Zr 0.78111 0.76478 0.74026
 O1558 O 0.76517 0.74748 0.72200
 Zr1559 Zr 0.74321 0.77957 0.76281
 O1560 O 0.72516 0.76354 0.74529
 O1561 O 0.73399 0.73248 0.73032
 O1562 O 0.76993 0.76874 0.76698
 C1563 C 0.74795 0.72524 0.69310
 C1564 C 0.72672 0.69503 0.74349
 C1565 C 0.69676 0.74585 0.72271
 C1566 C 0.75738 0.77524 0.80411
 C1567 C 0.80664 0.75707 0.77466
 C1568 C 0.77719 0.80579 0.75459
 H1569 H 0.79058 0.73162 0.75249
 H1570 H 0.75581 0.78927 0.72948
 H1571 H 0.72602 0.72447 0.72219
 H1572 H 0.73245 0.75397 0.78718
 H1573 H 0.74902 0.71638 0.79720
 H1574 H 0.71904 0.72416 0.79044
 H1575 H 0.78216 0.78821 0.71245
 H1576 H 0.76147 0.76922 0.69347
 H1577 H 0.78651 0.71827 0.79621
 H1578 H 0.77323 0.68745 0.74184
 H1579 H 0.73235 0.80665 0.74138
 H1580 H 0.71637 0.78762 0.72000
 H1581 H 0.78342 0.70027 0.71492
 H1582 H 0.80195 0.74381 0.71966
 H1583 H 0.69642 0.75987 0.76597
 H1584 H 0.71537 0.78032 0.78627
 O1585 O 0.24448 0.21440 0.79547
 O1586 O 0.21437 0.21118 0.78182
 O1587 O 0.28161 0.20674 0.74856
 O1588 O 0.28696 0.22006 0.72079
 O1589 O 0.28985 0.25343 0.78689
 O1590 O 0.27493 0.28282 0.79070
 O1591 O 0.23252 0.25661 0.69994
 O1592 O 0.24282 0.22613 0.69978
 O1593 O 0.19393 0.26153 0.74449
 O1594 O 0.19357 0.25280 0.77556
 O1595 O 0.23717 0.30138 0.73948
 O1596 O 0.27025 0.30215 0.74628
 O1597 O 0.24794 0.28291 0.70982
 O1598 O 0.27970 0.28728 0.72457
 O1599 O 0.21173 0.29107 0.75576
 O1600 O 0.20930 0.27560 0.78729
 O1601 O 0.20400 0.24622 0.71832
 O1602 O 0.21742 0.21440 0.71843
 O1603 O 0.25961 0.24081 0.80550
 O1604 O 0.25114 0.27352 0.80486
 O1605 O 0.30002 0.23774 0.76099
 O1606 O 0.29812 0.24695 0.72762
 O1607 O 0.25671 0.19631 0.76568
 O1608 O 0.22410 0.19751 0.75330
 Zr1609 Zr 0.23879 0.21966 0.76701
 O1610 O 0.22048 0.23584 0.75064
 Zr1611 Zr 0.27612 0.23530 0.74381
 O1612 O 0.25916 0.25144 0.72600
 Zr1613 Zr 0.26124 0.25805 0.78164
 O1614 O 0.24413 0.27562 0.76542
 Zr1615 Zr 0.23218 0.23974 0.72396
 O1616 O 0.24996 0.22212 0.73976
 Zr1617 Zr 0.21778 0.26290 0.76177
 O1618 O 0.23430 0.24607 0.77964
 Zr1619 Zr 0.25496 0.27797 0.73811
 O1620 O 0.27356 0.26244 0.75518
 O1621 O 0.26531 0.23145 0.77051
 O1622 O 0.22820 0.26667 0.73474
 C1623 C 0.25236 0.22452 0.80816
 C1624 C 0.27248 0.19394 0.75736
 C1625 C 0.30263 0.24552 0.77704
 C1626 C 0.23950 0.27300 0.69729
 C1627 C 0.19137 0.25442 0.72813
 C1628 C 0.22108 0.30377 0.74712
 H1629 H 0.20815 0.22945 0.74992
 H1630 H 0.24323 0.28794 0.77173
 H1631 H 0.27354 0.22368 0.77846
 H1632 H 0.26515 0.25223 0.71353
 H1633 H 0.24853 0.21429 0.70409
 H1634 H 0.27865 0.22258 0.71002
 H1635 H 0.21734 0.28673 0.78947
 H1636 H 0.23865 0.26827 0.80796
 H1637 H 0.21106 0.21562 0.70613
 H1638 H 0.22607 0.18565 0.76020
 H1639 H 0.26618 0.30556 0.75909
 H1640 H 0.28286 0.28702 0.78011
 H1641 H 0.21651 0.19864 0.78735
 H1642 H 0.19761 0.24187 0.78298
 H1643 H 0.30169 0.25896 0.73367
 H1644 H 0.28207 0.27884 0.71380
 O1645 O 0.20570 0.74763 0.28476
 O1646 O 0.21932 0.71754 0.28739
 O1647 O 0.25265 0.78489 0.29253
 O1648 O 0.28037 0.79039 0.27903
 O1649 O 0.21419 0.79321 0.24622
 O1650 O 0.21018 0.77840 0.21670
 O1651 O 0.30101 0.73627 0.24146
 O1652 O 0.30130 0.74635 0.27211
 O1653 O 0.25632 0.69748 0.23647
 O1654 O 0.22531 0.69700 0.24542
 O1655 O 0.26140 0.74086 0.19716
 O1656 O 0.25446 0.77397 0.19689
 O1657 O 0.29105 0.75184 0.21550
 O1658 O 0.27625 0.78346 0.21165
 O1659 O 0.24511 0.71533 0.20728
 O1660 O 0.21357 0.71280 0.22290
 O1661 O 0.28262 0.70757 0.25160
 O1662 O 0.28269 0.72083 0.28363
 O1663 O 0.19556 0.76286 0.25865
 O1664 O 0.19606 0.75451 0.22580
 O1665 O 0.24014 0.80342 0.26186
 O1666 O 0.27344 0.80168 0.25237
 O1667 O 0.23557 0.75986 0.30274
 O1668 O 0.24789 0.72732 0.30096
 Zr1669 Zr 0.23411 0.74207 0.27914
 O1670 O 0.25039 0.72390 0.26254
 Zr1671 Zr 0.25728 0.77956 0.26383
 O1672 O 0.27499 0.76275 0.24727
 Zr1673 Zr 0.21935 0.76464 0.24120
 O1674 O 0.23547 0.74768 0.22322
 Zr1675 Zr 0.27706 0.73571 0.25855
 O1676 O 0.26136 0.75334 0.27659
 Zr1677 Zr 0.23913 0.72129 0.23554
 O1678 O 0.22136 0.73765 0.25278
 Zr1679 Zr 0.26277 0.75862 0.22078
 O1680 O 0.24579 0.77707 0.23675
 O1681 O 0.23059 0.76864 0.26776
 O1682 O 0.26615 0.73182 0.23167
 C1683 C 0.19297 0.75552 0.27486
 C1684 C 0.24391 0.77565 0.30527
 C1685 C 0.22409 0.80600 0.25421
 C1686 C 0.30362 0.74341 0.22518
 C1687 C 0.27271 0.69493 0.24336
 C1688 C 0.25378 0.72472 0.19464
 H1689 H 0.25111 0.71154 0.26876
 H1690 H 0.22912 0.74679 0.21094
 H1691 H 0.22269 0.77681 0.27572
 H1692 H 0.28745 0.76880 0.24645
 H1693 H 0.29705 0.75200 0.28407
 H1694 H 0.29112 0.78214 0.27628
 H1695 H 0.21142 0.72083 0.21185
 H1696 H 0.19297 0.74199 0.23090
 H1697 H 0.29496 0.71451 0.28219
 H1698 H 0.24104 0.72918 0.31291
 H1699 H 0.24171 0.76971 0.19342
 H1700 H 0.22079 0.78629 0.21243
 H1701 H 0.21384 0.71960 0.30001
 H1702 H 0.21791 0.70099 0.25644
 H1703 H 0.26737 0.80527 0.24045
 H1704 H 0.28700 0.78591 0.22009
 O1705 O 0.19847 0.73648 0.75874
 O1706 O 0.19834 0.74471 0.72757
 O1707 O 0.24419 0.69701 0.76253
 O1708 O 0.27484 0.69677 0.75739
 O1709 O 0.23924 0.74245 0.80341
 O1710 O 0.24635 0.77488 0.80245
 O1711 O 0.29343 0.74760 0.71448
 O1712 O 0.28142 0.71768 0.71304
 O1713 O 0.24833 0.78440 0.70737
 O1714 O 0.21756 0.78811 0.72208
 O1715 O 0.28571 0.79322 0.75188
 O1716 O 0.29037 0.77921 0.78250
 O1717 O 0.30347 0.76395 0.74014
 O1718 O 0.30352 0.75593 0.77432
 O1719 O 0.25962 0.80276 0.73637
 O1720 O 0.22579 0.80168 0.74525
 O1721 O 0.26477 0.75897 0.69744
 O1722 O 0.25231 0.72643 0.69869
 O1723 O 0.20839 0.75326 0.78420
 O1724 O 0.22291 0.78361 0.78769
 O1725 O 0.25522 0.71673 0.79349
 O1726 O 0.28624 0.71495 0.77801
 O1727 O 0.21774 0.70652 0.74754
 O1728 O 0.21626 0.72104 0.71614
 Zr1729 Zr 0.22251 0.73506 0.74173
 O1730 O 0.23831 0.75229 0.72369
 Zr1731 Zr 0.26052 0.72155 0.76487
 O1732 O 0.27789 0.73774 0.74736
 Zr1733 Zr 0.23697 0.75899 0.77916
 O1734 O 0.25371 0.77694 0.76272
 Zr1735 Zr 0.26541 0.74133 0.72099
 O1736 O 0.24911 0.72296 0.73767
 Zr1737 Zr 0.24220 0.77891 0.73570
 O1738 O 0.22440 0.76245 0.75278
 Zr1739 Zr 0.28025 0.76499 0.75841
 O1740 O 0.26430 0.74821 0.77706
 O1741 O 0.23366 0.73203 0.76851
 O1742 O 0.26908 0.76838 0.73168
 C1743 C 0.19574 0.74467 0.77458
 C1744 C 0.22801 0.69400 0.75522
 C1745 C 0.24717 0.72661 0.80619
 C1746 C 0.30597 0.75652 0.72390
 C1747 C 0.25720 0.77501 0.69485
 C1748 C 0.27595 0.80559 0.74336
 H1749 H 0.23198 0.75295 0.71138
 H1750 H 0.25459 0.78930 0.76897
 H1751 H 0.22580 0.72395 0.77662
 H1752 H 0.29020 0.73155 0.74614
 H1753 H 0.27378 0.70649 0.71614
 H1754 H 0.28204 0.69961 0.74590
 H1755 H 0.23180 0.80686 0.75665
 H1756 H 0.21432 0.78696 0.77735
 H1757 H 0.26074 0.72692 0.68764
 H1758 H 0.20482 0.71326 0.71787
 H1759 H 0.28076 0.78841 0.78632
 H1760 H 0.25953 0.77120 0.80466
 H1761 H 0.19670 0.75801 0.73121
 H1762 H 0.21425 0.77870 0.71240
 H1763 H 0.28850 0.72466 0.78771
 H1764 H 0.30858 0.74454 0.76825
 O1765 O 0.25354 0.21450 0.21011
 O1766 O 0.28354 0.21190 0.22405
 O1767 O 0.21598 0.20731 0.25672
 O1768 O 0.21030 0.22115 0.28428
 O1769 O 0.20808 0.25311 0.21778
 O1770 O 0.22297 0.28268 0.21391
 O1771 O 0.26472 0.25873 0.30524
 O1772 O 0.25423 0.22820 0.30570
 O1773 O 0.30359 0.26301 0.26103
 O1774 O 0.30422 0.25385 0.23003
 O1775 O 0.26024 0.30264 0.26518
 O1776 O 0.22724 0.30289 0.25815
 O1777 O 0.24933 0.28464 0.29496
 O1778 O 0.21763 0.28832 0.27995
 O1779 O 0.28588 0.29225 0.24935
 O1780 O 0.28864 0.27627 0.21800
 O1781 O 0.29332 0.24802 0.28724
 O1782 O 0.27971 0.21618 0.28739
 O1783 O 0.23851 0.24056 0.19962
 O1784 O 0.24691 0.27338 0.20003
 O1785 O 0.19764 0.23781 0.24373
 O1786 O 0.19922 0.24782 0.27702
 O1787 O 0.24107 0.19688 0.23994
 O1788 O 0.27353 0.19864 0.25259
 Zr1789 Zr 0.25896 0.22038 0.23854
 O1790 O 0.27710 0.23705 0.25492
 Zr1791 Zr 0.22137 0.23603 0.26121
 O1792 O 0.23817 0.25270 0.27902
 Zr1793 Zr 0.23662 0.25823 0.22330
 O1794 O 0.25357 0.27628 0.23951
 Zr1795 Zr 0.26514 0.24133 0.28145
 O1796 O 0.24751 0.22323 0.26565
 Zr1797 Zr 0.27990 0.26392 0.24354
 O1798 O 0.26355 0.24659 0.22568
 Zr1799 Zr 0.24248 0.27904 0.26669
 O1800 O 0.22404 0.26299 0.24959
 O1801 O 0.23246 0.23181 0.23466
 O1802 O 0.26922 0.26810 0.27043
 C1803 C 0.24577 0.22429 0.19723
 C1804 C 0.22523 0.19447 0.24813
 C1805 C 0.19520 0.24521 0.22755
 C1806 C 0.25774 0.27510 0.30765
 C1807 C 0.30605 0.25613 0.27744
 C1808 C 0.27642 0.30504 0.25769
 H1809 H 0.28941 0.23078 0.25580
 H1810 H 0.25453 0.28848 0.23308
 H1811 H 0.22433 0.22378 0.22672
 H1812 H 0.23208 0.25368 0.29144
 H1813 H 0.24850 0.21623 0.30150
 H1814 H 0.21845 0.22402 0.29513
 H1815 H 0.28058 0.28724 0.21563
 H1816 H 0.25945 0.26824 0.19711
 H1817 H 0.28595 0.21766 0.29974
 H1818 H 0.27165 0.18664 0.24577
 H1819 H 0.23133 0.30603 0.24529
 H1820 H 0.21484 0.28690 0.22433
 H1821 H 0.28146 0.19924 0.21861
 H1822 H 0.30025 0.24273 0.22269
 H1823 H 0.19569 0.25965 0.27078
 H1824 H 0.21522 0.28009 0.29081
 O1825 O 0.78452 0.70706 0.24608
 O1826 O 0.78711 0.72126 0.21614
 O1827 O 0.79205 0.75317 0.28421
 O1828 O 0.77853 0.78064 0.29042
 O1829 O 0.74567 0.71425 0.29170
 O1830 O 0.71623 0.71043 0.27670
 O1831 O 0.74126 0.80240 0.23673
 O1832 O 0.77182 0.80262 0.24686
 O1833 O 0.73659 0.75862 0.19689
 O1834 O 0.74528 0.72763 0.19571
 O1835 O 0.69695 0.76249 0.24046
 O1836 O 0.69646 0.75478 0.27330
 O1837 O 0.71527 0.79192 0.25212
 O1838 O 0.71132 0.77628 0.28343
 O1839 O 0.70715 0.74692 0.21452
 O1840 O 0.72272 0.71548 0.21123
 O1841 O 0.75169 0.78474 0.20758
 O1842 O 0.78355 0.78464 0.22096
 O1843 O 0.75834 0.69641 0.26106
 O1844 O 0.72557 0.69690 0.25248
 O1845 O 0.76132 0.74002 0.30245
 O1846 O 0.75182 0.77334 0.30148
 O1847 O 0.80238 0.73677 0.25876
 O1848 O 0.80076 0.74967 0.22648
 Zr1849 Zr 0.77886 0.73553 0.24098
 O1850 O 0.76237 0.75217 0.22320
 Zr1851 Zr 0.76340 0.75775 0.27900
 O1852 O 0.74695 0.77578 0.26261
 Zr1853 Zr 0.74083 0.72004 0.26322
 O1854 O 0.72296 0.73649 0.24663
 Zr1855 Zr 0.75836 0.77856 0.23562
 O1856 O 0.77628 0.76251 0.25288
 Zr1857 Zr 0.73538 0.74086 0.22032
 O1858 O 0.75252 0.72277 0.23627
 Zr1859 Zr 0.72049 0.76351 0.25822
 O1860 O 0.73634 0.74617 0.27627
 O1861 O 0.76736 0.73135 0.26747
 O1862 O 0.73148 0.76761 0.23148
 C1863 C 0.77464 0.69411 0.25377
 C1864 C 0.80483 0.74474 0.27475
 C1865 C 0.75364 0.72389 0.30470
 C1866 C 0.72496 0.80473 0.24396
 C1867 C 0.74358 0.77507 0.19470
 C1868 C 0.69448 0.75528 0.22413
 H1869 H 0.76866 0.75321 0.21088
 H1870 H 0.71067 0.73012 0.24560
 H1871 H 0.77528 0.72333 0.27549
 H1872 H 0.74610 0.78810 0.26895
 H1873 H 0.78375 0.79830 0.25243
 H1874 H 0.77587 0.79157 0.28241
 H1875 H 0.71167 0.71307 0.21925
 H1876 H 0.73079 0.69414 0.23991
 H1877 H 0.78220 0.79707 0.21495
 H1878 H 0.81267 0.74277 0.22815
 H1879 H 0.69310 0.74206 0.26886
 H1880 H 0.71196 0.72080 0.28488
 H1881 H 0.79969 0.71575 0.21806
 H1882 H 0.75632 0.72024 0.19949
 H1883 H 0.73993 0.76706 0.30500
 H1884 H 0.71965 0.78709 0.28605
 O1885 O 0.70495 0.24787 0.78492
 O1886 O 0.71878 0.21784 0.78733
 O1887 O 0.75159 0.28544 0.79275
 O1888 O 0.77919 0.29129 0.77919
 O1889 O 0.71296 0.29364 0.74644
 O1890 O 0.70896 0.27884 0.71694
 O1891 O 0.80027 0.23758 0.74138
 O1892 O 0.80052 0.24746 0.77205
 O1893 O 0.75591 0.19830 0.73636
 O1894 O 0.72492 0.19751 0.74527
 O1895 O 0.76054 0.24188 0.69716
 O1896 O 0.75322 0.27496 0.69706
 O1897 O 0.79011 0.25317 0.71551
 O1898 O 0.77498 0.28457 0.71175
 O1899 O 0.74450 0.21617 0.70720
 O1900 O 0.71300 0.21330 0.72287
 O1901 O 0.78215 0.20859 0.75144
 O1902 O 0.78216 0.22174 0.78350
 O1903 O 0.69462 0.26311 0.75890
 O1904 O 0.69509 0.25480 0.72603
 O1905 O 0.73881 0.30400 0.76213
 O1906 O 0.77210 0.30261 0.75261
 O1907 O 0.73479 0.26019 0.80288
 O1908 O 0.74730 0.22777 0.80091
 Zr1909 Zr 0.73338 0.24253 0.77919
 O1910 O 0.74979 0.22458 0.76249
 Zr1911 Zr 0.75616 0.28029 0.76401
 O1912 O 0.77399 0.26372 0.74733
 Zr1913 Zr 0.71833 0.26511 0.74138
 O1914 O 0.73457 0.24837 0.72330
 Zr1915 Zr 0.77635 0.23665 0.75849
 O1916 O 0.76052 0.25406 0.77663
 Zr1917 Zr 0.73851 0.22197 0.73550
 O1918 O 0.72062 0.23810 0.75284
 Zr1919 Zr 0.76176 0.25958 0.72084
 O1920 O 0.74465 0.27781 0.73693
 O1921 O 0.72959 0.26912 0.76794
 O1922 O 0.76543 0.23276 0.73161
 C1923 C 0.69213 0.25572 0.77510
 C1924 C 0.74301 0.27603 0.80548
 C1925 C 0.72276 0.30648 0.75446
 C1926 C 0.80279 0.24485 0.72514
 C1927 C 0.77233 0.19588 0.74322
 C1928 C 0.75306 0.22568 0.69458
 H1929 H 0.75064 0.21222 0.76866
 H1930 H 0.72821 0.24747 0.71102
 H1931 H 0.72165 0.27720 0.77595
 H1932 H 0.78639 0.26990 0.74652
 H1933 H 0.79623 0.25303 0.78405
 H1934 H 0.79000 0.28313 0.77641
 H1935 H 0.71076 0.22136 0.71186
 H1936 H 0.69213 0.24224 0.73111
 H1937 H 0.79449 0.21554 0.78202
 H1938 H 0.74044 0.22950 0.81288
 H1939 H 0.74056 0.27049 0.69351
 H1940 H 0.71951 0.28680 0.71263
 H1941 H 0.71329 0.21979 0.79997
 H1942 H 0.71753 0.20137 0.75635
 H1943 H 0.76599 0.30619 0.74071
 H1944 H 0.78565 0.28716 0.72024
 C1945 C 0.05300 1.01369 1.15929
 C1946 C 0.06241 1.00856 1.14283
 C1947 C 0.08091 1.00224 1.14377
 C1948 C 0.08992 1.00086 1.16107
 C1949 C 0.08055 1.00576 1.17773
 C1950 C 0.06203 1.01234 1.17665
 C1951 C 0.05310 1.00930 1.12496
 C1952 C 0.04565 1.00950 1.10980
 C1953 C 0.03725 1.00928 1.09190
 C1954 C 0.03025 1.00873 1.07653
 H1955 H 0.03865 1.01855 1.15872
 H1956 H 0.08834 0.99829 1.13112
 H1957 H 0.10429 0.99607 1.16139
 H1958 H 0.05441 1.01608 1.18925
 C1959 C 0.57898 0.50346 0.64344
 C1960 C 0.56056 0.51000 0.64267
 C1961 C 0.55137 0.51527 0.65921
 C1962 C 0.56055 0.51387 0.67649
 C1963 C 0.57901 0.50709 0.67739
 C1964 C 0.58815 0.50203 0.66065
 C1965 C 0.55112 0.51086 0.62488
 C1966 C 0.54363 0.51114 0.60974
 C1967 C 0.53527 0.51098 0.59182
 C1968 C 0.52840 0.51047 0.57639
 H1969 H 0.58624 0.49939 0.63073
 H1970 H 0.53708 0.52031 0.65877
 H1971 H 0.55312 0.51774 0.68915
 H1972 H 0.60247 0.49708 0.66084
 C1973 C 0.42265 0.01201 0.63970
 C1974 C 0.43893 0.00141 0.63743
 C1975 C 0.44612 -0.00865 0.65261
 C1976 C 0.43691 -0.00829 0.66993
 C1977 C 0.42034 0.00208 0.67223
 C1978 C 0.41342 0.01236 0.65696
 C1979 C 0.44794 0.00067 0.61939
 C1980 C 0.45509 0.00023 0.60409
 C1981 C 0.46313 -0.00005 0.58601
 C1982 C 0.46984 -0.00006 0.57051
 H1983 H 0.41700 0.01991 0.62808
 H1984 H 0.45871 -0.01692 0.65099
 H1985 H 0.44247 -0.01649 0.68137
 H1986 H 0.40086 0.02070 0.65837
 C1987 C -0.07428 0.48421 1.14265
 C1988 C -0.05927 0.49644 1.13939
 C1989 C -0.05337 0.50878 1.15355
 C1990 C -0.06267 0.50909 1.17083
 C1991 C -0.07804 0.49711 1.17408
 C1992 C -0.08360 0.48451 1.15987
 C1993 C -0.05041 0.49671 1.12127
 C1994 C -0.04337 0.49697 1.10592
 C1995 C -0.03543 0.49734 1.08781
 C1996 C -0.02877 0.49776 1.07229
 H1997 H -0.07893 0.47458 1.13180
 H1998 H -0.04180 0.51835 1.15114
 H1999 H -0.05819 0.51905 1.18143
 H2000 H -0.09520 0.47492 1.16205
 C2001 C -0.05740 0.51244 0.34210
 C2002 C -0.06511 0.50244 0.35705
 C2003 C -0.08152 0.49206 0.35439
 C2004 C -0.09019 0.49155 0.33686
 C2005 C -0.08263 0.50144 0.32142
 C2006 C -0.06605 0.51202 0.32448
 C2007 C -0.05629 0.50264 0.37519
 C2008 C -0.04929 0.50242 0.39057
 C2009 C -0.04147 0.50179 0.40872
 C2010 C -0.03499 0.50102 0.42430
 H2011 H -0.04460 0.52045 0.34399
 H2012 H -0.08773 0.48441 0.36594
 H2013 H -0.10327 0.48391 0.33587
 H2014 H -0.05916 0.51944 0.31322
 C2015 C 0.41525 0.99639 -0.14562
 C2016 C 0.43360 1.00303 -0.14352
 C2017 C 0.44359 1.00924 -0.15922
 C2018 C 0.43527 1.00872 -0.17699
 C2019 C 0.41686 1.00190 -0.17925
 C2020 C 0.40693 0.99583 -0.16333
 C2021 C 0.44212 1.00322 -0.12522
 C2022 C 0.44895 1.00308 -0.10977
 C2023 C 0.45671 1.00262 -0.09158
 C2024 C 0.46323 1.00200 -0.07601
 H2025 H 0.40736 0.99160 -0.13355
 H2026 H 0.45783 1.01438 -0.15776
 H2027 H 0.44332 1.01335 -0.18900
 H2028 H 0.39262 0.99083 -0.16453
 C2029 C 0.55785 0.50703 -0.15277
 C2030 C 0.56431 0.49423 -0.13946
 C2031 C 0.57915 0.48228 -0.14391
 C2032 C 0.58772 0.48331 -0.16148
 C2033 C 0.58156 0.49634 -0.17486
 C2034 C 0.56639 0.50806 -0.17040
 C2035 C 0.55613 0.49367 -0.12104
 C2036 C 0.54957 0.49325 -0.10548
 C2037 C 0.54209 0.49287 -0.08718
 C2038 C 0.53573 0.49270 -0.07153
 H2039 H 0.54639 0.51637 -0.14944
 H2040 H 0.58423 0.47229 -0.13373
 H2041 H 0.59917 0.47390 -0.16461
 H2042 H 0.56147 0.51835 -0.18034
 C2043 C 0.05624 0.00460 0.34705
 C2044 C 0.06242 -0.00832 0.36039
 C2045 C 0.07721 -0.02038 0.35608
 C2046 C 0.08604 -0.01932 0.33864
 C2047 C 0.08020 -0.00615 0.32526
 C2048 C 0.06505 0.00566 0.32955
 C2049 C 0.05408 -0.00880 0.37874
 C2050 C 0.04745 -0.00912 0.39427
 C2051 C 0.03996 -0.00935 0.41257
 C2052 C 0.03365 -0.00936 0.42823
 H2053 H 0.04483 0.01404 0.35027
 H2054 H 0.08207 -0.03045 0.36628
 H2055 H 0.09747 -0.02880 0.33563
 H2056 H 0.06037 0.01605 0.31960
 C2057 C 0.13918 1.08281 0.99526
 C2058 C 0.13737 1.06498 1.00315
 C2059 C 0.15321 1.05581 1.01006
 C2060 C 0.17079 1.06455 1.00927
 C2061 C 0.17269 1.08260 1.00160
 C2062 C 0.15670 1.09156 0.99448
 C2063 C 0.11917 1.05630 1.00431
 C2064 C 0.10377 1.04935 1.00517
 C2065 C 0.08562 1.04148 1.00596
 C2066 C 0.07005 1.03489 1.00638
 H2067 H 0.12701 1.08999 0.98980
 H2068 H 0.15195 1.04201 1.01622
 H2069 H 0.18281 1.05739 1.01505
 H2070 H 0.15776 1.10534 0.98825
 C2071 C 0.65287 0.55687 0.50986
 C2072 C 0.63712 0.56628 0.50307
 C2073 C 0.63917 0.58397 0.49494
 C2074 C 0.65687 0.59233 0.49375
 C2075 C 0.67278 0.58310 0.50070
 C2076 C 0.67062 0.56521 0.50866
 C2077 C 0.61879 0.55792 0.50446
 C2078 C 0.60331 0.55117 0.50543
 C2079 C 0.58508 0.54347 0.50625
 C2080 C 0.56948 0.53694 0.50660
 H2081 H 0.65142 0.54317 0.51619
 H2082 H 0.62709 0.59134 0.48955
 H2083 H 0.65812 0.60599 0.48730
 H2084 H 0.68257 0.55785 0.51432
 C2085 C 0.65362 0.42955 -0.01999
 C2086 C 0.64602 0.43788 -0.00392
 C2087 C 0.65627 0.43805 0.01280
 C2088 C 0.67389 0.42962 0.01356
 C2089 C 0.68150 0.42088 -0.00241
 C2090 C 0.67127 0.42113 -0.01927
 C2091 C 0.62745 0.44566 -0.00432
 C2092 C 0.61180 0.45196 -0.00434
 C2093 C 0.59341 0.45915 -0.00401
 C2094 C 0.57769 0.46522 -0.00346
 H2095 H 0.64577 0.42928 -0.03299
 H2096 H 0.65053 0.44448 0.02533
 H2097 H 0.68153 0.42987 0.02668
 H2098 H 0.67664 0.41432 -0.03174
 C2099 C 0.14524 -0.08409 0.50246
 C2100 C 0.14342 -0.06575 0.49590
 C2101 C 0.15935 -0.05578 0.49014
 C2102 C 0.17706 -0.06410 0.49104
 C2103 C 0.17902 -0.08249 0.49780
 C2104 C 0.16288 -0.09241 0.50340
 C2105 C 0.12519 -0.05722 0.49542
 C2106 C 0.10975 -0.05044 0.49537
 C2107 C 0.09154 -0.04281 0.49569
 C2108 C 0.07592 -0.03648 0.49625
 H2109 H 0.13301 -0.09196 0.50690
 H2110 H 0.15811 -0.04154 0.48507
 H2111 H 0.18923 -0.05606 0.48677
 H2112 H 0.16387 -0.10670 0.50834
 C2113 C 0.36024 -0.07729 0.49087
 C2114 C 0.36246 -0.06070 0.50115
 C2115 C 0.34722 -0.05320 0.51096
 C2116 C 0.32985 -0.06242 0.51066
 C2117 C 0.32759 -0.07928 0.50059
 C2118 C 0.34294 -0.08652 0.49057
 C2119 C 0.38051 -0.05163 0.50175
 C2120 C 0.39583 -0.04443 0.50204
 C2121 C 0.41392 -0.03634 0.50210
 C2122 C 0.42943 -0.02960 0.50189
 H2123 H 0.37192 -0.08317 0.48316
 H2124 H 0.34880 -0.04036 0.51898
 H2125 H 0.31834 -0.05661 0.51864
 H2126 H 0.34156 -0.09931 0.48244
 C2127 C -0.13850 0.42128 0.99161
 C2128 C -0.13638 0.43796 1.00178
 C2129 C -0.15175 0.44560 1.01127
 C2130 C -0.16915 0.43646 1.01074
 C2131 C -0.17134 0.41954 1.00075
 C2132 C -0.15584 0.41213 0.99108
 C2133 C -0.11833 0.44702 1.00256
 C2134 C -0.10304 0.45427 1.00301
 C2135 C -0.08500 0.46245 1.00327
 C2136 C -0.06952 0.46928 1.00321
 H2137 H -0.12672 0.41529 0.98415
 H2138 H -0.15025 0.45850 1.01920
 H2139 H -0.18076 0.44241 1.01848
 H2140 H -0.15715 0.39929 0.98304
 C2141 C -0.15484 0.55690 0.50986
 C2142 C -0.14502 0.55648 0.49289
 C2143 C -0.15283 0.56461 0.47689
 C2144 C -0.17024 0.57345 0.47795
 C2145 C -0.18004 0.57431 0.49506
 C2146 C -0.17223 0.56575 0.51096
 C2147 C -0.12663 0.54833 0.49212
 C2148 C -0.11112 0.54175 0.49182
 C2149 C -0.09288 0.53421 0.49186
 C2150 C -0.07728 0.52782 0.49224
 H2151 H -0.14893 0.55063 0.52233
 H2152 H -0.14530 0.56442 0.46370
 H2153 H -0.17575 0.58013 0.46553
 H2154 H -0.17954 0.56599 0.52426
 C2155 C 0.33885 1.05108 -0.01073
 C2156 C 0.35526 1.06009 -0.00467
 C2157 C 0.35434 1.07817 0.00290
 C2158 C 0.33712 1.08724 0.00444
 C2159 C 0.32052 1.07833 -0.00154
 C2160 C 0.32157 1.06016 -0.00921
 C2161 C 0.37309 1.05086 -0.00598
 C2162 C 0.38824 1.04353 -0.00671
 C2163 C 0.40619 1.03533 -0.00712
 C2164 C 0.42163 1.02858 -0.00707
 H2165 H 0.33941 1.03705 -0.01657
 H2166 H 0.36695 1.08529 0.00758
 H2167 H 0.33683 1.10135 0.01009
 H2168 H 0.30902 1.05289 -0.01380
 C2169 C 0.01984 1.15255 1.07096
 C2170 C 0.00347 1.14488 1.06323
 C2171 C -0.01314 1.15521 1.06354
 C2172 C -0.01350 1.17298 1.07185
 C2173 C 0.00280 1.18068 1.07998
 C2174 C 0.01953 1.17035 1.07926
 C2175 C 0.00352 1.12623 1.05545
 C2176 C 0.00328 1.11054 1.04911
 C2177 C 0.00274 1.09214 1.04176
 C2178 C 0.00208 1.07644 1.03547
 H2179 H 0.03277 1.14465 1.07084
 H2180 H -0.02589 1.14944 1.05755
 H2181 H -0.02653 1.18069 1.07196
 H2182 H 0.03224 1.17578 1.08561
 C2183 C 0.51866 0.65382 0.57049
 C2184 C 0.50223 0.64619 0.56284
 C2185 C 0.48562 0.65651 0.56332
 C2186 C 0.48533 0.67425 0.57169
 C2187 C 0.50168 0.68192 0.57973
 C2188 C 0.51841 0.67158 0.57887
 C2189 C 0.50224 0.62758 0.55498
 C2190 C 0.50200 0.61192 0.54856
 C2191 C 0.50149 0.59355 0.54115
 C2192 C 0.50091 0.57788 0.53480
 H2193 H 0.53159 0.64592 0.57025
 H2194 H 0.47283 0.65076 0.55740
 H2195 H 0.47230 0.68196 0.57193
 H2196 H 0.53116 0.67699 0.58514
 C2197 C 0.00635 0.65015 0.44301
 C2198 C -0.00637 0.63643 0.43689
 C2199 C -0.01850 0.64026 0.42202
 C2200 C -0.01776 0.65764 0.41310
 C2201 C -0.00483 0.67143 0.41893
 C2202 C 0.00710 0.66758 0.43412
 C2203 C -0.00666 0.61820 0.44545
 C2204 C -0.00687 0.60279 0.45229
 C2205 C -0.00705 0.58463 0.46002
 C2206 C -0.00708 0.56906 0.46650
 H2207 H 0.01585 0.64730 0.45449
 H2208 H -0.02843 0.62976 0.41720
 H2209 H -0.02733 0.66029 0.40164
 H2210 H 0.01731 0.67785 0.43880
 C2211 C 0.47939 1.14136 -0.07811
 C2212 C 0.49144 1.13738 -0.06320
 C2213 C 0.50425 1.15098 -0.05700
 C2214 C 0.50517 1.16843 -0.06584
 C2215 C 0.49332 1.17243 -0.08105
 C2216 C 0.48030 1.15876 -0.08697
 C2217 C 0.49102 1.11913 -0.05471
 C2218 C 0.49078 1.10371 -0.04791
 C2219 C 0.49068 1.08553 -0.04021
 C2220 C 0.49080 1.06994 -0.03379
 H2221 H 0.46940 1.13095 -0.08300
 H2222 H 0.51369 1.14801 -0.04551
 H2223 H 0.51546 1.17859 -0.06108
 H2224 H 0.47080 1.16153 -0.09845
 C2225 C 0.52345 0.34613 -0.06824
 C2226 C 0.50778 0.35424 -0.05970
 C2227 C 0.49065 0.34461 -0.05962
 C2228 C 0.48908 0.32710 -0.06834
 C2229 C 0.50464 0.31899 -0.07729
 C2230 C 0.52192 0.32859 -0.07696
 C2231 C 0.50899 0.37271 -0.05160
 C2232 C 0.50957 0.38828 -0.04500
 C2233 C 0.50976 0.40656 -0.03737
 C2234 C 0.50952 0.42216 -0.03086
 H2235 H 0.53676 0.35351 -0.06844
 H2236 H 0.47844 0.35074 -0.05302
 H2237 H 0.47567 0.31994 -0.06816
 H2238 H 0.53409 0.32282 -0.08392
 C2239 C 0.00040 -0.14692 0.41935
 C2240 C 0.00736 -0.14572 0.43764
 C2241 C 0.01304 -0.16199 0.44691
 C2242 C 0.01163 -0.17944 0.43793
 C2243 C 0.00443 -0.18078 0.41961
 C2244 C -0.00105 -0.16430 0.41038
 C2245 C 0.00827 -0.12777 0.44687
 C2246 C 0.00860 -0.11253 0.45423
 C2247 C 0.00852 -0.09453 0.46251
 C2248 C 0.00808 -0.07908 0.46936
 H2249 H -0.00399 -0.13441 0.41203
 H2250 H 0.01841 -0.16122 0.46109
 H2251 H 0.01582 -0.19189 0.44543
 H2252 H -0.00633 -0.16482 0.39616
 C2253 C 0.51034 -0.13808 0.57801
 C2254 C 0.49972 -0.13602 0.56168
 C2255 C 0.48975 -0.15136 0.55439
 C2256 C 0.49025 -0.16866 0.56354
 C2257 C 0.50069 -0.17078 0.58013
 C2258 C 0.51084 -0.15532 0.58717
 C2259 C 0.49894 -0.11805 0.55265
 C2260 C 0.49850 -0.10282 0.54543
 C2261 C 0.49826 -0.08485 0.53728
 C2262 C 0.49832 -0.06944 0.53045
 H2263 H 0.51817 -0.12632 0.58372
 H2264 H 0.48147 -0.14990 0.54177
 H2265 H 0.48215 -0.18025 0.55789
 H2266 H 0.51923 -0.15659 0.59974
 C2267 C 0.00688 0.36182 1.08129
 C2268 C 0.00064 0.36280 1.06279
 C2269 C -0.00495 0.34645 1.05345
 C2270 C -0.00445 0.32917 1.06264
 C2271 C 0.00156 0.32789 1.08151
 C2272 C 0.00737 0.34465 1.09055
 C2273 C -0.00003 0.38068 1.05355
 C2274 C -0.00041 0.39588 1.04627
 C2275 C -0.00060 0.41387 1.03814
 C2276 C -0.00050 0.42933 1.03142
 H2277 H 0.01146 0.37439 1.08859
 H2278 H -0.00989 0.34707 1.03910
 H2279 H -0.00962 0.31707 1.05503
 H2280 H 0.01299 0.34466 1.10462
 C2281 C 0.75511 0.33387 0.10880
 C2282 C 0.75879 0.31473 0.10963
 C2283 C 0.76178 0.30468 0.09309
 C2284 C 0.76115 0.31371 0.07573
 C2285 C 0.75754 0.33324 0.07441
 C2286 C 0.75446 0.34301 0.09156
 C2287 C 0.75921 0.30551 0.12753
 C2288 C 0.75930 0.29815 0.14271
 C2289 C 0.75906 0.28984 0.16063
 C2290 C 0.75850 0.28290 0.17599
 H2291 H 0.75248 0.34176 0.12154
 H2292 H 0.76476 0.28981 0.09360
 H2293 H 0.76445 0.30522 0.06363
 H2294 H 0.75055 0.35760 0.09204
 C2295 C 0.26743 0.80589 0.59412
 C2296 C 0.25815 0.81366 0.60959
 C2297 C 0.24810 0.83030 0.60756
 C2298 C 0.24746 0.83927 0.59022
 C2299 C 0.25690 0.83172 0.57461
 C2300 C 0.26679 0.81484 0.57670
 C2301 C 0.25887 0.80472 0.62762
 C2302 C 0.25912 0.79762 0.64291
 C2303 C 0.25897 0.78963 0.66097
 C2304 C 0.25842 0.78294 0.67645
 H2305 H 0.27525 0.79300 0.59554
 H2306 H 0.24079 0.83638 0.61941
 H2307 H 0.23947 0.85207 0.58899
 H2308 H 0.27433 0.80879 0.56500
 C2309 C 0.75762 0.66850 0.60617
 C2310 C 0.74918 0.68608 0.60776
 C2311 C 0.74135 0.69452 0.59193
 C2312 C 0.74178 0.68530 0.57458
 C2313 C 0.75001 0.66749 0.57292
 C2314 C 0.75805 0.65926 0.58888
 C2315 C 0.74842 0.69523 0.62575
 C2316 C 0.74794 0.70250 0.64102
 C2317 C 0.74762 0.71064 0.65906
 C2318 C 0.74760 0.71738 0.67458
 H2319 H 0.76380 0.66188 0.61832
 H2320 H 0.73476 0.70813 0.59303
 H2321 H 0.73532 0.69189 0.56259
 H2322 H 0.76474 0.64570 0.58798
 C2323 C 0.24767 0.16552 0.11103
 C2324 C 0.24538 0.18488 0.11198
 C2325 C 0.24368 0.19517 0.09550
 C2326 C 0.24420 0.18614 0.07806
 C2327 C 0.24637 0.16639 0.07661
 C2328 C 0.24818 0.15638 0.09370
 C2329 C 0.24496 0.19406 0.12997
 C2330 C 0.24477 0.20137 0.14523
 C2331 C 0.24480 0.20955 0.16326
 C2332 C 0.24508 0.21635 0.17875
 H2333 H 0.24928 0.15743 0.12375
 H2334 H 0.24178 0.21022 0.09611
 H2335 H 0.24191 0.19487 0.06596
 H2336 H 0.25098 0.14154 0.09411
 C2337 C 0.26809 0.19028 0.90668
 C2338 C 0.25251 0.18904 0.89481
 C2339 C 0.23634 0.17966 0.90080
 C2340 C 0.23581 0.17131 0.91847
 C2341 C 0.25148 0.17222 0.93042
 C2342 C 0.26760 0.18192 0.92437
 C2343 C 0.25317 0.19701 0.87633
 C2344 C 0.25346 0.20344 0.86074
 C2345 C 0.25346 0.21081 0.84242
 C2346 C 0.25315 0.21705 0.82676
 H2347 H 0.28067 0.19755 0.90219
 H2348 H 0.22422 0.17856 0.89170
 H2349 H 0.22330 0.16370 0.92257
 H2350 H 0.27981 0.18304 0.93332
 C2351 C 0.76913 0.68762 0.40233
 C2352 C 0.75333 0.68690 0.39073
 C2353 C 0.73702 0.67788 0.39692
 C2354 C 0.73656 0.66942 0.41454
 C2355 C 0.75245 0.66985 0.42622
 C2356 C 0.76871 0.67915 0.41997
 C2357 C 0.75388 0.69507 0.37234
 C2358 C 0.75416 0.70174 0.35685
 C2359 C 0.75424 0.70943 0.33867
 C2360 C 0.75409 0.71599 0.32313
 H2361 H 0.78182 0.69460 0.39769
 H2362 H 0.72473 0.67719 0.38802
 H2363 H 0.72393 0.66213 0.41881
 H2364 H 0.78109 0.67990 0.42872
 C2365 C 0.25147 0.83314 0.39215
 C2366 C 0.24506 0.81462 0.39079
 C2367 C 0.24008 0.80486 0.40705
 C2368 C 0.24162 0.81355 0.42462
 C2369 C 0.24825 0.83211 0.42612
 C2370 C 0.25304 0.84183 0.40966
 C2371 C 0.24399 0.80569 0.37269
 C2372 C 0.24346 0.79853 0.35735
 C2373 C 0.24325 0.79043 0.33926
 C2374 C 0.24338 0.78366 0.32375
 H2375 H 0.25531 0.84085 0.37966
 H2376 H 0.23514 0.79050 0.40616
 H2377 H 0.23796 0.80567 0.43704
 H2378 H 0.25786 0.85623 0.41030
 C2379 C 0.76215 0.31222 0.90170
 C2380 C 0.74495 0.31210 0.89228
 C2381 C 0.72923 0.32020 0.90073
 C2382 C 0.73077 0.32867 0.91840
 C2383 C 0.74810 0.32920 0.92780
 C2384 C 0.76373 0.32069 0.91933
 C2385 C 0.74368 0.30420 0.87371
 C2386 C 0.74300 0.29773 0.85808
 C2387 C 0.74261 0.29024 0.83972
 C2388 C 0.74262 0.28382 0.82406
 H2389 H 0.77441 0.30595 0.89531
 H2390 H 0.71586 0.32024 0.89354
 H2391 H 0.71854 0.33529 0.92444
 H2392 H 0.77720 0.32066 0.92632
 C2393 C 0.80640 0.40545 0.23336
 C2394 C 0.81444 0.39029 0.24274
 C2395 C 0.83112 0.39281 0.25273
 C2396 C 0.83987 0.41034 0.25320
 C2397 C 0.83207 0.42564 0.24364
 C2398 C 0.81514 0.42306 0.23383
 C2399 C 0.80578 0.37204 0.24214
 C2400 C 0.79893 0.35657 0.24198
 C2401 C 0.79121 0.33834 0.24219
 C2402 C 0.78471 0.32273 0.24274
 H2403 H 0.79347 0.40364 0.22558
 H2404 H 0.83740 0.38119 0.26013
 H2405 H 0.85271 0.41195 0.26114
 H2406 H 0.80889 0.43454 0.22621
 C2407 C 0.30659 0.90580 0.75136
 C2408 C 0.31257 0.89197 0.73875
 C2409 C 0.32708 0.89591 0.72616
 C2410 C 0.33584 0.91346 0.72641
 C2411 C 0.33022 0.92732 0.73930
 C2412 C 0.31533 0.92339 0.75162
 C2413 C 0.30435 0.87352 0.73920
 C2414 C 0.29774 0.85796 0.73978
 C2415 C 0.29018 0.83968 0.74073
 C2416 C 0.28374 0.82407 0.74178
 H2417 H 0.29540 0.90287 0.76121
 H2418 H 0.33180 0.88532 0.71632
 H2419 H 0.34709 0.91616 0.71658
 H2420 H 0.31083 0.93369 0.76184
 C2421 C 0.19550 0.90775 0.25770
 C2422 C 0.18566 0.89126 0.25376
 C2423 C 0.16673 0.89210 0.24910
 C2424 C 0.15754 0.90930 0.24853
 C2425 C 0.16705 0.92637 0.25268
 C2426 C 0.18642 0.92507 0.25714
 C2427 C 0.19483 0.87337 0.25439
 C2428 C 0.20203 0.85814 0.25474
 C2429 C 0.21000 0.84010 0.25489
 C2430 C 0.21653 0.82456 0.25474
 H2431 H 0.21021 0.90723 0.26144
 H2432 H 0.15902 0.87940 0.24573
 H2433 H 0.14315 0.90887 0.24387
 H2434 H 0.19468 0.93713 0.26123
 C2435 C 0.69301 0.40757 0.76224
 C2436 C 0.68525 0.39214 0.75280
 C2437 C 0.66877 0.39423 0.74243
 C2438 C 0.65992 0.41161 0.74167
 C2439 C 0.66743 0.42717 0.75130
 C2440 C 0.68417 0.42502 0.76148
 C2441 C 0.69397 0.37404 0.75384
 C2442 C 0.70089 0.35870 0.75448
 C2443 C 0.70867 0.34058 0.75488
 C2444 C 0.71514 0.32502 0.75490
 H2445 H 0.70576 0.40609 0.77033
 H2446 H 0.66270 0.38239 0.73501
 H2447 H 0.64722 0.41289 0.73349
 H2448 H 0.69017 0.43669 0.76918
 C2449 C 0.68888 0.59916 0.76072
 C2450 C 0.68901 0.60900 0.74380
 C2451 C 0.68044 0.60119 0.72792
 C2452 C 0.67151 0.58374 0.72903
 C2453 C 0.67100 0.57391 0.74608
 C2454 C 0.67994 0.58173 0.76187
 C2455 C 0.69742 0.62734 0.74296
 C2456 C 0.70427 0.64281 0.74259
 C2457 C 0.71213 0.66099 0.74253
 C2458 C 0.71879 0.67654 0.74279
 H2459 H 0.69550 0.60506 0.77310
 H2460 H 0.68040 0.60873 0.71476
 H2461 H 0.66454 0.57820 0.71670
 H2462 H 0.67999 0.57439 0.77513
 C2463 C 0.18756 0.09820 0.26461
 C2464 C 0.18798 0.10820 0.24779
 C2465 C 0.17999 0.10040 0.23160
 C2466 C 0.17135 0.08278 0.23231
 C2467 C 0.17055 0.07277 0.24924
 C2468 C 0.17892 0.08060 0.26535
 C2469 C 0.19615 0.12667 0.24731
 C2470 C 0.20283 0.14222 0.24717
 C2471 C 0.21057 0.16045 0.24727
 C2472 C 0.21720 0.17601 0.24757
 H2473 H 0.19375 0.10409 0.27721
 H2474 H 0.18018 0.10805 0.21852
 H2475 H 0.16482 0.07724 0.21973
 H2476 H 0.17874 0.07313 0.27853
 C2477 C 0.30333 0.09291 0.76073
 C2478 C 0.31284 0.10950 0.75620
 C2479 C 0.33146 0.10876 0.75013
 C2480 C 0.34050 0.09154 0.74840
 C2481 C 0.33104 0.07475 0.75270
 C2482 C 0.31238 0.07562 0.75903
 C2483 C 0.30352 0.12732 0.75736
 C2484 C 0.29605 0.14243 0.75792
 C2485 C 0.28763 0.16028 0.75815
 C2486 C 0.28064 0.17562 0.75798
 H2487 H 0.28889 0.09332 0.76540
 H2488 H 0.33897 0.12152 0.74663
 H2489 H 0.35497 0.09137 0.74381
 H2490 H 0.30469 0.06293 0.76230
 C2491 C 0.80426 0.59275 0.25856
 C2492 C 0.81393 0.60913 0.25365
 C2493 C 0.83256 0.60807 0.24766
 C2494 C 0.84147 0.59072 0.24643
 C2495 C 0.83185 0.57414 0.25115
 C2496 C 0.81316 0.57534 0.25736
 C2497 C 0.80480 0.62707 0.25441
 C2498 C 0.79752 0.64227 0.25472
 C2499 C 0.78933 0.66024 0.25471
 C2500 C 0.78255 0.67568 0.25442
 H2501 H 0.78981 0.59341 0.26317
 H2502 H 0.84021 0.62066 0.24388
 H2503 H 0.85595 0.59031 0.24193
 H2504 H 0.80535 0.56281 0.26095
 C2505 C 0.89673 0.27307 0.17224
 C2506 C 0.89261 0.26059 0.18676
 C2507 C 0.90625 0.24794 0.19281
 C2508 C 0.92383 0.24753 0.18414
 C2509 C 0.92795 0.25974 0.16925
 C2510 C 0.91427 0.27267 0.16355
 C2511 C 0.87418 0.26033 0.19495
 C2512 C 0.85865 0.25989 0.20157
 C2513 C 0.84041 0.25906 0.20920
 C2514 C 0.82488 0.25803 0.21575
 H2515 H 0.88630 0.28295 0.16748
 H2516 H 0.90318 0.23818 0.20400
 H2517 H 0.93399 0.23730 0.18870
 H2518 H 0.91712 0.28243 0.15231
 C2519 C 0.39612 0.77359 0.67256
 C2520 C 0.39210 0.76090 0.68692
 C2521 C 0.40584 0.74829 0.69281
 C2522 C 0.42343 0.74811 0.68413
 C2523 C 0.42744 0.76052 0.66938
 C2524 C 0.41366 0.77342 0.66385
 C2525 C 0.37367 0.76042 0.69510
 C2526 C 0.35813 0.75986 0.70171
 C2527 C 0.33988 0.75899 0.70931
 C2528 C 0.32434 0.75801 0.71586
 H2529 H 0.38562 0.78344 0.66791
 H2530 H 0.40285 0.73837 0.70389
 H2531 H 0.43367 0.73790 0.68856
 H2532 H 0.41643 0.78333 0.65273
 C2533 C 0.39083 0.25630 0.83151
 C2534 C 0.38846 0.24636 0.81473
 C2535 C 0.40365 0.23690 0.80674
 C2536 C 0.42113 0.23721 0.81563
 C2537 C 0.42357 0.24696 0.83265
 C2538 C 0.40825 0.25662 0.84041
 C2539 C 0.37032 0.24574 0.80595
 C2540 C 0.35494 0.24538 0.79898
 C2541 C 0.33679 0.24517 0.79115
 C2542 C 0.32121 0.24521 0.78465
 H2543 H 0.37918 0.26373 0.83777
 H2544 H 0.40195 0.22914 0.79376
 H2545 H 0.43261 0.22950 0.80942
 H2546 H 0.40976 0.26448 0.85335
 C2547 C 0.89077 0.74738 0.33353
 C2548 C 0.88977 0.74363 0.31438
 C2549 C 0.90616 0.74017 0.30432
 C2550 C 0.92355 0.74037 0.31338
 C2551 C 0.92503 0.74400 0.33294
 C2552 C 0.90804 0.74760 0.34271
 C2553 C 0.87184 0.74347 0.30516
 C2554 C 0.85663 0.74349 0.29783
 C2555 C 0.83866 0.74370 0.28960
 C2556 C 0.82323 0.74407 0.28277
 H2557 H 0.87814 0.75036 0.34143
 H2558 H 0.90552 0.73711 0.28944
 H2559 H 0.93552 0.73670 0.30489
 H2560 H 0.90773 0.75158 0.35732
 C2561 C 0.09845 0.76978 0.31976
 C2562 C 0.10654 0.75408 0.31124
 C2563 C 0.09691 0.73694 0.31115
 C2564 C 0.07941 0.73542 0.31982
 C2565 C 0.07129 0.75103 0.32872
 C2566 C 0.08092 0.76829 0.32842
 C2567 C 0.12498 0.75530 0.30314
 C2568 C 0.14052 0.75596 0.29654
 C2569 C 0.15879 0.75628 0.28896
 C2570 C 0.17441 0.75616 0.28254
 H2571 H 0.10582 0.78310 0.31997
 H2572 H 0.10303 0.72470 0.30457
 H2573 H 0.07224 0.72200 0.31961
 H2574 H 0.07516 0.78050 0.33536
 C2575 C 0.59599 0.23748 0.81163
 C2576 C 0.60588 0.25446 0.81190
 C2577 C 0.59807 0.27017 0.82067
 C2578 C 0.58055 0.26884 0.82938
 C2579 C 0.57065 0.25173 0.82947
 C2580 C 0.57849 0.23610 0.82033
 C2581 C 0.62428 0.25553 0.80372
 C2582 C 0.63979 0.25610 0.79704
 C2583 C 0.65802 0.25638 0.78937
 C2584 C 0.67361 0.25628 0.78286
 H2585 H 0.60189 0.22523 0.80485
 H2586 H 0.60564 0.28337 0.82103
 H2587 H 0.57501 0.28105 0.83650
 H2588 H 0.57111 0.22281 0.81996
 C2589 C 0.60981 0.75270 0.66563
 C2590 C 0.61126 0.74641 0.68410
 C2591 C 0.59504 0.74147 0.69404
 C2592 C 0.57743 0.74297 0.68554
 C2593 C 0.57584 0.74952 0.66703
 C2594 C 0.59225 0.75423 0.65714
 C2595 C 0.62940 0.74546 0.69286
 C2596 C 0.64476 0.74504 0.69990
 C2597 C 0.66285 0.74496 0.70791
 C2598 C 0.67834 0.74521 0.71466
 H2599 H 0.62226 0.75651 0.65779
 H2600 H 0.59601 0.73663 0.70837
 H2601 H 0.56504 0.73937 0.69356
 H2602 H 0.59154 0.75899 0.64276
 C2603 C 0.10951 0.25152 0.16910
 C2604 C 0.11034 0.24528 0.18763
 C2605 C 0.09381 0.24030 0.19700
 C2606 C 0.07650 0.24169 0.18788
 C2607 C 0.07553 0.24818 0.16931
 C2608 C 0.09226 0.25295 0.15999
 C2609 C 0.12818 0.24441 0.19700
 C2610 C 0.14334 0.24407 0.20445
 C2611 C 0.16128 0.24409 0.21279
 C2612 C 0.17672 0.24443 0.21964
 H2613 H 0.12221 0.25536 0.16169
 H2614 H 0.09428 0.23549 0.21138
 H2615 H 0.06385 0.23806 0.19547
 H2616 H 0.09203 0.25767 0.14558
 C2617 C -0.08218 1.00979 0.86003
 C2618 C -0.06602 0.99909 0.86216
 C2619 C -0.05792 0.99051 0.84651
 C2620 C -0.06615 0.99235 0.82881
 C2621 C -0.08281 1.00279 0.82640
 C2622 C -0.09048 1.01166 0.84242
 C2623 C -0.05786 0.99702 0.88048
 C2624 C -0.05131 0.99567 0.89599
 C2625 C -0.04382 0.99467 0.91427
 C2626 C -0.03739 0.99445 0.92988
 H2627 H -0.08842 1.01675 0.87202
 H2628 H -0.04538 0.98215 0.84803
 H2629 H -0.05979 0.98474 0.81734
 H2630 H -0.10261 1.02060 0.84151
 C2631 C 0.44056 0.48803 0.34600
 C2632 C 0.43559 0.50036 0.36047
 C2633 C 0.42254 0.51452 0.35713
 C2634 C 0.41418 0.51613 0.33952
 C2635 C 0.41874 0.50357 0.32498
 C2636 C 0.43221 0.48964 0.32833
 C2637 C 0.44355 0.49839 0.37888
 C2638 C 0.44990 0.49712 0.39447
 C2639 C 0.45714 0.49621 0.41285
 C2640 C 0.46331 0.49607 0.42857
 H2641 H 0.45065 0.47701 0.34845
 H2642 H 0.41868 0.52420 0.36820
 H2643 H 0.40405 0.52715 0.33729
 H2644 H 0.43585 0.47963 0.31749
 C2645 C 0.58385 0.01731 0.35273
 C2646 C 0.56724 0.00747 0.35600
 C2647 C 0.55941 -0.00350 0.34171
 C2648 C 0.56814 -0.00461 0.32416
 C2649 C 0.58492 0.00535 0.32047
 C2650 C 0.59261 0.01629 0.33525
 C2651 C 0.55850 0.00845 0.37418
 C2652 C 0.55148 0.00925 0.38954
 C2653 C 0.54351 0.00993 0.40765
 C2654 C 0.53679 0.01008 0.42316
 H2655 H 0.59019 0.02566 0.36378
 H2656 H 0.54648 -0.01116 0.34409
 H2657 H 0.56117 -0.01277 0.31341
 H2658 H 0.60585 0.02358 0.33383
 C2659 C 0.07159 0.48874 0.84953
 C2660 C 0.06482 0.50586 0.85633
 C2661 C 0.06604 0.52189 0.84517
 C2662 C 0.07430 0.52090 0.82743
 C2663 C 0.08149 0.50385 0.82061
 C2664 C 0.07985 0.48771 0.83177
 C2665 C 0.05706 0.50708 0.87492
 C2666 C 0.05072 0.50804 0.89056
 C2667 C 0.04337 0.50887 0.90892
 C2668 C 0.03706 0.50913 0.92459
 H2669 H 0.07074 0.47625 0.85808
 H2670 H 0.06079 0.53519 0.85026
 H2671 H 0.07513 0.53350 0.81907
 H2672 H 0.08544 0.47444 0.82701
 C2673 C 0.05123 0.50160 0.65437
 C2674 C 0.05919 0.49113 0.63978
 C2675 C 0.07668 0.48276 0.64228
 C2676 C 0.08630 0.48500 0.65919
 C2677 C 0.07856 0.49571 0.67387
 C2678 C 0.06082 0.50384 0.67135
 C2679 C 0.04989 0.48959 0.62194
 C2680 C 0.04257 0.48860 0.60674
 C2681 C 0.03445 0.48793 0.58871
 C2682 C 0.02782 0.48796 0.57318
 H2683 H 0.03773 0.50823 0.65254
 H2684 H 0.08298 0.47464 0.63108
 H2685 H 0.09977 0.47830 0.66082
 H2686 H 0.05458 0.51227 0.68234
 C2687 C 0.55101 1.00121 0.15357
 C2688 C 0.55872 0.99061 0.13893
 C2689 C 0.57593 0.98168 0.14145
 C2690 C 0.58556 0.98356 0.15839
 C2691 C 0.57813 0.99446 0.17308
 C2692 C 0.56063 1.00309 0.17059
 C2693 C 0.54949 0.98950 0.12101
 C2694 C 0.54225 0.98882 0.10576
 C2695 C 0.53421 0.98844 0.08768
 C2696 C 0.52760 0.98861 0.07213
 H2697 H 0.53773 1.00825 0.15173
 H2698 H 0.58202 0.97343 0.13022
 H2699 H 0.59884 0.97648 0.16000
 H2700 H 0.55463 1.01167 0.18159
 C2701 C 0.41776 0.50492 0.14325
 C2702 C 0.43672 0.50016 0.14230
 C2703 C 0.44627 0.49500 0.15862
 C2704 C 0.43691 0.49481 0.17588
 C2705 C 0.41790 0.49984 0.17698
 C2706 C 0.40840 0.50475 0.16044
 C2707 C 0.44622 0.50061 0.12450
 C2708 C 0.45378 0.50103 0.10939
 C2709 C 0.46223 0.50135 0.09151
 C2710 C 0.46922 0.50129 0.07612
 H2711 H 0.41020 0.50881 0.13069
 H2712 H 0.46095 0.49127 0.15803
 H2713 H 0.44461 0.49111 0.18839
 H2714 H 0.39369 0.50838 0.16077
 C2715 C -0.07977 0.01260 0.64505
 C2716 C -0.06324 0.00247 0.64290
 C2717 C -0.05607 -0.00757 0.65805
 C2718 C -0.06537 -0.00743 0.67534
 C2719 C -0.08207 0.00289 0.67789
 C2720 C -0.08910 0.01282 0.66225
 C2721 C -0.05392 0.00227 0.62499
 C2722 C -0.04655 0.00222 0.60978
 C2723 C -0.03831 0.00209 0.59178
 C2724 C -0.03149 0.00169 0.57632
 H2725 H -0.08560 0.02023 0.63333
 H2726 H -0.04321 -0.01545 0.65653
 H2727 H -0.05892 -0.01490 0.68677
 H2728 H -0.10224 0.02026 0.66280
 C2729 C -0.14580 0.91770 0.99440
 C2730 C -0.14447 0.93649 0.99989
 C2731 C -0.16054 0.94601 1.00586
 C2732 C -0.17791 0.93679 1.00616
 C2733 C -0.17939 0.91794 1.00042
 C2734 C -0.16310 0.90848 0.99467
 C2735 C -0.12655 0.94585 0.99935
 C2736 C -0.11135 0.95328 0.99885
 C2737 C -0.09336 0.96160 0.99839
 C2738 C -0.07789 0.96849 0.99832
 H2739 H -0.13344 0.91015 0.98987
 H2740 H -0.15966 0.96057 1.01016
 H2741 H -0.19022 0.94448 1.01052
 H2742 H -0.16371 0.89388 0.99048
 C2743 C 0.33976 0.44582 0.49029
 C2744 C 0.35614 0.43652 0.49563
 C2745 C 0.35503 0.41822 0.50249
 C2746 C 0.33766 0.40925 0.50411
 C2747 C 0.32108 0.41848 0.49890
 C2748 C 0.32233 0.43685 0.49188
 C2749 C 0.37409 0.44578 0.49450
 C2750 C 0.38928 0.45325 0.49400
 C2751 C 0.40719 0.46177 0.49398
 C2752 C 0.42254 0.46890 0.49451
 H2753 H 0.34044 0.46003 0.48503
 H2754 H 0.36761 0.41087 0.50664
 H2755 H 0.33723 0.39500 0.50925
 H2756 H 0.30982 0.44438 0.48790
 C2757 C 0.34705 0.54931 -0.00236
 C2758 C 0.36177 0.55708 0.00812
 C2759 C 0.35951 0.57452 0.01684
 C2760 C 0.34273 0.58430 0.01487
 C2761 C 0.32795 0.57679 0.00410
 C2762 C 0.33019 0.55908 -0.00432
 C2763 C 0.37953 0.54768 0.00931
 C2764 C 0.39469 0.54034 0.01004
 C2765 C 0.41270 0.53227 0.01045
 C2766 C 0.42825 0.52575 0.01026
 H2767 H 0.34869 0.53586 -0.00925
 H2768 H 0.37081 0.58067 0.02499
 H2769 H 0.34131 0.59775 0.02180
 H2770 H 0.31912 0.55301 -0.01281
 C2771 C -0.15383 0.04980 0.49771
 C2772 C -0.13910 0.05747 0.50826
 C2773 C -0.14131 0.07489 0.51703
 C2774 C -0.15805 0.08474 0.51506
 C2775 C -0.17284 0.07733 0.50424
 C2776 C -0.17064 0.05964 0.49575
 C2777 C -0.12138 0.04798 0.50946
 C2778 C -0.10627 0.04053 0.51019
 C2779 C -0.08832 0.03231 0.51060
 C2780 C -0.07283 0.02565 0.51040
 H2781 H -0.15223 0.03636 0.49078
 H2782 H -0.13001 0.08096 0.52523
 H2783 H -0.15943 0.09817 0.52204
 H2784 H -0.18171 0.05364 0.48722
 C2785 C 0.65967 0.05729 0.49953
 C2786 C 0.64431 0.06735 0.49276
 C2787 C 0.64666 0.08599 0.48723
 C2788 C 0.66428 0.09453 0.48833
 C2789 C 0.67987 0.08452 0.49497
 C2790 C 0.67735 0.06582 0.50066
 C2791 C 0.62606 0.05870 0.49162
 C2792 C 0.61065 0.05173 0.49077
 C2793 C 0.59250 0.04378 0.49007
 C2794 C 0.57696 0.03708 0.48994
 H2795 H 0.65800 0.04284 0.50387
 H2796 H 0.63484 0.09395 0.48210
 H2797 H 0.66567 0.10904 0.48416
 H2798 H 0.68910 0.05771 0.50567
 C2799 C 0.15933 0.55894 1.00401
 C2800 C 0.14510 0.56695 0.99330
 C2801 C 0.14860 0.58347 0.98350
 C2802 C 0.16625 0.59197 0.98431
 C2803 C 0.18097 0.58411 0.99499
 C2804 C 0.17705 0.56740 1.00491
 C2805 C 0.12677 0.55845 0.99251
 C2806 C 0.11131 0.55159 0.99189
 C2807 C 0.09312 0.54373 0.99141
 C2808 C 0.07758 0.53704 0.99144
 H2809 H 0.15677 0.54607 1.01162
 H2810 H 0.13760 0.58994 0.97535
 H2811 H 0.16787 0.60516 0.97709
 H2812 H 0.18775 0.56028 1.01286
 C2813 C 0.14151 0.41885 0.52130
 C2814 C 0.13757 0.43399 0.50958
 C2815 C 0.15138 0.44073 0.49736
 C2816 C 0.16897 0.43218 0.49665
 C2817 C 0.17293 0.41670 0.50812
 C2818 C 0.15905 0.41027 0.52060
 C2819 C 0.11915 0.44213 0.50965
 C2820 C 0.10362 0.44870 0.50950
 C2821 C 0.08537 0.45625 0.50898
 C2822 C 0.06981 0.46270 0.50818
 H2823 H 0.13094 0.41353 0.53084
 H2824 H 0.14846 0.45241 0.48818
 H2825 H 0.17929 0.43733 0.48678
 H2826 H 0.16176 0.39857 0.52982
 C2827 C 0.64017 0.92147 -0.01172
 C2828 C 0.63673 0.93478 0.00231
 C2829 C 0.65109 0.93997 0.01469
 C2830 C 0.66875 0.93163 0.01323
 C2831 C 0.67220 0.91794 -0.00060
 C2832 C 0.65776 0.91312 -0.01318
 C2833 C 0.61835 0.94282 0.00405
 C2834 C 0.60280 0.94926 0.00509
 C2835 C 0.58450 0.95664 0.00573
 C2836 C 0.56887 0.96297 0.00567
 H2837 H 0.62918 0.91743 -0.02144
 H2838 H 0.64857 0.95026 0.02560
 H2839 H 0.67952 0.93548 0.02324
 H2840 H 0.66007 0.90282 -0.02414
 C2841 C -0.00597 0.84536 0.94901
 C2842 C -0.01021 0.86150 0.93886
 C2843 C -0.01240 0.86037 0.91945
 C2844 C -0.01016 0.84327 0.91013
 C2845 C -0.00561 0.82676 0.92003
 C2846 C -0.00375 0.82817 0.93977
 C2847 C -0.01166 0.87939 0.94817
 C2848 C -0.01245 0.89459 0.95559
 C2849 C -0.01278 0.91258 0.96391
 C2850 C -0.01245 0.92806 0.97076
 H2851 H -0.00406 0.84611 0.96406
 H2852 H -0.01581 0.87277 0.91145
 H2853 H -0.01264 0.84313 0.89519
 H2854 H 0.00028 0.81631 0.94820
 C2855 C 0.48427 0.34697 0.44479
 C2856 C 0.49595 0.36214 0.44039
 C2857 C 0.51010 0.35997 0.42698
 C2858 C 0.51237 0.34282 0.41776
 C2859 C 0.50049 0.32757 0.42181
 C2860 C 0.48654 0.32976 0.43558
 C2861 C 0.49334 0.38009 0.44928
 C2862 C 0.49156 0.39536 0.45634
 C2863 C 0.49013 0.41345 0.46427
 C2864 C 0.48960 0.42904 0.47083
 H2865 H 0.47326 0.34850 0.45514
 H2866 H 0.51928 0.37160 0.42353
 H2867 H 0.52340 0.34150 0.40741
 H2868 H 0.47704 0.31835 0.43885
 C2869 C 0.01014 0.35253 0.58016
 C2870 C 0.00041 0.35481 0.56338
 C2871 C -0.00983 0.33981 0.55588
 C2872 C -0.01029 0.32252 0.56511
 C2873 C -0.00038 0.31983 0.58208
 C2874 C 0.00976 0.33534 0.58942
 C2875 C 0.00083 0.37272 0.55412
 C2876 C 0.00128 0.38792 0.54680
 C2877 C 0.00171 0.40590 0.53861
 C2878 C 0.00177 0.42137 0.53186
 H2879 H 0.01791 0.36414 0.58624
 H2880 H -0.01740 0.34141 0.54283
 H2881 H -0.01787 0.31119 0.55839
 H2882 H 0.01691 0.33469 0.60275
 C2883 C 0.48412 0.84730 0.06683
 C2884 C 0.50095 0.85421 0.05942
 C2885 C 0.51727 0.84351 0.06073
 C2886 C 0.51686 0.82614 0.06971
 C2887 C 0.50009 0.81923 0.07755
 C2888 C 0.48367 0.82992 0.07581
 C2889 C 0.50158 0.87252 0.05102
 C2890 C 0.50201 0.88797 0.04423
 C2891 C 0.50226 0.90615 0.03649
 C2892 C 0.50210 0.92171 0.02997
 H2893 H 0.47141 0.85550 0.06595
 H2894 H 0.53036 0.84869 0.05500
 H2895 H 0.52967 0.81813 0.07060
 H2896 H 0.47061 0.82511 0.08190
 C2897 C 0.50010 0.65160 0.05694
 C2898 C 0.49255 0.63631 0.06664
 C2899 C 0.48574 0.63877 0.08487
 C2900 C 0.48668 0.65639 0.09347
 C2901 C 0.49447 0.67181 0.08395
 C2902 C 0.50102 0.66926 0.06551
 C2903 C 0.49230 0.61795 0.05817
 C2904 C 0.49238 0.60248 0.05129
 C2905 C 0.49287 0.58432 0.04338
 C2906 C 0.49370 0.56882 0.03664
 H2907 H 0.50548 0.64983 0.04284
 H2908 H 0.47985 0.62704 0.09251
 H2909 H 0.48124 0.65795 0.10756
 H2910 H 0.50727 0.68081 0.05789
 C2911 C 0.00312 0.15101 0.55605
 C2912 C -0.00652 0.13627 0.56475
 C2913 C -0.01535 0.13927 0.58200
 C2914 C -0.01431 0.15683 0.59068
 C2915 C -0.00439 0.17166 0.58225
 C2916 C 0.00415 0.16863 0.56472
 C2917 C -0.00690 0.11788 0.55636
 C2918 C -0.00704 0.10233 0.54969
 C2919 C -0.00688 0.08402 0.54211
 C2920 C -0.00638 0.06838 0.53566
 H2921 H 0.01006 0.14881 0.54272
 H2922 H -0.02288 0.12799 0.58883
 H2923 H -0.02131 0.15881 0.60401
 H2924 H 0.01201 0.17973 0.55796
 C2925 C 0.52236 0.15637 0.43361
 C2926 C 0.50625 0.14517 0.43462
 C2927 C 0.48924 0.15188 0.42762
 C2928 C 0.48840 0.16959 0.41934
 C2929 C 0.50462 0.18080 0.41792
 C2930 C 0.52156 0.17406 0.42534
 C2931 C 0.50729 0.12664 0.44247
 C2932 C 0.50812 0.11108 0.44891
 C2933 C 0.50886 0.09282 0.45641
 C2934 C 0.50908 0.07725 0.46289
 H2935 H 0.53558 0.15135 0.43906
 H2936 H 0.47668 0.14330 0.42831
 H2937 H 0.47521 0.17429 0.41358
 H2938 H 0.53422 0.18246 0.42469
 C2939 C -0.00852 0.65327 0.93407
 C2940 C 0.00874 0.64458 0.93686
 C2941 C 0.02520 0.65367 0.93137
 C2942 C 0.02443 0.67123 0.92283
 C2943 C 0.00706 0.68017 0.91946
 C2944 C -0.00940 0.67087 0.92556
 C2945 C 0.00957 0.62615 0.94498
 C2946 C 0.01020 0.61065 0.95160
 C2947 C 0.01067 0.59243 0.95925
 C2948 C 0.01069 0.57687 0.96578
 H2949 H -0.02139 0.64630 0.93820
 H2950 H 0.03869 0.64716 0.93366
 H2951 H 0.03764 0.67786 0.91941
 H2952 H -0.02316 0.67656 0.92300
 C2953 C 0.24389 0.67107 0.89412
 C2954 C 0.25152 0.68899 0.89177
 C2955 C 0.26105 0.69768 0.90664
 C2956 C 0.26304 0.68840 0.92378
 C2957 C 0.25560 0.67027 0.92617
 C2958 C 0.24588 0.66178 0.91118
 C2959 C 0.24998 0.69809 0.87387
 C2960 C 0.24880 0.70518 0.85862
 C2961 C 0.24770 0.71299 0.84051
 C2962 C 0.24716 0.71934 0.82489
 H2963 H 0.23646 0.66423 0.88272
 H2964 H 0.26708 0.71154 0.90494
 H2965 H 0.27069 0.69524 0.93501
 H2966 H 0.23968 0.64799 0.91268
 C2967 C 0.74232 0.19383 0.40590
 C2968 C 0.75434 0.18903 0.39113
 C2969 C 0.76842 0.17578 0.39398
 C2970 C 0.77026 0.16705 0.41137
 C2971 C 0.75801 0.17145 0.42619
 C2972 C 0.74416 0.18512 0.42334
 C2973 C 0.75199 0.19727 0.37290
 C2974 C 0.75027 0.20382 0.35745
 C2975 C 0.74867 0.21121 0.33919
 C2976 C 0.74779 0.21739 0.32351
 H2977 H 0.73135 0.20405 0.40384
 H2978 H 0.77785 0.17201 0.38268
 H2979 H 0.78121 0.15676 0.41320
 H2980 H 0.73437 0.18864 0.43439
 C2981 C 0.26273 0.30440 0.40933
 C2982 C 0.25743 0.31408 0.39316
 C2983 C 0.25042 0.33229 0.39468
 C2984 C 0.24856 0.34076 0.41227
 C2985 C 0.25367 0.33112 0.42865
 C2986 C 0.26090 0.31287 0.42698
 C2987 C 0.25871 0.30530 0.37498
 C2988 C 0.25930 0.29820 0.35962
 C2989 C 0.25941 0.29009 0.34153
 C2990 C 0.25896 0.28324 0.32604
 H2991 H 0.26811 0.29026 0.40832
 H2992 H 0.24630 0.33994 0.38226
 H2993 H 0.24327 0.35494 0.41304
 H2994 H 0.26482 0.30504 0.43932
 C2995 C 0.76400 0.80697 0.90517
 C2996 C 0.75204 0.81176 0.89042
 C2997 C 0.73783 0.82488 0.89337
 C2998 C 0.73578 0.83346 0.91089
 C2999 C 0.74795 0.82903 0.92572
 C3000 C 0.76196 0.81552 0.92274
 C3001 C 0.75440 0.80352 0.87212
 C3002 C 0.75598 0.79692 0.85662
 C3003 C 0.75725 0.78939 0.83834
 C3004 C 0.75771 0.78298 0.82269
 H3005 H 0.77505 0.79682 0.90303
 H3006 H 0.72843 0.82862 0.88208
 H3007 H 0.72471 0.84360 0.91282
 H3008 H 0.77166 0.81198 0.93383
 C3009 C 0.76121 0.81935 0.10163
 C3010 C 0.74438 0.81196 0.10856
 C3011 C 0.72812 0.81281 0.09767
 C3012 C 0.72857 0.82133 0.08007
 C3013 C 0.74533 0.82914 0.07312
 C3014 C 0.76171 0.82786 0.08400
 C3015 C 0.74369 0.80390 0.12702
 C3016 C 0.74314 0.79730 0.14255
 C3017 C 0.74274 0.78964 0.16076
 C3018 C 0.74280 0.78306 0.17629
 H3019 H 0.77389 0.81878 0.10996
 H3020 H 0.71503 0.80708 0.10286
 H3021 H 0.71579 0.82186 0.07192
 H3022 H 0.77477 0.83393 0.07914
 C3023 C 0.25139 0.30414 0.59788
 C3024 C 0.23868 0.31047 0.61144
 C3025 C 0.22709 0.32570 0.60751
 C3026 C 0.22839 0.33478 0.59025
 C3027 C 0.24137 0.32878 0.57665
 C3028 C 0.25271 0.31321 0.58056
 C3029 C 0.23803 0.30186 0.62965
 C3030 C 0.23773 0.29499 0.64506
 C3031 C 0.23777 0.28722 0.66323
 C3032 C 0.23825 0.28071 0.67879
 H3033 H 0.26050 0.29241 0.60080
 H3034 H 0.21718 0.33069 0.61788
 H3035 H 0.21926 0.34654 0.58754
 H3036 H 0.26295 0.30837 0.57045
 C3037 C 0.75876 0.16727 0.60791
 C3038 C 0.75387 0.18618 0.60926
 C3039 C 0.74883 0.19602 0.59309
 C3040 C 0.74886 0.18700 0.57561
 C3041 C 0.75399 0.16803 0.57411
 C3042 C 0.75881 0.15825 0.59050
 C3043 C 0.75403 0.19535 0.62729
 C3044 C 0.75419 0.20265 0.64257
 C3045 C 0.75423 0.21088 0.66061
 C3046 C 0.75395 0.21770 0.67610
 H3047 H 0.76256 0.15948 0.62034
 H3048 H 0.74500 0.21067 0.59397
 H3049 H 0.74523 0.19494 0.56324
 H3050 H 0.76251 0.14356 0.58987
 C3051 C 0.25959 0.66628 0.10798
 C3052 C 0.25451 0.68514 0.10938
 C3053 C 0.24930 0.69496 0.09326
 C3054 C 0.24933 0.68597 0.07576
 C3055 C 0.25465 0.66706 0.07421
 C3056 C 0.25966 0.65730 0.09055
 C3057 C 0.25467 0.69427 0.12741
 C3058 C 0.25484 0.70157 0.14269
 C3059 C 0.25489 0.70981 0.16072
 C3060 C 0.25463 0.71667 0.17619
 H3061 H 0.26354 0.65852 0.12037
 H3062 H 0.24532 0.70956 0.09419
 H3063 H 0.24556 0.69389 0.06343
 H3064 H 0.26350 0.64265 0.08987
 C3065 C 0.19900 0.59302 0.74273
 C3066 C 0.19054 0.60792 0.75232
 C3067 C 0.17277 0.60551 0.76024
 C3068 C 0.16337 0.58839 0.75842
 C3069 C 0.17160 0.57339 0.74859
 C3070 C 0.18961 0.57582 0.74092
 C3071 C 0.19965 0.62592 0.75356
 C3072 C 0.20674 0.64127 0.75446
 C3073 C 0.21452 0.65949 0.75523
 C3074 C 0.22082 0.67520 0.75550
 H3075 H 0.21273 0.59476 0.73648
 H3076 H 0.16609 0.61693 0.76772
 H3077 H 0.14967 0.58686 0.76479
 H3078 H 0.19625 0.56458 0.73317
 C3079 C 0.69826 0.09086 0.25521
 C3080 C 0.69109 0.10680 0.24652
 C3081 C 0.67496 0.10534 0.23554
 C3082 C 0.66572 0.08816 0.23359
 C3083 C 0.67237 0.07189 0.24268
 C3084 C 0.68909 0.07357 0.25327
 C3085 C 0.69995 0.12480 0.24903
 C3086 C 0.70687 0.14015 0.25085
 C3087 C 0.71452 0.15836 0.25250
 C3088 C 0.72078 0.17406 0.25335
 H3089 H 0.71075 0.09185 0.26379
 H3090 H 0.66943 0.11756 0.22852
 H3091 H 0.65360 0.08774 0.22450
 H3092 H 0.69471 0.06189 0.26100
 C3093 C 0.80139 0.09550 0.75320
 C3094 C 0.81017 0.11032 0.74377
 C3095 C 0.82794 0.10777 0.73593
 C3096 C 0.83705 0.09061 0.73774
 C3097 C 0.82852 0.07572 0.74748
 C3098 C 0.81049 0.07826 0.75501
 C3099 C 0.80138 0.12840 0.74273
 C3100 C 0.79445 0.14375 0.74213
 C3101 C 0.78665 0.16188 0.74186
 C3102 C 0.78012 0.17742 0.74214
 H3103 H 0.78766 0.09736 0.75939
 H3104 H 0.83486 0.11913 0.72859
 H3105 H 0.85078 0.08898 0.73150
 H3106 H 0.80364 0.06710 0.76268
 C3107 C 0.30183 0.59459 0.25333
 C3108 C 0.31015 0.60920 0.24319
 C3109 C 0.32744 0.60641 0.23441
 C3110 C 0.33655 0.58922 0.23600
 C3111 C 0.32850 0.57455 0.24645
 C3112 C 0.31092 0.57733 0.25492
 C3113 C 0.30143 0.62731 0.24238
 C3114 C 0.29456 0.64270 0.24195
 C3115 C 0.28684 0.66086 0.24185
 C3116 C 0.28039 0.67643 0.24223
 H3117 H 0.28847 0.59664 0.26025
 H3118 H 0.33400 0.61760 0.22651
 H3119 H 0.34992 0.58740 0.22905
 H3120 H 0.30446 0.56635 0.26316
 C3121 C 0.30476 0.40631 0.24889
 C3122 C 0.31475 0.39081 0.25545
 C3123 C 0.33343 0.39296 0.26097
 C3124 C 0.34209 0.41053 0.26012
 C3125 C 0.33216 0.42626 0.25374
 C3126 C 0.31342 0.42394 0.24801
 C3127 C 0.30598 0.37263 0.25645
 C3128 C 0.29896 0.35724 0.25725
 C3129 C 0.29102 0.33910 0.25796
 C3130 C 0.28434 0.32355 0.25816
 H3131 H 0.29028 0.40479 0.24455
 H3132 H 0.34133 0.38104 0.26594
 H3133 H 0.35662 0.41178 0.26431
 H3134 H 0.30537 0.43581 0.24318
 C3135 C 0.80537 0.90725 0.74685
 C3136 C 0.81525 0.89172 0.75350
 C3137 C 0.83381 0.89389 0.75943
 C3138 C 0.84243 0.91149 0.75890
 C3139 C 0.83259 0.92724 0.75245
 C3140 C 0.81399 0.92492 0.74629
 C3141 C 0.80650 0.87351 0.75422
 C3142 C 0.79952 0.85810 0.75482
 C3143 C 0.79162 0.83993 0.75530
 C3144 C 0.78501 0.82435 0.75530
 H3145 H 0.79099 0.90572 0.74219
 H3146 H 0.84164 0.88195 0.76448
 H3147 H 0.85687 0.91274 0.76343
 H3148 H 0.80602 0.93680 0.74139
 C3149 C 0.69567 0.90592 0.25045
 C3150 C 0.68567 0.88971 0.24544
 C3151 C 0.66660 0.89091 0.24112
 C3152 C 0.65759 0.90823 0.24157
 C3153 C 0.66754 0.92466 0.24631
 C3154 C 0.68665 0.92331 0.25092
 C3155 C 0.69484 0.87179 0.24468
 C3156 C 0.70212 0.85659 0.24403
 C3157 C 0.71030 0.83862 0.24347
 C3158 C 0.71707 0.82318 0.24338
 H3159 H 0.71044 0.90515 0.25384
 H3160 H 0.65870 0.87845 0.23735
 H3161 H 0.64279 0.90875 0.23826
 H3162 H 0.69471 0.93572 0.25447
 C3163 C 0.19331 0.40523 0.75300
 C3164 C 0.18306 0.38936 0.74743
 C3165 C 0.16428 0.39117 0.74221
 C3166 C 0.15580 0.40876 0.74233
 C3167 C 0.16600 0.42486 0.74766
 C3168 C 0.18483 0.42289 0.75315
 C3169 C 0.19169 0.37117 0.74703
 C3170 C 0.19861 0.35579 0.74665
 C3171 C 0.20648 0.33768 0.74636
 C3172 C 0.21313 0.32218 0.74643
 H3173 H 0.20786 0.40398 0.75709
 H3174 H 0.15618 0.37897 0.73799
 H3175 H 0.14119 0.40975 0.73834
 H3176 H 0.19308 0.43503 0.75717
 C3177 C 0.09576 0.73610 0.80870
 C3178 C 0.10961 0.74982 0.81130
 C3179 C 0.10586 0.76554 0.82247
 C3180 C 0.08846 0.76739 0.83127
 C3181 C 0.07455 0.75351 0.82903
 C3182 C 0.07832 0.73793 0.81748
 C3183 C 0.12783 0.74769 0.80289
 C3184 C 0.14325 0.74621 0.79614
 C3185 C 0.16145 0.74497 0.78849
 C3186 C 0.17709 0.74447 0.78210
 H3187 H 0.09852 0.72386 0.80011
 H3188 H 0.11645 0.77628 0.82452
 H3189 H 0.08590 0.77965 0.83987
 H3190 H 0.06800 0.72690 0.81567
 C3191 C 0.59476 0.23813 0.30535
 C3192 C 0.60976 0.25005 0.30982
 C3193 C 0.60731 0.26439 0.32303
 C3194 C 0.59006 0.26660 0.33201
 C3195 C 0.57499 0.25447 0.32791
 C3196 C 0.57746 0.24033 0.31431
 C3197 C 0.62784 0.24743 0.30127
 C3198 C 0.64320 0.24560 0.29449
 C3199 C 0.66139 0.24403 0.28690
 C3200 C 0.67706 0.24334 0.28061
 H3201 H 0.59652 0.22697 0.29517
 H3202 H 0.61880 0.27375 0.32654
 H3203 H 0.58852 0.27776 0.34223
 H3204 H 0.56620 0.23064 0.31103
 C3205 C 0.60644 0.76094 0.16767
 C3206 C 0.60874 0.75475 0.18609
 C3207 C 0.59344 0.74718 0.19582
 C3208 C 0.57593 0.74566 0.18708
 C3209 C 0.57356 0.75162 0.16845
 C3210 C 0.58899 0.75942 0.15891
 C3211 C 0.62696 0.75567 0.19473
 C3212 C 0.64237 0.75619 0.20166
 C3213 C 0.66051 0.75642 0.20955
 C3214 C 0.67604 0.75619 0.21620
 H3215 H 0.61817 0.76685 0.16002
 H3216 H 0.59509 0.74227 0.21007
 H3217 H 0.56437 0.73946 0.19473
 H3218 H 0.58754 0.76443 0.14468
 C3219 C 0.10502 0.25615 0.66986
 C3220 C 0.10618 0.25281 0.68908
 C3221 C 0.09006 0.24783 0.69905
 C3222 C 0.07283 0.24609 0.68982
 C3223 C 0.07137 0.24917 0.67028
 C3224 C 0.08789 0.25439 0.66056
 C3225 C 0.12408 0.25405 0.69831
 C3226 C 0.13931 0.25483 0.70558
 C3227 C 0.15736 0.25532 0.71366
 C3228 C 0.17287 0.25524 0.72034
 H3229 H 0.11740 0.26017 0.66202
 H3230 H 0.09085 0.24505 0.71395
 H3231 H 0.06094 0.24151 0.69804
 H3232 H 0.08773 0.25787 0.64583
 C3233 C 0.89638 0.26262 0.68135
 C3234 C 0.88921 0.24580 0.68851
 C3235 C 0.89986 0.22943 0.68728
 C3236 C 0.91742 0.22977 0.67862
 C3237 C 0.92459 0.24651 0.67102
 C3238 C 0.91398 0.26300 0.67269
 C3239 C 0.87073 0.24518 0.69662
 C3240 C 0.85518 0.24464 0.70323
 C3241 C 0.83692 0.24420 0.71085
 C3242 C 0.82131 0.24419 0.71734
 H3243 H 0.88824 0.27537 0.68219
 H3244 H 0.89449 0.21635 0.69283
 H3245 H 0.92537 0.21691 0.67779
 H3246 H 0.91902 0.27604 0.66680
 C3247 C 0.39991 0.76111 0.18850
 C3248 C 0.39012 0.74406 0.18874
 C3249 C 0.39822 0.72806 0.18081
 C3250 C 0.41594 0.72914 0.17249
 C3251 C 0.42581 0.74627 0.17197
 C3252 C 0.41763 0.76223 0.18018
 C3253 C 0.37160 0.74309 0.19673
 C3254 C 0.35602 0.74251 0.20328
 C3255 C 0.33774 0.74221 0.21087
 C3256 C 0.32213 0.74243 0.21737
 H3257 H 0.39379 0.77358 0.19463
 H3258 H 0.39074 0.71481 0.18084
 H3259 H 0.42170 0.71667 0.16605
 H3260 H 0.42495 0.77556 0.18020
 C3261 C 0.40334 0.27245 0.31481
 C3262 C 0.39258 0.25605 0.31365
 C3263 C 0.39971 0.23923 0.32066
 C3264 C 0.41741 0.23887 0.32909
 C3265 C 0.42817 0.25538 0.33066
 C3266 C 0.42102 0.27214 0.32324
 C3267 C 0.37406 0.25658 0.30569
 C3268 C 0.35847 0.25700 0.29919
 C3269 C 0.34018 0.25724 0.29166
 C3270 C 0.32457 0.25705 0.28522
 H3271 H 0.39800 0.28553 0.30937
 H3272 H 0.39148 0.22645 0.31987
 H3273 H 0.42243 0.22582 0.33486
 H3274 H 0.42907 0.28502 0.32400
 C3275 C 0.90024 0.77263 0.82127
 C3276 C 0.89235 0.75671 0.81284
 C3277 C 0.90224 0.73981 0.81278
 C3278 C 0.91988 0.73878 0.82126
 C3279 C 0.92788 0.75468 0.82990
 C3280 C 0.91787 0.77164 0.82974
 C3281 C 0.87398 0.75761 0.80453
 C3282 C 0.85854 0.75816 0.79768
 C3283 C 0.84043 0.75841 0.78970
 C3284 C 0.82498 0.75814 0.78287
 H3285 H 0.89268 0.78576 0.82147
 H3286 H 0.89627 0.72740 0.80627
 H3287 H 0.92730 0.72559 0.82096
 H3288 H 0.92350 0.78406 0.83651
   
