data_POSCAR
  _audit_creation_date              2014-09-24
  _audit_creation_method            'ToBaCCo'
  _symmetry_space_group_name_H-M    'P1'
  _symmetry_Int_Tables_number       1
  _symmetry_cell_setting            triclinic
  loop_
  _symmetry_equiv_pos_as_xyz
 x,y,z
_cell_length_a 77.2269
_cell_length_b 77.1366
_cell_length_c 76.8935
_cell_angle_alpha 90.040200
_cell_angle_beta 89.915600
_cell_angle_gamma 90.045700
loop_
  _atom_site_label
  _atom_site_type_symbol
  _atom_site_fract_x
  _atom_site_fract_y
  _atom_site_fract_z
C1 C 0.31394 0.31265 -0.01098
 C2 C 0.31415 0.31249 0.00676
 C3 C 0.30364 0.32487 0.01715
 C4 C 0.32525 0.30024 0.01663
 C5 C 0.32643 0.30227 -0.02137
 C6 C 0.30155 0.32358 -0.02086
 C7 C 0.30504 0.34284 0.01443
 C8 C 0.29507 0.35437 0.02425
 C9 C 0.28375 0.34809 0.03701
 C10 C 0.28251 0.33023 0.03999
 C11 C 0.29245 0.31867 0.03016
 C12 C 0.33676 0.30662 0.02923
 C13 C 0.34764 0.29531 0.03824
 C14 C 0.34704 0.27749 0.03486
 C15 C 0.33534 0.27098 0.02258
 C16 C 0.32443 0.28229 0.01356
 C17 C 0.32036 0.29093 -0.03428
 C18 C 0.33200 0.28111 -0.04414
 C19 C 0.34986 0.28266 -0.04128
 C20 C 0.35600 0.29416 -0.02858
 C21 C 0.34436 0.30397 -0.01873
 C22 C 0.28364 0.32259 -0.01768
 C23 C 0.27219 0.33334 -0.02671
 C24 C 0.27850 0.34504 -0.03912
 C25 C 0.29628 0.34578 -0.04262
 C26 C 0.30774 0.33508 -0.03359
 H27 H 0.31386 0.34790 0.00472
 H28 H 0.29620 0.36818 0.02191
 H29 H 0.27384 0.32523 0.04989
 H30 H 0.29130 0.30488 0.03254
 H31 H 0.33754 0.32040 0.03184
 H32 H 0.35663 0.30048 0.04773
 H33 H 0.31542 0.27708 0.00412
 H34 H 0.30659 0.28956 -0.03659
 H35 H 0.32702 0.27232 -0.05394
 H36 H 0.36978 0.29560 -0.02626
 H37 H 0.34931 0.31292 -0.00908
 H38 H 0.27857 0.31359 -0.00815
 H39 H 0.25844 0.33261 -0.02395
 H40 H 0.30130 0.35477 -0.05222
 H41 H 0.32148 0.33598 -0.03629
 H42 H 0.33472 0.25720 0.01991
 C43 C 0.68696 0.68748 -0.00828
 C44 C 0.68659 0.68736 0.00945
 C45 C 0.69713 0.67492 0.01969
 C46 C 0.67537 0.69944 0.01948
 C47 C 0.67460 0.69802 -0.01859
 C48 C 0.69949 0.67673 -0.01825
 C49 C 0.69585 0.65698 0.01673
 C50 C 0.70594 0.64540 0.02633
 C51 C 0.71727 0.65162 0.03910
 C52 C 0.71837 0.66945 0.04232
 C53 C 0.70830 0.68105 0.03271
 C54 C 0.66388 0.69285 0.03202
 C55 C 0.65301 0.70401 0.04128
 C56 C 0.65359 0.72189 0.03822
 C57 C 0.66525 0.72860 0.02599
 C58 C 0.67616 0.71744 0.01672
 C59 C 0.68083 0.70955 -0.03127
 C60 C 0.66931 0.71945 -0.04112
 C61 C 0.65144 0.71783 -0.03850
 C62 C 0.64512 0.70621 -0.02602
 C63 C 0.65663 0.69629 -0.01617
 C64 C 0.71738 0.67782 -0.01503
 C65 C 0.72897 0.66730 -0.02421
 C66 C 0.72281 0.65572 -0.03681
 C67 C 0.70505 0.65486 -0.04034
 C68 C 0.69346 0.66535 -0.03116
 H69 H 0.68704 0.65197 0.00699
 H70 H 0.70491 0.63162 0.02380
 H71 H 0.72705 0.67439 0.05221
 H72 H 0.70938 0.69482 0.03526
 H73 H 0.66313 0.67903 0.03441
 H74 H 0.64406 0.69869 0.05074
 H75 H 0.68516 0.72282 0.00735
 H76 H 0.69463 0.71098 -0.03341
 H77 H 0.67433 0.72837 -0.05078
 H78 H 0.63131 0.70478 -0.02395
 H79 H 0.65155 0.68721 -0.00671
 H80 H 0.72233 0.68675 -0.00536
 H81 H 0.74269 0.66813 -0.02144
 H82 H 0.70015 0.64598 -0.05009
 H83 H 0.67974 0.66438 -0.03391
 H84 H 0.66587 0.74242 0.02358
 C85 C 0.68813 0.31381 1.01031
 C86 C 0.68826 0.31422 0.99258
 C87 C 0.70038 0.32554 0.98271
 C88 C 0.67592 0.30373 0.98214
 C89 C 0.67707 0.30138 1.02010
 C90 C 0.69854 0.32616 1.02082
 C91 C 0.69387 0.33688 0.97002
 C92 C 0.70503 0.34784 0.96086
 C93 C 0.72283 0.34753 0.96420
 C94 C 0.72948 0.33604 0.97659
 C95 C 0.71833 0.32502 0.98574
 C96 C 0.65797 0.30516 0.98481
 C97 C 0.64648 0.29520 0.97495
 C98 C 0.65280 0.28386 0.96222
 C99 C 0.67065 0.28260 0.95930
 C100 C 0.68216 0.29254 0.96916
 C101 C 0.67789 0.28347 1.01682
 C102 C 0.66696 0.27203 1.02571
 C103 C 0.65526 0.27836 1.03810
 C104 C 0.65469 0.29614 1.04173
 C105 C 0.66557 0.30758 1.03284
 C106 C 0.70979 0.31990 1.03369
 C107 C 0.71960 0.33141 1.04369
 C108 C 0.71814 0.34932 1.04102
 C109 C 0.70674 0.35566 1.02838
 C110 C 0.69692 0.34415 1.01839
 H111 H 0.68010 0.33742 0.96740
 H112 H 0.69975 0.35664 0.95127
 H113 H 0.74325 0.33564 0.97922
 H114 H 0.72366 0.31614 0.99523
 H115 H 0.65288 0.31400 0.99450
 H116 H 0.63268 0.29635 0.97724
 H117 H 0.69594 0.29138 0.96682
 H118 H 0.68689 0.27839 1.00728
 H119 H 0.66756 0.25829 1.02285
 H120 H 0.64571 0.30118 1.05132
 H121 H 0.66480 0.32132 1.03563
 H122 H 0.71109 0.30609 1.03585
 H123 H 0.72832 0.32633 1.05346
 H124 H 0.70540 0.36948 1.02624
 H125 H 0.68803 0.34925 1.00879
 H126 H 0.67567 0.27391 0.94943
 C127 C 0.31269 0.68659 1.00985
 C128 C 0.31254 0.68644 0.99211
 C129 C 0.30027 0.67539 0.98215
 C130 C 0.32499 0.69696 0.98180
 C131 C 0.32377 0.69884 1.01982
 C132 C 0.30221 0.67413 1.02017
 C133 C 0.30661 0.66397 0.96941
 C134 C 0.29528 0.65323 0.96022
 C135 C 0.27747 0.65384 0.96356
 C136 C 0.27100 0.66543 0.97601
 C137 C 0.28233 0.67621 0.98520
 C138 C 0.34292 0.69544 0.98450
 C139 C 0.35451 0.70545 0.97479
 C140 C 0.34831 0.71693 0.96216
 C141 C 0.33048 0.71828 0.95919
 C142 C 0.31887 0.70829 0.96892
 C143 C 0.32294 0.71681 1.01687
 C144 C 0.33376 0.72812 1.02604
 C145 C 0.34539 0.72159 1.03839
 C146 C 0.34600 0.70374 1.04163
 C147 C 0.33521 0.69244 1.03245
 C148 C 0.29091 0.68026 1.03311
 C149 C 0.28107 0.66864 1.04296
 C150 C 0.28253 0.65077 1.04008
 C151 C 0.29396 0.64456 1.02735
 C152 C 0.30380 0.65618 1.01750
 H153 H 0.32038 0.66318 0.96680
 H154 H 0.30043 0.64434 0.95060
 H155 H 0.25723 0.66607 0.97865
 H156 H 0.27714 0.68515 0.99474
 H157 H 0.34792 0.68650 0.99412
 H158 H 0.36829 0.70423 0.97711
 H159 H 0.30511 0.70953 0.96655
 H160 H 0.31398 0.72203 1.00740
 H161 H 0.33309 0.74191 1.02343
 H162 H 0.35491 0.69850 1.05115
 H163 H 0.33600 0.67865 1.03497
 H164 H 0.28961 0.69405 1.03545
 H165 H 0.27232 0.67362 1.05281
 H166 H 0.29530 0.63076 1.02505
 H167 H 0.31272 0.65119 1.00784
 H168 H 0.32555 0.72707 0.94940
 C169 C -0.00915 0.31233 0.31221
 C170 C 0.00850 0.31202 0.31252
 C171 C 0.01817 0.30117 0.32517
 C172 C 0.01901 0.32278 0.30045
 C173 C -0.01885 0.32496 0.30137
 C174 C -0.01966 0.30030 0.32302
 C175 C 0.01509 0.30266 0.34313
 C176 C 0.02428 0.29240 0.35491
 C177 C 0.03676 0.28069 0.34888
 C178 C 0.04008 0.27933 0.33102
 C179 C 0.03087 0.28956 0.31923
 C180 C 0.03172 0.33397 0.30713
 C181 C 0.04145 0.34443 0.29596
 C182 C 0.03866 0.34373 0.27799
 C183 C 0.02623 0.33238 0.27120
 C184 C 0.01650 0.32188 0.28236
 C185 C -0.03159 0.31906 0.28977
 C186 C -0.04086 0.33084 0.27958
 C187 C -0.03757 0.34865 0.28098
 C188 C -0.02503 0.35463 0.29270
 C189 C -0.01578 0.34286 0.30290
 C190 C -0.01720 0.28227 0.32206
 C191 C -0.02686 0.27115 0.33267
 C192 C -0.03919 0.27794 0.34419
 C193 C -0.04194 0.29587 0.34491
 C194 C -0.03228 0.30698 0.33434
 H195 H 0.00560 0.31179 0.34801
 H196 H 0.02168 0.29362 0.36871
 H197 H 0.04975 0.27035 0.32622
 H198 H 0.03351 0.28830 0.30545
 H199 H 0.03390 0.33481 0.32102
 H200 H 0.05105 0.35316 0.30134
 H201 H 0.00697 0.31311 0.27693
 H202 H -0.03424 0.30533 0.28852
 H203 H -0.05057 0.32602 0.27063
 H204 H -0.02243 0.36838 0.29401
 H205 H -0.00627 0.34770 0.31204
 H206 H -0.00774 0.27685 0.31319
 H207 H -0.02464 0.25730 0.33192
 H208 H -0.05146 0.30131 0.35374
 H209 H -0.03441 0.32084 0.33521
 H210 H 0.02401 0.33169 0.25731
 C211 C -0.00846 0.68757 0.68746
 C212 C 0.00920 0.68775 0.68748
 C213 C 0.01925 0.69998 0.67645
 C214 C 0.01934 0.67543 0.69825
 C215 C -0.01849 0.67651 0.69970
 C216 C -0.01863 0.69806 0.67492
 C217 C 0.03202 0.69357 0.66513
 C218 C 0.04130 0.70487 0.65440
 C219 C 0.03802 0.72270 0.65496
 C220 C 0.02554 0.72924 0.66645
 C221 C 0.01625 0.71794 0.67722
 C222 C 0.01675 0.65745 0.69678
 C223 C 0.02620 0.64599 0.70715
 C224 C 0.03846 0.65238 0.71893
 C225 C 0.04134 0.67025 0.72020
 C226 C 0.03188 0.68173 0.70986
 C227 C -0.01580 0.67754 0.71775
 C228 C -0.02499 0.66671 0.72906
 C229 C -0.03707 0.65486 0.72245
 C230 C -0.04005 0.65404 0.70450
 C231 C -0.03086 0.66485 0.69320
 C232 C -0.03154 0.70935 0.68101
 C233 C -0.04118 0.71929 0.66932
 C234 C -0.03809 0.71795 0.65141
 C235 C -0.02539 0.70652 0.64524
 C236 C -0.01577 0.69656 0.65692
 H237 H 0.03459 0.67979 0.66441
 H238 H 0.05095 0.69968 0.64559
 H239 H 0.02296 0.74303 0.66705
 H240 H 0.00669 0.72318 0.68609
 H241 H 0.00739 0.65232 0.68765
 H242 H 0.02395 0.63218 0.70599
 H243 H 0.03415 0.69554 0.71106
 H244 H -0.00653 0.68666 0.72304
 H245 H -0.02261 0.66755 0.74292
 H246 H -0.04937 0.64495 0.69919
 H247 H -0.03317 0.66391 0.67934
 H248 H -0.03401 0.71058 0.69482
 H249 H -0.05101 0.72802 0.67428
 H250 H -0.02293 0.70527 0.63141
 H251 H -0.00612 0.68766 0.65195
 H252 H 0.05084 0.67532 0.72923
 C253 C 1.01122 0.68703 0.31283
 C254 C 0.99357 0.68730 0.31271
 C255 C 0.98351 0.69822 0.32503
 C256 C 0.98338 0.67632 0.30057
 C257 C 1.02120 0.67429 0.30235
 C258 C 1.02141 0.69916 0.32381
 C259 C 0.98607 0.69687 0.34308
 C260 C 0.97636 0.70703 0.35455
 C261 C 0.96389 0.71852 0.34812
 C262 C 0.96114 0.71979 0.33017
 C263 C 0.97086 0.70964 0.31869
 C264 C 0.97053 0.66521 0.30716
 C265 C 0.96109 0.65455 0.29596
 C266 C 0.96430 0.65495 0.27804
 C267 C 0.97686 0.66621 0.27133
 C268 C 0.98631 0.67693 0.28253
 C269 C 1.03420 0.68007 0.29096
 C270 C 1.04365 0.66821 0.28101
 C271 C 1.04030 0.65041 0.28246
 C272 C 1.02754 0.64453 0.29401
 C273 C 1.01810 0.65640 0.30397
 C274 C 1.01882 0.71717 0.32281
 C275 C 1.02812 0.72838 0.33364
 C276 C 1.04022 0.72171 0.34542
 C277 C 1.04315 0.70381 0.34616
 C278 C 1.03384 0.69260 0.33538
 H279 H 0.99551 0.68787 0.34825
 H280 H 0.97851 0.70588 0.36842
 H281 H 0.95148 0.72858 0.32507
 H282 H 0.96861 0.71077 0.30484
 H283 H 0.96804 0.66460 0.32101
 H284 H 0.95139 0.64588 0.30128
 H285 H 0.99594 0.68562 0.27716
 H286 H 1.03688 0.69380 0.28964
 H287 H 1.05353 0.67294 0.27218
 H288 H 1.02488 0.63080 0.29536
 H289 H 1.00839 0.65165 0.31296
 H290 H 1.00953 0.72251 0.31375
 H291 H 1.02578 0.74221 0.33287
 H292 H 1.05251 0.69846 0.35518
 H293 H 1.03609 0.67877 0.33628
 H294 H 0.97940 0.66666 0.25748
 C295 C 1.00708 0.31234 0.68762
 C296 C 0.98942 0.31235 0.68749
 C297 C 0.97941 0.30170 0.67490
 C298 C 0.97925 0.32339 0.69961
 C299 C 1.01711 0.32476 0.69844
 C300 C 1.01727 0.30019 0.67663
 C301 C 0.98233 0.30317 0.65691
 C302 C 0.97287 0.29305 0.64521
 C303 C 0.96029 0.28148 0.65134
 C304 C 0.95713 0.28015 0.66922
 C305 C 0.96660 0.29025 0.68095
 C306 C 0.96688 0.33495 0.69297
 C307 C 0.95766 0.34584 0.70415
 C308 C 0.96059 0.34520 0.72210
 C309 C 0.97261 0.33342 0.72886
 C310 C 0.98185 0.32250 0.71768
 C311 C 1.02974 0.31858 0.71000
 C312 C 1.03928 0.33016 0.72020
 C313 C 1.03638 0.34802 0.71885
 C314 C 1.02396 0.35428 0.70718
 C315 C 1.01444 0.34272 0.69695
 C316 C 1.01443 0.28221 0.67740
 C317 C 1.02382 0.27099 0.66666
 C318 C 1.03627 0.27763 0.65517
 C319 C 1.03939 0.29551 0.65461
 C320 C 1.02999 0.30672 0.66532
 H321 H 0.99191 0.31218 0.65197
 H322 H 0.97536 0.29425 0.63139
 H323 H 0.94738 0.27128 0.67410
 H324 H 0.96408 0.28902 0.69475
 H325 H 0.96464 0.33577 0.67909
 H326 H 0.94837 0.35489 0.69879
 H327 H 0.99112 0.31346 0.72308
 H328 H 1.03208 0.30480 0.71123
 H329 H 1.04889 0.32518 0.72914
 H330 H 1.02168 0.36808 0.70596
 H331 H 1.00501 0.34776 0.68786
 H332 H 1.00490 0.27689 0.68626
 H333 H 1.02132 0.25718 0.66728
 H334 H 1.04900 0.30083 0.64581
 H335 H 1.03242 0.32053 0.66458
 H336 H 0.97493 0.33277 0.74274
 C337 C 0.31170 -0.00739 0.31159
 C338 C 0.31152 0.01029 0.31167
 C339 C 0.32229 0.02055 0.29938
 C340 C 0.30088 0.02024 0.32433
 C341 C 0.29971 -0.01768 0.32266
 C342 C 0.32418 -0.01732 0.30073
 C343 C 0.33371 0.03318 0.30582
 C344 C 0.34436 0.04249 0.29446
 C345 C 0.34362 0.03935 0.27654
 C346 C 0.33198 0.02706 0.26999
 C347 C 0.32129 0.01776 0.28134
 C348 C 0.30252 0.01740 0.34231
 C349 C 0.29238 0.02677 0.35409
 C350 C 0.28063 0.03919 0.34804
 C351 C 0.27914 0.04228 0.33016
 C352 C 0.28926 0.03290 0.31836
 C353 C 0.28171 -0.01500 0.32200
 C354 C 0.27065 -0.02442 0.33289
 C355 C 0.27745 -0.03673 0.34437
 C356 C 0.29531 -0.03972 0.34480
 C357 C 0.30638 -0.03030 0.33397
 C358 C 0.31813 -0.03004 0.28917
 C359 C 0.32976 -0.03934 0.27880
 C360 C 0.34758 -0.03612 0.28001
 C361 C 0.35372 -0.02364 0.29174
 C362 C 0.34209 -0.01435 0.30211
 H363 H 0.33462 0.03558 0.31967
 H364 H 0.35331 0.05199 0.29966
 H365 H 0.33125 0.02458 0.25614
 H366 H 0.31235 0.00829 0.27609
 H367 H 0.31165 0.00794 0.34719
 H368 H 0.29370 0.02434 0.36789
 H369 H 0.28789 0.03535 0.30457
 H370 H 0.27628 -0.00555 0.31315
 H371 H 0.25684 -0.02205 0.33240
 H372 H 0.30070 -0.04925 0.35361
 H373 H 0.32020 -0.03261 0.33462
 H374 H 0.30439 -0.03260 0.28802
 H375 H 0.32483 -0.04899 0.26983
 H376 H 0.36747 -0.02109 0.29290
 H377 H 0.34704 -0.00484 0.31120
 H378 H 0.27012 0.05189 0.32534
 C379 C 0.68783 -0.00963 0.68802
 C380 C 0.68830 0.00804 0.68779
 C381 C 0.67753 0.01860 0.69981
 C382 C 0.69927 0.01772 0.67520
 C383 C 0.69971 -0.02022 0.67714
 C384 C 0.67508 -0.01926 0.69882
 C385 C 0.66652 0.03142 0.69307
 C386 C 0.65604 0.04119 0.70417
 C387 C 0.65654 0.03836 0.72213
 C388 C 0.66771 0.02583 0.72900
 C389 C 0.67823 0.01605 0.71790
 C390 C 0.69779 0.01478 0.65722
 C391 C 0.70808 0.02406 0.64550
 C392 C 0.71982 0.03649 0.65162
 C393 C 0.72118 0.03964 0.66950
 C394 C 0.71091 0.03035 0.68123
 C395 C 0.71775 -0.01788 0.67795
 C396 C 0.72872 -0.02769 0.66733
 C397 C 0.72177 -0.04004 0.65594
 C398 C 0.70385 -0.04266 0.65534
 C399 C 0.69288 -0.03286 0.66593
 C400 C 0.68083 -0.03202 0.71048
 C401 C 0.66896 -0.04125 0.72062
 C402 C 0.65119 -0.03791 0.71911
 C403 C 0.64536 -0.02536 0.70734
 C404 C 0.65723 -0.01614 0.69719
 H405 H 0.66585 0.03364 0.67918
 H406 H 0.64746 0.05087 0.69873
 H407 H 0.66824 0.02358 0.74289
 H408 H 0.68686 0.00644 0.72338
 H409 H 0.68862 0.00536 0.65228
 H410 H 0.70684 0.02160 0.63169
 H411 H 0.71213 0.03290 0.69503
 H412 H 0.72330 -0.00842 0.68674
 H413 H 0.74258 -0.02561 0.66794
 H414 H 0.69834 -0.05220 0.64660
 H415 H 0.67902 -0.03491 0.66517
 H416 H 0.69453 -0.03471 0.71181
 H417 H 0.67366 -0.05097 0.72962
 H418 H 0.63164 -0.02272 0.70594
 H419 H 0.65252 -0.00661 0.68800
 H420 H 0.73017 0.04927 0.67437
 C421 C 0.31319 1.00965 0.68786
 C422 C 0.31303 0.99197 0.68757
 C423 C 0.32404 0.98156 0.69946
 C424 C 0.30212 0.98217 0.67505
 C425 C 0.30093 1.02005 0.67726
 C426 C 0.32593 1.01948 0.69846
 C427 C 0.33520 0.96890 0.69260
 C428 C 0.34593 0.95932 0.70358
 C429 C 0.34555 0.96217 0.72156
 C430 C 0.33423 0.97453 0.72854
 C431 C 0.32345 0.98412 0.71756
 C432 C 0.30334 0.98529 0.65708
 C433 C 0.29294 0.97606 0.64543
 C434 C 0.28137 0.96350 0.65161
 C435 C 0.28032 0.96012 0.66946
 C436 C 0.29069 0.96936 0.68112
 C437 C 0.28295 1.01733 0.67838
 C438 C 0.27162 1.02690 0.66797
 C439 C 0.27813 1.03940 0.65648
 C440 C 0.29598 1.04243 0.65560
 C441 C 0.30732 1.03286 0.66597
 C442 C 0.32017 1.03229 0.71009
 C443 C 0.33205 1.04166 0.72007
 C444 C 0.34981 1.03842 0.71843
 C445 C 0.35567 1.02584 0.70668
 C446 C 0.34380 1.01647 0.69668
 H447 H 0.33580 0.96668 0.67870
 H448 H 0.35464 0.94978 0.69804
 H449 H 0.33379 0.97680 0.74244
 H450 H 0.31472 0.99360 0.72314
 H451 H 0.31233 0.99486 0.65210
 H452 H 0.29393 0.97871 0.63163
 H453 H 0.28967 0.96667 0.69491
 H454 H 0.27774 1.00774 0.68724
 H455 H 0.25782 1.02450 0.66880
 H456 H 0.30115 1.05209 0.64677
 H457 H 0.32111 1.03522 0.66497
 H458 H 0.30646 1.03490 0.71154
 H459 H 0.32739 1.05142 0.72907
 H460 H 0.36939 1.02331 0.70523
 H461 H 0.34854 1.00692 0.68751
 H462 H 0.27146 0.95038 0.67437
 C463 C 0.68596 1.00795 0.31300
 C464 C 0.68606 0.99027 0.31322
 C465 C 0.67519 0.97992 0.30109
 C466 C 0.69676 0.98036 0.32580
 C467 C 0.69806 1.01832 0.32385
 C468 C 0.67349 1.01781 0.30213
 C469 C 0.66383 0.96732 0.30772
 C470 C 0.65325 0.95778 0.29651
 C471 C 0.65401 0.96063 0.27855
 C472 C 0.66556 0.97292 0.27181
 C473 C 0.67617 0.98247 0.28301
 C474 C 0.69541 0.98342 0.34378
 C475 C 0.70551 0.97395 0.35548
 C476 C 0.71690 0.96121 0.34935
 C477 C 0.71811 0.95793 0.33148
 C478 C 0.70804 0.96741 0.31977
 C479 C 0.71604 1.01554 0.32311
 C480 C 0.72722 1.02519 0.33366
 C481 C 0.72055 1.03784 0.34491
 C482 C 0.70268 1.04090 0.34543
 C483 C 0.69151 1.03124 0.33492
 C484 C 0.67958 1.03042 0.29046
 C485 C 0.66797 1.03970 0.28010
 C486 C 0.65016 1.03656 0.28142
 C487 C 0.64398 1.02420 0.29322
 C488 C 0.65557 1.01492 0.30360
 H489 H 0.66295 0.96510 0.32160
 H490 H 0.64438 0.94828 0.30186
 H491 H 0.66631 0.97517 0.25792
 H492 H 0.68508 0.99190 0.27762
 H493 H 0.68652 0.99309 0.34873
 H494 H 0.70439 0.97652 0.36929
 H495 H 0.70916 0.96475 0.30598
 H496 H 0.72139 1.00587 0.31442
 H497 H 0.74102 1.02272 0.33307
 H498 H 0.69733 1.05067 0.35403
 H499 H 0.67771 1.03364 0.33563
 H500 H 0.69333 1.03292 0.28924
 H501 H 0.67289 1.04927 0.27105
 H502 H 0.63022 1.02173 0.29440
 H503 H 0.65060 1.00550 0.31277
 H504 H 0.72683 0.94806 0.32661
 O505 O 0.84110 0.86340 0.51726
 O506 O 0.86413 0.83959 0.48276
 O507 O 0.84024 0.86353 0.48342
 O508 O 0.86483 0.83942 0.51653
 O509 O 0.84452 0.81919 0.51690
 O510 O 0.81996 0.84328 0.48381
 O511 O 0.84384 0.81934 0.48314
 O512 O 0.82080 0.84316 0.51764
 Cu513 Cu 0.85461 0.85354 0.49993
 Cu514 Cu 0.83022 0.82921 0.50039
 C515 C 0.82706 0.85730 0.52327
 C516 C 0.85795 0.82538 0.47722
 C517 C 0.82590 0.85750 0.47808
 C518 C 0.85884 0.82520 0.52226
 O519 O 0.15548 0.13249 0.51832
 O520 O 0.13195 0.15659 0.48442
 O521 O 0.15617 0.13296 0.48446
 O522 O 0.13134 0.15604 0.51824
 O523 O 0.15134 0.17657 0.51891
 O524 O 0.17615 0.15350 0.48515
 O525 O 0.15195 0.17712 0.48511
 O526 O 0.17546 0.15303 0.51899
 Cu527 Cu 0.14173 0.14244 0.50126
 Cu528 Cu 0.16575 0.16712 0.50208
 C529 C 0.16944 0.13871 0.52438
 C530 C 0.13792 0.17098 0.47913
 C531 C 0.17040 0.13929 0.47917
 C532 C 0.13715 0.17021 0.52426
 O533 O 0.15486 0.86959 0.48276
 O534 O 0.13150 0.84573 0.51703
 O535 O 0.15555 0.86953 0.51658
 O536 O 0.13104 0.84568 0.48314
 O537 O 0.15126 0.82539 0.48279
 O538 O 0.17572 0.84921 0.51618
 O539 O 0.15170 0.82543 0.51665
 O540 O 0.17506 0.84928 0.48239
 Cu541 Cu 0.14119 0.85967 0.49993
 Cu542 Cu 0.16546 0.83527 0.49948
 C543 C 0.16892 0.86348 0.47681
 C544 C 0.13764 0.83154 0.52261
 C545 C 0.16982 0.86343 0.52195
 C546 C 0.13705 0.83151 0.47730
 O547 O 0.86556 0.15751 0.51523
 O548 O 0.84240 0.13297 0.48131
 O549 O 0.86601 0.15706 0.48139
 O550 O 0.84191 0.13327 0.51517
 O551 O 0.82145 0.15331 0.51471
 O552 O 0.84555 0.17710 0.48094
 O553 O 0.82195 0.15302 0.48087
 O554 O 0.84509 0.17754 0.51477
 Cu555 Cu 0.85603 0.14318 0.49836
 Cu556 Cu 0.83144 0.16726 0.49781
 C557 C 0.85927 0.17172 0.52065
 C558 C 0.82827 0.13886 0.47536
 C559 C 0.85984 0.17110 0.47546
 C560 C 0.82757 0.13922 0.52058
 O561 O 0.51690 0.83964 0.86387
 O562 O 0.48264 0.86412 0.84145
 O563 O 0.48327 0.83947 0.86463
 O564 O 0.51633 0.86427 0.84060
 O565 O 0.51593 0.84462 0.81966
 O566 O 0.48289 0.81983 0.84366
 O567 O 0.48225 0.84448 0.82049
 O568 O 0.51652 0.81999 0.84292
 Cu569 Cu 0.49984 0.85387 0.85475
 Cu570 Cu 0.49937 0.83026 0.82956
 C571 C 0.52241 0.82563 0.85724
 C572 C 0.47669 0.85845 0.82717
 C573 C 0.47756 0.82543 0.85823
 C574 C 0.52166 0.85866 0.82604
 O575 O 0.51744 0.15311 0.12923
 O576 O 0.48305 0.12977 0.15286
 O577 O 0.48371 0.15317 0.12845
 O578 O 0.51673 0.12970 0.15374
 O579 O 0.51626 0.15040 0.17365
 O580 O 0.48328 0.17384 0.14838
 O581 O 0.48260 0.15047 0.17278
 O582 O 0.51697 0.17379 0.14916
 Cu583 Cu 0.50030 0.13936 0.13905
 Cu584 Cu 0.49975 0.16422 0.16299
 C585 C 0.52296 0.16742 0.13517
 C586 C 0.47704 0.13617 0.16682
 C587 C 0.47792 0.16747 0.13416
 C588 C 0.52199 0.13606 0.16801
 O589 O 0.51880 0.13669 0.84137
 O590 O 0.48444 0.16143 0.86349
 O591 O 0.48511 0.13669 0.84031
 O592 O 0.51808 0.16141 0.86447
 O593 O 0.51874 0.18096 0.84346
 O594 O 0.48580 0.15626 0.81931
 O595 O 0.48512 0.18099 0.84248
 O596 O 0.51947 0.15625 0.82036
 Cu597 Cu 0.50152 0.14707 0.85452
 Cu598 Cu 0.50234 0.17058 0.82927
 C599 C 0.52492 0.14229 0.82712
 C600 C 0.47906 0.17545 0.85678
 C601 C 0.47994 0.14228 0.82570
 C602 C 0.52393 0.17539 0.85806
 O603 O 0.48154 0.84563 0.13110
 O604 O 0.51582 0.86887 0.15492
 O605 O 0.51528 0.84513 0.13084
 O606 O 0.48212 0.86943 0.15528
 O607 O 0.48195 0.84903 0.17548
 O608 O 0.51507 0.82476 0.15107
 O609 O 0.51562 0.84848 0.17513
 O610 O 0.48136 0.82526 0.15132
 Cu611 Cu 0.49868 0.85932 0.14099
 Cu612 Cu 0.49845 0.83482 0.16528
 C613 C 0.47572 0.83148 0.13715
 C614 C 0.52150 0.86259 0.16905
 C615 C 0.52079 0.83085 0.13686
 C616 C 0.47651 0.86337 0.16956
 O617 O 0.87163 0.51812 0.84716
 O618 O 0.84743 0.48467 0.87132
 O619 O 0.87120 0.48435 0.84716
 O620 O 0.84786 0.51845 0.87127
 O621 O 0.82755 0.51863 0.85103
 O622 O 0.85083 0.48459 0.82697
 O623 O 0.82710 0.48490 0.85109
 O624 O 0.85127 0.51831 0.82695
 Cu625 Cu 0.86158 0.50137 0.86127
 Cu626 Cu 0.83714 0.50162 0.83698
 C627 C 0.86553 0.52385 0.83297
 C628 C 0.83315 0.47918 0.86529
 C629 C 0.86496 0.47875 0.83297
 C630 C 0.83375 0.52428 0.86521
 O631 O 0.13678 0.51551 0.16005
 O632 O 0.16116 0.48252 0.13549
 O633 O 0.13657 0.48178 0.15874
 O634 O 0.16133 0.51618 0.13670
 O635 O 0.18099 0.51533 0.15756
 O636 O 0.15622 0.48093 0.17961
 O637 O 0.18081 0.48167 0.15637
 O638 O 0.15645 0.51465 0.18090
 Cu639 Cu 0.14696 0.49909 0.14565
 Cu640 Cu 0.17059 0.49807 0.17073
 C641 C 0.14249 0.52062 0.17464
 C642 C 0.17514 0.47658 0.14176
 C643 C 0.14221 0.47556 0.17291
 C644 C 0.17539 0.52148 0.14334
 O645 O 0.84082 0.51691 0.13553
 O646 O 0.86535 0.48381 0.15968
 O647 O 0.84055 0.48324 0.13668
 O648 O 0.86563 0.51754 0.15850
 O649 O 0.84618 0.51841 0.17962
 O650 O 0.82110 0.48412 0.15781
 O651 O 0.84589 0.48470 0.18080
 O652 O 0.82139 0.51778 0.15667
 Cu653 Cu 0.85506 0.50028 0.14547
 Cu654 Cu 0.83169 0.50134 0.17086
 C655 C 0.82693 0.52288 0.14200
 C656 C 0.85978 0.47870 0.17434
 C657 C 0.82654 0.47797 0.14351
 C658 C 0.86015 0.52374 0.17276
 O659 O 0.15506 0.51636 0.86830
 O660 O 0.13190 0.48288 0.84323
 O661 O 0.15499 0.48257 0.86793
 O662 O 0.13190 0.51656 0.84365
 O663 O 0.15276 0.51676 0.82392
 O664 O 0.17585 0.48278 0.84820
 O665 O 0.15276 0.48309 0.82350
 O666 O 0.17591 0.51655 0.84855
 Cu667 Cu 0.14137 0.49957 0.85779
 Cu668 Cu 0.16644 0.49981 0.83407
 C669 C 0.16940 0.52210 0.86265
 C670 C 0.13838 0.47740 0.82909
 C671 C 0.16932 0.47694 0.86217
 C672 C 0.13840 0.52234 0.82964
 C673 C 0.27340 0.35996 0.04704
 C674 C 0.26473 0.36994 0.05539
 C675 C 0.25438 0.38191 0.06531
 C676 C 0.26033 0.39880 0.06823
 C677 C 0.25026 0.41048 0.07778
 C678 C 0.23409 0.40541 0.08454
 C679 C 0.22825 0.38838 0.08156
 C680 C 0.23833 0.37672 0.07199
 C681 C 0.22338 0.41784 0.09464
 C682 C 0.21439 0.41241 0.10962
 C683 C 0.20441 0.42418 0.11917
 C684 C 0.20326 0.44149 0.11388
 C685 C 0.21211 0.44700 0.09898
 C686 C 0.22210 0.43527 0.08942
 C687 C 0.19317 0.45368 0.12379
 C688 C 0.18485 0.46404 0.13204
 H689 H 0.27276 0.40293 0.06315
 H690 H 0.25523 0.42342 0.08005
 H691 H 0.21577 0.38416 0.08640
 H692 H 0.23358 0.36369 0.06975
 H693 H 0.21529 0.39914 0.11410
 H694 H 0.19766 0.41979 0.13073
 H695 H 0.21128 0.46037 0.09475
 H696 H 0.22867 0.43979 0.07782
 C697 C 0.72778 0.63971 0.04886
 C698 C 0.73662 0.62974 0.05701
 C699 C 0.74719 0.61783 0.06673
 C700 C 0.75372 0.60292 0.05871
 C701 C 0.76396 0.59132 0.06814
 C702 C 0.76777 0.59449 0.08575
 C703 C 0.76115 0.60954 0.09368
 C704 C 0.75094 0.62113 0.08422
 C705 C 0.77853 0.58210 0.09582
 C706 C 0.77421 0.57792 0.11310
 C707 C 0.78422 0.56611 0.12251
 C708 C 0.79869 0.55834 0.11480
 C709 C 0.80315 0.56246 0.09765
 C710 C 0.79314 0.57425 0.08821
 C711 C 0.80881 0.54597 0.12442
 C712 C 0.81717 0.53550 0.13246
 H713 H 0.75086 0.60022 0.04518
 H714 H 0.76866 0.57973 0.06173
 H715 H 0.76404 0.61246 0.10714
 H716 H 0.74599 0.63267 0.09053
 H717 H 0.76292 0.58356 0.11925
 H718 H 0.78061 0.56296 0.13576
 H719 H 0.81433 0.55653 0.09156
 H720 H 0.79694 0.57737 0.07501
 C721 C 0.73415 0.35920 0.95501
 C722 C 0.74332 0.36923 0.94725
 C723 C 0.75389 0.38147 0.93792
 C724 C 0.74605 0.39471 0.92833
 C725 C 0.75620 0.40677 0.91937
 C726 C 0.77438 0.40575 0.91987
 C727 C 0.78216 0.39233 0.92948
 C728 C 0.77197 0.38028 0.93846
 C729 C 0.78514 0.41866 0.91044
 C730 C 0.80010 0.41349 0.90134
 C731 C 0.81006 0.42567 0.89228
 C732 C 0.80524 0.44316 0.89223
 C733 C 0.79043 0.44843 0.90131
 C734 C 0.78045 0.43629 0.91035
 C735 C 0.81532 0.45570 0.88275
 C736 C 0.82357 0.46635 0.87479
 H737 H 0.73206 0.39572 0.92778
 H738 H 0.74981 0.41678 0.91190
 H739 H 0.79612 0.39132 0.93028
 H740 H 0.77818 0.37011 0.94589
 H741 H 0.80393 0.40000 0.90097
 H742 H 0.82147 0.42143 0.88525
 H743 H 0.78660 0.46194 0.90140
 H744 H 0.76915 0.44072 0.91743
 C745 C 0.26595 0.64239 0.95436
 C746 C 0.25656 0.63257 0.94662
 C747 C 0.24563 0.62061 0.93734
 C748 C 0.24354 0.62220 0.91933
 C749 C 0.23343 0.61021 0.91022
 C750 C 0.22528 0.59643 0.91900
 C751 C 0.22733 0.59504 0.93714
 C752 C 0.23744 0.60705 0.94622
 C753 C 0.21493 0.58340 0.90926
 C754 C 0.21607 0.56568 0.91346
 C755 C 0.20659 0.55337 0.90411
 C756 C 0.19583 0.55858 0.89045
 C757 C 0.19453 0.57618 0.88623
 C758 C 0.20401 0.58852 0.89556
 C759 C 0.18633 0.54583 0.88066
 C760 C 0.17852 0.53504 0.87244
 H761 H 0.24990 0.63258 0.91230
 H762 H 0.23230 0.61150 0.89624
 H763 H 0.22105 0.58472 0.94430
 H764 H 0.23896 0.60570 0.96016
 H765 H 0.22454 0.56130 0.92376
 H766 H 0.20774 0.53978 0.90745
 H767 H 0.18621 0.58036 0.87570
 H768 H 0.20270 0.60207 0.89215
 C769 C 0.04620 0.27009 0.36100
 C770 C 0.05411 0.26121 0.37114
 C771 C 0.06357 0.25060 0.38323
 C772 C 0.05489 0.24228 0.39686
 C773 C 0.06409 0.23203 0.40865
 C774 C 0.08212 0.22997 0.40694
 C775 C 0.09072 0.23836 0.39316
 C776 C 0.08149 0.24861 0.38140
 C777 C 0.09194 0.21921 0.41955
 C778 C 0.10540 0.20828 0.41385
 C779 C 0.11472 0.19828 0.42577
 C780 C 0.11074 0.19908 0.44351
 C781 C 0.09736 0.20987 0.44930
 C782 C 0.08801 0.21986 0.43741
 C783 C 0.12044 0.18896 0.45583
 C784 C 0.12848 0.18066 0.46635
 H785 H 0.04101 0.24369 0.39836
 H786 H 0.05707 0.22556 0.41898
 H787 H 0.10461 0.23721 0.39163
 H788 H 0.08835 0.25502 0.37091
 H789 H 0.10859 0.20733 0.40017
 H790 H 0.12503 0.18994 0.42114
 H791 H 0.09421 0.21063 0.46301
 H792 H 0.07790 0.22831 0.44224
 C793 C 0.04736 0.73419 0.64356
 C794 C 0.05525 0.74354 0.63380
 C795 C 0.06476 0.75441 0.62194
 C796 C 0.08286 0.75377 0.62159
 C797 C 0.09212 0.76385 0.60967
 C798 C 0.08337 0.77472 0.59791
 C799 C 0.06517 0.77540 0.59849
 C800 C 0.05594 0.76530 0.61042
 C801 C 0.09318 0.78505 0.58490
 C802 C 0.08820 0.80214 0.58090
 C803 C 0.09732 0.81173 0.56846
 C804 C 0.11150 0.80438 0.55984
 C805 C 0.11659 0.78742 0.56376
 C806 C 0.10751 0.77782 0.57621
 C807 C 0.12073 0.81412 0.54682
 C808 C 0.12846 0.82214 0.53581
 H809 H 0.08982 0.74539 0.63046
 H810 H 0.10612 0.76321 0.60971
 H811 H 0.05805 0.78346 0.58946
 H812 H 0.04192 0.76583 0.61052
 H813 H 0.07736 0.80814 0.58751
 H814 H 0.09329 0.82486 0.56554
 H815 H 0.12750 0.78158 0.55711
 H816 H 0.11152 0.76462 0.57880
 C817 C 0.95376 0.72884 0.35994
 C818 C 0.94523 0.73741 0.36988
 C819 C 0.93503 0.74754 0.38180
 C820 C 0.93249 0.76526 0.37884
 C821 C 0.92263 0.77509 0.39048
 C822 C 0.91518 0.76732 0.40526
 C823 C 0.91777 0.74949 0.40808
 C824 C 0.92763 0.73968 0.39642
 C825 C 0.90486 0.77776 0.41776
 C826 C 0.90657 0.77508 0.43577
 C827 C 0.89686 0.78488 0.44755
 C828 C 0.88531 0.79747 0.44153
 C829 C 0.88351 0.80026 0.42364
 C830 C 0.89323 0.79048 0.41181
 C831 C 0.87541 0.80751 0.45377
 C832 C 0.86731 0.81577 0.46432
 H833 H 0.93820 0.77148 0.36757
 H834 H 0.92104 0.78883 0.38806
 H835 H 0.91202 0.74308 0.41921
 H836 H 0.92946 0.72596 0.39881
 H837 H 0.91559 0.76558 0.44076
 H838 H 0.89840 0.78266 0.46138
 H839 H 0.87457 0.80995 0.41883
 H840 H 0.89147 0.79270 0.39803
 C841 C 0.95060 0.27100 0.63928
 C842 C 0.94250 0.26222 0.62917
 C843 C 0.93284 0.25174 0.61709
 C844 C 0.93728 0.23434 0.61452
 C845 C 0.92797 0.22418 0.60271
 C846 C 0.91408 0.23132 0.59329
 C847 C 0.90971 0.24883 0.59600
 C848 C 0.91903 0.25895 0.60783
 C849 C 0.90428 0.22060 0.58061
 C850 C 0.89909 0.22763 0.56456
 C851 C 0.88989 0.21756 0.55260
 C852 C 0.88575 0.20033 0.55650
 C853 C 0.89084 0.19320 0.57242
 C854 C 0.90005 0.20325 0.58440
 C855 C 0.87634 0.19001 0.54408
 C856 C 0.86851 0.18155 0.53349
 H857 H 0.94798 0.22864 0.62158
 H858 H 0.93180 0.21082 0.60075
 H859 H 0.89896 0.25464 0.58913
 H860 H 0.91545 0.27240 0.60975
 H861 H 0.90235 0.24085 0.56114
 H862 H 0.88607 0.22319 0.54029
 H863 H 0.88767 0.17988 0.57558
 H864 H 0.90368 0.19753 0.59672
 C865 C 0.35506 0.04854 0.26498
 C866 C 0.36488 0.05619 0.25551
 C867 C 0.37685 0.06531 0.24444
 C868 C 0.37898 0.08323 0.24622
 C869 C 0.39103 0.09203 0.23589
 C870 C 0.40115 0.08297 0.22366
 C871 C 0.39880 0.06497 0.22187
 C872 C 0.38672 0.05620 0.23220
 C873 C 0.41434 0.09223 0.21308
 C874 C 0.43068 0.08473 0.21003
 C875 C 0.44324 0.09360 0.20042
 C876 C 0.43966 0.11006 0.19369
 C877 C 0.42342 0.11759 0.19654
 C878 C 0.41083 0.10875 0.20617
 C879 C 0.45273 0.11929 0.18407
 C880 C 0.46378 0.12701 0.17613
 H881 H 0.37147 0.09039 0.25572
 H882 H 0.39271 0.10584 0.23775
 H883 H 0.40623 0.05767 0.21242
 H884 H 0.38517 0.04232 0.23072
 H885 H 0.43386 0.07214 0.21537
 H886 H 0.45579 0.08768 0.19835
 H887 H 0.42050 0.13031 0.19136
 H888 H 0.39832 0.11477 0.20810
 C889 C 0.64538 0.04820 0.73342
 C890 C 0.63581 0.05649 0.74261
 C891 C 0.62414 0.06641 0.75327
 C892 C 0.61555 0.05856 0.76723
 C893 C 0.60370 0.06805 0.77717
 C894 C 0.60029 0.08553 0.77325
 C895 C 0.60914 0.09335 0.75930
 C896 C 0.62096 0.08384 0.74937
 C897 C 0.58729 0.09548 0.78342
 C898 C 0.59031 0.11292 0.78787
 C899 C 0.57784 0.12237 0.79705
 C900 C 0.56221 0.11454 0.80189
 C901 C 0.55914 0.09717 0.79764
 C902 C 0.57159 0.08768 0.78847
 C903 C 0.54920 0.12438 0.81095
 C904 C 0.53817 0.13258 0.81840
 H905 H 0.61792 0.04508 0.77036
 H906 H 0.59726 0.06173 0.78796
 H907 H 0.60662 0.10671 0.75581
 H908 H 0.62748 0.09002 0.73853
 H909 H 0.60235 0.11921 0.78435
 H910 H 0.58036 0.13581 0.80031
 H911 H 0.54706 0.09099 0.80126
 H912 H 0.56877 0.07437 0.78503
 C913 C 0.35705 0.95262 0.73272
 C914 C 0.36694 0.94463 0.74180
 C915 C 0.37904 0.93512 0.75233
 C916 C 0.39684 0.93755 0.74993
 C917 C 0.40869 0.92813 0.75986
 C918 C 0.40289 0.91612 0.77235
 C919 C 0.38496 0.91381 0.77472
 C920 C 0.37312 0.92326 0.76476
 C921 C 0.41553 0.90593 0.78269
 C922 C 0.41266 0.88823 0.78606
 C923 C 0.42482 0.87855 0.79539
 C924 C 0.43997 0.88644 0.80148
 C925 C 0.44286 0.90407 0.79834
 C926 C 0.43074 0.91376 0.78902
 C927 C 0.45271 0.87642 0.81070
 C928 C 0.46357 0.86815 0.81829
 H929 H 0.40157 0.94663 0.74028
 H930 H 0.42240 0.93002 0.75755
 H931 H 0.38009 0.90481 0.78436
 H932 H 0.35936 0.92130 0.76674
 H933 H 0.40119 0.88178 0.78119
 H934 H 0.42248 0.86489 0.79770
 H935 H 0.45453 0.91031 0.80302
 H936 H 0.43321 0.92741 0.78684
 C937 C 0.64272 0.95110 0.26714
 C938 C 0.63304 0.94312 0.25780
 C939 C 0.62123 0.93360 0.24693
 C940 C 0.61676 0.93994 0.23049
 C941 C 0.60486 0.93094 0.22017
 C942 C 0.59727 0.91546 0.22618
 C943 C 0.60197 0.90914 0.24268
 C944 C 0.61385 0.91816 0.25297
 C945 C 0.58428 0.90611 0.21547
 C946 C 0.58428 0.88788 0.21467
 C947 C 0.57174 0.87907 0.20498
 C948 C 0.55904 0.88835 0.19595
 C949 C 0.55901 0.90648 0.19655
 C950 C 0.57154 0.91532 0.20622
 C951 C 0.54589 0.87927 0.18633
 C952 C 0.53479 0.87165 0.17838
 H953 H 0.62241 0.95187 0.22568
 H954 H 0.60167 0.93603 0.20745
 H955 H 0.59618 0.89740 0.24778
 H956 H 0.61715 0.91319 0.26572
 H957 H 0.59404 0.88043 0.22145
 H958 H 0.57190 0.86503 0.20458
 H959 H 0.54921 0.91379 0.18966
 H960 H 0.57105 0.92933 0.20676
 C961 C 0.36075 0.27343 0.94957
 C962 C 0.37084 0.26492 0.94116
 C963 C 0.38293 0.25477 0.93120
 C964 C 0.40042 0.25444 0.93589
 C965 C 0.41220 0.24456 0.92627
 C966 C 0.40662 0.23485 0.91181
 C967 C 0.38899 0.23527 0.90721
 C968 C 0.37724 0.24518 0.91685
 C969 C 0.41914 0.22433 0.90163
 C970 C 0.41462 0.20769 0.89563
 C971 C 0.42654 0.19771 0.88627
 C972 C 0.44308 0.20425 0.88274
 C973 C 0.44766 0.22082 0.88855
 C974 C 0.43578 0.23081 0.89793
 C975 C 0.45550 0.19390 0.87338
 C976 C 0.46612 0.18538 0.86571
 H977 H 0.40495 0.26178 0.94701
 H978 H 0.42563 0.24432 0.93028
 H979 H 0.38434 0.22811 0.89604
 H980 H 0.36372 0.24538 0.91309
 H981 H 0.40199 0.20226 0.89846
 H982 H 0.42289 0.18487 0.88188
 H983 H 0.46042 0.22601 0.88586
 H984 H 0.43956 0.24366 0.90214
 C985 C 0.63960 0.72805 0.95135
 C986 C 0.62972 0.73662 0.94284
 C987 C 0.61792 0.74688 0.93267
 C988 C 0.61147 0.74045 0.91694
 C989 C 0.59994 0.75037 0.90710
 C990 C 0.59471 0.76687 0.91288
 C991 C 0.60133 0.77324 0.92869
 C992 C 0.61285 0.76329 0.93851
 C993 C 0.58229 0.77734 0.90256
 C994 C 0.58453 0.79536 0.90081
 C995 C 0.57266 0.80522 0.89132
 C996 C 0.55841 0.79721 0.88346
 C997 C 0.55611 0.77929 0.88506
 C998 C 0.56797 0.76940 0.89452
 C999 C 0.54596 0.80739 0.87403
 C1000 C 0.53533 0.81580 0.86627
 H1001 H 0.61536 0.72778 0.91227
 H1002 H 0.59525 0.74520 0.89488
 H1003 H 0.59738 0.78578 0.93361
 H1004 H 0.61773 0.76837 0.95070
 H1005 H 0.59554 0.80181 0.90665
 H1006 H 0.57457 0.81909 0.89015
 H1007 H 0.54507 0.77297 0.87910
 H1008 H 0.56575 0.75560 0.89583
 C1009 C 0.35631 0.73247 0.04703
 C1010 C 0.36623 0.74182 0.05470
 C1011 C 0.37838 0.75263 0.06385
 C1012 C 0.39548 0.74705 0.06601
 C1013 C 0.40736 0.75739 0.07495
 C1014 C 0.40231 0.77351 0.08188
 C1015 C 0.38508 0.77901 0.07966
 C1016 C 0.37320 0.76863 0.07069
 C1017 C 0.41498 0.78443 0.09144
 C1018 C 0.41010 0.79325 0.10671
 C1019 C 0.42220 0.80315 0.11592
 C1020 C 0.43930 0.80439 0.10998
 C1021 C 0.44422 0.79581 0.09472
 C1022 C 0.43216 0.78590 0.08551
 C1023 C 0.45190 0.81419 0.11965
 C1024 C 0.46267 0.82219 0.12768
 H1025 H 0.39961 0.73465 0.06084
 H1026 H 0.42045 0.75267 0.07667
 H1027 H 0.38085 0.79143 0.08467
 H1028 H 0.36000 0.77309 0.06907
 H1029 H 0.39703 0.79221 0.11172
 H1030 H 0.41826 0.80969 0.12775
 H1031 H 0.45741 0.79670 0.08999
 H1032 H 0.43626 0.77948 0.07367
 C1033 C 0.64356 0.26676 0.04688
 C1034 C 0.63349 0.25731 0.05425
 C1035 C 0.62120 0.24635 0.06304
 C1036 C 0.60358 0.25056 0.06276
 C1037 C 0.59159 0.24012 0.07148
 C1038 C 0.59705 0.22531 0.08062
 C1039 C 0.61480 0.22116 0.08079
 C1040 C 0.62679 0.23162 0.07204
 C1041 C 0.58429 0.21439 0.09007
 C1042 C 0.58818 0.20769 0.10664
 C1043 C 0.57596 0.19781 0.11571
 C1044 C 0.55973 0.19445 0.10835
 C1045 C 0.55581 0.20090 0.09182
 C1046 C 0.56800 0.21080 0.08273
 C1047 C 0.54696 0.18470 0.11787
 C1048 C 0.53609 0.17671 0.12580
 H1049 H 0.59912 0.26197 0.05590
 H1050 H 0.57806 0.24382 0.07131
 H1051 H 0.61939 0.20975 0.08754
 H1052 H 0.64040 0.22824 0.07232
 H1053 H 0.60052 0.21040 0.11273
 H1054 H 0.57911 0.19293 0.12853
 H1055 H 0.54330 0.19836 0.08598
 H1056 H 0.56470 0.21556 0.06991
 C1057 C 0.26659 0.04889 0.64531
 C1058 C 0.25717 0.05682 0.63570
 C1059 C 0.24619 0.06627 0.62395
 C1060 C 0.23272 0.05778 0.61526
 C1061 C 0.22249 0.06679 0.60331
 C1062 C 0.22562 0.08444 0.59988
 C1063 C 0.23908 0.09290 0.60884
 C1064 C 0.24930 0.08386 0.62077
 C1065 C 0.21514 0.09390 0.58679
 C1066 C 0.20990 0.11112 0.58981
 C1067 C 0.20038 0.12013 0.57728
 C1068 C 0.19597 0.11207 0.56159
 C1069 C 0.20104 0.09493 0.55850
 C1070 C 0.21055 0.08589 0.57100
 C1071 C 0.18648 0.12146 0.54854
 C1072 C 0.17864 0.12933 0.53754
 H1073 H 0.23020 0.04416 0.61762
 H1074 H 0.21209 0.05998 0.59680
 H1075 H 0.24197 0.10641 0.60632
 H1076 H 0.25975 0.09054 0.62736
 H1077 H 0.21306 0.11757 0.60191
 H1078 H 0.19649 0.13338 0.57982
 H1079 H 0.19776 0.08859 0.54636
 H1080 H 0.21460 0.07275 0.56818
 C1081 C 0.73131 0.04701 0.35551
 C1082 C 0.74062 0.05516 0.36509
 C1083 C 0.75144 0.06492 0.37677
 C1084 C 0.74599 0.08115 0.38278
 C1085 C 0.75619 0.09046 0.39453
 C1086 C 0.77201 0.08363 0.40046
 C1087 C 0.77744 0.06735 0.39424
 C1088 C 0.76721 0.05807 0.38248
 C1089 C 0.78262 0.09334 0.41331
 C1090 C 0.79075 0.08460 0.42713
 C1091 C 0.80034 0.09380 0.43949
 C1092 C 0.80197 0.11182 0.43820
 C1093 C 0.79407 0.12061 0.42441
 C1094 C 0.78446 0.11145 0.41205
 C1095 C 0.81143 0.12133 0.45121
 C1096 C 0.81920 0.12932 0.46219
 H1097 H 0.73375 0.08654 0.37852
 H1098 H 0.75154 0.10284 0.39925
 H1099 H 0.78964 0.06185 0.39840
 H1100 H 0.77156 0.04551 0.37790
 H1101 H 0.78939 0.07071 0.42860
 H1102 H 0.80634 0.08687 0.45015
 H1103 H 0.79528 0.13456 0.42327
 H1104 H 0.77854 0.11852 0.40145
 C1105 C 0.73292 0.95012 0.64466
 C1106 C 0.74199 0.94183 0.63497
 C1107 C 0.75249 0.93189 0.62316
 C1108 C 0.74947 0.91412 0.62111
 C1109 C 0.75921 0.90455 0.60915
 C1110 C 0.77211 0.91265 0.59907
 C1111 C 0.77517 0.93049 0.60137
 C1112 C 0.76540 0.94005 0.61333
 C1113 C 0.78208 0.90260 0.58599
 C1114 C 0.79995 0.90544 0.58374
 C1115 C 0.80923 0.89612 0.57121
 C1116 C 0.80079 0.88389 0.56078
 C1117 C 0.78304 0.88094 0.56296
 C1118 C 0.77374 0.89022 0.57547
 C1119 C 0.81024 0.87450 0.54768
 C1120 C 0.81800 0.86663 0.53659
 H1121 H 0.73951 0.90769 0.62866
 H1122 H 0.75670 0.89080 0.60784
 H1123 H 0.78484 0.93714 0.59365
 H1124 H 0.76777 0.95382 0.61476
 H1125 H 0.80677 0.91473 0.59176
 H1126 H 0.82298 0.89849 0.56964
 H1127 H 0.77637 0.87155 0.55490
 H1128 H 0.75996 0.88792 0.57672
 C1129 C 0.26618 0.95381 0.35588
 C1130 C 0.25697 0.94585 0.36571
 C1131 C 0.24624 0.93627 0.37765
 C1132 C 0.25233 0.92079 0.38487
 C1133 C 0.24214 0.91163 0.39676
 C1134 C 0.22570 0.91784 0.40162
 C1135 C 0.21966 0.93339 0.39422
 C1136 C 0.22988 0.94253 0.38231
 C1137 C 0.21504 0.90826 0.41453
 C1138 C 0.20577 0.91724 0.42747
 C1139 C 0.19612 0.90818 0.43990
 C1140 C 0.19558 0.89004 0.43954
 C1141 C 0.20463 0.88100 0.42663
 C1142 C 0.21430 0.89003 0.41421
 C1143 C 0.18600 0.88070 0.45259
 C1144 C 0.17813 0.87284 0.46361
 H1145 H 0.26502 0.91588 0.38142
 H1146 H 0.24726 0.89984 0.40240
 H1147 H 0.20698 0.93840 0.39754
 H1148 H 0.22504 0.95450 0.37679
 H1149 H 0.20626 0.93125 0.42820
 H1150 H 0.18921 0.91530 0.44987
 H1151 H 0.20427 0.86696 0.42622
 H1152 H 0.22111 0.88276 0.40428
 C1153 C 0.04615 0.35993 0.72939
 C1154 C 0.05430 0.36996 0.73821
 C1155 C 0.06397 0.38199 0.74871
 C1156 C 0.05703 0.39829 0.75261
 C1157 C 0.06642 0.41004 0.76275
 C1158 C 0.08291 0.40563 0.76913
 C1159 C 0.08976 0.38919 0.76517
 C1160 C 0.08035 0.37746 0.75502
 C1161 C 0.09293 0.41816 0.77982
 C1162 C 0.10239 0.41252 0.79439
 C1163 C 0.11173 0.42437 0.80448
 C1164 C 0.11176 0.44199 0.80012
 C1165 C 0.10244 0.44771 0.78564
 C1166 C 0.09308 0.43590 0.77555
 C1167 C 0.12128 0.45425 0.81051
 C1168 C 0.12915 0.46471 0.81908
 H1169 H 0.04434 0.40191 0.74784
 H1170 H 0.06069 0.42250 0.76576
 H1171 H 0.10250 0.38550 0.76971
 H1172 H 0.08586 0.36490 0.75204
 H1173 H 0.10235 0.39900 0.79814
 H1174 H 0.11887 0.41981 0.81569
 H1175 H 0.10242 0.46131 0.78212
 H1176 H 0.08614 0.44061 0.76428
 C1177 C 0.04945 0.63886 0.27269
 C1178 C 0.05754 0.62866 0.26401
 C1179 C 0.06720 0.61650 0.25364
 C1180 C 0.08531 0.61641 0.25428
 C1181 C 0.09471 0.60459 0.24422
 C1182 C 0.08610 0.59268 0.23338
 C1183 C 0.06788 0.59288 0.23283
 C1184 C 0.05851 0.60473 0.24289
 C1185 C 0.09606 0.58005 0.22275
 C1186 C 0.09032 0.56282 0.22104
 C1187 C 0.09974 0.55092 0.21111
 C1188 C 0.11501 0.55606 0.20275
 C1189 C 0.12083 0.57317 0.20434
 C1190 C 0.11143 0.58510 0.21428
 C1191 C 0.12476 0.54371 0.19268
 C1192 C 0.13288 0.53324 0.18437
 H1193 H 0.09216 0.62545 0.26259
 H1194 H 0.10870 0.60461 0.24511
 H1195 H 0.06089 0.58403 0.22446
 H1196 H 0.04450 0.60472 0.24226
 H1197 H 0.07868 0.55847 0.22759
 H1198 H 0.09516 0.53768 0.21002
 H1199 H 0.13262 0.57730 0.19790
 H1200 H 0.11607 0.59832 0.21517
 C1201 C 0.95337 0.36012 0.27108
 C1202 C 0.94533 0.37029 0.26234
 C1203 C 0.93571 0.38246 0.25198
 C1204 C 0.91983 0.37762 0.24468
 C1205 C 0.91040 0.38949 0.23475
 C1206 C 0.91673 0.40639 0.23201
 C1207 C 0.93274 0.41110 0.23936
 C1208 C 0.94215 0.39920 0.24927
 C1209 C 0.90662 0.41908 0.22164
 C1210 C 0.90550 0.43651 0.22694
 C1211 C 0.89596 0.44846 0.21722
 C1212 C 0.88743 0.44318 0.20208
 C1213 C 0.88845 0.42588 0.19668
 C1214 C 0.89798 0.41390 0.20640
 C1215 C 0.87763 0.45554 0.19212
 C1216 C 0.86946 0.46604 0.18392
 H1217 H 0.91470 0.36471 0.24674
 H1218 H 0.89802 0.38554 0.22946
 H1219 H 0.93807 0.42392 0.23730
 H1220 H 0.95445 0.40307 0.25483
 H1221 H 0.91180 0.44086 0.23874
 H1222 H 0.89520 0.46181 0.22156
 H1223 H 0.88192 0.42166 0.18496
 H1224 H 0.89876 0.40063 0.20186
 C1225 C 0.95422 0.64400 0.73335
 C1226 C 0.94648 0.63421 0.74280
 C1227 C 0.93718 0.62232 0.75381
 C1228 C 0.92049 0.61695 0.74923
 C1229 C 0.91158 0.60506 0.75965
 C1230 C 0.91927 0.59836 0.77480
 C1231 C 0.93604 0.60391 0.77934
 C1232 C 0.94492 0.61582 0.76890
 C1233 C 0.90992 0.58547 0.78567
 C1234 C 0.91872 0.57117 0.79277
 C1235 C 0.90982 0.55881 0.80264
 C1236 C 0.89202 0.56060 0.80557
 C1237 C 0.88317 0.57484 0.79869
 C1238 C 0.89204 0.58721 0.78881
 C1239 C 0.88277 0.54768 0.81540
 C1240 C 0.87494 0.53681 0.82349
 H1241 H 0.91442 0.62183 0.73753
 H1242 H 0.89880 0.60087 0.75567
 H1243 H 0.94222 0.59915 0.79102
 H1244 H 0.95784 0.61990 0.77257
 H1245 H 0.93243 0.56934 0.79040
 H1246 H 0.91679 0.54780 0.80785
 H1247 H 0.86940 0.57637 0.80091
 H1248 H 0.88495 0.59818 0.78372
 C1249 C 0.73460 0.64451 0.95404
 C1250 C 0.74422 0.63490 0.94632
 C1251 C 0.75540 0.62318 0.93703
 C1252 C 0.75444 0.62210 0.91890
 C1253 C 0.76479 0.61025 0.90987
 C1254 C 0.77625 0.59930 0.91888
 C1255 C 0.77727 0.60063 0.93710
 C1256 C 0.76689 0.61248 0.94611
 C1257 C 0.78680 0.58631 0.90933
 C1258 C 0.80412 0.58313 0.91404
 C1259 C 0.81392 0.57072 0.90512
 C1260 C 0.80654 0.56134 0.89142
 C1261 C 0.78936 0.56444 0.88661
 C1262 C 0.77955 0.57683 0.89549
 C1263 C 0.81647 0.54839 0.88233
 C1264 C 0.82451 0.53743 0.87459
 H1265 H 0.74560 0.63032 0.91174
 H1266 H 0.76387 0.60971 0.89583
 H1267 H 0.78580 0.59224 0.94443
 H1268 H 0.76767 0.61315 0.96016
 H1269 H 0.81012 0.59035 0.92450
 H1270 H 0.82723 0.56844 0.90893
 H1271 H 0.78350 0.55721 0.87606
 H1272 H 0.76619 0.57879 0.89172
 C1273 C 0.26687 0.35655 0.95197
 C1274 C 0.25736 0.36645 0.94453
 C1275 C 0.24631 0.37856 0.93564
 C1276 C 0.23489 0.37279 0.92276
 C1277 C 0.22452 0.38467 0.91384
 C1278 C 0.22545 0.40249 0.91771
 C1279 C 0.23689 0.40812 0.93078
 C1280 C 0.24725 0.39622 0.93966
 C1281 C 0.21479 0.41521 0.90796
 C1282 C 0.20707 0.42933 0.91660
 C1283 C 0.19751 0.44160 0.90732
 C1284 C 0.19553 0.43994 0.88931
 C1285 C 0.20301 0.42585 0.88062
 C1286 C 0.21256 0.41356 0.88987
 C1287 C 0.18613 0.45287 0.87971
 C1288 C 0.17839 0.46381 0.87168
 H1289 H 0.23406 0.35914 0.91956
 H1290 H 0.21569 0.37992 0.90400
 H1291 H 0.23809 0.42176 0.93389
 H1292 H 0.25611 0.40083 0.94956
 H1293 H 0.20836 0.43083 0.93054
 H1294 H 0.19175 0.45244 0.91417
 H1295 H 0.20160 0.42448 0.86667
 H1296 H 0.21852 0.40297 0.88282
 C1297 C 0.27293 0.63945 0.04967
 C1298 C 0.26444 0.62941 0.05814
 C1299 C 0.25432 0.61739 0.06822
 C1300 C 0.25640 0.59953 0.06579
 C1301 C 0.24658 0.58783 0.07556
 C1302 C 0.23451 0.59384 0.08790
 C1303 C 0.23251 0.61182 0.09024
 C1304 C 0.24237 0.62351 0.08046
 C1305 C 0.22403 0.58140 0.09822
 C1306 C 0.20638 0.58459 0.10148
 C1307 C 0.19647 0.57272 0.11098
 C1308 C 0.20406 0.55754 0.11736
 C1309 C 0.22163 0.55431 0.11428
 C1310 C 0.23156 0.56615 0.10479
 C1311 C 0.19380 0.54509 0.12675
 C1312 C 0.18532 0.53444 0.13444
 H1313 H 0.26558 0.59466 0.05631
 H1314 H 0.24824 0.57407 0.07329
 H1315 H 0.22349 0.61685 0.09978
 H1316 H 0.24069 0.63731 0.08247
 H1317 H 0.20016 0.59610 0.09642
 H1318 H 0.18286 0.57531 0.11322
 H1319 H 0.22764 0.54260 0.11918
 H1320 H 0.24516 0.56344 0.10270
 C1321 C 0.72776 0.36053 0.05069
 C1322 C 0.73629 0.37048 0.05922
 C1323 C 0.74648 0.38240 0.06934
 C1324 C 0.74385 0.40026 0.06769
 C1325 C 0.75380 0.41187 0.07743
 C1326 C 0.76655 0.40575 0.08894
 C1327 C 0.76909 0.38776 0.09052
 C1328 C 0.75910 0.37616 0.08078
 C1329 C 0.77720 0.41810 0.09918
 C1330 C 0.79506 0.41527 0.10142
 C1331 C 0.80514 0.42711 0.11077
 C1332 C 0.79750 0.44189 0.11801
 C1333 C 0.77973 0.44475 0.11598
 C1334 C 0.76963 0.43294 0.10664
 C1335 C 0.80791 0.45435 0.12720
 C1336 C 0.81650 0.46501 0.13474
 H1337 H 0.73415 0.40522 0.05882
 H1338 H 0.75170 0.42565 0.07575
 H1339 H 0.77865 0.38264 0.09942
 H1340 H 0.76121 0.36235 0.08218
 H1341 H 0.80130 0.40408 0.09566
 H1342 H 0.81890 0.42481 0.11221
 H1343 H 0.77368 0.45614 0.12155
 H1344 H 0.75588 0.43535 0.10535
 C1345 C 0.95259 0.72771 0.64004
 C1346 C 0.94434 0.73635 0.62996
 C1347 C 0.93453 0.74663 0.61789
 C1348 C 0.92531 0.73858 0.60447
 C1349 C 0.91585 0.74855 0.59266
 C1350 C 0.91549 0.76674 0.59412
 C1351 C 0.92477 0.77470 0.60770
 C1352 C 0.93423 0.76470 0.61949
 C1353 C 0.90553 0.77733 0.58151
 C1354 C 0.89583 0.79172 0.58715
 C1355 C 0.88639 0.80162 0.57525
 C1356 C 0.88654 0.79728 0.55757
 C1357 C 0.89619 0.78303 0.55183
 C1358 C 0.90562 0.77311 0.56370
 C1359 C 0.87674 0.80734 0.54530
 C1360 C 0.86855 0.81560 0.53487
 H1361 H 0.92542 0.72460 0.60315
 H1362 H 0.90866 0.74203 0.58250
 H1363 H 0.92492 0.78868 0.60904
 H1364 H 0.94136 0.77107 0.62980
 H1365 H 0.89533 0.79517 0.60080
 H1366 H 0.87892 0.81259 0.57983
 H1367 H 0.89643 0.77958 0.53817
 H1368 H 0.91314 0.76226 0.55893
 C1369 C 0.95167 0.26722 0.35486
 C1370 C 0.94357 0.25794 0.36452
 C1371 C 0.93390 0.24714 0.37629
 C1372 C 0.91579 0.24745 0.37609
 C1373 C 0.90637 0.23748 0.38798
 C1374 C 0.91497 0.22705 0.40024
 C1375 C 0.93319 0.22668 0.40020
 C1376 C 0.94258 0.23668 0.38831
 C1377 C 0.90501 0.21687 0.41323
 C1378 C 0.91018 0.19998 0.41778
 C1379 C 0.90095 0.19056 0.43025
 C1380 C 0.88645 0.19788 0.43834
 C1381 C 0.88116 0.21464 0.43386
 C1382 C 0.89036 0.22407 0.42138
 C1383 C 0.87708 0.18831 0.45137
 C1384 C 0.86922 0.18040 0.46234
 H1385 H 0.90894 0.25550 0.36683
 H1386 H 0.89237 0.23786 0.38753
 H1387 H 0.94019 0.21896 0.40961
 H1388 H 0.95660 0.23640 0.38862
 H1389 H 0.92128 0.19401 0.41158
 H1390 H 0.90513 0.17758 0.43360
 H1391 H 0.86999 0.22045 0.44010
 H1392 H 0.88619 0.23712 0.41835
 C1393 C 0.04521 0.26681 0.64442
 C1394 C 0.05316 0.25744 0.63473
 C1395 C 0.06272 0.24653 0.62296
 C1396 C 0.08043 0.24934 0.62038
 C1397 C 0.08965 0.23914 0.60854
 C1398 C 0.08124 0.22599 0.59907
 C1399 C 0.06344 0.22317 0.60186
 C1400 C 0.05425 0.23339 0.61373
 C1401 C 0.09093 0.21552 0.58610
 C1402 C 0.08341 0.21134 0.56997
 C1403 C 0.09270 0.20187 0.55757
 C1404 C 0.10962 0.19644 0.56113
 C1405 C 0.11718 0.20042 0.57717
 C1406 C 0.10791 0.20989 0.58958
 C1407 C 0.11930 0.18704 0.54820
 C1408 C 0.12744 0.17929 0.53731
 H1409 H 0.08709 0.25955 0.62740
 H1410 H 0.10328 0.24179 0.60651
 H1411 H 0.05665 0.21301 0.59493
 H1412 H 0.04054 0.23109 0.61563
 H1413 H 0.07047 0.21568 0.56680
 H1414 H 0.08675 0.19893 0.54517
 H1415 H 0.13025 0.19625 0.58006
 H1416 H 0.11398 0.21271 0.60195
 C1417 C 0.04895 0.73252 0.35634
 C1418 C 0.05668 0.74188 0.36620
 C1419 C 0.06593 0.75280 0.37819
 C1420 C 0.08172 0.74725 0.38511
 C1421 C 0.09057 0.75762 0.39707
 C1422 C 0.08371 0.77370 0.40229
 C1423 C 0.06784 0.77920 0.39521
 C1424 C 0.05902 0.76880 0.38323
 C1425 C 0.09299 0.78456 0.41523
 C1426 C 0.08382 0.79321 0.42847
 C1427 C 0.09263 0.80306 0.44092
 C1428 C 0.11069 0.80442 0.44026
 C1429 C 0.11991 0.79600 0.42706
 C1430 C 0.11113 0.78613 0.41462
 C1431 C 0.11982 0.81418 0.45330
 C1432 C 0.12761 0.82219 0.46426
 H1433 H 0.08713 0.73483 0.38137
 H1434 H 0.10262 0.75291 0.40248
 H1435 H 0.06234 0.79160 0.39882
 H1436 H 0.04680 0.77322 0.37794
 H1437 H 0.06987 0.79206 0.42942
 H1438 H 0.08537 0.80947 0.45113
 H1439 H 0.13389 0.79699 0.42642
 H1440 H 0.11853 0.77982 0.40446
 C1441 C 0.63963 0.95307 0.72899
 C1442 C 0.62944 0.94504 0.73774
 C1443 C 0.61729 0.93541 0.74815
 C1444 C 0.60051 0.94173 0.75076
 C1445 C 0.58866 0.93229 0.76074
 C1446 C 0.59345 0.91638 0.76827
 C1447 C 0.61039 0.91017 0.76562
 C1448 C 0.62221 0.91962 0.75562
 C1449 C 0.58082 0.90623 0.77871
 C1450 C 0.58602 0.89775 0.79403
 C1451 C 0.57413 0.88811 0.80377
 C1452 C 0.55689 0.88680 0.79832
 C1453 C 0.55158 0.89520 0.78312
 C1454 C 0.56345 0.90486 0.77337
 C1455 C 0.54464 0.87682 0.80827
 C1456 C 0.53423 0.86849 0.81647
 H1457 H 0.59659 0.95396 0.74508
 H1458 H 0.57580 0.93753 0.76273
 H1459 H 0.61440 0.89786 0.77104
 H1460 H 0.63516 0.91458 0.75364
 H1461 H 0.59924 0.89874 0.79860
 H1462 H 0.57836 0.88169 0.81555
 H1463 H 0.53829 0.89423 0.77875
 H1464 H 0.55909 0.91104 0.76152
 C1465 C 0.35891 0.95491 0.26982
 C1466 C 0.36897 0.94701 0.26079
 C1467 C 0.38103 0.93763 0.25005
 C1468 C 0.39730 0.94473 0.24635
 C1469 C 0.40909 0.93560 0.23602
 C1470 C 0.40475 0.91921 0.22922
 C1471 C 0.38832 0.91222 0.23296
 C1472 C 0.37656 0.92137 0.24331
 C1473 C 0.41735 0.90942 0.21840
 C1474 C 0.41183 0.90017 0.20363
 C1475 C 0.42372 0.89090 0.19352
 C1476 C 0.44127 0.89075 0.19804
 C1477 C 0.44689 0.89992 0.21269
 C1478 C 0.43503 0.90920 0.22280
 C1479 C 0.45352 0.88109 0.18776
 C1480 C 0.46393 0.87300 0.17933
 H1481 H 0.40088 0.95732 0.25146
 H1482 H 0.42153 0.94143 0.23318
 H1483 H 0.38468 0.89955 0.22811
 H1484 H 0.36401 0.91574 0.24613
 H1485 H 0.39835 0.90026 0.19978
 H1486 H 0.41923 0.88387 0.18218
 H1487 H 0.46043 0.89984 0.21635
 H1488 H 0.43966 0.91598 0.23423
 C1489 C 0.63824 0.04600 0.27063
 C1490 C 0.62827 0.05388 0.26155
 C1491 C 0.61635 0.06323 0.25067
 C1492 C 0.60471 0.05419 0.24008
 C1493 C 0.59311 0.06323 0.22951
 C1494 C 0.59300 0.08148 0.22939
 C1495 C 0.60479 0.09045 0.24006
 C1496 C 0.61637 0.08137 0.25063
 C1497 C 0.58060 0.09110 0.21824
 C1498 C 0.58584 0.10612 0.20928
 C1499 C 0.57411 0.11520 0.19887
 C1500 C 0.55701 0.10941 0.19728
 C1501 C 0.55168 0.09447 0.20612
 C1502 C 0.56339 0.08537 0.21653
 C1503 C 0.54485 0.11886 0.18676
 C1504 C 0.53451 0.12674 0.17810
 H1505 H 0.60463 0.04014 0.23996
 H1506 H 0.58436 0.05596 0.22128
 H1507 H 0.60488 0.10448 0.24043
 H1508 H 0.62531 0.08850 0.25881
 H1509 H 0.59906 0.11074 0.21016
 H1510 H 0.57838 0.12674 0.19206
 H1511 H 0.53846 0.08991 0.20504
 H1512 H 0.55889 0.07399 0.22344
 C1513 C 0.36201 0.04806 0.72873
 C1514 C 0.37220 0.05617 0.73737
 C1515 C 0.38436 0.06588 0.74767
 C1516 C 0.38094 0.08319 0.75188
 C1517 C 0.39276 0.09267 0.76184
 C1518 C 0.40817 0.08493 0.76772
 C1519 C 0.41147 0.06750 0.76344
 C1520 C 0.39962 0.05805 0.75348
 C1521 C 0.42079 0.09502 0.77821
 C1522 C 0.43869 0.09330 0.77524
 C1523 C 0.45056 0.10289 0.78502
 C1524 C 0.44472 0.11430 0.79791
 C1525 C 0.42695 0.11608 0.80100
 C1526 C 0.41505 0.10651 0.79122
 C1527 C 0.45698 0.12422 0.80788
 C1528 C 0.46738 0.13249 0.81610
 H1529 H 0.36918 0.08939 0.74741
 H1530 H 0.38997 0.10612 0.76472
 H1531 H 0.42310 0.06111 0.76796
 H1532 H 0.40237 0.04463 0.75033
 H1533 H 0.44351 0.08475 0.76517
 H1534 H 0.46429 0.10146 0.78249
 H1535 H 0.42229 0.12484 0.81098
 H1536 H 0.40137 0.10795 0.79396
 C1537 C 0.64203 0.73324 0.04750
 C1538 C 0.63215 0.74251 0.05530
 C1539 C 0.62012 0.75330 0.06468
 C1540 C 0.61009 0.76552 0.05580
 C1541 C 0.59800 0.77559 0.06484
 C1542 C 0.59578 0.77354 0.08290
 C1543 C 0.60605 0.76132 0.09171
 C1544 C 0.61813 0.75127 0.08265
 C1545 C 0.58262 0.78390 0.09245
 C1546 C 0.57239 0.77616 0.10547
 C1547 C 0.55991 0.78583 0.11438
 C1548 C 0.55748 0.80337 0.11042
 C1549 C 0.56760 0.81120 0.09752
 C1550 C 0.58009 0.80154 0.08857
 C1551 C 0.54458 0.81325 0.11962
 C1552 C 0.53372 0.82136 0.12743
 H1553 H 0.61147 0.76713 0.04187
 H1554 H 0.59015 0.78473 0.05765
 H1555 H 0.60481 0.75960 0.10563
 H1556 H 0.62584 0.74186 0.08965
 H1557 H 0.57385 0.76255 0.10859
 H1558 H 0.55212 0.77962 0.12431
 H1559 H 0.56586 0.82478 0.09438
 H1560 H 0.58790 0.80792 0.07877
 C1561 C 0.35868 0.26600 0.04379
 C1562 C 0.36867 0.25661 0.05127
 C1563 C 0.38083 0.24568 0.06020
 C1564 C 0.37497 0.23201 0.07063
 C1565 C 0.38684 0.22162 0.07955
 C1566 C 0.40474 0.22477 0.07813
 C1567 C 0.41049 0.23850 0.06754
 C1568 C 0.39860 0.24887 0.05866
 C1569 C 0.41738 0.21396 0.08780
 C1570 C 0.43308 0.20890 0.07999
 C1571 C 0.44517 0.19912 0.08926
 C1572 C 0.44175 0.19424 0.10645
 C1573 C 0.42612 0.19907 0.11430
 C1574 C 0.41400 0.20885 0.10504
 C1575 C 0.45443 0.18460 0.11615
 C1576 C 0.46512 0.17669 0.12434
 H1577 H 0.36124 0.22941 0.07190
 H1578 H 0.38202 0.21103 0.08743
 H1579 H 0.42416 0.24142 0.06638
 H1580 H 0.40328 0.25947 0.05068
 H1581 H 0.43596 0.21243 0.06666
 H1582 H 0.45722 0.19543 0.08305
 H1583 H 0.42336 0.19542 0.12762
 H1584 H 0.40214 0.21272 0.11150
 C1585 C 0.64097 0.27353 0.95215
 C1586 C 0.63103 0.26487 0.94375
 C1587 C 0.61912 0.25455 0.93377
 C1588 C 0.61765 0.23674 0.93693
 C1589 C 0.60596 0.22673 0.92733
 C1590 C 0.59557 0.23443 0.91446
 C1591 C 0.59720 0.25233 0.91135
 C1592 C 0.60890 0.26231 0.92094
 C1593 C 0.58302 0.22385 0.90438
 C1594 C 0.56646 0.23039 0.90054
 C1595 C 0.55463 0.22043 0.89109
 C1596 C 0.55917 0.20383 0.88535
 C1597 C 0.57561 0.19720 0.88909
 C1598 C 0.58747 0.20714 0.89855
 C1599 C 0.54691 0.19362 0.87567
 C1600 C 0.53650 0.18521 0.86760
 H1601 H 0.62546 0.23061 0.94686
 H1602 H 0.60486 0.21303 0.93018
 H1603 H 0.58955 0.25859 0.90138
 H1604 H 0.60998 0.27608 0.91836
 H1605 H 0.56256 0.24310 0.90505
 H1606 H 0.54191 0.22566 0.88831
 H1607 H 0.57927 0.18438 0.88467
 H1608 H 0.60019 0.20184 0.90111
 C1609 C 0.36025 0.72728 0.95223
 C1610 C 0.37031 0.73594 0.94395
 C1611 C 0.38237 0.74624 0.93411
 C1612 C 0.39983 0.74675 0.93891
 C1613 C 0.41160 0.75670 0.92935
 C1614 C 0.40604 0.76630 0.91484
 C1615 C 0.38845 0.76572 0.91013
 C1616 C 0.37670 0.75575 0.91972
 C1617 C 0.41855 0.77684 0.90465
 C1618 C 0.41396 0.79339 0.89852
 C1619 C 0.42580 0.80333 0.88902
 C1620 C 0.44236 0.79685 0.88550
 C1621 C 0.44704 0.78039 0.89150
 C1622 C 0.43523 0.77044 0.90101
 C1623 C 0.45460 0.80709 0.87581
 C1624 C 0.46499 0.81555 0.86775
 H1625 H 0.40435 0.73948 0.95007
 H1626 H 0.42501 0.75707 0.93344
 H1627 H 0.38381 0.77279 0.89890
 H1628 H 0.36322 0.75541 0.91587
 H1629 H 0.40130 0.79876 0.90129
 H1630 H 0.42206 0.81608 0.88448
 H1631 H 0.45981 0.77523 0.88880
 H1632 H 0.43908 0.75766 0.90535
 C1633 C 0.72728 0.95144 0.36137
 C1634 C 0.73599 0.94321 0.37140
 C1635 C 0.74637 0.93335 0.38334
 C1636 C 0.76341 0.93841 0.38689
 C1637 C 0.77350 0.92884 0.39852
 C1638 C 0.76664 0.91406 0.40677
 C1639 C 0.74950 0.90907 0.40308
 C1640 C 0.73945 0.91865 0.39145
 C1641 C 0.77728 0.90395 0.41923
 C1642 C 0.76989 0.89747 0.43465
 C1643 C 0.77990 0.88799 0.44641
 C1644 C 0.79741 0.88484 0.44293
 C1645 C 0.80489 0.89122 0.42762
 C1646 C 0.79490 0.90072 0.41585
 C1647 C 0.80767 0.87515 0.45513
 C1648 C 0.81610 0.86707 0.46551
 H1649 H 0.76888 0.94979 0.38071
 H1650 H 0.78656 0.93314 0.40125
 H1651 H 0.74394 0.89763 0.40905
 H1652 H 0.72630 0.91458 0.38874
 H1653 H 0.75644 0.89994 0.43775
 H1654 H 0.77400 0.88317 0.45825
 H1655 H 0.81842 0.88882 0.42479
 H1656 H 0.80091 0.90535 0.40399
 C1657 C 0.27058 0.95410 0.63963
 C1658 C 0.26151 0.94624 0.62959
 C1659 C 0.25069 0.93690 0.61759
 C1660 C 0.24179 0.94581 0.60452
 C1661 C 0.23136 0.93674 0.59278
 C1662 C 0.22969 0.91861 0.59396
 C1663 C 0.23864 0.90978 0.60719
 C1664 C 0.24908 0.91888 0.61892
 C1665 C 0.21876 0.90894 0.58138
 C1666 C 0.20824 0.89511 0.58696
 C1667 C 0.19807 0.88594 0.57505
 C1668 C 0.19830 0.89046 0.55743
 C1669 C 0.20869 0.90420 0.55175
 C1670 C 0.21885 0.91340 0.56363
 C1671 C 0.18804 0.88089 0.54510
 C1672 C 0.17962 0.87290 0.53463
 H1673 H 0.24291 0.95977 0.60341
 H1674 H 0.22445 0.94393 0.58289
 H1675 H 0.23780 0.89581 0.60831
 H1676 H 0.25594 0.91185 0.62896
 H1677 H 0.20773 0.89150 0.60055
 H1678 H 0.19005 0.87533 0.57958
 H1679 H 0.20902 0.90776 0.53813
 H1680 H 0.22699 0.92381 0.55889
 C1681 C 0.27009 0.04874 0.36016
 C1682 C 0.26124 0.05668 0.37034
 C1683 C 0.25067 0.06611 0.38253
 C1684 C 0.24652 0.05876 0.39864
 C1685 C 0.23632 0.06791 0.41054
 C1686 C 0.23011 0.08457 0.40648
 C1687 C 0.23431 0.09183 0.39022
 C1688 C 0.24453 0.08266 0.37834
 C1689 C 0.21939 0.09435 0.41920
 C1690 C 0.20503 0.10410 0.41364
 C1691 C 0.19495 0.11327 0.42565
 C1692 C 0.19911 0.11284 0.44336
 C1693 C 0.21338 0.10321 0.44901
 C1694 C 0.22345 0.09402 0.43703
 C1695 C 0.18879 0.12227 0.45577
 C1696 C 0.18030 0.13009 0.46635
 H1697 H 0.25115 0.04593 0.40199
 H1698 H 0.23311 0.06186 0.42284
 H1699 H 0.22991 0.10471 0.38680
 H1700 H 0.24770 0.08849 0.36593
 H1701 H 0.20144 0.10444 0.40003
 H1702 H 0.18390 0.12064 0.42114
 H1703 H 0.21674 0.10283 0.46267
 H1704 H 0.23456 0.08685 0.44169
 C1705 C 0.73037 0.04609 0.63956
 C1706 C 0.73920 0.05416 0.62947
 C1707 C 0.74968 0.06382 0.61739
 C1708 C 0.75134 0.08180 0.61917
 C1709 C 0.76136 0.09123 0.60732
 C1710 C 0.76985 0.08277 0.59351
 C1711 C 0.76816 0.06467 0.59189
 C1712 C 0.75815 0.05527 0.60376
 C1713 C 0.78027 0.09279 0.58075
 C1714 C 0.77955 0.08875 0.56291
 C1715 C 0.78928 0.09824 0.55088
 C1716 C 0.79986 0.11187 0.55648
 C1717 C 0.80069 0.11599 0.57418
 C1718 C 0.79096 0.10653 0.58625
 C1719 C 0.80977 0.12164 0.54401
 C1720 C 0.81797 0.12973 0.53340
 H1721 H 0.74481 0.08855 0.62965
 H1722 H 0.76223 0.10516 0.60880
 H1723 H 0.77473 0.05776 0.58155
 H1724 H 0.75700 0.04135 0.60230
 H1725 H 0.77127 0.07843 0.55824
 H1726 H 0.78849 0.09498 0.53719
 H1727 H 0.80887 0.12650 0.57866
 H1728 H 0.79195 0.10982 0.59990
 C1729 C 0.95489 0.64351 0.26668
 C1730 C 0.94699 0.63364 0.25748
 C1731 C 0.93755 0.62153 0.24687
 C1732 C 0.92632 0.62745 0.23391
 C1733 C 0.91686 0.61560 0.22394
 C1734 C 0.91855 0.59766 0.22682
 C1735 C 0.92996 0.59186 0.23982
 C1736 C 0.93938 0.60372 0.24977
 C1737 C 0.90830 0.58502 0.21651
 C1738 C 0.91584 0.56941 0.21081
 C1739 C 0.90605 0.55726 0.20158
 C1740 C 0.88862 0.56054 0.19790
 C1741 C 0.88103 0.57610 0.20337
 C1742 C 0.89081 0.58827 0.21260
 C1743 C 0.87847 0.54777 0.18885
 C1744 C 0.87005 0.53689 0.18142
 H1745 H 0.92482 0.64121 0.23155
 H1746 H 0.90833 0.62045 0.21390
 H1747 H 0.93136 0.57816 0.24252
 H1748 H 0.94798 0.59900 0.25983
 H1749 H 0.92933 0.56663 0.21341
 H1750 H 0.91205 0.54527 0.19739
 H1751 H 0.86753 0.57873 0.20065
 H1752 H 0.88458 0.60006 0.21700
 C1753 C 0.95146 0.35688 0.73346
 C1754 C 0.94381 0.36692 0.74271
 C1755 C 0.93465 0.37918 0.75342
 C1756 C 0.93893 0.38112 0.77099
 C1757 C 0.93024 0.39334 0.78124
 C1758 C 0.91719 0.40381 0.77400
 C1759 C 0.91293 0.40166 0.75635
 C1760 C 0.92161 0.38944 0.74614
 C1761 C 0.90815 0.41701 0.78474
 C1762 C 0.90429 0.43343 0.77779
 C1763 C 0.89566 0.44584 0.78781
 C1764 C 0.89078 0.44204 0.80492
 C1765 C 0.89460 0.42577 0.81200
 C1766 C 0.90325 0.41333 0.80199
 C1767 C 0.88174 0.45483 0.81510
 C1768 C 0.87411 0.46568 0.82339
 H1769 H 0.94906 0.37330 0.77674
 H1770 H 0.93396 0.39483 0.79474
 H1771 H 0.90278 0.40934 0.75046
 H1772 H 0.91818 0.38802 0.73256
 H1773 H 0.90811 0.43675 0.76465
 H1774 H 0.89281 0.45840 0.78222
 H1775 H 0.89083 0.42268 0.82521
 H1776 H 0.90586 0.40076 0.80764
 C1777 C 0.04803 0.64059 0.72974
 C1778 C 0.05599 0.63068 0.73882
 C1779 C 0.06541 0.61879 0.74966
 C1780 C 0.08341 0.61738 0.74804
 C1781 C 0.09254 0.60568 0.75844
 C1782 C 0.08377 0.59523 0.77059
 C1783 C 0.06569 0.59681 0.77217
 C1784 C 0.05658 0.60852 0.76176
 C1785 C 0.09342 0.58258 0.78142
 C1786 C 0.08658 0.56595 0.78454
 C1787 C 0.09574 0.55395 0.79454
 C1788 C 0.11184 0.55839 0.80159
 C1789 C 0.11874 0.57492 0.79863
 C1790 C 0.10960 0.58694 0.78861
 C1791 C 0.12134 0.54589 0.81165
 C1792 C 0.12919 0.53524 0.81995
 H1793 H 0.09036 0.62524 0.73867
 H1794 H 0.10642 0.60461 0.75676
 H1795 H 0.05860 0.58911 0.78155
 H1796 H 0.04266 0.60955 0.76315
 H1797 H 0.07427 0.56212 0.77900
 H1798 H 0.09032 0.54117 0.79669
 H1799 H 0.13118 0.57850 0.80405
 H1800 H 0.11511 0.59970 0.78662
 C1801 C 0.04841 0.35487 0.26661
 C1802 C 0.05659 0.36443 0.25732
 C1803 C 0.06637 0.37610 0.24652
 C1804 C 0.05793 0.38637 0.23418
 C1805 C 0.06733 0.39825 0.22419
 C1806 C 0.08533 0.40001 0.22645
 C1807 C 0.09373 0.38945 0.23874
 C1808 C 0.08429 0.37760 0.24871
 C1809 C 0.09524 0.41309 0.21636
 C1810 C 0.11183 0.40922 0.20982
 C1811 C 0.12131 0.42173 0.20072
 C1812 C 0.11435 0.43826 0.19804
 C1813 C 0.09782 0.44220 0.20438
 C1814 C 0.08832 0.42971 0.21347
 C1815 C 0.12423 0.45128 0.18902
 C1816 C 0.13247 0.46230 0.18160
 H1817 H 0.04405 0.38531 0.23237
 H1818 H 0.06054 0.40603 0.21468
 H1819 H 0.10752 0.39066 0.24095
 H1820 H 0.09094 0.36976 0.25830
 H1821 H 0.11742 0.39648 0.21165
 H1822 H 0.13408 0.41854 0.19584
 H1823 H 0.09234 0.45498 0.20243
 H1824 H 0.07570 0.43317 0.21855
   
