data_POSCAR
  _audit_creation_date              2014-09-24
  _audit_creation_method            'ToBaCCo'
  _symmetry_space_group_name_H-M    'P1'
  _symmetry_Int_Tables_number       1
  _symmetry_cell_setting            triclinic
  loop_
  _symmetry_equiv_pos_as_xyz
 x,y,z
_cell_length_a 65.5203
_cell_length_b 65.3422
_cell_length_c 66.4124
_cell_angle_alpha 89.750100
_cell_angle_beta 89.583300
_cell_angle_gamma 90.272300
loop_
  _atom_site_label
  _atom_site_type_symbol
  _atom_site_fract_x
  _atom_site_fract_y
  _atom_site_fract_z
C1 C 0.41341 0.00547 0.27213
 H2 H 0.42019 0.00746 0.25741
 C3 C 0.42615 0.00360 0.28880
 H4 H 0.44253 0.00407 0.28659
 C5 C 0.38412 0.00309 0.29301
 H6 H 0.36778 0.00312 0.29477
 C7 C 0.39629 0.00116 0.31011
 H8 H 0.38902 -0.00085 0.32468
 N9 N 0.39276 0.00414 0.27432
 C10 C 0.39185 0.01464 0.21279
 H11 H 0.38033 0.02637 0.21372
 C12 C 0.40550 0.01459 0.19651
 H13 H 0.40434 0.02627 0.18496
 C14 C 0.40788 -0.01452 0.22683
 H15 H 0.40880 -0.02575 0.23880
 C16 C 0.42208 -0.01486 0.21106
 H17 H 0.43379 -0.02650 0.21084
 Zn18 Zn 0.37602 0.00144 0.25084
 N19 N 0.39336 0.00031 0.22765
 C20 C 0.36067 0.04134 0.25917
 N21 N 0.35792 0.02390 0.24838
 C22 C 0.34270 0.02230 0.23468
 C23 C 0.32987 0.03887 0.23090
 C24 C 0.34818 0.05835 0.25583
 C25 C 0.36306 -0.03877 0.23949
 C26 C 0.35339 -0.05770 0.24248
 C27 C 0.33767 -0.04420 0.27249
 C28 C 0.34714 -0.02544 0.26853
 N29 N 0.36047 -0.02333 0.25292
 H30 H 0.37296 0.04230 0.26991
 H31 H 0.34082 0.00823 0.22634
 H32 H 0.31796 0.03727 0.21980
 H33 H 0.35110 0.07234 0.26401
 H34 H 0.37304 -0.03669 0.22664
 H35 H 0.35705 -0.06973 0.23195
 H36 H 0.32710 -0.04485 0.28506
 H37 H 0.34382 -0.01256 0.27807
 C38 C 0.42105 -0.00008 0.19574
 C39 C 0.41762 0.00065 0.30804
 C40 C 0.34114 -0.06122 0.25982
 C41 C 0.33275 0.05737 0.24125
 C42 C 0.09108 0.01621 0.71799
 H43 H 0.08968 0.02734 0.72992
 C44 C 0.07801 0.01721 0.70144
 H45 H 0.06681 0.02930 0.70058
 C46 C 0.10668 -0.01358 0.70491
 H47 H 0.11740 -0.02594 0.70643
 C48 C 0.09423 -0.01290 0.68796
 H49 H 0.09564 -0.02470 0.67663
 N50 N 0.10495 0.00083 0.71958
 C51 C 0.11311 -0.00065 0.78493
 H52 H 0.12953 -0.00078 0.78605
 C53 C 0.10133 0.00165 0.80235
 H54 H 0.10890 0.00355 0.81667
 C55 C 0.08339 -0.00233 0.76493
 H56 H 0.07640 -0.00408 0.75037
 C57 C 0.07101 -0.00001 0.78198
 H58 H 0.05458 0.00004 0.78031
 Zn59 Zn 0.12121 -0.00175 0.74331
 N60 N 0.10408 -0.00202 0.76660
 C61 C 0.13641 0.03899 0.73706
 N62 N 0.13984 0.02051 0.74591
 C63 C 0.15587 0.01778 0.75853
 C64 C 0.16843 0.03424 0.76366
 C65 C 0.14870 0.05587 0.74168
 C66 C 0.13080 -0.04275 0.75370
 C67 C 0.14037 -0.06164 0.75105
 C68 C 0.16125 -0.04643 0.72478
 C69 C 0.15148 -0.02780 0.72810
 N70 N 0.13618 -0.02645 0.74196
 H71 H 0.12373 0.04091 0.72695
 H72 H 0.15857 0.00289 0.76512
 H73 H 0.18080 0.03183 0.77412
 H74 H 0.14521 0.07064 0.73514
 H75 H 0.11855 -0.04133 0.76459
 H76 H 0.13540 -0.07468 0.75995
 H77 H 0.17296 -0.04742 0.71324
 H78 H 0.15549 -0.01456 0.71903
 C79 C 0.07999 0.00246 0.80096
 C80 C 0.07951 0.00247 0.68621
 C81 C 0.15543 -0.06373 0.73607
 C82 C 0.16462 0.05371 0.75557
 C83 C 0.58773 0.51379 0.22282
 H84 H 0.58581 0.52539 0.23424
 C85 C 0.57446 0.51317 0.20644
 H86 H 0.56246 0.52444 0.20521
 C87 C 0.60524 0.48462 0.21073
 H88 H 0.61688 0.47316 0.21258
 C89 C 0.59262 0.48373 0.19392
 H90 H 0.59475 0.47167 0.18298
 N91 N 0.60267 0.49950 0.22481
 C92 C 0.61174 0.50041 0.29012
 H93 H 0.62812 0.50093 0.29125
 C94 C 0.59989 0.50246 0.30754
 H95 H 0.60739 0.50495 0.32180
 C96 C 0.58209 0.49690 0.27028
 H97 H 0.57510 0.49445 0.25582
 C98 C 0.56964 0.49894 0.28731
 H99 H 0.55323 0.49814 0.28570
 Zn100 Zn 0.61956 0.49952 0.24818
 N101 N 0.60275 0.49841 0.27181
 C102 C 0.63131 0.54037 0.23737
 N103 N 0.63565 0.52392 0.24923
 C104 C 0.65051 0.52503 0.26340
 C105 C 0.66024 0.54362 0.26738
 C106 C 0.64089 0.55923 0.24067
 C107 C 0.63268 0.45975 0.25908
 C108 C 0.64320 0.44142 0.25613
 C109 C 0.66263 0.45783 0.22949
 C110 C 0.65192 0.47589 0.23310
 N111 N 0.63683 0.47633 0.24726
 H112 H 0.61989 0.53919 0.22582
 H113 H 0.65446 0.51159 0.27202
 H114 H 0.67146 0.54439 0.27926
 H115 H 0.63653 0.57239 0.23176
 H116 H 0.62049 0.46039 0.27012
 H117 H 0.63905 0.42808 0.26501
 H118 H 0.67404 0.45749 0.21762
 H119 H 0.65486 0.48929 0.22387
 C120 C 0.57853 0.50229 0.30619
 C121 C 0.57687 0.49798 0.19178
 C122 C 0.65794 0.44015 0.24074
 C123 C 0.65501 0.56115 0.25634
 C124 C 0.91580 0.50439 0.77512
 H125 H 0.92259 0.50650 0.76042
 C126 C 0.92853 0.50267 0.79177
 H127 H 0.94482 0.50380 0.78923
 C128 C 0.88653 0.50218 0.79596
 H129 H 0.87016 0.50207 0.79763
 C130 C 0.89869 0.50068 0.81313
 H131 H 0.89106 0.49869 0.82750
 N132 N 0.89517 0.50319 0.77730
 C133 C 0.89476 0.51613 0.71645
 H134 H 0.88365 0.52817 0.71801
 C135 C 0.90819 0.51652 0.70003
 H136 H 0.90717 0.52876 0.68904
 C137 C 0.91024 0.48600 0.72900
 H138 H 0.91107 0.47424 0.74047
 C139 C 0.92424 0.48606 0.71304
 H140 H 0.93567 0.47418 0.71214
 Zn141 Zn 0.87850 0.50157 0.75373
 N142 N 0.89598 0.50103 0.73058
 C143 C 0.86477 0.54149 0.76364
 N144 N 0.86132 0.52483 0.75189
 C145 C 0.84709 0.52522 0.73708
 C146 C 0.83658 0.54327 0.73280
 C147 C 0.85441 0.55980 0.76001
 C148 C 0.86567 0.46167 0.74153
 C149 C 0.85625 0.44258 0.74419
 C150 C 0.83904 0.45579 0.77358
 C151 C 0.84864 0.47467 0.77024
 N152 N 0.86243 0.47703 0.75498
 H153 H 0.87630 0.54091 0.77519
 H154 H 0.84471 0.51179 0.72791
 H155 H 0.82585 0.54352 0.72047
 H156 H 0.85802 0.57317 0.76890
 H157 H 0.87604 0.46388 0.72902
 H158 H 0.85983 0.43028 0.73390
 H159 H 0.82866 0.45402 0.78624
 H160 H 0.84535 0.48730 0.78014
 C161 C 0.92330 0.50150 0.69836
 C162 C 0.92016 0.50009 0.81125
 C163 C 0.84328 0.43926 0.76080
 C164 C 0.84056 0.56100 0.74401
 C165 C 0.21976 0.40084 0.98516
 H166 H 0.23212 0.40439 0.97482
 C167 C 0.20043 0.40921 0.98202
 H168 H 0.19806 0.41935 0.96932
 C169 C 0.20757 0.38262 1.01375
 H170 H 0.21027 0.37193 1.02588
 C171 C 0.18809 0.39091 1.01137
 H172 H 0.17594 0.38641 1.02163
 N173 N 0.22275 0.38711 1.00030
 C174 C 0.28709 0.38733 0.98952
 H175 H 0.28686 0.37510 0.97863
 C176 C 0.30499 0.39877 0.99211
 H177 H 0.31839 0.39508 0.98324
 C178 C 0.27036 0.40616 1.01511
 H179 H 0.25691 0.40866 1.02431
 C180 C 0.28793 0.41791 1.01824
 H181 H 0.28774 0.42965 1.02970
 Zn182 Zn 0.24779 0.37236 1.00110
 N183 N 0.27045 0.39074 1.00142
 C184 C 0.26333 0.33912 0.97900
 N185 N 0.24945 0.35456 0.97851
 C186 C 0.23605 0.35629 0.96304
 C187 C 0.23643 0.34237 0.94718
 C188 C 0.26398 0.32461 0.96358
 C189 C 0.26145 0.35970 1.03983
 C190 C 0.26269 0.34653 1.05638
 C191 C 0.23761 0.32458 1.04088
 C192 C 0.23662 0.33833 1.02474
 N193 N 0.24850 0.35546 1.02445
 H194 H 0.27362 0.33786 0.99160
 H195 H 0.22478 0.36823 0.96300
 H196 H 0.22553 0.34389 0.93508
 H197 H 0.27500 0.31233 0.96424
 H198 H 0.27107 0.37314 1.03924
 H199 H 0.27322 0.35003 1.06840
 H200 H 0.22812 0.31096 1.04084
 H201 H 0.22660 0.33519 1.01224
 C202 C 0.30577 0.41386 1.00709
 C203 C 0.18417 0.40381 0.99491
 C204 C 0.25081 0.32862 1.05694
 C205 C 0.25040 0.32619 0.94742
 C206 C 0.79772 0.13405 0.99636
 H207 H 0.79398 0.15012 0.99509
 C208 C 0.81780 0.12776 0.99347
 H209 H 0.82925 0.13946 0.99084
 C210 C 0.78684 0.09990 1.00178
 H211 H 0.77458 0.08905 1.00434
 C212 C 0.80692 0.09288 0.99936
 H213 H 0.80951 0.07656 0.99998
 N214 N 0.78265 0.12019 1.00009
 C215 C 0.71919 0.11150 0.98866
 H216 H 0.71980 0.12123 0.97546
 C217 C 0.70137 0.10038 0.99298
 H218 H 0.68855 0.10160 0.98286
 C219 C 0.73425 0.10000 1.01895
 H220 H 0.74680 0.10064 1.02943
 C221 C 0.71680 0.08858 1.02379
 H222 H 0.71641 0.07994 1.03774
 Zn223 Zn 0.75601 0.13145 0.99974
 N224 N 0.73500 0.11147 1.00184
 C225 C 0.75733 0.13568 0.95779
 N226 N 0.75451 0.14624 0.97519
 C227 C 0.75398 0.16705 0.97526
 C228 C 0.75714 0.17806 0.95741
 C229 C 0.76041 0.14609 0.93957
 C230 C 0.73299 0.15733 1.02382
 C231 C 0.72789 0.16901 1.04064
 C232 C 0.76199 0.16393 1.05323
 C233 C 0.76642 0.15222 1.03616
 N234 N 0.75194 0.14915 1.02190
 H235 H 0.75818 0.11915 0.95824
 H236 H 0.75220 0.17517 0.98929
 H237 H 0.75723 0.19462 0.95784
 H238 H 0.76348 0.13744 0.92603
 H239 H 0.72165 0.15433 1.01243
 H240 H 0.71251 0.17483 1.04206
 H241 H 0.77375 0.16629 1.06435
 H242 H 0.78128 0.14530 1.03453
 C243 C 0.69975 0.08921 1.01107
 C244 C 0.82283 0.10681 0.99449
 C245 C 0.74242 0.17237 1.05573
 C246 C 0.76091 0.16757 0.93935
 C247 C 0.28976 0.62133 0.48012
 H248 H 0.28298 0.62943 0.46775
 C249 C 0.30999 0.61517 0.47822
 H250 H 0.31794 0.61820 0.46417
 C251 C 0.28773 0.60752 0.51304
 H252 H 0.27918 0.60500 0.52681
 C253 C 0.30819 0.60131 0.51188
 H254 H 0.31506 0.59398 0.52479
 N255 N 0.27894 0.61756 0.49732
 C256 C 0.21416 0.60903 0.48916
 H257 H 0.21285 0.62111 0.47811
 C258 C 0.19733 0.59635 0.49302
 H259 H 0.18343 0.59873 0.48464
 C260 C 0.23287 0.59290 0.51509
 H261 H 0.24642 0.59210 0.52418
 C262 C 0.21640 0.57990 0.51944
 H263 H 0.21774 0.56886 0.53156
 Zn264 Zn 0.25169 0.62829 0.49879
 N265 N 0.23141 0.60734 0.50036
 C266 C 0.24571 0.63628 0.45718
 N267 N 0.24759 0.64507 0.47564
 C268 C 0.24965 0.66568 0.47757
 C269 C 0.25112 0.67818 0.46052
 C270 C 0.24715 0.64822 0.43971
 C271 C 0.22854 0.65063 0.52575
 C272 C 0.22375 0.66185 0.54294
 C273 C 0.25923 0.66062 0.55246
 C274 C 0.26336 0.64935 0.53502
 N275 N 0.24802 0.64450 0.52216
 H276 H 0.24451 0.61982 0.45599
 H277 H 0.25134 0.67236 0.49234
 H278 H 0.25340 0.69448 0.46239
 H279 H 0.24686 0.64077 0.42519
 H280 H 0.21662 0.64654 0.51531
 H281 H 0.20803 0.66614 0.54565
 H282 H 0.27163 0.66450 0.56246
 H283 H 0.27879 0.64457 0.53178
 C284 C 0.19811 0.58191 0.50872
 C285 C 0.31970 0.60538 0.49433
 C286 C 0.23916 0.66699 0.55663
 C287 C 0.25059 0.66939 0.44125
 C288 C 0.72343 0.90611 0.48670
 H289 H 0.73652 0.91055 0.47763
 C290 C 0.70456 0.91538 0.48343
 H291 H 0.70329 0.92724 0.47207
 C292 C 0.70879 0.88414 0.51141
 H293 H 0.71033 0.87134 0.52166
 C294 C 0.68968 0.89324 0.50885
 H295 H 0.67667 0.88746 0.51730
 N296 N 0.72502 0.89028 0.49996
 C297 C 0.78943 0.88630 0.48766
 H298 H 0.78898 0.87354 0.47741
 C299 C 0.80770 0.89725 0.48998
 H300 H 0.82111 0.89261 0.48158
 C301 C 0.77295 0.90720 0.51176
 H302 H 0.75938 0.91101 0.52027
 C303 C 0.79086 0.91849 0.51458
 H304 H 0.79084 0.93097 0.52525
 Zn305 Zn 0.74894 0.87392 0.49917
 N306 N 0.77267 0.89104 0.49893
 C307 C 0.76164 0.84224 0.47205
 N308 N 0.74781 0.85740 0.47535
 C309 C 0.73238 0.86076 0.46210
 C310 C 0.73041 0.84877 0.44489
 C311 C 0.75987 0.82948 0.45525
 C312 C 0.75274 0.86628 0.54086
 C313 C 0.75555 0.85462 0.55832
 C314 C 0.75167 0.82402 0.53850
 C315 C 0.74879 0.83626 0.52144
 N316 N 0.74993 0.85702 0.52276
 H317 H 0.77372 0.83966 0.48277
 H318 H 0.72129 0.87255 0.46487
 H319 H 0.71793 0.85154 0.43463
 H320 H 0.77063 0.81715 0.45302
 H321 H 0.75325 0.88276 0.54174
 H322 H 0.75844 0.86233 0.57243
 H323 H 0.75099 0.80753 0.53706
 H324 H 0.74587 0.82907 0.50715
 C325 C 0.80873 0.91320 0.50404
 C326 C 0.68728 0.90853 0.49417
 C327 C 0.75547 0.83318 0.55721
 C328 C 0.74409 0.83280 0.44148
 C329 C 0.00138 0.27523 0.40943
 H330 H 0.01450 0.26546 0.41136
 C331 C -0.00263 0.29070 0.42326
 H332 H 0.00735 0.29272 0.43604
 C333 C -0.02698 0.28533 0.38975
 H334 H -0.03611 0.28346 0.37640
 C335 C -0.03125 0.30130 0.40297
 H336 H -0.04384 0.31152 0.39994
 N337 N -0.01081 0.27281 0.39314
 C338 C 0.00411 0.21269 0.36993
 H339 H 0.00542 0.21694 0.35421
 C340 C 0.00745 0.19256 0.37582
 H341 H 0.01065 0.18152 0.36414
 C342 C -0.00301 0.22229 0.40356
 H343 H -0.00717 0.23395 0.41428
 C344 C 0.00001 0.20218 0.41017
 H345 H -0.00126 0.19909 0.42614
 Zn346 Zn -0.00304 0.25391 0.37339
 N347 N -0.00038 0.22719 0.38380
 C348 C 0.03874 0.25059 0.36293
 N349 N 0.02213 0.26298 0.36252
 C350 C 0.02322 0.28214 0.35449
 C351 C 0.04112 0.28891 0.34504
 C352 C 0.05692 0.25674 0.35369
 C353 C -0.04097 0.24333 0.35896
 C354 C -0.05699 0.24176 0.34539
 C355 C -0.03627 0.25966 0.32067
 C356 C -0.02046 0.26047 0.33461
 N357 N -0.02324 0.25269 0.35345
 H358 H 0.03787 0.23574 0.37005
 H359 H 0.00995 0.29193 0.35494
 H360 H 0.04156 0.30396 0.33816
 H361 H 0.06962 0.24620 0.35328
 H362 H -0.04262 0.23705 0.37399
 H363 H -0.07081 0.23389 0.35007
 H364 H -0.03399 0.26667 0.30603
 H365 H -0.00615 0.26756 0.33039
 C366 C 0.00591 0.18692 0.39631
 C367 C -0.01891 0.30408 0.41986
 C368 C -0.05492 0.25028 0.32601
 C369 C 0.05811 0.27593 0.34416
 C370 C 0.01698 0.72669 0.09609
 H371 H 0.02364 0.74109 0.09134
 C372 C 0.02163 0.70895 0.08550
 H373 H 0.03188 0.70995 0.07268
 C374 C -0.00561 0.70828 0.11756
 H375 H -0.01641 0.70800 0.12987
 C376 C -0.00112 0.69010 0.10762
 H377 H -0.00824 0.67604 0.11281
 N378 N 0.00366 0.72608 0.11189
 C379 C -0.00541 0.79126 0.11448
 H380 H -0.00153 0.79391 0.13006
 C381 C -0.00877 0.80777 0.10163
 H382 H -0.00765 0.82316 0.10751
 C383 C -0.01220 0.76784 0.08816
 H384 H -0.01382 0.75222 0.08312
 C385 C -0.01553 0.78391 0.07472
 H386 H -0.01916 0.78048 0.05922
 Zn387 Zn -0.00171 0.75066 0.12588
 N388 N -0.00694 0.77182 0.10752
 C389 C 0.04001 0.75886 0.13221
 N390 N 0.02131 0.75815 0.14122
 C391 C 0.01890 0.76295 0.16101
 C392 C 0.03578 0.76769 0.17276
 C393 C 0.05732 0.76355 0.14339
 C394 C -0.04158 0.75847 0.13962
 C395 C -0.05830 0.75700 0.15262
 C396 C -0.03970 0.73237 0.17244
 C397 C -0.02338 0.73440 0.15903
 N398 N -0.02453 0.74738 0.14309
 H399 H 0.04159 0.75570 0.11637
 H400 H 0.00389 0.76315 0.16779
 H401 H 0.03359 0.77083 0.18862
 H402 H 0.07210 0.76391 0.13599
 H403 H -0.04216 0.76880 0.12689
 H404 H -0.07088 0.76713 0.14958
 H405 H -0.03808 0.72110 0.18424
 H406 H -0.00961 0.72565 0.16140
 C407 C -0.01367 0.80419 0.08139
 C408 C 0.01268 0.69027 0.09135
 C409 C -0.05776 0.74390 0.16969
 C410 C 0.05533 0.76775 0.16400
 C411 C 0.52415 0.22178 0.60221
 H412 H 0.53568 0.23369 0.60201
 C413 C 0.52645 0.20470 0.59005
 H414 H 0.53998 0.20338 0.58070
 C415 C 0.49259 0.20914 0.61488
 H416 H 0.47967 0.21071 0.62490
 C417 C 0.49417 0.19180 0.60278
 H418 H 0.48202 0.18051 0.60311
 N419 N 0.50706 0.22409 0.61365
 C420 C 0.50589 0.29007 0.61481
 H421 H 0.50701 0.29266 0.63083
 C422 C 0.50373 0.30657 0.60171
 H423 H 0.50308 0.32190 0.60781
 C424 C 0.50397 0.26673 0.58761
 H425 H 0.50338 0.25116 0.58227
 C426 C 0.50186 0.28281 0.57395
 H427 H 0.50025 0.27946 0.55809
 Zn428 Zn 0.50566 0.24948 0.62668
 N429 N 0.50589 0.27065 0.60761
 C430 C 0.54446 0.26375 0.63943
 N431 N 0.52850 0.25096 0.64339
 C432 C 0.52849 0.23803 0.65947
 C433 C 0.54478 0.23806 0.67278
 C434 C 0.56126 0.26406 0.65222
 C435 C 0.46316 0.24744 0.63557
 C436 C 0.44584 0.25092 0.64741
 C437 C 0.46713 0.26860 0.67132
 C438 C 0.48405 0.26400 0.65949
 N439 N 0.48190 0.25313 0.64226
 H440 H 0.54425 0.27357 0.62629
 H441 H 0.51566 0.22783 0.66199
 H442 H 0.54455 0.22776 0.68560
 H443 H 0.57389 0.27436 0.64906
 H444 H 0.46162 0.24017 0.62107
 H445 H 0.43130 0.24514 0.64227
 H446 H 0.46938 0.27777 0.68464
 H447 H 0.49892 0.26959 0.66385
 C448 C 0.50145 0.30301 0.58101
 C449 C 0.51100 0.18978 0.58971
 C450 C 0.44769 0.26147 0.66575
 C451 C 0.56137 0.25121 0.66920
 C452 C 0.50177 0.77605 0.90817
 H453 H 0.50674 0.76206 0.91529
 C454 C 0.50450 0.79465 0.91801
 H455 H 0.51130 0.79488 0.93283
 C456 C 0.48890 0.79322 0.87942
 H457 H 0.48373 0.79255 0.86400
 C458 C 0.49101 0.81212 0.88886
 H459 H 0.48736 0.82602 0.88073
 N460 N 0.49431 0.77571 0.88913
 C461 C 0.51504 0.71498 0.88262
 H462 H 0.52253 0.71771 0.86833
 C463 C 0.51981 0.69747 0.89354
 H464 H 0.53107 0.68703 0.88751
 C465 C 0.49014 0.72432 0.90690
 H466 H 0.47843 0.73482 0.91183
 C467 C 0.49451 0.70693 0.91842
 H468 H 0.48628 0.70424 0.93238
 Zn469 Zn 0.49496 0.75158 0.87381
 N470 N 0.50076 0.72824 0.88962
 C471 C 0.53541 0.75633 0.86165
 N472 N 0.51602 0.75537 0.85455
 C473 C 0.51216 0.75649 0.83449
 C474 C 0.52825 0.75689 0.82062
 C475 C 0.55195 0.75647 0.84833
 C476 C 0.45345 0.75880 0.86382
 C477 C 0.43618 0.75629 0.85192
 C478 C 0.45299 0.72829 0.83494
 C479 C 0.46979 0.73115 0.84734
 N480 N 0.47008 0.74680 0.86076
 H481 H 0.53801 0.75583 0.87771
 H482 H 0.49663 0.75668 0.82916
 H483 H 0.52488 0.75733 0.80469
 H484 H 0.56724 0.75579 0.85436
 H485 H 0.45376 0.77069 0.87507
 H486 H 0.42338 0.76655 0.85380
 H487 H 0.45332 0.71641 0.82363
 H488 H 0.48311 0.72159 0.84557
 C489 C 0.50972 0.69337 0.91183
 C490 C 0.49940 0.81293 0.90815
 C491 C 0.43618 0.74133 0.83684
 C492 C 0.54848 0.75615 0.82748
 C493 C -0.25252 0.63892 0.95914
 H494 H -0.25193 0.62239 0.95868
 C495 C -0.25593 0.65005 0.94143
 H496 H -0.25788 0.64192 0.92740
 C497 C -0.25212 0.66944 0.97824
 H498 H -0.25126 0.67697 0.99265
 C499 C -0.25554 0.68113 0.96094
 H500 H -0.25668 0.69760 0.96225
 N501 N -0.25087 0.64870 0.97710
 C502 C -0.23125 0.66107 1.02547
 H503 H -0.21965 0.65991 1.01385
 C504 C -0.22786 0.67341 1.04218
 H505 H -0.21324 0.68106 1.04307
 C506 C -0.26338 0.65066 1.03841
 H507 H -0.27713 0.64159 1.03690
 C508 C -0.26061 0.66278 1.05554
 H509 H -0.27287 0.66322 1.06650
 Zn510 Zn -0.25023 0.63271 1.00110
 N511 N -0.24877 0.65008 1.02381
 C512 C -0.21153 0.61730 0.98807
 N513 N -0.22652 0.61619 1.00233
 C514 C -0.22373 0.60571 1.01981
 C515 C -0.20503 0.59650 1.02389
 C516 C -0.19254 0.60821 0.99151
 C517 C -0.27480 0.59607 1.00294
 C518 C -0.29299 0.58511 1.00009
 C519 C -0.31034 0.61713 0.99434
 C520 C -0.29200 0.62746 0.99766
 N521 N -0.27461 0.61687 1.00142
 H522 H -0.21386 0.62615 0.97450
 H523 H -0.23575 0.60540 1.03107
 H524 H -0.20298 0.58869 1.03813
 H525 H -0.18047 0.61002 0.98041
 H526 H -0.26075 0.58791 1.00556
 H527 H -0.29289 0.56855 1.00061
 H528 H -0.32387 0.62573 0.99051
 H529 H -0.29138 0.64396 0.99629
 C530 C -0.24257 0.67454 1.05779
 C531 C -0.25787 0.67144 0.94225
 C532 C -0.31088 0.59571 0.99522
 C533 C -0.18893 0.59816 1.00989
 C534 C -0.24753 0.33070 0.51839
 H535 H -0.24717 0.32399 0.50359
 C536 C -0.24924 0.31847 0.53454
 H537 H -0.24993 0.30212 0.53216
 C538 C -0.24365 0.36043 0.53853
 H539 H -0.24150 0.37671 0.54015
 C540 C -0.24523 0.34755 0.55680
 H541 H -0.24516 0.35535 0.57111
 N542 N -0.24569 0.35250 0.52070
 C543 C -0.23215 0.35889 0.45965
 H544 H -0.22096 0.37075 0.46230
 C545 C -0.23064 0.34709 0.44220
 H546 H -0.21833 0.34993 0.43157
 C547 C -0.26147 0.34031 0.47027
 H548 H -0.27348 0.33774 0.48127
 C549 C -0.26019 0.32778 0.45328
 H550 H -0.27120 0.31555 0.45126
 Zn551 Zn -0.24757 0.37053 0.49792
 N552 N -0.24724 0.35519 0.47343
 C553 C -0.20739 0.38360 0.50711
 N554 N -0.22499 0.38883 0.49768
 C555 C -0.22626 0.40629 0.48655
 C556 C -0.20920 0.41901 0.48413
 C557 C -0.18998 0.39593 0.50515
 C558 C -0.28758 0.38395 0.48662
 C559 C -0.30649 0.39334 0.48998
 C560 C -0.29340 0.40690 0.52105
 C561 C -0.27472 0.39766 0.51686
 N562 N -0.27234 0.38570 0.50033
 H563 H -0.20662 0.36945 0.51556
 H564 H -0.24038 0.41000 0.47907
 H565 H -0.21043 0.43268 0.47495
 H566 H -0.17592 0.39111 0.51216
 H567 H -0.28536 0.37480 0.47329
 H568 H -0.31851 0.39068 0.47921
 H569 H -0.29451 0.41629 0.53438
 H570 H -0.26216 0.39990 0.52702
 C571 C -0.24453 0.33107 0.43912
 C572 C -0.24888 0.32723 0.55527
 C573 C -0.31001 0.40441 0.50787
 C574 C -0.19064 0.41371 0.49321
 C575 C 0.25381 -0.16733 0.01828
 H576 H 0.25432 -0.17417 0.00354
 C577 C 0.25159 -0.17941 0.03449
 H578 H 0.25065 -0.19576 0.03220
 C579 C 0.25795 -0.13753 0.03825
 H580 H 0.26042 -0.12129 0.03979
 C581 C 0.25583 -0.15027 0.05661
 H582 H 0.25585 -0.14238 0.07087
 N583 N 0.25601 -0.14554 0.02044
 C584 C 0.26943 -0.14153 -0.04079
 H585 H 0.28139 -0.13035 -0.03855
 C586 C 0.26992 -0.15384 -0.05796
 H587 H 0.28224 -0.15206 -0.06881
 C588 C 0.23916 -0.15796 -0.02936
 H589 H 0.22718 -0.15949 -0.01815
 C590 C 0.23937 -0.17093 -0.04605
 H591 H 0.22757 -0.18247 -0.04763
 Zn592 Zn 0.25478 -0.12782 -0.00271
 N593 N 0.25431 -0.14388 -0.02677
 C594 C 0.29518 -0.11538 0.00704
 N595 N 0.27817 -0.11038 -0.00353
 C596 C 0.27812 -0.09401 -0.01624
 C597 C 0.29585 -0.08234 -0.01922
 C598 C 0.31322 -0.10405 0.00459
 C599 C 0.21568 -0.11310 -0.01520
 C600 C 0.19665 -0.10379 -0.01234
 C601 C 0.20844 -0.09115 0.01958
 C602 C 0.22729 -0.10032 0.01589
 N603 N 0.23032 -0.11188 -0.00081
 H604 H 0.29504 -0.12868 0.01677
 H605 H 0.26447 -0.09043 -0.02459
 H606 H 0.29559 -0.06959 -0.02968
 H607 H 0.32678 -0.10876 0.01256
 H608 H 0.21842 -0.12185 -0.02870
 H609 H 0.18510 -0.10616 -0.02366
 H610 H 0.20676 -0.08218 0.03314
 H611 H 0.23937 -0.09848 0.02667
 C612 C 0.25496 -0.16897 -0.06050
 C613 C 0.25177 -0.17052 0.05516
 C614 C 0.19234 -0.09331 0.00573
 C615 C 0.31386 -0.08753 -0.00902
 C616 C 0.25100 1.17111 0.48126
 H617 H 0.25242 1.17796 0.49594
 C618 C 0.24907 1.18375 0.46440
 H619 H 0.24965 1.20018 0.46636
 C620 C 0.24807 1.14154 0.46098
 H621 H 0.24722 1.12504 0.45988
 C622 C 0.24587 1.15363 0.44371
 H623 H 0.24329 1.14623 0.42939
 N624 N 0.25036 1.15040 0.47932
 C625 C 0.26785 1.16014 0.52919
 H626 H 0.28031 1.15882 0.51850
 C627 C 0.27000 1.17257 0.54604
 H628 H 0.28425 1.18069 0.54827
 C629 C 0.23437 1.15064 0.53938
 H630 H 0.22057 1.14197 0.53669
 C631 C 0.23594 1.16284 0.55661
 H632 H 0.22317 1.16367 0.56702
 Zn633 Zn 0.24971 1.13333 0.50255
 N634 N 0.25017 1.14971 0.52601
 C635 C 0.28817 1.11758 0.48954
 N636 N 0.27318 1.11656 0.50381
 C637 C 0.27566 1.10555 0.52102
 C638 C 0.29401 1.09553 0.52474
 C639 C 0.30681 1.10770 0.49264
 C640 C 0.20822 1.12790 0.49604
 C641 C 0.19034 1.11734 0.49132
 C642 C 0.20764 1.08553 0.49824
 C643 C 0.22540 1.09671 0.50241
 N644 N 0.22541 1.11751 0.50103
 H645 H 0.28607 1.12679 0.47617
 H646 H 0.26363 1.10529 0.53227
 H647 H 0.29581 1.08721 0.53875
 H648 H 0.31889 1.10937 0.48153
 H649 H 0.20871 1.14441 0.49480
 H650 H 0.17699 1.12578 0.48661
 H651 H 0.20792 1.06897 0.49879
 H652 H 0.23929 1.08870 0.50602
 C653 C 0.25390 1.17415 0.55998
 C654 C 0.24605 1.17508 0.44532
 C655 C 0.19003 1.09590 0.49211
 C656 C 0.31008 1.09695 0.51069
 C657 C 0.15410 0.48009 0.26346
 H658 H 0.15761 0.49432 0.27097
 C659 C 0.16655 0.46302 0.26635
 H660 H 0.17985 0.46437 0.27584
 C661 C 0.13192 0.46079 0.24278
 H662 H 0.11796 0.45980 0.23426
 C663 C 0.14400 0.44338 0.24519
 H664 H 0.13923 0.42914 0.23836
 N665 N 0.13695 0.47858 0.25215
 C666 C 0.12921 0.54110 0.26441
 H667 H 0.12055 0.53788 0.27795
 C668 C 0.13683 0.56090 0.26110
 H669 H 0.13374 0.57273 0.27205
 C670 C 0.14338 0.52993 0.23351
 H671 H 0.14612 0.51783 0.22285
 C672 C 0.15108 0.54951 0.22950
 H673 H 0.15960 0.55226 0.21571
 Zn674 Zn 0.11800 0.50050 0.25252
 N675 N 0.13197 0.52622 0.25034
 C676 C 0.08771 0.51263 0.28126
 N677 N 0.10284 0.49896 0.27730
 C678 C 0.10710 0.48363 0.29057
 C679 C 0.09572 0.48135 0.30833
 C680 C 0.07562 0.51059 0.29861
 C681 C 0.10839 0.49670 0.21122
 C682 C 0.09618 0.49798 0.19408
 C683 C 0.06673 0.50113 0.21574
 C684 C 0.07952 0.49947 0.23239
 N685 N 0.10007 0.49825 0.22995
 H686 H 0.08469 0.52487 0.27069
 H687 H 0.11910 0.47286 0.28731
 H688 H 0.09906 0.46886 0.31854
 H689 H 0.06328 0.52122 0.30129
 H690 H 0.12466 0.49487 0.20946
 H691 H 0.10402 0.49796 0.17972
 H692 H 0.05052 0.50172 0.21875
 H693 H 0.07284 0.49951 0.24726
 C694 C 0.14736 0.56544 0.24313
 C695 C 0.16129 0.44421 0.25754
 C696 C 0.07487 0.50118 0.19591
 C697 C 0.07954 0.49470 0.31229
 C698 C -0.15022 1.02920 0.24443
 H699 H -0.16044 1.01617 0.24385
 C700 C -0.15815 1.04893 0.24697
 H701 H -0.17450 1.05099 0.24827
 C702 C -0.11646 1.04236 0.24473
 H703 H -0.10019 1.03960 0.24425
 C704 C -0.12368 1.06220 0.24746
 H705 H -0.11287 1.07469 0.24876
 N706 N -0.12967 1.02631 0.24360
 C707 C -0.13542 0.96397 0.26024
 H708 H -0.12553 0.96638 0.27296
 C709 C -0.14557 0.94521 0.25822
 H710 H -0.14355 0.93347 0.26957
 C711 C -0.14828 0.97536 0.22889
 H712 H -0.14851 0.98685 0.21711
 C713 C -0.15854 0.95681 0.22621
 H714 H -0.16706 0.95433 0.21251
 Zn715 Zn -0.11731 1.00011 0.24391
 N716 N -0.13648 0.97834 0.24537
 C717 C -0.10792 1.00375 0.28485
 N718 N -0.09974 0.99973 0.26642
 C719 C -0.07927 0.99733 0.26388
 C720 C -0.06617 0.99899 0.28027
 C721 C -0.09536 1.00559 0.30166
 C722 C -0.09993 1.00956 0.20516
 C723 C -0.08895 1.00487 0.18763
 C724 C -0.08265 0.97117 0.20120
 C725 C -0.09374 0.97652 0.21835
 N726 N -0.10195 0.99546 0.22013
 H727 H -0.12421 1.00601 0.28637
 H728 H -0.07296 0.99461 0.24908
 H729 H -0.04993 0.99697 0.27792
 H730 H -0.10213 1.00932 0.31609
 H731 H -0.10681 1.02447 0.20676
 H732 H -0.08711 1.01684 0.17647
 H733 H -0.07715 0.95564 0.20029
 H734 H -0.09601 0.96542 0.23030
 C735 C -0.15662 0.94116 0.24063
 C736 C -0.14475 1.06565 0.24901
 C737 C -0.07991 0.98538 0.18530
 C738 C -0.07414 1.00340 0.29945
 C739 C 0.35460 0.52503 -0.23239
 H740 H 0.35377 0.51304 -0.22111
 C741 C 0.34516 0.54375 -0.22885
 H742 H 0.33676 0.54595 -0.21493
 C743 C 0.36743 0.53692 -0.26381
 H744 H 0.37677 0.53441 -0.27704
 C745 C 0.35806 0.55593 -0.26092
 H746 H 0.36014 0.56791 -0.27207
 N747 N 0.36579 0.52208 -0.24943
 C748 C 0.37336 0.45464 -0.24504
 H749 H 0.38944 0.45360 -0.24159
 C750 C 0.36211 0.43756 -0.24648
 H751 H 0.36948 0.42294 -0.24427
 C752 C 0.34528 0.47603 -0.25344
 H753 H 0.33899 0.49090 -0.25683
 C754 C 0.33246 0.45759 -0.25594
 H755 H 0.31667 0.45974 -0.26008
 Zn756 Zn 0.38148 0.49782 -0.24962
 N757 N 0.36438 0.47436 -0.24851
 C758 C 0.39792 0.48651 -0.21109
 N759 N 0.39864 0.49984 -0.22687
 C760 C 0.41107 0.51655 -0.22660
 C761 C 0.42381 0.52017 -0.21026
 C762 C 0.41052 0.48948 -0.19444
 C763 C 0.38764 0.49449 -0.29134
 C764 C 0.39853 0.49045 -0.30904
 C765 C 0.42939 0.48839 -0.28948
 C766 C 0.41794 0.49252 -0.27217
 N767 N 0.39743 0.49541 -0.27337
 H768 H 0.38742 0.47373 -0.21120
 H769 H 0.41095 0.52720 -0.23912
 H770 H 0.43333 0.53375 -0.21030
 H771 H 0.40998 0.47851 -0.18218
 H772 H 0.37126 0.49638 -0.29181
 H773 H 0.39039 0.48929 -0.32312
 H774 H 0.44569 0.48609 -0.28818
 H775 H 0.42539 0.49275 -0.25773
 C776 C 0.34038 0.43878 -0.25285
 C777 C 0.34724 0.55967 -0.24297
 C778 C 0.41967 0.48707 -0.30821
 C779 C 0.42373 0.50650 -0.19389
 C780 C 0.65056 -0.02969 -0.25194
 H781 H 0.66121 -0.01739 -0.25518
 C782 C 0.65734 -0.04897 -0.24952
 H783 H 0.67357 -0.05180 -0.25052
 C784 C 0.61596 -0.03996 -0.24679
 H785 H 0.59990 -0.03638 -0.24565
 C786 C 0.62267 -0.06109 -0.24349
 H787 H 0.61092 -0.07250 -0.24088
 N788 N 0.62912 -0.02535 -0.25006
 C789 C 0.62759 0.03598 -0.27210
 H790 H 0.61363 0.03291 -0.28003
 C791 C 0.63824 0.05381 -0.27676
 H792 H 0.63180 0.06365 -0.28817
 C793 C 0.65055 0.02814 -0.24596
 H794 H 0.65506 0.01815 -0.23376
 C795 C 0.66164 0.04624 -0.24992
 H796 H 0.67496 0.04946 -0.24094
 Zn797 Zn 0.61626 0.00059 -0.25138
 N798 N 0.63392 0.02328 -0.25717
 C799 C 0.58927 0.02076 -0.22432
 N800 N 0.60311 0.00541 -0.22621
 C801 C 0.60754 -0.00701 -0.21034
 C802 C 0.59676 -0.00535 -0.19224
 C803 C 0.57783 0.02273 -0.20657
 C804 C 0.60539 -0.00484 -0.29124
 C805 C 0.59356 -0.00285 -0.30851
 C806 C 0.56428 0.00389 -0.28730
 C807 C 0.57674 0.00189 -0.27041
 N808 N 0.59710 -0.00143 -0.27273
 H809 H 0.58653 0.03095 -0.23688
 H810 H 0.61918 -0.01857 -0.21177
 H811 H 0.59989 -0.01596 -0.18010
 H812 H 0.56619 0.03440 -0.20556
 H813 H 0.62159 -0.00769 -0.29265
 H814 H 0.60089 -0.00416 -0.32310
 H815 H 0.54823 0.00717 -0.28520
 H816 H 0.57019 0.00368 -0.25557
 C817 C 0.65570 0.05943 -0.26578
 C818 C 0.64268 -0.06585 -0.24428
 C819 C 0.57283 0.00228 -0.30671
 C820 C 0.58126 0.00924 -0.19044
 C821 C 0.04127 0.27002 0.87023
 H822 H 0.03582 0.28119 0.88091
 C823 C 0.06163 0.27054 0.86402
 H824 H 0.07173 0.28231 0.86971
 C825 C 0.03544 0.23993 0.85117
 H826 H 0.02531 0.22756 0.84699
 C827 C 0.05556 0.24014 0.84425
 H828 H 0.06093 0.22797 0.83457
 N829 N 0.02874 0.25471 0.86393
 C830 C -0.03709 0.24688 0.86343
 H831 H -0.03993 0.24630 0.87949
 C832 C -0.05324 0.24491 0.85007
 H833 H -0.06850 0.24243 0.85598
 C834 C -0.01356 0.25051 0.83633
 H835 H 0.00187 0.25311 0.83108
 C836 C -0.02929 0.24868 0.82241
 H837 H -0.02579 0.24980 0.80649
 Zn838 Zn 0.00288 0.25120 0.87578
 N839 N -0.01769 0.24914 0.85639
 C840 C -0.00494 0.29231 0.88354
 N841 N -0.00350 0.27353 0.89228
 C842 C -0.00720 0.27069 0.91226
 C843 C -0.01207 0.28727 0.92444
 C844 C -0.00973 0.30935 0.89518
 C845 C -0.00918 0.21156 0.88987
 C846 C -0.00771 0.19455 0.90253
 C847 C 0.02214 0.20982 0.91764
 C848 C 0.01998 0.22657 0.90484
 N849 N 0.00434 0.22730 0.89155
 H850 H -0.00225 0.29400 0.86753
 H851 H -0.00645 0.25556 0.91882
 H852 H -0.01455 0.28480 0.94041
 H853 H -0.01083 0.32422 0.88803
 H854 H -0.02123 0.21221 0.87890
 H855 H -0.01897 0.18245 0.90142
 H856 H 0.03479 0.20952 0.92804
 H857 H 0.03069 0.23919 0.90560
 C858 C -0.04940 0.24563 0.82926
 C859 C 0.06893 0.25532 0.85111
 C860 C 0.00802 0.19363 0.91678
 C861 C -0.01329 0.30691 0.91592
 C862 C 0.46485 0.25853 0.15492
 H863 H 0.47313 0.27238 0.15852
 C864 C 0.44638 0.25410 0.16467
 H865 H 0.44093 0.26444 0.17616
 C866 C 0.46227 0.22818 0.13573
 H867 H 0.46828 0.21828 0.12416
 C868 C 0.44353 0.22347 0.14461
 H869 H 0.43538 0.21006 0.13949
 N870 N 0.47265 0.24530 0.14117
 C871 C 0.53810 0.25668 0.13871
 H872 H 0.54020 0.25720 0.12255
 C873 C 0.55506 0.25612 0.15126
 H874 H 0.57017 0.25617 0.14456
 C875 C 0.51575 0.25393 0.16682
 H876 H 0.50051 0.25219 0.17285
 C877 C 0.53226 0.25357 0.17993
 H878 H 0.52940 0.25222 0.19596
 Zn879 Zn 0.49763 0.25109 0.12806
 N880 N 0.51894 0.25522 0.14660
 C881 C 0.50578 0.29114 0.11355
 N882 N 0.49382 0.27421 0.11167
 C883 C 0.47802 0.27365 0.09855
 C884 C 0.47399 0.29047 0.08626
 C885 C 0.50233 0.30830 0.10149
 C886 C 0.51098 0.21176 0.12419
 C887 C 0.51685 0.19361 0.11508
 C888 C 0.51044 0.20903 0.08258
 C889 C 0.50496 0.22715 0.09237
 N890 N 0.50518 0.22804 0.11284
 H891 H 0.51800 0.29137 0.12437
 H892 H 0.46851 0.26011 0.09771
 H893 H 0.46128 0.28978 0.07595
 H894 H 0.51232 0.32146 0.10282
 H895 H 0.51091 0.21292 0.14044
 H896 H 0.52124 0.18073 0.12439
 H897 H 0.51014 0.20831 0.06629
 H898 H 0.50043 0.24034 0.08365
 C899 C 0.55226 0.25403 0.17216
 C900 C 0.43543 0.23630 0.15957
 C901 C 0.51658 0.19208 0.09405
 C902 C 0.48632 0.30804 0.08754
 C903 C -0.03142 0.77181 0.64650
 H904 H -0.02079 0.78423 0.64361
 C905 C -0.04763 0.77476 0.65835
 H906 H -0.05007 0.78992 0.66435
 C907 C -0.04096 0.73729 0.63955
 H908 H -0.03826 0.72282 0.63221
 C909 C -0.05924 0.73986 0.65241
 H910 H -0.06897 0.72663 0.65470
 N911 N -0.02797 0.75226 0.63741
 C912 C 0.03770 0.75009 0.63011
 H913 H 0.03922 0.74824 0.61399
 C914 C 0.05486 0.74859 0.64237
 H915 H 0.06961 0.74559 0.63559
 C916 C 0.01631 0.75459 0.65869
 H917 H 0.00124 0.75621 0.66512
 C918 C 0.03300 0.75324 0.67146
 H919 H 0.03060 0.75437 0.68757
 Zn920 Zn -0.00411 0.75035 0.62175
 N921 N 0.01888 0.75276 0.63845
 C922 C 0.00934 0.78666 0.60224
 N923 N -0.00519 0.77176 0.60295
 C924 C -0.02252 0.77307 0.59193
 C925 C -0.02602 0.79014 0.57985
 C926 C 0.00653 0.80396 0.59021
 C927 C 0.00128 0.70865 0.62172
 C928 C 0.00602 0.68951 0.61391
 C929 C 0.00274 0.70352 0.58033
 C930 C -0.00174 0.72254 0.58882
 N931 N -0.00214 0.72472 0.60918
 H932 H 0.02280 0.78548 0.61146
 H933 H -0.03400 0.76116 0.59321
 H934 H -0.04029 0.79123 0.57181
 H935 H 0.01824 0.81571 0.58983
 H936 H 0.00110 0.71094 0.63784
 H937 H 0.00919 0.67696 0.62411
 H938 H 0.00367 0.70203 0.56411
 H939 H -0.00413 0.73566 0.57917
 C940 C 0.05249 0.74968 0.66336
 C941 C -0.06247 0.75776 0.66205
 C942 C 0.00719 0.68691 0.59299
 C943 C -0.01151 0.80601 0.57909
 C944 C 0.52059 0.76841 0.34656
 H945 H 0.50829 0.77939 0.34685
 C946 C 0.53735 0.77159 0.33391
 H947 H 0.53796 0.78526 0.32465
 C948 C 0.53487 0.73757 0.35888
 H949 H 0.53400 0.72450 0.36882
 C950 C 0.55184 0.74004 0.34630
 H951 H 0.56362 0.72848 0.34637
 N952 N 0.51951 0.75147 0.35846
 C953 C 0.45439 0.74269 0.36730
 H954 H 0.45311 0.74386 0.38350
 C955 C 0.43707 0.73888 0.35579
 H956 H 0.42240 0.73709 0.36321
 C957 C 0.47527 0.74292 0.33797
 H958 H 0.49021 0.74417 0.33111
 C959 C 0.45840 0.73901 0.32592
 H960 H 0.46047 0.73774 0.30978
 Zn961 Zn 0.49591 0.74885 0.37454
 N962 N 0.47296 0.74480 0.35824
 C963 C 0.47737 0.78563 0.38829
 N964 N 0.49380 0.77305 0.38947
 C965 C 0.50975 0.77726 0.40178
 C966 C 0.50893 0.79392 0.41470
 C967 C 0.47611 0.80276 0.40071
 C968 C 0.50019 0.70733 0.38430
 C969 C 0.50272 0.69046 0.39697
 C970 C 0.49873 0.71281 0.42562
 C971 C 0.49631 0.72920 0.41243
 N972 N 0.49774 0.72632 0.39220
 H973 H 0.46514 0.78226 0.37798
 H974 H 0.52278 0.76714 0.40205
 H975 H 0.52135 0.79676 0.42501
 H976 H 0.46281 0.81252 0.40013
 H977 H 0.50069 0.70540 0.36813
 H978 H 0.50546 0.67556 0.39045
 H979 H 0.49771 0.71542 0.44169
 H980 H 0.49331 0.74420 0.41846
 C981 C 0.43903 0.73692 0.33483
 C982 C 0.55315 0.75717 0.33348
 C983 C 0.50237 0.69322 0.41792
 C984 C 0.49184 0.80663 0.41435
 Zr985 Zr 0.01333 -0.02523 1.02018
 O986 O 0.03130 -0.02216 1.04641
 O987 O 0.00496 -0.05625 1.02220
 O988 O -0.00362 -0.02892 1.04711
 O989 O 0.05475 -0.03027 0.98747
 O990 O -0.03088 -0.00776 1.04325
 O991 O 0.04194 -0.03981 1.01814
 O992 O -0.01708 -0.06049 0.99616
 O993 O -0.01714 -0.02492 1.01099
 O994 O 0.01359 -0.03407 0.98998
 O995 O 0.00326 0.00484 1.02515
 O996 O 0.03275 -0.00413 1.00524
 Zr997 Zr -0.00884 0.01838 0.96923
 Zr998 Zr -0.02676 0.00536 1.01453
 Zr999 Zr 0.03138 -0.01233 0.97474
 Zr1000 Zr -0.01658 -0.03247 0.98050
 O1001 O 0.05993 0.00255 0.97102
 O1002 O -0.04751 -0.04033 0.98639
 O1003 O 0.00138 -0.01172 0.96385
 O1004 O -0.02794 -0.00282 0.98412
 O1005 O -0.00901 0.02734 0.99940
 O1006 O 0.02162 0.01781 0.97838
 C1007 C -0.00767 -0.06699 1.01184
 C1008 C 0.05617 -0.03943 1.00462
 C1009 C -0.02023 -0.02056 1.05348
 O1010 O -0.05618 -0.00809 1.01576
 O1011 O -0.04824 0.02640 1.00350
 O1012 O -0.03544 0.03616 0.97290
 C1013 C -0.04892 0.03696 0.98712
 O1014 O 0.04069 0.02203 1.03397
 Zr1015 Zr 0.02126 0.02558 1.00871
 O1016 O -0.00051 0.04935 0.96705
 O1017 O -0.03061 0.02882 1.03607
 O1018 O 0.01083 0.04603 1.03123
 O1019 O 0.05105 0.03594 1.00103
 O1020 O 0.01810 0.05468 0.99541
 C1021 C 0.00941 0.06092 0.97922
 O1022 O -0.02874 0.01552 0.94439
 O1023 O 0.03642 -0.03746 0.95536
 O1024 O 0.00654 0.02004 0.94130
 O1025 O 0.03316 -0.00204 0.94465
 O1026 O -0.00582 -0.05511 0.96030
 O1027 O -0.03239 -0.03002 0.95277
 C1028 C 0.02220 0.01045 0.93432
 H1029 H 0.01926 -0.04795 0.98804
 H1030 H -0.04203 -0.00221 0.97887
 H1031 H 0.03038 0.02730 0.97047
 H1032 H 0.00393 0.00842 1.03960
 H1033 H -0.04986 -0.05425 0.98099
 H1034 H -0.06408 -0.00044 1.02603
 H1035 H -0.04489 0.02784 1.04103
 H1036 H 0.02051 0.05772 1.03157
 H1037 H -0.01606 -0.06633 0.96020
 H1038 H 0.05060 -0.03614 0.95021
 H1039 H 0.06766 -0.00533 0.96082
 H1040 H 0.05276 0.04976 1.00690
 H1041 H -0.03991 -0.04291 0.95018
 H1042 H -0.02918 0.02904 0.93754
 H1043 H 0.03195 -0.03581 1.05300
 H1044 H 0.04617 0.03556 1.03794
 Zr1045 Zr 0.51329 0.47706 0.52593
 O1046 O 0.53155 0.48079 0.55187
 O1047 O 0.50556 0.44594 0.52828
 O1048 O 0.49665 0.47348 0.55306
 O1049 O 0.55403 0.47133 0.49258
 O1050 O 0.46928 0.49451 0.54934
 O1051 O 0.54186 0.46251 0.52371
 O1052 O 0.48342 0.44093 0.50245
 O1053 O 0.48266 0.47701 0.51725
 O1054 O 0.51309 0.46778 0.49586
 O1055 O 0.50317 0.50715 0.53060
 O1056 O 0.53241 0.49797 0.51038
 Zr1057 Zr 0.49014 0.51966 0.47467
 Zr1058 Zr 0.47298 0.50733 0.52044
 Zr1059 Zr 0.53057 0.48927 0.48004
 Zr1060 Zr 0.48276 0.46900 0.48687
 O1061 O 0.55906 0.50415 0.47587
 O1062 O 0.45217 0.46089 0.49403
 O1063 O 0.50039 0.48953 0.46961
 O1064 O 0.47134 0.49866 0.49018
 O1065 O 0.49042 0.52913 0.50469
 O1066 O 0.52074 0.51940 0.48335
 C1067 C 0.49337 0.43472 0.51791
 C1068 C 0.55574 0.46245 0.50985
 C1069 C 0.48007 0.48180 0.55955
 O1070 O 0.44356 0.49392 0.52223
 O1071 O 0.45134 0.52823 0.50946
 O1072 O 0.46373 0.53764 0.47858
 C1073 C 0.45051 0.53865 0.49300
 O1074 O 0.54044 0.52483 0.53876
 Zr1075 Zr 0.52084 0.52769 0.51355
 O1076 O 0.49836 0.55057 0.47180
 O1077 O 0.46939 0.53101 0.54178
 O1078 O 0.51039 0.54866 0.53557
 O1079 O 0.55063 0.53778 0.50553
 O1080 O 0.51783 0.55645 0.49947
 C1081 C 0.50879 0.56235 0.48334
 O1082 O 0.46974 0.51630 0.45030
 O1083 O 0.53539 0.46398 0.46081
 O1084 O 0.50501 0.52089 0.44644
 O1085 O 0.53192 0.49917 0.44983
 O1086 O 0.49309 0.44646 0.46635
 O1087 O 0.46598 0.47093 0.45966
 C1088 C 0.52069 0.51135 0.43944
 H1089 H 0.51884 0.45394 0.49392
 H1090 H 0.45715 0.49916 0.48517
 H1091 H 0.52939 0.52875 0.47515
 H1092 H 0.50401 0.51094 0.54499
 H1093 H 0.44980 0.44684 0.48897
 H1094 H 0.43582 0.50168 0.53253
 H1095 H 0.45518 0.53007 0.54694
 H1096 H 0.51999 0.56043 0.53555
 H1097 H 0.48297 0.43513 0.46654
 H1098 H 0.54951 0.46525 0.45548
 H1099 H 0.56667 0.49619 0.46565
 H1100 H 0.55243 0.55172 0.51109
 H1101 H 0.45822 0.45807 0.45767
 H1102 H 0.46914 0.52968 0.44321
 H1103 H 0.53246 0.46726 0.55866
 H1104 H 0.54572 0.53850 0.54250
 Zr1105 Zr 0.48550 1.01929 0.52630
 O1106 O 0.46702 1.01419 0.55218
 O1107 O 0.49312 1.05035 0.52970
 O1108 O 0.50190 1.02198 0.55334
 O1109 O 0.44455 1.02531 0.49398
 O1110 O 0.52956 1.00143 0.54883
 O1111 O 0.45703 1.03404 0.52474
 O1112 O 0.51430 1.05679 0.50303
 O1113 O 0.51608 1.02030 0.51702
 O1114 O 0.48529 1.02954 0.49648
 O1115 O 0.49630 0.98927 0.53004
 O1116 O 0.46675 0.99842 0.51070
 Zr1117 Zr 0.50934 0.97897 0.47346
 Zr1118 Zr 0.52643 0.99010 0.51933
 Zr1119 Zr 0.46819 1.00814 0.48057
 Zr1120 Zr 0.51554 1.02931 0.48683
 O1121 O 0.44003 0.99266 0.47688
 O1122 O 0.54596 1.03806 0.49346
 O1123 O 0.49827 1.00898 0.46943
 O1124 O 0.52763 0.99991 0.48925
 O1125 O 0.50952 0.96842 0.50326
 O1126 O 0.47881 0.97816 0.48285
 C1127 C 0.50478 1.06218 0.51911
 C1128 C 0.44304 1.03421 0.51121
 C1129 C 0.51842 1.01348 0.55952
 O1130 O 0.55534 1.00445 0.52139
 O1131 O 0.54882 0.97058 0.50721
 O1132 O 0.53725 0.96302 0.47579
 C1133 C 0.55062 0.96188 0.48993
 O1134 O 0.45925 0.97051 0.53823
 Zr1135 Zr 0.47911 0.96889 0.51284
 O1136 O 0.50205 0.94784 0.47023
 O1137 O 0.53078 0.96539 0.53952
 O1138 O 0.48991 0.94770 0.53453
 O1139 O 0.44974 0.95800 0.50480
 O1140 O 0.48333 0.94061 0.49846
 C1141 C 0.49232 0.93545 0.48200
 O1142 O 0.52890 0.98351 0.44827
 O1143 O 0.46256 1.03384 0.46194
 O1144 O 0.49404 0.97836 0.44558
 O1145 O 0.46664 0.99925 0.45022
 O1146 O 0.50447 1.05222 0.46704
 O1147 O 0.53216 1.02860 0.45923
 C1148 C 0.47801 0.98772 0.43923
 H1149 H 0.47930 1.04333 0.49497
 H1150 H 0.54179 1.00017 0.48397
 H1151 H 0.47038 0.96882 0.47462
 H1152 H 0.49553 0.98490 0.54431
 H1153 H 0.54791 1.05230 0.48859
 H1154 H 0.56332 0.99644 0.53127
 H1155 H 0.54492 0.96657 0.54461
 H1156 H 0.48061 0.93569 0.53444
 H1157 H 0.51432 1.06377 0.46724
 H1158 H 0.44839 1.03244 0.45701
 H1159 H 0.43203 1.00079 0.46711
 H1160 H 0.44839 0.94385 0.51010
 H1161 H 0.53949 1.04176 0.45728
 H1162 H 0.52972 0.97033 0.44092
 H1163 H 0.46592 1.02739 0.55945
 H1164 H 0.45416 0.95662 0.54165
 Zr1165 Zr -0.01455 0.51899 1.03041
 O1166 O -0.03461 0.51494 1.05531
 O1167 O -0.00445 0.54915 1.03506
 O1168 O 0.00065 0.51938 1.05828
 O1169 O -0.05323 0.52903 0.99634
 O1170 O 0.02716 0.49725 1.05425
 O1171 O -0.04183 0.53593 1.02795
 O1172 O 0.01984 0.55371 1.01069
 O1173 O 0.01639 0.51754 1.02253
 O1174 O -0.01240 0.53008 1.00092
 O1175 O -0.00634 0.48808 1.03383
 O1176 O -0.03409 0.50019 1.01336
 Zr1177 Zr 0.00842 0.47806 0.97766
 Zr1178 Zr 0.02423 0.48657 1.02446
 Zr1179 Zr -0.03034 0.51054 0.98359
 Zr1180 Zr 0.01815 0.52744 0.99265
 O1181 O -0.05955 0.49787 0.97806
 O1182 O 0.04921 0.53291 0.99972
 O1183 O 0.00018 0.50905 0.97387
 O1184 O 0.02759 0.49703 0.99475
 O1185 O 0.00633 0.46674 1.00714
 O1186 O -0.02243 0.47973 0.98566
 C1187 C 0.00979 0.55958 1.02629
 C1188 C -0.05509 0.53743 1.01376
 C1189 C 0.01639 0.50973 1.06484
 O1190 O 0.05406 0.49846 1.02815
 O1191 O 0.04576 0.46586 1.01262
 O1192 O 0.03471 0.45979 0.98072
 C1193 C 0.04755 0.45746 0.99517
 O1194 O -0.04467 0.47212 1.04033
 Zr1195 Zr -0.02435 0.46969 1.01536
 O1196 O -0.00134 0.44771 0.97332
 O1197 O 0.02558 0.46111 1.04418
 O1198 O -0.01591 0.44670 1.03631
 O1199 O -0.05445 0.46213 1.00638
 O1200 O -0.02298 0.44185 0.99973
 C1201 C -0.01352 0.43620 0.98370
 O1202 O 0.02943 0.48150 0.95346
 O1203 O -0.03250 0.53712 0.96543
 O1204 O -0.00554 0.47929 0.94916
 O1205 O -0.03145 0.50215 0.95304
 O1206 O 0.00976 0.55249 0.97410
 O1207 O 0.03508 0.52622 0.96526
 C1208 C -0.02056 0.48988 0.94236
 H1209 H -0.01709 0.54441 0.99970
 H1210 H 0.04192 0.49625 0.99002
 H1211 H -0.03130 0.47141 0.97685
 H1212 H -0.00809 0.48342 1.04794
 H1213 H 0.05262 0.54703 0.99528
 H1214 H 0.06094 0.48957 1.03813
 H1215 H 0.03953 0.46099 1.04986
 H1216 H -0.02616 0.43554 1.03547
 H1217 H 0.02061 0.56302 0.97528
 H1218 H -0.04645 0.53719 0.95978
 H1219 H -0.06626 0.50694 0.96814
 H1220 H -0.05743 0.44807 1.01127
 H1221 H 0.04316 0.53897 0.96359
 H1222 H 0.02950 0.46848 0.94580
 H1223 H -0.03492 0.52803 1.06284
 H1224 H -0.05068 0.45852 1.04339
 Zr1225 Zr -0.01210 0.48115 0.47916
 O1226 O -0.02882 0.49362 0.45485
 O1227 O -0.01393 0.44950 0.47284
 O1228 O 0.00273 0.47787 0.45109
 O1229 O -0.05268 0.48058 0.51322
 O1230 O 0.03497 0.48993 0.45622
 O1231 O -0.04346 0.47417 0.48067
 O1232 O 0.00487 0.43518 0.49798
 O1233 O 0.01743 0.47163 0.48640
 O1234 O -0.01435 0.46805 0.50785
 O1235 O 0.00589 0.50794 0.47816
 O1236 O -0.02465 0.50404 0.49793
 Zr1237 Zr 0.02207 0.50767 0.53455
 Zr1238 Zr 0.03508 0.49855 0.48680
 Zr1239 Zr -0.02537 0.49078 0.52677
 Zr1240 Zr 0.01517 0.45965 0.51555
 O1241 O -0.04890 0.51199 0.53283
 O1242 O 0.04159 0.44459 0.50464
 O1243 O 0.00369 0.48116 0.53600
 O1244 O 0.03441 0.48521 0.51555
 O1245 O 0.02442 0.52146 0.50614
 O1246 O -0.00738 0.51719 0.52717
 C1247 C -0.00669 0.43401 0.48249
 C1248 C -0.05668 0.47491 0.49509
 C1249 C 0.02085 0.48261 0.44490
 O1250 O 0.05984 0.47840 0.48228
 O1251 O 0.06141 0.51190 0.49947
 O1252 O 0.05262 0.51763 0.53224
 C1253 C 0.06537 0.51825 0.51738
 O1254 O -0.02461 0.53663 0.47386
 Zr1255 Zr -0.00519 0.52978 0.49846
 O1256 O 0.02336 0.53873 0.54167
 O1257 O 0.04493 0.52322 0.46834
 O1258 O 0.01104 0.55021 0.47922
 O1259 O -0.03116 0.54601 0.50878
 O1260 O 0.00558 0.55418 0.51648
 C1261 C 0.01639 0.55462 0.53263
 O1262 O 0.04045 0.49499 0.55751
 O1263 O -0.03673 0.46552 0.54355
 O1264 O 0.00805 0.50867 0.56324
 O1265 O -0.02431 0.49696 0.55780
 O1266 O 0.00014 0.43804 0.53449
 O1267 O 0.03279 0.45313 0.54154
 C1268 C -0.01003 0.50360 0.56931
 H1269 H -0.02378 0.45620 0.50862
 H1270 H 0.04823 0.48113 0.51989
 H1271 H -0.01304 0.52722 0.53682
 H1272 H 0.00604 0.51401 0.46447
 H1273 H 0.03998 0.42983 0.50781
 H1274 H 0.06936 0.48534 0.47278
 H1275 H 0.05845 0.51943 0.46273
 H1276 H 0.00534 0.56406 0.48133
 H1277 H 0.00713 0.42473 0.53283
 H1278 H -0.05006 0.46971 0.54931
 H1279 H -0.05846 0.50518 0.54238
 H1280 H -0.02893 0.56067 0.50550
 H1281 H 0.03808 0.43899 0.54070
 H1282 H 0.04487 0.50640 0.56631
 H1283 H -0.03354 0.48204 0.44641
 H1284 H -0.02565 0.55167 0.47226
 Zr1285 Zr 0.49139 -0.01216 -0.02332
 O1286 O 0.47189 0.00059 -0.04534
 O1287 O 0.49561 -0.04207 -0.03462
 O1288 O 0.50542 -0.00958 -0.05182
 O1289 O 0.45191 -0.02155 0.01076
 O1290 O 0.53659 0.00462 -0.04558
 O1291 O 0.46145 -0.02414 -0.02221
 O1292 O 0.51844 -0.05561 -0.01255
 O1293 O 0.52198 -0.01856 -0.01716
 O1294 O 0.49137 -0.02884 0.00357
 O1295 O 0.50607 0.01654 -0.02157
 O1296 O 0.47662 0.00678 -0.00205
 Zr1297 Zr 0.52337 0.01196 0.03440
 Zr1298 Zr 0.53636 0.00984 -0.01422
 Zr1299 Zr 0.47812 -0.00970 0.02507
 Zr1300 Zr 0.52183 -0.03408 0.01039
 O1301 O 0.45208 0.00737 0.03349
 O1302 O 0.55111 -0.04451 0.00142
 O1303 O 0.50828 -0.01658 0.03320
 O1304 O 0.53787 -0.00657 0.01294
 O1305 O 0.52348 0.02893 0.00759
 O1306 O 0.49285 0.01858 0.02821
 C1307 C 0.50789 -0.05621 -0.02875
 C1308 C 0.44835 -0.02617 -0.00774
 C1309 C 0.52292 -0.00254 -0.05754
 O1310 O 0.56298 -0.00689 -0.02139
 O1311 O 0.56145 0.02412 -0.00034
 O1312 O 0.55283 0.02527 0.03296
 C1313 C 0.56519 0.02875 0.01810
 O1314 O 0.47146 0.04106 -0.02184
 Zr1315 Zr 0.49293 0.03447 0.00110
 O1316 O 0.52192 0.04216 0.04428
 O1317 O 0.54299 0.03750 -0.02967
 O1318 O 0.50527 0.05845 -0.01691
 O1319 O 0.46617 0.04680 0.01438
 O1320 O 0.50275 0.05821 0.02051
 C1321 C 0.51413 0.05822 0.03629
 O1322 O 0.54312 -0.00104 0.05602
 O1323 O 0.47069 -0.03791 0.03914
 O1324 O 0.50937 0.00902 0.06306
 O1325 O 0.47864 -0.00612 0.05653
 O1326 O 0.50821 -0.06031 0.02390
 O1327 O 0.53828 -0.04143 0.03690
 C1328 C 0.49194 0.00151 0.06859
 H1329 H 0.48385 -0.04196 0.00244
 H1330 H 0.55213 -0.00949 0.01680
 H1331 H 0.48635 0.02696 0.03884
 H1332 H 0.50517 0.02412 -0.03447
 H1333 H 0.55130 -0.05958 0.00324
 H1334 H 0.57159 0.00215 -0.02998
 H1335 H 0.55665 0.03587 -0.03596
 H1336 H 0.49796 0.07118 -0.01328
 H1337 H 0.51676 -0.07223 0.02026
 H1338 H 0.45705 -0.03620 0.04544
 H1339 H 0.44360 -0.00165 0.04224
 H1340 H 0.46682 0.06185 0.01255
 H1341 H 0.54311 -0.05574 0.03617
 H1342 H 0.54645 0.00985 0.06586
 H1343 H 0.46878 -0.01029 -0.05526
 H1344 H 0.46808 0.05581 -0.02156
 Zr1345 Zr 0.51716 0.51421 -0.02886
 O1346 O 0.53476 0.50248 -0.05304
 O1347 O 0.51769 0.54554 -0.03528
 O1348 O 0.50231 0.51783 -0.05671
 O1349 O 0.55726 0.51702 0.00500
 O1350 O 0.47058 0.50434 -0.05126
 O1351 O 0.54782 0.52380 -0.02732
 O1352 O 0.49685 0.55931 -0.01126
 O1353 O 0.48717 0.52235 -0.02144
 O1354 O 0.51850 0.52721 -0.00023
 O1355 O 0.50025 0.48689 -0.03014
 O1356 O 0.53089 0.49193 -0.01037
 Zr1357 Zr 0.48396 0.48526 0.02650
 Zr1358 Zr 0.47064 0.49476 -0.02096
 Zr1359 Zr 0.53050 0.50476 0.01857
 Zr1360 Zr 0.48864 0.53428 0.00758
 O1361 O 0.55498 0.48459 0.02420
 O1362 O 0.46106 0.54776 -0.00223
 O1363 O 0.50086 0.51281 0.02788
 O1364 O 0.47073 0.50764 0.00787
 O1365 O 0.48244 0.47210 -0.00210
 O1366 O 0.51389 0.47739 0.01876
 C1367 C 0.50883 0.56070 -0.02670
 C1368 C 0.56089 0.52392 -0.01292
 C1369 C 0.48430 0.51274 -0.06262
 O1370 O 0.44488 0.51366 -0.02514
 O1371 O 0.44469 0.48025 -0.00814
 O1372 O 0.45378 0.47427 0.02442
 C1373 C 0.44095 0.47357 0.00981
 O1374 O 0.53357 0.46103 -0.03425
 Zr1375 Zr 0.51250 0.46549 -0.01020
 O1376 O 0.48412 0.45367 0.03309
 O1377 O 0.46221 0.46984 -0.03940
 O1378 O 0.49913 0.44485 -0.03091
 O1379 O 0.53796 0.44923 0.00107
 O1380 O 0.50054 0.44033 0.00577
 C1381 C 0.49027 0.43858 0.02225
 O1382 O 0.46497 0.49640 0.04993
 O1383 O 0.54050 0.53018 0.03559
 O1384 O 0.49781 0.48456 0.05506
 O1385 O 0.52950 0.49818 0.04962
 O1386 O 0.50317 0.55659 0.02570
 O1387 O 0.47112 0.53999 0.03401
 C1388 C 0.51543 0.49069 0.06115
 H1389 H 0.52714 0.53965 0.00044
 H1390 H 0.45674 0.51102 0.01244
 H1391 H 0.51980 0.46736 0.02827
 H1392 H 0.50045 0.48115 -0.04391
 H1393 H 0.46197 0.56261 0.00063
 H1394 H 0.43587 0.50650 -0.03477
 H1395 H 0.44870 0.47318 -0.04514
 H1396 H 0.50585 0.43141 -0.02913
 H1397 H 0.49594 0.56972 0.02363
 H1398 H 0.55400 0.52656 0.04120
 H1399 H 0.56421 0.49174 0.03363
 H1400 H 0.53622 0.43473 -0.00288
 H1401 H 0.46596 0.55420 0.03362
 H1402 H 0.46103 0.48456 0.05856
 H1403 H 0.53900 0.51428 -0.06158
 H1404 H 0.53656 0.44626 -0.03562
 Zr1405 Zr 0.02132 1.00909 0.46386
 O1406 O 0.03956 0.99456 0.44176
 O1407 O 0.02131 1.03919 0.45348
 O1408 O 0.00714 1.01009 0.43549
 O1409 O 0.06041 1.01541 0.49824
 O1410 O -0.02501 0.99793 0.44157
 O1411 O 0.05186 1.01928 0.46522
 O1412 O 0.00034 1.05579 0.47543
 O1413 O -0.00872 1.01819 0.46975
 O1414 O 0.02210 1.02521 0.49093
 O1415 O 0.00408 0.98195 0.46489
 O1416 O 0.03436 0.98884 0.48488
 Zr1417 Zr -0.01351 0.98654 0.52106
 Zr1418 Zr -0.02562 0.99103 0.47257
 Zr1419 Zr 0.03333 1.00473 0.51228
 Zr1420 Zr -0.00782 1.03329 0.49728
 O1421 O 0.05759 0.98519 0.52041
 O1422 O -0.03533 1.04584 0.48614
 O1423 O 0.00363 1.01399 0.52002
 O1424 O -0.02605 1.00694 0.49990
 O1425 O -0.01446 0.97049 0.49391
 O1426 O 0.01646 0.97761 0.51485
 C1427 C 0.01192 1.05520 0.45963
 C1428 C 0.06451 1.02077 0.47994
 C1429 C -0.01099 1.00515 0.42980
 O1430 O -0.05124 1.00946 0.46612
 O1431 O -0.05187 0.97783 0.48615
 O1432 O -0.04375 0.97564 0.51940
 C1433 C -0.05612 0.97318 0.50460
 O1434 O 0.03760 0.95577 0.46458
 Zr1435 Zr 0.01566 0.96273 0.48723
 O1436 O -0.01434 0.95570 0.53051
 O1437 O -0.03373 0.96446 0.45632
 O1438 O 0.00304 0.94016 0.46806
 O1439 O 0.04022 0.94722 0.50115
 O1440 O 0.00227 0.93950 0.50485
 C1441 C -0.00859 0.93956 0.52102
 O1442 O -0.03275 1.00041 0.54279
 O1443 O 0.04299 1.03175 0.52696
 O1444 O -0.00018 0.98837 0.54986
 O1445 O 0.03176 1.00110 0.54376
 O1446 O 0.00688 1.05754 0.51268
 O1447 O -0.02539 1.04204 0.52284
 C1448 C 0.01746 0.99477 0.55567
 H1449 H 0.03069 1.03769 0.49031
 H1450 H -0.04010 1.01088 0.50378
 H1451 H 0.02197 0.96852 0.52545
 H1452 H 0.00452 0.97486 0.45175
 H1453 H -0.03428 1.06091 0.48741
 H1454 H -0.06008 1.00139 0.45704
 H1455 H -0.04707 0.96729 0.44997
 H1456 H 0.00957 0.92693 0.47141
 H1457 H -0.00015 1.07038 0.50892
 H1458 H 0.05635 1.02871 0.53319
 H1459 H 0.06670 0.99326 0.52923
 H1460 H 0.03827 0.93242 0.49858
 H1461 H -0.03009 1.05631 0.52108
 H1462 H -0.03709 0.98959 0.55247
 H1463 H 0.04401 1.00527 0.43203
 H1464 H 0.04071 0.94096 0.46496
 Zr1465 Zr 0.72859 0.26164 0.22252
 O1466 O 0.73330 0.27962 0.19624
 O1467 O 0.69711 0.25549 0.22052
 O1468 O 0.72458 0.24507 0.19563
 O1469 O 0.72520 0.30312 0.25495
 O1470 O 0.74393 0.21648 0.19975
 O1471 O 0.71549 0.29100 0.22431
 O1472 O 0.69108 0.23409 0.24708
 O1473 O 0.72685 0.23106 0.23192
 O1474 O 0.71946 0.26238 0.25272
 O1475 O 0.75802 0.24975 0.21784
 O1476 O 0.75057 0.27981 0.23735
 Zr1477 Zr 0.76976 0.23677 0.27401
 Zr1478 Zr 0.75652 0.21961 0.22869
 Zr1479 Zr 0.74190 0.27891 0.26783
 Zr1480 Zr 0.71895 0.23206 0.26241
 O1481 O 0.75840 0.30664 0.27079
 O1482 O 0.70917 0.20178 0.25616
 O1483 O 0.74036 0.24882 0.27903
 O1484 O 0.74782 0.21891 0.25910
 O1485 O 0.77913 0.23606 0.24385
 O1486 O 0.77135 0.26728 0.26454
 C1487 C 0.68532 0.24405 0.23139
 C1488 C 0.71622 0.30505 0.23785
 C1489 C 0.73217 0.22808 0.18930
 O1490 O 0.74139 0.19097 0.22769
 O1491 O 0.77626 0.19696 0.23999
 O1492 O 0.78593 0.20913 0.27062
 C1493 C 0.78643 0.19567 0.25647
 O1494 O 0.77747 0.28654 0.20905
 Zr1495 Zr 0.77950 0.26645 0.23421
 O1496 O 0.80104 0.24339 0.27637
 O1497 O 0.78002 0.21436 0.20733
 O1498 O 0.79931 0.25521 0.21144
 O1499 O 0.79198 0.29530 0.24210
 O1500 O 0.80812 0.26052 0.24714
 C1501 C 0.81345 0.25179 0.26367
 O1502 O 0.76551 0.21680 0.29892
 O1503 O 0.71711 0.28547 0.28733
 O1504 O 0.77119 0.25179 0.30208
 O1505 O 0.75191 0.28045 0.29786
 O1506 O 0.69701 0.24389 0.28285
 O1507 O 0.71997 0.21562 0.29007
 C1508 C 0.76285 0.26834 0.30863
 H1509 H 0.70598 0.26890 0.25468
 H1510 H 0.74750 0.20475 0.26446
 H1511 H 0.78122 0.27541 0.27244
 H1512 H 0.76190 0.25027 0.20342
 H1513 H 0.69504 0.20029 0.26141
 H1514 H 0.74871 0.18264 0.21754
 H1515 H 0.77828 0.20014 0.20249
 H1516 H 0.81155 0.26418 0.21107
 H1517 H 0.68522 0.23432 0.28305
 H1518 H 0.71912 0.29967 0.29214
 H1519 H 0.75094 0.31498 0.28084
 H1520 H 0.80596 0.29600 0.23632
 H1521 H 0.70678 0.20850 0.29237
 H1522 H 0.77882 0.21567 0.30588
 H1523 H 0.71990 0.28115 0.18953
 H1524 H 0.79128 0.29154 0.20531
 Zr1525 Zr 0.76572 0.73789 0.72249
 O1526 O 0.76133 0.71965 0.69656
 O1527 O 0.79686 0.74528 0.71953
 O1528 O 0.76901 0.75460 0.69533
 O1529 O 0.77067 0.69672 0.75539
 O1530 O 0.74899 0.78268 0.69973
 O1531 O 0.77986 0.70895 0.72439
 O1532 O 0.80247 0.76697 0.74569
 O1533 O 0.76663 0.76850 0.73164
 O1534 O 0.77518 0.73750 0.75247
 O1535 O 0.73595 0.74897 0.71835
 O1536 O 0.74443 0.71915 0.73801
 Zr1537 Zr 0.72418 0.76164 0.77466
 Zr1538 Zr 0.73667 0.77914 0.72895
 Zr1539 Zr 0.75333 0.72042 0.76829
 Zr1540 Zr 0.77484 0.76779 0.76194
 O1541 O 0.73778 0.69218 0.77200
 O1542 O 0.78360 0.79843 0.75554
 O1543 O 0.75399 0.75051 0.77921
 O1544 O 0.74557 0.78006 0.75916
 O1545 O 0.71457 0.76208 0.74470
 O1546 O 0.72350 0.73111 0.76547
 C1547 C 0.80830 0.75735 0.72982
 C1548 C 0.77968 0.69497 0.73818
 C1549 C 0.76104 0.77148 0.68911
 O1550 O 0.75116 0.80810 0.72717
 O1551 O 0.71694 0.80159 0.74072
 O1552 O 0.70765 0.78910 0.77160
 C1553 C 0.70702 0.80269 0.75748
 O1554 O 0.71731 0.71203 0.70998
 Zr1555 Zr 0.71510 0.73165 0.73534
 O1556 O 0.69290 0.75481 0.77732
 O1557 O 0.71270 0.78376 0.70827
 O1558 O 0.69449 0.74275 0.71341
 O1559 O 0.70405 0.70212 0.74327
 O1560 O 0.68653 0.73573 0.74942
 C1561 C 0.68082 0.74502 0.76553
 O1562 O 0.72832 0.78129 0.79960
 O1563 O 0.77847 0.71475 0.78732
 O1564 O 0.72250 0.74606 0.80258
 O1565 O 0.74362 0.71873 0.79855
 O1566 O 0.79739 0.75639 0.78175
 O1567 O 0.77370 0.78406 0.78957
 C1568 C 0.73168 0.72999 0.80923
 H1569 H 0.78888 0.73143 0.75415
 H1570 H 0.74563 0.79421 0.76442
 H1571 H 0.71391 0.72265 0.77359
 H1572 H 0.73196 0.74837 0.70402
 H1573 H 0.79773 0.80033 0.76045
 H1574 H 0.74350 0.81627 0.71717
 H1575 H 0.71406 0.79800 0.70322
 H1576 H 0.68250 0.73345 0.71339
 H1577 H 0.80898 0.76620 0.78148
 H1578 H 0.77693 0.70053 0.79239
 H1579 H 0.74557 0.68415 0.78200
 H1580 H 0.69006 0.70083 0.73782
 H1581 H 0.78686 0.79123 0.79169
 H1582 H 0.71500 0.78220 0.80677
 H1583 H 0.77471 0.71855 0.68955
 H1584 H 0.70354 0.70699 0.70639
 Zr1585 Zr 0.24544 0.22634 0.78503
 O1586 O 0.25852 0.20673 0.80683
 O1587 O 0.21560 0.22877 0.79585
 O1588 O 0.24566 0.23986 0.81387
 O1589 O 0.23837 0.18813 0.74961
 O1590 O 0.25816 0.27202 0.80805
 O1591 O 0.23437 0.19599 0.78286
 O1592 O 0.20060 0.25086 0.77382
 O1593 O 0.23788 0.25691 0.77935
 O1594 O 0.22965 0.22667 0.75777
 O1595 O 0.27325 0.24244 0.78452
 O1596 O 0.26525 0.21284 0.76380
 Zr1597 Zr 0.27040 0.26127 0.72859
 Zr1598 Zr 0.26564 0.27270 0.77721
 Zr1599 Zr 0.24990 0.21510 0.73622
 Zr1600 Zr 0.22316 0.25709 0.75165
 O1601 O 0.26825 0.19010 0.72739
 O1602 O 0.21156 0.28541 0.76208
 O1603 O 0.24224 0.24535 0.72887
 O1604 O 0.25018 0.27421 0.74974
 O1605 O 0.28601 0.26102 0.75596
 O1606 O 0.27777 0.23073 0.73437
 C1607 C 0.20065 0.23987 0.78999
 C1608 C 0.23301 0.18364 0.76781
 C1609 C 0.25090 0.25793 0.81971
 O1610 O 0.24818 0.29895 0.78411
 O1611 O 0.27964 0.29882 0.76421
 O1612 O 0.28086 0.29171 0.73060
 C1613 C 0.28351 0.30364 0.74575
 O1614 O 0.29759 0.20768 0.78455
 Zr1615 Zr 0.29213 0.23032 0.76218
 O1616 O 0.30158 0.26182 0.72031
 O1617 O 0.29230 0.27945 0.79373
 O1618 O 0.31496 0.24165 0.78176
 O1619 O 0.30651 0.20506 0.74812
 O1620 O 0.31615 0.24258 0.74502
 C1621 C 0.31713 0.25457 0.72968
 O1622 O 0.25772 0.28069 0.70635
 O1623 O 0.22257 0.20699 0.72139
 O1624 O 0.26950 0.24800 0.69972
 O1625 O 0.25386 0.21714 0.70475
 O1626 O 0.19846 0.24300 0.73649
 O1627 O 0.21552 0.27484 0.72591
 C1628 C 0.26192 0.23101 0.69331
 H1629 H 0.21683 0.21860 0.75836
 H1630 H 0.24670 0.28847 0.74610
 H1631 H 0.28682 0.22496 0.72385
 H1632 H 0.28020 0.24151 0.79768
 H1633 H 0.19654 0.28505 0.76042
 H1634 H 0.25650 0.30741 0.79333
 H1635 H 0.28993 0.29280 0.80037
 H1636 H 0.32782 0.23439 0.77854
 H1637 H 0.18591 0.25048 0.74035
 H1638 H 0.22501 0.19364 0.71480
 H1639 H 0.25983 0.18157 0.71833
 H1640 H 0.32131 0.20616 0.75094
 H1641 H 0.20116 0.27938 0.72704
 H1642 H 0.26892 0.28485 0.69703
 H1643 H 0.24750 0.20274 0.81642
 H1644 H 0.31221 0.20393 0.78441
 Zr1645 Zr 0.26845 0.76170 0.27492
 O1646 O 0.26493 0.78037 0.30072
 O1647 O 0.29873 0.75198 0.27851
 O1648 O 0.26960 0.74512 0.30218
 O1649 O 0.27785 0.80203 0.24176
 O1650 O 0.24683 0.71903 0.29813
 O1651 O 0.28455 0.78965 0.27319
 O1652 O 0.30314 0.72918 0.25302
 O1653 O 0.26675 0.73099 0.26633
 O1654 O 0.27903 0.76078 0.24518
 O1655 O 0.23764 0.75334 0.27873
 O1656 O 0.24958 0.78182 0.25862
 Zr1657 Zr 0.22656 0.74051 0.22239
 Zr1658 Zr 0.23580 0.72308 0.26866
 Zr1659 Zr 0.25940 0.77926 0.22858
 Zr1660 Zr 0.27609 0.73043 0.23623
 O1661 O 0.24672 0.80858 0.22367
 O1662 O 0.28180 0.69930 0.24328
 O1663 O 0.25749 0.74899 0.21825
 O1664 O 0.24569 0.72079 0.23868
 O1665 O 0.21583 0.74155 0.25213
 O1666 O 0.22864 0.77117 0.23105
 C1667 C 0.30933 0.73872 0.26875
 C1668 C 0.28579 0.80354 0.25939
 C1669 C 0.25983 0.72920 0.30861
 O1670 O 0.24734 0.69300 0.27128
 O1671 O 0.21454 0.70213 0.25695
 O1672 O 0.20798 0.71408 0.22537
 C1673 C 0.20569 0.70090 0.23975
 O1674 O 0.22216 0.79147 0.28636
 Zr1675 Zr 0.21914 0.77200 0.26098
 O1676 O 0.19633 0.75059 0.21876
 O1677 O 0.21083 0.72102 0.28895
 O1678 O 0.19645 0.76262 0.28206
 O1679 O 0.21175 0.80253 0.25299
 O1680 O 0.19119 0.77132 0.24579
 C1681 C 0.18520 0.76252 0.22960
 O1682 O 0.22934 0.72014 0.19779
 O1683 O 0.28581 0.78235 0.21026
 O1684 O 0.22765 0.75540 0.19412
 O1685 O 0.25091 0.78113 0.19807
 O1686 O 0.30021 0.73958 0.21666
 O1687 O 0.27430 0.71370 0.20892
 C1688 C 0.23842 0.77054 0.18735
 H1689 H 0.29328 0.76573 0.24377
 H1690 H 0.24468 0.70657 0.23370
 H1691 H 0.22032 0.78035 0.22256
 H1692 H 0.23327 0.75455 0.29298
 H1693 H 0.29583 0.69613 0.23861
 H1694 H 0.23864 0.68577 0.28132
 H1695 H 0.21064 0.70682 0.29428
 H1696 H 0.18538 0.77289 0.28169
 H1697 H 0.31088 0.72890 0.21735
 H1698 H 0.28585 0.79655 0.20495
 H1699 H 0.25570 0.81569 0.21378
 H1700 H 0.19786 0.80534 0.25829
 H1701 H 0.28690 0.70560 0.20706
 H1702 H 0.21624 0.72038 0.19037
 H1703 H 0.27816 0.78051 0.30792
 H1704 H 0.20864 0.79711 0.29002
 Zr1705 Zr 0.22585 0.75740 0.72296
 O1706 O 0.23225 0.77528 0.69695
 O1707 O 0.19454 0.75135 0.71920
 O1708 O 0.22285 0.74068 0.69607
 O1709 O 0.22085 0.79898 0.75498
 O1710 O 0.24190 0.71203 0.70105
 O1711 O 0.21267 0.78670 0.72395
 O1712 O 0.18697 0.73010 0.74551
 O1713 O 0.22342 0.72688 0.73235
 O1714 O 0.21511 0.75833 0.75263
 O1715 O 0.25537 0.74531 0.71974
 O1716 O 0.24711 0.77549 0.73881
 Zr1717 Zr 0.26391 0.73244 0.77653
 Zr1718 Zr 0.25311 0.71523 0.73057
 Zr1719 Zr 0.23682 0.77480 0.76882
 Zr1720 Zr 0.21388 0.72806 0.76238
 O1721 O 0.25322 0.80252 0.77233
 O1722 O 0.20422 0.69780 0.75587
 O1723 O 0.23443 0.74477 0.78007
 O1724 O 0.24275 0.71467 0.76051
 O1725 O 0.27495 0.73155 0.74691
 O1726 O 0.26628 0.76289 0.76702
 C1727 C 0.18215 0.73996 0.72945
 C1728 C 0.21273 0.80081 0.73744
 C1729 C 0.23053 0.72360 0.69013
 O1730 O 0.23800 0.68661 0.72896
 O1731 O 0.27227 0.69264 0.74295
 O1732 O 0.27970 0.70450 0.77430
 C1733 C 0.28111 0.69112 0.76015
 O1734 O 0.27559 0.78191 0.71188
 Zr1735 Zr 0.27606 0.76189 0.73718
 O1736 O 0.29506 0.73849 0.78044
 O1737 O 0.27759 0.70982 0.71035
 O1738 O 0.29698 0.75031 0.71558
 O1739 O 0.28836 0.79069 0.74551
 O1740 O 0.30384 0.75585 0.75179
 C1741 C 0.30819 0.74690 0.76850
 O1742 O 0.25789 0.71282 0.80138
 O1743 O 0.21119 0.78148 0.78717
 O1744 O 0.26444 0.74776 0.80444
 O1745 O 0.24569 0.77661 0.79924
 O1746 O 0.19085 0.74009 0.78149
 O1747 O 0.21341 0.71181 0.79017
 C1748 C 0.25617 0.76453 0.81049
 H1749 H 0.20159 0.76491 0.75386
 H1750 H 0.24203 0.70053 0.76588
 H1751 H 0.27583 0.77097 0.77535
 H1752 H 0.25996 0.74576 0.70551
 H1753 H 0.18984 0.69644 0.76044
 H1754 H 0.24583 0.67821 0.71925
 H1755 H 0.27605 0.69557 0.70551
 H1756 H 0.30933 0.75912 0.71588
 H1757 H 0.17907 0.73052 0.78113
 H1758 H 0.21301 0.79570 0.79198
 H1759 H 0.24529 0.81098 0.78193
 H1760 H 0.30262 0.79123 0.74046
 H1761 H 0.20007 0.70481 0.79189
 H1762 H 0.27077 0.71149 0.80905
 H1763 H 0.21930 0.77686 0.68945
 H1764 H 0.28965 0.78659 0.70872
 Zr1765 Zr 0.25519 0.23124 0.22147
 O1766 O 0.24072 0.21391 0.19873
 O1767 O 0.28583 0.22916 0.21273
 O1768 O 0.25755 0.24558 0.19301
 O1769 O 0.25845 0.19156 0.25629
 O1770 O 0.24693 0.27826 0.19865
 O1771 O 0.26286 0.20000 0.22317
 O1772 O 0.30220 0.25015 0.23484
 O1773 O 0.26556 0.26095 0.22750
 O1774 O 0.27017 0.22967 0.24910
 O1775 O 0.22895 0.24958 0.22170
 O1776 O 0.23359 0.21896 0.24197
 Zr1777 Zr 0.23249 0.26665 0.27789
 Zr1778 Zr 0.23921 0.27892 0.22947
 Zr1779 Zr 0.24856 0.21906 0.26984
 Zr1780 Zr 0.27943 0.25932 0.25560
 O1781 O 0.22758 0.19553 0.27746
 O1782 O 0.29367 0.28634 0.24448
 O1783 O 0.25897 0.24839 0.27781
 O1784 O 0.25408 0.27859 0.25729
 O1785 O 0.21745 0.26851 0.25028
 O1786 O 0.22231 0.23704 0.27150
 C1787 C 0.30187 0.23790 0.21970
 C1788 C 0.26345 0.18721 0.23798
 C1789 C 0.25349 0.26392 0.18707
 O1790 O 0.25907 0.30386 0.22348
 O1791 O 0.22681 0.30558 0.24259
 O1792 O 0.22326 0.29743 0.27587
 C1793 C 0.22185 0.30994 0.26089
 O1794 O 0.20102 0.21719 0.22078
 Zr1795 Zr 0.20839 0.23873 0.24351
 O1796 O 0.20167 0.26864 0.28659
 O1797 O 0.21375 0.28827 0.21237
 O1798 O 0.18730 0.25258 0.22363
 O1799 O 0.19119 0.21467 0.25698
 O1800 O 0.18534 0.25303 0.26055
 C1801 C 0.18554 0.26365 0.27682
 O1802 O 0.24679 0.28494 0.29999
 O1803 O 0.27448 0.20813 0.28533
 O1804 O 0.23190 0.25283 0.30666
 O1805 O 0.24417 0.22072 0.30122
 O1806 O 0.30227 0.24369 0.27202
 O1807 O 0.28811 0.27662 0.28121
 C1808 C 0.23749 0.23499 0.31281
 H1809 H 0.28211 0.22046 0.24902
 H1810 H 0.25856 0.29249 0.26123
 H1811 H 0.21261 0.23177 0.28181
 H1812 H 0.22227 0.24951 0.20838
 H1813 H 0.30859 0.28472 0.24623
 H1814 H 0.25176 0.31314 0.21418
 H1815 H 0.21742 0.30162 0.20615
 H1816 H 0.17364 0.24670 0.22668
 H1817 H 0.31554 0.25029 0.26873
 H1818 H 0.27053 0.19489 0.29162
 H1819 H 0.23480 0.18611 0.28668
 H1820 H 0.17663 0.21733 0.25403
 H1821 H 0.30257 0.28090 0.27978
 H1822 H 0.23596 0.28974 0.30935
 H1823 H 0.25156 0.20898 0.18945
 H1824 H 0.18607 0.21490 0.22061
 Zr1825 Zr 0.72700 0.73962 0.27676
 O1826 O 0.73057 0.72090 0.30263
 O1827 O 0.69596 0.74732 0.27946
 O1828 O 0.72442 0.75564 0.30420
 O1829 O 0.72180 0.69875 0.24379
 O1830 O 0.74460 0.78388 0.29989
 O1831 O 0.71250 0.71077 0.27470
 O1832 O 0.69066 0.76859 0.25276
 O1833 O 0.72663 0.77035 0.26769
 O1834 O 0.71781 0.73957 0.24669
 O1835 O 0.75692 0.75044 0.28113
 O1836 O 0.74808 0.72089 0.26135
 Zr1837 Zr 0.76935 0.76359 0.22500
 Zr1838 Zr 0.75681 0.78073 0.27061
 Zr1839 Zr 0.73949 0.72251 0.23098
 Zr1840 Zr 0.71870 0.76995 0.23728
 O1841 O 0.75463 0.69423 0.22729
 O1842 O 0.71015 0.80042 0.24409
 O1843 O 0.73941 0.75273 0.22015
 O1844 O 0.74810 0.78197 0.24035
 O1845 O 0.77878 0.76367 0.25502
 O1846 O 0.76942 0.73296 0.23414
 C1847 C 0.68460 0.75895 0.26863
 C1848 C 0.71269 0.69689 0.26096
 C1849 C 0.73277 0.77229 0.31057
 O1850 O 0.74265 0.80970 0.27250
 O1851 O 0.77684 0.80330 0.25888
 O1852 O 0.78572 0.79124 0.22789
 C1853 C 0.78640 0.80481 0.24190
 O1854 O 0.77466 0.71331 0.28968
 Zr1855 Zr 0.77756 0.73312 0.26434
 O1856 O 0.80049 0.75629 0.22257
 O1857 O 0.78084 0.78507 0.29129
 O1858 O 0.79823 0.74386 0.28638
 O1859 O 0.78812 0.70353 0.25658
 O1860 O 0.80625 0.73688 0.25051
 C1861 C 0.81222 0.74609 0.23437
 O1862 O 0.76585 0.78333 0.19988
 O1863 O 0.71437 0.71718 0.21181
 O1864 O 0.77104 0.74833 0.19713
 O1865 O 0.74942 0.72110 0.20076
 O1866 O 0.69648 0.75899 0.21685
 O1867 O 0.72041 0.78684 0.20989
 C1868 C 0.76169 0.73244 0.19028
 H1869 H 0.70405 0.73355 0.24486
 H1870 H 0.74822 0.79617 0.23510
 H1871 H 0.77892 0.72449 0.22609
 H1872 H 0.76090 0.74959 0.29545
 H1873 H 0.69611 0.80246 0.23903
 H1874 H 0.75041 0.81772 0.28253
 H1875 H 0.77966 0.79926 0.29635
 H1876 H 0.80999 0.73438 0.28658
 H1877 H 0.68504 0.76887 0.21686
 H1878 H 0.71575 0.70301 0.20671
 H1879 H 0.74679 0.68636 0.21721
 H1880 H 0.80197 0.70201 0.26228
 H1881 H 0.70747 0.79429 0.20781
 H1882 H 0.77925 0.78419 0.19282
 H1883 H 0.71708 0.71986 0.30948
 H1884 H 0.78830 0.70820 0.29352
 Zr1885 Zr 0.77754 0.25736 0.77283
 O1886 O 0.77287 0.27439 0.79955
 O1887 O 0.80894 0.25132 0.77478
 O1888 O 0.78145 0.23991 0.79932
 O1889 O 0.78072 0.30010 0.74156
 O1890 O 0.76196 0.21136 0.79462
 O1891 O 0.79056 0.28694 0.77182
 O1892 O 0.81523 0.23108 0.74762
 O1893 O 0.77938 0.22715 0.76266
 O1894 O 0.78680 0.25931 0.74271
 O1895 O 0.74817 0.24492 0.77719
 O1896 O 0.75559 0.27577 0.75842
 Zr1897 Zr 0.73656 0.23383 0.72074
 Zr1898 Zr 0.74974 0.21518 0.76557
 Zr1899 Zr 0.76434 0.27605 0.72793
 Zr1900 Zr 0.78740 0.22937 0.73223
 O1901 O 0.74773 0.30362 0.72534
 O1902 O 0.79733 0.19900 0.73761
 O1903 O 0.76594 0.24639 0.71600
 O1904 O 0.75860 0.21579 0.73519
 O1905 O 0.72704 0.23187 0.75081
 O1906 O 0.73493 0.26396 0.73098
 C1907 C 0.82082 0.24043 0.76366
 C1908 C 0.78969 0.30153 0.75871
 C1909 C 0.77373 0.22273 0.80533
 O1910 O 0.76526 0.18688 0.76627
 O1911 O 0.73074 0.19225 0.75333
 O1912 O 0.72153 0.20532 0.72287
 C1913 C 0.72135 0.19111 0.73639
 O1914 O 0.72868 0.28091 0.78710
 Zr1915 Zr 0.72673 0.26196 0.76124
 O1916 O 0.70513 0.23977 0.71877
 O1917 O 0.72587 0.20882 0.78633
 O1918 O 0.70672 0.24943 0.78337
 O1919 O 0.71448 0.29114 0.75443
 O1920 O 0.69824 0.25690 0.74783
 C1921 C 0.69282 0.24835 0.73131
 O1922 O 0.74099 0.21537 0.69493
 O1923 O 0.78927 0.28364 0.70883
 O1924 O 0.73446 0.25009 0.69335
 O1925 O 0.75456 0.27825 0.69782
 O1926 O 0.80929 0.24233 0.71217
 O1927 O 0.78645 0.21392 0.70415
 C1928 C 0.74309 0.26668 0.68698
 H1929 H 0.80026 0.26607 0.74099
 H1930 H 0.75916 0.20185 0.72943
 H1931 H 0.72503 0.27227 0.72331
 H1932 H 0.74422 0.24491 0.79160
 H1933 H 0.81143 0.19788 0.73225
 H1934 H 0.75788 0.17807 0.77612
 H1935 H 0.72770 0.19449 0.79091
 H1936 H 0.69449 0.25828 0.78401
 H1937 H 0.82113 0.23296 0.71170
 H1938 H 0.78717 0.29793 0.70428
 H1939 H 0.75524 0.31235 0.71552
 H1940 H 0.70055 0.29163 0.76032
 H1941 H 0.79974 0.20723 0.70158
 H1942 H 0.72766 0.21418 0.68800
 H1943 H 0.78627 0.27578 0.80631
 H1944 H 0.71482 0.28535 0.79115
 C1945 C 0.43836 0.99824 0.36111
 C1946 C 0.45464 0.98528 0.35845
 C1947 C 0.45989 0.97725 0.33978
 C1948 C 0.44780 0.98269 0.32324
 C1949 C 0.43080 0.99596 0.32558
 C1950 C 0.42614 1.00386 0.34490
 O1951 O 0.43598 1.00422 0.38005
 C1952 C 0.45104 0.99481 0.38954
 C1953 C 0.46290 0.98300 0.37706
 C1954 C 0.47954 0.97191 0.38397
 C1955 C 0.48425 0.97321 0.40455
 C1956 C 0.47235 0.98547 0.41775
 C1957 C 0.45539 0.99629 0.40999
 H1958 H 0.47273 0.96704 0.33803
 H1959 H 0.45141 0.97617 0.30870
 H1960 H 0.41343 1.01412 0.34725
 H1961 H 0.48867 0.96271 0.37387
 H1962 H 0.49729 0.96483 0.41011
 H1963 H 0.44597 1.00586 0.41949
 C1964 C -0.06079 0.49742 0.86420
 C1965 C -0.04226 0.48816 0.86118
 C1966 C -0.03511 0.48285 0.84222
 C1967 C -0.04759 0.48714 0.82567
 C1968 C -0.06712 0.49652 0.82816
 C1969 C -0.07360 0.50165 0.84802
 O1970 O -0.06454 0.50167 0.88340
 C1971 C -0.04803 0.49483 0.89269
 C1972 C -0.03397 0.48631 0.87980
 C1973 C -0.01560 0.47816 0.88639
 C1974 C -0.01149 0.47899 0.90710
 C1975 C -0.02559 0.48804 0.92072
 C1976 C -0.04420 0.49596 0.91329
 H1977 H -0.02046 0.47551 0.84022
 H1978 H -0.04220 0.48220 0.81106
 H1979 H -0.08784 0.50940 0.85098
 H1980 H -0.00477 0.47151 0.87595
 H1981 H 0.00285 0.47292 0.91242
 H1982 H -0.05534 0.50294 0.92319
 C1983 C 0.06046 0.00299 0.85473
 C1984 C 0.04446 0.01644 0.85310
 C1985 C 0.03898 0.02541 0.83491
 C1986 C 0.05057 0.02044 0.81775
 C1987 C 0.06729 0.00673 0.81906
 C1988 C 0.07218 -0.00214 0.83790
 O1989 O 0.06306 -0.00396 0.87333
 C1990 C 0.04842 0.00533 0.88368
 C1991 C 0.03663 0.01801 0.87204
 C1992 C 0.02039 0.02913 0.87988
 C1993 C 0.01599 0.02691 0.90051
 C1994 C 0.02777 0.01369 0.91285
 C1995 C 0.04435 0.00290 0.90419
 H1996 H 0.02634 0.03596 0.83398
 H1997 H 0.04678 0.02763 0.80355
 H1998 H 0.08469 -0.01279 0.83942
 H1999 H 0.01132 0.03903 0.87042
 H2000 H 0.00323 0.03529 0.90676
 H2001 H 0.05365 -0.00738 0.91302
 C2002 C 0.55901 0.50337 0.35994
 C2003 C 0.54247 0.51610 0.35802
 C2004 C 0.53662 0.52437 0.33963
 C2005 C 0.54839 0.51944 0.32258
 C2006 C 0.56567 0.50647 0.32419
 C2007 C 0.57092 0.49829 0.34323
 O2008 O 0.56191 0.49701 0.37870
 C2009 C 0.54691 0.50595 0.38884
 C2010 C 0.53460 0.51784 0.37693
 C2011 C 0.51794 0.52850 0.38455
 C2012 C 0.51368 0.52665 0.40525
 C2013 C 0.52602 0.51425 0.41786
 C2014 C 0.54299 0.50390 0.40940
 H2015 H 0.52356 0.53437 0.33846
 H2016 H 0.54432 0.52610 0.30822
 H2017 H 0.58386 0.48822 0.34499
 H2018 H 0.50846 0.53778 0.37488
 H2019 H 0.50061 0.53467 0.41134
 H2020 H 0.55273 0.49425 0.41845
 C2021 C 0.55679 0.49342 0.13887
 C2022 C 0.53610 0.49268 0.14252
 C2023 C 0.52777 0.49407 0.16180
 C2024 C 0.54134 0.49617 0.17796
 C2025 C 0.56275 0.49658 0.17458
 C2026 C 0.57053 0.49517 0.15472
 O2027 O 0.56156 0.49258 0.11945
 C2028 C 0.54351 0.49118 0.11062
 C2029 C 0.52743 0.49101 0.12404
 C2030 C 0.50719 0.48968 0.11795
 C2031 C 0.50339 0.48880 0.09717
 C2032 C 0.51972 0.48956 0.08298
 C2033 C 0.54008 0.49057 0.08994
 H2034 H 0.51144 0.49363 0.16431
 H2035 H 0.53525 0.49714 0.19313
 H2036 H 0.58679 0.49564 0.15170
 H2037 H 0.49477 0.48955 0.12879
 H2038 H 0.48771 0.48817 0.09216
 H2039 H 0.55290 0.49117 0.07956
 C2040 C 0.05903 0.99924 0.63327
 C2041 C 0.03836 1.00019 0.63692
 C2042 C 0.03022 1.00260 0.65618
 C2043 C 0.04394 1.00389 0.67231
 C2044 C 0.06531 1.00248 0.66895
 C2045 C 0.07290 1.00020 0.64909
 O2046 O 0.06368 0.99729 0.61390
 C2047 C 0.04556 0.99690 0.60511
 C2048 C 0.02954 0.99845 0.61850
 C2049 C 0.00925 0.99808 0.61243
 C2050 C 0.00535 0.99627 0.59171
 C2051 C 0.02165 0.99516 0.57755
 C2052 C 0.04205 0.99536 0.58448
 H2053 H 0.01391 1.00340 0.65870
 H2054 H 0.03794 1.00547 0.68746
 H2055 H 0.08913 0.99920 0.64606
 H2056 H -0.00313 0.99924 0.62323
 H2057 H -0.01034 0.99624 0.58669
 H2058 H 0.05485 0.99445 0.57413
 C2059 C -0.05416 0.50485 0.64605
 C2060 C -0.03363 0.50406 0.65020
 C2061 C -0.02622 0.50215 0.66970
 C2062 C -0.04056 0.50109 0.68552
 C2063 C -0.06178 0.50220 0.68157
 C2064 C -0.06862 0.50416 0.66153
 O2065 O -0.05809 0.50587 0.62652
 C2066 C -0.03966 0.50580 0.61813
 C2067 C -0.02413 0.50488 0.63192
 C2068 C -0.00364 0.50451 0.62625
 C2069 C 0.00098 0.50482 0.60554
 C2070 C -0.01484 0.50519 0.59104
 C2071 C -0.03544 0.50590 0.59756
 H2072 H -0.01001 0.50136 0.67261
 H2073 H -0.03517 0.49967 0.70083
 H2074 H -0.08474 0.50479 0.65809
 H2075 H 0.00834 0.50377 0.63736
 H2076 H 0.01682 0.50416 0.60083
 H2077 H -0.04790 0.50622 0.58693
 C2078 C 0.44525 0.00146 0.14398
 C2079 C 0.46565 0.00132 0.14880
 C2080 C 0.47242 0.00055 0.16860
 C2081 C 0.45758 -0.00009 0.18398
 C2082 C 0.43647 0.00033 0.17935
 C2083 C 0.43027 0.00119 0.15902
 O2084 O 0.44197 0.00170 0.12430
 C2085 C 0.46068 0.00179 0.11651
 C2086 C 0.47575 0.00172 0.13081
 C2087 C 0.49643 0.00199 0.12580
 C2088 C 0.50175 0.00226 0.10523
 C2089 C 0.48643 0.00192 0.09023
 C2090 C 0.46560 0.00174 0.09608
 H2091 H 0.48854 0.00034 0.17207
 H2092 H 0.46249 -0.00065 0.19951
 H2093 H 0.41427 0.00133 0.15505
 H2094 H 0.50805 0.00199 0.13731
 H2095 H 0.51775 0.00237 0.10101
 H2096 H 0.45352 0.00167 0.08504
 C2097 C 0.35832 0.43865 0.00309
 C2098 C 0.36291 0.44068 0.02315
 C2099 C 0.34951 0.43486 0.03847
 C2100 C 0.33063 0.42647 0.03293
 C2101 C 0.32545 0.42396 0.01234
 C2102 C 0.33960 0.43021 -0.00280
 O2103 O 0.37330 0.44509 -0.00904
 C2104 C 0.38766 0.45125 0.00368
 C2105 C 0.38204 0.44877 0.02354
 C2106 C 0.39482 0.45380 0.03938
 C2107 C 0.41418 0.46179 0.03463
 C2108 C 0.42044 0.46475 0.01427
 C2109 C 0.40684 0.45937 -0.00143
 H2110 H 0.35353 0.43653 0.05416
 H2111 H 0.32027 0.42144 0.04473
 H2112 H 0.33617 0.42854 -0.01862
 H2113 H 0.39007 0.45162 0.05489
 H2114 H 0.42420 0.46582 0.04689
 H2115 H 0.41110 0.46129 -0.01711
 C2116 C -0.13841 0.93717 0.49914
 C2117 C -0.13410 0.94060 0.51907
 C2118 C -0.14770 0.93583 0.53456
 C2119 C -0.16651 0.92710 0.52934
 C2120 C -0.17145 0.92322 0.50890
 C2121 C -0.15706 0.92836 0.49358
 O2122 O -0.12329 0.94287 0.48682
 C2123 C -0.10915 0.94999 0.49929
 C2124 C -0.11503 0.94886 0.51917
 C2125 C -0.10256 0.95518 0.53481
 C2126 C -0.08322 0.96305 0.52979
 C2127 C -0.07667 0.96460 0.50937
 C2128 C -0.08997 0.95794 0.49390
 H2129 H -0.14390 0.93861 0.55015
 H2130 H -0.17708 0.92294 0.54130
 H2131 H -0.16032 0.92567 0.47785
 H2132 H -0.10752 0.95406 0.55036
 H2133 H -0.07342 0.96806 0.54189
 H2134 H -0.08551 0.95877 0.47819
 C2135 C -0.12911 0.07590 0.99402
 C2136 C -0.11723 0.08746 0.98114
 C2137 C -0.12411 0.10538 0.97231
 C2138 C -0.14402 0.11173 0.97695
 C2139 C -0.15697 0.10011 0.99017
 C2140 C -0.14912 0.08171 0.99863
 O2141 O -0.11946 0.05960 1.00116
 C2142 C -0.10115 0.06089 0.99249
 C2143 C -0.09904 0.07759 0.97998
 C2144 C -0.08117 0.08175 0.96922
 C2145 C -0.06479 0.06814 0.97147
 C2146 C -0.06645 0.05093 0.98452
 C2147 C -0.08497 0.04734 0.99517
 H2148 H -0.11450 0.11419 0.96213
 H2149 H -0.14942 0.12534 0.96940
 H2150 H -0.15788 0.07248 1.00916
 H2151 H -0.07990 0.09498 0.95943
 H2152 H -0.05074 0.07119 0.96328
 H2153 H -0.08680 0.03429 1.00514
 C2154 C 0.36994 0.57680 0.49835
 C2155 C 0.38245 0.58931 0.48696
 C2156 C 0.37578 0.60749 0.47843
 C2157 C 0.35530 0.61288 0.48150
 C2158 C 0.34174 0.59996 0.49264
 C2159 C 0.34940 0.58174 0.50143
 O2160 O 0.37935 0.56019 0.50508
 C2161 C 0.39815 0.56224 0.49768
 C2162 C 0.40081 0.57973 0.48637
 C2163 C 0.41911 0.58454 0.47664
 C2164 C 0.43538 0.57077 0.47871
 C2165 C 0.43315 0.55278 0.49059
 C2166 C 0.41422 0.54854 0.50025
 H2167 H 0.38597 0.61719 0.46969
 H2168 H 0.35006 0.62717 0.47513
 H2169 H 0.33959 0.57141 0.50987
 H2170 H 0.42077 0.59832 0.46766
 H2171 H 0.44977 0.57425 0.47130
 H2172 H 0.41198 0.53483 0.50923
 C2173 C 0.14722 0.55397 0.50747
 C2174 C 0.14313 0.55212 0.52774
 C2175 C 0.15655 0.55891 0.54241
 C2176 C 0.17484 0.56815 0.53595
 C2177 C 0.17941 0.57053 0.51510
 C2178 C 0.16533 0.56314 0.50069
 O2179 O 0.13223 0.54689 0.49603
 C2180 C 0.11836 0.54053 0.50937
 C2181 C 0.12427 0.54345 0.52898
 C2182 C 0.11181 0.53850 0.54534
 C2183 C 0.09248 0.53018 0.54135
 C2184 C 0.08597 0.52685 0.52125
 C2185 C 0.09925 0.53209 0.50505
 H2186 H 0.15291 0.55744 0.55828
 H2187 H 0.18513 0.57407 0.54722
 H2188 H 0.16828 0.56468 0.48470
 H2189 H 0.11674 0.54111 0.56064
 H2190 H 0.08262 0.52631 0.55397
 H2191 H 0.09476 0.53000 0.48953
 C2192 C 0.64768 0.06337 0.00976
 C2193 C 0.64201 0.06459 0.02970
 C2194 C 0.65455 0.07309 0.04426
 C2195 C 0.67364 0.08078 0.03801
 C2196 C 0.67992 0.07984 0.01748
 C2197 C 0.66663 0.07086 0.00321
 O2198 O 0.63343 0.05495 -0.00170
 C2199 C 0.61843 0.05080 0.01128
 C2200 C 0.62289 0.05639 0.03069
 C2201 C 0.60922 0.05355 0.04661
 C2202 C 0.59022 0.04450 0.04236
 C2203 C 0.58521 0.03852 0.02244
 C2204 C 0.59966 0.04182 0.00671
 H2205 H 0.64972 0.07402 0.05984
 H2206 H 0.68325 0.08798 0.04914
 H2207 H 0.67086 0.06977 -0.01253
 H2208 H 0.61304 0.05813 0.06177
 H2209 H 0.57948 0.04216 0.05463
 H2210 H 0.59648 0.03751 -0.00867
 C2211 C 0.63286 0.92781 0.49745
 C2212 C 0.62753 0.92738 0.47746
 C2213 C 0.64104 0.92151 0.46233
 C2214 C 0.66079 0.91573 0.46804
 C2215 C 0.66662 0.91572 0.48859
 C2216 C 0.65236 0.92182 0.50351
 O2217 O 0.61798 0.93459 0.50933
 C2218 C 0.60294 0.93845 0.49657
 C2219 C 0.60794 0.93414 0.47691
 C2220 C 0.59450 0.93727 0.46107
 C2221 C 0.57527 0.94555 0.46563
 C2222 C 0.56989 0.95076 0.48573
 C2223 C 0.58396 0.94682 0.50143
 H2224 H 0.63656 0.92144 0.44667
 H2225 H 0.67144 0.91088 0.45649
 H2226 H 0.65640 0.92207 0.51929
 H2227 H 0.59880 0.93377 0.44571
 H2228 H 0.56488 0.94853 0.45337
 H2229 H 0.58048 0.95065 0.51692
 C2230 C 0.12995 0.42323 1.00037
 C2231 C 0.12299 0.42044 0.98108
 C2232 C 0.13526 0.41282 0.96570
 C2233 C 0.15547 0.40774 0.97041
 C2234 C 0.16300 0.41018 0.99025
 C2235 C 0.14995 0.41800 1.00547
 O2236 O 0.11606 0.43146 1.01252
 C2237 C 0.09999 0.43386 1.00065
 C2238 C 0.10340 0.42722 0.98131
 C2239 C 0.08879 0.42868 0.96630
 C2240 C 0.07004 0.43775 0.97129
 C2241 C 0.06626 0.44535 0.99100
 C2242 C 0.08147 0.44298 1.00595
 H2243 H 0.12950 0.41093 0.95058
 H2244 H 0.16518 0.40156 0.95867
 H2245 H 0.15530 0.42018 1.02070
 H2246 H 0.09185 0.42338 0.95116
 H2247 H 0.05877 0.43941 0.95957
 H2248 H 0.07929 0.44873 1.02108
 C2249 C -0.02206 0.35795 0.43915
 C2250 C -0.02381 0.35424 0.45949
 C2251 C -0.02504 0.33465 0.46769
 C2252 C -0.02413 0.31812 0.45437
 C2253 C -0.02216 0.32153 0.43337
 C2254 C -0.02150 0.34172 0.42561
 O2255 O -0.01925 0.37763 0.43470
 C2256 C -0.01913 0.38651 0.45264
 C2257 C -0.02193 0.37279 0.46824
 C2258 C -0.02081 0.37829 0.48832
 C2259 C -0.01630 0.39872 0.49258
 C2260 C -0.01297 0.41319 0.47685
 C2261 C -0.01487 0.40712 0.45655
 H2262 H -0.02596 0.33218 0.48379
 H2263 H -0.02449 0.30268 0.46036
 H2264 H -0.01939 0.34463 0.40966
 H2265 H -0.02277 0.36714 0.50029
 H2266 H -0.01512 0.40322 0.50820
 H2267 H -0.01206 0.41778 0.44430
 C2268 C 0.49771 -0.13293 -0.07235
 C2269 C 0.51800 -0.13013 -0.06794
 C2270 C 0.53265 -0.14519 -0.07061
 C2271 C 0.52615 -0.16399 -0.07828
 C2272 C 0.50540 -0.16727 -0.08321
 C2273 C 0.49095 -0.15148 -0.08037
 O2274 O 0.48620 -0.11699 -0.06737
 C2275 C 0.49957 -0.10387 -0.05965
 C2276 C 0.51922 -0.11125 -0.05984
 C2277 C 0.53559 -0.10075 -0.05169
 C2278 C 0.53152 -0.08208 -0.04242
 C2279 C 0.51134 -0.07431 -0.04136
 C2280 C 0.49514 -0.08508 -0.05057
 H2281 H 0.54846 -0.14263 -0.06669
 H2282 H 0.53729 -0.17597 -0.08060
 H2283 H 0.47499 -0.15377 -0.08388
 H2284 H 0.55086 -0.10699 -0.05194
 H2285 H 0.54406 -0.07389 -0.03553
 H2286 H 0.47958 -0.07965 -0.04962
 C2287 C -0.00714 -0.14468 1.05559
 C2288 C -0.02202 -0.14583 1.04114
 C2289 C -0.03468 -0.16280 1.03899
 C2290 C -0.03187 -0.17926 1.05231
 C2291 C -0.01654 -0.17845 1.06732
 C2292 C -0.00399 -0.16086 1.06883
 O2293 O 0.00299 -0.12708 1.05540
 C2294 C -0.00569 -0.11685 1.04050
 C2295 C -0.02103 -0.12765 1.03124
 C2296 C -0.03224 -0.11974 1.01537
 C2297 C -0.02752 -0.09982 1.00887
 C2298 C -0.01188 -0.08824 1.01835
 C2299 C -0.00078 -0.09704 1.03436
 H2300 H -0.04640 -0.16327 1.02760
 H2301 H -0.04183 -0.19246 1.05112
 H2302 H 0.00802 -0.15978 1.07990
 H2303 H -0.04427 -0.12852 1.00834
 H2304 H -0.03626 -0.09338 0.99663
 H2305 H 0.01120 -0.08870 1.04197
 C2306 C 0.50285 0.35548 0.55745
 C2307 C 0.48837 0.35334 0.54272
 C2308 C 0.47812 0.33503 0.53924
 C2309 C 0.48286 0.31832 0.55166
 C2310 C 0.49763 0.32025 0.56711
 C2311 C 0.50789 0.33910 0.56981
 O2312 O 0.51049 0.37424 0.55859
 C2313 C 0.50058 0.38419 0.54429
 C2314 C 0.48687 0.37211 0.53412
 C2315 C 0.47470 0.37954 0.51873
 C2316 C 0.47683 0.40027 0.51355
 C2317 C 0.49093 0.41306 0.52381
 C2318 C 0.50291 0.40478 0.53946
 H2319 H 0.46667 0.33377 0.52765
 H2320 H 0.47460 0.30411 0.54961
 H2321 H 0.51932 0.34106 0.58135
 H2322 H 0.46396 0.36976 0.51100
 H2323 H 0.46749 0.40629 0.50153
 H2324 H 0.51382 0.41401 0.54762
 C2325 C 0.50652 1.13759 0.56597
 C2326 C 0.51385 1.14182 0.54694
 C2327 C 0.52042 1.16113 0.54096
 C2328 C 0.51941 1.17681 0.55521
 C2329 C 0.51206 1.17287 0.57505
 C2330 C 0.50548 1.15292 0.58044
 O2331 O 0.50100 1.11818 0.56848
 C2332 C 0.50495 1.11001 0.55063
 C2333 C 0.51287 1.12385 0.53697
 C2334 C 0.51832 1.11863 0.51744
 C2335 C 0.51555 1.09823 0.51173
 C2336 C 0.50735 1.08358 0.52551
 C2337 C 0.50191 1.08965 0.54525
 H2338 H 0.52600 1.16407 0.52583
 H2339 H 0.52407 1.19207 0.55067
 H2340 H 0.49992 1.14937 0.59545
 H2341 H 0.52455 1.12983 0.50700
 H2342 H 0.51972 1.09391 0.49653
 H2343 H 0.49575 1.07886 0.55615
 C2344 C 0.00740 0.63826 1.06736
 C2345 C 0.02673 0.63563 1.05967
 C2346 C 0.04220 0.65002 1.06194
 C2347 C 0.03752 0.66791 1.07257
 C2348 C 0.01755 0.67116 1.08042
 C2349 C 0.00232 0.65600 1.07769
 O2350 O -0.00504 0.62268 1.06368
 C2351 C 0.00671 0.60993 1.05339
 C2352 C 0.02625 0.61720 1.05043
 C2353 C 0.04096 0.60653 1.03966
 C2354 C 0.03528 0.58757 1.03162
 C2355 C 0.01527 0.57963 1.03469
 C2356 C 0.00082 0.59099 1.04582
 H2357 H 0.05736 0.64752 1.05588
 H2358 H 0.04952 0.67908 1.07484
 H2359 H -0.01314 0.65801 1.08315
 H2360 H 0.05621 0.61261 1.03745
 H2361 H 0.04655 0.57897 1.02321
 H2362 H -0.01460 0.58540 1.04826
 C2363 C 0.50499 0.64412 -0.05835
 C2364 C 0.52503 0.63797 -0.05832
 C2365 C 0.54077 0.64966 -0.06655
 C2366 C 0.53562 0.66832 -0.07556
 C2367 C 0.51497 0.67477 -0.07649
 C2368 C 0.49948 0.66261 -0.06735
 O2369 O 0.49232 0.63030 -0.05039
 C2370 C 0.50466 0.61507 -0.04537
 C2371 C 0.52480 0.61900 -0.05005
 C2372 C 0.54018 0.60470 -0.04743
 C2373 C 0.53457 0.58551 -0.03970
 C2374 C 0.51395 0.58112 -0.03453
 C2375 C 0.49879 0.59619 -0.03717
 H2376 H 0.55643 0.64444 -0.06633
 H2377 H 0.54771 0.67758 -0.08213
 H2378 H 0.48356 0.66689 -0.06808
 H2379 H 0.55586 0.60806 -0.05154
 H2380 H 0.54628 0.57405 -0.03764
 H2381 H 0.48292 0.59305 -0.03363
 C2382 C 0.00631 1.13800 0.42572
 C2383 C 0.01961 1.12680 0.41420
 C2384 C 0.02894 1.13443 0.39694
 C2385 C 0.02432 1.15448 0.39117
 C2386 C 0.01048 1.16670 0.40262
 C2387 C 0.00156 1.15810 0.42040
 O2388 O -0.00125 1.12754 0.44132
 C2389 C 0.00758 1.10936 0.43954
 C2390 C 0.02051 1.10822 0.42320
 C2391 C 0.03116 1.09067 0.41817
 C2392 C 0.02832 1.07346 0.43047
 C2393 C 0.01493 1.07400 0.44744
 C2394 C 0.00448 1.09236 0.45206
 H2395 H 0.03948 1.12527 0.38821
 H2396 H 0.03228 1.16052 0.37811
 H2397 H -0.00948 1.16627 0.42943
 H2398 H 0.04120 1.09020 0.40517
 H2399 H 0.03653 1.05967 0.42657
 H2400 H -0.00589 1.09332 0.46478
 C2401 C 0.73982 0.69053 0.88826
 C2402 C 0.72603 0.70622 0.89016
 C2403 C 0.71704 0.71133 0.90848
 C2404 C 0.72247 0.69980 0.92550
 C2405 C 0.73671 0.68351 0.92401
 C2406 C 0.74542 0.67884 0.90498
 O2407 O 0.74681 0.68837 0.86958
 C2408 C 0.73722 0.70300 0.85949
 C2409 C 0.72431 0.71435 0.87135
 C2410 C 0.71301 0.73063 0.86383
 C2411 C 0.71523 0.73550 0.84328
 C2412 C 0.72860 0.72412 0.83069
 C2413 C 0.73962 0.70751 0.83905
 H2414 H 0.70621 0.72373 0.90963
 H2415 H 0.71536 0.70342 0.93980
 H2416 H 0.75645 0.66667 0.90329
 H2417 H 0.70297 0.73940 0.87348
 H2418 H 0.70668 0.74825 0.83729
 H2419 H 0.75007 0.69853 0.83003
 C2420 C 0.24548 0.19559 0.39178
 C2421 C 0.23434 0.21319 0.39429
 C2422 C 0.22666 0.21921 0.41289
 C2423 C 0.23062 0.20659 0.42956
 C2424 C 0.24223 0.18836 0.42746
 C2425 C 0.24973 0.18288 0.40816
 O2426 O 0.25120 0.19251 0.37283
 C2427 C 0.24350 0.20852 0.36318
 C2428 C 0.23309 0.22167 0.37560
 C2429 C 0.22388 0.23944 0.36857
 C2430 C 0.22547 0.24381 0.34787
 C2431 C 0.23603 0.23039 0.33466
 C2432 C 0.24517 0.21248 0.34259
 H2433 H 0.21778 0.23304 0.41449
 H2434 H 0.22431 0.21089 0.44403
 H2435 H 0.25874 0.16923 0.40593
 H2436 H 0.21577 0.24958 0.37864
 H2437 H 0.21834 0.25755 0.34216
 H2438 H 0.25342 0.20191 0.33305
 C2439 C 0.75995 0.31110 0.38596
 C2440 C 0.76410 0.29081 0.38967
 C2441 C 0.76515 0.28272 0.40906
 C2442 C 0.76192 0.29612 0.42526
 C2443 C 0.75804 0.31717 0.42181
 C2444 C 0.75711 0.32477 0.40186
 O2445 O 0.75872 0.31549 0.36647
 C2446 C 0.76225 0.29762 0.35767
 C2447 C 0.76584 0.28206 0.37118
 C2448 C 0.76978 0.26208 0.36518
 C2449 C 0.76967 0.25789 0.34444
 C2450 C 0.76533 0.27353 0.33019
 C2451 C 0.76180 0.29375 0.33701
 H2452 H 0.76820 0.26666 0.41162
 H2453 H 0.76270 0.29021 0.44050
 H2454 H 0.75401 0.34075 0.39887
 H2455 H 0.77256 0.25008 0.37609
 H2456 H 0.77224 0.24232 0.33956
 H2457 H 0.75840 0.30604 0.32660
 C2458 C 0.25642 0.80943 0.88680
 C2459 C 0.25956 0.78903 0.89096
 C2460 C 0.26096 0.78144 0.91051
 C2461 C 0.25913 0.79545 0.92641
 C2462 C 0.25628 0.81658 0.92249
 C2463 C 0.25498 0.82368 0.90239
 O2464 O 0.25478 0.81334 0.86723
 C2465 C 0.25702 0.79505 0.85885
 C2466 C 0.26018 0.77969 0.87269
 C2467 C 0.26297 0.75938 0.86717
 C2468 C 0.26226 0.75466 0.84657
 C2469 C 0.25848 0.77011 0.83197
 C2470 C 0.25595 0.79065 0.83831
 H2471 H 0.26324 0.76531 0.91342
 H2472 H 0.26017 0.78993 0.94176
 H2473 H 0.25265 0.83973 0.89905
 H2474 H 0.26546 0.74756 0.87834
 H2475 H 0.26410 0.73887 0.84206
 H2476 H 0.25307 0.80282 0.82760
 C2477 C 0.24863 0.81035 0.10848
 C2478 C 0.23698 0.79305 0.10596
 C2479 C 0.23015 0.78677 0.08724
 C2480 C 0.23540 0.79886 0.07043
 C2481 C 0.24726 0.81714 0.07240
 C2482 C 0.25394 0.82272 0.09204
 O2483 O 0.25391 0.81343 0.12751
 C2484 C 0.24530 0.79775 0.13720
 C2485 C 0.23469 0.78487 0.12472
 C2486 C 0.22452 0.76749 0.13174
 C2487 C 0.22547 0.76311 0.15245
 C2488 C 0.23659 0.77600 0.16570
 C2489 C 0.24654 0.79367 0.15782
 H2490 H 0.22093 0.77309 0.08562
 H2491 H 0.22928 0.79421 0.05608
 H2492 H 0.26358 0.83589 0.09465
 H2493 H 0.21625 0.75757 0.12162
 H2494 H 0.21781 0.74950 0.15806
 H2495 H 0.25516 0.80387 0.16737
 C2496 C 0.74946 0.30781 0.60849
 C2497 C 0.73814 0.29027 0.60611
 C2498 C 0.73106 0.28392 0.58751
 C2499 C 0.73570 0.29619 0.57066
 C2500 C 0.74721 0.31471 0.57250
 C2501 C 0.75418 0.32034 0.59202
 O2502 O 0.75515 0.31088 0.62740
 C2503 C 0.74715 0.29495 0.63717
 C2504 C 0.73651 0.28192 0.62485
 C2505 C 0.72705 0.26418 0.63195
 C2506 C 0.72882 0.25957 0.65254
 C2507 C 0.74002 0.27259 0.66560
 C2508 C 0.74915 0.29067 0.65767
 H2509 H 0.72214 0.27004 0.58600
 H2510 H 0.72941 0.29147 0.55641
 H2511 H 0.76363 0.33369 0.59451
 H2512 H 0.71876 0.25414 0.62196
 H2513 H 0.72176 0.24566 0.65818
 H2514 H 0.75788 0.30094 0.66706
 C2515 C 0.25314 0.19348 0.61369
 C2516 C 0.26236 0.21229 0.61118
 C2517 C 0.26859 0.21971 0.59247
 C2518 C 0.26536 0.20717 0.57568
 C2519 C 0.25606 0.18758 0.57783
 C2520 C 0.24967 0.18079 0.59717
 O2521 O 0.24875 0.18917 0.63280
 C2522 C 0.25536 0.20560 0.64255
 C2523 C 0.26381 0.22019 0.63002
 C2524 C 0.27193 0.23847 0.63710
 C2525 C 0.27127 0.24189 0.65795
 C2526 C 0.26261 0.22710 0.67130
 C2527 C 0.25455 0.20867 0.66333
 H2528 H 0.27582 0.23456 0.59087
 H2529 H 0.27014 0.21271 0.56099
 H2530 H 0.24278 0.16585 0.59936
 H2531 H 0.27857 0.24970 0.62693
 H2532 H 0.27753 0.25608 0.66364
 H2533 H 0.24786 0.19699 0.67297
 C2534 C 0.75568 0.69417 0.11075
 C2535 C 0.76933 0.71012 0.10937
 C2536 C 0.77908 0.71545 0.09150
 C2537 C 0.77480 0.70375 0.07437
 C2538 C 0.76094 0.68677 0.07517
 C2539 C 0.75112 0.68229 0.09392
 O2540 O 0.74810 0.69162 0.12921
 C2541 C 0.75717 0.70633 0.13965
 C2542 C 0.77033 0.71807 0.12822
 C2543 C 0.78142 0.73431 0.13613
 C2544 C 0.77872 0.73874 0.15665
 C2545 C 0.76508 0.72698 0.16884
 C2546 C 0.75426 0.71043 0.16009
 H2547 H 0.78958 0.72828 0.09071
 H2548 H 0.78195 0.70859 0.06042
 H2549 H 0.74089 0.66940 0.09588
 H2550 H 0.79172 0.74332 0.12682
 H2551 H 0.78716 0.75145 0.16294
 H2552 H 0.74369 0.70113 0.16882
 C2553 C 0.16842 0.61946 0.24711
 C2554 C 0.16472 0.62669 0.22800
 C2555 C 0.15558 0.61478 0.21326
 C2556 C 0.15000 0.59464 0.21843
 C2557 C 0.15355 0.58679 0.23808
 C2558 C 0.16281 0.59952 0.25264
 O2559 O 0.17800 0.63296 0.25861
 C2560 C 0.18037 0.64906 0.24651
 C2561 C 0.17244 0.64607 0.22765
 C2562 C 0.17380 0.66079 0.21247
 C2563 C 0.18405 0.67918 0.21681
 C2564 C 0.19283 0.68251 0.23604
 C2565 C 0.19059 0.66721 0.25116
 H2566 H 0.15295 0.62074 0.19828
 H2567 H 0.14272 0.58521 0.20717
 H2568 H 0.16594 0.59394 0.26768
 H2569 H 0.16752 0.65805 0.19769
 H2570 H 0.18561 0.69056 0.20499
 H2571 H 0.19720 0.66902 0.26594
 C2572 C 0.68498 0.10859 0.73959
 C2573 C 0.68270 0.11648 0.72055
 C2574 C 0.67312 0.10593 0.70524
 C2575 C 0.66497 0.08662 0.70980
 C2576 C 0.66612 0.07807 0.72962
 C2577 C 0.67702 0.08924 0.74454
 O2578 O 0.69447 0.12146 0.75193
 C2579 C 0.69815 0.13777 0.74035
 C2580 C 0.69115 0.13544 0.72104
 C2581 C 0.69285 0.15066 0.70647
 C2582 C 0.70239 0.16903 0.71189
 C2583 C 0.71016 0.17191 0.73162
 C2584 C 0.70787 0.15595 0.74609
 H2585 H 0.67185 0.11237 0.69026
 H2586 H 0.65805 0.07831 0.69755
 H2587 H 0.67822 0.08383 0.75990
 H2588 H 0.68704 0.14847 0.69141
 H2589 H 0.70395 0.18089 0.70054
 H2590 H 0.71354 0.15757 0.76127
 C2591 C 0.82476 0.11494 0.24887
 C2592 C 0.83437 0.12545 0.26403
 C2593 C 0.85056 0.11734 0.27480
 C2594 C 0.85721 0.09765 0.26969
 C2595 C 0.84761 0.08638 0.25412
 C2596 C 0.83100 0.09517 0.24367
 O2597 O 0.80988 0.12559 0.24034
 C2598 C 0.81010 0.14316 0.25038
 C2599 C 0.82475 0.14380 0.26508
 C2600 C 0.82762 0.16070 0.27742
 C2601 C 0.81485 0.17764 0.27454
 C2602 C 0.79964 0.17751 0.25939
 C2603 C 0.79733 0.15992 0.24712
 H2604 H 0.85788 0.12591 0.28667
 H2605 H 0.86975 0.09107 0.27800
 H2606 H 0.82345 0.08703 0.23164
 H2607 H 0.83927 0.16083 0.28888
 H2608 H 0.81697 0.19092 0.28400
 H2609 H 0.78588 0.15923 0.23547
 C2610 C 0.32144 0.61137 0.75304
 C2611 C 0.32505 0.61893 0.77199
 C2612 C 0.33575 0.60811 0.78650
 C2613 C 0.34298 0.58865 0.78132
 C2614 C 0.33948 0.58039 0.76189
 C2615 C 0.32866 0.59207 0.74748
 O2616 O 0.31052 0.62398 0.74170
 C2617 C 0.30721 0.63983 0.75377
 C2618 C 0.31584 0.63750 0.77244
 C2619 C 0.31408 0.65211 0.78749
 C2620 C 0.30286 0.66982 0.78320
 C2621 C 0.29355 0.67261 0.76411
 C2622 C 0.29593 0.65731 0.74917
 H2623 H 0.33837 0.61437 0.80133
 H2624 H 0.35147 0.58006 0.79241
 H2625 H 0.32563 0.58614 0.73260
 H2626 H 0.32100 0.64990 0.80208
 H2627 H 0.30129 0.68124 0.79487
 H2628 H 0.28905 0.65882 0.73446
 C2629 C 0.32163 0.38477 0.74999
 C2630 C 0.30766 0.38482 0.73467
 C2631 C 0.30325 0.40221 0.72348
 C2632 C 0.31378 0.42031 0.72813
 C2633 C 0.32893 0.42073 0.74347
 C2634 C 0.33277 0.40243 0.75448
 O2635 O 0.32290 0.36679 0.75934
 C2636 C 0.30958 0.35520 0.74953
 C2637 C 0.30007 0.36545 0.73411
 C2638 C 0.28592 0.35617 0.72157
 C2639 C 0.28122 0.33551 0.72518
 C2640 C 0.29025 0.32476 0.74141
 C2641 C 0.30467 0.33476 0.75377
 H2642 H 0.29208 0.40187 0.71156
 H2643 H 0.31073 0.43365 0.71896
 H2644 H 0.34361 0.40198 0.76669
 H2645 H 0.27875 0.36453 0.70945
 H2646 H 0.27005 0.32803 0.71573
 H2647 H 0.31181 0.32687 0.76622
 C2648 C 0.82055 0.88792 0.24627
 C2649 C 0.82489 0.88006 0.22756
 C2650 C 0.83457 0.89137 0.21249
 C2651 C 0.84017 0.91159 0.21692
 C2652 C 0.83612 0.92010 0.23618
 C2653 C 0.82617 0.90800 0.25109
 O2654 O 0.81082 0.87467 0.25823
 C2655 C 0.80905 0.85810 0.24680
 C2656 C 0.81752 0.86060 0.22795
 C2657 C 0.81728 0.84530 0.21349
 C2658 C 0.80762 0.82675 0.21851
 C2659 C 0.79827 0.82381 0.23771
 C2660 C 0.79928 0.83977 0.25213
 H2661 H 0.83776 0.88485 0.19786
 H2662 H 0.84808 0.92047 0.20546
 H2663 H 0.82283 0.91405 0.26589
 H2664 H 0.82408 0.84765 0.19875
 H2665 H 0.80706 0.81488 0.20721
 H2666 H 0.79226 0.83819 0.26687
 C2667 C 0.67238 0.88533 0.75472
 C2668 C 0.66078 0.87353 0.76764
 C2669 C 0.64354 0.88085 0.77736
 C2670 C 0.63778 0.90108 0.77343
 C2671 C 0.64928 0.91390 0.75997
 C2672 C 0.66721 0.90576 0.75088
 O2673 O 0.68784 0.87509 0.74657
 C2674 C 0.68593 0.85649 0.75462
 C2675 C 0.66968 0.85481 0.76773
 C2676 C 0.66484 0.83676 0.77791
 C2677 C 0.67732 0.81970 0.77449
 C2678 C 0.69408 0.82088 0.76087
 C2679 C 0.69837 0.83961 0.75076
 H2680 H 0.63472 0.87128 0.78756
 H2681 H 0.62460 0.90679 0.78150
 H2682 H 0.67632 0.91454 0.74026
 H2683 H 0.65193 0.83584 0.78814
 H2684 H 0.67376 0.80552 0.78228
 H2685 H 0.71112 0.84106 0.74037
 C2686 C 0.18639 0.39206 0.25368
 C2687 C 0.19158 0.38883 0.27346
 C2688 C 0.18796 0.40316 0.28847
 C2689 C 0.17845 0.42151 0.28291
 C2690 C 0.17264 0.42522 0.26265
 C2691 C 0.17679 0.41020 0.24783
 O2692 O 0.19102 0.37637 0.24185
 C2693 C 0.19924 0.36292 0.25447
 C2694 C 0.19984 0.36979 0.27400
 C2695 C 0.20727 0.35801 0.28977
 C2696 C 0.21441 0.33832 0.28525
 C2697 C 0.21418 0.33082 0.26520
 C2698 C 0.20650 0.34345 0.24958
 H2699 H 0.19210 0.40021 0.30396
 H2700 H 0.17508 0.43259 0.29454
 H2701 H 0.17258 0.41252 0.23225
 H2702 H 0.20746 0.36371 0.30504
 H2703 H 0.22025 0.32899 0.29741
 H2704 H 0.20590 0.33818 0.23416
 C2705 C 0.11846 0.25037 0.82269
 C2706 C 0.13180 0.24826 0.83847
 C2707 C 0.12571 0.24923 0.85852
 C2708 C 0.10491 0.25227 0.86249
 C2709 C 0.09082 0.25394 0.84648
 C2710 C 0.09768 0.25303 0.82630
 O2711 O 0.12749 0.24927 0.80478
 C2712 C 0.14693 0.24627 0.80937
 C2713 C 0.15030 0.24534 0.82978
 C2714 C 0.16940 0.24184 0.83798
 C2715 C 0.18578 0.23941 0.82457
 C2716 C 0.18280 0.24082 0.80344
 C2717 C 0.16307 0.24429 0.79574
 H2718 H 0.13653 0.24761 0.87065
 H2719 H 0.09967 0.25276 0.87799
 H2720 H 0.08714 0.25425 0.81387
 H2721 H 0.17163 0.24108 0.85409
 H2722 H 0.20088 0.23701 0.83066
 H2723 H 0.16040 0.24542 0.77970
 C2724 C 0.60671 0.75671 0.31209
 C2725 C 0.60342 0.76484 0.29328
 C2726 C 0.58426 0.77072 0.28665
 C2727 C 0.56777 0.76810 0.29999
 C2728 C 0.57075 0.75988 0.31960
 C2729 C 0.59061 0.75415 0.32566
 O2730 O 0.62606 0.75185 0.31530
 C2731 C 0.63517 0.75704 0.29811
 C2732 C 0.62198 0.76513 0.28419
 C2733 C 0.62824 0.77163 0.26520
 C2734 C 0.64897 0.76968 0.26032
 C2735 C 0.66292 0.76121 0.27435
 C2736 C 0.65583 0.75481 0.29355
 H2737 H 0.58204 0.77692 0.27168
 H2738 H 0.55267 0.77219 0.29490
 H2739 H 0.59352 0.74804 0.34053
 H2740 H 0.61756 0.77794 0.25451
 H2741 H 0.65404 0.77458 0.24551
 H2742 H 0.66603 0.74835 0.30461
 C2743 C 0.60557 0.25519 0.19368
 C2744 C 0.60352 0.24100 0.20891
 C2745 C 0.58521 0.23114 0.21335
 C2746 C 0.56831 0.23592 0.20144
 C2747 C 0.56996 0.25044 0.18549
 C2748 C 0.58892 0.26032 0.18174
 O2749 O 0.62446 0.26240 0.19170
 C2750 C 0.63454 0.25249 0.20599
 C2751 C 0.62238 0.23924 0.21692
 C2752 C 0.62976 0.22709 0.23240
 C2753 C 0.65054 0.22874 0.23692
 C2754 C 0.66353 0.24234 0.22594
 C2755 C 0.65530 0.25435 0.21017
 H2756 H 0.58406 0.21987 0.22531
 H2757 H 0.55415 0.22779 0.20428
 H2758 H 0.59075 0.27148 0.16976
 H2759 H 0.61987 0.21671 0.24071
 H2760 H 0.65644 0.21936 0.24901
 H2761 H 0.66470 0.26488 0.20148
 C2762 C 0.10539 0.74880 0.68567
 C2763 C 0.10198 0.73639 0.70214
 C2764 C 0.08300 0.72806 0.70684
 C2765 C 0.06680 0.73269 0.69400
 C2766 C 0.06983 0.74547 0.67687
 C2767 C 0.08948 0.75359 0.67265
 O2768 O 0.12462 0.75513 0.68404
 C2769 C 0.13350 0.74650 0.69983
 C2770 C 0.12028 0.73487 0.71132
 C2771 C 0.12622 0.72446 0.72854
 C2772 C 0.14667 0.72616 0.73424
 C2773 C 0.16074 0.73816 0.72275
 C2774 C 0.15397 0.74843 0.70521
 H2775 H 0.08076 0.71827 0.71987
 H2776 H 0.05197 0.72602 0.69722
 H2777 H 0.09226 0.76343 0.65975
 H2778 H 0.11548 0.71541 0.73731
 H2779 H 0.15144 0.71816 0.74770
 H2780 H 0.16422 0.75770 0.69608
 C2781 C 0.88617 0.75291 0.68638
 C2782 C 0.88798 0.76720 0.70135
 C2783 C 0.90558 0.77859 0.70430
 C2784 C 0.92204 0.77523 0.69117
 C2785 C 0.92078 0.76056 0.67535
 C2786 C 0.90236 0.74914 0.67323
 O2787 O 0.86789 0.74408 0.68591
 C2788 C 0.85800 0.75299 0.70099
 C2789 C 0.86966 0.76721 0.71094
 C2790 C 0.86236 0.77852 0.72707
 C2791 C 0.84216 0.77503 0.73323
 C2792 C 0.82967 0.76049 0.72318
 C2793 C 0.83783 0.74930 0.70680
 H2794 H 0.90664 0.78969 0.71630
 H2795 H 0.93594 0.78368 0.69400
 H2796 H 0.90012 0.73829 0.66119
 H2797 H 0.87186 0.78967 0.73460
 H2798 H 0.83627 0.78381 0.74576
 H2799 H 0.82879 0.73813 0.69877
 C2800 C 0.38354 0.24156 0.18449
 C2801 C 0.37767 0.22138 0.18583
 C2802 C 0.39010 0.20539 0.17975
 C2803 C 0.40932 0.21043 0.17171
 C2804 C 0.41554 0.23122 0.16938
 C2805 C 0.40235 0.24696 0.17610
 O2806 O 0.36957 0.25439 0.19147
 C2807 C 0.35450 0.24202 0.19723
 C2808 C 0.35861 0.22167 0.19387
 C2809 C 0.34465 0.20612 0.19807
 C2810 C 0.32571 0.21179 0.20618
 C2811 C 0.32139 0.23261 0.21028
 C2812 C 0.33599 0.24794 0.20580
 H2813 H 0.38525 0.18960 0.18126
 H2814 H 0.41930 0.19804 0.16739
 H2815 H 0.40625 0.26298 0.17442
 H2816 H 0.34817 0.19025 0.19511
 H2817 H 0.31457 0.19997 0.20969
 H2818 H 0.33291 0.26394 0.20867
 C2819 C 0.38609 0.73926 0.31313
 C2820 C 0.38776 0.72526 0.29781
 C2821 C 0.40552 0.71437 0.29399
 C2822 C 0.42231 0.71817 0.30642
 C2823 C 0.42101 0.73263 0.32227
 C2824 C 0.40253 0.74320 0.32571
 O2825 O 0.36801 0.74828 0.31391
 C2826 C 0.35806 0.73979 0.29874
 C2827 C 0.36946 0.72560 0.28844
 C2828 C 0.36217 0.71513 0.27181
 C2829 C 0.34229 0.71950 0.26551
 C2830 C 0.33016 0.73415 0.27584
 C2831 C 0.33825 0.74436 0.29278
 H2832 H 0.40647 0.70345 0.28181
 H2833 H 0.43630 0.70980 0.30376
 H2834 H 0.40116 0.75452 0.33749
 H2835 H 0.37148 0.70410 0.26390
 H2836 H 0.33644 0.71148 0.25251
 H2837 H 0.32952 0.75565 0.30100
 C2838 C 0.89858 0.24790 0.80556
 C2839 C 0.90166 0.23605 0.78877
 C2840 C 0.92039 0.22733 0.78406
 C2841 C 0.93658 0.23084 0.79732
 C2842 C 0.93373 0.24290 0.81486
 C2843 C 0.91443 0.25168 0.81886
 O2844 O 0.87955 0.25443 0.80752
 C2845 C 0.87038 0.24648 0.79162
 C2846 C 0.88323 0.23511 0.77968
 C2847 C 0.87673 0.22515 0.76245
 C2848 C 0.85612 0.22699 0.75730
 C2849 C 0.84248 0.23865 0.76939
 C2850 C 0.84984 0.24853 0.78682
 H2851 H 0.92239 0.21793 0.77082
 H2852 H 0.95116 0.22376 0.79420
 H2853 H 0.91177 0.26108 0.83199
 H2854 H 0.88713 0.21622 0.75333
 H2855 H 0.85085 0.21929 0.74389
 H2856 H 0.83993 0.25749 0.79644
 C2857 C 0.55375 1.00325 0.63957
 C2858 C 0.54032 1.01933 0.64041
 C2859 C 0.53622 1.02989 0.65809
 C2860 C 0.54661 1.02383 0.67554
 C2861 C 0.56074 1.00737 0.67507
 C2862 C 0.56412 0.99686 0.65673
 O2863 O 0.55553 0.99525 0.62131
 C2864 C 0.54295 1.00655 0.61037
 C2865 C 0.53326 1.02150 0.62131
 C2866 C 0.51926 1.03487 0.61280
 C2867 C 0.51484 1.03252 0.59226
 C2868 C 0.52449 1.01705 0.58067
 C2869 C 0.53896 1.00406 0.58994
 H2870 H 0.52563 1.04255 0.65839
 H2871 H 0.54407 1.03238 0.68924
 H2872 H 0.57460 0.98414 0.65577
 H2873 H 0.51180 1.04652 0.62171
 H2874 H 0.50373 1.04260 0.58549
 H2875 H 0.54645 0.99194 0.58169
 C2876 C 0.05666 0.50338 1.14319
 C2877 C 0.03856 0.51347 1.14584
 C2878 C 0.03145 0.51937 1.16462
 C2879 C 0.04355 0.51486 1.18140
 C2880 C 0.06281 0.50467 1.17941
 C2881 C 0.06912 0.49890 1.15957
 O2882 O 0.06033 0.49852 1.12410
 C2883 C 0.04421 0.50586 1.11451
 C2884 C 0.03049 0.51528 1.12713
 C2885 C 0.01248 0.52396 1.12029
 C2886 C 0.00830 0.52264 1.09963
 C2887 C 0.02198 0.51258 1.08626
 C2888 C 0.04032 0.50424 1.09393
 H2889 H 0.01711 0.52735 1.16633
 H2890 H 0.03807 0.52058 1.19567
 H2891 H 0.08285 0.49029 1.15664
 H2892 H 0.00190 0.53130 1.13052
 H2893 H -0.00584 0.52905 1.09419
 H2894 H 0.05110 0.49641 1.08426
 C2895 C -0.06068 -0.01526 1.13208
 C2896 C -0.04645 -0.03056 1.13314
 C2897 C -0.04242 -0.04106 1.15085
 C2898 C -0.05357 -0.03566 1.16815
 C2899 C -0.06861 -0.01986 1.16767
 C2900 C -0.07195 -0.00958 1.14903
 O2901 O -0.06199 -0.00691 1.11389
 C2902 C -0.04820 -0.01714 1.10327
 C2903 C -0.03824 -0.03180 1.11431
 C2904 C -0.02284 -0.04390 1.10619
 C2905 C -0.01731 -0.04053 1.08595
 C2906 C -0.02721 -0.02528 1.07428
 C2907 C -0.04308 -0.01364 1.08316
 H2908 H -0.03090 -0.05286 1.15142
 H2909 H -0.04965 -0.04341 1.18198
 H2910 H -0.08345 0.00209 1.14728
 H2911 H -0.01515 -0.05531 1.11520
 H2912 H -0.00513 -0.04959 1.07950
 H2913 H -0.05085 -0.00171 1.07488
 C2914 C 0.43893 0.48607 0.63792
 C2915 C 0.45378 0.47131 0.63918
 C2916 C 0.45818 0.46113 0.65704
 C2917 C 0.44683 0.46637 0.67427
 C2918 C 0.43144 0.48161 0.67339
 C2919 C 0.42745 0.49149 0.65483
 O2920 O 0.43748 0.49429 0.61969
 C2921 C 0.45172 0.48454 0.60922
 C2922 C 0.46214 0.47030 0.62039
 C2923 C 0.47806 0.45878 0.61243
 C2924 C 0.48360 0.46226 0.59221
 C2925 C 0.47322 0.47706 0.58040
 C2926 C 0.45688 0.48815 0.58913
 H2927 H 0.46997 0.44960 0.65771
 H2928 H 0.44991 0.45842 0.68825
 H2929 H 0.41604 0.50336 0.65365
 H2930 H 0.48612 0.44772 0.62154
 H2931 H 0.49616 0.45362 0.58589
 H2932 H 0.44871 0.49972 0.58074
 C2933 C 0.44310 0.50963 -0.14040
 C2934 C 0.46232 0.51763 -0.14357
 C2935 C 0.46991 0.52214 -0.16269
 C2936 C 0.45715 0.51833 -0.17917
 C2937 C 0.43715 0.51021 -0.17630
 C2938 C 0.43014 0.50582 -0.15652
 O2939 O 0.43898 0.50591 -0.12114
 C2940 C 0.45597 0.51167 -0.11195
 C2941 C 0.47072 0.51901 -0.12496
 C2942 C 0.48983 0.52546 -0.11849
 C2943 C 0.49401 0.52397 -0.09781
 C2944 C 0.47916 0.51606 -0.08409
 C2945 C 0.45976 0.51009 -0.09140
 H2946 H 0.48517 0.52820 -0.16486
 H2947 H 0.46298 0.52145 -0.19416
 H2948 H 0.41496 0.49980 -0.15368
 H2949 H 0.50123 0.53113 -0.12901
 H2950 H 0.50896 0.52857 -0.09260
 H2951 H 0.44807 0.50385 -0.08150
 C2952 C -0.05275 1.00213 0.35223
 C2953 C -0.03447 1.01220 0.34935
 C2954 C -0.02823 1.01970 0.33066
 C2955 C -0.04138 1.01670 0.31431
 C2956 C -0.06034 1.00630 0.31687
 C2957 C -0.06601 0.99894 0.33621
 O2958 O -0.05582 0.99618 0.37114
 C2959 C -0.03913 1.00265 0.38040
 C2960 C -0.02556 1.01253 0.36777
 C2961 C -0.00704 1.02042 0.37441
 C2962 C -0.00232 1.01798 0.39489
 C2963 C -0.01610 1.00782 0.40825
 C2964 C -0.03481 1.00011 0.40076
 H2965 H -0.01382 1.02766 0.32875
 H2966 H -0.03689 1.02277 0.29974
 H2967 H -0.08023 0.99077 0.33871
 H2968 H 0.00341 1.02815 0.36419
 H2969 H 0.01203 1.02405 0.40028
 H2970 H -0.04568 0.99222 0.41042
 C2971 C 0.06132 0.48718 0.36599
 C2972 C 0.04075 0.48429 0.36299
 C2973 C 0.03194 0.48502 0.34400
 C2974 C 0.04488 0.48877 0.32742
 C2975 C 0.06618 0.49141 0.33007
 C2976 C 0.07452 0.49052 0.34966
 O2977 O 0.06643 0.48691 0.38531
 C2978 C 0.04871 0.48371 0.39471
 C2979 C 0.03257 0.48181 0.38173
 C2980 C 0.01262 0.47872 0.38836
 C2981 C 0.00908 0.47797 0.40923
 C2982 C 0.02535 0.48059 0.42305
 C2983 C 0.04553 0.48319 0.41554
 H2984 H 0.01568 0.48297 0.34204
 H2985 H 0.03839 0.48936 0.31248
 H2986 H 0.09071 0.49270 0.35209
 H2987 H 0.00015 0.47730 0.37785
 H2988 H -0.00648 0.47611 0.41455
 H2989 H 0.05831 0.48538 0.42556
 C2990 C 0.56284 0.00592 -0.13644
 C2991 C 0.54208 0.00522 -0.13928
 C2992 C 0.53321 0.00686 -0.15817
 C2993 C 0.54630 0.00899 -0.17488
 C2994 C 0.56780 0.00920 -0.17244
 C2995 C 0.57615 0.00779 -0.15287
 O2996 O 0.56811 0.00427 -0.11722
 C2997 C 0.55028 0.00236 -0.10774
 C2998 C 0.53391 0.00268 -0.12058
 C2999 C 0.51386 0.00048 -0.11393
 C3000 C 0.51052 -0.00188 -0.09316
 C3001 C 0.52709 -0.00175 -0.07947
 C3002 C 0.54730 0.00032 -0.08697
 H3003 H 0.51682 0.00630 -0.16001
 H3004 H 0.53974 0.00978 -0.18978
 H3005 H 0.59249 0.00791 -0.15055
 H3006 H 0.50123 0.00065 -0.12435
 H3007 H 0.49494 -0.00329 -0.08775
 H3008 H 0.56028 0.00044 -0.07698
 C3009 C 0.64166 0.56233 -0.00437
 C3010 C 0.63490 0.56565 -0.02367
 C3011 C 0.64516 0.57822 -0.03736
 C3012 C 0.66310 0.58786 -0.03088
 C3013 C 0.67052 0.58465 -0.01112
 C3014 C 0.65975 0.57152 0.00229
 O3015 O 0.62899 0.55068 0.00650
 C3016 C 0.61395 0.54656 -0.00626
 C3017 C 0.61695 0.55529 -0.02492
 C3018 C 0.60292 0.55351 -0.04040
 C3019 C 0.58490 0.54251 -0.03645
 C3020 C 0.58106 0.53362 -0.01718
 C3021 C 0.59605 0.53554 -0.00194
 H3022 H 0.63938 0.58079 -0.05238
 H3023 H 0.67125 0.59790 -0.04122
 H3024 H 0.66496 0.56908 0.01755
 H3025 H 0.60558 0.56065 -0.05492
 H3026 H 0.57374 0.54140 -0.04834
 H3027 H 0.59361 0.52922 0.01298
 C3028 C 0.14399 1.06078 0.49028
 C3029 C 0.13752 1.06438 0.47092
 C3030 C 0.14752 1.07785 0.45788
 C3031 C 0.16486 1.08807 0.46509
 C3032 C 0.17195 1.08452 0.48492
 C3033 C 0.16147 1.07050 0.49764
 O3034 O 0.13158 1.04837 0.50057
 C3035 C 0.11700 1.04404 0.48741
 C3036 C 0.12001 1.05334 0.46901
 C3037 C 0.10627 1.05148 0.45327
 C3038 C 0.08849 1.03988 0.45672
 C3039 C 0.08463 1.03055 0.47576
 C3040 C 0.09939 1.03246 0.49121
 H3041 H 0.14197 1.08067 0.44281
 H3042 H 0.17281 1.09876 0.45526
 H3043 H 0.16642 1.06778 0.51293
 H3044 H 0.10891 1.05909 0.43897
 H3045 H 0.07743 1.03881 0.44473
 H3046 H 0.09692 1.02581 0.50599
 C3047 C 0.13897 -0.07352 1.00012
 C3048 C 0.13299 -0.07281 1.01996
 C3049 C 0.14582 -0.07814 1.03563
 C3050 C 0.16563 -0.08457 1.03072
 C3051 C 0.17241 -0.08593 1.01027
 C3052 C 0.15852 -0.08028 0.99479
 O3053 O 0.12459 -0.06703 0.98760
 C3054 C 0.10919 -0.06229 0.99985
 C3055 C 0.11352 -0.06574 1.01979
 C3056 C 0.09963 -0.06190 1.03522
 C3057 C 0.08055 -0.05393 1.02993
 C3058 C 0.07575 -0.04965 1.00950
 C3059 C 0.09035 -0.05407 0.99424
 H3060 H 0.14075 -0.07742 1.05116
 H3061 H 0.17522 -0.08937 1.04304
 H3062 H 0.16286 -0.08035 0.97905
 H3063 H 0.10341 -0.06478 1.05081
 H3064 H 0.06975 -0.05055 1.04186
 H3065 H 0.08726 -0.05099 0.97853
 C3066 C 0.63702 0.42537 0.50353
 C3067 C 0.63180 0.42684 0.52353
 C3068 C 0.64497 0.42148 0.53890
 C3069 C 0.66437 0.41429 0.53350
 C3070 C 0.67038 0.41222 0.51288
 C3071 C 0.65612 0.41783 0.49773
 O3072 O 0.62246 0.43206 0.49134
 C3073 C 0.60771 0.43773 0.50397
 C3074 C 0.61263 0.43466 0.52383
 C3075 C 0.59949 0.43950 0.53961
 C3076 C 0.58056 0.44807 0.53475
 C3077 C 0.57519 0.45191 0.51439
 C3078 C 0.58903 0.44651 0.49877
 H3079 H 0.64049 0.42280 0.55456
 H3080 H 0.67426 0.40953 0.54560
 H3081 H 0.65992 0.41722 0.48187
 H3082 H 0.60373 0.43693 0.55513
 H3083 H 0.57032 0.45219 0.54693
 H3084 H 0.58546 0.44923 0.48310
 C3085 C -0.13925 0.43996 0.49943
 C3086 C -0.13557 0.44635 0.47998
 C3087 C -0.14933 0.44314 0.46446
 C3088 C -0.16759 0.43280 0.46913
 C3089 C -0.17175 0.42578 0.48902
 C3090 C -0.15731 0.42955 0.50440
 O3091 O -0.12395 0.44416 0.51180
 C3092 C -0.11028 0.45332 0.49987
 C3093 C -0.11666 0.45495 0.48024
 C3094 C -0.10446 0.46321 0.46502
 C3095 C -0.08483 0.46995 0.47018
 C3096 C -0.07781 0.46853 0.49033
 C3097 C -0.09089 0.46025 0.50542
 H3098 H -0.14599 0.44816 0.44923
 H3099 H -0.17821 0.42974 0.45709
 H3100 H -0.15997 0.42441 0.51972
 H3101 H -0.10975 0.46414 0.44964
 H3102 H -0.07508 0.47625 0.45845
 H3103 H -0.08590 0.45864 0.52085
 C3104 C 0.36615 -0.06269 -0.00354
 C3105 C 0.37063 -0.05827 -0.02335
 C3106 C 0.35726 -0.06254 -0.03894
 C3107 C 0.33852 -0.07184 -0.03397
 C3108 C 0.33346 -0.07678 -0.01367
 C3109 C 0.34760 -0.07206 0.00176
 O3110 O 0.38106 -0.05743 0.00893
 C3111 C 0.39527 -0.04958 -0.00329
 C3112 C 0.38965 -0.04982 -0.02319
 C3113 C 0.40233 -0.04273 -0.03860
 C3114 C 0.42161 -0.03506 -0.03332
 C3115 C 0.42786 -0.03445 -0.01287
 C3116 C 0.41434 -0.04183 0.00235
 H3117 H 0.36117 -0.05900 -0.05443
 H3118 H 0.32815 -0.07564 -0.04602
 H3119 H 0.34425 -0.07555 0.01739
 H3120 H 0.39759 -0.04315 -0.05417
 H3121 H 0.43159 -0.02947 -0.04521
 H3122 H 0.41860 -0.04175 0.01807
 C3123 C 0.36171 1.07122 0.50624
 C3124 C 0.36904 1.07418 0.52536
 C3125 C 0.35795 1.08415 0.54026
 C3126 C 0.33851 1.09139 0.53526
 C3127 C 0.33052 1.08863 0.51561
 C3128 C 0.34241 1.07841 0.50088
 O3129 O 0.37468 1.06124 0.49441
 C3130 C 0.39054 1.05787 0.50633
 C3131 C 0.38785 1.06555 0.52540
 C3132 C 0.40252 1.06379 0.54031
 C3133 C 0.42070 1.05363 0.53541
 C3134 C 0.42389 1.04536 0.51587
 C3135 C 0.40848 1.04763 0.50113
 H3136 H 0.36408 1.08633 0.55520
 H3137 H 0.32984 1.09949 0.54661
 H3138 H 0.33675 1.07597 0.48580
 H3139 H 0.40005 1.06999 0.55521
 H3140 H 0.43219 1.05209 0.54695
 H3141 H 0.41033 1.04158 0.48608
 C3142 C -0.13630 0.57425 1.00658
 C3143 C -0.12921 0.57802 1.02567
 C3144 C -0.14077 0.58807 1.04017
 C3145 C -0.16041 0.59450 1.03479
 C3146 C -0.16816 0.59085 1.01519
 C3147 C -0.15578 0.58062 1.00086
 O3148 O -0.12300 0.56415 0.99521
 C3149 C -0.10720 0.56153 1.00738
 C3150 C -0.11020 0.56978 1.02616
 C3151 C -0.09568 0.56857 1.04130
 C3152 C -0.07740 0.55826 1.03698
 C3153 C -0.07396 0.54934 1.01777
 C3154 C -0.08916 0.55122 1.00275
 H3155 H -0.13488 0.59086 1.05509
 H3156 H -0.16948 0.60260 1.04585
 H3157 H -0.16124 0.57747 0.98584
 H3158 H -0.09840 0.57516 1.05600
 H3159 H -0.06608 0.55701 1.04871
 H3160 H -0.08720 0.54458 0.98795
 C3161 C 0.00995 0.63832 0.56255
 C3162 C 0.02694 0.62944 0.57087
 C3163 C 0.03829 0.63866 0.58594
 C3164 C 0.03177 0.65778 0.59286
 C3165 C 0.01421 0.66723 0.58466
 C3166 C 0.00331 0.65746 0.56907
 O3167 O 0.00071 0.62639 0.54924
 C3168 C 0.01210 0.60963 0.54922
 C3169 C 0.02835 0.61078 0.56217
 C3170 C 0.04163 0.59463 0.56540
 C3171 C 0.03785 0.57638 0.55508
 C3172 C 0.02099 0.57460 0.54184
 C3173 C 0.00815 0.59166 0.53861
 H3174 H 0.05147 0.63124 0.59239
 H3175 H 0.04032 0.66520 0.60468
 H3176 H -0.01032 0.66420 0.56279
 H3177 H 0.05419 0.59587 0.57583
 H3178 H 0.04789 0.56352 0.55765
 H3179 H -0.00501 0.59068 0.52889
 C3180 C 0.51421 0.14314 0.06430
 C3181 C 0.53154 0.13365 0.07114
 C3182 C 0.54519 0.14291 0.08421
 C3183 C 0.54054 0.16264 0.09091
 C3184 C 0.52251 0.17262 0.08452
 C3185 C 0.50938 0.16289 0.07065
 O3186 O 0.50277 0.13113 0.05282
 C3187 C 0.51309 0.11367 0.05251
 C3188 C 0.53077 0.11448 0.06354
 C3189 C 0.54337 0.09772 0.06629
 C3190 C 0.53756 0.07931 0.05727
 C3191 C 0.51943 0.07795 0.04570
 C3192 C 0.50710 0.09550 0.04315
 H3193 H 0.55862 0.13501 0.08950
 H3194 H 0.55069 0.16998 0.10150
 H3195 H 0.49531 0.17000 0.06591
 H3196 H 0.55707 0.09871 0.07524
 H3197 H 0.54731 0.06612 0.05923
 H3198 H 0.49312 0.09491 0.03458
 C3199 C 0.00703 0.13977 0.93757
 C3200 C 0.01320 0.14316 0.95702
 C3201 C 0.01770 0.16253 0.96433
 C3202 C 0.01582 0.17910 0.95100
 C3203 C 0.00968 0.17600 0.93075
 C3204 C 0.00521 0.15596 0.92404
 O3205 O 0.00339 0.12021 0.93367
 C3206 C 0.00738 0.11105 0.95104
 C3207 C 0.01351 0.12440 0.96580
 C3208 C 0.01867 0.11803 0.98507
 C3209 C 0.01742 0.09702 0.98932
 C3210 C 0.01096 0.08293 0.97438
 C3211 C 0.00586 0.09016 0.95495
 H3212 H 0.02239 0.16482 0.97975
 H3213 H 0.01892 0.19435 0.95654
 H3214 H 0.00073 0.15297 0.90867
 H3215 H 0.02349 0.12883 0.99641
 H3216 H 0.02130 0.09181 1.00430
 H3217 H 0.00098 0.07986 0.94318
 C3218 C 0.50160 0.64043 0.44100
 C3219 C 0.51369 0.64347 0.45757
 C3220 C 0.52243 0.66229 0.46210
 C3221 C 0.51854 0.67864 0.44896
 C3222 C 0.50611 0.67587 0.43173
 C3223 C 0.49753 0.65643 0.42777
 O3224 O 0.49491 0.62135 0.43933
 C3225 C 0.50299 0.61213 0.45518
 C3226 C 0.51460 0.62497 0.46683
 C3227 C 0.52460 0.61842 0.48405
 C3228 C 0.52256 0.59774 0.48945
 C3229 C 0.51068 0.58413 0.47762
 C3230 C 0.50073 0.59158 0.46025
 H3231 H 0.53198 0.66428 0.47517
 H3232 H 0.52548 0.69336 0.45203
 H3233 H 0.48785 0.65385 0.41487
 H3234 H 0.53368 0.62882 0.49296
 H3235 H 0.53031 0.59237 0.50281
 H3236 H 0.49154 0.58171 0.45085
 C3237 C 0.49091 0.85928 0.43653
 C3238 C 0.48875 0.85455 0.45666
 C3239 C 0.48725 0.83457 0.46381
 C3240 C 0.48815 0.81880 0.44960
 C3241 C 0.49021 0.82338 0.42882
 C3242 C 0.49147 0.84386 0.42214
 O3243 O 0.49270 0.87920 0.43300
 C3244 C 0.49159 0.88721 0.45128
 C3245 C 0.48904 0.87278 0.46625
 C3246 C 0.48743 0.87780 0.48650
 C3247 C 0.48842 0.89858 0.49152
 C3248 C 0.49126 0.91375 0.47636
 C3249 C 0.49292 0.90792 0.45594
 H3250 H 0.48573 0.83124 0.47973
 H3251 H 0.48729 0.80304 0.45469
 H3252 H 0.49331 0.84759 0.40632
 H3253 H 0.48544 0.86616 0.49800
 H3254 H 0.48723 0.90282 0.50723
 H3255 H 0.49496 0.91915 0.44405
 C3256 C -0.01111 0.35950 0.93883
 C3257 C -0.02561 0.35757 0.95380
 C3258 C -0.03690 0.33977 0.95693
 C3259 C -0.03296 0.32320 0.94417
 C3260 C -0.01792 0.32474 0.92872
 C3261 C -0.00696 0.34326 0.92599
 O3262 O -0.00193 0.37763 0.93857
 C3263 C -0.01083 0.38736 0.95372
 C3264 C -0.02541 0.37575 0.96353
 C3265 C -0.03641 0.38282 0.97999
 C3266 C -0.03228 0.40274 0.98659
 C3267 C -0.01735 0.41513 0.97667
 C3268 C -0.00649 0.40721 0.95996
 H3269 H -0.04826 0.33865 0.96880
 H3270 H -0.04164 0.30920 0.94628
 H3271 H 0.00481 0.34483 0.91455
 H3272 H -0.04776 0.37335 0.98750
 H3273 H -0.04082 0.40847 0.99937
 H3274 H 0.00502 0.41616 0.95207
 C3275 C 0.48298 0.36214 0.06743
 C3276 C 0.47848 0.35834 0.04761
 C3277 C 0.47587 0.33873 0.04003
 C3278 C 0.47809 0.32229 0.05342
 C3279 C 0.48291 0.32570 0.07395
 C3280 C 0.48521 0.34601 0.08104
 O3281 O 0.48594 0.38186 0.07127
 C3282 C 0.48337 0.39069 0.05343
 C3283 C 0.47880 0.37691 0.03848
 C3284 C 0.47686 0.38249 0.01841
 C3285 C 0.48012 0.40309 0.01345
 C3286 C 0.48506 0.41760 0.02852
 C3287 C 0.48630 0.41140 0.04888
 H3288 H 0.47268 0.33616 0.02427
 H3289 H 0.47668 0.30688 0.04764
 H3290 H 0.48892 0.34916 0.09658
 H3291 H 0.47354 0.37131 0.00690
 H3292 H 0.47911 0.40771 -0.00219
 H3293 H 0.49048 0.42211 0.06057
 C3294 C -0.01345 0.86152 0.56293
 C3295 C -0.02325 0.85974 0.54479
 C3296 C -0.02944 0.84106 0.53694
 C3297 C -0.02548 0.82343 0.54833
 C3298 C -0.01550 0.82479 0.56719
 C3299 C -0.00948 0.84422 0.57457
 O3300 O -0.00768 0.88055 0.56702
 C3301 C -0.01390 0.89102 0.55105
 C3302 C -0.02359 0.87894 0.53707
 C3303 C -0.03010 0.88630 0.51858
 C3304 C -0.02596 0.90684 0.51407
 C3305 C -0.01562 0.91948 0.52801
 C3306 C -0.00991 0.91166 0.54698
 H3307 H -0.03674 0.84005 0.52241
 H3308 H -0.02984 0.80872 0.54225
 H3309 H -0.00190 0.84587 0.58890
 H3310 H -0.03739 0.87641 0.50772
 H3311 H -0.03016 0.91278 0.49942
 H3312 H -0.00145 0.92091 0.55756
 C3313 C 0.25392 0.30728 0.10979
 C3314 C 0.25607 0.28673 0.10592
 C3315 C 0.25640 0.27888 0.08648
 C3316 C 0.25450 0.29279 0.07040
 C3317 C 0.25249 0.31409 0.07403
 C3318 C 0.25225 0.32137 0.09406
 O3319 O 0.25325 0.31155 0.12929
 C3320 C 0.25506 0.29332 0.13794
 C3321 C 0.25695 0.27761 0.12435
 C3322 C 0.25875 0.25725 0.13027
 C3323 C 0.25828 0.25289 0.15102
 C3324 C 0.25586 0.26880 0.16535
 C3325 C 0.25446 0.28934 0.15857
 H3326 H 0.25795 0.26264 0.08378
 H3327 H 0.25484 0.28703 0.05514
 H3328 H 0.25047 0.33750 0.09730
 H3329 H 0.26018 0.24513 0.11931
 H3330 H 0.25927 0.23708 0.15584
 H3331 H 0.25255 0.30189 0.16900
 C3332 C 0.75671 0.81337 0.61098
 C3333 C 0.76940 0.79680 0.60886
 C3334 C 0.77781 0.79120 0.59041
 C3335 C 0.77301 0.80319 0.57350
 C3336 C 0.76002 0.82046 0.57526
 C3337 C 0.75181 0.82557 0.59438
 O3338 O 0.74990 0.81576 0.62970
 C3339 C 0.75851 0.80040 0.63962
 C3340 C 0.77064 0.78837 0.62759
 C3341 C 0.78077 0.77123 0.63488
 C3342 C 0.77805 0.76612 0.65532
 C3343 C 0.76531 0.77807 0.66804
 C3344 C 0.75562 0.79564 0.65996
 H3345 H 0.78771 0.77805 0.58908
 H3346 H 0.77965 0.79919 0.55908
 H3347 H 0.74167 0.83847 0.59625
 H3348 H 0.79020 0.76194 0.62512
 H3349 H 0.78558 0.75261 0.66108
 H3350 H 0.74566 0.80507 0.66906
 C3351 C 0.23780 0.68520 0.61080
 C3352 C 0.22352 0.70050 0.60954
 C3353 C 0.21416 0.70587 0.59157
 C3354 C 0.21960 0.69491 0.57423
 C3355 C 0.23415 0.67886 0.57508
 C3356 C 0.24344 0.67408 0.59373
 O3357 O 0.24510 0.68276 0.62925
 C3358 C 0.23522 0.69683 0.63986
 C3359 C 0.22181 0.70807 0.62851
 C3360 C 0.21017 0.72385 0.63652
 C3361 C 0.21268 0.72845 0.65699
 C3362 C 0.22667 0.71731 0.66904
 C3363 C 0.23789 0.70106 0.66027
 H3364 H 0.20311 0.71810 0.59091
 H3365 H 0.21258 0.69907 0.56009
 H3366 H 0.25447 0.66187 0.59501
 H3367 H 0.19974 0.73251 0.62727
 H3368 H 0.20395 0.74091 0.66333
 H3369 H 0.24884 0.69235 0.66887
 C3370 C 0.73882 0.18953 0.11013
 C3371 C 0.72587 0.20593 0.10842
 C3372 C 0.71808 0.21236 0.09004
 C3373 C 0.72375 0.20135 0.07277
 C3374 C 0.73697 0.18420 0.07411
 C3375 C 0.74459 0.17832 0.09320
 O3376 O 0.74501 0.18629 0.12886
 C3377 C 0.73577 0.20097 0.13920
 C3378 C 0.72383 0.21338 0.12743
 C3379 C 0.71324 0.23002 0.13516
 C3380 C 0.71538 0.23429 0.15577
 C3381 C 0.72801 0.22200 0.16820
 C3382 C 0.73805 0.20486 0.15969
 H3383 H 0.70811 0.22548 0.08900
 H3384 H 0.71802 0.20638 0.05834
 H3385 H 0.75453 0.16525 0.09491
 H3386 H 0.70398 0.23963 0.12560
 H3387 H 0.70759 0.24749 0.16187
 H3388 H 0.74800 0.19524 0.16856
 C3389 C 0.76537 0.18405 0.88468
 C3390 C 0.77919 0.19988 0.88621
 C3391 C 0.78731 0.20604 0.90450
 C3392 C 0.78101 0.19542 0.92190
 C3393 C 0.76684 0.17893 0.92077
 C3394 C 0.75899 0.17318 0.90178
 O3395 O 0.75897 0.18111 0.86598
 C3396 C 0.76898 0.19537 0.85549
 C3397 C 0.78161 0.20721 0.86714
 C3398 C 0.79303 0.22341 0.85931
 C3399 C 0.79104 0.22787 0.83871
 C3400 C 0.77773 0.21621 0.82637
 C3401 C 0.76683 0.19947 0.83497
 H3402 H 0.79807 0.21862 0.90536
 H3403 H 0.78741 0.19984 0.93623
 H3404 H 0.74803 0.16082 0.90041
 H3405 H 0.80280 0.23257 0.86880
 H3406 H 0.79948 0.24076 0.83253
 H3407 H 0.75632 0.19038 0.82618
 C3408 C 0.25103 0.68984 0.38771
 C3409 C 0.26647 0.70411 0.38884
 C3410 C 0.27688 0.70810 0.40655
 C3411 C 0.27127 0.69683 0.42377
 C3412 C 0.25543 0.68189 0.42305
 C3413 C 0.24517 0.67844 0.40465
 O3414 O 0.24301 0.68850 0.36945
 C3415 C 0.25366 0.70219 0.35884
 C3416 C 0.26822 0.71213 0.36999
 C3417 C 0.28096 0.72718 0.36190
 C3418 C 0.27842 0.73238 0.34153
 C3419 C 0.26331 0.72254 0.32969
 C3420 C 0.25090 0.70705 0.33857
 H3421 H 0.28903 0.71937 0.40707
 H3422 H 0.27962 0.69941 0.43754
 H3423 H 0.23298 0.66727 0.40355
 H3424 H 0.29233 0.73479 0.37098
 H3425 H 0.28809 0.74424 0.33511
 H3426 H 0.23913 0.69929 0.33011
 C3427 C 0.73871 0.81379 0.38824
 C3428 C 0.73261 0.79390 0.39174
 C3429 C 0.73085 0.78563 0.41103
 C3430 C 0.73531 0.79846 0.42737
 C3431 C 0.74110 0.81914 0.42412
 C3432 C 0.74283 0.82691 0.40427
 O3433 O 0.74027 0.81839 0.36879
 C3434 C 0.73496 0.80107 0.35980
 C3435 C 0.72991 0.78568 0.37315
 C3436 C 0.72404 0.76624 0.36695
 C3437 C 0.72385 0.76235 0.34617
 C3438 C 0.72980 0.77771 0.33205
 C3439 C 0.73510 0.79748 0.33908
 H3440 H 0.72626 0.76987 0.41342
 H3441 H 0.73385 0.79248 0.44255
 H3442 H 0.74728 0.84265 0.40145
 H3443 H 0.72013 0.75437 0.37774
 H3444 H 0.71994 0.74708 0.34118
 H3445 H 0.73983 0.80953 0.32880
 C3446 C 0.24948 0.30291 0.89556
 C3447 C 0.24890 0.28237 0.90018
 C3448 C 0.24932 0.27513 0.91993
 C3449 C 0.25021 0.28968 0.93546
 C3450 C 0.25044 0.31095 0.93100
 C3451 C 0.25010 0.31757 0.91071
 O3452 O 0.24952 0.30667 0.87593
 C3453 C 0.24888 0.28812 0.86795
 C3454 C 0.24833 0.27267 0.88207
 C3455 C 0.24762 0.25207 0.87681
 C3456 C 0.24779 0.24725 0.85617
 C3457 C 0.24894 0.26296 0.84135
 C3458 C 0.24925 0.28369 0.84747
 H3459 H 0.24900 0.25891 0.92325
 H3460 H 0.25033 0.28442 0.95095
 H3461 H 0.25047 0.33369 0.90684
 H3462 H 0.24714 0.24015 0.88816
 H3463 H 0.24759 0.23131 0.85179
 H3464 H 0.25004 0.29609 0.83662
 C3465 C 0.82139 0.38572 0.75535
 C3466 C 0.82272 0.37881 0.77489
 C3467 C 0.82999 0.39094 0.79044
 C3468 C 0.83630 0.41095 0.78566
 C3469 C 0.83538 0.41843 0.76556
 C3470 C 0.82776 0.40553 0.75021
 O3471 O 0.81381 0.37180 0.74290
 C3472 C 0.81035 0.35575 0.75483
 C3473 C 0.81565 0.35922 0.77452
 C3474 C 0.81348 0.34444 0.78951
 C3475 C 0.80533 0.32536 0.78405
 C3476 C 0.79936 0.32141 0.76389
 C3477 C 0.80206 0.33693 0.74908
 H3478 H 0.83088 0.38517 0.80571
 H3479 H 0.84235 0.42046 0.79753
 H3480 H 0.82678 0.41079 0.73476
 H3481 H 0.81781 0.34752 0.80491
 H3482 H 0.80335 0.31381 0.79565
 H3483 H 0.79774 0.33451 0.73356
 C3484 C 0.32279 0.88530 0.25490
 C3485 C 0.31873 0.88073 0.27470
 C3486 C 0.32125 0.89480 0.29004
 C3487 C 0.32839 0.91439 0.28484
 C3488 C 0.33339 0.91978 0.26444
 C3489 C 0.33044 0.90453 0.24935
 O3490 O 0.31824 0.87004 0.24251
 C3491 C 0.31131 0.85549 0.25486
 C3492 C 0.31154 0.86120 0.27475
 C3493 C 0.30486 0.84843 0.29025
 C3494 C 0.29731 0.82906 0.28502
 C3495 C 0.29622 0.82296 0.26454
 C3496 C 0.30355 0.83639 0.24926
 H3497 H 0.31783 0.89084 0.30555
 H3498 H 0.33106 0.92475 0.29719
 H3499 H 0.33285 0.90758 0.23350
 H3500 H 0.30517 0.85330 0.30579
 H3501 H 0.29159 0.81914 0.29690
 H3502 H 0.30286 0.83227 0.23350
 C3503 C 0.17795 0.88328 0.74139
 C3504 C 0.17860 0.87736 0.72155
 C3505 C 0.17236 0.88998 0.70587
 C3506 C 0.16506 0.90947 0.71086
 C3507 C 0.16397 0.91590 0.73124
 C3508 C 0.17051 0.90253 0.74672
 O3509 O 0.18492 0.86907 0.75391
 C3510 C 0.19002 0.85384 0.74169
 C3511 C 0.18633 0.85811 0.72176
 C3512 C 0.19038 0.84429 0.70642
 C3513 C 0.19872 0.82532 0.71181
 C3514 C 0.20302 0.82057 0.73225
 C3515 C 0.19850 0.83514 0.74740
 H3516 H 0.17306 0.88499 0.69037
 H3517 H 0.15987 0.91943 0.69888
 H3518 H 0.16995 0.90705 0.76238
 H3519 H 0.18730 0.84800 0.69084
 H3520 H 0.20213 0.81449 0.69998
 H3521 H 0.20151 0.83205 0.76313
 C3522 C 0.68155 0.38743 0.24432
 C3523 C 0.68173 0.38195 0.22434
 C3524 C 0.67499 0.39486 0.20912
 C3525 C 0.66763 0.41417 0.21471
 C3526 C 0.66697 0.42014 0.23524
 C3527 C 0.67407 0.40650 0.25025
 O3528 O 0.68885 0.37296 0.25636
 C3529 C 0.69366 0.35800 0.24371
 C3530 C 0.68948 0.36270 0.22397
 C3531 C 0.69307 0.34915 0.20826
 C3532 C 0.70149 0.33004 0.21306
 C3533 C 0.70633 0.32489 0.23328
 C3534 C 0.70224 0.33916 0.24881
 H3535 H 0.67530 0.39021 0.19350
 H3536 H 0.66198 0.42429 0.20308
 H3537 H 0.67381 0.41062 0.26602
 H3538 H 0.68958 0.35318 0.19285
 H3539 H 0.70457 0.31944 0.20095
 H3540 H 0.70565 0.33575 0.26439
 C3541 C 0.67739 0.61466 0.25345
 C3542 C 0.67678 0.62006 0.27344
 C3543 C 0.66973 0.60689 0.28847
 C3544 C 0.66293 0.58740 0.28265
 C3545 C 0.66313 0.58151 0.26209
 C3546 C 0.67046 0.59543 0.24728
 O3547 O 0.68507 0.62927 0.24163
 C3548 C 0.68933 0.64423 0.25445
 C3549 C 0.68443 0.63942 0.27407
 C3550 C 0.68761 0.65290 0.28991
 C3551 C 0.69641 0.67203 0.28537
 C3552 C 0.70204 0.67725 0.26529
 C3553 C 0.69825 0.66308 0.24961
 H3554 H 0.66947 0.61144 0.30412
 H3555 H 0.65714 0.57702 0.29412
 H3556 H 0.67091 0.59134 0.23151
 H3557 H 0.68360 0.64877 0.30524
 H3558 H 0.69924 0.68255 0.29760
 H3559 H 0.70231 0.66650 0.23412
 C3560 C 0.19318 0.10424 0.75593
 C3561 C 0.19689 0.10635 0.77619
 C3562 C 0.19090 0.09172 0.79032
 C3563 C 0.18061 0.07427 0.78331
 C3564 C 0.17639 0.07181 0.76249
 C3565 C 0.18287 0.08708 0.74864
 O3566 O 0.19993 0.11996 0.74503
 C3567 C 0.20800 0.13231 0.75869
 C3568 C 0.20648 0.12477 0.77800
 C3569 C 0.21345 0.13557 0.79464
 C3570 C 0.22228 0.15495 0.79121
 C3571 C 0.22412 0.16303 0.77138
 C3572 C 0.21690 0.15136 0.75493
 H3573 H 0.19388 0.09374 0.80620
 H3574 H 0.17550 0.06291 0.79416
 H3575 H 0.17997 0.08567 0.73268
 H3576 H 0.21197 0.12940 0.80973
 H3577 H 0.22769 0.16362 0.80399
 H3578 H 0.21778 0.15710 0.73962
 C3579 C 0.30296 0.10707 0.24510
 C3580 C 0.29872 0.11056 0.22513
 C3581 C 0.30485 0.09737 0.20991
 C3582 C 0.31582 0.07986 0.21546
 C3583 C 0.32050 0.07578 0.23596
 C3584 C 0.31389 0.08970 0.25098
 O3585 O 0.29618 0.12183 0.25710
 C3586 C 0.28753 0.13492 0.24441
 C3587 C 0.28871 0.12873 0.22468
 C3588 C 0.28133 0.14045 0.20882
 C3589 C 0.27257 0.15944 0.21344
 C3590 C 0.27123 0.16636 0.23367
 C3591 C 0.27866 0.15369 0.24939
 H3592 H 0.30153 0.10058 0.19428
 H3593 H 0.32107 0.06973 0.20368
 H3594 H 0.31714 0.08712 0.26674
 H3595 H 0.28259 0.13532 0.19339
 H3596 H 0.26706 0.16885 0.20119
 H3597 H 0.27822 0.15858 0.26494
 C3598 C 0.81620 0.61351 0.74630
 C3599 C 0.81664 0.61890 0.72626
 C3600 C 0.82415 0.60601 0.71137
 C3601 C 0.83162 0.58684 0.71740
 C3602 C 0.83161 0.58096 0.73802
 C3603 C 0.82375 0.59459 0.75266
 O3604 O 0.80817 0.62788 0.75798
 C3605 C 0.80351 0.64267 0.74503
 C3606 C 0.80849 0.63800 0.72545
 C3607 C 0.80507 0.65140 0.70950
 C3608 C 0.79598 0.67032 0.71388
 C3609 C 0.79032 0.67543 0.73394
 C3610 C 0.79430 0.66131 0.74971
 H3611 H 0.82432 0.61056 0.69568
 H3612 H 0.83783 0.57675 0.70603
 H3613 H 0.82345 0.59054 0.76849
 H3614 H 0.80917 0.64740 0.69420
 H3615 H 0.79302 0.68080 0.70158
 H3616 H 0.79028 0.66466 0.76519
 C3617 C 0.89028 0.74760 0.19129
 C3618 C 0.89351 0.73989 0.21021
 C3619 C 0.91242 0.73326 0.21661
 C3620 C 0.92877 0.73464 0.20295
 C3621 C 0.92616 0.74255 0.18295
 C3622 C 0.90618 0.74908 0.17740
 O3623 O 0.87102 0.75279 0.18807
 C3624 C 0.86193 0.74830 0.20544
 C3625 C 0.87504 0.74035 0.21949
 C3626 C 0.86873 0.73427 0.23860
 C3627 C 0.84800 0.73639 0.24339
 C3628 C 0.83408 0.74452 0.22913
 C3629 C 0.84128 0.75067 0.20989
 H3630 H 0.91460 0.72741 0.23172
 H3631 H 0.94351 0.73038 0.20875
 H3632 H 0.90238 0.75427 0.16245
 H3633 H 0.87934 0.72799 0.24937
 H3634 H 0.84284 0.73165 0.25823
 H3635 H 0.83111 0.75679 0.19860
 C3636 C 0.39338 0.26674 0.68540
 C3637 C 0.39701 0.26821 0.70567
 C3638 C 0.41641 0.26777 0.71383
 C3639 C 0.43287 0.26567 0.70055
 C3640 C 0.42982 0.26450 0.67938
 C3641 C 0.40961 0.26528 0.67178
 O3642 O 0.37363 0.26527 0.68108
 C3643 C 0.36468 0.26576 0.69909
 C3644 C 0.37843 0.26774 0.71455
 C3645 C 0.37288 0.26709 0.73470
 C3646 C 0.35233 0.26372 0.73921
 C3647 C 0.33783 0.26087 0.72367
 C3648 C 0.34394 0.26251 0.70326
 H3649 H 0.41874 0.26819 0.72994
 H3650 H 0.44790 0.26421 0.70701
 H3651 H 0.40645 0.26437 0.65585
 H3652 H 0.38407 0.26846 0.74653
 H3653 H 0.34778 0.26273 0.75490
 H3654 H 0.33322 0.26001 0.69117
 C3655 C 0.38372 0.74134 0.81413
 C3656 C 0.38867 0.74180 0.79396
 C3657 C 0.40867 0.74129 0.78688
 C3658 C 0.42423 0.74049 0.80122
 C3659 C 0.41951 0.74046 0.82211
 C3660 C 0.39895 0.74079 0.82863
 O3661 O 0.36379 0.74203 0.81764
 C3662 C 0.35601 0.74307 0.79929
 C3663 C 0.37059 0.74313 0.78428
 C3664 C 0.36584 0.74481 0.76399
 C3665 C 0.34517 0.74639 0.75896
 C3666 C 0.32982 0.74601 0.77416
 C3667 C 0.33537 0.74428 0.79462
 H3668 H 0.41216 0.74171 0.77093
 H3669 H 0.43996 0.74051 0.79610
 H3670 H 0.39496 0.74079 0.84449
 H3671 H 0.37761 0.74499 0.75248
 H3672 H 0.34111 0.74758 0.74322
 H3673 H 0.32401 0.74412 0.80655
 C3674 C 0.89152 0.25057 0.30528
 C3675 C 0.89539 0.24951 0.28495
 C3676 C 0.91503 0.24832 0.27701
 C3677 C 0.93134 0.24829 0.29060
 C3678 C 0.92777 0.24976 0.31169
 C3679 C 0.90743 0.25094 0.31899
 O3680 O 0.87179 0.25138 0.30980
 C3681 C 0.86300 0.25087 0.29190
 C3682 C 0.87676 0.24989 0.27618
 C3683 C 0.87082 0.24975 0.25614
 C3684 C 0.84985 0.25064 0.25217
 C3685 C 0.83538 0.25131 0.26817
 C3686 C 0.84210 0.25135 0.28833
 H3687 H 0.91770 0.24730 0.26094
 H3688 H 0.94668 0.24691 0.28463
 H3689 H 0.90398 0.25248 0.33487
 H3690 H 0.88193 0.24910 0.24401
 H3691 H 0.84486 0.25050 0.23665
 H3692 H 0.83141 0.25204 0.30082
 C3693 C 0.11235 0.27805 0.32482
 C3694 C 0.10925 0.28585 0.30583
 C3695 C 0.09027 0.29225 0.29914
 C3696 C 0.07366 0.29006 0.31240
 C3697 C 0.07628 0.28138 0.33185
 C3698 C 0.09607 0.27580 0.33827
 O3699 O 0.13122 0.27137 0.32764
 C3700 C 0.14018 0.27483 0.30996
 C3701 C 0.12734 0.28360 0.29608
 C3702 C 0.13284 0.28664 0.27605
 C3703 C 0.15229 0.28021 0.27002
 C3704 C 0.16580 0.27120 0.28405
 C3705 C 0.15984 0.26880 0.30440
 H3706 H 0.08817 0.29797 0.28398
 H3707 H 0.05860 0.29403 0.30707
 H3708 H 0.09856 0.26897 0.35292
 H3709 H 0.12229 0.29311 0.26531
 H3710 H 0.15682 0.28206 0.25439
 H3711 H 0.16975 0.26149 0.31522
 C3712 C 0.60136 0.75767 0.80427
 C3713 C 0.59862 0.74502 0.78802
 C3714 C 0.57987 0.73633 0.78331
 C3715 C 0.56331 0.74061 0.79607
 C3716 C 0.56572 0.75345 0.81313
 C3717 C 0.58507 0.76231 0.81703
 O3718 O 0.62058 0.76372 0.80649
 C3719 C 0.63017 0.75462 0.79133
 C3720 C 0.61740 0.74303 0.77959
 C3721 C 0.62430 0.73176 0.76324
 C3722 C 0.64523 0.73250 0.75877
 C3723 C 0.65882 0.74433 0.77066
 C3724 C 0.65104 0.75558 0.78719
 H3725 H 0.57817 0.72621 0.77057
 H3726 H 0.54882 0.73327 0.79304
 H3727 H 0.58752 0.77221 0.82982
 H3728 H 0.61396 0.72264 0.75431
 H3729 H 0.65079 0.72377 0.74606
 H3730 H 0.66090 0.76475 0.79661
 C3731 C 0.61484 0.24951 0.68936
 C3732 C 0.61101 0.25091 0.70970
 C3733 C 0.59144 0.25256 0.71773
 C3734 C 0.57512 0.25269 0.70420
 C3735 C 0.57872 0.25138 0.68316
 C3736 C 0.59889 0.24986 0.67565
 O3737 O 0.63453 0.24787 0.68490
 C3738 C 0.64332 0.24830 0.70282
 C3739 C 0.62959 0.25023 0.71846
 C3740 C 0.63547 0.25138 0.73847
 C3741 C 0.65640 0.25064 0.74251
 C3742 C 0.67090 0.24859 0.72664
 C3743 C 0.66420 0.24725 0.70650
 H3744 H 0.58884 0.25362 0.73380
 H3745 H 0.55971 0.25396 0.71006
 H3746 H 0.60200 0.24864 0.65967
 H3747 H 0.62437 0.25294 0.75050
 H3748 H 0.66129 0.25158 0.75802
 H3749 H 0.67489 0.24587 0.69407
 C3750 C 0.10792 0.76320 0.18613
 C3751 C 0.10698 0.77778 0.20096
 C3752 C 0.08993 0.78993 0.20420
 C3753 C 0.07305 0.78679 0.19172
 C3754 C 0.07354 0.77165 0.17644
 C3755 C 0.09135 0.75980 0.17359
 O3756 O 0.12548 0.75320 0.18568
 C3757 C 0.13587 0.76165 0.20058
 C3758 C 0.12519 0.77673 0.21042
 C3759 C 0.13303 0.78741 0.22665
 C3760 C 0.15275 0.78243 0.23294
 C3761 C 0.16423 0.76702 0.22295
 C3762 C 0.15555 0.75648 0.20651
 H3763 H 0.08960 0.80136 0.21595
 H3764 H 0.05964 0.79616 0.19392
 H3765 H 0.09212 0.74793 0.16230
 H3766 H 0.12429 0.79916 0.23419
 H3767 H 0.15907 0.79075 0.24552
 H3768 H 0.16379 0.74463 0.19858
   
