data_POSCAR
  _audit_creation_date              2014-09-24
  _audit_creation_method            'ToBaCCo'
  _symmetry_space_group_name_H-M    'P1'
  _symmetry_Int_Tables_number       1
  _symmetry_cell_setting            triclinic
  loop_
  _symmetry_equiv_pos_as_xyz
 x,y,z
_cell_length_a 41.3150
_cell_length_b 41.3930
_cell_length_c 41.2412
_cell_angle_alpha 89.991200
_cell_angle_beta 90.217100
_cell_angle_gamma 89.897900
loop_
  _atom_site_label
  _atom_site_type_symbol
  _atom_site_fract_x
  _atom_site_fract_y
  _atom_site_fract_z
N1 N 0.35865 1.35180 0.36396
 N2 N 0.33984 0.83556 0.84271
 N3 N 0.84326 1.34515 0.83837
 N4 N 0.85227 0.85250 0.35028
 N5 N 0.65397 0.65540 0.34855
 N6 N 0.65647 0.16126 0.84512
 N7 N 1.14663 0.64073 0.85111
 N8 N 1.13845 0.13484 0.35666
 N9 N 0.65222 1.34984 0.65068
 N10 N 0.66012 0.83968 1.16050
 N11 N 1.14706 1.35719 1.14745
 N12 N 1.15174 0.85208 0.65427
 N13 N 0.33050 0.67053 0.67198
 N14 N 0.35247 0.14681 1.14613
 N15 N 0.86087 0.64093 1.14005
 N16 N 0.84524 0.15259 0.64735
 N17 N 1.34835 0.34864 0.64741
 N18 N 1.35521 0.85381 1.14452
 N19 N 0.85638 0.35603 1.14264
 N20 N 0.85063 0.84979 0.65141
 N21 N 0.65149 0.65047 0.64849
 N22 N 0.66171 1.16096 1.16002
 N23 N 0.14452 0.63544 1.14440
 N24 N 0.14883 1.14542 0.65072
 N25 N 1.35773 0.64553 0.36309
 N26 N 1.32488 1.17885 0.82807
 N27 N 0.83969 0.65972 0.83936
 N28 N 0.84228 1.15979 0.33880
 N29 N 0.65788 0.33776 0.34576
 N30 N 0.64220 0.85662 0.86077
 N31 N 0.16272 0.34080 0.83705
 N32 N 0.13626 0.86253 0.35620
 O33 O 0.98217 0.88600 0.83815
 O34 O 0.98558 0.85054 0.79837
 C35 C 0.97310 0.87580 0.81047
 C36 C 0.94708 0.89246 0.79223
 C37 C 0.93895 0.88165 0.76106
 H38 H 0.95274 0.86230 0.75005
 O39 O 1.03510 1.11265 0.83741
 O40 O 1.03689 1.14951 0.79883
 C41 C 1.04822 1.12424 0.81218
 C42 C 1.07792 1.10901 0.79941
 C43 C 1.09273 1.12059 0.77103
 H44 H 1.08150 1.13981 0.75715
 O45 O 0.84451 0.96617 0.87380
 O46 O 0.80799 0.96471 0.83465
 C47 C 0.81877 0.95457 0.86163
 C48 C 0.80110 0.92902 0.87891
 C49 C 0.76869 0.92306 0.87138
 H50 H 0.75672 0.93760 0.85306
 O51 O 1.16833 1.03723 0.89997
 O52 O 1.20817 1.03695 0.86455
 C53 C 1.19453 1.04909 0.88920
 C54 C 1.20774 1.07936 0.90285
 C55 C 1.23107 1.09609 0.88502
 H56 H 1.24170 1.08515 0.86369
 O57 O 0.88969 0.83640 0.95779
 O58 O 0.85318 0.79773 0.95473
 C59 C 0.87962 0.81015 0.94540
 C60 C 0.89837 0.79465 0.91912
 C61 C 0.88667 0.76688 0.90335
 H62 H 0.86425 0.75597 0.91121
 O63 O 1.10862 1.17157 0.97092
 O64 O 1.14409 1.21128 0.97151
 C65 C 1.11926 1.19783 0.95925
 C66 C 1.10334 1.21144 0.93002
 C67 C 1.11655 1.23821 0.91337
 H68 H 1.13799 1.25011 0.92261
 O69 O 0.88712 1.03021 0.82985
 O70 O 0.85087 1.02803 0.79048
 C71 C 0.87605 1.04041 0.80292
 C72 C 0.89189 1.06781 0.78668
 C73 C 0.87588 1.08467 0.76183
 H74 H 0.85235 1.07672 0.75334
 O75 O 1.12800 0.97383 0.85186
 O76 O 1.16788 0.97494 0.81641
 C77 C 1.14084 0.96395 0.82566
 C78 C 1.12445 0.93913 0.80595
 C79 C 1.13514 0.93215 0.77444
 H80 H 1.15517 0.94553 0.76423
 O81 O 1.04408 0.83949 0.88349
 O82 O 1.04628 0.80447 0.84327
 C83 C 1.05581 0.81398 0.87092
 C84 C 1.08134 0.79535 0.88793
 C85 C 1.09467 0.76802 0.87317
 H86 H 1.08537 0.75986 0.84999
 O87 O 0.96706 1.15390 0.87654
 O88 O 0.96864 1.19060 0.83778
 C89 C 0.95619 1.17953 0.86367
 C90 C 0.92839 1.19660 0.87820
 C91 C 0.91644 1.22421 0.86302
 H92 H 0.92856 1.23329 0.84166
 O93 O 0.83893 1.11294 0.95925
 O94 O 0.80033 1.14980 0.95834
 C95 C 0.81265 1.12378 0.94751
 C96 C 0.79714 1.10722 0.91973
 C97 C 0.77067 1.12165 0.90418
 H98 H 0.76032 1.14383 0.91355
 O99 O 1.16359 0.87586 0.97513
 O100 O 1.20282 0.83964 0.97602
 C101 C 1.19057 0.86558 0.96467
 C102 C 1.20702 0.88385 0.93850
 C103 C 1.23205 0.86954 0.92014
 H104 H 1.24012 0.84518 0.92542
 O105 O 0.97163 1.11225 0.83023
 O106 O 0.97396 1.14911 0.79166
 C107 C 0.96206 1.12339 0.80303
 C108 C 0.93497 1.10782 0.78580
 C109 C 0.91917 1.12392 0.76014
 H110 H 0.92860 1.14645 0.75076
 O111 O 1.04523 0.88710 0.84227
 O112 O 1.04802 0.85192 0.80219
 C113 C 1.05765 0.87770 0.81579
 C114 C 1.08389 0.89679 0.80110
 C115 C 1.09492 0.88993 0.76969
 H116 H 1.08326 0.87111 0.75572
 O117 O 1.16798 0.97252 0.90062
 O118 O 1.20734 0.97360 0.86473
 C119 C 1.19427 0.96115 0.88956
 C120 C 1.20893 0.93145 0.90325
 C121 C 1.23408 0.91696 0.88601
 H122 H 1.24437 0.92907 0.86518
 O123 O 0.84257 1.02905 0.87360
 O124 O 0.80635 1.02775 0.83420
 C125 C 0.81652 1.03944 0.86089
 C126 C 0.79889 1.06629 0.87688
 C127 C 0.77227 1.08134 0.86163
 H128 H 0.76337 1.07265 0.83849
 O129 O 0.87987 1.15999 0.95910
 O130 O 0.84153 1.19700 0.95678
 C131 C 0.86805 1.18546 0.94635
 C132 C 0.88511 1.20048 0.91834
 C133 C 0.87318 1.22843 0.90232
 H134 H 0.85149 1.24026 0.91099
 O135 O 1.12220 0.82969 0.97347
 O136 O 1.16089 0.79301 0.97448
 C137 C 1.13498 0.80423 0.96200
 C138 C 1.11997 0.78933 0.93270
 C139 C 1.13289 0.76148 0.91754
 H140 H 1.15333 0.74890 0.92819
 O141 O 1.12673 1.03613 0.85294
 O142 O 1.16700 1.03648 0.81793
 C143 C 1.13969 1.04692 0.82720
 C144 C 1.12320 1.07203 0.80779
 C145 C 1.13795 1.08433 0.77984
 H146 H 1.16126 1.07510 0.77221
 O147 O 0.89148 0.96768 0.83246
 O148 O 0.85548 0.96522 0.79291
 C149 C 0.88196 0.95582 0.80573
 C150 C 0.90187 0.93057 0.78988
 C151 C 0.89372 0.91881 0.75889
 H152 H 0.87308 0.92879 0.74612
 O153 O 1.02939 1.15841 0.88029
 O154 O 1.03041 1.19474 0.84118
 C155 C 1.03964 1.18499 0.86884
 C156 C 1.06376 1.20453 0.88650
 C157 C 1.07628 1.23178 0.87122
 H158 H 1.06617 1.23958 0.84825
 O159 O 0.98098 0.83997 0.88050
 O160 O 0.98346 0.80469 0.84049
 C161 C 0.97079 0.81453 0.86673
 C162 C 0.94307 0.79698 0.88064
 C163 C 0.93092 0.76946 0.86509
 H164 H 0.94292 0.76008 0.84375
 O165 O 1.15632 1.13106 0.97315
 O166 O 1.19178 1.17084 0.97384
 C167 C 1.18236 1.14375 0.96288
 C168 C 1.20106 1.12692 0.93734
 C169 C 1.22406 1.14360 0.91841
 H170 H 1.22895 1.16892 0.92282
 O171 O 0.84314 0.87888 0.95629
 O172 O 0.80629 0.84042 0.95450
 C173 C 0.81709 0.86735 0.94456
 C174 C 0.79978 0.88575 0.91898
 C175 C 0.76707 0.87964 0.91084
 H176 H 0.75377 0.86100 0.92346
 Cu177 Cu 1.01299 0.86673 0.86517
 Cu178 Cu 1.01618 0.82430 0.81712
 Cu179 Cu 1.00079 1.13017 0.85973
 Cu180 Cu 1.00267 1.17462 0.81345
 Cu181 Cu 0.87005 0.99845 0.85636
 Cu182 Cu 0.82649 0.99598 0.80910
 Cu183 Cu 1.14394 1.00482 0.88033
 Cu184 Cu 1.19203 1.00548 0.83783
 C185 C 0.92871 0.91725 0.80634
 H186 H 0.93475 0.92547 0.83055
 C187 C 0.91220 0.89419 0.74440
 C188 C 1.09314 1.08438 0.81733
 H189 H 1.08202 1.07540 0.83930
 C190 C 1.12289 1.10837 0.76129
 C191 C 0.81638 0.91058 0.90288
 H192 H 0.84155 0.91530 0.90863
 C193 C 0.75127 0.89881 0.88728
 C194 C 1.19318 1.09474 0.92934
 H195 H 1.17450 1.08218 0.94270
 C196 C 1.23846 1.12826 0.89173
 C197 C 0.92687 0.80922 0.90786
 H198 H 0.93578 0.83091 0.91952
 C199 C 0.90276 0.75437 0.87611
 C200 C 1.07686 1.19479 0.91624
 H201 H 1.06735 1.17337 0.92787
 C202 C 1.10320 1.24799 0.88348
 C203 C 0.92156 1.07938 0.79831
 H204 H 0.93344 1.06713 0.81831
 C205 C 0.88934 1.11274 0.74863
 C206 C 1.09864 0.92159 0.81894
 H207 H 1.09055 0.92670 0.84337
 C208 C 1.12060 0.90753 0.75616
 C209 C 1.09383 0.80560 0.91777
 H210 H 1.08385 0.82717 0.92877
 C211 C 1.12023 0.75097 0.88750
 C212 C 0.91289 1.18500 0.90599
 H213 H 0.92208 1.16331 0.91751
 C214 C 0.88894 1.24025 0.87433
 C215 C 0.81086 1.07925 0.90619
 H216 H 0.83184 1.06843 0.91772
 C217 C 0.75844 1.10913 0.87522
 C218 C 1.19554 0.91488 0.92969
 H219 H 1.17549 0.92566 0.94266
 C220 C 1.24489 0.88593 0.89328
 O221 O 1.02868 0.88274 1.15908
 O222 O 1.02850 0.84697 1.19862
 C223 C 1.03958 0.87297 1.18618
 C224 C 1.06577 0.89218 1.20239
 C225 C 1.07587 0.88602 1.23471
 H226 H 1.06426 0.86721 1.24869
 O227 O 0.95847 1.11467 1.15833
 O228 O 0.95503 1.15072 1.19748
 C229 C 0.94545 1.12461 1.18434
 C230 C 0.91827 1.10611 1.19878
 C231 C 0.90333 1.11672 1.22754
 H232 H 0.91232 1.13806 1.23972
 O233 O 0.83498 1.02549 1.10248
 O234 O 0.79575 1.02393 1.13855
 C235 C 0.80839 1.03625 1.11341
 C236 C 0.79289 1.06504 1.09888
 C237 C 0.76811 1.08018 1.11607
 H238 H 0.75880 1.06926 1.13801
 O239 O 1.15867 0.97334 1.11104
 O240 O 1.19522 0.97482 1.15009
 C241 C 1.18477 0.96294 1.12370
 C242 C 1.20291 0.93599 1.10865
 C243 C 1.23435 0.92919 1.11931
 H244 H 1.24560 0.94480 1.13714
 O245 O 1.11945 0.83021 1.03687
 O246 O 1.15798 0.79343 1.03924
 C247 C 1.13089 0.80439 1.04901
 C248 C 1.11215 0.78804 1.07512
 C249 C 1.11897 0.75617 1.08561
 H250 H 1.13828 0.74255 1.07435
 O251 O 0.88140 1.15861 1.02296
 O252 O 0.84356 1.19619 1.02069
 C253 C 0.86950 1.18499 1.03308
 C254 C 0.88511 1.20255 1.06019
 C255 C 0.87492 1.23383 1.06768
 H256 H 0.85667 1.24525 1.05263
 O257 O 0.87785 0.96236 1.14907
 O258 O 0.83827 0.96202 1.18480
 C259 C 0.86532 0.95143 1.17491
 C260 C 0.88163 0.92565 1.19360
 C261 C 0.86733 0.91407 1.22199
 H262 H 0.84507 0.92483 1.23067
 O263 O 1.11079 1.03536 1.15445
 O264 O 1.14747 1.03523 1.19343
 C265 C 1.12093 1.04555 1.18172
 C266 C 1.10205 1.06943 1.20059
 C267 C 1.11022 1.07484 1.23299
 H268 H 1.12986 1.06126 1.24392
 O269 O 0.96788 0.83597 1.11387
 O270 O 0.96625 0.79900 1.15226
 C271 C 0.95641 0.80973 1.12489
 C272 C 0.93118 0.79246 1.10524
 C273 C 0.92050 0.76077 1.11275
 H274 H 0.93080 0.74804 1.13327
 O275 O 1.02180 1.16299 1.11872
 O276 O 1.01882 1.19903 1.15796
 C277 C 1.03112 1.18932 1.13147
 C278 C 1.05674 1.20862 1.11550
 C279 C 1.06535 1.23909 1.12762
 H280 H 1.05275 1.24882 1.14844
 O281 O 0.84105 0.87830 1.01911
 O282 O 0.80530 0.83881 1.01722
 C283 C 0.81501 0.86544 1.02898
 C284 C 0.79648 0.88090 1.05528
 C285 C 0.76904 0.86566 1.06787
 H286 H 0.76048 0.84343 1.05700
 O287 O 1.15200 1.12883 1.03537
 O288 O 1.18793 1.16817 1.03674
 C289 C 1.17762 1.14105 1.04700
 C290 C 1.19535 1.12371 1.07292
 C291 C 1.22375 1.13680 1.08582
 H292 H 1.23303 1.15932 1.07627
 O293 O 1.02183 1.11749 1.16173
 O294 O 1.01917 1.15282 1.20157
 C295 C 1.03184 1.12770 1.18902
 C296 C 1.05900 1.11000 1.20518
 C297 C 1.06820 1.11556 1.23789
 H298 H 1.05518 1.13298 1.25248
 O299 O 0.96517 0.87955 1.15893
 O300 O 0.96424 0.84331 1.19804
 C301 C 0.95298 0.86877 1.18508
 C302 C 0.92459 0.88544 1.19948
 C303 C 0.90998 0.87435 1.22838
 H304 H 0.92027 0.85409 1.24147
 O305 O 1.15858 1.03772 1.11332
 O306 O 1.19495 1.03827 1.15254
 C307 C 1.18391 1.04983 1.12623
 C308 C 1.19947 1.07864 1.11119
 C309 C 1.22850 1.09207 1.12360
 H310 H 1.24102 1.08053 1.14360
 O311 O 0.83366 0.96182 1.10400
 O312 O 0.79439 0.96083 1.14003
 C313 C 0.80724 0.94995 1.11439
 C314 C 0.79231 0.92225 1.09719
 C315 C 0.76476 0.90652 1.10968
 H316 H 0.75340 0.91561 1.13144
 O317 O 1.10734 1.17239 1.03473
 O318 O 1.14250 1.21235 1.03609
 C319 C 1.11694 1.19903 1.04669
 C320 C 1.09862 1.21372 1.07395
 C321 C 1.10715 1.24410 1.08676
 H322 H 1.12652 1.25774 1.07571
 O323 O 0.88819 0.83741 1.02137
 O324 O 0.85254 0.79794 1.01837
 C325 C 0.87754 0.81049 1.03140
 C326 C 0.89367 0.79352 1.05881
 C327 C 0.88402 0.76220 1.06645
 H328 H 0.86571 0.75068 1.05163
 O329 O 1.11264 0.97223 1.15390
 O330 O 1.14950 0.97297 1.19269
 C331 C 1.12350 0.96152 1.18074
 C332 C 1.10614 0.93568 1.19881
 C333 C 1.11517 0.92935 1.23086
 H334 H 1.13420 0.94359 1.24192
 O335 O 0.87593 1.02547 1.15020
 O336 O 0.83631 1.02439 1.18589
 C337 C 0.86293 1.03606 1.17602
 C338 C 0.87813 1.06287 1.19439
 C339 C 0.86367 1.07394 1.22304
 H340 H 0.84232 1.06196 1.23226
 O341 O 0.95923 1.16101 1.11592
 O342 O 0.95573 1.19770 1.15448
 C343 C 0.94683 1.18687 1.12693
 C344 C 0.92178 1.20377 1.10701
 C345 C 0.91079 1.23529 1.11441
 H346 H 0.92080 1.24795 1.13507
 O347 O 1.03094 0.83555 1.11773
 O348 O 1.02971 0.79915 1.15673
 C349 C 1.04155 0.80958 1.13036
 C350 C 1.06795 0.79125 1.11444
 C351 C 1.07479 0.75963 1.12418
 H352 H 1.06034 0.74873 1.14310
 O353 O 1.16182 0.87652 1.03745
 O354 O 1.20152 0.84096 1.03961
 C355 C 1.18876 0.86735 1.04913
 C356 C 1.20492 0.88816 1.07376
 C357 C 1.23646 0.88147 1.08528
 H358 H 1.24947 0.86068 1.07616
 O359 O 0.83566 1.11593 1.02238
 O360 O 0.79768 1.15341 1.02202
 C361 C 0.80935 1.12736 1.03352
 C362 C 0.79325 1.11045 1.06086
 C363 C 0.76844 1.12550 1.07903
 H364 H 0.75993 1.14942 1.07258
 Cu365 Cu 0.99821 0.86209 1.13375
 Cu366 Cu 0.99715 0.81860 1.18034
 Cu367 Cu 0.99060 1.13536 1.13499
 Cu368 Cu 0.98683 1.17854 1.18195
 Cu369 Cu 0.86918 0.86166 0.98859
 Cu370 Cu 0.82589 0.81460 0.98595
 Cu371 Cu 1.13774 0.85633 1.00577
 Cu372 Cu 1.18464 0.81293 1.00786
 Cu373 Cu 0.86280 1.13328 0.99110
 Cu374 Cu 0.81694 1.17781 0.98938
 Cu375 Cu 1.12728 1.14729 1.00330
 Cu376 Cu 1.16995 1.19487 1.00493
 Cu377 Cu 0.85949 0.99370 1.12265
 Cu378 Cu 0.81215 0.99270 1.16578
 Cu379 Cu 1.13180 1.00474 1.12892
 Cu380 Cu 1.17550 1.00532 1.17593
 C381 C 1.08116 0.91727 1.18482
 H382 H 1.07411 0.92217 1.15998
 C383 C 1.10039 0.90505 1.24918
 C384 C 0.90562 1.07891 1.18257
 H385 H 0.91652 1.07085 1.16013
 C386 C 0.87585 1.10080 1.23971
 C387 C 0.80522 1.08011 1.07109
 H388 H 0.82499 1.06875 1.05819
 C389 C 0.75646 1.11050 1.10715
 C390 C 1.18847 0.91563 1.08564
 H391 H 1.16403 0.92081 1.07756
 C392 C 1.25137 0.90217 1.10805
 C393 C 1.08649 0.80514 1.08976
 H394 H 1.08118 0.82968 1.08231
 C395 C 1.09984 0.74166 1.10998
 C396 C 0.90874 1.18780 1.07971
 H397 H 0.91644 1.16344 1.07399
 C398 C 0.88738 1.25056 1.09446
 C399 C 0.91034 0.91142 1.18261
 H400 H 0.92103 0.91997 1.16025
 C401 C 0.88108 0.88860 1.23953
 C402 C 1.07625 1.08677 1.18693
 H403 H 1.06995 1.08244 1.16179
 C404 C 1.09362 1.09735 1.25195
 C405 C 0.91746 0.80841 1.07807
 H406 H 0.92485 0.83280 1.07217
 C407 C 0.89698 0.74541 1.09298
 C408 C 1.07327 1.19633 1.08847
 H409 H 1.06686 1.17271 1.07917
 C410 C 1.09049 1.25701 1.11358
 C411 C 0.80766 0.90941 1.06975
 H412 H 0.82922 0.92091 1.06039
 C413 C 0.75315 0.87795 1.09518
 C414 C 1.18350 1.09455 1.08554
 H415 H 1.16114 1.08471 1.07598
 C416 C 1.24056 1.12136 1.11096
 O417 O 1.10789 0.53455 0.65645
 O418 O 1.14509 0.53460 0.69500
 C419 C 1.11849 0.54498 0.68350
 C420 C 1.10006 0.56937 0.70215
 C421 C 1.10897 0.57612 0.73418
 H422 H 1.12882 0.56305 0.74537
 O423 O 0.87393 0.46552 0.65015
 O424 O 0.83418 0.46440 0.68568
 C425 C 0.86170 0.45449 0.67612
 C426 C 0.87993 0.43003 0.69526
 C427 C 0.87055 0.42198 0.72704
 H428 H 0.84968 0.43345 0.73797
 O429 O 1.02056 0.66267 0.62010
 O430 O 1.01742 0.69868 0.65937
 C431 C 1.03016 0.68875 0.63319
 C432 C 1.05698 0.70725 0.61836
 C433 C 1.06939 0.73469 0.63397
 H434 H 1.05870 0.74304 0.65641
 O435 O 0.96699 0.33758 0.61655
 O436 O 0.96488 0.30118 0.65551
 C437 C 0.95549 0.31153 0.62800
 C438 C 0.93104 0.29370 0.60856
 C439 C 0.92074 0.26229 0.61694
 H440 H 0.93044 0.25043 0.63828
 O441 O 1.15422 0.63087 0.53878
 O442 O 1.19072 0.66953 0.54204
 C443 C 1.17967 0.64249 0.55157
 C444 C 1.19566 0.62388 0.57792
 C445 C 1.22211 0.63628 0.59591
 H446 H 1.23169 0.66000 0.59052
 O447 O 0.84333 0.37731 0.52023
 O448 O 0.80753 0.33791 0.51800
 C449 C 0.81684 0.36480 0.52953
 C450 C 0.79713 0.38148 0.55445
 C451 C 0.76677 0.36937 0.56376
 H452 H 0.75715 0.34803 0.55204
 O453 O 0.95657 0.61500 0.65940
 O454 O 0.95307 0.65112 0.69849
 C455 C 0.94341 0.62512 0.68530
 C456 C 0.91583 0.60700 0.69937
 C457 C 0.90086 0.61746 0.72818
 H458 H 0.91020 0.63840 0.74079
 O459 O 1.02788 0.38309 0.66184
 O460 O 1.02806 0.34672 0.70085
 C461 C 1.03926 0.37248 0.68848
 C462 C 1.06650 0.39030 0.70386
 C463 C 1.08384 0.37805 0.73100
 H464 H 1.07699 0.35527 0.74187
 O465 O 1.15501 0.47198 0.61277
 O466 O 1.19177 0.47322 0.65167
 C467 C 1.18127 0.46154 0.62522
 C468 C 1.19966 0.43498 0.60966
 C469 C 1.23126 0.42804 0.62011
 H470 H 1.24252 0.44305 0.63845
 O471 O 0.83043 0.52766 0.60311
 O472 O 0.79016 0.52661 0.63798
 C473 C 0.80328 0.53841 0.61278
 C474 C 0.78762 0.56555 0.59490
 C475 C 0.75698 0.57761 0.60401
 H476 H 0.74389 0.56646 0.62374
 O477 O 0.88122 0.65859 0.52245
 O478 O 0.84300 0.69574 0.51975
 C479 C 0.86862 0.68459 0.53280
 C480 C 0.88336 0.70179 0.56070
 C481 C 0.87231 0.73260 0.56921
 H482 H 0.85366 0.74401 0.55465
 O483 O 1.11787 0.33228 0.53395
 O484 O 1.15601 0.29516 0.53748
 C485 C 1.12891 0.30662 0.54675
 C486 C 1.10984 0.29097 0.57309
 C487 C 1.11695 0.25954 0.58454
 H488 H 1.13647 0.24583 0.57376
 O489 O 0.87280 0.52815 0.64945
 O490 O 0.83267 0.52700 0.68455
 C491 C 0.85950 0.53856 0.67510
 C492 C 0.87482 0.56484 0.69390
 C493 C 0.86035 0.57562 0.72258
 H494 H 0.83871 0.56386 0.73141
 O495 O 1.10857 0.47168 0.65548
 O496 O 1.14604 0.47313 0.69364
 C497 C 1.12007 0.46154 0.68223
 C498 C 1.10481 0.43492 0.70019
 C499 C 1.12049 0.42339 0.72781
 H500 H 1.14156 0.43591 0.73712
 O501 O 1.02967 0.33991 0.61678
 O502 O 1.02792 0.30303 0.65534
 C503 C 1.03984 0.31362 0.62897
 C504 C 1.06589 0.29502 0.61272
 C505 C 1.07297 0.26370 0.62320
 H506 H 1.05888 0.25325 0.64263
 O507 O 0.95796 0.66023 0.61606
 O508 O 0.95429 0.69699 0.65456
 C509 C 0.94548 0.68602 0.62704
 C510 C 0.92027 0.70271 0.60731
 C511 C 0.90859 0.73364 0.61563
 H512 H 0.91845 0.74588 0.63661
 O513 O 0.83707 0.61426 0.51893
 O514 O 0.79872 0.65128 0.51626
 C515 C 0.80977 0.62507 0.52802
 C516 C 0.79103 0.60751 0.55309
 C517 C 0.76023 0.61851 0.56200
 H518 H 0.74976 0.63918 0.54970
 O519 O 1.16033 0.37778 0.53521
 O520 O 1.19956 0.34174 0.53863
 C521 C 1.18667 0.36818 0.54782
 C522 C 1.20217 0.38843 0.57315
 C523 C 1.23362 0.38156 0.58446
 H524 H 1.24682 0.36121 0.57464
 O525 O 0.96444 0.38480 0.65786
 O526 O 0.96397 0.34895 0.69741
 C527 C 0.95276 0.37452 0.68435
 C528 C 0.92530 0.39197 0.69961
 C529 C 0.91610 0.38511 0.73161
 H530 H 0.92984 0.36787 0.74589
 O531 O 1.01994 0.61693 0.66258
 O532 O 1.01714 0.65250 0.70224
 C533 C 1.02987 0.62736 0.68980
 C534 C 1.05712 0.61007 0.70600
 C535 C 1.06711 0.61713 0.73809
 H536 H 1.05456 0.63532 0.75215
 O537 O 0.83266 0.46407 0.60265
 O538 O 0.79267 0.46281 0.63787
 C539 C 0.80626 0.45195 0.61254
 C540 C 0.79192 0.42422 0.59499
 C541 C 0.76179 0.41159 0.60421
 H542 H 0.74819 0.42320 0.62333
 O543 O 1.15322 0.53623 0.61267
 O544 O 1.18960 0.53561 0.65191
 C545 C 1.17871 0.54748 0.62578
 C546 C 1.19527 0.57605 0.61254
 C547 C 1.22192 0.58826 0.62936
 H548 H 1.23200 0.57489 0.64961
 O549 O 0.89073 0.33597 0.52337
 O550 O 0.85495 0.29662 0.52028
 C551 C 0.87980 0.30912 0.53338
 C552 C 0.89534 0.29256 0.56114
 C553 C 0.88620 0.26108 0.56923
 H554 H 0.86871 0.24846 0.55428
 O555 O 1.10702 0.67178 0.53706
 O556 O 1.14317 0.71081 0.53974
 C557 C 1.11702 0.69795 0.54954
 C558 C 1.09891 0.71244 0.57691
 C559 C 1.11051 0.74028 0.59260
 H560 H 1.13185 0.75241 0.58355
 Cu561 Cu 1.12757 0.50358 0.63008
 Cu562 Cu 1.17193 0.50415 0.67677
 Cu563 Cu 0.85626 0.49638 0.62262
 Cu564 Cu 0.80826 0.49506 0.66490
 Cu565 Cu 0.98903 0.63500 0.63583
 Cu566 Cu 0.98504 0.67836 0.68268
 Cu567 Cu 0.99722 0.36512 0.63460
 Cu568 Cu 0.99605 0.32142 0.68132
 C569 C 1.07392 0.58610 0.68839
 H570 H 1.06703 0.58076 0.66360
 C571 C 1.09282 0.59964 0.75232
 C572 C 0.90734 0.41486 0.68182
 H573 H 0.91436 0.42043 0.65716
 C574 C 0.88891 0.40001 0.74541
 C575 C 1.07177 0.69642 0.58971
 H576 H 1.06287 0.67472 0.57803
 C577 C 1.09605 0.75127 0.62131
 C578 C 0.91805 0.30852 0.58063
 H579 H 0.92514 0.33290 0.57432
 C580 C 0.89857 0.24578 0.59691
 C581 C 1.18254 0.59363 0.58656
 H582 H 1.16157 0.58421 0.57389
 C583 C 1.23485 0.61843 0.62218
 C584 C 0.80927 0.40911 0.56999
 H585 H 0.83278 0.41841 0.56318
 C586 C 0.74900 0.38418 0.58872
 C587 C 0.90276 0.58041 0.68261
 H588 H 0.91369 0.57248 0.66015
 C589 C 0.87295 0.60187 0.73982
 C590 C 1.07747 0.41880 0.68867
 H591 H 1.06554 0.42786 0.66707
 C592 C 1.11146 0.39462 0.74254
 C593 C 1.18543 0.41530 0.58588
 H594 H 1.16099 0.42052 0.57783
 C595 C 1.24838 0.40148 0.60783
 C596 C 0.80432 0.58073 0.56934
 H597 H 0.82818 0.57223 0.56263
 C598 C 0.74310 0.60402 0.58743
 C599 C 0.90752 0.68715 0.57968
 H600 H 0.91592 0.66320 0.57325
 C601 C 0.88461 0.74884 0.59646
 C602 C 1.08413 0.30834 0.58741
 H603 H 1.07869 0.33266 0.57933
 C604 C 1.09817 0.24565 0.60949
 O605 O 1.13101 0.47317 0.34994
 O606 O 1.17166 0.47445 0.31539
 C607 C 1.14458 0.46305 0.32420
 C608 C 1.12864 0.43768 0.30454
 C609 C 1.13901 0.43081 0.27286
 H610 H 1.15881 0.44439 0.26247
 O611 O 0.89069 0.52698 0.32895
 O612 O 0.85548 0.52654 0.28863
 C613 C 0.88101 0.53776 0.30174
 C614 C 0.89983 0.56386 0.28594
 C615 C 0.89309 0.57437 0.25402
 H616 H 0.87382 0.56321 0.24015
 O617 O 0.97250 0.65788 0.37846
 O618 O 0.97366 0.69446 0.33954
 C619 C 0.96178 0.68374 0.36580
 C620 C 0.93536 0.70161 0.38185
 C621 C 0.92819 0.73330 0.37255
 H622 H 0.94230 0.74466 0.35365
 O623 O 1.04532 0.33986 0.38103
 O624 O 1.04740 0.30385 0.34162
 C625 C 1.05640 0.31369 0.36930
 C626 C 1.07962 0.29404 0.38800
 C627 C 1.08419 0.26163 0.38009
 H628 H 1.07063 0.25120 0.36014
 O629 O 1.16472 0.37657 0.47316
 O630 O 1.20398 0.34054 0.47546
 C631 C 1.19246 0.36686 0.46418
 C632 C 1.21096 0.38720 0.44079
 C633 C 1.24305 0.37973 0.43124
 H634 H 1.25497 0.35831 0.44052
 O635 O 0.84174 0.61405 0.45590
 O636 O 0.80355 0.65125 0.45323
 C637 C 0.81599 0.62504 0.44307
 C638 C 0.80085 0.60771 0.41547
 C639 C 0.77249 0.61979 0.40097
 H640 H 0.76092 0.64120 0.41062
 O641 O 1.03962 0.61555 0.33915
 O642 O 1.04068 0.65150 0.29966
 C643 C 1.05182 0.62619 0.31301
 C644 C 1.07949 0.60880 0.29865
 C645 C 1.08893 0.61368 0.26621
 H646 H 1.07568 0.63043 0.25095
 O647 O 0.98441 0.38567 0.33429
 O648 O 0.98814 0.34979 0.29492
 C649 C 0.97550 0.37508 0.30671
 C650 C 0.94930 0.39131 0.28849
 C651 C 0.94124 0.38067 0.25724
 H652 H 0.95536 0.36175 0.24592
 O653 O 1.16951 0.53755 0.39819
 O654 O 1.21016 0.53879 0.36373
 C655 C 1.19602 0.54987 0.38866
 C656 C 1.20988 0.57805 0.40612
 C657 C 1.24121 0.58935 0.39903
 H658 H 1.25599 0.57657 0.38161
 O659 O 0.84557 0.46355 0.37103
 O660 O 0.80975 0.46209 0.33134
 C661 C 0.82038 0.45134 0.35826
 C662 C 0.80461 0.42349 0.37462
 C663 C 0.77740 0.40774 0.36105
 H664 H 0.76642 0.41661 0.33888
 O665 O 1.11205 0.67355 0.47385
 O666 O 1.14770 0.71305 0.47540
 C667 C 1.12273 0.70010 0.46284
 C668 C 1.10583 0.71465 0.43450
 C669 C 1.11110 0.74679 0.42409
 H670 H 1.12788 0.76219 0.43706
 O671 O 0.89338 0.33542 0.45955
 O672 O 0.85739 0.29623 0.45684
 C673 C 0.88350 0.30908 0.44710
 C674 C 0.90181 0.29419 0.42000
 C675 C 0.89002 0.26642 0.40414
 H676 H 0.86811 0.25498 0.41267
 O677 O 0.89291 0.46464 0.33025
 O678 O 0.85766 0.46368 0.28996
 C679 C 0.88372 0.45361 0.30303
 C680 C 0.90358 0.42867 0.28682
 C681 C 0.89546 0.41723 0.25571
 H682 H 0.87472 0.42718 0.24306
 O683 O 1.12762 0.53541 0.35145
 O684 O 1.16809 0.53618 0.31664
 C685 C 1.14035 0.54586 0.32553
 C686 C 1.12267 0.56922 0.30526
 C687 C 1.13145 0.57376 0.27289
 H688 H 1.15135 0.56002 0.26280
 O689 O 0.98253 0.34146 0.37851
 O690 O 0.98491 0.30564 0.33898
 C691 C 0.97233 0.31578 0.36520
 C692 C 0.94498 0.29798 0.37976
 C693 C 0.93277 0.27043 0.36433
 H694 H 0.94422 0.26152 0.34250
 O695 O 1.03492 0.66009 0.38307
 O696 O 1.03569 0.69614 0.34364
 C697 C 1.04492 0.68664 0.37141
 C698 C 1.06726 0.70714 0.39014
 C699 C 1.07202 0.73910 0.38071
 H700 H 1.05898 0.74862 0.35996
 O701 O 0.84870 0.37923 0.45737
 O702 O 0.81278 0.33992 0.45538
 C703 C 0.82356 0.36667 0.44491
 C704 C 0.80700 0.38231 0.41722
 C705 C 0.78023 0.36712 0.40327
 H706 H 0.77088 0.34500 0.41369
 O707 O 1.15585 0.62911 0.47656
 O708 O 1.19253 0.66769 0.47906
 C709 C 1.18282 0.64073 0.46782
 C710 C 1.20306 0.62266 0.44444
 C711 C 1.23450 0.63316 0.43744
 H712 H 1.24407 0.65443 0.44936
 O713 O 1.04765 0.38736 0.33989
 O714 O 1.05079 0.35136 0.30060
 C715 C 1.06059 0.37724 0.31395
 C716 C 1.08753 0.39567 0.29954
 C717 C 1.09835 0.38889 0.26804
 H718 H 1.08628 0.37046 0.25389
 O719 O 0.97659 0.61163 0.33625
 O720 O 0.97803 0.64825 0.29740
 C721 C 0.96719 0.62196 0.30880
 C722 C 0.94295 0.60396 0.28980
 C723 C 0.93668 0.61325 0.25787
 H724 H 0.95061 0.63256 0.24703
 O725 O 0.84565 0.52680 0.37198
 O726 O 0.80996 0.52626 0.33211
 C727 C 0.82018 0.53787 0.35882
 C728 C 0.80301 0.56530 0.37416
 C729 C 0.77515 0.57831 0.35962
 H730 H 0.76534 0.56757 0.33775
 O731 O 1.16927 0.47339 0.39992
 O732 O 1.20970 0.47512 0.36522
 C733 C 1.19638 0.46295 0.39012
 C734 C 1.21254 0.43561 0.40661
 C735 C 1.24439 0.42836 0.39846
 H736 H 1.25717 0.44399 0.38182
 O737 O 1.12251 0.33041 0.47084
 O738 O 1.16063 0.29320 0.47299
 C739 C 1.13481 0.30433 0.46030
 C740 C 1.11856 0.28835 0.43234
 C741 C 1.12334 0.25549 0.42378
 H742 H 1.13959 0.24041 0.43784
 O743 O 0.88369 0.66061 0.45888
 O744 O 0.84570 0.69801 0.45634
 C745 C 0.87275 0.68687 0.44701
 C746 C 0.89165 0.70372 0.42153
 C747 C 0.88432 0.73557 0.41147
 H748 H 0.86479 0.74874 0.42289
 Cu749 Cu 1.14546 0.50479 0.37861
 Cu750 Cu 1.19431 0.50635 0.33714
 Cu751 Cu 0.87209 0.49551 0.35460
 Cu752 Cu 0.82936 0.49449 0.30666
 Cu753 Cu 1.12849 0.64771 0.50633
 Cu754 Cu 1.17200 0.69446 0.50908
 Cu755 Cu 1.13739 0.35754 0.50283
 Cu756 Cu 1.18382 0.31378 0.50646
 Cu757 Cu 0.86485 0.63328 0.48921
 Cu758 Cu 0.81891 0.67777 0.48621
 Cu759 Cu 0.87278 0.36080 0.49054
 Cu760 Cu 0.82963 0.31367 0.48743
 Cu761 Cu 1.00590 0.63243 0.36309
 Cu762 Cu 1.00707 0.67620 0.31602
 Cu763 Cu 1.01487 0.36737 0.36230
 Cu764 Cu 1.01817 0.32410 0.31505
 C765 C 1.10273 0.42014 0.31752
 H766 H 1.09468 0.42524 0.34197
 C767 C 1.12393 0.40651 0.25438
 C768 C 0.92488 0.57895 0.30356
 H769 H 0.92982 0.57183 0.32837
 C770 C 0.91187 0.59901 0.23987
 C771 C 0.91730 0.68716 0.40656
 H772 H 0.92287 0.66258 0.41370
 C773 C 0.90297 0.75063 0.38716
 C774 C 1.09665 0.30714 0.41408
 H775 H 1.09292 0.33239 0.41996
 C776 C 1.10541 0.24198 0.39780
 C777 C 1.19604 0.41527 0.42807
 H778 H 1.17125 0.42102 0.43429
 C779 C 1.25987 0.40067 0.41009
 C780 C 0.81568 0.58013 0.40218
 H781 H 0.83768 0.57079 0.41307
 C782 C 0.75977 0.60536 0.37296
 C783 C 1.09655 0.58652 0.31788
 H784 H 1.08973 0.58287 0.34296
 C785 C 1.11467 0.59565 0.25312
 C786 C 0.93064 0.41559 0.30295
 H787 H 0.93668 0.42366 0.32721
 C788 C 0.91430 0.39317 0.24080
 C789 C 1.19109 0.59486 0.42896
 H790 H 1.16676 0.58669 0.43418
 C791 C 1.25373 0.61679 0.41482
 C792 C 0.81891 0.41066 0.40301
 H793 H 0.84012 0.42203 0.41344
 C794 C 0.76552 0.37927 0.37535
 C795 C 1.08381 0.69519 0.41718
 H796 H 1.07990 0.67032 0.42434
 C797 C 1.09357 0.75916 0.39730
 C798 C 0.92956 0.30955 0.40777
 H799 H 0.93850 0.33125 0.41940
 C800 C 0.90529 0.25461 0.37608
 O801 O 0.47952 0.88667 0.33887
 O802 O 0.48297 0.84931 0.30094
 C803 C 0.46968 0.87464 0.31230
 C804 C 0.44185 0.88938 0.29477
 C805 C 0.43409 0.87867 0.26355
 H806 H 0.44929 0.86070 0.25208
 O807 O 0.52900 1.11170 0.33937
 O808 O 0.52777 1.14972 0.30193
 C809 C 0.54065 1.12447 0.31400
 C810 C 0.57075 1.11144 0.29946
 C811 C 0.58481 1.12782 0.27347
 H812 H 0.57236 1.14824 0.26267
 O813 O 0.33520 0.96033 0.37753
 O814 O 0.29831 0.95897 0.33877
 C815 C 0.30924 0.94885 0.36568
 C816 C 0.29250 0.92323 0.38383
 C817 C 0.25977 0.91521 0.37833
 H818 H 0.24589 0.92792 0.36000
 O819 O 0.66760 1.03968 0.39225
 O820 O 0.70690 1.04133 0.35628
 C821 C 0.69388 1.05180 0.38208
 C822 C 0.70848 1.07923 0.39984
 C823 C 0.73639 1.09474 0.38814
 H824 H 0.74812 1.08565 0.36657
 O825 O 0.38968 0.83882 0.46189
 O826 O 0.35396 0.79933 0.46024
 C827 C 0.38005 0.81213 0.45021
 C828 C 0.39951 0.79602 0.42472
 C829 C 0.39200 0.76457 0.41418
 H830 H 0.37204 0.75176 0.42514
 O831 O 0.60945 1.16218 0.47442
 O832 O 0.64532 1.20152 0.47520
 C833 C 0.62038 1.18827 0.46263
 C834 C 0.60468 1.20215 0.43307
 C835 C 0.61900 1.22817 0.41624
 H836 H 0.64089 1.23926 0.42546
 O837 O 0.38103 1.02346 0.33658
 O838 O 0.34482 1.02224 0.29716
 C839 C 0.37055 1.03374 0.30957
 C840 C 0.38818 1.05948 0.29242
 C841 C 0.37952 1.06716 0.26065
 H842 H 0.36050 1.05359 0.24873
 O843 O 0.62632 0.97595 0.34642
 O844 O 0.66534 0.97761 0.31012
 C845 C 0.63897 0.96568 0.32042
 C846 C 0.62356 0.93889 0.30246
 C847 C 0.63793 0.92727 0.27412
 H848 H 0.65934 0.93898 0.26468
 O849 O 0.54359 0.84401 0.38444
 O850 O 0.54665 0.80617 0.34695
 C851 C 0.55599 0.81792 0.37385
 C852 C 0.58187 0.80172 0.39302
 C853 C 0.59393 0.77090 0.38449
 H854 H 0.58376 0.75832 0.36387
 O855 O 0.46318 1.15425 0.38125
 O856 O 0.46228 1.19283 0.34440
 C857 C 0.45181 1.18081 0.37063
 C858 C 0.42605 1.19722 0.38934
 C859 C 0.41749 1.22992 0.38402
 H860 H 0.42975 1.24396 0.36565
 O861 O 0.33639 1.10474 0.46576
 O862 O 0.29815 1.14204 0.46533
 C863 C 0.31002 1.11598 0.45436
 C864 C 0.29253 1.09891 0.42819
 C865 C 0.26036 1.10696 0.42167
 H866 H 0.24852 1.12528 0.43619
 O867 O 0.66621 0.89233 0.47822
 O868 O 0.70497 0.85568 0.48004
 C869 C 0.69332 0.88168 0.46843
 C870 C 0.71129 0.89890 0.44262
 C871 C 0.74206 0.88804 0.43373
 H872 H 0.75300 0.86804 0.44672
 O873 O 0.46509 1.10987 0.33604
 O874 O 0.46398 1.14808 0.29884
 C875 C 0.45388 1.12116 0.30955
 C876 C 0.42836 1.10278 0.29184
 C877 C 0.41857 1.11082 0.25988
 H878 H 0.43004 1.13064 0.24725
 O879 O 0.54329 0.88879 0.34007
 O880 O 0.54675 0.85116 0.30243
 C881 C 0.55618 0.87784 0.31437
 C882 C 0.58323 0.89585 0.29912
 C883 C 0.59817 0.88446 0.27062
 H884 H 0.58919 0.86281 0.25898
 O885 O 0.67015 0.97652 0.39122
 O886 O 0.70956 0.97764 0.35538
 C887 C 0.69717 0.96591 0.38101
 C888 C 0.71348 0.93923 0.39913
 C889 C 0.74418 0.92714 0.38997
 H890 H 0.75687 0.93767 0.36963
 O891 O 0.33453 1.02276 0.37801
 O892 O 0.29753 1.02224 0.33936
 C893 C 0.30817 1.03340 0.36613
 C894 C 0.29077 1.05926 0.38423
 C895 C 0.25824 1.06815 0.37759
 H896 H 0.24478 1.05611 0.35855
 O897 O 0.38034 1.14924 0.46795
 O898 O 0.34180 1.18626 0.46740
 C899 C 0.36867 1.17554 0.45721
 C900 C 0.38618 1.19409 0.43255
 C901 C 0.37839 1.22648 0.42754
 H902 H 0.35997 1.23778 0.44236
 O903 O 0.62296 0.84724 0.47575
 O904 O 0.66169 0.81051 0.47758
 C905 C 0.63559 0.82132 0.46527
 C906 C 0.62026 0.80374 0.43814
 C907 C 0.63167 0.77314 0.42957
 H908 H 0.65105 0.76232 0.44361
 O909 O 0.62525 1.03861 0.34556
 O910 O 0.66430 1.04083 0.30936
 C911 C 0.63694 1.05048 0.31970
 C912 C 0.61852 1.07621 0.30225
 C913 C 0.63213 1.09317 0.27584
 H914 H 0.65612 1.08712 0.26725
 O915 O 0.38280 0.96097 0.33682
 O916 O 0.34684 0.95905 0.29724
 C917 C 0.37341 0.94943 0.30988
 C918 C 0.39404 0.92473 0.29352
 C919 C 0.38656 0.91318 0.26219
 H920 H 0.36551 0.92241 0.24952
 O921 O 0.52600 1.15415 0.38453
 O922 O 0.52523 1.19219 0.34708
 C923 C 0.53665 1.18067 0.37340
 C924 C 0.56373 1.19778 0.38988
 C925 C 0.57853 1.22354 0.37384
 H926 H 0.56906 1.23163 0.35070
 O927 O 0.48057 0.84216 0.38241
 O928 O 0.48365 0.80450 0.34470
 C929 C 0.47106 0.81550 0.37053
 C930 C 0.44452 0.79754 0.38641
 C931 C 0.43684 0.76609 0.37644
 H932 H 0.45105 0.75458 0.35768
 O933 O 0.65828 1.12287 0.47763
 O934 O 0.69391 1.16243 0.47966
 C935 C 0.68454 1.13569 0.46802
 C936 C 0.70366 1.12023 0.44205
 C937 C 0.73153 1.13537 0.43009
 H938 H 0.74004 1.15749 0.44123
 O939 O 0.34062 0.87867 0.46244
 O940 O 0.30487 0.83910 0.46174
 C941 C 0.31456 0.86623 0.45165
 C942 C 0.29547 0.88328 0.42689
 C943 C 0.26286 0.87578 0.42181
 H944 H 0.25142 0.85752 0.43666
 Cu945 Cu 0.51169 0.86923 0.36515
 Cu946 Cu 0.51533 0.82419 0.31982
 Cu947 Cu 0.49533 1.12847 0.36382
 Cu948 Cu 0.49459 1.17440 0.31921
 Cu949 Cu 0.36183 0.99185 0.36125
 Cu950 Cu 0.31829 0.99049 0.31403
 Cu951 Cu 0.64359 1.00765 0.37257
 Cu952 Cu 0.69049 1.00948 0.32917
 C953 C 0.42187 0.91264 0.30951
 H954 H 0.42771 0.92086 0.33376
 C955 C 0.40670 0.89018 0.24701
 C956 C 0.58765 1.08549 0.31362
 H957 H 0.57720 1.07325 0.33429
 C958 C 0.61540 1.11939 0.26182
 C959 C 0.30996 0.90704 0.40807
 H960 H 0.33529 0.91263 0.41209
 C961 C 0.24469 0.89169 0.39782
 C962 C 0.69261 1.09194 0.42708
 H963 H 0.67073 1.08056 0.43585
 C964 C 0.74795 1.12304 0.40306
 C965 C 0.42591 0.81221 0.41075
 H966 H 0.43163 0.83658 0.41840
 C967 C 0.41070 0.74939 0.39011
 C968 C 0.57689 1.18719 0.41960
 H969 H 0.56604 1.16671 0.43173
 C970 C 0.60623 1.23847 0.38628
 C971 C 0.41292 1.07697 0.30771
 H972 H 0.41959 1.07094 0.33242
 C973 C 0.39427 1.09258 0.24409
 C974 C 0.59599 0.92333 0.31462
 H975 H 0.58517 0.93194 0.33689
 C976 C 0.62572 0.90007 0.25815
 C977 C 0.59517 0.81774 0.42001
 H978 H 0.58650 0.84158 0.42654
 C979 C 0.61891 0.75639 0.40293
 C980 C 0.41019 1.17968 0.41372
 H981 H 0.41613 1.15449 0.41777
 C982 C 0.39386 1.24472 0.40370
 C983 C 0.30748 1.07495 0.40964
 H984 H 0.33247 1.06883 0.41486
 C985 C 0.24283 1.09180 0.39692
 C986 C 0.69737 0.92479 0.42555
 H987 H 0.67349 0.93316 0.43237
 C988 C 0.75866 0.90161 0.40753
 O989 O 0.52681 0.88307 0.66266
 O990 O 0.52681 0.84452 0.69966
 C991 C 0.53706 0.87151 0.68932
 C992 C 0.56127 0.88935 0.70859
 C993 C 0.56830 0.87947 0.74020
 H994 H 0.55544 0.85916 0.75054
 O995 O 0.45940 1.11272 0.66441
 O996 O 0.45631 1.15159 0.70084
 C997 C 0.44640 1.12482 0.68943
 C998 C 0.41796 1.10934 0.70443
 C999 C 0.40069 1.12673 0.72756
 H1000 H 0.40969 1.14980 0.73612
 O1001 O 0.33163 1.02370 0.61810
 O1002 O 0.29154 1.02200 0.65318
 C1003 C 0.30392 1.03320 0.62735
 C1004 C 0.28693 1.05805 0.60775
 C1005 C 0.25522 1.06849 0.61493
 H1006 H 0.24218 1.05801 0.63507
 O1007 O 0.65434 0.97273 0.62940
 O1008 O 0.69075 0.97367 0.66865
 C1009 C 0.68063 0.96248 0.64185
 C1010 C 0.69922 0.93672 0.62555
 C1011 C 0.72744 0.92430 0.63993
 H1012 H 0.73632 0.93431 0.66253
 O1013 O 0.62115 0.84496 0.53889
 O1014 O 0.66010 0.80849 0.54054
 C1015 C 0.63289 0.81885 0.55028
 C1016 C 0.61518 0.80113 0.57593
 C1017 C 0.62849 0.77325 0.59051
 H1018 H 0.65129 0.76342 0.58212
 O1019 O 0.37814 1.14968 0.53125
 O1020 O 0.33943 1.18643 0.52970
 C1021 C 0.36585 1.17598 0.54146
 C1022 C 0.38203 1.19493 0.56727
 C1023 C 0.37151 1.22643 0.57383
 H1024 H 0.35210 1.23683 0.55949
 O1025 O 0.37761 0.96468 0.66517
 O1026 O 0.33885 0.96245 0.70164
 C1027 C 0.36611 0.95287 0.69107
 C1028 C 0.38475 0.92704 0.70777
 C1029 C 0.37677 0.91589 0.73908
 H1030 H 0.35668 0.92649 0.75211
 O1031 O 0.60629 1.03360 0.67292
 O1032 O 0.64313 1.03453 0.71174
 C1033 C 0.61667 1.04462 0.69976
 C1034 C 0.59837 1.07011 0.71678
 C1035 C 0.60735 1.07961 0.74808
 H1036 H 0.62694 1.06725 0.76049
 O1037 O 0.46642 0.83713 0.61630
 O1038 O 0.46593 0.79906 0.65372
 C1039 C 0.45531 0.81070 0.62729
 C1040 C 0.42884 0.79427 0.60969
 C1041 C 0.41070 0.76956 0.62466
 H1042 H 0.41679 0.76145 0.64889
 O1043 O 0.52327 1.15887 0.62326
 O1044 O 0.52008 1.19710 0.66036
 C1045 C 0.53281 1.18563 0.63485
 C1046 C 0.55953 1.20332 0.61922
 C1047 C 0.57236 1.23096 0.63410
 H1048 H 0.56213 1.23989 0.65653
 O1049 O 0.34331 0.88015 0.52561
 O1050 O 0.30752 0.84067 0.52452
 C1051 C 0.31765 0.86726 0.53635
 C1052 C 0.29960 0.88291 0.56318
 C1053 C 0.26876 0.87165 0.57152
 H1054 H 0.25796 0.85207 0.55785
 O1055 O 0.65257 1.12076 0.54062
 O1056 O 0.68903 1.15956 0.54249
 C1057 C 0.67807 1.13272 0.55292
 C1058 C 0.69469 1.11499 0.57967
 C1059 C 0.72704 1.12180 0.58824
 H1060 H 0.74030 1.14026 0.57530
 O1061 O 0.52204 1.11759 0.67056
 O1062 O 0.51907 1.15569 0.70778
 C1063 C 0.53142 1.12957 0.69739
 C1064 C 0.55739 1.11273 0.71578
 C1065 C 0.56754 1.12281 0.74692
 H1066 H 0.55616 1.14334 0.75853
 O1067 O 0.46429 0.88190 0.66050
 O1068 O 0.46490 0.84370 0.69784
 C1069 C 0.45381 0.87018 0.68690
 C1070 C 0.42831 0.88713 0.70518
 C1071 C 0.42092 0.87724 0.73666
 H1072 H 0.43454 0.85777 0.74780
 O1073 O 0.64983 1.03556 0.62774
 O1074 O 0.68708 1.03642 0.66619
 C1075 C 0.67583 1.04704 0.63938
 C1076 C 0.69328 1.07279 0.62148
 C1077 C 0.72557 1.07961 0.62913
 H1078 H 0.73761 1.06594 0.64806
 O1079 O 0.33760 0.96149 0.61712
 O1080 O 0.29787 0.95906 0.65258
 C1081 C 0.31136 0.94890 0.62674
 C1082 C 0.29661 0.92218 0.60764
 C1083 C 0.26584 0.91019 0.61567
 H1084 H 0.25263 0.92086 0.63560
 O1085 O 0.60854 1.16527 0.53826
 O1086 O 0.64432 1.20468 0.53968
 C1087 C 0.61844 1.19193 0.54997
 C1088 C 0.60074 1.20721 0.57712
 C1089 C 0.61275 1.23541 0.59201
 H1090 H 0.63397 1.24731 0.58239
 O1091 O 0.38774 0.83636 0.52527
 O1092 O 0.35190 0.79697 0.52291
 C1093 C 0.37694 0.80949 0.53543
 C1094 C 0.39150 0.79360 0.56385
 C1095 C 0.37433 0.76867 0.57870
 H1096 H 0.35255 0.75929 0.56746
 O1097 O 0.60825 0.97060 0.67154
 O1098 O 0.64449 0.97134 0.71091
 C1099 C 0.61908 0.95946 0.69816
 C1100 C 0.60190 0.93193 0.71351
 C1101 C 0.60927 0.92109 0.74519
 H1102 H 0.62767 0.93321 0.75942
 O1103 O 0.37444 1.02772 0.66354
 O1104 O 0.33473 1.02683 0.69907
 C1105 C 0.36077 1.03937 0.68848
 C1106 C 0.37507 1.06853 0.70406
 C1107 C 0.35754 1.08723 0.72680
 H1108 H 0.33349 1.08003 0.73421
 O1109 O 0.46015 1.15804 0.62126
 O1110 O 0.45691 1.19708 0.65750
 C1111 C 0.44761 1.18436 0.63100
 C1112 C 0.42152 1.19953 0.61132
 C1113 C 0.41015 1.23103 0.61793
 H1114 H 0.42101 1.24495 0.63732
 O1115 O 0.52991 0.84016 0.61740
 O1116 O 0.52944 0.80176 0.65447
 C1117 C 0.54154 0.81429 0.62918
 C1118 C 0.57039 0.79927 0.61443
 C1119 C 0.58442 0.77208 0.62901
 H1120 H 0.57328 0.76107 0.65002
 O1121 O 0.66352 0.89113 0.54165
 O1122 O 0.70239 0.85457 0.54322
 C1123 C 0.68953 0.88024 0.55405
 C1124 C 0.70410 0.89689 0.58223
 C1125 C 0.73272 0.88519 0.59662
 H1126 H 0.74524 0.86471 0.58614
 O1127 O 0.33486 1.10376 0.52910
 O1128 O 0.29653 1.14092 0.52764
 C1129 C 0.30779 1.11460 0.53870
 C1130 C 0.28923 1.09706 0.56347
 C1131 C 0.25743 1.10629 0.57008
 H1132 H 0.24616 1.12534 0.55597
 Cu1133 Cu 0.49671 0.86424 0.63518
 Cu1134 Cu 0.49672 0.81817 0.67997
 Cu1135 Cu 0.49170 1.13298 0.64120
 Cu1136 Cu 0.48773 1.17921 0.68537
 Cu1137 Cu 0.36903 0.86246 0.49358
 Cu1138 Cu 0.32606 0.81506 0.49213
 Cu1139 Cu 0.63958 0.87264 0.50860
 Cu1140 Cu 0.68625 0.82870 0.51037
 Cu1141 Cu 0.36138 1.12304 0.49872
 Cu1142 Cu 0.31511 1.16762 0.49748
 Cu1143 Cu 0.62858 1.13902 0.50758
 Cu1144 Cu 0.67143 1.18614 0.50961
 Cu1145 Cu 0.35931 0.99464 0.63766
 Cu1146 Cu 0.31191 0.99218 0.68041
 Cu1147 Cu 0.62593 1.00300 0.64661
 Cu1148 Cu 0.67004 1.00432 0.69327
 C1149 C 0.57780 0.91579 0.69555
 H1150 H 0.57227 0.92338 0.67100
 C1151 C 0.59203 0.89497 0.75872
 C1152 C 0.40533 1.07998 0.69309
 H1153 H 0.41850 1.06675 0.67469
 C1154 C 0.37034 1.11673 0.73797
 C1155 C 0.30359 1.07255 0.58186
 H1156 H 0.32831 1.06555 0.57662
 C1157 C 0.24035 1.09255 0.59576
 C1158 C 0.68784 0.92302 0.59659
 H1159 H 0.66561 0.93198 0.58584
 C1160 C 0.74431 0.89867 0.62562
 C1161 C 0.58581 0.81360 0.58780
 H1162 H 0.57553 0.83521 0.57707
 C1163 C 0.61327 0.75903 0.61732
 C1164 C 0.40731 1.18180 0.58581
 H1165 H 0.41540 1.15741 0.58080
 C1166 C 0.38523 1.24474 0.59892
 C1167 C 0.41063 0.91239 0.69115
 H1168 H 0.41649 0.91998 0.66673
 C1169 C 0.39530 0.89118 0.75371
 C1170 C 0.57304 1.08633 0.70112
 H1171 H 0.56616 1.07890 0.67687
 C1172 C 0.59230 1.10584 0.76328
 C1173 C 0.41905 0.80604 0.57917
 H1174 H 0.43191 0.82591 0.56802
 C1175 C 0.38288 0.75738 0.60934
 C1176 C 0.57375 1.19167 0.59065
 H1177 H 0.56453 1.16978 0.57962
 C1178 C 0.59885 1.24705 0.62074
 C1179 C 0.31327 0.90841 0.58121
 H1180 H 0.33714 0.91716 0.57498
 C1181 C 0.25173 0.88501 0.59763
 C1182 C 0.67813 1.09033 0.59643
 H1183 H 0.65319 1.08502 0.59024
 C1184 C 0.74275 1.10370 0.61260
 O1185 O 0.47580 0.39030 0.83557
 O1186 O 0.47915 0.35304 0.79751
 C1187 C 0.46625 0.37851 0.80879
 C1188 C 0.43861 0.39315 0.79132
 C1189 C 0.42524 0.37707 0.76463
 H1190 H 0.43646 0.35521 0.75556
 O1191 O 0.53933 0.61998 0.84137
 O1192 O 0.53963 0.65858 0.80458
 C1193 C 0.55079 0.63210 0.81550
 C1194 C 0.57775 0.61493 0.79899
 C1195 C 0.58736 0.62192 0.76682
 H1196 H 0.57488 0.64042 0.75303
 O1197 O 0.34468 0.46480 0.87889
 O1198 O 0.30702 0.46365 0.84093
 C1199 C 0.31918 0.45234 0.86713
 C1200 C 0.30446 0.42409 0.88417
 C1201 C 0.27646 0.40837 0.87210
 H1202 H 0.26486 0.41694 0.85015
 O1203 O 0.66679 0.53779 0.89387
 O1204 O 0.70609 0.53971 0.85791
 C1205 C 0.69302 0.55009 0.88378
 C1206 C 0.70761 0.57755 0.90173
 C1207 C 0.73508 0.59350 0.88963
 H1208 H 0.74634 0.58492 0.86761
 O1209 O 0.39565 0.33734 0.96764
 O1210 O 0.35925 0.29845 0.96667
 C1211 C 0.38471 0.31135 0.95547
 C1212 C 0.39941 0.29726 0.92605
 C1213 C 0.38167 0.27419 0.90885
 H1214 H 0.35941 0.26469 0.91883
 O1215 O 0.61443 0.66197 0.98212
 O1216 O 0.65004 0.70148 0.98557
 C1217 C 0.62499 0.68913 0.97262
 C1218 C 0.60881 0.70631 0.94562
 C1219 C 0.61836 0.73770 0.93797
 H1220 H 0.63651 0.74944 0.95283
 O1221 O 0.38620 0.53194 0.83854
 O1222 O 0.34886 0.53305 0.80026
 C1223 C 0.37471 0.54453 0.81294
 C1224 C 0.39145 0.57326 0.79872
 C1225 C 0.37705 0.59150 0.77348
 H1226 H 0.35376 0.58446 0.76370
 O1227 O 0.62583 0.47454 0.84649
 O1228 O 0.66501 0.47614 0.81034
 C1229 C 0.63827 0.46458 0.82021
 C1230 C 0.62166 0.43915 0.80104
 C1231 C 0.63303 0.43071 0.77018
 H1232 H 0.65371 0.44327 0.76024
 O1233 O 0.53857 0.34833 0.88334
 O1234 O 0.54079 0.31103 0.84526
 C1235 C 0.55086 0.32264 0.87200
 C1236 C 0.57827 0.30662 0.88872
 C1237 C 0.59321 0.28041 0.87359
 H1238 H 0.58368 0.27104 0.85096
 O1239 O 0.47397 0.66008 0.88591
 O1240 O 0.47322 0.69910 0.84950
 C1241 C 0.46152 0.68589 0.87470
 C1242 C 0.43201 0.69920 0.89024
 C1243 C 0.41497 0.72535 0.87622
 H1244 H 0.42421 0.73728 0.85480
 O1245 O 0.33819 0.60662 0.96797
 O1246 O 0.29929 0.64325 0.96801
 C1247 C 0.31116 0.61715 0.95737
 C1248 C 0.29332 0.59952 0.93199
 C1249 C 0.26098 0.60724 0.92555
 H1250 H 0.24884 0.62521 0.94025
 O1251 O 0.66627 0.39052 0.97600
 O1252 O 0.70440 0.35317 0.97753
 C1253 C 0.69310 0.37931 0.96607
 C1254 C 0.71041 0.39533 0.93936
 C1255 C 0.73572 0.37898 0.92399
 H1256 H 0.74406 0.35594 0.93332
 O1257 O 0.47615 0.61515 0.84325
 O1258 O 0.47584 0.65401 0.80671
 C1259 C 0.46455 0.62747 0.81754
 C1260 C 0.43616 0.61253 0.80098
 C1261 C 0.42160 0.62949 0.77557
 H1262 H 0.43270 0.65148 0.76679
 O1263 O 0.53942 0.39055 0.83700
 O1264 O 0.54252 0.35334 0.79887
 C1265 C 0.55236 0.37971 0.81122
 C1266 C 0.57973 0.39765 0.79629
 C1267 C 0.59182 0.38926 0.76545
 H1268 H 0.58031 0.37012 0.75182
 O1269 O 0.66971 0.47472 0.89160
 O1270 O 0.70900 0.47621 0.85559
 C1271 C 0.69659 0.46426 0.88096
 C1272 C 0.71245 0.43674 0.89737
 C1273 C 0.73803 0.41999 0.88231
 H1274 H 0.74765 0.42831 0.85939
 O1275 O 0.33793 0.52718 0.87841
 O1276 O 0.30003 0.52712 0.84068
 C1277 C 0.31080 0.53722 0.86767
 C1278 C 0.29265 0.56133 0.88704
 C1279 C 0.26023 0.57013 0.88006
 H1280 H 0.24746 0.55900 0.86000
 O1281 O 0.38494 0.64921 0.96791
 O1282 O 0.34548 0.68513 0.96684
 C1283 C 0.37248 0.67478 0.95635
 C1284 C 0.38850 0.69264 0.92982
 C1285 C 0.37211 0.71848 0.91542
 H1286 H 0.34868 0.72584 0.92454
 O1287 O 0.62281 0.34582 0.97189
 O1288 O 0.66107 0.30861 0.97239
 C1289 C 0.63524 0.32027 0.96014
 C1290 C 0.61987 0.30493 0.93125
 C1291 C 0.63438 0.27827 0.91546
 H1292 H 0.65651 0.26771 0.92484
 O1293 O 0.62518 0.53722 0.84676
 O1294 O 0.66445 0.53853 0.81065
 C1295 C 0.63724 0.54843 0.82081
 C1296 C 0.61958 0.57328 0.80221
 C1297 C 0.62831 0.57990 0.77024
 H1298 H 0.64781 0.56635 0.75916
 O1299 O 0.38636 0.46902 0.83258
 O1300 O 0.34947 0.46886 0.79386
 C1301 C 0.37591 0.45832 0.80562
 C1302 C 0.39417 0.43218 0.78915
 C1303 C 0.38130 0.41584 0.76198
 H1304 H 0.35854 0.42353 0.75137
 O1305 O 0.53730 0.66189 0.88876
 O1306 O 0.53687 0.70108 0.85261
 C1307 C 0.54744 0.68921 0.87907
 C1308 C 0.57195 0.70673 0.89903
 C1309 C 0.58244 0.73838 0.89132
 H1310 H 0.57236 0.75079 0.87050
 O1311 O 0.47542 0.34378 0.87770
 O1312 O 0.47753 0.30673 0.83934
 C1313 C 0.46497 0.31764 0.86521
 C1314 C 0.43724 0.30074 0.88066
 C1315 C 0.41809 0.27820 0.86323
 H1316 H 0.42384 0.27226 0.83834
 O1317 O 0.65996 0.61936 0.98241
 O1318 O 0.69569 0.65885 0.98465
 C1319 C 0.68576 0.63251 0.97227
 C1320 C 0.70380 0.61779 0.94501
 C1321 C 0.73119 0.63330 0.93252
 H1322 H 0.73997 0.65519 0.94389
 O1323 O 0.35049 0.38052 0.96756
 O1324 O 0.31443 0.34134 0.96606
 C1325 C 0.32505 0.36816 0.95545
 C1326 C 0.30784 0.38394 0.92797
 C1327 C 0.27995 0.36931 0.91578
 H1328 H 0.27043 0.34808 0.92773
 Cu1329 Cu 0.50695 0.37198 0.86214
 Cu1330 Cu 0.51039 0.32728 0.81649
 Cu1331 Cu 0.50723 0.63555 0.86852
 Cu1332 Cu 0.50658 0.68195 0.82457
 Cu1333 Cu 0.36739 0.49835 0.86072
 Cu1334 Cu 0.32278 0.49815 0.81502
 Cu1335 Cu 0.64309 0.50590 0.87346
 Cu1336 Cu 0.69024 0.50781 0.83015
 C1337 C 0.42318 0.42087 0.80322
 H1338 H 0.43302 0.43277 0.82446
 C1339 C 0.39667 0.38794 0.75004
 C1340 C 0.59414 0.59054 0.81625
 H1341 H 0.58748 0.58526 0.84108
 C1342 C 0.61246 0.60385 0.75220
 C1343 C 0.31986 0.41152 0.91226
 H1344 H 0.34174 0.42266 0.92145
 C1345 C 0.26441 0.38060 0.88784
 C1346 C 0.69236 0.58973 0.92966
 H1347 H 0.67083 0.57801 0.93881
 C1348 C 0.74684 0.62160 0.90478
 C1349 C 0.42746 0.31013 0.91206
 H1350 H 0.44087 0.32852 0.92507
 C1351 C 0.38978 0.26553 0.87727
 C1352 C 0.58538 0.69110 0.92633
 H1353 H 0.57814 0.66667 0.93223
 C1354 C 0.60565 0.75406 0.91108
 C1355 C 0.42107 0.58422 0.81237
 H1356 H 0.43190 0.57129 0.83251
 C1357 C 0.39188 0.62007 0.76237
 C1358 C 0.59479 0.42275 0.81371
 H1359 H 0.58605 0.42905 0.83762
 C1360 C 0.61845 0.40589 0.75212
 C1361 C 0.59158 0.31874 0.91766
 H1362 H 0.58048 0.33957 0.92902
 C1363 C 0.62116 0.26644 0.88632
 C1364 C 0.41859 0.68319 0.91729
 H1365 H 0.43100 0.66268 0.92794
 C1366 C 0.38469 0.73458 0.88859
 C1367 C 0.30876 0.57624 0.91312
 H1368 H 0.33385 0.57046 0.91823
 C1369 C 0.24417 0.59291 0.89981
 C1370 C 0.69913 0.42443 0.92617
 H1371 H 0.67886 0.43663 0.93743
 C1372 C 0.74914 0.39070 0.89529
 O1373 O 0.53262 0.38270 1.16946
 O1374 O 0.53399 0.34402 1.20623
 C1375 C 0.54337 0.37136 1.19605
 C1376 C 0.56728 0.39039 1.21469
 C1377 C 0.57738 0.38126 1.24605
 H1378 H 0.56742 0.35990 1.25739
 O1379 O 0.45459 0.61359 1.16766
 O1380 O 0.45211 0.65118 1.20545
 C1381 C 0.44252 0.62445 1.19381
 C1382 C 0.41720 0.60549 1.21059
 C1383 C 0.40719 0.61308 1.24231
 H1384 H 0.41825 0.63313 1.25498
 O1385 O 0.33553 0.52139 1.12047
 O1386 O 0.29527 0.52030 1.15536
 C1387 C 0.30819 0.53183 1.12985
 C1388 C 0.29225 0.55800 1.11064
 C1389 C 0.26030 0.56868 1.11701
 H1390 H 0.24637 0.55762 1.13620
 O1391 O 0.65497 0.47189 1.12751
 O1392 O 0.69160 0.47237 1.16657
 C1393 C 0.68118 0.46128 1.13967
 C1394 C 0.69976 0.43589 1.12234
 C1395 C 0.73142 0.42840 1.13205
 H1396 H 0.74230 0.44139 1.15210
 O1397 O 0.61922 0.34377 1.03506
 O1398 O 0.65737 0.30641 1.03555
 C1399 C 0.63040 0.31712 1.04548
 C1400 C 0.61266 0.29883 1.07030
 C1401 C 0.62172 0.26705 1.07754
 H1402 H 0.64061 0.25528 1.06371
 O1403 O 0.38056 0.65330 1.03117
 O1404 O 0.34175 0.68998 1.02902
 C1405 C 0.36809 0.67973 1.04088
 C1406 C 0.38374 0.69852 1.06676
 C1407 C 0.37419 0.73038 1.07269
 H1408 H 0.35609 0.74151 1.05723
 O1409 O 0.37937 0.45999 1.16735
 O1410 O 0.34013 0.45748 1.20330
 C1411 C 0.36762 0.44798 1.19311
 C1412 C 0.38664 0.42242 1.21027
 C1413 C 0.38014 0.41259 1.24255
 H1414 H 0.36066 0.42379 1.25599
 O1415 O 0.60894 0.53460 1.17048
 O1416 O 0.64533 0.53575 1.20973
 C1417 C 0.61891 0.54585 1.19735
 C1418 C 0.59941 0.57095 1.21404
 C1419 C 0.60830 0.58270 1.24484
 H1420 H 0.62952 0.57307 1.25693
 O1421 O 0.47411 0.33766 1.12056
 O1422 O 0.47490 0.29879 1.15720
 C1423 C 0.46436 0.31043 1.13067
 C1424 C 0.44015 0.29238 1.11164
 C1425 C 0.43217 0.26074 1.12023
 H1426 H 0.44453 0.24915 1.14032
 O1427 O 0.51952 0.65729 1.12555
 O1428 O 0.51707 0.69501 1.16323
 C1429 C 0.52996 0.68343 1.13779
 C1430 C 0.55812 0.70004 1.12323
 C1431 C 0.57027 0.72808 1.13786
 H1432 H 0.55819 0.73824 1.15879
 O1433 O 0.34732 0.37786 1.03087
 O1434 O 0.31111 0.33881 1.02859
 C1435 C 0.32089 0.36536 1.04035
 C1436 C 0.30147 0.38139 1.06565
 C1437 C 0.26982 0.37103 1.07205
 H1438 H 0.25926 0.35174 1.05779
 O1439 O 0.66000 0.61918 1.04548
 O1440 O 0.69667 0.65780 1.04772
 C1441 C 0.68597 0.63078 1.05732
 C1442 C 0.70309 0.61253 1.08292
 C1443 C 0.73583 0.61830 1.09085
 H1444 H 0.74939 0.63647 1.07782
 O1445 O 0.51733 0.61313 1.16900
 O1446 O 0.51505 0.65064 1.20696
 C1447 C 0.52709 0.62463 1.19577
 C1448 C 0.55358 0.60839 1.21346
 C1449 C 0.56236 0.61920 1.24433
 H1450 H 0.54861 0.63834 1.25574
 O1451 O 0.46981 0.38104 1.16511
 O1452 O 0.47106 0.34248 1.20204
 C1453 C 0.45885 0.36845 1.19085
 C1454 C 0.43180 0.38404 1.20827
 C1455 C 0.42524 0.37494 1.24006
 H1456 H 0.44019 0.35666 1.25149
 O1457 O 0.65632 0.53471 1.12917
 O1458 O 0.69300 0.53501 1.16821
 C1459 C 0.68253 0.54541 1.14126
 C1460 C 0.70098 0.57022 1.12379
 C1461 C 0.73358 0.57567 1.13115
 H1462 H 0.74536 0.56124 1.14968
 O1463 O 0.33853 0.45877 1.11968
 O1464 O 0.29838 0.45673 1.15470
 C1465 C 0.31191 0.44674 1.12894
 C1466 C 0.29705 0.42069 1.10946
 C1467 C 0.26555 0.40975 1.11589
 H1468 H 0.25162 0.42092 1.13504
 O1469 O 0.61176 0.65977 1.04555
 O1470 O 0.64819 0.69850 1.04881
 C1471 C 0.62179 0.68589 1.05821
 C1472 C 0.60303 0.70133 1.08468
 C1473 C 0.61459 0.72960 1.09970
 H1474 H 0.63689 0.74049 1.09147
 O1475 O 0.39325 0.33448 1.03150
 O1476 O 0.35684 0.29563 1.02975
 C1477 C 0.38242 0.30762 1.04180
 C1478 C 0.39951 0.29077 1.06858
 C1479 C 0.39102 0.25916 1.07820
 H1480 H 0.37201 0.24623 1.06557
 O1481 O 0.61117 0.47201 1.17229
 O1482 O 0.64757 0.47318 1.21157
 C1483 C 0.62180 0.46183 1.19937
 C1484 C 0.60469 0.43577 1.21637
 C1485 C 0.61368 0.42718 1.24794
 H1486 H 0.63220 0.44084 1.26053
 O1487 O 0.37745 0.52272 1.16658
 O1488 O 0.33793 0.52101 1.20236
 C1489 C 0.36425 0.53317 1.19222
 C1490 C 0.37945 0.56019 1.20987
 C1491 C 0.36992 0.56783 1.24146
 H1492 H 0.35164 0.55332 1.25328
 O1493 O 0.45663 0.65802 1.12291
 O1494 O 0.45391 0.69610 1.16018
 C1495 C 0.44496 0.68451 1.13311
 C1496 C 0.42050 0.70116 1.11289
 C1497 C 0.41036 0.73314 1.11904
 H1498 H 0.42082 0.74649 1.13906
 O1499 O 0.53654 0.34046 1.12289
 O1500 O 0.53741 0.30140 1.15928
 C1501 C 0.54806 0.31393 1.13332
 C1502 C 0.57382 0.29759 1.11465
 C1503 C 0.58411 0.26607 1.12245
 H1504 H 0.57352 0.25331 1.14272
 O1505 O 0.66263 0.38868 1.03935
 O1506 O 0.70104 0.35165 1.04080
 C1507 C 0.68848 0.37749 1.05185
 C1508 C 0.70358 0.39476 1.07971
 C1509 C 0.73523 0.38730 1.09025
 H1510 H 0.74912 0.36899 1.07771
 O1511 O 0.34122 0.60419 1.03134
 O1512 O 0.30282 0.64127 1.03021
 C1513 C 0.31447 0.61515 1.04160
 C1514 C 0.29613 0.59792 1.06697
 C1515 C 0.26435 0.60739 1.07311
 H1516 H 0.25351 0.62653 1.05880
 Cu1517 Cu 0.50345 0.36444 1.14087
 Cu1518 Cu 0.50443 0.31780 1.18499
 Cu1519 Cu 0.48680 0.63177 1.14241
 Cu1520 Cu 0.48418 0.67709 1.18776
 Cu1521 Cu 0.37554 0.36136 0.99998
 Cu1522 Cu 0.33186 0.31463 0.99762
 Cu1523 Cu 0.63892 0.37094 1.00554
 Cu1524 Cu 0.68484 0.32625 1.00684
 Cu1525 Cu 0.36524 0.62466 0.99967
 Cu1526 Cu 0.31855 0.66852 0.99843
 Cu1527 Cu 0.63292 0.63611 1.01389
 Cu1528 Cu 0.67616 0.68319 1.01699
 Cu1529 Cu 0.36164 0.49076 1.14008
 Cu1530 Cu 0.31388 0.48862 1.18253
 Cu1531 Cu 0.62916 0.50335 1.14595
 Cu1532 Cu 0.67305 0.50416 1.19293
 C1533 C 0.58102 0.41777 1.20022
 H1534 H 0.57420 0.42443 1.17572
 C1535 C 0.60047 0.39989 1.26283
 C1536 C 0.40321 0.57895 1.19473
 H1537 H 0.41049 0.57313 1.17020
 C1538 C 0.38367 0.59407 1.25801
 C1539 C 0.30985 0.57296 1.08544
 H1540 H 0.33453 0.56565 1.08052
 C1541 C 0.24622 0.59329 1.09778
 C1542 C 0.68615 0.41916 1.09594
 H1543 H 0.66170 0.42490 1.08826
 C1544 C 0.74943 0.40440 1.11618
 C1545 C 0.58828 0.31373 1.08848
 H1546 H 0.58124 0.33833 1.08283
 C1547 C 0.60782 0.25067 1.10360
 C1548 C 0.40706 0.68426 1.08661
 H1549 H 0.41414 0.65946 1.08201
 C1550 C 0.38724 0.74800 1.09860
 C1551 C 0.41266 0.40788 1.19360
 H1552 H 0.41787 0.41482 1.16884
 C1553 C 0.40002 0.38906 1.25769
 C1554 C 0.57188 0.58394 1.19863
 H1555 H 0.56522 0.57573 1.17458
 C1556 C 0.58978 0.60693 1.26002
 C1557 C 0.42413 0.30704 1.08549
 H1558 H 0.43031 0.33157 1.07882
 C1559 C 0.40772 0.24397 1.10383
 C1560 C 0.57455 0.68686 1.09647
 H1561 H 0.56571 0.66480 1.08546
 C1562 C 0.59845 0.74287 1.12650
 C1563 C 0.31475 0.40642 1.08421
 H1564 H 0.33924 0.41435 1.07938
 C1565 C 0.25171 0.38498 1.09709
 C1566 C 0.68606 0.58845 1.09952
 H1567 H 0.66077 0.58419 1.09391
 C1568 C 0.75135 0.59936 1.11471
 N1569 N 1.11302 1.07429 1.30237
 N1570 N 1.12658 1.08321 1.33004
 C1571 C 1.12514 1.11565 1.33078
 C1572 C 1.10979 1.12651 1.30280
 N1573 N 1.10268 1.09970 1.28562
 H1574 H 1.10627 1.15119 1.29482
 N1575 N 1.10946 0.57942 0.80485
 N1576 N 1.12512 0.58929 0.83106
 C1577 C 1.12879 0.62147 0.82807
 C1578 C 1.11432 0.63121 0.79920
 N1579 N 1.10254 0.60406 0.78550
 H1580 H 1.11444 0.65482 0.78797
 N1581 N 0.61254 1.09425 0.81732
 N1582 N 0.63058 1.10827 0.83986
 C1583 C 0.63326 1.13949 0.83123
 C1584 C 0.61632 1.14429 0.80263
 N1585 N 0.60364 1.11537 0.79479
 H1586 H 0.61656 1.16541 0.78716
 N1587 N 0.57996 0.63758 1.30950
 N1588 N 0.59649 0.65167 1.33311
 C1589 C 0.62785 0.64412 1.32831
 C1590 C 0.62997 0.62435 1.30139
 N1591 N 0.59957 0.62104 1.29028
 H1592 H 0.65124 0.61458 1.28985
 N1593 N 0.83252 0.87915 1.27131
 N1594 N 0.82382 0.87036 1.30086
 C1595 C 0.85122 0.86274 1.31687
 C1596 C 0.87716 0.86657 1.29593
 N1597 N 0.86433 0.87703 1.26776
 H1598 H 0.90273 0.86397 1.30095
 N1599 N 0.90187 0.39382 0.80253
 N1600 N 0.88972 0.37994 0.82871
 C1601 C 0.85949 0.37034 0.82102
 C1602 C 0.85369 0.37819 0.78893
 N1603 N 0.88065 0.39308 0.77841
 H1604 H 0.83375 0.37032 0.77379
 N1605 N 0.40985 0.86611 0.80508
 N1606 N 0.39589 0.84999 0.82895
 C1607 C 0.36379 0.85206 0.82372
 C1608 C 0.35839 0.87031 0.79610
 N1609 N 0.38782 0.87858 0.78521
 H1610 H 0.33583 0.87467 0.78345
 N1611 N 0.42074 0.36650 1.30791
 N1612 N 0.41074 0.35536 1.33615
 C1613 C 0.37879 0.36129 1.33731
 C1614 C 0.36936 0.37685 1.30897
 N1615 N 0.39650 0.37940 1.29109
 H1616 H 0.34520 0.38384 1.30149
 N1617 N 0.83993 1.13872 0.73036
 N1618 N 0.82742 1.15097 0.70346
 C1619 C 0.85147 1.15195 0.68148
 C1620 C 0.87914 1.13940 0.69559
 N1621 N 0.87084 1.13155 0.72610
 H1622 H 0.90158 1.13289 0.68379
 N1623 N 0.92848 0.62509 0.18979
 N1624 N 0.91567 0.63765 0.16316
 C1625 C 0.88378 0.63133 0.16449
 C1626 C 0.87733 0.61422 0.19252
 N1627 N 0.90600 0.61082 0.20764
 H1628 H 0.85410 0.60651 0.20174
 N1629 N 0.36862 1.07766 0.19307
 N1630 N 0.35618 1.09123 0.16676
 C1631 C 0.36326 1.12282 0.16886
 C1632 C 0.38063 1.12836 0.19706
 N1633 N 0.38337 1.09938 0.21159
 H1634 H 0.38847 1.15129 0.20692
 N1635 N 0.38285 0.67323 0.73934
 N1636 N 0.36720 0.68768 0.71541
 C1637 C 0.35004 0.66456 0.70026
 C1638 C 0.35541 0.63529 0.71576
 N1639 N 0.37630 0.64188 0.74004
 H1640 H 0.34628 0.61166 0.70929
 N1641 N 1.15002 0.92011 0.70642
 N1642 N 1.15886 0.90595 0.67904
 C1643 C 1.14683 0.87567 0.67970
 C1644 C 1.12980 0.87195 0.70827
 N1645 N 1.13255 0.90013 0.72429
 H1646 H 1.11745 0.85091 0.71732
 N1647 N 1.14982 0.42178 0.20351
 N1648 N 1.15613 0.40958 0.17452
 C1649 C 1.14399 0.37936 0.17426
 C1650 C 1.13002 0.37334 0.20399
 N1651 N 1.13417 0.40049 0.22159
 H1652 H 1.11905 0.35114 0.21232
 N1653 N 0.67423 0.89336 0.22546
 N1654 N 0.68440 0.87778 0.19940
 C1655 C 0.65871 0.86149 0.18769
 C1656 C 0.63240 0.86746 0.20746
 N1657 N 0.64319 0.88741 0.23085
 H1658 H 0.60796 0.85843 0.20503
 N1659 N 0.65090 0.41702 0.70401
 N1660 N 0.66064 0.40283 0.67697
 C1661 C 0.64713 0.37323 0.67637
 C1662 C 0.62804 0.37006 0.70387
 N1663 N 0.63135 0.39785 0.72061
 H1664 H 0.61368 0.34968 0.71145
 N1665 N 1.27271 1.16868 1.12421
 N1666 N 1.30257 1.17657 1.13272
 C1667 C 1.31864 1.14868 1.13757
 C1668 C 1.29741 1.12321 1.13238
 N1669 N 1.26899 1.13688 1.12386
 H1670 H 1.30248 1.09756 1.13264
 N1671 N 1.26018 0.62290 0.67518
 N1672 N 1.28589 0.63563 0.68939
 C1673 C 1.30148 0.65231 0.66627
 C1674 C 1.28441 0.64976 0.63738
 N1675 N 1.25874 0.63112 0.64411
 H1676 H 1.29052 0.65941 0.61379
 N1677 N 0.79477 1.08605 0.63396
 N1678 N 0.82293 1.09815 0.64320
 C1679 C 0.82245 1.12960 0.63493
 C1680 C 0.79294 1.13669 0.62073
 N1681 N 0.77631 1.10868 0.62058
 H1682 H 0.78348 1.16020 0.61412
 N1683 N 0.80306 0.57872 1.13382
 N1684 N 0.83256 0.58881 1.14103
 C1685 C 0.83347 0.62046 1.13353
 C1686 C 0.80361 0.62956 1.12116
 N1687 N 0.78526 0.60266 1.12194
 H1688 H 0.79558 0.65345 1.11408
 N1689 N 1.26570 0.87706 0.83922
 N1690 N 1.29123 0.86463 0.82457
 C1691 C 1.30885 0.85019 0.84789
 C1692 C 1.29332 0.85363 0.87732
 N1693 N 1.26647 0.87081 0.87076
 H1694 H 1.30175 0.84641 0.90113
 N1695 N 1.31133 0.41807 0.38804
 N1696 N 1.33745 0.40612 0.37402
 C1697 C 1.33473 0.37384 0.37599
 C1698 C 1.30640 0.36618 0.39211
 N1699 N 1.29236 0.39471 0.39910
 H1700 H 1.29633 0.34250 0.39669
 N1701 N 0.80883 0.87375 0.42073
 N1702 N 0.83362 0.85962 0.40628
 C1703 C 0.83019 0.86515 0.37426
 C1704 C 0.80254 0.88383 0.36957
 N1705 N 0.78988 0.88844 0.39931
 H1706 H 0.79164 0.89192 0.34715
 N1707 N 0.76821 0.33841 0.87736
 N1708 N 0.79296 0.32521 0.86209
 C1709 C 0.81198 0.34977 0.85249
 C1710 C 0.79812 0.37863 0.86201
 N1711 N 0.77087 0.37029 0.87770
 H1712 H 0.80775 0.40282 0.85968
 N1713 N 0.72263 0.82836 1.10341
 N1714 N 0.69796 0.81715 1.12037
 C1715 C 0.68626 0.84222 1.13754
 C1716 C 0.70466 0.86928 1.13066
 N1717 N 0.72719 0.85952 1.10924
 H1718 H 0.70183 0.89351 1.14005
 N1719 N 0.69982 0.35284 0.57938
 N1720 N 0.67350 0.34350 0.59502
 C1721 C 0.67505 0.35647 0.62497
 C1722 C 0.70351 0.37391 0.62731
 N1723 N 0.71816 0.37116 0.59826
 H1724 H 0.71347 0.38580 0.64844
 N1725 N 0.20160 0.85650 0.58487
 N1726 N 0.17444 0.84730 0.59909
 C1727 C 0.17580 0.85830 0.62979
 C1728 C 0.20477 0.87437 0.63409
 N1729 N 0.22011 0.87284 0.60540
 H1730 H 0.21437 0.88471 0.65620
 N1731 N 0.20078 0.35960 1.08102
 N1732 N 0.17241 0.35171 1.09361
 C1733 C 0.17321 0.36130 1.12483
 C1734 C 0.20284 0.37536 1.13105
 N1735 N 0.21932 0.37391 1.10303
 H1736 H 0.21185 0.38476 1.15383
 N1737 N 0.74147 1.15715 0.84677
 N1738 N 0.71436 1.17261 0.83947
 C1739 C 0.68997 1.15227 0.84656
 C1740 C 0.70282 1.12377 0.85837
 N1741 N 0.73511 1.12779 0.85777
 H1742 H 0.69019 1.10348 0.86895
 N1743 N 0.72813 0.61989 0.32517
 N1744 N 0.70009 0.63354 0.31768
 C1745 C 0.68578 0.64137 0.34594
 C1746 C 0.70601 0.63241 0.37108
 N1747 N 0.73209 0.61902 0.35703
 H1748 H 0.70179 0.63399 0.39690
 N1749 N 0.19144 1.10959 0.41863
 N1750 N 0.16372 1.12246 0.40902
 C1751 C 0.16390 1.12153 0.37645
 C1752 C 0.19251 1.10727 0.36617
 N1753 N 0.20916 1.10031 0.39352
 H1754 H 0.20122 1.10444 0.34161
 N1755 N 0.19200 0.61320 0.91781
 N1756 N 0.16555 0.62686 0.90583
 C1757 C 0.16803 0.62475 0.87341
 C1758 C 0.19675 0.60938 0.86570
 N1759 N 0.21109 0.60256 0.89429
 H1760 H 0.20736 0.60620 0.84195
 N1761 N 1.07891 1.30566 1.14506
 N1762 N 1.09318 1.33266 1.15474
 C1763 C 1.12329 1.33217 1.14233
 C1764 C 1.12707 1.30402 1.12465
 N1765 N 1.09872 1.28815 1.12690
 H1766 H 1.14854 1.29545 1.11240
 N1767 N 1.11004 0.77937 0.67126
 N1768 N 1.12493 0.80596 0.68096
 C1769 C 1.13424 0.82186 0.65406
 C1770 C 1.12489 0.80386 0.62734
 N1771 N 1.10981 0.77764 0.63921
 H1772 H 1.12768 0.80938 0.60190
 N1773 N 0.61538 1.27518 0.66992
 N1774 N 0.62959 1.30242 0.67884
 C1775 C 0.63606 1.31894 0.65146
 C1776 C 0.62570 1.30070 0.62528
 N1777 N 0.61294 1.27367 0.63793
 H1778 H 0.62622 1.30657 0.59975
 N1779 N 0.60688 0.77469 1.17542
 N1780 N 0.62307 0.80035 1.18550
 C1781 C 0.63867 0.81223 1.15946
 C1782 C 0.63163 0.79295 1.13300
 N1783 N 0.61175 0.76974 1.14408
 H1784 H 0.63975 0.79564 1.10825
 N1785 N 0.88769 1.27388 0.82607
 N1786 N 0.87649 1.30191 0.81554
 C1787 C 0.85836 1.31394 0.83967
 C1788 C 0.85872 1.29248 0.86551
 N1789 N 0.87753 1.26766 0.85592
 H1790 H 0.84795 1.29543 0.88920
 N1791 N 0.91945 0.80130 0.36229
 N1792 N 0.90692 0.82885 0.35182
 C1793 C 0.87549 0.82843 0.36011
 C1794 C 0.86897 0.79979 0.37614
 N1795 N 0.89720 0.78343 0.37688
 H1796 H 0.84578 0.79097 0.38439
 N1797 N 0.37406 1.29525 0.42578
 N1798 N 0.36352 1.32384 0.41614
 C1799 C 0.36817 1.32495 0.38390
 C1800 C 0.38230 1.29627 0.37393
 N1801 N 0.38541 1.27831 0.40100
 H1802 H 0.38790 1.28860 0.34949
 N1803 N 0.33269 0.75631 0.87248
 N1804 N 0.31975 0.78317 0.86098
 C1805 C 0.34454 0.80308 0.85412
 C1806 C 0.37336 0.78743 0.86140
 N1807 N 0.36469 0.75830 0.87296
 H1808 H 0.39780 0.79667 0.86057
 N1809 N 1.13647 0.72422 0.83781
 N1810 N 1.14247 0.69479 0.82679
 C1811 C 1.14313 0.67527 0.85284
 C1812 C 1.13787 0.69369 0.88042
 N1813 N 1.13373 0.72422 0.86985
 H1814 H 1.13464 0.68547 0.90510
 N1815 N 1.08015 0.19265 0.37909
 N1816 N 1.08792 0.16433 0.36647
 C1817 C 1.12029 0.16191 0.36876
 C1818 C 1.13230 0.18948 0.38370
 N1819 N 1.10622 0.20818 0.38964
 H1820 H 1.15732 0.19615 0.38768
 N1821 N 0.65281 0.70956 0.41447
 N1822 N 0.66296 0.68245 0.40091
 C1823 C 0.64803 0.68048 0.37197
 C1824 C 0.62844 0.70740 0.36801
 N1825 N 0.63213 0.72502 0.39526
 H1826 H 0.61430 0.71407 0.34692
 N1827 N 0.64043 0.24399 0.83572
 N1828 N 0.64835 0.21565 0.82316
 C1829 C 0.64875 0.19476 0.84811
 C1830 C 0.64173 0.21094 0.87646
 N1831 N 0.63667 0.24179 0.86758
 H1832 H 0.63876 0.20105 0.90056
 N1833 N 0.86967 0.69626 1.07596
 N1834 N 0.85889 0.66854 1.08754
 C1835 C 0.86819 0.66744 1.11876
 C1836 C 0.88537 0.69537 1.12607
 N1837 N 0.88557 0.71288 1.09847
 H1838 H 0.89539 0.70267 1.14920
 N1839 N 0.87991 0.19257 0.58093
 N1840 N 0.86494 0.16728 0.59344
 C1841 C 0.86345 0.17247 0.62561
 C1842 C 0.87812 0.20167 0.63265
 N1843 N 0.88802 0.21348 0.60390
 H1844 H 0.87894 0.21424 0.65565
 N1845 N 0.32870 0.73859 0.62099
 N1846 N 0.31363 0.71557 0.63713
 C1847 C 0.33682 0.69857 0.65255
 C1848 C 0.36667 0.71198 0.64578
 N1849 N 0.36040 0.73688 0.62579
 H1850 H 0.39041 0.70375 0.65334
 N1851 N 0.42217 0.19181 1.12651
 N1852 N 0.40817 0.16583 1.13867
 C1853 C 0.37604 0.16951 1.13411
 C1854 C 0.37077 0.19852 1.11806
 N1855 N 0.40028 0.21168 1.11401
 H1856 H 0.34816 0.21003 1.11164
 N1857 N 1.17086 1.12175 0.72997
 N1858 N 1.17881 1.13153 0.70051
 C1859 C 1.15084 1.13653 0.68438
 C1860 C 1.12536 1.12995 0.70492
 N1861 N 1.13898 1.12066 0.73311
 H1862 H 1.09972 1.12994 0.69952
 N1863 N 1.13688 0.57414 0.20313
 N1864 N 1.14540 0.58382 0.17384
 C1865 C 1.13729 0.61529 0.17183
 C1866 C 1.12325 0.62468 0.20071
 N1867 N 1.12358 0.59818 0.21963
 H1868 H 1.11530 0.64857 0.20785
 N1869 N 0.62385 1.17114 0.23572
 N1870 N 0.63549 1.18333 0.20854
 C1871 C 0.64919 1.15861 0.19245
 C1872 C 0.64587 1.13071 0.21070
 N1873 N 0.62972 1.13969 0.23755
 H1874 H 0.65230 1.10624 0.20406
 N1875 N 0.63505 0.58529 0.70117
 N1876 N 0.64652 0.59690 0.67365
 C1877 C 0.64132 0.62902 0.67416
 C1878 C 0.62545 0.63669 0.70288
 N1879 N 0.62229 0.60862 0.71908
 H1880 H 0.61820 0.66004 0.71202
 N1881 N 0.92290 0.86256 0.69567
 N1882 N 0.90708 0.84972 0.67087
 C1883 C 0.87601 0.85929 0.67356
 C1884 C 0.87342 0.87905 0.70049
 N1885 N 0.90319 0.88026 0.71372
 H1886 H 0.85214 0.89043 0.71042
 N1887 N 0.92685 0.36526 0.19029
 N1888 N 0.91218 0.35459 0.16379
 C1889 C 0.88088 0.36336 0.16639
 C1890 C 0.87673 0.37982 0.19517
 N1891 N 0.90609 0.38055 0.20936
 H1892 H 0.85446 0.38909 0.20532
 N1893 N 0.42198 0.86262 0.19720
 N1894 N 0.40918 0.85215 0.16971
 C1895 C 0.37788 0.86118 0.17004
 C1896 C 0.37180 0.87770 0.19856
 N1897 N 0.40011 0.87801 0.21492
 H1898 H 0.34896 0.88731 0.20700
 N1899 N 0.38322 0.33659 0.72488
 N1900 N 0.37091 0.32513 0.69756
 C1901 C 0.36236 0.35085 0.67945
 C1902 C 0.36931 0.37867 0.69686
 N1903 N 0.38237 0.36858 0.72499
 H1904 H 0.36696 0.40363 0.68952
 N1905 N 1.12513 0.92471 1.29893
 N1906 N 1.13571 0.91435 1.32739
 C1907 C 1.12773 0.88294 1.32919
 C1908 C 1.11158 0.87426 1.30088
 N1909 N 1.11064 0.90124 1.28250
 H1910 H 1.10306 0.85058 1.29375
 N1911 N 1.16474 0.38842 0.76655
 N1912 N 1.17938 0.37552 0.79198
 C1913 C 1.15625 0.36031 0.80893
 C1914 C 1.12684 0.36385 0.79284
 N1915 N 1.13334 0.38167 0.76645
 H1916 H 1.10327 0.35487 0.79978
 N1917 N 0.57547 0.86863 0.80866
 N1918 N 0.58802 0.85729 0.83594
 C1919 C 0.61961 0.86515 0.83555
 C1920 C 0.62610 0.88199 0.80730
 N1921 N 0.59778 0.88359 0.79118
 H1922 H 0.64919 0.89069 0.79863
 N1923 N 0.62510 0.41032 1.31554
 N1924 N 0.64135 0.39440 1.33823
 C1925 C 0.63946 0.36291 1.33032
 C1926 C 0.62137 0.35988 1.30229
 N1927 N 0.61289 0.39007 1.29382
 H1928 H 0.61762 0.33854 1.28764
 N1929 N 0.82775 1.10656 1.27334
 N1930 N 0.81781 1.12183 1.29970
 C1931 C 0.84348 1.13830 1.31125
 C1932 C 0.86956 1.13269 1.29103
 N1933 N 0.85865 1.11283 1.26756
 H1934 H 0.89395 1.14190 1.29323
 N1935 N 0.82475 0.60760 0.77326
 N1936 N 0.81489 0.62252 0.79984
 C1937 C 0.84075 0.63841 0.81174
 C1938 C 0.86685 0.63281 0.79160
 N1939 N 0.85577 0.61357 0.76775
 H1940 H 0.89133 0.64170 0.79407
 N1941 N 0.35001 1.17047 0.74735
 N1942 N 0.34021 1.18873 0.77173
 C1943 C 0.33625 1.16863 0.79699
 C1944 C 0.34307 1.13737 0.78737
 N1945 N 0.35166 1.13964 0.75602
 H1946 H 0.34391 1.11575 0.80213
 N1947 N 0.35940 0.57900 1.30964
 N1948 N 0.35197 0.59181 1.33807
 C1949 C 0.36201 0.62272 1.33711
 C1950 C 0.37595 0.62855 1.30729
 N1951 N 0.37382 0.60054 1.29081
 H1952 H 0.38552 0.65108 1.29816
 N1953 N 1.11366 1.27190 0.83105
 N1954 N 1.12880 1.29648 0.81760
 C1955 C 1.14339 1.31247 0.84194
 C1956 C 1.13715 1.29678 0.87091
 N1957 N 1.11819 1.27158 0.86290
 H1958 H 1.14483 1.30342 0.89512
 N1959 N 1.07299 0.80775 0.37133
 N1960 N 1.08358 0.83521 0.35886
 C1961 C 1.11538 0.83653 0.36579
 C1962 C 1.12403 0.80924 0.38325
 N1963 N 1.09673 0.79188 0.38617
 H1964 H 1.14789 0.80192 0.39136
 N1965 N 0.61997 1.26270 0.33453
 N1966 N 0.63337 1.28907 0.32252
 C1967 C 0.64423 1.30605 0.34810
 C1968 C 0.63747 1.28936 0.37628
 N1969 N 0.62204 1.26236 0.36663
 H1970 H 0.64154 1.29694 0.40107
 N1971 N 0.63274 0.80375 0.92688
 N1972 N 0.64357 0.83107 0.91440
 C1973 C 0.63462 0.83100 0.88303
 C1974 C 0.61768 0.80280 0.87657
 N1975 N 0.61716 0.78635 0.90479
 H1976 H 0.60806 0.79458 0.85358
 N1977 N 0.85896 1.29974 1.07865
 N1978 N 0.84972 1.32793 1.09058
 C1979 C 0.86095 1.32900 1.12120
 C1980 C 0.87762 1.30063 1.12773
 N1981 N 0.87573 1.28291 1.10038
 H1982 H 0.88904 1.29336 1.15023
 N1983 N 0.85367 0.79750 0.58393
 N1984 N 0.84397 0.82474 0.59762
 C1985 C 0.85698 0.82518 0.62756
 C1986 C 0.87486 0.79722 0.63198
 N1987 N 0.87220 0.78054 0.60404
 H1988 H 0.88711 0.78925 0.65379
 N1989 N 0.35712 1.29381 0.58226
 N1990 N 0.34656 1.32143 0.59441
 C1991 C 0.35604 1.32226 0.62570
 C1992 C 0.37343 1.29419 0.63220
 N1993 N 0.37327 1.27703 0.60442
 H1994 H 0.38417 1.28622 0.65472
 N1995 N 0.36201 0.79801 1.08040
 N1996 N 0.35266 0.82641 1.09172
 C1997 C 0.36153 0.82711 1.12314
 C1998 C 0.37686 0.79836 1.13081
 N1999 N 0.37658 0.78078 1.10333
 H2000 H 0.38603 0.79060 1.15416
 N2001 N 0.89386 0.72427 0.82619
 N2002 N 0.87725 0.69918 0.81535
 C2003 C 0.86172 0.68663 0.84112
 C2004 C 0.86922 0.70486 0.86815
 N2005 N 0.88929 0.72817 0.85772
 H2006 H 0.86119 0.70146 0.89285
 N2007 N 0.89661 0.22435 0.32616
 N2008 N 0.88016 0.19920 0.31520
 C2009 C 0.86443 0.18663 0.34081
 C2010 C 0.87165 0.20498 0.36791
 N2011 N 0.89177 0.22836 0.35765
 H2012 H 0.86335 0.20160 0.39252
 N2013 N 0.42475 0.69833 0.36408
 N2014 N 0.41149 0.67024 0.35640
 C2015 C 0.38081 0.67124 0.36732
 C2016 C 0.37558 0.70079 0.38194
 N2017 N 0.40370 0.71701 0.37945
 H2018 H 0.35332 0.70995 0.39220
 N2019 N 0.33468 0.25699 0.85985
 N2020 N 0.31596 0.23364 0.84856
 C2021 C 0.33591 0.20928 0.84048
 C2022 C 0.36759 0.21842 0.84663
 N2023 N 0.36567 0.24858 0.85881
 H2024 H 0.38931 0.20389 0.84481
 N2025 N 1.08137 0.69205 1.13536
 N2026 N 1.09227 0.66366 1.14528
 C2027 C 1.12350 0.66207 1.13634
 C2028 C 1.13151 0.69044 1.12031
 N2029 N 1.10435 0.70865 1.12041
 H2030 H 1.15491 0.69768 1.11113
 N2031 N 1.08232 0.19736 0.63905
 N2032 N 1.09486 0.17039 0.65087
 C2033 C 1.12563 0.16927 0.64049
 C2034 C 1.13175 0.19642 0.62189
 N2035 N 1.10392 0.21348 0.62170
 H2036 H 1.15457 0.20394 0.61156
 N2037 N 0.63061 0.73133 0.66631
 N2038 N 0.64028 0.70229 0.67569
 C2039 C 0.64299 0.68427 0.64864
 C2040 C 0.63525 0.70337 0.62214
 N2041 N 0.62769 0.73250 0.63434
 H2042 H 0.63304 0.69653 0.59693
 N2043 N 0.62832 0.19721 1.08996
 N2044 N 0.64348 0.17283 1.10427
 C2045 C 0.64462 0.17987 1.13614
 C2046 C 0.62931 0.20914 1.14108
 N2047 N 0.61946 0.21907 1.11166
 H2048 H 0.62785 0.22330 1.16305
 N2049 N 1.24805 1.14371 0.83625
 N2050 N 1.27114 1.15612 0.81804
 C2051 C 1.29428 1.16648 0.83858
 C2052 C 1.28471 1.16034 0.87011
 N2053 N 1.25555 1.14604 0.86744
 H2054 H 1.29848 1.16349 0.89225
 N2055 N 1.30324 0.64572 0.42895
 N2056 N 1.33132 0.65397 0.41598
 C2057 C 1.33164 0.64142 0.38584
 C2058 C 1.30293 0.62506 0.38071
 N2059 N 1.28589 0.62830 0.40829
 H2060 H 1.29473 0.61315 0.35883
 N2061 N 0.77938 1.17218 0.39532
 N2062 N 0.80433 1.18299 0.37851
 C2063 C 0.81581 1.15771 0.36146
 C2064 C 0.79702 1.13096 0.36829
 N2065 N 0.77445 1.14108 0.38953
 H2066 H 0.79963 1.10668 0.35897
 N2067 N 0.77770 0.67109 0.89703
 N2068 N 0.80228 0.68227 0.87992
 C2069 C 0.81359 0.65727 0.86236
 C2070 C 0.79510 0.63032 0.86915
 N2071 N 0.77287 0.64003 0.89092
 H2072 H 0.79772 0.60618 0.85948
 N2073 N 1.30100 0.91904 1.13521
 N2074 N 1.32880 0.90707 1.14582
 C2075 C 1.32897 0.87565 1.13746
 C2076 C 1.30046 0.86866 1.12117
 N2077 N 1.28361 0.89654 1.12031
 H2078 H 1.29242 0.84555 1.11195
 N2079 N 1.29928 0.41723 0.63337
 N2080 N 1.32643 0.40407 0.64432
 C2081 C 1.32488 0.37238 0.63717
 C2082 C 1.29589 0.36640 0.62148
 N2083 N 1.28060 0.39510 0.61958
 H2084 H 1.28617 0.34331 0.61399
 N2085 N 0.77566 0.88438 0.67366
 N2086 N 0.80386 0.87127 0.68152
 C2087 C 0.81880 0.86396 0.65347
 C2088 C 0.79871 0.87259 0.62804
 N2089 N 0.77211 0.88535 0.64175
 H2090 H 0.80326 0.87111 0.60228
 N2091 N 0.80042 0.42066 1.14103
 N2092 N 0.82922 0.40871 1.14851
 C2093 C 0.82949 0.37789 1.13804
 C2094 C 0.79989 0.37127 1.12364
 N2095 N 0.78242 0.39871 1.12609
 H2096 H 0.79151 0.34862 1.11360
 N2097 N 0.73857 1.12400 1.16128
 N2098 N 0.71315 1.13619 1.17631
 C2099 C 0.69270 1.14661 1.15305
 C2100 C 0.70673 1.14094 1.12300
 N2101 N 0.73531 1.12666 1.12941
 H2102 H 0.69685 1.14482 1.09902
 N2103 N 0.69332 0.63357 0.57598
 N2104 N 0.66845 0.64656 0.59138
 C2105 C 0.67144 0.63797 0.62273
 C2106 C 0.69902 0.61920 0.62617
 N2107 N 0.71201 0.61706 0.59629
 H2108 H 0.70975 0.61016 0.64837
 N2109 N 0.18964 1.11852 0.58081
 N2110 N 0.16536 1.13402 0.59474
 C2111 C 0.16960 1.13069 0.62697
 C2112 C 0.19692 1.11199 0.63241
 N2113 N 0.20877 1.10508 0.60291
 H2114 H 0.20845 1.10570 0.65510
 N2115 N 0.19643 0.61868 1.07904
 N2116 N 0.16944 0.63143 1.09059
 C2117 C 0.16987 0.62578 1.12269
 C2118 C 0.19779 0.60883 1.13055
 N2119 N 0.21373 0.60490 1.10246
 H2120 H 0.20634 0.60155 1.15429
 N2121 N 0.69975 0.91898 0.86712
 N2122 N 0.67047 0.90872 0.85931
 C2123 C 0.66958 0.87715 0.86704
 C2124 C 0.69921 0.86828 0.88018
 N2125 N 0.71744 0.89525 0.87962
 H2126 H 0.70715 0.84451 0.88774
 N2127 N 0.74170 0.32866 0.35859
 N2128 N 0.71285 0.31635 0.35223
 C2129 C 0.69208 0.34143 0.35111
 C2130 C 0.70917 0.36973 0.35651
 N2131 N 0.74013 0.36055 0.36098
 H2132 H 0.70002 0.39404 0.35943
 N2133 N 0.19329 0.87291 0.41899
 N2134 N 0.16404 0.86469 0.40888
 C2135 C 0.16308 0.87096 0.37686
 C2136 C 0.19263 0.88354 0.36751
 N2137 N 0.21086 0.88420 0.39468
 H2138 H 0.20064 0.88961 0.34332
 N2139 N 0.23451 0.33057 0.88212
 N2140 N 0.20739 0.31906 0.86967
 C2141 C 0.19289 0.34387 0.85434
 C2142 C 0.21218 0.37115 0.85750
 N2143 N 0.23800 0.36166 0.87521
 H2144 H 0.20752 0.39539 0.84880
   
