data_POSCAR
  _audit_creation_date              2014-09-24
  _audit_creation_method            'ToBaCCo'
  _symmetry_space_group_name_H-M    'P1'
  _symmetry_Int_Tables_number       1
  _symmetry_cell_setting            triclinic
  loop_
  _symmetry_equiv_pos_as_xyz
 x,y,z
_cell_length_a 79.5098
_cell_length_b 79.7195
_cell_length_c 79.3796
_cell_angle_alpha 89.344900
_cell_angle_beta 89.525200
_cell_angle_gamma 89.758800
loop_
  _atom_site_label
  _atom_site_type_symbol
  _atom_site_fract_x
  _atom_site_fract_y
  _atom_site_fract_z
C1 C 0.73694 0.64661 0.97865
 H2 H 0.74900 0.64692 0.97223
 C3 C 0.72336 0.65572 0.97216
 H4 H 0.72494 0.66315 0.96075
 C5 C 0.71989 0.63603 1.00099
 H6 H 0.71844 0.62803 1.01196
 C7 C 0.70601 0.64494 0.99493
 H8 H 0.69398 0.64390 1.00136
 N9 N 0.73500 0.63705 0.99285
 C10 C 0.78520 0.62903 1.01333
 H11 H 0.78498 0.61551 1.01465
 C12 C 0.79928 0.63796 1.01846
 H13 H 0.80996 0.63132 1.02373
 C14 C 0.77149 0.65424 1.00498
 H15 H 0.76057 0.66053 0.99990
 C16 C 0.78535 0.66367 1.00997
 H17 H 0.78511 0.67721 1.00862
 Zn18 Zn 0.75342 0.62374 1.00011
 N19 N 0.77177 0.63721 1.00656
 C20 C 0.77565 0.61065 0.97535
 N21 N 0.75979 0.60988 0.98189
 C22 C 0.74787 0.59991 0.97499
 C23 C 0.75181 0.59000 0.96108
 C24 C 0.78010 0.60096 0.96147
 C25 C 0.74346 0.61914 1.03355
 C26 C 0.73850 0.61046 1.04812
 C27 C 0.74169 0.58443 1.03303
 C28 C 0.74660 0.59363 1.01873
 N29 N 0.74713 0.61069 1.01918
 H30 H 0.78482 0.61896 0.98068
 H31 H 0.73528 0.59978 0.98025
 H32 H 0.74226 0.58214 0.95561
 H33 H 0.79273 0.60171 0.95628
 H34 H 0.74421 0.63269 1.03361
 H35 H 0.73538 0.61739 1.05940
 H36 H 0.74111 0.57086 1.03247
 H37 H 0.74991 0.58713 1.00731
 C38 C 0.79938 0.65543 1.01671
 C39 C 0.70774 0.65480 0.98035
 C40 C 0.73750 0.59294 1.04783
 C41 C 0.76808 0.59056 0.95426
 C42 C 0.73778 0.35255 0.51598
 H43 H 0.74976 0.35164 0.52230
 C44 C 0.72401 0.34339 0.52204
 H45 H 0.72537 0.33532 0.53302
 C46 C 0.72111 0.36469 0.49436
 H47 H 0.71987 0.37331 0.48386
 C48 C 0.70705 0.35577 0.50001
 H49 H 0.69511 0.35743 0.49371
 N50 N 0.73612 0.36292 0.50234
 C51 C 0.78665 0.37116 0.48202
 H52 H 0.78658 0.38473 0.48146
 C53 C 0.80070 0.36227 0.47634
 H54 H 0.81153 0.36898 0.47141
 C55 C 0.77257 0.34581 0.48902
 H56 H 0.76152 0.33946 0.49380
 C57 C 0.78640 0.33641 0.48346
 H58 H 0.78601 0.32284 0.48408
 Zn59 Zn 0.75475 0.37628 0.49572
 N60 N 0.77304 0.36288 0.48838
 C61 C 0.77680 0.38753 0.52110
 N62 N 0.76102 0.38894 0.51469
 C63 C 0.74910 0.39865 0.52225
 C64 C 0.75293 0.40764 0.53673
 C65 C 0.78115 0.39629 0.53554
 C66 C 0.74517 0.38293 0.46265
 C67 C 0.74024 0.39248 0.44869
 C68 C 0.74326 0.41753 0.46526
 C69 C 0.74815 0.40749 0.47894
 N70 N 0.74873 0.39050 0.47747
 H71 H 0.78597 0.37942 0.51523
 H72 H 0.73656 0.39929 0.51708
 H73 H 0.74337 0.41530 0.54271
 H74 H 0.79371 0.39504 0.54061
 H75 H 0.74594 0.36942 0.46179
 H76 H 0.73715 0.38632 0.43703
 H77 H 0.74257 0.43103 0.46656
 H78 H 0.75137 0.41330 0.49070
 C79 C 0.80061 0.34474 0.47714
 C80 C 0.70849 0.34510 0.51402
 C81 C 0.73915 0.40992 0.45005
 C82 C 0.76911 0.40641 0.54343
 C83 C 0.23722 -0.14823 0.01554
 H84 H 0.24919 -0.14922 0.02185
 C85 C 0.22340 -0.15733 0.02159
 H86 H 0.22473 -0.16544 0.03255
 C87 C 0.22060 -0.13594 -0.00604
 H88 H 0.21939 -0.12729 -0.01651
 C89 C 0.20649 -0.14481 -0.00041
 H90 H 0.19455 -0.14308 -0.00669
 N91 N 0.23560 -0.13781 0.00193
 C92 C 0.28614 -0.12970 -0.01840
 H93 H 0.28611 -0.11613 -0.01892
 C94 C 0.30016 -0.13861 -0.02411
 H95 H 0.31099 -0.13191 -0.02904
 C96 C 0.27201 -0.15503 -0.01144
 H97 H 0.26095 -0.16136 -0.00666
 C98 C 0.28580 -0.16445 -0.01704
 H99 H 0.28538 -0.17802 -0.01646
 Zn100 Zn 0.25428 -0.12451 -0.00466
 N101 N 0.27252 -0.13796 -0.01203
 C102 C 0.27639 -0.11342 0.02074
 N103 N 0.26062 -0.11192 0.01434
 C104 C 0.24875 -0.10216 0.02192
 C105 C 0.25264 -0.09321 0.03641
 C106 C 0.28080 -0.10469 0.03518
 C107 C 0.24474 -0.11776 -0.03771
 C108 C 0.23988 -0.10817 -0.05167
 C109 C 0.24302 -0.08314 -0.03505
 C110 C 0.24784 -0.09324 -0.02138
 N111 N 0.24833 -0.11023 -0.02288
 H112 H 0.28552 -0.12156 0.01484
 H113 H 0.23621 -0.10145 0.01676
 H114 H 0.24312 -0.08551 0.04241
 H115 H 0.29336 -0.10602 0.04023
 H116 H 0.24544 -0.13127 -0.03859
 H117 H 0.23679 -0.11437 -0.06332
 H118 H 0.24243 -0.06964 -0.03364
 H119 H 0.25108 -0.08748 -0.00960
 C120 C 0.30002 -0.15613 -0.02337
 C121 C 0.20788 -0.15553 0.01358
 C122 C 0.23888 -0.09070 -0.05030
 C123 C 0.26882 -0.09452 0.04309
 C124 C 0.23830 0.14600 0.47726
 H125 H 0.25041 0.14606 0.47095
 C126 C 0.22488 0.15515 0.47048
 H127 H 0.22665 0.16236 0.45895
 C128 C 0.22092 0.13600 0.49960
 H129 H 0.21926 0.12819 0.51068
 C130 C 0.20720 0.14496 0.49326
 H131 H 0.19510 0.14414 0.49959
 N132 N 0.23612 0.13669 0.49159
 C133 C 0.28595 0.12815 0.51278
 H134 H 0.28546 0.11466 0.51432
 C135 C 0.30013 0.13692 0.51790
 H136 H 0.31063 0.13018 0.52340
 C137 C 0.27279 0.15345 0.50383
 H138 H 0.26204 0.15985 0.49850
 C139 C 0.28676 0.16272 0.50880
 H140 H 0.28679 0.17624 0.50719
 Zn141 Zn 0.25425 0.12319 0.49923
 N142 N 0.27274 0.13645 0.50571
 C143 C 0.27653 0.10945 0.47490
 N144 N 0.26058 0.10902 0.48126
 C145 C 0.24857 0.09922 0.47428
 C146 C 0.25248 0.08917 0.46046
 C147 C 0.28096 0.09960 0.46112
 C148 C 0.24387 0.11922 0.53260
 C149 C 0.23833 0.11087 0.54714
 C150 C 0.24088 0.08460 0.53240
 C151 C 0.24640 0.09346 0.51811
 N152 N 0.24749 0.11050 0.51839
 H153 H 0.28579 0.11762 0.48028
 H154 H 0.23591 0.09936 0.47937
 H155 H 0.24284 0.08148 0.45491
 H156 H 0.29365 0.10011 0.45607
 H157 H 0.24505 0.13274 0.53252
 H158 H 0.23516 0.11795 0.55830
 H159 H 0.23975 0.07107 0.53203
 H160 H 0.24965 0.08673 0.50681
 C161 C 0.30057 0.15434 0.51583
 C162 C 0.20917 0.15454 0.47853
 C163 C 0.23668 0.09342 0.54699
 C164 C 0.26883 0.08940 0.45382
 C165 C 0.14663 0.48098 0.23724
 H166 H 0.14708 0.47461 0.24933
 C167 C 0.15601 0.47485 0.22364
 H168 H 0.16378 0.46377 0.22527
 C169 C 0.13541 0.50279 0.22007
 H170 H 0.12705 0.51339 0.21857
 C171 C 0.14457 0.49708 0.20619
 H172 H 0.14335 0.50342 0.19411
 N173 N 0.13660 0.49473 0.23524
 C174 C 0.12720 0.51480 0.28536
 H175 H 0.11362 0.51551 0.28498
 C176 C 0.13574 0.52047 0.29947
 H177 H 0.12872 0.52555 0.31001
 C178 C 0.15297 0.50753 0.27198
 H179 H 0.15962 0.50268 0.26115
 C180 C 0.16202 0.51309 0.28588
 H181 H 0.17563 0.51241 0.28577
 Zn182 Zn 0.12283 0.50143 0.25357
 N183 N 0.13586 0.50835 0.27206
 C184 C 0.11012 0.47627 0.27574
 N185 N 0.10938 0.48279 0.25984
 C186 C 0.09974 0.47561 0.24783
 C187 C 0.09012 0.46143 0.25170
 C188 C 0.10071 0.46211 0.28013
 C189 C 0.11744 0.53457 0.24357
 C190 C 0.10843 0.54879 0.23855
 C191 C 0.08272 0.53291 0.24144
 C192 C 0.09223 0.51895 0.24642
 N193 N 0.10930 0.51996 0.24714
 H194 H 0.11818 0.48184 0.28500
 H195 H 0.09962 0.48087 0.23521
 H196 H 0.08251 0.45575 0.24207
 H197 H 0.10143 0.45696 0.29280
 H198 H 0.13100 0.53507 0.24447
 H199 H 0.11505 0.56030 0.23551
 H200 H 0.06915 0.53198 0.24069
 H201 H 0.08596 0.50734 0.24965
 C202 C 0.15329 0.51958 0.29975
 C203 C 0.15487 0.48293 0.20796
 C204 C 0.09093 0.54792 0.23738
 C205 C 0.09064 0.45463 0.26801
 C206 C -0.14816 0.01611 0.23509
 H207 H -0.14879 0.02234 0.24712
 C208 C -0.15772 0.02211 0.22159
 H209 H -0.16581 0.03294 0.22326
 C210 C -0.13632 -0.00519 0.21801
 H211 H -0.12766 -0.01554 0.21650
 C212 C -0.14565 0.00038 0.20420
 H213 H -0.14424 -0.00584 0.19220
 N214 N -0.13774 0.00267 0.23309
 C215 C -0.12788 -0.01761 0.28338
 H216 H -0.11428 -0.01800 0.28280
 C217 C -0.13629 -0.02344 0.29777
 H218 H -0.12918 -0.02833 0.30833
 C219 C -0.15378 -0.01087 0.27027
 H220 H -0.16054 -0.00612 0.25946
 C221 C -0.16272 -0.01659 0.28445
 H222 H -0.17633 -0.01614 0.28457
 Zn223 Zn -0.12381 -0.00379 0.25132
 N224 N -0.13666 -0.01130 0.27009
 C225 C -0.11201 0.02154 0.27301
 N226 N -0.11101 0.01522 0.25718
 C227 C -0.10156 0.02285 0.24495
 C228 C -0.09239 0.03728 0.24854
 C229 C -0.10305 0.03592 0.27713
 C230 C -0.11724 -0.03663 0.24156
 C231 C -0.10771 -0.05045 0.23653
 C232 C -0.08259 -0.03370 0.23895
 C233 C -0.09261 -0.02016 0.24395
 N234 N -0.10963 -0.02179 0.24490
 H235 H -0.11991 0.01561 0.28244
 H236 H -0.10125 0.01774 0.23238
 H237 H -0.08491 0.04329 0.23875
 H238 H -0.10394 0.04089 0.28975
 H239 H -0.13077 -0.03763 0.24264
 H240 H -0.11390 -0.06215 0.23367
 H241 H -0.06907 -0.03228 0.23801
 H242 H -0.08677 -0.00839 0.24700
 C243 C -0.15386 -0.02287 0.29833
 C244 C -0.15638 0.01421 0.20597
 C245 C -0.09025 -0.04894 0.23511
 C246 C -0.09316 0.04385 0.26479
 C247 C 0.35204 0.51624 0.73534
 H248 H 0.35155 0.52241 0.74741
 C249 C 0.34250 0.52246 0.72191
 H250 H 0.33457 0.53339 0.72364
 C251 C 0.36348 0.49488 0.71807
 H252 H 0.37199 0.48442 0.71645
 C253 C 0.35417 0.50068 0.70434
 H254 H 0.35541 0.49455 0.69228
 N255 N 0.36225 0.50267 0.73321
 C256 C 0.37205 0.48192 0.78332
 H257 H 0.38564 0.48135 0.78268
 C258 C 0.36362 0.47611 0.79770
 H259 H 0.37071 0.47106 0.80821
 C260 C 0.34618 0.48910 0.77036
 H261 H 0.33945 0.49401 0.75960
 C262 C 0.33723 0.48341 0.78454
 H263 H 0.32362 0.48405 0.78473
 Zn264 Zn 0.37617 0.49589 0.75133
 N265 N 0.36330 0.48844 0.77011
 C266 C 0.38847 0.52089 0.77315
 N267 N 0.38926 0.51468 0.75726
 C268 C 0.39873 0.52227 0.74503
 C269 C 0.40814 0.53653 0.74867
 C270 C 0.39767 0.53510 0.77731
 C271 C 0.38228 0.46304 0.74131
 C272 C 0.39162 0.44913 0.73616
 C273 C 0.41696 0.46554 0.73864
 C274 C 0.40712 0.47918 0.74376
 N275 N 0.39008 0.47775 0.74473
 H276 H 0.38054 0.51500 0.78259
 H277 H 0.39889 0.51726 0.73242
 H278 H 0.41564 0.54251 0.73887
 H279 H 0.39693 0.53998 0.78998
 H280 H 0.36873 0.46220 0.74242
 H281 H 0.38528 0.43753 0.73324
 H282 H 0.43049 0.46680 0.73768
 H283 H 0.41312 0.49085 0.74688
 C284 C 0.34606 0.47692 0.79835
 C285 C 0.34366 0.51464 0.70626
 C286 C 0.40910 0.45043 0.73471
 C287 C 0.40758 0.54299 0.76497
 C288 C 0.64706 0.98084 0.73721
 H289 H 0.64753 0.97446 0.74930
 C290 C 0.65635 0.97468 0.72357
 H291 H 0.66408 0.96356 0.72516
 C292 C 0.63586 1.00271 0.72011
 H293 H 0.62753 1.01334 0.71864
 C294 C 0.64493 0.99697 0.70618
 H295 H 0.64369 1.00332 0.69411
 N296 N 0.63708 0.99463 0.73526
 C297 C 0.62792 1.01468 0.78545
 H298 H 0.61434 1.01543 0.78511
 C299 C 0.63652 1.02029 0.79953
 H300 H 0.62952 1.02538 0.81009
 C301 C 0.65361 1.00734 0.77196
 H302 H 0.66020 1.00248 0.76109
 C303 C 0.66274 1.01284 0.78583
 H304 H 0.67635 1.01209 0.78563
 Zn305 Zn 0.62339 1.00136 0.75365
 N306 N 0.63650 1.00821 0.77210
 C307 C 0.61065 0.97620 0.77583
 N308 N 0.60990 0.98275 0.75994
 C309 C 0.60022 0.97561 0.74793
 C310 C 0.59058 0.96144 0.75180
 C311 C 0.60122 0.96207 0.78022
 C312 C 0.61806 1.03452 0.74369
 C313 C 0.60906 1.04876 0.73867
 C314 C 0.58332 1.03293 0.74161
 C315 C 0.59281 1.01895 0.74659
 N316 N 0.60989 1.01993 0.74727
 H317 H 0.61874 0.98175 0.78508
 H318 H 0.60010 0.98089 0.73531
 H319 H 0.58294 0.95580 0.74217
 H320 H 0.60195 0.95689 0.79287
 H321 H 0.63162 1.03500 0.74456
 H322 H 0.61570 1.06026 0.73561
 H323 H 0.56976 1.03203 0.74088
 H324 H 0.58653 1.00736 0.74984
 C325 C 0.65409 1.01934 0.79975
 C326 C 0.65518 0.98278 0.70790
 C327 C 0.59155 1.04792 0.73752
 C328 C 0.59111 0.95462 0.76810
 C329 C 0.01692 0.23557 -0.14486
 H330 H 0.02314 0.24760 -0.14559
 C331 C 0.02315 0.22206 -0.15413
 H332 H 0.03416 0.22369 -0.16210
 C333 C -0.00462 0.21848 -0.13306
 H334 H -0.01515 0.21697 -0.12453
 C335 C 0.00120 0.20468 -0.14211
 H336 H -0.00499 0.19266 -0.14063
 N337 N 0.00324 0.23357 -0.13461
 C338 C -0.01753 0.28357 -0.12606
 H339 H -0.01821 0.28324 -0.11244
 C340 C -0.02321 0.29768 -0.13490
 H341 H -0.02828 0.30829 -0.12809
 C342 C -0.01018 0.27010 -0.15160
 H343 H -0.00525 0.25925 -0.15805
 C344 C -0.01575 0.28400 -0.16095
 H345 H -0.01499 0.28388 -0.17458
 Zn346 Zn -0.00362 0.25185 -0.12110
 N347 N -0.01098 0.27023 -0.13446
 C348 C 0.02144 0.27396 -0.10932
 N349 N 0.01516 0.25813 -0.10810
 C350 C 0.02272 0.24619 -0.09833
 C351 C 0.03704 0.25007 -0.08909
 C352 C 0.03572 0.27836 -0.10029
 C353 C -0.03660 0.24182 -0.11488
 C354 C -0.05061 0.23667 -0.10550
 C355 C -0.03431 0.23954 -0.08010
 C356 C -0.02059 0.24465 -0.09000
 N357 N -0.02190 0.24542 -0.10708
 H358 H 0.01558 0.28316 -0.11748
 H359 H 0.01766 0.23362 -0.09785
 H360 H 0.04301 0.24050 -0.08137
 H361 H 0.04067 0.29097 -0.10139
 H362 H -0.03733 0.24276 -0.12847
 H363 H -0.06216 0.23360 -0.11193
 H364 H -0.03306 0.23875 -0.06652
 H365 H -0.00893 0.24791 -0.08401
 C366 C -0.02225 0.29793 -0.15249
 C367 C 0.01525 0.20646 -0.15266
 C368 C -0.04943 0.23540 -0.08795
 C369 C 0.04359 0.26631 -0.09010
 C370 C 0.47950 0.23711 0.14914
 H371 H 0.47300 0.24905 0.14964
 C372 C 0.47334 0.22337 0.15836
 H373 H 0.46211 0.22473 0.16606
 C374 C 0.50167 0.22049 0.13798
 H375 H 0.51243 0.21926 0.12971
 C376 C 0.49593 0.20647 0.14698
 H377 H 0.50242 0.19456 0.14574
 N378 N 0.49345 0.23545 0.13924
 C379 C 0.51331 0.28586 0.13091
 H380 H 0.51428 0.28580 0.11730
 C381 C 0.51854 0.29987 0.13981
 H382 H 0.52354 0.31066 0.13306
 C383 C 0.50573 0.27181 0.15634
 H384 H 0.50091 0.26078 0.16273
 C385 C 0.51083 0.28559 0.16575
 H386 H 0.50983 0.28519 0.17937
 Zn387 Zn 0.50023 0.25405 0.12578
 N388 N 0.50687 0.27229 0.13922
 C389 C 0.47499 0.27603 0.11325
 N390 N 0.48163 0.26030 0.11230
 C391 C 0.47457 0.24841 0.10245
 C392 C 0.46037 0.25224 0.09285
 C393 C 0.46082 0.28037 0.10387
 C394 C 0.53356 0.24455 0.12039
 C395 C 0.54788 0.23976 0.11135
 C396 C 0.53212 0.24291 0.08558
 C397 C 0.51807 0.24766 0.09512
 N398 N 0.51897 0.24811 0.11223
 H399 H 0.48046 0.28518 0.12146
 H400 H 0.47991 0.23592 0.10218
 H401 H 0.45477 0.24270 0.08510
 H402 H 0.45556 0.29289 0.10477
 H403 H 0.53397 0.24524 0.13399
 H404 H 0.55936 0.23669 0.11797
 H405 H 0.53128 0.24232 0.07198
 H406 H 0.50648 0.25088 0.08885
 C407 C 0.51723 0.29976 0.15738
 C408 C 0.48160 0.20790 0.15719
 C409 C 0.54711 0.23881 0.09380
 C410 C 0.45344 0.26837 0.09360
 C411 C 0.97916 0.73702 0.65059
 H412 H 0.97261 0.74893 0.65117
 C413 C 0.97309 0.72321 0.65976
 H414 H 0.96188 0.72448 0.66750
 C415 C 1.00137 0.72056 0.63928
 H416 H 1.01212 0.71942 0.63098
 C417 C 0.99573 0.70647 0.64823
 H418 H 1.00227 0.69460 0.64692
 N419 N 0.99309 0.73548 0.64064
 C420 C 1.01267 0.78603 0.63254
 H421 H 1.01357 0.78607 0.61894
 C422 C 1.01789 0.79999 0.64153
 H423 H 1.02282 0.81085 0.63484
 C424 C 1.00527 0.77177 0.65792
 H425 H 1.00053 0.76067 0.66425
 C426 C 1.01038 0.78549 0.66740
 H427 H 1.00945 0.78498 0.68102
 Zn428 Zn 0.99975 0.75417 0.62726
 N429 N 1.00633 0.77237 0.64079
 C430 C 0.97437 0.77609 0.61487
 N431 N 0.98110 0.76040 0.61385
 C432 C 0.97409 0.74852 0.60394
 C433 C 0.95988 0.75232 0.59436
 C434 C 0.96018 0.78040 0.60551
 C435 C 1.03312 0.74486 0.62175
 C436 C 1.04744 0.74019 0.61263
 C437 C 1.03162 0.74343 0.58692
 C438 C 1.01756 0.74805 0.59653
 N439 N 1.01850 0.74840 0.61364
 H440 H 0.97980 0.78523 0.62313
 H441 H 0.97950 0.73605 0.60361
 H442 H 0.95433 0.74279 0.58656
 H443 H 0.95486 0.79289 0.60647
 H444 H 1.03356 0.74545 0.63535
 H445 H 1.05895 0.73713 0.61921
 H446 H 1.03075 0.74294 0.57333
 H447 H 1.00595 0.75126 0.59030
 C448 C 1.01668 0.79974 0.65910
 C449 C 0.98142 0.70779 0.65849
 C450 C 1.04664 0.73936 0.59508
 C451 C 0.95287 0.76841 0.59519
 C452 C 0.51794 0.73637 0.35213
 H453 H 0.52421 0.74838 0.35147
 C454 C 0.52409 0.72290 0.34276
 H455 H 0.53509 0.72454 0.33477
 C456 C 0.49634 0.71931 0.36384
 H457 H 0.48581 0.71780 0.37238
 C458 C 0.50208 0.70554 0.35469
 H459 H 0.49582 0.69355 0.35609
 N460 N 0.50427 0.73437 0.36238
 C461 C 0.48374 0.78441 0.37123
 H462 H 0.48308 0.78401 0.38485
 C463 C 0.47807 0.79859 0.36248
 H464 H 0.47306 0.80916 0.36940
 C465 C 0.49098 0.77104 0.34561
 H466 H 0.49584 0.76021 0.33910
 C467 C 0.48543 0.78500 0.33634
 H468 H 0.48616 0.78490 0.32270
 Zn469 Zn 0.49750 0.75260 0.37601
 N470 N 0.49022 0.77109 0.36275
 C471 C 0.52265 0.77454 0.38794
 N472 N 0.51631 0.75872 0.38904
 C473 C 0.52379 0.74670 0.39876
 C474 C 0.53807 0.75048 0.40811
 C475 C 0.53689 0.77884 0.39707
 C476 C 0.46447 0.74266 0.38223
 C477 C 0.45045 0.73760 0.39164
 C478 C 0.46678 0.74040 0.41700
 C479 C 0.48052 0.74543 0.40710
 N480 N 0.47920 0.74620 0.39001
 H481 H 0.51684 0.78380 0.37982
 H482 H 0.51868 0.73414 0.39916
 H483 H 0.54397 0.74085 0.41581
 H484 H 0.54187 0.79144 0.39609
 H485 H 0.46371 0.74360 0.36865
 H486 H 0.43885 0.73456 0.38532
 H487 H 0.46796 0.73960 0.43057
 H488 H 0.49220 0.74864 0.41308
 C489 C 0.47899 0.79893 0.34488
 C490 C 0.51612 0.70733 0.34412
 C491 C 0.45166 0.73635 0.40917
 C492 C 0.54466 0.76671 0.40724
 C493 C 0.39572 -0.01502 0.26695
 H494 H 0.39599 -0.00302 0.27317
 C495 C 0.40523 -0.02845 0.27325
 H496 H 0.41291 -0.02680 0.28431
 C497 C 0.38492 -0.03210 0.24532
 H498 H 0.37669 -0.03363 0.23471
 C499 C 0.39421 -0.04582 0.25120
 H500 H 0.39323 -0.05780 0.24498
 N501 N 0.38587 -0.01704 0.25319
 C502 C 0.37673 0.03295 0.23209
 H503 H 0.36317 0.03252 0.23123
 C504 C 0.38539 0.04718 0.22653
 H505 H 0.37849 0.05778 0.22138
 C506 C 0.40232 0.01964 0.23981
 H507 H 0.40887 0.00883 0.24486
 C508 C 0.41148 0.03366 0.23438
 H509 H 0.42506 0.03366 0.23536
 Zn510 Zn 0.37212 0.00116 0.24616
 N511 N 0.38524 0.01964 0.23879
 C512 C 0.35940 0.02318 0.27105
 N513 N 0.35861 0.00735 0.26487
 C514 C 0.34893 -0.00462 0.27249
 C515 C 0.33935 -0.00078 0.28679
 C516 C 0.35002 0.02754 0.28529
 C517 C 0.36684 -0.00879 0.21312
 C518 C 0.35786 -0.01392 0.19907
 C519 C 0.33212 -0.01126 0.21526
 C520 C 0.34159 -0.00616 0.22904
 N521 N 0.35866 -0.00529 0.22780
 H522 H 0.36748 0.03241 0.26514
 H523 H 0.34879 -0.01720 0.26751
 H524 H 0.33172 -0.01038 0.29283
 H525 H 0.35079 0.04015 0.29016
 H526 H 0.38039 -0.00778 0.21243
 H527 H 0.36450 -0.01693 0.18751
 H528 H 0.31857 -0.01216 0.21637
 H529 H 0.33530 -0.00299 0.24068
 C530 C 0.40290 0.04758 0.22777
 C531 C 0.40439 -0.04400 0.26533
 C532 C 0.34036 -0.01528 0.20019
 C533 C 0.33993 0.01546 0.29323
 C534 C 0.09999 1.01913 0.77317
 H535 H 0.09942 1.00709 0.77957
 C536 C 0.09097 1.03279 0.77953
 H537 H 0.08335 1.03127 0.79082
 C538 C 0.11113 1.03607 0.75103
 H539 H 0.11932 1.03746 0.74020
 C540 C 0.10233 1.05002 0.75696
 H541 H 0.10365 1.06203 0.75056
 N542 N 0.10979 1.02098 0.75913
 C543 C 0.11758 0.97095 0.73862
 H544 H 0.13115 0.97108 0.73750
 C545 C 0.10858 0.95703 0.73329
 H546 H 0.11522 0.94637 0.72806
 C547 C 0.09232 0.98475 0.74668
 H548 H 0.08605 0.99566 0.75173
 C549 C 0.08282 0.97105 0.74148
 H550 H 0.06924 0.97138 0.74265
 Zn551 Zn 0.12301 1.00250 0.75203
 N552 N 0.10941 0.98436 0.74534
 C553 C 0.13566 0.98007 0.77690
 N554 N 0.13665 0.99592 0.77042
 C555 C 0.14674 1.00764 0.77745
 C556 C 0.15657 1.00349 0.79143
 C557 C 0.14526 0.97542 0.79084
 C558 C 0.12804 1.01254 0.71868
 C559 C 0.13692 1.01759 0.70427
 C560 C 0.16283 1.01421 0.71968
 C561 C 0.15345 1.00921 0.73383
 N562 N 0.13636 1.00875 0.73315
 H563 H 0.12726 0.97105 0.77146
 H564 H 0.14705 1.02023 0.77224
 H565 H 0.16456 1.01288 0.79698
 H566 H 0.14436 0.96279 0.79595
 H567 H 0.11446 1.01185 0.71844
 H568 H 0.13017 1.02086 0.69289
 H569 H 0.17642 1.01480 0.72036
 H570 H 0.15985 1.00580 0.74532
 C571 C 0.09105 0.95705 0.73479
 C572 C 0.09224 1.04839 0.77138
 C573 C 0.15445 1.01855 0.70482
 C574 C 0.15580 0.98722 0.79816
 C575 C 0.60025 0.51987 0.27038
 H576 H 0.59944 0.50790 0.27689
 C577 C 0.59127 0.53369 0.27643
 H578 H 0.58343 0.53236 0.28760
 C579 C 0.61196 0.53646 0.24827
 H580 H 0.62035 0.53765 0.23757
 C581 C 0.60320 0.55057 0.25390
 H582 H 0.60475 0.56249 0.24740
 N583 N 0.61032 0.52147 0.25650
 C584 C 0.61793 0.47110 0.23678
 H585 H 0.63151 0.47108 0.23592
 C586 C 0.60889 0.45721 0.23145
 H587 H 0.61551 0.44642 0.22648
 C588 C 0.59267 0.48527 0.24417
 H589 H 0.58641 0.49630 0.24896
 C590 C 0.58312 0.47159 0.23896
 H591 H 0.56953 0.47208 0.23985
 Zn592 Zn 0.62345 0.50276 0.24987
 N593 N 0.60977 0.48468 0.24316
 C594 C 0.63542 0.48050 0.27525
 N595 N 0.63669 0.49625 0.26858
 C596 C 0.64683 0.50794 0.27560
 C597 C 0.65644 0.50384 0.28974
 C598 C 0.64480 0.47590 0.28935
 C599 C 0.62924 0.51233 0.21648
 C600 C 0.63849 0.51686 0.20213
 C601 C 0.66404 0.51310 0.21804
 C602 C 0.65431 0.50863 0.23213
 N603 N 0.63722 0.50857 0.23115
 H604 H 0.62699 0.47152 0.26980
 H605 H 0.64737 0.52046 0.27023
 H606 H 0.66449 0.51320 0.29526
 H607 H 0.64370 0.46334 0.29459
 H608 H 0.61566 0.51195 0.21601
 H609 H 0.63202 0.52005 0.19056
 H610 H 0.67763 0.51331 0.21893
 H611 H 0.66043 0.50524 0.24378
 C612 C 0.59134 0.45743 0.23260
 C613 C 0.59284 0.54919 0.26815
 C614 C 0.65603 0.51734 0.20295
 C615 C 0.65541 0.48766 0.29665
 C616 C 0.89514 0.48486 0.76822
 H617 H 0.89545 0.49687 0.77441
 C618 C 0.90452 0.47138 0.77461
 H619 H 0.91215 0.47302 0.78571
 C620 C 0.88434 0.46780 0.74658
 H621 H 0.87616 0.46630 0.73592
 C622 C 0.89351 0.45403 0.75255
 H623 H 0.89248 0.44204 0.74635
 N624 N 0.88535 0.48287 0.75441
 C625 C 0.87663 0.53285 0.73312
 H626 H 0.86307 0.53248 0.73217
 C627 C 0.88539 0.54702 0.72757
 H628 H 0.87857 0.55764 0.72234
 C629 C 0.90211 0.51945 0.74105
 H630 H 0.90857 0.50862 0.74618
 C631 C 0.91137 0.53341 0.73564
 H632 H 0.92494 0.53336 0.73671
 Zn633 Zn 0.87176 0.50114 0.74725
 N634 N 0.88503 0.51953 0.73991
 C635 C 0.85907 0.52331 0.77201
 N636 N 0.85818 0.50747 0.76586
 C637 C 0.84836 0.49560 0.77345
 C638 C 0.83872 0.49956 0.78768
 C639 C 0.84965 0.52779 0.78618
 C640 C 0.86663 0.49117 0.71420
 C641 C 0.85771 0.48613 0.70008
 C642 C 0.83188 0.48900 0.71608
 C643 C 0.84129 0.49401 0.72994
 N644 N 0.85837 0.49474 0.72882
 H645 H 0.86727 0.53245 0.76613
 H646 H 0.84814 0.48301 0.76850
 H647 H 0.83099 0.49004 0.79370
 H648 H 0.85050 0.54040 0.79103
 H649 H 0.88019 0.49208 0.71361
 H650 H 0.86441 0.48307 0.68857
 H651 H 0.81831 0.48823 0.71710
 H652 H 0.83494 0.49724 0.74154
 C653 C 0.90290 0.54735 0.72892
 C654 C 0.90363 0.45581 0.76672
 C655 C 0.84019 0.48493 0.70107
 C656 C 0.83941 0.51581 0.79409
 C657 C 0.26712 0.39527 -0.01280
 H658 H 0.27331 0.39565 -0.00073
 C659 C 0.27349 0.40461 -0.02642
 H660 H 0.28456 0.41228 -0.02483
 C661 C 0.24554 0.38430 -0.02989
 H662 H 0.23492 0.37607 -0.03134
 C663 C 0.25148 0.39343 -0.04380
 H664 H 0.24531 0.39232 -0.05585
 N665 N 0.25336 0.38540 -0.01475
 C666 C 0.23238 0.37657 0.03555
 H667 H 0.23156 0.36303 0.03531
 C668 C 0.22679 0.38527 0.04969
 H669 H 0.22165 0.37843 0.06041
 C670 C 0.24000 0.40205 0.02182
 H671 H 0.24501 0.40853 0.01087
 C672 C 0.23453 0.41126 0.03574
 H673 H 0.23544 0.42481 0.03553
 Zn674 Zn 0.24634 0.37181 0.00372
 N675 N 0.23903 0.38500 0.02208
 C676 C 0.27126 0.35940 0.02603
 N677 N 0.26501 0.35843 0.01015
 C678 C 0.27256 0.34870 -0.00172
 C679 C 0.28687 0.33926 0.00227
 C680 C 0.28552 0.35018 0.03053
 C681 C 0.21334 0.36640 -0.00623
 C682 C 0.19923 0.35737 -0.01110
 C683 C 0.21528 0.33173 -0.00787
 C684 C 0.22912 0.34126 -0.00305
 N685 N 0.22797 0.35829 -0.00256
 H686 H 0.26541 0.36753 0.03516
 H687 H 0.26752 0.34841 -0.01433
 H688 H 0.29286 0.33161 -0.00726
 H689 H 0.29047 0.35111 0.04316
 H690 H 0.21272 0.37993 -0.00551
 H691 H 0.18769 0.36395 -0.01420
 H692 H 0.21631 0.31819 -0.00842
 H693 H 0.24074 0.33502 0.00026
 C694 C 0.22795 0.40276 0.04982
 C695 C 0.26563 0.40361 -0.04207
 C696 C 0.20024 0.33989 -0.01202
 C697 C 0.29341 0.34005 0.01854
 C698 C 0.76867 0.09992 1.01958
 H699 H 0.77497 0.09912 1.00748
 C700 C 0.77466 0.09061 1.03332
 H701 H 0.78555 0.08254 1.03181
 C702 C 0.74720 0.11190 1.03658
 H703 H 0.73678 0.12052 1.03795
 C704 C 0.75276 0.10283 1.05061
 H705 H 0.74650 0.10437 1.06267
 N706 N 0.75515 0.11028 1.02142
 C707 C 0.73496 0.11925 0.97116
 H708 H 0.73454 0.13281 0.97129
 C709 C 0.72905 0.11065 0.95722
 H710 H 0.72407 0.11759 0.94655
 C711 C 0.74176 0.09361 0.98501
 H712 H 0.74654 0.08703 0.99596
 C713 C 0.73595 0.08449 0.97128
 H714 H 0.73636 0.07091 0.97163
 Zn715 Zn 0.74864 0.12384 1.00281
 N716 N 0.74131 0.11069 0.98461
 C717 C 0.77398 0.13560 0.98030
 N718 N 0.76757 0.13673 0.99620
 C719 C 0.77499 0.14651 1.00795
 C720 C 0.78924 0.15593 1.00375
 C721 C 0.78819 0.14480 0.97559
 C722 C 0.71559 0.13023 1.01283
 C723 C 0.70155 0.13970 1.01752
 C724 C 0.71806 0.16487 1.01370
 C725 C 0.73182 0.15491 1.00907
 N726 N 0.73040 0.13790 1.00896
 H727 H 0.76822 0.12744 0.97126
 H728 H 0.76982 0.14694 1.02059
 H729 H 0.79506 0.16371 1.01314
 H730 H 0.79320 0.14383 0.96290
 H731 H 0.71476 0.11669 1.01239
 H732 H 0.68987 0.13347 1.02077
 H733 H 0.71930 0.17839 1.01394
 H734 H 0.74356 0.16080 1.00558
 C735 C 0.72958 0.09312 0.95726
 C736 C 0.76666 0.09216 1.04899
 C737 C 0.70283 0.15717 1.01804
 C738 C 0.79586 0.15507 0.98741
 C739 C 0.26857 0.60212 0.51953
 H740 H 0.27480 0.60130 0.50739
 C741 C 0.27463 0.59284 0.53326
 H742 H 0.28551 0.58477 0.53171
 C743 C 0.24716 0.61412 0.53661
 H744 H 0.23674 0.62272 0.53801
 C745 C 0.25281 0.60508 0.55063
 H746 H 0.24659 0.60662 0.56272
 N747 N 0.25503 0.61246 0.52141
 C748 C 0.23444 0.62101 0.47125
 H749 H 0.23397 0.63457 0.47128
 C750 C 0.22848 0.61227 0.45742
 H751 H 0.22341 0.61911 0.44672
 C752 C 0.24144 0.59550 0.48526
 H753 H 0.24631 0.58904 0.49622
 C754 C 0.23559 0.58626 0.47164
 H755 H 0.23606 0.57268 0.47209
 Zn756 Zn 0.24835 0.62589 0.50277
 N757 N 0.24092 0.61258 0.48473
 C758 C 0.27349 0.63753 0.47998
 N759 N 0.26720 0.63879 0.49593
 C760 C 0.27469 0.64867 0.50753
 C761 C 0.28892 0.65804 0.50316
 C762 C 0.28767 0.64668 0.47510
 C763 C 0.21535 0.63219 0.51297
 C764 C 0.20131 0.64162 0.51773
 C765 C 0.21769 0.66685 0.51373
 C766 C 0.23146 0.65693 0.50903
 N767 N 0.23011 0.63991 0.50897
 H768 H 0.26766 0.62929 0.47106
 H769 H 0.26962 0.64920 0.52020
 H770 H 0.29482 0.66589 0.51245
 H771 H 0.29260 0.64559 0.46239
 H772 H 0.21457 0.61865 0.51257
 H773 H 0.18967 0.63535 0.52108
 H774 H 0.21887 0.68038 0.51393
 H775 H 0.24316 0.66286 0.50546
 C776 C 0.22909 0.59475 0.45759
 C777 C 0.26670 0.59440 0.54896
 C778 C 0.20252 0.65909 0.51820
 C779 C 0.29544 0.65704 0.48678
 C780 C 0.76731 0.89507 0.48711
 H781 H 0.77344 0.89545 0.49922
 C782 C 0.77372 0.90443 0.47353
 H783 H 0.78478 0.91211 0.47517
 C784 C 0.74580 0.88410 0.46994
 H785 H 0.73519 0.87587 0.46843
 C786 C 0.75179 0.89325 0.45605
 H787 H 0.74567 0.89214 0.44398
 N788 N 0.75356 0.88520 0.48511
 C789 C 0.73226 0.87644 0.53528
 H790 H 0.73141 0.86290 0.53504
 C791 C 0.72662 0.88515 0.54939
 H792 H 0.72141 0.87833 0.56009
 C793 C 0.74004 0.90189 0.52160
 H794 H 0.74513 0.90836 0.51068
 C795 C 0.73453 0.91111 0.53549
 H796 H 0.73549 0.92467 0.53530
 Zn797 Zn 0.74643 0.87163 0.50355
 N798 N 0.73902 0.88485 0.52185
 C799 C 0.77117 0.85923 0.52605
 N800 N 0.76504 0.85825 0.51013
 C801 C 0.77266 0.84847 0.49833
 C802 C 0.78692 0.83901 0.50245
 C803 C 0.78537 0.84999 0.53068
 C804 C 0.71347 0.86624 0.49342
 C805 C 0.69940 0.85722 0.48844
 C806 C 0.71543 0.83158 0.49174
 C807 C 0.72924 0.84109 0.49668
 N808 N 0.72808 0.85812 0.49717
 H809 H 0.76527 0.86739 0.53512
 H810 H 0.76772 0.84817 0.48568
 H811 H 0.79297 0.83132 0.49299
 H812 H 0.79022 0.85093 0.54335
 H813 H 0.71285 0.87977 0.49415
 H814 H 0.68789 0.86381 0.48526
 H815 H 0.71646 0.81804 0.49117
 H816 H 0.74083 0.83485 0.50005
 C817 C 0.72785 0.90263 0.54954
 C818 C 0.76592 0.90343 0.45785
 C819 C 0.70042 0.83975 0.48749
 C820 C 0.79333 0.83981 0.51878
 C821 C -0.01297 0.26547 0.39360
 H822 H -0.00086 0.27160 0.39390
 C823 C -0.02637 0.27165 0.40324
 H824 H -0.02458 0.28253 0.41107
 C825 C -0.03035 0.24421 0.38253
 H826 H -0.03201 0.23380 0.37414
 C827 C -0.04405 0.24998 0.39196
 H828 H -0.05614 0.24388 0.39091
 N829 N -0.01516 0.25196 0.38353
 C830 C 0.03468 0.23100 0.37355
 H831 H 0.03412 0.23045 0.35995
 C832 C 0.04891 0.22511 0.38193
 H833 H 0.05938 0.22002 0.37479
 C834 C 0.02165 0.23820 0.39949
 H835 H 0.01093 0.24316 0.40627
 C836 C 0.03568 0.23243 0.40839
 H837 H 0.03579 0.23305 0.42201
 Zn838 Zn 0.00297 0.24517 0.36951
 N839 N 0.02151 0.23757 0.38235
 C840 C 0.02520 0.27013 0.35693
 N841 N 0.00927 0.26400 0.35617
 C842 C -0.00270 0.27173 0.34664
 C843 C 0.00124 0.28612 0.33720
 C844 C 0.02965 0.28446 0.34770
 C845 C -0.00725 0.21238 0.36392
 C846 C -0.01236 0.19846 0.35480
 C847 C -0.00959 0.21490 0.32916
 C848 C -0.00452 0.22855 0.33877
 N849 N -0.00369 0.22710 0.35585
 H850 H 0.03442 0.26413 0.36490
 H851 H -0.01534 0.26678 0.34652
 H852 H -0.00836 0.29225 0.32971
 H853 H 0.04233 0.28931 0.34846
 H854 H -0.00626 0.21153 0.37748
 H855 H -0.01537 0.18684 0.36135
 H856 H -0.01040 0.21616 0.31559
 H857 H -0.00129 0.24023 0.33257
 C858 C 0.04945 0.22589 0.39950
 C859 C -0.04206 0.26387 0.40233
 C860 C -0.01363 0.19976 0.33728
 C861 C 0.01757 0.29253 0.33777
 C862 C 1.01933 0.77072 0.09838
 H863 H 1.00735 0.77716 0.09761
 C864 C 1.03312 0.77663 0.08907
 H865 H 1.03177 0.78760 0.08101
 C866 C 1.03597 0.74894 0.11031
 H867 H 1.03718 0.73842 0.11891
 C868 C 1.05005 0.75442 0.10123
 H869 H 1.06199 0.74800 0.10273
 N870 N 1.02097 0.75707 0.10871
 C871 C 0.97044 0.73744 0.11734
 H872 H 0.97053 0.73679 0.13096
 C873 C 0.95640 0.73197 0.10858
 H874 H 0.94561 0.72711 0.11545
 C875 C 0.98446 0.74443 0.09173
 H876 H 0.99550 0.74912 0.08523
 C877 C 0.97064 0.73907 0.08245
 H878 H 0.97100 0.73974 0.06881
 Zn879 Zn 1.00228 0.75063 0.12222
 N880 N 0.98402 0.74369 0.10887
 C881 C 0.98017 0.77604 0.13392
 N882 N 0.99594 0.76945 0.13519
 C883 C 1.00774 0.77663 0.14510
 C884 C 1.00375 0.79085 0.15450
 C885 C 0.97567 0.79023 0.14309
 C886 C 1.01175 0.71749 0.12854
 C887 C 1.01622 0.70334 0.13802
 C888 C 1.01264 0.71956 0.16335
 C889 C 1.00823 0.73344 0.15339
 N890 N 1.00811 0.73222 0.13629
 H891 H 0.97110 0.77047 0.12566
 H892 H 1.02027 0.77132 0.14564
 H893 H 1.01319 0.79649 0.16237
 H894 H 0.96310 0.79540 0.14199
 H895 H 1.01131 0.71683 0.11494
 H896 H 1.01929 0.69172 0.13172
 H897 H 1.01289 0.72064 0.17694
 H898 H 1.00493 0.74513 0.15933
 C899 C 0.95647 0.73285 0.09098
 C900 C 1.04864 0.76843 0.09058
 C901 C 1.01675 0.70441 0.15557
 C902 C 0.98755 0.79768 0.15348
 C903 C 0.51996 0.27048 0.59814
 H904 H 0.50795 0.27683 0.59723
 C905 C 0.53380 0.27647 0.58895
 H906 H 0.53245 0.28743 0.58087
 C907 C 0.53664 0.24882 0.61025
 H908 H 0.53784 0.23832 0.61886
 C909 C 0.55077 0.25440 0.60130
 H910 H 0.56274 0.24806 0.60292
 N911 N 0.52160 0.25685 0.60849
 C912 C 0.47113 0.23682 0.61650
 H913 H 0.47105 0.23618 0.63012
 C914 C 0.45725 0.23125 0.60755
 H915 H 0.44641 0.22631 0.61428
 C916 C 0.48543 0.24391 0.59106
 H917 H 0.49651 0.24868 0.58470
 C918 C 0.47177 0.23845 0.58161
 H919 H 0.47231 0.23913 0.56798
 Zn920 Zn 0.50280 0.25025 0.62178
 N921 N 0.48477 0.24318 0.60821
 C922 C 0.48035 0.27548 0.63323
 N923 N 0.49615 0.26901 0.63469
 C924 C 0.50777 0.27628 0.64475
 C925 C 0.50355 0.29044 0.65412
 C926 C 0.47563 0.28961 0.64237
 C927 C 0.51247 0.21719 0.62818
 C928 C 0.51695 0.20307 0.63770
 C929 C 0.51294 0.21923 0.66301
 C930 C 0.50853 0.23309 0.65300
 N931 N 0.50862 0.23188 0.63590
 H932 H 0.47143 0.26985 0.62485
 H933 H 0.52034 0.27106 0.64543
 H934 H 0.51285 0.29615 0.66212
 H935 H 0.46303 0.29469 0.64113
 H936 H 0.51220 0.21653 0.61458
 H937 H 0.52020 0.19148 0.63143
 H938 H 0.51302 0.22030 0.67660
 H939 H 0.50506 0.24474 0.65892
 C940 C 0.45754 0.23212 0.58996
 C941 C 0.54935 0.26838 0.59061
 C942 C 0.51727 0.20413 0.65526
 C943 C 0.48732 0.29714 0.65292
 C944 C 0.48660 0.76530 0.89284
 H945 H 0.49868 0.77147 0.89322
 C946 C 0.47314 0.77143 0.90242
 H947 H 0.47485 0.78230 0.91029
 C948 C 0.46934 0.74402 0.88164
 H949 H 0.46775 0.73361 0.87323
 C950 C 0.45557 0.74974 0.89101
 H951 H 0.44351 0.74360 0.88990
 N952 N 0.48450 0.75180 0.88274
 C953 C 0.53445 0.73092 0.87315
 H954 H 0.53401 0.73035 0.85955
 C955 C 0.54865 0.72515 0.88167
 H956 H 0.55922 0.72011 0.87462
 C957 C 0.52119 0.73813 0.89897
 H958 H 0.51040 0.74306 0.90565
 C959 C 0.53518 0.73248 0.90800
 H960 H 0.53519 0.73316 0.92162
 Zn961 Zn 0.50274 0.74505 0.86884
 N962 N 0.52118 0.73746 0.88183
 C963 C 0.52504 0.77005 0.85648
 N964 N 0.50913 0.76391 0.85558
 C965 C 0.49722 0.77166 0.84599
 C966 C 0.50122 0.78607 0.83661
 C967 C 0.52955 0.78440 0.84730
 C968 C 0.49258 0.71226 0.86309
 C969 C 0.48748 0.69838 0.85391
 C970 C 0.49040 0.71491 0.82833
 C971 C 0.49546 0.72850 0.83801
 N972 N 0.49620 0.72701 0.85510
 H973 H 0.53421 0.76403 0.86449
 H974 H 0.48458 0.76670 0.84577
 H975 H 0.49167 0.79221 0.82906
 H976 H 0.54222 0.78925 0.84816
 H977 H 0.49350 0.71137 0.87666
 H978 H 0.48441 0.68676 0.86040
 H979 H 0.48963 0.71621 0.81476
 H980 H 0.49873 0.74021 0.83186
 C981 C 0.54906 0.72601 0.89923
 C982 C 0.45747 0.76360 0.90143
 C983 C 0.48628 0.69975 0.83639
 C984 C 0.51754 0.79249 0.83731
 C985 C 0.47359 -0.18724 0.33622
 C986 C 0.46873 -0.17482 0.32890
 C987 C 0.46278 -0.15984 0.32056
 C988 C 0.47032 -0.14439 0.32381
 C989 C 0.46409 -0.12969 0.31634
 C990 C 0.45019 -0.13025 0.30550
 C991 C 0.44282 -0.14588 0.30215
 C992 C 0.44907 -0.16056 0.30965
 C993 C 0.44313 -0.11458 0.29806
 C994 C 0.43746 -0.11417 0.28131
 C995 C 0.43026 -0.09958 0.27454
 C996 C 0.42863 -0.08521 0.28439
 C997 C 0.43440 -0.08542 0.30099
 C998 C 0.44162 -0.09999 0.30779
 C999 C 0.42050 -0.07046 0.27765
 C1000 C 0.41335 -0.05828 0.27203
 H1001 H 0.48094 -0.14369 0.33225
 H1002 H 0.47016 -0.11790 0.31900
 H1003 H 0.43197 -0.14670 0.29405
 H1004 H 0.44307 -0.17243 0.30712
 H1005 H 0.43864 -0.12512 0.27343
 H1006 H 0.42583 -0.09956 0.26166
 H1007 H 0.43311 -0.07439 0.30876
 H1008 H 0.44564 -0.09996 0.32079
 C1009 C 0.97205 0.31250 0.83829
 C1010 C 0.96720 0.32490 0.83093
 C1011 C 0.96127 0.33987 0.82254
 C1012 C 0.96904 0.35526 0.82551
 C1013 C 0.96286 0.36995 0.81797
 C1014 C 0.94878 0.36943 0.80736
 C1015 C 0.94118 0.35386 0.80430
 C1016 C 0.94738 0.33918 0.81186
 C1017 C 0.94180 0.38510 0.79984
 C1018 C 0.93590 0.38539 0.78317
 C1019 C 0.92880 0.39999 0.77632
 C1020 C 0.92751 0.41450 0.78601
 C1021 C 0.93350 0.41441 0.80254
 C1022 C 0.94061 0.39982 0.80941
 C1023 C 0.91950 0.42929 0.77919
 C1024 C 0.91246 0.44150 0.77351
 H1025 H 0.97980 0.35594 0.83376
 H1026 H 0.96911 0.38171 0.82040
 H1027 H 0.93020 0.35306 0.79638
 H1028 H 0.94121 0.32735 0.80956
 H1029 H 0.93682 0.37433 0.77542
 H1030 H 0.92419 0.39993 0.76351
 H1031 H 0.93247 0.42554 0.81018
 H1032 H 0.94482 0.39995 0.82234
 C1033 C 0.02194 1.19209 0.83870
 C1034 C 0.02755 1.17984 0.83184
 C1035 C 0.03429 1.16502 0.82405
 C1036 C 0.05032 1.16531 0.81665
 C1037 C 0.05716 1.15072 0.80973
 C1038 C 0.04806 1.13562 0.81015
 C1039 C 0.03187 1.13551 0.81745
 C1040 C 0.02505 1.15011 0.82437
 C1041 C 0.05554 1.11999 0.80329
 C1042 C 0.04571 1.10872 0.79408
 C1043 C 0.05281 1.09399 0.78771
 C1044 C 0.06980 1.09032 0.79048
 C1045 C 0.07966 1.10142 0.79965
 C1046 C 0.07260 1.11614 0.80601
 C1047 C 0.07726 1.07530 0.78377
 C1048 C 0.08387 1.06290 0.77814
 H1049 H 0.05758 1.17679 0.81634
 H1050 H 0.06956 1.15127 0.80400
 H1051 H 0.02463 1.12404 0.81815
 H1052 H 0.01267 1.14972 0.83015
 H1053 H 0.03259 1.11142 0.79162
 H1054 H 0.04508 1.08552 0.78056
 H1055 H 0.09282 1.09868 0.80189
 H1056 H 0.08044 1.12442 0.81326
 C1057 C 0.52271 0.69300 0.33536
 C1058 C 0.52825 0.68078 0.32839
 C1059 C 0.53490 0.66598 0.32049
 C1060 C 0.52645 0.65069 0.32226
 C1061 C 0.53324 0.63613 0.31521
 C1062 C 0.54862 0.63668 0.30633
 C1063 C 0.55692 0.65216 0.30445
 C1064 C 0.55010 0.66670 0.31150
 C1065 C 0.55615 0.62111 0.29936
 C1066 C 0.57357 0.61815 0.30053
 C1067 C 0.58066 0.60342 0.29420
 C1068 C 0.57048 0.59145 0.28660
 C1069 C 0.55315 0.59427 0.28534
 C1070 C 0.54601 0.60900 0.29169
 C1071 C 0.57792 0.57634 0.28007
 C1072 C 0.58451 0.56385 0.27463
 H1073 H 0.51472 0.64997 0.32927
 H1074 H 0.52666 0.62438 0.31706
 H1075 H 0.56866 0.65304 0.29749
 H1076 H 0.55674 0.67848 0.31005
 H1077 H 0.58167 0.62710 0.30659
 H1078 H 0.59409 0.60135 0.29527
 H1079 H 0.54516 0.58510 0.27943
 H1080 H 0.53260 0.61100 0.29043
 C1081 C 0.52253 0.31418 0.16666
 C1082 C 0.52712 0.32646 0.17403
 C1083 C 0.53280 0.34131 0.18238
 C1084 C 0.54789 0.34102 0.19132
 C1085 C 0.55391 0.35568 0.19863
 C1086 C 0.54490 0.37085 0.19706
 C1087 C 0.52961 0.37095 0.18826
 C1088 C 0.52361 0.35627 0.18097
 C1089 C 0.55175 0.38659 0.20408
 C1090 C 0.55081 0.40173 0.19482
 C1091 C 0.55800 0.41637 0.20101
 C1092 C 0.56620 0.41610 0.21655
 C1093 C 0.56697 0.40118 0.22598
 C1094 C 0.55979 0.38652 0.21981
 C1095 C 0.57453 0.43090 0.22241
 C1096 C 0.58194 0.44312 0.22714
 H1097 H 0.55516 0.32954 0.19239
 H1098 H 0.56583 0.35523 0.20511
 H1099 H 0.52229 0.38237 0.18701
 H1100 H 0.51192 0.35664 0.17407
 H1101 H 0.54492 0.40215 0.18257
 H1102 H 0.55744 0.42782 0.19355
 H1103 H 0.57331 0.40083 0.23801
 H1104 H 0.56055 0.37512 0.22732
 C1105 C 0.02204 0.81409 0.66847
 C1106 C 0.02667 0.82631 0.67592
 C1107 C 0.03241 0.84108 0.68436
 C1108 C 0.02300 0.85594 0.68350
 C1109 C 0.02903 0.87056 0.69086
 C1110 C 0.04460 0.87051 0.69918
 C1111 C 0.05383 0.85544 0.70020
 C1112 C 0.04778 0.84084 0.69282
 C1113 C 0.05147 0.88621 0.70625
 C1114 C 0.06000 0.88598 0.72171
 C1115 C 0.06720 0.90062 0.72791
 C1116 C 0.06596 0.91568 0.71876
 C1117 C 0.05727 0.91611 0.70351
 C1118 C 0.05005 0.90149 0.69729
 C1119 C 0.07429 0.93048 0.72462
 C1120 C 0.08169 0.94271 0.72935
 H1121 H 0.01109 0.85627 0.67696
 H1122 H 0.02154 0.88191 0.69003
 H1123 H 0.06596 0.85504 0.70630
 H1124 H 0.05522 0.82943 0.69346
 H1125 H 0.06113 0.87447 0.72900
 H1126 H 0.07392 0.90015 0.73973
 H1127 H 0.05633 0.92768 0.69627
 H1128 H 0.04377 0.90204 0.68524
 C1129 C 0.97494 0.69313 0.66703
 C1130 C 0.96951 0.68065 0.67381
 C1131 C 0.96298 0.66555 0.68147
 C1132 C 0.94674 0.66539 0.68841
 C1133 C 0.94011 0.65053 0.69516
 C1134 C 0.94963 0.63560 0.69502
 C1135 C 0.96601 0.63595 0.68819
 C1136 C 0.97263 0.65083 0.68146
 C1137 C 0.94233 0.61968 0.70159
 C1138 C 0.94499 0.60454 0.69299
 C1139 C 0.93760 0.58966 0.69882
 C1140 C 0.92750 0.58969 0.71333
 C1141 C 0.92495 0.60463 0.72210
 C1142 C 0.93231 0.61953 0.71629
 C1143 C 0.91926 0.57455 0.71891
 C1144 C 0.91201 0.56203 0.72350
 H1145 H 0.93913 0.67669 0.68840
 H1146 H 0.92738 0.65063 0.70012
 H1147 H 0.97373 0.62472 0.68808
 H1148 H 0.98521 0.65081 0.67611
 H1149 H 0.95244 0.60428 0.68151
 H1150 H 0.93958 0.57818 0.69188
 H1151 H 0.91714 0.60479 0.73336
 H1152 H 0.93020 0.63092 0.72331
 C1153 C 0.47503 0.19331 0.16577
 C1154 C 0.46951 0.18088 0.17257
 C1155 C 0.46288 0.16584 0.18027
 C1156 C 0.47281 0.15132 0.18115
 C1157 C 0.46614 0.13647 0.18790
 C1158 C 0.44943 0.13595 0.19386
 C1159 C 0.43962 0.15068 0.19310
 C1160 C 0.44631 0.16551 0.18633
 C1161 C 0.44211 0.12005 0.20045
 C1162 C 0.43132 0.12006 0.21459
 C1163 C 0.42396 0.10516 0.22041
 C1164 C 0.42729 0.09005 0.21219
 C1165 C 0.43815 0.08986 0.19824
 C1166 C 0.44553 0.10475 0.19240
 C1167 C 0.41911 0.07488 0.21776
 C1168 C 0.41192 0.06233 0.22235
 H1169 H 0.48565 0.15143 0.17648
 H1170 H 0.47407 0.12541 0.18850
 H1171 H 0.42665 0.15064 0.19736
 H1172 H 0.43849 0.17665 0.18561
 H1173 H 0.42860 0.13159 0.22118
 H1174 H 0.41557 0.10545 0.23123
 H1175 H 0.44074 0.07825 0.19173
 H1176 H 0.45360 0.10435 0.18136
 C1177 C 0.33728 0.47105 -0.18681
 C1178 C 0.33035 0.46600 -0.17418
 C1179 C 0.32257 0.45981 -0.15891
 C1180 C 0.33205 0.45032 -0.14745
 C1181 C 0.32464 0.44426 -0.13258
 C1182 C 0.30761 0.44760 -0.12895
 C1183 C 0.29817 0.45717 -0.14054
 C1184 C 0.30563 0.46325 -0.15542
 C1185 C 0.29972 0.44092 -0.11323
 C1186 C 0.28338 0.43421 -0.11342
 C1187 C 0.27624 0.42733 -0.09876
 C1188 C 0.28530 0.42709 -0.08371
 C1189 C 0.30145 0.43395 -0.08333
 C1190 C 0.30863 0.44083 -0.09797
 C1191 C 0.27826 0.41924 -0.06885
 C1192 C 0.27247 0.41232 -0.05654
 H1193 H 0.34516 0.44756 -0.15004
 H1194 H 0.33217 0.43672 -0.12405
 H1195 H 0.28509 0.46011 -0.13802
 H1196 H 0.29819 0.47063 -0.16418
 H1197 H 0.27629 0.43391 -0.12500
 H1198 H 0.26376 0.42197 -0.09922
 H1199 H 0.30857 0.43384 -0.07175
 H1200 H 0.32113 0.44611 -0.09736
 C1201 C 0.83737 0.97120 0.31317
 C1202 C 0.83047 0.96612 0.32580
 C1203 C 0.82272 0.95988 0.34106
 C1204 C 0.80593 0.96374 0.34485
 C1205 C 0.79852 0.95764 0.35974
 C1206 C 0.80784 0.94762 0.37105
 C1207 C 0.82472 0.94385 0.36711
 C1208 C 0.83209 0.94994 0.35223
 C1209 C 0.80000 0.94092 0.38677
 C1210 C 0.80912 0.94034 0.40189
 C1211 C 0.80198 0.93343 0.41654
 C1212 C 0.78562 0.92703 0.41629
 C1213 C 0.77635 0.92776 0.40138
 C1214 C 0.78347 0.93468 0.38672
 C1215 C 0.77859 0.91914 0.43113
 C1216 C 0.77279 0.91218 0.44342
 H1217 H 0.79859 0.97147 0.33632
 H1218 H 0.78556 0.96090 0.36250
 H1219 H 0.83215 0.93596 0.37541
 H1220 H 0.84508 0.94685 0.34941
 H1221 H 0.82178 0.94525 0.40240
 H1222 H 0.80926 0.93293 0.42801
 H1223 H 0.76371 0.92276 0.40103
 H1224 H 0.77620 0.93475 0.37525
 C1225 C 0.83518 0.02035 1.19236
 C1226 C 0.82807 0.02582 1.18010
 C1227 C 0.82001 0.03243 1.16526
 C1228 C 0.80785 0.04509 1.16662
 C1229 C 0.80056 0.05198 1.15212
 C1230 C 0.80535 0.04629 1.13605
 C1231 C 0.81743 0.03340 1.13484
 C1232 C 0.82471 0.02654 1.14935
 C1233 C 0.79810 0.05403 1.12061
 C1234 C 0.79390 0.04411 1.10671
 C1235 C 0.78740 0.05151 1.09207
 C1236 C 0.78503 0.06890 1.09113
 C1237 C 0.78910 0.07886 1.10490
 C1238 C 0.79558 0.07149 1.11954
 C1239 C 0.77852 0.07664 1.07605
 C1240 C 0.77311 0.08349 1.06359
 H1241 H 0.80411 0.04974 1.17887
 H1242 H 0.79113 0.06173 1.15349
 H1243 H 0.82155 0.02890 1.12266
 H1244 H 0.83417 0.01680 1.14815
 H1245 H 0.79550 0.03062 1.10721
 H1246 H 0.78425 0.04368 1.08149
 H1247 H 0.78736 0.09234 1.10429
 H1248 H 0.79892 0.07950 1.12991
 C1249 C 0.33478 0.52135 0.69194
 C1250 C 0.32774 0.52699 0.67972
 C1251 C 0.31976 0.53380 0.66493
 C1252 C 0.32415 0.52772 0.64901
 C1253 C 0.31694 0.53474 0.63453
 C1254 C 0.30525 0.54798 0.63580
 C1255 C 0.30078 0.55387 0.65188
 C1256 C 0.30800 0.54682 0.66634
 C1257 C 0.29807 0.55586 0.62039
 C1258 C 0.29605 0.57337 0.61925
 C1259 C 0.28961 0.58085 0.60465
 C1260 C 0.28509 0.57095 0.59098
 C1261 C 0.28698 0.55351 0.59198
 C1262 C 0.29344 0.54600 0.60659
 C1263 C 0.27859 0.57879 0.57595
 C1264 C 0.27317 0.58570 0.56353
 H1265 H 0.33331 0.51770 0.64776
 H1266 H 0.32082 0.53007 0.62234
 H1267 H 0.29166 0.56389 0.65328
 H1268 H 0.30451 0.55162 0.67860
 H1269 H 0.29972 0.58133 0.62954
 H1270 H 0.28824 0.59437 0.60399
 H1271 H 0.28348 0.54572 0.58149
 H1272 H 0.29467 0.53247 0.60715
 C1273 C 0.16216 0.52560 0.31419
 C1274 C 0.16906 0.53090 0.32650
 C1275 C 0.17669 0.53754 0.34137
 C1276 C 0.17210 0.55353 0.34690
 C1277 C 0.17891 0.55988 0.36167
 C1278 C 0.19043 0.55031 0.37115
 C1279 C 0.19512 0.53431 0.36540
 C1280 C 0.18826 0.52796 0.35060
 C1281 C 0.19736 0.55701 0.38702
 C1282 C 0.21446 0.55484 0.39098
 C1283 C 0.22102 0.56170 0.40567
 C1284 C 0.21057 0.57073 0.41661
 C1285 C 0.19350 0.57271 0.41291
 C1286 C 0.18693 0.56590 0.39824
 C1287 C 0.21739 0.57859 0.43128
 C1288 C 0.22285 0.58567 0.44339
 H1289 H 0.16317 0.56106 0.33984
 H1290 H 0.17526 0.57234 0.36561
 H1291 H 0.20383 0.52658 0.37251
 H1292 H 0.19183 0.51553 0.34647
 H1293 H 0.22283 0.54820 0.38251
 H1294 H 0.23428 0.56017 0.40837
 H1295 H 0.18530 0.57968 0.42129
 H1296 H 0.17367 0.56756 0.39569
 C1297 C 0.66257 0.02498 0.81339
 C1298 C 0.66961 0.03020 0.82565
 C1299 C 0.67741 0.03678 0.84047
 C1300 C 0.67457 0.05350 0.84489
 C1301 C 0.68141 0.05982 0.85966
 C1302 C 0.69120 0.04950 0.87025
 C1303 C 0.69420 0.03276 0.86559
 C1304 C 0.68730 0.02644 0.85080
 C1305 C 0.69802 0.05617 0.88618
 C1306 C 0.71449 0.05221 0.89130
 C1307 C 0.72099 0.05894 0.90609
 C1308 C 0.71108 0.06964 0.91596
 C1309 C 0.69463 0.07345 0.91108
 C1310 C 0.68813 0.06677 0.89632
 C1311 C 0.71790 0.07727 0.93074
 C1312 C 0.72335 0.08420 0.94296
 H1313 H 0.66694 0.06161 0.83699
 H1314 H 0.67910 0.07283 0.86276
 H1315 H 0.70154 0.02447 0.87356
 H1316 H 0.68951 0.01345 0.84753
 H1317 H 0.72246 0.04422 0.88368
 H1318 H 0.73378 0.05599 0.90970
 H1319 H 0.68685 0.08171 0.91863
 H1320 H 0.67532 0.06984 0.89287
 C1321 C 0.66374 0.97613 0.69337
 C1322 C 0.67045 0.97057 0.68095
 C1323 C 0.67797 0.96391 0.66587
 C1324 C 0.66910 0.96460 0.65072
 C1325 C 0.67610 0.95779 0.63610
 C1326 C 0.69209 0.95017 0.63642
 C1327 C 0.70097 0.94966 0.65169
 C1328 C 0.69394 0.95650 0.66632
 C1329 C 0.69925 0.94245 0.62099
 C1330 C 0.70775 0.92695 0.62193
 C1331 C 0.71392 0.91936 0.60733
 C1332 C 0.71171 0.92713 0.59161
 C1333 C 0.70345 0.94264 0.59054
 C1334 C 0.69726 0.95026 0.60513
 C1335 C 0.71752 0.91893 0.57658
 C1336 C 0.72227 0.91171 0.56414
 H1337 H 0.65670 0.97025 0.65025
 H1338 H 0.66884 0.95817 0.62462
 H1339 H 0.71339 0.94406 0.65231
 H1340 H 0.70093 0.95592 0.67797
 H1341 H 0.70928 0.92051 0.63390
 H1342 H 0.72023 0.90731 0.60829
 H1343 H 0.70168 0.94877 0.57843
 H1344 H 0.69096 0.96228 0.60401
 C1345 C 0.16352 0.47632 0.19347
 C1346 C 0.17032 0.47078 0.18108
 C1347 C 0.17794 0.46413 0.16605
 C1348 C 0.19344 0.45580 0.16679
 C1349 C 0.20053 0.44895 0.15221
 C1350 C 0.19217 0.45034 0.13668
 C1351 C 0.17666 0.45888 0.13606
 C1352 C 0.16961 0.46572 0.15065
 C1353 C 0.19934 0.44256 0.12128
 C1354 C 0.19830 0.45083 0.10555
 C1355 C 0.20449 0.44319 0.09097
 C1356 C 0.21181 0.42721 0.09192
 C1357 C 0.21308 0.41898 0.10752
 C1358 C 0.20690 0.42659 0.12211
 C1359 C 0.21763 0.41903 0.07688
 C1360 C 0.22238 0.41182 0.06443
 H1361 H 0.20001 0.45453 0.17865
 H1362 H 0.21257 0.44262 0.15306
 H1363 H 0.16980 0.45996 0.12437
 H1364 H 0.15756 0.47208 0.14994
 H1365 H 0.19274 0.46321 0.10453
 H1366 H 0.20347 0.44969 0.07896
 H1367 H 0.21865 0.40657 0.10838
 H1368 H 0.20769 0.41980 0.13397
 C1369 C -0.18491 0.33546 0.47142
 C1370 C -0.17260 0.32803 0.46654
 C1371 C -0.15772 0.31954 0.46057
 C1372 C -0.15836 0.30978 0.44606
 C1373 C -0.14375 0.30214 0.43983
 C1374 C -0.12828 0.30421 0.44804
 C1375 C -0.12782 0.31390 0.46274
 C1376 C -0.14245 0.32151 0.46895
 C1377 C -0.11264 0.29665 0.44105
 C1378 C -0.09750 0.30574 0.44080
 C1379 C -0.08293 0.29888 0.43363
 C1380 C -0.08328 0.28285 0.42665
 C1381 C -0.09822 0.27362 0.42703
 C1382 C -0.11280 0.28045 0.43418
 C1383 C -0.06852 0.27611 0.41852
 C1384 C -0.05633 0.27052 0.41136
 H1385 H -0.17009 0.30825 0.43942
 H1386 H -0.14448 0.29496 0.42837
 H1387 H -0.11616 0.31556 0.46946
 H1388 H -0.14182 0.32905 0.48019
 H1389 H -0.09701 0.31832 0.44577
 H1390 H -0.07146 0.30617 0.43331
 H1391 H -0.09863 0.26119 0.42165
 H1392 H -0.12420 0.27306 0.43436
 C1393 C 0.31447 0.83456 0.97087
 C1394 C 0.32677 0.82714 0.96594
 C1395 C 0.34163 0.81868 0.95991
 C1396 C 0.35684 0.82032 0.96847
 C1397 C 0.37147 0.81276 0.96221
 C1398 C 0.37108 0.80345 0.94726
 C1399 C 0.35568 0.80171 0.93886
 C1400 C 0.34106 0.80929 0.94514
 C1401 C 0.38673 0.79596 0.94021
 C1402 C 0.38653 0.77996 0.93293
 C1403 C 0.40113 0.77320 0.92574
 C1404 C 0.41613 0.78233 0.92573
 C1405 C 0.41652 0.79817 0.93313
 C1406 C 0.40193 0.80495 0.94034
 C1407 C 0.43093 0.77569 0.91760
 C1408 C 0.44315 0.77017 0.91043
 H1409 H 0.35742 0.82757 0.97992
 H1410 H 0.38308 0.81416 0.96908
 H1411 H 0.35500 0.79482 0.92721
 H1412 H 0.32938 0.80802 0.93835
 H1413 H 0.37508 0.77265 0.93282
 H1414 H 0.40069 0.76093 0.92005
 H1415 H 0.42804 0.80539 0.93310
 H1416 H 0.40245 0.81739 0.94563
 C1417 C 1.19320 0.83603 0.02008
 C1418 C 1.18068 0.82936 0.02553
 C1419 C 1.16550 0.82185 0.03207
 C1420 C 1.15139 0.83190 0.03523
 C1421 C 1.13665 0.82476 0.04174
 C1422 C 1.13582 0.80743 0.04519
 C1423 C 1.15007 0.79740 0.04189
 C1424 C 1.16481 0.80458 0.03537
 C1425 C 1.12026 0.79993 0.05244
 C1426 C 1.12119 0.78762 0.06524
 C1427 C 1.10654 0.78097 0.07246
 C1428 C 1.09075 0.78651 0.06699
 C1429 C 1.08967 0.79862 0.05414
 C1430 C 1.10432 0.80529 0.04690
 C1431 C 1.07572 0.78008 0.07490
 C1432 C 1.06327 0.77476 0.08185
 H1433 H 1.15180 0.84529 0.03277
 H1434 H 1.12600 0.83286 0.04437
 H1435 H 1.14977 0.78400 0.04423
 H1436 H 1.17565 0.79667 0.03292
 H1437 H 1.13325 0.78339 0.06994
 H1438 H 1.10752 0.77166 0.08246
 H1439 H 1.07752 0.80299 0.04979
 H1440 H 1.10318 0.81459 0.03692
 C1441 C 0.69384 0.33659 0.52053
 C1442 C 0.68134 0.32988 0.52599
 C1443 C 0.66620 0.32230 0.53251
 C1444 C 0.66561 0.30505 0.53593
 C1445 C 0.65089 0.29782 0.54243
 C1446 C 0.63656 0.30777 0.54559
 C1447 C 0.63728 0.32508 0.54203
 C1448 C 0.65200 0.33228 0.53555
 C1449 C 0.62100 0.30021 0.55280
 C1450 C 0.60506 0.30541 0.54713
 C1451 C 0.59042 0.29868 0.55432
 C1452 C 0.59151 0.28666 0.56726
 C1453 C 0.60730 0.28127 0.57286
 C1454 C 0.62195 0.28798 0.56569
 C1455 C 0.57648 0.28016 0.57510
 C1456 C 0.56401 0.27478 0.58199
 H1457 H 0.67652 0.29721 0.53358
 H1458 H 0.65067 0.28443 0.54485
 H1459 H 0.62656 0.33312 0.54455
 H1460 H 0.65233 0.34566 0.53300
 H1461 H 0.60391 0.31464 0.53709
 H1462 H 0.57827 0.30293 0.54988
 H1463 H 0.60829 0.27203 0.58292
 H1464 H 0.63401 0.28387 0.57048
 C1465 C 0.31519 0.16347 0.52100
 C1466 C 0.32765 0.17068 0.52549
 C1467 C 0.34270 0.17881 0.53107
 C1468 C 0.35766 0.16960 0.53244
 C1469 C 0.37219 0.17720 0.53847
 C1470 C 0.37196 0.19415 0.54323
 C1471 C 0.35691 0.20337 0.54161
 C1472 C 0.34237 0.19573 0.53557
 C1473 C 0.38722 0.20196 0.55038
 C1474 C 0.38588 0.21268 0.56429
 C1475 C 0.40028 0.21933 0.57161
 C1476 C 0.41622 0.21540 0.56512
 C1477 C 0.41769 0.20498 0.55112
 C1478 C 0.40329 0.19831 0.54378
 C1479 C 0.43102 0.22150 0.57333
 C1480 C 0.44324 0.22643 0.58065
 H1481 H 0.35803 0.15647 0.52907
 H1482 H 0.38349 0.16970 0.53980
 H1483 H 0.35638 0.21648 0.54499
 H1484 H 0.33086 0.20298 0.53454
 H1485 H 0.37372 0.21555 0.56983
 H1486 H 0.39901 0.22730 0.58251
 H1487 H 0.42997 0.20185 0.54600
 H1488 H 0.40473 0.19027 0.53295
 C1489 C 0.81387 0.66472 0.02192
 C1490 C 0.82622 0.67209 0.02646
 C1491 C 0.84114 0.68042 0.03211
 C1492 C 0.83997 0.69596 0.04006
 C1493 C 0.85442 0.70360 0.04627
 C1494 C 0.87025 0.69577 0.04461
 C1495 C 0.87130 0.68027 0.03635
 C1496 C 0.85684 0.67265 0.03017
 C1497 C 0.88550 0.70340 0.05197
 C1498 C 0.90106 0.70276 0.04340
 C1499 C 0.91555 0.70925 0.05075
 C1500 C 0.91466 0.71647 0.06673
 C1501 C 0.89920 0.71737 0.07523
 C1502 C 0.88472 0.71090 0.06791
 C1503 C 0.92963 0.72244 0.07472
 C1504 C 0.94200 0.72727 0.08187
 H1505 H 0.82788 0.70208 0.04163
 H1506 H 0.85323 0.71562 0.05238
 H1507 H 0.88324 0.67380 0.03508
 H1508 H 0.85788 0.66058 0.02410
 H1509 H 0.90203 0.69724 0.03103
 H1510 H 0.92745 0.70849 0.04406
 H1511 H 0.89839 0.72285 0.08764
 H1512 H 0.87300 0.71136 0.07494
 C1513 C 0.69330 0.66329 0.97344
 C1514 C 0.68101 0.67002 0.96763
 C1515 C 0.66615 0.67763 0.96062
 C1516 C 0.65060 0.67566 0.96877
 C1517 C 0.63601 0.68238 0.96160
 C1518 C 0.63679 0.69114 0.94613
 C1519 C 0.65252 0.69325 0.93814
 C1520 C 0.66709 0.68653 0.94534
 C1521 C 0.62121 0.69768 0.93814
 C1522 C 0.61891 0.69628 0.92066
 C1523 C 0.60415 0.70215 0.91314
 C1524 C 0.59148 0.70949 0.92296
 C1525 C 0.59364 0.71100 0.94036
 C1526 C 0.60841 0.70512 0.94792
 C1527 C 0.57631 0.71542 0.91508
 C1528 C 0.56377 0.72029 0.90809
 H1529 H 0.64971 0.66872 0.98056
 H1530 H 0.62407 0.68036 0.96795
 H1531 H 0.65357 0.70012 0.92634
 H1532 H 0.67907 0.68813 0.93892
 H1533 H 0.62840 0.69039 0.91283
 H1534 H 0.60259 0.70088 0.89967
 H1535 H 0.58393 0.71671 0.94807
 H1536 H 0.60988 0.70654 0.96137
 C1537 C 0.19486 0.16298 0.47131
 C1538 C 0.18262 0.16960 0.46527
 C1539 C 0.16778 0.17702 0.45803
 C1540 C 0.15645 0.18598 0.46813
 C1541 C 0.14161 0.19246 0.46123
 C1542 C 0.13790 0.19002 0.44413
 C1543 C 0.14949 0.18118 0.43405
 C1544 C 0.16431 0.17473 0.44096
 C1545 C 0.12192 0.19640 0.43688
 C1546 C 0.11283 0.18659 0.42551
 C1547 C 0.09788 0.19261 0.41852
 C1548 C 0.09177 0.20850 0.42279
 C1549 C 0.10064 0.21833 0.43417
 C1550 C 0.11561 0.21232 0.44120
 C1551 C 0.07665 0.21481 0.41509
 C1552 C 0.06414 0.21993 0.40823
 H1553 H 0.15896 0.18774 0.48138
 H1554 H 0.13287 0.19905 0.46936
 H1555 H 0.14712 0.17930 0.42079
 H1556 H 0.17298 0.16781 0.43303
 H1557 H 0.11721 0.17418 0.42212
 H1558 H 0.09111 0.18489 0.40972
 H1559 H 0.09606 0.23068 0.43750
 H1560 H 0.12240 0.22023 0.44978
 C1561 C 0.58221 0.06235 0.73178
 C1562 C 0.57474 0.07455 0.72667
 C1563 C 0.56626 0.08922 0.72022
 C1564 C 0.56718 0.10440 0.72883
 C1565 C 0.55985 0.11890 0.72201
 C1566 C 0.55152 0.11840 0.70645
 C1567 C 0.55041 0.10300 0.69805
 C1568 C 0.55775 0.08852 0.70489
 C1569 C 0.54460 0.13396 0.69867
 C1570 C 0.52917 0.13373 0.69010
 C1571 C 0.52315 0.14820 0.68200
 C1572 C 0.53244 0.16306 0.68237
 C1573 C 0.54765 0.16348 0.69109
 C1574 C 0.55369 0.14905 0.69920
 C1575 C 0.52677 0.17765 0.67320
 C1576 C 0.52230 0.18979 0.66519
 H1577 H 0.57376 0.10508 0.74071
 H1578 H 0.56074 0.13052 0.72887
 H1579 H 0.54430 0.10224 0.68594
 H1580 H 0.55707 0.07685 0.69806
 H1581 H 0.52179 0.12237 0.68963
 H1582 H 0.51136 0.14773 0.67528
 H1583 H 0.55499 0.17490 0.69137
 H1584 H 0.56572 0.14957 0.70548
 C1585 C 1.08156 0.56235 0.23166
 C1586 C 1.07409 0.57455 0.22658
 C1587 C 1.06561 0.58924 0.22017
 C1588 C 1.06647 0.60438 0.22887
 C1589 C 1.05915 0.61891 0.22208
 C1590 C 1.05090 0.61848 0.20648
 C1591 C 1.04985 0.60312 0.19799
 C1592 C 1.05718 0.58861 0.20479
 C1593 C 1.04399 0.63407 0.19874
 C1594 C 1.02861 0.63387 0.19011
 C1595 C 1.02261 0.64837 0.18206
 C1596 C 1.03188 0.66324 0.18255
 C1597 C 1.04705 0.66363 0.19134
 C1598 C 1.05307 0.64916 0.19940
 C1599 C 1.02623 0.67787 0.17342
 C1600 C 1.02177 0.69004 0.16545
 H1601 H 1.07299 0.60500 0.24077
 H1602 H 1.05999 0.63049 0.22901
 H1603 H 1.04380 0.60242 0.18585
 H1604 H 1.05654 0.57698 0.19790
 H1605 H 1.02124 0.62250 0.18955
 H1606 H 1.01085 0.64793 0.17528
 H1607 H 1.05438 0.67505 0.19170
 H1608 H 1.06506 0.64967 0.20573
 C1609 C 0.91965 0.93706 0.22938
 C1610 C 0.92757 0.92520 0.22431
 C1611 C 0.93656 0.91089 0.21792
 C1612 C 0.93088 0.89469 0.22174
 C1613 C 0.93891 0.88077 0.21471
 C1614 C 0.95273 0.88287 0.20372
 C1615 C 0.95855 0.89920 0.20021
 C1616 C 0.95050 0.91311 0.20726
 C1617 C 0.96054 0.86813 0.19541
 C1618 C 0.96514 0.86894 0.17826
 C1619 C 0.97152 0.85478 0.17014
 C1620 C 0.97342 0.83965 0.17902
 C1621 C 0.96920 0.83878 0.19616
 C1622 C 0.96280 0.85293 0.20432
 C1623 C 0.97892 0.82484 0.17033
 C1624 C 0.98308 0.81244 0.16278
 H1625 H 0.92004 0.89283 0.22990
 H1626 H 0.93397 0.86839 0.21748
 H1627 H 0.96928 0.90122 0.19195
 H1628 H 0.95499 0.92561 0.20421
 H1629 H 0.96333 0.88037 0.17099
 H1630 H 0.97465 0.85556 0.15684
 H1631 H 0.97061 0.82712 0.20315
 H1632 H 0.95957 0.85196 0.21757
 C1633 C 0.41882 0.43636 0.72888
 C1634 C 0.42662 0.42444 0.72374
 C1635 C 0.43550 0.41010 0.71729
 C1636 C 0.44976 0.41227 0.70704
 C1637 C 0.45778 0.39835 0.69998
 C1638 C 0.45162 0.38207 0.70306
 C1639 C 0.43746 0.38001 0.71361
 C1640 C 0.42946 0.39394 0.72066
 C1641 C 0.45948 0.36734 0.69478
 C1642 C 0.46130 0.35200 0.70356
 C1643 C 0.46780 0.33789 0.69542
 C1644 C 0.47260 0.33893 0.67844
 C1645 C 0.47113 0.35420 0.66969
 C1646 C 0.46464 0.36831 0.67780
 C1647 C 0.47827 0.32419 0.66974
 C1648 C 0.48261 0.31185 0.66221
 H1649 H 0.45454 0.42473 0.70435
 H1650 H 0.46878 0.40033 0.69207
 H1651 H 0.43226 0.36768 0.71603
 H1652 H 0.41837 0.39213 0.72848
 H1653 H 0.45763 0.35090 0.71669
 H1654 H 0.46887 0.32613 0.70230
 H1655 H 0.47471 0.35511 0.65651
 H1656 H 0.46318 0.37986 0.67063
 C1657 C 0.41686 0.55783 0.76907
 C1658 C 0.42438 0.57029 0.77289
 C1659 C 0.43306 0.58519 0.77794
 C1660 C 0.42955 0.60062 0.77011
 C1661 C 0.43721 0.61526 0.77575
 C1662 C 0.44848 0.61464 0.78932
 C1663 C 0.45216 0.59902 0.79689
 C1664 C 0.44448 0.58441 0.79124
 C1665 C 0.45584 0.63027 0.79605
 C1666 C 0.47265 0.63062 0.80146
 C1667 C 0.47921 0.64504 0.80875
 C1668 C 0.46909 0.65930 0.81071
 C1669 C 0.45247 0.65920 0.80507
 C1670 C 0.44588 0.64480 0.79777
 C1671 C 0.47546 0.67374 0.81927
 C1672 C 0.48053 0.68568 0.82685
 H1673 H 0.42072 0.60136 0.75980
 H1674 H 0.43428 0.62706 0.76954
 H1675 H 0.46058 0.59816 0.80752
 H1676 H 0.44721 0.57255 0.79746
 H1677 H 0.48069 0.61971 0.80012
 H1678 H 0.49210 0.64499 0.81309
 H1679 H 0.44449 0.67013 0.80663
 H1680 H 0.43284 0.64486 0.79396
 C1681 C -0.08414 0.05887 0.26883
 C1682 C -0.07684 0.07148 0.27262
 C1683 C -0.06844 0.08655 0.27762
 C1684 C -0.05124 0.08624 0.28121
 C1685 C -0.04332 0.10065 0.28708
 C1686 C -0.05254 0.11556 0.28946
 C1687 C -0.06977 0.11581 0.28551
 C1688 C -0.07765 0.10139 0.27965
 C1689 C -0.04446 0.13059 0.29669
 C1690 C -0.04850 0.14679 0.29073
 C1691 C -0.04161 0.16094 0.29826
 C1692 C -0.03058 0.15908 0.31181
 C1693 C -0.02625 0.14302 0.31763
 C1694 C -0.03311 0.12886 0.31012
 C1695 C -0.02432 0.17361 0.32029
 C1696 C -0.01932 0.18562 0.32782
 H1697 H -0.04399 0.07481 0.27970
 H1698 H -0.03001 0.10012 0.28982
 H1699 H -0.07727 0.12701 0.28743
 H1700 H -0.09099 0.10174 0.27701
 H1701 H -0.05704 0.14852 0.28029
 H1702 H -0.04506 0.17333 0.29367
 H1703 H -0.01781 0.14145 0.32818
 H1704 H -0.02993 0.11659 0.31517
 C1705 C 0.08127 0.43976 0.27229
 C1706 C 0.07374 0.42720 0.27623
 C1707 C 0.06513 0.41213 0.28137
 C1708 C 0.06576 0.39790 0.27122
 C1709 C 0.05833 0.38293 0.27677
 C1710 C 0.05019 0.38201 0.29257
 C1711 C 0.04936 0.39650 0.30252
 C1712 C 0.05680 0.41144 0.29695
 C1713 C 0.04328 0.36588 0.29902
 C1714 C 0.02803 0.36546 0.30815
 C1715 C 0.02213 0.35040 0.31516
 C1716 C 0.03137 0.33557 0.31312
 C1717 C 0.04637 0.33579 0.30377
 C1718 C 0.05228 0.35082 0.29675
 C1719 C 0.02601 0.32033 0.32137
 C1720 C 0.02193 0.30761 0.32865
 H1721 H 0.07219 0.39830 0.25914
 H1722 H 0.05901 0.37205 0.26874
 H1723 H 0.04342 0.39614 0.31484
 H1724 H 0.05634 0.42235 0.30496
 H1725 H 0.02072 0.37680 0.30995
 H1726 H 0.01052 0.35038 0.32240
 H1727 H 0.05368 0.32440 0.30221
 H1728 H 0.06417 0.35076 0.29000
 C1729 C 0.58171 0.93976 0.77237
 C1730 C 0.57415 0.92722 0.77629
 C1731 C 0.56551 0.91215 0.78140
 C1732 C 0.55725 0.91141 0.79702
 C1733 C 0.54977 0.89648 0.80254
 C1734 C 0.55049 0.88205 0.79250
 C1735 C 0.55855 0.88301 0.77667
 C1736 C 0.56603 0.89797 0.77117
 C1737 C 0.54351 0.86591 0.79889
 C1738 C 0.55242 0.85082 0.79649
 C1739 C 0.54645 0.83578 0.80344
 C1740 C 0.53149 0.83559 0.81285
 C1741 C 0.52235 0.85045 0.81502
 C1742 C 0.52830 0.86552 0.80808
 C1743 C 0.52608 0.82032 0.82103
 C1744 C 0.52195 0.80759 0.82826
 H1745 H 0.55687 0.92229 0.80508
 H1746 H 0.54388 0.89609 0.81488
 H1747 H 0.55915 0.87218 0.76858
 H1748 H 0.57241 0.89841 0.75906
 H1749 H 0.56429 0.85073 0.78970
 H1750 H 0.55369 0.82437 0.80179
 H1751 H 0.51076 0.85045 0.82230
 H1752 H 0.52106 0.87689 0.80998
 C1753 C 0.73236 0.58469 0.06122
 C1754 C 0.72737 0.57735 0.07364
 C1755 C 0.72107 0.56900 0.08855
 C1756 C 0.72160 0.57709 0.10408
 C1757 C 0.71464 0.56945 0.11844
 C1758 C 0.70703 0.55359 0.11745
 C1759 C 0.70680 0.54544 0.10181
 C1760 C 0.71377 0.55311 0.08746
 C1761 C 0.69882 0.54592 0.13252
 C1762 C 0.68321 0.53782 0.13113
 C1763 C 0.67504 0.53138 0.14544
 C1764 C 0.68235 0.53290 0.16131
 C1765 C 0.69800 0.54069 0.16281
 C1766 C 0.70620 0.54715 0.14852
 C1767 C 0.67345 0.52709 0.17610
 C1768 C 0.66568 0.52250 0.18840
 H1769 H 0.72713 0.58944 0.10504
 H1770 H 0.71481 0.57615 0.13022
 H1771 H 0.70120 0.53314 0.10069
 H1772 H 0.71329 0.54674 0.07549
 H1773 H 0.67709 0.53688 0.11904
 H1774 H 0.66288 0.52546 0.14415
 H1775 H 0.70377 0.54194 0.17505
 H1776 H 0.71829 0.55314 0.14997
 C1777 C 0.23015 1.08477 0.56162
 C1778 C 0.22429 1.07794 0.57394
 C1779 C 0.21683 1.07028 0.58869
 C1780 C 0.19979 1.07302 0.59227
 C1781 C 0.19252 1.06615 0.60685
 C1782 C 0.20221 1.05644 0.61808
 C1783 C 0.21930 1.05357 0.61428
 C1784 C 0.22656 1.06049 0.59968
 C1785 C 0.19451 1.04955 0.63378
 C1786 C 0.19825 1.03314 0.63937
 C1787 C 0.19064 1.02663 0.65399
 C1788 C 0.17928 1.03644 0.66320
 C1789 C 0.17563 1.05282 0.65783
 C1790 C 0.18318 1.05934 0.64324
 C1791 C 0.17101 1.02972 0.67797
 C1792 C 0.16367 1.02444 0.69026
 H1793 H 0.19213 1.08056 0.58384
 H1794 H 0.17928 1.06836 0.60928
 H1795 H 0.22711 1.04629 0.62277
 H1796 H 0.23979 1.05835 0.59705
 H1797 H 0.20679 1.02525 0.63227
 H1798 H 0.19351 1.01391 0.65801
 H1799 H 0.16687 1.06053 0.66488
 H1800 H 0.18025 1.07209 0.63941
 C1801 C 0.23371 0.91836 0.93692
 C1802 C 0.22865 0.92640 0.92502
 C1803 C 0.22222 0.93551 0.91070
 C1804 C 0.22537 0.92964 0.89442
 C1805 C 0.21819 0.93776 0.88052
 C1806 C 0.20772 0.95186 0.88272
 C1807 C 0.20492 0.95786 0.89911
 C1808 C 0.21212 0.94972 0.91301
 C1809 C 0.19920 0.95975 0.86804
 C1810 C 0.18225 0.96480 0.86927
 C1811 C 0.17388 0.97125 0.85520
 C1812 C 0.18230 0.97278 0.83972
 C1813 C 0.19924 0.96810 0.83842
 C1814 C 0.20765 0.96164 0.85249
 C1815 C 0.17330 0.97837 0.82503
 C1816 C 0.16548 0.98263 0.81275
 H1817 H 0.23308 0.91858 0.89251
 H1818 H 0.22040 0.93267 0.86810
 H1819 H 0.19708 0.96880 0.90120
 H1820 H 0.20959 0.95436 0.92556
 H1821 H 0.17532 0.96327 0.88098
 H1822 H 0.16073 0.97473 0.85631
 H1823 H 0.20588 0.96923 0.82649
 H1824 H 0.22074 0.95805 0.85119
 C1825 C 0.73338 0.41983 0.43596
 C1826 C 0.72821 0.42775 0.42405
 C1827 C 0.72166 0.43673 0.40970
 C1828 C 0.71101 0.45056 0.41198
 C1829 C 0.70373 0.45856 0.39805
 C1830 C 0.70701 0.45280 0.38165
 C1831 C 0.71800 0.43910 0.37948
 C1832 C 0.72525 0.43112 0.39342
 C1833 C 0.69844 0.46054 0.36690
 C1834 C 0.70709 0.46290 0.35152
 C1835 C 0.69870 0.46926 0.33739
 C1836 C 0.68159 0.47336 0.33846
 C1837 C 0.67297 0.47135 0.35378
 C1838 C 0.68132 0.46500 0.36791
 C1839 C 0.67267 0.47888 0.32370
 C1840 C 0.66494 0.48310 0.31134
 H1841 H 0.70813 0.45499 0.42453
 H1842 H 0.69548 0.46919 0.40011
 H1843 H 0.72058 0.43422 0.36705
 H1844 H 0.73339 0.42036 0.39152
 H1845 H 0.72031 0.45977 0.35040
 H1846 H 0.70549 0.47076 0.32558
 H1847 H 0.65970 0.47438 0.35472
 H1848 H 0.67426 0.46311 0.37949
 C1849 C 0.77334 0.41512 0.55858
 C1850 C 0.77722 0.42212 0.57135
 C1851 C 0.78229 0.43012 0.58664
 C1852 C 0.78277 0.44763 0.58757
 C1853 C 0.78846 0.45532 0.60221
 C1854 C 0.79375 0.44557 0.61609
 C1855 C 0.79299 0.42797 0.61508
 C1856 C 0.78731 0.42032 0.60046
 C1857 C 0.80060 0.45362 0.63135
 C1858 C 0.79680 0.44719 0.64752
 C1859 C 0.80407 0.45416 0.66179
 C1860 C 0.81518 0.46765 0.66011
 C1861 C 0.81878 0.47435 0.64412
 C1862 C 0.81153 0.46741 0.62982
 C1863 C 0.82354 0.47408 0.67468
 C1864 C 0.83092 0.47918 0.68678
 H1865 H 0.77890 0.45533 0.57695
 H1866 H 0.78872 0.46889 0.60267
 H1867 H 0.79722 0.42011 0.62544
 H1868 H 0.78708 0.40676 0.59983
 H1869 H 0.78828 0.43673 0.64912
 H1870 H 0.80121 0.44888 0.67412
 H1871 H 0.82745 0.48472 0.64267
 H1872 H 0.81488 0.47249 0.61755
 C1873 C 0.27312 -0.08585 0.05824
 C1874 C 0.27707 -0.07887 0.07100
 C1875 C 0.28222 -0.07090 0.08627
 C1876 C 0.28154 -0.05342 0.08767
 C1877 C 0.28726 -0.04571 0.10228
 C1878 C 0.29374 -0.05541 0.11568
 C1879 C 0.29417 -0.07298 0.11421
 C1880 C 0.28845 -0.08065 0.09961
 C1881 C 0.30056 -0.04728 0.13090
 C1882 C 0.29781 -0.05436 0.14701
 C1883 C 0.30509 -0.04727 0.16121
 C1884 C 0.31518 -0.03300 0.15953
 C1885 C 0.31772 -0.02566 0.14362
 C1886 C 0.31045 -0.03273 0.12939
 C1887 C 0.32360 -0.02640 0.17398
 C1888 C 0.33104 -0.02117 0.18599
 H1889 H 0.27673 -0.04576 0.07742
 H1890 H 0.28660 -0.03218 0.10311
 H1891 H 0.29932 -0.08078 0.12418
 H1892 H 0.28913 -0.09418 0.09862
 H1893 H 0.29009 -0.06543 0.14861
 H1894 H 0.30305 -0.05305 0.17348
 H1895 H 0.32559 -0.01467 0.14216
 H1896 H 0.31299 -0.02710 0.11716
 C1897 C 0.27313 0.07970 0.43923
 C1898 C 0.27711 0.07192 0.42687
 C1899 C 0.28232 0.06310 0.41199
 C1900 C 0.29793 0.05495 0.41158
 C1901 C 0.30361 0.04740 0.39677
 C1902 C 0.29375 0.04795 0.38213
 C1903 C 0.27791 0.05587 0.38278
 C1904 C 0.27225 0.06341 0.39762
 C1905 C 0.30035 0.04099 0.36609
 C1906 C 0.29808 0.04981 0.35082
 C1907 C 0.30526 0.04389 0.33588
 C1908 C 0.31477 0.02909 0.33599
 C1909 C 0.31680 0.02002 0.35104
 C1910 C 0.30963 0.02591 0.36600
 C1911 C 0.32320 0.02376 0.32085
 C1912 C 0.33064 0.01974 0.30822
 H1913 H 0.30588 0.05473 0.42261
 H1914 H 0.31596 0.04162 0.39663
 H1915 H 0.26995 0.05633 0.37178
 H1916 H 0.26015 0.06972 0.39779
 H1917 H 0.29123 0.06157 0.35050
 H1918 H 0.30371 0.05107 0.32432
 H1919 H 0.32416 0.00855 0.35126
 H1920 H 0.31143 0.01875 0.37752
 C1921 C 0.77242 0.58091 0.93964
 C1922 C 0.77643 0.57315 0.92729
 C1923 C 0.78167 0.56430 0.91243
 C1924 C 0.77167 0.56466 0.89800
 C1925 C 0.77733 0.55704 0.88321
 C1926 C 0.79311 0.54899 0.88266
 C1927 C 0.80291 0.54841 0.89735
 C1928 C 0.79722 0.55603 0.91211
 C1929 C 0.79972 0.54192 0.86668
 C1930 C 0.80888 0.52676 0.86668
 C1931 C 0.81606 0.52075 0.85177
 C1932 C 0.81416 0.52978 0.83668
 C1933 C 0.80478 0.54467 0.83648
 C1934 C 0.79759 0.55070 0.85136
 C1935 C 0.82262 0.52433 0.82160
 C1936 C 0.83008 0.52020 0.80902
 H1937 H 0.75961 0.57105 0.89811
 H1938 H 0.76943 0.55753 0.87218
 H1939 H 0.81521 0.54253 0.89727
 H1940 H 0.80511 0.55578 0.92317
 H1941 H 0.81057 0.51962 0.87823
 H1942 H 0.82332 0.50923 0.85207
 H1943 H 0.80334 0.55182 0.82488
 H1944 H 0.79084 0.56251 0.85097
 C1945 C 0.06112 0.73390 0.58560
 C1946 C 0.07333 0.72901 0.57799
 C1947 C 0.08799 0.72279 0.56930
 C1948 C 0.08716 0.70774 0.56044
 C1949 C 0.10161 0.70111 0.55286
 C1950 C 0.11713 0.70943 0.55408
 C1951 C 0.11777 0.72470 0.56277
 C1952 C 0.10329 0.73132 0.57033
 C1953 C 0.13265 0.70184 0.54688
 C1954 C 0.14780 0.70213 0.55591
 C1955 C 0.16220 0.69418 0.54961
 C1956 C 0.16166 0.68587 0.53419
 C1957 C 0.14675 0.68576 0.52496
 C1958 C 0.13233 0.69370 0.53125
 C1959 C 0.17620 0.67683 0.52824
 C1960 C 0.18827 0.66892 0.52353
 H1961 H 0.07541 0.70098 0.55966
 H1962 H 0.10075 0.68921 0.54648
 H1963 H 0.12947 0.73150 0.56375
 H1964 H 0.10407 0.74297 0.57718
 H1965 H 0.14841 0.70808 0.56809
 H1966 H 0.17365 0.69425 0.55690
 H1967 H 0.14620 0.67935 0.51302
 H1968 H 0.12091 0.69343 0.52391
 C1969 C 0.56158 0.23322 1.08439
 C1970 C 0.57379 0.22821 1.07685
 C1971 C 0.58845 0.22185 1.06827
 C1972 C 0.58750 0.20692 1.05925
 C1973 C 0.60195 0.20013 1.05178
 C1974 C 0.61757 0.20819 1.05329
 C1975 C 0.61833 0.22337 1.06213
 C1976 C 0.60386 0.23013 1.06958
 C1977 C 0.63307 0.20043 1.04623
 C1978 C 0.64810 0.20041 1.05548
 C1979 C 0.66246 0.19232 1.04929
 C1980 C 0.66203 0.18418 1.03378
 C1981 C 0.64724 0.18438 1.02434
 C1982 C 0.63285 0.19245 1.03051
 C1983 C 0.67653 0.17503 1.02792
 C1984 C 0.68858 0.16705 1.02328
 H1985 H 0.57566 0.20035 1.05825
 H1986 H 0.60098 0.18832 1.04527
 H1987 H 0.63013 0.22997 1.06334
 H1988 H 0.60473 0.24170 1.07655
 H1989 H 0.64862 0.20622 1.06772
 H1990 H 0.67382 0.19216 1.05674
 H1991 H 0.64676 0.17811 1.01232
 H1992 H 0.62153 0.19243 1.02301
 C1993 C 0.93772 0.23002 0.92093
 C1994 C 0.92576 0.22482 0.92880
 C1995 C 0.91136 0.21826 0.93772
 C1996 C 0.91170 0.20186 0.94419
 C1997 C 0.89737 0.19505 0.95188
 C1998 C 0.88246 0.20454 0.95316
 C1999 C 0.88234 0.22113 0.94690
 C2000 C 0.89670 0.22793 0.93921
 C2001 C 0.86694 0.19691 0.96036
 C2002 C 0.85128 0.19984 0.95270
 C2003 C 0.83679 0.19193 0.95886
 C2004 C 0.83773 0.18102 0.97275
 C2005 C 0.85319 0.17824 0.98064
 C2006 C 0.86770 0.18614 0.97450
 C2007 C 0.82298 0.17214 0.97839
 C2008 C 0.81061 0.16447 0.98271
 H2009 H 0.92295 0.19423 0.94300
 H2010 H 0.89780 0.18217 0.95636
 H2011 H 0.87113 0.22882 0.94788
 H2012 H 0.89630 0.24063 0.93422
 H2013 H 0.85030 0.20786 0.94165
 H2014 H 0.82491 0.19409 0.95259
 H2015 H 0.85405 0.16981 0.99141
 H2016 H 0.87953 0.18378 0.98078
 C2017 C 0.43748 0.73056 0.41896
 C2018 C 0.42549 0.72544 0.42683
 C2019 C 0.41107 0.71899 0.43580
 C2020 C 0.39659 0.72887 0.43759
 C2021 C 0.38222 0.72223 0.44540
 C2022 C 0.38216 0.70559 0.45151
 C2023 C 0.39688 0.69586 0.44991
 C2024 C 0.41123 0.70253 0.44210
 C2025 C 0.36663 0.69815 0.45889
 C2026 C 0.36745 0.68725 0.47293
 C2027 C 0.35292 0.67953 0.47925
 C2028 C 0.33738 0.68263 0.47165
 C2029 C 0.33638 0.69367 0.45786
 C2030 C 0.35089 0.70140 0.45153
 C2031 C 0.32258 0.67390 0.47745
 C2032 C 0.31020 0.66634 0.48192
 H2033 H 0.39633 0.74163 0.43274
 H2034 H 0.37115 0.73009 0.44661
 H2035 H 0.39717 0.68294 0.45426
 H2036 H 0.42234 0.69473 0.44069
 H2037 H 0.37935 0.68465 0.47899
 H2038 H 0.35383 0.67099 0.48993
 H2039 H 0.32442 0.69607 0.45182
 H2040 H 0.34986 0.70953 0.44056
 C2041 C 0.55955 0.77093 0.41642
 C2042 C 0.57207 0.77485 0.42385
 C2043 C 0.58705 0.77999 0.43240
 C2044 C 0.58637 0.78417 0.44947
 C2045 C 0.60072 0.79014 0.45748
 C2046 C 0.61595 0.79201 0.44849
 C2047 C 0.61656 0.78748 0.43141
 C2048 C 0.60220 0.78153 0.42343
 C2049 C 0.63095 0.79930 0.45665
 C2050 C 0.64717 0.79301 0.45318
 C2051 C 0.66133 0.80055 0.46011
 C2052 C 0.65947 0.81443 0.47061
 C2053 C 0.64339 0.82058 0.47438
 C2054 C 0.62921 0.81307 0.46747
 C2055 C 0.67405 0.82289 0.47688
 C2056 C 0.68615 0.83037 0.48186
 H2057 H 0.57470 0.78304 0.45652
 H2058 H 0.59991 0.79333 0.47068
 H2059 H 0.62801 0.78900 0.42408
 H2060 H 0.60284 0.77842 0.41019
 H2061 H 0.64890 0.78231 0.44506
 H2062 H 0.67373 0.79570 0.45711
 H2063 H 0.64182 0.83139 0.48240
 H2064 H 0.61694 0.81835 0.47019
 C2065 C 0.05856 0.27062 -0.08110
 C2066 C 0.07116 0.27460 -0.07384
 C2067 C 0.08624 0.27981 -0.06551
 C2068 C 0.10127 0.28133 -0.07468
 C2069 C 0.11573 0.28734 -0.06692
 C2070 C 0.11533 0.29195 -0.04986
 C2071 C 0.10023 0.29010 -0.04067
 C2072 C 0.08578 0.28407 -0.04846
 C2073 C 0.13043 0.29930 -0.04194
 C2074 C 0.12882 0.31312 -0.03116
 C2075 C 0.14307 0.32068 -0.02446
 C2076 C 0.15912 0.31453 -0.02841
 C2077 C 0.16086 0.30061 -0.03887
 C2078 C 0.14661 0.29302 -0.04559
 C2079 C 0.17377 0.32301 -0.02233
 C2080 C 0.18592 0.33050 -0.01749
 H2081 H 0.10174 0.27817 -0.08792
 H2082 H 0.12708 0.28885 -0.07441
 H2083 H 0.09958 0.29335 -0.02748
 H2084 H 0.07420 0.28295 -0.04125
 H2085 H 0.11657 0.31840 -0.02830
 H2086 H 0.14159 0.33151 -0.01646
 H2087 H 0.17323 0.29575 -0.04201
 H2088 H 0.14825 0.28229 -0.05368
 C2089 C 0.43852 0.27257 0.08431
 C2090 C 0.42592 0.27644 0.07685
 C2091 C 0.41077 0.28149 0.06835
 C2092 C 0.41162 0.28879 0.05224
 C2093 C 0.39699 0.29469 0.04447
 C2094 C 0.38131 0.29338 0.05274
 C2095 C 0.38057 0.28572 0.06879
 C2096 C 0.39521 0.27984 0.07653
 C2097 C 0.36590 0.30063 0.04505
 C2098 C 0.35036 0.29234 0.04657
 C2099 C 0.33569 0.29975 0.04028
 C2100 C 0.33636 0.31551 0.03237
 C2101 C 0.35180 0.32370 0.03048
 C2102 C 0.36648 0.31632 0.03675
 C2103 C 0.32114 0.32372 0.02701
 C2104 C 0.30845 0.33097 0.02293
 H2105 H 0.42361 0.29014 0.04580
 H2106 H 0.39794 0.30034 0.03204
 H2107 H 0.36875 0.28475 0.07559
 H2108 H 0.39443 0.27431 0.08904
 H2109 H 0.34954 0.28017 0.05271
 H2110 H 0.32380 0.29331 0.04183
 H2111 H 0.35244 0.33596 0.02448
 H2112 H 0.37819 0.32314 0.03559
 C2113 C 0.93795 0.77258 0.58587
 C2114 C 0.92536 0.77642 0.57838
 C2115 C 0.91023 0.78142 0.56981
 C2116 C 0.89472 0.78043 0.57821
 C2117 C 0.88011 0.78624 0.57035
 C2118 C 0.88084 0.79316 0.55397
 C2119 C 0.89645 0.79381 0.54552
 C2120 C 0.91105 0.78798 0.55340
 C2121 C 0.86548 0.80034 0.54610
 C2122 C 0.86625 0.81563 0.53710
 C2123 C 0.85164 0.82299 0.53065
 C2124 C 0.83607 0.81516 0.53306
 C2125 C 0.83520 0.79978 0.54169
 C2126 C 0.84981 0.79239 0.54816
 C2127 C 0.82093 0.82341 0.52753
 C2128 C 0.80830 0.83069 0.52331
 H2129 H 0.89396 0.77547 0.59095
 H2130 H 0.86834 0.78580 0.57730
 H2131 H 0.89739 0.79889 0.53283
 H2132 H 0.92300 0.78881 0.54679
 H2133 H 0.87807 0.82218 0.53551
 H2134 H 0.85244 0.83496 0.52409
 H2135 H 0.82321 0.79363 0.54365
 H2136 H 0.84883 0.78052 0.55485
   
