data_POSCAR
  _audit_creation_date              2014-09-24
  _audit_creation_method            'ToBaCCo'
  _symmetry_space_group_name_H-M    'P1'
  _symmetry_Int_Tables_number       1
  _symmetry_cell_setting            triclinic
  loop_
  _symmetry_equiv_pos_as_xyz
 x,y,z
_cell_length_a 63.3118
_cell_length_b 62.2944
_cell_length_c 62.7877
_cell_angle_alpha 90.165200
_cell_angle_beta 89.864600
_cell_angle_gamma 90.458400
loop_
  _atom_site_label
  _atom_site_type_symbol
  _atom_site_fract_x
  _atom_site_fract_y
  _atom_site_fract_z
C1 C 0.72695 0.65913 0.98296
 H2 H 0.74154 0.66807 0.98475
 C3 C 0.70900 0.66922 0.97478
 H4 H 0.70994 0.68592 0.97011
 C5 C 0.70795 0.62635 0.98632
 H6 H 0.70772 0.60958 0.99074
 C7 C 0.68980 0.63572 0.97825
 H8 H 0.67556 0.62610 0.97675
 N9 N 0.72615 0.63792 0.98809
 C10 C 0.78016 0.63803 1.02564
 H11 H 0.77172 0.62862 1.03734
 C12 C 0.79906 0.64795 1.03141
 H13 H 0.80463 0.64643 1.04763
 C14 C 0.78371 0.65071 0.99025
 H15 H 0.77788 0.65111 0.97408
 C16 C 0.80281 0.66099 0.99540
 H17 H 0.81159 0.66942 0.98315
 Zn18 Zn 0.74947 0.62183 0.99769
 N19 N 0.77296 0.63928 1.00529
 C20 C 0.77609 0.59141 0.97779
 N21 N 0.75816 0.60308 0.97557
 C22 C 0.74746 0.60337 0.95681
 C23 C 0.75497 0.59213 0.93921
 C24 C 0.78429 0.57998 0.96044
 C25 C 0.72966 0.61920 1.03638
 C26 C 0.72142 0.61032 1.05492
 C27 C 0.73482 0.57584 1.04389
 C28 C 0.74263 0.58548 1.02530
 N29 N 0.73996 0.60682 1.02201
 H30 H 0.78451 0.59173 0.99276
 H31 H 0.73346 0.61295 0.95510
 H32 H 0.74632 0.59285 0.92437
 H33 H 0.79906 0.57153 0.96217
 H34 H 0.72804 0.63622 1.03346
 H35 H 0.71445 0.62139 1.06614
 H36 H 0.73666 0.55868 1.04532
 H37 H 0.75069 0.57589 1.01348
 C38 C 0.81090 0.65917 1.01612
 C39 C 0.69026 0.65730 0.97196
 C40 C 0.72361 0.58814 1.05921
 C41 C 0.77392 0.58072 0.94068
 C42 C 0.73599 0.34836 0.52290
 H43 H 0.75129 0.34571 0.53003
 C44 C 0.71823 0.33722 0.53053
 H45 H 0.71997 0.32588 0.54343
 C46 C 0.71482 0.36721 0.49827
 H47 H 0.71333 0.37929 0.48610
 C48 C 0.69672 0.35667 0.50554
 H49 H 0.68159 0.36042 0.49850
 N50 N 0.73402 0.36294 0.50693
 C51 C 0.79571 0.37422 0.47755
 H52 H 0.79411 0.39138 0.47561
 C53 C 0.81363 0.36398 0.46982
 H54 H 0.82557 0.37340 0.46164
 C55 C 0.78167 0.34124 0.49015
 H56 H 0.76912 0.33244 0.49797
 C57 C 0.79949 0.33031 0.48271
 H58 H 0.80059 0.31316 0.48519
 Zn59 Zn 0.75760 0.37973 0.49802
 N60 N 0.78033 0.36290 0.48780
 C61 C 0.78748 0.39626 0.52726
 N62 N 0.76678 0.39647 0.52151
 C63 C 0.75229 0.40766 0.53300
 C64 C 0.75846 0.41916 0.55116
 C65 C 0.79436 0.40781 0.54499
 C66 C 0.74409 0.38684 0.45692
 C67 C 0.73815 0.39822 0.43889
 C68 C 0.74409 0.43129 0.45827
 C69 C 0.74978 0.41920 0.47609
 N70 N 0.74953 0.39738 0.47509
 H71 H 0.79872 0.38693 0.51830
 H72 H 0.73588 0.40736 0.52823
 H73 H 0.74678 0.42785 0.56032
 H74 H 0.81087 0.40729 0.54944
 H75 H 0.74419 0.36948 0.45658
 H76 H 0.73329 0.38937 0.42485
 H77 H 0.74456 0.44864 0.45923
 H78 H 0.75451 0.42722 0.49063
 C79 C 0.81590 0.34177 0.47261
 C80 C 0.69825 0.34157 0.52196
 C81 C 0.73817 0.42077 0.43932
 C82 C 0.77977 0.41933 0.55724
 C83 C 0.23178 -0.15496 0.02211
 H84 H 0.24615 -0.15645 0.03118
 C85 C 0.21360 -0.16595 0.02879
 H86 H 0.21428 -0.17623 0.04265
 C87 C 0.21268 -0.13820 -0.00555
 H88 H 0.21203 -0.12691 -0.01851
 C89 C 0.19414 -0.14863 0.00074
 H90 H 0.17960 -0.14556 -0.00774
 N91 N 0.23106 -0.14138 0.00516
 C92 C 0.29133 -0.13204 -0.02583
 H93 H 0.28690 -0.11725 -0.03349
 C94 C 0.30982 -0.14218 -0.03220
 H95 H 0.31889 -0.13538 -0.04521
 C96 C 0.28507 -0.15849 0.00046
 H97 H 0.27562 -0.16471 0.01335
 C98 C 0.30363 -0.16913 -0.00535
 H99 H 0.30818 -0.18339 0.00326
 Zn100 Zn 0.25497 -0.12395 -0.00210
 N101 N 0.27918 -0.14032 -0.00989
 C102 C 0.28149 -0.09684 0.02165
 N103 N 0.26217 -0.10651 0.02148
 C104 C 0.24873 -0.10477 0.03832
 C105 C 0.25489 -0.09357 0.05660
 C106 C 0.28831 -0.08554 0.03963
 C107 C 0.24458 -0.11744 -0.04436
 C108 C 0.23932 -0.10640 -0.06280
 C109 C 0.24064 -0.07328 -0.04276
 C110 C 0.24605 -0.08509 -0.02465
 N111 N 0.24781 -0.10676 -0.02580
 H112 H 0.29186 -0.09848 0.00805
 H113 H 0.23331 -0.11231 0.03772
 H114 H 0.24404 -0.09249 0.06991
 H115 H 0.30408 -0.07869 0.03975
 H116 H 0.24586 -0.13474 -0.04472
 H117 H 0.23578 -0.11614 -0.07661
 H118 H 0.24028 -0.05603 -0.04108
 H119 H 0.24891 -0.07691 -0.00970
 C120 C 0.31633 -0.16092 -0.02186
 C121 C 0.19442 -0.16252 0.01824
 C122 C 0.23715 -0.08377 -0.06257
 C123 C 0.27507 -0.08409 0.05757
 C124 C 0.22686 0.16723 0.48215
 H125 H 0.24160 0.17608 0.48271
 C126 C 0.20864 0.17705 0.47427
 H127 H 0.20952 0.19344 0.46862
 C128 C 0.20783 0.13484 0.48801
 H129 H 0.20771 0.11829 0.49318
 C130 C 0.18938 0.14397 0.48034
 H131 H 0.17503 0.13439 0.47996
 N132 N 0.22617 0.14633 0.48839
 C133 C 0.28028 0.14937 0.52447
 H134 H 0.27215 0.14044 0.53671
 C135 C 0.29832 0.16106 0.52986
 H136 H 0.30369 0.16104 0.54623
 C137 C 0.28406 0.15921 0.48823
 H138 H 0.27853 0.15807 0.47197
 C139 C 0.30250 0.17089 0.49291
 H140 H 0.31101 0.17897 0.48024
 Zn141 Zn 0.25006 0.13060 0.49719
 N142 N 0.27341 0.14868 0.50397
 C143 C 0.27653 0.10076 0.47617
 N144 N 0.25826 0.11201 0.47474
 C145 C 0.24658 0.11176 0.45658
 C146 C 0.25338 0.10034 0.43878
 C147 C 0.28402 0.08916 0.45860
 C148 C 0.23228 0.12715 0.53716
 C149 C 0.22471 0.11753 0.55565
 C150 C 0.23608 0.08318 0.54201
 C151 C 0.24358 0.09355 0.52369
 N152 N 0.24159 0.11518 0.52170
 H153 H 0.28568 0.10145 0.49069
 H154 H 0.23226 0.12094 0.45553
 H155 H 0.24389 0.10056 0.42446
 H156 H 0.29901 0.08101 0.45971
 H157 H 0.23078 0.14430 0.53505
 H158 H 0.21765 0.12749 0.56785
 H159 H 0.23743 0.06591 0.54328
 H160 H 0.25074 0.08431 0.51103
 C161 C 0.30977 0.17189 0.51400
 C162 C 0.18970 0.16517 0.47288
 C163 C 0.22634 0.09523 0.55821
 C164 C 0.27258 0.08928 0.43943
 C165 C 0.14984 0.48063 0.22658
 H166 H 0.15085 0.47194 0.24144
 C167 C 0.16118 0.47360 0.20880
 H168 H 0.17076 0.45936 0.21012
 C169 C 0.13503 0.50896 0.20661
 H170 H 0.12444 0.52241 0.20561
 C171 C 0.14618 0.50258 0.18849
 H172 H 0.14439 0.51161 0.17390
 N173 N 0.13702 0.49796 0.22517
 C174 C 0.12690 0.51792 0.29095
 H175 H 0.10984 0.51692 0.29142
 C176 C 0.13806 0.52403 0.30912
 H177 H 0.12948 0.52792 0.32355
 C178 C 0.15875 0.51446 0.27133
 H179 H 0.16668 0.51084 0.25651
 C180 C 0.17055 0.52083 0.28911
 H181 H 0.18759 0.52191 0.28792
 Zn182 Zn 0.12030 0.50493 0.24923
 N183 N 0.13733 0.51302 0.27265
 C184 C 0.11015 0.46885 0.27403
 N185 N 0.10448 0.47993 0.25632
 C186 C 0.08936 0.47217 0.24287
 C187 C 0.07887 0.45284 0.24742
 C188 C 0.10043 0.44933 0.27889
 C189 C 0.11362 0.54745 0.23917
 C190 C 0.10274 0.56585 0.23327
 C191 C 0.07000 0.54592 0.23642
 C192 C 0.08155 0.52784 0.24234
 N193 N 0.10302 0.52879 0.24303
 H194 H 0.12274 0.47473 0.28408
 H195 H 0.08569 0.48082 0.22845
 H196 H 0.06692 0.44674 0.23662
 H197 H 0.10531 0.44058 0.29291
 H198 H 0.13068 0.54782 0.24010
 H199 H 0.11161 0.58026 0.22942
 H200 H 0.05294 0.54485 0.23560
 H201 H 0.07334 0.51308 0.24613
 C202 C 0.16015 0.52555 0.30832
 C203 C 0.15927 0.48450 0.18934
 C204 C 0.08065 0.56517 0.23151
 C205 C 0.08464 0.44114 0.26550
 C206 C -0.15581 0.02511 0.23021
 H207 H -0.14745 0.03602 0.24066
 C208 C -0.16824 0.03340 0.21391
 H209 H -0.16818 0.05062 0.21197
 C210 C -0.16454 -0.01036 0.21994
 H211 H -0.16309 -0.02744 0.22234
 C212 C -0.17723 -0.00282 0.20343
 H213 H -0.18579 -0.01455 0.19405
 N214 N -0.15363 0.00358 0.23253
 C215 C -0.13632 -0.03112 0.28973
 H216 H -0.11991 -0.03422 0.28611
 C217 C -0.14537 -0.03946 0.30821
 H218 H -0.13575 -0.04891 0.31884
 C219 C -0.16849 -0.01430 0.28052
 H220 H -0.17731 -0.00435 0.26968
 C221 C -0.17819 -0.02228 0.29895
 H222 H -0.19460 -0.01863 0.30207
 Zn223 Zn -0.13376 -0.00707 0.25247
 N224 N -0.14787 -0.01870 0.27641
 C225 C -0.11469 0.02029 0.28281
 N226 N -0.11582 0.01582 0.26163
 C227 C -0.10579 0.02849 0.24708
 C228 C -0.09495 0.04703 0.25361
 C229 C -0.10377 0.03839 0.29003
 C230 C -0.12784 -0.04890 0.23818
 C231 C -0.11769 -0.06624 0.22870
 C232 C -0.08727 -0.04347 0.22245
 C233 C -0.09802 -0.02650 0.23218
 N234 N -0.11806 -0.02943 0.23955
 H235 H -0.12273 0.01019 0.29421
 H236 H -0.10710 0.02479 0.23029
 H237 H -0.08800 0.05745 0.24169
 H238 H -0.10317 0.04154 0.30698
 H239 H -0.14357 -0.05100 0.24463
 H240 H -0.12576 -0.08162 0.22801
 H241 H -0.07151 -0.04072 0.21624
 H242 H -0.09039 -0.01101 0.23364
 C243 C -0.16654 -0.03499 0.31310
 C244 C -0.17888 0.01946 0.19963
 C245 C -0.09720 -0.06363 0.22045
 C246 C -0.09423 0.05244 0.27535
 C247 C 0.34115 0.51367 0.72455
 H248 H 0.33834 0.52072 0.74000
 C249 C 0.33119 0.52226 0.70666
 H250 H 0.32083 0.53586 0.70868
 C251 C 0.35929 0.48867 0.70293
 H252 H 0.37084 0.47618 0.70117
 C253 C 0.34947 0.49651 0.68473
 H254 H 0.35308 0.48922 0.66950
 N255 N 0.35496 0.49716 0.72244
 C256 C 0.35108 0.45778 0.77561
 H257 H 0.36075 0.44593 0.76784
 C258 C 0.33867 0.45159 0.79295
 H259 H 0.33895 0.43502 0.79813
 C260 C 0.34017 0.49384 0.77948
 H261 H 0.34138 0.51043 0.77467
 C262 C 0.32762 0.48836 0.79704
 H263 H 0.31879 0.50073 0.80519
 Zn264 Zn 0.37020 0.48706 0.74665
 N265 N 0.35155 0.47859 0.76906
 C266 C 0.39433 0.50896 0.77741
 N267 N 0.38743 0.50969 0.75695
 C268 C 0.39141 0.52702 0.74438
 C269 C 0.40221 0.54485 0.75255
 C270 C 0.40506 0.52649 0.78627
 C271 C 0.37707 0.44628 0.72918
 C272 C 0.38861 0.42935 0.72069
 C273 C 0.42073 0.44711 0.73211
 C274 C 0.40853 0.46396 0.74015
 N275 N 0.38711 0.46339 0.73825
 H276 H 0.39093 0.49497 0.78705
 H277 H 0.38581 0.52722 0.72813
 H278 H 0.40464 0.55877 0.74252
 H279 H 0.41013 0.52581 0.80271
 H280 H 0.36003 0.44622 0.72785
 H281 H 0.38039 0.41616 0.71297
 H282 H 0.43779 0.44795 0.73316
 H283 H 0.41620 0.47772 0.74740
 C284 C 0.32681 0.46697 0.80400
 C285 C 0.33543 0.51377 0.68634
 C286 C 0.41071 0.42982 0.72181
 C287 C 0.40882 0.54488 0.77387
 C288 C 0.63829 0.96687 0.73374
 H289 H 0.63199 0.95553 0.74516
 C290 C 0.65076 0.95956 0.71687
 H291 H 0.65359 0.94252 0.71533
 C292 C 0.64140 1.00265 0.72147
 H293 H 0.63762 1.01941 0.72313
 C294 C 0.65410 0.99608 0.70449
 H295 H 0.66014 1.00801 0.69351
 N296 N 0.63348 0.98804 0.73549
 C297 C 0.61816 1.01633 0.79685
 H298 H 0.60177 1.02032 0.79421
 C299 C 0.62812 1.02274 0.81563
 H300 H 0.61907 1.03228 0.82673
 C301 C 0.64955 1.00019 0.78439
 H302 H 0.65772 0.99119 0.77219
 C303 C 0.66021 1.00630 0.80294
 H304 H 0.67639 1.00121 0.80469
 Zn305 Zn 0.61412 0.99682 0.75694
 N306 N 0.62888 1.00515 0.78179
 C307 C 0.59212 0.96796 0.78398
 N308 N 0.59559 0.97352 0.76331
 C309 C 0.58711 0.96181 0.74706
 C310 C 0.57521 0.94329 0.75132
 C311 C 0.57990 0.94992 0.78893
 C312 C 0.60892 1.04011 0.74706
 C313 C 0.59892 1.05831 0.73923
 C314 C 0.56772 1.03675 0.73269
 C315 C 0.57838 1.01889 0.74058
 N316 N 0.59875 1.02081 0.74721
 H317 H 0.59913 0.97722 0.79670
 H318 H 0.59018 0.96646 0.73076
 H319 H 0.56907 0.93374 0.73828
 H320 H 0.57764 0.94546 0.80544
 H321 H 0.62501 1.04128 0.75272
 H322 H 0.60767 1.07330 0.73854
 H323 H 0.55154 1.03489 0.72739
 H324 H 0.57047 1.00347 0.74115
 C325 C 0.64956 1.01774 0.81918
 C326 C 0.65859 0.97421 0.70174
 C327 C 0.57810 1.05676 0.73169
 C328 C 0.57162 0.93718 0.77250
 C329 C 0.02506 0.22717 -0.13988
 H330 H 0.03244 0.24289 -0.13996
 C331 C 0.03430 0.21030 -0.15120
 H332 H 0.04840 0.21346 -0.16048
 C333 C -0.00202 0.20400 -0.12732
 H334 H -0.01586 0.20140 -0.11757
 C335 C 0.00686 0.18664 -0.13807
 H336 H -0.00034 0.17093 -0.13627
 N337 N 0.00710 0.22381 -0.12841
 C338 C -0.02633 0.28382 -0.11856
 H339 H -0.03172 0.28056 -0.10253
 C340 C -0.03302 0.30229 -0.12894
 H341 H -0.04400 0.31278 -0.12087
 C342 C -0.00589 0.27362 -0.14850
 H343 H 0.00466 0.26243 -0.15610
 C344 C -0.01189 0.29217 -0.15937
 H345 H -0.00553 0.29510 -0.17511
 Zn346 Zn -0.00414 0.24635 -0.11159
 N347 N -0.01290 0.26999 -0.12832
 C348 C 0.02267 0.27687 -0.09239
 N349 N 0.01723 0.25572 -0.09263
 C350 C 0.02815 0.24110 -0.08105
 C351 C 0.04558 0.24760 -0.06888
 C352 C 0.03982 0.28404 -0.08041
 C353 C -0.04557 0.23265 -0.10924
 C354 C -0.06431 0.22501 -0.10034
 C355 C -0.04731 0.22468 -0.06599
 C356 C -0.02887 0.23256 -0.07565
 N357 N -0.02831 0.23610 -0.09696
 H358 H 0.01411 0.28821 -0.10199
 H359 H 0.02368 0.22432 -0.08176
 H360 H 0.05430 0.23576 -0.05996
 H361 H 0.04424 0.30086 -0.08103
 H362 H -0.04479 0.23606 -0.12611
 H363 H -0.07765 0.22388 -0.11097
 H364 H -0.04632 0.22106 -0.04922
 H365 H -0.01491 0.23547 -0.06616
 C366 C -0.02554 0.30693 -0.14952
 C367 C 0.02530 0.18959 -0.15023
 C368 C -0.06571 0.22040 -0.07826
 C369 C 0.05169 0.26933 -0.06863
 C370 C 0.47363 0.23763 0.15353
 H371 H 0.46709 0.25345 0.15593
 C372 C 0.46590 0.22024 0.16529
 H373 H 0.45367 0.22298 0.17704
 C374 C 0.49750 0.21501 0.13520
 H375 H 0.50943 0.21289 0.12308
 C376 C 0.49004 0.19716 0.14637
 H377 H 0.49637 0.18152 0.14254
 N378 N 0.48930 0.23477 0.13897
 C379 C 0.51572 0.29892 0.12894
 H380 H 0.51580 0.29901 0.11171
 C381 C 0.52291 0.31686 0.14016
 H382 H 0.52864 0.33075 0.13149
 C383 C 0.50854 0.28046 0.16115
 H384 H 0.50316 0.26616 0.16925
 C385 C 0.51593 0.29798 0.17304
 H386 H 0.51592 0.29716 0.19026
 Zn387 Zn 0.49852 0.25835 0.12230
 N388 N 0.50826 0.28139 0.13950
 C389 C 0.46803 0.28766 0.10738
 N390 N 0.47539 0.26729 0.10543
 C391 C 0.46573 0.25278 0.09236
 C392 C 0.44814 0.25870 0.08033
 C393 C 0.45075 0.29431 0.09548
 C394 C 0.53945 0.24484 0.11624
 C395 C 0.55748 0.23812 0.10546
 C396 C 0.53889 0.24249 0.07219
 C397 C 0.52114 0.24920 0.08367
 N398 N 0.52169 0.24995 0.10531
 H399 H 0.47527 0.29877 0.11841
 H400 H 0.47163 0.23655 0.09141
 H401 H 0.44060 0.24704 0.06997
 H402 H 0.44504 0.31055 0.09738
 H403 H 0.53944 0.24571 0.13345
 H404 H 0.57123 0.23354 0.11455
 H405 H 0.53824 0.24189 0.05497
 H406 H 0.50697 0.25371 0.07529
 C407 C 0.52297 0.31655 0.16248
 C408 C 0.47400 0.19958 0.16167
 C409 C 0.55735 0.23676 0.08314
 C410 C 0.44059 0.27978 0.08175
 C411 C 0.98426 0.73163 0.66081
 H412 H 0.97811 0.74745 0.66408
 C413 C 0.97763 0.71422 0.67319
 H414 H 0.96697 0.71706 0.68638
 C415 C 1.00510 0.70878 0.63928
 H416 H 1.01533 0.70657 0.62568
 C417 C 0.99856 0.69090 0.65095
 H418 H 1.00386 0.67519 0.64595
 N419 N 0.99780 0.72866 0.64422
 C420 C 1.02186 0.79290 0.62873
 H421 H 1.02203 0.79148 0.61164
 C422 C 1.02985 0.81152 0.63811
 H423 H 1.03512 0.82452 0.62795
 C424 C 1.01577 0.77734 0.66254
 H425 H 1.01094 0.76377 0.67206
 C426 C 1.02387 0.79570 0.67265
 H427 H 1.02501 0.79602 0.68985
 Zn428 Zn 1.00494 0.75170 0.62565
 N429 N 1.01465 0.77636 0.64089
 C430 C 0.98213 0.77424 0.59381
 N431 N 0.98073 0.75879 0.60905
 C432 C 0.96194 0.74890 0.61335
 C433 C 0.94348 0.75538 0.60316
 C434 C 0.96405 0.78132 0.58337
 C435 C 1.04611 0.73984 0.61865
 C436 C 1.06405 0.73341 0.60756
 C437 C 1.04378 0.73385 0.57499
 C438 C 1.02610 0.74021 0.58679
 N439 N 1.02764 0.74304 0.60822
 H440 H 0.99719 0.78129 0.58976
 H441 H 0.96104 0.73632 0.62510
 H442 H 0.92856 0.74793 0.60745
 H443 H 0.96541 0.79401 0.57168
 H444 H 1.04680 0.74213 0.63572
 H445 H 1.07843 0.73046 0.61634
 H446 H 1.04238 0.73180 0.55793
 H447 H 1.01121 0.74276 0.57885
 C448 C 1.03111 0.81309 0.66036
 C449 C 0.98447 0.69339 0.66810
 C450 C 1.06309 0.73037 0.58542
 C451 C 0.94435 0.77220 0.58839
 C452 C 0.52513 0.73465 0.34874
 H453 H 0.53147 0.75048 0.34549
 C454 C 0.53334 0.71674 0.33816
 H455 H 0.54593 0.71888 0.32664
 C456 C 0.50197 0.71235 0.36868
 H457 H 0.49026 0.71050 0.38107
 C458 C 0.50985 0.69409 0.35870
 H459 H 0.50370 0.67845 0.36314
 N460 N 0.50965 0.73216 0.36364
 C461 C 0.48286 0.79567 0.37475
 H462 H 0.48209 0.79466 0.39193
 C463 C 0.47616 0.81418 0.36453
 H464 H 0.46961 0.82684 0.37429
 C465 C 0.49135 0.77942 0.34176
 H466 H 0.49733 0.76581 0.33299
 C467 C 0.48451 0.79761 0.33077
 H468 H 0.48603 0.79769 0.31361
 Zn469 Zn 0.50065 0.75595 0.38018
 N470 N 0.49083 0.77901 0.36340
 C471 C 0.53164 0.78553 0.39417
 N472 N 0.52411 0.76518 0.39656
 C473 C 0.53430 0.75074 0.40900
 C474 C 0.55307 0.75651 0.41936
 C475 C 0.55011 0.79203 0.40438
 C476 C 0.46034 0.74074 0.38650
 C477 C 0.44286 0.73250 0.39725
 C478 C 0.46073 0.73937 0.43062
 C479 C 0.47815 0.74720 0.41913
 N480 N 0.47772 0.74730 0.39745
 H481 H 0.52373 0.79670 0.38387
 H482 H 0.52819 0.73453 0.41033
 H483 H 0.56134 0.74461 0.42861
 H484 H 0.55567 0.80837 0.40229
 H485 H 0.46040 0.74128 0.36928
 H486 H 0.42937 0.72668 0.38829
 H487 H 0.46129 0.73878 0.44784
 H488 H 0.49206 0.75282 0.42748
 C489 C 0.47716 0.81571 0.34213
 C490 C 0.52589 0.69613 0.34341
 C491 C 0.44308 0.73148 0.41952
 C492 C 0.56138 0.77734 0.41681
 C493 C 0.39666 -0.02124 0.28133
 H494 H 0.38767 -0.01126 0.29205
 C495 C 0.40842 -0.03810 0.28960
 H496 H 0.40782 -0.04114 0.30656
 C497 C 0.40794 -0.02968 0.24635
 H498 H 0.40767 -0.02644 0.22949
 C499 C 0.42000 -0.04671 0.25396
 H500 H 0.42903 -0.05627 0.24282
 N501 N 0.39612 -0.01768 0.25998
 C502 C 0.38218 0.03985 0.22435
 H503 H 0.36651 0.03539 0.21905
 C504 C 0.39161 0.05860 0.21679
 H505 H 0.38323 0.06812 0.20520
 C506 C 0.41200 0.03259 0.24584
 H507 H 0.41965 0.02246 0.25742
 C508 C 0.42196 0.05145 0.23886
 H509 H 0.43729 0.05575 0.24524
 Zn510 Zn 0.37729 0.00333 0.24921
 N511 N 0.39241 0.02729 0.23860
 C512 C 0.35956 0.03410 0.27670
 N513 N 0.35921 0.01288 0.27150
 C514 C 0.34731 -0.00139 0.28283
 C515 C 0.33557 0.00546 0.30046
 C516 C 0.34797 0.04163 0.29403
 C517 C 0.37189 -0.01064 0.20741
 C518 C 0.36134 -0.01807 0.18936
 C519 C 0.32935 -0.02092 0.21023
 C520 C 0.34053 -0.01326 0.22792
 N521 N 0.36148 -0.00843 0.22625
 H522 H 0.36923 0.04522 0.26774
 H523 H 0.34746 -0.01823 0.27857
 H524 H 0.32641 -0.00613 0.30948
 H525 H 0.34897 0.05849 0.29820
 H526 H 0.38835 -0.00606 0.20622
 H527 H 0.36999 -0.01978 0.17456
 H528 H 0.31266 -0.02452 0.21174
 H529 H 0.33236 -0.01097 0.24285
 C530 C 0.41164 0.06486 0.22426
 C531 C 0.42001 -0.05138 0.27583
 C532 C 0.33978 -0.02325 0.19060
 C533 C 0.33596 0.02723 0.30631
 C534 C 0.10142 1.02364 0.77962
 H535 H 0.09907 1.00748 0.78546
 C536 C 0.09026 1.04067 0.78876
 H537 H 0.07918 1.03756 0.80157
 C538 C 0.11945 1.04766 0.75653
 H539 H 0.13119 1.05047 0.74432
 C540 C 0.10898 1.06510 0.76545
 H541 H 0.11246 1.08115 0.75976
 N542 N 0.11560 1.02741 0.76371
 C543 C 0.12792 0.96582 0.73303
 H544 H 0.14494 0.96741 0.73230
 C545 C 0.11810 0.94779 0.72432
 H546 H 0.12777 0.93541 0.71724
 C547 C 0.09490 0.98010 0.74350
 H548 H 0.08594 0.99294 0.75066
 C549 C 0.08434 0.96229 0.73480
 H550 H 0.06725 0.96160 0.73535
 Zn551 Zn 0.13252 1.00492 0.75286
 N552 N 0.11635 0.98140 0.74261
 C553 C 0.14980 0.97491 0.78135
 N554 N 0.15058 0.99576 0.77500
 C555 C 0.16314 1.01038 0.78512
 C556 C 0.17575 1.00411 0.80227
 C557 C 0.16232 0.96793 0.79811
 C558 C 0.13565 1.01971 0.71196
 C559 C 0.14474 1.02767 0.69338
 C560 C 0.17900 1.02580 0.71015
 C561 C 0.16919 1.01771 0.72851
 N562 N 0.14783 1.01517 0.72911
 H563 H 0.13920 0.96365 0.77373
 H564 H 0.16316 1.02695 0.78003
 H565 H 0.18564 1.01586 0.81027
 H566 H 0.16131 0.95131 0.80305
 H567 H 0.11874 1.01724 0.71283
 H568 H 0.13467 1.03106 0.67990
 H569 H 0.19594 1.02829 0.71002
 H570 H 0.17858 1.01372 0.74227
 C571 C 0.09600 0.94587 0.72498
 C572 C 0.09429 1.06171 0.78183
 C573 C 0.16664 1.03114 0.69237
 C574 C 0.17547 0.98258 0.80881
 C575 C 0.59866 0.52544 0.28077
 H576 H 0.59660 0.50968 0.28769
 C577 C 0.58754 0.54291 0.28904
 H578 H 0.57661 0.54030 0.30208
 C579 C 0.61560 0.54794 0.25551
 H580 H 0.62701 0.55004 0.24287
 C581 C 0.60500 0.56582 0.26340
 H582 H 0.60847 0.58142 0.25663
 N583 N 0.61223 0.52820 0.26417
 C584 C 0.62186 0.46440 0.23693
 H585 H 0.63891 0.46495 0.23577
 C586 C 0.61087 0.44630 0.22985
 H587 H 0.61953 0.43294 0.22319
 C588 C 0.58987 0.48148 0.24648
 H589 H 0.58176 0.49536 0.25269
 C590 C 0.57817 0.46377 0.23922
 H591 H 0.56110 0.46399 0.24016
 Zn592 Zn 0.62847 0.50476 0.25422
 N593 N 0.61134 0.48132 0.24547
 C594 C 0.64657 0.47572 0.28350
 N595 N 0.64670 0.49639 0.27654
 C596 C 0.65898 0.51164 0.28608
 C597 C 0.67185 0.50628 0.30333
 C598 C 0.65951 0.46960 0.30029
 C599 C 0.63171 0.51851 0.21283
 C600 C 0.64107 0.52572 0.19409
 C601 C 0.67535 0.52102 0.21024
 C602 C 0.66526 0.51403 0.22887
 N603 N 0.64379 0.51329 0.22987
 H604 H 0.63624 0.46394 0.27632
 H605 H 0.65854 0.52803 0.28046
 H606 H 0.68144 0.51854 0.31097
 H607 H 0.65918 0.45310 0.30569
 H608 H 0.61468 0.51743 0.21402
 H609 H 0.63116 0.53013 0.18079
 H610 H 0.69243 0.52207 0.20971
 H611 H 0.67453 0.50944 0.24254
 C612 C 0.58876 0.44583 0.23101
 C613 C 0.59075 0.56350 0.28042
 C614 C 0.66313 0.52733 0.19273
 C615 C 0.67225 0.48498 0.31044
 C616 C 0.91265 0.47809 0.77812
 H617 H 0.91460 0.49405 0.78469
 C618 C 0.92363 0.46092 0.78700
 H619 H 0.93451 0.46406 0.79992
 C620 C 0.89567 0.45469 0.75368
 H621 H 0.88426 0.45215 0.74115
 C622 C 0.90599 0.43706 0.76231
 H623 H 0.90223 0.42122 0.75622
 N624 N 0.89915 0.47475 0.76160
 C625 C 0.88875 0.53571 0.72957
 H626 H 0.87219 0.53306 0.72619
 C627 C 0.89874 0.55430 0.72234
 H628 H 0.88977 0.56554 0.71294
 C629 C 0.92042 0.52382 0.74553
 H630 H 0.92884 0.51189 0.75451
 C631 C 0.93100 0.54246 0.73888
 H632 H 0.94741 0.54475 0.74319
 Zn633 Zn 0.88278 0.49782 0.75124
 N634 N 0.89952 0.52106 0.74119
 C635 C 0.86710 0.52843 0.78021
 N636 N 0.86566 0.50756 0.77395
 C637 C 0.85321 0.49327 0.78461
 C638 C 0.84155 0.49987 0.80238
 C639 C 0.85565 0.53571 0.79773
 C640 C 0.87713 0.48224 0.71033
 C641 C 0.86647 0.47615 0.69188
 C642 C 0.83340 0.48329 0.70975
 C643 C 0.84475 0.48913 0.72800
 N644 N 0.86622 0.48848 0.72792
 H645 H 0.87744 0.53945 0.77190
 H646 H 0.85258 0.47669 0.77946
 H647 H 0.83169 0.48835 0.81072
 H648 H 0.85732 0.55231 0.80266
 H649 H 0.89421 0.48208 0.71069
 H650 H 0.87553 0.47089 0.67822
 H651 H 0.81634 0.48427 0.70992
 H652 H 0.83643 0.49456 0.74204
 C653 C 0.92005 0.55818 0.72735
 C654 C 0.92020 0.43996 0.77926
 C655 C 0.84430 0.47681 0.69130
 C656 C 0.84272 0.52136 0.80911
 C657 C 0.26911 0.40468 -0.02328
 H658 H 0.27933 0.40563 -0.00958
 C659 C 0.27482 0.41548 -0.04191
 H660 H 0.28959 0.42434 -0.04237
 C661 C 0.23793 0.39141 -0.03957
 H662 H 0.22345 0.38221 -0.03859
 C663 C 0.24305 0.40194 -0.05854
 H664 H 0.23244 0.40060 -0.07199
 N665 N 0.25124 0.39243 -0.02258
 C666 C 0.24058 0.38538 0.04531
 H667 H 0.24636 0.36924 0.04744
 C668 C 0.23413 0.39732 0.06295
 H669 H 0.23493 0.39021 0.07864
 C670 C 0.23145 0.41375 0.02206
 H671 H 0.23019 0.41987 0.00601
 C672 C 0.22465 0.42621 0.03928
 H673 H 0.21838 0.44206 0.03640
 Zn674 Zn 0.24582 0.37560 0.00215
 N675 N 0.23899 0.39366 0.02537
 C676 C 0.28615 0.37163 0.01918
 N677 N 0.27058 0.36023 0.00931
 C678 C 0.27277 0.33889 0.00524
 C679 C 0.29144 0.32836 0.01071
 C680 C 0.30495 0.36179 0.02494
 C681 C 0.20557 0.35773 0.01031
 C682 C 0.18740 0.34572 0.00605
 C683 C 0.20463 0.33103 -0.02502
 C684 C 0.22263 0.34319 -0.02002
 N685 N 0.22263 0.35659 -0.00285
 H686 H 0.28384 0.38841 0.02289
 H687 H 0.26016 0.32998 -0.00232
 H688 H 0.29307 0.31146 0.00703
 H689 H 0.31695 0.37117 0.03308
 H690 H 0.20577 0.36838 0.02390
 H691 H 0.17398 0.34706 0.01669
 H692 H 0.20460 0.32131 -0.03933
 H693 H 0.23628 0.34268 -0.03040
 C694 C 0.22576 0.41790 0.06003
 C695 C 0.26195 0.41379 -0.06003
 C696 C 0.18652 0.33256 -0.01212
 C697 C 0.30790 0.33990 0.02057
 C698 C 0.76299 0.08822 1.02932
 H699 H 0.77045 0.08457 1.01423
 C700 C 0.76900 0.07726 1.04771
 H701 H 0.78131 0.06535 1.04662
 C702 C 0.73872 0.10910 1.04914
 H703 H 0.72717 0.12175 1.04973
 C704 C 0.74406 0.09839 1.06782
 H705 H 0.73616 0.10270 1.08252
 N706 N 0.74842 0.10411 1.03044
 C707 C 0.74235 0.10489 0.96301
 H708 H 0.75344 0.11769 0.95991
 C709 C 0.73497 0.09259 0.94594
 H710 H 0.74020 0.09656 0.93000
 C711 C 0.72151 0.08470 0.98717
 H712 H 0.71646 0.08157 1.00333
 C713 C 0.71379 0.07190 0.97056
 H714 H 0.70275 0.05904 0.97412
 Zn715 Zn 0.74222 0.12037 1.00581
 N716 N 0.73500 0.10132 0.98308
 C717 C 0.76441 0.15149 0.98170
 N718 N 0.76615 0.13750 0.99820
 C719 C 0.78476 0.13526 1.00876
 C720 C 0.80283 0.14632 1.00196
 C721 C 0.78209 0.16273 0.97430
 C722 C 0.69954 0.12895 1.01471
 C723 C 0.68198 0.14130 1.01987
 C724 C 0.70419 0.17298 1.01899
 C725 C 0.72137 0.15998 1.01383
 N726 N 0.71878 0.13836 1.01177
 H727 H 0.74934 0.15346 0.97388
 H728 H 0.78582 0.12450 1.02214
 H729 H 0.81769 0.14365 1.01000
 H730 H 0.78051 0.17334 0.96077
 H731 H 0.69783 0.11176 1.01349
 H732 H 0.66696 0.13335 1.02265
 H733 H 0.70655 0.19014 1.02053
 H734 H 0.73682 0.16719 1.01188
 C735 C 0.72010 0.07614 0.94951
 C736 C 0.75971 0.08254 1.06740
 C737 C 0.68417 0.16362 1.02215
 C738 C 0.80172 0.15983 0.98418
 C739 C 0.28191 0.60726 0.52575
 H740 H 0.29276 0.61682 0.51643
 C741 C 0.28967 0.59551 0.54286
 H742 H 0.30628 0.59681 0.54672
 C743 C 0.24729 0.59421 0.53220
 H744 H 0.23080 0.59360 0.52799
 C745 C 0.25442 0.58203 0.54939
 H746 H 0.24327 0.57211 0.55808
 N747 N 0.26095 0.60688 0.52101
 C748 C 0.23178 0.62022 0.45963
 H749 H 0.23043 0.63746 0.46104
 C750 C 0.22451 0.60981 0.44138
 H751 H 0.21735 0.61910 0.42880
 C752 C 0.24276 0.58716 0.47445
 H753 H 0.25007 0.57851 0.48735
 C754 C 0.23536 0.57602 0.45653
 H755 H 0.23701 0.55875 0.45568
 Zn756 Zn 0.25112 0.62517 0.49884
 N757 N 0.24100 0.60889 0.47553
 C758 C 0.28110 0.64050 0.46916
 N759 N 0.27394 0.64293 0.48945
 C760 C 0.28398 0.65635 0.50337
 C761 C 0.30240 0.66729 0.49726
 C762 C 0.29921 0.65129 0.46234
 C763 C 0.20961 0.63123 0.51192
 C764 C 0.19166 0.64220 0.51854
 C765 C 0.21178 0.67527 0.51752
 C766 C 0.22944 0.66360 0.51099
 N767 N 0.22813 0.64190 0.50862
 H768 H 0.27325 0.62960 0.45834
 H769 H 0.27825 0.65775 0.51956
 H770 H 0.31068 0.67711 0.50884
 H771 H 0.30459 0.64897 0.44612
 H772 H 0.20861 0.61416 0.50899
 H773 H 0.17725 0.63321 0.52150
 H774 H 0.21307 0.69254 0.51915
 H775 H 0.24405 0.67197 0.50760
 C776 C 0.22637 0.58746 0.43963
 C777 C 0.27585 0.58282 0.55512
 C778 C 0.19256 0.66454 0.52144
 C779 C 0.31048 0.66443 0.47660
 C780 C 0.78250 0.88828 0.48415
 H781 H 0.79256 0.87814 0.49354
 C782 C 0.79078 0.89797 0.46592
 H783 H 0.80709 0.89511 0.46161
 C784 C 0.74942 0.90465 0.47843
 H785 H 0.73337 0.90745 0.48335
 C786 C 0.75706 0.91466 0.46002
 H787 H 0.74657 0.92459 0.45077
 N788 N 0.76188 0.89101 0.48965
 C789 C 0.73036 0.87918 0.55057
 H790 H 0.72879 0.86193 0.54917
 C791 C 0.72290 0.88959 0.56869
 H792 H 0.71530 0.88028 0.58112
 C793 C 0.74219 0.91220 0.53590
 H794 H 0.74997 0.92081 0.52313
 C795 C 0.73473 0.92335 0.55377
 H796 H 0.73679 0.94060 0.55469
 Zn797 Zn 0.75054 0.87366 0.51215
 N798 N 0.74003 0.89048 0.53480
 C799 C 0.78066 0.86088 0.54231
 N800 N 0.77250 0.85600 0.52284
 C801 C 0.78126 0.84046 0.51040
 C802 C 0.79912 0.82943 0.51731
 C803 C 0.79856 0.85042 0.54971
 C804 C 0.71035 0.86810 0.49512
 C805 C 0.69312 0.85750 0.48609
 C806 C 0.71032 0.82371 0.49267
 C807 C 0.72751 0.83505 0.50126
 N808 N 0.72748 0.85693 0.50175
 H809 H 0.77390 0.87358 0.55179
 H810 H 0.77495 0.83731 0.49470
 H811 H 0.80634 0.81763 0.50697
 H812 H 0.80512 0.85488 0.56503
 H813 H 0.70994 0.88529 0.49698
 H814 H 0.67982 0.86670 0.48043
 H815 H 0.71063 0.80635 0.49192
 H816 H 0.74077 0.82630 0.50747
 C817 C 0.72521 0.91193 0.57056
 C818 C 0.77782 0.91079 0.45319
 C819 C 0.69315 0.83510 0.48451
 C820 C 0.80821 0.83476 0.53700
 C821 C -0.02510 0.28104 0.38357
 H822 H -0.01573 0.29140 0.37347
 C823 C -0.04180 0.28973 0.39523
 H824 H -0.04529 0.30665 0.39367
 C825 C -0.03219 0.24655 0.39777
 H826 H -0.02838 0.22979 0.39897
 C827 C -0.04916 0.25455 0.40954
 H828 H -0.05821 0.24378 0.41962
 N829 N -0.02085 0.25968 0.38464
 C830 C 0.03808 0.22636 0.37203
 H831 H 0.03592 0.22324 0.35522
 C832 C 0.05579 0.21850 0.38245
 H833 H 0.06731 0.20940 0.37347
 C834 C 0.02580 0.24251 0.40394
 H835 H 0.01403 0.25195 0.41213
 C836 C 0.04343 0.23500 0.41501
 H837 H 0.04501 0.23848 0.43184
 Zn838 Zn 0.00057 0.24808 0.36659
 N839 N 0.02356 0.23812 0.38282
 C840 C 0.03074 0.27699 0.35004
 N841 N 0.01049 0.26990 0.34779
 C842 C -0.00277 0.27920 0.33354
 C843 C 0.00425 0.29626 0.32085
 C844 C 0.03833 0.29404 0.33785
 C845 C -0.01447 0.20616 0.36313
 C846 C -0.02341 0.18797 0.35375
 C847 C -0.02222 0.20596 0.31975
 C848 C -0.01356 0.22403 0.32989
 N849 N -0.01039 0.22401 0.35135
 H850 H 0.04092 0.26990 0.36181
 H851 H -0.01896 0.27367 0.33237
 H852 H -0.00653 0.30339 0.30959
 H853 H 0.05427 0.29981 0.34058
 H854 H -0.01058 0.20592 0.37985
 H855 H -0.02688 0.17404 0.36348
 H856 H -0.02511 0.20628 0.30276
 H857 H -0.00951 0.23800 0.32058
 C858 C 0.05865 0.22274 0.40422
 C859 C -0.05431 0.27634 0.40812
 C860 C -0.02767 0.18785 0.33187
 C861 C 0.02506 0.30402 0.32302
 C862 C 1.02226 0.77532 0.08417
 H863 H 1.00699 0.78237 0.08124
 C864 C 1.04002 0.78301 0.07325
 H865 H 1.03802 0.79543 0.06142
 C866 C 1.04338 0.75106 0.10356
 H867 H 1.04478 0.73897 0.11576
 C868 C 1.06155 0.75848 0.09327
 H869 H 1.07667 0.75199 0.09788
 N870 N 1.02419 0.75953 0.09895
 C871 C 0.96406 0.72640 0.10760
 H872 H 0.96583 0.72312 0.12439
 C873 C 0.94729 0.71715 0.09650
 H874 H 0.93602 0.70717 0.10499
 C875 C 0.97675 0.74308 0.07617
 H876 H 0.98840 0.75289 0.06818
 C877 C 0.95998 0.73428 0.06443
 H878 H 0.95887 0.73746 0.04753
 Zn879 Zn 1.00028 0.75037 0.11507
 N880 N 0.97833 0.73923 0.09746
 C881 C 0.97095 0.77159 0.14150
 N882 N 0.98975 0.77386 0.13118
 C883 C 1.00059 0.79282 0.13166
 C884 C 0.99219 0.81063 0.14218
 C885 C 0.96195 0.78899 0.15210
 C886 C 1.01311 0.70885 0.12387
 C887 C 1.01893 0.69125 0.13610
 C888 C 1.01503 0.71302 0.16777
 C889 C 1.00918 0.73027 0.15489
 N890 N 1.00841 0.72786 0.13336
 H891 H 0.96272 0.75637 0.14126
 H892 H 1.01566 0.79428 0.12369
 H893 H 1.00077 0.82574 0.14190
 H894 H 0.94686 0.78692 0.16002
 H895 H 1.01236 0.70744 0.10671
 H896 H 1.02293 0.67636 0.12818
 H897 H 1.01549 0.71510 0.18489
 H898 H 1.00530 0.74554 0.16206
 C899 C 0.94506 0.72106 0.07464
 C900 C 1.06010 0.77475 0.07791
 C901 C 1.01993 0.69317 0.15836
 C902 C 0.97244 0.80892 0.15225
 C903 C 0.52759 0.27128 0.58376
 H904 H 0.51212 0.27785 0.58075
 C905 C 0.54534 0.28005 0.57362
 H906 H 0.54324 0.29302 0.56240
 C907 C 0.54904 0.24673 0.60242
 H908 H 0.55057 0.23421 0.61416
 C909 C 0.56720 0.25515 0.59284
 H910 H 0.58243 0.24889 0.59740
 N911 N 0.52971 0.25485 0.59779
 C912 C 0.46770 0.22483 0.60584
 H913 H 0.46870 0.22261 0.62289
 C914 C 0.44943 0.21871 0.59508
 H915 H 0.43654 0.21144 0.60393
 C916 C 0.48325 0.23737 0.57379
 H917 H 0.49641 0.24482 0.56561
 C918 C 0.46516 0.23137 0.56231
 H919 H 0.46447 0.23440 0.54535
 Zn920 Zn 0.50574 0.24506 0.61323
 N921 N 0.48387 0.23460 0.59528
 C922 C 0.47505 0.27499 0.62608
 N923 N 0.49530 0.26863 0.62923
 C924 C 0.50839 0.27970 0.64255
 C925 C 0.50121 0.29803 0.65325
 C926 C 0.46722 0.29298 0.63653
 C927 C 0.51977 0.20383 0.62120
 C928 C 0.52519 0.18579 0.63300
 C929 C 0.51687 0.20535 0.66520
 C930 C 0.51168 0.22312 0.65273
 N931 N 0.51335 0.22205 0.63116
 H932 H 0.46492 0.26640 0.61516
 H933 H 0.52453 0.27452 0.64454
 H934 H 0.51197 0.30693 0.66339
 H935 H 0.45095 0.29749 0.63390
 H936 H 0.52076 0.20340 0.60400
 H937 H 0.53073 0.17164 0.62471
 H938 H 0.51524 0.20637 0.68234
 H939 H 0.50612 0.23763 0.66029
 C940 C 0.44774 0.22248 0.57314
 C941 C 0.56556 0.27216 0.57831
 C942 C 0.52374 0.18634 0.65532
 C943 C 0.48039 0.30501 0.65008
 C944 C 0.48085 0.76810 0.90357
 H945 H 0.49654 0.77510 0.90352
 C946 C 0.46503 0.77706 0.91630
 H947 H 0.46890 0.79065 0.92638
 C948 C 0.45679 0.74211 0.89019
 H949 H 0.45341 0.72888 0.87955
 C950 C 0.44047 0.75071 0.90240
 H951 H 0.42476 0.74393 0.90083
 N952 N 0.47652 0.75086 0.89094
 C953 C 0.53646 0.72053 0.87504
 H954 H 0.53386 0.71831 0.85815
 C955 C 0.55485 0.71285 0.88436
 H956 H 0.56646 0.70495 0.87445
 C957 C 0.52442 0.73372 0.90832
 H958 H 0.51237 0.74154 0.91765
 C959 C 0.54268 0.72630 0.91833
 H960 H 0.54448 0.72847 0.93535
 Zn961 Zn 0.49755 0.74033 0.87214
 N962 N 0.52181 0.73095 0.88697
 C963 C 0.52553 0.76861 0.85047
 N964 N 0.50493 0.76286 0.85322
 C965 C 0.48914 0.77414 0.84390
 C966 C 0.49381 0.79226 0.83160
 C967 C 0.53091 0.78631 0.83799
 C968 C 0.48328 0.69837 0.86922
 C969 C 0.47513 0.67975 0.85992
 C970 C 0.47464 0.69799 0.82600
 C971 C 0.48287 0.71633 0.83600
 N972 N 0.48676 0.71622 0.85729
 H973 H 0.53787 0.75986 0.85835
 H974 H 0.47287 0.76941 0.84656
 H975 H 0.48109 0.80139 0.82466
 H976 H 0.54736 0.79091 0.83637
 H977 H 0.48677 0.69869 0.88608
 H978 H 0.47260 0.66570 0.86973
 H979 H 0.47119 0.69844 0.80912
 H980 H 0.48596 0.73067 0.82681
 C981 C 0.55816 0.71568 0.90629
 C982 C 0.44440 0.76851 0.91565
 C983 C 0.47049 0.67943 0.83806
 C984 C 0.51494 0.79855 0.82865
 C985 C 0.45683 -0.12727 0.31195
 C986 C 0.45546 -0.14684 0.30090
 C987 C 0.46273 -0.16565 0.31065
 C988 C 0.47092 -0.16517 0.33164
 C989 C 0.47246 -0.14506 0.34215
 C990 C 0.46548 -0.12621 0.33244
 C991 C 0.44862 -0.10757 0.30206
 C992 C 0.44980 -0.08806 0.31327
 C993 C 0.44121 -0.06956 0.30421
 C994 C 0.43113 -0.07050 0.28424
 C995 C 0.43054 -0.09013 0.27299
 C996 C 0.43926 -0.10872 0.28185
 C997 C 0.46679 -0.10631 0.34298
 C998 C 0.45911 -0.08755 0.33355
 C999 C 0.44636 -0.14728 0.28050
 C1000 C 0.43835 -0.12857 0.27116
 H1001 H 0.47358 -0.10526 0.35878
 H1002 H 0.46018 -0.07259 0.34233
 H1003 H 0.44517 -0.16227 0.27177
 H1004 H 0.43119 -0.12969 0.25554
 H1005 H 0.46080 -0.18072 0.30223
 H1006 H 0.47963 -0.14376 0.35775
 H1007 H 0.44209 -0.05450 0.31286
 H1008 H 0.42261 -0.09115 0.25774
 C1009 C 0.95454 0.36475 0.81947
 C1010 C 0.95833 0.34631 0.80719
 C1011 C 0.96498 0.32748 0.81732
 C1012 C 0.96809 0.32708 0.83956
 C1013 C 0.96472 0.34600 0.85148
 C1014 C 0.95768 0.36475 0.84158
 C1015 C 0.94675 0.38434 0.80904
 C1016 C 0.94223 0.40252 0.82145
 C1017 C 0.93394 0.42078 0.81160
 C1018 C 0.93039 0.42109 0.78942
 C1019 C 0.93568 0.40285 0.77718
 C1020 C 0.94357 0.38435 0.78694
 C1021 C 0.95344 0.38342 0.85341
 C1022 C 0.94572 0.40194 0.84353
 C1023 C 0.95512 0.34700 0.78507
 C1024 C 0.94797 0.36573 0.77510
 H1025 H 0.95583 0.38362 0.87049
 H1026 H 0.94237 0.41589 0.85327
 H1027 H 0.95805 0.33290 0.77538
 H1028 H 0.94559 0.36554 0.75802
 H1029 H 0.96722 0.31306 0.80793
 H1030 H 0.96754 0.34619 0.86849
 H1031 H 0.92965 0.43444 0.82136
 H1032 H 0.93348 0.40292 0.76007
 C1033 C 0.05465 1.13509 0.82018
 C1034 C 0.06731 1.15188 0.82812
 C1035 C 0.05765 1.16970 0.83761
 C1036 C 0.03545 1.17099 0.83894
 C1037 C 0.02302 1.15409 0.83049
 C1038 C 0.03254 1.13602 0.82131
 C1039 C 0.06475 1.11612 0.81057
 C1040 C 0.05211 1.09911 0.80298
 C1041 C 0.06183 1.08105 0.79395
 C1042 C 0.08397 1.08025 0.79212
 C1043 C 0.09638 1.09745 0.79976
 C1044 C 0.08687 1.11536 0.80915
 C1045 C 0.02040 1.11879 0.81337
 C1046 C 0.03002 1.10061 0.80445
 C1047 C 0.08939 1.15045 0.82656
 C1048 C 0.09901 1.13254 0.81715
 H1049 H 0.00332 1.11931 0.81417
 H1050 H 0.02008 1.08765 0.79860
 H1051 H 0.09934 1.16331 0.83262
 H1052 H 0.11609 1.13211 0.81618
 H1053 H 0.06748 1.18229 0.84436
 H1054 H 0.00595 1.15497 0.83101
 H1055 H 0.05227 1.06787 0.78794
 H1056 H 0.11345 1.09675 0.79851
 C1057 C 0.55279 0.63939 0.31628
 C1058 C 0.54716 0.65638 0.30283
 C1059 C 0.53859 0.67510 0.31174
 C1060 C 0.53540 0.67667 0.33389
 C1061 C 0.54115 0.65946 0.34712
 C1062 C 0.54994 0.64082 0.33841
 C1063 C 0.56195 0.61974 0.30705
 C1064 C 0.56790 0.60292 0.32055
 C1065 C 0.57700 0.58445 0.31175
 C1066 C 0.58006 0.58264 0.28956
 C1067 C 0.57361 0.59958 0.27625
 C1068 C 0.56472 0.61822 0.28492
 C1069 C 0.55596 0.62361 0.35141
 C1070 C 0.56485 0.60500 0.34263
 C1071 C 0.55014 0.65425 0.28074
 C1072 C 0.55871 0.63547 0.27193
 H1073 H 0.55385 0.62455 0.36851
 H1074 H 0.56938 0.59214 0.35322
 H1075 H 0.54582 0.66720 0.27017
 H1076 H 0.56078 0.63450 0.25483
 H1077 H 0.53406 0.68826 0.30150
 H1078 H 0.53898 0.66071 0.36421
 H1079 H 0.58219 0.57176 0.32223
 H1080 H 0.57555 0.59830 0.25914
 C1081 C 0.54770 0.37154 0.19516
 C1082 C 0.55463 0.35098 0.20089
 C1083 C 0.54593 0.33294 0.19065
 C1084 C 0.53077 0.33544 0.17451
 C1085 C 0.52380 0.35614 0.16916
 C1086 C 0.53217 0.37427 0.17950
 C1087 C 0.55732 0.39060 0.20532
 C1088 C 0.55058 0.41117 0.19941
 C1089 C 0.56034 0.42927 0.20854
 C1090 C 0.57701 0.42682 0.22309
 C1091 C 0.58335 0.40609 0.22910
 C1092 C 0.57351 0.38790 0.22030
 C1093 C 0.52562 0.39508 0.17421
 C1094 C 0.53462 0.41322 0.18405
 C1095 C 0.57050 0.34892 0.21633
 C1096 C 0.57983 0.36708 0.22582
 H1097 H 0.51359 0.39738 0.16221
 H1098 H 0.52928 0.42899 0.17935
 H1099 H 0.57598 0.33316 0.22088
 H1100 H 0.59226 0.36480 0.23742
 H1101 H 0.55147 0.31703 0.19466
 H1102 H 0.51200 0.35809 0.15685
 H1103 H 0.55559 0.44521 0.20372
 H1104 H 0.59609 0.40417 0.24042
 C1105 C 0.05819 0.86997 0.68815
 C1106 C 0.04095 0.85997 0.69828
 C1107 C 0.03218 0.84123 0.68932
 C1108 C 0.04064 0.83251 0.67040
 C1109 C 0.05817 0.84264 0.66073
 C1110 C 0.06688 0.86142 0.66941
 C1111 C 0.06737 0.88974 0.69734
 C1112 C 0.08456 0.89969 0.68711
 C1113 C 0.09339 0.91833 0.69596
 C1114 C 0.08545 0.92690 0.71515
 C1115 C 0.06800 0.91686 0.72509
 C1116 C 0.05889 0.89824 0.71622
 C1117 C 0.08409 0.87184 0.65965
 C1118 C 0.09274 0.89071 0.66831
 C1119 C 0.03279 0.86901 0.71709
 C1120 C 0.04164 0.88778 0.72594
 H1121 H 0.09090 0.86539 0.64515
 H1122 H 0.10602 0.89825 0.66030
 H1123 H 0.01949 0.86149 0.72508
 H1124 H 0.03494 0.89415 0.74052
 H1125 H 0.01860 0.83369 0.69681
 H1126 H 0.06515 0.83586 0.64647
 H1127 H 0.10650 0.92614 0.68791
 H1128 H 0.06188 0.92319 0.73994
 C1129 C 0.95854 0.63686 0.69761
 C1130 C 0.94610 0.65531 0.69588
 C1131 C 0.95481 0.67387 0.68671
 C1132 C 0.97594 0.67422 0.67951
 C1133 C 0.98839 0.65570 0.68212
 C1134 C 0.97968 0.63690 0.69086
 C1135 C 0.94908 0.61693 0.70614
 C1136 C 0.96124 0.59821 0.70707
 C1137 C 0.95184 0.57906 0.71429
 C1138 C 0.93047 0.57862 0.72071
 C1139 C 0.91879 0.59782 0.72028
 C1140 C 0.92789 0.61689 0.71273
 C1141 C 0.99153 0.61800 0.69254
 C1142 C 0.98244 0.59895 0.70040
 C1143 C 0.92501 0.65469 0.70288
 C1144 C 0.91610 0.63584 0.71129
 H1145 H 1.00788 0.61782 0.68740
 H1146 H 0.99204 0.58465 0.70111
 H1147 H 0.91526 0.66885 0.70170
 H1148 H 0.89973 0.63600 0.71637
 H1149 H 0.94484 0.68773 0.68451
 H1150 H 1.00477 0.65578 0.67709
 H1151 H 0.96099 0.56444 0.71433
 H1152 H 0.90253 0.59793 0.72569
 C1153 C 0.44815 0.14340 0.19187
 C1154 C 0.43486 0.16066 0.18713
 C1155 C 0.44345 0.17912 0.17763
 C1156 C 0.46523 0.18051 0.17301
 C1157 C 0.47839 0.16318 0.17842
 C1158 C 0.46990 0.14451 0.18763
 C1159 C 0.43904 0.12359 0.20101
 C1160 C 0.45220 0.10605 0.20513
 C1161 C 0.44329 0.08695 0.21305
 C1162 C 0.42138 0.08539 0.21694
 C1163 C 0.40857 0.10343 0.21325
 C1164 C 0.41726 0.12245 0.20507
 C1165 C 0.48266 0.12679 0.19236
 C1166 C 0.47394 0.10786 0.20088
 C1167 C 0.41317 0.15898 0.19163
 C1168 C 0.40453 0.14022 0.20053
 H1169 H 0.49948 0.12745 0.18919
 H1170 H 0.48430 0.09448 0.20403
 H1171 H 0.40275 0.17221 0.18810
 H1172 H 0.38769 0.13953 0.20363
 H1173 H 0.43303 0.19209 0.17327
 H1174 H 0.49522 0.16413 0.17534
 H1175 H 0.45330 0.07318 0.21562
 H1176 H 0.39180 0.10268 0.21664
 C1177 C 0.29470 0.44692 -0.13917
 C1178 C 0.30564 0.46662 -0.13932
 C1179 C 0.31548 0.47352 -0.15818
 C1180 C 0.31463 0.46073 -0.17672
 C1181 C 0.30315 0.44125 -0.17638
 C1182 C 0.29322 0.43424 -0.15764
 C1183 C 0.28518 0.43910 -0.11914
 C1184 C 0.27474 0.41913 -0.11890
 C1185 C 0.26654 0.41131 -0.09964
 C1186 C 0.26889 0.42320 -0.08064
 C1187 C 0.27904 0.44343 -0.08129
 C1188 C 0.28727 0.45142 -0.10050
 C1189 C 0.28228 0.41455 -0.15686
 C1190 C 0.27319 0.40712 -0.13782
 C1191 C 0.30699 0.47873 -0.12044
 C1192 C 0.29797 0.47125 -0.10136
 H1193 H 0.28098 0.40465 -0.17102
 H1194 H 0.26514 0.39171 -0.13784
 H1195 H 0.31536 0.49397 -0.12033
 H1196 H 0.29964 0.48095 -0.08710
 H1197 H 0.32449 0.48839 -0.15820
 H1198 H 0.30221 0.43143 -0.19063
 H1199 H 0.25907 0.39560 -0.09929
 H1200 H 0.28074 0.45280 -0.06681
 C1201 C 0.80805 0.94159 0.37206
 C1202 C 0.82039 0.92802 0.35929
 C1203 C 0.82821 0.93563 0.33981
 C1204 C 0.82388 0.95669 0.33308
 C1205 C 0.81116 0.96999 0.34592
 C1206 C 0.80327 0.96252 0.36549
 C1207 C 0.80020 0.93380 0.39280
 C1208 C 0.78801 0.94740 0.40571
 C1209 C 0.78072 0.93992 0.42551
 C1210 C 0.78564 0.91903 0.43241
 C1211 C 0.79782 0.90563 0.41915
 C1212 C 0.80516 0.91293 0.39938
 C1213 C 0.79095 0.97564 0.37879
 C1214 C 0.78345 0.96821 0.39855
 C1215 C 0.82486 0.90718 0.36636
 C1216 C 0.81737 0.89976 0.38606
 H1217 H 0.78715 0.99183 0.37393
 H1218 H 0.77406 0.97887 0.40832
 H1219 H 0.83435 0.89655 0.35663
 H1220 H 0.82124 0.88360 0.39096
 H1221 H 0.83773 0.92519 0.32990
 H1222 H 0.80794 0.98629 0.34098
 H1223 H 0.77147 0.95039 0.43564
 H1224 H 0.80134 0.88940 0.42409
 C1225 C 0.79131 0.04483 1.14475
 C1226 C 0.79343 0.05765 1.16300
 C1227 C 0.80251 0.04895 1.18136
 C1228 C 0.81003 0.02757 1.18165
 C1229 C 0.80709 0.01484 1.16308
 C1230 C 0.79786 0.02340 1.14470
 C1231 C 0.78250 0.05419 1.12515
 C1232 C 0.78073 0.04147 1.10673
 C1233 C 0.77287 0.05064 1.08797
 C1234 C 0.76701 0.07243 1.08750
 C1235 C 0.76878 0.08484 1.10625
 C1236 C 0.77644 0.07580 1.12510
 C1237 C 0.79558 0.01107 1.12603
 C1238 C 0.78712 0.01994 1.10739
 C1239 C 0.78675 0.07910 1.16246
 C1240 C 0.77847 0.08805 1.14381
 H1241 H 0.80056 -0.00552 1.12575
 H1242 H 0.78581 0.00992 1.09331
 H1243 H 0.78824 0.08917 1.17649
 H1244 H 0.77378 0.10474 1.14400
 H1245 H 0.80330 0.05897 1.19544
 H1246 H 0.81306 -0.00135 1.16218
 H1247 H 0.77135 0.04083 1.07377
 H1248 H 0.76475 0.10171 1.10608
 C1249 C 0.30898 0.54151 0.62988
 C1250 C 0.29674 0.54060 0.64854
 C1251 C 0.30532 0.53137 0.66695
 C1252 C 0.32610 0.52333 0.66682
 C1253 C 0.33813 0.52459 0.64792
 C1254 C 0.32961 0.53349 0.62940
 C1255 C 0.30012 0.55129 0.61052
 C1256 C 0.31242 0.55222 0.59191
 C1257 C 0.30411 0.56189 0.57367
 C1258 C 0.28380 0.57102 0.57401
 C1259 C 0.27158 0.56968 0.59280
 C1260 C 0.27966 0.55979 0.61108
 C1261 C 0.34140 0.53463 0.61045
 C1262 C 0.33291 0.54376 0.59199
 C1263 C 0.27621 0.54902 0.64841
 C1264 C 0.26785 0.55853 0.63003
 H1265 H 0.35734 0.52845 0.60989
 H1266 H 0.34256 0.54440 0.57772
 H1267 H 0.26658 0.54842 0.66269
 H1268 H 0.25203 0.56500 0.63068
 H1269 H 0.29579 0.53031 0.68126
 H1270 H 0.35428 0.51898 0.64765
 H1271 H 0.31353 0.56242 0.55925
 H1272 H 0.25606 0.57687 0.59340
 C1273 C 0.19210 0.54859 0.36395
 C1274 C 0.17733 0.53177 0.36584
 C1275 C 0.16732 0.52391 0.34749
 C1276 C 0.17207 0.53268 0.32737
 C1277 C 0.18736 0.54912 0.32568
 C1278 C 0.19728 0.55730 0.34397
 C1279 C 0.20185 0.55770 0.38331
 C1280 C 0.21592 0.57513 0.38148
 C1281 C 0.22431 0.58444 0.39999
 C1282 C 0.21879 0.57637 0.42020
 C1283 C 0.20515 0.55849 0.42175
 C1284 C 0.19643 0.54922 0.40333
 C1285 C 0.21185 0.57438 0.34275
 C1286 C 0.22096 0.58319 0.36120
 C1287 C 0.17255 0.52349 0.38610
 C1288 C 0.18199 0.53202 0.40452
 H1289 H 0.21599 0.58123 0.32744
 H1290 H 0.23187 0.59658 0.35959
 H1291 H 0.16124 0.51045 0.38775
 H1292 H 0.17768 0.52532 0.41985
 H1293 H 0.15567 0.51112 0.34882
 H1294 H 0.19090 0.55608 0.31026
 H1295 H 0.23496 0.59810 0.39875
 H1296 H 0.20073 0.55237 0.43730
 C1297 C 0.68026 0.03853 0.87576
 C1298 C 0.69230 0.03458 0.85742
 C1299 C 0.68217 0.02736 0.83883
 C1300 C 0.65998 0.02417 0.83828
 C1301 C 0.64836 0.02790 0.85726
 C1302 C 0.65836 0.03514 0.87586
 C1303 C 0.69073 0.04685 0.89511
 C1304 C 0.67857 0.05124 0.91331
 C1305 C 0.68843 0.06006 0.93134
 C1306 C 0.71028 0.06460 0.93123
 C1307 C 0.72231 0.05951 0.91299
 C1308 C 0.71258 0.05077 0.89485
 C1309 C 0.64678 0.03928 0.89454
 C1310 C 0.65672 0.04722 0.91294
 C1311 C 0.71421 0.03839 0.85787
 C1312 C 0.72418 0.04631 0.87627
 H1313 H 0.62985 0.03663 0.89487
 H1314 H 0.64716 0.05046 0.92690
 H1315 H 0.72373 0.03542 0.84382
 H1316 H 0.74107 0.04922 0.87586
 H1317 H 0.69166 0.02543 0.82462
 H1318 H 0.63155 0.02471 0.85797
 H1319 H 0.67893 0.06418 0.94511
 H1320 H 0.73917 0.06263 0.91281
 C1321 C 0.69073 0.95054 0.64624
 C1322 C 0.67729 0.96824 0.64440
 C1323 C 0.66719 0.97618 0.66266
 C1324 C 0.67049 0.96660 0.68272
 C1325 C 0.68447 0.94917 0.68429
 C1326 C 0.69449 0.94098 0.66609
 C1327 C 0.70059 0.94148 0.62693
 C1328 C 0.71343 0.92332 0.62871
 C1329 C 0.72193 0.91413 0.61022
 C1330 C 0.71766 0.92296 0.59006
 C1331 C 0.70528 0.94157 0.58860
 C1332 C 0.69653 0.95080 0.60702
 C1333 C 0.70787 0.92314 0.66727
 C1334 C 0.71714 0.91443 0.64888
 C1335 C 0.67386 0.97734 0.62425
 C1336 C 0.68336 0.96880 0.60589
 H1337 H 0.71094 0.91565 0.68249
 H1338 H 0.72710 0.90046 0.65045
 H1339 H 0.66357 0.99106 0.62264
 H1340 H 0.68012 0.97617 0.59064
 H1341 H 0.65623 0.98936 0.66111
 H1342 H 0.68742 0.94187 0.69963
 H1343 H 0.73168 0.89996 0.61145
 H1344 H 0.70181 0.94833 0.57312
 C1345 C 0.18938 0.45943 0.13330
 C1346 C 0.16916 0.46835 0.13174
 C1347 C 0.15956 0.47682 0.15003
 C1348 C 0.17004 0.47646 0.16983
 C1349 C 0.19049 0.46773 0.17100
 C1350 C 0.20018 0.45909 0.15281
 C1351 C 0.19923 0.44981 0.11426
 C1352 C 0.21919 0.44033 0.11595
 C1353 C 0.22811 0.43044 0.09799
 C1354 C 0.21718 0.42999 0.07846
 C1355 C 0.19737 0.44002 0.07695
 C1356 C 0.18826 0.44983 0.09484
 C1357 C 0.22032 0.44983 0.15378
 C1358 C 0.22965 0.44057 0.13567
 C1359 C 0.15878 0.46829 0.11198
 C1360 C 0.16818 0.45921 0.09383
 H1361 H 0.22884 0.44950 0.16871
 H1362 H 0.24509 0.43336 0.13717
 H1363 H 0.14318 0.47516 0.11057
 H1364 H 0.15955 0.45933 0.07895
 H1365 H 0.14370 0.48313 0.14895
 H1366 H 0.19882 0.46760 0.18605
 H1367 H 0.24343 0.42291 0.09922
 H1368 H 0.18873 0.43948 0.06207
 C1369 C -0.12810 0.31194 0.44826
 C1370 C -0.12660 0.33198 0.45842
 C1371 C -0.14487 0.34129 0.46689
 C1372 C -0.16466 0.33091 0.46495
 C1373 C -0.16580 0.31060 0.45503
 C1374 C -0.14755 0.30105 0.44664
 C1375 C -0.10901 0.30240 0.43875
 C1376 C -0.11053 0.28247 0.42835
 C1377 C -0.09243 0.27375 0.41883
 C1378 C -0.07302 0.28497 0.41943
 C1379 C -0.07175 0.30483 0.43015
 C1380 C -0.08970 0.31360 0.43987
 C1381 C -0.14839 0.28103 0.43628
 C1382 C -0.13019 0.27188 0.42733
 C1383 C -0.10692 0.34250 0.45960
 C1384 C -0.08879 0.33349 0.45044
 H1385 H -0.16327 0.27244 0.43494
 H1386 H -0.13157 0.25649 0.41935
 H1387 H -0.10557 0.35797 0.46745
 H1388 H -0.07397 0.34226 0.45147
 H1389 H -0.14370 0.35671 0.47486
 H1390 H -0.18093 0.30254 0.45327
 H1391 H -0.09358 0.25858 0.41040
 H1392 H -0.05682 0.31344 0.43085
 C1393 C 0.37291 0.80858 0.95611
 C1394 C 0.37215 0.83105 0.95741
 C1395 C 0.35391 0.84083 0.96536
 C1396 C 0.33625 0.82838 0.97157
 C1397 C 0.33746 0.80580 0.97057
 C1398 C 0.35577 0.79582 0.96285
 C1399 C 0.39177 0.79825 0.94697
 C1400 C 0.39241 0.77580 0.94534
 C1401 C 0.41005 0.76610 0.93590
 C1402 C 0.42678 0.77871 0.92765
 C1403 C 0.42596 0.80123 0.92982
 C1404 C 0.40855 0.81106 0.93951
 C1405 C 0.35714 0.77337 0.96125
 C1406 C 0.37518 0.76353 0.95271
 C1407 C 0.38948 0.84332 0.95028
 C1408 C 0.40734 0.83350 0.94140
 H1409 H 0.34407 0.76332 0.96643
 H1410 H 0.37548 0.74617 0.95156
 H1411 H 0.38909 0.86068 0.95124
 H1412 H 0.42021 0.84356 0.93577
 H1413 H 0.35338 0.85818 0.96649
 H1414 H 0.32395 0.79604 0.97510
 H1415 H 0.41060 0.74876 0.93473
 H1416 H 0.43847 0.81120 0.92328
 C1417 C 1.13674 0.81021 0.04196
 C1418 C 1.13785 0.83224 0.03742
 C1419 C 1.15672 0.84095 0.02943
 C1420 C 1.17449 0.82786 0.02627
 C1421 C 1.17320 0.80582 0.03103
 C1422 C 1.15425 0.79686 0.03874
 C1423 C 1.11693 0.80099 0.05047
 C1424 C 1.11576 0.77896 0.05495
 C1425 C 1.09696 0.77034 0.06331
 C1426 C 1.07952 0.78367 0.06764
 C1427 C 1.08103 0.80575 0.06290
 C1428 C 1.09963 0.81446 0.05422
 C1429 C 1.15245 0.77486 0.04334
 C1430 C 1.13351 0.76605 0.05123
 C1431 C 1.12012 0.84516 0.04114
 C1432 C 1.10136 0.83643 0.04948
 H1433 H 1.16581 0.76437 0.04087
 H1434 H 1.13281 0.74902 0.05463
 H1435 H 1.12080 0.86219 0.03772
 H1436 H 1.08811 0.84698 0.05227
 H1437 H 1.15775 0.85799 0.02606
 H1438 H 1.18683 0.79569 0.02850
 H1439 H 1.09597 0.75328 0.06649
 H1440 H 1.06799 0.81632 0.06648
 C1441 C 0.64171 0.31173 0.54560
 C1442 C 0.64240 0.33406 0.54271
 C1443 C 0.66100 0.34367 0.53508
 C1444 C 0.67890 0.33116 0.53050
 C1445 C 0.67805 0.30881 0.53376
 C1446 C 0.65940 0.29897 0.54117
 C1447 C 0.62208 0.30152 0.55345
 C1448 C 0.62130 0.27919 0.55622
 C1449 C 0.60263 0.26959 0.56384
 C1450 C 0.58490 0.28221 0.56900
 C1451 C 0.58603 0.30462 0.56600
 C1452 C 0.60452 0.31433 0.55817
 C1453 C 0.65800 0.27665 0.54413
 C1454 C 0.63926 0.26693 0.55147
 C1455 C 0.62448 0.34633 0.54750
 C1456 C 0.60588 0.33664 0.55516
 H1457 H 0.67149 0.26661 0.54072
 H1458 H 0.63887 0.24967 0.55355
 H1459 H 0.62484 0.36358 0.54535
 H1460 H 0.59244 0.34671 0.55874
 H1461 H 0.66165 0.36091 0.53286
 H1462 H 0.69173 0.29909 0.53011
 H1463 H 0.60193 0.25232 0.56576
 H1464 H 0.57272 0.31460 0.57024
 C1465 C 0.36822 0.19949 0.53477
 C1466 C 0.34949 0.20432 0.54573
 C1467 C 0.33026 0.19623 0.53808
 C1468 C 0.32965 0.18319 0.51974
 C1469 C 0.34846 0.17923 0.50839
 C1470 C 0.36787 0.18720 0.51598
 C1471 C 0.38866 0.20663 0.54369
 C1472 C 0.40752 0.20108 0.53326
 C1473 C 0.42696 0.20692 0.54250
 C1474 C 0.42748 0.21790 0.56215
 C1475 C 0.40838 0.22386 0.57198
 C1476 C 0.38895 0.21817 0.56292
 C1477 C 0.38703 0.18244 0.50569
 C1478 C 0.40650 0.18927 0.51417
 C1479 C 0.35042 0.21646 0.56459
 C1480 C 0.36983 0.22329 0.57303
 H1481 H 0.38700 0.17301 0.49116
 H1482 H 0.42090 0.18492 0.50592
 H1483 H 0.33605 0.22035 0.57313
 H1484 H 0.36989 0.23228 0.58783
 H1485 H 0.31580 0.19946 0.54677
 H1486 H 0.34810 0.16902 0.49438
 H1487 H 0.44161 0.20225 0.53488
 H1488 H 0.40866 0.23265 0.58691
 C1489 C 0.87088 0.68433 0.03593
 C1490 C 0.85763 0.69725 0.02354
 C1491 C 0.83823 0.68881 0.01635
 C1492 C 0.83206 0.66775 0.02182
 C1493 C 0.84588 0.65489 0.03373
 C1494 C 0.86522 0.66310 0.04091
 C1495 C 0.89074 0.69338 0.04446
 C1496 C 0.90356 0.68059 0.05742
 C1497 C 0.92177 0.68958 0.06649
 C1498 C 0.92715 0.71124 0.06288
 C1499 C 0.91454 0.72367 0.04925
 C1500 C 0.89616 0.71483 0.04011
 C1501 C 0.87875 0.65064 0.05344
 C1502 C 0.89761 0.65925 0.06156
 C1503 C 0.86382 0.71851 0.01912
 C1504 C 0.88275 0.72714 0.02726
 H1505 H 0.87455 0.63421 0.05730
 H1506 H 0.90743 0.64923 0.07147
 H1507 H 0.85379 0.72866 0.00956
 H1508 H 0.88675 0.74370 0.02375
 H1509 H 0.82764 0.69880 0.00724
 H1510 H 0.84139 0.63854 0.03767
 H1511 H 0.93157 0.67985 0.07673
 H1512 H 0.91853 0.74040 0.04653
 C1513 C 0.63443 0.68302 0.94366
 C1514 C 0.64166 0.66272 0.93740
 C1515 C 0.66014 0.65471 0.94646
 C1516 C 0.67138 0.66674 0.96179
 C1517 C 0.66413 0.68725 0.96766
 C1518 C 0.64555 0.69544 0.95869
 C1519 C 0.61477 0.69136 0.93436
 C1520 C 0.60738 0.71160 0.94067
 C1521 C 0.58868 0.71945 0.93169
 C1522 C 0.57752 0.70721 0.91643
 C1523 C 0.58513 0.68687 0.91047
 C1524 C 0.60374 0.67889 0.91934
 C1525 C 0.63769 0.71566 0.96457
 C1526 C 0.61894 0.72360 0.95573
 C1527 C 0.63019 0.65074 0.92232
 C1528 C 0.61154 0.65869 0.91344
 H1529 H 0.64607 0.72540 0.97616
 H1530 H 0.61344 0.73925 0.96072
 H1531 H 0.63565 0.63505 0.91738
 H1532 H 0.60314 0.64893 0.90186
 H1533 H 0.66581 0.63906 0.94160
 H1534 H 0.67263 0.69653 0.97954
 H1535 H 0.58303 0.73520 0.93622
 H1536 H 0.57649 0.67719 0.89901
 C1537 C 0.13359 0.19011 0.44425
 C1538 C 0.14007 0.16914 0.43952
 C1539 C 0.15853 0.16131 0.44879
 C1540 C 0.17053 0.17419 0.46281
 C1541 C 0.16396 0.19532 0.46723
 C1542 C 0.14540 0.20334 0.45802
 C1543 C 0.11409 0.19837 0.43454
 C1544 C 0.10754 0.21936 0.43919
 C1545 C 0.08910 0.22720 0.42963
 C1546 C 0.07742 0.21421 0.41540
 C1547 C 0.08413 0.19312 0.41120
 C1548 C 0.10245 0.18514 0.42066
 C1549 C 0.13833 0.22424 0.46233
 C1550 C 0.11973 0.23211 0.45309
 C1551 C 0.12794 0.15636 0.42563
 C1552 C 0.10944 0.16423 0.41636
 H1553 H 0.14725 0.23462 0.47294
 H1554 H 0.11488 0.24834 0.45680
 H1555 H 0.13281 0.14015 0.42188
 H1556 H 0.10057 0.15388 0.40568
 H1557 H 0.16366 0.14519 0.44497
 H1558 H 0.17303 0.20529 0.47809
 H1559 H 0.08415 0.24352 0.43280
 H1560 H 0.07508 0.18291 0.40053
 C1561 C 0.55105 0.11189 0.70174
 C1562 C 0.54684 0.09135 0.69343
 C1563 C 0.55521 0.07333 0.70365
 C1564 C 0.56774 0.07574 0.72205
 C1565 C 0.57130 0.09647 0.73046
 C1566 C 0.56313 0.11461 0.72028
 C1567 C 0.54313 0.13095 0.69049
 C1568 C 0.54786 0.15152 0.69844
 C1569 C 0.54105 0.16962 0.68718
 C1570 C 0.52963 0.16722 0.66806
 C1571 C 0.52458 0.14641 0.66065
 C1572 C 0.53142 0.12824 0.67171
 C1573 C 0.56718 0.13543 0.72800
 C1574 C 0.55972 0.15358 0.71724
 C1575 C 0.53477 0.08928 0.67477
 C1576 C 0.52715 0.10741 0.66412
 H1577 H 0.57646 0.13774 0.74231
 H1578 H 0.56344 0.16935 0.72358
 H1579 H 0.53138 0.07352 0.66822
 H1580 H 0.51810 0.10512 0.64966
 H1581 H 0.55259 0.05754 0.69682
 H1582 H 0.58062 0.09852 0.74479
 H1583 H 0.54523 0.18551 0.69292
 H1584 H 0.51548 0.14435 0.64619
 C1585 C 1.05047 0.62005 0.20457
 C1586 C 1.06594 0.62304 0.22031
 C1587 C 1.07513 0.60502 0.22976
 C1588 C 1.06911 0.58412 0.22341
 C1589 C 1.05311 0.58146 0.20804
 C1590 C 1.04383 0.59937 0.19848
 C1591 C 1.04163 0.63892 0.19370
 C1592 C 1.02674 0.63587 0.17742
 C1593 C 1.01917 0.65376 0.16641
 C1594 C 1.02652 0.67458 0.17144
 C1595 C 1.04104 0.67739 0.18822
 C1596 C 1.04874 0.65958 0.19932
 C1597 C 1.02852 0.59701 0.18246
 C1598 C 1.02011 0.61496 0.17211
 C1599 C 1.07231 0.64399 0.22584
 C1600 C 1.06386 0.66194 0.21553
 H1601 H 1.02323 0.58114 0.17765
 H1602 H 1.00857 0.61241 0.15962
 H1603 H 1.08419 0.64651 0.23802
 H1604 H 1.06945 0.67779 0.22006
 H1605 H 1.08725 0.60723 0.24175
 H1606 H 1.04856 0.56548 0.20284
 H1607 H 1.00777 0.65148 0.15373
 H1608 H 1.04695 0.69331 0.19205
 C1609 C 0.93308 0.88270 0.19057
 C1610 C 0.94507 0.89665 0.20343
 C1611 C 0.93521 0.91435 0.21301
 C1612 C 0.91352 0.91810 0.20977
 C1613 C 0.90186 0.90405 0.19655
 C1614 C 0.91152 0.88629 0.18701
 C1615 C 0.94325 0.86389 0.18073
 C1616 C 0.93117 0.84985 0.16806
 C1617 C 0.94083 0.83190 0.15889
 C1618 C 0.96245 0.82794 0.16223
 C1619 C 0.97439 0.84228 0.17487
 C1620 C 0.96483 0.86026 0.18424
 C1621 C 0.90000 0.87198 0.17409
 C1622 C 0.90965 0.85405 0.16479
 C1623 C 0.96663 0.89250 0.20657
 C1624 C 0.97635 0.87463 0.19712
 H1625 H 0.88335 0.87461 0.17122
 H1626 H 0.90018 0.84335 0.15501
 H1627 H 0.97607 0.90313 0.21646
 H1628 H 0.99300 0.87202 0.19997
 H1629 H 0.94429 0.92491 0.22331
 H1630 H 0.88527 0.90697 0.19362
 H1631 H 0.93161 0.82115 0.14890
 H1632 H 0.99099 0.83926 0.17764
 C1633 C 0.44398 0.37922 0.69055
 C1634 C 0.44863 0.38388 0.71195
 C1635 C 0.43825 0.40099 0.72209
 C1636 C 0.42301 0.41290 0.71101
 C1637 C 0.41878 0.40816 0.68952
 C1638 C 0.42927 0.39141 0.67918
 C1639 C 0.45428 0.36089 0.67998
 C1640 C 0.44941 0.35619 0.65867
 C1641 C 0.45865 0.33838 0.64887
 C1642 C 0.47231 0.32489 0.66031
 C1643 C 0.47742 0.33011 0.68158
 C1644 C 0.46841 0.34813 0.69150
 C1645 C 0.42505 0.38638 0.65779
 C1646 C 0.43502 0.36911 0.64767
 C1647 C 0.46321 0.37104 0.72284
 C1648 C 0.47287 0.35343 0.71281
 H1649 H 0.41380 0.39576 0.64885
 H1650 H 0.43118 0.36564 0.63120
 H1651 H 0.46696 0.37444 0.73934
 H1652 H 0.48378 0.34378 0.72189
 H1653 H 0.44144 0.40459 0.73868
 H1654 H 0.40720 0.41748 0.68093
 H1655 H 0.45500 0.33489 0.63236
 H1656 H 0.48781 0.31982 0.69057
 C1657 C 0.43547 0.60218 0.80108
 C1658 C 0.44235 0.59534 0.78091
 C1659 C 0.43378 0.57644 0.77212
 C1660 C 0.41852 0.56441 0.78343
 C1661 C 0.41194 0.57148 0.80370
 C1662 C 0.42030 0.59037 0.81256
 C1663 C 0.44424 0.62213 0.81032
 C1664 C 0.43724 0.62899 0.83043
 C1665 C 0.44569 0.64787 0.83921
 C1666 C 0.46117 0.65984 0.82815
 C1667 C 0.46789 0.65281 0.80789
 C1668 C 0.45947 0.63393 0.79890
 C1669 C 0.41366 0.59780 0.83262
 C1670 C 0.42198 0.61679 0.84139
 C1671 C 0.45760 0.60758 0.76995
 C1672 C 0.46603 0.62653 0.77880
 H1673 H 0.40192 0.58886 0.84161
 H1674 H 0.41644 0.62194 0.85691
 H1675 H 0.46306 0.60248 0.75438
 H1676 H 0.47777 0.63547 0.76982
 H1677 H 0.43903 0.57104 0.75658
 H1678 H 0.39995 0.56253 0.81235
 H1679 H 0.44012 0.65332 0.85463
 H1680 H 0.47993 0.66177 0.79933
 C1681 C -0.06670 0.11162 0.29759
 C1682 C -0.08500 0.10347 0.30738
 C1683 C -0.09399 0.08435 0.29978
 C1684 C -0.08462 0.07303 0.28276
 C1685 C -0.06629 0.08155 0.27301
 C1686 C -0.05730 0.10091 0.28034
 C1687 C -0.05706 0.13165 0.30574
 C1688 C -0.03874 0.13990 0.29598
 C1689 C -0.02944 0.15877 0.30412
 C1690 C -0.03815 0.16895 0.32212
 C1691 C -0.05662 0.16056 0.33154
 C1692 C -0.06620 0.14197 0.32337
 C1693 C -0.03902 0.10970 0.27092
 C1694 C -0.02995 0.12889 0.27856
 C1695 C -0.09390 0.11449 0.32472
 C1696 C -0.08460 0.13338 0.33264
 H1697 H -0.03163 0.10163 0.25756
 H1698 H -0.01581 0.13505 0.27088
 H1699 H -0.10805 0.10834 0.33238
 H1700 H -0.09182 0.14126 0.34620
 H1701 H -0.10839 0.07837 0.30708
 H1702 H -0.05883 0.07298 0.26001
 H1703 H -0.01513 0.16515 0.29694
 H1704 H -0.06344 0.16850 0.34529
 C1705 C 0.05764 0.38092 0.28373
 C1706 C 0.04438 0.39871 0.28115
 C1707 C 0.05309 0.41826 0.27410
 C1708 C 0.07493 0.42008 0.27028
 C1709 C 0.08791 0.40202 0.27256
 C1710 C 0.07933 0.38235 0.27919
 C1711 C 0.04882 0.36066 0.29216
 C1712 C 0.06220 0.34307 0.29515
 C1713 C 0.05403 0.32422 0.30418
 C1714 C 0.03276 0.32302 0.31085
 C1715 C 0.01942 0.34066 0.30718
 C1716 C 0.02738 0.35952 0.29782
 C1717 C 0.09212 0.36426 0.28195
 C1718 C 0.08367 0.34491 0.28970
 C1719 C 0.02285 0.39675 0.28636
 C1720 C 0.01451 0.37752 0.29464
 H1721 H 0.10886 0.36515 0.27838
 H1722 H 0.09414 0.33142 0.29190
 H1723 H 0.01244 0.41032 0.28444
 H1724 H -0.00208 0.37684 0.29886
 H1725 H 0.04315 0.43225 0.27250
 H1726 H 0.10473 0.40346 0.26953
 H1727 H 0.06437 0.31065 0.30648
 H1728 H 0.00310 0.34010 0.31242
 C1729 C 0.54289 0.87789 0.79121
 C1730 C 0.55973 0.87774 0.77659
 C1731 C 0.56831 0.89733 0.76960
 C1732 C 0.56057 0.91686 0.77764
 C1733 C 0.54350 0.91676 0.79204
 C1734 C 0.53448 0.89728 0.79878
 C1735 C 0.53451 0.85735 0.79945
 C1736 C 0.51794 0.85751 0.81438
 C1737 C 0.51077 0.83800 0.82299
 C1738 C 0.52048 0.81858 0.81723
 C1739 C 0.53679 0.81866 0.80194
 C1740 C 0.54382 0.83802 0.79291
 C1741 C 0.51764 0.89678 0.81341
 C1742 C 0.50943 0.87721 0.82099
 C1743 C 0.56813 0.85803 0.76986
 C1744 C 0.56038 0.83850 0.77797
 H1745 H 0.51095 0.91163 0.81926
 H1746 H 0.49664 0.87753 0.83248
 H1747 H 0.58112 0.85773 0.75859
 H1748 H 0.56761 0.82367 0.77274
 H1749 H 0.58166 0.89740 0.75873
 H1750 H 0.53755 0.93182 0.79824
 H1751 H 0.49841 0.83800 0.83497
 H1752 H 0.54426 0.80370 0.79746
 C1753 C 0.69853 0.56203 0.11558
 C1754 C 0.71494 0.55131 0.10511
 C1755 C 0.72309 0.55976 0.08601
 C1756 C 0.71526 0.57923 0.07737
 C1757 C 0.69838 0.58936 0.08838
 C1758 C 0.69010 0.58092 0.10726
 C1759 C 0.68990 0.55326 0.13562
 C1760 C 0.67317 0.56387 0.14578
 C1761 C 0.66479 0.55537 0.16459
 C1762 C 0.67300 0.53643 0.17335
 C1763 C 0.69003 0.52613 0.16321
 C1764 C 0.69844 0.53443 0.14417
 C1765 C 0.67338 0.59109 0.11793
 C1766 C 0.66504 0.58269 0.13686
 C1767 C 0.72310 0.53247 0.11413
 C1768 C 0.71503 0.52420 0.13334
 H1769 H 0.66668 0.60569 0.11159
 H1770 H 0.65213 0.59100 0.14457
 H1771 H 0.73585 0.52403 0.10629
 H1772 H 0.72177 0.50964 0.13971
 H1773 H 0.73635 0.55162 0.07883
 H1774 H 0.69065 0.60331 0.08192
 H1775 H 0.65185 0.56349 0.17249
 H1776 H 0.69630 0.51146 0.16984
 C1777 C 0.20112 1.06713 0.61520
 C1778 C 0.22024 1.05939 0.60692
 C1779 C 0.22835 1.06830 0.58802
 C1780 C 0.21744 1.08484 0.57754
 C1781 C 0.19809 1.09204 0.58594
 C1782 C 0.18994 1.08338 0.60480
 C1783 C 0.19265 1.05812 0.63520
 C1784 C 0.17361 1.06601 0.64345
 C1785 C 0.16554 1.05739 0.66236
 C1786 C 0.17618 1.04076 0.67295
 C1787 C 0.19542 1.03317 0.66459
 C1788 C 0.20373 1.04182 0.64566
 C1789 C 0.17090 1.09080 0.61354
 C1790 C 0.16289 1.08229 0.63258
 C1791 C 0.23091 1.04307 0.61784
 C1792 C 0.22278 1.03441 0.63685
 H1793 H 0.16216 1.10334 0.60563
 H1794 H 0.14816 1.08847 0.63881
 H1795 H 0.24567 1.03695 0.61164
 H1796 H 0.23149 1.02182 0.64473
 H1797 H 0.24332 1.06276 0.58178
 H1798 H 0.18934 1.10443 0.57779
 H1799 H 0.15096 1.06366 0.66886
 H1800 H 0.20364 1.02028 0.67253
 C1801 C 0.21671 0.94785 0.88223
 C1802 C 0.21452 0.95802 0.90202
 C1803 C 0.22205 0.94784 0.92043
 C1804 C 0.23147 0.92719 0.91938
 C1805 C 0.23423 0.91795 0.89882
 C1806 C 0.22673 0.92798 0.88046
 C1807 C 0.20774 0.95785 0.86303
 C1808 C 0.20934 0.94721 0.84336
 C1809 C 0.19957 0.95599 0.82545
 C1810 C 0.18815 0.97521 0.82711
 C1811 C 0.18741 0.98619 0.84674
 C1812 C 0.19704 0.97744 0.86484
 C1813 C 0.22870 0.91820 0.86036
 C1814 C 0.22009 0.92762 0.84212
 C1815 C 0.20415 0.97789 0.90314
 C1816 C 0.19557 0.98743 0.88488
 H1817 H 0.23656 0.90289 0.85877
 H1818 H 0.22154 0.91932 0.82701
 H1819 H 0.20234 0.98598 0.91833
 H1820 H 0.18739 1.00256 0.88653
 H1821 H 0.21895 0.95561 0.93551
 H1822 H 0.24277 0.90314 0.89663
 H1823 H 0.20033 0.94760 0.81031
 H1824 H 0.17848 1.00091 0.84812
 C1825 C 0.71557 0.45297 0.38370
 C1826 C 0.71089 0.46147 0.40389
 C1827 C 0.71895 0.45139 0.42209
 C1828 C 0.73158 0.43294 0.42014
 C1829 C 0.73682 0.42526 0.39966
 C1830 C 0.72861 0.43499 0.38143
 C1831 C 0.70592 0.46250 0.36461
 C1832 C 0.70967 0.45318 0.34457
 C1833 C 0.69923 0.46125 0.32671
 C1834 C 0.68527 0.47858 0.32878
 C1835 C 0.68232 0.48836 0.34879
 C1836 C 0.69241 0.48015 0.36688
 C1837 C 0.73263 0.42664 0.36103
 C1838 C 0.72323 0.43552 0.34291
 C1839 C 0.69767 0.47943 0.40548
 C1840 C 0.68865 0.48866 0.38728
 H1841 H 0.74273 0.41280 0.35910
 H1842 H 0.72633 0.42828 0.32751
 H1843 H 0.69399 0.48620 0.42094
 H1844 H 0.67828 0.50227 0.38925
 H1845 H 0.71465 0.45736 0.43772
 H1846 H 0.74690 0.41139 0.39791
 H1847 H 0.70149 0.45377 0.31126
 H1848 H 0.67137 0.50156 0.35039
 C1849 C 0.80365 0.44864 0.61400
 C1850 C 0.78535 0.43577 0.61514
 C1851 C 0.77689 0.42706 0.59632
 C1852 C 0.78694 0.43077 0.57663
 C1853 C 0.80497 0.44410 0.57573
 C1854 C 0.81338 0.45311 0.59436
 C1855 C 0.81325 0.45693 0.63379
 C1856 C 0.83178 0.46938 0.63262
 C1857 C 0.84137 0.47646 0.65147
 C1858 C 0.83286 0.47080 0.67148
 C1859 C 0.81396 0.45869 0.67234
 C1860 C 0.80410 0.45169 0.65352
 C1861 C 0.83166 0.46601 0.59382
 C1862 C 0.84067 0.47408 0.61263
 C1863 C 0.77633 0.43133 0.63514
 C1864 C 0.78557 0.43911 0.65400
 H1865 H 0.83925 0.46965 0.57875
 H1866 H 0.85494 0.48374 0.61153
 H1867 H 0.76221 0.42145 0.63625
 H1868 H 0.77830 0.43501 0.66910
 H1869 H 0.76313 0.41662 0.59707
 H1870 H 0.81265 0.44707 0.56056
 H1871 H 0.85563 0.48616 0.65056
 H1872 H 0.80735 0.45408 0.68761
 C1873 C 0.29943 -0.05573 0.11489
 C1874 C 0.28652 -0.07410 0.11617
 C1875 C 0.27817 -0.08299 0.09742
 C1876 C 0.28269 -0.07366 0.07746
 C1877 C 0.29534 -0.05496 0.07656
 C1878 C 0.30383 -0.04600 0.09521
 C1879 C 0.30895 -0.04683 0.13446
 C1880 C 0.32232 -0.02881 0.13308
 C1881 C 0.33196 -0.02089 0.15160
 C1882 C 0.32838 -0.03091 0.17139
 C1883 C 0.31454 -0.04868 0.17257
 C1884 C 0.30488 -0.05681 0.15410
 C1885 C 0.31696 -0.02772 0.09454
 C1886 C 0.32606 -0.01928 0.11315
 C1887 C 0.28258 -0.08348 0.13614
 C1888 C 0.29159 -0.07496 0.15479
 H1889 H 0.32043 -0.02002 0.07946
 H1890 H 0.33630 -0.00531 0.11191
 H1891 H 0.27262 -0.09765 0.13735
 H1892 H 0.28831 -0.08280 0.16983
 H1893 H 0.26873 -0.09755 0.09831
 H1894 H 0.29869 -0.04749 0.06134
 H1895 H 0.34236 -0.00702 0.15062
 H1896 H 0.31186 -0.05658 0.18771
 C1897 C 0.29745 0.06110 0.38230
 C1898 C 0.28739 0.08106 0.38142
 C1899 C 0.27929 0.09004 0.40016
 C1900 C 0.28111 0.07923 0.41976
 C1901 C 0.29126 0.05918 0.42038
 C1902 C 0.29946 0.05003 0.40165
 C1903 C 0.30635 0.05180 0.36264
 C1904 C 0.31672 0.03198 0.36350
 C1905 C 0.32576 0.02357 0.34484
 C1906 C 0.32464 0.03499 0.32553
 C1907 C 0.31378 0.05462 0.32492
 C1908 C 0.30468 0.06313 0.34342
 C1909 C 0.30974 0.03011 0.40184
 C1910 C 0.31822 0.02124 0.38310
 C1911 C 0.28579 0.09178 0.36185
 C1912 C 0.29429 0.08296 0.34316
 H1913 H 0.31137 0.02136 0.41663
 H1914 H 0.32618 0.00594 0.38400
 H1915 H 0.27803 0.10719 0.36099
 H1916 H 0.29288 0.09183 0.32842
 H1917 H 0.27191 0.10566 0.39954
 H1918 H 0.29263 0.05069 0.43534
 H1919 H 0.33430 0.00858 0.34550
 H1920 H 0.31264 0.06337 0.31007
 C1921 C 0.80154 0.55394 0.88422
 C1922 C 0.79205 0.57420 0.88347
 C1923 C 0.78306 0.58271 0.90199
 C1924 C 0.78342 0.57115 0.92125
 C1925 C 0.79307 0.55084 0.92178
 C1926 C 0.80214 0.54213 0.90324
 C1927 C 0.81129 0.54508 0.86478
 C1928 C 0.82102 0.52492 0.86550
 C1929 C 0.83076 0.51684 0.84706
 C1930 C 0.83096 0.52894 0.82811
 C1931 C 0.82078 0.54895 0.82763
 C1932 C 0.81098 0.55712 0.84591
 C1933 C 0.81186 0.52193 0.90331
 C1934 C 0.82114 0.51347 0.88477
 C1935 C 0.79187 0.58566 0.86424
 C1936 C 0.80118 0.57725 0.84576
 H1937 H 0.81241 0.51262 0.91785
 H1938 H 0.82860 0.49790 0.88556
 H1939 H 0.78457 0.60131 0.86349
 H1940 H 0.80084 0.58667 0.83129
 H1941 H 0.77609 0.59853 0.90151
 H1942 H 0.79334 0.54180 0.93649
 H1943 H 0.83876 0.50154 0.84761
 H1944 H 0.82064 0.55822 0.81305
 C1945 C 0.11827 0.70613 0.55418
 C1946 C 0.12045 0.72207 0.56986
 C1947 C 0.10229 0.73058 0.57937
 C1948 C 0.08205 0.72296 0.57360
 C1949 C 0.08017 0.70733 0.55743
 C1950 C 0.09824 0.69883 0.54769
 C1951 C 0.13735 0.69639 0.54486
 C1952 C 0.13517 0.68008 0.52954
 C1953 C 0.15332 0.67026 0.52139
 C1954 C 0.17355 0.67635 0.52872
 C1955 C 0.17543 0.69309 0.54377
 C1956 C 0.15737 0.70315 0.55191
 C1957 C 0.09672 0.68276 0.53201
 C1958 C 0.11488 0.67358 0.52305
 C1959 C 0.14075 0.72880 0.57613
 C1960 C 0.15890 0.71946 0.56734
 H1961 H 0.08136 0.67703 0.52682
 H1962 H 0.11300 0.66104 0.51119
 H1963 H 0.14261 0.74114 0.58819
 H1964 H 0.17425 0.72486 0.57287
 H1965 H 0.10393 0.74289 0.59150
 H1966 H 0.06473 0.70117 0.55302
 H1967 H 0.15169 0.65770 0.50952
 H1968 H 0.19085 0.69777 0.54971
 C1969 C 0.61184 0.20989 1.05291
 C1970 C 0.61450 0.22519 1.06917
 C1971 C 0.59663 0.23460 1.07837
 C1972 C 0.57618 0.22862 1.07163
 C1973 C 0.57384 0.21371 1.05487
 C1974 C 0.59163 0.20421 1.04552
 C1975 C 0.63053 0.19907 1.04400
 C1976 C 0.62781 0.18325 1.02825
 C1977 C 0.64552 0.17225 1.02059
 C1978 C 0.66581 0.17678 1.02875
 C1979 C 0.66827 0.19309 1.04417
 C1980 C 0.65067 0.20423 1.05190
 C1981 C 0.58960 0.18867 1.02938
 C1982 C 0.60739 0.17838 1.02088
 C1983 C 0.63495 0.23031 1.07630
 C1984 C 0.65274 0.21999 1.06783
 H1985 H 0.57410 0.18419 1.02349
 H1986 H 0.60510 0.16625 1.00868
 H1987 H 0.63721 0.24214 1.08879
 H1988 H 0.66819 0.22416 1.07403
 H1989 H 0.59860 0.24630 1.09104
 H1990 H 0.55819 0.20882 1.04973
 H1991 H 0.64349 0.15993 1.00852
 H1992 H 0.68374 0.19653 1.05076
 C1993 C 0.87814 0.19550 0.94845
 C1994 C 0.89332 0.20487 0.96181
 C1995 C 0.91207 0.21318 0.95293
 C1996 C 0.91603 0.21219 0.93061
 C1997 C 0.90025 0.20224 0.91772
 C1998 C 0.88146 0.19414 0.92645
 C1999 C 0.85841 0.18679 0.95767
 C2000 C 0.84327 0.17737 0.94420
 C2001 C 0.82463 0.16897 0.95300
 C2002 C 0.82111 0.16976 0.97513
 C2003 C 0.83646 0.17926 0.98846
 C2004 C 0.85514 0.18789 0.97977
 C2005 C 0.86597 0.18450 0.91349
 C2006 C 0.84717 0.17631 0.92221
 C2007 C 0.88940 0.20589 0.98386
 C2008 C 0.87067 0.19749 0.99269
 H2009 H 0.86836 0.18331 0.89644
 H2010 H 0.83563 0.16902 0.91165
 H2011 H 0.90096 0.21314 0.99442
 H2012 H 0.86836 0.19850 1.00976
 H2013 H 0.92284 0.22124 0.96366
 H2014 H 0.90262 0.19957 0.90088
 H2015 H 0.81307 0.16135 0.94268
 H2016 H 0.83380 0.18000 1.00551
 C2017 C 0.38904 0.70189 0.44796
 C2018 C 0.40181 0.69008 0.43394
 C2019 C 0.41988 0.69977 0.42530
 C2020 C 0.42528 0.72103 0.43068
 C2021 C 0.41280 0.73248 0.44531
 C2022 C 0.39442 0.72302 0.45384
 C2023 C 0.36933 0.69213 0.45609
 C2024 C 0.35607 0.70414 0.46947
 C2025 C 0.33689 0.69502 0.47644
 C2026 C 0.33105 0.67406 0.47009
 C2027 C 0.34492 0.66213 0.45715
 C2028 C 0.36391 0.67114 0.44993
 C2029 C 0.38098 0.73438 0.46762
 C2030 C 0.36210 0.72513 0.47525
 C2031 C 0.39601 0.66900 0.42841
 C2032 C 0.37741 0.65964 0.43636
 H2033 H 0.38492 0.75068 0.47229
 H2034 H 0.35206 0.73456 0.48560
 H2035 H 0.40581 0.65973 0.41768
 H2036 H 0.37338 0.64340 0.43156
 H2037 H 0.42958 0.69098 0.41406
 H2038 H 0.41693 0.74893 0.44930
 H2039 H 0.32633 0.70438 0.48632
 H2040 H 0.34091 0.64581 0.45262
 C2041 C 0.62000 0.79807 0.44452
 C2042 C 0.61467 0.80467 0.42388
 C2043 C 0.59583 0.79726 0.41478
 C2044 C 0.58200 0.78374 0.42629
 C2045 C 0.58778 0.77693 0.44687
 C2046 C 0.60682 0.78406 0.45605
 C2047 C 0.63951 0.80643 0.45441
 C2048 C 0.64480 0.80007 0.47517
 C2049 C 0.66301 0.80875 0.48477
 C2050 C 0.67540 0.82403 0.47385
 C2051 C 0.67006 0.82994 0.45297
 C2052 C 0.65218 0.82112 0.44312
 C2053 C 0.61276 0.77783 0.47668
 C2054 C 0.63146 0.78565 0.48605
 C2055 C 0.62807 0.81891 0.41288
 C2056 C 0.64647 0.82708 0.42238
 H2057 H 0.60278 0.76698 0.48574
 H2058 H 0.63534 0.78061 0.50206
 H2059 H 0.62412 0.82406 0.39692
 H2060 H 0.65620 0.83833 0.41350
 H2061 H 0.59187 0.80217 0.39875
 H2062 H 0.57724 0.76662 0.45592
 H2063 H 0.66708 0.80435 0.50093
 H2064 H 0.67969 0.84165 0.44457
 C2065 C 0.10839 0.29349 -0.03990
 C2066 C 0.08955 0.30503 -0.03773
 C2067 C 0.07086 0.29651 -0.04626
 C2068 C 0.07093 0.27673 -0.05720
 C2069 C 0.08986 0.26503 -0.05867
 C2070 C 0.10868 0.27341 -0.05012
 C2071 C 0.12831 0.30295 -0.03194
 C2072 C 0.14729 0.29174 -0.03463
 C2073 C 0.16630 0.30120 -0.02771
 C2074 C 0.16638 0.32180 -0.01832
 C2075 C 0.14709 0.33265 -0.01561
 C2076 C 0.12806 0.32332 -0.02235
 C2077 C 0.12792 0.26247 -0.05216
 C2078 C 0.14689 0.27146 -0.04452
 C2079 C 0.08988 0.32517 -0.02763
 C2080 C 0.10882 0.33418 -0.02009
 H2081 H 0.12838 0.24696 -0.05998
 H2082 H 0.16140 0.26260 -0.04665
 H2083 H 0.07542 0.33421 -0.02583
 H2084 H 0.10843 0.34990 -0.01267
 H2085 H 0.05632 0.30548 -0.04482
 H2086 H 0.09012 0.24993 -0.06727
 H2087 H 0.18099 0.29260 -0.02970
 H2088 H 0.14693 0.34868 -0.00885
 C2089 C 0.38519 0.30236 0.05036
 C2090 C 0.38463 0.28225 0.06043
 C2091 C 0.40311 0.27438 0.06985
 C2092 C 0.42185 0.28671 0.06957
 C2093 C 0.42224 0.30657 0.05892
 C2094 C 0.40396 0.31448 0.04930
 C2095 C 0.36560 0.31126 0.04145
 C2096 C 0.36611 0.33161 0.03191
 C2097 C 0.34730 0.34047 0.02439
 C2098 C 0.32795 0.32935 0.02669
 C2099 C 0.32781 0.30869 0.03581
 C2100 C 0.34662 0.29959 0.04328
 C2101 C 0.40394 0.33455 0.03917
 C2102 C 0.38533 0.34295 0.03057
 C2103 C 0.36544 0.27079 0.06147
 C2104 C 0.34676 0.27933 0.05308
 H2105 H 0.41835 0.34400 0.03818
 H2106 H 0.38592 0.35864 0.02317
 H2107 H 0.36478 0.25526 0.06917
 H2108 H 0.33224 0.27012 0.05454
 H2109 H 0.40269 0.25918 0.07821
 H2110 H 0.43669 0.31601 0.05850
 H2111 H 0.34766 0.35619 0.01703
 H2112 H 0.31302 0.30006 0.03783
 C2113 C 0.88687 0.79854 0.56445
 C2114 C 0.90296 0.81232 0.57179
 C2115 C 0.92188 0.80354 0.57909
 C2116 C 0.92472 0.78115 0.57935
 C2117 C 0.90846 0.76753 0.57187
 C2118 C 0.88950 0.77618 0.56429
 C2119 C 0.86680 0.80772 0.55707
 C2120 C 0.85068 0.79400 0.54966
 C2121 C 0.83154 0.80287 0.54280
 C2122 C 0.82845 0.82521 0.54373
 C2123 C 0.84481 0.83869 0.55115
 C2124 C 0.86404 0.83005 0.55776
 C2125 C 0.87304 0.76295 0.55672
 C2126 C 0.85399 0.77172 0.54947
 C2127 C 0.89969 0.83459 0.57200
 C2128 C 0.88053 0.84331 0.56514
 H2129 H 0.87488 0.74568 0.55647
 H2130 H 0.84169 0.76095 0.54381
 H2131 H 0.91198 0.84536 0.57766
 H2132 H 0.87858 0.86057 0.56569
 H2133 H 0.93419 0.81408 0.58516
 H2134 H 0.91061 0.75028 0.57194
 H2135 H 0.81893 0.79245 0.53717
 H2136 H 0.84261 0.85593 0.55158
   
