data_POSCAR
  _audit_creation_date              2014-09-24
  _audit_creation_method            'ToBaCCo'
  _symmetry_space_group_name_H-M    'P1'
  _symmetry_Int_Tables_number       1
  _symmetry_cell_setting            triclinic
  loop_
  _symmetry_equiv_pos_as_xyz
 x,y,z
_cell_length_a 64.4659
_cell_length_b 64.5354
_cell_length_c 64.7804
_cell_angle_alpha 90.066500
_cell_angle_beta 90.019300
_cell_angle_gamma 90.057700
loop_
  _atom_site_label
  _atom_site_type_symbol
  _atom_site_fract_x
  _atom_site_fract_y
  _atom_site_fract_z
N1 N 0.17229 0.22445 0.22397
 N2 N 0.17648 0.20806 0.23522
 C3 C 0.16213 0.20634 0.25023
 C4 C 0.14813 0.22254 0.24831
 C5 C 0.15517 0.23372 0.23143
 H6 H 0.16171 0.19398 0.26145
 H7 H 0.14835 0.24750 0.22488
 Cu8 Cu 0.19995 0.19030 0.22867
 Cu9 Cu 0.18887 0.23221 0.20005
 Cu10 Cu 0.23101 0.20091 0.18842
 N11 N 0.22376 0.17296 0.22219
 N12 N 0.23582 0.17721 0.20641
 C13 C 0.25072 0.16269 0.20505
 C14 C 0.24791 0.14846 0.22084
 C15 C 0.23060 0.15558 0.23141
 H16 H 0.26249 0.16242 0.19319
 H17 H 0.22339 0.14859 0.24474
 N18 N 0.22355 0.22557 0.17210
 N19 N 0.20751 0.23745 0.17650
 C20 C 0.20619 0.25258 0.16227
 C21 C 0.22217 0.25017 0.14815
 C22 C 0.23286 0.23285 0.15498
 H23 H 0.19420 0.26426 0.16203
 H24 H 0.24633 0.22589 0.14793
 H25 H 0.19936 0.20275 0.19315
 H26 H 0.21615 0.21894 0.21023
 N27 N 0.67291 0.72592 0.72445
 N28 N 0.67708 0.70951 0.73570
 C29 C 0.66278 0.70787 0.75076
 C30 C 0.64884 0.72412 0.74889
 C31 C 0.65587 0.73526 0.73198
 H32 H 0.66234 0.69550 0.76197
 H33 H 0.64905 0.74906 0.72543
 Cu34 Cu 0.70040 0.69161 0.72904
 Cu35 Cu 0.68938 0.73354 0.70041
 Cu36 Cu 0.73124 0.70193 0.68856
 N37 N 0.72405 0.67412 0.72244
 N38 N 0.73603 0.67825 0.70657
 C39 C 0.75082 0.66363 0.70513
 C40 C 0.74804 0.64945 0.72097
 C41 C 0.73085 0.65671 0.73166
 H42 H 0.76249 0.66324 0.69318
 H43 H 0.72371 0.64979 0.74506
 N44 N 0.72382 0.72660 0.67224
 N45 N 0.70790 0.73861 0.67672
 C46 C 0.70659 0.75372 0.66246
 C47 C 0.72245 0.75116 0.64824
 C48 C 0.73306 0.73378 0.65503
 H49 H 0.69469 0.76549 0.66229
 H50 H 0.74642 0.72669 0.64790
 H51 H 0.69963 0.70400 0.69350
 H52 H 0.71666 0.72011 0.71042
 N53 N 0.32719 0.77514 0.72423
 N54 N 0.32320 0.79169 0.73535
 C55 C 0.33756 0.79337 0.75037
 C56 C 0.35136 0.77698 0.74859
 C57 C 0.34418 0.76573 0.73178
 H58 H 0.33811 0.80581 0.76153
 H59 H 0.35083 0.75178 0.72536
 Cu60 Cu 0.29990 0.80967 0.72878
 Cu61 Cu 0.31050 0.76733 0.70041
 Cu62 Cu 0.26830 0.79855 0.68897
 N63 N 0.27598 0.82688 0.72236
 N64 N 0.26361 0.82234 0.70690
 C65 C 0.24860 0.83676 0.70566
 C66 C 0.25167 0.85134 0.72119
 C67 C 0.26927 0.84439 0.73150
 H68 H 0.23660 0.83665 0.69403
 H69 H 0.27683 0.85152 0.74457
 N70 N 0.27566 0.77383 0.67265
 N71 N 0.29176 0.76200 0.67694
 C72 C 0.29309 0.74690 0.66265
 C73 C 0.27705 0.74927 0.64858
 C74 C 0.26632 0.76654 0.65552
 H75 H 0.30515 0.73531 0.66229
 H76 H 0.25282 0.77349 0.64850
 H77 H 0.30001 0.79676 0.69338
 H78 H 0.28340 0.78082 0.71085
 N79 N 0.82781 0.27466 0.22426
 N80 N 0.82310 0.29049 0.23611
 C81 C 0.83726 0.29199 0.25133
 C82 C 0.85179 0.27624 0.24892
 C83 C 0.84510 0.26555 0.23148
 H84 H 0.83709 0.30391 0.26304
 H85 H 0.85224 0.25224 0.22432
 Cu86 Cu 0.79935 0.30796 0.22981
 Cu87 Cu 0.81150 0.26722 0.20000
 Cu88 Cu 0.76896 0.29818 0.18887
 N89 N 0.77552 0.32534 0.22352
 N90 N 0.76375 0.32141 0.20742
 C91 C 0.74886 0.33593 0.20612
 C92 C 0.75137 0.34985 0.22226
 C93 C 0.76850 0.34254 0.23300
 H94 H 0.73736 0.33649 0.19400
 H95 H 0.77548 0.34932 0.24658
 N96 N 0.77685 0.27398 0.17201
 N97 N 0.79306 0.26225 0.17620
 C98 C 0.79457 0.24736 0.16170
 C99 C 0.77855 0.24977 0.14763
 C100 C 0.76763 0.26684 0.15476
 H101 H 0.80667 0.23580 0.16129
 H102 H 0.75401 0.27368 0.14787
 H103 H 0.80057 0.29667 0.19391
 H104 H 0.78385 0.27967 0.21020
 N105 N 0.82722 0.72530 0.27529
 N106 N 0.82305 0.70889 0.26400
 C107 C 0.83736 0.70728 0.24894
 C108 C 0.85131 0.72356 0.25087
 C109 C 0.84427 0.73468 0.26781
 H110 H 0.83780 0.69494 0.23767
 H111 H 0.85107 0.74848 0.27440
 Cu112 Cu 0.79968 0.69097 0.27058
 Cu113 Cu 0.81073 0.73292 0.29932
 Cu114 Cu 0.76872 0.70143 0.31097
 N115 N 0.77590 0.67356 0.27708
 N116 N 0.76388 0.67777 0.29290
 C117 C 0.74899 0.66322 0.29426
 C118 C 0.75175 0.64900 0.27842
 C119 C 0.76903 0.65616 0.26782
 H120 H 0.73727 0.66290 0.30616
 H121 H 0.77620 0.64919 0.25444
 N122 N 0.77619 0.72607 0.32737
 N123 N 0.79220 0.73803 0.32297
 C124 C 0.79355 0.75312 0.33728
 C125 C 0.77764 0.75061 0.35145
 C126 C 0.76695 0.73327 0.34458
 H127 H 0.80552 0.76484 0.33753
 H128 H 0.75352 0.72624 0.35165
 H129 H 0.80035 0.70340 0.30614
 H130 H 0.78346 0.71953 0.28915
 N131 N 0.32834 0.22491 -0.22408
 N132 N 0.32327 0.20953 -0.23636
 C133 C 0.33765 0.20787 -0.25135
 C134 C 0.35268 0.22306 -0.24835
 C135 C 0.34608 0.23357 -0.23080
 H136 H 0.33723 0.19622 -0.26332
 H137 H 0.35355 0.24649 -0.22323
 Cu138 Cu 0.29872 0.19262 -0.23141
 Cu139 Cu 0.31185 0.23240 -0.20009
 Cu140 Cu 0.26927 0.20168 -0.18927
 N141 N 0.27544 0.17485 -0.22406
 N142 N 0.26405 0.17845 -0.20764
 C143 C 0.24948 0.16361 -0.20600
 C144 C 0.25178 0.14984 -0.22227
 C145 C 0.26848 0.15754 -0.23342
 H146 H 0.23831 0.16276 -0.19360
 H147 H 0.27520 0.15099 -0.24723
 N148 N 0.27701 0.22588 -0.17245
 N149 N 0.29329 0.23756 -0.17652
 C150 C 0.29472 0.25251 -0.16206
 C151 C 0.27856 0.25016 -0.14814
 C152 C 0.26765 0.23309 -0.15532
 H153 H 0.30686 0.26404 -0.16157
 H154 H 0.25394 0.22630 -0.14855
 H155 H 0.30085 0.20267 -0.19518
 H156 H 0.28400 0.22050 -0.21054
 N157 N 0.67702 0.27077 -0.22820
 N158 N 0.68165 0.28675 -0.23982
 C159 C 0.66650 0.28952 -0.25385
 C160 C 0.65141 0.27435 -0.25094
 C161 C 0.65881 0.26272 -0.23442
 H162 H 0.66660 0.30178 -0.26519
 H163 H 0.65171 0.24933 -0.22735
 Cu164 Cu 0.70713 0.30236 -0.23566
 Cu165 Cu 0.69524 0.26127 -0.20622
 Cu166 Cu 0.73154 0.29747 -0.19000
 N167 N 0.72753 0.32249 -0.22643
 N168 N 0.73677 0.32066 -0.20846
 C169 C 0.74997 0.33659 -0.20586
 C170 C 0.74898 0.34920 -0.22314
 C171 C 0.73448 0.33973 -0.23588
 H172 H 0.75950 0.33884 -0.19231
 H173 H 0.72944 0.34485 -0.25094
 N174 N 0.72419 0.27274 -0.17375
 N175 N 0.71072 0.25874 -0.18014
 C176 C 0.70937 0.24359 -0.16593
 C177 C 0.72270 0.24821 -0.14975
 C178 C 0.73181 0.26685 -0.15533
 H179 H 0.69936 0.23023 -0.16734
 H180 H 0.74314 0.27558 -0.14665
 H181 H 0.70150 0.29173 -0.20014
 H182 H 0.72301 0.27681 -0.21232
 N183 N 0.17338 0.77474 0.27535
 N184 N 0.17796 0.79076 0.26372
 C185 C 0.16357 0.79252 0.24875
 C186 C 0.14913 0.77673 0.25108
 C187 C 0.15597 0.76576 0.26818
 H188 H 0.16347 0.80461 0.23724
 H189 H 0.14882 0.75229 0.27506
 Cu190 Cu 0.20203 0.80806 0.26947
 Cu191 Cu 0.18994 0.76704 0.29925
 Cu192 Cu 0.23239 0.79800 0.31056
 N193 N 0.22549 0.82569 0.27660
 N194 N 0.23739 0.82157 0.29251
 C195 C 0.25216 0.83622 0.29407
 C196 C 0.24942 0.85054 0.27828
 C197 C 0.23224 0.84320 0.26751
 H198 H 0.26376 0.83648 0.30610
 H199 H 0.22500 0.85005 0.25414
 N200 N 0.22479 0.77349 0.32702
 N201 N 0.20858 0.76176 0.32277
 C202 C 0.20713 0.74674 0.33711
 C203 C 0.22320 0.74908 0.35116
 C204 C 0.23408 0.76623 0.34416
 H205 H 0.19498 0.73521 0.33750
 H206 H 0.24767 0.77310 0.35112
 H207 H 0.20074 0.79665 0.30532
 H208 H 0.21751 0.77967 0.28898
 N209 N 0.47548 0.42249 0.47518
 N210 N 0.45913 0.42674 0.48652
 C211 C 0.45756 0.41256 0.50167
 C212 C 0.47380 0.39859 0.49976
 C213 C 0.48486 0.40549 0.48273
 H214 H 0.44527 0.41222 0.51299
 H215 H 0.49862 0.39864 0.47613
 Cu216 Cu 0.44123 0.45008 0.47990
 Cu217 Cu 0.48303 0.43881 0.45103
 Cu218 Cu 0.45156 0.48073 0.43931
 N219 N 0.42385 0.47383 0.47337
 N220 N 0.42801 0.48572 0.45746
 C221 C 0.41351 0.50063 0.45609
 C222 C 0.39937 0.49802 0.47202
 C223 C 0.40653 0.48080 0.48268
 H224 H 0.41317 0.51226 0.44413
 H225 H 0.39961 0.47376 0.49614
 N226 N 0.47610 0.47314 0.42283
 N227 N 0.48806 0.45718 0.42725
 C228 C 0.50311 0.45578 0.41290
 C229 C 0.50055 0.47161 0.39868
 C230 C 0.48324 0.48231 0.40557
 H231 H 0.51484 0.44385 0.41268
 H232 H 0.47619 0.49570 0.39849
 H233 H 0.46978 0.46611 0.46112
 H234 H 0.45348 0.44915 0.44430
 N235 N -0.02412 -0.07644 0.97455
 N236 N -0.03985 -0.07160 0.98648
 C237 C -0.04147 -0.08584 1.00158
 C238 C -0.02589 -0.10045 0.99902
 C239 C -0.01519 -0.09386 0.98164
 H240 H -0.05336 -0.08573 1.01332
 H241 H -0.00197 -0.10122 0.97449
 Cu242 Cu -0.05714 -0.04753 0.98090
 Cu243 Cu -0.01676 -0.06023 0.95034
 Cu244 Cu -0.04800 -0.01824 0.93878
 N245 N -0.07499 -0.02439 0.97347
 N246 N -0.07135 -0.01304 0.95706
 C247 C -0.08622 0.00148 0.95536
 C248 C -0.10005 -0.00084 0.97159
 C249 C -0.09234 -0.01748 0.98277
 H250 H -0.08704 0.01263 0.94296
 H251 H -0.09890 -0.02417 0.99657
 N252 N -0.02365 -0.02595 0.92213
 N253 N -0.01177 -0.04198 0.92650
 C254 C 0.00321 -0.04349 0.91210
 C255 C 0.00070 -0.02764 0.89788
 C256 C -0.01652 -0.01683 0.90484
 H257 H 0.01488 -0.05548 0.91185
 H258 H -0.02348 -0.00337 0.89780
 H259 H -0.02920 -0.03249 0.96034
 H260 H -0.04658 -0.04970 0.94482
 N261 N 1.02452 0.57753 0.97414
 N262 N 1.04089 0.57332 0.98544
 C263 C 1.04262 0.58767 1.00045
 C264 C 1.02645 0.60171 0.99848
 C265 C 1.01527 0.59466 0.98156
 H266 H 1.05496 0.58807 1.01173
 H267 H 1.00150 0.60150 0.97497
 Cu268 Cu 1.05861 0.54978 0.97897
 Cu269 Cu 1.01672 0.56093 0.95021
 Cu270 Cu 1.04786 0.51864 0.93878
 N271 N 1.07585 0.52588 0.97259
 N272 N 1.07153 0.51377 0.95685
 C273 C 1.08598 0.49880 0.95556
 C274 C 1.10025 0.50160 0.97136
 C275 C 1.09322 0.51899 0.98186
 H276 H 1.08619 0.48699 0.94374
 H277 H 1.10026 0.52621 0.99517
 N278 N 1.02324 0.52615 0.92236
 N279 N 1.01143 0.54226 0.92666
 C280 C 0.99632 0.54360 0.91236
 C281 C 0.99869 0.52756 0.89830
 C282 C 1.01595 0.51682 0.90523
 H283 H 0.98470 0.55563 0.91204
 H284 H 1.02286 0.50329 0.89824
 H285 H 1.02986 0.53367 0.96051
 H286 H 1.04617 0.55029 0.94342
 N287 N 0.52447 0.07758 0.47565
 N288 N 0.54071 0.07321 0.48708
 C289 C 0.54237 0.08747 0.50219
 C290 C 0.52628 0.10160 0.50015
 C291 C 0.51524 0.09471 0.48309
 H292 H 0.55462 0.08774 0.51357
 H293 H 0.50158 0.10168 0.47638
 Cu294 Cu 0.55844 0.04967 0.48067
 Cu295 Cu 0.51685 0.06120 0.45152
 Cu296 Cu 0.54821 0.01919 0.43982
 N297 N 0.57591 0.02603 0.47392
 N298 N 0.57179 0.01421 0.45792
 C299 C 0.58637 -0.00061 0.45641
 C300 C 0.60052 0.00199 0.47233
 C301 C 0.59329 0.01911 0.48314
 H302 H 0.58677 -0.01216 0.44434
 H303 H 0.60021 0.02612 0.49664
 N304 N 0.52366 0.02675 0.42336
 N305 N 0.51174 0.04275 0.42776
 C306 C 0.49668 0.04412 0.41342
 C307 C 0.49918 0.02821 0.39924
 C308 C 0.51648 0.01751 0.40614
 H309 H 0.48497 0.05607 0.41317
 H310 H 0.52349 0.00407 0.39909
 H311 H 0.52992 0.03383 0.46159
 H312 H 0.54643 0.05078 0.44499
 N313 N -0.02869 0.08153 0.53031
 N314 N -0.04515 0.07738 0.51911
 C315 C -0.04598 0.09070 0.50315
 C316 C -0.02912 0.10405 0.50445
 C317 C -0.01850 0.09765 0.52195
 H318 H -0.05828 0.09093 0.49183
 H319 H -0.00456 0.10433 0.52843
 Cu320 Cu -0.06464 0.05585 0.52712
 Cu321 Cu -0.02259 0.06668 0.55567
 Cu322 Cu -0.04889 0.02020 0.56172
 N323 N -0.07924 0.02978 0.53070
 N324 N -0.07279 0.01573 0.54386
 C325 C -0.08595 -0.00046 0.54353
 C326 C -0.10159 0.00362 0.52938
 C327 C -0.09670 0.02301 0.52152
 H328 H -0.08440 -0.01398 0.55323
 H329 H -0.10538 0.03182 0.51028
 N330 N -0.02451 0.02796 0.57844
 N331 N -0.01478 0.04582 0.57637
 C332 C 0.00035 0.04708 0.59064
 C333 C 0.00008 0.02920 0.60245
 C334 C -0.01590 0.01742 0.59419
 H335 H 0.01041 0.06034 0.59263
 H336 H -0.02113 0.00243 0.59947
 H337 H -0.03364 0.04034 0.54182
 H338 H -0.05061 0.05175 0.56218
 N339 N 0.47530 0.57729 0.02568
 N340 N 0.45896 0.57303 0.01432
 C341 C 0.45732 0.58733 -0.00072
 C342 C 0.47352 0.60137 0.00129
 C343 C 0.48461 0.59439 0.01826
 H344 H 0.44501 0.58769 -0.01203
 H345 H 0.49837 0.60127 0.02491
 Cu346 Cu 0.44114 0.54956 0.02079
 Cu347 Cu 0.48293 0.56081 0.04971
 Cu348 Cu 0.45152 0.51869 0.06117
 N349 N 0.42374 0.52576 0.02719
 N350 N 0.42792 0.51377 0.04302
 C351 C 0.41338 0.49886 0.04433
 C352 C 0.39921 0.50157 0.02845
 C353 C 0.40638 0.51885 0.01787
 H354 H 0.41305 0.48715 0.05623
 H355 H 0.39943 0.52599 0.00448
 N356 N 0.47610 0.52623 0.07767
 N357 N 0.48803 0.54227 0.07334
 C358 C 0.50309 0.54363 0.08770
 C359 C 0.50057 0.52769 0.10182
 C360 C 0.48327 0.51698 0.09486
 H361 H 0.51479 0.55561 0.08802
 H362 H 0.47624 0.50352 0.10186
 H363 H 0.46972 0.53352 0.03947
 H364 H 0.45340 0.55032 0.05639
 N365 N 0.52399 -0.07663 0.02541
 N366 N 0.53964 -0.07174 0.01340
 C367 C 0.54124 -0.08602 -0.00169
 C368 C 0.52571 -0.10068 0.00094
 C369 C 0.51506 -0.09410 0.01835
 H370 H 0.55309 -0.08588 -0.01348
 H371 H 0.50191 -0.10151 0.02557
 Cu372 Cu 0.55695 -0.04763 0.01889
 Cu373 Cu 0.51671 -0.06039 0.04965
 Cu374 Cu 0.54805 -0.01837 0.06115
 N375 N 0.57488 -0.02450 0.02634
 N376 N 0.57135 -0.01317 0.04282
 C377 C 0.58627 0.00132 0.04451
 C378 C 0.60002 -0.00100 0.02820
 C379 C 0.59221 -0.01760 0.01699
 H380 H 0.58720 0.01245 0.05694
 H381 H 0.59868 -0.02427 0.00313
 N382 N 0.52374 -0.02608 0.07787
 N383 N 0.51182 -0.04211 0.07351
 C384 C 0.49687 -0.04359 0.08795
 C385 C 0.49944 -0.02772 0.10216
 C386 C 0.51667 -0.01693 0.09518
 H387 H 0.48517 -0.05558 0.08821
 H388 H 0.52368 -0.00345 0.10221
 H389 H 0.52913 -0.03263 0.03964
 H390 H 0.54658 -0.04984 0.05502
 N391 N 1.02419 0.42283 0.52526
 N392 N 1.04055 0.42707 0.51394
 C393 C 1.04216 0.41282 0.49883
 C394 C 1.02593 0.39882 0.50075
 C395 C 1.01484 0.40577 0.51774
 H396 H 1.05448 0.41245 0.48754
 H397 H 1.00107 0.39891 0.52434
 Cu398 Cu 1.05841 0.45048 0.52053
 Cu399 Cu 1.01660 0.43924 0.54936
 Cu400 Cu 1.04808 0.48127 0.56107
 N401 N 1.07582 0.47424 0.52706
 N402 N 1.07168 0.48620 0.54295
 C403 C 1.08622 0.50111 0.54430
 C404 C 1.10036 0.49841 0.52839
 C405 C 1.09317 0.48117 0.51775
 H406 H 1.08658 0.51280 0.55624
 H407 H 1.10007 0.47406 0.50431
 N408 N 1.02349 0.47371 0.57752
 N409 N 1.01153 0.45771 0.57309
 C410 C 0.99646 0.45632 0.58741
 C411 C 0.99899 0.47221 0.60162
 C412 C 1.01632 0.48291 0.59476
 H413 H 0.98474 0.44436 0.58763
 H414 H 1.02335 0.49634 0.60185
 H415 H 1.02987 0.46655 0.53927
 H416 H 1.04615 0.44967 0.55613
 C417 C 0.35125 -0.01886 0.25367
 C418 C 0.36201 -0.00028 0.25050
 C419 C 0.35104 0.01812 0.24710
 C420 C 0.32925 0.01810 0.24682
 C421 C 0.31861 -0.00067 0.24989
 C422 C 0.32947 -0.01922 0.25334
 C423 C 0.38480 -0.00013 0.25058
 C424 C 0.39571 -0.00296 0.23211
 C425 C 0.41750 -0.00290 0.23200
 C426 C 0.42820 0.00007 0.25069
 C427 C 0.41739 0.00293 0.26933
 C428 C 0.39560 0.00281 0.26911
 H429 H 0.35988 -0.03306 0.25608
 H430 H 0.35954 0.03245 0.24494
 H431 H 0.38718 -0.00499 0.21784
 H432 H 0.38700 0.00475 0.28335
 H433 H 0.30181 -0.00086 0.24961
 H434 H 0.44500 0.00013 0.25073
 C435 C 0.14947 -0.01872 0.74670
 C436 C 0.13859 -0.00022 0.74983
 C437 C 0.14943 0.01832 0.75301
 C438 C 0.17123 0.01853 0.75311
 C439 C 0.18199 -0.00017 0.75007
 C440 C 0.17125 -0.01886 0.74682
 C441 C 0.11579 -0.00026 0.74973
 C442 C 0.10485 -0.00312 0.76818
 C443 C 0.08305 -0.00322 0.76825
 C444 C 0.07239 -0.00045 0.74952
 C445 C 0.08323 0.00247 0.73091
 C446 C 0.10501 0.00255 0.73118
 H447 H 0.14092 -0.03301 0.74443
 H448 H 0.14084 0.03259 0.75510
 H449 H 0.11336 -0.00501 0.78249
 H450 H 0.11363 0.00455 0.71696
 H451 H 0.19880 -0.00018 0.75019
 H452 H 0.05559 -0.00053 0.74941
 C453 C 0.64872 0.48090 0.24738
 C454 C 0.63790 0.49947 0.25026
 C455 C 0.64879 0.51802 0.25319
 C456 C 0.67058 0.51816 0.25327
 C457 C 0.68130 0.49942 0.25035
 C458 C 0.67051 0.48070 0.24739
 C459 C 0.61510 0.49949 0.25025
 C460 C 0.60424 0.49655 0.26873
 C461 C 0.58245 0.49656 0.26889
 C462 C 0.57171 0.49953 0.25024
 C463 C 0.58246 0.50248 0.23159
 C464 C 0.60425 0.50246 0.23176
 H465 H 0.64011 0.46660 0.24539
 H466 H 0.64024 0.53233 0.25516
 H467 H 0.61281 0.49452 0.28298
 H468 H 0.61283 0.50448 0.21752
 H469 H 0.69810 0.49940 0.25038
 H470 H 0.55491 0.49954 0.25023
 C471 C 0.85029 0.48127 0.75268
 C472 C 0.86114 0.49981 0.74963
 C473 C 0.85027 0.51828 0.74637
 C474 C 0.82847 0.51838 0.74614
 C475 C 0.81773 0.49965 0.74915
 C476 C 0.82850 0.48102 0.75245
 C477 C 0.88394 0.49986 0.74974
 C478 C 0.89486 0.49710 0.73126
 C479 C 0.91665 0.49706 0.73118
 C480 C 0.92733 0.49985 0.74991
 C481 C 0.91653 0.50264 0.76855
 C482 C 0.89473 0.50262 0.76830
 H483 H 0.85887 0.46702 0.75496
 H484 H 0.85883 0.53259 0.74429
 H485 H 0.88634 0.49521 0.71696
 H486 H 0.88612 0.50451 0.78254
 H487 H 0.80093 0.49957 0.74896
 H488 H 0.94414 0.49984 0.74997
 C489 C 0.25254 0.35411 -0.01854
 C490 C 0.24962 0.36499 -0.00005
 C491 C 0.24681 0.35416 0.01846
 C492 C 0.24691 0.33240 0.01864
 C493 C 0.24984 0.32164 -0.00001
 C494 C 0.25268 0.33235 -0.01868
 C495 C 0.24961 0.38776 -0.00006
 C496 C 0.23105 0.39858 -0.00310
 C497 C 0.23087 0.42035 -0.00311
 C498 C 0.24961 0.43111 -0.00006
 C499 C 0.26834 0.42039 0.00299
 C500 C 0.26816 0.39863 0.00297
 H501 H 0.25449 0.36265 -0.03281
 H502 H 0.24482 0.36274 0.03271
 H503 H 0.21674 0.39000 -0.00519
 H504 H 0.28247 0.39007 0.00505
 H505 H 0.24994 0.30486 0.00001
 H506 H 0.24961 0.44789 -0.00005
 C507 C 0.74675 0.14568 -0.01902
 C508 C 0.74989 0.13491 -0.00053
 C509 C 0.75306 0.14583 0.01789
 C510 C 0.75313 0.16760 0.01799
 C511 C 0.75007 0.17826 -0.00068
 C512 C 0.74686 0.16744 -0.01926
 C513 C 0.74992 0.11214 -0.00047
 C514 C 0.76849 0.10132 -0.00347
 C515 C 0.76869 0.07955 -0.00342
 C516 C 0.74998 0.06878 -0.00032
 C517 C 0.73124 0.07949 0.00272
 C518 C 0.73138 0.10126 0.00260
 H519 H 0.74451 0.13708 -0.03323
 H520 H 0.75520 0.13733 0.03215
 H521 H 0.78278 0.10991 -0.00557
 H522 H 0.71706 0.10980 0.00466
 H523 H 0.75018 0.19504 -0.00077
 H524 H 0.75000 0.05200 -0.00026
 C525 C 0.24733 0.64564 0.48130
 C526 C 0.25003 0.63480 0.49981
 C527 C 0.25272 0.64566 0.51834
 C528 C 0.25275 0.66743 0.51853
 C529 C 0.25002 0.67815 0.49985
 C530 C 0.24730 0.66741 0.48115
 C531 C 0.25001 0.61203 0.49982
 C532 C 0.26857 0.60118 0.49687
 C533 C 0.26873 0.57941 0.49695
 C534 C 0.24998 0.56868 0.49999
 C535 C 0.23125 0.57943 0.50295
 C536 C 0.23144 0.60120 0.50286
 H537 H 0.24550 0.63707 0.46702
 H538 H 0.25455 0.63710 0.53261
 H539 H 0.28289 0.60974 0.49480
 H540 H 0.21714 0.60977 0.50489
 H541 H 0.25002 0.69494 0.49986
 H542 H 0.24997 0.55190 0.50005
 C543 C 0.75288 0.85462 0.48124
 C544 C 0.75006 0.86552 0.49973
 C545 C 0.74720 0.85473 0.51825
 C546 C 0.74715 0.83296 0.51845
 C547 C 0.74998 0.82217 0.49979
 C548 C 0.75286 0.83285 0.48111
 C549 C 0.75012 0.88829 0.49968
 C550 C 0.73158 0.89915 0.49667
 C551 C 0.73146 0.92092 0.49654
 C552 C 0.75024 0.93164 0.49942
 C553 C 0.76894 0.92088 0.50250
 C554 C 0.76871 0.89912 0.50263
 H555 H 0.75484 0.86314 0.46697
 H556 H 0.74528 0.86333 0.53250
 H557 H 0.71724 0.89059 0.49469
 H558 H 0.78301 0.89056 0.50477
 H559 H 0.74996 0.80539 0.49982
 H560 H 0.75032 0.94842 0.49930
 C561 C -0.01905 0.25223 0.35269
 C562 C -0.00040 0.24942 0.36342
 C563 C 0.01812 0.24641 0.35254
 C564 C 0.01816 0.24618 0.33086
 C565 C -0.00067 0.24886 0.32025
 C566 C -0.01934 0.25191 0.33102
 C567 C -0.00028 0.24961 0.38611
 C568 C -0.00287 0.23109 0.39705
 C569 C -0.00278 0.23111 0.41873
 C570 C -0.00011 0.24997 0.42928
 C571 C 0.00245 0.26866 0.41845
 C572 C 0.00238 0.26832 0.39677
 H573 H -0.03333 0.25439 0.36125
 H574 H 0.03250 0.24454 0.36100
 H575 H -0.00473 0.21668 0.38865
 H576 H 0.00412 0.28259 0.38815
 H577 H -0.00080 0.24862 0.30353
 H578 H -0.00006 0.25010 0.44600
 C579 C -0.01845 0.74772 0.14691
 C580 C 0.00017 0.75049 0.13612
 C581 C 0.01878 0.75323 0.14696
 C582 C 0.01893 0.75320 0.16864
 C583 C 0.00014 0.75044 0.17930
 C584 C -0.01863 0.74771 0.16859
 C585 C 0.00018 0.75052 0.11344
 C586 C -0.00258 0.76912 0.10266
 C587 C -0.00256 0.76931 0.08098
 C588 C 0.00018 0.75056 0.07025
 C589 C 0.00291 0.73178 0.08090
 C590 C 0.00292 0.73194 0.10259
 H591 H -0.03279 0.74585 0.13837
 H592 H 0.03313 0.75512 0.13845
 H593 H -0.00445 0.78343 0.11122
 H594 H 0.00479 0.71760 0.11109
 H595 H 0.00013 0.75042 0.19602
 H596 H 0.00018 0.75058 0.05353
 C597 C 0.48231 0.24723 0.64880
 C598 C 0.50078 0.25050 0.63790
 C599 C 0.51939 0.25366 0.64862
 C600 C 0.51969 0.25345 0.67030
 C601 C 0.50105 0.25024 0.68109
 C602 C 0.48227 0.24718 0.67048
 C603 C 0.50066 0.25047 0.61521
 C604 C 0.49803 0.26907 0.60440
 C605 C 0.49790 0.26918 0.58271
 C606 C 0.50042 0.25038 0.57203
 C607 C 0.50306 0.23162 0.58272
 C608 C 0.50316 0.23183 0.60440
 H609 H 0.46795 0.24504 0.64036
 H610 H 0.53365 0.25591 0.64005
 H611 H 0.49633 0.28343 0.61291
 H612 H 0.50495 0.21751 0.61293
 H613 H 0.50117 0.25011 0.69781
 H614 H 0.50033 0.25034 0.55531
 C615 C 0.48130 0.75280 0.85294
 C616 C 0.49990 0.75004 0.86376
 C617 C 0.51853 0.74736 0.85297
 C618 C 0.51873 0.74744 0.83129
 C619 C 0.49996 0.75017 0.82058
 C620 C 0.48116 0.75285 0.83125
 C621 C 0.49989 0.75004 0.88645
 C622 C 0.49722 0.73145 0.89725
 C623 C 0.49722 0.73129 0.91894
 C624 C 0.49988 0.75008 0.92963
 C625 C 0.50255 0.76884 0.91895
 C626 C 0.50255 0.76866 0.89727
 H627 H 0.46695 0.75464 0.86145
 H628 H 0.53287 0.74550 0.86151
 H629 H 0.49541 0.71710 0.88872
 H630 H 0.50437 0.78299 0.88875
 H631 H 0.49998 0.75023 0.80386
 H632 H 0.49987 0.75010 0.94635
 C633 C 0.09337 0.23359 0.28444
 C634 C 0.09693 0.24539 0.26661
 C635 C 0.11491 0.24184 0.25498
 C636 C 0.12934 0.22657 0.26101
 C637 C 0.12553 0.21500 0.27909
 C638 C 0.10756 0.21842 0.29082
 C639 C 0.07432 0.23706 0.29656
 C640 C 0.07066 0.22514 0.31432
 C641 C 0.05237 0.22830 0.32562
 C642 C 0.03778 0.24324 0.31922
 C643 C 0.04184 0.25518 0.30147
 C644 C 0.06005 0.25212 0.29006
 C645 C 0.10343 0.20688 0.30875
 C646 C 0.08529 0.21017 0.32029
 C647 C 0.08235 0.26042 0.26067
 C648 C 0.06422 0.26374 0.27221
 H649 H 0.11427 0.19513 0.31386
 H650 H 0.08266 0.20087 0.33395
 H651 H 0.08492 0.26965 0.24695
 H652 H 0.05334 0.27542 0.26705
 H653 H 0.11743 0.25084 0.24112
 H654 H 0.13645 0.20333 0.28413
 H655 H 0.04928 0.21889 0.33912
 H656 H 0.03087 0.26692 0.29661
 C657 C 0.59410 0.73517 0.78506
 C658 C 0.59772 0.74707 0.76730
 C659 C 0.61571 0.74353 0.75566
 C660 C 0.63008 0.72818 0.76162
 C661 C 0.62622 0.71654 0.77964
 C662 C 0.60825 0.71993 0.79137
 C663 C 0.57504 0.73860 0.79717
 C664 C 0.57132 0.72657 0.81483
 C665 C 0.55299 0.72967 0.82609
 C666 C 0.53843 0.74466 0.81976
 C667 C 0.54257 0.75673 0.80211
 C668 C 0.56081 0.75373 0.79073
 C669 C 0.60406 0.70828 0.80922
 C670 C 0.58590 0.71153 0.82073
 C671 C 0.58318 0.76216 0.76143
 C672 C 0.56504 0.76545 0.77296
 H673 H 0.61487 0.69648 0.81427
 H674 H 0.58322 0.70214 0.83433
 H675 H 0.58579 0.77146 0.74776
 H676 H 0.55419 0.77718 0.76784
 H677 H 0.61826 0.75260 0.74186
 H678 H 0.63710 0.70480 0.78462
 H679 H 0.54985 0.72014 0.83950
 H680 H 0.53163 0.76852 0.79729
 C681 C 0.40597 0.76562 0.78485
 C682 C 0.40236 0.75382 0.76700
 C683 C 0.38442 0.75746 0.75533
 C684 C 0.37008 0.77283 0.76134
 C685 C 0.37393 0.78439 0.77945
 C686 C 0.39186 0.78088 0.79122
 C687 C 0.42498 0.76206 0.79700
 C688 C 0.42870 0.77399 0.81476
 C689 C 0.44697 0.77076 0.82607
 C690 C 0.46149 0.75575 0.81968
 C691 C 0.45737 0.74378 0.80193
 C692 C 0.43918 0.74691 0.79051
 C693 C 0.39603 0.79243 0.80916
 C694 C 0.41415 0.78905 0.82072
 C695 C 0.41687 0.73870 0.76107
 C696 C 0.43496 0.73530 0.77263
 H697 H 0.38526 0.80425 0.81425
 H698 H 0.41682 0.79837 0.83439
 H699 H 0.41426 0.72947 0.74733
 H700 H 0.44579 0.72355 0.76748
 H701 H 0.38188 0.74848 0.74145
 H702 H 0.36307 0.79613 0.78447
 H703 H 0.45011 0.78021 0.83956
 H704 H 0.46829 0.73199 0.79706
 C705 C -0.09451 0.26492 0.28473
 C706 C -0.09874 0.25235 0.26756
 C707 C -0.11667 0.25602 0.25588
 C708 C -0.13043 0.27228 0.26108
 C709 C -0.12584 0.28463 0.27857
 C710 C -0.10797 0.28101 0.29039
 C711 C -0.07552 0.26128 0.29690
 C712 C -0.07123 0.27393 0.31404
 C713 C -0.05299 0.27059 0.32537
 C714 C -0.03903 0.25485 0.31955
 C715 C -0.04370 0.24220 0.30242
 C716 C -0.06192 0.24535 0.29104
 C717 C -0.10321 0.29328 0.30770
 C718 C -0.08516 0.28979 0.31933
 C719 C -0.08485 0.23643 0.26230
 C720 C -0.06674 0.23300 0.27382
 H721 H -0.11348 0.30576 0.31226
 H722 H -0.08203 0.29967 0.33251
 H723 H -0.08793 0.22660 0.24907
 H724 H -0.05638 0.22064 0.26916
 H725 H -0.11959 0.24621 0.24265
 H726 H -0.13601 0.29713 0.28315
 H727 H -0.04940 0.28052 0.33840
 H728 H -0.03317 0.22988 0.29801
 C729 C -0.09396 0.73492 0.21477
 C730 C -0.10805 0.71961 0.20840
 C731 C -0.12602 0.71610 0.22011
 C732 C -0.12992 0.72771 0.23817
 C733 C -0.11560 0.74312 0.24419
 C734 C -0.09762 0.74677 0.23257
 C735 C -0.07491 0.73849 0.20268
 C736 C -0.06073 0.75368 0.20918
 C737 C -0.04250 0.75681 0.19781
 C738 C -0.03833 0.74479 0.18011
 C739 C -0.05283 0.72974 0.17371
 C740 C -0.07114 0.72651 0.18496
 C741 C -0.08313 0.76194 0.23850
 C742 C -0.06501 0.76534 0.22699
 C743 C -0.10382 0.70802 0.19051
 C744 C -0.08567 0.71140 0.17900
 H745 H -0.08579 0.77121 0.25220
 H746 H -0.05420 0.77713 0.23215
 H747 H -0.11458 0.69616 0.18541
 H748 H -0.08296 0.70205 0.16536
 H749 H -0.13685 0.70431 0.21509
 H750 H -0.11818 0.75216 0.25802
 H751 H -0.03160 0.76864 0.20268
 H752 H -0.04965 0.72026 0.16026
 C753 C 0.40702 0.23387 0.71662
 C754 C 0.39328 0.21814 0.71056
 C755 C 0.37522 0.21465 0.72215
 C756 C 0.37074 0.22678 0.73981
 C757 C 0.38483 0.24264 0.74546
 C758 C 0.40292 0.24618 0.73399
 C759 C 0.42613 0.23745 0.70462
 C760 C 0.43997 0.25307 0.71083
 C761 C 0.45822 0.25626 0.69952
 C762 C 0.46270 0.24396 0.68210
 C763 C 0.44855 0.22846 0.67599
 C764 C 0.43026 0.22510 0.68724
 C765 C 0.41708 0.26177 0.73965
 C766 C 0.43529 0.26515 0.72827
 C767 C 0.39791 0.20613 0.69304
 C768 C 0.41608 0.20955 0.68158
 H769 H 0.41410 0.27140 0.75303
 H770 H 0.44583 0.27728 0.73320
 H771 H 0.38743 0.19393 0.68817
 H772 H 0.41908 0.19991 0.66821
 H773 H 0.36483 0.20244 0.71725
 H774 H 0.38200 0.25227 0.75883
 H775 H 0.46888 0.26841 0.70416
 H776 H 0.45198 0.21878 0.66274
 C777 C 0.59584 0.26535 0.71544
 C778 C 0.60030 0.25248 0.73228
 C779 C 0.61876 0.25549 0.74334
 C780 C 0.63284 0.27137 0.73781
 C781 C 0.62792 0.28416 0.72077
 C782 C 0.60952 0.28119 0.70956
 C783 C 0.57643 0.26222 0.70375
 C784 C 0.57199 0.27506 0.68684
 C785 C 0.55349 0.27204 0.67582
 C786 C 0.53943 0.25639 0.68173
 C787 C 0.54419 0.24364 0.69871
 C788 C 0.56267 0.24647 0.70976
 C789 C 0.60453 0.29375 0.69255
 C790 C 0.58611 0.29072 0.68137
 C791 C 0.58617 0.23682 0.73777
 C792 C 0.56767 0.23388 0.72672
 H793 H 0.61497 0.30603 0.68782
 H794 H 0.58286 0.30075 0.66836
 H795 H 0.58943 0.22677 0.75076
 H796 H 0.55720 0.22165 0.73150
 H797 H 0.62188 0.24542 0.75630
 H798 H 0.63829 0.29643 0.71600
 H799 H 0.54984 0.28205 0.66289
 H800 H 0.53359 0.23139 0.70319
 C801 C 0.09422 0.76578 0.21502
 C802 C 0.09785 0.75388 0.23278
 C803 C 0.11585 0.75743 0.24441
 C804 C 0.13025 0.77278 0.23844
 C805 C 0.12636 0.78446 0.22044
 C806 C 0.10837 0.78105 0.20872
 C807 C 0.07517 0.76228 0.20289
 C808 C 0.07145 0.77429 0.18522
 C809 C 0.05315 0.77111 0.17391
 C810 C 0.03861 0.75607 0.18022
 C811 C 0.04274 0.74403 0.19789
 C812 C 0.06096 0.74711 0.20931
 C813 C 0.10418 0.79268 0.19087
 C814 C 0.08603 0.78937 0.17933
 C815 C 0.08331 0.73875 0.23864
 C816 C 0.06519 0.73541 0.22709
 H817 H 0.11497 0.80452 0.18583
 H818 H 0.08335 0.79875 0.16572
 H819 H 0.08594 0.72945 0.25230
 H820 H 0.05435 0.72364 0.23219
 H821 H 0.11843 0.74832 0.25818
 H822 H 0.13722 0.79622 0.21547
 H823 H 0.05002 0.78061 0.16049
 H824 H 0.03181 0.73221 0.20269
 C825 C 0.28323 0.09328 0.23258
 C826 C 0.28993 0.10717 0.21734
 C827 C 0.27845 0.12525 0.21368
 C828 C 0.26028 0.12948 0.22507
 C829 C 0.25389 0.11532 0.24040
 C830 C 0.26529 0.09722 0.24420
 C831 C 0.29515 0.07416 0.23638
 C832 C 0.28836 0.06021 0.25156
 C833 C 0.29966 0.04198 0.25500
 C834 C 0.31758 0.03761 0.24333
 C835 C 0.32420 0.05185 0.22822
 C836 C 0.31303 0.07015 0.22468
 C837 C 0.25904 0.08293 0.25932
 C838 C 0.27039 0.06474 0.26295
 C839 C 0.30796 0.10267 0.20599
 C840 C 0.31930 0.08447 0.20959
 H841 H 0.24522 0.08580 0.26841
 H842 H 0.26500 0.05411 0.27473
 H843 H 0.31331 0.11328 0.19418
 H844 H 0.33307 0.08156 0.20045
 H845 H 0.28375 0.13592 0.20194
 H846 H 0.23999 0.11815 0.24930
 H847 H 0.29460 0.03128 0.26687
 H848 H 0.33782 0.04852 0.21899
 C849 C 0.78299 0.59399 0.73243
 C850 C 0.78979 0.60793 0.71726
 C851 C 0.77844 0.62611 0.71371
 C852 C 0.76030 0.63039 0.72514
 C853 C 0.75383 0.61620 0.74040
 C854 C 0.76510 0.59800 0.74409
 C855 C 0.79477 0.57475 0.73609
 C856 C 0.78789 0.56076 0.75119
 C857 C 0.79905 0.54242 0.75450
 C858 C 0.81692 0.53799 0.74278
 C859 C 0.82363 0.55227 0.72774
 C860 C 0.81260 0.57068 0.72434
 C861 C 0.75876 0.58366 0.75914
 C862 C 0.76997 0.56537 0.76264
 C863 C 0.80777 0.60336 0.70587
 C864 C 0.81897 0.58505 0.70934
 H865 H 0.74498 0.58658 0.76826
 H866 H 0.76452 0.55470 0.77436
 H867 H 0.81319 0.61400 0.69412
 H868 H 0.83271 0.58209 0.70017
 H869 H 0.78380 0.63681 0.70203
 H870 H 0.73995 0.61908 0.74932
 H871 H 0.79393 0.53169 0.76631
 H872 H 0.83721 0.54890 0.71847
 C873 C 0.78325 0.40517 0.76595
 C874 C 0.76585 0.40067 0.75370
 C875 C 0.75473 0.38231 0.75725
 C876 C 0.76087 0.36852 0.77297
 C877 C 0.77844 0.37332 0.78504
 C878 C 0.78967 0.39161 0.78161
 C879 C 0.79494 0.42449 0.76236
 C880 C 0.81234 0.42899 0.77462
 C881 C 0.82332 0.44743 0.77123
 C882 C 0.81699 0.46136 0.75574
 C883 C 0.79953 0.45656 0.74353
 C884 C 0.78844 0.43814 0.74678
 C885 C 0.80718 0.39662 0.79354
 C886 C 0.81833 0.41499 0.79011
 C887 C 0.75986 0.41467 0.73820
 C888 C 0.77097 0.43309 0.73481
 H889 H 0.81230 0.38626 0.80566
 H890 H 0.83172 0.41828 0.79968
 H891 H 0.74646 0.41139 0.72864
 H892 H 0.76581 0.44348 0.72273
 H893 H 0.74119 0.37896 0.74793
 H894 H 0.78355 0.36282 0.79703
 H895 H 0.83658 0.45112 0.78086
 H896 H 0.79470 0.46705 0.73140
 C897 C 0.28404 -0.09491 0.26698
 C898 C 0.26695 -0.09960 0.25441
 C899 C 0.25563 -0.11780 0.25809
 C900 C 0.26113 -0.13135 0.27435
 C901 C 0.27852 -0.12626 0.28671
 C902 C 0.28997 -0.10813 0.28309
 C903 C 0.29587 -0.07569 0.26329
 C904 C 0.31297 -0.07097 0.27590
 C905 C 0.32404 -0.05258 0.27245
 C906 C 0.31804 -0.03891 0.25660
 C907 C 0.30091 -0.04395 0.24404
 C908 C 0.28978 -0.06233 0.24731
 C909 C 0.30721 -0.10293 0.29534
 C910 C 0.31852 -0.08467 0.29180
 C911 C 0.26142 -0.08592 0.23847
 C912 C 0.27263 -0.06760 0.23499
 H913 H 0.31198 -0.11302 0.30782
 H914 H 0.33167 -0.08122 0.30164
 H915 H 0.24826 -0.08937 0.22863
 H916 H 0.26779 -0.05744 0.22259
 H917 H 0.24246 -0.12110 0.24828
 H918 H 0.28333 -0.13625 0.29921
 H919 H 0.33707 -0.04871 0.28231
 H920 H 0.29635 -0.03364 0.23165
 C921 C 0.21694 -0.09428 0.73279
 C922 C 0.23431 -0.09871 0.74505
 C923 C 0.24565 -0.11686 0.74129
 C924 C 0.23990 -0.13063 0.72525
 C925 C 0.22222 -0.12581 0.71322
 C926 C 0.21076 -0.10772 0.71692
 C927 C 0.20508 -0.07510 0.73656
 C928 C 0.18772 -0.07064 0.72425
 C929 C 0.17661 -0.05231 0.72779
 C930 C 0.18281 -0.03845 0.74344
 C931 C 0.20022 -0.04323 0.75569
 C932 C 0.21141 -0.06154 0.75232
 C933 C 0.19326 -0.10276 0.70495
 C934 C 0.18193 -0.08454 0.70856
 C935 C 0.24008 -0.08483 0.76078
 C936 C 0.22883 -0.06656 0.76434
 H937 H 0.18830 -0.11302 0.69265
 H938 H 0.16858 -0.08128 0.69895
 H939 H 0.25346 -0.08807 0.77037
 H940 H 0.23386 -0.05624 0.77657
 H941 H 0.25904 -0.11996 0.75086
 H942 H 0.21722 -0.13596 0.70089
 H943 H 0.16338 -0.04863 0.71813
 H944 H 0.20494 -0.03278 0.76794
 C945 C 0.71608 0.40507 0.23395
 C946 C 0.73397 0.40112 0.24564
 C947 C 0.74534 0.38298 0.24190
 C948 C 0.73897 0.36880 0.22656
 C949 C 0.72083 0.37301 0.21512
 C950 C 0.70938 0.39112 0.21871
 C951 C 0.70423 0.42427 0.23762
 C952 C 0.68643 0.42829 0.22580
 C953 C 0.67537 0.44669 0.22916
 C954 C 0.68202 0.46102 0.24421
 C955 C 0.69983 0.45662 0.25604
 C956 C 0.71103 0.43829 0.25277
 C957 C 0.69141 0.39563 0.20727
 C958 C 0.68014 0.41391 0.21074
 C959 C 0.74022 0.41548 0.26076
 C960 C 0.72893 0.43374 0.26427
 H961 H 0.68606 0.38498 0.19547
 H962 H 0.66643 0.41683 0.20152
 H963 H 0.75399 0.41261 0.26990
 H964 H 0.73432 0.44442 0.27602
 H965 H 0.75924 0.38015 0.25082
 H966 H 0.71553 0.36230 0.20339
 H967 H 0.66184 0.45004 0.21981
 H968 H 0.70490 0.46740 0.26786
 C969 C 0.71641 0.59370 0.26683
 C970 C 0.70973 0.60767 0.28205
 C971 C 0.72121 0.62579 0.28563
 C972 C 0.73936 0.63000 0.27420
 C973 C 0.74572 0.61578 0.25890
 C974 C 0.73432 0.59763 0.25517
 C975 C 0.70451 0.57452 0.26315
 C976 C 0.71128 0.56049 0.24802
 C977 C 0.70003 0.54217 0.24472
 C978 C 0.68217 0.53781 0.25649
 C979 C 0.67555 0.55214 0.27153
 C980 C 0.68667 0.57052 0.27493
 C981 C 0.74055 0.58327 0.24008
 C982 C 0.72921 0.56501 0.23655
 C983 C 0.69174 0.60318 0.29346
 C984 C 0.68041 0.58492 0.28997
 H985 H 0.75434 0.58612 0.23095
 H986 H 0.73459 0.55432 0.22481
 H987 H 0.68640 0.61385 0.30524
 H988 H 0.66668 0.58202 0.29916
 H989 H 0.71592 0.63651 0.29735
 H990 H 0.75962 0.61861 0.24997
 H991 H 0.70507 0.53140 0.23290
 H992 H 0.66199 0.54881 0.28085
 C993 C 0.21674 0.09432 0.76642
 C994 C 0.21000 0.10832 0.78158
 C995 C 0.22139 0.12651 0.78507
 C996 C 0.23951 0.13075 0.77360
 C997 C 0.24593 0.11652 0.75835
 C998 C 0.23462 0.09830 0.75471
 C999 C 0.20494 0.07505 0.76284
 C1000 C 0.21176 0.06099 0.74775
 C1001 C 0.20059 0.04262 0.74454
 C1002 C 0.18276 0.03820 0.75634
 C1003 C 0.17609 0.05257 0.77134
 C1004 C 0.18713 0.07101 0.77465
 C1005 C 0.24090 0.08390 0.73967
 C1006 C 0.22965 0.06557 0.73624
 C1007 C 0.19204 0.10379 0.79302
 C1008 C 0.18081 0.08545 0.78963
 H1009 H 0.25466 0.08679 0.73051
 H1010 H 0.23506 0.05486 0.72454
 H1011 H 0.18666 0.11448 0.80476
 H1012 H 0.16709 0.08252 0.79884
 H1013 H 0.21605 0.13728 0.79671
 H1014 H 0.25982 0.11938 0.74943
 H1015 H 0.20567 0.03183 0.73274
 H1016 H 0.16255 0.04921 0.78067
 C1017 C 0.23377 0.28621 0.09361
 C1018 C 0.21834 0.29258 0.10749
 C1019 C 0.21476 0.28089 0.12539
 C1020 C 0.22641 0.26284 0.12944
 C1021 C 0.24195 0.25682 0.11532
 C1022 C 0.24567 0.26843 0.09740
 C1023 C 0.23742 0.29829 0.07463
 C1024 C 0.25274 0.29180 0.06067
 C1025 C 0.25595 0.30316 0.04252
 C1026 C 0.24389 0.32084 0.03823
 C1027 C 0.22870 0.32722 0.05252
 C1028 C 0.22538 0.31598 0.07074
 C1029 C 0.26097 0.26250 0.08313
 C1030 C 0.26445 0.27400 0.06507
 C1031 C 0.20669 0.31045 0.10313
 C1032 C 0.21015 0.32195 0.08506
 H1033 H 0.27028 0.24881 0.08588
 H1034 H 0.27634 0.26884 0.05443
 H1035 H 0.19474 0.31555 0.11373
 H1036 H 0.20076 0.33557 0.08225
 H1037 H 0.20285 0.28592 0.13603
 H1038 H 0.25106 0.24303 0.11802
 H1039 H 0.26789 0.29830 0.03177
 H1040 H 0.21918 0.34066 0.04925
 C1041 C 0.73397 0.78697 0.59353
 C1042 C 0.74578 0.76912 0.59731
 C1043 C 0.74207 0.75759 0.61527
 C1044 C 0.72665 0.76375 0.62946
 C1045 C 0.71509 0.78186 0.62542
 C1046 C 0.71865 0.79348 0.60748
 C1047 C 0.73761 0.79899 0.57451
 C1048 C 0.72568 0.81675 0.57064
 C1049 C 0.72900 0.82794 0.55238
 C1050 C 0.74410 0.82144 0.53805
 C1051 C 0.75605 0.80368 0.54232
 C1052 C 0.75283 0.79237 0.56050
 C1053 C 0.70710 0.81142 0.60313
 C1054 C 0.71055 0.82285 0.58502
 C1055 C 0.76097 0.76306 0.58298
 C1056 C 0.76445 0.77450 0.56488
 H1057 H 0.69523 0.81662 0.61377
 H1058 H 0.70124 0.83653 0.58221
 H1059 H 0.77020 0.74932 0.58572
 H1060 H 0.77625 0.76924 0.55420
 H1061 H 0.75111 0.74375 0.61796
 H1062 H 0.70327 0.78699 0.63611
 H1063 H 0.71956 0.84144 0.54913
 H1064 H 0.76791 0.79873 0.53154
 C1065 C 0.76612 0.78654 0.40615
 C1066 C 0.75432 0.76865 0.40238
 C1067 C 0.75803 0.75707 0.38443
 C1068 C 0.77345 0.76322 0.37024
 C1069 C 0.78501 0.78136 0.37427
 C1070 C 0.78145 0.79303 0.39220
 C1071 C 0.76247 0.79862 0.42514
 C1072 C 0.77440 0.81642 0.42900
 C1073 C 0.77106 0.82769 0.44722
 C1074 C 0.75593 0.82123 0.46155
 C1075 C 0.74399 0.80341 0.45731
 C1076 C 0.74724 0.79202 0.43916
 C1077 C 0.79300 0.81100 0.39653
 C1078 C 0.78954 0.82249 0.41462
 C1079 C 0.73913 0.76261 0.41672
 C1080 C 0.73563 0.77411 0.43479
 H1081 H 0.80487 0.81619 0.38589
 H1082 H 0.79885 0.83620 0.41741
 H1083 H 0.72990 0.74883 0.41399
 H1084 H 0.72382 0.76887 0.44548
 H1085 H 0.74900 0.74319 0.38175
 H1086 H 0.79682 0.78649 0.36357
 H1087 H 0.78049 0.84122 0.45046
 H1088 H 0.73212 0.79849 0.46808
 C1089 C 0.26660 0.28605 -0.09353
 C1090 C 0.25494 0.26807 -0.09732
 C1091 C 0.25881 0.25650 -0.11524
 C1092 C 0.27424 0.26274 -0.12938
 C1093 C 0.28567 0.28096 -0.12532
 C1094 C 0.28195 0.29263 -0.10742
 C1095 C 0.26276 0.29813 -0.07458
 C1096 C 0.27454 0.31603 -0.07070
 C1097 C 0.27104 0.32730 -0.05250
 C1098 C 0.25590 0.32075 -0.03823
 C1099 C 0.24410 0.30285 -0.04250
 C1100 C 0.24751 0.29146 -0.06062
 C1101 C 0.29334 0.31069 -0.10306
 C1102 C 0.28972 0.32218 -0.08500
 C1103 C 0.23972 0.26194 -0.08305
 C1104 C 0.23605 0.27345 -0.06501
 H1105 H 0.30523 0.31594 -0.11365
 H1106 H 0.29891 0.33596 -0.08219
 H1107 H 0.23060 0.24810 -0.08580
 H1108 H 0.22423 0.26814 -0.05437
 H1109 H 0.24991 0.24254 -0.11794
 H1110 H 0.29748 0.28616 -0.13599
 H1111 H 0.28036 0.34090 -0.04924
 H1112 H 0.23221 0.29785 -0.03177
 C1113 C 0.73345 0.21316 -0.09442
 C1114 C 0.71757 0.20705 -0.10795
 C1115 C 0.71412 0.21851 -0.12602
 C1116 C 0.72644 0.23599 -0.13065
 C1117 C 0.74237 0.24177 -0.11684
 C1118 C 0.74590 0.23046 -0.09872
 C1119 C 0.73705 0.20126 -0.07533
 C1120 C 0.75285 0.20748 -0.06173
 C1121 C 0.75609 0.19625 -0.04351
 C1122 C 0.74365 0.17892 -0.03882
 C1123 C 0.72797 0.17280 -0.05272
 C1124 C 0.72457 0.18396 -0.07099
 C1125 C 0.76164 0.23613 -0.08480
 C1126 C 0.76505 0.22484 -0.06661
 C1127 C 0.70540 0.18964 -0.10309
 C1128 C 0.70886 0.17828 -0.08493
 H1129 H 0.77137 0.24946 -0.08796
 H1130 H 0.77730 0.22979 -0.05626
 H1131 H 0.69309 0.18476 -0.11340
 H1132 H 0.69910 0.16498 -0.08176
 H1133 H 0.70175 0.21383 -0.13632
 H1134 H 0.75213 0.25501 -0.12009
 H1135 H 0.76836 0.20090 -0.03304
 H1136 H 0.71820 0.15961 -0.04913
 C1137 C 0.23448 0.71336 0.40596
 C1138 C 0.24627 0.73126 0.40225
 C1139 C 0.24265 0.74276 0.38425
 C1140 C 0.22733 0.73652 0.36996
 C1141 C 0.21580 0.71836 0.37393
 C1142 C 0.21927 0.70677 0.39191
 C1143 C 0.23802 0.70138 0.42502
 C1144 C 0.22610 0.68356 0.42882
 C1145 C 0.22933 0.67239 0.44710
 C1146 C 0.24432 0.67895 0.46155
 C1147 C 0.25625 0.69678 0.45736
 C1148 C 0.25313 0.70807 0.43915
 C1149 C 0.20774 0.68879 0.39619
 C1150 C 0.21108 0.67739 0.41434
 C1151 C 0.26135 0.73740 0.41670
 C1152 C 0.26473 0.72599 0.43483
 H1153 H 0.19595 0.68353 0.38546
 H1154 H 0.20179 0.66367 0.41708
 H1155 H 0.27057 0.75118 0.41401
 H1156 H 0.27645 0.73130 0.44560
 H1157 H 0.25165 0.75666 0.38162
 H1158 H 0.20408 0.71316 0.36314
 H1159 H 0.21990 0.65885 0.45029
 H1160 H 0.26804 0.70179 0.46822
 C1161 C 0.26563 0.71343 0.59379
 C1162 C 0.25388 0.73134 0.59752
 C1163 C 0.25754 0.74288 0.61552
 C1164 C 0.27286 0.73667 0.62979
 C1165 C 0.28435 0.71849 0.62580
 C1166 C 0.28084 0.70687 0.60782
 C1167 C 0.26206 0.70143 0.57472
 C1168 C 0.27395 0.68361 0.57089
 C1169 C 0.27071 0.67243 0.55259
 C1170 C 0.25573 0.67898 0.53816
 C1171 C 0.24381 0.69679 0.54238
 C1172 C 0.24696 0.70810 0.56060
 C1173 C 0.29233 0.68888 0.60352
 C1174 C 0.28896 0.67746 0.58537
 C1175 C 0.23880 0.73745 0.58309
 C1176 C 0.23538 0.72602 0.56495
 H1177 H 0.30411 0.68364 0.61424
 H1178 H 0.29823 0.66374 0.58260
 H1179 H 0.22961 0.75123 0.58580
 H1180 H 0.22366 0.73131 0.55420
 H1181 H 0.24857 0.75678 0.61817
 H1182 H 0.29607 0.71332 0.63657
 H1183 H 0.28012 0.65890 0.54938
 H1184 H 0.23204 0.70178 0.53153
 C1185 C 0.76691 0.21396 0.09286
 C1186 C 0.78231 0.20750 0.10673
 C1187 C 0.78594 0.21914 0.12468
 C1188 C 0.77435 0.23722 0.12880
 C1189 C 0.75887 0.24335 0.11467
 C1190 C 0.75509 0.23180 0.09671
 C1191 C 0.76316 0.20189 0.07387
 C1192 C 0.74784 0.20844 0.05994
 C1193 C 0.74449 0.19705 0.04181
 C1194 C 0.75640 0.17926 0.03750
 C1195 C 0.77163 0.17284 0.05173
 C1196 C 0.77508 0.18412 0.06994
 C1197 C 0.73981 0.23780 0.08245
 C1198 C 0.73623 0.22632 0.06439
 C1199 C 0.79386 0.18957 0.10233
 C1200 C 0.79031 0.17808 0.08424
 H1201 H 0.73057 0.25154 0.08525
 H1202 H 0.72435 0.23152 0.05377
 H1203 H 0.80579 0.18440 0.11291
 H1204 H 0.79961 0.16440 0.08140
 H1205 H 0.79780 0.21403 0.13533
 H1206 H 0.74982 0.25719 0.11742
 H1207 H 0.73253 0.20195 0.03111
 H1208 H 0.78104 0.15933 0.04845
 C1209 C 0.48521 0.34419 0.53619
 C1210 C 0.46999 0.35835 0.54255
 C1211 C 0.46647 0.37621 0.53073
 C1212 C 0.47797 0.37994 0.51257
 C1213 C 0.49330 0.36555 0.50657
 C1214 C 0.49696 0.34768 0.51830
 C1215 C 0.48879 0.32524 0.54840
 C1216 C 0.50388 0.31099 0.54191
 C1217 C 0.50700 0.29285 0.55337
 C1218 C 0.49506 0.28883 0.57114
 C1219 C 0.48012 0.30342 0.57755
 C1220 C 0.47690 0.32164 0.56620
 C1221 C 0.51204 0.33312 0.51238
 C1222 C 0.51545 0.31510 0.52399
 C1223 C 0.45850 0.35429 0.56054
 C1224 C 0.46188 0.33624 0.57215
 H1225 H 0.52122 0.33564 0.49861
 H1226 H 0.52716 0.30423 0.51884
 H1227 H 0.44671 0.36510 0.56563
 H1228 H 0.45261 0.33366 0.58585
 H1229 H 0.45475 0.38710 0.53573
 H1230 H 0.50225 0.36800 0.49267
 H1231 H 0.51874 0.28188 0.54849
 H1232 H 0.47070 0.30036 0.59106
 C1233 C -0.01500 0.84466 0.03493
 C1234 C -0.00304 0.84835 0.01721
 C1235 C -0.00656 0.86636 0.00565
 C1236 C -0.02195 0.88069 0.01163
 C1237 C -0.03368 0.87674 0.02959
 C1238 C -0.03030 0.85874 0.04126
 C1239 C -0.01154 0.82558 0.04698
 C1240 C -0.02362 0.82180 0.06461
 C1241 C -0.02047 0.80348 0.07584
 C1242 C -0.00542 0.78899 0.06948
 C1243 C 0.00668 0.79319 0.05185
 C1244 C 0.00365 0.81142 0.04052
 C1245 C -0.04199 0.85448 0.05907
 C1246 C -0.03872 0.83632 0.07054
 C1247 C 0.01213 0.83387 0.01133
 C1248 C 0.01542 0.81573 0.02279
 H1249 H -0.05385 0.86523 0.06414
 H1250 H -0.04814 0.83360 0.08412
 H1251 H 0.02148 0.83655 -0.00231
 H1252 H 0.02721 0.80493 0.01767
 H1253 H 0.00262 0.86898 -0.00807
 H1254 H -0.04549 0.88754 0.03457
 H1255 H -0.03002 0.80030 0.08924
 H1256 H 0.01852 0.78229 0.04701
 C1257 C 0.01540 0.65649 0.03459
 C1258 C 0.03065 0.64237 0.04095
 C1259 C 0.03407 0.62439 0.02923
 C1260 C 0.02242 0.62051 0.01118
 C1261 C 0.00707 0.63487 0.00517
 C1262 C 0.00352 0.65286 0.01680
 C1263 C 0.01193 0.67555 0.04670
 C1264 C -0.00321 0.68975 0.04022
 C1265 C -0.00625 0.70798 0.05162
 C1266 C 0.00578 0.71212 0.06932
 C1267 C 0.02079 0.69759 0.07568
 C1268 C 0.02394 0.67929 0.06441
 C1269 C -0.01159 0.66737 0.01089
 C1270 C -0.01490 0.68550 0.02241
 C1271 C 0.04227 0.64658 0.05883
 C1272 C 0.03899 0.66473 0.07036
 H1273 H -0.02088 0.66474 -0.00281
 H1274 H -0.02665 0.69633 0.01727
 H1275 H 0.05408 0.63579 0.06392
 H1276 H 0.04835 0.66741 0.08399
 H1277 H 0.04580 0.61354 0.03423
 H1278 H -0.00200 0.63229 -0.00865
 H1279 H -0.01805 0.71889 0.04677
 H1280 H 0.03029 0.70074 0.08914
 C1281 C 0.51527 0.15630 0.53639
 C1282 C 0.50337 0.15271 0.51860
 C1283 C 0.50690 0.13474 0.50694
 C1284 C 0.52225 0.12036 0.51290
 C1285 C 0.53391 0.12421 0.53095
 C1286 C 0.53052 0.14216 0.54271
 C1287 C 0.51183 0.17535 0.54853
 C1288 C 0.52387 0.17905 0.56623
 C1289 C 0.52078 0.19735 0.57751
 C1290 C 0.50579 0.21191 0.57118
 C1291 C 0.49371 0.20780 0.55350
 C1292 C 0.49671 0.18958 0.54209
 C1293 C 0.54217 0.14633 0.56058
 C1294 C 0.53891 0.16446 0.57213
 C1295 C 0.48827 0.16725 0.51273
 C1296 C 0.48499 0.18536 0.52428
 H1297 H 0.55398 0.13553 0.56564
 H1298 H 0.54831 0.16713 0.58575
 H1299 H 0.47897 0.16465 0.49904
 H1300 H 0.47325 0.19621 0.51917
 H1301 H 0.49782 0.13220 0.49312
 H1302 H 0.54565 0.11334 0.53593
 H1303 H 0.53031 0.20048 0.59095
 H1304 H 0.48194 0.21875 0.54867
 C1305 C -0.01621 0.15695 0.46636
 C1306 C -0.03185 0.14302 0.46044
 C1307 C -0.03579 0.12557 0.47274
 C1308 C -0.02429 0.12204 0.49094
 C1309 C -0.00846 0.13612 0.49642
 C1310 C -0.00439 0.15359 0.48423
 C1311 C -0.01232 0.17558 0.45376
 C1312 C 0.00312 0.18966 0.45988
 C1313 C 0.00643 0.20758 0.44813
 C1314 C -0.00567 0.21156 0.43045
 C1315 C -0.02091 0.19711 0.42438
 C1316 C -0.02433 0.17911 0.43602
 C1317 C 0.01110 0.16791 0.48972
 C1318 C 0.01479 0.18564 0.47774
 C1319 C -0.04341 0.14696 0.44247
 C1320 C -0.03972 0.16470 0.43047
 H1321 H 0.02034 0.16548 0.50348
 H1322 H 0.02678 0.19637 0.48260
 H1323 H -0.05552 0.13632 0.43771
 H1324 H -0.04909 0.16723 0.41682
 H1325 H -0.04788 0.11489 0.46812
 H1326 H 0.00053 0.13380 0.51033
 H1327 H 0.01839 0.21846 0.45275
 H1328 H -0.03044 0.20015 0.41094
 C1329 C 0.48470 0.65605 0.96517
 C1330 C 0.49656 0.65247 0.98298
 C1331 C 0.49297 0.63451 0.99461
 C1332 C 0.47761 0.62013 0.98859
 C1333 C 0.46600 0.62396 0.97052
 C1334 C 0.46945 0.64190 0.95880
 C1335 C 0.48821 0.67509 0.95307
 C1336 C 0.47622 0.67877 0.93535
 C1337 C 0.47938 0.69705 0.92408
 C1338 C 0.49438 0.71162 0.93047
 C1339 C 0.50641 0.70753 0.94818
 C1340 C 0.50335 0.68932 0.95956
 C1341 C 0.45785 0.64605 0.94090
 C1342 C 0.46116 0.66418 0.92938
 C1343 C 0.51167 0.66702 0.98891
 C1344 C 0.51502 0.68513 0.97739
 H1345 H 0.44603 0.63525 0.93581
 H1346 H 0.45181 0.66682 0.91574
 H1347 H 0.52094 0.66443 1.00262
 H1348 H 0.52676 0.69598 0.98254
 H1349 H 0.50201 0.63198 1.00844
 H1350 H 0.45425 0.61308 0.96550
 H1351 H 0.46990 0.70016 0.91062
 H1352 H 0.51820 0.71848 0.95305
 C1353 C 0.51489 0.84429 0.96507
 C1354 C 0.50295 0.84796 0.98280
 C1355 C 0.50644 0.86601 0.99436
 C1356 C 0.52179 0.88041 0.98835
 C1357 C 0.53350 0.87646 0.97036
 C1358 C 0.53014 0.85843 0.95871
 C1359 C 0.51146 0.82518 0.95302
 C1360 C 0.52351 0.82142 0.93536
 C1361 C 0.52039 0.80308 0.92412
 C1362 C 0.50538 0.78854 0.93049
 C1363 C 0.49330 0.79269 0.94815
 C1364 C 0.49631 0.81096 0.95949
 C1365 C 0.54182 0.85419 0.94088
 C1366 C 0.53857 0.83599 0.92941
 C1367 C 0.48784 0.83342 0.98872
 C1368 C 0.48457 0.81524 0.97725
 H1369 H 0.55364 0.86498 0.93579
 H1370 H 0.54798 0.83328 0.91581
 H1371 H 0.47851 0.83609 1.00237
 H1372 H 0.47281 0.80440 0.98239
 H1373 H 0.49728 0.86863 1.00809
 H1374 H 0.54527 0.88731 0.96535
 H1375 H 0.52992 0.79991 0.91070
 H1376 H 0.48150 0.78176 0.95299
 C1377 C 0.01472 0.34414 0.46452
 C1378 C 0.02997 0.35829 0.45817
 C1379 C 0.03342 0.37624 0.46991
 C1380 C 0.02182 0.38008 0.48799
 C1381 C 0.00646 0.36570 0.49398
 C1382 C 0.00287 0.34773 0.48233
 C1383 C 0.01124 0.32508 0.45241
 C1384 C -0.00387 0.31083 0.45890
 C1385 C -0.00688 0.29258 0.44755
 C1386 C 0.00518 0.28844 0.42988
 C1387 C 0.02013 0.30302 0.42346
 C1388 C 0.02324 0.32136 0.43470
 C1389 C -0.01223 0.33319 0.48824
 C1390 C -0.01555 0.31505 0.47672
 C1391 C 0.04157 0.35412 0.44027
 C1392 C 0.03827 0.33596 0.42874
 H1393 H -0.02150 0.33579 0.50195
 H1394 H -0.02728 0.30419 0.48187
 H1395 H 0.05338 0.36492 0.43518
 H1396 H 0.04763 0.33330 0.41511
 H1397 H 0.04517 0.38712 0.46492
 H1398 H -0.00257 0.36823 0.50782
 H1399 H -0.01864 0.28161 0.45243
 H1400 H 0.02963 0.29987 0.41002
 C1401 C 0.34424 0.53354 0.48361
 C1402 C 0.34816 0.51573 0.49538
 C1403 C 0.36626 0.50428 0.49166
 C1404 C 0.38044 0.51048 0.47626
 C1405 C 0.37625 0.52856 0.46475
 C1406 C 0.35818 0.54009 0.46832
 C1407 C 0.32508 0.54548 0.48726
 C1408 C 0.32108 0.56321 0.47536
 C1409 C 0.30272 0.57434 0.47870
 C1410 C 0.28839 0.56785 0.49381
 C1411 C 0.29277 0.55011 0.50571
 C1412 C 0.31107 0.53884 0.50246
 C1413 C 0.35370 0.55798 0.45681
 C1414 C 0.33546 0.56934 0.46026
 C1415 C 0.33382 0.50964 0.51055
 C1416 C 0.31560 0.52101 0.51404
 H1417 H 0.36435 0.56321 0.44496
 H1418 H 0.33256 0.58299 0.45098
 H1419 H 0.33667 0.49593 0.51976
 H1420 H 0.30492 0.51574 0.52584
 H1421 H 0.36908 0.49045 0.50066
 H1422 H 0.38695 0.53373 0.45296
 H1423 H 0.29938 0.58781 0.46930
 H1424 H 0.28201 0.54516 0.51757
 C1425 C 0.84442 0.03410 -0.01700
 C1426 C 0.84850 0.01633 -0.00522
 C1427 C 0.86671 0.00504 -0.00891
 C1428 C 0.88084 0.01138 -0.02429
 C1429 C 0.87649 0.02938 -0.03585
 C1430 C 0.85831 0.04075 -0.03230
 C1431 C 0.82518 0.04589 -0.01333
 C1432 C 0.82105 0.06360 -0.02521
 C1433 C 0.80262 0.07463 -0.02182
 C1434 C 0.78837 0.06805 -0.00668
 C1435 C 0.79288 0.05032 0.00519
 C1436 C 0.81124 0.03916 0.00190
 C1437 C 0.85368 0.05861 -0.04381
 C1438 C 0.83536 0.06983 -0.04034
 C1439 C 0.83421 0.01013 0.00996
 C1440 C 0.81590 0.02136 0.01347
 H1441 H 0.86428 0.06392 -0.05566
 H1442 H 0.83236 0.08346 -0.04961
 H1443 H 0.83718 -0.00355 0.01918
 H1444 H 0.80528 0.01602 0.02528
 H1445 H 0.86965 -0.00876 0.00008
 H1446 H 0.88717 0.03465 -0.04761
 H1447 H 0.79919 0.08809 -0.03120
 H1448 H 0.78217 0.04530 0.01708
 C1449 C 0.65558 0.03391 0.01664
 C1450 C 0.64169 0.04067 0.03189
 C1451 C 0.62349 0.02931 0.03549
 C1452 C 0.61914 0.01120 0.02404
 C1453 C 0.63330 0.00474 0.00873
 C1454 C 0.65152 0.01602 0.00498
 C1455 C 0.67482 0.04571 0.01290
 C1456 C 0.68877 0.03888 -0.00228
 C1457 C 0.70712 0.05007 -0.00566
 C1458 C 0.71159 0.06793 0.00607
 C1459 C 0.69735 0.07460 0.02118
 C1460 C 0.67894 0.06354 0.02466
 C1461 C 0.66582 0.00971 -0.01014
 C1462 C 0.68412 0.02096 -0.01372
 C1463 C 0.64631 0.05864 0.04329
 C1464 C 0.66462 0.06987 0.03975
 H1465 H 0.66286 -0.00406 -0.01927
 H1466 H 0.69475 0.01553 -0.02549
 H1467 H 0.63570 0.06403 0.05510
 H1468 H 0.66762 0.08360 0.04892
 H1469 H 0.61279 0.03467 0.04720
 H1470 H 0.63036 -0.00915 -0.00017
 H1471 H 0.71782 0.04497 -0.01752
 H1472 H 0.70076 0.08816 0.03047
 C1473 C 0.15564 0.53374 0.51666
 C1474 C 0.15164 0.51586 0.50497
 C1475 C 0.13350 0.50447 0.50875
 C1476 C 0.11935 0.51081 0.52412
 C1477 C 0.12362 0.52894 0.53558
 C1478 C 0.14174 0.54042 0.53194
 C1479 C 0.17483 0.54563 0.51294
 C1480 C 0.17891 0.56343 0.52474
 C1481 C 0.19731 0.57452 0.52131
 C1482 C 0.21158 0.56790 0.50621
 C1483 C 0.20713 0.55008 0.49441
 C1484 C 0.18881 0.53886 0.49775
 C1485 C 0.14630 0.55838 0.54337
 C1486 C 0.16457 0.56968 0.53984
 C1487 C 0.16594 0.50965 0.48982
 C1488 C 0.18420 0.52096 0.48625
 H1489 H 0.13569 0.56370 0.55521
 H1490 H 0.16753 0.58340 0.54905
 H1491 H 0.16303 0.49588 0.48067
 H1492 H 0.19485 0.51559 0.47447
 H1493 H 0.13063 0.49060 0.49980
 H1494 H 0.11295 0.53420 0.54735
 H1495 H 0.20070 0.58806 0.53064
 H1496 H 0.21786 0.54503 0.48256
 C1497 C 0.15539 0.46613 -0.01685
 C1498 C 0.14149 0.45953 -0.03219
 C1499 C 0.12342 0.47105 -0.03584
 C1500 C 0.11919 0.48915 -0.02436
 C1501 C 0.13333 0.49542 -0.00892
 C1502 C 0.15142 0.48399 -0.00512
 C1503 C 0.17453 0.45421 -0.01310
 C1504 C 0.18849 0.46091 0.00215
 C1505 C 0.20678 0.44967 0.00549
 C1506 C 0.21121 0.43188 -0.00636
 C1507 C 0.19693 0.42531 -0.02150
 C1508 C 0.17857 0.43643 -0.02494
 C1509 C 0.16571 0.49014 0.01009
 C1510 C 0.18393 0.47879 0.01367
 C1511 C 0.14601 0.44158 -0.04365
 C1512 C 0.16424 0.43024 -0.04009
 H1513 H 0.16283 0.50389 0.01926
 H1514 H 0.19457 0.48411 0.02550
 H1515 H 0.13541 0.43630 -0.05552
 H1516 H 0.16717 0.41654 -0.04933
 H1517 H 0.11277 0.46583 -0.04767
 H1518 H 0.13049 0.50927 0.00006
 H1519 H 0.21751 0.45468 0.01738
 H1520 H 0.20030 0.41179 -0.03086
 C1521 C 0.65584 0.96668 0.48353
 C1522 C 0.65204 0.98460 0.49522
 C1523 C 0.63388 0.99599 0.49162
 C1524 C 0.61953 0.98961 0.47644
 C1525 C 0.62360 0.97144 0.46500
 C1526 C 0.64173 0.95996 0.46844
 C1527 C 0.67505 0.95479 0.48707
 C1528 C 0.67892 0.93694 0.47527
 C1529 C 0.69733 0.92584 0.47851
 C1530 C 0.71180 0.93248 0.49344
 C1531 C 0.70755 0.95035 0.50524
 C1532 C 0.68922 0.96158 0.50208
 C1533 C 0.64609 0.94196 0.45702
 C1534 C 0.66438 0.93066 0.46036
 C1535 C 0.66654 0.99084 0.51019
 C1536 C 0.68481 0.97952 0.51357
 H1537 H 0.63532 0.93661 0.44533
 H1538 H 0.66718 0.91691 0.45115
 H1539 H 0.66379 1.00464 0.51933
 H1540 H 0.69562 0.98491 0.52522
 H1541 H 0.63115 1.00991 0.50054
 H1542 H 0.61276 0.96613 0.45338
 H1543 H 0.70056 0.91227 0.46919
 H1544 H 0.71843 0.95541 0.51697
 C1545 C 0.84413 0.96712 0.51660
 C1546 C 0.85759 0.96106 0.53251
 C1547 C 0.87544 0.97287 0.53644
 C1548 C 0.87989 0.99070 0.52463
 C1549 C 0.86626 0.99634 0.50855
 C1550 C 0.84835 0.98466 0.50452
 C1551 C 0.82512 0.95499 0.51268
 C1552 C 0.81151 0.96122 0.49694
 C1553 C 0.79327 0.94987 0.49352
 C1554 C 0.78859 0.93242 0.50573
 C1555 C 0.80255 0.92627 0.52131
 C1556 C 0.82081 0.93754 0.52488
 C1557 C 0.83446 0.99028 0.48877
 C1558 C 0.81635 0.97876 0.48505
 C1559 C 0.85282 0.94343 0.54432
 C1560 C 0.83475 0.93187 0.54056
 H1561 H 0.83755 1.00377 0.47932
 H1562 H 0.80599 0.98371 0.47284
 H1563 H 0.86309 0.93859 0.55664
 H1564 H 0.83160 0.91844 0.55009
 H1565 H 0.88561 0.96825 0.54889
 H1566 H 0.86942 1.00984 0.49917
 H1567 H 0.78276 0.95454 0.48133
 H1568 H 0.79895 0.91301 0.53092
 C1569 C 0.34393 0.46618 0.01671
 C1570 C 0.35783 0.45957 0.03201
 C1571 C 0.37595 0.47107 0.03564
 C1572 C 0.38022 0.48916 0.02417
 C1573 C 0.36607 0.49543 0.00878
 C1574 C 0.34793 0.48402 0.00500
 C1575 C 0.32474 0.45428 0.01299
 C1576 C 0.31077 0.46098 -0.00223
 C1577 C 0.29245 0.44974 -0.00556
 C1578 C 0.28800 0.43195 0.00626
 C1579 C 0.30228 0.42540 0.02138
 C1580 C 0.32067 0.43652 0.02481
 C1581 C 0.33363 0.49017 -0.01018
 C1582 C 0.31537 0.47884 -0.01374
 C1583 C 0.35328 0.44165 0.04346
 C1584 C 0.33501 0.43033 0.03994
 H1585 H 0.33653 0.50391 -0.01934
 H1586 H 0.30473 0.48416 -0.02554
 H1587 H 0.36389 0.43637 0.05531
 H1588 H 0.33205 0.41665 0.04916
 H1589 H 0.38661 0.46585 0.04743
 H1590 H 0.36894 0.50927 -0.00019
 H1591 H 0.28172 0.45473 -0.01744
 H1592 H 0.29889 0.41189 0.03073
 C1593 C 0.53634 0.48314 0.34391
 C1594 C 0.54280 0.46774 0.35776
 C1595 C 0.53118 0.46416 0.37572
 C1596 C 0.51312 0.47578 0.37986
 C1597 C 0.50700 0.49127 0.36576
 C1598 C 0.51853 0.49499 0.34779
 C1599 C 0.54837 0.48682 0.32490
 C1600 C 0.54180 0.50212 0.31097
 C1601 C 0.55313 0.50539 0.29280
 C1602 C 0.57088 0.49341 0.28845
 C1603 C 0.57732 0.47823 0.30269
 C1604 C 0.56611 0.47485 0.32093
 C1605 C 0.51251 0.51026 0.33355
 C1606 C 0.52396 0.51378 0.31546
 C1607 C 0.56071 0.45615 0.35332
 C1608 C 0.57215 0.45964 0.33521
 H1609 H 0.49880 0.51953 0.33637
 H1610 H 0.51874 0.52565 0.30485
 H1611 H 0.56587 0.44423 0.36389
 H1612 H 0.58581 0.45030 0.33234
 H1613 H 0.53628 0.45229 0.38634
 H1614 H 0.49319 0.50036 0.36853
 H1615 H 0.54822 0.51732 0.28210
 H1616 H 0.59081 0.46877 0.29937
 C1617 C 0.03660 -0.01635 0.84313
 C1618 C 0.01866 -0.00463 0.84681
 C1619 C 0.00707 -0.00828 0.86476
 C1620 C 0.01328 -0.02355 0.87906
 C1621 C 0.03147 -0.03505 0.87511
 C1622 C 0.04314 -0.03154 0.85717
 C1623 C 0.04870 -0.01275 0.82415
 C1624 C 0.06657 -0.02458 0.82040
 C1625 C 0.07787 -0.02128 0.80219
 C1626 C 0.07138 -0.00628 0.78777
 C1627 C 0.05349 0.00557 0.79191
 C1628 C 0.04207 0.00236 0.81004
 C1629 C 0.06117 -0.04301 0.85294
 C1630 C 0.07268 -0.03960 0.83486
 C1631 C 0.01257 0.01043 0.83237
 C1632 C 0.02409 0.01388 0.81431
 H1633 H 0.06639 -0.05478 0.86365
 H1634 H 0.08644 -0.04884 0.83215
 H1635 H -0.00125 0.01960 0.83503
 H1636 H 0.01882 0.02559 0.80356
 H1637 H -0.00685 0.00069 0.86738
 H1638 H 0.03664 -0.04674 0.88589
 H1639 H 0.09146 -0.03065 0.79904
 H1640 H 0.04854 0.01735 0.78107
 C1641 C 0.03687 0.01633 0.65614
 C1642 C 0.01912 0.00436 0.65216
 C1643 C 0.00734 0.00841 0.63442
 C1644 C 0.01311 0.02438 0.62073
 C1645 C 0.03114 0.03607 0.62491
 C1646 C 0.04304 0.03214 0.64260
 C1647 C 0.04907 0.01241 0.67500
 C1648 C 0.06671 0.02453 0.67910
 C1649 C 0.07802 0.02100 0.69726
 C1650 C 0.07172 0.00557 0.71131
 C1651 C 0.05411 -0.00657 0.70681
 C1652 C 0.04271 -0.00319 0.68869
 C1653 C 0.06088 0.04382 0.64714
 C1654 C 0.07251 0.04008 0.66508
 C1655 C 0.01337 -0.01126 0.66613
 C1656 C 0.02496 -0.01498 0.68409
 H1657 H 0.06582 0.05605 0.63680
 H1658 H 0.08609 0.04953 0.66806
 H1659 H -0.00029 -0.02062 0.66322
 H1660 H 0.01991 -0.02709 0.69452
 H1661 H -0.00653 -0.00063 0.63159
 H1662 H 0.03595 0.04825 0.61447
 H1663 H 0.09141 0.03058 0.70071
 H1664 H 0.04933 -0.01867 0.71738
 C1665 C 0.53635 0.51603 0.15656
 C1666 C 0.51848 0.50423 0.15269
 C1667 C 0.50695 0.50799 0.13472
 C1668 C 0.51313 0.52347 0.12062
 C1669 C 0.53126 0.53504 0.12477
 C1670 C 0.54288 0.53141 0.14272
 C1671 C 0.54838 0.51232 0.17558
 C1672 C 0.56618 0.52423 0.17954
 C1673 C 0.57739 0.52083 0.19779
 C1674 C 0.57089 0.50565 0.21202
 C1675 C 0.55309 0.49372 0.20767
 C1676 C 0.54175 0.49703 0.18950
 C1677 C 0.56084 0.54296 0.14716
 C1678 C 0.57228 0.53944 0.16527
 C1679 C 0.51241 0.48898 0.16693
 C1680 C 0.52385 0.48542 0.18501
 H1681 H 0.56605 0.55487 0.13659
 H1682 H 0.58599 0.54874 0.16814
 H1683 H 0.49864 0.47975 0.16410
 H1684 H 0.51859 0.47356 0.19562
 H1685 H 0.49309 0.49895 0.13196
 H1686 H 0.53641 0.54689 0.11414
 H1687 H 0.59092 0.53025 0.20110
 H1688 H 0.54813 0.48180 0.21836
 C1689 C 0.46369 -0.01626 0.15699
 C1690 C 0.45719 -0.03162 0.14307
 C1691 C 0.46881 -0.03518 0.12510
 C1692 C 0.48691 -0.02357 0.12101
 C1693 C 0.49308 -0.00812 0.13518
 C1694 C 0.48155 -0.00442 0.15317
 C1695 C 0.45166 -0.01260 0.17601
 C1696 C 0.45826 0.00267 0.19000
 C1697 C 0.44691 0.00593 0.20817
 C1698 C 0.42912 -0.00603 0.21245
 C1699 C 0.42266 -0.02120 0.19815
 C1700 C 0.43388 -0.02456 0.17991
 C1701 C 0.48760 0.01081 0.16748
 C1702 C 0.47614 0.01431 0.18558
 C1703 C 0.43925 -0.04320 0.14745
 C1704 C 0.42780 -0.03974 0.16556
 H1705 H 0.50134 0.02008 0.16470
 H1706 H 0.48138 0.02616 0.19624
 H1707 H 0.43405 -0.05510 0.13683
 H1708 H 0.41411 -0.04907 0.16839
 H1709 H 0.46366 -0.04702 0.11442
 H1710 H 0.50692 0.00095 0.13245
 H1711 H 0.45184 0.01784 0.21892
 H1712 H 0.40914 -0.03065 0.20141
 C1713 C 0.96303 0.48376 0.65628
 C1714 C 0.95649 0.46848 0.64228
 C1715 C 0.96818 0.46489 0.62437
 C1716 C 0.98637 0.47640 0.62040
 C1717 C 0.99257 0.49177 0.63464
 C1718 C 0.98097 0.49550 0.65258
 C1719 C 0.95093 0.48743 0.67526
 C1720 C 0.95756 0.50261 0.68933
 C1721 C 0.94616 0.50586 0.70746
 C1722 C 0.92829 0.49398 0.71164
 C1723 C 0.92179 0.47891 0.69725
 C1724 C 0.93306 0.47556 0.67904
 C1725 C 0.98705 0.51065 0.66697
 C1726 C 0.97554 0.51415 0.68502
 C1727 C 0.93846 0.45699 0.64654
 C1728 C 0.92696 0.46047 0.66462
 H1729 H 1.00087 0.51983 0.66429
 H1730 H 0.98081 0.52593 0.69575
 H1731 H 0.93324 0.44515 0.63586
 H1732 H 0.91320 0.45121 0.66735
 H1733 H 0.96302 0.45312 0.61362
 H1734 H 1.00649 0.50076 0.63201
 H1735 H 0.95112 0.51770 0.71828
 H1736 H 0.90821 0.46953 0.70043
 C1737 C 0.96268 0.51588 0.84365
 C1738 C 0.95620 0.53122 0.85759
 C1739 C 0.96789 0.53484 0.87551
 C1740 C 0.98603 0.52331 0.87954
 C1741 C 0.99215 0.50786 0.86537
 C1742 C 0.98056 0.50410 0.84743
 C1743 C 0.95060 0.51220 0.82465
 C1744 C 0.95719 0.49696 0.81063
 C1745 C 0.94584 0.49372 0.79245
 C1746 C 0.92805 0.50566 0.78818
 C1747 C 0.92157 0.52076 0.80253
 C1748 C 0.93280 0.52411 0.82078
 C1749 C 0.98659 0.48889 0.83310
 C1750 C 0.97509 0.48537 0.81502
 C1751 C 0.93823 0.54275 0.85325
 C1752 C 0.92674 0.53926 0.83515
 H1753 H 1.00036 0.47968 0.83584
 H1754 H 0.98033 0.47355 0.80433
 H1755 H 0.93305 0.55463 0.86388
 H1756 H 0.91304 0.54855 0.83235
 H1757 H 0.96278 0.54667 0.88620
 H1758 H 1.00603 0.49885 0.86805
 H1759 H 0.95078 0.48186 0.78167
 H1760 H 0.90805 0.53019 0.79927
 C1761 C 0.46339 0.01649 0.34446
 C1762 C 0.48128 0.00474 0.34830
 C1763 C 0.49281 0.00853 0.36627
 C1764 C 0.48661 0.02397 0.38043
 C1765 C 0.46847 0.03548 0.37633
 C1766 C 0.45685 0.03183 0.35836
 C1767 C 0.45138 0.01276 0.32543
 C1768 C 0.43357 0.02462 0.32150
 C1769 C 0.42237 0.02121 0.30323
 C1770 C 0.42892 0.00609 0.28894
 C1771 C 0.44673 -0.00580 0.29326
 C1772 C 0.45804 -0.00249 0.31146
 C1773 C 0.43887 0.04332 0.35396
 C1774 C 0.42743 0.03978 0.33583
 C1775 C 0.48738 -0.01047 0.33401
 C1776 C 0.47595 -0.01404 0.31590
 H1777 H 0.43363 0.05520 0.36457
 H1778 H 0.41372 0.04904 0.33299
 H1779 H 0.50116 -0.01966 0.33680
 H1780 H 0.48123 -0.02586 0.30525
 H1781 H 0.50668 -0.00047 0.36900
 H1782 H 0.46331 0.04730 0.38700
 H1783 H 0.40884 0.03059 0.29994
 H1784 H 0.45171 -0.01768 0.28252
   
