data_POSCAR
  _audit_creation_date              2014-09-24
  _audit_creation_method            'ToBaCCo'
  _symmetry_space_group_name_H-M    'P1'
  _symmetry_Int_Tables_number       1
  _symmetry_cell_setting            triclinic
  loop_
  _symmetry_equiv_pos_as_xyz
 x,y,z
_cell_length_a 32.1146
_cell_length_b 32.0855
_cell_length_c 31.9751
_cell_angle_alpha 89.923500
_cell_angle_beta 89.977500
_cell_angle_gamma 89.955200
loop_
  _atom_site_label
  _atom_site_type_symbol
  _atom_site_fract_x
  _atom_site_fract_y
  _atom_site_fract_z
C1 C 0.24536 0.95733 -0.02945
 C2 C 0.25910 0.95469 0.01291
 C3 C 0.27322 0.99160 0.03187
 C4 C 0.26187 1.03154 0.01768
 C5 C 0.24803 1.03498 -0.02477
 C6 C 0.23558 0.99762 -0.04479
 H7 H 0.22176 1.00006 -0.07567
 H8 H 0.28772 0.98899 0.06240
 C9 C 0.72950 0.45824 0.51809
 C10 C 0.73838 0.45526 0.47471
 C11 C 0.74545 0.49291 0.45317
 C12 C 0.74263 0.53296 0.47141
 C13 C 0.72541 0.53521 0.51297
 C14 C 0.71592 0.49704 0.53287
 H15 H 0.70378 0.49693 0.56426
 H16 H 0.75132 0.49002 0.42018
 C17 C 0.76392 1.01850 0.95671
 C18 C 0.75681 0.97501 0.95357
 C19 C 0.74857 0.95362 0.99114
 C20 C 0.74950 0.97179 1.03160
 C21 C 0.76618 1.01354 1.03428
 C22 C 0.77500 1.03396 0.99616
 H23 H 0.78566 1.06580 0.99660
 H24 H 0.74373 0.92059 0.98786
 C25 C 0.25525 0.47220 0.45602
 C26 C 0.26026 0.51618 0.45635
 C27 C 0.26958 0.53467 0.49493
 C28 C 0.26308 0.51560 0.53416
 C29 C 0.24830 0.47326 0.53407
 C30 C 0.24728 0.45281 0.49482
 H31 H 0.24223 0.41968 0.49379
 H32 H 0.27749 0.56729 0.49367
 C33 C 0.95617 0.24018 0.02883
 C34 C 0.95630 0.22885 -0.01402
 C35 C 0.99357 0.21221 -0.02968
 C36 C 1.03309 0.22445 -0.01449
 C37 C 1.03396 0.24393 0.02634
 C38 C 0.99516 0.24824 0.04726
 H39 H 0.99452 0.25565 0.08013
 H40 H 0.99038 0.19674 -0.05924
 C41 C 0.45459 0.73617 0.52181
 C42 C 0.45586 0.74846 0.47884
 C43 C 0.49446 0.76152 0.46280
 C44 C 0.53256 0.75276 0.48229
 C45 C 0.53163 0.74101 0.52504
 C46 C 0.49310 0.72840 0.54180
 H47 H 0.49257 0.71641 0.57350
 H48 H 0.49543 0.77440 0.43142
 C49 C -0.03085 0.75064 0.03932
 C50 C 0.01249 0.76107 0.04112
 C51 C 0.03314 0.76876 0.00296
 C52 C 0.01796 0.75539 -0.03591
 C53 C -0.02521 0.74588 -0.03840
 C54 C -0.04655 0.73868 -0.00039
 H55 H -0.07822 0.72721 -0.00247
 H56 H 0.06504 0.77984 0.00421
 C57 C 0.47452 0.26468 0.54924
 C58 C 0.51732 0.25245 0.54839
 C59 C 0.53340 0.23863 0.50989
 C60 C 0.51404 0.24609 0.47116
 C61 C 0.47153 0.25883 0.47164
 C62 C 0.45500 0.27227 0.51027
 H63 H 0.42384 0.28522 0.51065
 H64 H 0.56474 0.22597 0.50949
 C65 C 0.96712 -0.02085 0.24609
 C66 C 0.96679 0.02226 0.25666
 C67 C 1.00562 0.04159 0.26394
 C68 C 1.04421 0.02396 0.25188
 C69 C 1.04418 -0.01931 0.24094
 C70 C 1.00516 -0.03776 0.23246
 H71 H 1.00485 -0.06945 0.22051
 H72 H 1.00545 0.07334 0.27546
 C73 C 0.54406 0.53054 0.75366
 C74 C 0.54426 0.48657 0.74636
 C75 C 0.50557 0.46703 0.73958
 C76 C 0.46734 0.48522 0.75033
 C77 C 0.46675 0.52898 0.75690
 C78 C 0.50527 0.54909 0.76307
 H79 H 0.50479 0.58175 0.77173
 H80 H 0.50548 0.43446 0.73046
 C81 C 1.02805 0.96989 0.75121
 C82 C 0.98556 0.96939 0.73885
 C83 C 0.96624 1.00794 0.73104
 C84 C 0.98190 1.04631 0.74573
 C85 C 1.02486 1.04710 0.75785
 C86 C 1.04461 1.00826 0.76469
 H87 H 1.07587 1.00847 0.77744
 H88 H 0.93508 1.00731 0.71792
 C89 C 0.52877 0.46536 0.24301
 C90 C 0.48527 0.46379 0.25132
 C91 C 0.46510 0.50140 0.26111
 C92 C 0.48192 0.54091 0.25241
 C93 C 0.52571 0.54301 0.24442
 C94 C 0.54637 0.50501 0.23551
 H95 H 0.57864 0.50657 0.22579
 H96 H 0.43280 0.49976 0.27097
 O97 O 0.26361 0.14026 0.18119
 O98 O 0.31118 0.12988 0.24216
 O99 O 0.15605 0.18834 0.23850
 O100 O 0.14031 0.24407 0.28081
 O101 O 0.20774 0.24932 0.12879
 O102 O 0.26843 0.29449 0.11948
 O103 O 0.26159 0.30997 0.34388
 O104 O 0.21016 0.25320 0.35470
 O105 O 0.36835 0.24858 0.30098
 O106 O 0.37970 0.19635 0.24129
 O107 O 0.32370 0.35272 0.23987
 O108 O 0.26358 0.36374 0.18667
 O109 O 0.26557 0.35820 0.29194
 O110 O 0.22210 0.37115 0.23453
 O111 O 0.37239 0.30131 0.24240
 O112 O 0.38691 0.24336 0.19934
 O113 O 0.31625 0.25135 0.34899
 O114 O 0.26214 0.20883 0.36419
 O115 O 0.26534 0.19007 0.13044
 O116 O 0.31139 0.24524 0.11849
 O117 O 0.15696 0.24679 0.17839
 O118 O 0.14391 0.29456 0.23400
 O119 O 0.20640 0.13844 0.23952
 O120 O 0.26166 0.12613 0.28469
 Zr121 Zr 0.26155 0.17311 0.23827
 O122 O 0.29833 0.20905 0.27897
 Zr123 Zr 0.18858 0.24600 0.23576
 O124 O 0.22346 0.28672 0.27409
 Zr125 Zr 0.26350 0.24578 0.16386
 O126 O 0.30290 0.28348 0.20015
 Zr127 Zr 0.26163 0.25126 0.31342
 O128 O 0.22395 0.21008 0.27787
 Zr129 Zr 0.33726 0.24688 0.24271
 O130 O 0.30271 0.20859 0.20164
 Zr131 Zr 0.26571 0.32180 0.23781
 O132 O 0.22592 0.28614 0.19905
 O133 O 0.22392 0.20735 0.19805
 O134 O 0.30269 0.28811 0.27936
 C135 C 0.26458 0.15208 0.14268
 C136 C 0.16819 0.14988 0.23959
 C137 C 0.16932 0.24938 0.14025
 C138 C 0.26394 0.34792 0.33057
 C139 C 0.35487 0.24999 0.33886
 C140 C 0.36159 0.33964 0.24122
 H141 H 0.31432 0.19031 0.29755
 H142 H 0.32119 0.29976 0.18139
 H143 H 0.20620 0.18957 0.18012
 H144 H 0.20452 0.30478 0.29039
 H145 H 0.19183 0.22951 0.34727
 H146 H 0.14766 0.26378 0.30340
 H147 H 0.37924 0.26070 0.17494
 H148 H 0.33371 0.22708 0.12968
 H149 H 0.27072 0.18151 0.35290
 H150 H 0.24265 0.13573 0.30709
 H151 H 0.29057 0.36218 0.17182
 H152 H 0.24645 0.31504 0.12627
 H153 H 0.33047 0.13624 0.21885
 H154 H 0.37650 0.18036 0.26756
 H155 H 0.15465 0.31588 0.21437
 H156 H 0.19732 0.36250 0.25070
 O157 O 0.74489 0.87000 0.20119
 O158 O 0.70144 0.88084 0.26269
 O159 O 0.85570 0.81970 0.25930
 O160 O 0.87005 0.76528 0.30328
 O161 O 0.80681 0.76150 0.15117
 O162 O 0.74696 0.71430 0.14019
 O163 O 0.75365 0.70382 0.36725
 O164 O 0.80124 0.76212 0.37515
 O165 O 0.64409 0.76113 0.32123
 O166 O 0.63213 0.81319 0.26032
 O167 O 0.68666 0.65678 0.25897
 O168 O 0.74925 0.64386 0.21066
 O169 O 0.74458 0.65477 0.31683
 O170 O 0.78769 0.63716 0.25936
 O171 O 0.63806 0.70815 0.26222
 O172 O 0.62455 0.76545 0.21942
 O173 O 0.69585 0.75674 0.36950
 O174 O 0.74490 0.80401 0.38285
 O175 O 0.74579 0.81941 0.15142
 O176 O 0.70331 0.76161 0.13737
 O177 O 0.85718 0.76126 0.20112
 O178 O 0.86717 0.71382 0.25670
 O179 O 0.80583 0.87008 0.25604
 O180 O 0.75088 0.88346 0.30420
 Zr181 Zr 0.75004 0.83657 0.25773
 O182 O 0.71279 0.80119 0.29854
 Zr183 Zr 0.82304 0.76289 0.25694
 O184 O 0.78765 0.72320 0.29554
 Zr185 Zr 0.74941 0.76311 0.18449
 O186 O 0.70928 0.72576 0.22087
 Zr187 Zr 0.74982 0.76008 0.33383
 O188 O 0.78775 0.80028 0.29786
 Zr189 Zr 0.67429 0.76246 0.26265
 O190 O 0.70936 0.80031 0.22135
 Zr191 Zr 0.74530 0.68764 0.25996
 O192 O 0.78582 0.72251 0.22071
 O193 O 0.78826 0.80180 0.21840
 O194 O 0.70857 0.72217 0.30058
 C195 C 0.74338 0.85766 0.16303
 C196 C 0.84381 0.85803 0.25822
 C197 C 0.84536 0.76082 0.16287
 C198 C 0.74979 0.66593 0.35508
 C199 C 0.65748 0.75784 0.35902
 C200 C 0.64855 0.66967 0.26026
 H201 H 0.69667 0.81998 0.31695
 H202 H 0.69122 0.70943 0.20198
 H203 H 0.80555 0.81957 0.19997
 H204 H 0.80664 0.70542 0.31209
 H205 H 0.81781 0.78713 0.36780
 H206 H 0.86200 0.74610 0.32612
 H207 H 0.63317 0.74952 0.19442
 H208 H 0.67974 0.77851 0.14789
 H209 H 0.74711 0.83180 0.36981
 H210 H 0.77381 0.87660 0.32373
 H211 H 0.72485 0.64820 0.19227
 H212 H 0.76883 0.69402 0.14816
 H213 H 0.68020 0.87319 0.24163
 H214 H 0.63384 0.82833 0.28721
 H215 H 0.85626 0.69214 0.23763
 H216 H 0.81288 0.64626 0.27458
 O217 O 0.75240 0.14345 0.80509
 O218 O 0.71338 0.13039 0.74932
 O219 O 0.86345 0.20137 0.75454
 O220 O 0.87770 0.25693 0.71487
 O221 O 0.80560 0.25214 0.86531
 O222 O 0.75183 0.29143 0.88061
 O223 O 0.75028 0.30851 0.64339
 O224 O 0.78976 0.25425 0.62777
 O225 O 0.64138 0.25899 0.70242
 O226 O 0.62656 0.21930 0.75629
 O227 O 0.70251 0.36745 0.75301
 O228 O 0.75439 0.37667 0.79763
 O229 O 0.75154 0.36022 0.69190
 O230 O 0.80786 0.36815 0.74775
 O231 O 0.65017 0.31971 0.75361
 O232 O 0.63892 0.25662 0.80787
 O233 O 0.68915 0.25875 0.65003
 O234 O 0.75095 0.20338 0.63883
 O235 O 0.74977 0.19090 0.85780
 O236 O 0.70029 0.25421 0.86899
 O237 O 0.85748 0.25512 0.81694
 O238 O 0.86790 0.30670 0.75558
 O239 O 0.81468 0.15008 0.75201
 O240 O 0.75358 0.14150 0.69952
 Zr241 Zr 0.75548 0.18082 0.75256
 O242 O 0.71301 0.21707 0.71774
 Zr243 Zr 0.82727 0.25484 0.75725
 O244 O 0.79182 0.29090 0.71509
 Zr245 Zr 0.75243 0.25096 0.82860
 O246 O 0.71756 0.29424 0.79342
 Zr247 Zr 0.74901 0.25527 0.67961
 O248 O 0.79207 0.21860 0.71416
 Zr249 Zr 0.67866 0.25938 0.75511
 O250 O 0.71338 0.21543 0.79048
 Zr251 Zr 0.75443 0.32954 0.75138
 O252 O 0.79010 0.29351 0.79414
 O253 O 0.79253 0.21420 0.79373
 O254 O 0.71278 0.29641 0.71423
 C255 C 0.74997 0.15305 0.84364
 C256 C 0.85288 0.16310 0.75311
 C257 C 0.84398 0.25379 0.85514
 C258 C 0.75056 0.34682 0.65368
 C259 C 0.65118 0.25976 0.66384
 C260 C 0.66408 0.35763 0.75356
 H261 H 0.69441 0.19858 0.70154
 H262 H 0.70188 0.31262 0.81263
 H263 H 0.80999 0.19601 0.81159
 H264 H 0.81070 0.30714 0.69682
 H265 H 0.81788 0.25983 0.63901
 H266 H 0.86724 0.24492 0.68839
 H267 H 0.63600 0.28518 0.81914
 H268 H 0.68474 0.22775 0.86595
 H269 H 0.72223 0.19267 0.63570
 H270 H 0.78043 0.14478 0.68463
 H271 H 0.77497 0.36804 0.81899
 H272 H 0.75564 0.31981 0.86911
 H273 H 0.68679 0.14077 0.76098
 H274 H 0.63748 0.19097 0.75100
 H275 H 0.86378 0.32230 0.78196
 H276 H 0.79868 0.39612 0.73827
 O277 O 0.24249 0.84678 0.80740
 O278 O 0.28860 0.85708 0.74554
 O279 O 0.13190 0.80005 0.74641
 O280 O 0.11708 0.74560 0.70370
 O281 O 0.18067 0.74009 0.85621
 O282 O 0.24067 0.69241 0.86732
 O283 O 0.24038 0.67797 0.64348
 O284 O 0.18638 0.73363 0.63259
 O285 O 0.34325 0.73677 0.68590
 O286 O 0.35618 0.78813 0.74773
 O287 O 0.29609 0.63230 0.75003
 O288 O 0.23492 0.62365 0.80060
 O289 O 0.24138 0.62984 0.69569
 O290 O 0.19414 0.61788 0.75204
 O291 O 0.34582 0.68253 0.74617
 O292 O 0.36350 0.73917 0.78712
 O293 O 0.29166 0.73728 0.63729
 O294 O 0.23781 0.77978 0.62371
 O295 O 0.23978 0.79690 0.85793
 O296 O 0.28412 0.74107 0.87027
 O297 O 0.13059 0.74332 0.80595
 O298 O 0.11926 0.69424 0.75179
 O299 O 0.18340 0.84868 0.74743
 O300 O 0.24011 0.86220 0.70419
 Zr301 Zr 0.23870 0.81427 0.74959
 O302 O 0.27505 0.77769 0.70889
 Zr303 Zr 0.16407 0.74266 0.75007
 O304 O 0.19866 0.70136 0.71230
 Zr305 Zr 0.23774 0.74170 0.82340
 O306 O 0.27702 0.70329 0.78759
 Zr307 Zr 0.23783 0.73651 0.67378
 O308 O 0.20088 0.77837 0.70910
 Zr309 Zr 0.31277 0.73858 0.74502
 O310 O 0.27870 0.77757 0.78622
 Zr311 Zr 0.23946 0.66569 0.74972
 O312 O 0.19989 0.70212 0.78781
 O313 O 0.19952 0.78087 0.78867
 O314 O 0.27760 0.69851 0.70832
 C315 C 0.24266 0.83490 0.84606
 C316 C 0.14496 0.83800 0.74561
 C317 C 0.14243 0.74109 0.84411
 C318 C 0.24277 0.64020 0.65714
 C319 C 0.33011 0.73729 0.64770
 C320 C 0.33420 0.64436 0.74797
 H321 H 0.29160 0.79629 0.69067
 H322 H 0.29480 0.68675 0.80664
 H323 H 0.18221 0.79934 0.80636
 H324 H 0.17993 0.68358 0.69551
 H325 H 0.16812 0.75760 0.63937
 H326 H 0.12298 0.72380 0.68265
 H327 H 0.35341 0.72690 0.81363
 H328 H 0.30745 0.75813 0.85948
 H329 H 0.24842 0.80641 0.63491
 H330 H 0.22193 0.85298 0.68098
 H331 H 0.26069 0.62608 0.81737
 H332 H 0.21718 0.67344 0.86112
 H333 H 0.30850 0.84967 0.76799
 H334 H 0.35436 0.80382 0.72114
 H335 H 0.12959 0.67305 0.77179
 H336 H 0.17129 0.62577 0.73287
 O337 O 0.24465 0.37342 0.70946
 O338 O 0.19972 0.38330 0.77051
 O339 O 0.35514 0.32458 0.77051
 O340 O 0.36787 0.27076 0.81644
 O341 O 0.31093 0.26532 0.66167
 O342 O 0.25125 0.21787 0.64864
 O343 O 0.25090 0.20588 0.87484
 O344 O 0.29734 0.26497 0.88541
 O345 O 0.14268 0.25789 0.82643
 O346 O 0.13221 0.31583 0.76862
 O347 O 0.18778 0.15966 0.76605
 O348 O 0.25105 0.14762 0.71777
 O349 O 0.24402 0.15721 0.82368
 O350 O 0.28963 0.14128 0.76703
 O351 O 0.13888 0.21084 0.76393
 O352 O 0.12606 0.27015 0.72421
 O353 O 0.19291 0.25575 0.87642
 O354 O 0.23869 0.30698 0.89033
 O355 O 0.24962 0.32307 0.65967
 O356 O 0.20821 0.26544 0.64374
 O357 O 0.35943 0.26581 0.71344
 O358 O 0.36831 0.21914 0.76924
 O359 O 0.30467 0.37430 0.76624
 O360 O 0.24812 0.38705 0.81270
 Zr361 Zr 0.24925 0.34000 0.76640
 O362 O 0.21122 0.30385 0.80614
 Zr363 Zr 0.32321 0.26729 0.76787
 O364 O 0.28703 0.22669 0.80478
 Zr365 Zr 0.25222 0.26684 0.69283
 O366 O 0.21109 0.22910 0.72761
 Zr367 Zr 0.24752 0.26273 0.84217
 O368 O 0.28602 0.30389 0.80774
 Zr369 Zr 0.17444 0.26508 0.76874
 O370 O 0.21039 0.30331 0.72854
 Zr371 Zr 0.24626 0.19093 0.76742
 O372 O 0.28786 0.22657 0.73008
 O373 O 0.28928 0.30588 0.72823
 O374 O 0.20811 0.22485 0.80699
 C375 C 0.24526 0.36117 0.67115
 C376 C 0.34279 0.36277 0.76894
 C377 C 0.34904 0.26447 0.67480
 C378 C 0.24781 0.16802 0.86217
 C379 C 0.15498 0.25353 0.86460
 C380 C 0.14964 0.17243 0.76389
 H381 H 0.19419 0.32200 0.82438
 H382 H 0.19375 0.21289 0.70795
 H383 H 0.30694 0.32377 0.71027
 H384 H 0.30569 0.20897 0.82179
 H385 H 0.31343 0.29060 0.87930
 H386 H 0.35977 0.25060 0.83839
 H387 H 0.13562 0.25543 0.69880
 H388 H 0.18402 0.28196 0.65343
 H389 H 0.24935 0.33371 0.87943
 H390 H 0.27060 0.38061 0.83288
 H391 H 0.22636 0.15127 0.69963
 H392 H 0.27320 0.19788 0.65707
 H393 H 0.17918 0.37546 0.74884
 H394 H 0.12956 0.32627 0.79761
 H395 H 0.35799 0.19682 0.75059
 H396 H 0.31346 0.14982 0.78460
 O397 O 0.75745 0.64774 0.67164
 O398 O 0.81156 0.63628 0.72891
 O399 O 0.65616 0.69394 0.74006
 O400 O 0.64345 0.74938 0.78379
 O401 O 0.69995 0.75592 0.62760
 O402 O 0.75986 0.80350 0.61530
 O403 O 0.76633 0.81472 0.83848
 O404 O 0.71683 0.75575 0.85153
 O405 O 0.87162 0.75131 0.78829
 O406 O 0.87780 0.70114 0.72521
 O407 O 0.82364 0.85839 0.73181
 O408 O 0.76013 0.86963 0.68182
 O409 O 0.76750 0.86368 0.78706
 O410 O 0.72242 0.87764 0.73282
 O411 O 0.87217 0.80677 0.73159
 O412 O 0.88486 0.75232 0.68668
 O413 O 0.82243 0.75487 0.83925
 O414 O 0.77141 0.71362 0.85771
 O415 O 0.75430 0.69905 0.62250
 O416 O 0.80261 0.75274 0.60943
 O417 O 0.65246 0.75321 0.68042
 O418 O 0.64303 0.80000 0.73701
 O419 O 0.70642 0.64416 0.73505
 O420 O 0.76548 0.62981 0.77425
 Zr421 Zr 0.76124 0.67886 0.73024
 O422 O 0.80002 0.71412 0.76978
 Zr423 Zr 0.68815 0.75186 0.73516
 O424 O 0.72545 0.79221 0.77122
 Zr425 Zr 0.75801 0.75318 0.65809
 O426 O 0.80007 0.78989 0.69231
 Zr427 Zr 0.76586 0.75601 0.80731
 O428 O 0.72649 0.71491 0.77353
 Zr429 Zr 0.83689 0.75246 0.73197
 O430 O 0.79993 0.71516 0.69187
 Zr431 Zr 0.76544 0.82770 0.73275
 O432 O 0.72280 0.79274 0.69650
 O433 O 0.72083 0.71419 0.69431
 O434 O 0.80487 0.79330 0.77144
 C435 C 0.75361 0.66075 0.63353
 C436 C 0.66839 0.65550 0.73886
 C437 C 0.66242 0.75524 0.64160
 C438 C 0.76718 0.85299 0.82560
 C439 C 0.86035 0.75290 0.82690
 C440 C 0.86152 0.84516 0.73226
 H441 H 0.81684 0.69489 0.78711
 H442 H 0.81736 0.80640 0.67280
 H443 H 0.70150 0.69674 0.67783
 H444 H 0.70745 0.81006 0.78879
 H445 H 0.69905 0.73135 0.84510
 H446 H 0.65223 0.76911 0.80583
 H447 H 0.87285 0.76392 0.66069
 H448 H 0.82424 0.73230 0.61762
 H449 H 0.77037 0.68547 0.84531
 H450 H 0.74854 0.63828 0.79866
 H451 H 0.78679 0.86939 0.66630
 H452 H 0.73654 0.82236 0.62255
 H453 H 0.82717 0.64155 0.70272
 H454 H 0.87692 0.68478 0.75145
 H455 H 0.65218 0.82161 0.71690
 H456 H 0.69761 0.86809 0.74844
 O457 O 0.24737 0.63588 0.29890
 O458 O 0.20889 0.62139 0.24405
 O459 O 0.35816 0.69410 0.24505
 O460 O 0.37154 0.74945 0.20549
 O461 O 0.30140 0.74603 0.35688
 O462 O 0.24779 0.78439 0.37273
 O463 O 0.24332 0.79913 0.13505
 O464 O 0.28139 0.74451 0.11933
 O465 O 0.13486 0.75008 0.19745
 O466 O 0.12094 0.71220 0.25204
 O467 O 0.19796 0.85993 0.24440
 O468 O 0.24984 0.86933 0.28828
 O469 O 0.24658 0.85138 0.18282
 O470 O 0.30297 0.85960 0.23848
 O471 O 0.14524 0.81270 0.24706
 O472 O 0.13462 0.75034 0.30263
 O473 O 0.18138 0.74988 0.14399
 O474 O 0.24262 0.69399 0.13199
 O475 O 0.24661 0.68401 0.35102
 O476 O 0.19633 0.74681 0.36184
 O477 O 0.35264 0.74605 0.30779
 O478 O 0.36210 0.79883 0.24677
 O479 O 0.30991 0.64233 0.24334
 O480 O 0.24641 0.63304 0.19292
 Zr481 Zr 0.25011 0.67261 0.24566
 O482 O 0.20678 0.70877 0.21160
 Zr483 Zr 0.32165 0.74683 0.24848
 O484 O 0.28566 0.78224 0.20632
 Zr485 Zr 0.24806 0.74363 0.32094
 O486 O 0.21300 0.78693 0.28603
 Zr487 Zr 0.24193 0.74641 0.17213
 O488 O 0.28580 0.71018 0.20624
 Zr489 Zr 0.17328 0.75186 0.24900
 O490 O 0.20849 0.70781 0.28382
 Zr491 Zr 0.24924 0.82149 0.24278
 O492 O 0.28526 0.78587 0.28556
 O493 O 0.28768 0.70637 0.28587
 O494 O 0.20659 0.78823 0.20686
 C495 C 0.24608 0.64598 0.33742
 C496 C 0.34805 0.65584 0.24309
 C497 C 0.33958 0.74570 0.34617
 C498 C 0.24472 0.83756 0.14478
 C499 C 0.14374 0.75030 0.15871
 C500 C 0.15950 0.85057 0.24605
 H501 H 0.18775 0.69012 0.19609
 H502 H 0.19776 0.80562 0.30530
 H503 H 0.30544 0.68812 0.30336
 H504 H 0.30439 0.79806 0.18752
 H505 H 0.30997 0.74850 0.13006
 H506 H 0.36070 0.73795 0.17895
 H507 H 0.13155 0.77920 0.31305
 H508 H 0.18118 0.72005 0.35952
 H509 H 0.21374 0.68356 0.12947
 H510 H 0.27305 0.63567 0.17754
 H511 H 0.26996 0.86051 0.31001
 H512 H 0.25138 0.81273 0.36104
 H513 H 0.18155 0.63229 0.25322
 H514 H 0.13198 0.68350 0.25003
 H515 H 0.35891 0.81372 0.27369
 H516 H 0.29404 0.88749 0.22854
 O517 O 0.73869 0.33848 0.31574
 O518 O 0.78945 0.34817 0.25436
 O519 O 0.63098 0.29364 0.24973
 O520 O 0.61810 0.23976 0.20469
 O521 O 0.67569 0.23169 0.35955
 O522 O 0.73577 0.18258 0.37103
 O523 O 0.74294 0.17326 0.14760
 O524 O 0.68918 0.22715 0.13579
 O525 O 0.84380 0.23281 0.19347
 O526 O 0.85419 0.28286 0.25770
 O527 O 0.79590 0.12618 0.25545
 O528 O 0.73253 0.11680 0.30410
 O529 O 0.74278 0.12421 0.19899
 O530 O 0.69476 0.11024 0.25274
 O531 O 0.84530 0.17679 0.25304
 O532 O 0.86198 0.23178 0.29499
 O533 O 0.79331 0.23180 0.14370
 O534 O 0.74186 0.27741 0.13187
 O535 O 0.73432 0.28755 0.36503
 O536 O 0.77866 0.23188 0.37743
 O537 O 0.62745 0.23615 0.30762
 O538 O 0.61790 0.18777 0.25296
 O539 O 0.68259 0.34211 0.25238
 O540 O 0.73823 0.35954 0.21617
 Zr541 Zr 0.73758 0.30756 0.25675
 O542 O 0.77483 0.27207 0.21573
 Zr543 Zr 0.66297 0.23596 0.25309
 O544 O 0.69887 0.19528 0.21587
 Zr545 Zr 0.73414 0.23338 0.32880
 O546 O 0.77509 0.19634 0.29323
 Zr547 Zr 0.73888 0.23119 0.17904
 O548 O 0.70104 0.27250 0.21412
 Zr549 Zr 0.81186 0.23263 0.25221
 O550 O 0.77637 0.27017 0.29384
 Zr551 Zr 0.73893 0.15912 0.25366
 O552 O 0.69764 0.19452 0.29106
 O553 O 0.69719 0.27328 0.29361
 O554 O 0.77798 0.19294 0.21400
 C555 C 0.73666 0.32586 0.35414
 C556 C 0.64411 0.33162 0.25037
 C557 C 0.63786 0.23423 0.34620
 C558 C 0.74513 0.13523 0.16063
 C559 C 0.83152 0.23229 0.15489
 C560 C 0.83398 0.13850 0.25416
 H561 H 0.79151 0.29100 0.19794
 H562 H 0.79252 0.17961 0.31245
 H563 H 0.67925 0.29150 0.31089
 H564 H 0.68076 0.17760 0.19829
 H565 H 0.67019 0.25071 0.14182
 H566 H 0.62403 0.21740 0.18426
 H567 H 0.85053 0.22179 0.32190
 H568 H 0.80236 0.24914 0.36785
 H569 H 0.72308 0.30018 0.14077
 H570 H 0.74227 0.34830 0.18769
 H571 H 0.75820 0.11827 0.32113
 H572 H 0.71137 0.16483 0.36474
 H573 H 0.80587 0.34334 0.28012
 H574 H 0.85410 0.29825 0.23087
 H575 H 0.62763 0.16623 0.27290
 H576 H 0.67079 0.11983 0.23588
 C577 C 0.26080 0.06404 0.04960
 C578 C 0.24548 0.04851 0.09314
 C579 C 0.24746 0.07718 0.12408
 C580 C 0.26303 0.11969 0.10920
 C581 C 0.30540 0.11126 0.08908
 C582 C 0.30441 0.08186 0.05862
 C583 C 0.23182 0.10170 0.04228
 C584 C 0.23363 0.13105 0.07289
 H585 H 0.23226 0.01828 0.09930
 H586 H 0.23697 0.07044 0.15561
 H587 H 0.33405 0.12640 0.09873
 H588 H 0.33235 0.07198 0.04224
 H589 H 0.20834 0.10331 0.01809
 H590 H 0.21285 0.15778 0.07327
 C591 C 0.72939 0.57247 0.54335
 C592 C 0.70103 0.57047 0.58273
 C593 C 0.70960 0.59956 0.61225
 C594 C 0.74472 0.62933 0.59996
 C595 C 0.78208 0.60195 0.58991
 C596 C 0.77422 0.57265 0.56060
 C597 C 0.72084 0.61725 0.52835
 C598 C 0.73002 0.64712 0.55740
 H599 H 0.67224 0.55284 0.58445
 H600 H 0.68911 0.60488 0.63866
 H601 H 0.81244 0.60548 0.60440
 H602 H 0.79820 0.55115 0.55018
 H603 H 0.70387 0.62498 0.50017
 H604 H 0.72236 0.67967 0.55222
 C605 C 0.74373 0.94334 0.06700
 C606 C 0.78670 0.92974 0.08336
 C607 C 0.78571 0.90228 0.11540
 C608 C 0.74193 0.88974 0.12887
 C609 C 0.71898 0.93091 0.13835
 C610 C 0.71875 0.95834 0.10540
 C611 C 0.72055 0.90177 0.05736
 C612 C 0.72056 0.87381 0.08916
 H613 H 0.81595 0.94110 0.07062
 H614 H 0.81390 0.89021 0.12975
 H615 H 0.70101 0.93624 0.16659
 H616 H 0.69947 0.98610 0.10553
 H617 H 0.69940 0.89717 0.03130
 H618 H 0.70181 0.84568 0.08801
 C619 C 0.24318 0.44480 0.57296
 C620 C 0.28658 0.43155 0.58838
 C621 C 0.28655 0.40493 0.62123
 C622 C 0.24315 0.39291 0.63646
 C623 C 0.22079 0.43448 0.64553
 C624 C 0.21968 0.46103 0.61183
 C625 C 0.21977 0.40320 0.56511
 C626 C 0.22045 0.37618 0.59775
 H627 H 0.31537 0.44265 0.57447
 H628 H 0.31514 0.39336 0.63517
 H629 H 0.20382 0.44074 0.67420
 H630 H 0.20058 0.48890 0.61183
 H631 H 0.19849 0.39781 0.53933
 H632 H 0.20183 0.34795 0.59777
 C633 C 0.75726 0.05257 0.92355
 C634 C 0.73493 0.09154 0.94225
 C635 C 0.73269 0.12500 0.91638
 C636 C 0.75113 0.11668 0.87328
 C637 C 0.79590 0.10214 0.88105
 C638 C 0.79909 0.06898 0.90713
 C639 C 0.73077 0.04382 0.88454
 C640 C 0.72795 0.07719 0.85793
 H641 H 0.71978 0.09190 0.97262
 H642 H 0.71650 0.15346 0.92494
 H643 H 0.82296 0.11627 0.86643
 H644 H 0.82889 0.05488 0.91477
 H645 H 0.71306 0.01550 0.87969
 H646 H 0.70858 0.07649 0.83012
 C647 C 0.25366 0.54813 0.42092
 C648 C 0.22690 0.58574 0.43612
 C649 C 0.22450 0.61818 0.40895
 C650 C 0.24748 0.61024 0.36799
 C651 C 0.29225 0.59957 0.38034
 C652 C 0.29548 0.56732 0.40755
 C653 C 0.23154 0.53633 0.38000
 C654 C 0.22887 0.56859 0.35201
 H655 H 0.20939 0.58584 0.46519
 H656 H 0.20570 0.64563 0.41510
 H657 H 0.31935 0.61592 0.36835
 H658 H 0.32544 0.55601 0.41850
 H659 H 0.21543 0.50713 0.37492
 H660 H 0.21171 0.56573 0.32291
 C661 C 0.24639 0.92373 0.93969
 C662 C 0.20266 0.90725 0.92919
 C663 C 0.20182 0.87797 0.89846
 C664 C 0.24469 0.86741 0.88016
 C665 C 0.26293 0.90907 0.86600
 C666 C 0.26460 0.93796 0.89687
 C667 C 0.27305 0.88477 0.94898
 C668 C 0.27160 0.85516 0.91827
 H669 H 0.17458 0.91756 0.94504
 H670 H 0.17307 0.86355 0.88803
 H671 H 0.27678 0.91444 0.83548
 H672 H 0.28103 0.96695 0.89198
 H673 H 0.29391 0.88184 0.97548
 H674 H 0.29034 0.82701 0.91962
 C675 C 0.73630 0.41654 0.44615
 C676 C 0.70633 0.42442 0.40895
 C677 C 0.70664 0.39449 0.37903
 C678 C 0.73612 0.35823 0.38856
 C679 C 0.77877 0.37808 0.39577
 C680 C 0.77898 0.40798 0.42579
 C681 C 0.72154 0.37377 0.46229
 C682 C 0.72215 0.34313 0.43243
 H683 H 0.68502 0.45068 0.40732
 H684 H 0.68601 0.39551 0.35217
 H685 H 0.80678 0.36876 0.37921
 H686 H 0.80734 0.42401 0.43482
 H687 H 0.70772 0.36840 0.49266
 H688 H 0.71064 0.31197 0.43876
 C689 C 0.07319 0.24943 0.05441
 C690 C 0.08536 0.20662 0.07240
 C691 C 0.11748 0.20712 0.09979
 C692 C 0.13553 0.25042 0.10760
 C693 C 0.14685 0.26745 0.06400
 C694 C 0.11396 0.26810 0.03664
 C695 C 0.06655 0.27761 0.09330
 C696 C 0.09849 0.27747 0.12103
 H697 H 0.06986 0.17780 0.06381
 H698 H 0.12930 0.17892 0.11442
 H699 H 0.17640 0.28220 0.05683
 H700 H 0.11598 0.28539 0.00769
 H701 H 0.04202 0.30074 0.09606
 H702 H 0.09930 0.29865 0.14748
 C703 C 0.56751 0.74684 0.55611
 C704 C 0.60117 0.77920 0.54445
 C705 C 0.63305 0.78184 0.57237
 C706 C 0.62773 0.75326 0.61049
 C707 C 0.58486 0.76512 0.62824
 C708 C 0.55359 0.76226 0.59984
 C709 C 0.59048 0.70578 0.56506
 C710 C 0.62219 0.70925 0.59283
 H711 H 0.59843 0.80108 0.51879
 H712 H 0.65768 0.80481 0.56944
 H713 H 0.57977 0.77748 0.65942
 H714 H 0.52253 0.77299 0.60736
 H715 H 0.58245 0.67633 0.55047
 H716 H 0.64123 0.68278 0.60201
 C717 C 0.04916 0.74915 0.93161
 C718 C 0.03849 0.72087 0.89415
 C719 C 0.06927 0.71835 0.86493
 C720 C 0.10887 0.74281 0.87644
 C721 C 0.09449 0.78755 0.88436
 C722 C 0.06370 0.79092 0.91309
 C723 C 0.08990 0.72840 0.94795
 C724 C 0.12108 0.72577 0.91939
 H725 H 0.01169 0.70056 0.89269
 H726 H 0.06729 0.69734 0.83842
 H727 H 0.10869 0.81457 0.86989
 H728 H 0.05118 0.82095 0.92248
 H729 H 0.09330 0.71429 0.97841
 H730 H 0.15041 0.71033 0.92614
 C731 C 0.54426 0.24435 0.43368
 C732 C 0.58345 0.27106 0.44234
 C733 C 0.61429 0.26714 0.41368
 C734 C 0.60344 0.23768 0.37775
 C735 C 0.59173 0.19631 0.39823
 C736 C 0.56082 0.19967 0.42703
 C737 C 0.53172 0.25974 0.38978
 C738 C 0.56215 0.25527 0.36044
 H739 H 0.58489 0.29475 0.46633
 H740 H 0.64202 0.28642 0.41444
 H741 H 0.60601 0.16669 0.39024
 H742 H 0.54866 0.17270 0.44351
 H743 H 0.50464 0.27803 0.38257
 H744 H 0.55838 0.26726 0.32894
 C745 C 0.93844 0.75534 0.07298
 C746 C 0.89582 0.77260 0.05738
 C747 C 0.86524 0.77395 0.08662
 C748 C 0.87937 0.75956 0.12993
 C749 C 0.89725 0.71572 0.12338
 C750 C 0.92766 0.71349 0.09381
 C751 C 0.94812 0.78555 0.10921
 C752 C 0.91766 0.78723 0.13921
 H753 H 0.89088 0.78655 0.02700
 H754 H 0.83504 0.78778 0.08017
 H755 H 0.88680 0.68855 0.14071
 H756 H 0.94318 0.68439 0.08620
 H757 H 0.97494 0.80607 0.10998
 H758 H 0.91937 0.80849 0.16555
 C759 C 0.44389 0.26309 0.58662
 C760 C 0.45680 0.24409 0.62896
 C761 C 0.42586 0.24486 0.65855
 C762 C 0.38411 0.26340 0.64294
 C763 C 0.39551 0.30669 0.62625
 C764 C 0.42656 0.30657 0.59728
 C765 C 0.40497 0.23668 0.57547
 C766 C 0.37391 0.23742 0.60426
 H767 H 0.48548 0.22718 0.63425
 H768 H 0.42962 0.23010 0.68887
 H769 H 0.38068 0.33523 0.63675
 H770 H 0.43823 0.33512 0.58332
 H771 H 0.40347 0.21608 0.54867
 H772 H 0.34606 0.21851 0.60111
 C773 C 0.92491 0.23810 0.95426
 C774 C 0.94470 0.25892 0.91478
 C775 C 0.91850 0.26407 0.88188
 C776 C 0.87417 0.24972 0.89103
 C777 C 0.87814 0.20419 0.90503
 C778 C 0.90430 0.19814 0.93775
 C779 C 0.88870 0.26805 0.96408
 C780 C 0.86193 0.27373 0.93118
 H781 H 0.97643 0.27055 0.91354
 H782 H 0.92803 0.27935 0.85312
 H783 H 0.86151 0.17866 0.89038
 H784 H 0.90964 0.16744 0.95109
 H785 H 0.88578 0.28571 0.99279
 H786 H 0.83603 0.29544 0.93270
 C787 C 0.42175 0.74475 0.44520
 C788 C 0.40508 0.78796 0.43279
 C789 C 0.37829 0.78783 0.40001
 C790 C 0.37000 0.74452 0.38191
 C791 C 0.41256 0.72668 0.37088
 C792 C 0.43909 0.72587 0.40381
 C793 C 0.38310 0.71755 0.45264
 C794 C 0.35571 0.71782 0.41982
 H795 H 0.41344 0.81645 0.44903
 H796 H 0.36401 0.81615 0.38813
 H797 H 0.42001 0.71212 0.34116
 H798 H 0.46833 0.70939 0.40159
 H799 H 0.37918 0.69693 0.47925
 H800 H 0.32821 0.69815 0.41945
 C801 C 0.07997 0.05585 0.24614
 C802 C 0.09870 0.06912 0.28831
 C803 C 0.12769 0.09989 0.28574
 C804 C 0.13586 0.11551 0.24120
 C805 C 0.14688 0.07590 0.21598
 C806 C 0.11742 0.04509 0.21799
 C807 C 0.06458 0.09714 0.22592
 C808 C 0.09323 0.12817 0.22415
 H809 H 0.09007 0.05494 0.31792
 H810 H 0.14356 0.11200 0.31312
 H811 H 0.17374 0.07364 0.19557
 H812 H 0.11911 0.01762 0.19835
 H813 H 0.03522 0.10027 0.20978
 H814 H 0.08714 0.15735 0.20801
 C815 C 0.58012 0.56182 0.74754
 C816 C 0.61943 0.54881 0.72332
 C817 C 0.64916 0.57925 0.72116
 C818 C 0.63626 0.62105 0.74157
 C819 C 0.59506 0.63187 0.72017
 C820 C 0.56619 0.60107 0.72271
 C821 C 0.59578 0.57882 0.78968
 C822 C 0.62475 0.60957 0.78658
 H823 H 0.62241 0.52007 0.70583
 H824 H 0.67795 0.57474 0.70405
 H825 H 0.59004 0.65987 0.70172
 H826 H 0.53734 0.60306 0.70532
 H827 H 0.58507 0.56717 0.81971
 H828 H 0.63858 0.62415 0.81385
 C829 C 0.95050 0.07909 0.75046
 C830 C 0.95861 0.11680 0.77906
 C831 C 0.92645 0.14490 0.77986
 C832 C 0.88832 0.13221 0.75298
 C833 C 0.90592 0.12496 0.70913
 C834 C 0.93808 0.09752 0.70778
 C835 C 0.90906 0.06202 0.76931
 C836 C 0.87677 0.08922 0.76962
 H837 H 0.98492 0.11943 0.80011
 H838 H 0.92659 0.17165 0.80062
 H839 H 0.89419 0.14045 0.68131
 H840 H 0.95384 0.08988 0.67872
 H841 H 0.90635 0.03239 0.78510
 H842 H 0.84721 0.08188 0.78439
 C843 C 0.44835 0.57510 0.24745
 C844 C 0.45810 0.61624 0.22491
 C845 C 0.42493 0.64308 0.22336
 C846 C 0.38438 0.62593 0.24355
 C847 C 0.37689 0.58502 0.22077
 C848 C 0.41026 0.55907 0.22190
 C849 C 0.43021 0.58767 0.29014
 C850 C 0.39707 0.61388 0.28811
 H851 H 0.48670 0.62234 0.20799
 H852 H 0.42642 0.67221 0.20613
 H853 H 0.34949 0.57855 0.20201
 H854 H 0.41100 0.53148 0.20265
 H855 H 0.44299 0.57715 0.31976
 H856 H 0.38157 0.62554 0.31593
 C857 C 0.05898 0.93347 0.74722
 C858 C 0.06565 0.91127 0.78927
 C859 C 0.09345 0.87946 0.78798
 C860 C 0.11343 0.87275 0.74506
 C861 C 0.07699 0.86696 0.71450
 C862 C 0.04913 0.89914 0.71485
 C863 C 0.10330 0.94690 0.73369
 C864 C 0.13165 0.91548 0.73307
 H865 H 0.04964 0.92001 0.81786
 H866 H 0.10140 0.86137 0.81545
 H867 H 0.07511 0.84163 0.69213
 H868 H 0.02443 0.90139 0.69186
 H869 H 0.11129 0.97766 0.72226
 H870 H 0.16322 0.92031 0.72194
 C871 C 0.55925 0.42837 0.24657
 C872 C 0.60240 0.44021 0.26454
 C873 C 0.63027 0.40841 0.26547
 C874 C 0.61279 0.36672 0.24939
 C875 C 0.57385 0.35968 0.27640
 C876 C 0.54639 0.39214 0.27567
 C877 C 0.56927 0.40878 0.20386
 C878 C 0.59654 0.37637 0.20542
 H879 H 0.60977 0.47000 0.27863
 H880 H 0.66091 0.41217 0.27926
 H881 H 0.56997 0.33328 0.29720
 H882 H 0.51999 0.39328 0.29675
 H883 H 0.55567 0.41952 0.17469
 H884 H 0.60627 0.35955 0.17764
 C885 C 0.93325 0.94930 0.25158
 C886 C 0.94778 0.90810 0.27266
 C887 C 0.91852 0.87778 0.27461
 C888 C 0.87644 0.89118 0.25672
 C889 C 0.86553 0.93103 0.28110
 C890 C 0.89556 0.96100 0.27919
 C891 C 0.91510 0.93546 0.20926
 C892 C 0.88546 0.90554 0.21200
 H893 H 0.97732 0.90404 0.28810
 H894 H 0.92405 0.84844 0.29064
 H895 H 0.83892 0.93361 0.30188
 H896 H 0.89456 0.98727 0.30016
 H897 H 0.92496 0.94825 0.17939
 H898 H 0.87025 0.89268 0.18459
 C899 C 0.43165 0.45416 0.75794
 C900 C 0.44614 0.41479 0.78212
 C901 C 0.41700 0.38444 0.78581
 C902 C 0.37513 0.39618 0.76622
 C903 C 0.36351 0.43765 0.78743
 C904 C 0.39342 0.46765 0.78386
 C905 C 0.41443 0.43729 0.71644
 C906 C 0.38493 0.40744 0.72076
 H907 H 0.47542 0.41242 0.79850
 H908 H 0.42231 0.35644 0.80415
 H909 H 0.33625 0.44168 0.80711
 H910 H 0.39172 0.49593 0.80206
 H911 H 0.42465 0.44823 0.68597
 H912 H 0.37007 0.39284 0.69405
 C913 C 0.06636 0.22816 0.95432
 C914 C 0.06041 0.20486 0.91180
 C915 C 0.08937 0.21405 0.88231
 C916 C 0.12311 0.24392 0.89754
 C917 C 0.10003 0.28254 0.91255
 C918 C 0.07051 0.27443 0.94163
 C919 C 0.11024 0.21344 0.96656
 C920 C 0.14012 0.22261 0.93752
 H921 H 0.04132 0.17747 0.90692
 H922 H 0.09104 0.19739 0.85288
 H923 H 0.10606 0.31377 0.90095
 H924 H 0.05139 0.29915 0.95470
 H925 H 0.11689 0.19415 0.99360
 H926 H 0.17201 0.21190 0.94097
 C927 C 0.56995 0.75214 0.45228
 C928 C 0.61280 0.73477 0.46548
 C929 C 0.64239 0.73721 0.43499
 C930 C 0.62613 0.75524 0.39336
 C931 C 0.58912 0.72736 0.38251
 C932 C 0.56025 0.72523 0.41334
 C933 C 0.57871 0.79615 0.43513
 C934 C 0.60771 0.79770 0.40443
 H935 H 0.61871 0.71641 0.49298
 H936 H 0.67277 0.72277 0.43864
 H937 H 0.58800 0.70732 0.35527
 H938 H 0.53571 0.70218 0.41243
 H939 H 0.56345 0.82404 0.44676
 H940 H 0.61715 0.82672 0.38973
 C941 C 0.94688 0.74922 0.92236
 C942 C 0.90743 0.77520 0.93141
 C943 C 0.87930 0.77590 0.89995
 C944 C 0.89293 0.75178 0.86083
 C945 C 0.93540 0.77074 0.84976
 C946 C 0.96322 0.77036 0.88205
 C947 C 0.93039 0.70635 0.90845
 C948 C 0.90255 0.70770 0.87644
 H949 H 0.90345 0.79456 0.95880
 H950 H 0.85098 0.79404 0.90202
 H951 H 0.94180 0.78664 0.82063
 H952 H 0.99153 0.78823 0.87991
 H953 H 0.94022 0.67718 0.92259
 H954 H 0.88864 0.67979 0.86334
 C955 C 0.44046 0.25453 0.43511
 C956 C 0.45007 0.22104 0.40182
 C957 C 0.42232 0.21987 0.36952
 C958 C 0.38619 0.25097 0.37400
 C959 C 0.36764 0.24089 0.41720
 C960 C 0.39584 0.24220 0.44879
 C961 C 0.43438 0.29575 0.41131
 C962 C 0.40670 0.29371 0.37924
 H963 H 0.47454 0.19796 0.40488
 H964 H 0.42412 0.19668 0.34490
 H965 H 0.33586 0.23056 0.42235
 H966 H 0.38741 0.23204 0.47996
 H967 H 0.45077 0.32428 0.41908
 H968 H 0.39937 0.32047 0.35987
 C969 C 0.04354 0.75677 0.07783
 C970 C 0.06734 0.79803 0.08459
 C971 C 0.10048 0.79537 0.11072
 C972 C 0.10696 0.75205 0.12939
 C973 C 0.06420 0.74072 0.14923
 C974 C 0.03122 0.74256 0.12208
 C975 C 0.07736 0.72412 0.06628
 C976 C 0.11057 0.72243 0.09239
 H977 H 0.05825 0.82732 0.07019
 H978 H 0.11977 0.82211 0.11823
 H979 H 0.06069 0.72818 0.18058
 H980 H 0.00133 0.72980 0.13070
 H981 H 0.07271 0.70044 0.04264
 H982 H 0.13468 0.69887 0.08945
 C983 C 0.55097 0.25744 0.58258
 C984 C 0.56544 0.21472 0.59889
 C985 C 0.59850 0.21608 0.62529
 C986 C 0.61485 0.26006 0.63378
 C987 C 0.62430 0.27866 0.59094
 C988 C 0.59107 0.27820 0.56475
 C989 C 0.54299 0.28386 0.62187
 C990 C 0.57614 0.28486 0.64889
 H991 H 0.55036 0.18560 0.59061
 H992 H 0.61170 0.18817 0.63924
 H993 H 0.65325 0.29423 0.58300
 H994 H 0.59211 0.29473 0.53530
 H995 H 0.51568 0.30318 0.62649
 H996 H 0.57604 0.30422 0.67672
 C997 C 0.91952 0.23667 0.05996
 C998 C 0.87712 0.21934 0.04577
 C999 C 0.84781 0.21825 0.07680
 C1000 C 0.86359 0.23332 0.11996
 C1001 C 0.90189 0.20621 0.12819
 C1002 C 0.93071 0.20758 0.09708
 C1003 C 0.90942 0.27892 0.08045
 C1004 C 0.88065 0.27712 0.11165
 H1005 H 0.87113 0.20558 0.01554
 H1006 H 0.81710 0.20516 0.07160
 H1007 H 0.90522 0.18598 0.15507
 H1008 H 0.95837 0.18809 0.09788
 H1009 H 0.92365 0.30807 0.07079
 H1010 H 0.87051 0.30462 0.12859
 C1011 C 0.41736 0.73796 0.55235
 C1012 C 0.37473 0.75542 0.53898
 C1013 C 0.34545 0.75465 0.57012
 C1014 C 0.36168 0.73791 0.61255
 C1015 C 0.37955 0.69482 0.60266
 C1016 C 0.40802 0.69475 0.57121
 C1017 C 0.42794 0.76592 0.59047
 C1018 C 0.39942 0.76537 0.62180
 H1019 H 0.36906 0.77222 0.51022
 H1020 H 0.31506 0.76894 0.56611
 H1021 H 0.37083 0.66664 0.61931
 H1022 H 0.42301 0.66629 0.56069
 H1023 H 0.45407 0.78728 0.59113
 H1024 H 0.40212 0.78520 0.64915
 C1025 C 0.24992 0.07203 0.94830
 C1026 C 0.20608 0.08748 0.93606
 C1027 C 0.20560 0.11937 0.90805
 C1028 C 0.24890 0.13357 0.89411
 C1029 C 0.27233 0.14378 0.93469
 C1030 C 0.27381 0.11147 0.96244
 C1031 C 0.27172 0.06259 0.90612
 C1032 C 0.27063 0.09417 0.87792
 H1033 H 0.17756 0.07449 0.94885
 H1034 H 0.17687 0.13347 0.89702
 H1035 H 0.29068 0.17185 0.93903
 H1036 H 0.29554 0.11272 0.98791
 H1037 H 0.29044 0.03512 0.90047
 H1038 H 0.28720 0.09245 0.84837
 C1039 C 0.74856 0.57033 0.44129
 C1040 C 0.70559 0.58633 0.42730
 C1041 C 0.70655 0.61822 0.39957
 C1042 C 0.75042 0.63188 0.38737
 C1043 C 0.77269 0.64156 0.42899
 C1044 C 0.77276 0.60888 0.45661
 C1045 C 0.77204 0.56069 0.39985
 C1046 C 0.77224 0.59239 0.37176
 H1047 H 0.67642 0.57354 0.43873
 H1048 H 0.67840 0.63259 0.38742
 H1049 H 0.79039 0.66981 0.43457
 H1050 H 0.79172 0.60927 0.48463
 H1051 H 0.79316 0.53468 0.39535
 H1052 H 0.79106 0.59124 0.34356
 C1053 C 0.76389 0.04372 0.07210
 C1054 C 0.72045 0.06431 0.07176
 C1055 C 0.71445 0.09418 0.10098
 C1056 C 0.75206 0.10132 0.12900
 C1057 C 0.76283 0.05786 0.14697
 C1058 C 0.77068 0.02837 0.11721
 C1059 C 0.79514 0.08070 0.07047
 C1060 C 0.78842 0.11080 0.09954
 H1061 H 0.69600 0.05564 0.04999
 H1062 H 0.68520 0.11088 0.10414
 H1063 H 0.76757 0.05160 0.17992
 H1064 H 0.78550 -0.00072 0.12554
 H1065 H 0.82350 0.08066 0.05197
 H1066 H 0.81010 0.13628 0.10429
 C1067 C 0.26096 0.54697 0.57070
 C1068 C 0.21657 0.56546 0.57189
 C1069 C 0.21061 0.59603 0.60043
 C1070 C 0.24925 0.60579 0.62612
 C1071 C 0.26296 0.56347 0.64484
 C1072 C 0.27069 0.53339 0.61571
 C1073 C 0.29027 0.58526 0.56618
 C1074 C 0.28342 0.61604 0.59439
 H1075 H 0.19154 0.55493 0.55167
 H1076 H 0.18083 0.61151 0.60460
 H1077 H 0.26888 0.55833 0.67775
 H1078 H 0.28678 0.50500 0.62413
 H1079 H 0.31733 0.58625 0.54584
 H1080 H 0.30298 0.64352 0.59612
 C1081 C 0.76156 0.94623 0.91510
 C1082 C 0.71988 0.92478 0.90487
 C1083 C 0.72227 0.89438 0.87548
 C1084 C 0.76598 0.88782 0.85765
 C1085 C 0.77953 0.93164 0.84239
 C1086 C 0.77796 0.96196 0.87262
 C1087 C 0.79209 0.91004 0.92494
 C1088 C 0.79388 0.87972 0.89547
 H1089 H 0.69054 0.93339 0.91939
 H1090 H 0.69512 0.87709 0.86513
 H1091 H 0.79233 0.93769 0.81158
 H1092 H 0.79139 0.99241 0.86738
 H1093 H 0.81235 0.90947 0.95213
 H1094 H 0.81525 0.85380 0.89778
 C1095 C 0.26007 0.44182 0.41894
 C1096 C 0.21766 0.42315 0.40686
 C1097 C 0.21948 0.39251 0.37771
 C1098 C 0.26352 0.38278 0.36232
 C1099 C 0.28112 0.42524 0.34753
 C1100 C 0.27997 0.45586 0.37740
 C1101 C 0.28755 0.40371 0.43077
 C1102 C 0.28878 0.37296 0.40167
 H1103 H 0.18832 0.43369 0.42001
 H1104 H 0.19179 0.37691 0.36616
 H1105 H 0.29676 0.42974 0.31776
 H1106 H 0.29596 0.48524 0.37302
 H1107 H 0.30651 0.40216 0.45885
 H1108 H 0.30816 0.34543 0.40532
 C1109 C 0.25259 0.91892 0.04472
 C1110 C 0.29435 0.90633 0.06487
 C1111 C 0.29107 0.88015 0.09797
 C1112 C 0.24642 0.86743 0.10829
 C1113 C 0.22247 0.90795 0.11474
 C1114 C 0.22482 0.93417 0.08142
 C1115 C 0.23149 0.87737 0.03346
 C1116 C 0.22878 0.85022 0.06649
 H1117 H 0.32437 0.91679 0.05329
 H1118 H 0.31814 0.86861 0.11473
 H1119 H 0.20126 0.91332 0.14065
 H1120 H 0.20364 0.96031 0.07856
 H1121 H 0.21545 0.87113 0.00446
 H1122 H 0.21184 0.82105 0.06405
 C1123 C 0.73789 0.42609 0.55286
 C1124 C 0.69724 0.40669 0.56904
 C1125 C 0.70207 0.38109 0.60250
 C1126 C 0.74720 0.37669 0.61747
 C1127 C 0.77191 0.36324 0.57808
 C1128 C 0.76738 0.38933 0.54453
 C1129 C 0.75816 0.44650 0.59222
 C1130 C 0.76210 0.42098 0.62591
 H1131 H 0.66702 0.41245 0.55496
 H1132 H 0.67594 0.36529 0.61711
 H1133 H 0.79342 0.33713 0.57760
 H1134 H 0.78572 0.38575 0.51629
 H1135 H 0.77065 0.47794 0.59274
 H1136 H 0.77704 0.43083 0.65469
 C1137 C 0.05543 0.08440 0.75780
 C1138 C 0.09471 0.07441 0.73126
 C1139 C 0.12566 0.10316 0.73352
 C1140 C 0.11499 0.14049 0.76120
 C1141 C 0.07341 0.15675 0.74285
 C1142 C 0.04270 0.12729 0.74031
 C1143 C 0.07230 0.09313 0.80202
 C1144 C 0.10337 0.12184 0.80370
 H1145 H 0.09670 0.04832 0.70983
 H1146 H 0.15389 0.10079 0.71498
 H1147 H 0.06978 0.18741 0.72895
 H1148 H 0.01461 0.13318 0.72262
 H1149 H 0.06078 0.07756 0.82988
 H1150 H 0.11865 0.13018 0.83278
 C1151 C 0.55543 0.58049 0.25065
 C1152 C 0.54044 0.62123 0.27129
 C1153 C 0.57065 0.65132 0.27411
 C1154 C 0.61385 0.63759 0.25762
 C1155 C 0.62314 0.59766 0.28210
 C1156 C 0.59280 0.56835 0.27896
 C1157 C 0.57533 0.59408 0.20901
 C1158 C 0.60566 0.62339 0.21266
 H1159 H 0.51058 0.62502 0.28651
 H1160 H 0.56502 0.68083 0.28959
 H1161 H 0.64989 0.59376 0.30250
 H1162 H 0.59385 0.54006 0.29755
 H1163 H 0.56584 0.58180 0.17887
 H1164 H 0.62200 0.63591 0.18570
 C1165 C 0.07821 0.95049 0.24396
 C1166 C 0.06604 0.91434 0.27405
 C1167 C 0.09218 0.88116 0.27411
 C1168 C 0.12994 0.88712 0.24591
 C1169 C 0.11280 0.89663 0.20242
 C1170 C 0.08645 0.92965 0.20124
 C1171 C 0.12162 0.96192 0.26074
 C1172 C 0.14890 0.92904 0.26104
 H1173 H 0.04255 0.91751 0.29810
 H1174 H 0.08904 0.85575 0.29635
 H1175 H 0.12165 0.87956 0.17450
 H1176 H 0.07304 0.94069 0.17207
 H1177 H 0.12916 0.99064 0.27662
 H1178 H 0.17946 0.93163 0.27527
 C1179 C 0.58048 0.45525 0.75038
 C1180 C 0.62301 0.46763 0.76859
 C1181 C 0.65121 0.43559 0.76924
 C1182 C 0.63380 0.39346 0.75310
 C1183 C 0.59539 0.38611 0.78015
 C1184 C 0.56823 0.41846 0.77953
 C1185 C 0.59010 0.43509 0.70776
 C1186 C 0.61746 0.40293 0.70924
 H1187 H 0.62913 0.49663 0.78470
 H1188 H 0.68137 0.43885 0.78419
 H1189 H 0.59195 0.36001 0.80151
 H1190 H 0.54307 0.42012 0.80193
 H1191 H 0.57660 0.44578 0.67851
 H1192 H 0.62710 0.38606 0.68144
 C1193 C 0.92889 0.05184 0.25454
 C1194 C 0.91360 0.06499 0.29823
 C1195 C 0.88177 0.09297 0.29800
 C1196 C 0.86814 0.10639 0.25414
 C1197 C 0.90808 0.12186 0.23282
 C1198 C 0.93921 0.09339 0.23233
 C1199 C 0.88970 0.03775 0.23040
 C1200 C 0.85784 0.06582 0.23098
 H1201 H 0.92687 0.05308 0.32709
 H1202 H 0.86790 0.10491 0.32654
 H1203 H 0.91106 0.15171 0.21730
 H1204 H 0.96722 0.09895 0.21452
 H1205 H 0.88845 0.01111 0.20992
 H1206 H 0.82988 0.06143 0.21268
 C1207 C 0.42882 0.55793 0.75264
 C1208 C 0.43862 0.59734 0.72648
 C1209 C 0.40732 0.62568 0.72497
 C1210 C 0.36814 0.61221 0.74899
 C1211 C 0.35718 0.56972 0.72994
 C1212 C 0.38912 0.54173 0.73086
 C1213 C 0.41461 0.57468 0.79535
 C1214 C 0.38300 0.60272 0.79345
 H1215 H 0.46631 0.60107 0.70754
 H1216 H 0.40918 0.65342 0.70555
 H1217 H 0.32867 0.56364 0.71313
 H1218 H 0.38745 0.51339 0.71281
 H1219 H 0.42830 0.56496 0.82483
 H1220 H 0.36974 0.61695 0.82123
 C1221 C 0.95528 0.93216 0.73858
 C1222 C 0.96808 0.88864 0.75449
 C1223 C 0.93751 0.85947 0.75120
 C1224 C 0.89588 0.87661 0.73449
 C1225 C 0.88588 0.91292 0.76377
 C1226 C 0.91690 0.94139 0.76637
 C1227 C 0.93758 0.92485 0.69435
 C1228 C 0.90652 0.89627 0.69233
 H1229 H 0.99548 0.88162 0.77242
 H1230 H 0.94152 0.82819 0.76324
 H1231 H 0.85899 0.91378 0.78430
 H1232 H 0.91659 0.96507 0.79040
 H1233 H 0.94911 0.94073 0.66667
 H1234 H 0.89145 0.88785 0.66315
 C1235 C 0.45526 0.42665 0.24646
 C1236 C 0.46911 0.38457 0.22782
 C1237 C 0.43834 0.35535 0.22657
 C1238 C 0.39582 0.37118 0.24245
 C1239 C 0.40397 0.38730 0.28660
 C1240 C 0.43503 0.41574 0.28878
 C1241 C 0.41846 0.43829 0.21732
 C1242 C 0.38730 0.40984 0.21582
 H1243 H 0.49758 0.37920 0.21103
 H1244 H 0.44268 0.32567 0.21089
 H1245 H 0.38635 0.37757 0.31387
 H1246 H 0.44438 0.42970 0.31823
 H1247 H 0.41930 0.46414 0.19562
 H1248 H 0.36128 0.41276 0.19434
   
