data_POSCAR
  _audit_creation_date              2014-09-24
  _audit_creation_method            'ToBaCCo'
  _symmetry_space_group_name_H-M    'P1'
  _symmetry_Int_Tables_number       1
  _symmetry_cell_setting            triclinic
  loop_
  _symmetry_equiv_pos_as_xyz
 x,y,z
_cell_length_a 57.4461
_cell_length_b 57.4404
_cell_length_c 57.4284
_cell_angle_alpha 90.004700
_cell_angle_beta 90.007400
_cell_angle_gamma 90.008200
loop_
  _atom_site_label
  _atom_site_type_symbol
  _atom_site_fract_x
  _atom_site_fract_y
  _atom_site_fract_z
C1 C 0.35870 1.35971 0.32976
 N2 N 0.36825 1.34047 0.33969
 C3 C 0.35872 1.33073 0.35901
 N4 N 0.33933 1.34043 0.36843
 C5 C 0.32944 1.35968 0.35883
 N6 N 0.33929 1.36918 0.33949
 C7 C 0.35873 0.85933 0.83038
 N8 N 0.36830 0.84002 0.84014
 C9 C 0.35872 0.83019 0.85940
 N10 N 0.33930 0.83984 0.86884
 C11 C 0.32943 0.85915 0.85934
 N12 N 0.33931 0.86874 0.84007
 C13 C 0.85922 1.35910 0.82936
 N14 N 0.83984 1.36856 0.83916
 C15 C 0.83013 1.35905 0.85853
 N16 N 0.83998 1.33982 0.86811
 C17 C 0.85934 1.33011 0.85863
 N18 N 0.86882 1.33984 0.83926
 C19 C 0.85938 0.85942 0.32965
 N20 N 0.84004 0.86897 0.33945
 C21 C 0.83024 0.85945 0.35877
 N22 N 0.83996 0.84013 0.36831
 C23 C 0.85928 0.83034 0.35883
 N24 N 0.86884 0.84008 0.33951
 C25 C 0.64045 0.64054 0.32971
 N26 N 0.65978 0.63110 0.33960
 C27 C 0.66948 0.64065 0.35895
 N28 N 0.65965 0.65994 0.36846
 C29 C 0.64031 0.66963 0.35888
 N30 N 0.63086 0.65984 0.33952
 C31 C 0.64212 0.14108 0.82907
 N32 N 0.66148 0.13165 0.83892
 C33 C 0.67119 0.14113 0.85835
 N34 N 0.66121 0.16035 0.86793
 C35 C 0.64186 0.17003 0.85837
 N36 N 0.63248 0.16030 0.83897
 C37 C 1.13960 0.63954 0.83125
 N38 N 1.12999 0.65883 0.84102
 C39 C 1.13949 0.66861 0.86036
 N40 N 1.15885 0.65891 0.86989
 C41 C 1.16868 0.63963 0.86035
 N42 N 1.15895 0.63009 0.84102
 C43 C 1.14153 0.14064 0.32954
 N44 N 1.16095 0.13129 0.33935
 C45 C 1.17071 0.14085 0.35871
 N46 N 1.16072 0.16007 0.36824
 C47 C 1.14132 0.16968 0.35874
 N48 N 1.13186 0.15987 0.33940
 C49 C 0.64124 1.35970 0.66947
 N50 N 0.63174 1.34039 0.65963
 C51 C 0.64136 1.33064 0.64036
 N52 N 0.66073 1.34039 0.63095
 C53 C 0.67054 1.35971 0.64052
 N54 N 0.66063 1.36922 0.65982
 C55 C 0.64048 0.85935 1.17038
 N56 N 0.63108 0.83997 1.16055
 C57 C 0.64064 0.83025 1.14122
 N58 N 0.65992 0.84010 1.13168
 C59 C 0.66957 0.85948 1.14122
 N60 N 0.65976 0.86895 1.16056
 C61 C 1.14114 1.35944 1.17022
 N62 N 1.13168 1.34010 1.16035
 C63 C 1.14126 1.33036 1.14105
 N64 N 1.16059 1.34015 1.13160
 C65 C 1.17038 1.35948 1.14113
 N66 N 1.16050 1.36898 1.16045
 C67 C 1.14157 0.85924 0.66968
 N68 N 1.13214 0.83992 0.65986
 C69 C 1.14174 0.83020 0.64056
 N70 N 1.16108 0.84002 0.63110
 C71 C 1.17083 0.85937 0.64069
 N72 N 1.16091 0.86882 0.66001
 C73 C 0.35867 0.64081 0.66966
 N74 N 0.33931 0.63125 0.65998
 C75 C 0.32936 0.64077 0.64071
 N76 N 0.33911 0.66014 0.63118
 C77 C 0.35847 0.66993 0.64062
 N78 N 0.36811 0.66016 0.65988
 C79 C 0.35885 0.14052 1.17036
 N80 N 0.33951 0.13089 1.16064
 C81 C 0.32963 0.14022 1.14124
 N82 N 0.33940 0.15949 1.13156
 C83 C 0.35871 0.16937 1.14097
 N84 N 0.36828 0.15979 1.16036
 C85 C 0.86023 0.63968 1.16866
 N86 N 0.84089 0.63008 1.15899
 C87 C 0.83100 0.63959 1.13972
 N88 N 0.84063 0.65897 1.13017
 C89 C 0.85997 0.66880 1.13960
 N90 N 0.86963 0.65905 1.15887
 C91 C 0.85848 0.14095 0.67098
 N92 N 0.83912 0.13138 0.66123
 C93 C 0.82926 0.14081 0.64186
 N94 N 0.83908 0.16010 0.63226
 C95 C 0.85841 0.16990 0.64169
 N96 N 0.86796 0.16024 0.66104
 C97 C 1.35895 0.35842 0.67073
 N98 N 1.33965 0.36786 0.66078
 C99 C 1.33002 0.35829 0.64142
 N100 N 1.33988 0.33898 0.63197
 C101 C 1.35918 0.32921 0.64160
 N102 N 1.36855 0.33910 0.66098
 C103 C 1.35990 0.85907 1.16929
 N104 N 1.36936 0.83961 1.15972
 C105 C 1.35982 0.82965 1.14046
 N106 N 1.34054 0.83947 1.13085
 C107 C 1.33086 0.85893 1.14019
 N108 N 1.34064 0.86859 1.15943
 C109 C 0.85967 0.35966 1.16994
 N110 N 0.84028 0.36905 1.16009
 C111 C 0.83058 0.35945 1.14077
 N112 N 0.84044 0.34016 1.13129
 C113 C 0.85981 0.33052 1.14083
 N114 N 0.86928 0.34036 1.16014
 C115 C 0.86013 0.86021 0.66883
 N116 N 0.86964 0.84084 0.65914
 C117 C 0.86011 0.83103 0.63984
 N118 N 0.84080 0.84077 0.63028
 C119 C 0.83105 0.86014 0.63973
 N120 N 0.84081 0.86973 0.65903
 C121 C 0.64022 0.64047 0.66949
 N122 N 0.63068 0.65977 0.65968
 C123 C 0.64022 0.66950 0.64033
 N124 N 0.65956 0.65972 0.63084
 C125 C 0.66932 0.64043 0.64041
 N126 N 0.65955 0.63095 0.65976
 C127 C 0.64081 1.14147 1.17044
 N128 N 0.66011 1.13193 1.16061
 C129 C 0.66984 1.14140 1.14124
 N130 N 0.66009 1.16071 1.13167
 C131 C 0.64078 1.17056 1.14120
 N132 N 0.63132 1.16079 1.16058
 C133 C 0.14080 0.64171 1.17069
 N134 N 0.13137 0.66109 1.16087
 C135 C 0.14085 0.67086 1.14149
 N136 N 0.16010 0.66093 1.13192
 C137 C 0.16979 0.64157 1.14144
 N138 N 0.16004 0.63211 1.16081
 C139 C 0.14036 1.14125 0.66941
 N140 N 0.15967 1.13170 0.65968
 C141 C 0.16947 1.14121 0.64037
 N142 N 0.15976 1.16054 0.63083
 C143 C 0.14043 1.17041 0.64030
 N144 N 0.13087 1.16060 0.65963
 C145 C 1.35974 0.64045 0.33002
 N146 N 1.36915 0.65987 0.33981
 C147 C 1.35958 0.66961 0.35913
 N148 N 1.34032 0.65975 0.36867
 C149 C 1.33066 0.64036 0.35919
 N150 N 1.34046 0.63085 0.33988
 C151 C 1.35936 1.14156 0.82915
 N152 N 1.34009 1.13190 0.83896
 C153 C 1.33025 1.14136 0.85828
 N154 N 1.33987 1.16075 0.86781
 C155 C 1.35914 1.17071 0.85834
 N156 N 1.36872 1.16096 0.83900
 C157 C 0.85944 0.64039 0.83056
 N158 N 0.84012 0.63080 0.84031
 C159 C 0.83029 0.64034 0.85960
 N160 N 0.83997 0.65972 0.86910
 C161 C 0.85927 0.66955 0.85960
 N162 N 0.86887 0.65978 0.84031
 C163 C 0.85981 1.14125 0.32967
 N164 N 0.84051 1.13164 0.33945
 C165 C 0.83065 1.14111 0.35874
 N166 N 0.84027 1.16049 0.36829
 C167 C 0.85957 1.17043 0.35883
 N168 N 0.86918 1.16064 0.33952
 C169 C 0.64057 0.35851 0.32956
 N170 N 0.63118 0.33916 0.33948
 C171 C 0.64078 0.32945 0.35883
 N172 N 0.66008 0.33941 0.36825
 C173 C 0.66972 0.35875 0.35865
 N174 N 0.65987 0.36815 0.33931
 C175 C 0.63985 0.85980 0.83103
 N176 N 0.63036 0.84049 0.84086
 C177 C 0.63992 0.83083 0.86024
 N178 N 0.65924 0.84068 0.86972
 C179 C 0.66895 0.85999 0.86011
 N180 N 0.65916 0.86940 0.84075
 C181 C 0.14025 0.35844 0.83043
 N182 N 0.13083 0.33907 0.84022
 C183 C 0.14043 0.32932 0.85957
 N184 N 0.15972 0.33927 0.86904
 C185 C 0.16935 0.35864 0.85949
 N186 N 0.15952 0.36807 0.84017
 C187 C 0.14038 0.85971 0.33005
 N188 N 0.13097 0.84037 0.33995
 C189 C 0.14049 0.83075 0.35936
 N190 N 0.15973 0.84067 0.36890
 C191 C 0.16939 0.86000 0.35930
 N192 N 0.15962 0.86938 0.33989
 O193 O 0.97722 0.91622 0.88420
 O194 O 0.97707 0.88912 0.85700
 C195 C 0.96925 0.90810 0.86524
 C196 C 0.95029 0.92058 0.85300
 C197 C 0.94235 0.91284 0.83121
 H198 H 0.95088 0.89827 0.82281
 O199 O 1.02302 1.08401 0.88435
 O200 O 1.02314 1.11120 0.85724
 C201 C 1.03100 1.09221 0.86543
 C202 C 1.05001 1.07982 0.85318
 C203 C 1.05799 1.08769 0.83145
 H204 H 1.04945 1.10230 0.82313
 O205 O 0.88418 0.97786 0.91591
 O206 O 0.85698 0.97788 0.88881
 C207 C 0.86519 0.96997 0.90777
 C208 C 0.85290 0.95101 0.92021
 C209 C 0.83111 0.94310 0.91244
 H210 H 0.82276 0.95163 0.89784
 O211 O 1.11627 1.02242 0.91583
 O212 O 1.14344 1.02240 0.88871
 C213 C 1.13524 1.03033 0.90767
 C214 C 1.14750 1.04932 0.92010
 C215 C 1.16915 1.05751 0.91218
 H216 H 1.17719 1.04956 0.89709
 O217 O 0.91556 0.88474 0.97740
 O218 O 0.88837 0.85762 0.97736
 C219 C 0.90734 0.86582 0.96943
 C220 C 0.91969 0.85356 0.95038
 C221 C 0.91184 0.83182 0.94243
 H222 H 0.89724 0.82348 0.95097
 O223 O 1.08471 1.11539 0.97756
 O224 O 1.11186 1.14254 0.97755
 C225 C 1.09289 1.13434 0.96963
 C226 C 1.08049 1.14662 0.95063
 C227 C 1.08833 1.16838 0.94268
 H228 H 1.10294 1.17671 0.95121
 O229 O 0.91612 1.02320 0.88399
 O230 O 0.88907 1.02327 0.85674
 C231 C 0.90799 1.03118 0.86503
 C232 C 0.92042 1.05024 0.85288
 C233 C 0.91259 1.05844 0.83121
 H234 H 0.89756 1.05045 0.82308
 O235 O 1.08416 0.97716 0.88397
 O236 O 1.11118 0.97705 0.85670
 C237 C 1.09225 0.96917 0.86500
 C238 C 1.07977 0.95012 0.85286
 C239 C 1.08753 0.94197 0.83114
 H240 H 1.10252 0.95000 0.82297
 O241 O 1.02242 0.88405 0.91607
 O242 O 1.02232 0.85680 0.88901
 C243 C 1.03028 0.86504 0.90794
 C244 C 1.04925 0.85277 0.92038
 C245 C 1.05721 0.83097 0.91265
 H246 H 1.04910 0.82281 0.89771
 O247 O 0.97769 1.11599 0.91629
 O248 O 0.97778 1.14331 0.88931
 C249 C 0.96979 1.13499 0.90819
 C250 C 0.95073 1.14717 0.92060
 C251 C 0.94261 1.16887 0.91275
 H252 H 0.95067 1.17700 0.89776
 O253 O 0.88412 1.08424 0.97752
 O254 O 0.85703 1.11143 0.97757
 C255 C 0.86522 1.09250 0.96956
 C256 C 0.85304 1.08025 0.95038
 C257 C 0.83143 1.08823 0.94213
 H258 H 0.82332 1.10323 0.95019
 O259 O 1.11581 0.91570 0.97728
 O260 O 1.14293 0.88853 0.97721
 C261 C 1.13472 0.90748 0.96928
 C262 C 1.14692 0.91980 0.95017
 C263 C 1.16861 0.91189 0.94213
 H264 H 1.17696 0.89730 0.95067
 O265 O 0.97760 1.08429 0.88420
 O266 O 0.97769 1.11148 0.85709
 C267 C 0.96969 1.09254 0.86527
 C268 C 0.95058 1.08027 0.85302
 C269 C 0.94252 1.08821 0.83133
 H270 H 0.95106 1.10281 0.82299
 O271 O 1.02262 0.91596 0.88420
 O272 O 1.02252 0.88886 0.85701
 C273 C 1.03053 0.90776 0.86525
 C274 C 1.04962 0.92007 0.85302
 C275 C 1.05761 0.91220 0.83129
 H276 H 1.04905 0.89762 0.82293
 O277 O 1.11606 0.97702 0.91580
 O278 O 1.14325 0.97691 0.88870
 C279 C 1.13497 0.96899 0.90763
 C280 C 1.14708 0.94987 0.92003
 C281 C 1.16876 0.94168 0.91221
 H282 H 1.17692 0.94970 0.89722
 O283 O 0.88428 1.02325 0.91591
 O284 O 0.85709 1.02332 0.88880
 C285 C 0.86535 1.03123 0.90775
 C286 C 0.85317 1.05029 0.92013
 C287 C 0.83156 1.05848 0.91218
 H288 H 0.82324 1.05006 0.89749
 O289 O 0.91624 1.11589 0.97759
 O290 O 0.88928 1.14322 0.97765
 C291 C 0.90817 1.13490 0.96969
 C292 C 0.92059 1.14709 0.95065
 C293 C 0.91276 1.16880 0.94259
 H294 H 0.89815 1.17718 0.95107
 O295 O 1.08375 0.88398 0.97740
 O296 O 1.11075 0.85668 0.97734
 C297 C 1.09182 0.86498 0.96946
 C298 C 1.07935 0.85279 0.95047
 C299 C 1.08703 0.83099 0.94254
 H300 H 1.10155 0.82254 0.95110
 O301 O 1.08433 1.02258 0.88400
 O302 O 1.11133 1.02256 0.85672
 C303 C 1.09245 1.03055 0.86504
 C304 C 1.08007 1.04968 0.85293
 C305 C 1.08783 1.05785 0.83121
 H306 H 1.10277 1.04979 0.82299
 O307 O 0.91605 0.97777 0.88401
 O308 O 0.88900 0.97779 0.85676
 C309 C 0.90790 0.96982 0.86504
 C310 C 0.92029 0.95076 0.85287
 C311 C 0.91256 0.94274 0.83108
 H312 H 0.89765 0.95086 0.82288
 O313 O 1.02314 1.11587 0.91627
 O314 O 1.02326 1.14319 0.88930
 C315 C 1.03118 1.13482 0.90819
 C316 C 1.05030 1.14689 0.92062
 C317 C 1.05843 1.16863 0.91289
 H318 H 1.05034 1.17685 0.89796
 O319 O 0.97701 0.88432 0.91606
 O320 O 0.97685 0.85708 0.88901
 C321 C 0.96895 0.86540 0.90792
 C322 C 0.94982 0.85333 0.92033
 C323 C 0.94169 0.83159 0.91259
 H324 H 0.94977 0.82337 0.89766
 O325 O 1.11653 1.08344 0.97751
 O326 O 1.14380 1.11046 0.97751
 C327 C 1.13548 1.09157 0.96954
 C328 C 1.14759 1.07925 0.95038
 C329 C 1.16924 1.08716 0.94223
 H330 H 1.17766 1.10172 0.95077
 O331 O 0.88376 0.91669 0.97748
 O332 O 0.85644 0.88972 0.97745
 C333 C 0.86477 0.90861 0.96951
 C334 C 0.85265 0.92105 0.95044
 C335 C 0.83087 0.91335 0.94239
 H336 H 0.82264 0.89846 0.95052
 Cu337 Cu 0.99984 0.90285 0.90285
 Cu338 Cu 0.99967 0.87023 0.87028
 Cu339 Cu 1.00035 1.09732 0.90299
 Cu340 Cu 1.00048 1.13004 0.87052
 Cu341 Cu 0.90288 1.00051 0.90266
 Cu342 Cu 0.87031 1.00056 0.87004
 Cu343 Cu 1.09750 0.99981 0.90261
 Cu344 Cu 1.13002 0.99972 0.86997
 C345 C 0.93930 0.93969 0.86357
 H346 H 0.94513 0.94555 0.88052
 C347 C 0.92348 0.92378 0.82013
 C348 C 1.06102 1.06066 0.86366
 H349 H 1.05515 1.05470 0.88056
 C350 C 1.07691 1.07686 0.82035
 C351 C 0.86341 0.94002 0.93937
 H352 H 0.88035 0.94583 0.94526
 C353 C 0.81997 0.92427 0.92339
 C354 C 1.13699 1.06018 0.93934
 H355 H 1.12014 1.05420 0.94533
 C356 C 1.18014 1.07644 0.92312
 C357 C 0.93883 0.86406 0.93936
 H358 H 0.94478 0.88097 0.94521
 C359 C 0.92270 0.82070 0.92353
 C360 C 1.06132 1.13614 0.93963
 H361 H 1.05538 1.11922 0.94547
 C362 C 1.07743 1.17951 0.92380
 C363 C 0.93956 1.06114 0.86352
 H364 H 0.94548 1.05512 0.88039
 C365 C 0.92352 1.07742 0.82029
 C366 C 1.06068 0.93918 0.86354
 H367 H 1.05481 0.94515 0.88044
 C368 C 1.07657 0.92301 0.82022
 C369 C 1.06030 0.86342 0.93943
 H370 H 1.05449 0.88039 0.94526
 C371 C 1.07611 0.81995 0.92362
 C372 C 0.93973 1.13654 0.93968
 H373 H 0.94567 1.11965 0.94561
 C374 C 0.92362 1.17981 0.92362
 C375 C 0.86365 1.06115 0.93938
 H376 H 0.88047 1.05512 0.94541
 C377 C 0.82057 1.07746 0.92301
 C378 C 1.13642 0.93894 0.93915
 H379 H 1.11955 0.94493 0.94507
 C380 C 1.17966 0.92269 0.92315
 O381 O 1.02263 0.91571 1.11605
 O382 O 1.02253 0.88856 1.14320
 C383 C 1.03054 0.90749 1.13500
 C384 C 1.04962 0.91978 1.14724
 C385 C 1.05757 0.91193 1.16899
 H386 H 1.04898 0.89737 1.17736
 O387 O 0.97795 1.08404 1.11634
 O388 O 0.97803 1.11119 1.14350
 C389 C 0.97004 1.09226 1.13529
 C390 C 0.95096 1.07997 1.14754
 C391 C 0.94297 1.08789 1.16924
 H392 H 0.95156 1.10246 1.17759
 O393 O 0.88447 1.02308 1.08465
 O394 O 0.85730 1.02316 1.11177
 C395 C 0.86553 1.03106 1.09281
 C396 C 0.85332 1.05008 1.08040
 C397 C 0.83162 1.05814 1.08824
 H398 H 0.82327 1.04968 1.10288
 O399 O 1.11605 0.97679 1.08440
 O400 O 1.14329 0.97662 1.11146
 C401 C 1.13500 0.96878 1.09250
 C402 C 1.14716 0.94979 1.07998
 C403 C 1.16893 0.94169 1.08766
 H404 H 1.17713 0.94969 1.10264
 O405 O 1.08400 0.88385 1.02282
 O406 O 1.11100 0.85657 1.02279
 C407 C 1.09211 0.86487 1.03076
 C408 C 1.07972 0.85271 1.04985
 C409 C 1.08761 0.83106 1.05808
 H410 H 1.10266 0.82296 1.05010
 O411 O 0.91633 1.11575 1.02301
 O412 O 0.88937 1.14309 1.02311
 C413 C 0.90829 1.13474 1.03100
 C414 C 0.92076 1.14689 1.05005
 C415 C 0.91298 1.16862 1.05808
 H416 H 0.89840 1.17703 1.04958
 O417 O 0.91621 0.97755 1.11649
 O418 O 0.88919 0.97757 1.14376
 C419 C 0.90806 0.96958 1.13544
 C420 C 0.92039 0.95042 1.14753
 C421 C 0.91257 0.94225 1.16924
 H422 H 0.89765 0.95035 1.17744
 O423 O 1.08430 1.02227 1.11630
 O424 O 1.11139 1.02216 1.14352
 C425 C 1.09250 1.03019 1.13526
 C426 C 1.08026 1.04936 1.14742
 C427 C 1.08819 1.05742 1.16910
 H428 H 1.10273 1.04883 1.17749
 O429 O 0.97711 0.88407 1.08408
 O430 O 0.97698 0.85675 1.11106
 C431 C 0.96908 0.86511 1.09215
 C432 C 0.94999 0.85303 1.07969
 C433 C 0.94194 0.83123 1.08730
 H434 H 0.95005 0.82294 1.10217
 O435 O 1.02338 1.11578 1.08435
 O436 O 1.02350 1.14308 1.11136
 C437 C 1.03139 1.13474 1.09245
 C438 C 1.05046 1.14685 1.08000
 C439 C 1.05859 1.16860 1.08772
 H440 H 1.05052 1.17681 1.10266
 O441 O 0.88382 0.91661 1.02294
 O442 O 0.85651 0.88963 1.02295
 C443 C 0.86486 0.90850 1.03093
 C444 C 0.85279 0.92088 1.05008
 C445 C 0.83107 0.91312 1.05822
 H446 H 0.82284 0.89820 1.05012
 O447 O 1.11657 1.08345 1.02298
 O448 O 1.14387 1.11046 1.02302
 C449 C 1.13554 1.09156 1.03097
 C450 C 1.14765 1.07914 1.05007
 C451 C 1.16935 1.08693 1.05828
 H452 H 1.17754 1.10189 1.05024
 O453 O 1.02335 1.08397 1.11631
 O454 O 1.02349 1.11111 1.14347
 C455 C 1.03136 1.09213 1.13525
 C456 C 1.05037 1.07967 1.14745
 C457 C 1.05858 1.08750 1.16913
 H458 H 1.05064 1.10256 1.17724
 O459 O 0.97723 0.91590 1.11604
 O460 O 0.97710 0.88872 1.14316
 C461 C 0.96926 0.90772 1.13498
 C462 C 0.95030 0.92016 1.14726
 C463 C 0.94229 0.91229 1.16897
 H464 H 0.95076 0.89763 1.17729
 O465 O 1.11614 1.02218 1.08441
 O466 O 1.14337 1.02206 1.11149
 C467 C 1.13513 1.03005 1.09256
 C468 C 1.14740 1.04907 1.08020
 C469 C 1.16911 1.05707 1.08811
 H470 H 1.17742 1.04854 1.10274
 O471 O 0.88435 0.97770 1.08460
 O472 O 0.85718 0.97772 1.11172
 C473 C 0.86538 0.96981 1.09275
 C474 C 0.85308 0.95083 1.08033
 C475 C 0.83135 0.94286 1.08818
 H476 H 0.82304 0.95135 1.10283
 O477 O 1.08474 1.11539 1.02297
 O478 O 1.11190 1.14253 1.02299
 C479 C 1.09294 1.13434 1.03091
 C480 C 1.08058 1.14661 1.04993
 C481 C 1.08842 1.16837 1.05787
 H482 H 1.10301 1.17671 1.04932
 O483 O 0.91562 0.88465 1.02280
 O484 O 0.88844 0.85753 1.02280
 C485 C 0.90743 0.86569 1.03070
 C486 C 0.91983 0.85336 1.04966
 C487 C 0.91206 0.83154 1.05748
 H488 H 0.89748 0.82321 1.04889
 O489 O 1.08416 0.97683 1.11629
 O490 O 1.11124 0.97666 1.14351
 C491 C 1.09229 0.96881 1.13523
 C492 C 1.07981 0.94979 1.14739
 C493 C 1.08754 0.94166 1.16913
 H494 H 1.10252 0.94968 1.17731
 O495 O 0.91635 1.02299 1.11656
 O496 O 0.88933 1.02308 1.14382
 C497 C 0.90826 1.03097 1.13553
 C498 C 0.92074 1.04999 1.14769
 C499 C 0.91297 1.05820 1.16939
 H500 H 0.89796 1.05022 1.17756
 O501 O 0.97795 1.11582 1.08437
 O502 O 0.97801 1.14311 1.11137
 C503 C 0.97002 1.13480 1.09248
 C504 C 0.95094 1.14697 1.08008
 C505 C 0.94286 1.16870 1.08790
 H506 H 0.95096 1.17685 1.10285
 O507 O 1.02254 0.88394 1.08406
 O508 O 1.02246 0.85666 1.11109
 C509 C 1.03045 0.86495 1.09219
 C510 C 1.04955 0.85277 1.07987
 C511 C 1.05766 0.83112 1.08781
 H512 H 1.04914 0.82276 1.10242
 O513 O 1.11583 0.91578 1.02273
 O514 O 1.14297 0.88862 1.02268
 C515 C 1.13477 0.90757 1.03064
 C516 C 1.14702 0.91988 1.04970
 C517 C 1.16879 0.91205 1.05759
 H518 H 1.17717 0.89754 1.04894
 O519 O 0.88420 1.08412 1.02300
 O520 O 0.85711 1.11131 1.02309
 C521 C 0.86531 1.09235 1.03101
 C522 C 0.85316 1.08002 1.05014
 C523 C 0.83146 1.08787 1.05827
 H524 H 0.82330 1.10281 1.05016
 Cu525 Cu 0.99988 0.90262 1.09734
 Cu526 Cu 0.99975 0.86993 1.12984
 Cu527 Cu 1.00066 1.09719 1.09763
 Cu528 Cu 1.00077 1.12986 1.13015
 Cu529 Cu 0.90240 0.90339 1.00016
 Cu530 Cu 0.86970 0.87091 1.00014
 Cu531 Cu 1.09714 0.90255 1.00006
 Cu532 Cu 1.12964 0.86987 0.99999
 Cu533 Cu 0.90290 1.09726 1.00027
 Cu534 Cu 0.87048 1.13000 1.00037
 Cu535 Cu 1.09793 1.09670 1.00026
 Cu536 Cu 1.13060 1.12921 1.00027
 Cu537 Cu 0.90307 1.00033 1.09787
 Cu538 Cu 0.87053 1.00039 1.13051
 Cu539 Cu 1.09744 0.99952 1.09764
 Cu540 Cu 1.13004 0.99936 1.13023
 C541 C 1.06071 0.93886 1.13671
 H542 H 1.05486 0.94481 1.11979
 C543 C 1.07653 0.92273 1.18007
 C544 C 0.93988 1.06087 1.13702
 H545 H 0.94575 1.05488 1.12013
 C546 C 0.92397 1.07715 1.18030
 C547 C 0.86383 1.06099 1.06119
 H548 H 0.88071 1.05507 1.05525
 C549 C 0.82056 1.07704 1.07732
 C550 C 1.13647 0.93890 1.06086
 H551 H 1.11953 0.94482 1.05506
 C552 C 1.17987 0.92281 1.07657
 C553 C 1.06055 0.86330 1.06073
 H554 H 1.05459 0.88015 1.05472
 C555 C 1.07670 0.82014 1.07707
 C556 C 0.93989 1.13631 1.06102
 H557 H 0.94578 1.11940 1.05511
 C558 C 0.92388 1.17965 1.07702
 C559 C 0.93939 0.93937 1.13680
 H560 H 0.94528 0.94534 1.11991
 C561 C 0.92341 0.92318 1.18009
 C562 C 1.06120 1.06045 1.13686
 H563 H 1.05519 1.05453 1.11999
 C564 C 1.07750 1.07649 1.18008
 C565 C 0.93895 0.86384 1.06073
 H566 H 0.94485 0.88081 1.05498
 C567 C 0.92297 0.82034 1.07630
 C568 C 1.06145 1.13612 1.06096
 H569 H 1.05550 1.11920 1.05513
 C570 C 1.07756 1.17949 1.07677
 C571 C 0.86354 0.93988 1.06113
 H572 H 0.88044 0.94574 1.05517
 C573 C 0.82021 0.92399 1.07727
 C574 C 1.13694 1.06008 1.06103
 H575 H 1.12005 1.05419 1.05504
 C576 C 1.18020 1.07601 1.07730
 O577 O 1.08415 0.52225 0.61565
 O578 O 1.11119 0.52221 0.64292
 C579 C 1.09228 0.53017 0.63464
 C580 C 1.07988 0.54921 0.64685
 C581 C 1.08759 0.55708 0.66868
 H582 H 1.10209 0.54847 0.67712
 O583 O 0.91614 0.47699 0.61590
 O584 O 0.88908 0.47699 0.64314
 C585 C 0.90799 0.46903 0.63486
 C586 C 0.92030 0.44991 0.64702
 C587 C 0.91242 0.44184 0.66871
 H588 H 0.89787 0.45039 0.67711
 O589 O 1.02296 0.61572 0.58389
 O590 O 1.02304 0.64289 0.61102
 C591 C 1.03095 0.63465 0.59207
 C592 C 1.05005 0.64681 0.57972
 C593 C 1.05814 0.66851 0.58756
 H594 H 1.04963 0.67693 0.60214
 O595 O 0.97715 0.38370 0.58382
 O596 O 0.97715 0.35641 0.61082
 C597 C 0.96919 0.36473 0.59193
 C598 C 0.95009 0.35261 0.57952
 C599 C 0.94187 0.33094 0.58736
 H600 H 0.94988 0.32280 0.60237
 O601 O 1.11615 0.58368 0.52259
 O602 O 1.14342 0.61071 0.52261
 C603 C 1.13513 0.59180 0.53055
 C604 C 1.14729 0.57942 0.54964
 C605 C 1.16895 0.58731 0.55777
 H606 H 1.17732 0.60192 0.54928
 O607 O 0.88408 0.41593 0.52244
 O608 O 0.85682 0.38889 0.52242
 C609 C 0.86512 0.40779 0.53040
 C610 C 0.85298 0.42013 0.54953
 C611 C 0.83127 0.41230 0.55758
 H612 H 0.82284 0.39776 0.54903
 O613 O 0.97753 0.58380 0.61573
 O614 O 0.97755 0.61086 0.64298
 C615 C 0.96960 0.59194 0.63471
 C616 C 0.95056 0.57955 0.64693
 C617 C 0.94259 0.58738 0.66868
 H618 H 0.95113 0.60195 0.67706
 O619 O 1.02264 0.41551 0.61567
 O620 O 1.02271 0.38838 0.64284
 C621 C 1.03063 0.40733 0.63460
 C622 C 1.04970 0.41971 0.64678
 C623 C 1.05778 0.41189 0.66851
 H624 H 1.04968 0.39692 0.67664
 O625 O 1.11610 0.47689 0.58380
 O626 O 1.14329 0.47678 0.61091
 C627 C 1.13504 0.46890 0.59195
 C628 C 1.14720 0.44986 0.57950
 C629 C 1.16887 0.44164 0.58733
 H630 H 1.17700 0.44961 0.60237
 O631 O 0.88427 0.52245 0.58406
 O632 O 0.85708 0.52247 0.61117
 C633 C 0.86532 0.53040 0.59222
 C634 C 0.85310 0.54945 0.57985
 C635 C 0.83135 0.55742 0.58767
 H636 H 0.82297 0.54887 0.60224
 O637 O 0.91603 0.61565 0.52272
 O638 O 0.88896 0.64288 0.52280
 C639 C 0.90791 0.63461 0.53069
 C640 C 0.92035 0.64681 0.54971
 C641 C 0.91260 0.66857 0.55768
 H642 H 0.89803 0.67697 0.54915
 O643 O 1.08390 0.38401 0.52227
 O644 O 1.11095 0.35677 0.52220
 C645 C 1.09204 0.36503 0.53018
 C646 C 1.07969 0.35279 0.54924
 C647 C 1.08756 0.33106 0.55723
 H648 H 1.10215 0.32271 0.54868
 O649 O 0.91615 0.52243 0.61594
 O650 O 0.88911 0.52247 0.64319
 C651 C 0.90803 0.53040 0.63491
 C652 C 0.92047 0.54945 0.64707
 C653 C 0.91271 0.55756 0.66881
 H654 H 0.89775 0.54950 0.67698
 O655 O 1.08415 0.47683 0.61562
 O656 O 1.11120 0.47674 0.64288
 C657 C 1.09227 0.46884 0.63458
 C658 C 1.07985 0.44978 0.64675
 C659 C 1.08763 0.44173 0.66849
 H660 H 1.10220 0.45024 0.67691
 O661 O 1.02257 0.38368 0.58376
 O662 O 1.02266 0.35639 0.61076
 C663 C 1.03056 0.36471 0.59185
 C664 C 1.04963 0.35259 0.57938
 C665 C 1.05779 0.33088 0.58715
 H666 H 1.04977 0.32270 0.60213
 O667 O 0.97753 0.61578 0.58395
 O668 O 0.97755 0.64298 0.61105
 C669 C 0.96959 0.63473 0.59212
 C670 C 0.95052 0.64692 0.57974
 C671 C 0.94248 0.66868 0.58750
 H672 H 0.95060 0.67685 0.60244
 O673 O 0.88408 0.58383 0.52272
 O674 O 0.85687 0.61091 0.52281
 C675 C 0.86513 0.59197 0.53071
 C676 C 0.85297 0.57955 0.54976
 C677 C 0.83123 0.58731 0.55786
 H678 H 0.82306 0.60227 0.54979
 O679 O 1.11589 0.41581 0.52226
 O680 O 1.14305 0.38868 0.52219
 C681 C 1.13484 0.40760 0.53018
 C682 C 1.14707 0.41989 0.54928
 C683 C 1.16875 0.41195 0.55732
 H684 H 1.17709 0.39736 0.54876
 O685 O 0.97723 0.41545 0.61584
 O686 O 0.97723 0.38832 0.64300
 C687 C 0.96930 0.40727 0.63479
 C688 C 0.95028 0.41969 0.64703
 C689 C 0.94211 0.41183 0.66871
 H690 H 0.95010 0.39680 0.67682
 O691 O 1.02293 0.58380 0.61573
 O692 O 1.02300 0.61082 0.64301
 C693 C 1.03089 0.59189 0.63472
 C694 C 1.04987 0.57939 0.64691
 C695 C 1.05786 0.58704 0.66873
 H696 H 1.04979 0.60199 0.67692
 O697 O 0.88422 0.47705 0.58406
 O698 O 0.85702 0.47703 0.61115
 C699 C 0.86526 0.46911 0.59220
 C700 C 0.85303 0.45010 0.57976
 C701 C 0.83133 0.44199 0.58759
 H702 H 0.82324 0.45000 0.60263
 O703 O 1.11616 0.52230 0.58391
 O704 O 1.14335 0.52227 0.61103
 C705 C 1.13511 0.53024 0.59210
 C706 C 1.14731 0.54933 0.57975
 C707 C 1.16897 0.55752 0.58767
 H708 H 1.17706 0.54949 0.60270
 O709 O 0.91586 0.38395 0.52238
 O710 O 0.88873 0.35678 0.52237
 C711 C 0.90767 0.36500 0.53032
 C712 C 0.92000 0.35277 0.54940
 C713 C 0.91207 0.33110 0.55746
 H714 H 0.89745 0.32276 0.54895
 O715 O 1.08435 0.61563 0.52266
 O716 O 1.11149 0.64280 0.52267
 C717 C 1.09255 0.63457 0.53061
 C718 C 1.08018 0.64679 0.54966
 C719 C 1.08805 0.66848 0.55778
 H720 H 1.10307 0.67657 0.54974
 Cu721 Cu 1.09744 0.49957 0.59702
 Cu722 Cu 1.12998 0.49949 0.62967
 Cu723 Cu 0.90291 0.49973 0.59728
 Cu724 Cu 0.87035 0.49974 0.62990
 Cu725 Cu 1.00023 0.59707 0.59710
 Cu726 Cu 1.00029 0.62962 0.62975
 Cu727 Cu 0.99989 0.40230 0.59707
 Cu728 Cu 0.99994 0.36964 0.62958
 C729 C 1.06087 0.56033 0.63622
 H730 H 1.05503 0.55454 0.61925
 C731 C 1.07672 0.57600 0.67975
 C732 C 0.93938 0.43886 0.63644
 H733 H 0.94535 0.44480 0.61956
 C734 C 0.92317 0.42279 0.67968
 C735 C 1.06104 0.63622 0.56062
 H736 H 1.05509 0.61934 0.55468
 C737 C 1.07715 0.67948 0.57673
 C738 C 0.93916 0.36326 0.56040
 H739 H 0.94517 0.38012 0.55447
 C740 C 0.92286 0.32006 0.57645
 C741 C 1.13673 0.56027 0.56060
 H742 H 1.11988 0.55429 0.55461
 C743 C 1.17991 0.57652 0.57680
 C744 C 0.86360 0.43918 0.56059
 H745 H 0.88049 0.44511 0.55467
 C746 C 0.82031 0.42309 0.57662
 C747 C 0.93954 0.56044 0.63639
 H748 H 0.94540 0.55451 0.61947
 C749 C 0.92365 0.57653 0.67974
 C750 C 1.06073 0.43879 0.63615
 H751 H 1.05483 0.44470 0.61924
 C752 C 1.07673 0.42279 0.67950
 C753 C 1.13657 0.43899 0.56034
 H754 H 1.11970 0.44500 0.55442
 C755 C 1.17978 0.42268 0.57636
 C756 C 0.86364 0.56048 0.56075
 H757 H 0.88056 0.55462 0.55482
 C758 C 0.82029 0.57635 0.57681
 C759 C 0.93946 0.63624 0.56070
 H760 H 0.94534 0.61931 0.55483
 C761 C 0.92352 0.67963 0.57659
 C762 C 1.06057 0.36329 0.56029
 H763 H 1.05460 0.38019 0.55442
 C764 C 1.07676 0.31998 0.57619
 O765 O 1.08390 0.47723 0.38341
 O766 O 1.11096 0.47723 0.35617
 C767 C 1.09203 0.46928 0.36444
 C768 C 1.07962 0.45022 0.35226
 C769 C 1.08745 0.44207 0.33056
 H770 H 1.10244 0.45012 0.32242
 O771 O 0.91608 0.52274 0.38391
 O772 O 0.88903 0.52285 0.35666
 C773 C 0.90797 0.53073 0.36495
 C774 C 0.92044 0.54974 0.35279
 C775 C 0.91281 0.55774 0.33097
 H776 H 0.89790 0.54964 0.32274
 O777 O 0.97741 0.61597 0.41601
 O778 O 0.97736 0.64324 0.38899
 C779 C 0.96942 0.63493 0.40789
 C780 C 0.95033 0.64706 0.42029
 C781 C 0.94219 0.66877 0.41248
 H782 H 0.95025 0.67693 0.39752
 O783 O 1.02252 0.38393 0.41538
 O784 O 1.02252 0.35670 0.38831
 C785 C 1.03047 0.36497 0.40724
 C786 C 1.04952 0.35279 0.41966
 C787 C 1.05766 0.33109 0.41184
 H788 H 1.04963 0.32295 0.39684
 O789 O 1.11577 0.41590 0.47680
 O790 O 1.14294 0.38878 0.47672
 C791 C 1.13470 0.40772 0.46880
 C792 C 1.14687 0.42006 0.44969
 C793 C 1.16858 0.41221 0.44165
 H794 H 1.17698 0.39765 0.45020
 O795 O 0.88402 0.58391 0.47728
 O796 O 0.85681 0.61099 0.47732
 C797 C 0.86507 0.59208 0.46934
 C798 C 0.85290 0.57972 0.45024
 C799 C 0.83120 0.58756 0.44211
 H800 H 0.82304 0.60252 0.45020
 O801 O 1.02288 0.58418 0.38406
 O802 O 1.02285 0.61134 0.35692
 C803 C 1.03080 0.59240 0.36511
 C804 C 1.04984 0.58007 0.35283
 C805 C 1.05790 0.58807 0.33118
 H806 H 1.04941 0.60274 0.32291
 O807 O 0.97716 0.41584 0.38353
 O808 O 0.97706 0.38878 0.35628
 C809 C 0.96917 0.40772 0.36457
 C810 C 0.95016 0.42019 0.35241
 C811 C 0.94203 0.41247 0.33066
 H812 H 0.95005 0.39749 0.32247
 O813 O 1.11585 0.52252 0.41542
 O814 O 1.14308 0.52258 0.38835
 C815 C 1.13482 0.53047 0.40731
 C816 C 1.14705 0.54944 0.41981
 C817 C 1.16880 0.55750 0.41205
 H818 H 1.17693 0.54948 0.39703
 O819 O 0.88418 0.47731 0.41572
 O820 O 0.85697 0.47738 0.38863
 C821 C 0.86522 0.46940 0.40755
 C822 C 0.85299 0.45034 0.41989
 C823 C 0.83129 0.44233 0.41200
 H824 H 0.82293 0.45088 0.39741
 O825 O 1.08435 0.61576 0.47725
 O826 O 1.11149 0.64291 0.47722
 C827 C 1.09252 0.63472 0.46932
 C828 C 1.08008 0.64698 0.45034
 C829 C 1.08790 0.66871 0.44226
 H830 H 1.10292 0.67681 0.45028
 O831 O 0.91589 0.38406 0.47694
 O832 O 0.88876 0.35689 0.47690
 C833 C 0.90771 0.36513 0.46896
 C834 C 0.92004 0.35293 0.44987
 C835 C 0.91218 0.33122 0.44185
 H836 H 0.89762 0.32283 0.45041
 O837 O 0.91601 0.47732 0.38380
 O838 O 0.88893 0.47741 0.35657
 C839 C 0.90784 0.46943 0.36482
 C840 C 0.92017 0.45038 0.35256
 C841 C 0.91232 0.44245 0.33080
 H842 H 0.89778 0.45105 0.32243
 O843 O 1.08404 0.52268 0.38348
 O844 O 1.11110 0.52276 0.35625
 C845 C 1.09220 0.53071 0.36456
 C846 C 1.07986 0.54990 0.35250
 C847 C 1.08771 0.55819 0.33086
 H848 H 1.10267 0.55016 0.32266
 O849 O 0.97711 0.38396 0.41541
 O850 O 0.97704 0.35674 0.38833
 C851 C 0.96912 0.36501 0.40727
 C852 C 0.95007 0.35285 0.41970
 C853 C 0.94192 0.33113 0.41190
 H854 H 0.94994 0.32299 0.39689
 O855 O 1.02285 0.61591 0.41611
 O856 O 1.02282 0.64320 0.38910
 C857 C 1.03078 0.63489 0.40800
 C858 C 1.04987 0.64704 0.42036
 C859 C 1.05789 0.66877 0.41256
 H860 H 1.04933 0.67721 0.39803
 O861 O 0.88397 0.41590 0.47699
 O862 O 0.85671 0.38887 0.47694
 C863 C 0.86500 0.40779 0.46902
 C864 C 0.85285 0.42022 0.44996
 C865 C 0.83114 0.41242 0.44179
 H866 H 0.82298 0.39744 0.44981
 O867 O 1.11600 0.58365 0.47715
 O868 O 1.14328 0.61066 0.47712
 C869 C 1.13496 0.59176 0.46917
 C870 C 1.14709 0.57940 0.45006
 C871 C 1.16884 0.58717 0.44208
 H872 H 1.17728 0.60168 0.45067
 O873 O 1.02255 0.41585 0.38355
 O874 O 1.02253 0.38878 0.35632
 C875 C 1.03049 0.40770 0.36458
 C876 C 1.04954 0.42009 0.35237
 C877 C 1.05759 0.41223 0.33065
 H878 H 1.04908 0.39763 0.32228
 O879 O 0.97749 0.58404 0.38416
 O880 O 0.97743 0.61118 0.35700
 C881 C 0.96954 0.59221 0.36521
 C882 C 0.95055 0.57981 0.35295
 C883 C 0.94271 0.58753 0.33113
 H884 H 0.95132 0.60205 0.32272
 O885 O 0.88418 0.52272 0.41579
 O886 O 0.85699 0.52283 0.38867
 C887 C 0.86524 0.53070 0.40764
 C888 C 0.85303 0.54972 0.42006
 C889 C 0.83132 0.55776 0.41221
 H890 H 0.82296 0.54927 0.39759
 O891 O 1.11581 0.47713 0.41526
 O892 O 1.14303 0.47711 0.38818
 C893 C 1.13475 0.46916 0.40711
 C894 C 1.14692 0.45009 0.41952
 C895 C 1.16862 0.44196 0.41169
 H896 H 1.17674 0.44998 0.39668
 O897 O 1.08384 0.38405 0.47683
 O898 O 1.11089 0.35681 0.47675
 C899 C 1.09196 0.36509 0.46885
 C900 C 1.07957 0.35290 0.44979
 C901 C 1.08743 0.33119 0.44176
 H902 H 1.10201 0.32282 0.45030
 O903 O 0.91597 0.61571 0.47731
 O904 O 0.88890 0.64294 0.47734
 C905 C 0.90782 0.63468 0.46939
 C906 C 0.92020 0.64691 0.45035
 C907 C 0.91234 0.66862 0.44232
 H908 H 0.89774 0.67698 0.45084
 Cu909 Cu 1.09718 0.49989 0.40209
 Cu910 Cu 1.12976 0.49992 0.36950
 Cu911 Cu 0.90283 0.50002 0.40252
 Cu912 Cu 0.87025 0.50013 0.36990
 Cu913 Cu 1.09749 0.59698 0.49991
 Cu914 Cu 1.13017 0.62948 0.49990
 Cu915 Cu 1.09714 0.40267 0.49955
 Cu916 Cu 1.12968 0.37003 0.49946
 Cu917 Cu 0.90272 0.59705 0.50000
 Cu918 Cu 0.87016 0.62966 0.50008
 Cu919 Cu 0.90267 0.40267 0.49969
 Cu920 Cu 0.87002 0.37013 0.49965
 Cu921 Cu 1.00016 0.59731 0.40280
 Cu922 Cu 1.00011 0.62998 0.37028
 Cu923 Cu 0.99984 0.40260 0.40218
 Cu924 Cu 0.99979 0.37002 0.36958
 C925 C 1.06053 0.43923 0.36290
 H926 H 1.05462 0.44519 0.37980
 C927 C 1.07655 0.42308 0.31962
 C928 C 0.93946 0.56076 0.36352
 H929 H 0.94523 0.55491 0.38050
 C930 C 0.92384 0.57663 0.32000
 C931 C 0.93935 0.63639 0.43936
 H932 H 0.94530 0.61950 0.44526
 C933 C 0.92320 0.67968 0.42338
 C934 C 1.06046 0.36344 0.43878
 H935 H 1.05452 0.38033 0.44468
 C936 C 1.07663 0.32017 0.42277
 C937 C 1.13631 0.43915 0.43865
 H938 H 1.11942 0.44511 0.44457
 C939 C 1.17959 0.42302 0.42264
 C940 C 0.86355 0.56066 0.43922
 H941 H 0.88044 0.55475 0.44516
 C942 C 0.82028 0.57669 0.42309
 C943 C 1.06079 0.56084 0.36323
 H944 H 1.05486 0.55478 0.38007
 C945 C 1.07685 0.57728 0.32006
 C946 C 0.93923 0.43929 0.36310
 H947 H 0.94517 0.44512 0.38003
 C948 C 0.92312 0.42349 0.31972
 C949 C 1.13645 0.56037 0.43896
 H950 H 1.11952 0.55448 0.44483
 C951 C 1.17982 0.57638 0.42306
 C952 C 0.86351 0.43932 0.43902
 H953 H 0.88040 0.44521 0.44499
 C954 C 0.82023 0.42337 0.42281
 C955 C 1.06093 0.63641 0.43940
 H956 H 1.05503 0.61950 0.44530
 C957 C 1.07692 0.67973 0.42336
 C958 C 0.93914 0.36349 0.43882
 H959 H 0.94509 0.38038 0.44472
 C960 C 0.92298 0.32018 0.42286
 O961 O 0.47696 0.91651 0.38410
 O962 O 0.47677 0.88941 0.35690
 C963 C 0.46895 0.90839 0.36515
 C964 C 0.44997 0.92084 0.35293
 C965 C 0.44195 0.91300 0.33122
 H966 H 0.45043 0.89837 0.32287
 O967 O 0.52284 1.08463 0.38395
 O968 O 0.52292 1.11181 0.35683
 C969 C 0.53079 1.09282 0.36500
 C970 C 0.54978 1.08041 0.35272
 C971 C 0.55784 1.08833 0.33104
 H972 H 0.54938 1.10300 0.32274
 O973 O 0.38415 0.97824 0.41589
 O974 O 0.35691 0.97828 0.38883
 C975 C 0.36516 0.97034 0.40776
 C976 C 0.35290 0.95135 0.42018
 C977 C 0.33114 0.94341 0.41236
 H978 H 0.32279 0.95197 0.39777
 O979 O 0.61583 1.02279 0.41530
 O980 O 0.64299 1.02272 0.38816
 C981 C 0.63482 1.03065 0.40714
 C982 C 0.64716 1.04959 0.41956
 C983 C 0.66889 1.05755 0.41169
 H984 H 0.67718 1.04906 0.39703
 O985 O 0.41552 0.88480 0.47729
 O986 O 0.38831 0.85771 0.47724
 C987 C 0.40728 0.86588 0.46932
 C988 C 0.41963 0.85363 0.45027
 C989 C 0.41180 0.83188 0.44231
 H990 H 0.39723 0.82351 0.45086
 O991 O 0.58468 1.11577 0.47707
 O992 O 0.61185 1.14290 0.47703
 C993 C 0.59287 1.13472 0.46914
 C994 C 0.58046 1.14704 0.45017
 C995 C 0.58833 1.16877 0.44221
 H996 H 0.60298 1.17707 0.45071
 O997 O 0.41605 1.02357 0.38389
 O998 O 0.38895 1.02364 0.35668
 C999 C 0.40790 1.03155 0.36494
 C1000 C 0.42032 1.05059 0.35276
 C1001 C 0.41252 1.05871 0.33104
 H1002 H 0.39754 1.05065 0.32290
 O1003 O 0.58370 0.97755 0.38341
 O1004 O 0.61071 0.97742 0.35613
 C1005 C 0.59179 0.96954 0.36445
 C1006 C 0.57932 0.95047 0.35234
 C1007 C 0.58709 0.94226 0.33064
 H1008 H 0.60205 0.95028 0.32244
 O1009 O 0.52227 0.88440 0.41586
 O1010 O 0.52212 0.85718 0.38877
 C1011 C 0.53013 0.86541 0.40769
 C1012 C 0.54917 0.85316 0.42001
 C1013 C 0.55713 0.83143 0.41214
 H1014 H 0.54854 0.82306 0.39758
 O1015 O 0.47758 1.11661 0.41597
 O1016 O 0.47759 1.14392 0.38898
 C1017 C 0.46965 1.13562 0.40789
 C1018 C 0.45062 1.14780 0.42034
 C1019 C 0.44245 1.16950 0.41252
 H1020 H 0.45046 1.17764 0.39752
 O1021 O 0.38418 1.08487 0.47735
 O1022 O 0.35703 1.11201 0.47740
 C1023 C 0.36525 1.09309 0.46940
 C1024 C 0.35307 1.08078 0.45025
 C1025 C 0.33142 1.08870 0.44205
 H1026 H 0.32330 1.10369 0.45010
 O1027 O 0.61550 0.91620 0.47686
 O1028 O 0.64267 0.88907 0.47681
 C1029 C 0.63442 0.90801 0.46887
 C1030 C 0.64659 0.92033 0.44975
 C1031 C 0.66831 0.91249 0.44174
 H1032 H 0.67671 0.89794 0.45032
 O1033 O 0.47745 1.08479 0.38402
 O1034 O 0.47747 1.11195 0.35688
 C1035 C 0.46950 1.09301 0.36508
 C1036 C 0.45042 1.08068 0.35286
 C1037 C 0.44241 1.08852 0.33113
 H1038 H 0.45095 1.10310 0.32275
 O1039 O 0.52234 0.91623 0.38390
 O1040 O 0.52218 0.88913 0.35670
 C1041 C 0.53020 0.90804 0.36492
 C1042 C 0.54924 0.92036 0.35262
 C1043 C 0.55721 0.91244 0.33091
 H1044 H 0.54867 0.89782 0.32260
 O1045 O 0.61559 0.97741 0.41527
 O1046 O 0.64277 0.97727 0.38814
 C1047 C 0.63450 0.96938 0.40710
 C1048 C 0.64665 0.95032 0.41954
 C1049 C 0.66837 0.94219 0.41175
 H1050 H 0.67651 0.95021 0.39675
 O1051 O 0.38425 1.02365 0.41585
 O1052 O 0.35702 1.02373 0.38878
 C1053 C 0.36531 1.03164 0.40771
 C1054 C 0.35316 1.05073 0.42009
 C1055 C 0.33150 1.05885 0.41219
 H1056 H 0.32314 1.05037 0.39757
 O1057 O 0.41629 1.11651 0.47745
 O1058 O 0.38929 1.14380 0.47752
 C1059 C 0.40819 1.13550 0.46955
 C1060 C 0.42057 1.14770 0.45049
 C1061 C 0.41270 1.16940 0.44246
 H1062 H 0.39811 1.17776 0.45099
 O1063 O 0.58373 0.88420 0.47697
 O1064 O 0.61076 0.85695 0.47691
 C1065 C 0.59183 0.86522 0.46901
 C1066 C 0.57936 0.85304 0.45000
 C1067 C 0.58711 0.83131 0.44186
 H1068 H 0.60210 0.82314 0.44988
 O1069 O 0.58390 1.02301 0.38347
 O1070 O 0.61090 1.02294 0.35618
 C1071 C 0.59204 1.03097 0.36452
 C1072 C 0.57973 1.05016 0.35244
 C1073 C 0.58758 1.05838 0.33077
 H1074 H 0.60252 1.05031 0.32258
 O1075 O 0.41588 0.97814 0.38386
 O1076 O 0.38878 0.97816 0.35665
 C1077 C 0.40769 0.97018 0.36491
 C1078 C 0.42002 0.95106 0.35275
 C1079 C 0.41219 0.94292 0.33104
 H1080 H 0.39726 0.95102 0.32284
 O1081 O 0.52302 1.11641 0.41594
 O1082 O 0.52309 1.14373 0.38896
 C1083 C 0.53105 1.13535 0.40783
 C1084 C 0.55021 1.14739 0.42022
 C1085 C 0.55838 1.16910 0.41247
 H1086 H 0.55028 1.17734 0.39756
 O1087 O 0.47684 0.88452 0.41588
 O1088 O 0.47667 0.85729 0.38881
 C1089 C 0.46880 0.86559 0.40774
 C1090 C 0.44973 0.85347 0.42018
 C1091 C 0.44163 0.83172 0.41244
 H1092 H 0.44970 0.82353 0.39749
 O1093 O 0.61648 1.08380 0.47697
 O1094 O 0.64378 1.11079 0.47693
 C1095 C 0.63544 1.09191 0.46897
 C1096 C 0.64750 1.07953 0.44982
 C1097 C 0.66922 1.08728 0.44167
 H1098 H 0.67746 1.10218 0.44977
 O1099 O 0.38380 0.91685 0.47733
 O1100 O 0.35646 0.88990 0.47728
 C1101 C 0.36481 0.90880 0.46936
 C1102 C 0.35269 0.92127 0.45030
 C1103 C 0.33093 0.91356 0.44220
 H1104 H 0.32272 0.89862 0.45026
 Cu1105 Cu 0.49962 0.90313 0.40266
 Cu1106 Cu 0.49941 0.87052 0.37007
 Cu1107 Cu 0.50021 1.09790 0.40268
 Cu1108 Cu 0.50027 1.13059 0.37020
 Cu1109 Cu 0.40281 1.00089 0.40257
 Cu1110 Cu 0.37018 1.00096 0.37001
 Cu1111 Cu 0.59704 1.00020 0.40206
 Cu1112 Cu 0.62956 1.00008 0.36941
 C1113 C 0.43905 0.94002 0.36344
 H1114 H 0.44496 0.94595 0.38034
 C1115 C 0.42304 0.92387 0.32016
 C1116 C 0.56069 1.06118 0.36315
 H1117 H 0.55477 1.05517 0.38002
 C1118 C 0.57675 1.07747 0.31994
 C1119 C 0.36342 0.94031 0.43930
 H1120 H 0.38035 0.94613 0.44522
 C1121 C 0.32003 0.92452 0.42322
 C1122 C 0.63673 1.06054 0.43877
 H1123 H 0.61982 1.05470 0.44474
 C1124 C 0.68006 1.07640 0.42261
 C1125 C 0.43874 0.86417 0.43923
 H1126 H 0.44468 0.88109 0.44508
 C1127 C 0.42268 0.82078 0.42339
 C1128 C 0.56124 1.13661 0.43921
 H1129 H 0.55527 1.11971 0.44506
 C1130 C 0.57743 1.17994 0.42335
 C1131 C 0.43941 1.06156 0.36341
 H1132 H 0.44530 1.05562 0.38031
 C1133 C 0.42346 1.07766 0.32008
 C1134 C 0.56026 0.93953 0.36307
 H1135 H 0.55440 0.94553 0.37997
 C1136 C 0.57615 0.92324 0.31979
 C1137 C 0.56025 0.86370 0.43909
 H1138 H 0.55440 0.88061 0.44504
 C1139 C 0.57610 0.82037 0.42293
 C1140 C 0.43968 1.13716 0.43947
 H1141 H 0.44564 1.12027 0.44537
 C1142 C 0.42348 1.18041 0.42346
 C1143 C 0.36368 1.06167 0.43927
 H1144 H 0.38053 1.05568 0.44526
 C1145 C 0.32051 1.07785 0.42300
 C1146 C 0.63602 0.93940 0.43867
 H1147 H 0.61912 0.94535 0.44456
 C1148 C 0.67933 0.92328 0.42274
 O1149 O 0.52255 0.91606 0.61582
 O1150 O 0.52257 0.88896 0.64301
 C1151 C 0.53053 0.90789 0.63476
 C1152 C 0.54960 0.92027 0.64694
 C1153 C 0.55763 0.91250 0.66870
 H1154 H 0.54952 0.89755 0.67686
 O1155 O 0.47789 1.08440 0.61594
 O1156 O 0.47802 1.11153 0.64311
 C1157 C 0.47000 1.09261 0.63489
 C1158 C 0.45090 1.08034 0.64712
 C1159 C 0.44287 1.08829 0.66881
 H1160 H 0.45143 1.10287 0.67715
 O1161 O 0.38445 1.02335 0.58421
 O1162 O 0.35728 1.02345 0.61134
 C1163 C 0.36552 1.03133 0.59238
 C1164 C 0.35330 1.05036 0.57997
 C1165 C 0.33155 1.05832 0.58775
 H1166 H 0.32316 1.04978 0.60233
 O1167 O 0.61599 0.97734 0.58395
 O1168 O 0.64325 0.97713 0.61099
 C1169 C 0.63493 0.96930 0.59203
 C1170 C 0.64706 0.95030 0.57950
 C1171 C 0.66885 0.94224 0.58714
 H1172 H 0.67707 0.95028 0.60209
 O1173 O 0.58366 0.88438 0.52239
 O1174 O 0.61070 0.85714 0.52236
 C1175 C 0.59179 0.86541 0.53032
 C1176 C 0.57943 0.85320 0.54939
 C1177 C 0.58724 0.83145 0.55734
 H1178 H 0.60179 0.82307 0.54877
 O1179 O 0.41620 1.11651 0.52287
 O1180 O 0.38920 1.14380 0.52301
 C1181 C 0.40812 1.13547 0.53090
 C1182 C 0.42060 1.14758 0.54997
 C1183 C 0.41279 1.16924 0.55824
 H1184 H 0.39774 1.17738 0.55031
 O1185 O 0.41625 0.97786 0.61608
 O1186 O 0.38922 0.97795 0.64334
 C1187 C 0.40810 0.96993 0.63504
 C1188 C 0.42038 0.95079 0.64720
 C1189 C 0.41250 0.94275 0.66890
 H1190 H 0.39798 0.95135 0.67731
 O1191 O 0.58442 1.02284 0.61599
 O1192 O 0.61152 1.02269 0.64320
 C1193 C 0.59264 1.03075 0.63495
 C1194 C 0.58037 1.04989 0.64713
 C1195 C 0.58835 1.05810 0.66876
 H1196 H 0.60335 1.05004 0.67684
 O1197 O 0.47698 0.88431 0.58402
 O1198 O 0.47693 0.85704 0.61104
 C1199 C 0.46897 0.86537 0.59214
 C1200 C 0.44984 0.85329 0.57974
 C1201 C 0.44164 0.83158 0.58751
 H1202 H 0.44968 0.82337 0.60246
 O1203 O 0.52334 1.11609 0.58391
 O1204 O 0.52352 1.14337 0.61093
 C1205 C 0.53139 1.13503 0.59200
 C1206 C 0.55046 1.14712 0.57954
 C1207 C 0.55860 1.16887 0.58725
 H1208 H 0.55055 1.17709 0.60219
 O1209 O 0.38379 0.91674 0.52279
 O1210 O 0.35645 0.88979 0.52278
 C1211 C 0.36482 0.90865 0.53077
 C1212 C 0.35274 0.92104 0.54990
 C1213 C 0.33105 0.91324 0.55809
 H1214 H 0.32286 0.89828 0.55003
 O1215 O 0.61657 1.08377 0.52244
 O1216 O 0.64385 1.11079 0.52245
 C1217 C 0.63554 1.09190 0.53041
 C1218 C 0.64765 1.07957 0.54957
 C1219 C 0.66929 1.08746 0.55777
 H1220 H 0.67772 1.10204 0.54927
 O1221 O 0.52331 1.08432 0.61593
 O1222 O 0.52348 1.11147 0.64308
 C1223 C 0.53134 1.09249 0.63486
 C1224 C 0.55039 1.08010 0.64705
 C1225 C 0.55858 1.08802 0.66870
 H1226 H 0.55015 1.10268 0.67705
 O1227 O 0.47716 0.91613 0.61597
 O1228 O 0.47710 0.88902 0.64315
 C1229 C 0.46922 0.90799 0.63494
 C1230 C 0.45025 0.92047 0.64718
 C1231 C 0.44209 0.91266 0.66888
 H1232 H 0.45004 0.89760 0.67698
 O1233 O 0.61623 1.02274 0.58405
 O1234 O 0.64346 1.02258 0.61111
 C1235 C 0.63523 1.03059 0.59219
 C1236 C 0.64751 1.04960 0.57980
 C1237 C 0.66914 1.05777 0.58777
 H1238 H 0.67715 1.04980 0.60287
 O1239 O 0.38426 0.97795 0.58429
 O1240 O 0.35710 0.97802 0.61143
 C1241 C 0.36529 0.97006 0.59247
 C1242 C 0.35300 0.95105 0.58010
 C1243 C 0.33130 0.94303 0.58800
 H1244 H 0.32300 0.95152 0.60265
 O1245 O 0.58471 1.11567 0.52247
 O1246 O 0.61186 1.14282 0.52247
 C1247 C 0.59291 1.13461 0.53041
 C1248 C 0.58056 1.14687 0.54944
 C1249 C 0.58841 1.16862 0.55737
 H1250 H 0.60300 1.17696 0.54881
 O1251 O 0.41559 0.88479 0.52271
 O1252 O 0.38838 0.85770 0.52270
 C1253 C 0.40736 0.86586 0.53064
 C1254 C 0.41970 0.85357 0.54967
 C1255 C 0.41179 0.83186 0.55765
 H1256 H 0.39716 0.82356 0.54911
 O1257 O 0.58408 0.97741 0.61580
 O1258 O 0.61118 0.97719 0.64300
 C1259 C 0.59220 0.96937 0.63474
 C1260 C 0.57975 0.95033 0.64691
 C1261 C 0.58748 0.94234 0.66868
 H1262 H 0.60204 0.95087 0.67711
 O1263 O 0.41630 1.02331 0.61615
 O1264 O 0.38927 1.02343 0.64341
 C1265 C 0.40821 1.03131 0.63511
 C1266 C 0.42068 1.05036 0.64726
 C1267 C 0.41287 1.05859 0.66894
 H1268 H 0.39784 1.05062 0.67709
 O1269 O 0.47789 1.11624 0.58402
 O1270 O 0.47804 1.14350 0.61107
 C1271 C 0.47000 1.13523 0.59218
 C1272 C 0.45088 1.14744 0.57991
 C1273 C 0.44284 1.16910 0.58789
 H1274 H 0.45142 1.17744 0.60247
 O1275 O 0.52240 0.88421 0.58391
 O1276 O 0.52244 0.85694 0.61094
 C1277 C 0.53035 0.86524 0.59201
 C1278 C 0.54938 0.85307 0.57953
 C1279 C 0.55747 0.83132 0.58727
 H1280 H 0.54943 0.82314 0.60224
 O1281 O 0.61567 0.91615 0.52232
 O1282 O 0.64285 0.88903 0.52228
 C1283 C 0.63463 0.90797 0.53023
 C1284 C 0.64689 0.92032 0.54927
 C1285 C 0.66869 0.91255 0.55713
 H1286 H 0.67708 0.89804 0.54849
 O1287 O 0.38428 1.08466 0.52280
 O1288 O 0.35713 1.11180 0.52291
 C1289 C 0.36536 1.09283 0.53079
 C1290 C 0.35318 1.08042 0.54984
 C1291 C 0.33143 1.08817 0.55790
 H1292 H 0.32326 1.10311 0.54981
 Cu1293 Cu 0.49977 0.90289 0.59722
 Cu1294 Cu 0.49976 0.87025 0.62976
 Cu1295 Cu 0.50061 1.09754 0.59724
 Cu1296 Cu 0.50078 1.13020 0.62976
 Cu1297 Cu 0.40239 0.90350 0.50003
 Cu1298 Cu 0.36966 0.87106 0.49999
 Cu1299 Cu 0.59693 0.90295 0.49963
 Cu1300 Cu 0.62947 0.87032 0.49959
 Cu1301 Cu 0.40293 1.09791 0.50012
 Cu1302 Cu 0.37044 1.13059 0.50022
 Cu1303 Cu 0.59791 1.09703 0.49973
 Cu1304 Cu 0.63058 1.12953 0.49972
 Cu1305 Cu 0.40304 1.00062 0.59747
 Cu1306 Cu 0.37050 1.00072 0.63012
 Cu1307 Cu 0.59746 1.00010 0.59724
 Cu1308 Cu 0.63008 0.99987 0.62981
 C1309 C 0.56065 0.93933 0.63630
 H1310 H 0.55478 0.94521 0.61936
 C1311 C 0.57657 0.92342 0.67971
 C1312 C 0.43983 1.06123 0.63661
 H1313 H 0.44573 1.05521 0.61974
 C1314 C 0.42385 1.07755 0.67984
 C1315 C 0.36386 1.06137 0.56086
 H1316 H 0.38078 1.05551 0.55496
 C1317 C 0.32048 1.07723 0.57686
 C1318 C 0.63633 0.93935 0.56043
 H1319 H 0.61937 0.94524 0.55466
 C1320 C 0.67980 0.92337 0.57606
 C1321 C 0.56034 0.86375 0.56045
 H1322 H 0.55443 0.88068 0.55460
 C1323 C 0.57641 0.82038 0.57629
 C1324 C 0.43979 1.13694 0.56080
 H1325 H 0.44570 1.12008 0.55476
 C1326 C 0.42378 1.18013 0.57721
 C1327 C 0.43940 0.93968 0.63660
 H1328 H 0.44536 0.94559 0.61971
 C1329 C 0.42321 0.92368 0.67986
 C1330 C 0.56126 1.06089 0.63654
 H1331 H 0.55524 1.05489 0.61970
 C1332 C 0.57757 1.07717 0.67968
 C1333 C 0.43887 0.86402 0.56068
 H1334 H 0.44487 0.88091 0.55481
 C1335 C 0.42261 0.82074 0.57657
 C1336 C 0.56143 1.13638 0.56049
 H1337 H 0.55548 1.11946 0.55466
 C1338 C 0.57757 1.17975 0.57628
 C1339 C 0.36346 0.94008 0.56090
 H1340 H 0.38034 0.94597 0.55491
 C1341 C 0.32019 0.92411 0.57714
 C1342 C 0.63702 1.06048 0.56056
 H1343 H 0.62018 1.05450 0.55454
 C1344 C 0.68017 1.07671 0.57688
 O1345 O 0.47683 0.41575 0.88386
 O1346 O 0.47677 0.38869 0.85661
 C1347 C 0.46887 0.40763 0.86488
 C1348 C 0.44985 0.42009 0.85269
 C1349 C 0.44164 0.41224 0.83101
 H1350 H 0.44960 0.39719 0.82290
 O1351 O 0.52266 0.58403 0.88443
 O1352 O 0.52279 0.61117 0.85727
 C1353 C 0.53066 0.59220 0.86551
 C1354 C 0.54967 0.57975 0.85330
 C1355 C 0.55776 0.58753 0.83156
 H1356 H 0.54974 0.60254 0.82344
 O1357 O 0.38401 0.47739 0.91583
 O1358 O 0.35676 0.47751 0.88878
 C1359 C 0.36501 0.46952 0.90770
 C1360 C 0.35275 0.45051 0.92008
 C1361 C 0.33100 0.44255 0.91224
 H1362 H 0.32265 0.45108 0.89765
 O1363 O 0.61570 0.52224 0.91620
 O1364 O 0.64293 0.52231 0.88913
 C1365 C 0.63467 0.53020 0.90808
 C1366 C 0.64685 0.54922 0.92054
 C1367 C 0.66857 0.55734 0.91275
 H1368 H 0.67671 0.54931 0.89775
 O1369 O 0.41543 0.38409 0.97716
 O1370 O 0.38826 0.35697 0.97710
 C1371 C 0.40721 0.36517 0.96918
 C1372 C 0.41954 0.35296 0.95009
 C1373 C 0.41164 0.33127 0.94202
 H1374 H 0.39704 0.32291 0.95053
 O1375 O 0.58382 0.61548 0.97782
 O1376 O 0.61100 0.64261 0.97788
 C1377 C 0.59203 0.63444 0.96993
 C1378 C 0.57968 0.64675 0.95093
 C1379 C 0.58748 0.66855 0.94308
 H1380 H 0.60203 0.67690 0.95170
 O1381 O 0.41594 0.52279 0.88399
 O1382 O 0.38884 0.52295 0.85679
 C1383 C 0.40779 0.53081 0.86506
 C1384 C 0.42023 0.54987 0.85291
 C1385 C 0.41246 0.55800 0.83119
 H1386 H 0.39749 0.54996 0.82301
 O1387 O 0.58376 0.47696 0.88418
 O1388 O 0.61084 0.47696 0.85696
 C1389 C 0.59190 0.46903 0.86520
 C1390 C 0.57945 0.45004 0.85296
 C1391 C 0.58726 0.44198 0.83122
 H1392 H 0.60227 0.45003 0.82312
 O1393 O 0.52215 0.38381 0.91583
 O1394 O 0.52215 0.35663 0.88871
 C1395 C 0.53009 0.36486 0.90766
 C1396 C 0.54915 0.35264 0.92003
 C1397 C 0.55723 0.33096 0.91210
 H1398 H 0.54874 0.32263 0.89747
 O1399 O 0.47722 0.61588 0.91629
 O1400 O 0.47726 0.64318 0.88929
 C1401 C 0.46929 0.63486 0.90819
 C1402 C 0.45022 0.64702 0.92061
 C1403 C 0.44206 0.66871 0.91279
 H1404 H 0.45008 0.67686 0.89779
 O1405 O 0.38402 0.58391 0.97771
 O1406 O 0.35682 0.61100 0.97771
 C1407 C 0.36508 0.59208 0.96975
 C1408 C 0.35291 0.57971 0.95065
 C1409 C 0.33114 0.58746 0.94263
 H1410 H 0.32294 0.60235 0.95079
 O1411 O 0.61549 0.41537 0.97732
 O1412 O 0.64266 0.38824 0.97726
 C1413 C 0.63444 0.40720 0.96935
 C1414 C 0.64665 0.41959 0.95030
 C1415 C 0.66836 0.41175 0.94224
 H1416 H 0.67673 0.39714 0.95073
 O1417 O 0.47727 0.58410 0.88431
 O1418 O 0.47733 0.61125 0.85716
 C1419 C 0.46937 0.59230 0.86535
 C1420 C 0.45033 0.57995 0.85308
 C1421 C 0.44236 0.58781 0.83135
 H1422 H 0.45090 0.60240 0.82300
 O1423 O 0.52224 0.41576 0.88402
 O1424 O 0.52224 0.38872 0.85675
 C1425 C 0.53020 0.40763 0.86505
 C1426 C 0.54929 0.42000 0.85291
 C1427 C 0.55732 0.41222 0.83116
 H1428 H 0.54878 0.39768 0.82272
 O1429 O 0.61564 0.47681 0.91607
 O1430 O 0.64287 0.47683 0.88900
 C1431 C 0.63459 0.46885 0.90790
 C1432 C 0.64675 0.44975 0.92026
 C1433 C 0.66844 0.44162 0.91241
 H1434 H 0.67657 0.44970 0.89744
 O1435 O 0.38420 0.52278 0.91601
 O1436 O 0.35695 0.52293 0.88895
 C1437 C 0.36524 0.53078 0.90792
 C1438 C 0.35304 0.54976 0.92041
 C1439 C 0.33126 0.55771 0.91268
 H1440 H 0.32286 0.54920 0.89810
 O1441 O 0.41595 0.61574 0.97778
 O1442 O 0.38888 0.64297 0.97777
 C1443 C 0.40781 0.63471 0.96983
 C1444 C 0.42017 0.64691 0.95075
 C1445 C 0.41229 0.66861 0.94272
 H1446 H 0.39771 0.67697 0.95125
 O1447 O 0.58352 0.38357 0.97725
 O1448 O 0.61054 0.35631 0.97719
 C1449 C 0.59164 0.36462 0.96925
 C1450 C 0.57923 0.35249 0.95015
 C1451 C 0.58709 0.33083 0.94194
 H1452 H 0.60209 0.32270 0.94996
 O1453 O 0.58379 0.52238 0.88435
 O1454 O 0.61087 0.52244 0.85714
 C1455 C 0.59196 0.53038 0.86542
 C1456 C 0.57963 0.54951 0.85328
 C1457 C 0.58743 0.55752 0.83154
 H1458 H 0.60195 0.54893 0.82310
 O1459 O 0.41586 0.47735 0.88392
 O1460 O 0.38874 0.47747 0.85674
 C1461 C 0.40765 0.46945 0.86496
 C1462 C 0.41991 0.45032 0.85275
 C1463 C 0.41197 0.44226 0.83107
 H1464 H 0.39740 0.45082 0.82270
 O1465 O 0.52263 0.61588 0.91635
 O1466 O 0.52274 0.64318 0.88936
 C1467 C 0.53062 0.63485 0.90828
 C1468 C 0.54964 0.64698 0.92079
 C1469 C 0.55771 0.66877 0.91315
 H1470 H 0.54965 0.67701 0.89822
 O1471 O 0.47673 0.38391 0.91578
 O1472 O 0.47667 0.35670 0.88868
 C1473 C 0.46873 0.36498 0.90760
 C1474 C 0.44963 0.35283 0.91998
 C1475 C 0.44145 0.33116 0.91213
 H1476 H 0.44949 0.32303 0.89713
 O1477 O 0.61563 0.58351 0.97772
 O1478 O 0.64293 0.61051 0.97777
 C1479 C 0.63461 0.59163 0.96979
 C1480 C 0.64679 0.57926 0.95070
 C1481 C 0.66852 0.58710 0.94269
 H1482 H 0.67691 0.60166 0.95125
 O1483 O 0.38367 0.41609 0.97724
 O1484 O 0.35637 0.38910 0.97717
 C1485 C 0.36469 0.40801 0.96926
 C1486 C 0.35256 0.42045 0.95021
 C1487 C 0.33082 0.41270 0.94210
 H1488 H 0.32263 0.39775 0.95016
 Cu1489 Cu 0.49948 0.40252 0.90259
 Cu1490 Cu 0.49946 0.36996 0.86996
 Cu1491 Cu 0.49994 0.59726 0.90306
 Cu1492 Cu 0.50004 0.62993 0.87055
 Cu1493 Cu 0.40273 0.50006 0.90264
 Cu1494 Cu 0.37010 0.50023 0.87008
 Cu1495 Cu 0.59701 0.49959 0.90292
 Cu1496 Cu 0.62960 0.49964 0.87033
 C1497 C 0.43900 0.43926 0.86329
 H1498 H 0.44500 0.44519 0.88016
 C1499 C 0.42270 0.42322 0.82006
 C1500 C 0.56060 0.56060 0.86390
 H1501 H 0.55468 0.55471 0.88082
 C1502 C 0.57664 0.57653 0.82055
 C1503 C 0.36327 0.43949 0.93921
 H1504 H 0.38018 0.44534 0.94515
 C1505 C 0.31991 0.42364 0.92312
 C1506 C 0.63622 0.56018 0.93966
 H1507 H 0.61931 0.55424 0.94554
 C1508 C 0.67953 0.57628 0.92371
 C1509 C 0.43869 0.36348 0.93910
 H1510 H 0.44468 0.38035 0.94503
 C1511 C 0.42246 0.32023 0.92304
 C1512 C 0.56061 0.63623 0.93982
 H1513 H 0.55470 0.61927 0.94559
 C1514 C 0.57662 0.67970 0.92419
 C1515 C 0.43930 0.56083 0.86360
 H1516 H 0.44517 0.55488 0.88051
 C1517 C 0.42342 0.57697 0.82027
 C1518 C 0.56033 0.43906 0.86354
 H1519 H 0.55443 0.44495 0.88046
 C1520 C 0.57631 0.42308 0.82019
 C1521 C 0.56012 0.36314 0.93920
 H1522 H 0.55419 0.38000 0.94521
 C1523 C 0.57621 0.31994 0.92291
 C1524 C 0.43928 0.63637 0.93973
 H1525 H 0.44525 0.61949 0.94564
 C1526 C 0.42309 0.67963 0.92373
 C1527 C 0.36361 0.56072 0.93954
 H1528 H 0.38055 0.55487 0.94540
 C1529 C 0.32018 0.57657 0.92365
 C1530 C 0.63611 0.43874 0.93934
 H1531 H 0.61923 0.44469 0.94527
 C1532 C 0.67939 0.42263 0.92329
 O1533 O 0.52228 0.41532 1.11607
 O1534 O 0.52219 0.38816 1.14321
 C1535 C 0.53019 0.40709 1.13502
 C1536 C 0.54928 0.41937 1.14727
 C1537 C 0.55728 0.41144 1.16897
 H1538 H 0.54872 0.39685 1.17730
 O1539 O 0.47720 0.58356 1.11642
 O1540 O 0.47725 0.61061 1.14367
 C1541 C 0.46928 0.59170 1.13539
 C1542 C 0.45020 0.57935 1.14758
 C1543 C 0.44220 0.58721 1.16930
 H1544 H 0.45078 0.60176 1.17769
 O1545 O 0.38392 0.52250 1.08447
 O1546 O 0.35669 0.52251 1.11154
 C1547 C 0.36497 0.53046 1.09262
 C1548 C 0.35281 0.54956 1.08026
 C1549 C 0.33112 0.55763 1.08811
 H1550 H 0.32273 0.54913 1.10270
 O1551 O 0.61550 0.47649 1.08442
 O1552 O 0.64276 0.47638 1.11146
 C1553 C 0.63447 0.46850 1.09252
 C1554 C 0.64663 0.44949 1.08002
 C1555 C 0.66840 0.44142 1.08773
 H1556 H 0.67657 0.44946 1.10271
 O1557 O 0.58357 0.38344 1.02269
 O1558 O 0.61060 0.35618 1.02269
 C1559 C 0.59169 0.36446 1.03064
 C1560 C 0.57929 0.35229 1.04971
 C1561 C 0.58716 0.33063 1.05791
 H1562 H 0.60218 0.32252 1.04990
 O1563 O 0.41594 0.61567 1.02322
 O1564 O 0.38889 0.64291 1.02325
 C1565 C 0.40780 0.63462 1.03120
 C1566 C 0.42017 0.64677 1.05031
 C1567 C 0.41235 0.66848 1.05837
 H1568 H 0.39779 0.67689 1.04983
 O1569 O 0.41568 0.47698 1.11630
 O1570 O 0.38860 0.47693 1.14352
 C1571 C 0.40751 0.46899 1.13524
 C1572 C 0.41989 0.44989 1.14737
 C1573 C 0.41210 0.44180 1.16910
 H1574 H 0.39715 0.44989 1.17727
 O1575 O 0.58372 0.52193 1.11638
 O1576 O 0.61083 0.52187 1.14357
 C1577 C 0.59192 0.52987 1.13533
 C1578 C 0.57962 0.54899 1.14752
 C1579 C 0.58752 0.55703 1.16922
 H1580 H 0.60208 0.54847 1.17760
 O1581 O 0.47678 0.38367 1.08407
 O1582 O 0.47665 0.35635 1.11105
 C1583 C 0.46876 0.36470 1.09214
 C1584 C 0.44970 0.35261 1.07966
 C1585 C 0.44155 0.33087 1.08737
 H1586 H 0.44958 0.32265 1.10233
 O1587 O 0.52261 0.61545 1.08456
 O1588 O 0.52270 0.64263 1.11169
 C1589 C 0.53060 0.63438 1.09274
 C1590 C 0.54967 0.64656 1.08037
 C1591 C 0.55773 0.66827 1.08821
 H1592 H 0.54921 0.67667 1.10278
 O1593 O 0.38368 0.41601 1.02270
 O1594 O 0.35639 0.38900 1.02266
 C1595 C 0.36471 0.40788 1.03065
 C1596 C 0.35257 0.42021 1.04979
 C1597 C 0.33086 0.41236 1.05784
 H1598 H 0.32244 0.39782 1.04928
 O1599 O 0.61556 0.58332 1.02315
 O1600 O 0.64286 0.61031 1.02323
 C1601 C 0.63455 0.59139 1.03111
 C1602 C 0.64673 0.57893 1.05013
 C1603 C 0.66852 0.58667 1.05807
 H1604 H 0.67693 0.60121 1.04950
 O1605 O 0.52262 0.58358 1.11646
 O1606 O 0.52271 0.61061 1.14372
 C1607 C 0.53061 0.59168 1.13542
 C1608 C 0.54965 0.57922 1.14759
 C1609 C 0.55783 0.58704 1.16928
 H1610 H 0.54986 0.60206 1.17741
 O1611 O 0.47687 0.41549 1.11603
 O1612 O 0.47674 0.38831 1.14316
 C1613 C 0.46889 0.40730 1.13497
 C1614 C 0.44989 0.41972 1.14722
 C1615 C 0.44189 0.41191 1.16897
 H1616 H 0.45040 0.39731 1.17733
 O1617 O 0.61563 0.52189 1.08454
 O1618 O 0.64290 0.52185 1.11157
 C1619 C 0.63462 0.52981 1.09266
 C1620 C 0.64682 0.54884 1.08023
 C1621 C 0.66860 0.55686 1.08796
 H1622 H 0.67678 0.54877 1.10290
 O1623 O 0.38380 0.47710 1.08442
 O1624 O 0.35657 0.47704 1.11149
 C1625 C 0.36483 0.46915 1.09254
 C1626 C 0.35261 0.45016 1.08005
 C1627 C 0.33091 0.44203 1.08788
 H1628 H 0.32282 0.45001 1.10293
 O1629 O 0.58394 0.61546 1.02324
 O1630 O 0.61111 0.64258 1.02333
 C1631 C 0.59215 0.63437 1.03124
 C1632 C 0.57978 0.64658 1.05030
 C1633 C 0.58763 0.66829 1.05841
 H1634 H 0.60263 0.67640 1.05036
 O1635 O 0.41550 0.38407 1.02259
 O1636 O 0.38834 0.35693 1.02256
 C1637 C 0.40730 0.36512 1.03050
 C1638 C 0.41964 0.35284 1.04952
 C1639 C 0.41177 0.33109 1.05745
 H1640 H 0.39719 0.32276 1.04887
 O1641 O 0.58373 0.47650 1.11640
 O1642 O 0.61083 0.47637 1.14360
 C1643 C 0.59188 0.46848 1.13533
 C1644 C 0.57944 0.44940 1.14746
 C1645 C 0.58724 0.44119 1.16916
 H1646 H 0.60224 0.44919 1.17733
 O1647 O 0.41569 0.52240 1.11647
 O1648 O 0.38862 0.52242 1.14369
 C1649 C 0.40756 0.53034 1.13544
 C1650 C 0.42001 0.54936 1.14765
 C1651 C 0.41221 0.55750 1.16937
 H1652 H 0.39721 0.54950 1.17752
 O1653 O 0.47720 0.61558 1.08468
 O1654 O 0.47723 0.64277 1.11179
 C1655 C 0.46927 0.63454 1.09286
 C1656 C 0.45022 0.64676 1.08046
 C1657 C 0.44211 0.66847 1.08831
 H1658 H 0.45015 0.67658 1.10332
 O1659 O 0.52221 0.38357 1.08405
 O1660 O 0.52212 0.35628 1.11105
 C1661 C 0.53010 0.36458 1.09216
 C1662 C 0.54917 0.35238 1.07979
 C1663 C 0.55726 0.33071 1.08770
 H1664 H 0.54876 0.32235 1.10232
 O1665 O 0.61541 0.41535 1.02275
 O1666 O 0.64259 0.38824 1.02274
 C1667 C 0.63435 0.40717 1.03070
 C1668 C 0.64656 0.41950 1.04980
 C1669 C 0.66833 0.41172 1.05773
 H1670 H 0.67674 0.39720 1.04912
 O1671 O 0.38395 0.58389 1.02316
 O1672 O 0.35676 0.61099 1.02319
 C1673 C 0.36500 0.59205 1.03112
 C1674 C 0.35279 0.57966 1.05017
 C1675 C 0.33111 0.58753 1.05831
 H1676 H 0.32300 0.60253 1.05026
 Cu1677 Cu 0.49954 0.40223 1.09735
 Cu1678 Cu 0.49941 0.36954 1.12983
 Cu1679 Cu 0.49990 0.59683 1.09781
 Cu1680 Cu 0.49998 0.62938 1.13045
 Cu1681 Cu 0.40229 0.40278 0.99992
 Cu1682 Cu 0.36960 0.37028 0.99987
 Cu1683 Cu 0.59679 0.40214 1.00000
 Cu1684 Cu 0.62932 0.36951 0.99996
 Cu1685 Cu 0.40267 0.59708 1.00047
 Cu1686 Cu 0.37012 0.62970 1.00048
 Cu1687 Cu 0.59701 0.59674 1.00048
 Cu1688 Cu 0.62972 0.62922 1.00056
 Cu1689 Cu 0.40249 0.49975 1.09771
 Cu1690 Cu 0.36989 0.49972 1.13029
 Cu1691 Cu 0.59693 0.49920 1.09773
 Cu1692 Cu 0.62955 0.49911 1.13028
 C1693 C 0.56033 0.43850 1.13678
 H1694 H 0.55444 0.44451 1.11990
 C1695 C 0.57627 0.42221 1.18004
 C1696 C 0.43914 0.56027 1.13702
 H1697 H 0.44502 0.55433 1.12012
 C1698 C 0.42320 0.57644 1.18032
 C1699 C 0.36339 0.56054 1.06114
 H1700 H 0.38026 0.55460 1.05519
 C1701 C 0.32014 0.57663 1.07728
 C1702 C 0.63597 0.43854 1.06091
 H1703 H 0.61903 0.44444 1.05509
 C1704 C 0.67939 0.42254 1.07669
 C1705 C 0.56015 0.36291 1.06064
 H1706 H 0.55421 0.37977 1.05465
 C1707 C 0.57627 0.31971 1.07691
 C1708 C 0.43925 0.63617 1.06133
 H1709 H 0.44518 0.61928 1.05539
 C1710 C 0.42317 0.67946 1.07738
 C1711 C 0.43892 0.43887 1.13669
 H1712 H 0.44480 0.44479 1.11977
 C1713 C 0.42299 0.42281 1.18004
 C1714 C 0.56053 0.56006 1.13697
 H1715 H 0.55455 0.55415 1.12008
 C1716 C 0.57677 0.57606 1.18023
 C1717 C 0.43875 0.36334 1.06060
 H1718 H 0.44471 0.38025 1.05477
 C1719 C 0.42259 0.31998 1.07638
 C1720 C 0.56067 0.63598 1.06126
 H1721 H 0.55474 0.61909 1.05533
 C1722 C 0.57672 0.67926 1.07737
 C1723 C 0.36319 0.43926 1.06087
 H1724 H 0.38008 0.44520 1.05495
 C1725 C 0.31991 0.42313 1.07690
 C1726 C 0.63614 0.55987 1.06117
 H1727 H 0.61919 0.55401 1.05533
 C1728 C 0.67957 0.57579 1.07699
 C1729 C 1.11329 1.11205 1.26753
 C1730 C 1.13289 1.10195 1.27809
 C1731 C 1.14207 1.11120 1.29864
 C1732 C 1.13188 1.13087 1.30920
 C1733 C 1.11200 1.14074 1.29870
 C1734 C 1.10286 1.13144 1.27815
 C1735 C 1.10403 1.10265 1.24528
 C1736 C 1.07991 1.10098 1.24146
 C1737 C 1.07128 1.09242 1.22036
 C1738 C 1.08658 1.08536 1.20262
 C1739 C 1.11069 1.08701 1.20646
 C1740 C 1.11931 1.09555 1.22754
 H1741 H 1.15726 1.10290 1.30611
 H1742 H 1.10355 1.15586 1.30614
 H1743 H 1.05263 1.09107 1.21802
 H1744 H 1.12292 1.08212 1.19298
 H1745 H 1.08788 1.13976 1.27030
 H1746 H 1.06771 1.10602 1.25491
 H1747 H 1.14111 1.08677 1.27050
 H1748 H 1.13797 1.09702 1.22978
 C1749 C 1.11140 0.61086 0.76788
 C1750 C 1.13089 0.60066 0.77857
 C1751 C 1.13984 0.60978 0.79927
 C1752 C 1.12953 0.62935 0.80976
 C1753 C 1.10982 0.63935 0.79922
 C1754 C 1.10085 0.63020 0.77853
 C1755 C 1.10242 0.60165 0.74545
 C1756 C 1.07835 0.59993 0.74136
 C1757 C 1.06999 0.59152 0.72010
 C1758 C 1.08551 0.58466 0.70247
 C1759 C 1.10957 0.58638 0.70658
 C1760 C 1.11792 0.59476 0.72782
 H1761 H 1.15497 0.60155 0.80693
 H1762 H 1.10144 0.65444 0.80680
 H1763 H 1.05137 0.59011 0.71754
 H1764 H 1.12197 0.58165 0.69319
 H1765 H 1.08597 0.63859 0.77057
 H1766 H 1.06598 0.60482 0.75472
 H1767 H 1.13918 0.58554 0.77096
 H1768 H 1.13655 0.59628 0.73029
 C1769 C 0.61371 1.11285 0.76696
 C1770 C 0.63320 1.10253 0.77750
 C1771 C 0.64249 1.11168 0.79807
 C1772 C 0.63246 1.13142 0.80868
 C1773 C 0.61268 1.14148 0.79819
 C1774 C 0.60348 1.13233 0.77762
 C1775 C 0.60428 1.10361 0.74472
 C1776 C 0.59708 1.11891 0.72703
 C1777 C 0.58838 1.11033 0.70601
 C1778 C 0.58661 1.08622 0.70217
 C1779 C 0.59379 1.07090 0.71986
 C1780 C 0.60254 1.07950 0.74090
 H1781 H 0.65769 1.10333 0.80547
 H1782 H 0.60425 1.15657 0.80573
 H1783 H 0.58342 1.12258 0.69257
 H1784 H 0.59237 1.05225 0.71754
 H1785 H 0.58822 1.14045 0.77010
 H1786 H 0.59859 1.13757 0.72928
 H1787 H 0.64161 1.08764 0.76957
 H1788 H 0.60766 1.06728 0.75431
 C1789 C 0.61233 0.61186 1.26768
 C1790 C 0.60191 0.63131 1.27821
 C1791 C 0.61102 0.64066 1.29876
 C1792 C 0.63083 0.63076 1.30936
 C1793 C 0.64099 0.61102 1.29889
 C1794 C 0.63186 0.60174 1.27834
 C1795 C 0.60313 0.60240 1.24543
 C1796 C 0.61846 0.59524 1.22776
 C1797 C 0.60990 0.58663 1.20668
 C1798 C 0.58580 0.58494 1.20279
 C1799 C 0.57045 0.59204 1.22048
 C1800 C 0.57903 0.60069 1.24157
 H1801 H 0.60258 0.65582 1.30614
 H1802 H 0.65613 0.60270 1.30643
 H1803 H 0.62216 0.58170 1.19324
 H1804 H 0.55180 0.59067 1.21811
 H1805 H 0.64006 0.58652 1.27082
 H1806 H 0.63711 0.59673 1.23004
 H1807 H 0.58698 0.63965 1.27028
 H1808 H 0.56679 0.60578 1.25497
 C1809 C 0.88792 0.88765 1.26764
 C1810 C 0.89806 0.86809 1.27823
 C1811 C 0.88885 0.85895 1.29880
 C1812 C 0.86913 0.86909 1.30932
 C1813 C 0.85922 0.88893 1.29879
 C1814 C 0.86851 0.89807 1.27823
 C1815 C 0.89727 0.89685 1.24536
 C1816 C 0.89907 0.92095 1.24154
 C1817 C 0.90764 0.92952 1.22042
 C1818 C 0.91456 0.91417 1.20266
 C1819 C 0.91275 0.89007 1.20651
 C1820 C 0.90423 0.88151 1.22761
 H1821 H 0.89718 0.84378 1.30629
 H1822 H 0.84407 0.89736 1.30621
 H1823 H 0.90911 0.94817 1.21808
 H1824 H 0.91753 0.87780 1.19301
 H1825 H 0.86016 0.91302 1.27035
 H1826 H 0.89413 0.93319 1.25500
 H1827 H 0.91325 0.85990 1.27065
 H1828 H 0.90266 0.86286 1.22987
 C1829 C 0.88748 0.38741 0.76724
 C1830 C 0.89787 0.36803 0.77791
 C1831 C 0.88872 0.35881 0.79849
 C1832 C 0.86888 0.36877 0.80899
 C1833 C 0.85874 0.38845 0.79838
 C1834 C 0.86792 0.39760 0.77779
 C1835 C 0.89672 0.39670 0.74494
 C1836 C 0.92083 0.39835 0.74109
 C1837 C 0.92944 0.40686 0.71996
 C1838 C 0.91412 0.41391 0.70223
 C1839 C 0.89002 0.41226 0.70609
 C1840 C 0.88142 0.40377 0.72720
 H1841 H 0.89714 0.34369 0.80597
 H1842 H 0.84358 0.39681 0.80583
 H1843 H 0.94810 0.40821 0.71761
 H1844 H 0.87777 0.41713 0.69262
 H1845 H 0.85974 0.41278 0.77016
 H1846 H 0.93305 0.39332 0.75454
 H1847 H 0.91281 0.35964 0.77006
 H1848 H 0.86277 0.40232 0.72946
 C1849 C 0.38753 0.88828 0.76739
 C1850 C 0.36795 0.89845 0.77795
 C1851 C 0.35878 0.88924 0.79851
 C1852 C 0.36896 0.86960 0.80900
 C1853 C 0.38874 0.85962 0.79859
 C1854 C 0.39792 0.86886 0.77803
 C1855 C 0.39676 0.89760 0.74511
 C1856 C 0.42088 0.89924 0.74126
 C1857 C 0.42948 0.90776 0.72014
 C1858 C 0.41416 0.91483 0.70242
 C1859 C 0.39006 0.91320 0.70629
 C1860 C 0.38146 0.90470 0.72738
 H1861 H 0.34360 0.89745 0.80609
 H1862 H 0.39703 0.84447 0.80615
 H1863 H 0.44814 0.90909 0.71777
 H1864 H 0.37781 0.91809 0.69282
 H1865 H 0.41287 0.86047 0.77017
 H1866 H 0.43310 0.89419 0.75470
 H1867 H 0.35975 0.91363 0.77036
 H1868 H 0.36281 0.90326 0.72965
 C1869 C 0.38730 0.38772 1.26768
 C1870 C 0.39750 0.36828 1.27843
 C1871 C 0.38826 0.35922 1.29901
 C1872 C 0.36846 0.36934 1.30941
 C1873 C 0.35849 0.38907 1.29873
 C1874 C 0.36782 0.39812 1.27815
 C1875 C 0.39671 0.39680 1.24538
 C1876 C 0.39849 0.42089 1.24143
 C1877 C 0.40713 0.42935 1.22030
 C1878 C 0.41415 0.41390 1.20266
 C1879 C 0.41238 0.38983 1.20664
 C1880 C 0.40378 0.38138 1.22775
 H1881 H 0.39664 0.34413 1.30661
 H1882 H 0.34329 0.39747 1.30607
 H1883 H 0.40857 0.44798 1.21786
 H1884 H 0.41723 0.37749 1.19323
 H1885 H 0.35944 0.41299 1.27015
 H1886 H 0.39346 0.43319 1.25480
 H1887 H 0.41275 0.36010 1.27095
 H1888 H 0.40224 0.36274 1.23012
 C1889 C 0.88734 1.11292 0.73297
 C1890 C 0.89743 1.13243 0.72224
 C1891 C 0.88808 1.14152 0.70171
 C1892 C 0.86829 1.13136 0.69133
 C1893 C 0.85841 1.11158 0.70200
 C1894 C 0.86783 1.10250 0.72253
 C1895 C 0.89691 1.10375 0.75518
 C1896 C 0.89867 1.07964 0.75903
 C1897 C 0.90743 1.07109 0.78008
 C1898 C 0.91461 1.08645 0.79774
 C1899 C 0.91288 1.11054 0.79385
 C1900 C 0.90415 1.11909 0.77282
 H1901 H 0.89640 1.15665 0.69412
 H1902 H 0.84321 1.10315 0.69470
 H1903 H 0.90883 1.05244 0.78244
 H1904 H 0.91785 1.12282 0.80727
 H1905 H 0.85952 1.08758 0.73052
 H1906 H 0.89352 1.06739 0.74566
 H1907 H 0.91269 1.14063 0.72968
 H1908 H 0.90264 1.13774 0.77054
 C1909 C 0.88908 0.61139 0.23189
 C1910 C 0.86977 0.60082 0.22124
 C1911 C 0.86057 0.60982 0.20059
 C1912 C 0.87051 0.62959 0.19009
 C1913 C 0.89007 0.63992 0.20058
 C1914 C 0.89923 0.63094 0.22124
 C1915 C 0.89831 0.60240 0.25430
 C1916 C 0.90512 0.61789 0.27197
 C1917 C 0.91346 0.60951 0.29322
 C1918 C 0.91521 0.58545 0.29729
 C1919 C 0.90844 0.56994 0.27961
 C1920 C 0.90007 0.57833 0.25834
 H1921 H 0.84549 0.60142 0.19302
 H1922 H 0.89825 0.65509 0.19294
 H1923 H 0.91813 0.62190 0.30665
 H1924 H 0.90988 0.55131 0.28213
 H1925 H 0.91434 0.63925 0.22886
 H1926 H 0.90357 0.63652 0.26954
 H1927 H 0.86141 0.58590 0.22917
 H1928 H 0.89523 0.56597 0.24494
 C1929 C 0.38762 1.11276 0.23248
 C1930 C 0.39772 1.13225 0.22172
 C1931 C 0.38841 1.14125 0.20113
 C1932 C 0.36865 1.13102 0.19074
 C1933 C 0.35878 1.11126 0.20146
 C1934 C 0.36816 1.10226 0.22204
 C1935 C 0.39712 1.10368 0.25476
 C1936 C 0.39890 1.07960 0.25871
 C1937 C 0.40757 1.07114 0.27983
 C1938 C 0.41461 1.08658 0.29747
 C1939 C 0.41286 1.11066 0.29348
 C1940 C 0.40423 1.11911 0.27237
 H1941 H 0.39671 1.15636 0.19350
 H1942 H 0.34361 1.10277 0.19415
 H1943 H 0.40900 1.05250 0.28227
 H1944 H 0.41774 1.12300 0.30688
 H1945 H 0.35985 1.08736 0.23006
 H1946 H 0.39385 1.06729 0.24535
 H1947 H 0.41294 1.14050 0.22917
 H1948 H 0.40269 1.13775 0.27001
 C1949 C 0.38783 0.61228 0.73267
 C1950 C 0.39791 0.63186 0.72204
 C1951 C 0.38863 0.64094 0.70146
 C1952 C 0.36900 0.63066 0.69105
 C1953 C 0.35910 0.61087 0.70154
 C1954 C 0.36842 0.60178 0.72210
 C1955 C 0.39724 0.60315 0.75495
 C1956 C 0.39904 0.57905 0.75884
 C1957 C 0.40763 0.57054 0.77996
 C1958 C 0.41460 0.58594 0.79767
 C1959 C 0.41283 0.61002 0.79375
 C1960 C 0.40427 0.61852 0.77264
 H1961 H 0.39678 0.65612 0.69384
 H1962 H 0.34396 0.60251 0.69402
 H1963 H 0.40908 0.55189 0.78236
 H1964 H 0.41765 0.62232 0.80720
 H1965 H 0.36011 0.58683 0.73002
 H1966 H 0.39405 0.56678 0.74542
 H1967 H 0.41308 0.64013 0.72958
 H1968 H 0.40271 0.63717 0.77034
 C1969 C 1.11234 0.88768 0.73271
 C1970 C 1.10228 0.86810 0.72203
 C1971 C 1.11160 0.85904 0.70147
 C1972 C 1.13124 0.86935 0.69109
 C1973 C 1.14112 0.88912 0.70162
 C1974 C 1.13177 0.89819 0.72218
 C1975 C 1.10286 0.89682 0.75496
 C1976 C 1.10106 0.92091 0.75884
 C1977 C 1.09240 0.92943 0.77994
 C1978 C 1.08539 0.91404 0.79763
 C1979 C 1.08716 0.88995 0.79371
 C1980 C 1.09578 0.88144 0.77263
 H1981 H 1.10346 0.84386 0.69381
 H1982 H 1.15626 0.89750 0.69414
 H1983 H 1.09096 0.94807 0.78233
 H1984 H 1.08231 0.87765 0.80715
 H1985 H 1.14006 0.91315 0.73013
 H1986 H 1.10608 0.93318 0.74544
 H1987 H 1.08710 0.85982 0.72954
 H1988 H 1.09734 0.86280 0.77033
 C1989 C 1.11241 0.38763 0.23218
 C1990 C 1.10228 0.36810 0.22151
 C1991 C 1.11157 0.35896 0.20097
 C1992 C 1.13134 0.36911 0.19053
 C1993 C 1.14123 0.38892 0.20113
 C1994 C 1.13187 0.39804 0.22166
 C1995 C 1.10296 0.39680 0.25443
 C1996 C 1.10119 0.42091 0.25829
 C1997 C 1.09252 0.42945 0.27937
 C1998 C 1.08545 0.41408 0.29706
 C1999 C 1.08721 0.38999 0.29317
 C2000 C 1.09584 0.38146 0.27210
 H2001 H 1.10325 0.34381 0.19344
 H2002 H 1.15641 0.39734 0.19377
 H2003 H 1.09109 0.44810 0.28174
 H2004 H 1.08233 0.37770 0.30661
 H2005 H 1.14020 0.41298 0.22960
 H2006 H 1.10625 0.43316 0.24488
 H2007 H 1.08705 0.35990 0.22902
 H2008 H 1.09738 0.36281 0.26982
 C2009 C 0.61180 0.88756 0.23235
 C2010 C 0.63121 0.89800 0.22178
 C2011 C 0.64055 0.88886 0.20125
 C2012 C 0.63069 0.86900 0.19071
 C2013 C 0.61099 0.85881 0.20122
 C2014 C 0.60171 0.86796 0.22176
 C2015 C 0.60236 0.89679 0.25459
 C2016 C 0.59530 0.88148 0.27233
 C2017 C 0.58673 0.89008 0.29340
 C2018 C 0.58497 0.91418 0.29723
 C2019 C 0.59196 0.92950 0.27947
 C2020 C 0.60057 0.92090 0.25838
 H2021 H 0.65569 0.89732 0.19384
 H2022 H 0.60270 0.84361 0.19373
 H2023 H 0.58189 0.87783 0.30689
 H2024 H 0.59053 0.94815 0.28179
 H2025 H 0.58653 0.85974 0.22932
 H2026 H 0.59685 0.86283 0.27010
 H2027 H 0.63951 0.91298 0.22966
 H2028 H 0.60558 0.93312 0.24493
 C2029 C 0.61209 0.38807 0.73255
 C2030 C 0.60195 0.36857 0.72181
 C2031 C 0.61124 0.35955 0.70122
 C2032 C 0.63092 0.36981 0.69087
 C2033 C 0.64087 0.38952 0.70146
 C2034 C 0.63154 0.39856 0.72206
 C2035 C 0.60265 0.39713 0.75485
 C2036 C 0.60089 0.42121 0.75883
 C2037 C 0.59224 0.42965 0.77997
 C2038 C 0.58518 0.41419 0.79758
 C2039 C 0.58693 0.39012 0.79357
 C2040 C 0.59555 0.38169 0.77245
 H2041 H 0.60304 0.34442 0.69351
 H2042 H 0.65604 0.39786 0.69401
 H2043 H 0.59082 0.44829 0.78244
 H2044 H 0.58204 0.37777 0.80695
 H2045 H 0.63988 0.41345 0.73005
 H2046 H 0.60594 0.43353 0.74549
 H2047 H 0.58674 0.36032 0.72929
 H2048 H 0.59708 0.36305 0.77007
 C2049 C 1.26768 1.11148 1.11305
 C2050 C 1.27827 1.13087 1.10258
 C2051 C 1.29879 1.14022 1.11172
 C2052 C 1.30931 1.13039 1.13161
 C2053 C 1.29879 1.11071 1.14183
 C2054 C 1.27825 1.10143 1.13268
 C2055 C 1.24544 1.10207 1.10381
 C2056 C 1.22767 1.09507 1.11910
 C2057 C 1.20658 1.08657 1.11049
 C2058 C 1.20276 1.08483 1.08638
 C2059 C 1.22054 1.09176 1.07107
 C2060 C 1.24165 1.10030 1.07969
 H2061 H 1.30620 1.15533 1.10323
 H2062 H 1.30627 1.10246 1.15705
 H2063 H 1.19307 1.08178 1.12273
 H2064 H 1.21822 1.09034 1.05241
 H2065 H 1.27067 1.08626 1.14092
 H2066 H 1.22990 1.09661 1.13776
 H2067 H 1.27040 1.13916 1.08759
 H2068 H 1.25512 1.10526 1.06747
 C2069 C 1.26730 0.61235 0.61244
 C2070 C 1.27798 0.60200 0.63184
 C2071 C 1.29855 0.61120 0.64105
 C2072 C 1.30901 0.63104 0.63106
 C2073 C 1.29838 0.64113 0.61136
 C2074 C 1.27781 0.63191 0.60222
 C2075 C 1.24502 0.60307 0.60313
 C2076 C 1.22727 0.61834 0.59606
 C2077 C 1.20621 0.60971 0.58750
 C2078 C 1.20241 0.58560 0.58577
 C2079 C 1.22015 0.57030 0.59285
 C2080 C 1.24123 0.57894 0.60144
 H2081 H 1.30604 0.60282 0.65619
 H2082 H 1.30581 0.65630 0.60297
 H2083 H 1.19273 0.62194 0.58261
 H2084 H 1.21784 0.55165 0.59145
 H2085 H 1.27018 0.64006 0.58703
 H2086 H 1.22950 0.63700 0.59755
 H2087 H 1.27016 0.58705 0.64025
 H2088 H 1.25469 0.56675 0.60648
 C2089 C 0.76731 1.11244 0.61325
 C2090 C 0.77781 1.10214 0.63279
 C2091 C 0.79834 1.11133 0.64213
 C2092 C 0.80893 1.13109 0.63213
 C2093 C 0.79849 1.14112 0.61230
 C2094 C 0.77797 1.13192 0.60304
 C2095 C 0.74510 1.10318 0.60376
 C2096 C 0.72747 1.11848 0.59643
 C2097 C 0.70648 1.10988 0.58765
 C2098 C 0.70263 1.08577 0.58596
 C2099 C 0.72027 1.07046 0.59328
 C2100 C 0.74127 1.07907 0.60209
 H2101 H 0.80570 1.10300 0.65737
 H2102 H 0.80602 1.15622 0.60389
 H2103 H 0.69308 1.12213 0.58259
 H2104 H 0.71792 1.05180 0.59192
 H2105 H 0.77049 1.14002 0.58774
 H2106 H 0.72972 1.13714 0.59789
 H2107 H 0.76988 1.08724 0.64119
 H2108 H 0.75464 1.06685 0.60732
 C2109 C 0.76761 0.61095 1.11153
 C2110 C 0.77846 0.60050 1.13080
 C2111 C 0.79916 0.60961 1.13979
 C2112 C 0.80951 0.62938 1.12968
 C2113 C 0.79882 0.63960 1.11017
 C2114 C 0.77812 0.63050 1.10121
 C2115 C 0.74517 0.60184 1.10250
 C2116 C 0.72743 0.61724 1.09572
 C2117 C 0.70620 0.60877 1.08744
 C2118 C 0.70222 0.58469 1.08572
 C2119 C 0.71995 0.56926 1.09252
 C2120 C 0.74120 0.57774 1.10083
 H2121 H 0.80689 0.60130 1.15484
 H2122 H 0.80633 0.65476 1.10186
 H2123 H 0.69273 0.62110 1.08276
 H2124 H 0.71749 0.55062 1.09112
 H2125 H 0.77035 0.63872 1.08613
 H2126 H 0.72979 0.63588 1.09722
 H2127 H 0.77066 0.58558 1.13928
 H2128 H 0.75465 0.56545 1.10566
 C2129 C 1.26723 0.88718 0.88766
 C2130 C 1.27785 0.89761 0.86826
 C2131 C 1.29845 0.88853 0.85903
 C2132 C 1.30902 0.86874 0.86900
 C2133 C 1.29846 0.85856 0.88868
 C2134 C 1.27784 0.86766 0.89784
 C2135 C 1.24493 0.89637 0.89700
 C2136 C 1.22723 0.88103 0.90406
 C2137 C 1.20613 0.88958 0.91259
 C2138 C 1.20223 0.91367 0.91430
 C2139 C 1.21995 0.92903 0.90728
 C2140 C 1.24106 0.92047 0.89872
 H2141 H 1.30589 0.89698 0.84390
 H2142 H 1.30596 0.84342 0.89705
 H2143 H 1.19267 0.87730 0.91745
 H2144 H 1.21758 0.94768 0.90868
 H2145 H 1.27026 0.85945 0.91303
 H2146 H 1.22952 0.86238 0.90257
 H2147 H 1.26995 0.91254 0.85988
 H2148 H 1.25449 0.93272 0.89371
 C2149 C 1.26722 0.38772 0.38711
 C2150 C 1.27779 0.39809 0.36766
 C2151 C 1.29841 0.38902 0.35844
 C2152 C 1.30903 0.36930 0.36848
 C2153 C 1.29852 0.35919 0.38823
 C2154 C 1.27790 0.36827 0.39737
 C2155 C 1.24490 0.39685 0.39644
 C2156 C 1.22726 0.38147 0.40356
 C2157 C 1.20614 0.38997 0.41212
 C2158 C 1.20218 0.41406 0.41378
 C2159 C 1.21983 0.42946 0.40669
 C2160 C 1.24096 0.42095 0.39810
 H2161 H 1.30582 0.39741 0.34326
 H2162 H 1.30607 0.34411 0.39666
 H2163 H 1.19274 0.37766 0.41702
 H2164 H 1.21740 0.44810 0.40805
 H2165 H 1.27036 0.36011 0.41260
 H2166 H 1.22961 0.36283 0.40211
 H2167 H 1.26984 0.41296 0.35922
 H2168 H 1.25433 0.43323 0.39303
 C2169 C 0.76703 0.88800 0.38745
 C2170 C 0.77769 0.89843 0.36806
 C2171 C 0.79832 0.88934 0.35889
 C2172 C 0.80879 0.86962 0.36893
 C2173 C 0.79828 0.85940 0.38855
 C2174 C 0.77765 0.86848 0.39768
 C2175 C 0.74470 0.89713 0.39672
 C2176 C 0.72702 0.88175 0.40375
 C2177 C 0.70589 0.89024 0.41224
 C2178 C 0.70193 0.91433 0.41393
 C2179 C 0.71961 0.92973 0.40693
 C2180 C 0.74076 0.92122 0.39841
 H2181 H 0.80590 0.89765 0.34376
 H2182 H 0.80589 0.84427 0.39681
 H2183 H 0.69246 0.87793 0.41708
 H2184 H 0.71718 0.94837 0.40831
 H2185 H 0.77005 0.86026 0.41285
 H2186 H 0.72936 0.86310 0.40227
 H2187 H 0.76979 0.91334 0.35964
 H2188 H 0.75416 0.93350 0.39341
 C2189 C 0.76694 0.38741 0.88747
 C2190 C 0.77751 0.39791 0.86806
 C2191 C 0.79812 0.38887 0.85879
 C2192 C 0.80866 0.36914 0.86875
 C2193 C 0.79822 0.35886 0.88838
 C2194 C 0.77761 0.36788 0.89760
 C2195 C 0.74464 0.39652 0.89688
 C2196 C 0.72700 0.38113 0.90396
 C2197 C 0.70591 0.38960 0.91259
 C2198 C 0.70196 0.41368 0.91439
 C2199 C 0.71962 0.42910 0.90735
 C2200 C 0.74073 0.42061 0.89868
 H2201 H 0.80564 0.39722 0.84366
 H2202 H 0.80588 0.34371 0.89658
 H2203 H 0.69249 0.37728 0.91746
 H2204 H 0.71721 0.44774 0.90880
 H2205 H 0.77007 0.35962 0.91278
 H2206 H 0.72932 0.36248 0.90241
 H2207 H 0.76957 0.41283 0.85971
 H2208 H 0.75411 0.43291 0.89365
 C2209 C 0.73261 0.88854 1.11267
 C2210 C 0.72197 0.86919 1.10213
 C2211 C 0.70140 0.85990 1.11123
 C2212 C 0.69097 0.86978 1.13107
 C2213 C 0.70146 0.88935 1.14139
 C2214 C 0.72204 0.89860 1.13230
 C2215 C 0.75490 0.89791 1.10351
 C2216 C 0.77264 0.90483 1.11888
 C2217 C 0.79375 0.91334 1.11035
 C2218 C 0.79762 0.91518 1.08626
 C2219 C 0.77987 0.90832 1.07087
 C2220 C 0.75874 0.89976 1.07941
 H2221 H 0.69382 0.84481 1.10284
 H2222 H 0.69388 0.89749 1.15662
 H2223 H 0.80724 0.91808 1.12265
 H2224 H 0.78222 0.90981 1.05223
 H2225 H 0.72964 0.91373 1.14060
 H2226 H 0.77037 0.90322 1.13753
 H2227 H 0.72983 0.86090 1.08714
 H2228 H 0.74528 0.89485 1.06714
 C2229 C 0.73273 0.38780 0.61224
 C2230 C 0.72214 0.39820 0.63167
 C2231 C 0.70152 0.38911 0.64089
 C2232 C 0.69093 0.36935 0.63088
 C2233 C 0.70146 0.35923 0.61114
 C2234 C 0.72207 0.36833 0.60199
 C2235 C 0.75504 0.39694 0.60291
 C2236 C 0.77268 0.38156 0.59580
 C2237 C 0.79378 0.39005 0.58721
 C2238 C 0.79774 0.41414 0.58551
 C2239 C 0.78010 0.42954 0.59261
 C2240 C 0.75898 0.42104 0.60123
 H2241 H 0.69409 0.39751 0.65605
 H2242 H 0.69394 0.34413 0.60272
 H2243 H 0.80719 0.37774 0.58230
 H2244 H 0.78253 0.44819 0.59123
 H2245 H 0.72963 0.36016 0.58678
 H2246 H 0.77034 0.36291 0.59727
 H2247 H 0.73007 0.41309 0.64009
 H2248 H 0.74561 0.43332 0.60629
 C2249 C 0.23280 0.88818 0.61263
 C2250 C 0.22213 0.89826 0.63218
 C2251 C 0.20159 0.88894 0.64128
 C2252 C 0.19116 0.86919 0.63108
 C2253 C 0.20179 0.85933 0.61127
 C2254 C 0.22231 0.86872 0.60218
 C2255 C 0.25503 0.89769 0.60345
 C2256 C 0.25885 0.89951 0.57935
 C2257 C 0.27992 0.90821 0.57079
 C2258 C 0.29763 0.91524 0.58616
 C2259 C 0.29377 0.91345 0.61026
 C2260 C 0.27271 0.90479 0.61880
 H2261 H 0.19404 0.89723 0.65644
 H2262 H 0.19444 0.84416 0.60281
 H2263 H 0.28227 0.90967 0.55214
 H2264 H 0.30722 0.91831 0.62254
 H2265 H 0.23026 0.86043 0.58723
 H2266 H 0.24544 0.89447 0.56710
 H2267 H 0.22962 0.91348 0.64041
 H2268 H 0.27045 0.90323 0.63746
 C2269 C 0.23243 0.38770 1.11267
 C2270 C 0.22178 0.36821 1.10246
 C2271 C 0.20122 0.35907 1.11166
 C2272 C 0.19072 0.36917 1.13142
 C2273 C 0.20130 0.38895 1.14141
 C2274 C 0.22187 0.39808 1.13213
 C2275 C 0.25471 0.39688 1.10328
 C2276 C 0.25861 0.42098 1.10160
 C2277 C 0.27970 0.42952 1.09294
 C2278 C 0.29735 0.41414 1.08580
 C2279 C 0.29342 0.39005 1.08749
 C2280 C 0.27236 0.38152 1.09611
 H2281 H 0.19370 0.34395 1.10327
 H2282 H 0.19390 0.39734 1.15659
 H2283 H 0.28211 0.44817 1.09157
 H2284 H 0.30684 0.37776 1.08255
 H2285 H 0.22980 0.41299 1.14052
 H2286 H 0.24524 0.43324 1.10670
 H2287 H 0.22932 0.36005 1.08722
 H2288 H 0.27004 0.36287 1.09759
 C2289 C 0.73324 1.11296 0.88690
 C2290 C 0.72246 1.13230 0.89727
 C2291 C 0.70191 1.14147 0.88802
 C2292 C 0.69154 1.13151 0.86810
 C2293 C 0.70226 1.11188 0.85798
 C2294 C 0.72283 1.10278 0.86725
 C2295 C 0.75550 1.10371 0.89625
 C2296 C 0.77335 1.09675 0.88104
 C2297 C 0.79440 1.08825 0.88974
 C2298 C 0.79811 1.08646 0.91386
 C2299 C 0.78028 1.09345 0.92910
 C2300 C 0.75921 1.10199 0.92039
 H2301 H 0.69434 1.15655 0.89643
 H2302 H 0.69491 1.10352 0.84276
 H2303 H 0.80795 1.08343 0.87755
 H2304 H 0.78252 1.09201 0.94777
 H2305 H 0.73054 1.08764 0.85908
 H2306 H 0.77120 1.09827 0.86237
 H2307 H 0.73020 1.14068 0.91228
 H2308 H 0.74568 1.10695 0.93255
 C2309 C 0.73265 0.61202 0.38763
 C2310 C 0.72212 0.60183 0.36803
 C2311 C 0.70151 0.61094 0.35891
 C2312 C 0.69092 0.63050 0.36915
 C2313 C 0.70131 0.64051 0.38895
 C2314 C 0.72192 0.63136 0.39809
 C2315 C 0.75498 0.60278 0.39681
 C2316 C 0.75884 0.60101 0.42092
 C2317 C 0.77998 0.59248 0.42947
 C2318 C 0.79771 0.58556 0.41410
 C2319 C 0.79384 0.58736 0.39000
 C2320 C 0.77272 0.59585 0.38146
 H2321 H 0.69397 0.60271 0.34372
 H2322 H 0.69366 0.65559 0.39728
 H2323 H 0.78234 0.59103 0.44813
 H2324 H 0.80732 0.58259 0.37772
 H2325 H 0.72975 0.63975 0.41305
 H2326 H 0.74539 0.60594 0.43317
 H2327 H 0.72979 0.58671 0.35979
 H2328 H 0.77045 0.59740 0.36281
 C2329 C 0.23294 1.11295 0.38711
 C2330 C 0.22248 1.10267 0.36754
 C2331 C 0.20186 1.11168 0.35832
 C2332 C 0.19112 1.13131 0.36841
 C2333 C 0.20153 1.14136 0.38826
 C2334 C 0.22214 1.13229 0.39746
 C2335 C 0.25527 1.10381 0.39641
 C2336 C 0.25907 1.10217 0.42054
 C2337 C 0.28020 1.09373 0.42920
 C2338 C 0.29800 1.08676 0.41391
 C2339 C 0.29419 1.08846 0.38979
 C2340 C 0.27308 1.09686 0.38115
 H2341 H 0.19447 1.10325 0.34315
 H2342 H 0.19395 1.15645 0.39665
 H2343 H 0.28251 1.09235 0.44786
 H2344 H 0.30771 1.08366 0.37757
 H2345 H 0.22992 1.14075 0.41241
 H2346 H 0.24557 1.10711 0.43273
 H2347 H 0.23021 1.08753 0.35939
 H2348 H 0.27085 1.09832 0.36248
 C2349 C 0.23211 0.61130 0.88873
 C2350 C 0.22132 0.63055 0.89927
 C2351 C 0.20061 0.63959 0.89024
 C2352 C 0.19019 0.62955 0.87047
 C2353 C 0.20083 0.61006 0.86017
 C2354 C 0.22154 0.60106 0.86919
 C2355 C 0.25455 0.60221 0.89778
 C2356 C 0.27226 0.59544 0.88232
 C2357 C 0.29349 0.58711 0.89073
 C2358 C 0.29751 0.58530 0.91480
 C2359 C 0.27981 0.59206 0.93029
 C2360 C 0.25856 0.60043 0.92186
 H2361 H 0.19292 0.65463 0.89862
 H2362 H 0.19327 0.60180 0.84500
 H2363 H 0.30694 0.58246 0.87836
 H2364 H 0.28229 0.59060 0.94892
 H2365 H 0.22926 0.58599 0.86089
 H2366 H 0.26987 0.59701 0.86368
 H2367 H 0.22917 0.63898 0.91420
 H2368 H 0.24514 0.60524 0.93420
 C2369 C 1.11282 1.26721 1.11211
 C2370 C 1.10230 1.27784 1.13147
 C2371 C 1.11136 1.29845 1.14072
 C2372 C 1.13115 1.30892 1.13080
 C2373 C 1.14146 1.29843 1.11123
 C2374 C 1.13241 1.27781 1.10201
 C2375 C 1.10370 1.24489 1.10277
 C2376 C 1.11909 1.22719 1.09582
 C2377 C 1.11060 1.20605 1.08731
 C2378 C 1.08652 1.20212 1.08553
 C2379 C 1.07111 1.21983 1.09243
 C2380 C 1.07961 1.24099 1.10096
 H2381 H 1.10298 1.30602 1.15581
 H2382 H 1.15665 1.30604 1.10306
 H2383 H 1.12291 1.19259 1.08255
 H2384 H 1.05247 1.21742 1.09097
 H2385 H 1.14070 1.27022 1.08688
 H2386 H 1.13773 1.22950 1.09739
 H2387 H 1.08734 1.26995 1.13979
 H2388 H 1.06733 1.25441 1.10589
 C2389 C 1.11295 0.76703 0.61199
 C2390 C 1.13239 0.77761 0.60157
 C2391 C 1.14162 0.79823 0.61067
 C2392 C 1.13157 0.80875 0.63037
 C2393 C 1.11191 0.79830 0.64056
 C2394 C 1.10273 0.77769 0.63148
 C2395 C 1.10359 0.74472 0.60285
 C2396 C 1.09646 0.72708 0.61825
 C2397 C 1.08783 0.70600 0.60976
 C2398 C 1.08608 0.70205 0.58568
 C2399 C 1.09319 0.71968 0.57026
 C2400 C 1.10187 0.74078 0.57876
 H2401 H 1.15678 0.80577 0.60239
 H2402 H 1.10363 0.80594 0.65567
 H2403 H 1.08291 0.69260 0.62208
 H2404 H 1.09178 0.71726 0.55161
 H2405 H 1.08752 0.77014 0.63968
 H2406 H 1.09797 0.72942 0.63690
 H2407 H 1.14080 0.76968 0.58668
 H2408 H 1.10694 0.75415 0.56647
 C2409 C 0.61288 1.26749 0.61145
 C2410 C 0.60234 1.27817 0.63078
 C2411 C 0.61142 1.29878 0.64001
 C2412 C 0.63123 1.30921 0.63010
 C2413 C 0.64156 1.29868 0.61055
 C2414 C 0.63249 1.27807 0.60136
 C2415 C 0.60375 1.24517 0.60214
 C2416 C 0.61913 1.22744 0.59525
 C2417 C 0.61062 1.20629 0.58680
 C2418 C 0.58654 1.20237 0.58501
 C2419 C 0.57114 1.22012 0.59185
 C2420 C 0.57966 1.24129 0.60033
 H2421 H 0.60302 1.30637 0.65508
 H2422 H 0.65677 1.30626 0.60240
 H2423 H 0.62292 1.19280 0.58207
 H2424 H 0.55250 1.21772 0.59039
 H2425 H 0.64079 1.27044 0.58624
 H2426 H 0.63777 1.22974 0.59682
 H2427 H 0.58737 1.27030 0.63910
 H2428 H 0.56738 1.25474 0.60522
 C2429 C 0.61207 0.76696 1.11269
 C2430 C 0.63144 0.77766 1.10223
 C2431 C 0.64057 0.79831 1.11133
 C2432 C 0.63053 0.80876 1.13107
 C2433 C 0.61095 0.79820 1.14130
 C2434 C 0.60185 0.77755 1.13222
 C2435 C 0.60283 0.74461 1.10354
 C2436 C 0.59582 0.72692 1.11892
 C2437 C 0.58732 0.70579 1.11042
 C2438 C 0.58559 0.70185 1.08633
 C2439 C 0.59258 0.71953 1.07092
 C2440 C 0.60111 0.74069 1.07944
 H2441 H 0.65567 0.80593 1.10300
 H2442 H 0.60268 0.80579 1.15645
 H2443 H 0.58249 0.69235 1.12273
 H2444 H 0.59117 0.71711 1.05228
 H2445 H 0.58670 0.76992 1.14045
 H2446 H 0.59733 0.72925 1.13757
 H2447 H 0.63985 0.76978 1.08731
 H2448 H 0.60609 0.75410 1.06716
 C2449 C 0.88811 1.26720 0.88775
 C2450 C 0.86852 1.27779 0.89787
 C2451 C 0.85937 1.29832 0.88859
 C2452 C 0.86958 1.30876 0.86894
 C2453 C 0.88938 1.29833 0.85900
 C2454 C 0.89855 1.27779 0.86832
 C2455 C 0.89731 1.24495 0.89717
 C2456 C 0.92141 1.24113 0.89897
 C2457 C 0.92997 1.22006 0.90765
 C2458 C 0.91461 1.20235 0.91468
 C2459 C 0.89052 1.20619 0.91287
 C2460 C 0.88197 1.22724 0.90423
 H2461 H 0.84418 1.30590 0.89677
 H2462 H 0.89769 1.30586 0.84385
 H2463 H 0.94862 1.21771 0.90911
 H2464 H 0.87825 1.19273 0.91772
 H2465 H 0.91351 1.26992 0.85999
 H2466 H 0.93365 1.25456 0.89395
 H2467 H 0.86030 1.27023 0.91306
 H2468 H 0.86333 1.22950 0.90266
 C2469 C 0.88779 0.76723 0.38778
 C2470 C 0.89829 0.77786 0.36841
 C2471 C 0.88920 0.79845 0.35915
 C2472 C 0.86941 0.80891 0.36908
 C2473 C 0.85912 0.79842 0.38867
 C2474 C 0.86820 0.77783 0.39789
 C2475 C 0.89695 0.74495 0.39716
 C2476 C 0.88160 0.72723 0.40416
 C2477 C 0.89012 0.70614 0.41273
 C2478 C 0.91421 0.70225 0.41452
 C2479 C 0.92959 0.71997 0.40756
 C2480 C 0.92105 0.74109 0.39896
 H2481 H 0.89757 0.80602 0.34404
 H2482 H 0.84393 0.80602 0.39684
 H2483 H 0.87783 0.69267 0.41754
 H2484 H 0.94823 0.71760 0.40902
 H2485 H 0.85993 0.77024 0.41304
 H2486 H 0.86295 0.72951 0.40260
 H2487 H 0.91325 0.76998 0.36008
 H2488 H 0.93331 0.75452 0.39399
 C2489 C 0.38764 1.26784 0.38801
 C2490 C 0.36800 1.27833 0.39814
 C2491 C 0.35879 1.29886 0.38891
 C2492 C 0.36899 1.30939 0.36931
 C2493 C 0.38883 1.29905 0.35937
 C2494 C 0.39806 1.27852 0.36862
 C2495 C 0.39692 1.24559 0.39734
 C2496 C 0.42104 1.24182 0.39906
 C2497 C 0.42969 1.22072 0.40759
 C2498 C 0.41440 1.20294 0.41458
 C2499 C 0.39029 1.20672 0.41284
 C2500 C 0.38166 1.22780 0.40434
 H2501 H 0.34356 1.30638 0.39709
 H2502 H 0.39714 1.30665 0.34425
 H2503 H 0.44834 1.21841 0.40900
 H2504 H 0.37807 1.19321 0.41767
 H2505 H 0.41305 1.27072 0.36027
 H2506 H 0.43324 1.25530 0.39408
 H2507 H 0.35979 1.27069 0.41330
 H2508 H 0.36300 1.23000 0.40283
 C2509 C 0.38746 0.76714 0.88825
 C2510 C 0.39791 0.77783 0.86888
 C2511 C 0.38875 0.79840 0.85966
 C2512 C 0.36893 0.80878 0.86962
 C2513 C 0.35869 0.79823 0.88920
 C2514 C 0.36784 0.77766 0.89839
 C2515 C 0.39668 0.74485 0.89757
 C2516 C 0.38138 0.72710 0.90457
 C2517 C 0.38996 0.70602 0.91310
 C2518 C 0.41405 0.70218 0.91486
 C2519 C 0.42939 0.71993 0.90787
 C2520 C 0.42079 0.74104 0.89932
 H2521 H 0.39707 0.80601 0.84456
 H2522 H 0.34349 0.80577 0.89740
 H2523 H 0.37770 0.69253 0.91793
 H2524 H 0.44804 0.71759 0.90929
 H2525 H 0.35961 0.77002 0.91354
 H2526 H 0.36272 0.72935 0.90304
 H2527 H 0.41288 0.77000 0.86053
 H2528 H 0.43302 0.75450 0.89434
 C2529 C 1.11099 0.73190 0.88886
 C2530 C 1.13050 0.72131 0.89913
 C2531 C 1.13954 0.70063 0.89008
 C2532 C 1.12931 0.69006 0.87051
 C2533 C 1.10958 0.70049 0.86044
 C2534 C 1.10051 0.72117 0.86953
 C2535 C 1.10194 0.75433 0.89797
 C2536 C 1.07787 0.75836 0.89967
 C2537 C 1.06945 0.77961 0.90805
 C2538 C 1.08494 0.79728 0.91488
 C2539 C 1.10900 0.79324 0.91315
 C2540 C 1.11740 0.77202 0.90481
 H2541 H 1.15469 0.69305 0.89836
 H2542 H 1.10125 0.69285 0.84535
 H2543 H 1.05082 0.78212 0.90946
 H2544 H 1.12137 0.80667 0.91785
 H2545 H 1.08561 0.72904 0.86108
 H2546 H 1.06553 0.74496 0.89480
 H2547 H 1.13874 0.72898 0.91426
 H2548 H 1.13604 0.76960 0.90329
 C2549 C 1.11233 0.23264 0.38750
 C2550 C 1.13193 0.22216 0.39773
 C2551 C 1.14114 0.20159 0.38858
 C2552 C 1.13099 0.19103 0.36896
 C2553 C 1.11118 0.20135 0.35894
 C2554 C 1.10195 0.22191 0.36812
 C2555 C 1.10308 0.25493 0.39674
 C2556 C 1.07896 0.25874 0.39845
 C2557 C 1.07035 0.27986 0.40695
 C2558 C 1.08567 0.29763 0.41391
 C2559 C 1.10977 0.29381 0.41217
 C2560 C 1.11837 0.27271 0.40371
 H2561 H 1.15634 0.19409 0.39683
 H2562 H 1.10291 0.19372 0.34381
 H2563 H 1.05170 0.28219 0.40836
 H2564 H 1.12202 0.30732 0.41698
 H2565 H 1.08698 0.22970 0.35971
 H2566 H 1.06675 0.24526 0.39349
 H2567 H 1.14010 0.22983 0.41289
 H2568 H 1.13703 0.27048 0.40220
 C2569 C 0.61137 0.73272 0.38746
 C2570 C 0.60123 0.72212 0.36787
 C2571 C 0.61044 0.70153 0.35877
 C2572 C 0.63005 0.69105 0.36903
 C2573 C 0.64000 0.70150 0.38882
 C2574 C 0.63075 0.72209 0.39793
 C2575 C 0.60204 0.75502 0.39664
 C2576 C 0.60034 0.75890 0.42075
 C2577 C 0.59185 0.78005 0.42930
 C2578 C 0.58488 0.79777 0.41393
 C2579 C 0.58656 0.79386 0.38983
 C2580 C 0.59503 0.77273 0.38129
 H2581 H 0.60226 0.69393 0.34358
 H2582 H 0.65511 0.69394 0.39717
 H2583 H 0.59047 0.78245 0.44795
 H2584 H 0.58174 0.80732 0.37754
 H2585 H 0.63911 0.72997 0.41288
 H2586 H 0.60533 0.74547 0.43300
 H2587 H 0.58608 0.72971 0.35962
 H2588 H 0.59652 0.77043 0.36263
 C2589 C 0.61239 0.23277 0.88717
 C2590 C 0.63184 0.22225 0.89764
 C2591 C 0.64127 0.20178 0.88846
 C2592 C 0.63144 0.19133 0.86861
 C2593 C 0.61178 0.20170 0.85835
 C2594 C 0.60238 0.22218 0.86752
 C2595 C 0.60283 0.25494 0.89642
 C2596 C 0.59571 0.27266 0.88112
 C2597 C 0.58699 0.29366 0.88973
 C2598 C 0.58516 0.29744 0.91384
 C2599 C 0.59224 0.27971 0.92915
 C2600 C 0.60099 0.25869 0.92054
 H2601 H 0.65643 0.19429 0.89681
 H2602 H 0.60367 0.19411 0.84312
 H2603 H 0.58210 0.30714 0.87749
 H2604 H 0.59076 0.28200 0.94781
 H2605 H 0.58718 0.22968 0.85927
 H2606 H 0.59730 0.27046 0.86246
 H2607 H 0.64009 0.23013 0.91265
 H2608 H 0.60605 0.24525 0.93275
 C2609 C 0.88810 0.73221 1.11096
 C2610 C 0.89872 0.72149 1.13021
 C2611 C 0.88976 0.70079 1.13935
 C2612 C 0.86998 0.69032 1.12942
 C2613 C 0.85957 0.70089 1.10994
 C2614 C 0.86852 0.72160 1.10084
 C2615 C 0.89712 0.75463 1.10176
 C2616 C 0.88165 0.77234 1.09500
 C2617 C 0.89005 0.79358 1.08668
 C2618 C 0.91412 0.79762 1.08490
 C2619 C 0.92960 0.77990 1.09161
 C2620 C 0.92119 0.75864 1.09996
 H2621 H 0.89822 0.69316 1.15437
 H2622 H 0.84437 0.69329 1.10178
 H2623 H 0.87769 0.80704 1.08205
 H2624 H 0.94823 0.78239 1.09015
 H2625 H 0.86015 0.72927 1.08579
 H2626 H 0.86302 0.76993 1.09657
 H2627 H 0.91368 0.72937 1.13855
 H2628 H 0.93353 0.74522 1.10475
 C2629 C 0.88710 0.23278 0.61240
 C2630 C 0.86746 0.22220 0.60236
 C2631 C 0.85832 0.20168 0.61170
 C2632 C 0.86858 0.19127 0.63134
 C2633 C 0.88841 0.20172 0.64121
 C2634 C 0.89757 0.22223 0.63184
 C2635 C 0.89635 0.25499 0.60290
 C2636 C 0.92046 0.25875 0.60110
 C2637 C 0.92908 0.27980 0.59242
 C2638 C 0.91378 0.29754 0.58537
 C2639 C 0.88967 0.29375 0.58715
 C2640 C 0.88106 0.27272 0.59580
 H2641 H 0.84310 0.19409 0.60357
 H2642 H 0.89676 0.19421 0.65635
 H2643 H 0.94774 0.28210 0.59098
 H2644 H 0.87744 0.30723 0.58227
 H2645 H 0.91256 0.23010 0.64012
 H2646 H 0.93267 0.24530 0.60615
 H2647 H 0.85921 0.22973 0.58717
 H2648 H 0.86241 0.27051 0.59736
 C2649 C 0.38700 0.73310 0.61179
 C2650 C 0.36735 0.72258 0.60171
 C2651 C 0.35825 0.70197 0.61088
 C2652 C 0.36858 0.69139 0.63040
 C2653 C 0.38842 0.70178 0.64031
 C2654 C 0.39753 0.72238 0.63110
 C2655 C 0.39621 0.75540 0.60249
 C2656 C 0.42031 0.75922 0.60071
 C2657 C 0.42890 0.78037 0.59223
 C2658 C 0.41357 0.79815 0.58535
 C2659 C 0.38947 0.79431 0.58712
 C2660 C 0.38089 0.77318 0.59557
 H2661 H 0.34302 0.69442 0.60273
 H2662 H 0.39682 0.69414 0.65536
 H2663 H 0.44755 0.78271 0.59078
 H2664 H 0.37721 0.80782 0.58237
 H2665 H 0.41253 0.73020 0.63942
 H2666 H 0.43255 0.74574 0.60561
 H2667 H 0.35905 0.73025 0.58661
 H2668 H 0.36224 0.77093 0.59712
 C2669 C 0.38720 0.23235 1.11175
 C2670 C 0.39772 0.22179 1.13114
 C2671 C 0.38864 0.20123 1.14047
 C2672 C 0.36883 0.19075 1.13060
 C2673 C 0.35851 0.20117 1.11099
 C2674 C 0.36759 0.22173 1.10169
 C2675 C 0.39634 0.25463 1.10234
 C2676 C 0.38098 0.27234 1.09537
 C2677 C 0.38951 0.29347 1.08687
 C2678 C 0.41360 0.29737 1.08512
 C2679 C 0.42898 0.27964 1.09203
 C2680 C 0.42044 0.25849 1.10055
 H2681 H 0.39702 0.19372 1.15559
 H2682 H 0.34331 0.19354 1.10287
 H2683 H 0.37722 0.30694 1.08210
 H2684 H 0.44762 0.28202 1.09059
 H2685 H 0.35929 0.22929 1.08654
 H2686 H 0.36234 0.27005 1.09692
 H2687 H 0.41269 0.22969 1.13944
 H2688 H 0.43270 0.24506 1.10550
 C2689 C 1.11174 1.11253 0.73259
 C2690 C 1.13102 1.10206 0.72179
 C2691 C 1.14014 1.11122 0.70117
 C2692 C 1.13017 1.13106 0.69085
 C2693 C 1.11067 1.14133 0.70149
 C2694 C 1.10157 1.13218 0.72212
 C2695 C 1.10256 1.10330 0.75493
 C2696 C 1.09573 1.11860 0.77275
 C2697 C 1.08740 1.11001 0.79392
 C2698 C 1.08566 1.08591 0.79776
 C2699 C 1.09248 1.07058 0.77994
 C2700 C 1.10084 1.07919 0.75875
 H2701 H 1.15518 1.10286 0.69348
 H2702 H 1.10248 1.15656 0.69400
 H2703 H 1.08270 1.12226 0.80746
 H2704 H 1.09106 1.05193 0.78228
 H2705 H 1.08650 1.14044 0.72986
 H2706 H 1.09725 1.13726 0.77050
 H2707 H 1.13939 1.08706 0.72956
 H2708 H 1.10569 1.06697 0.74524
 C2709 C 1.11235 0.61335 0.23270
 C2710 C 1.13172 0.60295 0.22203
 C2711 C 1.14099 0.61215 0.20149
 C2712 C 1.13109 0.63204 0.19104
 C2713 C 1.11143 0.64219 0.20166
 C2714 C 1.10223 0.63298 0.22221
 C2715 C 1.10299 0.60402 0.25494
 C2716 C 1.09598 0.61924 0.27276
 C2717 C 1.08747 0.61056 0.29382
 C2718 C 1.08572 0.58644 0.29755
 C2719 C 1.09269 0.57119 0.27972
 C2720 C 1.10124 0.57989 0.25864
 H2721 H 1.15610 0.60371 0.19400
 H2722 H 1.10312 0.65740 0.19424
 H2723 H 1.08266 0.62275 0.30737
 H2724 H 1.09126 0.55253 0.28196
 H2725 H 1.08707 0.64117 0.22985
 H2726 H 1.09751 0.63791 0.27060
 H2727 H 1.14006 0.58795 0.22983
 H2728 H 1.10621 0.56773 0.24512
 C2729 C 0.61235 1.11322 0.23250
 C2730 C 0.63176 1.10282 0.22188
 C2731 C 0.64104 1.11198 0.20133
 C2732 C 0.63110 1.13181 0.19080
 C2733 C 0.61140 1.14195 0.20136
 C2734 C 0.60220 1.13279 0.22193
 C2735 C 0.60298 1.10397 0.25476
 C2736 C 0.59597 1.11926 0.27252
 C2737 C 0.58742 1.11065 0.29360
 C2738 C 0.58564 1.08655 0.29740
 C2739 C 0.59261 1.07124 0.27962
 C2740 C 0.60120 1.07986 0.25853
 H2741 H 0.65617 1.10356 0.19388
 H2742 H 0.60306 1.15712 0.19388
 H2743 H 0.58261 1.12289 0.30711
 H2744 H 0.59116 1.05258 0.28192
 H2745 H 0.58701 1.14098 0.22952
 H2746 H 0.59752 1.13792 0.27030
 H2747 H 0.64011 1.08787 0.22975
 H2748 H 0.60619 1.06765 0.24506
 C2749 C 0.61177 0.61180 0.73276
 C2750 C 0.63126 0.60157 0.72210
 C2751 C 0.64031 0.61070 0.70146
 C2752 C 0.63009 0.63031 0.69096
 C2753 C 0.61038 0.64036 0.70147
 C2754 C 0.60132 0.63120 0.72212
 C2755 C 0.60267 0.60254 0.75512
 C2756 C 0.57859 0.60086 0.75910
 C2757 C 0.57012 0.59235 0.78028
 C2758 C 0.58555 0.58534 0.79793
 C2759 C 0.60963 0.58701 0.79393
 C2760 C 0.61809 0.59550 0.77277
 H2761 H 0.65543 0.60243 0.69382
 H2762 H 0.60207 0.65549 0.69390
 H2763 H 0.55148 0.59098 0.78274
 H2764 H 0.62196 0.58216 0.80734
 H2765 H 0.58644 0.63962 0.73004
 H2766 H 0.56629 0.60587 0.74572
 H2767 H 0.63949 0.58640 0.72970
 H2768 H 0.63673 0.59697 0.77039
 C2769 C 0.88866 0.88875 0.73212
 C2770 C 0.89888 0.86919 0.72156
 C2771 C 0.88982 0.86013 0.70089
 C2772 C 0.87028 0.87039 0.69029
 C2773 C 0.86026 0.89017 0.70069
 C2774 C 0.86936 0.89925 0.72136
 C2775 C 0.89779 0.89783 0.75454
 C2776 C 0.89956 0.92191 0.75851
 C2777 C 0.90795 0.93036 0.77975
 C2778 C 0.91474 0.91490 0.79747
 C2779 C 0.91295 0.89083 0.79348
 C2780 C 0.90459 0.88239 0.77226
 H2781 H 0.89806 0.84496 0.69333
 H2782 H 0.84520 0.89852 0.69303
 H2783 H 0.90941 0.94899 0.78221
 H2784 H 0.91762 0.87848 0.80694
 H2785 H 0.86096 0.91418 0.72921
 H2786 H 0.89473 0.93422 0.74508
 H2787 H 0.91397 0.86093 0.72926
 H2788 H 0.90303 0.86376 0.76989
 C2789 C 0.88776 0.38824 0.23200
 C2790 C 0.86822 0.39837 0.22137
 C2791 C 0.85911 0.38915 0.20079
 C2792 C 0.86930 0.36944 0.19028
 C2793 C 0.88913 0.35955 0.20084
 C2794 C 0.89822 0.36885 0.22142
 C2795 C 0.89691 0.39759 0.25431
 C2796 C 0.92101 0.39931 0.25822
 C2797 C 0.92953 0.40780 0.27939
 C2798 C 0.91414 0.41475 0.29710
 C2799 C 0.89006 0.41305 0.29316
 C2800 C 0.88154 0.40458 0.27201
 H2801 H 0.84395 0.39746 0.19328
 H2802 H 0.89759 0.34442 0.19343
 H2803 H 0.94818 0.40919 0.28180
 H2804 H 0.87776 0.41785 0.30662
 H2805 H 0.91316 0.36050 0.22933
 H2806 H 0.93327 0.39434 0.24480
 H2807 H 0.86000 0.41356 0.22894
 H2808 H 0.86290 0.40308 0.26969
 C2809 C 0.38833 0.88810 0.23240
 C2810 C 0.36910 0.89854 0.22148
 C2811 C 0.36005 0.88929 0.20088
 C2812 C 0.37004 0.86939 0.19069
 C2813 C 0.38952 0.85918 0.20144
 C2814 C 0.39854 0.86842 0.22206
 C2815 C 0.39740 0.89738 0.25477
 C2816 C 0.40411 0.88210 0.27265
 C2817 C 0.41241 0.89072 0.29382
 C2818 C 0.41422 0.91483 0.29760
 C2819 C 0.40747 0.93013 0.27974
 C2820 C 0.39915 0.92150 0.25855
 H2821 H 0.34503 0.89762 0.19310
 H2822 H 0.39773 0.84391 0.19404
 H2823 H 0.41705 0.87849 0.30739
 H2824 H 0.40893 0.94879 0.28205
 H2825 H 0.41359 0.86019 0.22988
 H2826 H 0.40255 0.86344 0.27044
 H2827 H 0.36070 0.91357 0.22917
 H2828 H 0.39436 0.93370 0.24499
 C2829 C 0.38704 0.38724 0.73272
 C2830 C 0.36751 0.39733 0.72204
 C2831 C 0.35838 0.38801 0.70150
 C2832 C 0.36854 0.36823 0.69108
 C2833 C 0.38834 0.35835 0.70173
 C2834 C 0.39744 0.36775 0.72225
 C2835 C 0.39626 0.39676 0.75494
 C2836 C 0.42037 0.39846 0.75878
 C2837 C 0.42896 0.40715 0.77984
 C2838 C 0.41364 0.41431 0.79752
 C2839 C 0.38954 0.41265 0.79365
 C2840 C 0.38095 0.40399 0.77261
 H2841 H 0.34325 0.39632 0.69393
 H2842 H 0.39677 0.34316 0.69440
 H2843 H 0.44762 0.40851 0.78219
 H2844 H 0.37729 0.41761 0.80709
 H2845 H 0.41236 0.35942 0.73021
 H2846 H 0.43259 0.39332 0.74538
 H2847 H 0.35931 0.41258 0.72951
 H2848 H 0.36230 0.40251 0.77034
 C2849 C 1.11190 0.88754 1.26782
 C2850 C 1.13127 0.89805 1.27840
 C2851 C 1.14055 0.88904 1.29902
 C2852 C 1.13065 0.86924 1.30964
 C2853 C 1.11098 0.85899 1.29912
 C2854 C 1.10178 0.86801 1.27849
 C2855 C 1.10253 0.89664 1.24550
 C2856 C 1.09550 0.88124 1.22783
 C2857 C 1.08699 0.88971 1.20668
 C2858 C 1.08529 0.91379 1.20271
 C2859 C 1.09226 0.92921 1.22039
 C2860 C 1.10079 0.92073 1.24155
 H2861 H 1.15566 0.89754 1.30644
 H2862 H 1.10267 0.84384 1.30667
 H2863 H 1.08217 0.87739 1.19325
 H2864 H 1.09086 0.94786 1.21795
 H2865 H 1.08661 0.85975 1.27094
 H2866 H 1.09701 0.86259 1.23018
 H2867 H 1.13961 0.91298 1.27046
 H2868 H 1.10578 0.93303 1.25495
 C2869 C 1.11176 0.38717 0.76720
 C2870 C 1.13124 0.39741 0.77788
 C2871 C 1.14028 0.38825 0.79852
 C2872 C 1.13008 0.36860 0.80897
 C2873 C 1.11038 0.35855 0.79845
 C2874 C 1.10132 0.36775 0.77780
 C2875 C 1.10269 0.39649 0.74486
 C2876 C 1.07861 0.39825 0.74088
 C2877 C 1.07016 0.40689 0.71974
 C2878 C 1.08562 0.41391 0.70211
 C2879 C 1.10969 0.41212 0.70610
 C2880 C 1.11812 0.40353 0.72723
 H2881 H 1.15539 0.39653 0.80617
 H2882 H 1.10209 0.34340 0.80599
 H2883 H 1.05153 0.40833 0.71729
 H2884 H 1.12203 0.41697 0.69270
 H2885 H 1.08643 0.35934 0.76986
 H2886 H 1.06630 0.39324 0.75425
 H2887 H 1.13945 0.41260 0.77032
 H2888 H 1.13676 0.40199 0.72960
 C2889 C 0.61147 0.88828 0.76764
 C2890 C 0.63096 0.89854 0.77829
 C2891 C 0.63997 0.88948 0.79898
 C2892 C 0.62972 0.86990 0.80952
 C2893 C 0.61001 0.85983 0.79903
 C2894 C 0.60098 0.86894 0.77834
 C2895 C 0.60242 0.89747 0.74523
 C2896 C 0.57835 0.89922 0.74122
 C2897 C 0.56993 0.90771 0.72001
 C2898 C 0.58541 0.91462 0.70236
 C2899 C 0.60948 0.91284 0.70639
 C2900 C 0.61788 0.90439 0.72758
 H2901 H 0.65509 0.89776 0.80660
 H2902 H 0.60168 0.84474 0.80665
 H2903 H 0.55130 0.90915 0.71752
 H2904 H 0.62184 0.91760 0.69298
 H2905 H 0.58609 0.86050 0.77043
 H2906 H 0.56602 0.89430 0.75460
 H2907 H 0.63920 0.91368 0.77065
 H2908 H 0.63651 0.90285 0.72998
 C2909 C 0.61184 0.38660 1.26755
 C2910 C 0.63127 0.39705 1.27809
 C2911 C 0.64062 0.38795 1.29863
 C2912 C 0.63075 0.36811 1.30922
 C2913 C 0.61104 0.35791 1.29874
 C2914 C 0.60175 0.36703 1.27818
 C2915 C 0.60240 0.39580 1.24530
 C2916 C 0.59531 0.38048 1.22758
 C2917 C 0.58677 0.38906 1.20649
 C2918 C 0.58508 0.41316 1.20262
 C2919 C 0.59210 0.42850 1.22036
 C2920 C 0.60067 0.41991 1.24146
 H2921 H 0.65577 0.39642 1.30601
 H2922 H 0.60275 0.34274 1.30627
 H2923 H 0.58191 0.37680 1.19301
 H2924 H 0.59072 0.44715 1.21800
 H2925 H 0.58655 0.35880 1.27065
 H2926 H 0.59681 0.36183 1.22985
 H2927 H 0.63958 0.41200 1.27017
 H2928 H 0.60570 0.43214 1.25490
 C2929 C 0.88851 1.11295 1.26776
 C2930 C 0.86908 1.10254 1.27833
 C2931 C 0.85975 1.11171 1.29885
 C2932 C 0.86962 1.13158 1.30937
 C2933 C 0.88935 1.14173 1.29886
 C2934 C 0.89862 1.13254 1.27834
 C2935 C 0.89791 1.10369 1.24552
 C2936 C 0.90499 1.11897 1.22777
 C2937 C 0.91349 1.11035 1.20668
 C2938 C 0.91516 1.08623 1.20285
 C2939 C 0.90814 1.07093 1.22061
 C2940 C 0.89960 1.07957 1.24172
 H2941 H 0.84460 1.10327 1.30625
 H2942 H 0.89764 1.15692 1.30635
 H2943 H 0.91835 1.12258 1.19319
 H2944 H 0.90950 1.05228 1.21828
 H2945 H 0.91382 1.14073 1.27078
 H2946 H 0.90351 1.13763 1.23000
 H2947 H 0.86075 1.08757 1.27046
 H2948 H 0.89457 1.06736 1.25518
 C2949 C 0.88835 0.61185 0.76745
 C2950 C 0.86900 0.60134 0.77810
 C2951 C 0.85976 0.61044 0.79870
 C2952 C 0.86969 0.63024 0.80915
 C2953 C 0.88927 0.64052 0.79864
 C2954 C 0.89847 0.63144 0.77804
 C2955 C 0.89767 0.60270 0.74513
 C2956 C 0.90462 0.61808 0.72741
 C2957 C 0.91310 0.60957 0.70627
 C2958 C 0.91486 0.58549 0.70235
 C2959 C 0.90795 0.57009 0.72007
 C2960 C 0.89943 0.57861 0.74123
 H2961 H 0.84467 0.60207 0.80628
 H2962 H 0.89745 0.65572 0.80623
 H2963 H 0.91787 0.62188 0.69281
 H2964 H 0.90938 0.55145 0.71767
 H2965 H 0.91361 0.63972 0.77043
 H2966 H 0.90307 0.63673 0.72972
 H2967 H 0.86066 0.58638 0.77023
 H2968 H 0.89450 0.56633 0.75466
 C2969 C 0.38812 1.11334 0.76722
 C2970 C 0.36869 1.10290 0.77777
 C2971 C 0.35933 1.11204 0.79829
 C2972 C 0.36917 1.13191 0.80884
 C2973 C 0.38888 1.14211 0.79834
 C2974 C 0.39818 1.13294 0.77781
 C2975 C 0.39758 1.10409 0.74499
 C2976 C 0.40470 1.11937 0.72726
 C2977 C 0.41329 1.11075 0.70621
 C2978 C 0.41499 1.08664 0.70238
 C2979 C 0.40792 1.07134 0.72013
 C2980 C 0.39931 1.07997 0.74120
 H2981 H 0.34419 1.10358 0.80569
 H2982 H 0.39715 1.15731 0.80583
 H2983 H 0.41818 1.12298 0.69272
 H2984 H 0.40931 1.05268 0.71781
 H2985 H 0.41338 1.14117 0.77027
 H2986 H 0.40320 1.13803 0.72949
 H2987 H 0.36040 1.08792 0.76989
 H2988 H 0.39425 1.06776 0.75465
 C2989 C 0.38809 0.61212 1.26797
 C2990 C 0.39828 0.63170 1.27850
 C2991 C 0.38913 0.64089 1.29908
 C2992 C 0.36945 0.63076 1.30969
 C2993 C 0.35951 0.61089 1.29922
 C2994 C 0.36872 0.60172 1.27865
 C2995 C 0.39735 0.60288 1.24566
 C2996 C 0.39900 0.57876 1.24181
 C2997 C 0.40743 0.57015 1.22066
 C2998 C 0.41439 0.58548 1.20289
 C2999 C 0.41273 0.60959 1.20676
 C3000 C 0.40433 0.61818 1.22789
 H3001 H 0.39748 0.65608 1.30652
 H3002 H 0.34439 0.60247 1.30670
 H3003 H 0.40879 0.55150 1.21829
 H3004 H 0.41754 0.62184 1.19326
 H3005 H 0.36034 0.58676 1.27082
 H3006 H 0.39403 0.56654 1.25528
 H3007 H 0.41345 0.63988 1.27086
 H3008 H 0.40286 0.63684 1.23016
 C3009 C 1.11257 1.26718 0.88821
 C3010 C 1.10208 1.27768 0.86878
 C3011 C 1.11110 1.29827 0.85944
 C3012 C 1.13088 1.30894 0.86934
 C3013 C 1.14110 1.29850 0.88907
 C3014 C 1.13207 1.27790 0.89833
 C3015 C 1.10349 1.24489 0.89764
 C3016 C 1.11890 1.22723 0.90467
 C3017 C 1.11044 1.20611 0.91323
 C3018 C 1.08636 1.20214 0.91502
 C3019 C 1.07094 1.21982 0.90807
 C3020 C 1.07940 1.24096 0.89946
 H3021 H 1.10262 1.30562 0.84429
 H3022 H 1.15622 1.30608 0.89739
 H3023 H 1.12277 1.19268 0.91803
 H3024 H 1.05230 1.21740 0.90953
 H3025 H 1.14032 1.27040 0.91354
 H3026 H 1.13754 1.22958 0.90310
 H3027 H 1.08717 1.26970 0.86045
 H3028 H 1.06711 1.25435 0.89448
 C3029 C 1.11204 0.76749 0.38802
 C3030 C 1.10175 0.77805 0.36849
 C3031 C 1.11081 0.79870 0.35938
 C3032 C 1.13039 0.80928 0.36956
 C3033 C 1.14048 0.79888 0.38931
 C3034 C 1.13140 0.77823 0.39844
 C3035 C 1.10287 0.74512 0.39718
 C3036 C 1.10123 0.74118 0.42129
 C3037 C 1.09276 0.72001 0.42981
 C3038 C 1.08576 0.70232 0.41441
 C3039 C 1.08744 0.70627 0.39032
 C3040 C 1.09588 0.72742 0.38181
 H3041 H 1.10251 0.80625 0.34423
 H3042 H 1.15559 0.80653 0.39760
 H3043 H 1.09140 0.71758 0.44846
 H3044 H 1.08260 0.69282 0.37801
 H3045 H 1.13985 0.77039 0.41335
 H3046 H 1.10620 0.75460 0.43356
 H3047 H 1.08661 0.77038 0.36030
 H3048 H 1.09733 0.72975 0.36316
 C3049 C 0.61280 1.26745 0.38764
 C3050 C 0.60232 1.27794 0.36820
 C3051 C 0.61139 1.29848 0.35880
 C3052 C 0.63120 1.30911 0.36866
 C3053 C 0.64142 1.29869 0.38840
 C3054 C 0.63235 1.27814 0.39771
 C3055 C 0.60366 1.24521 0.39712
 C3056 C 0.61903 1.22751 0.40413
 C3057 C 0.61051 1.20642 0.41272
 C3058 C 0.58642 1.20253 0.41455
 C3059 C 0.57104 1.22026 0.40761
 C3060 C 0.57957 1.24136 0.39898
 H3061 H 0.60291 1.30582 0.34364
 H3062 H 0.65658 1.30625 0.39668
 H3063 H 0.62281 1.19295 0.41751
 H3064 H 0.55240 1.21789 0.40910
 H3065 H 0.64059 1.27064 0.41292
 H3066 H 0.63767 1.22980 0.40254
 H3067 H 0.58738 1.26998 0.35990
 H3068 H 0.56731 1.25478 0.39400
 C3069 C 0.61162 0.76762 0.88915
 C3070 C 0.60108 0.77823 0.86978
 C3071 C 0.61010 0.79886 0.86055
 C3072 C 0.62984 0.80939 0.87050
 C3073 C 0.64016 0.79893 0.89009
 C3074 C 0.63116 0.77829 0.89929
 C3075 C 0.60257 0.74526 0.89846
 C3076 C 0.61801 0.72760 0.90539
 C3077 C 0.60958 0.70641 0.91382
 C3078 C 0.58551 0.70238 0.91554
 C3079 C 0.57005 0.72006 0.90867
 C3080 C 0.57849 0.74127 0.90021
 H3081 H 0.60171 0.80640 0.84544
 H3082 H 0.65531 0.80658 0.89828
 H3083 H 0.62193 0.69298 0.91856
 H3084 H 0.55142 0.71758 0.91008
 H3085 H 0.63945 0.77072 0.91443
 H3086 H 0.63664 0.72999 0.90386
 H3087 H 0.58616 0.77029 0.86143
 H3088 H 0.56617 0.75466 0.89529
 C3089 C 0.88854 1.26736 1.11224
 C3090 C 0.89898 1.27811 1.13158
 C3091 C 0.88983 1.29873 1.14071
 C3092 C 0.87005 1.30910 1.13068
 C3093 C 0.85984 1.29851 1.11110
 C3094 C 0.86897 1.27788 1.10201
 C3095 C 0.89770 1.24501 1.10304
 C3096 C 0.88233 1.22727 1.09614
 C3097 C 0.89084 1.20613 1.08767
 C3098 C 0.91493 1.20223 1.08588
 C3099 C 0.93032 1.21996 1.09278
 C3100 C 0.92180 1.24112 1.10128
 H3101 H 0.89814 1.30639 1.15581
 H3102 H 0.84466 1.30603 1.10284
 H3103 H 0.87854 1.19265 1.08292
 H3104 H 0.94896 1.21757 1.09133
 H3105 H 0.86075 1.27020 1.08688
 H3106 H 0.86369 1.22957 1.09769
 H3107 H 0.91393 1.27029 1.13999
 H3108 H 0.93406 1.25457 1.10619
 C3109 C 0.88850 0.76762 0.61145
 C3110 C 0.86897 0.77820 0.60120
 C3111 C 0.85995 0.79890 0.61022
 C3112 C 0.87023 0.80951 0.62975
 C3113 C 0.88997 0.79909 0.63980
 C3114 C 0.89901 0.77839 0.63074
 C3115 C 0.89757 0.74520 0.60232
 C3116 C 0.92166 0.74122 0.60058
 C3117 C 0.93010 0.71999 0.59218
 C3118 C 0.91464 0.70228 0.58535
 C3119 C 0.89057 0.70628 0.58712
 C3120 C 0.88214 0.72749 0.59549
 H3121 H 0.84479 0.80647 0.60196
 H3122 H 0.89833 0.80676 0.65486
 H3123 H 0.94873 0.71752 0.59074
 H3124 H 0.87822 0.69283 0.58242
 H3125 H 0.91393 0.77053 0.63917
 H3126 H 0.93397 0.75464 0.60543
 H3127 H 0.86070 0.77049 0.58610
 H3128 H 0.86350 0.72987 0.59702
 C3129 C 0.38800 1.26736 0.61326
 C3130 C 0.39808 1.27794 0.63288
 C3131 C 0.38875 1.29844 0.64209
 C3132 C 0.36901 1.30891 0.63194
 C3133 C 0.35915 1.29838 0.61207
 C3134 C 0.36854 1.27790 0.60288
 C3135 C 0.39750 1.24518 0.60395
 C3136 C 0.39917 1.24144 0.57981
 C3137 C 0.40779 1.22039 0.57112
 C3138 C 0.41491 1.20263 0.58637
 C3139 C 0.41327 1.20641 0.61049
 C3140 C 0.40468 1.22743 0.61918
 H3141 H 0.39703 1.30593 0.65729
 H3142 H 0.34399 1.30575 0.60363
 H3143 H 0.40913 1.21811 0.55245
 H3144 H 0.41821 1.19291 0.62269
 H3145 H 0.36023 1.27002 0.58790
 H3146 H 0.39406 1.25490 0.56764
 H3147 H 0.41330 1.27042 0.64107
 H3148 H 0.40322 1.22962 0.63785
 C3149 C 0.38785 0.76724 1.11255
 C3150 C 0.39824 0.77795 1.13193
 C3151 C 0.38917 0.79863 1.14101
 C3152 C 0.36942 0.80918 1.13093
 C3153 C 0.35930 0.79853 1.11126
 C3154 C 0.36839 0.77785 1.10224
 C3155 C 0.39700 0.74486 1.10337
 C3156 C 0.38163 0.72717 1.09635
 C3157 C 0.39013 0.70602 1.08790
 C3158 C 0.41422 0.70205 1.08624
 C3159 C 0.42961 0.71973 1.09327
 C3160 C 0.42110 0.74091 1.10175
 H3161 H 0.39757 0.80614 1.15613
 H3162 H 0.34421 0.80601 1.10279
 H3163 H 0.37782 0.69259 1.08305
 H3164 H 0.44825 0.71730 1.09192
 H3165 H 0.36022 0.77019 1.08707
 H3166 H 0.36298 0.72952 1.09779
 H3167 H 0.41312 0.77007 1.14040
 H3168 H 0.43337 0.75431 1.10675
 C3169 C 0.88755 0.73287 0.88833
 C3170 C 0.86798 0.72225 0.89846
 C3171 C 0.85898 0.70159 0.88931
 C3172 C 0.86932 0.69105 0.86978
 C3173 C 0.88909 0.70153 0.85983
 C3174 C 0.89810 0.72219 0.86901
 C3175 C 0.89664 0.75522 0.89762
 C3176 C 0.92073 0.75916 0.89942
 C3177 C 0.92920 0.78034 0.90792
 C3178 C 0.91377 0.79805 0.91478
 C3179 C 0.88970 0.79409 0.91300
 C3180 C 0.88123 0.77292 0.90454
 H3181 H 0.84380 0.69398 0.89750
 H3182 H 0.89749 0.69393 0.84476
 H3183 H 0.94784 0.78277 0.90938
 H3184 H 0.87737 0.80754 0.91774
 H3185 H 0.91305 0.73009 0.86067
 H3186 H 0.93302 0.74574 0.89453
 H3187 H 0.85967 0.72988 0.91357
 H3188 H 0.86259 0.77058 0.90297
 C3189 C 0.88757 0.23257 0.38736
 C3190 C 0.89800 0.22201 0.36793
 C3191 C 0.88893 0.20143 0.35864
 C3192 C 0.86915 0.19081 0.36858
 C3193 C 0.85897 0.20130 0.38830
 C3194 C 0.86806 0.22190 0.39752
 C3195 C 0.89673 0.25486 0.39674
 C3196 C 0.88137 0.27254 0.40382
 C3197 C 0.88990 0.29365 0.41235
 C3198 C 0.91399 0.29759 0.41403
 C3199 C 0.92936 0.27991 0.40700
 C3200 C 0.92083 0.25877 0.39844
 H3201 H 0.89738 0.19403 0.34349
 H3202 H 0.84384 0.19375 0.39664
 H3203 H 0.87761 0.30709 0.41721
 H3204 H 0.94801 0.28231 0.40837
 H3205 H 0.85985 0.22944 0.41273
 H3206 H 0.86272 0.27021 0.40234
 H3207 H 0.91291 0.22995 0.35957
 H3208 H 0.93309 0.24537 0.39341
 C3209 C 0.38773 0.73296 0.38795
 C3210 C 0.39828 0.72236 0.36858
 C3211 C 0.38931 0.70169 0.35936
 C3212 C 0.36960 0.69112 0.36933
 C3213 C 0.35927 0.70158 0.38891
 C3214 C 0.36822 0.72225 0.39809
 C3215 C 0.39677 0.75531 0.39731
 C3216 C 0.38132 0.77294 0.40432
 C3217 C 0.38973 0.79409 0.41286
 C3218 C 0.41380 0.79813 0.41462
 C3219 C 0.42926 0.78048 0.40767
 C3220 C 0.42084 0.75931 0.39910
 H3221 H 0.39770 0.69415 0.34426
 H3222 H 0.34413 0.69390 0.39712
 H3223 H 0.37737 0.80749 0.41766
 H3224 H 0.44790 0.78296 0.40911
 H3225 H 0.35992 0.72981 0.41324
 H3226 H 0.36268 0.77054 0.40277
 H3227 H 0.41319 0.73032 0.36023
 H3228 H 0.43317 0.74595 0.39413
 C3229 C 0.38707 0.23280 0.88706
 C3230 C 0.39751 0.22233 0.86759
 C3231 C 0.38846 0.20177 0.85822
 C3232 C 0.36869 0.19109 0.86812
 C3233 C 0.35850 0.20151 0.88788
 C3234 C 0.36756 0.22208 0.89717
 C3235 C 0.39622 0.25504 0.89657
 C3236 C 0.38086 0.27269 0.90373
 C3237 C 0.38938 0.29375 0.91239
 C3238 C 0.41347 0.29767 0.91413
 C3239 C 0.42885 0.28000 0.90704
 C3240 C 0.42031 0.25893 0.89834
 H3241 H 0.39691 0.19443 0.84304
 H3242 H 0.34338 0.19392 0.89620
 H3243 H 0.37709 0.30717 0.91730
 H3244 H 0.44749 0.28239 0.90846
 H3245 H 0.35935 0.22955 0.91241
 H3246 H 0.36221 0.27038 0.90220
 H3247 H 0.41242 0.23031 0.85926
 H3248 H 0.43258 0.24554 0.89325
 C3249 C 1.11245 0.73286 1.11307
 C3250 C 1.10228 0.72234 1.13266
 C3251 C 1.11147 0.70180 1.14189
 C3252 C 1.13117 0.69121 1.13178
 C3253 C 1.14111 0.70167 1.11192
 C3254 C 1.13186 0.72221 1.10271
 C3255 C 1.10308 0.75509 1.10375
 C3256 C 1.10139 0.75885 1.07962
 C3257 C 1.09277 0.77990 1.07094
 C3258 C 1.08566 0.79766 1.08620
 C3259 C 1.08736 0.79389 1.11033
 C3260 C 1.09595 0.77286 1.11899
 H3261 H 1.10311 0.69437 1.15707
 H3262 H 1.15625 0.69420 1.10352
 H3263 H 1.09140 0.78218 1.05227
 H3264 H 1.08244 0.80739 1.12253
 H3265 H 1.14023 0.73004 1.08774
 H3266 H 1.10646 0.74538 1.06744
 H3267 H 1.08709 0.72995 1.14082
 H3268 H 1.09743 0.77067 1.13766
 C3269 C 1.11228 0.23245 0.61175
 C3270 C 1.13181 0.22182 0.60159
 C3271 C 1.14093 0.20126 0.61082
 C3272 C 1.13079 0.19075 0.63056
 C3273 C 1.11098 0.20133 0.64049
 C3274 C 1.10187 0.22189 0.63119
 C3275 C 1.10309 0.25472 0.60236
 C3276 C 1.07899 0.25858 0.60063
 C3277 C 1.07042 0.27969 0.59204
 C3278 C 1.08578 0.29740 0.58502
 C3279 C 1.10987 0.29352 0.58673
 C3280 C 1.11842 0.27242 0.59528
 H3281 H 1.15608 0.19374 0.60248
 H3282 H 1.10256 0.19393 0.65565
 H3283 H 1.05178 0.28206 0.59065
 H3284 H 1.12215 0.30698 0.58187
 H3285 H 1.08694 0.22980 0.63954
 H3286 H 1.06674 0.24516 0.60566
 H3287 H 1.14000 0.22937 0.58638
 H3288 H 1.13707 0.27014 0.59678
 C3289 C 0.61169 0.73264 0.61149
 C3290 C 0.63125 0.72204 0.60132
 C3291 C 0.64032 0.70142 0.61050
 C3292 C 0.63007 0.69092 0.63010
 C3293 C 0.61030 0.70138 0.64007
 C3294 C 0.60121 0.72199 0.63086
 C3295 C 0.60255 0.75497 0.60220
 C3296 C 0.57846 0.75889 0.60047
 C3297 C 0.56995 0.78006 0.59199
 C3298 C 0.58536 0.79777 0.58506
 C3299 C 0.60944 0.79382 0.58678
 C3300 C 0.61794 0.77267 0.59524
 H3301 H 0.65549 0.69383 0.60229
 H3302 H 0.60196 0.69380 0.65519
 H3303 H 0.55131 0.78248 0.59058
 H3304 H 0.62175 0.80728 0.58200
 H3305 H 0.58628 0.72987 0.63924
 H3306 H 0.56618 0.74547 0.60542
 H3307 H 0.63949 0.72965 0.58617
 H3308 H 0.63658 0.77035 0.59676
 C3309 C 0.61217 0.23246 1.11277
 C3310 C 0.60203 0.22190 1.13235
 C3311 C 0.61129 0.20139 1.14157
 C3312 C 0.63103 0.19086 1.13147
 C3313 C 0.64094 0.20136 1.11161
 C3314 C 0.63161 0.22187 1.10240
 C3315 C 0.60274 0.25467 1.10348
 C3316 C 0.60100 0.25844 1.07936
 C3317 C 0.59233 0.27948 1.07071
 C3318 C 0.58523 0.29722 1.08601
 C3319 C 0.58698 0.29343 1.11012
 C3320 C 0.59562 0.27241 1.11876
 H3321 H 0.60295 0.19393 1.15675
 H3322 H 0.65610 0.19394 1.10321
 H3323 H 0.59092 0.28177 1.05205
 H3324 H 0.58207 0.30692 1.12235
 H3325 H 0.63996 0.22973 1.08743
 H3326 H 0.60608 0.24499 1.06716
 H3327 H 0.58681 0.22946 1.14051
 H3328 H 0.59713 0.27021 1.13742
 C3329 C 1.26736 1.11234 0.88721
 C3330 C 1.27797 1.10202 0.86773
 C3331 C 1.29850 1.11127 0.85847
 C3332 C 1.30890 1.13104 0.86851
 C3333 C 1.29843 1.14114 0.88821
 C3334 C 1.27792 1.13190 0.89743
 C3335 C 1.24514 1.10304 0.89659
 C3336 C 1.22742 1.11830 0.90380
 C3337 C 1.20641 1.10965 0.91244
 C3338 C 1.20261 1.08554 0.91412
 C3339 C 1.22031 1.07026 0.90692
 C3340 C 1.24135 1.07891 0.89824
 H3341 H 1.30605 1.10305 0.84328
 H3342 H 1.30599 1.15630 0.89648
 H3343 H 1.19295 1.12187 0.91743
 H3344 H 1.21800 1.05160 0.90826
 H3345 H 1.27035 1.14003 0.91267
 H3346 H 1.22964 1.13696 0.90235
 H3347 H 1.27013 1.08709 0.85932
 H3348 H 1.25478 1.06673 0.89310
 C3349 C 1.26756 0.61166 0.38791
 C3350 C 1.27815 0.63118 0.39816
 C3351 C 1.29876 0.64031 0.38902
 C3352 C 1.30926 0.63013 0.36939
 C3353 C 1.29883 0.61038 0.35934
 C3354 C 1.27822 0.60125 0.36851
 C3355 C 1.24521 0.60251 0.39714
 C3356 C 1.24127 0.57842 0.39880
 C3357 C 1.22010 0.56991 0.40728
 C3358 C 1.20242 0.58532 0.41426
 C3359 C 1.20638 0.60940 0.41258
 C3360 C 1.22753 0.61790 0.40413
 H3361 H 1.30634 0.65546 0.39729
 H3362 H 1.30642 0.60210 0.34420
 H3363 H 1.21765 0.55126 0.40864
 H3364 H 1.19294 0.62171 0.41741
 H3365 H 1.27034 0.58633 0.36008
 H3366 H 1.25468 0.56614 0.39382
 H3367 H 1.27053 0.63938 0.41333
 H3368 H 1.22988 0.63654 0.40266
 C3369 C 0.76763 1.11195 0.38722
 C3370 C 0.77822 1.10192 0.36758
 C3371 C 0.79879 1.11120 0.35852
 C3372 C 0.80925 1.13078 0.36886
 C3373 C 0.79879 1.14063 0.38869
 C3374 C 0.77823 1.13131 0.39778
 C3375 C 0.74536 1.10253 0.39637
 C3376 C 0.74152 1.10065 0.42047
 C3377 C 0.72040 1.09207 0.42900
 C3378 C 0.70265 1.08520 0.41362
 C3379 C 0.70652 1.08705 0.38952
 C3380 C 0.72762 1.09560 0.38100
 H3381 H 0.80639 1.10309 0.34329
 H3382 H 0.80634 1.15572 0.39710
 H3383 H 0.71805 1.09055 0.44765
 H3384 H 0.69303 1.08231 0.37723
 H3385 H 0.77035 1.13958 0.41277
 H3386 H 0.75497 1.10556 0.43274
 H3387 H 0.77064 1.08679 0.35927
 H3388 H 0.72989 1.09722 0.36236
 C3389 C 0.76716 0.61168 0.88834
 C3390 C 0.77783 0.60124 0.86896
 C3391 C 0.79844 0.61037 0.85977
 C3392 C 0.80887 0.63014 0.86978
 C3393 C 0.79834 0.64036 0.88939
 C3394 C 0.77774 0.63124 0.89854
 C3395 C 0.74484 0.60251 0.89762
 C3396 C 0.72714 0.61787 0.90463
 C3397 C 0.70602 0.60935 0.91313
 C3398 C 0.70211 0.58526 0.91487
 C3399 C 0.71981 0.56988 0.90788
 C3400 C 0.74095 0.57841 0.89934
 H3401 H 0.80604 0.60205 0.84465
 H3402 H 0.80592 0.65553 0.89763
 H3403 H 0.69257 0.62164 0.91796
 H3404 H 0.71742 0.55123 0.90929
 H3405 H 0.77011 0.63947 0.91369
 H3406 H 0.72944 0.63652 0.90311
 H3407 H 0.76997 0.58630 0.86056
 H3408 H 0.75437 0.56615 0.89436
 C3409 C 1.26773 0.88749 1.11138
 C3410 C 1.27828 0.86789 1.10122
 C3411 C 1.29890 0.85880 1.11038
 C3412 C 1.30945 0.86909 1.12994
 C3413 C 1.29905 0.88890 1.13989
 C3414 C 1.27844 0.89799 1.13071
 C3415 C 1.24538 0.89663 1.10215
 C3416 C 1.24145 0.92073 1.10048
 C3417 C 1.22024 0.92925 1.09211
 C3418 C 1.20251 0.91385 1.08524
 C3419 C 1.20646 0.88977 1.08690
 C3420 C 1.22765 0.88126 1.09525
 H3421 H 1.30646 0.84360 1.10219
 H3422 H 1.30666 0.89726 1.15497
 H3423 H 1.21781 0.94790 1.09075
 H3424 H 1.19298 0.87747 1.08215
 H3425 H 1.27059 0.91295 1.13908
 H3426 H 1.25490 0.93301 1.10538
 H3427 H 1.27062 0.85962 1.08610
 H3428 H 1.22998 0.86261 1.09673
 C3429 C 1.26711 0.38692 0.61215
 C3430 C 1.27765 0.39737 0.63160
 C3431 C 1.29817 0.38823 0.64096
 C3432 C 1.30865 0.36843 0.63106
 C3433 C 1.29824 0.35818 0.61141
 C3434 C 1.27771 0.36731 0.60208
 C3435 C 1.24490 0.39617 0.60267
 C3436 C 1.22718 0.38088 0.59553
 C3437 C 1.20613 0.38949 0.58692
 C3438 C 1.20230 0.41360 0.58523
 C3439 C 1.22003 0.42890 0.59232
 C3440 C 1.24110 0.42028 0.60095
 H3441 H 1.30567 0.39657 0.65611
 H3442 H 1.30586 0.34298 0.60326
 H3443 H 1.19266 0.37725 0.58201
 H3444 H 1.21771 0.44756 0.59094
 H3445 H 1.27018 0.35907 0.58688
 H3446 H 1.22941 0.36222 0.59702
 H3447 H 1.26976 0.41234 0.63991
 H3448 H 1.25454 0.43249 0.60602
 C3449 C 0.76779 0.88845 0.61097
 C3450 C 0.77844 0.86893 0.60079
 C3451 C 0.79910 0.85994 0.60993
 C3452 C 0.80959 0.87023 0.62952
 C3453 C 0.79909 0.88997 0.63951
 C3454 C 0.77843 0.89898 0.63033
 C3455 C 0.74541 0.89749 0.60172
 C3456 C 0.74139 0.92157 0.60001
 C3457 C 0.72016 0.92999 0.59158
 C3458 C 0.70250 0.91451 0.58471
 C3459 C 0.70654 0.89044 0.58640
 C3460 C 0.72775 0.88203 0.59480
 H3461 H 0.80674 0.84479 0.60171
 H3462 H 0.80666 0.89834 0.65461
 H3463 H 0.71766 0.94862 0.59019
 H3464 H 0.69313 0.87808 0.58165
 H3465 H 0.77051 0.91388 0.63871
 H3466 H 0.75477 0.93390 0.60492
 H3467 H 0.77084 0.86065 0.58565
 H3468 H 0.73016 0.86340 0.59630
 C3469 C 0.76727 0.38762 1.11192
 C3470 C 0.77786 0.39815 1.13131
 C3471 C 0.79851 0.38918 1.14053
 C3472 C 0.80908 0.36947 1.13055
 C3473 C 0.79864 0.35915 1.11095
 C3474 C 0.77798 0.36811 1.10176
 C3475 C 0.74491 0.39665 1.10260
 C3476 C 0.72729 0.38120 1.09558
 C3477 C 0.70611 0.38960 1.08711
 C3478 C 0.70205 0.41367 1.08542
 C3479 C 0.71969 0.42915 1.09238
 C3480 C 0.74089 0.42073 1.10089
 H3481 H 0.80604 0.39756 1.15564
 H3482 H 0.80632 0.34402 1.10274
 H3483 H 0.69272 0.37724 1.08229
 H3484 H 0.71719 0.44778 1.09100
 H3485 H 0.77042 0.35982 1.08661
 H3486 H 0.72970 0.36256 1.09708
 H3487 H 0.76989 0.41305 1.13968
 H3488 H 0.75424 0.43307 1.10587
 C3489 C 0.73295 1.11253 1.11267
 C3490 C 0.72240 1.10242 1.13229
 C3491 C 0.70180 1.11161 1.14138
 C3492 C 0.69126 1.13116 1.13107
 C3493 C 0.70167 1.14108 1.11125
 C3494 C 0.72227 1.13185 1.10214
 C3495 C 0.75526 1.10321 1.10352
 C3496 C 0.75912 1.10137 1.07942
 C3497 C 0.78026 1.09281 1.07089
 C3498 C 0.79799 1.08592 1.08629
 C3499 C 0.79411 1.08777 1.11038
 C3500 C 0.77300 1.09630 1.11889
 H3501 H 0.69424 1.10344 1.15659
 H3502 H 0.69406 1.15615 1.10286
 H3503 H 0.78262 1.09131 1.05225
 H3504 H 0.80759 1.08302 1.12268
 H3505 H 0.73012 1.14017 1.08716
 H3506 H 0.74568 1.10628 1.06715
 H3507 H 0.73003 1.08731 1.14058
 H3508 H 0.77072 1.09790 1.13754
 C3509 C 0.73254 0.61164 0.61200
 C3510 C 0.72192 0.60148 0.63156
 C3511 C 0.70129 0.61065 0.64060
 C3512 C 0.69079 0.63022 0.63031
 C3513 C 0.70126 0.64019 0.61054
 C3514 C 0.72189 0.63099 0.60149
 C3515 C 0.75488 0.60234 0.60289
 C3516 C 0.75882 0.60058 0.57880
 C3517 C 0.77998 0.59207 0.57031
 C3518 C 0.79767 0.58514 0.58574
 C3519 C 0.79371 0.58689 0.60983
 C3520 C 0.77256 0.59537 0.61830
 H3521 H 0.69368 0.60245 0.65577
 H3522 H 0.69368 0.65529 0.60217
 H3523 H 0.78241 0.59064 0.55167
 H3524 H 0.80715 0.58210 0.62215
 H3525 H 0.72979 0.63935 0.58655
 H3526 H 0.74541 0.60553 0.56650
 H3527 H 0.72953 0.58635 0.63984
 H3528 H 0.77022 0.59691 0.63695
 C3529 C 0.23268 1.11242 0.61195
 C3530 C 0.22205 1.10225 0.63150
 C3531 C 0.20142 1.11141 0.64054
 C3532 C 0.19092 1.13099 0.63025
 C3533 C 0.20140 1.14097 0.61049
 C3534 C 0.22203 1.13177 0.60144
 C3535 C 0.25503 1.10315 0.60287
 C3536 C 0.25898 1.10138 0.57878
 C3537 C 0.28016 1.09289 0.57032
 C3538 C 0.29785 1.08601 0.58576
 C3539 C 0.29388 1.08778 0.60985
 C3540 C 0.27271 1.09623 0.61830
 H3541 H 0.19380 1.10320 0.65570
 H3542 H 0.19382 1.15607 0.60213
 H3543 H 0.28261 1.09144 0.55168
 H3544 H 0.30732 1.08303 0.62219
 H3545 H 0.22993 1.14014 0.58651
 H3546 H 0.24557 1.10629 0.56647
 H3547 H 0.22966 1.08712 0.63978
 H3548 H 0.27035 1.09778 0.63694
 C3549 C 0.23272 0.61242 1.11275
 C3550 C 0.22210 0.60231 1.13233
 C3551 C 0.20156 0.61159 1.14146
 C3552 C 0.19114 0.63125 1.13123
 C3553 C 0.20161 0.64117 1.11144
 C3554 C 0.22215 0.63186 1.10230
 C3555 C 0.25497 0.60301 1.10357
 C3556 C 0.25882 0.60124 1.07946
 C3557 C 0.27991 0.59260 1.07091
 C3558 C 0.29760 0.58555 1.08628
 C3559 C 0.29373 0.58732 1.11038
 C3560 C 0.27266 0.59593 1.11892
 H3561 H 0.19395 0.60341 1.15665
 H3562 H 0.19409 0.65633 1.10312
 H3563 H 0.28228 0.59117 1.05225
 H3564 H 0.30717 0.58245 1.12266
 H3565 H 0.23004 0.64019 1.08734
 H3566 H 0.24541 0.60628 1.06720
 H3567 H 0.22964 0.58712 1.14056
 H3568 H 0.27038 0.59747 1.13757
 C3569 C 0.73213 0.88897 0.88842
 C3570 C 0.72150 0.89904 0.86882
 C3571 C 0.70087 0.88981 0.85982
 C3572 C 0.69039 0.87027 0.87020
 C3573 C 0.70088 0.86039 0.89000
 C3574 C 0.72150 0.86965 0.89901
 C3575 C 0.75447 0.89831 0.89747
 C3576 C 0.75843 0.90019 0.92155
 C3577 C 0.77961 0.90872 0.92998
 C3578 C 0.79731 0.91553 0.91451
 C3579 C 0.79332 0.91368 0.89044
 C3580 C 0.77216 0.90518 0.88202
 H3581 H 0.69325 0.89795 0.84462
 H3582 H 0.69332 0.84532 0.89843
 H3583 H 0.78206 0.91023 0.94862
 H3584 H 0.80676 0.91837 0.87808
 H3585 H 0.72941 0.86136 0.91398
 H3586 H 0.74502 0.89532 0.93388
 H3587 H 0.72909 0.91414 0.86048
 H3588 H 0.76980 0.90356 0.86338
 C3589 C 0.73272 0.38788 0.38722
 C3590 C 0.72214 0.39794 0.36759
 C3591 C 0.70157 0.38867 0.35848
 C3592 C 0.69111 0.36908 0.36878
 C3593 C 0.70155 0.35919 0.38861
 C3594 C 0.72211 0.36850 0.39772
 C3595 C 0.75498 0.39728 0.39642
 C3596 C 0.75881 0.39904 0.42054
 C3597 C 0.77993 0.40759 0.42912
 C3598 C 0.79767 0.41454 0.41377
 C3599 C 0.79381 0.41279 0.38967
 C3600 C 0.77271 0.40427 0.38110
 H3601 H 0.69398 0.39680 0.34326
 H3602 H 0.69401 0.34409 0.39699
 H3603 H 0.78228 0.40902 0.44778
 H3604 H 0.80730 0.41759 0.37740
 H3605 H 0.72998 0.36020 0.41271
 H3606 H 0.74536 0.39408 0.43278
 H3607 H 0.72972 0.41309 0.35931
 H3608 H 0.77046 0.40273 0.36244
 C3609 C 0.23237 0.88917 0.38788
 C3610 C 0.22178 0.89922 0.36825
 C3611 C 0.20121 0.88995 0.35916
 C3612 C 0.19075 0.87036 0.36947
 C3613 C 0.20119 0.86050 0.38931
 C3614 C 0.22175 0.86981 0.39842
 C3615 C 0.25466 0.89854 0.39703
 C3616 C 0.25853 0.90035 0.42113
 C3617 C 0.27968 0.90887 0.42965
 C3618 C 0.29742 0.91575 0.41426
 C3619 C 0.29351 0.91396 0.39016
 C3620 C 0.27238 0.90547 0.38165
 H3621 H 0.19363 0.89807 0.34393
 H3622 H 0.19364 0.84540 0.39770
 H3623 H 0.28208 0.91033 0.44830
 H3624 H 0.30698 0.91871 0.37786
 H3625 H 0.22962 0.86152 0.41341
 H3626 H 0.24509 0.89544 0.43340
 H3627 H 0.22937 0.91436 0.35996
 H3628 H 0.27008 0.90389 0.36300
 C3629 C 0.23235 0.38790 0.88791
 C3630 C 0.22168 0.39795 0.86833
 C3631 C 0.20112 0.38863 0.85929
 C3632 C 0.19074 0.36900 0.86960
 C3633 C 0.20127 0.35913 0.88939
 C3634 C 0.22183 0.36849 0.89845
 C3635 C 0.25462 0.39737 0.89702
 C3636 C 0.25851 0.39923 0.92111
 C3637 C 0.27962 0.40787 0.92960
 C3638 C 0.29731 0.41482 0.91418
 C3639 C 0.29338 0.41300 0.89009
 C3640 C 0.27228 0.40439 0.88161
 H3641 H 0.19346 0.39675 0.84410
 H3642 H 0.19378 0.34400 0.89778
 H3643 H 0.28203 0.40936 0.94824
 H3644 H 0.30682 0.41780 0.87777
 H3645 H 0.22977 0.36021 0.91341
 H3646 H 0.24511 0.39425 0.93340
 H3647 H 0.22919 0.41312 0.86003
 H3648 H 0.26997 0.40278 0.86297
   
