data_POSCAR
  _audit_creation_date              2014-09-24
  _audit_creation_method            'ToBaCCo'
  _symmetry_space_group_name_H-M    'P1'
  _symmetry_Int_Tables_number       1
  _symmetry_cell_setting            triclinic
  loop_
  _symmetry_equiv_pos_as_xyz
 x,y,z
_cell_length_a 46.6172
_cell_length_b 49.9972
_cell_length_c 47.8038
_cell_angle_alpha 90.271500
_cell_angle_beta 87.798400
_cell_angle_gamma 90.275600
loop_
  _atom_site_label
  _atom_site_type_symbol
  _atom_site_fract_x
  _atom_site_fract_y
  _atom_site_fract_z
C1 C 0.71251 0.67459 0.97937
 H2 H 0.73330 0.67705 0.96885
 C3 C 0.68881 0.68861 0.96999
 H4 H 0.69159 0.70180 0.95219
 C5 C 0.68372 0.65489 1.01563
 H6 H 0.68169 0.64206 1.03368
 C7 C 0.65957 0.66851 1.00705
 H8 H 0.63919 0.66527 1.01817
 N9 N 0.70939 0.65745 1.00131
 C10 C 0.79849 0.65469 1.01640
 H11 H 0.80347 0.63923 1.00120
 C12 C 0.82092 0.66864 1.02842
 H13 H 0.84274 0.66307 1.02259
 C14 C 0.76415 0.67928 1.04355
 H15 H 0.74193 0.68288 1.04973
 C16 C 0.78593 0.69414 1.05570
 H17 H 0.78007 0.70958 1.07076
 Zn18 Zn 0.74106 0.63665 1.01274
 N19 N 0.77079 0.65951 1.02482
 C20 C 0.77395 0.59463 0.99222
 N21 N 0.75575 0.61389 0.98380
 C22 C 0.74984 0.61676 0.95631
 C23 C 0.76404 0.60097 0.93591
 C24 C 0.78855 0.57851 0.97264
 C25 C 0.74011 0.61626 1.06831
 C26 C 0.72974 0.60021 1.09035
 C27 C 0.69714 0.57940 1.05869
 C28 C 0.70855 0.59550 1.03727
 N29 N 0.72884 0.61415 1.04262
 H30 H 0.77798 0.59250 1.01424
 H31 H 0.73487 0.63178 0.95001
 H32 H 0.76014 0.60430 0.91401
 H33 H 0.80353 0.56378 0.97979
 H34 H 0.75676 0.63082 1.07199
 H35 H 0.73831 0.60401 1.11068
 H36 H 0.68140 0.56461 1.05300
 H37 H 0.70073 0.59357 1.01633
 C38 C 0.81490 0.68831 1.04890
 C39 C 0.66174 0.68528 0.98362
 C40 C 0.70697 0.58188 1.08628
 C41 C 0.78429 0.58208 0.94401
 C42 C 0.72405 0.31944 0.53602
 H43 H 0.74167 0.30546 0.53460
 C44 C 0.69810 0.31201 0.54952
 H45 H 0.69584 0.29222 0.55847
 C46 C 0.70606 0.36288 0.52770
 H47 H 0.70961 0.38282 0.51956
 C48 C 0.67995 0.35637 0.54113
 H49 H 0.66325 0.37133 0.54298
 N50 N 0.72760 0.34467 0.52588
 C51 C 0.77710 0.31019 0.48187
 H52 H 0.75433 0.30890 0.47883
 C53 C 0.79581 0.29484 0.46507
 H54 H 0.78731 0.28215 0.44890
 C55 C 0.81602 0.32896 0.50570
 H56 H 0.82402 0.34269 0.52102
 C57 C 0.83552 0.31374 0.48954
 H58 H 0.85831 0.31630 0.49237
 Zn59 Zn 0.76325 0.35724 0.51136
 N60 N 0.78759 0.32834 0.50020
 C61 C 0.80614 0.39135 0.53393
 N62 N 0.78041 0.37901 0.53913
 C63 C 0.76643 0.38146 0.56451
 C64 C 0.77834 0.39641 0.58589
 C65 C 0.81920 0.40599 0.55499
 C66 C 0.74210 0.36431 0.45818
 C67 C 0.73782 0.37660 0.43264
 C68 C 0.76092 0.41635 0.45001
 C69 C 0.76534 0.40302 0.47516
 N70 N 0.75630 0.37726 0.47861
 H71 H 0.81684 0.38939 0.51355
 H72 H 0.74599 0.37167 0.56843
 H73 H 0.76633 0.39837 0.60560
 H74 H 0.84019 0.41465 0.55058
 H75 H 0.73373 0.34445 0.46173
 H76 H 0.72647 0.36594 0.41663
 H77 H 0.76814 0.43684 0.44742
 H78 H 0.77595 0.41330 0.49180
 C79 C 0.82547 0.29779 0.46774
 C80 C 0.67596 0.33085 0.55275
 C81 C 0.74743 0.40285 0.42828
 C82 C 0.80538 0.40858 0.58156
 C83 C 0.22179 -0.14916 -0.00334
 H84 H 0.24197 -0.15957 -0.00527
 C85 C 0.19669 -0.16355 0.00375
 H86 H 0.19797 -0.18487 0.00737
 C87 C 0.19513 -0.10921 -0.00653
 H88 H 0.19445 -0.08810 -0.01112
 C89 C 0.16967 -0.12274 0.00035
 H90 H 0.14983 -0.11156 0.00191
 N91 N 0.22068 -0.12226 -0.00756
 C92 C 0.30383 -0.10983 -0.04746
 H93 H 0.29652 -0.09324 -0.05965
 C94 C 0.33053 -0.12114 -0.05424
 H95 H 0.34320 -0.11361 -0.07199
 C96 C 0.29727 -0.13888 -0.00871
 H97 H 0.28498 -0.14478 0.00989
 C98 C 0.32363 -0.15123 -0.01520
 H99 H 0.33107 -0.16718 -0.00209
 Zn100 Zn 0.25304 -0.09962 -0.01549
 N101 N 0.28760 -0.11884 -0.02511
 C102 C 0.28594 -0.07879 0.02756
 N103 N 0.25948 -0.07785 0.01658
 C104 C 0.23803 -0.06322 0.02925
 C105 C 0.24254 -0.04967 0.05442
 C106 C 0.29133 -0.06568 0.05258
 C107 C 0.23799 -0.09332 -0.06997
 C108 C 0.22859 -0.08094 -0.09392
 C109 C 0.22963 -0.03862 -0.06951
 C110 C 0.23953 -0.05196 -0.04604
 N111 N 0.24308 -0.07888 -0.04664
 H112 H 0.30289 -0.09021 0.01729
 H113 H 0.21724 -0.06228 0.02018
 H114 H 0.22517 -0.03835 0.06431
 H115 H 0.31228 -0.06772 0.06133
 H116 H 0.24136 -0.11472 -0.06994
 H117 H 0.22673 -0.09364 -0.11207
 H118 H 0.22566 -0.01748 -0.06709
 H119 H 0.24351 -0.04087 -0.02710
 C120 C 0.34063 -0.14213 -0.03808
 C121 C 0.17019 -0.15023 0.00598
 C122 C 0.22316 -0.05303 -0.09422
 C123 C 0.26943 -0.05106 0.06656
 C124 C 0.23174 0.18564 0.45512
 H125 H 0.25041 0.18187 0.44158
 C126 C 0.21013 0.20219 0.44596
 H127 H 0.21241 0.21138 0.42551
 C128 C 0.20460 0.17609 0.49689
 H129 H 0.20199 0.16510 0.51619
 C130 C 0.18258 0.19279 0.48868
 H131 H 0.16311 0.19441 0.50168
 N132 N 0.22825 0.17232 0.47976
 C133 C 0.30264 0.14626 0.52008
 H134 H 0.29413 0.12768 0.52845
 C135 C 0.32760 0.15713 0.53072
 H136 H 0.33808 0.14680 0.54734
 C137 C 0.29988 0.18183 0.48773
 H138 H 0.28895 0.19144 0.47104
 C139 C 0.32482 0.19339 0.49773
 H140 H 0.33266 0.21204 0.48882
 Zn141 Zn 0.25440 0.14454 0.48629
 N142 N 0.28905 0.15893 0.49929
 C143 C 0.28886 0.11970 0.44410
 N144 N 0.26159 0.12687 0.45173
 C145 C 0.23944 0.12264 0.43446
 C146 C 0.24440 0.11099 0.40810
 C147 C 0.29468 0.10761 0.41817
 C148 C 0.23479 0.12803 0.54015
 C149 C 0.22095 0.11134 0.55979
 C150 C 0.21390 0.07890 0.52303
 C151 C 0.22821 0.09606 0.50416
 N152 N 0.23786 0.12032 0.51286
 H153 H 0.30610 0.12339 0.45813
 H154 H 0.21795 0.12860 0.44107
 H155 H 0.22665 0.10773 0.39450
 H156 H 0.31652 0.10200 0.41233
 H157 H 0.24260 0.14745 0.54653
 H158 H 0.21799 0.11807 0.58127
 H159 H 0.20582 0.05989 0.51568
 H160 H 0.23094 0.09023 0.48244
 C161 C 0.33877 0.18120 0.51978
 C162 C 0.18484 0.20516 0.46244
 C163 C 0.20986 0.08664 0.55115
 C164 C 0.27230 0.10323 0.39982
 C165 C 0.16211 0.47037 0.23058
 H166 H 0.15930 0.46206 0.25136
 C167 C 0.18170 0.45889 0.21132
 H168 H 0.19383 0.44158 0.21737
 C169 C 0.14916 0.50273 0.19730
 H170 H 0.13660 0.51996 0.19200
 C171 C 0.16833 0.49169 0.17727
 H172 H 0.17040 0.50056 0.15666
 N173 N 0.14635 0.49189 0.22333
 C174 C 0.12447 0.53376 0.30165
 H175 H 0.10125 0.53361 0.30181
 C176 C 0.13861 0.54593 0.32359
 H177 H 0.12611 0.55532 0.34045
 C178 C 0.16887 0.52252 0.27894
 H179 H 0.18067 0.51358 0.26145
 C180 C 0.18388 0.53456 0.30041
 H181 H 0.20712 0.53443 0.29931
 Zn182 Zn 0.11952 0.50552 0.25045
 N183 N 0.13966 0.52216 0.27996
 C184 C 0.09737 0.47077 0.29261
 N185 N 0.09804 0.47569 0.26463
 C186 C 0.08777 0.45735 0.24631
 C187 C 0.07773 0.43242 0.25584
 C188 C 0.08748 0.44631 0.30297
 C189 C 0.09857 0.55738 0.24083
 C190 C 0.08481 0.57729 0.22617
 C191 C 0.06559 0.54325 0.19609
 C192 C 0.07938 0.52386 0.21167
 N193 N 0.09600 0.53122 0.23324
 H194 H 0.10611 0.48500 0.30697
 H195 H 0.08933 0.46121 0.22408
 H196 H 0.07136 0.41740 0.24088
 H197 H 0.08827 0.44242 0.32520
 H198 H 0.11249 0.56312 0.25735
 H199 H 0.08816 0.59805 0.23184
 H200 H 0.05332 0.53719 0.17833
 H201 H 0.07799 0.50308 0.20560
 C202 C 0.16873 0.54645 0.32314
 C203 C 0.18489 0.46950 0.18423
 C204 C 0.06864 0.57039 0.20308
 C205 C 0.07859 0.42640 0.28442
 C206 C -0.18043 0.02010 0.20254
 H207 H -0.19757 0.01447 0.21718
 C208 C -0.18678 0.03463 0.17853
 H209 H -0.20873 0.04071 0.17580
 C210 C -0.13131 0.01890 0.18842
 H211 H -0.10999 0.01149 0.19146
 C212 C -0.13645 0.03372 0.16471
 H213 H -0.11861 0.03740 0.15005
 N214 N -0.15279 0.01350 0.20752
 C215 C -0.16756 -0.03976 0.27630
 H216 H -0.14981 -0.05246 0.26984
 C217 C -0.18602 -0.04787 0.29822
 H218 H -0.18186 -0.06679 0.30815
 C219 C -0.19181 0.00157 0.27340
 H220 H -0.19294 0.02144 0.26472
 C221 C -0.21121 -0.00599 0.29508
 H222 H -0.22786 0.00782 0.30195
 Zn223 Zn -0.13987 -0.00425 0.23966
 N224 N -0.17047 -0.01533 0.26449
 C225 C -0.12404 0.02666 0.28598
 N226 N -0.11541 0.01938 0.25952
 C227 C -0.09115 0.03007 0.24720
 C228 C -0.07548 0.04967 0.26099
 C229 C -0.10916 0.04625 0.30041
 C230 C -0.13640 -0.05166 0.21078
 C231 C -0.12401 -0.07334 0.19664
 C232 C -0.07796 -0.06027 0.21395
 C233 C -0.09139 -0.03888 0.22816
 N234 N -0.12004 -0.03475 0.22580
 H235 H -0.14298 0.01787 0.29584
 H236 H -0.08389 0.02368 0.22659
 H237 H -0.05639 0.05804 0.25072
 H238 H -0.11732 0.05245 0.32092
 H239 H -0.15912 -0.04786 0.20931
 H240 H -0.13760 -0.08648 0.18484
 H241 H -0.05497 -0.06268 0.21506
 H242 H -0.07879 -0.02517 0.24024
 C243 C -0.20817 -0.03089 0.30817
 C244 C -0.16435 0.04274 0.15972
 C245 C -0.09427 -0.07750 0.19739
 C246 C -0.08477 0.05838 0.28777
 C247 C 0.31794 0.54107 0.73018
 H248 H 0.32095 0.55002 0.75051
 C249 C 0.30054 0.55360 0.71107
 H250 H 0.29038 0.57236 0.71685
 C251 C 0.32870 0.50633 0.69761
 H252 H 0.33980 0.48792 0.69246
 C253 C 0.31145 0.51814 0.67790
 H254 H 0.30922 0.50847 0.65778
 N255 N 0.33180 0.51802 0.72307
 C256 C 0.35425 0.47763 0.79949
 H257 H 0.37723 0.47708 0.79545
 C258 C 0.34256 0.46746 0.82442
 H259 H 0.35684 0.45933 0.83953
 C260 C 0.30818 0.49018 0.78495
 H261 H 0.29501 0.49922 0.76947
 C262 C 0.29548 0.48009 0.80981
 H263 H 0.27242 0.48117 0.81320
 Zn264 Zn 0.35725 0.50331 0.74863
 N265 N 0.33714 0.48889 0.78043
 C266 C 0.37764 0.53853 0.78913
 N267 N 0.38161 0.53128 0.76178
 C268 C 0.40118 0.54439 0.74485
 C269 C 0.41888 0.56431 0.75583
 C270 C 0.39480 0.55804 0.80089
 C271 C 0.37167 0.44930 0.73908
 C272 C 0.38588 0.42748 0.72686
 C273 C 0.41329 0.45798 0.69729
 C274 C 0.39857 0.47931 0.71019
 N275 N 0.37844 0.47473 0.73103
 H276 H 0.36082 0.52957 0.80207
 H277 H 0.40305 0.53966 0.72284
 H278 H 0.43474 0.57419 0.74229
 H279 H 0.39113 0.56331 0.82274
 H280 H 0.35468 0.44568 0.75458
 H281 H 0.37974 0.40748 0.73338
 H282 H 0.42938 0.46205 0.68091
 H283 H 0.40298 0.49940 0.70315
 C284 C 0.31282 0.46857 0.82993
 C285 C 0.29732 0.54227 0.68438
 C286 C 0.40706 0.43164 0.70572
 C287 C 0.41614 0.57086 0.78440
 C288 C 0.67066 0.96012 0.72395
 H289 H 0.66946 0.95187 0.74481
 C290 C 0.68215 0.94471 0.70192
 H291 H 0.69036 0.92498 0.70619
 C292 C 0.65884 0.99457 0.69260
 H293 H 0.64873 1.01352 0.68883
 C294 C 0.67027 0.97981 0.66989
 H295 H 0.66878 0.98757 0.64889
 N296 N 0.65876 0.98433 0.71896
 C297 C 0.65550 1.03897 0.78779
 H298 H 0.63778 1.05037 0.78029
 C299 C 0.67053 1.04877 0.81034
 H300 H 0.66348 1.06755 0.81950
 C301 C 0.68314 0.99944 0.78668
 H302 H 0.68772 0.98002 0.77771
 C303 C 0.69856 1.00832 0.80946
 H304 H 0.71554 0.99571 0.81662
 Zn305 Zn 0.63735 1.00026 0.74923
 N306 N 0.66183 1.01462 0.77650
 C307 C 0.61582 0.96942 0.79446
 N308 N 0.61488 0.97279 0.76631
 C309 C 0.60062 0.95517 0.75000
 C310 C 0.58804 0.93217 0.76178
 C311 C 0.60375 0.94672 0.80701
 C312 C 0.62564 1.05013 0.72520
 C313 C 0.60859 1.07104 0.71622
 C314 C 0.56644 1.04510 0.72961
 C315 C 0.58429 1.02479 0.73861
 N316 N 0.61331 1.02758 0.73615
 H317 H 0.62696 0.98378 0.80710
 H318 H 0.60033 0.95829 0.72763
 H319 H 0.57814 0.91754 0.74839
 H320 H 0.60577 0.94373 0.82927
 H321 H 0.64878 1.05192 0.72371
 H322 H 0.61874 1.08876 0.70735
 H323 H 0.54337 1.04261 0.73175
 H324 H 0.57491 1.00686 0.74765
 C325 C 0.69222 1.03328 0.82210
 C326 C 0.68123 0.95417 0.67439
 C327 C 0.57860 1.06860 0.71831
 C328 C 0.59048 0.92737 0.79047
 C329 C 0.03012 0.20279 -0.17640
 H330 H 0.01144 0.21369 -0.18251
 C331 C 0.03402 0.17628 -0.18551
 H332 H 0.01839 0.16716 -0.19880
 C333 C 0.07199 0.20048 -0.15002
 H334 H 0.08630 0.20938 -0.13536
 C335 C 0.07668 0.17415 -0.15861
 H336 H 0.09510 0.16361 -0.15113
 N337 N 0.04870 0.21417 -0.15843
 C338 C 0.04432 0.29757 -0.16821
 H339 H 0.06500 0.29991 -0.15919
 C340 C 0.03311 0.31900 -0.18292
 H341 H 0.04549 0.33729 -0.18539
 C342 C 0.00176 0.27242 -0.17396
 H343 H -0.01085 0.25464 -0.16949
 C344 C -0.01053 0.29363 -0.18814
 H345 H -0.03238 0.29189 -0.19491
 Zn346 Zn 0.04031 0.24716 -0.13929
 N347 N 0.02861 0.27477 -0.16395
 C348 C 0.09737 0.26395 -0.13561
 N349 N 0.07353 0.25745 -0.11985
 C350 C 0.07442 0.25567 -0.09150
 C351 C 0.10019 0.26034 -0.07802
 C352 C 0.12311 0.26981 -0.12302
 C353 C -0.00166 0.21590 -0.11120
 C354 C -0.02764 0.21109 -0.09677
 C355 C -0.03085 0.25818 -0.08602
 C356 C -0.00479 0.26204 -0.10106
 N357 N 0.00886 0.24110 -0.11380
 H358 H 0.09650 0.26423 -0.15819
 H359 H 0.05542 0.24967 -0.07939
 H360 H 0.10045 0.25770 -0.05560
 H361 H 0.14110 0.27607 -0.13638
 H362 H 0.00945 0.19943 -0.12140
 H363 H -0.03541 0.19080 -0.09793
 H364 H -0.04025 0.27559 -0.07598
 H365 H 0.00412 0.28197 -0.10336
 C366 C 0.00514 0.31733 -0.19247
 C367 C 0.05713 0.16138 -0.17589
 C368 C -0.04361 0.23235 -0.08404
 C369 C 0.12521 0.26750 -0.09380
 C370 C 0.49175 0.22652 0.21030
 H371 H 0.48482 0.24697 0.21324
 C372 C 0.47626 0.20587 0.22354
 H373 H 0.45757 0.21062 0.23676
 C374 C 0.52205 0.19513 0.18669
 H375 H 0.53858 0.19072 0.17099
 C376 C 0.50742 0.17390 0.19983
 H377 H 0.51306 0.15355 0.19412
 N378 N 0.51343 0.22081 0.19140
 C379 C 0.57112 0.28217 0.18170
 H380 H 0.58396 0.26812 0.16974
 C381 C 0.58426 0.30525 0.19135
 H382 H 0.60708 0.30786 0.18712
 C383 C 0.52639 0.29580 0.20180
 H384 H 0.50368 0.29220 0.20546
 C385 C 0.53859 0.31986 0.21105
 H386 H 0.52501 0.33459 0.22154
 Zn387 Zn 0.52545 0.24873 0.16668
 N388 N 0.54246 0.27809 0.18616
 C389 C 0.48366 0.28588 0.14709
 N390 N 0.49172 0.25984 0.14870
 C391 C 0.47549 0.24002 0.13769
 C392 C 0.44996 0.24596 0.12470
 C393 C 0.45800 0.29268 0.13474
 C394 C 0.57665 0.22299 0.14571
 C395 C 0.59680 0.21472 0.12511
 C396 C 0.56612 0.23201 0.08995
 C397 C 0.54673 0.24025 0.11121
 N398 N 0.55219 0.23564 0.13853
 H399 H 0.49704 0.30150 0.15531
 H400 H 0.48247 0.21947 0.13899
 H401 H 0.43785 0.22979 0.11565
 H402 H 0.45173 0.31349 0.13456
 H403 H 0.58070 0.21963 0.16755
 H404 H 0.61605 0.20458 0.13118
 H405 H 0.56144 0.23593 0.06834
 H406 H 0.52749 0.25066 0.10579
 C407 C 0.56777 0.32525 0.20482
 C408 C 0.48334 0.17917 0.21739
 C409 C 0.59157 0.21916 0.09682
 C410 C 0.44065 0.27261 0.12326
 C411 C 0.92635 0.71653 0.69183
 H412 H 0.91542 0.73555 0.69342
 C413 C 0.91532 0.69441 0.70656
 H414 H 0.89615 0.69670 0.71987
 C415 C 0.96324 0.68989 0.67089
 H416 H 0.98098 0.68767 0.65594
 C417 C 0.95310 0.66737 0.68538
 H418 H 0.96340 0.64828 0.68144
 N419 N 0.94950 0.71377 0.67387
 C420 C 0.98205 0.79234 0.64733
 H421 H 0.98264 0.78817 0.62509
 C422 C 0.99222 0.81677 0.65703
 H423 H 1.00037 0.83135 0.64201
 C424 C 0.97009 0.77835 0.69362
 H425 H 0.96155 0.76319 0.70773
 C426 C 0.98011 0.80271 0.70431
 H427 H 0.97945 0.80604 0.72672
 Zn428 Zn 0.95833 0.74183 0.64821
 N429 N 0.97112 0.77375 0.66551
 C430 C 0.91468 0.77427 0.62676
 N431 N 0.92445 0.74879 0.62876
 C432 C 0.90992 0.72785 0.61760
 C433 C 0.88474 0.73224 0.60327
 C434 C 0.89003 0.77958 0.61220
 C435 C 1.01415 0.72566 0.63332
 C436 C 1.03683 0.71680 0.61584
 C437 C 1.00627 0.72084 0.57642
 C438 C 0.98397 0.72913 0.59478
 N439 N 0.98816 0.73094 0.62272
 H440 H 0.92599 0.79061 0.63628
 H441 H 0.91796 0.70774 0.61979
 H442 H 0.87350 0.71552 0.59417
 H443 H 0.88275 0.80003 0.61040
 H444 H 1.01700 0.72768 0.65559
 H445 H 1.05682 0.71150 0.62511
 H446 H 1.00249 0.71978 0.55425
 H447 H 0.96336 0.73414 0.58668
 C448 C 0.99151 0.82226 0.68587
 C449 C 0.92827 0.66924 0.70275
 C450 C 1.03308 0.71410 0.58690
 C451 C 0.87488 0.75846 0.60015
 C452 C 0.50528 0.71238 0.30928
 H453 H 0.51581 0.73060 0.30258
 C454 C 0.51293 0.68835 0.29619
 H455 H 0.52923 0.68840 0.27942
 C456 C 0.47301 0.68963 0.34051
 H457 H 0.45856 0.68990 0.35868
 C458 C 0.48000 0.66512 0.32794
 H459 H 0.47076 0.64687 0.33654
 N460 N 0.48609 0.71260 0.33142
 C461 C 0.44918 0.78698 0.33051
 H462 H 0.43209 0.77952 0.34424
 C463 C 0.44480 0.81012 0.31510
 H464 H 0.42432 0.81996 0.31821
 C465 C 0.49704 0.78424 0.31264
 H466 H 0.51773 0.77462 0.31245
 C467 C 0.49372 0.80750 0.29699
 H468 H 0.51176 0.81423 0.28395
 Zn469 Zn 0.48132 0.74458 0.35266
 N470 N 0.47497 0.77447 0.32909
 C471 C 0.52508 0.77593 0.37540
 N472 N 0.51541 0.75050 0.37200
 C473 C 0.52956 0.72930 0.38260
 C474 C 0.55472 0.73331 0.39713
 C475 C 0.55017 0.78081 0.38950
 C476 C 0.42439 0.73174 0.37067
 C477 C 0.40247 0.72517 0.39020
 C478 C 0.43380 0.73761 0.42723
 C479 C 0.45522 0.74367 0.40700
 N480 N 0.45040 0.74012 0.37934
 H481 H 0.51325 0.79252 0.36727
 H482 H 0.52122 0.70927 0.37985
 H483 H 0.56551 0.71625 0.40572
 H484 H 0.55776 0.80122 0.39130
 H485 H 0.42113 0.72897 0.34855
 H486 H 0.38252 0.71713 0.38280
 H487 H 0.43824 0.74027 0.44913
 H488 H 0.47593 0.75061 0.41349
 C489 C 0.46727 0.82114 0.29799
 C490 C 0.50094 0.66426 0.30614
 C491 C 0.40722 0.72753 0.41898
 C492 C 0.56530 0.75939 0.40080
 C493 C 0.37726 -0.00154 0.24249
 C494 C 0.11827 0.98835 0.72404
 C495 C 0.64372 0.50764 0.27814
 C496 C 0.87327 0.47945 0.77328
 C497 C 0.27736 0.36462 0.01641
 C498 C 0.76711 0.14409 0.98732
 C499 C 0.22638 0.63831 0.50770
 C500 C 0.73238 0.86248 0.48443
 C501 C 0.00481 0.23869 0.34795
 C502 C 1.00999 0.75251 0.12256
 C503 C 0.49519 0.24781 0.65234
 C504 C 0.49742 0.74852 0.85848
 C505 C 0.43584 -0.14609 0.27636
 C506 C 0.43120 -0.12064 0.26538
 C507 C 0.45449 -0.10303 0.26009
 C508 C 0.48234 -0.11178 0.26507
 C509 C 0.48683 -0.13709 0.27660
 C510 C 0.46349 -0.15442 0.28340
 C511 C 0.44936 -0.07678 0.25092
 C512 C 0.42102 -0.06775 0.24828
 C513 C 0.39801 -0.08591 0.25309
 C514 C 0.40325 -0.11227 0.26085
 C515 C 0.36983 -0.07727 0.25123
 C516 C 0.36422 -0.05047 0.24692
 C517 C 0.38655 -0.03128 0.24385
 C518 C 0.41513 -0.04071 0.24228
 H519 H 0.41752 -0.15929 0.27937
 H520 H 0.50060 -0.09866 0.26108
 H521 H 0.50855 -0.14207 0.28170
 H522 H 0.46720 -0.06308 0.24729
 H523 H 0.38537 -0.12589 0.26485
 H524 H 0.35198 -0.09102 0.25450
 H525 H 0.34196 -0.04445 0.24734
 H526 H 0.43279 -0.02734 0.23711
 C527 C 0.96754 0.35242 0.81060
 C528 C 0.95473 0.37575 0.80086
 C529 C 0.96522 0.38772 0.77573
 C530 C 0.98896 0.37637 0.76117
 C531 C 1.00210 0.35344 0.77146
 C532 C 0.99126 0.34120 0.79605
 C533 C 0.95185 0.41082 0.76574
 C534 C 0.92848 0.42229 0.78089
 C535 C 0.91874 0.41055 0.80637
 C536 C 0.93172 0.38734 0.81607
 C537 C 0.89566 0.42180 0.82158
 C538 C 0.88194 0.44430 0.81167
 C539 C 0.89120 0.45687 0.78637
 C540 C 0.91440 0.44503 0.77088
 H541 H 0.95946 0.34322 0.82986
 H542 H 0.99748 0.38531 0.74197
 H543 H 1.02056 0.34510 0.76013
 H544 H 0.95962 0.41983 0.74628
 H545 H 0.92385 0.37825 0.83547
 H546 H 0.88767 0.41276 0.84093
 H547 H 0.86312 0.45085 0.82362
 H548 H 0.92107 0.45329 0.75073
 C549 C 0.05653 1.12236 0.79035
 C550 C 0.06256 1.09540 0.78388
 C551 C 0.07213 1.07817 0.80496
 C552 C 0.07456 1.08788 0.83228
 C553 C 0.06890 1.11469 0.83844
 C554 C 0.06052 1.13240 0.81749
 C555 C 0.08025 1.05184 0.79820
 C556 C 0.08008 1.04282 0.77037
 C557 C 0.06946 1.05961 0.74957
 C558 C 0.06030 1.08564 0.75647
 C559 C 0.06876 1.05019 0.72206
 C560 C 0.08174 1.02592 0.71465
 C561 C 0.09675 1.01074 0.73424
 C562 C 0.09197 1.01789 0.76278
 H563 H 0.05008 1.13577 0.77402
 H564 H 0.08158 1.07492 0.84876
 H565 H 0.07138 1.12169 0.85969
 H566 H 0.08827 1.03893 0.81429
 H567 H 0.05268 1.09864 0.74028
 H568 H 0.05915 1.06204 0.70600
 H569 H 0.08032 1.01967 0.69324
 H570 H 0.09843 1.00492 0.77935
 C571 C 0.54368 0.63583 0.29752
 C572 C 0.55667 0.61113 0.29218
 C573 C 0.53976 0.58856 0.28574
 C574 C 0.50982 0.59131 0.28488
 C575 C 0.49689 0.61605 0.29096
 C576 C 0.51381 0.63846 0.29728
 C577 C 0.55308 0.56366 0.28094
 C578 C 0.58296 0.56110 0.28333
 C579 C 0.59946 0.58390 0.29006
 C580 C 0.58633 0.60871 0.29407
 C581 C 0.62897 0.58169 0.29287
 C582 C 0.64220 0.55709 0.28944
 C583 C 0.62646 0.53372 0.28307
 C584 C 0.59663 0.53621 0.27933
 H585 H 0.55682 0.65286 0.30310
 H586 H 0.49640 0.57427 0.28011
 H587 H 0.47374 0.61769 0.29088
 H588 H 0.54021 0.54628 0.27596
 H589 H 0.59918 0.62609 0.29919
 H590 H 0.64189 0.59902 0.29791
 H591 H 0.66517 0.55618 0.29190
 H592 H 0.58398 0.51922 0.27299
 C593 C 0.57349 0.36790 0.23342
 C594 C 0.58728 0.39273 0.23762
 C595 C 0.60878 0.40142 0.21799
 C596 C 0.61537 0.38609 0.19414
 C597 C 0.60137 0.36193 0.18990
 C598 C 0.58089 0.35205 0.20972
 C599 C 0.62357 0.42531 0.22234
 C600 C 0.61687 0.44123 0.24577
 C601 C 0.59484 0.43342 0.26507
 C602 C 0.58025 0.40899 0.26106
 C603 C 0.58833 0.45001 0.28822
 C604 C 0.60343 0.47406 0.29194
 C605 C 0.62524 0.48236 0.27249
 C606 C 0.63233 0.46478 0.25006
 H607 H 0.55759 0.36076 0.24877
 H608 H 0.63139 0.39281 0.17868
 H609 H 0.60668 0.35096 0.17084
 H610 H 0.64033 0.43159 0.20736
 H611 H 0.56363 0.40265 0.27611
 H612 H 0.57173 0.44432 0.30355
 H613 H 0.59832 0.48616 0.31029
 H614 H 0.65051 0.46871 0.23595
 C615 C 0.02845 0.85882 0.68364
 C616 C 0.03939 0.88352 0.69239
 C617 C 0.02508 0.89794 0.71420
 C618 C -0.00001 0.88715 0.72696
 C619 C -0.01078 0.86241 0.71812
 C620 C 0.00323 0.84807 0.69625
 C621 C 0.03633 0.92265 0.72303
 C622 C 0.06204 0.93274 0.71065
 C623 C 0.07622 0.91801 0.68899
 C624 C 0.06467 0.89377 0.67977
 C625 C 0.10249 0.92704 0.67761
 C626 C 0.11526 0.94998 0.68810
 C627 C 0.10140 0.96576 0.70925
 C628 C 0.07447 0.95667 0.72035
 H629 H 0.03984 0.84777 0.66715
 H630 H -0.01131 0.89785 0.74375
 H631 H -0.03038 0.85471 0.72803
 H632 H 0.02546 0.93368 0.73986
 H633 H 0.07575 0.88254 0.66319
 H634 H 0.11395 0.91560 0.66147
 H635 H 0.13684 0.95456 0.68042
 H636 H 0.06401 0.96730 0.73767
 C637 C 0.93015 0.62345 0.72459
 C638 C 0.91678 0.59905 0.73201
 C639 C 0.88703 0.59574 0.72825
 C640 C 0.87101 0.61695 0.71804
 C641 C 0.88438 0.64111 0.71092
 C642 C 0.91407 0.64455 0.71371
 C643 C 0.87371 0.57123 0.73453
 C644 C 0.88956 0.55005 0.74507
 C645 C 0.91904 0.55339 0.74970
 C646 C 0.93262 0.57784 0.74288
 C647 C 0.93423 0.53235 0.76153
 C648 C 0.92028 0.50833 0.76889
 C649 C 0.89099 0.50431 0.76348
 C650 C 0.87604 0.52572 0.75154
 H651 H 0.95304 0.62595 0.72697
 H652 H 0.84818 0.61472 0.71513
 H653 H 0.87160 0.65682 0.70217
 H654 H 0.85093 0.56868 0.73134
 H655 H 0.95537 0.58038 0.74613
 H656 H 0.95676 0.53473 0.76579
 H657 H 0.93252 0.49347 0.77950
 H658 H 0.85334 0.52348 0.74787
 C659 C 0.47032 0.13307 0.23546
 C660 C 0.45068 0.11153 0.23707
 C661 C 0.42323 0.11459 0.22584
 C662 C 0.41511 0.13923 0.21500
 C663 C 0.43439 0.16053 0.21406
 C664 C 0.46230 0.15755 0.22356
 C665 C 0.40442 0.09283 0.22496
 C666 C 0.41223 0.06808 0.23573
 C667 C 0.43854 0.06516 0.24886
 C668 C 0.45796 0.08688 0.24912
 C669 C 0.44449 0.04068 0.26177
 C670 C 0.42498 0.01918 0.26063
 C671 C 0.40029 0.02089 0.24451
 C672 C 0.39373 0.04626 0.23353
 H673 H 0.49186 0.13070 0.24283
 H674 H 0.39405 0.14186 0.20660
 H675 H 0.42794 0.17905 0.20449
 H676 H 0.38375 0.09510 0.21556
 H677 H 0.47862 0.08457 0.25849
 H678 H 0.46388 0.03838 0.27328
 H679 H 0.42916 0.00153 0.27274
 H680 H 0.37375 0.04924 0.22317
 C681 C 0.31196 0.43478 -0.13163
 C682 C 0.30295 0.42615 -0.10489
 C683 C 0.28171 0.44062 -0.08943
 C684 C 0.26959 0.46336 -0.10129
 C685 C 0.27899 0.47206 -0.12790
 C686 C 0.30057 0.45809 -0.14314
 C687 C 0.27315 0.43219 -0.06237
 C688 C 0.28553 0.40942 -0.05070
 C689 C 0.30673 0.39510 -0.06631
 C690 C 0.31530 0.40350 -0.09326
 C691 C 0.31917 0.37261 -0.05472
 C692 C 0.31007 0.36376 -0.02828
 C693 C 0.28791 0.37685 -0.01239
 C694 C 0.27683 0.40065 -0.02376
 H695 H 0.32819 0.42350 -0.14339
 H696 H 0.25324 0.47470 -0.08978
 H697 H 0.27004 0.49020 -0.13617
 H698 H 0.25684 0.44328 -0.05048
 H699 H 0.33168 0.39246 -0.10514
 H700 H 0.33572 0.36155 -0.06628
 H701 H 0.31986 0.34580 -0.02053
 H702 H 0.26145 0.41281 -0.01229
 C703 C 0.76838 0.93418 0.33888
 C704 C 0.75722 0.92596 0.36504
 C705 C 0.74899 0.94514 0.38556
 C706 C 0.75197 0.97242 0.37922
 C707 C 0.76477 0.98045 0.35357
 C708 C 0.77386 0.96134 0.33338
 C709 C 0.73933 0.93667 0.41238
 C710 C 0.73987 0.90936 0.41935
 C711 C 0.74860 0.89047 0.39865
 C712 C 0.75611 0.89876 0.37147
 C713 C 0.75076 0.86355 0.40558
 C714 C 0.74580 0.85543 0.43304
 C715 C 0.73776 0.87378 0.45453
 C716 C 0.73304 0.90065 0.44685
 H717 H 0.77427 0.91916 0.32331
 H718 H 0.74586 0.98750 0.39464
 H719 H 0.76874 1.00155 0.35020
 H720 H 0.73307 0.95135 0.42820
 H721 H 0.76282 0.88409 0.35576
 H722 H 0.75729 0.84882 0.38992
 H723 H 0.74875 0.83449 0.43760
 H724 H 0.72450 0.91492 0.46201
 C725 C 0.80496 0.05965 1.12253
 C726 C 0.80161 0.07605 1.09900
 C727 C 0.82407 0.09367 1.09050
 C728 C 0.84937 0.09455 1.10511
 C729 C 0.85289 0.07780 1.12776
 C730 C 0.83099 0.05987 1.13685
 C731 C 0.82118 0.11010 1.06731
 C732 C 0.79641 0.10879 1.05183
 C733 C 0.77392 0.09112 1.05969
 C734 C 0.77651 0.07492 1.08349
 C735 C 0.74923 0.09038 1.04376
 C736 C 0.74717 0.10676 1.02016
 C737 C 0.77007 0.12377 1.01144
 C738 C 0.79405 0.12520 1.02857
 H739 H 0.78791 0.04582 1.12860
 H740 H 0.86662 0.10816 1.09893
 H741 H 0.87266 0.07976 1.13877
 H742 H 0.83846 0.12368 1.06104
 H743 H 0.75921 0.06139 1.08976
 H744 H 0.73141 0.07734 1.04969
 H745 H 0.72752 0.10634 1.00881
 H746 H 0.81104 0.13962 1.02430
 C747 C 0.28950 0.55665 0.63489
 C748 C 0.27396 0.57066 0.61510
 C749 C 0.24852 0.58415 0.62369
 C750 C 0.23880 0.58301 0.65177
 C751 C 0.25441 0.56908 0.67133
 C752 C 0.28004 0.55597 0.66322
 C753 C 0.23347 0.59892 0.60420
 C754 C 0.24373 0.60069 0.57627
 C755 C 0.26879 0.58675 0.56754
 C756 C 0.28372 0.57174 0.58697
 C757 C 0.27853 0.58811 0.53952
 C758 C 0.26435 0.60409 0.52061
 C759 C 0.24053 0.61989 0.52929
 C760 C 0.22948 0.61656 0.55708
 H761 H 0.30940 0.54693 0.62835
 H762 H 0.21924 0.59309 0.65868
 H763 H 0.24635 0.56853 0.69287
 H764 H 0.21412 0.60950 0.61090
 H765 H 0.30313 0.56124 0.58029
 H766 H 0.29735 0.57707 0.53227
 H767 H 0.27259 0.60488 0.49914
 H768 H 0.20977 0.62614 0.56417
 C769 C 0.17482 0.55750 0.37396
 C770 C 0.18870 0.57149 0.39516
 C771 C 0.21237 0.58824 0.38804
 C772 C 0.22208 0.59035 0.36004
 C773 C 0.20812 0.57644 0.33910
 C774 C 0.18422 0.56011 0.34576
 C775 C 0.22560 0.60307 0.40892
 C776 C 0.21518 0.60178 0.43679
 C777 C 0.19205 0.58456 0.44410
 C778 C 0.17903 0.56936 0.42327
 C779 C 0.18224 0.58304 0.47212
 C780 C 0.19409 0.59959 0.49236
 C781 C 0.21542 0.61877 0.48502
 C782 C 0.22719 0.61803 0.45728
 H783 H 0.15665 0.54467 0.37937
 H784 H 0.24018 0.60311 0.35425
 H785 H 0.21560 0.57902 0.31756
 H786 H 0.24350 0.61620 0.40334
 H787 H 0.16103 0.55635 0.42883
 H788 H 0.16501 0.56943 0.47832
 H789 H 0.18570 0.59831 0.51375
 H790 H 0.24560 0.63014 0.45114
 C791 C 0.70829 0.06964 0.85287
 C792 C 0.72006 0.07844 0.87784
 C793 C 0.73026 0.05969 0.89702
 C794 C 0.72916 0.03240 0.89047
 C795 C 0.71742 0.02370 0.86551
 C796 C 0.70617 0.04211 0.84644
 C797 C 0.74121 0.06854 0.92244
 C798 C 0.74218 0.09599 0.92879
 C799 C 0.73263 0.11469 0.90915
 C800 C 0.72159 0.10583 0.88390
 C801 C 0.73456 0.14204 0.91488
 C802 C 0.74549 0.15087 0.93998
 C803 C 0.75378 0.13267 0.96065
 C804 C 0.75281 0.10505 0.95430
 H805 H 0.70144 0.08455 0.83823
 H806 H 0.73691 0.01769 0.90491
 H807 H 0.71585 0.00235 0.86218
 H808 H 0.74881 0.05411 0.93729
 H809 H 0.71406 0.12027 0.86901
 H810 H 0.72786 0.15665 0.89981
 H811 H 0.74735 0.17222 0.94349
 H812 H 0.76096 0.09055 0.96867
 C813 C 0.70426 0.94408 0.62684
 C814 C 0.70847 0.92666 0.60380
 C815 C 0.69543 0.90104 0.60453
 C816 C 0.67929 0.89289 0.62827
 C817 C 0.67551 0.91009 0.65104
 C818 C 0.68765 0.93586 0.65054
 C819 C 0.69830 0.88396 0.58140
 C820 C 0.71417 0.89196 0.55745
 C821 C 0.72825 0.91697 0.55677
 C822 C 0.72521 0.93435 0.57997
 C823 C 0.74531 0.92383 0.53299
 C824 C 0.74734 0.90651 0.50978
 C825 C 0.73092 0.88272 0.50913
 C826 C 0.71595 0.87511 0.53411
 H827 H 0.71375 0.96391 0.62636
 H828 H 0.66925 0.87330 0.62909
 H829 H 0.66228 0.90350 0.66884
 H830 H 0.68786 0.86451 0.58193
 H831 H 0.73566 0.95377 0.57943
 H832 H 0.75733 0.94243 0.53245
 H833 H 0.76187 0.91179 0.49249
 H834 H 0.70525 0.85585 0.53540
 C835 C 0.19679 0.45202 0.13587
 C836 C 0.21536 0.43869 0.11668
 C837 C 0.24287 0.43086 0.12496
 C838 C 0.25145 0.43669 0.15210
 C839 C 0.23271 0.44958 0.17116
 C840 C 0.20517 0.45715 0.16336
 C841 C 0.26112 0.41675 0.10624
 C842 C 0.25202 0.40978 0.07952
 C843 C 0.22466 0.41770 0.07115
 C844 C 0.20659 0.43238 0.08965
 C845 C 0.21545 0.40997 0.04480
 C846 C 0.23281 0.39392 0.02725
 C847 C 0.26042 0.38561 0.03497
 C848 C 0.26958 0.39409 0.06158
 H849 H 0.17547 0.45755 0.12976
 H850 H 0.27249 0.43089 0.15875
 H851 H 0.23973 0.45362 0.19211
 H852 H 0.28211 0.41058 0.11276
 H853 H 0.18544 0.43825 0.08329
 H854 H 0.19439 0.41560 0.03809
 H855 H 0.22425 0.38717 0.00767
 H856 H 0.28979 0.38773 0.06948
 C857 C -0.12870 0.27538 0.45171
 C858 C -0.10810 0.26954 0.43038
 C859 C -0.11313 0.27699 0.40247
 C860 C -0.13912 0.28902 0.39614
 C861 C -0.15960 0.29445 0.41738
 C862 C -0.15437 0.28817 0.44535
 C863 C -0.09196 0.27266 0.38139
 C864 C -0.06596 0.26053 0.38770
 C865 C -0.06152 0.25190 0.41520
 C866 C -0.08243 0.25670 0.43650
 C867 C -0.03657 0.23793 0.42074
 C868 C -0.01591 0.23322 0.39943
 C869 C -0.01823 0.24408 0.37216
 C870 C -0.04456 0.25661 0.36667
 H871 H -0.12463 0.27044 0.47325
 H872 H -0.14338 0.29471 0.37486
 H873 H -0.17909 0.30467 0.41210
 H874 H -0.09567 0.27886 0.36011
 H875 H -0.07876 0.25043 0.45775
 H876 H -0.03338 0.22989 0.44140
 H877 H 0.00139 0.22008 0.40457
 H878 H -0.04943 0.26275 0.34599
 C879 C 0.37039 0.81880 0.94619
 C880 C 0.39651 0.80806 0.93577
 C881 C 0.42163 0.82409 0.93486
 C882 C 0.42014 0.85061 0.94454
 C883 C 0.39383 0.86142 0.95391
 C884 C 0.36879 0.84568 0.95461
 C885 C 0.44744 0.81373 0.92314
 C886 C 0.44802 0.78813 0.91085
 C887 C 0.42281 0.77235 0.91169
 C888 C 0.39751 0.78204 0.92484
 C889 C 0.42276 0.74767 0.89800
 C890 C 0.44666 0.73936 0.88193
 C891 C 0.47225 0.75483 0.88007
 C892 C 0.47280 0.77876 0.89617
 H893 H 0.35099 0.80674 0.94636
 H894 H 0.43909 0.86326 0.94394
 H895 H 0.39291 0.88222 0.96033
 H896 H 0.46662 0.82613 0.92223
 H897 H 0.37817 0.76986 0.92519
 H898 H 0.40353 0.73537 0.89834
 H899 H 0.44386 0.72113 0.87032
 H900 H 0.49197 0.79112 0.89553
 C901 C 1.14329 0.81701 0.03707
 C902 C 1.11740 0.80600 0.04788
 C903 C 1.09109 0.81353 0.03649
 C904 C 1.09122 0.83124 0.01386
 C905 C 1.11703 0.84218 0.00329
 C906 C 1.14327 0.83565 0.01511
 C907 C 1.06509 0.80369 0.04825
 C908 C 1.06503 0.78643 0.07133
 C909 C 1.09136 0.77843 0.08224
 C910 C 1.11736 0.78819 0.07046
 C911 C 1.09127 0.76141 0.10535
 C912 C 1.06541 0.75251 0.11775
 C913 C 1.03870 0.75974 0.10695
 C914 C 1.03905 0.77751 0.08402
 H915 H 1.16329 0.81196 0.04656
 H916 H 1.07131 0.83704 0.00466
 H917 H 1.11642 0.85608 -0.01398
 H918 H 1.04491 0.80979 0.03973
 H919 H 1.13751 0.78235 0.07920
 H920 H 1.11125 0.75546 0.11432
 H921 H 1.06662 0.74060 0.13648
 H922 H 1.01896 0.78469 0.07629
 C923 C 0.63482 0.30046 0.56675
 C924 C 0.61005 0.29493 0.58344
 C925 C 0.60034 0.31386 0.60373
 C926 C 0.61521 0.33801 0.60680
 C927 C 0.63959 0.34344 0.58999
 C928 C 0.64966 0.32479 0.56990
 C929 C 0.57596 0.30838 0.62073
 C930 C 0.56088 0.28433 0.61762
 C931 C 0.57024 0.26547 0.59725
 C932 C 0.59486 0.27083 0.58027
 C933 C 0.55512 0.24137 0.59463
 C934 C 0.53087 0.23613 0.61190
 C935 C 0.52054 0.25512 0.63178
 C936 C 0.53673 0.27885 0.63495
 H937 H 0.64240 0.28606 0.55118
 H938 H 0.60805 0.35268 0.62227
 H939 H 0.65093 0.36212 0.59304
 H940 H 0.56869 0.32288 0.63638
 H941 H 0.60222 0.25628 0.56474
 H942 H 0.56222 0.22641 0.57944
 H943 H 0.52012 0.21702 0.60984
 H944 H 0.53133 0.29302 0.65146
 C945 C 0.36686 0.19449 0.56111
 C946 C 0.39085 0.20629 0.57298
 C947 C 0.41268 0.21782 0.55551
 C948 C 0.40994 0.21747 0.52639
 C949 C 0.38592 0.20562 0.51471
 C950 C 0.36427 0.19389 0.53195
 C951 C 0.43694 0.22926 0.56744
 C952 C 0.43975 0.22897 0.59658
 C953 C 0.41768 0.21768 0.61393
 C954 C 0.39335 0.20655 0.60206
 C955 C 0.42029 0.21760 0.64293
 C956 C 0.44499 0.22769 0.65466
 C957 C 0.46809 0.23773 0.63775
 C958 C 0.46443 0.23949 0.60861
 H959 H 0.35003 0.18596 0.57463
 H960 H 0.42645 0.22619 0.51266
 H961 H 0.38447 0.20527 0.49216
 H962 H 0.45378 0.23796 0.55404
 H963 H 0.37652 0.19780 0.61545
 H964 H 0.40338 0.20942 0.65658
 H965 H 0.44651 0.22702 0.67720
 H966 H 0.48052 0.24897 0.59508
 C967 C 0.86605 0.70499 0.05158
 C968 C 0.88904 0.71438 0.06715
 C969 C 0.88436 0.72076 0.09579
 C970 C 0.85694 0.71765 0.10836
 C971 C 0.83441 0.70766 0.09296
 C972 C 0.83860 0.70104 0.06444
 C973 C 0.90723 0.72971 0.11157
 C974 C 0.93489 0.73198 0.09924
 C975 C 0.93979 0.72545 0.07073
 C976 C 0.91676 0.71689 0.05473
 C977 C 0.96775 0.72710 0.05891
 C978 C 0.99057 0.73553 0.07507
 C979 C 0.98579 0.74339 0.10327
 C980 C 0.95775 0.74049 0.11521
 H981 H 0.86970 0.70049 0.02955
 H982 H 0.85307 0.72230 0.13034
 H983 H 0.81391 0.70433 0.10379
 H984 H 0.90356 0.73462 0.13355
 H985 H 0.92049 0.71179 0.03282
 H986 H 0.97206 0.72151 0.03723
 H987 H 1.01190 0.73538 0.06541
 H988 H 0.95376 0.74520 0.13717
 C989 C 0.63149 0.69870 0.94383
 C990 C 0.60598 0.70875 0.93341
 C991 C 0.58413 0.71845 0.95206
 C992 C 0.58847 0.71824 0.98093
 C993 C 0.61394 0.70809 0.99118
 C994 C 0.63562 0.69799 0.97277
 C995 C 0.55830 0.72795 0.94154
 C996 C 0.55413 0.72792 0.91255
 C997 C 0.57628 0.71840 0.89409
 C998 C 0.60191 0.70887 0.90458
 C999 C 0.57258 0.71855 0.86528
 C1000 C 0.54733 0.72817 0.85467
 C1001 C 0.52465 0.73784 0.87245
 C1002 C 0.52833 0.73732 0.90169
 H1003 H 0.64777 0.69062 0.92940
 H1004 H 0.57209 0.72571 0.99560
 H1005 H 0.61666 0.70807 1.01357
 H1006 H 0.54150 0.73529 0.95586
 H1007 H 0.61871 0.70148 0.89026
 H1008 H 0.58937 0.71142 0.85085
 H1009 H 0.54555 0.72848 0.83215
 H1010 H 0.51152 0.74429 0.91609
 C1011 C 0.15003 0.20751 0.42475
 C1012 C 0.12430 0.21645 0.41409
 C1013 C 0.10799 0.23605 0.42889
 C1014 C 0.11773 0.24623 0.45427
 C1015 C 0.14311 0.23662 0.46515
 C1016 C 0.15937 0.21725 0.45042
 C1017 C 0.08195 0.24465 0.41837
 C1018 C 0.07173 0.23329 0.39374
 C1019 C 0.08797 0.21358 0.37918
 C1020 C 0.11432 0.20548 0.38924
 C1021 C 0.07767 0.20233 0.35468
 C1022 C 0.05120 0.21008 0.34488
 C1023 C 0.03387 0.22908 0.35956
 C1024 C 0.04539 0.24127 0.38355
 H1025 H 0.16225 0.19210 0.41366
 H1026 H 0.10544 0.26117 0.46596
 H1027 H 0.15000 0.24415 0.48510
 H1028 H 0.06938 0.25971 0.42965
 H1029 H 0.12683 0.19035 0.37801
 H1030 H 0.09015 0.18751 0.34299
 H1031 H 0.04469 0.20118 0.32548
 H1032 H 0.03394 0.25750 0.39403
 C1033 C 0.56592 0.11714 0.71435
 C1034 C 0.54906 0.13759 0.70358
 C1035 C 0.52623 0.13092 0.68616
 C1036 C 0.52015 0.10403 0.68040
 C1037 C 0.53691 0.08384 0.69131
 C1038 C 0.56010 0.09017 0.70807
 C1039 C 0.51013 0.15121 0.67433
 C1040 C 0.51656 0.17815 0.67959
 C1041 C 0.53883 0.18493 0.69751
 C1042 C 0.55494 0.16458 0.70951
 C1043 C 0.54525 0.21194 0.70227
 C1044 C 0.53022 0.23200 0.68882
 C1045 C 0.50786 0.22570 0.67076
 C1046 C 0.50160 0.19832 0.66624
 H1047 H 0.58358 0.12215 0.72756
 H1048 H 0.50268 0.09861 0.66714
 H1049 H 0.53218 0.06323 0.68606
 H1050 H 0.49291 0.14604 0.66062
 H1051 H 0.57239 0.16975 0.72294
 H1052 H 0.56246 0.21757 0.71574
 H1053 H 0.53665 0.25262 0.69187
 H1054 H 0.48616 0.19223 0.65113
 C1055 C 1.04423 0.61441 0.19671
 C1056 C 1.03760 0.63628 0.17985
 C1057 C 1.04467 0.63542 0.15082
 C1058 C 1.05702 0.61229 0.13897
 C1059 C 1.06344 0.59060 0.15587
 C1060 C 1.05774 0.59169 0.18492
 C1061 C 1.03995 0.65791 0.13423
 C1062 C 1.02813 0.68120 0.14627
 C1063 C 1.01985 0.68167 0.17498
 C1064 C 1.02470 0.65923 0.19165
 C1065 C 1.00683 0.70460 0.18649
 C1066 C 1.00297 0.72723 0.17000
 C1067 C 1.01335 0.72797 0.14185
 C1068 C 1.02473 0.70414 0.13003
 H1069 H 1.03956 0.61528 0.21909
 H1070 H 1.06241 0.61125 0.11674
 H1071 H 1.07408 0.57340 0.14640
 H1072 H 1.04593 0.65743 0.11208
 H1073 H 1.01886 0.65978 0.21383
 H1074 H 0.99939 0.70499 0.20825
 H1075 H 0.99149 0.74385 0.17950
 H1076 H 1.03136 0.70368 0.10804
 C1077 C 0.94207 0.88551 0.18983
 C1078 C 0.95334 0.86410 0.17370
 C1079 C 0.94166 0.85811 0.14750
 C1080 C 0.91986 0.87408 0.13735
 C1081 C 0.90894 0.89531 0.15334
 C1082 C 0.91933 0.90092 0.18001
 C1083 C 0.95153 0.83598 0.13199
 C1084 C 0.97287 0.81954 0.14233
 C1085 C 0.98553 0.82598 0.16785
 C1086 C 0.97567 0.84824 0.18347
 C1087 C 1.00778 0.80995 0.17721
 C1088 C 1.01620 0.78699 0.16222
 C1089 C 1.00156 0.77866 0.13834
 C1090 C 0.98131 0.79646 0.12759
 H1091 H 0.95036 0.88960 0.21029
 H1092 H 0.91100 0.86998 0.11713
 H1093 H 0.89216 0.90733 0.14479
 H1094 H 0.94210 0.83118 0.11217
 H1095 H 0.98502 0.85296 0.20334
 H1096 H 1.01853 0.81504 0.19623
 H1097 H 1.03361 0.77513 0.16985
 H1098 H 0.97171 0.79240 0.10774
 C1099 C 0.42962 0.38618 0.70762
 C1100 C 0.44164 0.36352 0.69435
 C1101 C 0.44570 0.36315 0.66489
 C1102 C 0.43813 0.38552 0.64928
 C1103 C 0.42615 0.40795 0.66263
 C1104 C 0.42151 0.40844 0.69185
 C1105 C 0.45701 0.34035 0.65146
 C1106 C 0.46444 0.31795 0.66710
 C1107 C 0.46079 0.31834 0.69653
 C1108 C 0.44935 0.34114 0.71003
 C1109 C 0.46826 0.29574 0.71188
 C1110 C 0.47955 0.27306 0.69825
 C1111 C 0.48411 0.27261 0.66889
 C1112 C 0.47541 0.29510 0.65361
 H1113 H 0.42649 0.38647 0.73020
 H1114 H 0.44112 0.38553 0.62669
 H1115 H 0.41979 0.42466 0.64999
 H1116 H 0.45994 0.34002 0.62884
 H1117 H 0.44629 0.34140 0.73263
 H1118 H 0.46511 0.29550 0.73446
 H1119 H 0.48398 0.25579 0.71085
 H1120 H 0.47760 0.29480 0.63094
 C1121 C 0.44005 0.61614 0.78486
 C1122 C 0.45394 0.63657 0.79961
 C1123 C 0.46286 0.63167 0.82708
 C1124 C 0.45910 0.60626 0.83882
 C1125 C 0.44518 0.58622 0.82417
 C1126 C 0.43472 0.59115 0.79749
 C1127 C 0.47450 0.65243 0.84282
 C1128 C 0.47719 0.67816 0.83161
 C1129 C 0.46964 0.68296 0.80381
 C1130 C 0.45809 0.66210 0.78787
 C1131 C 0.47341 0.70865 0.79267
 C1132 C 0.48320 0.72969 0.80931
 C1133 C 0.48848 0.72581 0.83796
 C1134 C 0.48656 0.69931 0.84822
 H1135 H 0.43206 0.62013 0.76431
 H1136 H 0.46617 0.60210 0.85969
 H1137 H 0.44188 0.56694 0.83404
 H1138 H 0.48065 0.64873 0.86412
 H1139 H 0.45164 0.66590 0.76670
 H1140 H 0.46860 0.71256 0.77108
 H1141 H 0.48639 0.74872 0.79922
 H1142 H 0.49124 0.69539 0.86986
 C1143 C -0.05968 0.10306 0.28712
 C1144 C -0.04803 0.12509 0.30116
 C1145 C -0.04677 0.12464 0.33066
 C1146 C -0.05617 0.10198 0.34551
 C1147 C -0.06755 0.08015 0.33141
 C1148 C -0.06999 0.08061 0.30219
 C1149 C -0.03642 0.14695 0.34494
 C1150 C -0.02706 0.16968 0.33014
 C1151 C -0.02732 0.16996 0.30067
 C1152 C -0.03800 0.14769 0.28628
 C1153 C -0.01638 0.19233 0.28619
 C1154 C -0.00583 0.21440 0.30081
 C1155 C -0.00736 0.21530 0.33041
 C1156 C -0.01718 0.19205 0.34457
 H1157 H -0.06161 0.10382 0.26462
 H1158 H -0.05500 0.10123 0.36809
 H1159 H -0.07469 0.06292 0.34347
 H1160 H -0.03582 0.14668 0.36760
 H1161 H -0.03855 0.14796 0.26362
 H1162 H -0.01539 0.19253 0.26350
 H1163 H 0.00427 0.23023 0.28865
 H1164 H -0.01656 0.19097 0.36710
 C1165 C 0.05033 0.38315 0.28744
 C1166 C 0.04665 0.35711 0.29823
 C1167 C 0.06750 0.34661 0.31586
 C1168 C 0.09153 0.36192 0.32236
 C1169 C 0.09480 0.38770 0.31193
 C1170 C 0.07424 0.39870 0.29467
 C1171 C 0.06395 0.32105 0.32715
 C1172 C 0.03953 0.30582 0.32164
 C1173 C 0.01871 0.31590 0.30401
 C1174 C 0.02243 0.34149 0.29214
 C1175 C -0.00541 0.30014 0.29872
 C1176 C -0.00931 0.27522 0.31170
 C1177 C 0.01057 0.26513 0.33073
 C1178 C 0.03567 0.28080 0.33419
 H1179 H 0.03442 0.39151 0.27407
 H1180 H 0.10771 0.35405 0.33573
 H1181 H 0.11367 0.39908 0.31726
 H1182 H 0.07999 0.31323 0.34077
 H1183 H 0.00636 0.34935 0.27861
 H1184 H -0.02142 0.30715 0.28467
 H1185 H -0.02798 0.26375 0.30622
 H1186 H 0.05284 0.27430 0.34679
 C1187 C 0.55583 0.88902 0.79849
 C1188 C 0.54933 0.86377 0.81010
 C1189 C 0.57034 0.85037 0.82533
 C1190 C 0.59709 0.86236 0.82912
 C1191 C 0.60315 0.88748 0.81798
 C1192 C 0.58273 0.90104 0.80259
 C1193 C 0.56438 0.82520 0.83670
 C1194 C 0.53752 0.81320 0.83355
 C1195 C 0.51617 0.82651 0.81895
 C1196 C 0.52226 0.85171 0.80702
 C1197 C 0.48901 0.81458 0.81717
 C1198 C 0.48327 0.78967 0.82958
 C1199 C 0.50481 0.77535 0.84314
 C1200 C 0.53179 0.78818 0.84545
 H1201 H 0.53999 0.89946 0.78667
 H1202 H 0.61335 0.85230 0.84074
 H1203 H 0.62413 0.89621 0.82099
 H1204 H 0.58067 0.81500 0.84821
 H1205 H 0.50593 0.86199 0.79567
 H1206 H 0.47205 0.82469 0.80658
 H1207 H 0.46179 0.78144 0.82866
 H1208 H 0.54859 0.77956 0.85737
 C1209 C 0.70860 0.56337 0.13335
 C1210 C 0.69455 0.55090 0.15639
 C1211 C 0.66554 0.54315 0.15465
 C1212 C 0.65147 0.54667 0.12971
 C1213 C 0.66557 0.55862 0.10678
 C1214 C 0.69425 0.56801 0.10813
 C1215 C 0.65079 0.53236 0.17801
 C1216 C 0.66481 0.52878 0.20306
 C1217 C 0.69420 0.53513 0.20464
 C1218 C 0.70895 0.54633 0.18127
 C1219 C 0.70801 0.53081 0.22979
 C1220 C 0.69268 0.52080 0.25332
 C1221 C 0.66309 0.51485 0.25217
 C1222 C 0.64954 0.51940 0.22672
 H1223 H 0.73102 0.56850 0.13514
 H1224 H 0.62920 0.54072 0.12810
 H1225 H 0.65269 0.56216 0.08886
 H1226 H 0.62828 0.52702 0.17678
 H1227 H 0.73138 0.55186 0.18260
 H1228 H 0.73055 0.53571 0.23147
 H1229 H 0.70387 0.51899 0.27259
 H1230 H 0.62665 0.51583 0.22556
 C1231 C 0.20220 1.06458 0.59796
 C1232 C 0.18513 1.04953 0.61702
 C1233 C 0.15802 1.03994 0.60906
 C1234 C 0.14876 1.04492 0.58206
 C1235 C 0.16598 1.05961 0.56315
 C1236 C 0.19265 1.06980 0.57097
 C1237 C 0.14048 1.02571 0.62828
 C1238 C 0.14972 1.02074 0.65533
 C1239 C 0.17705 1.02949 0.66304
 C1240 C 0.19462 1.04398 0.64391
 C1241 C 0.18643 1.02331 0.68965
 C1242 C 0.16860 1.00935 0.70880
 C1243 C 0.14020 1.00178 0.70241
 C1244 C 0.13184 1.00711 0.67473
 H1245 H 0.22288 1.07218 0.60402
 H1246 H 0.12808 1.03765 0.57562
 H1247 H 0.15812 1.06361 0.54256
 H1248 H 0.11953 1.01868 0.62224
 H1249 H 0.21557 1.05097 0.64997
 H1250 H 0.20774 1.02917 0.69569
 H1251 H 0.17801 1.00467 0.72828
 H1252 H 0.11149 0.99989 0.66761
 C1253 C 0.19806 0.94384 0.86208
 C1254 C 0.18634 0.95579 0.83870
 C1255 C 0.18751 0.98375 0.83544
 C1256 C 0.20081 0.99927 0.85570
 C1257 C 0.21275 0.98725 0.87896
 C1258 C 0.21181 0.95910 0.88287
 C1259 C 0.17516 0.99563 0.81213
 C1260 C 0.16164 0.97967 0.79213
 C1261 C 0.16088 0.95168 0.79549
 C1262 C 0.17312 0.93993 0.81866
 C1263 C 0.14773 0.93571 0.77573
 C1264 C 0.13481 0.94718 0.75299
 C1265 C 0.13426 0.97534 0.74903
 C1266 C 0.14858 0.99119 0.76903
 H1267 H 0.19465 0.92257 0.86428
 H1268 H 0.20217 1.02081 0.85348
 H1269 H 0.22366 1.00046 0.89301
 H1270 H 0.17589 1.01718 0.80968
 H1271 H 0.17227 0.91837 0.82113
 H1272 H 0.14722 0.91414 0.77793
 H1273 H 0.12514 0.93322 0.73889
 H1274 H 0.14903 1.01277 0.76690
 C1275 C 0.72591 0.44024 0.40221
 C1276 C 0.71624 0.45105 0.37729
 C1277 C 0.72316 0.43838 0.35139
 C1278 C 0.73998 0.41519 0.35092
 C1279 C 0.74874 0.40406 0.37596
 C1280 C 0.74147 0.41634 0.40175
 C1281 C 0.71220 0.44848 0.32660
 C1282 C 0.69350 0.47043 0.32760
 C1283 C 0.68663 0.48289 0.35358
 C1284 C 0.69849 0.47352 0.37811
 C1285 C 0.66689 0.50376 0.35493
 C1286 C 0.65347 0.51194 0.33097
 C1287 C 0.66052 0.50052 0.30443
 C1288 C 0.68061 0.47942 0.30326
 H1289 H 0.71990 0.44951 0.42213
 H1290 H 0.74551 0.40516 0.33132
 H1291 H 0.76076 0.38557 0.37529
 H1292 H 0.71733 0.43866 0.30677
 H1293 H 0.69292 0.48304 0.39802
 H1294 H 0.66088 0.51308 0.37481
 H1295 H 0.63682 0.52675 0.33387
 H1296 H 0.68547 0.46948 0.28345
 C1297 C 0.81414 0.41567 0.63280
 C1298 C 0.82662 0.42979 0.65470
 C1299 C 0.84513 0.45161 0.64855
 C1300 C 0.85025 0.45933 0.62065
 C1301 C 0.83716 0.44559 0.59900
 C1302 C 0.81908 0.42348 0.60471
 C1303 C 0.85810 0.46541 0.67037
 C1304 C 0.85224 0.45808 0.69834
 C1305 C 0.83319 0.43670 0.70450
 C1306 C 0.82075 0.42247 0.68265
 C1307 C 0.82705 0.42976 0.73242
 C1308 C 0.83951 0.44396 0.75408
 C1309 C 0.85847 0.46559 0.74855
 C1310 C 0.86522 0.47185 0.72018
 H1311 H 0.80082 0.39840 0.63776
 H1312 H 0.86415 0.47619 0.61558
 H1313 H 0.84099 0.45257 0.57779
 H1314 H 0.87254 0.48200 0.66560
 H1315 H 0.80635 0.40586 0.68741
 H1316 H 0.81259 0.41332 0.73755
 H1317 H 0.83438 0.43798 0.77543
 H1318 H 0.88091 0.48710 0.71466
 C1319 C 0.30170 -0.02696 0.09889
 C1320 C 0.30900 -0.01917 0.12587
 C1321 C 0.28875 -0.02164 0.14848
 C1322 C 0.26109 -0.03126 0.14334
 C1323 C 0.25423 -0.03979 0.11642
 C1324 C 0.27477 -0.03840 0.09410
 C1325 C 0.29693 -0.01557 0.17585
 C1326 C 0.32549 -0.00829 0.18089
 C1327 C 0.34545 -0.00580 0.15798
 C1328 C 0.33691 -0.01048 0.13068
 C1329 C 0.37419 -0.00026 0.16268
 C1330 C 0.38352 0.00166 0.18981
 C1331 C 0.36420 -0.00019 0.21326
 C1332 C 0.33486 -0.00493 0.20841
 H1333 H 0.31752 -0.02520 0.08177
 H1334 H 0.24518 -0.03327 0.16033
 H1335 H 0.23331 -0.04858 0.11336
 H1336 H 0.28153 -0.01778 0.19328
 H1337 H 0.35247 -0.00884 0.11328
 H1338 H 0.38980 0.00126 0.14536
 H1339 H 0.40634 0.00406 0.19254
 H1340 H 0.31966 -0.00763 0.22586
 C1341 C 0.29436 0.06654 0.37131
 C1342 C 0.30273 0.05510 0.34553
 C1343 C 0.29491 0.06725 0.32031
 C1344 C 0.27769 0.09024 0.32153
 C1345 C 0.26940 0.10157 0.34745
 C1346 C 0.27830 0.09013 0.37245
 C1347 C 0.30523 0.05670 0.29450
 C1348 C 0.32376 0.03454 0.29380
 C1349 C 0.33069 0.02221 0.31922
 C1350 C 0.31982 0.03225 0.34478
 C1351 C 0.34979 0.00090 0.31902
 C1352 C 0.36327 -0.00734 0.29413
 C1353 C 0.35701 0.00442 0.26817
 C1354 C 0.33671 0.02539 0.26840
 H1355 H 0.30090 0.05743 0.39059
 H1356 H 0.27128 0.09981 0.30249
 H1357 H 0.25691 0.11979 0.34798
 H1358 H 0.29977 0.06630 0.27513
 H1359 H 0.32573 0.02296 0.36420
 H1360 H 0.35560 -0.00849 0.33838
 H1361 H 0.37978 -0.02233 0.29564
 H1362 H 0.33225 0.03564 0.24917
 C1363 C 0.79072 0.55638 0.89872
 C1364 C 0.80837 0.54274 0.87890
 C1365 C 0.83808 0.54036 0.88333
 C1366 C 0.84964 0.55145 0.90738
 C1367 C 0.83200 0.56483 0.92695
 C1368 C 0.80243 0.56743 0.92293
 C1369 C 0.85589 0.52705 0.86363
 C1370 C 0.84445 0.51598 0.83951
 C1371 C 0.81482 0.51809 0.83500
 C1372 C 0.79689 0.53148 0.85474
 C1373 C 0.80377 0.50712 0.81059
 C1374 C 0.82188 0.49422 0.79082
 C1375 C 0.85153 0.49148 0.79526
 C1376 C 0.86242 0.50304 0.81970
 H1377 H 0.76792 0.55816 0.89550
 H1378 H 0.87238 0.54988 0.91100
 H1379 H 0.84163 0.57357 0.94514
 H1380 H 0.87869 0.52539 0.86704
 H1381 H 0.77413 0.53324 0.85124
 H1382 H 0.78115 0.50891 0.80653
 H1383 H 0.81252 0.48724 0.77179
 H1384 H 0.88525 0.50197 0.82315
 C1385 C 0.08563 0.70829 0.57378
 C1386 C 0.10778 0.69616 0.55763
 C1387 C 0.10098 0.67962 0.53474
 C1388 C 0.07220 0.67554 0.52839
 C1389 C 0.05027 0.68705 0.54504
 C1390 C 0.05662 0.70338 0.56809
 C1391 C 0.12298 0.66681 0.51907
 C1392 C 0.15163 0.66947 0.52667
 C1393 C 0.15846 0.68606 0.54948
 C1394 C 0.13656 0.69968 0.56453
 C1395 C 0.18705 0.68843 0.55709
 C1396 C 0.20845 0.67345 0.54318
 C1397 C 0.20190 0.65544 0.52142
 C1398 C 0.17340 0.65514 0.51225
 H1399 H 0.09106 0.72124 0.59104
 H1400 H 0.06661 0.66280 0.51100
 H1401 H 0.02828 0.68242 0.54029
 H1402 H 0.11769 0.65399 0.50161
 H1403 H 0.14182 0.71233 0.58212
 H1404 H 0.19280 0.70139 0.57424
 H1405 H 0.23027 0.67526 0.54999
 H1406 H 0.16765 0.64376 0.49404
 C1407 C 0.64172 0.21390 1.07622
 C1408 C 0.66096 0.20351 1.05559
 C1409 C 0.65019 0.18839 1.03318
 C1410 C 0.62053 0.18469 1.03119
 C1411 C 0.60161 0.19521 1.05163
 C1412 C 0.61196 0.20952 1.07450
 C1413 C 0.66920 0.17653 1.01352
 C1414 C 0.69892 0.17928 1.01605
 C1415 C 0.70985 0.19515 1.03768
 C1416 C 0.69077 0.20736 1.05730
 C1417 C 0.73966 0.19733 1.04010
 C1418 C 0.75836 0.18273 1.02225
 C1419 C 0.74782 0.16604 1.00100
 C1420 C 0.71772 0.16496 0.99815
 H1421 H 0.64982 0.22520 1.09367
 H1422 H 0.61199 0.17322 1.01408
 H1423 H 0.57882 0.19150 1.04997
 H1424 H 0.66086 0.16442 0.99675
 H1425 H 0.69911 0.21906 1.07436
 H1426 H 0.74851 0.20928 1.05669
 H1427 H 0.78105 0.18323 1.02621
 H1428 H 0.70834 0.15126 0.98346
 C1429 C 0.91978 0.20186 0.93507
 C1430 C 0.89155 0.19678 0.94461
 C1431 C 0.87235 0.21803 0.94978
 C1432 C 0.88200 0.24424 0.94513
 C1433 C 0.91000 0.24923 0.93453
 C1434 C 0.92961 0.22806 0.92849
 C1435 C 0.84390 0.21260 0.95929
 C1436 C 0.83448 0.18599 0.96304
 C1437 C 0.85395 0.16490 0.95712
 C1438 C 0.88228 0.17040 0.94846
 C1439 C 0.84483 0.13842 0.95949
 C1440 C 0.81689 0.13263 0.96840
 C1441 C 0.79727 0.15305 0.97628
 C1442 C 0.80609 0.17996 0.97247
 H1443 H 0.93389 0.18483 0.93358
 H1444 H 0.86762 0.26095 0.94892
 H1445 H 0.91511 0.26984 0.92989
 H1446 H 0.82913 0.22895 0.96350
 H1447 H 0.89703 0.15402 0.94413
 H1448 H 0.85936 0.12207 0.95448
 H1449 H 0.81070 0.11178 0.97007
 H1450 H 0.79111 0.19610 0.97656
 C1451 C 0.35592 0.71995 0.43579
 C1452 C 0.33561 0.70753 0.45396
 C1453 C 0.34493 0.69300 0.47721
 C1454 C 0.37427 0.69171 0.48229
 C1455 C 0.39435 0.70366 0.46383
 C1456 C 0.38550 0.71752 0.44011
 C1457 C 0.32491 0.67909 0.49436
 C1458 C 0.29580 0.67868 0.48794
 C1459 C 0.28637 0.69379 0.46519
 C1460 C 0.30625 0.70848 0.44860
 C1461 C 0.25730 0.69332 0.45892
 C1462 C 0.23821 0.67645 0.47364
 C1463 C 0.24771 0.65924 0.49473
 C1464 C 0.27628 0.66238 0.50317
 H1465 H 0.34872 0.73091 0.41787
 H1466 H 0.38178 0.68064 0.50000
 H1467 H 0.41692 0.70108 0.46758
 H1468 H 0.33219 0.66755 0.51186
 H1469 H 0.29903 0.71972 0.43085
 H1470 H 0.24950 0.70522 0.44195
 H1471 H 0.21610 0.67567 0.46748
 H1472 H 0.28393 0.65175 0.52100
 C1473 C 0.59381 0.78766 0.43297
 C1474 C 0.61978 0.79499 0.44463
 C1475 C 0.64415 0.77851 0.44073
 C1476 C 0.64178 0.75458 0.42550
 C1477 C 0.61593 0.74782 0.41312
 C1478 C 0.59188 0.76464 0.41622
 C1479 C 0.67062 0.78683 0.45113
 C1480 C 0.67316 0.81203 0.46405
 C1481 C 0.64856 0.82832 0.46769
 C1482 C 0.62197 0.81937 0.45879
 C1483 C 0.65113 0.85411 0.47853
 C1484 C 0.67794 0.86428 0.48455
 C1485 C 0.70295 0.84841 0.48197
 C1486 C 0.70009 0.82193 0.47185
 H1487 H 0.57526 0.80046 0.43621
 H1488 H 0.66018 0.74162 0.42225
 H1489 H 0.61512 0.72995 0.40029
 H1490 H 0.68943 0.77434 0.44792
 H1491 H 0.60327 0.83212 0.46144
 H1492 H 0.63257 0.86702 0.48086
 H1493 H 0.67919 0.88514 0.49058
 H1494 H 0.71891 0.80960 0.46836
 C1495 C 0.15464 0.28170 -0.05235
 C1496 C 0.18101 0.28944 -0.04127
 C1497 C 0.20622 0.28894 -0.05864
 C1498 C 0.20531 0.27824 -0.08564
 C1499 C 0.17932 0.26976 -0.09616
 C1500 C 0.15331 0.27272 -0.08038
 C1501 C 0.23173 0.30007 -0.04920
 C1502 C 0.23245 0.31161 -0.02247
 C1503 C 0.20831 0.30953 -0.00394
 C1504 C 0.18255 0.29861 -0.01347
 C1505 C 0.21022 0.31932 0.02342
 C1506 C 0.23445 0.33386 0.03112
 C1507 C 0.25656 0.34053 0.01111
 C1508 C 0.25635 0.32666 -0.01478
 H1509 H 0.13521 0.28395 -0.03946
 H1510 H 0.22465 0.27687 -0.09888
 H1511 H 0.17979 0.26131 -0.11702
 H1512 H 0.25062 0.30089 -0.06316
 H1513 H 0.16354 0.29820 0.00033
 H1514 H 0.19250 0.31677 0.03852
 H1515 H 0.23460 0.34197 0.05215
 H1516 H 0.27367 0.32852 -0.03012
 C1517 C 0.41045 0.30379 0.09548
 C1518 C 0.38468 0.31047 0.08302
 C1519 C 0.36133 0.29234 0.08404
 C1520 C 0.36406 0.26798 0.09808
 C1521 C 0.38962 0.26169 0.11096
 C1522 C 0.41324 0.27942 0.10973
 C1523 C 0.33568 0.29892 0.07110
 C1524 C 0.33296 0.32367 0.05761
 C1525 C 0.35623 0.34194 0.05733
 C1526 C 0.38193 0.33515 0.06972
 C1527 C 0.35346 0.36691 0.04484
 C1528 C 0.32804 0.37378 0.03245
 C1529 C 0.30462 0.35570 0.03152
 C1530 C 0.30740 0.33053 0.04454
 H1531 H 0.42843 0.31757 0.09375
 H1532 H 0.34634 0.25389 0.09934
 H1533 H 0.39069 0.24301 0.12221
 H1534 H 0.31785 0.28489 0.07168
 H1535 H 0.39975 0.34920 0.06920
 H1536 H 0.37094 0.38128 0.04477
 H1537 H 0.32657 0.39352 0.02341
 H1538 H 0.28986 0.31628 0.04478
 C1539 C 0.85228 0.78266 0.56160
 C1540 C 0.82811 0.79098 0.54756
 C1541 C 0.80063 0.78093 0.55558
 C1542 C 0.79815 0.76163 0.57682
 C1543 C 0.82250 0.75332 0.59070
 C1544 C 0.84956 0.76433 0.58361
 C1545 C 0.77619 0.79100 0.54283
 C1546 C 0.77904 0.81118 0.52246
 C1547 C 0.80678 0.82030 0.51398
 C1548 C 0.83105 0.81000 0.52632
 C1549 C 0.80993 0.84065 0.49427
 C1550 C 0.78592 0.85288 0.48389
 C1551 C 0.75779 0.84448 0.49195
 C1552 C 0.75471 0.82329 0.51138
 H1553 H 0.87323 0.79096 0.55593
 H1554 H 0.77733 0.75350 0.58318
 H1555 H 0.82009 0.73909 0.60765
 H1556 H 0.75502 0.78379 0.54939
 H1557 H 0.85221 0.81756 0.52014
 H1558 H 0.83105 0.84804 0.48782
 H1559 H 0.78955 0.86990 0.47029
 H1560 H 0.73353 0.81719 0.51899
   
