data_POSCAR
  _audit_creation_date              2014-09-24
  _audit_creation_method            'ToBaCCo'
  _symmetry_space_group_name_H-M    'P1'
  _symmetry_Int_Tables_number       1
  _symmetry_cell_setting            triclinic
  loop_
  _symmetry_equiv_pos_as_xyz
 x,y,z
_cell_length_a 55.1528
_cell_length_b 54.8871
_cell_length_c 54.9316
_cell_angle_alpha 90.132700
_cell_angle_beta 89.912700
_cell_angle_gamma 89.927300
loop_
  _atom_site_label
  _atom_site_type_symbol
  _atom_site_fract_x
  _atom_site_fract_y
  _atom_site_fract_z
C1 C 0.28896 1.06779 0.00327
 C2 C 0.29156 1.05415 0.02474
 C3 C 0.28723 1.02893 0.02357
 C4 C 0.27851 1.01774 0.00220
 C5 C 0.27488 1.03228 -0.01863
 C6 C 0.28084 1.05725 -0.01863
 C7 C 0.27325 0.99094 0.00177
 C8 C 0.27518 0.97735 -0.01998
 C9 C 0.27055 0.95220 -0.02032
 C10 C 0.26481 0.94034 0.00153
 C11 C 0.26331 0.95327 0.02354
 C12 C 0.26678 0.97859 0.02334
 H13 H 0.29059 1.08738 0.00420
 H14 H 0.29139 1.01790 0.03928
 H15 H 0.26803 1.02396 -0.03506
 H16 H 0.28094 0.98600 -0.03668
 H17 H 0.26112 0.92096 0.00134
 H18 H 0.26481 0.98851 0.04024
 C19 C 0.77822 0.56731 0.50159
 C20 C 0.77938 0.55409 0.52327
 C21 C 0.77490 0.52896 0.52283
 C22 C 0.76756 0.51710 0.50120
 C23 C 0.76566 0.53116 0.47975
 C24 C 0.77167 0.55601 0.47974
 C25 C 0.76156 0.49040 0.50118
 C26 C 0.76259 0.47652 0.47953
 C27 C 0.75622 0.45176 0.47934
 C28 C 0.75030 0.44029 0.50132
 C29 C 0.74986 0.45340 0.52323
 C30 C 0.75466 0.47849 0.52287
 H31 H 0.78126 0.58681 0.50191
 H32 H 0.77721 0.51895 0.53958
 H33 H 0.75945 0.52311 0.46292
 H34 H 0.76813 0.48478 0.46259
 H35 H 0.74672 0.42088 0.50143
 H36 H 0.75262 0.48854 0.53968
 C37 C 0.74689 1.00200 1.06667
 C38 C 0.75407 0.98043 1.05468
 C39 C 0.75644 0.98090 1.02911
 C40 C 0.75173 1.00231 1.01569
 C41 C 0.74401 1.02332 1.02842
 C42 C 0.74199 1.02369 1.05397
 C43 C 0.75554 1.00319 0.98856
 C44 C 0.76084 1.02555 0.97697
 C45 C 0.76400 1.02691 0.95169
 C46 C 0.76321 1.00550 0.93788
 C47 C 0.75881 0.98290 0.94881
 C48 C 0.75426 0.98191 0.97401
 H49 H 0.74524 1.00190 1.08624
 H50 H 0.76345 0.96498 1.01988
 H51 H 0.73852 1.03926 1.01835
 H52 H 0.76298 1.04210 0.98745
 H53 H 0.76536 1.00647 0.91829
 H54 H 0.74995 0.96448 0.98205
 C55 C 0.25613 0.49904 0.56461
 C56 C 0.26206 0.47752 0.55215
 C57 C 0.26287 0.47763 0.52653
 C58 C 0.25686 0.49883 0.51323
 C59 C 0.24992 0.51984 0.52646
 C60 C 0.25038 0.52035 0.55195
 C61 C 0.25802 0.49944 0.48583
 C62 C 0.26023 0.52193 0.47347
 C63 C 0.25940 0.52312 0.44804
 C64 C 0.25866 0.50155 0.43453
 C65 C 0.25805 0.47883 0.44608
 C66 C 0.25681 0.47787 0.47166
 H67 H 0.25606 0.49922 0.58433
 H68 H 0.26875 0.46125 0.51732
 H69 H 0.24377 0.53606 0.51723
 H70 H 0.26214 0.53885 0.48332
 H71 H 0.25854 0.50247 0.41482
 H72 H 0.25507 0.46025 0.48019
 C73 C 1.06067 0.25170 -0.00048
 C74 C 1.04844 0.25034 0.02203
 C75 C 1.02305 0.25379 0.02196
 C76 C 1.01030 0.26050 0.00065
 C77 C 1.02352 0.26266 -0.02121
 C78 C 1.04838 0.25742 -0.02206
 C79 C 0.98336 0.26513 0.00138
 C80 C 0.96879 0.26315 -0.01978
 C81 C 0.94365 0.26832 -0.01920
 C82 C 0.93301 0.27342 0.00359
 C83 C 0.94684 0.27478 0.02486
 C84 C 0.97197 0.27163 0.02345
 H85 H 1.08016 0.24973 -0.00142
 H86 H 1.01306 0.25016 0.03845
 H87 H 1.01470 0.26817 -0.03784
 H88 H 0.97713 0.25826 -0.03684
 H89 H 0.91351 0.27481 0.00527
 H90 H 0.98241 0.27439 0.03985
 C91 C 0.55941 0.74861 0.50003
 C92 C 0.54707 0.75238 0.52207
 C93 C 0.52165 0.75414 0.52195
 C94 C 0.50820 0.75096 0.50029
 C95 C 0.52122 0.74626 0.47854
 C96 C 0.54671 0.74589 0.47809
 C97 C 0.48092 0.75325 0.50023
 C98 C 0.46836 0.75869 0.47845
 C99 C 0.44305 0.76106 0.47809
 C100 C 0.43008 0.75916 0.49989
 C101 C 0.44187 0.75450 0.52195
 C102 C 0.46711 0.75070 0.52190
 H103 H 0.57903 0.74793 0.49994
 H104 H 0.51268 0.75867 0.53886
 H105 H 0.51179 0.74258 0.46172
 H106 H 0.47799 0.76178 0.46161
 H107 H 0.41050 0.76086 0.49962
 H108 H 0.47571 0.74614 0.53893
 C109 C -0.00780 0.75475 -0.06178
 C110 C 0.01483 0.75273 -0.05043
 C111 C 0.01588 0.74995 -0.02511
 C112 C -0.00538 0.75103 -0.01084
 C113 C -0.02784 0.75418 -0.02267
 C114 C -0.02953 0.75497 -0.04826
 C115 C -0.00427 0.74913 0.01633
 C116 C -0.02412 0.74003 0.02975
 C117 C -0.02398 0.73940 0.05543
 C118 C -0.00255 0.74652 0.06745
 C119 C 0.01765 0.75488 0.05445
 C120 C 0.01649 0.75669 0.02908
 H121 H -0.00819 0.75689 -0.08135
 H122 H 0.03339 0.74732 -0.01670
 H123 H -0.04414 0.75510 -0.01187
 H124 H -0.03942 0.73243 0.02013
 H125 H -0.00152 0.74643 0.08710
 H126 H 0.03178 0.76448 0.01953
 C127 C 0.49509 0.24422 0.43646
 C128 C 0.51748 0.24762 0.44805
 C129 C 0.51888 0.24588 0.47352
 C130 C 0.49829 0.23974 0.48742
 C131 C 0.47631 0.23517 0.47510
 C132 C 0.47435 0.23820 0.44988
 C133 C 0.49933 0.23817 0.51462
 C134 C 0.47809 0.24179 0.52844
 C135 C 0.47788 0.23799 0.55357
 C136 C 0.49950 0.23237 0.56555
 C137 C 0.52131 0.23028 0.55256
 C138 C 0.52107 0.23267 0.52706
 H139 H 0.49387 0.24615 0.41688
 H140 H 0.53599 0.24976 0.48227
 H141 H 0.46052 0.22889 0.48490
 H142 H 0.46130 0.24708 0.51979
 H143 H 0.49939 0.23031 0.58517
 H144 H 0.53777 0.22969 0.51715
 C145 C 1.05406 -0.00011 0.25508
 C146 C 1.04262 0.02233 0.25024
 C147 C 1.01735 0.02217 0.24604
 C148 C 1.00345 0.00068 0.24864
 C149 C 1.01562 -0.02121 0.25424
 C150 C 1.04089 -0.02183 0.25682
 C151 C 0.97631 0.00120 0.24603
 C152 C 0.96328 -0.01988 0.23903
 C153 C 0.93773 -0.01974 0.23700
 C154 C 0.92550 0.00242 0.24126
 C155 C 0.93797 0.02355 0.24800
 C156 C 0.96317 0.02276 0.25074
 H157 H 1.07362 -0.00112 0.25613
 H158 H 1.00830 0.03899 0.24162
 H159 H 1.00561 -0.03790 0.25705
 H160 H 0.97312 -0.03618 0.23405
 H161 H 0.90593 0.00336 0.24031
 H162 H 0.97219 0.03901 0.25720
 C163 C 0.56686 0.49600 0.74882
 C164 C 0.55420 0.51755 0.74393
 C165 C 0.52914 0.51661 0.74007
 C166 C 0.51617 0.49465 0.74283
 C167 C 0.52933 0.47314 0.74781
 C168 C 0.55468 0.47363 0.75035
 C169 C 0.48904 0.49459 0.74143
 C170 C 0.47614 0.47345 0.73470
 C171 C 0.45067 0.47340 0.73410
 C172 C 0.43801 0.49497 0.73934
 C173 C 0.45039 0.51628 0.74570
 C174 C 0.47573 0.51580 0.74729
 H175 H 0.58638 0.49664 0.75096
 H176 H 0.51983 0.53334 0.73552
 H177 H 0.52003 0.45601 0.75047
 H178 H 0.48571 0.45700 0.72960
 H179 H 0.41838 0.49513 0.73864
 H180 H 0.48483 0.53202 0.75371
 C181 C 1.00719 1.06017 0.75703
 C182 C 0.98478 1.04926 0.75148
 C183 C 0.98397 1.02360 0.75000
 C184 C 1.00431 1.00907 0.75579
 C185 C 1.02625 1.02074 0.76173
 C186 C 1.02788 1.04620 0.76191
 C187 C 1.00234 0.98185 0.75616
 C188 C 1.02257 0.96691 0.75108
 C189 C 1.02086 0.94119 0.75137
 C190 C 0.99785 0.93079 0.75585
 C191 C 0.97746 0.94535 0.76058
 C192 C 0.98004 0.97066 0.76145
 H193 H 1.00913 1.07978 0.75629
 H194 H 0.96718 1.01475 0.74527
 H195 H 1.04208 1.01021 0.76669
 H196 H 1.03938 0.97540 0.74567
 H197 H 0.99557 0.91124 0.75636
 H198 H 0.96444 0.98148 0.76659
 C199 C 0.49103 0.56771 0.22469
 C200 C 0.46943 0.55454 0.22304
 C201 C 0.46970 0.52940 0.22743
 C202 C 0.49111 0.51740 0.23495
 C203 C 0.51253 0.53142 0.23726
 C204 C 0.51271 0.55633 0.23142
 C205 C 0.49097 0.49054 0.24034
 C206 C 0.51250 0.47662 0.23917
 C207 C 0.51252 0.45163 0.24468
 C208 C 0.49050 0.44006 0.25002
 C209 C 0.46870 0.45321 0.25061
 C210 C 0.46922 0.47845 0.24657
 H211 H 0.49081 0.58721 0.22166
 H212 H 0.45303 0.51945 0.22470
 H213 H 0.52921 0.52324 0.24352
 H214 H 0.52947 0.48500 0.23410
 H215 H 0.49027 0.42055 0.25298
 H216 H 0.45247 0.48846 0.24865
 O217 O 0.25214 0.18197 0.21715
 O218 O 0.27743 0.17609 0.25250
 O219 O 0.18657 0.21018 0.24872
 O220 O 0.17591 0.24203 0.27207
 O221 O 0.21813 0.24434 0.18566
 O222 O 0.25066 0.27159 0.17974
 O223 O 0.24711 0.27884 0.31344
 O224 O 0.21937 0.24690 0.31931
 O225 O 0.31019 0.24750 0.28532
 O226 O 0.31902 0.21955 0.25482
 O227 O 0.28139 0.30877 0.25287
 O228 O 0.24781 0.31601 0.22389
 O229 O 0.24734 0.30806 0.28424
 O230 O 0.22060 0.31489 0.24830
 O231 O 0.31065 0.27966 0.25350
 O232 O 0.31882 0.24480 0.22474
 O233 O 0.28067 0.24673 0.31421
 O234 O 0.24697 0.21804 0.32041
 O235 O 0.25402 0.21095 0.18771
 O236 O 0.27888 0.24653 0.18154
 O237 O 0.18752 0.24398 0.21339
 O238 O 0.18022 0.27286 0.24730
 O239 O 0.21635 0.18146 0.24869
 O240 O 0.24664 0.17685 0.27931
 Zr241 Zr 0.24859 0.20161 0.24979
 O242 O 0.27030 0.22293 0.27287
 Zr243 Zr 0.20540 0.24369 0.24746
 O244 O 0.22504 0.26661 0.27141
 Zr245 Zr 0.24990 0.24415 0.20667
 O246 O 0.27106 0.26763 0.22824
 Zr247 Zr 0.24813 0.24598 0.29382
 O248 O 0.22598 0.22293 0.27224
 Zr249 Zr 0.29182 0.24657 0.25219
 O250 O 0.27260 0.22291 0.22887
 Zr251 Zr 0.24870 0.28873 0.25106
 O252 O 0.22724 0.26752 0.22695
 O253 O 0.22690 0.22128 0.22592
 O254 O 0.27097 0.26913 0.27449
 C255 C 0.25474 0.18868 0.19494
 C256 C 0.19392 0.18787 0.24884
 C257 C 0.19552 0.24444 0.19134
 C258 C 0.24695 0.30120 0.30662
 C259 C 0.30305 0.24744 0.30754
 C260 C 0.30372 0.30198 0.25389
 H261 H 0.28054 0.21212 0.28292
 H262 H 0.28130 0.27788 0.21763
 H263 H 0.21737 0.21055 0.21505
 H264 H 0.21362 0.27637 0.28134
 H265 H 0.20701 0.23523 0.31345
 H266 H 0.18068 0.25118 0.28683
 H267 H 0.31716 0.25936 0.21429
 H268 H 0.29167 0.23532 0.18739
 H269 H 0.26028 0.20642 0.31702
 H270 H 0.23359 0.18259 0.29033
 H271 H 0.26100 0.31251 0.21217
 H272 H 0.24003 0.28487 0.18571
 H273 H 0.27130 0.15963 0.24818
 H274 H 0.31237 0.20477 0.24695
 H275 H 0.18539 0.28421 0.23431
 H276 H 0.20863 0.31146 0.26126
 O277 O 0.74611 0.81027 0.21168
 O278 O 0.71807 0.81634 0.24659
 O279 O 0.80917 0.78048 0.24387
 O280 O 0.81869 0.74932 0.26837
 O281 O 0.77627 0.74463 0.18203
 O282 O 0.74085 0.71926 0.17772
 O283 O 0.74772 0.71551 0.31030
 O284 O 0.77740 0.74732 0.31454
 O285 O 0.68515 0.74889 0.28440
 O286 O 0.67889 0.77878 0.24766
 O287 O 0.71100 0.68622 0.25089
 O288 O 0.74381 0.67731 0.22123
 O289 O 0.74491 0.68586 0.28156
 O290 O 0.77085 0.67703 0.24579
 O291 O 0.68252 0.71614 0.25139
 O292 O 0.67277 0.74889 0.22612
 O293 O 0.71595 0.74845 0.31176
 O294 O 0.74945 0.77579 0.31747
 O295 O 0.74389 0.78050 0.18293
 O296 O 0.71536 0.74789 0.17822
 O297 O 0.80664 0.74493 0.20996
 O298 O 0.81371 0.71799 0.24410
 O299 O 0.78067 0.81055 0.24382
 O300 O 0.75037 0.81841 0.27274
 Zr301 Zr 0.74761 0.79155 0.24514
 O302 O 0.72584 0.77175 0.26973
 Zr303 Zr 0.78918 0.74772 0.24384
 O304 O 0.76916 0.72593 0.26816
 Zr305 Zr 0.74449 0.74795 0.20320
 O306 O 0.72234 0.72642 0.22579
 Zr307 Zr 0.74753 0.74818 0.29044
 O308 O 0.76968 0.77019 0.26803
 Zr309 Zr 0.70272 0.74860 0.25012
 O310 O 0.72263 0.77041 0.22528
 Zr311 Zr 0.74423 0.70476 0.24837
 O312 O 0.76641 0.72435 0.22380
 O313 O 0.76851 0.77022 0.22183
 O314 O 0.72327 0.72566 0.27211
 C315 C 0.74473 0.80302 0.18942
 C316 C 0.80281 0.80308 0.24369
 C317 C 0.79880 0.74350 0.18799
 C318 C 0.74635 0.69306 0.30376
 C319 C 0.69331 0.74852 0.30635
 C320 C 0.68891 0.69361 0.25175
 H321 H 0.71652 0.78317 0.28007
 H322 H 0.71143 0.71648 0.21553
 H323 H 0.77878 0.77996 0.21073
 H324 H 0.78032 0.71585 0.27797
 H325 H 0.78917 0.75960 0.30865
 H326 H 0.81413 0.73985 0.28297
 H327 H 0.67779 0.74004 0.21125
 H328 H 0.70352 0.76009 0.18421
 H329 H 0.73792 0.78886 0.31310
 H330 H 0.76147 0.81185 0.28526
 H331 H 0.72993 0.68058 0.21032
 H332 H 0.75210 0.70623 0.18296
 H333 H 0.72379 0.83258 0.24117
 H334 H 0.67956 0.78775 0.26328
 H335 H 0.80744 0.70579 0.23240
 H336 H 0.78319 0.68015 0.25846
 O337 O 0.76126 0.18441 0.77727
 O338 O 0.73414 0.17547 0.74369
 O339 O 0.82062 0.21947 0.74154
 O340 O 0.82740 0.25248 0.71928
 O341 O 0.78875 0.25026 0.80698
 O342 O 0.75289 0.27375 0.81427
 O343 O 0.75046 0.28034 0.68101
 O344 O 0.78194 0.25162 0.67405
 O345 O 0.69260 0.24271 0.71057
 O346 O 0.68766 0.21463 0.74172
 O347 O 0.71652 0.30698 0.74393
 O348 O 0.75007 0.31818 0.77009
 O349 O 0.74795 0.30968 0.71010
 O350 O 0.77647 0.31917 0.74480
 O351 O 0.68984 0.27550 0.74373
 O352 O 0.68655 0.23959 0.77193
 O353 O 0.72150 0.24519 0.68118
 O354 O 0.75724 0.22012 0.67358
 O355 O 0.75834 0.21324 0.80687
 O356 O 0.72812 0.24459 0.81362
 O357 O 0.81788 0.25264 0.77778
 O358 O 0.82024 0.28245 0.74391
 O359 O 0.79463 0.18732 0.74316
 O360 O 0.76281 0.17912 0.71475
 Zr361 Zr 0.76021 0.20388 0.74432
 O362 O 0.73543 0.22271 0.72216
 Zr363 Zr 0.79859 0.25061 0.74467
 O364 O 0.77581 0.27110 0.72165
 Zr365 Zr 0.75621 0.24626 0.78745
 O366 O 0.73178 0.26721 0.76677
 Zr367 Zr 0.75426 0.24780 0.70045
 O368 O 0.77947 0.22735 0.72096
 Zr369 Zr 0.71209 0.24420 0.74346
 O370 O 0.73481 0.22276 0.76607
 Zr371 Zr 0.75087 0.29049 0.74322
 O372 O 0.77534 0.27190 0.76644
 O373 O 0.78074 0.22605 0.76701
 O374 O 0.72979 0.26864 0.72058
 C375 C 0.76022 0.19098 0.79972
 C376 C 0.81605 0.19648 0.74156
 C377 C 0.81096 0.25240 0.80017
 C378 C 0.74799 0.30261 0.68776
 C379 C 0.69934 0.24332 0.68815
 C380 C 0.69487 0.29838 0.74401
 H381 H 0.72606 0.21081 0.71245
 H382 H 0.72106 0.27638 0.77794
 H383 H 0.79212 0.21653 0.77716
 H384 H 0.78562 0.28196 0.71123
 H385 H 0.79550 0.24099 0.67922
 H386 H 0.82095 0.26028 0.70443
 H387 H 0.68790 0.25374 0.78303
 H388 H 0.71693 0.23157 0.80824
 H389 H 0.74550 0.20711 0.67751
 H390 H 0.77453 0.18603 0.70297
 H391 H 0.73912 0.31268 0.78324
 H392 H 0.76280 0.28766 0.80861
 H393 H 0.74229 0.15983 0.74764
 H394 H 0.69633 0.20045 0.74861
 H395 H 0.81476 0.29296 0.75752
 H396 H 0.78719 0.31777 0.73042
 O397 O 0.25404 0.80732 0.79175
 O398 O 0.28299 0.81024 0.75749
 O399 O 0.18973 0.78131 0.75629
 O400 O 0.17857 0.75001 0.73311
 O401 O 0.21676 0.74535 0.82114
 O402 O 0.24941 0.71715 0.82779
 O403 O 0.24889 0.70964 0.69494
 O404 O 0.22222 0.74377 0.68859
 O405 O 0.31274 0.73994 0.72377
 O406 O 0.31952 0.76919 0.76032
 O407 O 0.28031 0.67977 0.75705
 O408 O 0.24554 0.67421 0.78505
 O409 O 0.24774 0.68109 0.72475
 O410 O 0.21991 0.67530 0.75928
 O411 O 0.31114 0.70715 0.75704
 O412 O 0.32188 0.73984 0.78260
 O413 O 0.28361 0.74059 0.69462
 O414 O 0.25240 0.76965 0.68637
 O415 O 0.25237 0.77795 0.82080
 O416 O 0.27726 0.74313 0.82785
 O417 O 0.18776 0.74744 0.79190
 O418 O 0.18045 0.71941 0.75803
 O419 O 0.22002 0.80941 0.75762
 O420 O 0.25201 0.81388 0.73017
 Zr421 Zr 0.25169 0.78780 0.75854
 O422 O 0.27305 0.76547 0.73559
 Zr423 Zr 0.20701 0.74725 0.75877
 O424 O 0.22642 0.72330 0.73588
 Zr425 Zr 0.24951 0.74515 0.80142
 O426 O 0.27099 0.72127 0.78057
 Zr427 Zr 0.25085 0.74292 0.71416
 O428 O 0.22934 0.76728 0.73502
 Zr429 Zr 0.29339 0.74116 0.75689
 O430 O 0.27398 0.76525 0.78004
 Zr431 Zr 0.24857 0.70085 0.75740
 O432 O 0.22681 0.72275 0.78042
 O433 O 0.22819 0.76887 0.78127
 O434 O 0.27236 0.71915 0.73428
 C435 C 0.25428 0.80027 0.81410
 C436 C 0.19748 0.80342 0.75622
 C437 C 0.19451 0.74612 0.81426
 C438 C 0.24791 0.68741 0.70229
 C439 C 0.30589 0.73977 0.70140
 C440 C 0.30294 0.68523 0.75699
 H441 H 0.28367 0.77585 0.72551
 H442 H 0.28053 0.71079 0.79159
 H443 H 0.21833 0.77988 0.79162
 H444 H 0.21497 0.71385 0.72576
 H445 H 0.21112 0.75704 0.69370
 H446 H 0.18343 0.74045 0.71861
 H447 H 0.31584 0.73073 0.79688
 H448 H 0.29058 0.75371 0.82204
 H449 H 0.26409 0.78232 0.69140
 H450 H 0.24111 0.80768 0.71727
 H451 H 0.25895 0.67678 0.79670
 H452 H 0.23746 0.70490 0.82224
 H453 H 0.27833 0.82706 0.76224
 H454 H 0.31933 0.77884 0.74513
 H455 H 0.18485 0.70754 0.77083
 H456 H 0.20813 0.67935 0.74634
 O457 O 0.25363 0.31085 0.71495
 O458 O 0.22472 0.31846 0.74887
 O459 O 0.31457 0.27959 0.75015
 O460 O 0.32188 0.24889 0.77601
 O461 O 0.28328 0.24377 0.68784
 O462 O 0.24719 0.21926 0.68253
 O463 O 0.24869 0.21756 0.81506
 O464 O 0.27949 0.24913 0.81971
 O465 O 0.18830 0.25368 0.78623
 O466 O 0.18446 0.28222 0.74827
 O467 O 0.21328 0.18882 0.75540
 O468 O 0.24659 0.17839 0.72640
 O469 O 0.24625 0.18764 0.78657
 O470 O 0.27284 0.17747 0.75182
 O471 O 0.18582 0.21967 0.75470
 O472 O 0.17801 0.25171 0.72770
 O473 O 0.21801 0.25186 0.81472
 O474 O 0.25107 0.27734 0.82216
 O475 O 0.25148 0.28057 0.68672
 O476 O 0.22274 0.24864 0.68118
 O477 O 0.31223 0.24348 0.71727
 O478 O 0.31728 0.21728 0.75197
 O479 O 0.28716 0.31058 0.74795
 O480 O 0.25627 0.32007 0.77591
 Zr481 Zr 0.25348 0.29272 0.74878
 O482 O 0.23026 0.27404 0.77287
 Zr483 Zr 0.29353 0.24758 0.75014
 O484 O 0.27196 0.22671 0.77380
 Zr485 Zr 0.25065 0.24840 0.70751
 O486 O 0.22682 0.22808 0.72954
 Zr487 Zr 0.25028 0.25005 0.79480
 O488 O 0.27388 0.27116 0.77304
 Zr489 Zr 0.20711 0.25137 0.75272
 O490 O 0.22866 0.27199 0.72828
 Zr491 Zr 0.24714 0.20613 0.75325
 O492 O 0.27097 0.22458 0.72944
 O493 O 0.27456 0.27026 0.72676
 O494 O 0.22602 0.22811 0.77584
 C495 C 0.25263 0.30317 0.69282
 C496 C 0.30900 0.30235 0.74890
 C497 C 0.30541 0.24186 0.69501
 C498 C 0.24707 0.19505 0.80871
 C499 C 0.19566 0.25316 0.80845
 C500 C 0.19146 0.19698 0.75597
 H501 H 0.22101 0.28597 0.78269
 H502 H 0.21594 0.21830 0.71911
 H503 H 0.28550 0.27943 0.71582
 H504 H 0.28243 0.21642 0.78415
 H505 H 0.29125 0.26169 0.81443
 H506 H 0.31648 0.23968 0.79049
 H507 H 0.18327 0.24233 0.71324
 H508 H 0.21065 0.26080 0.68674
 H509 H 0.24333 0.29211 0.81547
 H510 H 0.26745 0.31380 0.78851
 H511 H 0.23281 0.18164 0.71537
 H512 H 0.25788 0.20605 0.68848
 H513 H 0.23110 0.33439 0.74328
 H514 H 0.18527 0.29196 0.76342
 H515 H 0.31109 0.20493 0.74040
 H516 H 0.28491 0.18036 0.76481
 O517 O 0.75083 0.68683 0.71911
 O518 O 0.77819 0.68362 0.75437
 O519 O 0.68575 0.71534 0.75004
 O520 O 0.67500 0.74779 0.77294
 O521 O 0.71725 0.74915 0.68641
 O522 O 0.75039 0.77596 0.68032
 O523 O 0.74459 0.78560 0.81353
 O524 O 0.71711 0.75336 0.81954
 O525 O 0.80836 0.75410 0.78693
 O526 O 0.81531 0.72197 0.75209
 O527 O 0.78116 0.81370 0.75308
 O528 O 0.74756 0.82045 0.72287
 O529 O 0.74642 0.81426 0.78382
 O530 O 0.72062 0.82100 0.74772
 O531 O 0.80993 0.78408 0.75319
 O532 O 0.82033 0.75070 0.72906
 O533 O 0.77850 0.75507 0.81546
 O534 O 0.74534 0.72513 0.82201
 O535 O 0.75220 0.71519 0.68905
 O536 O 0.77796 0.74994 0.68231
 O537 O 0.68657 0.74932 0.71404
 O538 O 0.67877 0.77788 0.74712
 O539 O 0.71579 0.68689 0.75154
 O540 O 0.74577 0.68152 0.78010
 Zr541 Zr 0.74775 0.70716 0.75140
 O542 O 0.76889 0.72874 0.77480
 Zr543 Zr 0.70435 0.74909 0.74813
 O544 O 0.72383 0.77268 0.77153
 Zr545 Zr 0.74893 0.74878 0.70747
 O546 O 0.77028 0.77227 0.72879
 Zr547 Zr 0.74643 0.75240 0.79469
 O548 O 0.72485 0.72879 0.77331
 Zr549 Zr 0.79060 0.75152 0.75343
 O550 O 0.77158 0.72797 0.73000
 Zr551 Zr 0.74802 0.79417 0.75103
 O552 O 0.72638 0.77257 0.72736
 O553 O 0.72592 0.72629 0.72712
 O554 O 0.76974 0.77478 0.77503
 C555 C 0.75292 0.69304 0.69668
 C556 C 0.69336 0.69314 0.75145
 C557 C 0.69465 0.74968 0.69204
 C558 C 0.74510 0.80782 0.80630
 C559 C 0.80091 0.75578 0.80899
 C560 C 0.80340 0.80648 0.75362
 H561 H 0.77879 0.71823 0.78546
 H562 H 0.78079 0.78208 0.71804
 H563 H 0.71625 0.71541 0.71652
 H564 H 0.71233 0.78274 0.78103
 H565 H 0.70523 0.74108 0.81390
 H566 H 0.67945 0.75789 0.78718
 H567 H 0.81557 0.76005 0.71446
 H568 H 0.79049 0.73857 0.68841
 H569 H 0.75975 0.71455 0.82018
 H570 H 0.73540 0.68883 0.79291
 H571 H 0.76174 0.81739 0.71225
 H572 H 0.73973 0.78936 0.68596
 H573 H 0.77325 0.66686 0.74971
 H574 H 0.81592 0.71448 0.76844
 H575 H 0.68468 0.78972 0.73491
 H576 H 0.70792 0.81733 0.75989
 O577 O 0.24465 0.69043 0.28310
 O578 O 0.21381 0.68600 0.25227
 O579 O 0.30520 0.71690 0.24303
 O580 O 0.31474 0.74893 0.22022
 O581 O 0.28358 0.75206 0.31087
 O582 O 0.25200 0.77894 0.32174
 O583 O 0.24019 0.78805 0.18870
 O584 O 0.26554 0.75505 0.17884
 O585 O 0.17968 0.75973 0.22367
 O586 O 0.17351 0.73138 0.25445
 O587 O 0.21491 0.81866 0.25396
 O588 O 0.25199 0.82461 0.27760
 O589 O 0.24442 0.81734 0.21764
 O590 O 0.27604 0.82232 0.25025
 O591 O 0.18444 0.79105 0.25706
 O592 O 0.17870 0.75553 0.28514
 O593 O 0.20590 0.75898 0.19175
 O594 O 0.23653 0.72765 0.18101
 O595 O 0.24869 0.71855 0.31321
 O596 O 0.22339 0.75390 0.32256
 O597 O 0.31030 0.75057 0.27939
 O598 O 0.31419 0.77924 0.24503
 O599 O 0.27484 0.68903 0.24628
 O600 O 0.23991 0.68624 0.22076
 Zr601 Zr 0.24359 0.71043 0.25067
 O602 O 0.21987 0.73291 0.23095
 Zr603 Zr 0.28823 0.75100 0.24800
 O604 O 0.26670 0.77490 0.22710
 Zr605 Zr 0.24936 0.75207 0.29425
 O606 O 0.22664 0.77681 0.27585
 Zr607 Zr 0.24026 0.75528 0.20783
 O608 O 0.26403 0.73119 0.22591
 Zr609 Zr 0.20197 0.75712 0.25445
 O610 O 0.22314 0.73222 0.27478
 Zr611 Zr 0.24666 0.79753 0.25064
 O612 O 0.27002 0.77511 0.27164
 O613 O 0.26902 0.72891 0.27171
 O614 O 0.22086 0.77913 0.23008
 C615 C 0.24654 0.69644 0.30561
 C616 C 0.29717 0.69485 0.24297
 C617 C 0.30524 0.75166 0.30225
 C618 C 0.24184 0.81038 0.19538
 C619 C 0.18446 0.76048 0.20079
 C620 C 0.19241 0.81301 0.25638
 H621 H 0.20801 0.72274 0.22207
 H622 H 0.21833 0.78725 0.28795
 H623 H 0.27985 0.71783 0.28084
 H624 H 0.27713 0.78430 0.21588
 H625 H 0.27785 0.74252 0.18280
 H626 H 0.30797 0.75722 0.20579
 H627 H 0.18303 0.76909 0.29619
 H628 H 0.21049 0.74208 0.31843
 H629 H 0.22223 0.71761 0.18510
 H630 H 0.25139 0.69163 0.20800
 H631 H 0.24085 0.82104 0.29126
 H632 H 0.26198 0.79224 0.31488
 H633 H 0.22000 0.66926 0.25519
 H634 H 0.18052 0.71604 0.26072
 H635 H 0.31120 0.79064 0.25870
 H636 H 0.28561 0.81922 0.23532
 O637 O 0.74163 0.31514 0.28558
 O638 O 0.76869 0.32389 0.25090
 O639 O 0.67955 0.28394 0.25072
 O640 O 0.67104 0.25290 0.22599
 O641 O 0.71338 0.24825 0.31205
 O642 O 0.74875 0.22288 0.31549
 O643 O 0.74404 0.22444 0.18238
 O644 O 0.71347 0.25509 0.17933
 O645 O 0.80491 0.26048 0.21144
 O646 O 0.80995 0.28709 0.24996
 O647 O 0.78128 0.19411 0.24146
 O648 O 0.74882 0.18219 0.26929
 O649 O 0.74683 0.19379 0.20992
 O650 O 0.72165 0.18256 0.24542
 O651 O 0.80864 0.22497 0.24226
 O652 O 0.81662 0.25672 0.26953
 O653 O 0.77479 0.25933 0.18334
 O654 O 0.73971 0.28492 0.17846
 O655 O 0.74503 0.28400 0.31259
 O656 O 0.77407 0.25163 0.31614
 O657 O 0.68305 0.24860 0.28411
 O658 O 0.67775 0.22128 0.24887
 O659 O 0.70640 0.31536 0.25266
 O660 O 0.73669 0.32537 0.22465
 Zr661 Zr 0.74039 0.29772 0.25123
 O662 O 0.76322 0.27966 0.22619
 Zr663 Zr 0.70075 0.25213 0.25030
 O664 O 0.72180 0.23233 0.22504
 Zr665 Zr 0.74501 0.25238 0.29110
 O666 O 0.76807 0.23257 0.26789
 Zr667 Zr 0.74287 0.25615 0.20400
 O668 O 0.71952 0.27624 0.22722
 Zr669 Zr 0.78704 0.25654 0.24505
 O670 O 0.76602 0.27666 0.27041
 Zr671 Zr 0.74728 0.21119 0.24401
 O672 O 0.72420 0.22878 0.26941
 O673 O 0.72030 0.27466 0.27336
 O674 O 0.76785 0.23374 0.22152
 C675 C 0.74369 0.30676 0.30736
 C676 C 0.68468 0.30679 0.25180
 C677 C 0.69087 0.24731 0.30612
 C678 C 0.74536 0.20175 0.18800
 C679 C 0.79720 0.26116 0.18940
 C680 C 0.80310 0.20225 0.24129
 H681 H 0.77211 0.29195 0.21658
 H682 H 0.77918 0.22259 0.27785
 H683 H 0.70973 0.28388 0.28469
 H684 H 0.71107 0.22231 0.21467
 H685 H 0.70081 0.26608 0.18594
 H686 H 0.67632 0.24491 0.21072
 H687 H 0.81218 0.24620 0.28342
 H688 H 0.78563 0.26439 0.31092
 H689 H 0.75078 0.29817 0.18344
 H690 H 0.72591 0.31885 0.21181
 H691 H 0.76119 0.18634 0.28164
 H692 H 0.73781 0.20987 0.30957
 H693 H 0.76219 0.33968 0.25687
 H694 H 0.80760 0.29809 0.23592
 H695 H 0.68376 0.20958 0.26116
 H696 H 0.70894 0.18601 0.23321
 C697 C 0.30876 0.08857 0.04786
 C698 C 0.30907 0.10276 0.06893
 C699 C 0.29692 0.09505 0.08991
 C700 C 0.28669 0.07160 0.09028
 C701 C 0.28649 0.05725 0.06923
 C702 C 0.29627 0.06611 0.04718
 C703 C 0.29405 0.11261 0.11019
 C704 C 0.27525 0.11212 0.12568
 C705 C 0.27029 0.13200 0.14317
 C706 C 0.25888 0.12650 0.16528
 C707 C 0.25357 0.14496 0.18201
 C708 C 0.25910 0.16938 0.17666
 C709 C 0.26985 0.17497 0.15417
 C710 C 0.27545 0.15646 0.13759
 H711 H 0.31808 0.09553 0.03198
 H712 H 0.31780 0.12042 0.06842
 H713 H 0.27811 0.06456 0.10652
 H714 H 0.27675 0.04017 0.06999
 H715 H 0.30663 0.12773 0.11095
 H716 H 0.26256 0.09711 0.12535
 H717 H 0.25436 0.10783 0.16976
 H718 H 0.24512 0.14009 0.19913
 H719 H 0.27429 0.19360 0.14953
 H720 H 0.28344 0.16140 0.12029
 C721 C 0.79980 0.58614 0.54845
 C722 C 0.79984 0.60150 0.56875
 C723 C 0.78288 0.59833 0.58756
 C724 C 0.76662 0.57858 0.58620
 C725 C 0.76670 0.56315 0.56596
 C726 C 0.78276 0.56725 0.54657
 C727 C 0.78127 0.61734 0.60675
 C728 C 0.76809 0.61519 0.62717
 C729 C 0.76463 0.63550 0.64459
 C730 C 0.75926 0.63008 0.66892
 C731 C 0.75532 0.64874 0.68578
 C732 C 0.75637 0.67330 0.67858
 C733 C 0.76126 0.67873 0.65408
 C734 C 0.76529 0.66004 0.63724
 H735 H 0.81248 0.58958 0.53379
 H736 H 0.81258 0.61649 0.56930
 H737 H 0.75291 0.57559 0.59992
 H738 H 0.75313 0.54895 0.56478
 H739 H 0.79120 0.63405 0.60360
 H740 H 0.75984 0.59796 0.63179
 H741 H 0.75828 0.61132 0.67495
 H742 H 0.75146 0.64386 0.70448
 H743 H 0.76204 0.69743 0.64788
 H744 H 0.76846 0.66492 0.61843
 C745 C 0.76762 0.96050 0.09241
 C746 C 0.76978 0.93984 0.10693
 C747 C 0.76288 0.91693 0.09817
 C748 C 0.75529 0.91481 0.07380
 C749 C 0.75349 0.93555 0.05899
 C750 C 0.75868 0.95896 0.06838
 C751 C 0.76359 0.89618 0.11542
 C752 C 0.74984 0.87611 0.11348
 C753 C 0.74855 0.85759 0.13310
 C754 C 0.74347 0.83325 0.12717
 C755 C 0.74201 0.81550 0.14540
 C756 C 0.74521 0.82184 0.17004
 C757 C 0.74965 0.84636 0.17597
 C758 C 0.75125 0.86401 0.15777
 H759 H 0.77345 0.97767 0.10014
 H760 H 0.77629 0.94194 0.12542
 H761 H 0.75053 0.89729 0.06615
 H762 H 0.74655 0.93325 0.04071
 H763 H 0.77484 0.89844 0.13140
 H764 H 0.73884 0.87320 0.09745
 H765 H 0.74094 0.82790 0.10835
 H766 H 0.73845 0.79681 0.14017
 H767 H 0.75208 0.85197 0.19472
 H768 H 0.75421 0.88274 0.16318
 C769 C 0.28098 0.45595 0.58752
 C770 C 0.28290 0.43566 0.60266
 C771 C 0.27074 0.41391 0.59705
 C772 C 0.25773 0.41249 0.57501
 C773 C 0.25587 0.43285 0.55979
 C774 C 0.26692 0.45498 0.56625
 C775 C 0.27156 0.39386 0.61522
 C776 C 0.25664 0.37455 0.61530
 C777 C 0.25632 0.35644 0.63532
 C778 C 0.24919 0.33242 0.63031
 C779 C 0.24806 0.31509 0.64891
 C780 C 0.25359 0.32154 0.67307
 C781 C 0.26036 0.34572 0.67814
 C782 C 0.26171 0.36297 0.65951
 H783 H 0.29008 0.47264 0.59274
 H784 H 0.29333 0.43725 0.61929
 H785 H 0.24864 0.39596 0.56948
 H786 H 0.24494 0.43159 0.54346
 H787 H 0.28448 0.39581 0.62992
 H788 H 0.24403 0.37167 0.60055
 H789 H 0.24464 0.32702 0.61189
 H790 H 0.24266 0.29667 0.64438
 H791 H 0.26470 0.35135 0.69653
 H792 H 0.26646 0.38151 0.66424
 C793 C 0.75197 0.07053 0.94517
 C794 C 0.75252 0.09180 0.93118
 C795 C 0.76800 0.09360 0.91096
 C796 C 0.78424 0.07438 0.90608
 C797 C 0.78366 0.05314 0.92002
 C798 C 0.76705 0.05071 0.93927
 C799 C 0.76625 0.11523 0.89490
 C800 C 0.77092 0.11395 0.87094
 C801 C 0.76754 0.13432 0.85354
 C802 C 0.76649 0.12869 0.82864
 C803 C 0.76377 0.14702 0.81131
 C804 C 0.76215 0.17159 0.81841
 C805 C 0.76321 0.17732 0.84337
 C806 C 0.76594 0.15890 0.86078
 H807 H 0.73895 0.06916 0.95989
 H808 H 0.74007 0.10647 0.93552
 H809 H 0.79721 0.07554 0.89134
 H810 H 0.79592 0.03839 0.91545
 H811 H 0.75892 0.13180 0.90268
 H812 H 0.77610 0.09656 0.86316
 H813 H 0.76778 0.10996 0.82251
 H814 H 0.76311 0.14186 0.79228
 H815 H 0.76227 0.19608 0.84947
 H816 H 0.76727 0.16412 0.87971
 C817 C 0.27418 0.56591 0.44089
 C818 C 0.27296 0.58797 0.42814
 C819 C 0.25560 0.59136 0.40976
 C820 C 0.23873 0.57267 0.40521
 C821 C 0.24012 0.55064 0.41771
 C822 C 0.25804 0.54690 0.43541
 C823 C 0.25557 0.61428 0.39544
 C824 C 0.24764 0.61489 0.37237
 C825 C 0.24785 0.63659 0.35634
 C826 C 0.24437 0.63268 0.33138
 C827 C 0.24390 0.65211 0.31518
 C828 C 0.24680 0.67619 0.32346
 C829 C 0.25015 0.68029 0.34853
 C830 C 0.25064 0.66066 0.36487
 H831 H 0.28805 0.56349 0.45461
 H832 H 0.28594 0.60218 0.43224
 H833 H 0.22432 0.57494 0.39208
 H834 H 0.22702 0.53652 0.41367
 H835 H 0.26368 0.63029 0.40355
 H836 H 0.24167 0.59807 0.36399
 H837 H 0.24204 0.61440 0.32427
 H838 H 0.24125 0.64811 0.29606
 H839 H 0.25237 0.69862 0.35551
 H840 H 0.25287 0.66451 0.38405
 C841 C 0.26068 0.94715 0.93530
 C842 C 0.25993 0.93292 0.91413
 C843 C 0.26997 0.90940 0.91384
 C844 C 0.28204 0.90096 0.93476
 C845 C 0.28270 0.91512 0.95590
 C846 C 0.27161 0.93815 0.95657
 C847 C 0.26729 0.89401 0.89173
 C848 C 0.26631 0.86960 0.89295
 C849 C 0.26257 0.85300 0.87191
 C850 C 0.25702 0.82859 0.87692
 C851 C 0.25405 0.81175 0.85816
 C852 C 0.25662 0.81879 0.83370
 C853 C 0.26196 0.84329 0.82851
 C854 C 0.26500 0.86025 0.84742
 H855 H 0.25198 0.96486 0.93530
 H856 H 0.25081 0.93998 0.89818
 H857 H 0.29100 0.88342 0.93494
 H858 H 0.29182 0.90799 0.97183
 H859 H 0.26437 0.90315 0.87457
 H860 H 0.26719 0.86106 0.91067
 H861 H 0.25506 0.82243 0.89555
 H862 H 0.24985 0.79309 0.86294
 H863 H 0.26419 0.84928 0.80987
 H864 H 0.26971 0.87875 0.84269
 C865 C 0.77366 0.44020 0.43852
 C866 C 0.77278 0.42654 0.41698
 C867 C 0.75374 0.41012 0.41281
 C868 C 0.73504 0.40832 0.43017
 C869 C 0.73594 0.42192 0.45164
 C870 C 0.75537 0.43779 0.45619
 C871 C 0.75378 0.39513 0.39033
 C872 C 0.74368 0.37293 0.38952
 C873 C 0.74426 0.35675 0.36793
 C874 C 0.74157 0.33165 0.37162
 C875 C 0.74156 0.31555 0.35197
 C876 C 0.74394 0.32418 0.32801
 C877 C 0.74633 0.34940 0.32420
 C878 C 0.74653 0.36556 0.34398
 H879 H 0.78889 0.45225 0.44155
 H880 H 0.78727 0.42841 0.40379
 H881 H 0.71955 0.39663 0.42717
 H882 H 0.72125 0.42019 0.46463
 H883 H 0.76381 0.40185 0.37479
 H884 H 0.73583 0.36542 0.40595
 H885 H 0.73958 0.32441 0.38985
 H886 H 0.73946 0.29628 0.35563
 H887 H 0.74806 0.35664 0.30596
 H888 H 0.74798 0.38488 0.34039
 C889 C 0.05266 0.25532 0.06666
 C890 C 0.06654 0.25349 0.08790
 C891 C 0.08960 0.24272 0.08743
 C892 C 0.09789 0.23248 0.06547
 C893 C 0.08414 0.23436 0.04420
 C894 C 0.06145 0.24639 0.04411
 C895 C 0.10450 0.24261 0.11001
 C896 C 0.12886 0.24202 0.10954
 C897 C 0.14489 0.24307 0.13131
 C898 C 0.16979 0.24661 0.12741
 C899 C 0.18600 0.24730 0.14687
 C900 C 0.17781 0.24442 0.17095
 C901 C 0.15285 0.24098 0.17501
 C902 C 0.13655 0.24022 0.15542
 H903 H 0.03569 0.26515 0.06791
 H904 H 0.05956 0.26130 0.10464
 H905 H 0.11496 0.22279 0.06458
 H906 H 0.09128 0.22573 0.02799
 H907 H 0.09506 0.24473 0.12714
 H908 H 0.13791 0.24183 0.09205
 H909 H 0.17683 0.24882 0.10912
 H910 H 0.20505 0.25002 0.14295
 H911 H 0.14594 0.23851 0.19330
 H912 H 0.11762 0.23701 0.15935
 C913 C 0.55289 0.74205 0.56624
 C914 C 0.56680 0.74239 0.58754
 C915 C 0.58901 0.75483 0.58829
 C916 C 0.59644 0.76799 0.56761
 C917 C 0.58258 0.76761 0.54633
 C918 C 0.56086 0.75431 0.54525
 C919 C 0.60396 0.75362 0.61077
 C920 C 0.62820 0.75587 0.61041
 C921 C 0.64421 0.75363 0.63205
 C922 C 0.66916 0.75069 0.62800
 C923 C 0.68532 0.74913 0.64743
 C924 C 0.67702 0.75057 0.67161
 C925 C 0.65200 0.75341 0.67580
 C926 C 0.63574 0.75502 0.65624
 H927 H 0.53627 0.73158 0.56596
 H928 H 0.56050 0.73234 0.60327
 H929 H 0.61289 0.77871 0.56775
 H930 H 0.58887 0.77776 0.53066
 H931 H 0.59479 0.74908 0.62756
 H932 H 0.63720 0.75831 0.59307
 H933 H 0.67627 0.74964 0.60962
 H934 H 0.70443 0.74692 0.64341
 H935 H 0.64499 0.75476 0.69418
 H936 H 0.61675 0.75781 0.66026
 C937 C 0.03928 0.77208 0.91658
 C938 C 0.05945 0.77273 0.90127
 C939 C 0.07819 0.75562 0.90373
 C940 C 0.07648 0.73795 0.92224
 C941 C 0.05621 0.73734 0.93764
 C942 C 0.03724 0.75417 0.93467
 C943 C 0.09812 0.75607 0.88558
 C944 C 0.11963 0.74500 0.88839
 C945 C 0.13857 0.74540 0.86919
 C946 C 0.16306 0.74360 0.87582
 C947 C 0.18128 0.74395 0.85807
 C948 C 0.17534 0.74582 0.83323
 C949 C 0.15076 0.74716 0.82662
 C950 C 0.13260 0.74686 0.84434
 H951 H 0.02511 0.78554 0.91413
 H952 H 0.06026 0.78652 0.88722
 H953 H 0.09024 0.72408 0.92442
 H954 H 0.05496 0.72320 0.95130
 H955 H 0.09497 0.76667 0.86929
 H956 H 0.12405 0.73628 0.90546
 H957 H 0.16811 0.74218 0.89482
 H958 H 0.20001 0.74273 0.86382
 H959 H 0.14545 0.74833 0.80768
 H960 H 0.11390 0.74734 0.83843
 C961 C 0.53881 0.26839 0.41364
 C962 C 0.55849 0.27023 0.39777
 C963 C 0.57923 0.25576 0.40106
 C964 C 0.58020 0.23997 0.42123
 C965 C 0.56054 0.23827 0.43721
 C966 C 0.53946 0.25203 0.43322
 C967 C 0.59833 0.25649 0.38202
 C968 C 0.62028 0.24617 0.38408
 C969 C 0.63804 0.24595 0.36384
 C970 C 0.66287 0.24497 0.36919
 C971 C 0.68006 0.24502 0.35047
 C972 C 0.67273 0.24576 0.32596
 C973 C 0.64781 0.24596 0.32063
 C974 C 0.63066 0.24596 0.33933
 H975 H 0.52283 0.27938 0.41031
 H976 H 0.55722 0.28256 0.38245
 H977 H 0.59553 0.22812 0.42433
 H978 H 0.56133 0.22528 0.45201
 H979 H 0.59391 0.26613 0.36543
 H980 H 0.62600 0.23833 0.40117
 H981 H 0.66898 0.24459 0.38791
 H982 H 0.69910 0.24476 0.35525
 H983 H 0.64149 0.24631 0.30197
 H984 H 0.61166 0.24571 0.33447
 C985 C 0.95684 0.72303 0.09259
 C986 C 0.93621 0.71893 0.10671
 C987 C 0.91309 0.72451 0.09780
 C988 C 0.91085 0.73274 0.07371
 C989 C 0.93148 0.73670 0.05942
 C990 C 0.95500 0.73270 0.06886
 C991 C 0.89219 0.72229 0.11463
 C992 C 0.87148 0.73495 0.11230
 C993 C 0.85280 0.73582 0.13171
 C994 C 0.82857 0.74067 0.12558
 C995 C 0.81085 0.74288 0.14375
 C996 C 0.81715 0.74067 0.16845
 C997 C 0.84147 0.73597 0.17451
 C998 C 0.85907 0.73364 0.15642
 H999 H 0.97417 0.71819 0.10039
 H1000 H 0.93842 0.71200 0.12503
 H1001 H 0.89329 0.73653 0.06586
 H1002 H 0.92876 0.74439 0.04152
 H1003 H 0.89484 0.71114 0.13064
 H1004 H 0.86826 0.74587 0.09627
 H1005 H 0.82337 0.74280 0.10670
 H1006 H 0.79231 0.74664 0.13846
 H1007 H 0.84703 0.73427 0.19333
 H1008 H 0.87767 0.73088 0.16198
 C1009 C 0.43855 0.25820 0.56438
 C1010 C 0.41647 0.25831 0.57691
 C1011 C 0.41022 0.23886 0.59224
 C1012 C 0.42616 0.21888 0.59413
 C1013 C 0.44831 0.21896 0.58190
 C1014 C 0.45475 0.23865 0.56707
 C1015 C 0.38732 0.24020 0.60630
 C1016 C 0.38439 0.22835 0.62739
 C1017 C 0.36322 0.23141 0.64360
 C1018 C 0.36637 0.22600 0.66828
 C1019 C 0.34747 0.22922 0.68472
 C1020 C 0.32476 0.23771 0.67685
 C1021 C 0.32121 0.24242 0.65198
 C1022 C 0.34034 0.23935 0.63543
 H1023 H 0.44312 0.27350 0.55285
 H1024 H 0.40444 0.27379 0.57497
 H1025 H 0.42161 0.20301 0.60481
 H1026 H 0.46026 0.20337 0.58363
 H1027 H 0.37358 0.25288 0.60022
 H1028 H 0.39917 0.21751 0.63447
 H1029 H 0.38372 0.21963 0.67500
 H1030 H 0.35075 0.22506 0.70370
 H1031 H 0.30383 0.24882 0.64541
 H1032 H 0.33708 0.24304 0.61638
 C1033 C 0.90780 0.28259 0.95824
 C1034 C 0.89262 0.28191 0.93800
 C1035 C 0.89807 0.26709 0.91797
 C1036 C 0.91950 0.25315 0.91844
 C1037 C 0.93487 0.25385 0.93878
 C1038 C 0.92906 0.26823 0.95939
 C1039 C 0.88009 0.26595 0.89789
 C1040 C 0.88448 0.25704 0.87554
 C1041 C 0.86542 0.25599 0.85647
 C1042 C 0.87214 0.25682 0.83183
 C1043 C 0.85453 0.25591 0.81350
 C1044 C 0.82977 0.25390 0.81945
 C1045 C 0.82314 0.25265 0.84414
 C1046 C 0.84070 0.25357 0.86240
 H1047 H 0.90292 0.29508 0.97271
 H1048 H 0.87639 0.29306 0.93808
 H1049 H 0.92412 0.24103 0.90360
 H1050 H 0.95049 0.24193 0.93864
 H1051 H 0.86239 0.27362 0.90172
 H1052 H 0.90260 0.25133 0.87057
 H1053 H 0.89106 0.25839 0.82675
 H1054 H 0.86033 0.25670 0.79468
 H1055 H 0.80432 0.25073 0.84945
 H1056 H 0.83482 0.25190 0.88111
 C1057 C 0.41080 0.78201 0.45388
 C1058 C 0.39616 0.78354 0.43324
 C1059 C 0.40005 0.76810 0.41319
 C1060 C 0.41975 0.75172 0.41385
 C1061 C 0.43453 0.75031 0.43452
 C1062 C 0.42978 0.76499 0.45496
 C1063 C 0.38183 0.76840 0.39329
 C1064 C 0.38388 0.75640 0.37205
 C1065 C 0.36367 0.75526 0.35428
 C1066 C 0.36872 0.75262 0.32935
 C1067 C 0.34984 0.75138 0.31234
 C1068 C 0.32550 0.75240 0.32001
 C1069 C 0.32054 0.75442 0.34505
 C1070 C 0.33933 0.75575 0.36195
 H1071 H 0.40692 0.79375 0.46928
 H1072 H 0.38121 0.79637 0.43328
 H1073 H 0.42331 0.73923 0.39904
 H1074 H 0.44892 0.73688 0.43499
 H1075 H 0.36554 0.77894 0.39664
 H1076 H 0.40067 0.74745 0.36717
 H1077 H 0.38731 0.75182 0.32302
 H1078 H 0.35433 0.74967 0.29321
 H1079 H 0.30206 0.75500 0.35171
 H1080 H 0.33468 0.75674 0.38107
 C1081 C 0.04942 0.06464 0.23575
 C1082 C 0.06373 0.08573 0.23511
 C1083 C 0.08534 0.08713 0.24845
 C1084 C 0.09180 0.06743 0.26336
 C1085 C 0.07772 0.04638 0.26392
 C1086 C 0.05640 0.04426 0.24983
 C1087 C 0.10073 0.10928 0.24677
 C1088 C 0.12483 0.10835 0.25005
 C1089 C 0.14151 0.12952 0.24884
 C1090 C 0.16645 0.12470 0.24748
 C1091 C 0.18326 0.14362 0.24735
 C1092 C 0.17563 0.16804 0.24868
 C1093 C 0.15062 0.17301 0.24992
 C1094 C 0.13369 0.15394 0.25007
 H1095 H 0.03359 0.06414 0.22419
 H1096 H 0.05820 0.10078 0.22365
 H1097 H 0.10758 0.06829 0.27501
 H1098 H 0.08328 0.03213 0.27631
 H1099 H 0.09210 0.12618 0.24155
 H1100 H 0.13325 0.09078 0.25306
 H1101 H 0.17305 0.10611 0.24661
 H1102 H 0.20233 0.13900 0.24629
 H1103 H 0.14412 0.19160 0.25104
 H1104 H 0.11468 0.15848 0.25165
 C1105 C 0.56350 0.55846 0.72569
 C1106 C 0.57582 0.58074 0.72631
 C1107 C 0.59178 0.58618 0.74546
 C1108 C 0.59441 0.56925 0.76451
 C1109 C 0.58236 0.54695 0.76373
 C1110 C 0.56699 0.54123 0.74423
 C1111 C 0.60566 0.60934 0.74495
 C1112 C 0.62728 0.61150 0.75586
 C1113 C 0.64309 0.63324 0.75452
 C1114 C 0.66765 0.63004 0.76006
 C1115 C 0.68367 0.64954 0.75915
 C1116 C 0.67557 0.67298 0.75284
 C1117 C 0.65083 0.67646 0.74772
 C1118 C 0.63467 0.65673 0.74851
 H1119 H 0.55159 0.55450 0.71054
 H1120 H 0.57326 0.59355 0.71156
 H1121 H 0.60559 0.57315 0.78019
 H1122 H 0.58477 0.53425 0.77861
 H1123 H 0.59877 0.62405 0.73385
 H1124 H 0.63489 0.59580 0.76499
 H1125 H 0.67461 0.61223 0.76494
 H1126 H 0.70253 0.64613 0.76347
 H1127 H 0.64402 0.69433 0.74291
 H1128 H 0.61572 0.66002 0.74470
 C1129 C 0.94404 0.05584 0.73356
 C1130 C 0.92333 0.07031 0.73070
 C1131 C 0.92163 0.09315 0.74202
 C1132 C 0.94084 0.10103 0.75680
 C1133 C 0.96152 0.08671 0.75964
 C1134 C 0.96370 0.06381 0.74802
 C1135 C 0.89933 0.10792 0.73898
 C1136 C 0.89931 0.13227 0.74112
 C1137 C 0.87733 0.14776 0.73973
 C1138 C 0.88042 0.17291 0.73654
 C1139 C 0.86053 0.18862 0.73673
 C1140 C 0.83696 0.17955 0.74024
 C1141 C 0.83376 0.15431 0.74316
 C1142 C 0.85373 0.13856 0.74301
 H1143 H 0.94474 0.03887 0.72357
 H1144 H 0.90869 0.06376 0.71932
 H1145 H 0.93975 0.11796 0.76686
 H1146 H 0.97522 0.09333 0.77208
 H1147 H 0.88285 0.09841 0.73417
 H1148 H 0.91639 0.14165 0.74361
 H1149 H 0.89838 0.18052 0.73413
 H1150 H 0.86370 0.20794 0.73440
 H1151 H 0.81588 0.14673 0.74608
 H1152 H 0.85055 0.11941 0.74620
 C1153 C 0.44522 0.58626 0.20111
 C1154 C 0.42499 0.60152 0.19989
 C1155 C 0.40553 0.59864 0.21614
 C1156 C 0.40623 0.57924 0.23290
 C1157 C 0.42643 0.56387 0.23399
 C1158 C 0.44640 0.56772 0.21863
 C1159 C 0.38635 0.61764 0.21650
 C1160 C 0.36556 0.61593 0.22909
 C1161 C 0.34828 0.63647 0.23162
 C1162 C 0.32392 0.63142 0.23684
 C1163 C 0.30731 0.65034 0.24040
 C1164 C 0.31479 0.67480 0.23908
 C1165 C 0.33927 0.67986 0.23408
 C1166 C 0.35585 0.66093 0.23046
 H1167 H 0.46033 0.58947 0.18892
 H1168 H 0.42497 0.61624 0.18678
 H1169 H 0.39197 0.57646 0.24609
 H1170 H 0.42704 0.54991 0.24789
 H1171 H 0.38988 0.63405 0.20619
 H1172 H 0.36063 0.59898 0.23772
 H1173 H 0.31771 0.61275 0.23817
 H1174 H 0.28862 0.64574 0.24433
 H1175 H 0.34570 0.69846 0.23312
 H1176 H 0.37465 0.66560 0.22739
 C1177 C 0.03937 0.90225 0.73826
 C1178 C 0.05951 0.88700 0.73593
 C1179 C 0.08266 0.89489 0.74285
 C1180 C 0.08538 0.91896 0.75123
 C1181 C 0.06522 0.93437 0.75345
 C1182 C 0.04164 0.92618 0.74752
 C1183 C 0.10299 0.87714 0.74124
 C1184 C 0.12447 0.87959 0.75250
 C1185 C 0.14307 0.85997 0.75259
 C1186 C 0.16762 0.86602 0.75562
 C1187 C 0.18543 0.84779 0.75656
 C1188 C 0.17896 0.82306 0.75482
 C1189 C 0.15432 0.81707 0.75206
 C1190 C 0.13662 0.83523 0.75105
 H1191 H 0.02215 0.89520 0.73206
 H1192 H 0.05688 0.86872 0.72895
 H1193 H 0.10293 0.92608 0.75627
 H1194 H 0.06824 0.95229 0.76108
 H1195 H 0.09952 0.86067 0.73095
 H1196 H 0.12873 0.89612 0.76230
 H1197 H 0.17305 0.88492 0.75720
 H1198 H 0.20420 0.85307 0.75885
 H1199 H 0.14856 0.79825 0.75089
 H1200 H 0.11786 0.82969 0.74971
 C1201 C 0.55320 0.44057 0.22687
 C1202 C 0.57459 0.42681 0.22727
 C1203 C 0.57865 0.40961 0.24570
 C1204 C 0.56124 0.40708 0.26428
 C1205 C 0.53989 0.42077 0.26386
 C1206 C 0.53551 0.43749 0.24505
 C1207 C 0.60114 0.39473 0.24514
 C1208 C 0.60232 0.37236 0.25488
 C1209 C 0.62397 0.35636 0.25368
 C1210 C 0.62058 0.33121 0.25637
 C1211 C 0.64026 0.31526 0.25567
 C1212 C 0.66399 0.32407 0.25252
 C1213 C 0.66751 0.34934 0.25017
 C1214 C 0.64769 0.36536 0.25072
 H1215 H 0.55030 0.45325 0.21209
 H1216 H 0.58780 0.42927 0.21287
 H1217 H 0.56411 0.39476 0.27935
 H1218 H 0.52688 0.41847 0.27847
 H1219 H 0.61645 0.40177 0.23503
 H1220 H 0.58615 0.36457 0.26288
 H1221 H 0.60255 0.32380 0.25890
 H1222 H 0.63682 0.29595 0.25776
 H1223 H 0.68555 0.35675 0.24786
 H1224 H 0.65111 0.38470 0.24926
 C1225 C 0.90149 0.96000 0.22023
 C1226 C 0.88703 0.93935 0.21758
 C1227 C 0.89473 0.91669 0.22631
 C1228 C 0.91813 0.91479 0.23632
 C1229 C 0.93282 0.93548 0.23880
 C1230 C 0.92438 0.95872 0.23166
 C1231 C 0.87737 0.89605 0.22507
 C1232 C 0.87871 0.87595 0.23888
 C1233 C 0.85913 0.85742 0.23947
 C1234 C 0.86488 0.83313 0.24492
 C1235 C 0.84668 0.81543 0.24623
 C1236 C 0.82222 0.82176 0.24256
 C1237 C 0.81646 0.84619 0.23751
 C1238 C 0.83466 0.86381 0.23601
 H1239 H 0.89460 0.97693 0.21292
 H1240 H 0.86936 0.94128 0.20919
 H1241 H 0.92513 0.89750 0.24259
 H1242 H 0.95011 0.93326 0.24781
 H1243 H 0.86190 0.89833 0.21318
 H1244 H 0.89422 0.87290 0.25050
 H1245 H 0.88355 0.82782 0.24801
 H1246 H 0.85175 0.79681 0.25029
 H1247 H 0.79784 0.85177 0.23466
 H1248 H 0.82938 0.88249 0.23266
 C1249 C 0.41605 0.45123 0.71465
 C1250 C 0.40111 0.43081 0.71292
 C1251 C 0.40660 0.40945 0.72579
 C1252 C 0.42838 0.40839 0.73913
 C1253 C 0.44336 0.42887 0.74083
 C1254 C 0.43694 0.45071 0.72921
 C1255 C 0.38851 0.38946 0.72559
 C1256 C 0.38775 0.37144 0.74204
 C1257 C 0.36746 0.35387 0.74325
 C1258 C 0.37184 0.33020 0.75176
 C1259 C 0.35288 0.31342 0.75364
 C1260 C 0.32905 0.32018 0.74754
 C1261 C 0.32462 0.34407 0.73950
 C1262 C 0.34360 0.36073 0.73736
 H1263 H 0.41091 0.46768 0.70510
 H1264 H 0.38467 0.43204 0.70222
 H1265 H 0.43383 0.39208 0.74864
 H1266 H 0.45940 0.42794 0.75214
 H1267 H 0.37425 0.39058 0.71209
 H1268 H 0.40197 0.36945 0.75539
 H1269 H 0.39002 0.32464 0.75674
 H1270 H 0.35687 0.29519 0.76001
 H1271 H 0.30649 0.34987 0.73466
 H1272 H 0.33943 0.37909 0.73156
 C1273 C 0.05857 0.27654 0.93753
 C1274 C 0.07207 0.27688 0.91591
 C1275 C 0.08909 0.25848 0.91095
 C1276 C 0.09150 0.23908 0.92748
 C1277 C 0.07810 0.23877 0.94902
 C1278 C 0.06178 0.25766 0.95448
 C1279 C 0.10433 0.26000 0.88873
 C1280 C 0.12700 0.25115 0.88823
 C1281 C 0.14372 0.25291 0.86718
 C1282 C 0.16858 0.25040 0.87168
 C1283 C 0.18526 0.25088 0.85265
 C1284 C 0.17752 0.25366 0.82842
 C1285 C 0.15256 0.25621 0.82379
 C1286 C 0.13577 0.25586 0.84301
 H1287 H 0.04609 0.29134 0.94126
 H1288 H 0.06970 0.29188 0.90335
 H1289 H 0.10366 0.22402 0.92381
 H1290 H 0.08044 0.22365 0.96145
 H1291 H 0.09736 0.27007 0.87333
 H1292 H 0.13443 0.24328 0.90468
 H1293 H 0.17519 0.24796 0.89008
 H1294 H 0.20428 0.24873 0.85701
 H1295 H 0.14598 0.25822 0.80534
 H1296 H 0.11667 0.25728 0.83878
 C1297 C 0.55252 0.75663 0.43394
 C1298 C 0.56631 0.75632 0.41251
 C1299 C 0.58819 0.74326 0.41128
 C1300 C 0.59533 0.72943 0.43162
 C1301 C 0.58154 0.72974 0.45304
 C1302 C 0.56019 0.74368 0.45463
 C1303 C 0.60306 0.74459 0.38866
 C1304 C 0.62725 0.74156 0.38862
 C1305 C 0.64316 0.74409 0.36684
 C1306 C 0.66820 0.74640 0.37067
 C1307 C 0.68425 0.74821 0.35109
 C1308 C 0.67576 0.74767 0.32696
 C1309 C 0.65065 0.74543 0.32299
 C1310 C 0.63451 0.74360 0.34270
 H1311 H 0.53626 0.76769 0.43457
 H1312 H 0.56022 0.76692 0.39707
 H1313 H 0.61151 0.71828 0.43112
 H1314 H 0.58765 0.71908 0.46842
 H1315 H 0.59392 0.74992 0.37210
 H1316 H 0.63631 0.73827 0.40576
 H1317 H 0.67547 0.74674 0.38898
 H1318 H 0.70343 0.74985 0.35496
 H1319 H 0.64349 0.74471 0.30466
 H1320 H 0.61544 0.74131 0.33884
 C1321 C 0.92679 0.76579 0.95086
 C1322 C 0.90461 0.76655 0.93852
 C1323 C 0.90273 0.75737 0.91481
 C1324 C 0.92306 0.74634 0.90405
 C1325 C 0.94514 0.74558 0.91622
 C1326 C 0.94767 0.75563 0.93976
 C1327 C 0.87961 0.75930 0.90137
 C1328 C 0.87958 0.76310 0.87730
 C1329 C 0.85789 0.76325 0.86154
 C1330 C 0.86104 0.77091 0.83743
 C1331 C 0.84227 0.76895 0.82072
 C1332 C 0.81976 0.75927 0.82767
 C1333 C 0.81607 0.75251 0.85204
 C1334 C 0.83507 0.75431 0.86888
 H1335 H 0.92755 0.77432 0.96860
 H1336 H 0.88907 0.77498 0.94722
 H1337 H 0.92189 0.73797 0.88622
 H1338 H 0.95991 0.73612 0.90730
 H1339 H 0.86282 0.75833 0.91152
 H1340 H 0.89680 0.76622 0.86830
 H1341 H 0.87835 0.77792 0.83129
 H1342 H 0.84555 0.77475 0.80216
 H1343 H 0.79884 0.74503 0.85784
 H1344 H 0.83199 0.74792 0.88721
 C1345 C 0.42950 0.24589 0.44827
 C1346 C 0.40740 0.24556 0.43582
 C1347 C 0.40594 0.23542 0.41243
 C1348 C 0.42661 0.22419 0.40234
 C1349 C 0.44864 0.22446 0.41479
 C1350 C 0.45048 0.23581 0.43765
 C1351 C 0.38305 0.23754 0.39854
 C1352 C 0.38327 0.24099 0.37441
 C1353 C 0.36148 0.24440 0.35908
 C1354 C 0.36492 0.25404 0.33574
 C1355 C 0.34567 0.25586 0.31954
 C1356 C 0.32236 0.24795 0.32618
 C1357 C 0.31853 0.23913 0.34987
 C1358 C 0.33798 0.23724 0.36621
 H1359 H 0.43035 0.25486 0.46583
 H1360 H 0.39167 0.25411 0.44404
 H1361 H 0.42583 0.21535 0.38472
 H1362 H 0.46432 0.21595 0.40645
 H1363 H 0.36617 0.23829 0.40858
 H1364 H 0.40063 0.24247 0.36526
 H1365 H 0.38276 0.25981 0.32980
 H1366 H 0.34921 0.26306 0.30153
 H1367 H 0.30078 0.23279 0.35541
 H1368 H 0.33466 0.22938 0.38393
 C1369 C 0.06258 0.75199 0.05951
 C1370 C 0.08350 0.75558 0.07336
 C1371 C 0.08240 0.76837 0.09548
 C1372 C 0.06025 0.77896 0.10269
 C1373 C 0.03934 0.77526 0.08891
 C1374 C 0.04020 0.76123 0.06753
 C1375 C 0.10437 0.76944 0.11088
 C1376 C 0.10330 0.77150 0.13520
 C1377 C 0.12462 0.76939 0.15144
 C1378 C 0.12054 0.76437 0.17614
 C1379 C 0.13993 0.76148 0.19215
 C1380 C 0.16392 0.76356 0.18379
 C1381 C 0.16806 0.76905 0.15915
 C1382 C 0.14863 0.77208 0.14315
 H1383 H 0.06371 0.74111 0.04307
 H1384 H 0.10039 0.74751 0.06725
 H1385 H 0.05890 0.78989 0.11904
 H1386 H 0.02238 0.78310 0.09512
 H1387 H 0.12155 0.76596 0.10202
 H1388 H 0.08577 0.77280 0.14399
 H1389 H 0.10225 0.76238 0.18306
 H1390 H 0.13609 0.75741 0.21104
 H1391 H 0.18633 0.77122 0.15223
 H1392 H 0.15263 0.77676 0.12447
 C1393 C 0.54533 0.20988 0.58537
 C1394 C 0.56564 0.20893 0.60048
 C1395 C 0.58537 0.22463 0.59672
 C1396 C 0.58471 0.24068 0.57671
 C1397 C 0.56440 0.24149 0.56149
 C1398 C 0.54427 0.22656 0.56607
 C1399 C 0.60508 0.22478 0.61516
 C1400 C 0.62613 0.23680 0.61280
 C1401 C 0.64452 0.23799 0.63246
 C1402 C 0.66883 0.24218 0.62625
 C1403 C 0.68660 0.24388 0.64428
 C1404 C 0.68041 0.24170 0.66904
 C1405 C 0.65598 0.23794 0.67530
 C1406 C 0.63822 0.23617 0.65725
 H1407 H 0.53013 0.19800 0.58918
 H1408 H 0.56561 0.19634 0.61564
 H1409 H 0.59921 0.25340 0.57319
 H1410 H 0.56390 0.25473 0.54690
 H1411 H 0.60189 0.21440 0.63159
 H1412 H 0.63062 0.24560 0.59582
 H1413 H 0.67412 0.24400 0.60734
 H1414 H 0.70520 0.24698 0.63877
 H1415 H 0.65051 0.23641 0.69417
 H1416 H 0.61956 0.23387 0.66286
 C1417 C 0.94106 0.26285 0.06850
 C1418 C 0.92714 0.26286 0.08978
 C1419 C 0.90634 0.27749 0.09161
 C1420 C 0.90077 0.29356 0.07250
 C1421 C 0.91471 0.29360 0.05126
 C1422 C 0.93453 0.27769 0.04873
 C1423 C 0.89039 0.27488 0.11315
 C1424 C 0.86628 0.27789 0.11177
 C1425 C 0.84931 0.27316 0.13216
 C1426 C 0.82478 0.26920 0.12671
 C1427 C 0.80796 0.26495 0.14522
 C1428 C 0.81526 0.26471 0.16972
 C1429 C 0.83984 0.26872 0.17522
 C1430 C 0.85668 0.27299 0.15668
 H1431 H 0.95618 0.25033 0.06705
 H1432 H 0.93196 0.25055 0.10439
 H1433 H 0.88546 0.30585 0.07374
 H1434 H 0.90963 0.30567 0.03655
 H1435 H 0.89849 0.26803 0.12970
 H1436 H 0.85825 0.28245 0.09439
 H1437 H 0.81859 0.26934 0.10800
 H1438 H 0.78918 0.26200 0.14028
 H1439 H 0.84606 0.26890 0.19391
 H1440 H 0.87527 0.27663 0.16174
 C1441 C 0.40955 0.77223 0.54858
 C1442 C 0.39418 0.77125 0.56872
 C1443 C 0.39627 0.75248 0.58587
 C1444 C 0.41464 0.73486 0.58266
 C1445 C 0.43012 0.73584 0.56234
 C1446 C 0.42739 0.75429 0.54484
 C1447 C 0.37787 0.75140 0.60564
 C1448 C 0.38020 0.73866 0.62634
 C1449 C 0.36092 0.73838 0.64529
 C1450 C 0.36730 0.73559 0.66986
 C1451 C 0.34951 0.73594 0.68810
 C1452 C 0.32485 0.73875 0.68213
 C1453 C 0.31845 0.74078 0.65744
 C1454 C 0.33621 0.74056 0.63926
 H1455 H 0.40725 0.78692 0.53565
 H1456 H 0.38030 0.78511 0.57071
 H1457 H 0.41659 0.71983 0.59520
 H1458 H 0.44357 0.72167 0.55982
 H1459 H 0.36179 0.76247 0.60320
 H1460 H 0.39702 0.72928 0.63024
 H1461 H 0.38616 0.73358 0.67498
 H1462 H 0.35512 0.73410 0.70689
 H1463 H 0.29965 0.74270 0.65208
 H1464 H 0.33048 0.74185 0.62048
 C1465 C 0.29271 0.09277 0.95702
 C1466 C 0.28873 0.10875 0.93780
 C1467 C 0.26999 0.10466 0.92116
 C1468 C 0.25566 0.08361 0.92372
 C1469 C 0.25974 0.06739 0.94295
 C1470 C 0.27791 0.07207 0.96042
 C1471 C 0.26574 0.12346 0.90232
 C1472 C 0.25144 0.12066 0.88282
 C1473 C 0.24871 0.14012 0.86441
 C1474 C 0.24491 0.13362 0.84004
 C1475 C 0.24394 0.15149 0.82200
 C1476 C 0.24650 0.17630 0.82804
 C1477 C 0.24913 0.18285 0.85263
 C1478 C 0.25015 0.16497 0.87064
 H1479 H 0.30779 0.09664 0.96900
 H1480 H 0.30031 0.12459 0.93610
 H1481 H 0.24073 0.07990 0.91155
 H1482 H 0.24747 0.05215 0.94483
 H1483 H 0.27571 0.14033 0.90433
 H1484 H 0.24291 0.10333 0.87913
 H1485 H 0.24340 0.11463 0.83485
 H1486 H 0.24156 0.14578 0.80327
 H1487 H 0.25075 0.20178 0.85797
 H1488 H 0.25210 0.17068 0.88940
 C1489 C 0.78896 0.58749 0.45202
 C1490 C 0.78700 0.60317 0.43221
 C1491 C 0.76661 0.60238 0.41702
 C1492 C 0.74831 0.58515 0.42180
 C1493 C 0.75029 0.56940 0.44169
 C1494 C 0.77045 0.57074 0.45722
 C1495 C 0.76458 0.62091 0.39760
 C1496 C 0.74998 0.61890 0.37823
 C1497 C 0.74847 0.63820 0.35954
 C1498 C 0.74354 0.63175 0.33535
 C1499 C 0.74275 0.64955 0.31722
 C1500 C 0.74657 0.67424 0.32302
 C1501 C 0.75069 0.68074 0.34741
 C1502 C 0.75160 0.66294 0.36549
 H1503 H 0.80482 0.58871 0.46357
 H1504 H 0.80134 0.61624 0.42896
 H1505 H 0.73203 0.58436 0.41089
 H1506 H 0.73561 0.55689 0.44552
 H1507 H 0.77631 0.63665 0.39908
 H1508 H 0.73990 0.60229 0.37513
 H1509 H 0.74075 0.61284 0.33041
 H1510 H 0.73924 0.64392 0.29865
 H1511 H 0.75339 0.69960 0.35258
 H1512 H 0.75453 0.66866 0.38412
 C1513 C 0.72444 0.04458 0.08971
 C1514 C 0.72138 0.06554 0.10376
 C1515 C 0.72996 0.08812 0.09566
 C1516 C 0.74022 0.08959 0.07225
 C1517 C 0.74311 0.06857 0.05797
 C1518 C 0.73615 0.04545 0.06685
 C1519 C 0.72852 0.10906 0.11279
 C1520 C 0.74148 0.12966 0.11083
 C1521 C 0.74217 0.14807 0.13062
 C1522 C 0.74554 0.17277 0.12499
 C1523 C 0.74660 0.19032 0.14353
 C1524 C 0.74475 0.18340 0.16812
 C1525 C 0.74197 0.15857 0.17369
 C1526 C 0.74072 0.14114 0.15521
 H1527 H 0.71724 0.02773 0.09688
 H1528 H 0.71283 0.06392 0.12146
 H1529 H 0.74646 0.10674 0.06494
 H1530 H 0.75233 0.07047 0.04068
 H1531 H 0.71726 0.10660 0.12877
 H1532 H 0.75232 0.13315 0.09481
 H1533 H 0.74711 0.17850 0.10620
 H1534 H 0.74894 0.20927 0.13861
 H1535 H 0.74065 0.15251 0.19239
 H1536 H 0.73909 0.12218 0.16032
 C1537 C 0.25691 0.56522 0.55756
 C1538 C 0.25495 0.58647 0.57152
 C1539 C 0.24225 0.58637 0.59367
 C1540 C 0.23022 0.56492 0.60083
 C1541 C 0.23222 0.54367 0.58691
 C1542 C 0.24602 0.54345 0.56540
 C1543 C 0.24248 0.60860 0.60909
 C1544 C 0.24085 0.60757 0.63344
 C1545 C 0.24306 0.62882 0.65006
 C1546 C 0.24678 0.62413 0.67485
 C1547 C 0.24864 0.64315 0.69157
 C1548 C 0.24671 0.66753 0.68399
 C1549 C 0.24310 0.67238 0.65913
 C1550 C 0.24119 0.65322 0.64231
 H1551 H 0.26774 0.56559 0.54111
 H1552 H 0.26415 0.60280 0.56546
 H1553 H 0.21935 0.56439 0.61723
 H1554 H 0.22315 0.52732 0.59307
 H1555 H 0.24618 0.62577 0.60022
 H1556 H 0.23924 0.58991 0.64203
 H1557 H 0.24828 0.60558 0.68139
 H1558 H 0.25152 0.63864 0.71053
 H1559 H 0.24138 0.69094 0.65273
 H1560 H 0.23782 0.65770 0.62347
 C1561 C 0.77750 0.95761 0.91593
 C1562 C 0.77677 0.93830 0.89941
 C1563 C 0.75773 0.92140 0.89994
 C1564 C 0.73959 0.92397 0.91790
 C1565 C 0.74036 0.94338 0.93454
 C1566 C 0.75909 0.96066 0.93337
 C1567 C 0.75703 0.90247 0.88057
 C1568 C 0.74373 0.88206 0.88162
 C1569 C 0.74385 0.86354 0.86187
 C1570 C 0.73923 0.83914 0.86775
 C1571 C 0.73957 0.82112 0.84972
 C1572 C 0.74421 0.82714 0.82526
 C1573 C 0.74825 0.85169 0.81926
 C1574 C 0.74804 0.86970 0.83734
 H1575 H 0.79232 0.97049 0.91478
 H1576 H 0.79101 0.93679 0.88587
 H1577 H 0.72432 0.91167 0.91868
 H1578 H 0.72580 0.94548 0.94764
 H1579 H 0.76884 0.90522 0.86506
 H1580 H 0.73353 0.87791 0.89792
 H1581 H 0.73570 0.83394 0.88643
 H1582 H 0.73621 0.80244 0.85502
 H1583 H 0.75172 0.85700 0.80060
 H1584 H 0.75087 0.88843 0.83196
 C1585 C 0.27562 0.45492 0.41161
 C1586 C 0.27536 0.43513 0.39567
 C1587 C 0.25856 0.41620 0.39863
 C1588 C 0.24226 0.41727 0.41842
 C1589 C 0.24258 0.43717 0.43450
 C1590 C 0.25897 0.45641 0.43093
 C1591 C 0.25799 0.39676 0.37976
 C1592 C 0.24669 0.37527 0.38217
 C1593 C 0.24654 0.35666 0.36249
 C1594 C 0.24451 0.33197 0.36865
 C1595 C 0.24461 0.31397 0.35057
 C1596 C 0.24643 0.32031 0.32582
 C1597 C 0.24790 0.34510 0.31963
 C1598 C 0.24788 0.36307 0.33771
 H1599 H 0.28867 0.46935 0.40861
 H1600 H 0.28816 0.43483 0.38069
 H1601 H 0.22870 0.40334 0.42115
 H1602 H 0.22941 0.43800 0.44912
 H1603 H 0.26809 0.40026 0.36322
 H1604 H 0.23833 0.37047 0.39931
 H1605 H 0.24319 0.32655 0.38756
 H1606 H 0.24331 0.29507 0.35604
 H1607 H 0.24910 0.35070 0.30077
 H1608 H 0.24857 0.38195 0.33215
 C1609 C 0.24445 0.94987 0.06534
 C1610 C 0.24110 0.93729 0.08726
 C1611 C 0.25215 0.91457 0.09094
 C1612 C 0.26734 0.90505 0.07265
 C1613 C 0.27080 0.91763 0.05089
 C1614 C 0.25923 0.94007 0.04682
 C1615 C 0.24786 0.90105 0.11388
 C1616 C 0.24669 0.87667 0.11407
 C1617 C 0.24316 0.86153 0.13607
 C1618 C 0.23496 0.83764 0.13270
 C1619 C 0.23374 0.82153 0.15218
 C1620 C 0.24093 0.82878 0.17566
 C1621 C 0.24833 0.85303 0.17935
 C1622 C 0.24950 0.86930 0.15969
 H1623 H 0.23520 0.96708 0.06277
 H1624 H 0.22947 0.94508 0.10116
 H1625 H 0.27688 0.88801 0.07525
 H1626 H 0.28290 0.90992 0.03736
 H1627 H 0.24449 0.91133 0.13038
 H1628 H 0.24774 0.86701 0.09686
 H1629 H 0.22992 0.83119 0.11475
 H1630 H 0.22762 0.80312 0.14863
 H1631 H 0.25402 0.85915 0.19720
 H1632 H 0.25629 0.88751 0.16288
 C1633 C 0.76012 0.44571 0.56701
 C1634 C 0.75799 0.43187 0.58823
 C1635 C 0.74149 0.41248 0.58946
 C1636 C 0.72600 0.40820 0.56956
 C1637 C 0.72813 0.42203 0.54833
 C1638 C 0.74561 0.44055 0.54662
 C1639 C 0.74159 0.39665 0.61131
 C1640 C 0.73551 0.37301 0.61034
 C1641 C 0.73843 0.35576 0.63087
 C1642 C 0.73972 0.33082 0.62546
 C1643 C 0.74292 0.31371 0.64390
 C1644 C 0.74473 0.32108 0.66836
 C1645 C 0.74300 0.34606 0.67391
 C1646 C 0.73985 0.36325 0.65537
 H1647 H 0.77383 0.45979 0.56621
 H1648 H 0.76997 0.43570 0.60337
 H1649 H 0.71233 0.39410 0.57020
 H1650 H 0.71629 0.41805 0.53313
 H1651 H 0.74922 0.40412 0.62785
 H1652 H 0.73003 0.36524 0.59307
 H1653 H 0.73851 0.32450 0.60680
 H1654 H 0.74393 0.29464 0.63889
 H1655 H 0.74404 0.35234 0.69258
 H1656 H 0.73824 0.38224 0.66038
 C1657 C 0.07223 0.05144 0.75351
 C1658 C 0.09324 0.06566 0.75453
 C1659 C 0.09359 0.08737 0.76808
 C1660 C 0.07319 0.09360 0.78219
 C1661 C 0.05223 0.07945 0.78113
 C1662 C 0.05129 0.05869 0.76618
 C1663 C 0.11505 0.10350 0.76647
 C1664 C 0.11331 0.12781 0.76866
 C1665 C 0.13383 0.14487 0.76518
 C1666 C 0.12861 0.16953 0.76084
 C1667 C 0.14725 0.18641 0.75759
 C1668 C 0.17162 0.17902 0.75869
 C1669 C 0.17688 0.15435 0.76322
 C1670 C 0.15822 0.13747 0.76653
 H1671 H 0.07196 0.03551 0.74184
 H1672 H 0.10886 0.06029 0.74380
 H1673 H 0.07319 0.10959 0.79374
 H1674 H 0.03647 0.08508 0.79153
 H1675 H 0.13207 0.09522 0.76119
 H1676 H 0.09565 0.13593 0.77166
 H1677 H 0.11000 0.17577 0.75987
 H1678 H 0.14253 0.20527 0.75428
 H1679 H 0.19545 0.14807 0.76455
 H1680 H 0.16311 0.11884 0.77059
 C1681 C 0.54029 0.58780 0.21393
 C1682 C 0.55997 0.60358 0.21578
 C1683 C 0.57527 0.60288 0.23612
 C1684 C 0.57075 0.58556 0.25447
 C1685 C 0.55093 0.56970 0.25261
 C1686 C 0.53525 0.57102 0.23252
 C1687 C 0.59455 0.62156 0.23799
 C1688 C 0.61419 0.61967 0.25221
 C1689 C 0.63294 0.63896 0.25304
 C1690 C 0.65722 0.63247 0.25690
 C1691 C 0.67540 0.65021 0.25668
 C1692 C 0.66958 0.67490 0.25296
 C1693 C 0.64512 0.68147 0.25004
 C1694 C 0.62700 0.66372 0.25009
 H1695 H 0.52869 0.58900 0.19808
 H1696 H 0.56304 0.61669 0.20138
 H1697 H 0.58182 0.58478 0.27069
 H1698 H 0.54729 0.55714 0.26734
 H1699 H 0.59282 0.63731 0.22626
 H1700 H 0.61751 0.60307 0.26227
 H1701 H 0.66219 0.61356 0.25953
 H1702 H 0.69402 0.64453 0.25929
 H1703 H 0.63996 0.70032 0.24740
 H1704 H 0.60835 0.66946 0.24793
 C1705 C 0.04825 0.93425 0.24614
 C1706 C 0.06270 0.91330 0.24713
 C1707 C 0.08328 0.91253 0.26212
 C1708 C 0.08819 0.93254 0.27738
 C1709 C 0.07376 0.95344 0.27642
 C1710 C 0.05403 0.95479 0.26031
 C1711 C 0.09942 0.89091 0.26108
 C1712 C 0.12333 0.89227 0.26550
 C1713 C 0.14038 0.87146 0.26299
 C1714 C 0.16520 0.87644 0.26037
 C1715 C 0.18206 0.85754 0.25811
 C1716 C 0.17449 0.83310 0.25859
 C1717 C 0.14963 0.82808 0.26142
 C1718 C 0.13276 0.84701 0.26368
 H1719 H 0.03320 0.93478 0.23351
 H1720 H 0.05833 0.89801 0.23544
 H1721 H 0.10325 0.93221 0.28997
 H1722 H 0.07828 0.96877 0.28800
 H1723 H 0.09164 0.87403 0.25457
 H1724 H 0.13124 0.90981 0.26973
 H1725 H 0.17161 0.89509 0.25994
 H1726 H 0.20104 0.86213 0.25603
 H1727 H 0.14315 0.80947 0.26206
 H1728 H 0.11392 0.84232 0.26637
 C1729 C 0.58776 0.45044 0.77125
 C1730 C 0.60292 0.43014 0.77298
 C1731 C 0.59950 0.40979 0.75784
 C1732 C 0.57985 0.40985 0.74146
 C1733 C 0.56456 0.43019 0.73984
 C1734 C 0.56875 0.45091 0.75430
 C1735 C 0.61807 0.39015 0.75847
 C1736 C 0.61604 0.36839 0.74744
 C1737 C 0.63633 0.35059 0.74675
 C1738 C 0.63134 0.32557 0.74498
 C1739 C 0.65025 0.30850 0.74409
 C1740 C 0.67458 0.31618 0.74463
 C1741 C 0.67949 0.34130 0.74584
 C1742 C 0.66066 0.35826 0.74680
 H1743 H 0.59122 0.46604 0.78285
 H1744 H 0.61784 0.43064 0.78578
 H1745 H 0.57669 0.39482 0.72915
 H1746 H 0.55017 0.43018 0.72645
 H1747 H 0.63447 0.39409 0.76854
 H1748 H 0.59913 0.36304 0.73909
 H1749 H 0.61276 0.31921 0.74453
 H1750 H 0.64579 0.28932 0.74298
 H1751 H 0.69796 0.34796 0.74600
 H1752 H 0.66528 0.37741 0.74714
 C1753 C 0.90300 0.04641 0.26593
 C1754 C 0.88838 0.06713 0.26721
 C1755 C 0.89461 0.08840 0.25449
 C1756 C 0.91655 0.08880 0.24128
 C1757 C 0.93130 0.06803 0.24016
 C1758 C 0.92430 0.04648 0.25196
 C1759 C 0.87672 0.10865 0.25424
 C1760 C 0.88009 0.13046 0.24376
 C1761 C 0.86035 0.14876 0.24232
 C1762 C 0.86595 0.17369 0.24251
 C1763 C 0.84746 0.19120 0.24176
 C1764 C 0.82300 0.18404 0.24050
 C1765 C 0.81755 0.15905 0.23934
 C1766 C 0.83596 0.14164 0.24015
 H1767 H 0.89736 0.03010 0.27544
 H1768 H 0.87170 0.06626 0.27761
 H1769 H 0.92210 0.10462 0.23105
 H1770 H 0.94760 0.06844 0.22915
 H1771 H 0.85948 0.10509 0.26301
 H1772 H 0.89760 0.13551 0.23654
 H1773 H 0.88464 0.17961 0.24375
 H1774 H 0.85232 0.21029 0.24252
 H1775 H 0.79897 0.15282 0.23801
 H1776 H 0.83100 0.12261 0.23888
 C1777 C 0.44467 0.56122 0.74007
 C1778 C 0.43079 0.58240 0.74270
 C1779 C 0.40873 0.58191 0.75545
 C1780 C 0.40148 0.56008 0.76671
 C1781 C 0.41529 0.53891 0.76400
 C1782 C 0.43678 0.53915 0.75028
 C1783 C 0.39364 0.60428 0.75632
 C1784 C 0.36943 0.60351 0.75854
 C1785 C 0.35330 0.62515 0.75785
 C1786 C 0.32843 0.62124 0.75430
 C1787 C 0.31223 0.64074 0.75382
 C1788 C 0.32047 0.66476 0.75698
 C1789 C 0.34539 0.66879 0.76051
 C1790 C 0.36166 0.64919 0.76106
 H1791 H 0.46115 0.56192 0.72935
 H1792 H 0.43693 0.59904 0.73410
 H1793 H 0.38516 0.55921 0.77762
 H1794 H 0.40913 0.52228 0.77259
 H1795 H 0.40266 0.62145 0.75312
 H1796 H 0.36057 0.58595 0.75957
 H1797 H 0.32145 0.60296 0.75184
 H1798 H 0.29318 0.63691 0.75098
 H1799 H 0.35230 0.68706 0.76319
 H1800 H 0.38057 0.65304 0.76444
 C1801 C 0.93288 0.94372 0.75179
 C1802 C 0.91045 0.93193 0.75306
 C1803 C 0.90794 0.91026 0.76630
 C1804 C 0.92794 0.90149 0.77960
 C1805 C 0.95036 0.91321 0.77826
 C1806 C 0.95321 0.93412 0.76389
 C1807 C 0.88480 0.89657 0.76490
 C1808 C 0.88446 0.87218 0.76562
 C1809 C 0.86276 0.85683 0.76155
 C1810 C 0.86673 0.83237 0.75550
 C1811 C 0.84739 0.81651 0.75228
 C1812 C 0.82333 0.82455 0.75522
 C1813 C 0.81913 0.84919 0.76093
 C1814 C 0.83871 0.86525 0.76411
 H1815 H 0.93456 0.95983 0.74057
 H1816 H 0.89529 0.93919 0.74286
 H1817 H 0.92641 0.88540 0.79085
 H1818 H 0.96555 0.90580 0.78830
 H1819 H 0.86841 0.90657 0.76073
 H1820 H 0.90150 0.86256 0.76756
 H1821 H 0.88499 0.82537 0.75336
 H1822 H 0.85145 0.79772 0.74778
 H1823 H 0.80083 0.85588 0.76353
 H1824 H 0.83495 0.88393 0.76918
 C1825 C 0.42516 0.44572 0.23961
 C1826 C 0.40392 0.43189 0.24128
 C1827 C 0.40240 0.41224 0.25751
 C1828 C 0.42210 0.40766 0.27317
 C1829 C 0.44334 0.42143 0.27145
 C1830 C 0.44530 0.44028 0.25429
 C1831 C 0.38044 0.39656 0.25711
 C1832 C 0.38111 0.37292 0.26328
 C1833 C 0.36049 0.35570 0.26071
 C1834 C 0.36573 0.33071 0.26093
 C1835 C 0.34734 0.31350 0.25854
 C1836 C 0.32300 0.32076 0.25600
 C1837 C 0.31758 0.34582 0.25604
 C1838 C 0.33613 0.36316 0.25839
 H1839 H 0.42614 0.46006 0.22614
 H1840 H 0.38896 0.43599 0.22920
 H1841 H 0.42128 0.39338 0.28668
 H1842 H 0.45835 0.41720 0.28341
 H1843 H 0.36407 0.40421 0.24945
 H1844 H 0.39821 0.36507 0.26889
 H1845 H 0.38426 0.32439 0.26283
 H1846 H 0.35230 0.29440 0.25879
 H1847 H 0.29902 0.35204 0.25438
 H1848 H 0.33121 0.38222 0.25873
   
