data_POSCAR
  _audit_creation_date              2014-09-24
  _audit_creation_method            'ToBaCCo'
  _symmetry_space_group_name_H-M    'P1'
  _symmetry_Int_Tables_number       1
  _symmetry_cell_setting            triclinic
  loop_
  _symmetry_equiv_pos_as_xyz
 x,y,z
_cell_length_a 49.9603
_cell_length_b 50.3029
_cell_length_c 50.2540
_cell_angle_alpha 89.523700
_cell_angle_beta 90.361000
_cell_angle_gamma 90.475700
loop_
  _atom_site_label
  _atom_site_type_symbol
  _atom_site_fract_x
  _atom_site_fract_y
  _atom_site_fract_z
C1 C 0.18846 0.22069 0.21314
 C2 C 0.20110 0.22959 0.18984
 C3 C 0.22341 0.21660 0.18055
 C4 C 0.23336 0.19442 0.19443
 C5 C 0.22079 0.18561 0.21731
 C6 C 0.19821 0.19883 0.22673
 C7 C 0.16650 0.22941 0.22680
 N8 N 0.16265 0.21342 0.24842
 C9 C 0.18204 0.19457 0.24841
 C10 C 0.23445 0.16373 0.22639
 N11 N 0.25510 0.15894 0.20967
 C12 C 0.25451 0.17769 0.18997
 C13 C 0.23150 0.22972 0.15781
 N14 N 0.21443 0.25012 0.15282
 C15 C 0.19595 0.25031 0.17260
 H16 H 0.15411 0.24622 0.22146
 H17 H 0.18446 0.17875 0.26286
 H18 H 0.22966 0.15194 0.24387
 H19 H 0.26806 0.17910 0.17334
 H20 H 0.24865 0.22487 0.14578
 H21 H 0.18018 0.26469 0.17478
 C22 C 0.68351 0.71812 0.71169
 C23 C 0.69606 0.72740 0.68848
 C24 C 0.71811 0.71436 0.67875
 C25 C 0.72797 0.69185 0.69207
 C26 C 0.71559 0.68270 0.71493
 C27 C 0.69321 0.69593 0.72482
 C28 C 0.66208 0.72708 0.72598
 N29 N 0.65850 0.71097 0.74756
 C30 C 0.67752 0.69176 0.74688
 C31 C 0.72964 0.66096 0.72379
 N32 N 0.75034 0.65665 0.70697
 C33 C 0.74935 0.67552 0.68741
 C34 C 0.72644 0.72805 0.65647
 N35 N 0.71007 0.74918 0.65241
 C36 C 0.69133 0.74882 0.67198
 H37 H 0.64997 0.74425 0.72120
 H38 H 0.68007 0.67584 0.76119
 H39 H 0.72528 0.64912 0.74136
 H40 H 0.76298 0.67750 0.67091
 H41 H 0.74342 0.72323 0.64418
 H42 H 0.67544 0.76299 0.67444
 C43 C 0.31326 0.77593 0.71677
 C44 C 0.29747 0.77054 0.69427
 C45 C 0.27446 0.78487 0.68951
 C46 C 0.26677 0.80468 0.70731
 C47 C 0.28230 0.80999 0.72952
 C48 C 0.30581 0.79556 0.73423
 C49 C 0.33677 0.76526 0.72616
 N50 N 0.34397 0.77800 0.74893
 C51 C 0.32499 0.79651 0.75398
 C52 C 0.27034 0.83051 0.74281
 N53 N 0.24760 0.83756 0.72945
 C54 C 0.24566 0.82203 0.70743
 C55 C 0.26320 0.77541 0.66635
 N56 N 0.27892 0.75569 0.65685
 C57 C 0.29982 0.75255 0.67400
 H58 H 0.34754 0.74934 0.71685
 H59 H 0.32525 0.80977 0.77085
 H60 H 0.27825 0.84004 0.76043
 H61 H 0.23026 0.82361 0.69226
 H62 H 0.24463 0.78217 0.65761
 H63 H 0.31553 0.73804 0.67189
 C64 C 0.81962 0.28511 0.22160
 C65 C 0.80403 0.27476 0.20080
 C66 C 0.78018 0.28670 0.19377
 C67 C 0.77147 0.30907 0.20767
 C68 C 0.78681 0.31922 0.22826
 C69 C 0.81113 0.30719 0.23524
 C70 C 0.84325 0.27708 0.23310
 N71 N 0.84969 0.29392 0.25326
 C72 C 0.82981 0.31225 0.25485
 C73 C 0.77341 0.34074 0.23814
 N74 N 0.75015 0.34379 0.22430
 C75 C 0.74899 0.32456 0.20541
 C76 C 0.76949 0.27249 0.17290
 N77 N 0.78609 0.25200 0.16732
 C78 C 0.80743 0.25349 0.18421
 H79 H 0.85468 0.25979 0.22759
 H80 H 0.82827 0.32760 0.26968
 H81 H 0.78007 0.35336 0.25428
 H82 H 0.73327 0.32202 0.19076
 H83 H 0.75101 0.27678 0.16242
 H84 H 0.82458 0.24053 0.18422
 C85 C 0.80432 0.73212 0.27474
 C86 C 0.79120 0.74059 0.29772
 C87 C 0.76964 0.72625 0.30745
 C88 C 0.76087 0.70322 0.29437
 C89 C 0.77384 0.69482 0.27179
 C90 C 0.79569 0.70943 0.26185
 C91 C 0.82593 0.74200 0.26089
 N92 N 0.83044 0.72616 0.23955
 C93 C 0.81217 0.70589 0.24036
 C94 C 0.76107 0.67201 0.26342
 N95 N 0.74049 0.66644 0.28021
 C96 C 0.74042 0.68544 0.29935
 C97 C 0.76086 0.73907 0.32977
 N98 N 0.77644 0.76098 0.33385
 C99 C 0.79518 0.76192 0.31430
 H100 H 0.83775 0.75934 0.26616
 H101 H 0.81117 0.68929 0.22684
 H102 H 0.76627 0.66028 0.24627
 H103 H 0.72685 0.68636 0.31596
 H104 H 0.74427 0.73298 0.34224
 H105 H 0.81079 0.77675 0.31212
 C106 C 0.31339 0.22509 -0.21185
 C107 C 0.29558 0.23273 -0.19190
 C108 C 0.27399 0.21661 -0.18552
 C109 C 0.26995 0.19255 -0.19893
 C110 C 0.28741 0.18508 -0.21864
 C111 C 0.30925 0.20151 -0.22520
 C112 C 0.33598 0.23688 -0.22231
 N113 N 0.34591 0.22089 -0.24162
 C114 C 0.32934 0.19935 -0.24359
 C115 C 0.27854 0.16106 -0.22832
 N116 N 0.25619 0.15347 -0.21471
 C117 C 0.25071 0.17294 -0.19691
 C118 C 0.26049 0.22866 -0.16519
 N119 N 0.27321 0.25190 -0.15919
 C120 C 0.29490 0.25430 -0.17528
 H121 H 0.34394 0.25602 -0.21649
 H122 H 0.33170 0.18328 -0.25758
 H123 H 0.28758 0.15045 -0.24453
 H124 H 0.23376 0.17290 -0.18358
 H125 H 0.24320 0.22056 -0.15504
 H126 H 0.30942 0.27037 -0.17458
 C127 C 0.69175 0.26840 -0.21565
 C128 C 0.70678 0.26460 -0.19225
 C129 C 0.72667 0.28260 -0.18546
 C130 C 0.73170 0.30478 -0.20181
 C131 C 0.71682 0.30861 -0.22474
 C132 C 0.69679 0.29025 -0.23175
 C133 C 0.67076 0.25453 -0.22695
 N134 N 0.66307 0.26728 -0.24977
 C135 C 0.67883 0.28933 -0.25254
 C136 C 0.72597 0.33165 -0.23664
 N137 N 0.74596 0.34217 -0.22131
 C138 C 0.74970 0.32553 -0.20012
 C139 C 0.73782 0.27410 -0.16183
 N140 N 0.72514 0.25133 -0.15395
 C141 C 0.70615 0.24544 -0.17255
 H142 H 0.66139 0.23699 -0.21846
 H143 H 0.67694 0.30401 -0.26832
 H144 H 0.71883 0.33953 -0.25543
 H145 H 0.76465 0.32825 -0.18466
 H146 H 0.75393 0.28405 -0.15140
 H147 H 0.69277 0.22842 -0.17170
 C148 C 0.18690 0.76727 0.27899
 C149 C 0.20406 0.76071 0.30018
 C150 C 0.22483 0.77768 0.30703
 C151 C 0.22864 0.80154 0.29288
 C152 C 0.21175 0.80802 0.27198
 C153 C 0.19074 0.79071 0.26495
 C154 C 0.16506 0.75455 0.26800
 N155 N 0.15553 0.76962 0.24745
 C156 C 0.17114 0.79185 0.24564
 C157 C 0.22040 0.83203 0.26172
 N158 N 0.24209 0.84050 0.27605
 C159 C 0.24726 0.82169 0.29501
 C160 C 0.23789 0.76649 0.32848
 N161 N 0.22580 0.74292 0.33465
 C162 C 0.20481 0.73950 0.31762
 H163 H 0.15677 0.73584 0.27488
 H164 H 0.16830 0.80775 0.23127
 H165 H 0.21172 0.84197 0.24463
 H166 H 0.26368 0.82250 0.30917
 H167 H 0.25452 0.77530 0.33924
 H168 H 0.19074 0.72303 0.31822
 C169 C 0.47839 0.43729 0.47493
 C170 C 0.48284 0.45195 0.45150
 C171 C 0.46666 0.47326 0.44521
 C172 C 0.44582 0.48025 0.46228
 C173 C 0.44136 0.46576 0.48533
 C174 C 0.45775 0.44407 0.49168
 C175 C 0.49064 0.41531 0.48576
 N176 N 0.47812 0.40865 0.50887
 C177 C 0.45775 0.42603 0.51240
 C178 C 0.41979 0.47689 0.49785
 N179 N 0.41108 0.49791 0.48301
 C180 C 0.42690 0.49991 0.46115
 C181 C 0.47564 0.48382 0.42152
 N182 N 0.49684 0.46932 0.41315
 C183 C 0.50142 0.44991 0.43157
 H184 H 0.50694 0.40457 0.47689
 H185 H 0.44369 0.42530 0.52870
 H186 H 0.41113 0.46978 0.51625
 H187 H 0.42466 0.51466 0.44548
 H188 H 0.46751 0.50113 0.41162
 H189 H 0.51731 0.43545 0.43056
 C190 C -0.02394 -0.05782 0.96897
 C191 C -0.01906 -0.04267 0.94594
 C192 C -0.03459 -0.02073 0.94019
 C193 C -0.05529 -0.01363 0.95742
 C194 C -0.06017 -0.02864 0.98005
 C195 C -0.04441 -0.05091 0.98584
 C196 C -0.01206 -0.08016 0.97951
 N197 N -0.02453 -0.08683 1.00271
 C198 C -0.04469 -0.06918 1.00635
 C199 C -0.08131 -0.01726 0.99298
 N200 N -0.08925 0.00468 0.97900
 C201 C -0.07359 0.00665 0.95695
 C202 C -0.02501 -0.00959 0.91698
 N203 N -0.00403 -0.02430 0.90843
 C204 C -0.00033 -0.04453 0.92614
 H205 H 0.00405 -0.09101 0.97042
 H206 H -0.05879 -0.06975 1.02263
 H207 H -0.09042 -0.02493 1.01096
 H208 H -0.07550 0.02173 0.94156
 H209 H -0.03268 0.00816 0.90752
 H210 H 0.01516 -0.05939 0.92480
 C211 C 1.02013 0.56471 0.96097
 C212 C 1.01545 0.54992 0.93783
 C213 C 1.03282 0.52992 0.93097
 C214 C 1.05516 0.52447 0.94704
 C215 C 1.05988 0.53910 0.96973
 C216 C 1.04219 0.55933 0.97678
 C217 C 1.00683 0.58553 0.97239
 N218 N 1.02011 0.59281 0.99501
 C219 C 1.04197 0.57696 0.99753
 C220 C 1.08279 0.52937 0.98146
 N221 N 1.09232 0.50924 0.96627
 C222 C 1.07522 0.50605 0.94531
 C223 C 1.02340 0.51885 0.90779
 N224 N 1.00072 0.53174 0.90019
 C225 C 0.99571 0.55069 0.91863
 H226 H 0.98924 0.59496 0.96415
 H227 H 1.05687 0.57842 1.01321
 H228 H 1.09122 0.53620 1.00007
 H229 H 1.07713 0.49116 0.93001
 H230 H 1.03248 0.50243 0.89760
 H231 H 0.97883 0.56404 0.91805
 C232 C 0.51823 0.06002 0.46481
 C233 C 0.51326 0.04490 0.44191
 C234 C 0.52983 0.02396 0.43583
 C235 C 0.55152 0.01776 0.45251
 C236 C 0.55643 0.03264 0.47500
 C237 C 0.53972 0.05395 0.48114
 C238 C 0.50566 0.08162 0.47568
 N239 N 0.51902 0.08876 0.49827
 C240 C 0.53994 0.07192 0.50156
 C241 C 0.57874 0.02230 0.48731
 N242 N 0.58741 0.00115 0.47303
 C243 C 0.57095 -0.00139 0.45147
 C244 C 0.52032 0.01279 0.41272
 N245 N 0.49838 0.02648 0.40442
 C246 C 0.49392 0.04608 0.42232
 H247 H 0.48838 0.09146 0.46731
 H248 H 0.55439 0.07284 0.51769
 H249 H 0.58805 0.03020 0.50507
 H250 H 0.57306 -0.01612 0.43604
 H251 H 0.52880 -0.00429 0.40312
 H252 H 0.47766 0.06016 0.42112
 C253 C -0.02350 0.06093 0.53165
 C254 C -0.01383 0.04689 0.55391
 C255 C -0.02747 0.02467 0.56312
 C256 C -0.05092 0.01611 0.55018
 C257 C -0.06037 0.02991 0.52824
 C258 C -0.04659 0.05247 0.51892
 C259 C -0.01442 0.08313 0.51820
 N260 N -0.03138 0.08838 0.49757
 C261 C -0.05119 0.06963 0.49798
 C262 C -0.08317 0.01706 0.51964
 N263 N -0.08787 -0.00428 0.53576
 C264 C -0.06816 -0.00493 0.55460
 C265 C -0.01367 0.01521 0.58493
 N266 N 0.00815 0.03099 0.58916
 C267 C 0.00806 0.05055 0.57027
 H268 H 0.00333 0.09467 0.52298
 H269 H -0.06786 0.06829 0.48427
 H270 H -0.09549 0.02272 0.50275
 H271 H -0.06618 -0.01947 0.57040
 H272 H -0.01912 -0.00190 0.59700
 H273 H 0.02245 0.06661 0.56855
 C274 C 0.47313 0.56646 0.03819
 C275 C 0.47902 0.54964 0.05981
 C276 C 0.46328 0.52743 0.06467
 C277 C 0.44145 0.52167 0.04795
 C278 C 0.43568 0.53821 0.02665
 C279 C 0.45163 0.56076 0.02175
 C280 C 0.48489 0.58948 0.02876
 N281 N 0.47091 0.59810 0.00699
 C282 C 0.45063 0.58038 0.00258
 C283 C 0.41335 0.52803 0.01412
 N284 N 0.40526 0.50568 0.02737
 C285 C 0.42251 0.50167 0.04803
 C286 C 0.47338 0.51504 0.08701
 N287 N 0.49489 0.52923 0.09598
 C288 C 0.49846 0.55036 0.07928
 H289 H 0.50259 0.59871 0.03714
 H290 H 0.43621 0.58168 -0.01355
 H291 H 0.40395 0.53653 -0.00335
 H292 H 0.42117 0.48540 0.06222
 H293 H 0.46546 0.49697 0.09578
 H294 H 0.51407 0.56528 0.08134
 C295 C 0.52932 -0.06319 0.02968
 C296 C 0.51962 -0.05074 0.05249
 C297 C 0.53230 -0.02828 0.06214
 C298 C 0.55487 -0.01791 0.04910
 C299 C 0.56446 -0.03022 0.02664
 C300 C 0.55158 -0.05304 0.01684
 C301 C 0.52093 -0.08519 0.01583
 N302 N 0.53749 -0.08874 -0.00519
 C303 C 0.55639 -0.06908 -0.00463
 C304 C 0.58646 -0.01592 0.01828
 N305 N 0.59046 0.00489 0.03499
 C306 C 0.57119 0.00368 0.05402
 C307 C 0.51846 -0.02047 0.08428
 N308 N 0.49764 -0.03759 0.08833
 C309 C 0.49831 -0.05624 0.06887
 H310 H 0.50394 -0.09780 0.02062
 H311 H 0.57256 -0.06641 -0.01858
 H312 H 0.59879 -0.02030 0.00126
 H313 H 0.56912 0.01713 0.07050
 H314 H 0.52309 -0.00345 0.09660
 H315 H 0.48452 -0.07270 0.06651
 C316 C 1.03739 0.43071 0.53510
 C317 C 1.02625 0.44532 0.55583
 C318 C 1.03763 0.46929 0.56322
 C319 C 1.06022 0.47911 0.54979
 C320 C 1.07114 0.46472 0.52928
 C321 C 1.05970 0.44029 0.52193
 C322 C 1.03001 0.40726 0.52321
 N323 N 1.04745 0.40211 0.50329
 C324 C 1.06558 0.42243 0.50226
 C325 C 1.09263 0.47906 0.51979
 N326 N 1.09503 0.50201 0.53382
 C327 C 1.07528 0.50197 0.55244
 C328 C 1.02257 0.47900 0.58374
 N329 N 1.00219 0.46163 0.58886
 C330 C 1.00448 0.44086 0.57187
 H331 H 1.01279 0.39506 0.52825
 H332 H 1.08133 0.42475 0.48774
 H333 H 1.10571 0.47320 0.50380
 H334 H 1.07204 0.51704 0.56725
 H335 H 1.02609 0.49743 0.59423
 H336 H 0.99166 0.42348 0.57123
 C337 C 0.41402 0.00355 0.20985
 H338 H 0.41683 0.02153 0.22124
 C339 C 0.43071 -0.00162 0.18838
 H340 H 0.44642 0.01249 0.18343
 C341 C 0.39044 -0.03682 0.20293
 H342 H 0.37506 -0.05077 0.20898
 C343 C 0.40669 -0.04282 0.18131
 H344 H 0.40335 -0.06155 0.17152
 N345 N 0.39399 -0.01369 0.21634
 C346 C 0.33412 0.03481 0.25513
 H347 H 0.33148 0.02391 0.27359
 C348 C 0.31894 0.05746 0.24994
 H349 H 0.30451 0.06377 0.26452
 C350 C 0.35530 0.03901 0.21329
 H351 H 0.36893 0.03135 0.19870
 C352 C 0.34054 0.06175 0.20728
 H353 H 0.34311 0.07078 0.18790
 Zn354 Zn 0.37183 -0.00477 0.24529
 N355 N 0.35222 0.02632 0.23708
 C356 C 0.39470 0.02440 0.28823
 N357 N 0.39450 0.00088 0.27510
 C358 C 0.41143 -0.01900 0.28218
 C359 C 0.42951 -0.01566 0.30320
 C360 C 0.41244 0.02858 0.30940
 C361 C 0.32806 -0.03741 0.23300
 C362 C 0.30905 -0.05759 0.23656
 C363 C 0.32860 -0.06702 0.27963
 C364 C 0.34723 -0.04662 0.27524
 N365 N 0.34677 -0.03244 0.25210
 H366 H 0.38128 0.04009 0.28224
 H367 H 0.41084 -0.03754 0.27141
 H368 H 0.44204 -0.03222 0.30879
 H369 H 0.41185 0.04729 0.31985
 H370 H 0.32822 -0.02587 0.21473
 H371 H 0.29523 -0.06170 0.22046
 H372 H 0.32992 -0.07858 0.29784
 H373 H 0.36213 -0.04231 0.29028
 C374 C 0.32241 0.07173 0.22598
 C375 C 0.42687 -0.02479 0.17328
 C376 C 0.30871 -0.07248 0.26041
 C377 C 0.43082 0.00873 0.31672
 C378 C 0.08871 -0.01281 0.71418
 H379 H 0.08540 -0.03047 0.72618
 C380 C 0.07322 -0.00838 0.69138
 H381 H 0.05787 -0.02273 0.68608
 C382 C 0.11176 0.02797 0.70750
 H383 H 0.12622 0.04252 0.71428
 C384 C 0.09671 0.03322 0.68458
 H385 H 0.09985 0.05202 0.67452
 N386 N 0.10783 0.00508 0.72156
 C387 C 0.16532 -0.03839 0.77064
 H388 H 0.16601 -0.02563 0.78786
 C389 C 0.18213 -0.06037 0.76938
 H390 H 0.19579 -0.06373 0.78574
 C391 C 0.14764 -0.04766 0.72788
 H392 H 0.13466 -0.04230 0.71146
 C393 C 0.16407 -0.06985 0.72578
 H394 H 0.16343 -0.08141 0.70770
 Zn395 Zn 0.12743 -0.00157 0.75328
 N396 N 0.14832 -0.03263 0.75022
 C397 C 0.10180 -0.02755 0.79682
 N398 N 0.10245 -0.00532 0.78127
 C399 C 0.08475 0.01469 0.78486
 C400 C 0.06565 0.01302 0.80499
 C401 C 0.08308 -0.03003 0.81721
 C402 C 0.17169 0.03075 0.74248
 C403 C 0.19046 0.05107 0.74636
 C404 C 0.16745 0.06296 0.78659
 C405 C 0.14911 0.04239 0.78194
 N406 N 0.15147 0.02687 0.76008
 H407 H 0.11578 -0.04341 0.79350
 H408 H 0.08568 0.03213 0.77214
 H409 H 0.05264 0.02977 0.80769
 H410 H 0.08324 -0.04769 0.82968
 H411 H 0.17303 0.01815 0.72521
 H412 H 0.20563 0.05421 0.73140
 H413 H 0.16473 0.07550 0.80375
 H414 H 0.13302 0.03892 0.79581
 C415 C 0.18144 -0.07682 0.74683
 C416 C 0.07744 0.01463 0.67579
 C417 C 0.18896 0.06719 0.76906
 C418 C 0.06432 -0.00979 0.82140
 C419 C 0.58227 0.48497 0.21920
 H420 H 0.58256 0.46700 0.23118
 C421 C 0.56394 0.48740 0.19828
 H422 H 0.55097 0.47066 0.19419
 C423 C 0.60000 0.52783 0.21006
 H424 H 0.61384 0.54369 0.21489
 C425 C 0.58199 0.53113 0.18894
 H426 H 0.58260 0.54939 0.17739
 N427 N 0.59984 0.50497 0.22466
 C428 C 0.66320 0.46399 0.26850
 H429 H 0.66391 0.47534 0.28668
 C430 C 0.68028 0.44241 0.26526
 H431 H 0.69437 0.43774 0.28100
 C432 C 0.64506 0.45773 0.22536
 H433 H 0.63184 0.46417 0.20954
 C434 C 0.66183 0.43613 0.22125
 H435 H 0.66136 0.42648 0.20209
 Zn436 Zn 0.62256 0.49995 0.25452
 N437 N 0.64558 0.47080 0.24893
 C438 C 0.60097 0.47094 0.29880
 N439 N 0.59973 0.49354 0.28384
 C440 C 0.58113 0.51242 0.28869
 C441 C 0.56292 0.50913 0.30940
 C442 C 0.58309 0.46681 0.31974
 C443 C 0.66150 0.53855 0.24152
 C444 C 0.67714 0.56142 0.24503
 C445 C 0.65754 0.56671 0.28841
 C446 C 0.64225 0.54379 0.28404
 N447 N 0.64397 0.53059 0.26063
 H448 H 0.61570 0.45601 0.29451
 H449 H 0.58062 0.53023 0.27648
 H450 H 0.54916 0.52507 0.31323
 H451 H 0.58479 0.44893 0.33174
 H452 H 0.66313 0.52721 0.22341
 H453 H 0.69099 0.56736 0.22956
 H454 H 0.65607 0.57623 0.30752
 H455 H 0.62918 0.53649 0.29954
 C456 C 0.67912 0.42747 0.24171
 C457 C 0.56313 0.51102 0.18308
 C458 C 0.67466 0.57646 0.26837
 C459 C 0.56322 0.48573 0.32495
 C460 C 0.91485 0.50678 0.70656
 H461 H 0.91701 0.52514 0.71747
 C462 C 0.93185 0.50154 0.68536
 H463 H 0.94719 0.51597 0.68015
 C464 C 0.89282 0.46536 0.70086
 H465 H 0.87804 0.45100 0.70740
 C466 C 0.90943 0.45927 0.67955
 H467 H 0.90706 0.44003 0.67049
 N468 N 0.89547 0.48900 0.71355
 C469 C 0.83456 0.53601 0.75260
 H470 H 0.83260 0.52519 0.77119
 C471 C 0.81847 0.55801 0.74743
 H472 H 0.80402 0.56392 0.76217
 C473 C 0.85496 0.54055 0.71040
 H474 H 0.86864 0.53323 0.69568
 C475 C 0.83925 0.56265 0.70439
 H476 H 0.84117 0.57154 0.68488
 Zn477 Zn 0.87330 0.49762 0.74255
 N478 N 0.85269 0.52801 0.73435
 C479 C 0.89591 0.52778 0.78490
 N480 N 0.89606 0.50411 0.77206
 C481 C 0.91341 0.48463 0.77920
 C482 C 0.93161 0.48855 0.80001
 C483 C 0.91377 0.53256 0.80583
 C484 C 0.83051 0.46370 0.73087
 C485 C 0.81186 0.44328 0.73487
 C486 C 0.83154 0.43516 0.77815
 C487 C 0.84981 0.45576 0.77331
 N488 N 0.84909 0.46943 0.74988
 H489 H 0.88212 0.54313 0.77885
 H490 H 0.91307 0.46595 0.76867
 H491 H 0.94453 0.47232 0.80572
 H492 H 0.91284 0.55134 0.81610
 H493 H 0.83044 0.47487 0.71238
 H494 H 0.79815 0.43864 0.71884
 H495 H 0.83290 0.42411 0.79668
 H496 H 0.86457 0.46073 0.78829
 C497 C 0.82103 0.57213 0.72328
 C498 C 0.92894 0.47778 0.67102
 C499 C 0.81178 0.42893 0.75905
 C500 C 0.93260 0.51314 0.81319
 C501 C 0.21367 0.42243 0.00984
 H502 H 0.22665 0.42275 0.02716
 C503 C 0.19359 0.44137 0.00700
 H504 H 0.19113 0.45551 0.02280
 C505 C 0.20108 0.40246 -0.03090
 H506 H 0.20419 0.38740 -0.04573
 C507 C 0.18073 0.42102 -0.03456
 H508 H 0.16804 0.41970 -0.05205
 N509 N 0.21697 0.40343 -0.00888
 C510 C 0.25686 0.33857 0.03314
 H511 H 0.27481 0.33656 0.02141
 C512 C 0.25196 0.32113 0.05435
 H513 H 0.26647 0.30588 0.05904
 C514 C 0.21615 0.36080 0.04105
 H515 H 0.20201 0.37606 0.03564
 C516 C 0.21048 0.34386 0.06244
 H517 H 0.19241 0.34736 0.07343
 Zn518 Zn 0.24555 0.37953 -0.00343
 N519 N 0.23901 0.35791 0.02688
 C520 C 0.29179 0.39953 0.02367
 N521 N 0.27663 0.40069 0.00115
 C522 C 0.28208 0.41861 -0.01848
 C523 C 0.30333 0.43657 -0.01583
 C524 C 0.31325 0.41717 0.02717
 C525 C 0.22895 0.33913 -0.03778
 C526 C 0.23065 0.32124 -0.05880
 C527 C 0.27422 0.33950 -0.06915
 C528 C 0.27170 0.35698 -0.04790
 N529 N 0.24915 0.35671 -0.03292
 H530 H 0.28698 0.38531 0.03918
 H531 H 0.26965 0.41910 -0.03618
 H532 H 0.30730 0.44997 -0.03223
 H533 H 0.32512 0.41594 0.04524
 H534 H 0.21152 0.33889 -0.02510
 H535 H 0.21436 0.30733 -0.06151
 H536 H 0.29242 0.33993 -0.08076
 H537 H 0.28793 0.37051 -0.04327
 C538 C 0.22821 0.32318 0.06909
 C539 C 0.17700 0.44123 -0.01575
 C540 C 0.25344 0.32143 -0.07516
 C541 C 0.31886 0.43664 0.00764
 C542 C 0.71469 0.08949 -0.00434
 H543 H 0.72645 0.08772 -0.02223
 C544 C 0.69219 0.07328 -0.00060
 H545 H 0.68689 0.05892 -0.01572
 C546 C 0.70826 0.10946 0.03759
 H547 H 0.71502 0.12301 0.05281
 C548 C 0.68564 0.09364 0.04216
 H549 H 0.67580 0.09528 0.06112
 N550 N 0.72198 0.10749 0.01442
 C551 C 0.76794 0.16885 -0.02734
 H552 H 0.78602 0.16899 -0.01537
 C553 C 0.76529 0.18663 -0.04866
 H554 H 0.78197 0.19966 -0.05314
 C555 C 0.72508 0.15047 -0.03623
 H556 H 0.70934 0.13650 -0.03125
 C557 C 0.72161 0.16784 -0.05776
 H558 H 0.70338 0.16653 -0.06945
 Zn559 Zn 0.75300 0.12851 0.00826
 N560 N 0.74803 0.15120 -0.02158
 C561 C 0.79695 0.10636 -0.01969
 N562 N 0.78180 0.10502 0.00266
 C563 C 0.78642 0.08631 0.02175
 C564 C 0.80772 0.06871 0.01939
 C565 C 0.81849 0.08917 -0.02286
 C566 C 0.74227 0.16928 0.04436
 C567 C 0.74665 0.18564 0.06630
 C568 C 0.78878 0.16368 0.07402
 C569 C 0.78357 0.14772 0.05198
 N570 N 0.76035 0.15035 0.03800
 H571 H 0.79245 0.12077 -0.03509
 H572 H 0.77356 0.08518 0.03897
 H573 H 0.81032 0.05388 0.03480
 H574 H 0.83035 0.09058 -0.04078
 H575 H 0.72433 0.17153 0.03241
 H576 H 0.73203 0.20065 0.07092
 H577 H 0.80777 0.16146 0.08416
 H578 H 0.79828 0.13341 0.04594
 C579 C 0.74156 0.18677 -0.06394
 C580 C 0.67680 0.07563 0.02261
 C581 C 0.76978 0.18245 0.08209
 C582 C 0.82471 0.07045 -0.00282
 C583 C 0.21676 0.58587 0.49017
 H584 H 0.22943 0.58284 0.47310
 C585 C 0.19451 0.56940 0.49433
 H586 H 0.19040 0.55355 0.48041
 C587 C 0.20789 0.60919 0.52982
 H588 H 0.21363 0.62415 0.54410
 C589 C 0.18548 0.59319 0.53476
 H590 H 0.17471 0.59609 0.55306
 N591 N 0.22275 0.60559 0.50759
 C592 C 0.26996 0.66408 0.46325
 H593 H 0.28711 0.66589 0.47638
 C594 C 0.26811 0.68018 0.44056
 H595 H 0.28394 0.69446 0.43702
 C596 C 0.22783 0.64435 0.45378
 H597 H 0.21184 0.63088 0.45933
 C598 C 0.22516 0.66004 0.43089
 H599 H 0.20707 0.65835 0.41902
 Zn600 Zn 0.25371 0.62661 0.50127
 N601 N 0.25013 0.64642 0.46927
 C602 C 0.29909 0.60264 0.47770
 N603 N 0.28315 0.60325 0.49948
 C604 C 0.28701 0.58622 0.52026
 C605 C 0.30785 0.56790 0.51989
 C606 C 0.32021 0.58471 0.47651
 C607 C 0.23964 0.67039 0.53160
 C608 C 0.24168 0.68926 0.55172
 C609 C 0.28310 0.66904 0.56590
 C610 C 0.28023 0.65053 0.54552
 N611 N 0.25857 0.65137 0.52904
 H612 H 0.29537 0.61587 0.46108
 H613 H 0.27371 0.58683 0.53715
 H614 H 0.30997 0.55480 0.53682
 H615 H 0.33271 0.58455 0.45898
 H616 H 0.22265 0.67061 0.51814
 H617 H 0.22566 0.70333 0.55355
 H618 H 0.30025 0.66775 0.57913
 H619 H 0.29527 0.63548 0.54297
 C620 C 0.24561 0.67806 0.42366
 C621 C 0.17800 0.57335 0.51652
 C622 C 0.26382 0.68898 0.56920
 C623 C 0.32499 0.56694 0.49777
 C624 C 0.71484 0.92042 0.51200
 H625 H 0.72769 0.92018 0.52941
 C626 C 0.69361 0.93822 0.51046
 H627 H 0.69109 0.95174 0.52675
 C628 C 0.70394 0.90320 0.46957
 H629 H 0.70815 0.88969 0.45358
 C630 C 0.68241 0.92062 0.46722
 H631 H 0.67020 0.92025 0.44935
 N632 N 0.71921 0.90296 0.49205
 C633 C 0.75558 0.83504 0.53203
 H634 H 0.77410 0.83314 0.52119
 C635 C 0.74994 0.81777 0.55321
 H636 H 0.76421 0.80248 0.55843
 C637 C 0.71430 0.85689 0.53791
 H638 H 0.70015 0.87178 0.53154
 C639 C 0.70782 0.84004 0.55913
 H640 H 0.68849 0.84231 0.56822
 Zn641 Zn 0.74731 0.87846 0.49740
 N642 N 0.73815 0.85459 0.52529
 C643 C 0.79126 0.89423 0.53011
 N644 N 0.77836 0.89832 0.50655
 C645 C 0.78663 0.91757 0.48928
 C646 C 0.80930 0.93293 0.49499
 C647 C 0.81404 0.90914 0.53663
 C648 C 0.73353 0.84174 0.45772
 C649 C 0.73715 0.82633 0.43505
 C650 C 0.78188 0.84435 0.43119
 C651 C 0.77740 0.85941 0.45391
 N652 N 0.75334 0.85827 0.46637
 H653 H 0.78377 0.87963 0.54412
 H654 H 0.77558 0.92092 0.47099
 H655 H 0.81550 0.94820 0.48096
 H656 H 0.82326 0.90563 0.55578
 H657 H 0.71491 0.84047 0.46854
 H658 H 0.72123 0.81301 0.42883
 H659 H 0.80150 0.84517 0.42227
 H660 H 0.79336 0.87170 0.46175
 C661 C 0.72614 0.82061 0.56772
 C662 C 0.67645 0.93804 0.48812
 C663 C 0.76131 0.82809 0.42085
 C664 C 0.82381 0.92850 0.51868
 C665 C 0.01583 0.21033 0.41480
 H666 H 0.03497 0.22040 0.41646
 C667 C 0.01020 0.18833 0.43097
 H668 H 0.02514 0.18170 0.44519
 C669 C -0.02714 0.20747 0.39486
 H670 H -0.04188 0.21537 0.38120
 C671 C -0.03361 0.18538 0.41064
 H672 H -0.05353 0.17712 0.40887
 N673 N -0.00256 0.21911 0.39681
 C674 C 0.04317 0.25883 0.33428
 H675 H 0.03304 0.27773 0.33324
 C676 C 0.06455 0.25381 0.31734
 H677 H 0.07053 0.26894 0.30308
 C678 C 0.04684 0.21588 0.35349
 H679 H 0.03950 0.20089 0.36716
 C680 C 0.06831 0.21003 0.33694
 H681 H 0.07663 0.19031 0.33805
 Zn682 Zn 0.00685 0.24887 0.37544
 N683 N 0.03521 0.24020 0.35236
 C684 C 0.04195 0.28845 0.39622
 N685 N 0.01754 0.27654 0.39856
 C686 C 0.00021 0.28379 0.41786
 C687 C 0.00686 0.30431 0.43524
 C688 C 0.04941 0.30913 0.41315
 C689 C -0.03146 0.24288 0.33497
 C690 C -0.05280 0.25005 0.31844
 C691 C -0.05512 0.29204 0.34118
 C692 C -0.03369 0.28406 0.35726
 N693 N -0.02251 0.25975 0.35409
 H694 H 0.05571 0.28208 0.38113
 H695 H -0.01895 0.27376 0.41951
 H696 H -0.00743 0.31009 0.45020
 H697 H 0.06870 0.31835 0.41007
 H698 H -0.02201 0.22378 0.33264
 H699 H -0.05979 0.23620 0.30349
 H700 H -0.06361 0.31128 0.34481
 H701 H -0.02602 0.29742 0.37223
 C702 C 0.07815 0.22947 0.31913
 C703 C -0.01454 0.17497 0.42859
 C704 C -0.06499 0.27499 0.32124
 C705 C 0.03174 0.31746 0.43309
 C706 C -0.02039 0.71622 0.07830
 H707 H -0.03667 0.73019 0.07668
 C708 C -0.01872 0.69524 0.06038
 H709 H -0.03373 0.69392 0.04492
 C710 C 0.01958 0.70267 0.09981
 H711 H 0.03475 0.70591 0.11486
 C712 C 0.02202 0.68141 0.08233
 H713 H 0.03915 0.66845 0.08421
 N714 N -0.00165 0.71930 0.09777
 C715 C -0.04235 0.76238 0.16049
 H716 H -0.02894 0.77917 0.16312
 C717 C -0.06513 0.75981 0.17630
 H718 H -0.06885 0.77462 0.19130
 C719 C -0.05270 0.72200 0.13875
 H720 H -0.04742 0.70688 0.12463
 C721 C -0.07566 0.71862 0.15413
 H722 H -0.08736 0.70063 0.15170
 Zn723 Zn -0.00564 0.74845 0.12097
 N724 N -0.03687 0.74389 0.14177
 C725 C -0.02949 0.79583 0.10077
 N726 N -0.00808 0.77942 0.09943
 C727 C 0.01186 0.78397 0.08167
 C728 C 0.01120 0.80618 0.06483
 C729 C -0.03095 0.81830 0.08435
 C730 C 0.02763 0.73115 0.16261
 C731 C 0.04904 0.73206 0.18061
 C732 C 0.06219 0.77436 0.16160
 C733 C 0.04053 0.77265 0.14401
 N734 N 0.02399 0.75106 0.14455
 H735 H -0.04559 0.79148 0.11439
 H736 H 0.02831 0.77018 0.08052
 H737 H 0.02721 0.80866 0.05072
 H738 H -0.04822 0.83109 0.08566
 H739 H 0.01379 0.71449 0.16302
 H740 H 0.05087 0.71594 0.19475
 H741 H 0.07514 0.79172 0.16082
 H742 H 0.03693 0.78867 0.13005
 C743 C -0.08273 0.73812 0.17269
 C744 C 0.00244 0.67701 0.06255
 C745 C 0.06704 0.75376 0.18008
 C746 C -0.01025 0.82410 0.06629
 C747 C 0.48166 0.21148 0.58744
 H748 H 0.46535 0.22550 0.58736
 C749 C 0.48199 0.19099 0.56884
 H750 H 0.46558 0.18979 0.55489
 C751 C 0.52292 0.19728 0.60580
 H752 H 0.53910 0.20006 0.61987
 C753 C 0.52403 0.17647 0.58765
 H754 H 0.54103 0.16326 0.58819
 N755 N 0.50187 0.21420 0.60546
 C756 C 0.46933 0.25963 0.67114
 H757 H 0.48352 0.27599 0.67157
 C758 C 0.44895 0.25816 0.68997
 H759 H 0.44766 0.27403 0.70417
 C760 C 0.45423 0.21971 0.65122
 H761 H 0.45653 0.20460 0.63628
 C762 C 0.43356 0.21743 0.66969
 H763 H 0.41987 0.20066 0.66849
 Zn764 Zn 0.50075 0.24368 0.62860
 N765 N 0.47156 0.24065 0.65223
 C766 C 0.47683 0.29161 0.60990
 N767 N 0.49755 0.27455 0.60705
 C768 C 0.51618 0.27841 0.58780
 C769 C 0.51494 0.30058 0.57096
 C770 C 0.47482 0.31406 0.59352
 C771 C 0.53647 0.22593 0.66795
 C772 C 0.55854 0.22702 0.68513
 C773 C 0.57124 0.26888 0.66484
 C774 C 0.54893 0.26700 0.64811
 N775 N 0.53219 0.24563 0.64977
 H776 H 0.46168 0.28777 0.62471
 H777 H 0.53202 0.26408 0.58547
 H778 H 0.52979 0.30247 0.55556
 H779 H 0.45807 0.32732 0.59600
 H780 H 0.52241 0.20950 0.66934
 H781 H 0.56072 0.21129 0.69967
 H782 H 0.58413 0.28624 0.66341
 H783 H 0.54480 0.28290 0.63416
 C784 C 0.43082 0.23657 0.68975
 C785 C 0.50349 0.17305 0.56864
 C786 C 0.57656 0.24866 0.68362
 C787 C 0.49431 0.31921 0.57400
 C788 C 0.51668 0.71792 0.91902
 H789 H 0.53497 0.72958 0.91871
 C790 C 0.51317 0.69810 0.93831
 H791 H 0.52938 0.69444 0.95213
 C792 C 0.47429 0.70810 0.90004
 H793 H 0.45914 0.71210 0.88515
 C794 C 0.46995 0.68805 0.91895
 H795 H 0.45163 0.67645 0.91796
 N796 N 0.49747 0.72243 0.90031
 C797 C 0.54021 0.75788 0.83339
 H798 H 0.52902 0.77601 0.83053
 C799 C 0.56150 0.75214 0.81660
 H800 H 0.56651 0.76598 0.80074
 C801 C 0.54653 0.71746 0.85696
 H802 H 0.54020 0.70365 0.87227
 C803 C 0.56794 0.71090 0.84061
 H804 H 0.57730 0.69189 0.84377
 Zn805 Zn 0.50420 0.74985 0.87518
 N806 N 0.53346 0.74084 0.85340
 C807 C 0.53563 0.79427 0.89166
 N808 N 0.51196 0.78108 0.89459
 C809 C 0.49365 0.78895 0.91271
 C810 C 0.49850 0.81134 0.92825
 C811 C 0.54130 0.81683 0.90679
 C812 C 0.46735 0.73495 0.83586
 C813 C 0.44619 0.73795 0.81785
 C814 C 0.43948 0.78226 0.83447
 C815 C 0.46080 0.77842 0.85215
 N816 N 0.47425 0.75504 0.85253
 H817 H 0.55041 0.78712 0.87794
 H818 H 0.47530 0.77765 0.91518
 H819 H 0.48375 0.81706 0.94278
 H820 H 0.56062 0.82624 0.90438
 H821 H 0.47836 0.71653 0.83661
 H822 H 0.44072 0.72124 0.80551
 H823 H 0.42875 0.80084 0.83497
 H824 H 0.46664 0.79425 0.86541
 C825 C 0.57618 0.72863 0.82037
 C826 C 0.48928 0.68307 0.93884
 C827 C 0.43235 0.76219 0.81634
 C828 C 0.52238 0.82604 0.92513
 C829 C 0.14098 0.21677 0.26780
 C830 C 0.11310 0.21425 0.25506
 C831 C 0.09268 0.21824 0.27230
 C832 C 0.10177 0.22433 0.30090
 C833 C 0.12031 0.20107 0.30874
 C834 C 0.14068 0.19702 0.29141
 C835 C 0.14154 0.24427 0.28081
 C836 C 0.12118 0.24820 0.29817
 H837 H 0.10975 0.20954 0.23426
 H838 H 0.07184 0.21695 0.26619
 H839 H 0.11923 0.19003 0.32731
 H840 H 0.15587 0.18231 0.29555
 H841 H 0.15710 0.25905 0.27728
 H842 H 0.11959 0.26634 0.30957
 C843 C 0.63745 0.71461 0.76755
 C844 C 0.63762 0.69498 0.79125
 C845 C 0.61777 0.69929 0.80912
 C846 C 0.59928 0.72274 0.80170
 C847 C 0.61880 0.74640 0.79828
 C848 C 0.63864 0.74218 0.78041
 C849 C 0.60923 0.71229 0.75559
 C850 C 0.58935 0.71654 0.77337
 H851 H 0.65273 0.68008 0.79497
 H852 H 0.61710 0.68816 0.82764
 H853 H 0.61752 0.76470 0.80948
 H854 H 0.65416 0.75685 0.77629
 H855 H 0.60525 0.70746 0.73493
 H856 H 0.56834 0.71533 0.76784
 C857 C 0.36772 0.77328 0.76578
 C858 C 0.38495 0.79839 0.76954
 C859 C 0.40658 0.79472 0.78574
 C860 C 0.40902 0.76622 0.79707
 C861 C 0.38192 0.76042 0.81030
 C862 C 0.36040 0.76406 0.79400
 C863 C 0.38747 0.75230 0.75568
 C864 C 0.40906 0.74876 0.77194
 H865 H 0.38104 0.81716 0.75949
 H866 H 0.42121 0.81041 0.78912
 H867 H 0.37987 0.75383 0.83082
 H868 H 0.34000 0.76057 0.80053
 H869 H 0.38605 0.74233 0.73672
 H870 H 0.42554 0.73624 0.76609
 C871 C -0.12869 0.29051 0.27066
 C872 C -0.13333 0.26747 0.29030
 C873 C -0.11242 0.26311 0.30715
 C874 C -0.08844 0.28206 0.30299
 C875 C -0.08145 0.27958 0.27331
 C876 C -0.10238 0.28402 0.25643
 C877 C -0.12145 0.31463 0.28812
 C878 C -0.10049 0.31021 0.30502
 H879 H -0.15167 0.25578 0.29107
 H880 H -0.11298 0.24767 0.32236
 H881 H -0.06147 0.27547 0.26614
 H882 H -0.10016 0.28374 0.23497
 H883 H -0.13032 0.33414 0.28616
 H884 H -0.09243 0.32626 0.31690
 C885 C -0.14827 0.72912 0.22188
 C886 C -0.12175 0.71948 0.23388
 C887 C -0.10048 0.72249 0.21736
 C888 C -0.10739 0.73489 0.19016
 C889 C -0.13011 0.71722 0.17883
 C890 C -0.15142 0.71415 0.19536
 C891 C -0.14298 0.75813 0.21321
 C892 C -0.12167 0.76112 0.19665
 H893 H -0.11990 0.71091 0.25370
 H894 H -0.08042 0.71649 0.22310
 H895 H -0.13083 0.70991 0.15860
 H896 H -0.16961 0.70424 0.18879
 H897 H -0.15562 0.77468 0.21854
 H898 H -0.11644 0.78024 0.18788
 C899 C 0.36792 0.22571 0.74198
 C900 C 0.38664 0.24877 0.75031
 C901 C 0.40763 0.25277 0.73353
 C902 C 0.40818 0.23340 0.70980
 C903 C 0.40760 0.20572 0.72317
 C904 C 0.38664 0.20169 0.73994
 C905 C 0.35957 0.23224 0.71325
 C906 C 0.38052 0.23626 0.69653
 H907 H 0.38535 0.25957 0.76881
 H908 H 0.42333 0.26682 0.73859
 H909 H 0.42286 0.19080 0.72028
 H910 H 0.38409 0.18339 0.75127
 H911 H 0.33890 0.23383 0.70670
 H912 H 0.37768 0.24130 0.67566
 C913 C 0.64135 0.26115 0.73371
 C914 C 0.61789 0.28012 0.73772
 C915 C 0.59663 0.27530 0.72143
 C916 C 0.60047 0.25191 0.70235
 C917 C 0.62672 0.25830 0.68759
 C918 C 0.64803 0.26310 0.70390
 C919 C 0.62924 0.23300 0.73703
 C920 C 0.60790 0.22819 0.72066
 H921 H 0.61792 0.29587 0.75236
 H922 H 0.57847 0.28697 0.72223
 H923 H 0.62857 0.25821 0.66608
 H924 H 0.66796 0.26709 0.69626
 H925 H 0.63780 0.21730 0.74918
 H926 H 0.59918 0.20846 0.71950
 C927 C 0.13222 0.76409 0.23022
 C928 C 0.13893 0.76564 0.20047
 C929 C 0.11745 0.76155 0.18418
 C930 C 0.09096 0.75630 0.19896
 C931 C 0.09739 0.73248 0.21751
 C932 C 0.11889 0.73657 0.23383
 C933 C 0.10961 0.78407 0.23412
 C934 C 0.08812 0.78000 0.21788
 H935 H 0.15897 0.76909 0.19289
 H936 H 0.11925 0.76147 0.16266
 H937 H 0.08748 0.71329 0.21707
 H938 H 0.12629 0.72086 0.24669
 H939 H 0.11036 0.79990 0.24866
 H940 H 0.07046 0.79241 0.21861
 C941 C 0.27373 0.13662 0.21294
 C942 C 0.25950 0.10956 0.21109
 C943 C 0.27594 0.08850 0.21505
 C944 C 0.30531 0.09614 0.22049
 C945 C 0.31328 0.11421 0.19673
 C946 C 0.29672 0.13529 0.19272
 C947 C 0.28780 0.13651 0.24020
 C948 C 0.30434 0.11546 0.24412
 H949 H 0.23830 0.10722 0.20679
 H950 H 0.26873 0.06810 0.21413
 H951 H 0.33143 0.11232 0.18527
 H952 H 0.30106 0.15027 0.17774
 H953 H 0.28549 0.15205 0.25484
 H954 H 0.31623 0.11318 0.26213
 C955 C 0.76977 0.63502 0.71026
 C956 C 0.78411 0.63567 0.73736
 C957 C 0.80148 0.61530 0.74128
 C958 C 0.80293 0.59582 0.71781
 C959 C 0.77380 0.58705 0.71277
 C960 C 0.75653 0.60746 0.70881
 C961 C 0.79259 0.63432 0.68980
 C962 C 0.80997 0.61393 0.69381
 H963 H 0.78137 0.65124 0.75189
 H964 H 0.81365 0.61363 0.75918
 H965 H 0.76735 0.56640 0.71212
 H966 H 0.73538 0.60430 0.70478
 H967 H 0.79623 0.64926 0.67459
 H968 H 0.82806 0.61262 0.68217
 C969 C 0.76161 0.36467 0.77326
 C970 C 0.78994 0.35747 0.76440
 C971 C 0.80600 0.37889 0.75962
 C972 C 0.79250 0.40581 0.76403
 C973 C 0.76692 0.40496 0.74661
 C974 C 0.75081 0.38349 0.75135
 C975 C 0.76553 0.38284 0.79750
 C976 C 0.78161 0.40431 0.79267
 H977 H 0.79672 0.33720 0.76197
 H978 H 0.82655 0.37687 0.75310
 H979 H 0.76029 0.42104 0.73376
 H980 H 0.73114 0.38199 0.74226
 H981 H 0.75569 0.37968 0.81647
 H982 H 0.78525 0.41943 0.80757
 C983 C 0.25789 -0.13686 0.27167
 C984 C 0.26314 -0.12080 0.29713
 C985 C 0.27943 -0.09926 0.29340
 C986 C 0.28923 -0.09562 0.26453
 C987 C 0.30199 -0.12229 0.25740
 C988 C 0.28570 -0.14375 0.26108
 C989 C 0.24664 -0.11618 0.25176
 C990 C 0.26299 -0.09466 0.24814
 H991 H 0.25397 -0.12532 0.31617
 H992 H 0.28381 -0.08541 0.30931
 H993 H 0.32222 -0.12409 0.24989
 H994 H 0.29197 -0.16384 0.25669
 H995 H 0.22672 -0.11670 0.24314
 H996 H 0.25639 -0.07754 0.23669
 C997 C 0.23090 -0.14112 0.73501
 C998 C 0.23171 -0.13137 0.76401
 C999 C 0.21546 -0.11028 0.76856
 C1000 C 0.19975 -0.10069 0.74371
 C1001 C 0.22129 -0.09551 0.72251
 C1002 C 0.23748 -0.11654 0.71797
 C1003 C 0.20102 -0.14700 0.72981
 C1004 C 0.18483 -0.12590 0.73434
 H1005 H 0.24199 -0.14146 0.78021
 H1006 H 0.21239 -0.10330 0.78862
 H1007 H 0.22371 -0.07668 0.71206
 H1008 H 0.25366 -0.11572 0.70366
 H1009 H 0.19314 -0.16630 0.72407
 H1010 H 0.16321 -0.12732 0.73237
 C1011 C 0.73073 0.36514 0.22879
 C1012 C 0.70350 0.36182 0.21459
 C1013 C 0.68626 0.38206 0.21920
 C1014 C 0.69770 0.40403 0.23739
 C1015 C 0.70617 0.38867 0.26277
 C1016 C 0.72346 0.36843 0.25824
 C1017 C 0.74132 0.39243 0.21981
 C1018 C 0.72411 0.41269 0.22427
 H1019 H 0.69721 0.34434 0.20368
 H1020 H 0.66570 0.38134 0.21214
 H1021 H 0.69808 0.39216 0.28240
 H1022 H 0.73029 0.35518 0.27399
 H1023 H 0.76073 0.39550 0.21064
 H1024 H 0.72885 0.43314 0.21893
 C1025 C 0.72237 0.64333 0.27771
 C1026 C 0.73675 0.61689 0.28248
 C1027 C 0.72070 0.59513 0.27954
 C1028 C 0.69156 0.60155 0.27209
 C1029 C 0.68222 0.62097 0.29374
 C1030 C 0.69834 0.64270 0.29677
 C1031 C 0.70969 0.64100 0.24988
 C1032 C 0.69355 0.61926 0.24696
 H1033 H 0.75777 0.61546 0.28784
 H1034 H 0.72805 0.57505 0.28240
 H1035 H 0.66329 0.61947 0.30409
 H1036 H 0.69279 0.65872 0.30982
 H1037 H 0.71249 0.65564 0.23414
 H1038 H 0.68246 0.61557 0.22869
 C1039 C 0.24016 0.13102 0.78101
 C1040 C 0.21361 0.13793 0.76722
 C1041 C 0.19715 0.11665 0.76337
 C1042 C 0.20851 0.09015 0.77356
 C1043 C 0.23604 0.08776 0.76002
 C1044 C 0.25256 0.10908 0.76382
 C1045 C 0.23228 0.11645 0.80689
 C1046 C 0.21581 0.09510 0.80300
 H1047 H 0.20828 0.15790 0.76091
 H1048 H 0.17772 0.11847 0.75377
 H1049 H 0.24322 0.06988 0.75061
 H1050 H 0.27322 0.10867 0.75742
 H1051 H 0.23991 0.12174 0.82643
 H1052 H 0.20972 0.08219 0.81931
 C1053 C 0.21698 0.26936 0.13074
 C1054 C 0.19182 0.28592 0.12490
 C1055 C 0.19488 0.30371 0.10458
 C1056 C 0.22296 0.30353 0.09179
 C1057 C 0.24254 0.30755 0.11519
 C1058 C 0.23944 0.28973 0.13546
 C1059 C 0.22347 0.25647 0.10394
 C1060 C 0.22657 0.27429 0.08362
 H1061 H 0.17248 0.28248 0.13402
 H1062 H 0.17781 0.31459 0.09704
 H1063 H 0.25753 0.32328 0.11579
 H1064 H 0.25174 0.29017 0.15333
 H1065 H 0.22473 0.23517 0.10102
 H1066 H 0.23045 0.26808 0.06339
 C1067 C 0.71329 0.76871 0.63066
 C1068 C 0.74091 0.78233 0.63101
 C1069 C 0.74476 0.79984 0.61058
 C1070 C 0.72072 0.80218 0.59135
 C1071 C 0.71470 0.77351 0.58260
 C1072 C 0.71080 0.75608 0.60307
 C1073 C 0.69327 0.79184 0.63019
 C1074 C 0.69722 0.80936 0.60978
 H1075 H 0.75587 0.77895 0.64639
 H1076 H 0.76305 0.81149 0.60868
 H1077 H 0.71337 0.76750 0.56193
 H1078 H 0.70615 0.73522 0.59994
 H1079 H 0.67834 0.79547 0.64521
 H1080 H 0.68583 0.82755 0.60862
 C1081 C 0.77306 0.77950 0.35610
 C1082 C 0.79134 0.80432 0.35588
 C1083 C 0.78738 0.82073 0.37689
 C1084 C 0.76570 0.81086 0.39649
 C1085 C 0.74076 0.80714 0.37860
 C1086 C 0.74460 0.79069 0.35760
 C1087 C 0.77804 0.76620 0.38323
 C1088 C 0.77418 0.78253 0.40426
 H1089 H 0.80478 0.80989 0.33993
 H1090 H 0.79729 0.83996 0.37798
 H1091 H 0.72201 0.81745 0.38143
 H1092 H 0.72913 0.78680 0.34285
 H1093 H 0.78423 0.74568 0.38565
 H1094 H 0.77705 0.77592 0.42469
 C1095 C 0.26681 0.27004 -0.13735
 C1096 C 0.27008 0.29958 -0.14477
 C1097 C 0.26499 0.31637 -0.12433
 C1098 C 0.25708 0.30223 -0.09817
 C1099 C 0.23292 0.28458 -0.10628
 C1100 C 0.23805 0.26778 -0.12672
 C1101 C 0.28493 0.26576 -0.11302
 C1102 C 0.27983 0.28248 -0.09259
 H1103 H 0.27516 0.30672 -0.16456
 H1104 H 0.26577 0.33782 -0.12677
 H1105 H 0.21282 0.28633 -0.09863
 H1106 H 0.22235 0.25575 -0.13567
 H1107 H 0.30031 0.25068 -0.11191
 H1108 H 0.29091 0.28162 -0.07395
 C1109 C 0.73022 0.23530 -0.12980
 C1110 C 0.75228 0.24580 -0.11094
 C1111 C 0.75608 0.23028 -0.08893
 C1112 C 0.73774 0.20543 -0.08771
 C1113 C 0.70931 0.21700 -0.09011
 C1114 C 0.70539 0.23246 -0.11213
 C1115 C 0.73846 0.20675 -0.13615
 C1116 C 0.74233 0.19119 -0.11423
 H1117 H 0.76292 0.26448 -0.11332
 H1118 H 0.76938 0.23664 -0.07307
 H1119 H 0.69383 0.21407 -0.07529
 H1120 H 0.68661 0.24246 -0.11618
 H1121 H 0.74120 0.19947 -0.15621
 H1122 H 0.74836 0.17056 -0.11560
 C1123 C 0.23199 0.72575 0.35768
 C1124 C 0.26117 0.72743 0.36753
 C1125 C 0.26634 0.71173 0.38915
 C1126 C 0.24178 0.69570 0.39913
 C1127 C 0.22003 0.71665 0.40352
 C1128 C 0.21492 0.73228 0.38192
 C1129 C 0.22729 0.69595 0.35268
 C1130 C 0.23242 0.68028 0.37432
 H1131 H 0.27695 0.73823 0.35726
 H1132 H 0.28663 0.70937 0.39642
 H1133 H 0.20958 0.71906 0.42222
 H1134 H 0.20016 0.74798 0.38208
 H1135 H 0.22148 0.68774 0.33358
 H1136 H 0.23091 0.65876 0.37354
 C1137 C 0.27416 0.73917 0.63322
 C1138 C 0.25150 0.74834 0.61447
 C1139 C 0.24776 0.73231 0.59302
 C1140 C 0.26695 0.70836 0.59221
 C1141 C 0.29499 0.72131 0.59374
 C1142 C 0.29876 0.73734 0.61515
 C1143 C 0.26705 0.71036 0.64061
 C1144 C 0.26328 0.69433 0.61927
 H1145 H 0.24071 0.76681 0.61631
 H1146 H 0.23406 0.73800 0.57725
 H1147 H 0.31035 0.71865 0.57883
 H1148 H 0.31728 0.74825 0.61855
 H1149 H 0.26494 0.70327 0.66095
 H1150 H 0.25791 0.67346 0.62142
 C1151 C 0.78210 0.23296 0.14553
 C1152 C 0.79960 0.20793 0.14712
 C1153 C 0.79559 0.19090 0.12654
 C1154 C 0.77454 0.20038 0.10599
 C1155 C 0.74940 0.20495 0.12300
 C1156 C 0.75334 0.22200 0.14360
 C1157 C 0.78784 0.24535 0.11818
 C1158 C 0.78391 0.22837 0.09758
 H1159 H 0.81206 0.20253 0.16401
 H1160 H 0.80461 0.17138 0.12676
 H1161 H 0.73038 0.19486 0.11977
 H1162 H 0.73772 0.22650 0.15774
 H1163 H 0.79453 0.26575 0.11532
 H1164 H 0.78726 0.23431 0.07704
 C1165 C 0.48350 0.38534 0.52590
 C1166 C 0.51130 0.37290 0.52245
 C1167 C 0.51551 0.35118 0.53823
 C1168 C 0.49148 0.34366 0.55610
 C1169 C 0.48609 0.36940 0.57158
 C1170 C 0.48189 0.39114 0.55582
 C1171 C 0.46348 0.36265 0.52107
 C1172 C 0.46764 0.34092 0.53677
 H1173 H 0.52725 0.38159 0.51062
 H1174 H 0.53514 0.34227 0.53946
 H1175 H 0.48638 0.37058 0.59314
 H1176 H 0.47860 0.41076 0.56394
 H1177 H 0.44748 0.36357 0.50639
 H1178 H 0.45515 0.32322 0.53546
 C1179 C -0.01976 0.89084 0.01866
 C1180 C 0.00823 0.87850 0.01586
 C1181 C 0.01201 0.85652 0.03140
 C1182 C -0.01251 0.84870 0.04849
 C1183 C -0.01840 0.87416 0.06419
 C1184 C -0.02215 0.89615 0.04868
 C1185 C -0.03956 0.86814 0.01294
 C1186 C -0.03576 0.84620 0.02844
 H1187 H 0.02457 0.88740 0.00472
 H1188 H 0.03160 0.84759 0.03294
 H1189 H -0.01864 0.87502 0.08576
 H1190 H -0.02550 0.91563 0.05710
 H1191 H -0.05513 0.86918 -0.00219
 H1192 H -0.04812 0.82847 0.02647
 C1193 C 0.01434 0.61396 0.01180
 C1194 C -0.01380 0.62605 0.00865
 C1195 C -0.01833 0.64677 0.02527
 C1196 C 0.00564 0.65373 0.04362
 C1197 C 0.01161 0.62727 0.05809
 C1198 C 0.01615 0.60653 0.04152
 C1199 C 0.03385 0.63738 0.00807
 C1200 C 0.02931 0.65806 0.02462
 H1201 H -0.02982 0.61774 -0.00339
 H1202 H -0.03814 0.65517 0.02677
 H1203 H 0.01141 0.62485 0.07957
 H1204 H 0.01983 0.58655 0.04892
 H1205 H 0.04976 0.63772 -0.00654
 H1206 H 0.04138 0.67610 0.02410
 C1207 C 0.51347 0.11113 0.51608
 C1208 C 0.53560 0.13240 0.51523
 C1209 C 0.53162 0.15294 0.53211
 C1210 C 0.50586 0.15052 0.54865
 C1211 C 0.48338 0.14696 0.52760
 C1212 C 0.48737 0.12638 0.51063
 C1213 C 0.51156 0.10258 0.54541
 C1214 C 0.50761 0.12310 0.56237
 H1215 H 0.55274 0.13155 0.50211
 H1216 H 0.54541 0.16968 0.53333
 H1217 H 0.46542 0.15875 0.52608
 H1218 H 0.47272 0.12130 0.49549
 H1219 H 0.51273 0.08208 0.55219
 H1220 H 0.50539 0.12004 0.58366
 C1221 C -0.02799 0.11066 0.47866
 C1222 C -0.04906 0.11266 0.45621
 C1223 C -0.04493 0.13354 0.43927
 C1224 C -0.02021 0.15084 0.44630
 C1225 C -0.02439 0.15872 0.47547
 C1226 C -0.02847 0.13780 0.49232
 C1227 C -0.00109 0.10988 0.46410
 C1228 C 0.00294 0.13075 0.44714
 H1229 H -0.06490 0.09831 0.45255
 H1230 H -0.05710 0.13582 0.42151
 H1231 H -0.02439 0.17915 0.48226
 H1232 H -0.03196 0.14033 0.51344
 H1233 H 0.01322 0.09389 0.46641
 H1234 H 0.02070 0.13241 0.43489
 C1235 C 0.47623 0.62019 0.99080
 C1236 C 0.45163 0.63795 0.98650
 C1237 C 0.45611 0.65899 0.96986
 C1238 C 0.48480 0.66050 0.95878
 C1239 C 0.50256 0.66059 0.98408
 C1240 C 0.49818 0.63954 1.00077
 C1241 C 0.48506 0.61225 0.96280
 C1242 C 0.48947 0.63323 0.94615
 H1243 H 0.43261 0.63478 0.99643
 H1244 H 0.44089 0.67378 0.96582
 H1245 H 0.51549 0.67692 0.99001
 H1246 H 0.50777 0.63866 1.02013
 H1247 H 0.48779 0.59182 0.95666
 H1248 H 0.49597 0.63067 0.92576
 C1249 C 0.53458 0.88949 0.97559
 C1250 C 0.50718 0.88944 0.96160
 C1251 C 0.50355 0.86891 0.94446
 C1252 C 0.52758 0.84997 0.94288
 C1253 C 0.55125 0.86859 0.93557
 C1254 C 0.55497 0.88916 0.95272
 C1255 C 0.53683 0.86203 0.98886
 C1256 C 0.53314 0.84146 0.97184
 H1257 H 0.49222 0.90467 0.96441
 H1258 H 0.48547 0.86676 0.93255
 H1259 H 0.56294 0.86733 0.91757
 H1260 H 0.57002 0.90433 0.94902
 H1261 H 0.54120 0.85906 1.00986
 H1262 H 0.53437 0.82087 0.97834
 C1263 C 0.04472 0.37984 0.48467
 C1264 C 0.02168 0.38395 0.46486
 C1265 C 0.01817 0.36349 0.44767
 C1266 C 0.03791 0.34047 0.45176
 C1267 C 0.06589 0.35382 0.45023
 C1268 C 0.06940 0.37437 0.46744
 C1269 C 0.03875 0.35311 0.49849
 C1270 C 0.03519 0.33258 0.48132
 H1271 H 0.00938 0.40163 0.46423
 H1272 H 0.00282 0.36376 0.43228
 H1273 H 0.08241 0.34707 0.43832
 H1274 H 0.08860 0.38433 0.46962
 H1275 H 0.03805 0.35042 0.51993
 H1276 H 0.03145 0.31237 0.48818
 C1277 C 0.38831 0.51547 0.48831
 C1278 C 0.39612 0.54505 0.48763
 C1279 C 0.37519 0.56170 0.49143
 C1280 C 0.34812 0.54744 0.49559
 C1281 C 0.34493 0.52910 0.47137
 C1282 C 0.36588 0.51251 0.46756
 C1283 C 0.37440 0.51151 0.51534
 C1284 C 0.35343 0.52817 0.51916
 H1285 H 0.41647 0.55225 0.48490
 H1286 H 0.37775 0.58314 0.49194
 H1287 H 0.32741 0.52894 0.45849
 H1288 H 0.36631 0.49827 0.45146
 H1289 H 0.38069 0.49768 0.53073
 H1290 H 0.34263 0.52772 0.53774
 C1291 C 0.88926 0.02123 -0.01533
 C1292 C 0.89541 0.05095 -0.01994
 C1293 C 0.87422 0.06707 -0.01527
 C1294 C 0.84863 0.05221 -0.00638
 C1295 C 0.84351 0.03132 -0.02803
 C1296 C 0.86465 0.01520 -0.03270
 C1297 C 0.87912 0.01992 0.01359
 C1298 C 0.85796 0.03607 0.01824
 H1299 H 0.91495 0.05875 -0.02543
 H1300 H 0.87584 0.08856 -0.01681
 H1301 H 0.82465 0.02930 -0.03872
 H1302 H 0.86389 -0.00054 -0.04734
 H1303 H 0.88914 0.00960 0.02979
 H1304 H 0.85091 0.03898 0.03833
 C1305 C 0.61251 0.02434 0.03250
 C1306 C 0.61199 0.04784 0.05196
 C1307 C 0.63283 0.06519 0.04885
 C1308 C 0.65257 0.05749 0.02670
 C1309 C 0.66087 0.02888 0.03359
 C1310 C 0.64002 0.01162 0.03663
 C1311 C 0.61368 0.03753 0.00484
 C1312 C 0.63452 0.05489 0.00183
 H1313 H 0.59582 0.05203 0.06550
 H1314 H 0.63340 0.08377 0.05959
 H1315 H 0.68154 0.02276 0.03607
 H1316 H 0.64280 -0.00919 0.04169
 H1317 H 0.59893 0.03409 -0.01073
 H1318 H 0.63736 0.06635 -0.01634
 C1319 C 0.11522 0.52097 0.52991
 C1320 C 0.14292 0.51044 0.53783
 C1321 C 0.16322 0.52804 0.53344
 C1322 C 0.15428 0.55479 0.52155
 C1323 C 0.13820 0.54751 0.49631
 C1324 C 0.11787 0.52984 0.50066
 C1325 C 0.11231 0.54727 0.54521
 C1326 C 0.13266 0.56490 0.54075
 H1327 H 0.14622 0.49083 0.54633
 H1328 H 0.18390 0.52341 0.53819
 H1329 H 0.14172 0.55634 0.47685
 H1330 H 0.10431 0.52356 0.48492
 H1331 H 0.09488 0.55300 0.55643
 H1332 H 0.13171 0.58504 0.54816
 C1333 C 0.11433 0.49306 -0.02852
 C1334 C 0.10595 0.46484 -0.02007
 C1335 C 0.12686 0.44825 -0.01562
 C1336 C 0.15450 0.46115 -0.01993
 C1337 C 0.15338 0.47284 -0.04837
 C1338 C 0.13244 0.48946 -0.05287
 C1339 C 0.13368 0.50266 -0.00649
 C1340 C 0.15465 0.48603 -0.00206
 H1341 H 0.08528 0.45852 -0.01761
 H1342 H 0.12400 0.42773 -0.00933
 H1343 H 0.16834 0.46911 -0.06343
 H1344 H 0.12957 0.49976 -0.07172
 H1345 H 0.13292 0.52190 0.00299
 H1346 H 0.17100 0.49193 0.01090
 C1347 C 0.60985 0.98548 0.47807
 C1348 C 0.60427 0.95553 0.47503
 C1349 C 0.62624 0.94013 0.47892
 C1350 C 0.65199 0.95586 0.48559
 C1351 C 0.65483 0.97636 0.46288
 C1352 C 0.63290 0.99176 0.45894
 C1353 C 0.62218 0.98785 0.50618
 C1354 C 0.64414 0.97242 0.51010
 H1355 H 0.58462 0.94708 0.47095
 H1356 H 0.62521 0.91859 0.47813
 H1357 H 0.67280 0.97870 0.45102
 H1358 H 0.63209 1.00720 0.44374
 H1359 H 0.61336 0.99852 0.52254
 H1360 H 0.65302 0.97069 0.52971
 C1361 C 0.88945 0.97716 0.53236
 C1362 C 0.86231 0.99099 0.53439
 C1363 C 0.84097 0.97456 0.53026
 C1364 C 0.84846 0.94560 0.52449
 C1365 C 0.86796 0.94736 0.50088
 C1366 C 0.88926 0.96389 0.50496
 C1367 C 0.88786 0.95382 0.55235
 C1368 C 0.86654 0.93728 0.54818
 H1369 H 0.86009 1.01191 0.53895
 H1370 H 0.82049 0.98150 0.53130
 H1371 H 0.86557 0.93604 0.48271
 H1372 H 0.90491 0.96676 0.49031
 H1373 H 0.90267 0.94944 0.56755
 H1374 H 0.86435 0.91911 0.55968
 C1375 C 0.38211 0.48839 0.02134
 C1376 C 0.36407 0.49750 -0.00191
 C1377 C 0.34295 0.48090 -0.00662
 C1378 C 0.34173 0.45641 0.01214
 C1379 C 0.36929 0.44334 0.00955
 C1380 C 0.39033 0.46000 0.01432
 C1381 C 0.36297 0.48528 0.04497
 C1382 C 0.34186 0.46868 0.04016
 H1383 H 0.36608 0.51617 -0.01260
 H1384 H 0.32752 0.48644 -0.02080
 H1385 H 0.37200 0.42268 0.00418
 H1386 H 0.41098 0.45363 0.01303
 H1387 H 0.36543 0.49580 0.06360
 H1388 H 0.32625 0.46523 0.05474
 C1389 C 0.51334 0.47403 0.38937
 C1390 C 0.51780 0.44878 0.37302
 C1391 C 0.53379 0.45269 0.35146
 C1392 C 0.54409 0.48152 0.34815
 C1393 C 0.51815 0.49805 0.34751
 C1394 C 0.50216 0.49424 0.36906
 C1395 C 0.54145 0.48430 0.39639
 C1396 C 0.55747 0.48820 0.37492
 H1397 H 0.50844 0.42973 0.37749
 H1398 H 0.53780 0.43691 0.33748
 H1399 H 0.51135 0.50970 0.33057
 H1400 H 0.48245 0.50298 0.36994
 H1401 H 0.54811 0.48828 0.41658
 H1402 H 0.57789 0.49552 0.37679
 C1403 C 0.01294 -0.01952 0.88498
 C1404 C 0.04214 -0.01365 0.89263
 C1405 C 0.05859 -0.01012 0.87144
 C1406 C 0.04454 -0.01268 0.84425
 C1407 C 0.03041 -0.04004 0.84520
 C1408 C 0.01402 -0.04362 0.86648
 C1409 C 0.00474 0.00374 0.86661
 C1410 C 0.02118 0.00726 0.84530
 H1411 H 0.04921 -0.01218 0.91304
 H1412 H 0.07975 -0.00560 0.87378
 H1413 H 0.03256 -0.05507 0.83000
 H1414 H 0.00234 -0.06167 0.86951
 H1415 H -0.01323 0.01539 0.86873
 H1416 H 0.01628 0.02153 0.82982
 C1417 C 0.02730 0.02736 0.61127
 C1418 C 0.03861 -0.00092 0.61284
 C1419 C 0.05562 -0.00491 0.63375
 C1420 C 0.05978 0.01970 0.65145
 C1421 C 0.06928 0.04144 0.63165
 C1422 C 0.05228 0.04551 0.61074
 C1423 C 0.01451 0.03207 0.63845
 C1424 C 0.03142 0.02807 0.65937
 H1425 H 0.03423 -0.01623 0.59832
 H1426 H 0.06583 -0.02365 0.63689
 H1427 H 0.08873 0.05112 0.63224
 H1428 H 0.05764 0.05876 0.59450
 H1429 H -0.00609 0.03821 0.64098
 H1430 H 0.02522 0.03081 0.67982
 C1431 C 0.51194 0.52354 0.11932
 C1432 C 0.50335 0.49961 0.13669
 C1433 C 0.51974 0.49524 0.15799
 C1434 C 0.54351 0.51501 0.16005
 C1435 C 0.55745 0.51351 0.13292
 C1436 C 0.54101 0.51793 0.11170
 C1437 C 0.51353 0.54689 0.13878
 C1438 C 0.52992 0.54242 0.16007
 H1439 H 0.48509 0.48818 0.13407
 H1440 H 0.51446 0.48053 0.17295
 H1441 H 0.57854 0.50910 0.13061
 H1442 H 0.54799 0.51730 0.09131
 H1443 H 0.50218 0.56506 0.13637
 H1444 H 0.53238 0.55683 0.17588
 C1445 C 0.47826 -0.03535 0.11014
 C1446 C 0.49155 -0.03719 0.13768
 C1447 C 0.47426 -0.03419 0.15821
 C1448 C 0.44506 -0.02960 0.14957
 C1449 C 0.44631 -0.00564 0.13028
 C1450 C 0.46367 -0.00862 0.10979
 C1451 C 0.45565 -0.05637 0.11077
 C1452 C 0.43828 -0.05333 0.13128
 H1453 H 0.51274 -0.04083 0.14074
 H1454 H 0.48074 -0.03529 0.17885
 H1455 H 0.43410 0.01198 0.13226
 H1456 H 0.46635 0.00642 0.09440
 H1457 H 0.45239 -0.07158 0.09597
 H1458 H 0.42065 -0.06587 0.13280
 C1459 C 0.98213 0.46506 0.60986
 C1460 C 0.99438 0.46322 0.63784
 C1461 C 0.97649 0.46704 0.65769
 C1462 C 0.94778 0.47242 0.64797
 C1463 C 0.95046 0.49610 0.62844
 C1464 C 0.96843 0.49227 0.60860
 C1465 C 0.95877 0.44486 0.60988
 C1466 C 0.94081 0.44875 0.62971
 H1467 H 1.01534 0.45905 0.64168
 H1468 H 0.98222 0.46613 0.67855
 H1469 H 0.93867 0.51407 0.62967
 H1470 H 0.97202 0.50695 0.59305
 H1471 H 0.95503 0.43024 0.59458
 H1472 H 0.92229 0.43744 0.63028
 C1473 C 0.98370 0.52642 0.87678
 C1474 C 0.99447 0.50585 0.85705
 C1475 C 0.97800 0.50162 0.83579
 C1476 C 0.95205 0.51807 0.83613
 C1477 C 0.93929 0.51183 0.86323
 C1478 C 0.95578 0.51616 0.88441
 C1479 C 0.97877 0.55133 0.85964
 C1480 C 0.96236 0.54700 0.83835
 H1481 H 1.01406 0.49685 0.85812
 H1482 H 0.98420 0.48941 0.81929
 H1483 H 0.91894 0.50448 0.86553
 H1484 H 0.94958 0.51250 0.90479
 H1485 H 0.98824 0.57046 0.86333
 H1486 H 0.95824 0.56249 0.82378
 C1487 C 0.48150 0.02128 0.38086
 C1488 C 0.49158 -0.00037 0.36192
 C1489 C 0.47529 -0.00445 0.34050
 C1490 C 0.45016 0.01323 0.33988
 C1491 C 0.43667 0.00840 0.36691
 C1492 C 0.45299 0.01257 0.38825
 C1493 C 0.47804 0.04590 0.36293
 C1494 C 0.46180 0.04170 0.34147
 H1495 H 0.51071 -0.01020 0.36358
 H1496 H 0.48127 -0.01735 0.32447
 H1497 H 0.41596 0.00208 0.36904
 H1498 H 0.44629 0.00980 0.40860
 H1499 H 0.48828 0.06470 0.36629
 H1500 H 0.45853 0.05698 0.32646
   
