data_POSCAR
  _audit_creation_date              2014-09-24
  _audit_creation_method            'ToBaCCo'
  _symmetry_space_group_name_H-M    'P1'
  _symmetry_Int_Tables_number       1
  _symmetry_cell_setting            triclinic
  loop_
  _symmetry_equiv_pos_as_xyz
 x,y,z
_cell_length_a 94.9706
_cell_length_b 94.9477
_cell_length_c 94.9202
_cell_angle_alpha 90.018200
_cell_angle_beta 90.048500
_cell_angle_gamma 90.080100
loop_
  _atom_site_label
  _atom_site_type_symbol
  _atom_site_fract_x
  _atom_site_fract_y
  _atom_site_fract_z
C1 C 0.30807 0.44206 0.92436
 N2 N 0.31973 0.44794 0.93023
 C3 C 0.32554 0.44231 0.94204
 N4 N 0.31960 0.43069 0.94795
 C5 C 0.30794 0.42475 0.94215
 N6 N 0.30223 0.43044 0.93033
 C7 C 0.44251 0.82561 0.44199
 N8 N 0.44818 0.81991 0.43014
 C9 C 0.44233 0.80829 0.42417
 N10 N 0.43072 0.80237 0.43007
 C11 C 0.42500 0.80797 0.44192
 N12 N 0.43090 0.81959 0.44782
 C13 C 0.94250 0.92452 0.80811
 N14 N 0.93090 0.93049 0.80227
 C15 C 0.92521 0.94230 0.80797
 N16 N 0.93115 0.94810 0.81964
 C17 C 0.94275 0.94220 0.82558
 N18 N 0.94838 0.93039 0.81978
 C19 C 0.44076 -0.07697 0.30848
 N20 N 0.44679 -0.07097 0.32000
 C21 C 0.44117 -0.05918 0.32583
 N22 N 0.42941 -0.05341 0.32010
 C23 C 0.42331 -0.05931 0.30857
 N24 N 0.42900 -0.07110 0.30281
 C25 C 0.80908 0.30907 0.32599
 N26 N 0.82089 0.30338 0.32030
 C27 C 0.82700 0.30935 0.30882
 N28 N 0.82126 0.32112 0.30307
 C29 C 0.80945 0.32688 0.30870
 N30 N 0.80341 0.32084 0.32018
 C31 C -0.19139 0.82599 0.80811
 N32 N -0.17957 0.82019 0.80252
 C33 C -0.17371 0.80856 0.80843
 N34 N -0.17971 0.80275 0.82004
 C35 C -0.19152 0.80845 0.82574
 N36 N -0.19731 0.82008 0.81973
 C37 C 0.94154 0.32622 0.44093
 N38 N 0.93000 0.32015 0.44683
 C39 C 0.92427 0.30837 0.44106
 N40 N 0.93009 0.30270 0.42929
 C41 C 0.94163 0.30870 0.42333
 N42 N 0.94730 0.32048 0.42916
 C43 C 0.44129 0.44115 0.82617
 N44 N 0.42950 0.44685 0.82041
 C45 C 0.42344 0.44092 0.80888
 N46 N 0.42921 0.42918 0.80311
 C47 C 0.44101 0.42341 0.80877
 N48 N 0.44699 0.42941 0.82031
 C49 C 0.80787 0.92511 0.94298
 N50 N 0.80198 0.93103 0.93135
 C51 C 0.80773 0.94275 0.92549
 N52 N 0.81947 0.94853 0.93128
 C53 C 0.82545 0.94271 0.94291
 N54 N 0.81961 0.93099 0.94871
 C55 C 0.30915 0.82740 0.30879
 N56 N 0.30315 0.82133 0.32028
 C57 C 0.30884 0.80957 0.32609
 N58 N 0.32064 0.80389 0.32038
 C59 C 0.32672 0.80985 0.30889
 N60 N 0.32095 0.82161 0.30314
 C61 C 0.80863 0.42407 0.44123
 N62 N 0.82041 0.42990 0.44690
 C63 C 0.82637 0.44145 0.44093
 N64 N 0.82052 0.44714 0.42918
 C65 C 0.80874 0.44138 0.42344
 N66 N 0.80285 0.42982 0.42947
 C67 C 0.94221 0.82597 -0.05873
 N68 N 0.93065 0.81991 -0.05285
 C69 C 0.92473 0.80829 -0.05875
 N70 N 0.93039 0.80274 -0.07065
 C71 C 0.94195 0.80871 -0.07664
 N72 N 0.94781 0.82032 -0.07063
 C73 C 0.30920 0.32676 0.80875
 N74 N 0.30317 0.32078 0.82026
 C75 C 0.30880 0.30900 0.82609
 N76 N 0.32056 0.30323 0.82038
 C77 C 0.32666 0.30914 0.80887
 N78 N 0.32097 0.32092 0.80310
 C79 C 0.17515 0.55794 0.55744
 N80 N 0.18108 0.55201 0.56903
 C81 C 0.19268 0.55788 0.57503
 N82 N 0.19829 0.56979 0.56944
 C83 C 0.19241 0.57580 0.55785
 N84 N 0.18082 0.56986 0.55191
 C85 C 0.57665 0.69116 0.05840
 N86 N 0.57085 0.67935 0.05276
 C87 C 0.55908 0.67360 0.05852
 N88 N 0.55316 0.67969 0.07003
 C89 C 0.55889 0.69150 0.07573
 N90 N 0.57066 0.69718 0.06991
 C91 C 0.69114 0.19078 0.67335
 N92 N 0.67964 0.19671 0.67941
 C93 C 0.67387 0.19094 0.69116
 N94 N 0.67963 0.17913 0.69681
 C95 C 0.69114 0.17313 0.69082
 N96 N 0.69684 0.17897 0.67907
 C97 C 1.07627 0.05787 0.19115
 N98 N 1.07023 0.06944 0.19702
 C99 C 1.05861 0.07531 0.19112
 N100 N 1.05304 0.06961 0.17923
 C101 C 1.05899 0.05805 0.17325
 N102 N 1.07060 0.05222 0.17926
 C103 C 0.05908 0.17245 1.05938
 N104 N 0.05316 0.17855 1.07090
 C105 C 0.05887 0.19038 1.07661
 N106 N 0.07059 0.19610 1.07072
 C107 C 0.07657 0.19010 1.05920
 N108 N 0.07080 0.17827 1.05358
 C109 C 0.17496 0.69263 0.69223
 N110 N 0.18093 0.68102 0.69806
 C111 C 0.19254 0.67513 0.69217
 N112 N 0.19815 0.68088 0.68033
 C113 C 0.19225 0.69249 0.67442
 N114 N 0.18064 0.69832 0.68039
 C115 C 1.19251 0.17460 0.19157
 N116 N 1.18094 0.18052 0.19751
 C117 C 1.17493 0.19209 0.19165
 N118 N 1.18050 0.19769 0.17972
 C119 C 1.19207 0.19183 0.17368
 N120 N 1.19802 0.18027 0.17964
 C121 C 0.67181 1.06045 0.56038
 N122 N 0.67775 1.05458 0.57201
 C123 C 0.68945 1.06037 0.57790
 N124 N 0.69520 1.07213 0.57212
 C125 C 0.68936 1.07809 0.56049
 N126 N 0.67766 1.07221 0.55467
 C127 C 0.55790 0.55831 0.17404
 N128 N 0.55200 0.56991 0.17996
 C129 C 0.55758 0.57561 0.19185
 N130 N 0.56916 0.56968 0.19778
 C131 C 0.57512 0.55807 0.19194
 N132 N 0.56947 0.55244 0.18005
 C133 C 0.67451 0.69232 0.19157
 N134 N 0.68048 0.68071 0.19742
 C135 C 0.69205 0.67478 0.19148
 N136 N 0.69761 0.68047 0.17959
 C137 C 0.69170 0.69207 0.17367
 N138 N 0.68013 0.69794 0.17968
 C139 C 0.17277 0.05908 1.05913
 N140 N 0.17878 0.05308 1.07065
 C141 C 0.19057 0.05873 1.07650
 N142 N 0.19634 0.07050 1.07073
 C143 C 0.19043 0.07657 1.05921
 N144 N 0.17864 0.07085 1.05346
 C145 C 0.57626 0.19118 0.55836
 N146 N 0.57032 0.19720 0.56989
 C147 C 0.55853 0.19155 0.57572
 N148 N 0.55275 0.17977 0.56999
 C149 C 0.55864 0.17368 0.55847
 N150 N 0.57041 0.17941 0.55270
 C151 C 0.07437 0.55719 0.69333
 N152 N 0.06855 0.55136 0.68162
 C153 C 0.05686 0.55709 0.67571
 N154 N 0.05102 0.56877 0.68154
 C155 C 0.05676 0.57467 0.69325
 N156 N 0.06846 0.56887 0.69909
 C157 C 0.67340 0.55935 0.05828
 N158 N 0.67919 0.57115 0.05263
 C159 C 0.69097 0.57691 0.05839
 N160 N 0.69691 0.57083 0.06990
 C161 C 0.69119 0.55902 0.07560
 N162 N 0.67942 0.55333 0.06978
 C163 C 0.05809 0.69256 0.57516
 N164 N 0.05215 0.68096 0.56923
 C165 C 0.05797 0.67499 0.55761
 N166 N 0.06984 0.68065 0.55196
 C167 C 0.07584 0.69224 0.55783
 N168 N 0.06995 0.69815 0.56944
 C169 C 0.55990 1.05919 0.67254
 N170 N 0.57164 1.05350 0.67843
 C171 C 0.57731 1.05918 0.69029
 N172 N 0.57121 1.07065 0.69625
 C173 C 0.55947 1.07640 0.69047
 N174 N 0.55386 1.07066 0.67861
 C175 C 0.44172 0.32591 0.94186
 N176 N 0.44737 0.32021 0.93001
 C177 C 0.44155 0.30855 0.92408
 N178 N 0.42998 0.30260 0.93004
 C179 C 0.42427 0.30821 0.94189
 N180 N 0.43015 0.31987 0.94775
 C181 C 0.93953 0.43910 0.32832
 N182 N 0.92785 0.44493 0.32246
 C183 C 0.92200 0.43923 0.31071
 N184 N 0.92786 0.42759 0.30482
 C185 C 0.93954 0.42170 0.31058
 N186 N 0.94533 0.42747 0.32234
 C187 C 0.30877 0.94212 0.42385
 N188 N 0.30284 0.93058 0.42988
 C189 C 0.30846 0.92496 0.44178
 N190 N 0.32012 0.93090 0.44759
 C191 C 0.32614 0.94244 0.44163
 N192 N 0.32042 0.94800 0.42974
 O193 O 0.24916 0.53781 0.73186
 O194 O 0.27315 0.53326 0.73374
 O195 O 0.23209 0.50084 0.71244
 O196 O 0.23146 0.47768 0.71664
 O197 O 0.21233 0.51835 0.74943
 O198 O 0.21757 0.51737 0.77394
 O199 O 0.26829 0.46347 0.75067
 O200 O 0.26554 0.46744 0.72675
 O201 O 0.28669 0.49915 0.76825
 O202 O 0.28188 0.52452 0.76735
 O203 O 0.25086 0.48210 0.78689
 O204 O 0.22573 0.48276 0.78203
 O205 O 0.25137 0.46342 0.76768
 O206 O 0.22526 0.46859 0.76627
 O207 O 0.26775 0.49910 0.78705
 O208 O 0.26631 0.52500 0.78172
 O209 O 0.28658 0.48201 0.75149
 O210 O 0.28200 0.48672 0.72602
 O211 O 0.23245 0.53795 0.74909
 O212 O 0.23355 0.53264 0.77408
 O213 O 0.21219 0.50141 0.73246
 O214 O 0.21791 0.47597 0.73464
 O215 O 0.24877 0.51808 0.71252
 O216 O 0.27412 0.51496 0.71814
 Zr217 Zr 0.25752 0.51734 0.73291
 O218 O 0.27101 0.50507 0.74553
 Zr219 Zr 0.23258 0.49270 0.73305
 O220 O 0.24525 0.47921 0.74524
 Zr221 Zr 0.23284 0.51749 0.75776
 O222 O 0.24514 0.50490 0.77128
 Zr223 Zr 0.26665 0.48371 0.74198
 O224 O 0.25401 0.49591 0.72826
 Zr225 Zr 0.26656 0.50831 0.76693
 O226 O 0.25425 0.52199 0.75438
 Zr227 Zr 0.24187 0.48347 0.76668
 O228 O 0.22805 0.49607 0.75449
 O229 O 0.23617 0.51398 0.73645
 O230 O 0.26325 0.48693 0.76343
 C231 C 0.23950 0.54388 0.73914
 C232 C 0.23912 0.51076 0.70647
 C233 C 0.20625 0.51122 0.73965
 C234 C 0.26144 0.45758 0.76075
 C235 C 0.29248 0.48895 0.76151
 C236 C 0.26087 0.48900 0.79285
 H237 H 0.28092 0.50731 0.74322
 H238 H 0.24279 0.50715 0.78117
 H239 H 0.23016 0.51999 0.73043
 H240 H 0.24313 0.46930 0.74283
 H241 H 0.26253 0.47192 0.71782
 H242 H 0.23869 0.47049 0.71867
 H243 H 0.25830 0.52342 0.78819
 H244 H 0.24278 0.53742 0.77332
 H245 H 0.28866 0.47869 0.72641
 H246 H 0.27328 0.52244 0.71089
 H247 H 0.22611 0.49167 0.78740
 H248 H 0.21316 0.50792 0.77376
 H249 H 0.27298 0.53716 0.74341
 H250 H 0.28758 0.52373 0.75868
 H251 H 0.21235 0.47763 0.74330
 H252 H 0.22706 0.46197 0.75843
 O253 O 0.21238 0.01817 0.24880
 O254 O 0.21699 0.01632 0.27282
 O255 O 0.24938 0.03746 0.23171
 O256 O 0.27252 0.03322 0.23109
 O257 O 0.23169 0.00050 0.21200
 O258 O 0.23268 -0.02403 0.21726
 O259 O 0.28672 -0.00073 0.26797
 O260 O 0.28280 0.02319 0.26519
 O261 O 0.25103 -0.01818 0.28643
 O262 O 0.22566 -0.01726 0.28160
 O263 O 0.26797 -0.03693 0.25061
 O264 O 0.26723 -0.03216 0.22545
 O265 O 0.28668 -0.01776 0.25104
 O266 O 0.28143 -0.01642 0.22492
 O267 O 0.25102 -0.03702 0.26751
 O268 O 0.22512 -0.03168 0.26605
 O269 O 0.26822 -0.00146 0.28629
 O270 O 0.26358 0.02400 0.28167
 O271 O 0.21218 0.00088 0.23211
 O272 O 0.21742 -0.02410 0.23324
 O273 O 0.24867 0.01744 0.21185
 O274 O 0.27413 0.01518 0.21754
 O275 O 0.23217 0.03747 0.24840
 O276 O 0.23531 0.03189 0.27378
 Zr277 Zr 0.23287 0.01709 0.25718
 O278 O 0.24514 0.00450 0.27069
 Zr279 Zr 0.25745 0.01685 0.23223
 O280 O 0.27094 0.00467 0.24492
 Zr281 Zr 0.23261 -0.00782 0.23253
 O282 O 0.24518 -0.02132 0.24485
 Zr283 Zr 0.26651 0.00799 0.26633
 O284 O 0.25431 0.02170 0.25367
 Zr285 Zr 0.24184 -0.01691 0.26628
 O286 O 0.22817 -0.00437 0.25394
 Zr287 Zr 0.26660 -0.01676 0.24156
 O288 O 0.25401 -0.00458 0.22772
 O289 O 0.23618 0.01349 0.23583
 O290 O 0.26322 -0.01345 0.26295
 C291 C 0.20629 0.01086 0.23913
 C292 C 0.23949 0.04347 0.23873
 C293 C 0.23881 0.01028 0.20592
 C294 C 0.29256 -0.01083 0.26111
 C295 C 0.26126 -0.01144 0.29221
 C296 C 0.26110 -0.04284 0.26065
 H297 H 0.24294 0.00683 0.28060
 H298 H 0.24291 -0.03121 0.24252
 H299 H 0.23018 0.01952 0.22982
 H300 H 0.28085 0.00707 0.24279
 H301 H 0.27834 0.03212 0.26216
 H302 H 0.27973 0.03119 0.23831
 H303 H 0.22669 -0.03818 0.25806
 H304 H 0.21267 -0.02333 0.24249
 H305 H 0.27162 0.02361 0.28832
 H306 H 0.22786 0.03916 0.27292
 H307 H 0.25830 -0.03751 0.22584
 H308 H 0.24211 -0.02383 0.21282
 H309 H 0.21304 0.00667 0.27264
 H310 H 0.22648 -0.00857 0.28728
 H311 H 0.27241 0.00653 0.21197
 H312 H 0.28807 -0.00858 0.22670
 O313 O 0.50078 0.71289 0.23142
 O314 O 0.47678 0.71744 0.23326
 O315 O 0.51784 0.74986 0.21204
 O316 O 0.51836 0.77304 0.21623
 O317 O 0.53761 0.73239 0.24900
 O318 O 0.53241 0.73339 0.27352
 O319 O 0.48159 0.78721 0.25027
 O320 O 0.48431 0.78324 0.22634
 O321 O 0.46326 0.75152 0.26782
 O322 O 0.46808 0.72614 0.26689
 O323 O 0.49908 0.76859 0.28648
 O324 O 0.52421 0.76797 0.28163
 O325 O 0.49852 0.78728 0.26728
 O326 O 0.52464 0.78215 0.26589
 O327 O 0.48222 0.75156 0.28662
 O328 O 0.48368 0.72566 0.28126
 O329 O 0.46332 0.76866 0.25108
 O330 O 0.46786 0.76395 0.22560
 O331 O 0.51751 0.71277 0.24867
 O332 O 0.51646 0.71810 0.27365
 O333 O 0.53771 0.74934 0.23205
 O334 O 0.53196 0.77478 0.23425
 O335 O 0.50117 0.73259 0.21209
 O336 O 0.47581 0.73573 0.21767
 Zr337 Zr 0.49241 0.73335 0.23247
 O338 O 0.47891 0.74560 0.24508
 Zr339 Zr 0.51731 0.75803 0.23264
 O340 O 0.50463 0.77150 0.24484
 Zr341 Zr 0.51711 0.73324 0.25734
 O342 O 0.50481 0.74580 0.27086
 Zr343 Zr 0.48324 0.76698 0.24156
 O344 O 0.49588 0.75479 0.22783
 Zr345 Zr 0.48339 0.74237 0.26649
 O346 O 0.49570 0.72871 0.25394
 Zr347 Zr 0.50805 0.76724 0.26628
 O348 O 0.52187 0.75466 0.25408
 O349 O 0.51375 0.73675 0.23604
 O350 O 0.48667 0.76376 0.26301
 C351 C 0.51045 0.70683 0.23872
 C352 C 0.51084 0.73991 0.20606
 C353 C 0.54366 0.73953 0.23922
 C354 C 0.48844 0.79311 0.26036
 C355 C 0.45745 0.76171 0.26110
 C356 C 0.48910 0.76167 0.29243
 H357 H 0.46900 0.74336 0.24277
 H358 H 0.50717 0.74356 0.28075
 H359 H 0.51976 0.73074 0.23001
 H360 H 0.50674 0.78142 0.24243
 H361 H 0.48731 0.77876 0.21741
 H362 H 0.51116 0.78025 0.21830
 H363 H 0.49168 0.72726 0.28774
 H364 H 0.50723 0.71330 0.27290
 H365 H 0.46120 0.77197 0.22600
 H366 H 0.47666 0.72826 0.21041
 H367 H 0.52385 0.75905 0.28699
 H368 H 0.53682 0.74285 0.27333
 H369 H 0.47695 0.71354 0.24293
 H370 H 0.46236 0.72695 0.25822
 H371 H 0.53753 0.77313 0.24292
 H372 H 0.52282 0.78876 0.25804
 O373 O 0.03769 0.73189 0.74930
 O374 O 0.03315 0.73378 0.77332
 O375 O 0.00065 0.71253 0.73228
 O376 O -0.02249 0.71677 0.73170
 O377 O 0.01826 0.74946 0.71247
 O378 O 0.01732 0.77398 0.71768
 O379 O -0.03660 0.75083 0.76850
 O380 O -0.03267 0.72691 0.76580
 O381 O -0.00084 0.76836 0.78687
 O382 O 0.02451 0.76742 0.78203
 O383 O -0.01786 0.78700 0.75103
 O384 O -0.01723 0.78212 0.72588
 O385 O -0.03660 0.76782 0.75155
 O386 O -0.03145 0.76641 0.72544
 O387 O -0.00085 0.78714 0.76790
 O388 O 0.02504 0.78175 0.76643
 O389 O -0.01803 0.75165 0.78681
 O390 O -0.01340 0.72617 0.78225
 O391 O 0.03785 0.74913 0.73257
 O392 O 0.03260 0.77411 0.73364
 O393 O 0.00128 0.73252 0.71237
 O394 O -0.02416 0.73476 0.71811
 O395 O 0.01791 0.71258 0.74896
 O396 O 0.01482 0.71822 0.77432
 Zr397 Zr 0.01723 0.73298 0.75769
 O398 O 0.00500 0.74562 0.77119
 Zr399 Zr -0.00743 0.73315 0.73277
 O400 O -0.02087 0.74537 0.74546
 Zr401 Zr 0.01741 0.75782 0.73299
 O402 O 0.00489 0.77136 0.74529
 Zr403 Zr -0.01638 0.74212 0.76687
 O404 O -0.00422 0.72837 0.75422
 Zr405 Zr 0.00829 0.76701 0.76672
 O406 O 0.02192 0.75443 0.75440
 Zr407 Zr -0.01655 0.76679 0.74205
 O408 O -0.00400 0.75457 0.72821
 O409 O 0.01385 0.73652 0.73634
 O410 O -0.01310 0.76355 0.76344
 C411 C 0.04376 0.73918 0.73962
 C412 C 0.01056 0.70654 0.73930
 C413 C 0.01110 0.73968 0.70641
 C414 C -0.04246 0.76090 0.76163
 C415 C -0.01105 0.76165 0.79269
 C416 C -0.01093 0.79295 0.76102
 H417 H 0.00723 0.74331 0.78111
 H418 H 0.00716 0.78124 0.74292
 H419 H 0.01984 0.73048 0.73033
 H420 H -0.03079 0.74297 0.74335
 H421 H -0.02822 0.71798 0.76279
 H422 H -0.02968 0.71882 0.73893
 H423 H 0.02345 0.78823 0.75843
 H424 H 0.03739 0.77335 0.74288
 H425 H -0.02142 0.72658 0.78892
 H426 H 0.02227 0.71095 0.77347
 H427 H -0.00830 0.78749 0.72625
 H428 H 0.00787 0.77380 0.71327
 H429 H 0.03708 0.74344 0.77313
 H430 H 0.02370 0.75874 0.78774
 H431 H -0.02247 0.74341 0.71253
 H432 H -0.03806 0.75856 0.72723
 O433 O -0.01814 -0.03787 -0.00094
 O434 O -0.01624 -0.03338 0.02310
 O435 O -0.03755 -0.00087 -0.01782
 O436 O -0.03336 0.02231 -0.01829
 O437 O -0.00061 -0.01824 -0.03769
 O438 O 0.02390 -0.01722 -0.03247
 O439 O 0.00073 0.03646 0.01858
 O440 O -0.02320 0.03245 0.01584
 O441 O 0.01829 0.00071 0.03678
 O442 O 0.01738 -0.02463 0.03184
 O443 O 0.03687 0.01795 0.00103
 O444 O 0.03198 0.01732 -0.02415
 O445 O 0.01769 0.03657 0.00162
 O446 O 0.01627 0.03151 -0.02451
 O447 O 0.03705 0.00088 0.01783
 O448 O 0.03172 -0.02504 0.01622
 O449 O 0.00156 0.01784 0.03680
 O450 O -0.02391 0.01312 0.03222
 O451 O -0.00093 -0.03790 -0.01769
 O452 O 0.02405 -0.03256 -0.01657
 O453 O -0.01757 -0.00133 -0.03773
 O454 O -0.01538 0.02410 -0.03187
 O455 O -0.03747 -0.01817 -0.00121
 O456 O -0.03183 -0.01511 0.02417
 Zr457 Zr -0.01708 -0.01742 0.00754
 O458 O -0.00445 -0.00518 0.02108
 Zr459 Zr -0.01696 0.00732 -0.01728
 O460 O -0.00475 0.02078 -0.00454
 Zr461 Zr 0.00775 -0.01743 -0.01717
 O462 O 0.02127 -0.00488 -0.00482
 Zr463 Zr -0.00798 0.01621 0.01685
 O464 O -0.02172 0.00403 0.00415
 Zr465 Zr 0.01694 -0.00837 0.01660
 O466 O 0.00438 -0.02202 0.00422
 Zr467 Zr 0.01667 0.01655 -0.00798
 O468 O 0.00446 0.00399 -0.02186
 O469 O -0.01355 -0.01397 -0.01380
 O470 O 0.01345 0.01302 0.01340
 C471 C -0.01086 -0.04388 -0.01066
 C472 C -0.04352 -0.01083 -0.01084
 C473 C -0.01039 -0.01111 -0.04372
 C474 C 0.01079 0.04237 0.01173
 C475 C 0.01158 0.01088 0.04264
 C476 C 0.04282 0.01104 0.01101
 H477 H -0.00674 -0.00745 0.03099
 H478 H 0.03116 -0.00709 -0.00719
 H479 H -0.01958 -0.01996 -0.01984
 H480 H -0.00716 0.03069 -0.00661
 H481 H -0.03213 0.02797 0.01282
 H482 H -0.03131 0.02949 -0.01103
 H483 H 0.03821 -0.02338 0.00825
 H484 H 0.02330 -0.03738 -0.00735
 H485 H -0.02350 0.02113 0.03892
 H486 H -0.03908 -0.02259 0.02329
 H487 H 0.03741 0.00845 -0.02376
 H488 H 0.02372 -0.00775 -0.03682
 H489 H -0.00658 -0.03728 0.02289
 H490 H 0.00871 -0.02389 0.03754
 H491 H -0.00673 0.02248 -0.03745
 H492 H 0.00840 0.03808 -0.02269
 O493 O 0.03769 0.51837 0.50073
 O494 O 0.03312 0.51647 0.47673
 O495 O 0.00071 0.53773 0.51772
 O496 O -0.02245 0.53349 0.51824
 O497 O 0.01822 0.50085 0.53760
 O498 O 0.01726 0.47633 0.53242
 O499 O -0.03664 0.49938 0.48151
 O500 O -0.03264 0.52331 0.48415
 O501 O -0.00096 0.48179 0.46322
 O502 O 0.02444 0.48283 0.46807
 O503 O -0.01798 0.46323 0.49902
 O504 O -0.01730 0.46813 0.52418
 O505 O -0.03667 0.48240 0.49847
 O506 O -0.03150 0.48382 0.52458
 O507 O -0.00095 0.46308 0.48219
 O508 O 0.02494 0.46849 0.48369
 O509 O -0.01812 0.49847 0.46324
 O510 O -0.01339 0.52398 0.46770
 O511 O 0.03783 0.50117 0.51750
 O512 O 0.03253 0.47619 0.51649
 O513 O 0.00126 0.51776 0.53765
 O514 O -0.02416 0.51552 0.53186
 O515 O 0.01796 0.53767 0.50107
 O516 O 0.01481 0.53201 0.47570
 Zr517 Zr 0.01722 0.51727 0.49234
 O518 O 0.00497 0.50460 0.47884
 Zr519 Zr -0.00743 0.51712 0.51723
 O520 O -0.02090 0.50486 0.50455
 Zr521 Zr 0.01737 0.49247 0.51709
 O522 O 0.00482 0.47890 0.50479
 Zr523 Zr -0.01640 0.50809 0.48314
 O524 O -0.00422 0.52187 0.49578
 Zr525 Zr 0.00823 0.48322 0.48336
 O526 O 0.02188 0.49583 0.49568
 Zr527 Zr -0.01661 0.48344 0.50800
 O528 O -0.00404 0.49570 0.52183
 O529 O 0.01385 0.51376 0.51370
 O530 O -0.01315 0.48666 0.48661
 C531 C 0.04376 0.51111 0.51042
 C532 C 0.01064 0.54371 0.51071
 C533 C 0.01107 0.51061 0.54364
 C534 C -0.04252 0.48931 0.48838
 C535 C -0.01119 0.48845 0.45740
 C536 C -0.01106 0.45728 0.48904
 H537 H 0.00720 0.50688 0.46892
 H538 H 0.00707 0.46902 0.50717
 H539 H 0.01985 0.51980 0.51971
 H540 H -0.03080 0.50726 0.50664
 H541 H -0.02816 0.53225 0.48714
 H542 H -0.02964 0.53142 0.51100
 H543 H 0.02335 0.46202 0.49170
 H544 H 0.03731 0.47693 0.50725
 H545 H -0.02142 0.52354 0.46103
 H546 H 0.02227 0.53929 0.47655
 H547 H -0.00840 0.46274 0.52379
 H548 H 0.00780 0.47648 0.53679
 H549 H 0.03701 0.50681 0.47690
 H550 H 0.02358 0.49145 0.46229
 H551 H -0.02251 0.50687 0.53745
 H552 H -0.03809 0.49168 0.52278
 O553 O 0.48189 -0.03790 0.49918
 O554 O 0.48373 -0.03334 0.52319
 O555 O 0.46256 -0.00091 0.48214
 O556 O 0.46679 0.02225 0.48158
 O557 O 0.49947 -0.01844 0.46238
 O558 O 0.52399 -0.01740 0.46762
 O559 O 0.50077 0.03647 0.51844
 O560 O 0.47685 0.03244 0.51574
 O561 O 0.51832 0.00076 0.53681
 O562 O 0.51737 -0.02462 0.53195
 O563 O 0.53694 0.01788 0.50107
 O564 O 0.53217 0.01718 0.47591
 O565 O 0.51776 0.03652 0.50151
 O566 O 0.51640 0.03130 0.47538
 O567 O 0.53708 0.00086 0.51792
 O568 O 0.53174 -0.02508 0.51636
 O569 O 0.50163 0.01793 0.53674
 O570 O 0.47615 0.01318 0.53218
 O571 O 0.49914 -0.03802 0.48247
 O572 O 0.52411 -0.03269 0.48358
 O573 O 0.48255 -0.00149 0.46228
 O574 O 0.48479 0.02397 0.46804
 O575 O 0.46257 -0.01817 0.49878
 O576 O 0.46818 -0.01504 0.52418
 Zr577 Zr 0.48296 -0.01743 0.50758
 O578 O 0.49558 -0.00516 0.52111
 Zr579 Zr 0.48316 0.00723 0.48268
 O580 O 0.49536 0.02072 0.49540
 Zr581 Zr 0.50782 -0.01755 0.48291
 O582 O 0.52135 -0.00498 0.49524
 Zr583 Zr 0.49208 0.01621 0.51680
 O584 O 0.47835 0.00401 0.50412
 Zr585 Zr 0.51697 -0.00839 0.51666
 O586 O 0.50441 -0.02206 0.50431
 Zr587 Zr 0.51678 0.01645 0.49201
 O588 O 0.50458 0.00386 0.47814
 O589 O 0.48653 -0.01405 0.48624
 O590 O 0.51351 0.01299 0.51339
 C591 C 0.48919 -0.04396 0.48950
 C592 C 0.45656 -0.01084 0.48912
 C593 C 0.48970 -0.01131 0.45632
 C594 C 0.51083 0.04236 0.51157
 C595 C 0.51164 0.01098 0.54262
 C596 C 0.54287 0.01100 0.51109
 H597 H 0.49328 -0.00740 0.53102
 H598 H 0.53123 -0.00721 0.49290
 H599 H 0.48050 -0.02006 0.48021
 H600 H 0.49295 0.03062 0.49329
 H601 H 0.46793 0.02795 0.51272
 H602 H 0.46881 0.02942 0.48886
 H603 H 0.53826 -0.02343 0.50841
 H604 H 0.52336 -0.03747 0.49281
 H605 H 0.47656 0.02121 0.53886
 H606 H 0.46090 -0.02250 0.52330
 H607 H 0.53752 0.00826 0.47627
 H608 H 0.52381 -0.00795 0.46323
 H609 H 0.49339 -0.03723 0.52304
 H610 H 0.50871 -0.02381 0.53767
 H611 H 0.49342 0.02228 0.46244
 H612 H 0.50856 0.03792 0.47717
 O613 O 0.48138 0.46242 -0.00107
 O614 O 0.48329 0.46702 0.02295
 O615 O 0.46204 0.49936 -0.01814
 O616 O 0.46626 0.52253 -0.01870
 O617 O 0.49894 0.48183 -0.03792
 O618 O 0.52346 0.48283 -0.03271
 O619 O 0.50039 0.53680 0.01808
 O620 O 0.47646 0.53283 0.01536
 O621 O 0.51786 0.50110 0.03647
 O622 O 0.51694 0.47575 0.03164
 O623 O 0.53649 0.51814 0.00060
 O624 O 0.53159 0.51741 -0.02456
 O625 O 0.51734 0.53680 0.00112
 O626 O 0.51590 0.53161 -0.02499
 O627 O 0.53664 0.50116 0.01750
 O628 O 0.53127 0.47524 0.01603
 O629 O 0.50116 0.51825 0.03640
 O630 O 0.47569 0.51358 0.03182
 O631 O 0.49859 0.46227 -0.01782
 O632 O 0.52358 0.46757 -0.01673
 O633 O 0.48201 0.49877 -0.03803
 O634 O 0.48425 0.52423 -0.03231
 O635 O 0.46209 0.48214 -0.00144
 O636 O 0.46774 0.48531 0.02392
 Zr637 Zr 0.48248 0.48290 0.00730
 O638 O 0.49513 0.49519 0.02079
 Zr639 Zr 0.48264 0.50752 -0.01763
 O640 O 0.49487 0.52102 -0.00496
 Zr641 Zr 0.50730 0.48272 -0.01741
 O642 O 0.52085 0.49532 -0.00512
 Zr643 Zr 0.49164 0.51656 0.01645
 O644 O 0.47787 0.50434 0.00382
 Zr645 Zr 0.51652 0.49194 0.01632
 O646 O 0.50393 0.47825 0.00401
 Zr647 Zr 0.51629 0.51674 -0.00838
 O648 O 0.50406 0.50413 -0.02220
 O649 O 0.48601 0.48625 -0.01405
 O650 O 0.51306 0.51332 0.01302
 C651 C 0.48864 0.45634 -0.01076
 C652 C 0.45606 0.48944 -0.01112
 C653 C 0.48916 0.48895 -0.04398
 C654 C 0.51046 0.54266 0.01121
 C655 C 0.51115 0.51130 0.04228
 C656 C 0.54243 0.51127 0.01062
 H657 H 0.49283 0.49297 0.03070
 H658 H 0.53073 0.49307 -0.00748
 H659 H 0.47997 0.48023 -0.02006
 H660 H 0.49248 0.53093 -0.00708
 H661 H 0.46752 0.52836 0.01235
 H662 H 0.46834 0.52976 -0.01150
 H663 H 0.53775 0.47685 0.00804
 H664 H 0.52282 0.46280 -0.00749
 H665 H 0.47610 0.52162 0.03848
 H666 H 0.46047 0.47784 0.02308
 H667 H 0.53699 0.50852 -0.02414
 H668 H 0.52329 0.49227 -0.03711
 H669 H 0.49294 0.46309 0.02274
 H670 H 0.50825 0.47651 0.03732
 H671 H 0.49290 0.52256 -0.03788
 H672 H 0.50806 0.53821 -0.02319
 O673 O 0.78761 0.25040 0.48141
 O674 O 0.78298 0.22639 0.48330
 O675 O 0.75067 0.26747 0.46207
 O676 O 0.72750 0.26798 0.46628
 O677 O 0.76827 0.28726 0.49898
 O678 O 0.76732 0.28207 0.52351
 O679 O 0.71326 0.23130 0.50036
 O680 O 0.71723 0.23395 0.47642
 O681 O 0.74893 0.21293 0.51795
 O682 O 0.77432 0.21772 0.51695
 O683 O 0.73202 0.24875 0.53654
 O684 O 0.73276 0.27390 0.53167
 O685 O 0.71330 0.24825 0.51735
 O686 O 0.71854 0.27435 0.51596
 O687 O 0.74900 0.23189 0.53668
 O688 O 0.77490 0.23335 0.53129
 O689 O 0.73173 0.21299 0.50125
 O690 O 0.73643 0.21746 0.47574
 O691 O 0.78781 0.26716 0.49864
 O692 O 0.78256 0.26611 0.52363
 O693 O 0.75128 0.28735 0.48205
 O694 O 0.72584 0.28162 0.48427
 O695 O 0.76787 0.25079 0.46211
 O696 O 0.76465 0.22542 0.46773
 Zr697 Zr 0.76712 0.24203 0.48250
 O698 O 0.75486 0.22855 0.49515
 Zr699 Zr 0.74254 0.26696 0.48267
 O700 O 0.72905 0.25430 0.49491
 Zr701 Zr 0.76737 0.26676 0.50734
 O702 O 0.75481 0.25448 0.52090
 Zr703 Zr 0.73349 0.23289 0.49165
 O704 O 0.74569 0.24551 0.47789
 Zr705 Zr 0.75816 0.23305 0.51655
 O706 O 0.77182 0.24534 0.50396
 Zr707 Zr 0.73338 0.25773 0.51633
 O708 O 0.74597 0.27154 0.50410
 O709 O 0.76380 0.26338 0.48605
 O710 O 0.73678 0.23634 0.51309
 C711 C 0.79370 0.26009 0.48868
 C712 C 0.76058 0.26047 0.45609
 C713 C 0.76112 0.29331 0.48920
 C714 C 0.70742 0.23818 0.51044
 C715 C 0.73867 0.20713 0.51127
 C716 C 0.73891 0.23876 0.54248
 H717 H 0.75705 0.21864 0.49286
 H718 H 0.75708 0.25685 0.53078
 H719 H 0.76981 0.26939 0.48001
 H720 H 0.71915 0.25641 0.49251
 H721 H 0.72171 0.23693 0.46749
 H722 H 0.72027 0.26078 0.46836
 H723 H 0.77332 0.24134 0.53778
 H724 H 0.78732 0.25687 0.52287
 H725 H 0.72839 0.21081 0.47617
 H726 H 0.77211 0.22626 0.46046
 H727 H 0.74167 0.27350 0.53706
 H728 H 0.75787 0.28648 0.52334
 H729 H 0.78691 0.22657 0.49296
 H730 H 0.77347 0.21198 0.50829
 H731 H 0.72752 0.28720 0.49292
 H732 H 0.71193 0.27256 0.50810
 O733 O 0.76857 0.78805 -0.00115
 O734 O 0.76667 0.78345 0.02285
 O735 O 0.78780 0.75103 -0.01821
 O736 O 0.78351 0.72788 -0.01880
 O737 O 0.75096 0.76868 -0.03804
 O738 O 0.72644 0.76774 -0.03287
 O739 O 0.74940 0.71373 0.01795
 O740 O 0.77333 0.71764 0.01527
 O741 O 0.73199 0.74947 0.03632
 O742 O 0.73300 0.77484 0.03149
 O743 O 0.71332 0.73246 0.00045
 O744 O 0.71816 0.73316 -0.02469
 O745 O 0.73242 0.71375 0.00097
 O746 O 0.73387 0.71896 -0.02516
 O747 O 0.71322 0.74945 0.01734
 O748 O 0.71865 0.77535 0.01587
 O749 O 0.74865 0.73227 0.03626
 O750 O 0.77413 0.73690 0.03174
 O751 O 0.75134 0.78825 -0.01791
 O752 O 0.72635 0.78300 -0.01688
 O753 O 0.76783 0.75168 -0.03813
 O754 O 0.76551 0.72623 -0.03242
 O755 O 0.78781 0.76827 -0.00152
 O756 O 0.78217 0.76511 0.02384
 Zr757 Zr 0.76742 0.76757 0.00721
 O758 O 0.75474 0.75532 0.02067
 Zr759 Zr 0.76717 0.74294 -0.01774
 O760 O 0.75492 0.72947 -0.00508
 Zr761 Zr 0.74259 0.76781 -0.01754
 O762 O 0.72901 0.75525 -0.00527
 Zr763 Zr 0.75818 0.73394 0.01633
 O764 O 0.77197 0.74612 0.00372
 Zr765 Zr 0.73336 0.75863 0.01617
 O766 O 0.74598 0.77227 0.00389
 Zr767 Zr 0.73351 0.73382 -0.00852
 O768 O 0.74577 0.74639 -0.02233
 O769 O 0.76387 0.76423 -0.01415
 O770 O 0.73676 0.73724 0.01288
 C771 C 0.76131 0.79415 -0.01082
 C772 C 0.79381 0.76094 -0.01119
 C773 C 0.76072 0.76152 -0.04409
 C774 C 0.73931 0.70788 0.01106
 C775 C 0.73868 0.73925 0.04214
 C776 C 0.70740 0.73935 0.01046
 H777 H 0.75705 0.75754 0.03059
 H778 H 0.71914 0.75752 -0.00764
 H779 H 0.76992 0.77023 -0.02015
 H780 H 0.75729 0.71956 -0.00720
 H781 H 0.78227 0.72209 0.01227
 H782 H 0.78143 0.72068 -0.01158
 H783 H 0.71215 0.77376 0.00787
 H784 H 0.72711 0.78776 -0.00763
 H785 H 0.77370 0.72886 0.03840
 H786 H 0.78947 0.77255 0.02301
 H787 H 0.71284 0.74209 -0.02433
 H788 H 0.72658 0.75829 -0.03728
 H789 H 0.75703 0.78739 0.02267
 H790 H 0.74166 0.77402 0.03721
 H791 H 0.75688 0.72793 -0.03802
 H792 H 0.74167 0.71231 -0.02333
 O793 O 1.00094 0.21204 0.23137
 O794 O 0.97692 0.21660 0.23328
 O795 O 1.01798 0.24899 0.21199
 O796 O 1.01846 0.27218 0.21615
 O797 O 1.03780 0.23156 0.24892
 O798 O 1.03260 0.23253 0.27346
 O799 O 0.98177 0.28637 0.25031
 O800 O 0.98449 0.28242 0.22635
 O801 O 0.96346 0.25069 0.26784
 O802 O 0.96828 0.22530 0.26689
 O803 O 0.99932 0.26774 0.28645
 O804 O 1.02449 0.26706 0.28153
 O805 O 0.99874 0.28641 0.26730
 O806 O 1.02483 0.28132 0.26586
 O807 O 0.98244 0.25073 0.28661
 O808 O 0.98388 0.22483 0.28126
 O809 O 0.96351 0.26782 0.25109
 O810 O 0.96802 0.26314 0.22561
 O811 O 1.01771 0.21193 0.24859
 O812 O 1.01666 0.21722 0.27357
 O813 O 1.03786 0.24851 0.23197
 O814 O 1.03213 0.27393 0.23415
 O815 O 1.00129 0.23174 0.21206
 O816 O 0.97594 0.23489 0.21767
 Zr817 Zr 0.99256 0.23251 0.23245
 O818 O 0.97909 0.24477 0.24508
 Zr819 Zr 1.01747 0.25718 0.23258
 O820 O 1.00482 0.27066 0.24481
 Zr821 Zr 1.01729 0.23239 0.25728
 O822 O 1.00501 0.24495 0.27082
 Zr823 Zr 0.98342 0.26615 0.24156
 O824 O 0.99602 0.25395 0.22780
 Zr825 Zr 0.98359 0.24153 0.26648
 O826 O 0.99588 0.22787 0.25391
 Zr827 Zr 1.00827 0.26638 0.26624
 O828 O 1.02206 0.25381 0.25401
 O829 O 1.01390 0.23590 0.23598
 O830 O 0.98688 0.26291 0.26300
 C831 C 1.01064 0.20599 0.23864
 C832 C 1.01096 0.23904 0.20602
 C833 C 1.04383 0.23871 0.23915
 C834 C 0.98863 0.29224 0.26041
 C835 C 0.95765 0.26089 0.26112
 C836 C 0.98932 0.26085 0.29240
 H837 H 0.96918 0.24253 0.24278
 H838 H 1.00739 0.24270 0.28071
 H839 H 1.01991 0.22990 0.22996
 H840 H 1.00692 0.28058 0.24241
 H841 H 0.98747 0.27795 0.21741
 H842 H 1.01132 0.27944 0.21827
 H843 H 0.99190 0.22643 0.28772
 H844 H 1.00742 0.21244 0.27284
 H845 H 0.96137 0.27117 0.22601
 H846 H 0.97677 0.22741 0.21042
 H847 H 1.02404 0.25820 0.28699
 H848 H 1.03700 0.24199 0.27328
 H849 H 0.97714 0.21267 0.24293
 H850 H 0.96255 0.22611 0.25823
 H851 H 1.03767 0.27231 0.24284
 H852 H 1.02302 0.28791 0.25799
 O853 O 0.78786 0.99906 0.76850
 O854 O 0.78327 1.02306 0.76662
 O855 O 0.75091 0.98196 0.78787
 O856 O 0.72775 0.98133 0.78363
 O857 O 0.76846 0.96219 0.75093
 O858 O 0.76744 0.96738 0.72640
 O859 O 0.71352 1.01810 0.74954
 O860 O 0.71747 1.01538 0.77348
 O861 O 0.74920 1.03651 0.73205
 O862 O 0.77458 1.03171 0.73299
 O863 O 0.73215 1.00068 0.71340
 O864 O 0.73290 0.97550 0.71825
 O865 O 0.71350 1.00114 0.73255
 O866 O 0.71868 0.97504 0.73397
 O867 O 0.74912 1.01759 0.71328
 O868 O 0.77504 1.01612 0.71860
 O869 O 0.73205 1.03642 0.74876
 O870 O 0.73673 1.03187 0.77425
 O871 O 0.78802 0.98233 0.75125
 O872 O 0.78270 0.98337 0.72627
 O873 O 0.75152 0.96205 0.76787
 O874 O 0.72606 0.96773 0.76563
 O875 O 0.76813 0.99867 0.78782
 O876 O 0.76498 1.02402 0.78219
 Zr877 Zr 0.76739 1.00740 0.76742
 O878 O 0.75511 1.02086 0.75479
 Zr879 Zr 0.74277 0.98243 0.76725
 O880 O 0.72927 0.99508 0.75503
 Zr881 Zr 0.76756 0.98269 0.74257
 O882 O 0.75498 0.99496 0.72902
 Zr883 Zr 0.73374 1.01649 0.75829
 O884 O 0.74595 1.00388 0.77204
 Zr885 Zr 0.75836 1.01639 0.73339
 O886 O 0.77204 1.00411 0.74596
 Zr887 Zr 0.73356 0.99167 0.73359
 O888 O 0.74615 0.97787 0.74582
 O889 O 0.76404 0.98604 0.76387
 O890 O 0.73699 1.01306 0.73685
 C891 C 0.79394 0.98940 0.76121
 C892 C 0.76082 0.98900 0.79386
 C893 C 0.76135 0.95612 0.76071
 C894 C 0.70765 1.01123 0.73945
 C895 C 0.73900 1.04231 0.73876
 C896 C 0.73901 1.01072 0.70748
 H897 H 0.75733 1.03078 0.75709
 H898 H 0.75722 0.99260 0.71914
 H899 H 0.77005 0.98005 0.76991
 H900 H 0.71937 0.99295 0.75742
 H901 H 0.72194 1.01239 0.78242
 H902 H 0.72054 0.98854 0.78158
 H903 H 0.77342 1.00814 0.71210
 H904 H 0.78746 0.99263 0.72701
 H905 H 0.72869 1.03852 0.77384
 H906 H 0.77245 1.02319 0.78946
 H907 H 0.74177 0.97595 0.71283
 H908 H 0.75799 0.96297 0.72657
 H909 H 0.78719 1.02287 0.75697
 H910 H 0.77376 1.03743 0.74166
 H911 H 0.72774 0.96216 0.75697
 H912 H 0.71208 0.97683 0.74182
 O913 O 0.74915 0.53772 0.23144
 O914 O 0.77316 0.53316 0.23334
 O915 O 0.73208 0.50077 0.21203
 O916 O 0.73154 0.47759 0.21620
 O917 O 0.71231 0.51824 0.24897
 O918 O 0.71752 0.51727 0.27350
 O919 O 0.76829 0.46338 0.25030
 O920 O 0.76558 0.46737 0.22636
 O921 O 0.78663 0.49905 0.26793
 O922 O 0.78185 0.52444 0.26697
 O923 O 0.75082 0.48202 0.28649
 O924 O 0.72567 0.48268 0.28158
 O925 O 0.75135 0.46334 0.26729
 O926 O 0.72525 0.46848 0.26585
 O927 O 0.76769 0.49904 0.28666
 O928 O 0.76624 0.52495 0.28130
 O929 O 0.78656 0.48191 0.25118
 O930 O 0.78205 0.48664 0.22568
 O931 O 0.73241 0.53785 0.24865
 O932 O 0.73349 0.53255 0.27364
 O933 O 0.71220 0.50129 0.23201
 O934 O 0.71793 0.47585 0.23419
 O935 O 0.74877 0.51801 0.21211
 O936 O 0.77413 0.51486 0.21774
 Zr937 Zr 0.75752 0.51725 0.23250
 O938 O 0.77100 0.50499 0.24514
 Zr939 Zr 0.73259 0.49260 0.23262
 O940 O 0.74526 0.47911 0.24484
 Zr941 Zr 0.73282 0.51739 0.25733
 O942 O 0.74510 0.50482 0.27087
 Zr943 Zr 0.76666 0.48362 0.24160
 O944 O 0.75403 0.49581 0.22785
 Zr945 Zr 0.76652 0.50824 0.26653
 O946 O 0.75422 0.52190 0.25397
 Zr947 Zr 0.74184 0.48339 0.26627
 O948 O 0.72803 0.49597 0.25405
 O949 O 0.73617 0.51387 0.23603
 O950 O 0.76322 0.48685 0.26304
 C951 C 0.73948 0.54378 0.23871
 C952 C 0.73909 0.51070 0.20606
 C953 C 0.70625 0.51110 0.23919
 C954 C 0.76143 0.45750 0.26038
 C955 C 0.79243 0.48884 0.26122
 C956 C 0.76082 0.48893 0.29245
 H957 H 0.78091 0.50722 0.24285
 H958 H 0.74274 0.50706 0.28075
 H959 H 0.73016 0.51988 0.23000
 H960 H 0.74315 0.46920 0.24242
 H961 H 0.76259 0.47185 0.21743
 H962 H 0.73874 0.47037 0.21827
 H963 H 0.75824 0.52335 0.28778
 H964 H 0.74272 0.53735 0.27289
 H965 H 0.78871 0.47860 0.22609
 H966 H 0.77328 0.52233 0.21048
 H967 H 0.72608 0.49158 0.28699
 H968 H 0.71313 0.50781 0.27332
 H969 H 0.77298 0.53706 0.24301
 H970 H 0.78758 0.52362 0.25831
 H971 H 0.71237 0.47750 0.24285
 H972 H 0.72705 0.46187 0.25800
 O973 O 0.53755 0.23156 0.74936
 O974 O 0.53297 0.23344 0.77339
 O975 O 0.50062 0.21220 0.73223
 O976 O 0.47744 0.21636 0.73174
 O977 O 0.51814 0.24914 0.71251
 O978 O 0.51719 0.27366 0.71774
 O979 O 0.46324 0.25045 0.76850
 O980 O 0.46717 0.22652 0.76577
 O981 O 0.49896 0.26798 0.78690
 O982 O 0.52431 0.26707 0.78209
 O983 O 0.48195 0.28661 0.75104
 O984 O 0.48265 0.28173 0.72587
 O985 O 0.46325 0.26743 0.75154
 O986 O 0.46841 0.26603 0.72544
 O987 O 0.49894 0.28676 0.76794
 O988 O 0.52484 0.28141 0.76648
 O989 O 0.48179 0.25125 0.78682
 O990 O 0.48643 0.22577 0.78225
 O991 O 0.53772 0.24879 0.73262
 O992 O 0.53246 0.27377 0.73372
 O993 O 0.50116 0.23220 0.71238
 O994 O 0.47573 0.23437 0.71811
 O995 O 0.51783 0.21225 0.74895
 O996 O 0.51465 0.21784 0.77432
 Zr997 Zr 0.51709 0.23262 0.75773
 O998 O 0.50483 0.24525 0.77122
 Zr999 Zr 0.49246 0.23278 0.73278
 O1000 O 0.47898 0.24499 0.74546
 Zr1001 Zr 0.51728 0.25748 0.73303
 O1002 O 0.50473 0.27100 0.74533
 Zr1003 Zr 0.48346 0.24173 0.76687
 O1004 O 0.49564 0.22799 0.75423
 Zr1005 Zr 0.50811 0.26664 0.76676
 O1006 O 0.52177 0.25409 0.75445
 Zr1007 Zr 0.48330 0.26641 0.74205
 O1008 O 0.49587 0.25421 0.72823
 O1009 O 0.51373 0.23618 0.73638
 O1010 O 0.48673 0.26317 0.76345
 C1011 C 0.54363 0.23883 0.73967
 C1012 C 0.51054 0.20623 0.73924
 C1013 C 0.51099 0.23937 0.70644
 C1014 C 0.45739 0.26053 0.76162
 C1015 C 0.48875 0.26125 0.79270
 C1016 C 0.48884 0.29256 0.76106
 H1017 H 0.50706 0.24294 0.78113
 H1018 H 0.50699 0.28089 0.74297
 H1019 H 0.51973 0.23016 0.73036
 H1020 H 0.46907 0.24258 0.74334
 H1021 H 0.47163 0.21759 0.76276
 H1022 H 0.47020 0.21845 0.73890
 H1023 H 0.52324 0.28790 0.75849
 H1024 H 0.53724 0.27301 0.74296
 H1025 H 0.47840 0.22618 0.78890
 H1026 H 0.52212 0.21058 0.77348
 H1027 H 0.49153 0.28716 0.72631
 H1028 H 0.50774 0.27348 0.71333
 H1029 H 0.53692 0.24309 0.77319
 H1030 H 0.52352 0.25837 0.78777
 H1031 H 0.47739 0.24303 0.71255
 H1032 H 0.46180 0.25817 0.72722
 O1033 O 0.28767 0.75119 0.48170
 O1034 O 0.28308 0.72718 0.48356
 O1035 O 0.25069 0.76822 0.46238
 O1036 O 0.22753 0.76871 0.46660
 O1037 O 0.26829 0.78802 0.49929
 O1038 O 0.26736 0.78282 0.52381
 O1039 O 0.21337 0.73194 0.50068
 O1040 O 0.21728 0.73464 0.47676
 O1041 O 0.24913 0.71362 0.51817
 O1042 O 0.27447 0.71850 0.51724
 O1043 O 0.23212 0.74945 0.53685
 O1044 O 0.23278 0.77457 0.53200
 O1045 O 0.21338 0.74890 0.51767
 O1046 O 0.21859 0.77502 0.51627
 O1047 O 0.24911 0.73259 0.53698
 O1048 O 0.27500 0.73410 0.53159
 O1049 O 0.23193 0.71365 0.50147
 O1050 O 0.23654 0.71822 0.47598
 O1051 O 0.28787 0.76793 0.49893
 O1052 O 0.28262 0.76687 0.52393
 O1053 O 0.25129 0.78809 0.48237
 O1054 O 0.22586 0.78232 0.48461
 O1055 O 0.26792 0.75156 0.46240
 O1056 O 0.26474 0.72619 0.46801
 Zr1057 Zr 0.26720 0.74280 0.48279
 O1058 O 0.25496 0.72930 0.49544
 Zr1059 Zr 0.24258 0.76768 0.48299
 O1060 O 0.22912 0.75499 0.49522
 Zr1061 Zr 0.26743 0.76751 0.50764
 O1062 O 0.25488 0.75520 0.52119
 Zr1063 Zr 0.23359 0.73359 0.49195
 O1064 O 0.24575 0.74624 0.47819
 Zr1065 Zr 0.25826 0.73378 0.51684
 O1066 O 0.27191 0.74610 0.50425
 Zr1067 Zr 0.23345 0.75842 0.51664
 O1068 O 0.24601 0.77225 0.50442
 O1069 O 0.26385 0.76414 0.48635
 O1070 O 0.23688 0.73703 0.51339
 C1071 C 0.29377 0.76087 0.48897
 C1072 C 0.26060 0.76123 0.45638
 C1073 C 0.26113 0.79406 0.48952
 C1074 C 0.20751 0.73882 0.51075
 C1075 C 0.23892 0.70778 0.51145
 C1076 C 0.23903 0.73946 0.54279
 H1077 H 0.25719 0.71939 0.49313
 H1078 H 0.25715 0.75757 0.53108
 H1079 H 0.26985 0.77016 0.48031
 H1080 H 0.21921 0.75709 0.49282
 H1081 H 0.22173 0.73766 0.46782
 H1082 H 0.22031 0.76150 0.46868
 H1083 H 0.27341 0.74209 0.53808
 H1084 H 0.28739 0.75764 0.52317
 H1085 H 0.22851 0.71155 0.47640
 H1086 H 0.27219 0.72704 0.46073
 H1087 H 0.24172 0.77423 0.53734
 H1088 H 0.25791 0.78721 0.52365
 H1089 H 0.28703 0.72737 0.49321
 H1090 H 0.27367 0.71280 0.50855
 H1091 H 0.22755 0.78790 0.49326
 H1092 H 0.21196 0.77321 0.50843
 O1093 O 0.26808 0.28757 0.99935
 O1094 O 0.26620 0.28299 1.02336
 O1095 O 0.28742 0.25062 0.98230
 O1096 O 0.28320 0.22745 0.98172
 O1097 O 0.25052 0.26814 0.96249
 O1098 O 0.22599 0.26711 0.96767
 O1099 O 0.24914 0.21320 1.01850
 O1100 O 0.27306 0.21717 1.01579
 O1101 O 0.23166 0.24890 1.03687
 O1102 O 0.23257 0.27426 1.03202
 O1103 O 0.21300 0.23182 1.00100
 O1104 O 0.21784 0.23253 0.97585
 O1105 O 0.23216 0.21317 1.00152
 O1106 O 0.23358 0.21836 0.97540
 O1107 O 0.21287 0.24880 1.01790
 O1108 O 0.21821 0.27473 1.01642
 O1109 O 0.24837 0.23176 1.03680
 O1110 O 0.27384 0.23645 1.03225
 O1111 O 0.25084 0.28771 0.98260
 O1112 O 0.22587 0.28239 0.98365
 O1113 O 0.26744 0.25120 0.96239
 O1114 O 0.26520 0.22574 0.96811
 O1115 O 0.28738 0.26785 0.99899
 O1116 O 0.28176 0.26470 1.02435
 Zr1117 Zr 0.26700 0.26709 1.00772
 O1118 O 0.25437 0.25481 1.02120
 Zr1119 Zr 0.26682 0.24246 0.98279
 O1120 O 0.25461 0.22896 0.99545
 Zr1121 Zr 0.24215 0.26724 0.98299
 O1122 O 0.22862 0.25465 0.99528
 Zr1123 Zr 0.25787 0.23344 1.01686
 O1124 O 0.27161 0.24566 1.00424
 Zr1125 Zr 0.23298 0.25805 1.01671
 O1126 O 0.24554 0.27173 1.00442
 Zr1127 Zr 0.23319 0.23323 0.99202
 O1128 O 0.24540 0.24583 0.97821
 O1129 O 0.26344 0.26373 0.98637
 O1130 O 0.23644 0.23667 1.01342
 C1131 C 0.26080 0.29364 0.98966
 C1132 C 0.29341 0.26055 0.98932
 C1133 C 0.26029 0.26102 0.95644
 C1134 C 0.23906 0.20732 1.01161
 C1135 C 0.23838 0.23871 1.04268
 C1136 C 0.20707 0.23869 1.01102
 H1137 H 0.25667 0.25704 1.03112
 H1138 H 0.21874 0.25689 0.99291
 H1139 H 0.26948 0.26975 0.98036
 H1140 H 0.25701 0.21905 0.99334
 H1141 H 0.28199 0.22165 1.01278
 H1142 H 0.28114 0.22023 0.98893
 H1143 H 0.21171 0.27311 1.00842
 H1144 H 0.22662 0.28716 0.99290
 H1145 H 0.27343 0.22841 1.03891
 H1146 H 0.28903 0.27217 1.02351
 H1147 H 0.21248 0.24144 0.97623
 H1148 H 0.22618 0.25767 0.96326
 H1149 H 0.25655 0.28691 1.02316
 H1150 H 0.24125 0.27349 1.03772
 H1151 H 0.25656 0.22741 0.96252
 H1152 H 0.24141 0.21174 0.97721
 C1153 C 0.29304 0.36428 0.79234
 N1154 N 0.30447 0.35810 0.78641
 N1155 N 0.30953 0.34607 0.79154
 C1156 C 0.30334 0.33977 0.80278
 N1157 N 0.29186 0.34591 0.80867
 N1158 N 0.28680 0.35795 0.80354
 C1159 C 0.28774 0.37779 0.78700
 N1160 N 0.27656 0.38416 0.79321
 N1161 N 0.27201 0.39662 0.78864
 C1162 C 0.27847 0.40317 0.77770
 N1163 N 0.28961 0.39677 0.77144
 N1164 N 0.29416 0.38431 0.77600
 C1165 C 0.27374 0.41711 0.77297
 N1166 N 0.28039 0.42380 0.76222
 N1167 N 0.27636 0.43663 0.75821
 C1168 C 0.26554 0.44323 0.76481
 N1169 N 0.25886 0.43651 0.77552
 N1170 N 0.26288 0.42369 0.77952
 C1171 C 0.29301 -0.13592 0.29253
 N1172 N 0.28680 -0.14227 0.30373
 N1173 N 0.29195 -0.15424 0.30892
 C1174 C 0.30351 -0.16031 0.30310
 N1175 N 0.30966 -0.15399 0.29183
 N1176 N 0.30451 -0.14202 0.28664
 C1177 C 0.28763 -0.12247 0.28712
 N1178 N 0.29404 -0.11595 0.27612
 N1179 N 0.28943 -0.10354 0.27150
 C1180 C 0.27824 -0.09718 0.27771
 N1181 N 0.27179 -0.10372 0.28867
 N1182 N 0.27640 -0.11614 0.29329
 C1183 C 0.27347 -0.08327 0.27294
 N1184 N 0.26257 -0.07671 0.27946
 N1185 N 0.25852 -0.06390 0.27543
 C1186 C 0.26521 -0.05718 0.26472
 N1187 N 0.27606 -0.06376 0.25816
 N1188 N 0.28012 -0.07657 0.26219
 C1189 C 0.79222 0.86240 0.79147
 N1190 N 0.80372 0.85628 0.78561
 N1191 N 0.80895 0.84439 0.79091
 C1192 C 0.80287 0.83816 0.80227
 N1193 N 0.79130 0.84424 0.80806
 N1194 N 0.78607 0.85613 0.80276
 C1195 C 0.78681 0.87582 0.78602
 N1196 N 0.77560 0.88216 0.79220
 N1197 N 0.77103 0.89460 0.78762
 C1198 C 0.77749 0.90116 0.77668
 N1199 N 0.78865 0.89477 0.77043
 N1200 N 0.79322 0.88233 0.77502
 C1201 C 0.77285 0.91517 0.77205
 N1202 N 0.77961 0.92194 0.76143
 N1203 N 0.77579 0.93490 0.75765
 C1204 C 0.76507 0.94156 0.76435
 N1205 N 0.75825 0.93474 0.77492
 N1206 N 0.76207 0.92178 0.77869
 C1207 C 0.45672 0.88627 0.29221
 N1208 N 0.46295 0.89258 0.30344
 N1209 N 0.45786 0.90457 0.30863
 C1210 C 0.44633 0.91071 0.30279
 N1211 N 0.44017 0.90443 0.29149
 N1212 N 0.44526 0.89243 0.28630
 C1213 C 0.46205 0.87279 0.28681
 N1214 N 0.45562 0.86630 0.27580
 N1215 N 0.46019 0.85386 0.27118
 C1216 C 0.47135 0.84747 0.27742
 N1217 N 0.47782 0.85399 0.28839
 N1218 N 0.47325 0.86643 0.29300
 C1219 C 0.47610 0.83354 0.27265
 N1220 N 0.48698 0.82697 0.27919
 N1221 N 0.49102 0.81416 0.27516
 C1222 C 0.48433 0.80744 0.26443
 N1223 N 0.47349 0.81404 0.25785
 N1224 N 0.46945 0.82686 0.26189
 C1225 C -0.04160 0.88679 0.79194
 N1226 N -0.05287 0.89311 0.78584
 N1227 N -0.05783 0.90522 0.79089
 C1228 C -0.05170 0.91146 0.80222
 N1229 N -0.04037 0.90517 0.80827
 N1230 N -0.03541 0.89306 0.80322
 C1231 C -0.03644 0.87318 0.78670
 N1232 N -0.02538 0.86670 0.79303
 N1233 N -0.02098 0.85416 0.78856
 C1234 C -0.02747 0.84763 0.77761
 N1235 N -0.03848 0.85414 0.77123
 N1236 N -0.04289 0.86669 0.77570
 C1237 C -0.02289 0.83360 0.77299
 N1238 N -0.02961 0.82689 0.76228
 N1239 N -0.02571 0.81400 0.75836
 C1240 C -0.01494 0.80734 0.76501
 N1241 N -0.00819 0.81408 0.77568
 N1242 N -0.01209 0.82697 0.77960
 C1243 C -0.04136 -0.13764 -0.04199
 N1244 N -0.05262 -0.14401 -0.03591
 N1245 N -0.05784 -0.15591 -0.04124
 C1246 C -0.05202 -0.16187 -0.05287
 N1247 N -0.04069 -0.15553 -0.05888
 N1248 N -0.03546 -0.14364 -0.05355
 C1249 C -0.03598 -0.12422 -0.03647
 N1250 N -0.02493 -0.11767 -0.04276
 N1251 N -0.02040 -0.10522 -0.03810
 C1252 C -0.02675 -0.09886 -0.02698
 N1253 N -0.03775 -0.10545 -0.02064
 N1254 N -0.04227 -0.11790 -0.02530
 C1255 C -0.02217 -0.08485 -0.02227
 N1256 N -0.02895 -0.07820 -0.01159
 N1257 N -0.02520 -0.06523 -0.00772
 C1258 C -0.01452 -0.05845 -0.01440
 N1259 N -0.00768 -0.06514 -0.02501
 N1260 N -0.01144 -0.07811 -0.02888
 C1261 C -0.04233 0.36378 0.45741
 N1262 N -0.05360 0.35741 0.46349
 N1263 N -0.05863 0.34536 0.45834
 C1264 C -0.05260 0.33924 0.44692
 N1265 N -0.04129 0.34558 0.44088
 N1266 N -0.03625 0.35763 0.44603
 C1267 C -0.03708 0.37732 0.46278
 N1268 N -0.02600 0.38382 0.45650
 N1269 N -0.02150 0.39630 0.46109
 C1270 C -0.02791 0.40274 0.47212
 N1271 N -0.03895 0.39621 0.47844
 N1272 N -0.04345 0.38373 0.47385
 C1273 C -0.02324 0.41672 0.47685
 N1274 N -0.02992 0.42338 0.48760
 N1275 N -0.02594 0.43624 0.49160
 C1276 C -0.01513 0.44290 0.48500
 N1277 N -0.00842 0.43621 0.47430
 N1278 N -0.01240 0.42335 0.47030
 C1279 C 0.45887 -0.13793 0.45864
 N1280 N 0.46484 -0.14399 0.44715
 N1281 N 0.45964 -0.15591 0.44185
 C1282 C 0.44826 -0.16221 0.44783
 N1283 N 0.44237 -0.15618 0.45939
 N1284 N 0.44758 -0.14426 0.46469
 C1285 C 0.46423 -0.12447 0.46410
 N1286 N 0.45787 -0.11809 0.47520
 N1287 N 0.46237 -0.10560 0.47980
 C1288 C 0.47339 -0.09905 0.47347
 N1289 N 0.47980 -0.10548 0.46243
 N1290 N 0.47530 -0.11796 0.45783
 C1291 C 0.47794 -0.08501 0.47810
 N1292 N 0.48869 -0.07830 0.47149
 N1293 N 0.49243 -0.06531 0.47528
 C1294 C 0.48554 -0.05855 0.48583
 N1295 N 0.47485 -0.06530 0.49251
 N1296 N 0.47112 -0.07829 0.48872
 C1297 C 0.45808 0.36243 -0.04159
 N1298 N 0.46401 0.35636 -0.05309
 N1299 N 0.45881 0.34443 -0.05836
 C1300 C 0.44746 0.33813 -0.05234
 N1301 N 0.44160 0.34416 -0.04076
 N1302 N 0.44680 0.35609 -0.03550
 C1303 C 0.46345 0.37589 -0.03614
 N1304 N 0.45713 0.38228 -0.02502
 N1305 N 0.46166 0.39475 -0.02044
 C1306 C 0.47268 0.40129 -0.02679
 N1307 N 0.47905 0.39485 -0.03785
 N1308 N 0.47452 0.38238 -0.04244
 C1309 C 0.47727 0.41533 -0.02216
 N1310 N 0.48803 0.42201 -0.02879
 N1311 N 0.49180 0.43499 -0.02499
 C1312 C 0.48496 0.44176 -0.01442
 N1313 N 0.47426 0.43503 -0.00773
 N1314 N 0.47049 0.42205 -0.01152
 C1315 C 0.79187 0.38706 0.45827
 N1316 N 0.80332 0.39327 0.46419
 N1317 N 0.80856 0.40516 0.45887
 C1318 C 0.80253 0.41127 0.44743
 N1319 N 0.79103 0.40511 0.44156
 N1320 N 0.78579 0.39322 0.44688
 C1321 C 0.78646 0.37365 0.46376
 N1322 N 0.77529 0.36722 0.45754
 N1323 N 0.77073 0.35478 0.46216
 C1324 C 0.77718 0.34830 0.47316
 N1325 N 0.78829 0.35477 0.47944
 N1326 N 0.79285 0.36722 0.47482
 C1327 C 0.77256 0.33429 0.47781
 N1328 N 0.77933 0.32756 0.48846
 N1329 N 0.77554 0.31460 0.49226
 C1330 C 0.76482 0.30788 0.48555
 N1331 N 0.75799 0.31465 0.47497
 N1332 N 0.76178 0.32762 0.47117
 C1333 C 0.79169 0.88838 -0.04081
 N1334 N 0.80311 0.89457 -0.03481
 N1335 N 0.80826 0.90657 -0.03996
 C1336 C 0.80219 0.91283 -0.05132
 N1337 N 0.79070 0.90667 -0.05723
 N1338 N 0.78555 0.89467 -0.05208
 C1339 C 0.78638 0.87484 -0.03551
 N1340 N 0.77522 0.86845 -0.04178
 N1341 N 0.77073 0.85592 -0.03733
 C1342 C 0.77724 0.84932 -0.02644
 N1343 N 0.78834 0.85576 -0.02010
 N1344 N 0.79283 0.86829 -0.02456
 C1345 C 0.77268 0.83523 -0.02194
 N1346 N 0.77951 0.82841 -0.01139
 N1347 N 0.77575 0.81540 -0.00770
 C1348 C 0.76500 0.80874 -0.01441
 N1349 N 0.75811 0.81560 -0.02490
 N1350 N 0.76188 0.82861 -0.02859
 C1351 C 0.79182 0.29191 0.36270
 N1352 N 0.80329 0.28597 0.35660
 N1353 N 0.80868 0.29134 0.34480
 C1354 C 0.80280 0.30284 0.33869
 N1355 N 0.79128 0.30873 0.34475
 N1356 N 0.78589 0.30337 0.35654
 C1357 C 0.78625 0.28635 0.37602
 N1358 N 0.77508 0.29257 0.38240
 N1359 N 0.77040 0.28788 0.39477
 C1360 C 0.77672 0.27679 0.40121
 N1361 N 0.78783 0.27051 0.39479
 N1362 N 0.79251 0.27521 0.38242
 C1363 C 0.77201 0.27205 0.41516
 N1364 N 0.77874 0.26137 0.42186
 N1365 N 0.77492 0.25750 0.43479
 C1366 C 0.76422 0.26417 0.44151
 N1367 N 0.75741 0.27478 0.43477
 N1368 N 0.76123 0.27865 0.42184
 C1369 C 0.79175 0.79209 -0.13787
 N1370 N 0.78574 0.80341 -0.14419
 N1371 N 0.79107 0.80862 -0.15608
 C1372 C 0.80261 0.80271 -0.16210
 N1373 N 0.80855 0.79131 -0.15582
 N1374 N 0.80322 0.78610 -0.14392
 C1375 C 0.78625 0.78671 -0.12444
 N1376 N 0.79251 0.77562 -0.11795
 N1377 N 0.78788 0.77110 -0.10550
 C1378 C 0.77683 0.77749 -0.09909
 N1379 N 0.77051 0.78853 -0.10562
 N1380 N 0.77514 0.79305 -0.11807
 C1381 C 0.77216 0.77290 -0.08507
 N1382 N 0.76150 0.77966 -0.07837
 N1383 N 0.75769 0.77588 -0.06540
 C1384 C 0.76439 0.76521 -0.05866
 N1385 N 0.77499 0.75839 -0.06540
 N1386 N 0.77880 0.76217 -0.07837
 C1387 C 0.29189 0.45803 0.88662
 N1388 N 0.28580 0.44672 0.89293
 N1389 N 0.29085 0.44174 0.90504
 C1390 C 0.30217 0.44787 0.91129
 N1391 N 0.30821 0.45922 0.90501
 N1392 N 0.30316 0.46421 0.89291
 C1393 C 0.28664 0.46322 0.87303
 N1394 N 0.29296 0.47430 0.86656
 N1395 N 0.28847 0.47875 0.85403
 C1396 C 0.27751 0.47227 0.84749
 N1397 N 0.27115 0.46123 0.85398
 N1398 N 0.27563 0.45678 0.86652
 C1399 C 0.27288 0.47690 0.83347
 N1400 N 0.26216 0.47020 0.82676
 N1401 N 0.25823 0.47415 0.81387
 C1402 C 0.26487 0.48494 0.80723
 N1403 N 0.27555 0.49167 0.81398
 N1404 N 0.27948 0.48773 0.82686
 C1405 C 0.29274 -0.04218 0.38593
 N1406 N 0.30407 -0.03602 0.39215
 N1407 N 0.30908 -0.04092 0.40431
 C1408 C 0.30294 -0.05215 0.41071
 N1409 N 0.29157 -0.05825 0.40452
 N1410 N 0.28656 -0.05336 0.39236
 C1411 C 0.28751 -0.03707 0.37230
 N1412 N 0.27640 -0.04344 0.36591
 N1413 N 0.27189 -0.03906 0.35336
 C1414 C 0.27834 -0.02815 0.34673
 N1415 N 0.28942 -0.02174 0.35314
 N1416 N 0.29392 -0.02612 0.36569
 C1417 C 0.27364 -0.02357 0.33272
 N1418 N 0.28032 -0.01287 0.32597
 N1419 N 0.27628 -0.00893 0.31312
 C1420 C 0.26542 -0.01554 0.30654
 N1421 N 0.25872 -0.02621 0.31331
 N1422 N 0.26275 -0.03015 0.32616
 C1423 C -0.04077 -0.04148 -0.13785
 N1424 N -0.03487 -0.05295 -0.14400
 N1425 N -0.04011 -0.05815 -0.15595
 C1426 C -0.05146 -0.05208 -0.16219
 N1427 N -0.05728 -0.04053 -0.15608
 N1428 N -0.05205 -0.03534 -0.14413
 C1429 C -0.03538 -0.03613 -0.12436
 N1430 N -0.04163 -0.02498 -0.11795
 N1431 N -0.03710 -0.02047 -0.10545
 C1432 C -0.02617 -0.02694 -0.09889
 N1433 N -0.01987 -0.03803 -0.10534
 N1434 N -0.02439 -0.04254 -0.11785
 C1435 C -0.02161 -0.02238 -0.08482
 N1436 N -0.01098 -0.02914 -0.07806
 N1437 N -0.00725 -0.02540 -0.06506
 C1438 C -0.01401 -0.01475 -0.05833
 N1439 N -0.02457 -0.00792 -0.06513
 N1440 N -0.02830 -0.01167 -0.07814
 C1441 C -0.04400 0.45544 0.36489
 N1442 N -0.05541 0.46144 0.35872
 N1443 N -0.06067 0.45622 0.34680
 C1444 C -0.05472 0.44479 0.34059
 N1445 N -0.04325 0.43884 0.34673
 N1446 N -0.03799 0.44407 0.35866
 C1447 C -0.03849 0.46093 0.37828
 N1448 N -0.02729 0.45474 0.38464
 N1449 N -0.02256 0.45947 0.39699
 C1450 C -0.02886 0.47058 0.40342
 N1451 N -0.04001 0.47681 0.39702
 N1452 N -0.04474 0.47208 0.38467
 C1453 C -0.02394 0.47553 0.41724
 N1454 N -0.03051 0.48637 0.42382
 N1455 N -0.02634 0.49059 0.43655
 C1456 C -0.01543 0.48413 0.44315
 N1457 N -0.00881 0.47333 0.43653
 N1458 N -0.01299 0.46910 0.42381
 C1459 C 0.45841 -0.04231 0.36271
 N1460 N 0.44702 -0.03625 0.35657
 N1461 N 0.44163 -0.04152 0.34472
 C1462 C 0.44744 -0.05304 0.33858
 N1463 N 0.45889 -0.05905 0.34468
 N1464 N 0.46428 -0.05378 0.35653
 C1465 C 0.46397 -0.03686 0.37609
 N1466 N 0.47505 -0.04322 0.38252
 N1467 N 0.47972 -0.03862 0.39493
 C1468 C 0.47350 -0.02748 0.40137
 N1469 N 0.46249 -0.02106 0.39491
 N1470 N 0.45781 -0.02566 0.38249
 C1471 C 0.47821 -0.02282 0.41536
 N1472 N 0.47161 -0.01204 0.42202
 N1473 N 0.47544 -0.00821 0.43497
 C1474 C 0.48602 -0.01502 0.44175
 N1475 N 0.49270 -0.02574 0.43505
 N1476 N 0.48886 -0.02957 0.42210
 C1477 C 0.45817 0.45788 -0.13764
 N1478 N 0.46411 0.44645 -0.14382
 N1479 N 0.45874 0.44113 -0.15565
 C1480 C 0.44721 0.44701 -0.16174
 N1481 N 0.44134 0.45852 -0.15559
 N1482 N 0.44671 0.46384 -0.14376
 C1483 C 0.46369 0.46337 -0.12426
 N1484 N 0.45745 0.47452 -0.11786
 N1485 N 0.46208 0.47914 -0.10544
 C1486 C 0.47313 0.47279 -0.09897
 N1487 N 0.47943 0.46170 -0.10541
 N1488 N 0.47480 0.45708 -0.11784
 C1489 C 0.47779 0.47745 -0.08496
 N1490 N 0.48846 0.47074 -0.07822
 N1491 N 0.49225 0.47456 -0.06526
 C1492 C 0.48551 0.48524 -0.05856
 N1493 N 0.47491 0.49202 -0.06534
 N1494 N 0.47112 0.48819 -0.07830
 C1495 C 0.45837 0.79242 0.38635
 N1496 N 0.46447 0.80372 0.39267
 N1497 N 0.45946 0.80867 0.40481
 C1498 C 0.44818 0.80250 0.41107
 N1499 N 0.44214 0.79116 0.40478
 N1500 N 0.44714 0.78621 0.39265
 C1501 C 0.46357 0.78727 0.37272
 N1502 N 0.45724 0.77619 0.36624
 N1503 N 0.46167 0.77178 0.35368
 C1504 C 0.47260 0.77829 0.34714
 N1505 N 0.47897 0.78932 0.35364
 N1506 N 0.47454 0.79373 0.36621
 C1507 C 0.47719 0.77370 0.33310
 N1508 N 0.48787 0.78042 0.32638
 N1509 N 0.49177 0.77650 0.31348
 C1510 C 0.48512 0.76571 0.30683
 N1511 N 0.47447 0.75895 0.31357
 N1512 N 0.47058 0.76287 0.32647
 C1513 C -0.04231 0.79306 0.88623
 N1514 N -0.03620 0.80435 0.89253
 N1515 N -0.04121 0.80934 0.90465
 C1516 C -0.05253 0.80322 0.91092
 N1517 N -0.05858 0.79186 0.90464
 N1518 N -0.05356 0.78688 0.89252
 C1519 C -0.03709 0.78784 0.87263
 N1520 N -0.04346 0.77680 0.86614
 N1521 N -0.03899 0.77232 0.85362
 C1522 C -0.02797 0.77872 0.84713
 N1523 N -0.02155 0.78973 0.85364
 N1524 N -0.02603 0.79421 0.86617
 C1525 C -0.02331 0.77404 0.83314
 N1526 N -0.01246 0.78059 0.82652
 N1527 N -0.00846 0.77656 0.81369
 C1528 C -0.01517 0.76583 0.80700
 N1529 N -0.02599 0.75925 0.81364
 N1530 N -0.02999 0.76328 0.82648
 C1531 C 0.36430 0.79358 0.29278
 N1532 N 0.35816 0.80499 0.28676
 N1533 N 0.34610 0.81008 0.29180
 C1534 C 0.33975 0.80394 0.30304
 N1535 N 0.34585 0.79248 0.30901
 N1536 N 0.35791 0.78739 0.30398
 C1537 C 0.37782 0.78825 0.28751
 N1538 N 0.38417 0.77708 0.29377
 N1539 N 0.39663 0.77250 0.28924
 C1540 C 0.40319 0.77894 0.27828
 N1541 N 0.39681 0.79007 0.27199
 N1542 N 0.38436 0.79464 0.27652
 C1543 C 0.41711 0.77417 0.27355
 N1544 N 0.42379 0.78083 0.26280
 N1545 N 0.43658 0.77676 0.25875
 C1546 C 0.44316 0.76588 0.26528
 N1547 N 0.43646 0.75919 0.27600
 N1548 N 0.42367 0.76326 0.28006
 C1549 C -0.13603 0.79231 0.79253
 N1550 N -0.14225 0.80359 0.78634
 N1551 N -0.15435 0.80866 0.79130
 C1552 C -0.16066 0.80265 0.80264
 N1553 N -0.15446 0.79133 0.80879
 N1554 N -0.14237 0.78625 0.80382
 C1555 C -0.12245 0.78702 0.78736
 N1556 N -0.11602 0.77599 0.79379
 N1557 N -0.10351 0.77146 0.78936
 C1558 C -0.09698 0.77780 0.77833
 N1559 N -0.10344 0.78878 0.77186
 N1560 N -0.11594 0.79331 0.77629
 C1561 C -0.08299 0.77310 0.77372
 N1562 N -0.07633 0.77968 0.76291
 N1563 N -0.06348 0.77569 0.75897
 C1564 C -0.05681 0.76497 0.76568
 N1565 N -0.06350 0.75835 0.77645
 N1566 N -0.07636 0.76234 0.78039
 C1567 C 0.88734 0.29123 0.45787
 N1568 N 0.89351 0.28534 0.44640
 N1569 N 0.90538 0.29069 0.44116
 C1570 C 0.91150 0.30213 0.44718
 N1571 N 0.90537 0.30798 0.45870
 N1572 N 0.89351 0.30262 0.46395
 C1573 C 0.87395 0.28570 0.46330
 N1574 N 0.86757 0.29187 0.47450
 N1575 N 0.85515 0.28722 0.47908
 C1576 C 0.84865 0.27623 0.47262
 N1577 N 0.85507 0.27001 0.46146
 N1578 N 0.86749 0.27466 0.45689
 C1579 C 0.83466 0.27155 0.47725
 N1580 N 0.82788 0.26095 0.47042
 N1581 N 0.81493 0.25713 0.47422
 C1582 C 0.80827 0.26376 0.48499
 N1583 N 0.81508 0.27430 0.49188
 N1584 N 0.82804 0.27812 0.48808
 C1585 C 0.88771 0.79137 -0.04192
 N1586 N 0.89379 0.78549 -0.05344
 N1587 N 0.90569 0.79076 -0.05869
 C1588 C 0.91193 0.80212 -0.05262
 N1589 N 0.90589 0.80795 -0.04105
 N1590 N 0.89400 0.80268 -0.03580
 C1591 C 0.87428 0.78595 -0.03649
 N1592 N 0.86792 0.79221 -0.02533
 N1593 N 0.85546 0.78766 -0.02075
 C1594 C 0.84891 0.77667 -0.02717
 N1595 N 0.85531 0.77035 -0.03827
 N1596 N 0.86777 0.77490 -0.04285
 C1597 C 0.83487 0.77210 -0.02254
 N1598 N 0.82812 0.76140 -0.02923
 N1599 N 0.81513 0.75767 -0.02545
 C1600 C 0.80842 0.76451 -0.01484
 N1601 N 0.81521 0.77515 -0.00809
 N1602 N 0.82820 0.77887 -0.01187
 C1603 C -0.13778 -0.04103 -0.04098
 N1604 N -0.14397 -0.05242 -0.03494
 N1605 N -0.15598 -0.05760 -0.04006
 C1606 C -0.16225 -0.05159 -0.05143
 N1607 N -0.15610 -0.04012 -0.05740
 N1608 N -0.14409 -0.03495 -0.05228
 C1609 C -0.12425 -0.03570 -0.03569
 N1610 N -0.11782 -0.02459 -0.04201
 N1611 N -0.10529 -0.02010 -0.03754
 C1612 C -0.09872 -0.02655 -0.02660
 N1613 N -0.10519 -0.03761 -0.02023
 N1614 N -0.11772 -0.04210 -0.02469
 C1615 C -0.08463 -0.02201 -0.02207
 N1616 N -0.07786 -0.02884 -0.01149
 N1617 N -0.06485 -0.02512 -0.00777
 C1618 C -0.05813 -0.01443 -0.01448
 N1619 N -0.06494 -0.00753 -0.02500
 N1620 N -0.07795 -0.01126 -0.02872
 C1621 C -0.13604 0.45784 0.45708
 N1622 N -0.14236 0.44661 0.46330
 N1623 N -0.15442 0.44149 0.45825
 C1624 C -0.16061 0.44742 0.44681
 N1625 N -0.15434 0.45869 0.44063
 N1626 N -0.14227 0.46381 0.44568
 C1627 C -0.12250 0.46316 0.46235
 N1628 N -0.11600 0.47416 0.45591
 N1629 N -0.10350 0.47870 0.46042
 C1630 C -0.09705 0.47241 0.47152
 N1631 N -0.10357 0.46146 0.47799
 N1632 N -0.11607 0.45691 0.47349
 C1633 C -0.08307 0.47711 0.47619
 N1634 N -0.07645 0.47055 0.48703
 N1635 N -0.06359 0.47454 0.49101
 C1636 C -0.05688 0.48524 0.48431
 N1637 N -0.06353 0.49185 0.47350
 N1638 N -0.07639 0.48786 0.46952
 C1639 C 0.36262 -0.04110 0.45814
 N1640 N 0.35626 -0.05233 0.46429
 N1641 N 0.34434 -0.05756 0.45903
 C1642 C 0.33834 -0.05177 0.44740
 N1643 N 0.34466 -0.04047 0.44131
 N1644 N 0.35658 -0.03523 0.44658
 C1645 C 0.37607 -0.03572 0.46359
 N1646 N 0.38263 -0.02471 0.45723
 N1647 N 0.39510 -0.02020 0.46184
 C1648 C 0.40148 -0.02653 0.47297
 N1649 N 0.39488 -0.03748 0.47937
 N1650 N 0.38241 -0.04199 0.47477
 C1651 C 0.41552 -0.02199 0.47763
 N1652 N 0.42217 -0.02877 0.48831
 N1653 N 0.43516 -0.02507 0.49213
 C1654 C 0.44197 -0.01442 0.48542
 N1655 N 0.43527 -0.00757 0.47480
 N1656 N 0.42228 -0.01128 0.47098
 C1657 C 0.36205 0.45886 -0.04160
 N1658 N 0.35589 0.46476 -0.05308
 N1659 N 0.34397 0.45950 -0.05829
 C1660 C 0.33775 0.44812 -0.05222
 N1661 N 0.34387 0.44229 -0.04067
 N1662 N 0.35580 0.44756 -0.03547
 C1663 C 0.37552 0.46429 -0.03622
 N1664 N 0.38195 0.45804 -0.02509
 N1665 N 0.39443 0.46260 -0.02056
 C1666 C 0.40094 0.47359 -0.02700
 N1667 N 0.39446 0.47990 -0.03807
 N1668 N 0.38198 0.47534 -0.04261
 C1669 C 0.41499 0.47818 -0.02241
 N1670 N 0.42170 0.48889 -0.02912
 N1671 N 0.43469 0.49264 -0.02536
 C1672 C 0.44145 0.48583 -0.01476
 N1673 N 0.43470 0.47519 -0.00799
 N1674 N 0.42171 0.47144 -0.01175
 C1675 C 0.38582 0.45721 0.79283
 N1676 N 0.39224 0.46337 0.80404
 N1677 N 0.40431 0.45828 0.80905
 C1678 C 0.41041 0.44684 0.80303
 N1679 N 0.40403 0.44072 0.79178
 N1680 N 0.39196 0.44581 0.78677
 C1681 C 0.37227 0.46252 0.78761
 N1682 N 0.36569 0.45613 0.77662
 N1683 N 0.35321 0.46069 0.77215
 C1684 C 0.34684 0.47180 0.77849
 N1685 N 0.35344 0.47822 0.78944
 N1686 N 0.36593 0.47367 0.79392
 C1687 C 0.33288 0.47654 0.77382
 N1688 N 0.32634 0.48743 0.78037
 N1689 N 0.31352 0.49148 0.77637
 C1690 C 0.30678 0.48479 0.76566
 N1691 N 0.31334 0.47393 0.75908
 N1692 N 0.32616 0.46988 0.76309
 C1693 C 0.38583 -0.04277 0.29243
 N1694 N 0.39224 -0.03667 0.30368
 N1695 N 0.40427 -0.04184 0.30872
 C1696 C 0.41032 -0.05331 0.30270
 N1697 N 0.40395 -0.05937 0.29141
 N1698 N 0.39192 -0.05419 0.28637
 C1699 C 0.37233 -0.03737 0.28717
 N1700 N 0.36578 -0.04368 0.27612
 N1701 N 0.35333 -0.03905 0.27161
 C1702 C 0.34697 -0.02796 0.27799
 N1703 N 0.35355 -0.02161 0.28900
 N1704 N 0.36600 -0.02623 0.29351
 C1705 C 0.33303 -0.02317 0.27331
 N1706 N 0.32646 -0.01234 0.27993
 N1707 N 0.31363 -0.00829 0.27594
 C1708 C 0.30691 -0.01492 0.26518
 N1709 N 0.31351 -0.02571 0.25852
 N1710 N 0.32633 -0.02976 0.26251
 C1711 C 0.11185 0.54099 0.70979
 N1712 N 0.10558 0.55233 0.71583
 N1713 N 0.09354 0.55738 0.71070
 C1714 C 0.08733 0.55128 0.69935
 N1715 N 0.09355 0.53989 0.69336
 N1716 N 0.10559 0.53484 0.69849
 C1717 C 0.12542 0.53579 0.71507
 N1718 N 0.13189 0.52472 0.70874
 N1719 N 0.14445 0.52033 0.71317
 C1720 C 0.15101 0.52684 0.72410
 N1721 N 0.14451 0.53785 0.73049
 N1722 N 0.13194 0.54224 0.72606
 C1723 C 0.16512 0.52237 0.72858
 N1724 N 0.17191 0.52918 0.73918
 N1725 N 0.18493 0.52549 0.74286
 C1726 C 0.19165 0.51485 0.73607
 N1727 N 0.18482 0.50799 0.72552
 N1728 N 0.17180 0.51168 0.72185
 C1729 C 0.11263 0.04148 0.20789
 N1730 N 0.10660 0.03555 0.19635
 N1731 N 0.09472 0.04077 0.19101
 C1732 C 0.08843 0.05212 0.19701
 N1733 N 0.09442 0.05798 0.20862
 N1734 N 0.10630 0.05277 0.21396
 C1735 C 0.12604 0.03610 0.21341
 N1736 N 0.13241 0.04243 0.22456
 N1737 N 0.14484 0.03789 0.22921
 C1738 C 0.15135 0.02685 0.22290
 N1739 N 0.14494 0.02046 0.21181
 N1740 N 0.13251 0.02500 0.20715
 C1741 C 0.16535 0.02225 0.22760
 N1742 N 0.17200 0.01145 0.22102
 N1743 N 0.18495 0.00767 0.22486
 C1744 C 0.19172 0.01454 0.23543
 N1745 N 0.18503 0.02528 0.24208
 N1746 N 0.17207 0.02906 0.23824
 C1747 C 0.63746 0.70899 0.20848
 N1748 N 0.64375 0.69768 0.21454
 N1749 N 0.65566 0.69248 0.20926
 C1750 C 0.66170 0.69840 0.19773
 N1751 N 0.65545 0.70976 0.19172
 N1752 N 0.64355 0.71496 0.19700
 C1753 C 0.62403 0.71436 0.21393
 N1754 N 0.61755 0.72543 0.20762
 N1755 N 0.60510 0.72996 0.21220
 C1756 C 0.59866 0.72359 0.22327
 N1757 N 0.60518 0.71258 0.22964
 N1758 N 0.61763 0.70805 0.22505
 C1759 C 0.58465 0.72818 0.22789
 N1760 N 0.57793 0.72144 0.23857
 N1761 N 0.56496 0.72521 0.24235
 C1762 C 0.55823 0.73586 0.23558
 N1763 N 0.56499 0.74265 0.22496
 N1764 N 0.57796 0.73888 0.22119
 C1765 C 0.13776 0.70909 0.70901
 N1766 N 0.14388 0.71514 0.69759
 N1767 N 0.15583 0.71001 0.69235
 C1768 C 0.16210 0.69864 0.69834
 N1769 N 0.15602 0.69265 0.70981
 N1770 N 0.14406 0.69778 0.71505
 C1771 C 0.12428 0.71438 0.71441
 N1772 N 0.11785 0.70797 0.72546
 N1773 N 0.10536 0.71242 0.73002
 C1774 C 0.09883 0.72345 0.72369
 N1775 N 0.10530 0.72992 0.71270
 N1776 N 0.11779 0.72547 0.70814
 C1777 C 0.08479 0.72796 0.72829
 N1778 N 0.07810 0.73873 0.72168
 N1779 N 0.06512 0.74245 0.72545
 C1780 C 0.05834 0.73554 0.73597
 N1781 N 0.06506 0.72483 0.74265
 N1782 N 0.07804 0.72112 0.73888
 C1783 C 0.61386 0.20722 0.54196
 N1784 N 0.60758 0.21348 0.55317
 N1785 N 0.59551 0.20848 0.55829
 C1786 C 0.58929 0.19702 0.55239
 N1787 N 0.59553 0.19081 0.54113
 N1788 N 0.60759 0.19581 0.53601
 C1789 C 0.62741 0.21243 0.53662
 N1790 N 0.63386 0.20595 0.52564
 N1791 N 0.64636 0.21040 0.52108
 C1792 C 0.65287 0.22150 0.52735
 N1793 N 0.64639 0.22802 0.53829
 N1794 N 0.63388 0.22357 0.54285
 C1795 C 0.66686 0.22613 0.52264
 N1796 N 0.67352 0.23696 0.52919
 N1797 N 0.68638 0.24089 0.52520
 C1798 C 0.69305 0.23415 0.51450
 N1799 N 0.68635 0.22335 0.50791
 N1800 N 0.67349 0.21941 0.51190
 C1801 C 0.61413 0.70749 0.04199
 N1802 N 0.60778 0.71371 0.05318
 N1803 N 0.59576 0.70860 0.05831
 C1804 C 0.58964 0.69708 0.05244
 N1805 N 0.59595 0.69089 0.04119
 N1806 N 0.60797 0.69601 0.03606
 C1807 C 0.62762 0.71284 0.03664
 N1808 N 0.63414 0.70642 0.02566
 N1809 N 0.64659 0.71102 0.02109
 C1810 C 0.65297 0.72220 0.02734
 N1811 N 0.64642 0.72866 0.03827
 N1812 N 0.63397 0.72407 0.04284
 C1813 C 0.66691 0.72698 0.02261
 N1814 N 0.67347 0.73788 0.02916
 N1815 N 0.68630 0.74193 0.02517
 C1816 C 0.69304 0.73524 0.01449
 N1817 N 0.68644 0.72437 0.00790
 N1818 N 0.67361 0.72032 0.01189
 C1819 C 0.13600 0.04300 0.04286
 N1820 N 0.14216 0.05448 0.03696
 N1821 N 0.15416 0.05961 0.04214
 C1822 C 0.16045 0.05347 0.05343
 N1823 N 0.15431 0.04193 0.05927
 N1824 N 0.14232 0.03680 0.05408
 C1825 C 0.12253 0.03763 0.03745
 N1826 N 0.11618 0.02639 0.04361
 N1827 N 0.10375 0.02179 0.03900
 C1828 C 0.09720 0.02825 0.02805
 N1829 N 0.10358 0.03945 0.02185
 N1830 N 0.11601 0.04406 0.02646
 C1831 C 0.08328 0.02347 0.02328
 N1832 N 0.07656 0.03015 0.01257
 N1833 N 0.06374 0.02608 0.00854
 C1834 C 0.05717 0.01518 0.01507
 N1835 N 0.06392 0.00846 0.02574
 N1836 N 0.07674 0.01252 0.02977
 C1837 C 0.13794 0.54133 0.54067
 N1838 N 0.14406 0.55286 0.53481
 N1839 N 0.15601 0.55804 0.54004
 C1840 C 0.16229 0.55188 0.55131
 N1841 N 0.15623 0.54030 0.55711
 N1842 N 0.14427 0.53512 0.55189
 C1843 C 0.12444 0.53600 0.53530
 N1844 N 0.11806 0.52480 0.54149
 N1845 N 0.10554 0.52032 0.53699
 C1846 C 0.09894 0.52688 0.52613
 N1847 N 0.10536 0.53802 0.51988
 N1848 N 0.11788 0.54251 0.52438
 C1849 C 0.08486 0.52235 0.52160
 N1850 N 0.07805 0.52922 0.51107
 N1851 N 0.06504 0.52550 0.50736
 C1852 C 0.05835 0.51476 0.51403
 N1853 N 0.06520 0.50782 0.52450
 N1854 N 0.07822 0.51155 0.52821
 C1855 C 0.63542 0.04389 0.54377
 N1856 N 0.64154 0.05538 0.53786
 N1857 N 0.65342 0.06068 0.54317
 C1858 C 0.65961 0.05468 0.55459
 N1859 N 0.65352 0.04312 0.56044
 N1860 N 0.64164 0.03783 0.55513
 C1861 C 0.62208 0.03834 0.53822
 N1862 N 0.61576 0.02708 0.54437
 N1863 N 0.60344 0.02231 0.53962
 C1864 C 0.59697 0.02864 0.52855
 N1865 N 0.60332 0.03987 0.52235
 N1866 N 0.61564 0.04463 0.52710
 C1867 C 0.58315 0.02371 0.52364
 N1868 N 0.57649 0.03029 0.51283
 N1869 N 0.56374 0.02612 0.50870
 C1870 C 0.55718 0.01521 0.51523
 N1871 N 0.56387 0.00858 0.52599
 N1872 N 0.57662 0.01275 0.53012
 C1873 C 0.63586 0.54304 0.04193
 N1874 N 0.64224 0.53681 0.05311
 N1875 N 0.65428 0.54192 0.05822
 C1876 C 0.66039 0.55343 0.05233
 N1877 N 0.65405 0.55961 0.04110
 N1878 N 0.64200 0.55451 0.03599
 C1879 C 0.62234 0.53770 0.03662
 N1880 N 0.61578 0.54413 0.02566
 N1881 N 0.60330 0.53955 0.02112
 C1882 C 0.59693 0.52838 0.02739
 N1883 N 0.60352 0.52192 0.03831
 N1884 N 0.61599 0.52649 0.04284
 C1885 C 0.58296 0.52363 0.02270
 N1886 N 0.57642 0.51273 0.02926
 N1887 N 0.56357 0.50869 0.02530
 C1888 C 0.55680 0.51539 0.01463
 N1889 N 0.56338 0.52624 0.00803
 N1890 N 0.57622 0.53029 0.01199
 C1891 C 0.04324 0.04221 0.13615
 N1892 N 0.03709 0.05346 0.14246
 N1893 N 0.04211 0.05850 0.15456
 C1894 C 0.05348 0.05249 0.16082
 N1895 N 0.05957 0.04117 0.15455
 N1896 N 0.05455 0.03613 0.14244
 C1897 C 0.03799 0.03695 0.12257
 N1898 N 0.04433 0.02591 0.11608
 N1899 N 0.03980 0.02142 0.10357
 C1900 C 0.02878 0.02780 0.09709
 N1901 N 0.02240 0.03881 0.10360
 N1902 N 0.02692 0.04330 0.11612
 C1903 C 0.02405 0.02313 0.08311
 N1904 N 0.01327 0.02978 0.07648
 N1905 N 0.00921 0.02578 0.06365
 C1906 C 0.01578 0.01499 0.05696
 N1907 N 0.02652 0.00830 0.06361
 N1908 N 0.03059 0.01230 0.07645
 C1909 C 0.04069 0.54062 0.63816
 N1910 N 0.05202 0.53460 0.64447
 N1911 N 0.05705 0.53973 0.65653
 C1912 C 0.05095 0.55107 0.66272
 N1913 N 0.03956 0.55704 0.65646
 N1914 N 0.03453 0.55190 0.64440
 C1915 C 0.03550 0.53533 0.62457
 N1916 N 0.02445 0.54163 0.61805
 N1917 N 0.02008 0.53719 0.60547
 C1918 C 0.02660 0.52627 0.59894
 N1919 N 0.03759 0.51991 0.60550
 N1920 N 0.04196 0.52435 0.61808
 C1921 C 0.02216 0.52177 0.58481
 N1922 N 0.02898 0.51117 0.57806
 N1923 N 0.02531 0.50747 0.56502
 C1924 C 0.01469 0.51423 0.55825
 N1925 N 0.00781 0.52476 0.56504
 N1926 N 0.01148 0.52846 0.57807
 C1927 C 0.54392 0.04311 0.63564
 N1928 N 0.55537 0.03717 0.64181
 N1929 N 0.56048 0.04231 0.65385
 C1930 C 0.55433 0.05357 0.66017
 N1931 N 0.54282 0.05944 0.65402
 N1932 N 0.53772 0.05431 0.64198
 C1933 C 0.53856 0.03774 0.62215
 N1934 N 0.52739 0.04397 0.61576
 N1935 N 0.52277 0.03936 0.60333
 C1936 C 0.52915 0.02835 0.59682
 N1937 N 0.54028 0.02207 0.60324
 N1938 N 0.54490 0.02669 0.61567
 C1939 C 0.52431 0.02354 0.58292
 N1940 N 0.53082 0.01267 0.57631
 N1941 N 0.52668 0.00857 0.56353
 C1942 C 0.51588 0.01518 0.55690
 N1943 N 0.50934 0.02601 0.56354
 N1944 N 0.51347 0.03011 0.57632
 C1945 C 0.54212 0.54237 0.13610
 N1946 N 0.55334 0.53622 0.14247
 N1947 N 0.55826 0.54119 0.15465
 C1948 C 0.55215 0.55250 0.16089
 N1949 N 0.54089 0.55861 0.15455
 N1950 N 0.53596 0.55363 0.14238
 C1951 C 0.53698 0.53719 0.12245
 N1952 N 0.52601 0.54360 0.11590
 N1953 N 0.52160 0.53916 0.10333
 C1954 C 0.52801 0.52815 0.09685
 N1955 N 0.53894 0.52170 0.10342
 N1956 N 0.54335 0.52614 0.11599
 C1957 C 0.52339 0.52352 0.08282
 N1958 N 0.52995 0.51268 0.07620
 N1959 N 0.52597 0.50870 0.06333
 C1960 C 0.51529 0.51542 0.05661
 N1961 N 0.50870 0.52623 0.06325
 N1962 N 0.51268 0.53020 0.07612
 C1963 C 0.20922 0.54106 0.61223
 N1964 N 0.21519 0.55256 0.60617
 N1965 N 0.21003 0.55781 0.59422
 C1966 C 0.19873 0.55174 0.58788
 N1967 N 0.19282 0.54018 0.59389
 N1968 N 0.19797 0.53494 0.60585
 C1969 C 0.21451 0.53566 0.62572
 N1970 N 0.20821 0.52451 0.63208
 N1971 N 0.21265 0.51998 0.64460
 C1972 C 0.22356 0.52645 0.65123
 N1973 N 0.22992 0.53755 0.64483
 N1974 N 0.22548 0.54207 0.63231
 C1975 C 0.22804 0.52190 0.66532
 N1976 N 0.23861 0.52873 0.67212
 N1977 N 0.24229 0.52502 0.68515
 C1978 C 0.23553 0.51434 0.69185
 N1979 N 0.22502 0.50745 0.68501
 N1980 N 0.22134 0.51116 0.67197
 C1981 C 0.20734 0.04171 0.11258
 N1982 N 0.21335 0.05316 0.10647
 N1983 N 0.20801 0.05858 0.09468
 C1984 C 0.19644 0.05278 0.08856
 N1985 N 0.19049 0.04126 0.09463
 N1986 N 0.19583 0.03584 0.10643
 C1987 C 0.21287 0.03612 0.12590
 N1988 N 0.20654 0.02500 0.13231
 N1989 N 0.21122 0.02030 0.14468
 C1990 C 0.22239 0.02652 0.15109
 N1991 N 0.22878 0.03757 0.14463
 N1992 N 0.22411 0.04228 0.13226
 C1993 C 0.22713 0.02179 0.16504
 N1994 N 0.23796 0.02840 0.17166
 N1995 N 0.24184 0.02455 0.18458
 C1996 C 0.23505 0.01395 0.19136
 N1997 N 0.22429 0.00726 0.18470
 N1998 N 0.22040 0.01111 0.17177
 C1999 C 0.70741 0.20723 0.63587
 N2000 N 0.71343 0.19583 0.64203
 N2001 N 0.70834 0.19068 0.65406
 C2002 C 0.69706 0.19676 0.66037
 N2003 N 0.69108 0.20821 0.65424
 N2004 N 0.69617 0.21336 0.64222
 C2005 C 0.71272 0.21259 0.62237
 N2006 N 0.70641 0.22369 0.61595
 N2007 N 0.71095 0.22826 0.60348
 C2008 C 0.72197 0.22190 0.59698
 N2009 N 0.72832 0.21083 0.60343
 N2010 N 0.72377 0.20626 0.61589
 C2011 C 0.72668 0.22661 0.58302
 N2012 N 0.73749 0.22002 0.57640
 N2013 N 0.74149 0.22400 0.56356
 C2014 C 0.73483 0.23473 0.55685
 N2015 N 0.72406 0.24137 0.56350
 N2016 N 0.72006 0.23739 0.57635
 C2017 C 0.70749 0.70803 0.13577
 N2018 N 0.69626 0.71418 0.14213
 N2019 N 0.69133 0.70920 0.15429
 C2020 C 0.69744 0.69788 0.16053
 N2021 N 0.70871 0.69178 0.15421
 N2022 N 0.71364 0.69676 0.14205
 C2023 C 0.71264 0.71323 0.12215
 N2024 N 0.72363 0.70683 0.11562
 N2025 N 0.72807 0.71129 0.10308
 C2026 C 0.72169 0.72232 0.09660
 N2027 N 0.71074 0.72876 0.10315
 N2028 N 0.70630 0.72430 0.11570
 C2029 C 0.72634 0.72698 0.08261
 N2030 N 0.71981 0.73784 0.07599
 N2031 N 0.72382 0.74184 0.06315
 C2032 C 0.73451 0.73512 0.05645
 N2033 N 0.74106 0.72429 0.06309
 N2034 N 0.73705 0.72029 0.07593
 C2035 C 0.54193 0.70871 0.11255
 N2036 N 0.55337 0.71465 0.10636
 N2037 N 0.55867 0.70928 0.09453
 C2038 C 0.55273 0.69776 0.08847
 N2039 N 0.54124 0.69187 0.09461
 N2040 N 0.53594 0.69724 0.10643
 C2041 C 0.53644 0.71426 0.12590
 N2042 N 0.52531 0.70799 0.13233
 N2043 N 0.52068 0.71266 0.14472
 C2044 C 0.52701 0.72377 0.15114
 N2045 N 0.53808 0.73010 0.14468
 N2046 N 0.54271 0.72543 0.13228
 C2047 C 0.52233 0.72847 0.16512
 N2048 N 0.52896 0.73925 0.17179
 N2049 N 0.52513 0.74308 0.18474
 C2050 C 0.51452 0.73626 0.19149
 N2051 N 0.50783 0.72554 0.18477
 N2052 N 0.51165 0.72172 0.17183
 C2053 C 0.04153 0.70930 0.61237
 N2054 N 0.05302 0.71520 0.60625
 N2055 N 0.05819 0.70998 0.59429
 C2056 C 0.05205 0.69867 0.58803
 N2057 N 0.04051 0.69283 0.59411
 N2058 N 0.03534 0.69804 0.60606
 C2059 C 0.03619 0.71468 0.62586
 N2060 N 0.02500 0.70845 0.63223
 N2061 N 0.02050 0.71297 0.64473
 C2062 C 0.02701 0.72389 0.65130
 N2063 N 0.03813 0.73017 0.64489
 N2064 N 0.04264 0.72565 0.63239
 C2065 C 0.02244 0.72845 0.66536
 N2066 N 0.02923 0.73906 0.67214
 N2067 N 0.02547 0.74280 0.68514
 C2068 C 0.01477 0.73606 0.69182
 N2069 N 0.00792 0.72551 0.68500
 N2070 N 0.01168 0.72178 0.67201
 C2071 C 0.54085 0.61280 0.20844
 N2072 N 0.55208 0.60650 0.21464
 N2073 N 0.55730 0.59456 0.20947
 C2074 C 0.55148 0.58847 0.19790
 N2075 N 0.54019 0.59472 0.19175
 N2076 N 0.53497 0.60667 0.19692
 C2077 C 0.53547 0.62628 0.21377
 N2078 N 0.52453 0.63280 0.20728
 N2079 N 0.52001 0.64529 0.21177
 C2080 C 0.52626 0.65172 0.22293
 N2081 N 0.53714 0.64516 0.22948
 N2082 N 0.54166 0.63267 0.22499
 C2083 C 0.52169 0.66578 0.22747
 N2084 N 0.52829 0.67243 0.23829
 N2085 N 0.52455 0.68543 0.24202
 C2086 C 0.51407 0.69224 0.23508
 N2087 N 0.50741 0.68555 0.22432
 N2088 N 0.51115 0.67255 0.22059
 C2089 C 0.04028 0.61211 0.70954
 N2090 N 0.05160 0.60589 0.71566
 N2091 N 0.05674 0.59387 0.71059
 C2092 C 0.05074 0.58762 0.69920
 N2093 N 0.03937 0.59379 0.69312
 N2094 N 0.03423 0.60582 0.69820
 C2095 C 0.03501 0.62567 0.71477
 N2096 N 0.02397 0.63213 0.70837
 N2097 N 0.01954 0.64469 0.71278
 C2098 C 0.02599 0.65125 0.72375
 N2099 N 0.03696 0.64475 0.73020
 N2100 N 0.04139 0.63219 0.72580
 C2101 C 0.02152 0.66537 0.72822
 N2102 N 0.02835 0.67213 0.73882
 N2103 N 0.02471 0.68516 0.74249
 C2104 C 0.01409 0.69192 0.73571
 N2105 N 0.00719 0.68512 0.72517
 N2106 N 0.01084 0.67208 0.72149
 C2107 C 0.04285 0.13558 0.04347
 N2108 N 0.03675 0.14195 0.05472
 N2109 N 0.04193 0.15398 0.05979
 C2110 C 0.05341 0.16009 0.05382
 N2111 N 0.05944 0.15375 0.04251
 N2112 N 0.05426 0.14172 0.03743
 C2113 C 0.03743 0.12209 0.03816
 N2114 N 0.04372 0.11560 0.02709
 N2115 N 0.03908 0.10315 0.02253
 C2116 C 0.02799 0.09674 0.02888
 N2117 N 0.02166 0.10326 0.03992
 N2118 N 0.02630 0.11570 0.04448
 C2119 C 0.02318 0.08281 0.02413
 N2120 N 0.01237 0.07617 0.03074
 N2121 N 0.00831 0.06336 0.02669
 C2122 C 0.01490 0.05671 0.01588
 N2123 N 0.02567 0.06338 0.00924
 N2124 N 0.02973 0.07619 0.01329
 C2125 C 0.04111 0.63782 0.54098
 N2126 N 0.03503 0.64414 0.55227
 N2127 N 0.04029 0.65609 0.55745
 C2128 C 0.05182 0.66214 0.55154
 N2129 N 0.05784 0.65586 0.54020
 N2130 N 0.05259 0.64392 0.53502
 C2131 C 0.03569 0.62434 0.53563
 N2132 N 0.04207 0.61781 0.52463
 N2133 N 0.03752 0.60532 0.52013
 C2134 C 0.02643 0.59889 0.52646
 N2135 N 0.01999 0.60546 0.53741
 N2136 N 0.02454 0.61796 0.54191
 C2137 C 0.02185 0.58482 0.52192
 N2138 N 0.01109 0.57815 0.52857
 N2139 N 0.00735 0.56513 0.52485
 C2140 C 0.01423 0.55833 0.51432
 N2141 N 0.02492 0.56504 0.50761
 N2142 N 0.02866 0.57805 0.51133
 C2143 C 0.54221 0.13606 0.54246
 N2144 N 0.53610 0.14246 0.55369
 N2145 N 0.54123 0.15454 0.55868
 C2146 C 0.55265 0.16066 0.55263
 N2147 N 0.55871 0.15429 0.54136
 N2148 N 0.55358 0.14222 0.53636
 C2149 C 0.53689 0.12249 0.53726
 N2150 N 0.54322 0.11595 0.52624
 N2151 N 0.53868 0.10343 0.52180
 C2152 C 0.52764 0.09698 0.52823
 N2153 N 0.52127 0.10355 0.53921
 N2154 N 0.52581 0.11608 0.54364
 C2155 C 0.52296 0.08297 0.52362
 N2156 N 0.51219 0.07633 0.53028
 N2157 N 0.50822 0.06344 0.52635
 C2158 C 0.51487 0.05674 0.51561
 N2159 N 0.52560 0.06342 0.50892
 N2160 N 0.52957 0.07630 0.51285
 C2161 C 0.54258 0.63601 0.04246
 N2162 N 0.53648 0.64242 0.05369
 N2163 N 0.54165 0.65448 0.05871
 C2164 C 0.55310 0.66056 0.05269
 N2165 N 0.55916 0.65419 0.04142
 N2166 N 0.55399 0.64213 0.03640
 C2167 C 0.53717 0.62249 0.03722
 N2168 N 0.54345 0.61594 0.02618
 N2169 N 0.53881 0.60347 0.02169
 C2170 C 0.52772 0.59709 0.02807
 N2171 N 0.52140 0.60367 0.03908
 N2172 N 0.52604 0.61614 0.04357
 C2173 C 0.52291 0.58314 0.02340
 N2174 N 0.51209 0.57656 0.03003
 N2175 N 0.50800 0.56372 0.02605
 C2176 C 0.51459 0.55701 0.01528
 N2177 N 0.52537 0.56364 0.00861
 N2178 N 0.52945 0.57646 0.01259
 C2179 C 0.70578 0.11466 0.54417
 N2180 N 0.69434 0.10850 0.53817
 N2181 N 0.68910 0.09657 0.54339
 C2182 C 0.69508 0.09036 0.55481
 N2183 N 0.70657 0.09650 0.56075
 N2184 N 0.71182 0.10843 0.55553
 C2185 C 0.71128 0.12805 0.53869
 N2186 N 0.72251 0.13440 0.54488
 N2187 N 0.72725 0.14674 0.54016
 C2188 C 0.72093 0.15318 0.52907
 N2189 N 0.70974 0.14680 0.52283
 N2190 N 0.70500 0.13446 0.52756
 C2191 C 0.72585 0.16699 0.52414
 N2192 N 0.71927 0.17360 0.51330
 N2193 N 0.72346 0.18632 0.50910
 C2194 C 0.73440 0.19289 0.51557
 N2195 N 0.74103 0.18626 0.52636
 N2196 N 0.73684 0.17354 0.53057
 C2197 C 0.70737 0.61450 0.04231
 N2198 N 0.69595 0.60836 0.03626
 N2199 N 0.69082 0.59630 0.04128
 C2200 C 0.69692 0.58994 0.05254
 N2201 N 0.70838 0.59605 0.05856
 N2202 N 0.71351 0.60811 0.05353
 C2203 C 0.71274 0.62804 0.03706
 N2204 N 0.72389 0.63440 0.04339
 N2205 N 0.72849 0.64688 0.03890
 C2206 C 0.72212 0.65344 0.02791
 N2207 N 0.71101 0.64705 0.02154
 N2208 N 0.70641 0.63457 0.02604
 C2209 C 0.72690 0.66740 0.02323
 N2210 N 0.72032 0.67408 0.01244
 N2211 N 0.72438 0.68691 0.00846
 C2212 C 0.73518 0.69353 0.01512
 N2213 N 0.74180 0.68682 0.02588
 N2214 N 0.73774 0.67399 0.02986
 C2215 C 0.20923 0.63793 0.70876
 N2216 N 0.21514 0.64407 0.69727
 N2217 N 0.20993 0.65602 0.69210
 C2218 C 0.19863 0.66227 0.69821
 N2219 N 0.19279 0.65618 0.70975
 N2220 N 0.19799 0.64422 0.71493
 C2221 C 0.21459 0.62445 0.71411
 N2222 N 0.20838 0.61807 0.72530
 N2223 N 0.21289 0.60557 0.72981
 C2224 C 0.22376 0.59900 0.72329
 N2225 N 0.23003 0.60541 0.71215
 N2226 N 0.22553 0.61791 0.70765
 C2227 C 0.22831 0.58494 0.72785
 N2228 N 0.23885 0.57814 0.72100
 N2229 N 0.24257 0.56515 0.72475
 C2230 C 0.23589 0.55847 0.73549
 N2231 N 0.22542 0.56531 0.74240
 N2232 N 0.22170 0.57830 0.73865
 C2233 C 0.20935 0.13751 0.20826
 N2234 N 0.19810 0.14380 0.21444
 N2235 N 0.19286 0.15572 0.20923
 C2236 C 0.19866 0.16179 0.19765
 N2237 N 0.20996 0.15554 0.19153
 N2238 N 0.21521 0.14362 0.19674
 C2239 C 0.21473 0.12405 0.21364
 N2240 N 0.22571 0.11754 0.20723
 N2241 N 0.23022 0.10505 0.21176
 C2242 C 0.22391 0.09862 0.22286
 N2243 N 0.21299 0.10517 0.22933
 N2244 N 0.20848 0.11766 0.22481
 C2245 C 0.22844 0.08456 0.22744
 N2246 N 0.22168 0.07787 0.23812
 N2247 N 0.22536 0.06487 0.24187
 C2248 C 0.23595 0.05808 0.23508
 N2249 N 0.24277 0.06481 0.22447
 N2250 N 0.23909 0.07781 0.22071
 C2251 C 0.70735 1.13553 0.70697
 N2252 N 0.71337 1.14175 0.69559
 N2253 N 0.70830 1.15381 0.69053
 C2254 C 0.69703 1.16010 0.69668
 N2255 N 0.69106 1.15391 0.70811
 N2256 N 0.69613 1.14184 0.71316
 C2257 C 0.71264 1.12199 0.71226
 N2258 N 0.70634 1.11556 0.72336
 N2259 N 0.71087 1.10309 0.72791
 C2260 C 0.72188 1.09660 0.72152
 N2261 N 0.72822 1.10306 0.71045
 N2262 N 0.72368 1.11553 0.70590
 C2263 C 0.72660 1.08266 0.72627
 N2264 N 0.73746 1.07606 0.71973
 N2265 N 0.74150 1.06326 0.72380
 C2266 C 0.73484 1.05660 0.73456
 N2267 N 0.72402 1.06323 0.74113
 N2268 N 0.71998 1.07603 0.73706
 C2269 C 0.70886 0.63765 0.20814
 N2270 N 0.71470 0.64376 0.19661
 N2271 N 0.70946 0.65568 0.19141
 C2272 C 0.69818 0.66194 0.19755
 N2273 N 0.69238 0.65588 0.20913
 N2274 N 0.69763 0.64395 0.21433
 C2275 C 0.71427 0.62420 0.21352
 N2276 N 0.70811 0.61784 0.22475
 N2277 N 0.71267 0.60538 0.22928
 C2278 C 0.72356 0.59881 0.22275
 N2279 N 0.72977 0.60521 0.21158
 N2280 N 0.72521 0.61768 0.20705
 C2281 C 0.72816 0.58478 0.22735
 N2282 N 0.73871 0.57801 0.22050
 N2283 N 0.74248 0.56503 0.22427
 C2284 C 0.73583 0.55836 0.23504
 N2285 N 0.72535 0.56518 0.24195
 N2286 N 0.72158 0.57815 0.23818
 C2287 C 0.54212 0.11305 0.70764
 N2288 N 0.53626 0.10692 0.69611
 N2289 N 0.54168 0.09515 0.69074
 C2290 C 0.55317 0.08908 0.69670
 N2291 N 0.55898 0.09516 0.70827
 N2292 N 0.55356 0.10693 0.71364
 C2293 C 0.53651 0.12634 0.71321
 N2294 N 0.54270 0.13271 0.72442
 N2295 N 0.53797 0.14505 0.72913
 C2296 C 0.52687 0.15146 0.72281
 N2297 N 0.52061 0.14503 0.71166
 N2298 N 0.52534 0.13270 0.70694
 C2299 C 0.52210 0.16538 0.72757
 N2300 N 0.51133 0.17203 0.72094
 N2301 N 0.50746 0.18494 0.72484
 C2302 C 0.51422 0.19167 0.73551
 N2303 N 0.52493 0.18497 0.74221
 N2304 N 0.52879 0.17206 0.73832
 C2305 C 1.04162 0.11231 0.20788
 N2306 N 1.03578 0.10619 0.19634
 N2307 N 1.04109 0.09430 0.19111
 C2308 C 1.05242 0.08811 0.19722
 N2309 N 1.05821 0.09418 0.20882
 N2310 N 1.05291 0.10607 0.21405
 C2311 C 1.03614 0.12572 0.21330
 N2312 N 1.04228 0.13209 0.22454
 N2313 N 1.03766 0.14452 0.22911
 C2314 C 1.02673 0.15104 0.22260
 N2315 N 1.02053 0.14463 0.21140
 N2316 N 1.02515 0.13219 0.20684
 C2317 C 1.02207 0.16504 0.22722
 N2318 N 1.01149 0.17179 0.22037
 N2319 N 1.00768 0.18474 0.22417
 C2320 C 1.01431 0.19143 0.23496
 N2321 N 1.02482 0.18463 0.24186
 N2322 N 1.02863 0.17168 0.23807
 C2323 C 0.20821 0.61382 0.54220
 N2324 N 0.21439 0.60746 0.55342
 N2325 N 0.20946 0.59526 0.55831
 C2326 C 0.19818 0.58897 0.55215
 N2327 N 0.19205 0.59530 0.54088
 N2328 N 0.19698 0.60750 0.53600
 C2329 C 0.21334 0.62750 0.53711
 N2330 N 0.20689 0.63403 0.52614
 N2331 N 0.21128 0.64663 0.52177
 C2332 C 0.22226 0.65316 0.52820
 N2333 N 0.22875 0.64660 0.53914
 N2334 N 0.22436 0.63401 0.54351
 C2335 C 0.22684 0.66721 0.52362
 N2336 N 0.23766 0.67386 0.53020
 N2337 N 0.24159 0.68674 0.52625
 C2338 C 0.23484 0.69344 0.51558
 N2339 N 0.22404 0.68677 0.50897
 N2340 N 0.22011 0.67389 0.51292
 C2341 C 0.20701 0.11405 1.04303
 N2342 N 0.19558 0.10792 1.03697
 N2343 N 0.19039 0.09590 1.04203
 C2344 C 0.19645 0.08956 1.05333
 N2345 N 0.20792 0.09565 1.05934
 N2346 N 0.21310 0.10767 1.05428
 C2347 C 0.21242 0.12755 1.03775
 N2348 N 0.22357 0.13391 1.04409
 N2349 N 0.22820 0.14637 1.03957
 C2350 C 0.22187 0.15291 1.02854
 N2351 N 0.21077 0.14652 1.02217
 N2352 N 0.20613 0.13406 1.02669
 C2353 C 0.22667 0.16685 1.02384
 N2354 N 0.22010 0.17351 1.01303
 N2355 N 0.22417 0.18633 1.00903
 C2356 C 0.23495 0.19297 1.01570
 N2357 N 0.24156 0.18629 1.02648
 N2358 N 0.23749 0.17346 1.03047
 C2359 C 0.20816 0.70858 0.63663
 N2360 N 0.19687 0.71466 0.64294
 N2361 N 0.19190 0.70964 0.65506
 C2362 C 0.19804 0.69836 0.66133
 N2363 N 0.20938 0.69232 0.65506
 N2364 N 0.21435 0.69735 0.64294
 C2365 C 0.21334 0.71381 0.62302
 N2366 N 0.22441 0.70749 0.61656
 N2367 N 0.22885 0.71194 0.60402
 C2368 C 0.22238 0.72288 0.59747
 N2369 N 0.21135 0.72924 0.60396
 N2370 N 0.20691 0.72478 0.61651
 C2371 C 0.22699 0.72749 0.58344
 N2372 N 0.22030 0.73819 0.57673
 N2373 N 0.22423 0.74211 0.56384
 C2374 C 0.23499 0.73547 0.55719
 N2375 N 0.24172 0.72481 0.56393
 N2376 N 0.23779 0.72089 0.57682
 C2377 C 0.20751 0.20755 1.13644
 N2378 N 0.19628 0.21366 1.14280
 N2379 N 0.19136 0.20866 1.15495
 C2380 C 0.19749 0.19735 1.16120
 N2381 N 0.20879 0.19130 1.15487
 N2382 N 0.21371 0.19630 1.14272
 C2383 C 0.21264 0.21275 1.12280
 N2384 N 0.22363 0.20638 1.11626
 N2385 N 0.22802 0.21083 1.10371
 C2386 C 0.22159 0.22183 1.09722
 N2387 N 0.21064 0.22824 1.10378
 N2388 N 0.20624 0.22378 1.11634
 C2389 C 0.22619 0.22647 1.08320
 N2390 N 0.21960 0.23730 1.07659
 N2391 N 0.22357 0.24128 1.06373
 C2392 C 0.23426 0.23459 1.05701
 N2393 N 0.24087 0.22379 1.06365
 N2394 N 0.23691 0.21981 1.07651
 C2395 C 0.70816 0.54184 0.11244
 N2396 N 0.71415 0.55331 0.10635
 N2397 N 0.70885 0.55867 0.09451
 C2398 C 0.69737 0.55277 0.08834
 N2399 N 0.69143 0.54125 0.09439
 N2400 N 0.69673 0.53589 0.10623
 C2401 C 0.71363 0.53630 0.12581
 N2402 N 0.70736 0.52513 0.13217
 N2403 N 0.71197 0.52047 0.14458
 C2404 C 0.72303 0.52681 0.15109
 N2405 N 0.72936 0.53792 0.14468
 N2406 N 0.72475 0.54258 0.13227
 C2407 C 0.72768 0.52212 0.16508
 N2408 N 0.73835 0.52886 0.17182
 N2409 N 0.74215 0.52505 0.18478
 C2410 C 0.73543 0.51435 0.19148
 N2411 N 0.72483 0.50753 0.18469
 N2412 N 0.72102 0.51134 0.17173
 C2413 C 0.70629 1.04340 0.61490
 N2414 N 0.71229 1.05484 0.60876
 N2415 N 0.70702 1.06016 0.59689
 C2416 C 0.69555 1.05423 0.59073
 N2417 N 0.68959 1.04274 0.59683
 N2418 N 0.69486 1.03743 0.60870
 C2419 C 0.71181 1.03784 0.62824
 N2420 N 0.70555 1.02667 0.63461
 N2421 N 0.71029 1.02191 0.64694
 C2422 C 0.72146 1.02815 0.65335
 N2423 N 0.72777 1.03928 0.64694
 N2424 N 0.72303 1.04404 0.63462
 C2425 C 0.72637 1.02325 0.66718
 N2426 N 0.73729 1.02975 0.67374
 N2427 N 0.74144 1.02563 0.68650
 C2428 C 0.73482 1.01484 0.69316
 N2429 N 0.72394 1.00828 0.68657
 N2430 N 0.71980 1.01241 0.67380
 C2431 C 0.54174 0.20862 0.61266
 N2432 N 0.55321 0.21454 0.60649
 N2433 N 0.55845 0.20921 0.59462
 C2434 C 0.55242 0.19778 0.58848
 N2435 N 0.54091 0.19192 0.59461
 N2436 N 0.53566 0.19724 0.60648
 C2437 C 0.53633 0.21410 0.62607
 N2438 N 0.52515 0.20788 0.63246
 N2439 N 0.52058 0.21247 0.64490
 C2440 C 0.52702 0.22347 0.65142
 N2441 N 0.53814 0.22975 0.64499
 N2442 N 0.54271 0.22516 0.63254
 C2443 C 0.52240 0.22808 0.66543
 N2444 N 0.52917 0.23872 0.67220
 N2445 N 0.52538 0.24249 0.68518
 C2446 C 0.51468 0.23575 0.69186
 N2447 N 0.50785 0.22517 0.68505
 N2448 N 0.51164 0.22141 0.67208
 C2449 C 1.04212 0.20744 0.11267
 N2450 N 1.05354 0.21338 0.10646
 N2451 N 1.05888 0.20795 0.09467
 C2452 C 1.05301 0.19635 0.08867
 N2453 N 1.04151 0.19047 0.09485
 N2454 N 1.03618 0.19591 0.10663
 C2455 C 1.03661 0.21306 0.12598
 N2456 N 1.02548 0.20681 0.13243
 N2457 N 1.02083 0.21154 0.14480
 C2458 C 1.02713 0.22270 0.15116
 N2459 N 1.03820 0.22902 0.14466
 N2460 N 1.04285 0.22428 0.13230
 C2461 C 1.02244 0.22747 0.16511
 N2462 N 1.02908 0.23828 0.17174
 N2463 N 1.02525 0.24215 0.18468
 C2464 C 1.01464 0.23536 0.19145
 N2465 N 1.00794 0.22462 0.18477
 N2466 N 1.01176 0.22075 0.17184
 C2467 C 0.63706 0.20787 0.70835
 N2468 N 0.64322 0.21393 0.69695
 N2469 N 0.65505 0.20864 0.69158
 C2470 C 0.66114 0.19710 0.69741
 N2471 N 0.65502 0.19109 0.70885
 N2472 N 0.64320 0.19637 0.71422
 C2473 C 0.62371 0.21333 0.71390
 N2474 N 0.61728 0.20694 0.72496
 N2475 N 0.60489 0.21155 0.72964
 C2476 C 0.59848 0.22272 0.72344
 N2477 N 0.60496 0.22916 0.71244
 N2478 N 0.61735 0.22455 0.70776
 C2479 C 0.58452 0.22737 0.72815
 N2480 N 0.57790 0.23821 0.72160
 N2481 N 0.56497 0.24203 0.72545
 C2482 C 0.55818 0.23515 0.73599
 N2483 N 0.56485 0.22437 0.74261
 N2484 N 0.57778 0.22056 0.73876
 C2485 C 1.13782 0.20863 0.20855
 N2486 N 1.14417 0.19736 0.21463
 N2487 N 1.15610 0.19221 0.20935
 C2488 C 1.16211 0.19813 0.19781
 N2489 N 1.15580 0.20946 0.19179
 N2490 N 1.14388 0.21461 0.19706
 C2491 C 1.12435 0.21393 0.21398
 N2492 N 1.11783 0.22496 0.20765
 N2493 N 1.10534 0.22942 0.21221
 C2494 C 1.09893 0.22302 0.22327
 N2495 N 1.10549 0.21205 0.22966
 N2496 N 1.11798 0.20759 0.22510
 C2497 C 1.08488 0.22753 0.22787
 N2498 N 1.07818 0.22076 0.23854
 N2499 N 1.06518 0.22447 0.24229
 C2500 C 1.05842 0.23508 0.23552
 N2501 N 1.06516 0.24191 0.22491
 N2502 N 1.07815 0.23820 0.22116
 C2503 C 0.11370 0.70806 0.54179
 N2504 N 0.10733 0.69680 0.53567
 N2505 N 0.09519 0.69186 0.54068
 C2506 C 0.08896 0.69801 0.55199
 N2507 N 0.09529 0.70931 0.55806
 N2508 N 0.10744 0.71425 0.55305
 C2509 C 0.12732 0.71320 0.53657
 N2510 N 0.13385 0.72424 0.54292
 N2511 N 0.14640 0.72865 0.53846
 C2512 C 0.15288 0.72218 0.52748
 N2513 N 0.14633 0.71118 0.52109
 N2514 N 0.13377 0.70677 0.52556
 C2515 C 0.16691 0.72677 0.52284
 N2516 N 0.17355 0.72009 0.51209
 N2517 N 0.18643 0.72402 0.50814
 C2518 C 0.19314 0.73477 0.51480
 N2519 N 0.18647 0.74148 0.52551
 N2520 N 0.17359 0.73755 0.52946
 C2521 C 0.11393 0.20657 1.04267
 N2522 N 0.10781 0.19506 1.03677
 N2523 N 0.09582 0.18991 1.04193
 C2524 C 0.08952 0.19607 1.05319
 N2525 N 0.09561 0.20763 1.05904
 N2526 N 0.10759 0.21278 1.05387
 C2527 C 0.12740 0.21197 1.03729
 N2528 N 0.13372 0.22322 1.04347
 N2529 N 0.14615 0.22785 1.03889
 C2530 C 0.15271 0.22140 1.02794
 N2531 N 0.14635 0.21019 1.02171
 N2532 N 0.13392 0.20556 1.02630
 C2533 C 0.16662 0.22621 1.02321
 N2534 N 0.17334 0.21956 1.01248
 N2535 N 0.18615 0.22365 1.00848
 C2536 C 0.19272 0.23453 1.01505
 N2537 N 0.18598 0.24122 1.02574
 N2538 N 0.17316 0.23713 1.02974
 C2539 C 0.61225 0.54145 0.20876
 N2540 N 0.60612 0.53546 0.19730
 N2541 N 0.59419 0.54065 0.19205
 C2542 C 0.58795 0.55201 0.19808
 N2543 N 0.59403 0.55794 0.20959
 N2544 N 0.60597 0.55275 0.21484
 C2545 C 0.62572 0.53610 0.21416
 N2546 N 0.63215 0.54243 0.22527
 N2547 N 0.64465 0.53793 0.22980
 C2548 C 0.65115 0.52694 0.22339
 N2549 N 0.64467 0.52055 0.21234
 N2550 N 0.63219 0.52505 0.20781
 C2551 C 0.66521 0.52238 0.22796
 N2552 N 0.67189 0.51170 0.22122
 N2553 N 0.68488 0.50796 0.22496
 C2554 C 0.69167 0.51475 0.23557
 N2555 N 0.68494 0.52538 0.24237
 N2556 N 0.67195 0.52912 0.23863
 C2557 C 0.61467 1.04290 0.70698
 N2558 N 0.60861 1.03691 0.69548
 N2559 N 0.59663 1.04201 0.69025
 C2560 C 0.59027 1.05327 0.69633
 N2561 N 0.59630 1.05921 0.70787
 N2562 N 0.60828 1.05412 0.71309
 C2563 C 0.62812 1.03758 0.71245
 N2564 N 0.63443 1.04385 0.72366
 N2565 N 0.64684 1.03929 0.72836
 C2566 C 0.65338 1.02828 0.72203
 N2567 N 0.64704 1.02196 0.71086
 N2568 N 0.63464 1.02653 0.70616
 C2569 C 0.66728 1.02353 0.72690
 N2570 N 0.67393 1.01272 0.72035
 N2571 N 0.68672 1.00869 0.72447
 C2572 C 0.69332 1.01532 0.73530
 N2573 N 0.68664 1.02610 0.74189
 N2574 N 0.67385 1.03012 0.73777
 C2575 C 0.88487 0.45603 0.29405
 N2576 N 0.89105 0.44467 0.28798
 N2577 N 0.90296 0.43940 0.29319
 C2578 C 0.90912 0.44531 0.30468
 N2579 N 0.90297 0.45672 0.31072
 N2580 N 0.89106 0.46198 0.30550
 C2581 C 0.87150 0.46154 0.28857
 N2582 N 0.86514 0.47270 0.29484
 N2583 N 0.85281 0.47744 0.29012
 C2584 C 0.84638 0.47118 0.27896
 N2585 N 0.85277 0.46006 0.27266
 N2586 N 0.86510 0.45533 0.27738
 C2587 C 0.83257 0.47610 0.27405
 N2588 N 0.82597 0.46955 0.26317
 N2589 N 0.81325 0.47372 0.25898
 C2590 C 0.80667 0.48460 0.26550
 N2591 N 0.81330 0.49119 0.27634
 N2592 N 0.82602 0.48702 0.28053
 C2593 C 0.88802 0.95906 0.79142
 N2594 N 0.89417 0.94767 0.78535
 N2595 N 0.90612 0.94245 0.79052
 C2596 C 0.91236 0.94842 0.80193
 N2597 N 0.90625 0.95986 0.80794
 N2598 N 0.89430 0.96508 0.80278
 C2599 C 0.87453 0.96444 0.78610
 N2600 N 0.86808 0.97546 0.79252
 N2601 N 0.85558 0.97998 0.78804
 C2602 C 0.84907 0.97365 0.77698
 N2603 N 0.85556 0.96269 0.77050
 N2604 N 0.86806 0.95817 0.77498
 C2605 C 0.83501 0.97820 0.77245
 N2606 N 0.82833 0.97157 0.76167
 N2607 N 0.81533 0.97530 0.75794
 C2608 C 0.80853 0.98580 0.76485
 N2609 N 0.81525 0.99250 0.77557
 N2610 N 0.82825 0.98877 0.77930
 C2611 C 0.36415 0.29259 0.79281
 N2612 N 0.35773 0.28650 0.80404
 N2613 N 0.34571 0.29168 0.80906
 C2614 C 0.33966 0.30314 0.80303
 N2615 N 0.34604 0.30919 0.79175
 N2616 N 0.35806 0.30400 0.78673
 C2617 C 0.37765 0.28717 0.78758
 N2618 N 0.38420 0.29346 0.77653
 N2619 N 0.39665 0.28882 0.77204
 C2620 C 0.40301 0.27773 0.77844
 N2621 N 0.39642 0.27140 0.78945
 N2622 N 0.38397 0.27604 0.79393
 C2623 C 0.41694 0.27292 0.77378
 N2624 N 0.42351 0.26211 0.78042
 N2625 N 0.43633 0.25804 0.77645
 C2626 C 0.44305 0.26464 0.76568
 N2627 N 0.43644 0.27541 0.75900
 N2628 N 0.42363 0.27948 0.76297
 C2629 C 0.86457 0.29299 0.29277
 N2630 N 0.85815 0.28683 0.30396
 N2631 N 0.84610 0.29195 0.30898
 C2632 C 0.84003 0.30342 0.30299
 N2633 N 0.84642 0.30955 0.29176
 N2634 N 0.85847 0.30443 0.28674
 C2635 C 0.87809 0.28763 0.28752
 N2636 N 0.88464 0.29400 0.27652
 N2637 N 0.89709 0.28938 0.27200
 C2638 C 0.90343 0.27824 0.27831
 N2639 N 0.89685 0.27183 0.28927
 N2640 N 0.88440 0.27645 0.29379
 C2641 C 0.91734 0.27344 0.27358
 N2642 N 0.92388 0.26252 0.28010
 N2643 N 0.93666 0.25842 0.27604
 C2644 C 0.94337 0.26508 0.26531
 N2645 N 0.93681 0.27596 0.25876
 N2646 N 0.92403 0.28006 0.26282
 C2647 C 0.38780 0.79122 0.45852
 N2648 N 0.39391 0.78533 0.44702
 N2649 N 0.40586 0.79055 0.44184
 C2650 C 0.41214 0.80185 0.44797
 N2651 N 0.40607 0.80769 0.45952
 N2652 N 0.39412 0.80248 0.46470
 C2653 C 0.37431 0.78585 0.46387
 N2654 N 0.36797 0.79206 0.47507
 N2655 N 0.35547 0.78755 0.47959
 C2656 C 0.34886 0.77666 0.47306
 N2657 N 0.35525 0.77040 0.46191
 N2658 N 0.36775 0.77491 0.45740
 C2659 C 0.33481 0.77211 0.47763
 N2660 N 0.32798 0.76156 0.47078
 N2661 N 0.31499 0.75782 0.47454
 C2662 C 0.30835 0.76450 0.48530
 N2663 N 0.31521 0.77498 0.49221
 N2664 N 0.32820 0.77872 0.48845
 C2665 C 0.38724 0.29126 0.95868
 N2666 N 0.39347 0.30262 0.96476
 N2667 N 0.40537 0.30790 0.95952
 C2668 C 0.41147 0.30204 0.94800
 N2669 N 0.40528 0.29063 0.94196
 N2670 N 0.39338 0.28534 0.94720
 C2671 C 0.37381 0.28581 0.96409
 N2672 N 0.36736 0.27472 0.95775
 N2673 N 0.35491 0.27013 0.96231
 C2674 C 0.34846 0.27647 0.97338
 N2675 N 0.35495 0.28750 0.97978
 N2676 N 0.36740 0.29208 0.97522
 C2677 C 0.33443 0.27185 0.97799
 N2678 N 0.32772 0.27860 0.98865
 N2679 N 0.31474 0.27484 0.99242
 C2680 C 0.30800 0.26417 0.98568
 N2681 N 0.31475 0.25734 0.97508
 N2682 N 0.32773 0.26111 0.97131
 C2683 C 0.79228 0.45757 0.38592
 N2684 N 0.80365 0.46366 0.39211
 N2685 N 0.80880 0.45860 0.40415
 C2686 C 0.80275 0.44727 0.41044
 N2687 N 0.79132 0.44123 0.40429
 N2688 N 0.78618 0.44628 0.39225
 C2689 C 0.78693 0.46285 0.37240
 N2690 N 0.77585 0.45648 0.36596
 N2691 N 0.77129 0.46099 0.35347
 C2692 C 0.77764 0.47204 0.34698
 N2693 N 0.78867 0.47845 0.35346
 N2694 N 0.79323 0.47394 0.36594
 C2695 C 0.77293 0.47673 0.33301
 N2696 N 0.77952 0.48757 0.32640
 N2697 N 0.77555 0.49156 0.31355
 C2698 C 0.76484 0.48485 0.30682
 N2699 N 0.75821 0.47405 0.31345
 N2700 N 0.76218 0.47006 0.32631
 C2701 C 0.79104 0.95918 0.88818
 N2702 N 0.80242 0.96526 0.89436
 N2703 N 0.80763 0.96015 0.90635
 C2704 C 0.80164 0.94876 0.91260
 N2705 N 0.79020 0.94273 0.90646
 N2706 N 0.78500 0.94784 0.89447
 C2707 C 0.78568 0.96444 0.87465
 N2708 N 0.77460 0.95806 0.86822
 N2709 N 0.77010 0.96249 0.85568
 C2710 C 0.77652 0.97345 0.84911
 N2711 N 0.78754 0.97989 0.85558
 N2712 N 0.79204 0.97546 0.86812
 C2713 C 0.77198 0.97793 0.83501
 N2714 N 0.77877 0.98853 0.82824
 N2715 N 0.77506 0.99221 0.81521
 C2716 C 0.76441 0.98542 0.80848
 N2717 N 0.75755 0.97487 0.81529
 N2718 N 0.76126 0.97120 0.82832
 C2719 C 0.29166 0.79248 0.36287
 N2720 N 0.30312 0.78653 0.35676
 N2721 N 0.30849 0.79187 0.34494
 C2722 C 0.30259 0.80336 0.33881
 N2723 N 0.29107 0.80925 0.34488
 N2724 N 0.28571 0.80391 0.35669
 C2725 C 0.28612 0.78695 0.37622
 N2726 N 0.27496 0.79318 0.38260
 N2727 N 0.27031 0.78852 0.39499
 C2728 C 0.27664 0.77746 0.40145
 N2729 N 0.28775 0.77117 0.39502
 N2730 N 0.29240 0.77583 0.38263
 C2731 C 0.27197 0.77275 0.41543
 N2732 N 0.27872 0.76209 0.42213
 N2733 N 0.27492 0.75824 0.43508
 C2734 C 0.26422 0.76492 0.44180
 N2735 N 0.25740 0.77552 0.43506
 N2736 N 0.26120 0.77936 0.42210
 C2737 C 0.29157 0.29210 0.86293
 N2738 N 0.28570 0.30357 0.85675
 N2739 N 0.29108 0.30885 0.84492
 C2740 C 0.30253 0.30285 0.83883
 N2741 N 0.30835 0.29133 0.84496
 N2742 N 0.30296 0.28605 0.85680
 C2743 C 0.28601 0.28664 0.87629
 N2744 N 0.29217 0.27544 0.88269
 N2745 N 0.28750 0.27083 0.89509
 C2746 C 0.27648 0.27724 0.90155
 N2747 N 0.27026 0.28838 0.89511
 N2748 N 0.27493 0.29299 0.88271
 C2749 C 0.27178 0.27256 0.91552
 N2750 N 0.26112 0.27930 0.92224
 N2751 N 0.25729 0.27547 0.93519
 C2752 C 0.26397 0.26475 0.94188
 N2753 N 0.27456 0.25794 0.93511
 N2754 N 0.27839 0.26178 0.92217
 C2755 C 0.45755 0.29260 0.88628
 N2756 N 0.44630 0.28642 0.89259
 N2757 N 0.44131 0.29140 0.90471
 C2758 C 0.44738 0.30274 0.91098
 N2759 N 0.45867 0.30888 0.90471
 N2760 N 0.46367 0.30390 0.89258
 C2761 C 0.46275 0.28740 0.87267
 N2762 N 0.47380 0.29376 0.86621
 N2763 N 0.47827 0.28929 0.85368
 C2764 C 0.47184 0.27829 0.84716
 N2765 N 0.46083 0.27189 0.85365
 N2766 N 0.45637 0.27636 0.86618
 C2767 C 0.47650 0.27361 0.83317
 N2768 N 0.46982 0.26286 0.82650
 N2769 N 0.47381 0.25884 0.81366
 C2770 C 0.48463 0.26542 0.80702
 N2771 N 0.49134 0.27614 0.81371
 N2772 N 0.48735 0.28017 0.82655
 C2773 C 0.95800 0.29246 0.38582
 N2774 N 0.96395 0.30392 0.39199
 N2775 N 0.95883 0.30900 0.40403
 C2776 C 0.94759 0.30281 0.41033
 N2777 N 0.94169 0.29131 0.40419
 N2778 N 0.94680 0.28623 0.39215
 C2779 C 0.96332 0.28715 0.37230
 N2780 N 0.95711 0.27595 0.36593
 N2781 N 0.96165 0.27139 0.35346
 C2782 C 0.97257 0.27788 0.34690
 N2783 N 0.97883 0.28905 0.35329
 N2784 N 0.97429 0.29360 0.36576
 C2785 C 0.97725 0.27315 0.33294
 N2786 N 0.98795 0.27984 0.32620
 N2787 N 0.99191 0.27581 0.31336
 C2788 C 0.98532 0.26495 0.30677
 N2789 N 0.97466 0.25822 0.31353
 N2790 N 0.97070 0.26225 0.32638
 C2791 C 0.45730 0.38595 0.79237
 N2792 N 0.44585 0.39209 0.78642
 N2793 N 0.44075 0.40411 0.79154
 C2794 C 0.44693 0.41043 0.80280
 N2795 N 0.45843 0.40433 0.80870
 N2796 N 0.46352 0.39231 0.80358
 C2797 C 0.46262 0.37244 0.78705
 N2798 N 0.47381 0.36610 0.79328
 N2799 N 0.47836 0.35363 0.78875
 C2800 C 0.47188 0.34705 0.77781
 N2801 N 0.46074 0.35342 0.77153
 N2802 N 0.45619 0.36589 0.77607
 C2803 C 0.47660 0.33309 0.77313
 N2804 N 0.46992 0.32635 0.76242
 N2805 N 0.47392 0.31350 0.75846
 C2806 C 0.48476 0.30692 0.76507
 N2807 N 0.49148 0.31369 0.77574
 N2808 N 0.48747 0.32653 0.77970
 C2809 C 0.95623 0.38470 0.29351
 N2810 N 0.96226 0.39081 0.30496
 N2811 N 0.95704 0.40268 0.31032
 C2812 C 0.94559 0.40887 0.30441
 N2813 N 0.93960 0.40280 0.29292
 N2814 N 0.94482 0.39094 0.28757
 C2815 C 0.96169 0.37137 0.28790
 N2816 N 0.95540 0.36505 0.27671
 N2817 N 0.96009 0.35273 0.27190
 C2818 C 0.97124 0.34630 0.27810
 N2819 N 0.97758 0.35266 0.28925
 N2820 N 0.97289 0.36497 0.29406
 C2821 C 0.97610 0.33248 0.27313
 N2822 N 0.98701 0.32589 0.27960
 N2823 N 0.99112 0.31315 0.27542
 C2824 C 0.98448 0.30653 0.26460
 N2825 N 0.97362 0.31316 0.25807
 N2826 N 0.96951 0.32590 0.26226
 C2827 C 0.29168 0.88794 0.45876
 N2828 N 0.30303 0.89423 0.46480
 N2829 N 0.30826 0.90613 0.45950
 C2830 C 0.30234 0.91217 0.44797
 N2831 N 0.29094 0.90592 0.44198
 N2832 N 0.28571 0.89402 0.44728
 C2833 C 0.28629 0.87451 0.46422
 N2834 N 0.27520 0.86802 0.45792
 N2835 N 0.27067 0.85556 0.46251
 C2836 C 0.27705 0.84912 0.47357
 N2837 N 0.28809 0.85565 0.47993
 N2838 N 0.29262 0.86812 0.47534
 C2839 C 0.27247 0.83509 0.47820
 N2840 N 0.27922 0.82838 0.48887
 N2841 N 0.27546 0.81540 0.49264
 C2842 C 0.26480 0.80865 0.48588
 N2843 N 0.25798 0.81540 0.47528
 N2844 N 0.26175 0.82838 0.47151
 C2845 C 0.29132 0.38758 0.95897
 N2846 N 0.30269 0.39385 0.96499
 N2847 N 0.30788 0.40579 0.95974
 C2848 C 0.30189 0.41189 0.94828
 N2849 N 0.29047 0.40567 0.94231
 N2850 N 0.28528 0.39373 0.94757
 C2851 C 0.28596 0.37411 0.96440
 N2852 N 0.27483 0.36766 0.95814
 N2853 N 0.27031 0.35518 0.96270
 C2854 C 0.27675 0.34870 0.97370
 N2855 N 0.28783 0.35519 0.98002
 N2856 N 0.29235 0.36767 0.97545
 C2857 C 0.27216 0.33466 0.97832
 N2858 N 0.27898 0.32791 0.98892
 N2859 N 0.27521 0.31493 0.99270
 C2860 C 0.26448 0.30822 0.98602
 N2861 N 0.25760 0.31501 0.97547
 N2862 N 0.26137 0.32799 0.97170
 C2863 C 0.79319 0.36435 0.29225
 N2864 N 0.80465 0.35820 0.28634
 N2865 N 0.80974 0.34618 0.29149
 C2866 C 0.80355 0.33987 0.30273
 N2867 N 0.79204 0.34599 0.30859
 N2868 N 0.78696 0.35800 0.30345
 C2869 C 0.78786 0.37783 0.28687
 N2870 N 0.77666 0.38419 0.29305
 N2871 N 0.77208 0.39663 0.28844
 C2872 C 0.77854 0.40316 0.27748
 N2873 N 0.78970 0.39677 0.27126
 N2874 N 0.79428 0.38433 0.27587
 C2875 C 0.77379 0.41708 0.27271
 N2876 N 0.78043 0.42375 0.26195
 N2877 N 0.77639 0.43656 0.25790
 C2878 C 0.76554 0.44316 0.26447
 N2879 N 0.75886 0.43646 0.27519
 N2880 N 0.76290 0.42365 0.27923
   
