data_POSCAR
  _audit_creation_date              2014-09-24
  _audit_creation_method            'ToBaCCo'
  _symmetry_space_group_name_H-M    'P1'
  _symmetry_Int_Tables_number       1
  _symmetry_cell_setting            triclinic
  loop_
  _symmetry_equiv_pos_as_xyz
 x,y,z
_cell_length_a 57.6216
_cell_length_b 56.6927
_cell_length_c 61.5348
_cell_angle_alpha 88.043200
_cell_angle_beta 91.936100
_cell_angle_gamma 90.801200
loop_
  _atom_site_label
  _atom_site_type_symbol
  _atom_site_fract_x
  _atom_site_fract_y
  _atom_site_fract_z
C1 C 0.41982 0.01566 0.27470
 C2 C 0.40191 0.03550 0.27236
 C3 C 0.38797 0.03414 0.25400
 C4 C 0.39308 0.01316 0.23979
 C5 C 0.40553 -0.00720 0.27358
 C6 C 0.39148 -0.00852 0.25546
 C7 C 0.43317 0.01717 0.25359
 C8 C 0.41916 0.01600 0.23532
 H9 H 0.40056 0.04941 0.28394
 H10 H 0.38174 0.01197 0.22489
 H11 H 0.40539 -0.02055 0.28670
 H12 H 0.45180 0.02026 0.25309
 C13 C 0.07797 -0.00232 0.77226
 C14 C 0.09281 -0.02448 0.77085
 C15 C 0.10648 -0.02401 0.75309
 C16 C 0.10407 -0.00136 0.73851
 C17 C 0.09539 0.01830 0.77186
 C18 C 0.10907 0.01890 0.75423
 C19 C 0.06488 -0.00038 0.75173
 C20 C 0.07923 0.00009 0.73321
 H21 H 0.09213 -0.03935 0.78244
 H22 H 0.11528 -0.00090 0.72413
 H23 H 0.09636 0.03169 0.78411
 H24 H 0.04603 0.00011 0.75044
 C25 C 0.57995 0.49712 0.27264
 C26 C 0.59491 0.47513 0.27112
 C27 C 0.60867 0.47579 0.25346
 C28 C 0.60633 0.49846 0.23899
 C29 C 0.59707 0.51793 0.27227
 C30 C 0.61084 0.51873 0.25475
 C31 C 0.56631 0.49909 0.25089
 C32 C 0.58010 0.49974 0.23329
 H33 H 0.59412 0.46010 0.28253
 H34 H 0.61760 0.49909 0.22467
 H35 H 0.59778 0.53133 0.28452
 H36 H 0.54747 0.49950 0.24950
 C37 C 0.92005 0.51442 0.77451
 C38 C 0.90232 0.53444 0.77218
 C39 C 0.88836 0.53324 0.75382
 C40 C 0.89328 0.51223 0.73959
 C41 C 0.90554 0.49169 0.77335
 C42 C 0.89148 0.49053 0.75522
 C43 C 0.93341 0.51583 0.75339
 C44 C 0.91938 0.51481 0.73512
 H45 H 0.90109 0.54834 0.78380
 H46 H 0.88192 0.51117 0.72468
 H47 H 0.90536 0.47828 0.78641
 H48 H 0.95207 0.51872 0.75290
 C49 C 0.27707 0.36654 0.99056
 C50 C 0.27543 0.34838 1.00945
 C51 C 0.25557 0.33507 1.00884
 C52 C 0.23907 0.34099 0.98926
 C53 C 0.27403 0.35227 0.96990
 C54 C 0.25410 0.33896 0.96919
 C55 C 0.25481 0.38107 0.99137
 C56 C 0.23494 0.36763 0.99067
 H57 H 0.28804 0.34735 1.02298
 H58 H 0.22294 0.33001 0.98871
 H59 H 0.28597 0.35345 0.95660
 H60 H 0.25477 0.40015 0.99256
 C61 C 0.77317 0.13684 1.00141
 C62 C 0.77289 0.15528 0.98265
 C63 C 0.75399 0.16943 0.98212
 C64 C 0.73694 0.16384 1.00042
 C65 C 0.77115 0.15116 1.02202
 C66 C 0.75207 0.16528 1.02147
 C67 C 0.75128 0.12387 0.99921
 C68 C 0.73135 0.13879 0.99874
 H69 H 0.78633 0.15684 0.97068
 H70 H 0.72156 0.17552 0.99988
 H71 H 0.78296 0.14940 1.03611
 H72 H 0.74999 0.10471 0.99974
 C73 C 0.27453 0.63725 0.50166
 C74 C 0.27369 0.65528 0.48263
 C75 C 0.25482 0.66942 0.48227
 C76 C 0.23826 0.66434 0.50100
 C77 C 0.27285 0.65186 0.52209
 C78 C 0.25379 0.66595 0.52171
 C79 C 0.25133 0.62359 0.50002
 C80 C 0.23236 0.63785 0.49977
 H81 H 0.28686 0.65668 0.47038
 H82 H 0.22287 0.67596 0.50061
 H83 H 0.28486 0.65022 0.53603
 H84 H 0.25002 0.60444 0.50032
 C85 C 0.77704 0.86647 0.49124
 C86 C 0.77514 0.84825 0.51005
 C87 C 0.75529 0.83494 0.50917
 C88 C 0.73905 0.84091 0.48940
 C89 C 0.77431 0.85226 0.47052
 C90 C 0.75440 0.83894 0.46953
 C91 C 0.75476 0.88099 0.49179
 C92 C 0.73489 0.86756 0.49081
 H93 H 0.78761 0.84713 0.52370
 H94 H 0.72293 0.82994 0.48862
 H95 H 0.78651 0.85339 0.45743
 H96 H 0.75470 0.90006 0.49303
 C97 C -0.00464 0.27730 0.40459
 C98 C 0.01513 0.28485 0.38962
 C99 C 0.01694 0.27070 0.37232
 C100 C -0.00106 0.25052 0.37153
 C101 C -0.02546 0.27669 0.39072
 C102 C -0.02337 0.26193 0.37260
 C103 C 0.00053 0.25148 0.41121
 C104 C 0.00245 0.23754 0.39368
 H105 H 0.02805 0.29830 0.39367
 H106 H 0.00042 0.23902 0.35736
 H107 H -0.04096 0.28675 0.39349
 H108 H 0.00339 0.24511 0.42792
 C109 C -0.00536 0.75349 0.11209
 C110 C -0.01422 0.75941 0.13440
 C111 C -0.01156 0.74150 0.14954
 C112 C -0.00037 0.71939 0.14105
 C113 C 0.01988 0.74627 0.11629
 C114 C 0.02242 0.72839 0.13144
 C115 C -0.01831 0.73086 0.10581
 C116 C -0.01563 0.71303 0.12112
 H117 H -0.02414 0.77512 0.13724
 H118 H 0.00179 0.70478 0.15344
 H119 H 0.03455 0.75590 0.10949
 H120 H -0.02656 0.72836 0.08990
 C121 C 0.49709 0.25487 0.61413
 C122 C 0.48729 0.26074 0.63607
 C123 C 0.48854 0.24249 0.65100
 C124 C 0.49941 0.22012 0.64271
 C125 C 0.52184 0.24663 0.61936
 C126 C 0.52298 0.22841 0.63428
 C127 C 0.48370 0.23282 0.60690
 C128 C 0.48498 0.21464 0.62202
 H129 H 0.47784 0.27680 0.63874
 H130 H 0.50043 0.20525 0.65495
 H131 H 0.53719 0.25558 0.61314
 H132 H 0.47629 0.23085 0.59059
 C133 C 0.49703 0.77749 0.90748
 C134 C 0.51724 0.78443 0.89280
 C135 C 0.51862 0.77043 0.87534
 C136 C 0.49991 0.75096 0.87418
 C137 C 0.47532 0.77825 0.89238
 C138 C 0.47698 0.76428 0.87494
 C139 C 0.50048 0.75276 0.91350
 C140 C 0.50209 0.73826 0.89504
 H141 H 0.53045 0.79756 0.89694
 H142 H 0.50099 0.73966 0.85982
 H143 H 0.46024 0.78893 0.89509
 H144 H 0.50328 0.74616 0.93016
 C145 C -0.23505 0.66519 0.97503
 C146 C -0.21586 0.64661 0.97694
 C147 C -0.21734 0.63202 0.99501
 C148 C -0.23785 0.63721 1.00941
 C149 C -0.25779 0.65105 0.97596
 C150 C -0.25930 0.63639 0.99380
 C151 C -0.23322 0.67821 0.99648
 C152 C -0.23457 0.66352 1.01447
 H153 H -0.20199 0.64559 0.96548
 H154 H -0.23918 0.62531 1.02406
 H155 H -0.27118 0.65180 0.96308
 H156 H -0.22983 0.69706 0.99738
 C157 C -0.25024 0.33461 0.47716
 C158 C -0.27222 0.34941 0.47876
 C159 C -0.27170 0.36344 0.49643
 C160 C -0.24919 0.36138 0.51074
 C161 C -0.23017 0.35257 0.47720
 C162 C -0.22951 0.36661 0.49473
 C163 C -0.24791 0.32148 0.49776
 C164 C -0.24738 0.33619 0.51620
 H165 H -0.28709 0.34823 0.46750
 H166 H -0.24865 0.37290 0.52503
 H167 H -0.21708 0.35349 0.46486
 H168 H -0.24780 0.30232 0.49919
 C169 C 0.24984 -0.16349 -0.02258
 C170 C 0.22778 -0.14881 -0.02108
 C171 C 0.22811 -0.13480 -0.00341
 C172 C 0.25058 -0.13671 0.01100
 C173 C 0.26981 -0.14542 -0.02245
 C174 C 0.27033 -0.13139 -0.00492
 C175 C 0.25213 -0.17660 -0.00195
 C176 C 0.25248 -0.16188 0.01648
 H177 H 0.21296 -0.15008 -0.03240
 H178 H 0.25096 -0.12518 0.02527
 H179 H 0.28305 -0.14453 -0.03465
 H180 H 0.25226 -0.19577 -0.00052
 C181 C 0.26394 1.16530 0.47536
 C182 C 0.28356 1.14719 0.47731
 C183 C 0.28241 1.13264 0.49544
 C184 C 0.26178 1.13740 0.50984
 C185 C 0.24152 1.15064 0.47637
 C186 C 0.24035 1.13602 0.49426
 C187 C 0.26549 1.17845 0.49674
 C188 C 0.26447 1.16380 0.51479
 H189 H 0.29744 1.14644 0.46584
 H190 H 0.26074 1.12554 0.52455
 H191 H 0.22809 1.15106 0.46351
 H192 H 0.26844 1.19737 0.49756
 C193 C 0.11501 0.52870 0.25735
 C194 C 0.09709 0.52642 0.23856
 C195 C 0.08411 0.50616 0.23973
 C196 C 0.09009 0.48997 0.25965
 C197 C 0.10103 0.52613 0.27808
 C198 C 0.08804 0.50584 0.27929
 C199 C 0.12942 0.50612 0.25706
 C200 C 0.11633 0.48588 0.25827
 H201 H 0.09582 0.53896 0.22482
 H202 H 0.07940 0.47351 0.26064
 H203 H 0.10192 0.53880 0.29095
 H204 H 0.14819 0.50614 0.25590
 C205 C -0.11171 1.02146 0.24903
 C206 C -0.09385 1.02058 0.26803
 C207 C -0.08021 1.00116 0.26843
 C208 C -0.08570 0.98423 0.24982
 C209 C -0.09731 1.01956 0.22858
 C210 C -0.08370 0.99996 0.22906
 C211 C -0.12482 0.99939 0.25073
 C212 C -0.11045 0.97893 0.25108
 H213 H -0.09210 1.03414 0.28007
 H214 H -0.07447 0.96841 0.25028
 H215 H -0.09857 1.03188 0.21469
 H216 H -0.14368 0.99838 0.25005
 C217 C 0.38835 0.52333 -0.25134
 C218 C 0.40562 0.52159 -0.23197
 C219 C 0.41938 0.50231 -0.23198
 C220 C 0.41468 0.48627 -0.25133
 C221 C 0.40324 0.52232 -0.27148
 C222 C 0.41696 0.50287 -0.27142
 C223 C 0.37466 0.49989 -0.25073
 C224 C 0.38852 0.48051 -0.25080
 H225 H 0.40714 0.53472 -0.21951
 H226 H 0.42594 0.47051 -0.25124
 H227 H 0.40252 0.53538 -0.28482
 H228 H 0.35582 0.49874 -0.25103
 C229 C 0.61638 0.02727 -0.24156
 C230 C 0.59836 0.02584 -0.26035
 C231 C 0.58464 0.00609 -0.25935
 C232 C 0.59002 -0.01047 -0.23954
 C233 C 0.60237 0.02509 -0.22082
 C234 C 0.58863 0.00530 -0.21976
 C235 C 0.62992 0.00413 -0.24204
 C236 C 0.61604 -0.01559 -0.24096
 H237 H 0.59773 0.03838 -0.27412
 H238 H 0.57870 -0.02649 -0.23867
 H239 H 0.60390 0.03753 -0.20778
 H240 H 0.64865 0.00343 -0.24335
 C241 C 0.02479 0.24761 0.83646
 C242 C 0.03290 0.26695 0.85198
 C243 C 0.01936 0.26834 0.86962
 C244 C -0.00086 0.25044 0.87011
 C245 C 0.02433 0.22485 0.85062
 C246 C 0.01083 0.22647 0.86825
 C247 C 0.00071 0.25282 0.83076
 C248 C -0.01330 0.25439 0.84940
 H249 H 0.04644 0.27986 0.84824
 H250 H -0.01180 0.25152 0.88460
 H251 H 0.03395 0.20912 0.84721
 H252 H -0.00584 0.25627 0.81420
 C253 C 0.50488 0.24523 0.14837
 C254 C 0.51134 0.23612 0.12627
 C255 C 0.49443 0.23938 0.11054
 C256 C 0.47263 0.25129 0.11827
 C257 C 0.49862 0.27112 0.14399
 C258 C 0.48170 0.27420 0.12823
 C259 C 0.48201 0.23267 0.15380
 C260 C 0.46518 0.23590 0.13788
 H261 H 0.52684 0.22594 0.12383
 H262 H 0.45881 0.25389 0.10539
 H263 H 0.50825 0.28574 0.15109
 H264 H 0.47875 0.22409 0.16949
 C265 C 0.00487 0.74438 0.64898
 C266 C 0.01125 0.73509 0.62693
 C267 C -0.00568 0.73829 0.61122
 C268 C -0.02743 0.75031 0.61891
 C269 C -0.00134 0.77026 0.64446
 C270 C -0.01830 0.77327 0.62872
 C271 C -0.01801 0.73191 0.65454
 C272 C -0.03487 0.73508 0.63863
 H273 H 0.02674 0.72490 0.62451
 H274 H -0.04128 0.75286 0.60605
 H275 H 0.00828 0.78492 0.65152
 H276 H -0.02126 0.72348 0.67029
 C277 C 0.52681 0.75009 0.33646
 C278 C 0.53497 0.76873 0.35259
 C279 C 0.52126 0.76982 0.37011
 C280 C 0.50080 0.75227 0.37001
 C281 C 0.52557 0.72692 0.34987
 C282 C 0.51191 0.72818 0.36738
 C283 C 0.50156 0.75631 0.33042
 C284 C 0.48806 0.75747 0.34814
 H285 H 0.54859 0.78167 0.34922
 H286 H 0.48968 0.75308 0.38439
 H287 H 0.53478 0.71107 0.34600
 H288 H 0.49512 0.75999 0.31387
 Zr289 Zr 0.01902 -0.02341 1.03083
 O290 O 0.04442 -0.01428 1.05490
 O291 O 0.01288 -0.05926 1.03856
 O292 O 0.00573 -0.02563 1.06245
 O293 O 0.05829 -0.03147 0.99038
 O294 O -0.02758 -0.00421 1.05934
 O295 O 0.05131 -0.03951 1.02622
 O296 O -0.01634 -0.06952 1.01453
 O297 O -0.01701 -0.02649 1.02579
 O298 O 0.01358 -0.03749 1.00008
 O299 O 0.00620 0.01096 1.03328
 O300 O 0.03581 0.00019 1.00897
 Zr301 Zr -0.02027 0.01772 0.97401
 Zr302 Zr -0.02959 0.00792 1.02668
 Zr303 Zr 0.02856 -0.01351 0.97818
 Zr304 Zr -0.02221 -0.03927 0.99458
 O305 O 0.05883 0.00489 0.96829
 O306 O -0.05447 -0.04981 1.00767
 O307 O -0.00726 -0.01662 0.97114
 O308 O -0.03666 -0.00576 0.99594
 O309 O -0.01490 0.03228 1.00461
 O310 O 0.01574 0.02061 0.97914
 C311 C -0.00192 -0.07395 1.03043
 C312 C 0.06387 -0.04032 1.00934
 C313 C -0.01260 -0.01684 1.07021
 O314 O -0.06145 -0.00895 1.03423
 O315 O -0.05726 0.02944 1.01552
 O316 O -0.05108 0.03624 0.97937
 C317 C -0.06272 0.03854 0.99667
 O318 O 0.04758 0.03572 1.03476
 Zr319 Zr 0.02101 0.03385 1.01002
 O320 O -0.01400 0.05326 0.96573
 O321 O -0.03103 0.03707 1.04715
 O322 O 0.01122 0.05994 1.03171
 O323 O 0.05250 0.04597 0.99638
 O324 O 0.01336 0.06474 0.99110
 C325 C -0.00039 0.06858 0.97449
 O326 O -0.04726 0.00916 0.95129
 O327 O 0.03196 -0.04421 0.95997
 O328 O -0.00873 0.01712 0.94181
 O329 O 0.02406 -0.00517 0.94478
 O330 O -0.01295 -0.06683 0.97422
 O331 O -0.04634 -0.04140 0.96780
 C332 C 0.00867 0.00682 0.93379
 H333 H 0.02059 -0.05322 0.99887
 H334 H -0.05357 -0.00684 0.99263
 H335 H 0.02330 0.03089 0.96806
 H336 H 0.00953 0.01704 1.04797
 H337 H -0.05712 -0.06664 1.00435
 H338 H -0.06870 0.00062 1.04528
 H339 H -0.04594 0.03569 1.05469
 H340 H 0.02088 0.07421 1.02873
 H341 H -0.02353 -0.08040 0.97720
 H342 H 0.04677 -0.04250 0.95230
 H343 H 0.06615 -0.00491 0.95746
 H344 H 0.05452 0.06284 0.99982
 H345 H -0.05466 -0.05678 0.96855
 H346 H -0.05039 0.02354 0.94207
 H347 H 0.04779 -0.02876 1.06391
 H348 H 0.05299 0.05229 1.03600
 Zr349 Zr 0.52177 0.47907 0.53096
 O350 O 0.54775 0.48953 0.55397
 O351 O 0.51628 0.44348 0.54013
 O352 O 0.50940 0.47821 0.56294
 O353 O 0.55995 0.46934 0.48994
 O354 O 0.47581 0.49919 0.55975
 O355 O 0.55395 0.46287 0.52619
 O356 O 0.48671 0.43184 0.51707
 O357 O 0.48567 0.47543 0.52688
 O358 O 0.51568 0.46363 0.50089
 O359 O 0.50866 0.51344 0.53244
 O360 O 0.53775 0.50189 0.50790
 Zr361 Zr 0.48065 0.51744 0.47360
 Zr362 Zr 0.47277 0.50979 0.52675
 Zr363 Zr 0.52986 0.48680 0.47783
 Zr364 Zr 0.47981 0.46127 0.49630
 O365 O 0.55977 0.50501 0.46679
 O366 O 0.44814 0.45102 0.51070
 O367 O 0.49392 0.48306 0.47172
 O368 O 0.46507 0.49473 0.49672
 O369 O 0.48664 0.53336 0.50351
 O370 O 0.51673 0.52086 0.47784
 C371 C 0.50159 0.42822 0.53277
 C372 C 0.56603 0.46128 0.50906
 C373 C 0.49121 0.48724 0.57076
 O374 O 0.44134 0.49294 0.53569
 O375 O 0.44458 0.53053 0.51545
 O376 O 0.44976 0.53585 0.47897
 C377 C 0.43854 0.53877 0.49642
 O378 O 0.54985 0.53859 0.53203
 Zr379 Zr 0.52264 0.53547 0.50807
 O380 O 0.48627 0.55274 0.46394
 O381 O 0.47153 0.53985 0.54612
 O382 O 0.51307 0.56234 0.52905
 O383 O 0.55357 0.54748 0.49332
 O384 O 0.51414 0.56550 0.48826
 C385 C 0.49993 0.56856 0.47187
 O386 O 0.45328 0.50754 0.45180
 O387 O 0.53296 0.45544 0.46049
 O388 O 0.49147 0.51575 0.44125
 O389 O 0.52455 0.49389 0.44430
 O390 O 0.48873 0.43298 0.47662
 O391 O 0.45487 0.45763 0.47034
 C392 C 0.50883 0.50538 0.43324
 H393 H 0.52278 0.44791 0.50004
 H394 H 0.44811 0.49334 0.49384
 H395 H 0.52391 0.53077 0.46627
 H396 H 0.51231 0.52021 0.54679
 H397 H 0.44561 0.43398 0.50820
 H398 H 0.43426 0.50296 0.54650
 H399 H 0.45681 0.53869 0.55399
 H400 H 0.52245 0.57661 0.52534
 H401 H 0.47847 0.41938 0.48041
 H402 H 0.54762 0.45688 0.45255
 H403 H 0.56690 0.49485 0.45613
 H404 H 0.55549 0.56450 0.49623
 H405 H 0.44671 0.44222 0.47199
 H406 H 0.44970 0.52152 0.44217
 H407 H 0.55151 0.47549 0.56344
 H408 H 0.55493 0.55532 0.53275
 Zr409 Zr 0.47618 0.99454 0.53903
 O410 O 0.45132 0.97545 0.55739
 O411 O 0.47773 1.02677 0.55444
 O412 O 0.48876 0.98906 0.57142
 O413 O 0.43800 1.01309 0.49745
 O414 O 0.52443 0.97275 0.56786
 O415 O 0.44296 1.00971 0.53444
 O416 O 0.50625 1.04719 0.53662
 O417 O 0.51182 1.00228 0.53868
 O418 O 0.48107 1.01823 0.51274
 O419 O 0.49255 0.96191 0.53623
 O420 O 0.46237 0.97741 0.51147
 Zr421 Zr 0.52088 0.97643 0.48024
 Zr422 Zr 0.52802 0.97007 0.53409
 Zr423 Zr 0.46916 1.00086 0.48521
 Zr424 Zr 0.51653 1.02496 0.51183
 O425 O 0.44070 0.98366 0.46960
 O426 O 0.54693 1.03345 0.53047
 O427 O 0.50463 1.00929 0.48293
 O428 O 0.53433 0.99352 0.50783
 O429 O 0.51629 0.95244 0.50642
 O430 O 0.48529 0.96878 0.48090
 C431 C 0.49078 1.04495 0.55119
 C432 C 0.43126 1.01565 0.51693
 C433 C 0.50812 0.98074 0.57920
 O434 O 0.55842 0.98618 0.54736
 O435 O 0.55754 0.95434 0.52164
 O436 O 0.55305 0.95929 0.48474
 C437 C 0.56421 0.95198 0.50210
 O438 O 0.45328 0.93481 0.52803
 Zr439 Zr 0.48064 0.94601 0.50764
 O440 O 0.51898 0.94410 0.46482
 O441 O 0.53147 0.93605 0.54897
 O442 O 0.49210 0.91512 0.52496
 O443 O 0.45149 0.93512 0.48835
 O444 O 0.49276 0.92268 0.48466
 C445 C 0.50737 0.92521 0.46939
 O446 O 0.54720 0.99457 0.46292
 O447 O 0.46375 1.03564 0.47264
 O448 O 0.50985 0.98519 0.44790
 O449 O 0.47482 1.00277 0.45160
 O450 O 0.50533 1.05716 0.49666
 O451 O 0.54129 1.03783 0.48935
 C452 C 0.49147 0.99560 0.44022
 H453 H 0.47268 1.03323 0.51386
 H454 H 0.55113 0.99695 0.50656
 H455 H 0.47915 0.96148 0.46746
 H456 H 0.48953 0.95133 0.54898
 H457 H 0.54767 1.05086 0.53141
 H458 H 0.56615 0.97415 0.55705
 H459 H 0.54607 0.93630 0.55795
 H460 H 0.48406 0.90146 0.51826
 H461 H 0.51415 1.07012 0.50372
 H462 H 0.44927 1.03525 0.46348
 H463 H 0.43272 0.99575 0.46016
 H464 H 0.45129 0.91762 0.48863
 H465 H 0.54812 1.05287 0.49446
 H466 H 0.55220 0.98400 0.45148
 H467 H 0.44613 0.98608 0.56869
 H468 H 0.44972 0.91790 0.52583
 Zr469 Zr -0.02497 0.49248 1.03905
 O470 O -0.04992 0.47337 1.05727
 O471 O -0.02345 0.52468 1.05454
 O472 O -0.01257 0.48693 1.07150
 O473 O -0.06301 0.51092 0.99731
 O474 O 0.02318 0.47075 1.06810
 O475 O -0.05819 0.50761 1.03431
 O476 O 0.00515 0.54511 1.03687
 O477 O 0.01066 0.50034 1.03884
 O478 O -0.02003 0.51620 1.01278
 O479 O -0.00846 0.45991 1.03632
 O480 O -0.03858 0.47530 1.01143
 Zr481 Zr 0.02010 0.47454 0.98045
 Zr482 Zr 0.02699 0.46820 1.03434
 Zr483 Zr -0.03175 0.49878 0.98520
 Zr484 Zr 0.01541 0.52303 1.01199
 O485 O -0.06007 0.48140 0.96952
 O486 O 0.04581 0.53177 1.03053
 O487 O 0.00371 0.50733 0.98305
 O488 O 0.03334 0.49166 1.00810
 O489 O 0.01547 0.45053 1.00662
 O490 O -0.01547 0.46676 0.98096
 C491 C -0.01033 0.54282 1.05142
 C492 C -0.06984 0.51350 1.01676
 C493 C 0.00676 0.47865 1.07937
 O494 O 0.05719 0.48450 1.04781
 O495 O 0.05672 0.45273 1.02205
 O496 O 0.05237 0.45761 0.98513
 C497 C 0.06352 0.45043 1.00254
 O498 O -0.04764 0.43273 1.02794
 Zr499 Zr -0.02016 0.44398 1.00768
 O500 O 0.01840 0.44221 0.96504
 O501 O 0.03056 0.43415 1.04915
 O502 O -0.00866 0.41313 1.02505
 O503 O -0.04917 0.43290 0.98830
 O504 O -0.00788 0.42070 0.98474
 C505 C 0.00680 0.42330 0.96954
 O506 O 0.04643 0.49273 0.96319
 O507 O -0.03730 0.53352 0.97258
 O508 O 0.00920 0.48328 0.94807
 O509 O -0.02593 0.50072 0.95161
 O510 O 0.00398 0.55518 0.99686
 O511 O 0.04012 0.53597 0.98949
 C512 C -0.00919 0.49363 0.94030
 H513 H -0.02846 0.53117 1.01390
 H514 H 0.05013 0.49518 1.00691
 H515 H -0.02153 0.45945 0.96750
 H516 H -0.01152 0.44931 1.04905
 H517 H 0.04648 0.54919 1.03138
 H518 H 0.06495 0.47251 1.05752
 H519 H 0.04509 0.43448 1.05822
 H520 H -0.01662 0.39945 1.01833
 H521 H 0.01270 0.56818 1.00395
 H522 H -0.05171 0.53303 0.96334
 H523 H -0.06804 0.49343 0.96001
 H524 H -0.04934 0.41540 0.98867
 H525 H 0.04669 0.55119 0.99443
 H526 H 0.05150 0.48216 0.95179
 H527 H -0.05520 0.48399 1.06854
 H528 H -0.05102 0.41577 1.02586
 Zr529 Zr -0.02238 0.48993 0.47637
 O530 O -0.04569 0.49567 0.44942
 O531 O -0.01654 0.45358 0.47502
 O532 O -0.00661 0.48482 0.44629
 O533 O -0.06522 0.48616 0.51475
 O534 O 0.02695 0.50667 0.44862
 O535 O -0.05531 0.47400 0.48130
 O536 O 0.00982 0.44608 0.50289
 O537 O 0.01314 0.48766 0.48455
 O538 O -0.01998 0.47971 0.50934
 O539 O -0.00849 0.52379 0.46952
 O540 O -0.04055 0.51566 0.49285
 Zr541 Zr 0.01285 0.53775 0.52889
 Zr542 Zr 0.02662 0.52183 0.47931
 Zr543 Zr -0.03627 0.50590 0.52593
 Zr544 Zr 0.01523 0.47872 0.51775
 O545 O -0.06684 0.52527 0.53009
 O546 O 0.04816 0.46687 0.50865
 O547 O -0.00115 0.50387 0.53605
 O548 O 0.03056 0.51197 0.51232
 O549 O 0.01052 0.54834 0.49596
 O550 O -0.02260 0.53978 0.52059
 C551 C -0.00332 0.43984 0.48676
 C552 C -0.06924 0.47490 0.49720
 C553 C 0.01247 0.49312 0.43855
 O554 O 0.05854 0.50426 0.47689
 O555 O 0.05395 0.54453 0.48913
 O556 O 0.04477 0.55546 0.52315
 C557 C 0.05801 0.55577 0.50667
 O558 O -0.04995 0.54689 0.46153
 Zr559 Zr -0.02486 0.54896 0.48756
 O560 O 0.00705 0.57412 0.53011
 O561 O 0.03080 0.54866 0.45493
 O562 O -0.01325 0.57178 0.46202
 O563 O -0.05665 0.56320 0.49711
 O564 O -0.01710 0.58208 0.50065
 C565 C -0.00460 0.58819 0.51723
 O566 O 0.03753 0.53255 0.55486
 O567 O -0.04224 0.47769 0.54859
 O568 O -0.00151 0.54042 0.55997
 O569 O -0.03451 0.51767 0.55793
 O570 O 0.00346 0.45420 0.54189
 O571 O 0.03742 0.47972 0.54603
 C572 C -0.01973 0.53069 0.56821
 H573 H -0.02747 0.46424 0.51260
 H574 H 0.04713 0.51139 0.51706
 H575 H -0.03071 0.55131 0.52926
 H576 H -0.01045 0.52817 0.45386
 H577 H 0.05003 0.45055 0.51467
 H578 H 0.06705 0.51257 0.46511
 H579 H 0.04631 0.54653 0.44885
 H580 H -0.02302 0.58604 0.46164
 H581 H 0.01365 0.44025 0.54189
 H582 H -0.05769 0.48020 0.55467
 H583 H -0.07539 0.51696 0.54184
 H584 H -0.05793 0.57925 0.49031
 H585 H 0.04520 0.46433 0.54832
 H586 H 0.04008 0.54798 0.56178
 H587 H -0.04860 0.48019 0.44270
 H588 H -0.05499 0.56299 0.45697
 Zr589 Zr 0.47858 -0.00984 -0.02258
 O590 O 0.45540 -0.00456 -0.04970
 O591 O 0.48456 -0.04620 -0.02345
 O592 O 0.49454 -0.01529 -0.05250
 O593 O 0.43554 -0.01315 0.01561
 O594 O 0.52801 0.00670 -0.05029
 O595 O 0.44566 -0.02577 -0.01761
 O596 O 0.51079 -0.05323 0.00463
 O597 O 0.51408 -0.01187 -0.01421
 O598 O 0.48085 -0.01959 0.01050
 O599 O 0.49239 0.02399 -0.02975
 O600 O 0.46024 0.01608 -0.00650
 Zr601 Zr 0.51340 0.03885 0.02950
 Zr602 Zr 0.52747 0.02228 -0.01980
 Zr603 Zr 0.46439 0.00679 0.02669
 Zr604 Zr 0.51603 -0.02035 0.01908
 O605 O 0.43373 0.02611 0.03054
 O606 O 0.54903 -0.03223 0.01023
 O607 O 0.49947 0.00501 0.03699
 O608 O 0.53127 0.01288 0.01332
 O609 O 0.51119 0.04898 -0.00354
 O610 O 0.47797 0.04065 0.02102
 C611 C 0.49776 -0.05974 -0.01147
 C612 C 0.43163 -0.02466 -0.00180
 C613 C 0.51362 -0.00703 -0.06026
 O614 O 0.55946 0.00475 -0.02186
 O615 O 0.55469 0.04518 -0.01013
 O616 O 0.54529 0.05659 0.02368
 C617 C 0.55863 0.05668 0.00728
 O618 O 0.45095 0.04692 -0.03826
 Zr619 Zr 0.47584 0.04937 -0.01211
 O620 O 0.50742 0.07522 0.03029
 O621 O 0.53167 0.04881 -0.04444
 O622 O 0.48751 0.07194 -0.03781
 O623 O 0.44391 0.06356 -0.00286
 O624 O 0.48338 0.08271 0.00065
 C625 C 0.49576 0.08908 0.01723
 O626 O 0.53798 0.03410 0.05561
 O627 O 0.45845 -0.02117 0.04962
 O628 O 0.49888 0.04185 0.06047
 O629 O 0.46594 0.01900 0.05854
 O630 O 0.50424 -0.04455 0.04348
 O631 O 0.53813 -0.01890 0.04739
 C632 C 0.48064 0.03218 0.06873
 H633 H 0.47339 -0.03504 0.01391
 H634 H 0.54783 0.01242 0.01814
 H635 H 0.46977 0.05227 0.02952
 H636 H 0.49050 0.02815 -0.04546
 H637 H 0.55095 -0.04847 0.01645
 H638 H 0.56800 0.01291 -0.03371
 H639 H 0.54722 0.04664 -0.05045
 H640 H 0.47767 0.08617 -0.03838
 H641 H 0.51447 -0.05847 0.04370
 H642 H 0.44294 -0.01867 0.05559
 H643 H 0.42513 0.01788 0.04231
 H644 H 0.44261 0.07956 -0.00977
 H645 H 0.54595 -0.03424 0.04989
 H646 H 0.54042 0.04964 0.06236
 H647 H 0.45259 -0.02015 -0.05623
 H648 H 0.44578 0.06295 -0.04293
 Zr649 Zr 0.53468 0.51138 -0.03405
 O650 O 0.56030 0.49356 -0.05083
 O651 O 0.53425 0.54448 -0.05028
 O652 O 0.52405 0.50689 -0.06685
 O653 O 0.57123 0.52709 0.00917
 O654 O 0.48771 0.49051 -0.06462
 O655 O 0.56813 0.52606 -0.02792
 O656 O 0.50512 0.56348 -0.03398
 O657 O 0.49920 0.51914 -0.03537
 O658 O 0.52907 0.53352 -0.00830
 O659 O 0.51722 0.47858 -0.03152
 O660 O 0.54640 0.49244 -0.00572
 Zr661 Zr 0.48618 0.48986 0.02280
 Zr662 Zr 0.48188 0.48670 -0.03115
 Zr663 Zr 0.53896 0.51436 0.01991
 Zr664 Zr 0.49371 0.54018 -0.00896
 O665 O 0.56628 0.49626 0.03684
 O666 O 0.46409 0.54999 -0.02841
 O667 O 0.50361 0.52280 0.02060
 O668 O 0.47474 0.50860 -0.00554
 O669 O 0.49150 0.46738 -0.00283
 O670 O 0.52160 0.48208 0.02378
 C671 C 0.52101 0.56219 -0.04807
 C672 C 0.57916 0.53066 -0.00995
 C673 C 0.50503 0.49860 -0.07531
 O674 O 0.45299 0.50401 -0.04628
 O675 O 0.45114 0.47051 -0.02010
 O676 O 0.45362 0.47313 0.01688
 C677 C 0.44326 0.46690 -0.00095
 O678 O 0.55522 0.45063 -0.02113
 Zr679 Zr 0.52701 0.46084 -0.00232
 O680 O 0.48593 0.45664 0.03841
 O681 O 0.47791 0.45343 -0.04550
 O682 O 0.51557 0.43108 -0.01990
 O683 O 0.55473 0.44865 0.01847
 O684 O 0.51268 0.43619 0.02025
 C685 C 0.49715 0.43795 0.03464
 O686 O 0.45976 0.50738 0.03877
 O687 O 0.54441 0.54839 0.03239
 O688 O 0.49617 0.49576 0.05559
 O689 O 0.53187 0.51358 0.05322
 O690 O 0.50546 0.57160 0.00586
 O691 O 0.46854 0.55183 0.01261
 C692 C 0.51470 0.50525 0.06397
 H693 H 0.53794 0.54858 -0.00933
 H694 H 0.45796 0.51203 -0.00510
 H695 H 0.52686 0.47381 0.03745
 H696 H 0.52065 0.46863 -0.04390
 H697 H 0.46382 0.56747 -0.02942
 H698 H 0.44534 0.49258 -0.05612
 H699 H 0.46388 0.45430 -0.05524
 H700 H 0.52271 0.41695 -0.01264
 H701 H 0.49730 0.58495 -0.00172
 H702 H 0.55835 0.54744 0.04226
 H703 H 0.57403 0.50772 0.04660
 H704 H 0.55429 0.43117 0.01850
 H705 H 0.46265 0.56741 0.00738
 H706 H 0.45371 0.49612 0.04998
 H707 H 0.56634 0.50485 -0.06201
 H708 H 0.55809 0.43356 -0.01856
 Zr709 Zr 0.03504 1.01016 0.46670
 O710 O 0.06051 0.99212 0.44992
 O711 O 0.03479 1.04323 0.45040
 O712 O 0.02433 1.00570 0.43391
 O713 O 0.07175 1.02571 0.50986
 O714 O -0.01213 0.98961 0.43620
 O715 O 0.06859 1.02464 0.47278
 O716 O 0.00581 1.06246 0.46668
 O717 O -0.00038 1.01818 0.46541
 O718 O 0.02963 1.03240 0.49242
 O719 O 0.01736 0.97748 0.46930
 O720 O 0.04668 0.99120 0.49505
 Zr721 Zr -0.01352 0.98911 0.52362
 Zr722 Zr -0.01791 0.98587 0.46968
 Zr723 Zr 0.03942 1.01322 0.52066
 Zr724 Zr -0.00568 1.03932 0.49179
 O725 O 0.06664 0.99498 0.53761
 O726 O -0.03531 1.04927 0.47242
 O727 O 0.00414 1.02192 0.52137
 O728 O -0.02486 1.00787 0.49528
 O729 O -0.00838 0.96654 0.49803
 O730 O 0.02184 0.98107 0.52459
 C731 C 0.02164 1.06102 0.45256
 C732 C 0.07967 1.02921 0.49072
 C733 C 0.00522 0.99757 0.42548
 O734 O -0.04671 1.00337 0.45460
 O735 O -0.04871 0.96988 0.48080
 O736 O -0.04616 0.97256 0.51777
 C737 C -0.05658 0.96635 0.49996
 O738 O 0.05514 0.94923 0.47967
 Zr739 Zr 0.02707 0.95974 0.49852
 O740 O -0.01397 0.95593 0.53931
 O741 O -0.02212 0.95261 0.45536
 O742 O 0.01543 0.92997 0.48105
 O743 O 0.05476 0.94746 0.51931
 O744 O 0.01259 0.93525 0.52114
 C745 C -0.00290 0.93715 0.53555
 O746 O -0.03980 1.00686 0.53957
 O747 O 0.04511 1.04724 0.53308
 O748 O -0.00347 0.99503 0.55639
 O749 O 0.03237 1.01255 0.55397
 O750 O 0.00633 1.07071 0.50650
 O751 O -0.03066 1.05120 0.51343
 C752 C 0.01514 1.00440 0.56475
 H753 H 0.03859 1.04739 0.49135
 H754 H -0.04161 1.01141 0.49573
 H755 H 0.02706 0.97280 0.53828
 H756 H 0.02070 0.96749 0.45692
 H757 H -0.03547 1.06675 0.47137
 H758 H -0.05446 0.99198 0.44477
 H759 H -0.03616 0.95358 0.44562
 H760 H 0.02249 0.91582 0.48835
 H761 H -0.00179 1.08409 0.49893
 H762 H 0.05906 1.04623 0.54292
 H763 H 0.07450 1.00644 0.54730
 H764 H 0.05418 0.92998 0.51945
 H765 H -0.03651 1.06679 0.50817
 H766 H -0.04594 0.99567 0.55078
 H767 H 0.06662 1.00335 0.43872
 H768 H 0.05797 0.93218 0.48238
 Zr769 Zr 0.72583 0.26749 0.22050
 O770 O 0.73290 0.29302 0.19557
 O771 O 0.69053 0.25981 0.21420
 O772 O 0.72334 0.25323 0.18918
 O773 O 0.71813 0.30827 0.26027
 O774 O 0.74565 0.22022 0.19240
 O775 O 0.70906 0.29985 0.22492
 O776 O 0.68227 0.23063 0.23940
 O777 O 0.72417 0.23091 0.22649
 O778 O 0.71337 0.26237 0.25186
 O779 O 0.75994 0.25557 0.21727
 O780 O 0.74924 0.28597 0.24115
 Zr781 Zr 0.76969 0.23059 0.27696
 Zr782 Zr 0.75839 0.21930 0.22483
 Zr783 Zr 0.73722 0.27902 0.27256
 Zr784 Zr 0.71301 0.22611 0.25828
 O785 O 0.75478 0.31060 0.28105
 O786 O 0.70324 0.19268 0.24622
 O787 O 0.73561 0.24273 0.28057
 O788 O 0.74636 0.21255 0.25619
 O789 O 0.78259 0.23567 0.24571
 O790 O 0.77116 0.26712 0.27087
 C791 C 0.67683 0.24470 0.22334
 C792 C 0.70849 0.31306 0.24151
 C793 C 0.73255 0.23483 0.18151
 O794 O 0.74247 0.18628 0.21847
 O795 O 0.78070 0.19214 0.23599
 O796 O 0.78852 0.19961 0.27176
 C797 C 0.79047 0.18737 0.25467
 O798 O 0.78247 0.29876 0.21427
 Zr799 Zr 0.78274 0.27205 0.23938
 O800 O 0.80482 0.23818 0.28359
 O801 O 0.78650 0.21809 0.20365
 O802 O 0.80764 0.26277 0.21665
 O803 O 0.79445 0.30453 0.25222
 O804 O 0.81421 0.26526 0.25686
 C805 C 0.81918 0.25182 0.27357
 O806 O 0.76312 0.20360 0.30070
 O807 O 0.70762 0.28215 0.29168
 O808 O 0.76965 0.24318 0.30893
 O809 O 0.74648 0.27561 0.30580
 O810 O 0.68653 0.23519 0.27948
 O811 O 0.71269 0.20216 0.28561
 C812 C 0.75905 0.26065 0.31684
 H813 H 0.69775 0.26901 0.25346
 H814 H 0.74596 0.19543 0.25994
 H815 H 0.78148 0.27536 0.28142
 H816 H 0.76532 0.25879 0.20234
 H817 H 0.68692 0.18953 0.25014
 H818 H 0.75176 0.17887 0.20734
 H819 H 0.78538 0.20269 0.19651
 H820 H 0.82141 0.27320 0.21884
 H821 H 0.67338 0.22398 0.27722
 H822 H 0.70910 0.29749 0.29889
 H823 H 0.74537 0.31804 0.29206
 H824 H 0.81079 0.30700 0.24803
 H825 H 0.69781 0.19322 0.28555
 H826 H 0.77771 0.20120 0.30949
 H827 H 0.71821 0.29568 0.18700
 H828 H 0.79846 0.30494 0.21235
 Zr829 Zr 0.74424 0.72379 0.71060
 O830 O 0.72665 0.69816 0.69174
 O831 O 0.77617 0.72677 0.69567
 O832 O 0.73897 0.73685 0.67827
 O833 O 0.76317 0.68510 0.75200
 O834 O 0.72155 0.77239 0.68197
 O835 O 0.76034 0.69059 0.71503
 O836 O 0.79493 0.75615 0.71409
 O837 O 0.75058 0.76022 0.71144
 O838 O 0.76692 0.72921 0.73728
 O839 O 0.71149 0.73917 0.71314
 O840 O 0.72742 0.70874 0.73779
 Zr841 Zr 0.72381 0.76760 0.76965
 Zr842 Zr 0.71822 0.77541 0.71575
 Zr843 Zr 0.74979 0.71607 0.76444
 Zr844 Zr 0.77224 0.76541 0.73866
 O845 O 0.73350 0.68639 0.77947
 O846 O 0.77992 0.79684 0.72049
 O847 O 0.75677 0.75234 0.76721
 O848 O 0.74059 0.78227 0.74242
 O849 O 0.70084 0.76246 0.74307
 O850 O 0.71756 0.73123 0.76852
 C851 C 0.79354 0.74058 0.69933
 C852 C 0.76631 0.67867 0.73249
 C853 C 0.73022 0.75630 0.67057
 O854 O 0.73324 0.80702 0.70305
 O855 O 0.70145 0.80461 0.72828
 O856 O 0.70586 0.79972 0.76519
 C857 C 0.69855 0.81102 0.74784
 O858 O 0.68620 0.69811 0.72066
 Zr859 Zr 0.69580 0.72609 0.74140
 O860 O 0.69177 0.76429 0.78454
 O861 O 0.68486 0.77793 0.70047
 O862 O 0.66533 0.73680 0.72368
 O863 O 0.68569 0.69592 0.76029
 O864 O 0.67193 0.73732 0.76404
 C865 C 0.67363 0.75202 0.77949
 O866 O 0.74032 0.79473 0.78753
 O867 O 0.78398 0.71147 0.77742
 O868 O 0.73247 0.75628 0.80200
 O869 O 0.75107 0.72142 0.79812
 O870 O 0.80404 0.75493 0.75421
 O871 O 0.78357 0.79070 0.76156
 C872 C 0.74336 0.73793 0.80961
 H873 H 0.78201 0.72126 0.73628
 H874 H 0.74334 0.79942 0.74390
 H875 H 0.71038 0.72456 0.78181
 H876 H 0.70141 0.73591 0.70021
 H877 H 0.79705 0.79823 0.71989
 H878 H 0.72131 0.81459 0.69326
 H879 H 0.68475 0.79286 0.69161
 H880 H 0.65204 0.72807 0.73008
 H881 H 0.81662 0.76440 0.74741
 H882 H 0.78389 0.69665 0.78644
 H883 H 0.74548 0.67858 0.78903
 H884 H 0.66849 0.69509 0.75969
 H885 H 0.79830 0.79813 0.75684
 H886 H 0.72952 0.79920 0.79887
 H887 H 0.73748 0.69345 0.68052
 H888 H 0.66962 0.69393 0.72249
 Zr889 Zr 0.23419 0.22734 0.77225
 O890 O 0.23791 0.20403 0.79975
 O891 O 0.19861 0.23470 0.77215
 O892 O 0.22890 0.24424 0.80187
 O893 O 0.23023 0.18303 0.73467
 O894 O 0.25180 0.27740 0.79961
 O895 O 0.21746 0.19438 0.76744
 O896 O 0.19323 0.26096 0.74348
 O897 O 0.23362 0.26335 0.76334
 O898 O 0.22547 0.22940 0.73897
 O899 O 0.26781 0.24022 0.77987
 O900 O 0.25936 0.20742 0.75698
 Zr901 Zr 0.28445 0.25995 0.72068
 Zr902 Zr 0.26758 0.27576 0.76941
 Zr903 Zr 0.25114 0.21138 0.72358
 Zr904 Zr 0.22614 0.26504 0.72987
 O905 O 0.26910 0.17941 0.72060
 O906 O 0.21540 0.29911 0.73817
 O907 O 0.25085 0.24691 0.71273
 O908 O 0.25923 0.27940 0.73608
 O909 O 0.29356 0.25792 0.75393
 O910 O 0.28480 0.22403 0.72972
 C911 C 0.18599 0.24819 0.75956
 C912 C 0.21838 0.17981 0.75187
 C913 C 0.23765 0.26342 0.80956
 O914 O 0.25144 0.30895 0.77070
 O915 O 0.29131 0.30234 0.75983
 O916 O 0.30288 0.29184 0.72640
 C917 C 0.30312 0.30563 0.74263
 O918 O 0.28867 0.19729 0.78934
 Zr919 Zr 0.29254 0.22213 0.76301
 O920 O 0.32005 0.25272 0.72088
 O921 O 0.29334 0.27951 0.79443
 O922 O 0.31452 0.23341 0.78910
 O923 O 0.30558 0.18907 0.75432
 O924 O 0.32589 0.22866 0.75106
 C925 C 0.33298 0.24081 0.73454
 O926 O 0.28118 0.28457 0.69411
 O927 O 0.22397 0.20590 0.70020
 O928 O 0.28770 0.24442 0.69005
 O929 O 0.26392 0.21188 0.69205
 O930 O 0.20248 0.25369 0.70510
 O931 O 0.22908 0.28697 0.70135
 C932 C 0.27771 0.22605 0.68192
 H933 H 0.21010 0.22230 0.73530
 H934 H 0.25947 0.29616 0.73103
 H935 H 0.29616 0.21514 0.72160
 H936 H 0.27151 0.23841 0.79566
 H937 H 0.19965 0.30155 0.73160
 H938 H 0.25956 0.31756 0.78252
 H939 H 0.29166 0.29551 0.80016
 H940 H 0.32812 0.22286 0.79010
 H941 H 0.18930 0.26476 0.70433
 H942 H 0.22605 0.18994 0.69450
 H943 H 0.26098 0.17077 0.70879
 H944 H 0.32117 0.18733 0.76144
 H945 H 0.21449 0.29575 0.69861
 H946 H 0.29670 0.28639 0.68768
 H947 H 0.22234 0.20190 0.80601
 H948 H 0.30411 0.19129 0.79421
 Zr949 Zr 0.26102 0.78745 0.28319
 O950 O 0.24385 0.81269 0.30124
 O951 O 0.29411 0.78699 0.29836
 O952 O 0.25773 0.77549 0.31587
 O953 O 0.27471 0.82623 0.24059
 O954 O 0.24212 0.73840 0.31304
 O955 O 0.27513 0.82169 0.27765
 O956 O 0.31266 0.75849 0.28041
 O957 O 0.26918 0.75155 0.28320
 O958 O 0.28187 0.78301 0.25650
 O959 O 0.22893 0.76932 0.28115
 O960 O 0.24125 0.80010 0.25580
 Zr961 Zr 0.23854 0.73999 0.22544
 Zr962 Zr 0.23738 0.73362 0.27946
 Zr963 Zr 0.26192 0.79381 0.22920
 Zr964 Zr 0.28893 0.74724 0.25590
 O965 O 0.24301 0.82187 0.21393
 O966 O 0.29971 0.71675 0.27422
 O967 O 0.27072 0.75813 0.22715
 O968 O 0.25804 0.72761 0.25288
 O969 O 0.21736 0.74413 0.25200
 O970 O 0.23030 0.77580 0.22577
 C971 C 0.31167 0.77408 0.29504
 C972 C 0.27904 0.83353 0.25986
 C973 C 0.25009 0.75577 0.32403
 O974 O 0.25532 0.70403 0.29306
 O975 O 0.22116 0.70277 0.26788
 O976 O 0.22253 0.70659 0.23085
 C977 C 0.21694 0.69547 0.24857
 O978 O 0.20085 0.80812 0.27254
 Zr979 Zr 0.21034 0.78001 0.25278
 O980 O 0.20533 0.73954 0.21102
 O981 O 0.20530 0.72854 0.29483
 O982 O 0.18196 0.76776 0.27131
 O983 O 0.19702 0.80827 0.23284
 O984 O 0.18535 0.76517 0.23106
 C985 C 0.18681 0.74993 0.21615
 O986 O 0.25554 0.71405 0.20809
 O987 O 0.29473 0.80042 0.21561
 O988 O 0.24304 0.75145 0.19272
 O989 O 0.26004 0.78792 0.19565
 O990 O 0.31912 0.76006 0.24034
 O991 O 0.29980 0.72261 0.23315
 C992 C 0.25180 0.77072 0.18459
 H993 H 0.29662 0.79215 0.25728
 H994 H 0.26156 0.71065 0.25182
 H995 H 0.22156 0.78140 0.21251
 H996 H 0.21956 0.77223 0.29396
 H997 H 0.31691 0.71673 0.27461
 H998 H 0.24450 0.69565 0.30294
 H999 H 0.20666 0.71391 0.30404
 H1000 H 0.16774 0.77507 0.26474
 H1001 H 0.33259 0.75166 0.24721
 H1002 H 0.29323 0.81496 0.20628
 H1003 H 0.25374 0.83034 0.20401
 H1004 H 0.17986 0.80741 0.23340
 H1005 H 0.31530 0.71656 0.23774
 H1006 H 0.24416 0.70815 0.19704
 H1007 H 0.25527 0.81860 0.31226
 H1008 H 0.18401 0.81108 0.27046
 Zr1009 Zr 0.22594 0.76895 0.72046
 O1010 O 0.23285 0.79455 0.69555
 O1011 O 0.19073 0.76091 0.71405
 O1012 O 0.22375 0.75465 0.68912
 O1013 O 0.21768 0.80968 0.76016
 O1014 O 0.24636 0.72187 0.69248
 O1015 O 0.20883 0.80113 0.72479
 O1016 O 0.18265 0.73173 0.73931
 O1017 O 0.22460 0.73237 0.72649
 O1018 O 0.21342 0.76376 0.75179
 O1019 O 0.26019 0.75736 0.71735
 O1020 O 0.24911 0.78767 0.74117
 Zr1021 Zr 0.26995 0.73254 0.77709
 Zr1022 Zr 0.25894 0.72110 0.72495
 Zr1023 Zr 0.23704 0.78065 0.77255
 Zr1024 Zr 0.21337 0.72751 0.75826
 O1025 O 0.25427 0.81241 0.78101
 O1026 O 0.20390 0.69399 0.74622
 O1027 O 0.23574 0.74435 0.78060
 O1028 O 0.24685 0.71427 0.75628
 O1029 O 0.28293 0.73770 0.74588
 O1030 O 0.27110 0.76907 0.77095
 C1031 C 0.17713 0.74570 0.72320
 C1032 C 0.20806 0.81434 0.74137
 C1033 C 0.23319 0.73633 0.68151
 O1034 O 0.24330 0.68795 0.71854
 O1035 O 0.28138 0.69411 0.73622
 O1036 O 0.28903 0.70169 0.77199
 C1037 C 0.29109 0.68942 0.75493
 O1038 O 0.28228 0.80076 0.71436
 Zr1039 Zr 0.28276 0.77408 0.73950
 O1040 O 0.30499 0.74048 0.78381
 O1041 O 0.28717 0.72011 0.70389
 O1042 O 0.30782 0.76491 0.71688
 O1043 O 0.29420 0.80670 0.75224
 O1044 O 0.31422 0.76768 0.75714
 C1045 C 0.31925 0.75430 0.77387
 O1046 O 0.26356 0.70553 0.80086
 O1047 O 0.20736 0.78352 0.79161
 O1048 O 0.26974 0.74519 0.80904
 O1049 O 0.24628 0.77739 0.80583
 O1050 O 0.18677 0.73640 0.77941
 O1051 O 0.21318 0.70354 0.78558
 C1052 C 0.25900 0.76259 0.81690
 H1053 H 0.19773 0.77024 0.75334
 H1054 H 0.24658 0.69715 0.76005
 H1055 H 0.28130 0.77743 0.78152
 H1056 H 0.26560 0.76062 0.70243
 H1057 H 0.18760 0.69070 0.75011
 H1058 H 0.25273 0.68060 0.70749
 H1059 H 0.28623 0.70468 0.69679
 H1060 H 0.32149 0.77545 0.71907
 H1061 H 0.17370 0.72510 0.77711
 H1062 H 0.20867 0.79890 0.79877
 H1063 H 0.24474 0.81980 0.79196
 H1064 H 0.31049 0.80932 0.74798
 H1065 H 0.19833 0.69453 0.78554
 H1066 H 0.27815 0.70327 0.80968
 H1067 H 0.21817 0.79705 0.68692
 H1068 H 0.29825 0.80690 0.71229
 Zr1069 Zr 0.24466 0.22493 0.21085
 O1070 O 0.22664 0.19959 0.19198
 O1071 O 0.27663 0.22744 0.19594
 O1072 O 0.23961 0.23808 0.17854
 O1073 O 0.26293 0.18588 0.25221
 O1074 O 0.22276 0.27391 0.18225
 O1075 O 0.26026 0.19148 0.21525
 O1076 O 0.29582 0.25646 0.21448
 O1077 O 0.25157 0.26126 0.21177
 O1078 O 0.26736 0.22992 0.23759
 O1079 O 0.21217 0.24087 0.21333
 O1080 O 0.22755 0.21009 0.23795
 Zr1081 Zr 0.22479 0.26895 0.26991
 Zr1082 Zr 0.21946 0.27700 0.21604
 Zr1083 Zr 0.24996 0.21702 0.26468
 Zr1084 Zr 0.27326 0.26602 0.23905
 O1085 O 0.23324 0.18751 0.27958
 O1086 O 0.28148 0.29737 0.22099
 O1087 O 0.25751 0.25316 0.26755
 O1088 O 0.24188 0.28339 0.24277
 O1089 O 0.20180 0.26426 0.24327
 O1090 O 0.21797 0.23268 0.26867
 C1091 C 0.29420 0.24097 0.19965
 C1092 C 0.26603 0.17945 0.23270
 C1093 C 0.23116 0.25766 0.17085
 O1094 O 0.23507 0.30833 0.20340
 O1095 O 0.20326 0.30654 0.22860
 O1096 O 0.20746 0.30140 0.26551
 C1097 C 0.20046 0.31294 0.24819
 O1098 O 0.18617 0.20025 0.22060
 Zr1099 Zr 0.19621 0.22797 0.24149
 O1100 O 0.19267 0.26615 0.28471
 O1101 O 0.18616 0.28015 0.20074
 O1102 O 0.16593 0.23925 0.22377
 O1103 O 0.18563 0.19786 0.26024
 O1104 O 0.17250 0.23945 0.26416
 C1105 C 0.17438 0.25411 0.27963
 O1106 O 0.24180 0.29571 0.28788
 O1107 O 0.28403 0.21192 0.27778
 O1108 O 0.23299 0.25738 0.30227
 O1109 O 0.25108 0.22223 0.29839
 O1110 O 0.30481 0.25492 0.25468
 O1111 O 0.28500 0.29110 0.26201
 C1112 C 0.24348 0.23880 0.30988
 H1113 H 0.28233 0.22174 0.23660
 H1114 H 0.24492 0.30050 0.24431
 H1115 H 0.21064 0.22608 0.28190
 H1116 H 0.20206 0.23780 0.20037
 H1117 H 0.29863 0.29849 0.22043
 H1118 H 0.22332 0.31609 0.19355
 H1119 H 0.18633 0.29509 0.19191
 H1120 H 0.15251 0.23070 0.23009
 H1121 H 0.31759 0.26413 0.24792
 H1122 H 0.28369 0.19711 0.28681
 H1123 H 0.24508 0.17952 0.28916
 H1124 H 0.16842 0.19729 0.25961
 H1125 H 0.29990 0.29820 0.25736
 H1126 H 0.23107 0.30040 0.29920
 H1127 H 0.23736 0.19470 0.18074
 H1128 H 0.16954 0.19631 0.22242
 Zr1129 Zr 0.73604 0.72746 0.27207
 O1130 O 0.73938 0.70423 0.29967
 O1131 O 0.70057 0.73530 0.27194
 O1132 O 0.73100 0.74452 0.30167
 O1133 O 0.73170 0.68298 0.23466
 O1134 O 0.75427 0.77740 0.29934
 O1135 O 0.71899 0.69463 0.26736
 O1136 O 0.69551 0.76149 0.24318
 O1137 O 0.73587 0.76344 0.26303
 O1138 O 0.72736 0.72945 0.23879
 O1139 O 0.76978 0.74000 0.27968
 O1140 O 0.76100 0.70718 0.25691
 Zr1141 Zr 0.78672 0.75925 0.22046
 Zr1142 Zr 0.76994 0.77550 0.26909
 Zr1143 Zr 0.75286 0.71108 0.22349
 Zr1144 Zr 0.72844 0.76504 0.22955
 O1145 O 0.77045 0.67888 0.22058
 O1146 O 0.71809 0.79931 0.23762
 O1147 O 0.75298 0.74656 0.21251
 O1148 O 0.76167 0.77904 0.23574
 O1149 O 0.79576 0.75728 0.25372
 O1150 O 0.78666 0.72337 0.22963
 C1151 C 0.68812 0.74892 0.25932
 C1152 C 0.71981 0.67997 0.25185
 C1153 C 0.74000 0.76361 0.30934
 O1154 O 0.75404 0.80882 0.27032
 O1155 O 0.79380 0.80189 0.25933
 O1156 O 0.80530 0.79110 0.22596
 C1157 C 0.80557 0.80504 0.24208
 O1158 O 0.79011 0.69690 0.28938
 Zr1159 Zr 0.79431 0.72153 0.26293
 O1160 O 0.82227 0.75165 0.22084
 O1161 O 0.79583 0.77912 0.29402
 O1162 O 0.81644 0.73250 0.28904
 O1163 O 0.80686 0.68825 0.25426
 O1164 O 0.82776 0.72762 0.25109
 C1165 C 0.83503 0.73963 0.23456
 O1166 O 0.78383 0.78370 0.19372
 O1167 O 0.72561 0.70587 0.20013
 O1168 O 0.78981 0.74348 0.18990
 O1169 O 0.76563 0.71126 0.19198
 O1170 O 0.70462 0.75382 0.20485
 O1171 O 0.73167 0.78671 0.20090
 C1172 C 0.77961 0.72520 0.18181
 H1173 H 0.71192 0.72251 0.23515
 H1174 H 0.76205 0.79578 0.23062
 H1175 H 0.79793 0.71432 0.22156
 H1176 H 0.77347 0.73821 0.29547
 H1177 H 0.70238 0.80190 0.23100
 H1178 H 0.76230 0.81745 0.28206
 H1179 H 0.79431 0.79515 0.29970
 H1180 H 0.82983 0.72168 0.29012
 H1181 H 0.69159 0.76508 0.20401
 H1182 H 0.72747 0.68987 0.19448
 H1183 H 0.76220 0.67028 0.20881
 H1184 H 0.82246 0.68632 0.26132
 H1185 H 0.71719 0.79567 0.19809
 H1186 H 0.79938 0.78527 0.18731
 H1187 H 0.72376 0.70233 0.30588
 H1188 H 0.80541 0.69041 0.29405
 Zr1189 Zr 0.76198 0.28625 0.78268
 O1190 O 0.74457 0.31144 0.80058
 O1191 O 0.79509 0.28623 0.79783
 O1192 O 0.75885 0.27453 0.81544
 O1193 O 0.77500 0.32492 0.73979
 O1194 O 0.74380 0.23718 0.81291
 O1195 O 0.77565 0.32062 0.77687
 O1196 O 0.81395 0.25785 0.78001
 O1197 O 0.77063 0.25046 0.78289
 O1198 O 0.78281 0.28191 0.75596
 O1199 O 0.73014 0.26766 0.78085
 O1200 O 0.74194 0.29842 0.75528
 Zr1201 Zr 0.73996 0.23806 0.72531
 Zr1202 Zr 0.73908 0.23206 0.77937
 Zr1203 Zr 0.76261 0.29224 0.72865
 Zr1204 Zr 0.79036 0.24625 0.75554
 O1205 O 0.74322 0.31991 0.71329
 O1206 O 0.80167 0.21598 0.77391
 O1207 O 0.77189 0.25667 0.72679
 O1208 O 0.75972 0.22616 0.75276
 O1209 O 0.71883 0.24209 0.75192
 O1210 O 0.73122 0.27375 0.72543
 C1211 C 0.81278 0.27346 0.79460
 C1212 C 0.77934 0.33239 0.75900
 C1213 C 0.75149 0.25478 0.82376
 O1214 O 0.75750 0.20286 0.79312
 O1215 O 0.72325 0.20090 0.76805
 O1216 O 0.72445 0.20447 0.73100
 C1217 C 0.71906 0.19341 0.74881
 O1218 O 0.70155 0.30611 0.77195
 Zr1219 Zr 0.71130 0.27787 0.75248
 O1220 O 0.70668 0.23693 0.71106
 O1221 O 0.70710 0.22663 0.79485
 O1222 O 0.68322 0.26542 0.77132
 O1223 O 0.69736 0.30564 0.73232
 O1224 O 0.68641 0.26232 0.73111
 C1225 C 0.68800 0.24696 0.71631
 O1226 O 0.75725 0.21224 0.70807
 O1227 O 0.79526 0.29927 0.71490
 O1228 O 0.74419 0.24936 0.69249
 O1229 O 0.76071 0.28609 0.69516
 O1230 O 0.82023 0.25956 0.73978
 O1231 O 0.80155 0.22159 0.73296
 C1232 C 0.75268 0.26870 0.68423
 H1233 H 0.79744 0.29126 0.75666
 H1234 H 0.76348 0.20925 0.75179
 H1235 H 0.72234 0.27910 0.71216
 H1236 H 0.72076 0.27053 0.79367
 H1237 H 0.81888 0.21621 0.77421
 H1238 H 0.74683 0.19438 0.80308
 H1239 H 0.70869 0.21209 0.80416
 H1240 H 0.66884 0.27239 0.76474
 H1241 H 0.83390 0.25156 0.74671
 H1242 H 0.79351 0.31370 0.70547
 H1243 H 0.75379 0.32848 0.70329
 H1244 H 0.68022 0.30452 0.73305
 H1245 H 0.81731 0.21611 0.73735
 H1246 H 0.74590 0.20606 0.69713
 H1247 H 0.75593 0.31753 0.81156
 H1248 H 0.68463 0.30871 0.77004
 C1249 C 0.47788 1.00526 0.37494
 C1250 C 0.47435 1.02835 0.36602
 C1251 C 0.46457 1.03157 0.34461
 C1252 C 0.45841 1.01171 0.33225
 C1253 C 0.46311 0.98865 0.34074
 C1254 C 0.47289 0.98543 0.36214
 C1255 C 0.47709 0.96221 0.37040
 C1256 C 0.47182 0.94271 0.35787
 C1257 C 0.46224 0.94585 0.33695
 C1258 C 0.45789 0.96850 0.32841
 C1259 C 0.46083 1.05479 0.33618
 C1260 C 0.46668 1.07429 0.34852
 C1261 C 0.47626 1.07115 0.36944
 C1262 C 0.48006 1.04847 0.37819
 C1263 C 0.44582 1.01472 0.31150
 C1264 C 0.43452 1.01605 0.29464
 C1265 C 0.48451 1.00186 0.39782
 C1266 C 0.48857 0.99896 0.41708
 H1267 H 0.48459 0.95889 0.38656
 H1268 H 0.47519 0.92508 0.36442
 H1269 H 0.45817 0.93065 0.32728
 H1270 H 0.45048 0.97003 0.31203
 H1271 H 0.45346 1.05809 0.31996
 H1272 H 0.46376 1.09194 0.34180
 H1273 H 0.48078 1.08636 0.37895
 H1274 H 0.48762 1.04690 0.39450
 C1275 C -0.02231 0.50355 0.87494
 C1276 C -0.02592 0.52666 0.86611
 C1277 C -0.03553 0.52997 0.84465
 C1278 C -0.04146 0.51015 0.83213
 C1279 C -0.03664 0.48708 0.84053
 C1280 C -0.02702 0.48378 0.86198
 C1281 C -0.02268 0.46055 0.87013
 C1282 C -0.02767 0.44111 0.85744
 C1283 C -0.03710 0.44432 0.83647
 C1284 C -0.04158 0.46699 0.82803
 C1285 C -0.03934 0.55320 0.83630
 C1286 C -0.03373 0.57266 0.84879
 C1287 C -0.02433 0.56944 0.86977
 C1288 C -0.02045 0.54674 0.87843
 C1289 C -0.05399 0.51323 0.81134
 C1290 C -0.06526 0.51465 0.79447
 C1291 C -0.01587 0.50003 0.89787
 C1292 C -0.01195 0.49706 0.91715
 H1293 H -0.01528 0.45717 0.88632
 H1294 H -0.02418 0.42347 0.86390
 H1295 H -0.04095 0.42916 0.82668
 H1296 H -0.04886 0.46858 0.81161
 H1297 H -0.04657 0.55656 0.82005
 H1298 H -0.03670 0.59033 0.84214
 H1299 H -0.02000 0.58461 0.87939
 H1300 H -0.01303 0.54511 0.89479
 C1301 C 0.02149 0.00772 0.86901
 C1302 C 0.03283 0.02722 0.85883
 C1303 C 0.04233 0.02487 0.83801
 C1304 C 0.04041 0.00301 0.82753
 C1305 C 0.02781 -0.01600 0.83712
 C1306 C 0.01829 -0.01363 0.85792
 C1307 C 0.00602 -0.03299 0.86735
 C1308 C 0.00320 -0.05407 0.85648
 C1309 C 0.01253 -0.05637 0.83613
 C1310 C 0.02475 -0.03762 0.82649
 C1311 C 0.05391 0.04451 0.82827
 C1312 C 0.05599 0.06586 0.83878
 C1313 C 0.04670 0.06814 0.85915
 C1314 C 0.03527 0.04908 0.86916
 C1315 C 0.05258 -0.00016 0.80761
 C1316 C 0.06359 -0.00192 0.79144
 C1317 C 0.01531 0.00873 0.89162
 C1318 C 0.01150 0.00854 0.91076
 H1319 H -0.00163 -0.03199 0.88310
 H1320 H -0.00630 -0.06868 0.86390
 H1321 H 0.01028 -0.07278 0.82776
 H1322 H 0.03166 -0.04020 0.81062
 H1323 H 0.06136 0.04362 0.81241
 H1324 H 0.06485 0.08071 0.83107
 H1325 H 0.04833 0.08478 0.86722
 H1326 H 0.02825 0.05171 0.88498
 C1327 C 0.52154 0.50562 0.36850
 C1328 C 0.53159 0.52567 0.35801
 C1329 C 0.54158 0.52357 0.33738
 C1330 C 0.54139 0.50142 0.32738
 C1331 C 0.53002 0.48175 0.33723
 C1332 C 0.52003 0.48386 0.35786
 C1333 C 0.50904 0.46387 0.36757
 C1334 C 0.50789 0.44241 0.35715
 C1335 C 0.51767 0.44036 0.33697
 C1336 C 0.52867 0.45975 0.32705
 C1337 C 0.55192 0.54378 0.32736
 C1338 C 0.55227 0.56545 0.33740
 C1339 C 0.54246 0.56750 0.35757
 C1340 C 0.53226 0.54788 0.36786
 C1341 C 0.55407 0.49869 0.30768
 C1342 C 0.56539 0.49724 0.29168
 C1343 C 0.51517 0.50662 0.39104
 C1344 C 0.51139 0.50661 0.41018
 H1345 H 0.50109 0.46465 0.38321
 H1346 H 0.49935 0.42731 0.36478
 H1347 H 0.51672 0.42367 0.32893
 H1348 H 0.53599 0.45734 0.31132
 H1349 H 0.55971 0.54309 0.31164
 H1350 H 0.56018 0.58075 0.32948
 H1351 H 0.54271 0.58439 0.36526
 H1352 H 0.52477 0.55034 0.38351
 C1353 C 0.53003 0.50535 0.12917
 C1354 C 0.54258 0.52503 0.13726
 C1355 C 0.55288 0.52385 0.15859
 C1356 C 0.55054 0.50303 0.17174
 C1357 C 0.53734 0.48363 0.16391
 C1358 C 0.52701 0.48482 0.14258
 C1359 C 0.51395 0.46522 0.13509
 C1360 C 0.51109 0.44501 0.14832
 C1361 C 0.52129 0.44378 0.16912
 C1362 C 0.53429 0.46281 0.17691
 C1363 C 0.56554 0.54367 0.16621
 C1364 C 0.56791 0.56408 0.15317
 C1365 C 0.55782 0.56524 0.13233
 C1366 C 0.54530 0.54599 0.12438
 C1367 C 0.56155 0.50169 0.19334
 C1368 C 0.57039 0.50076 0.21140
 C1369 C 0.52225 0.50547 0.10645
 C1370 C 0.51756 0.50547 0.08720
 H1371 H 0.50567 0.46537 0.11903
 H1372 H 0.50090 0.43024 0.14240
 H1373 H 0.51908 0.42800 0.17929
 H1374 H 0.54186 0.46103 0.19321
 H1375 H 0.57371 0.54363 0.18231
 H1376 H 0.57764 0.57908 0.15927
 H1377 H 0.55970 0.58114 0.12227
 H1378 H 0.53769 0.54778 0.10810
 C1379 C 0.03027 1.00487 0.62998
 C1380 C 0.04284 1.02458 0.63798
 C1381 C 0.05292 1.02361 0.65940
 C1382 C 0.05035 1.00295 0.67273
 C1383 C 0.03715 0.98351 0.66498
 C1384 C 0.02705 0.98450 0.64355
 C1385 C 0.01402 0.96484 0.63613
 C1386 C 0.01097 0.94479 0.64952
 C1387 C 0.02092 0.94377 0.67042
 C1388 C 0.03389 0.96285 0.67814
 C1389 C 0.06560 1.04346 0.66693
 C1390 C 0.06822 1.06370 0.65370
 C1391 C 0.05835 1.06465 0.63277
 C1392 C 0.04580 1.04537 0.62491
 C1393 C 0.06121 1.00177 0.69441
 C1394 C 0.06997 1.00095 0.71250
 C1395 C 0.02260 1.00482 0.60724
 C1396 C 0.01798 1.00471 0.58798
 H1397 H 0.00593 0.96483 0.62000
 H1398 H 0.00080 0.92998 0.64364
 H1399 H 0.01855 0.92812 0.68072
 H1400 H 0.04127 0.96124 0.69453
 H1401 H 0.07361 1.04357 0.68309
 H1402 H 0.07796 1.07872 0.65972
 H1403 H 0.06041 1.08042 0.62256
 H1404 H 0.03838 1.04700 0.60855
 C1405 C -0.03577 0.53209 0.63231
 C1406 C -0.04932 0.54993 0.64098
 C1407 C -0.05834 0.54674 0.66216
 C1408 C -0.05376 0.52571 0.67456
 C1409 C -0.03954 0.50822 0.66619
 C1410 C -0.03051 0.51142 0.64504
 C1411 C -0.01649 0.49358 0.63701
 C1412 C -0.01152 0.47318 0.64948
 C1413 C -0.02034 0.47006 0.67013
 C1414 C -0.03420 0.48731 0.67847
 C1415 C -0.07195 0.56479 0.67038
 C1416 C -0.07647 0.58541 0.65808
 C1417 C -0.06771 0.58850 0.63739
 C1418 C -0.05430 0.57100 0.62884
 C1419 C -0.06370 0.52193 0.69587
 C1420 C -0.07166 0.51862 0.71363
 C1421 C -0.02886 0.53387 0.60976
 C1422 C -0.02402 0.53360 0.59082
 H1423 H -0.00913 0.49522 0.62107
 H1424 H -0.00075 0.45973 0.64307
 H1425 H -0.01643 0.45418 0.67975
 H1426 H -0.04064 0.48406 0.69463
 H1427 H -0.07916 0.56319 0.68639
 H1428 H -0.08681 0.59909 0.66466
 H1429 H -0.07129 0.60455 0.62792
 H1430 H -0.04777 0.57421 0.61271
 C1431 C 0.46436 0.03377 0.13273
 C1432 C 0.45083 0.05162 0.14143
 C1433 C 0.44170 0.04833 0.16255
 C1434 C 0.44614 0.02720 0.17486
 C1435 C 0.46034 0.00971 0.16645
 C1436 C 0.46949 0.01302 0.14537
 C1437 C 0.48350 -0.00482 0.13730
 C1438 C 0.48833 -0.02531 0.14968
 C1439 C 0.47937 -0.02854 0.17027
 C1440 C 0.46553 -0.01130 0.17864
 C1441 C 0.42813 0.06638 0.17082
 C1442 C 0.42374 0.08710 0.15861
 C1443 C 0.43262 0.09028 0.13797
 C1444 C 0.44600 0.07278 0.12938
 C1445 C 0.43610 0.02333 0.19611
 C1446 C 0.42810 0.01992 0.21385
 C1447 C 0.47134 0.03561 0.11020
 C1448 C 0.47626 0.03529 0.09129
 H1449 H 0.49096 -0.00310 0.12142
 H1450 H 0.49909 -0.03875 0.14325
 H1451 H 0.48318 -0.04449 0.17982
 H1452 H 0.45899 -0.01463 0.19475
 H1453 H 0.42083 0.06471 0.18678
 H1454 H 0.41342 0.10078 0.16522
 H1455 H 0.42915 0.10641 0.12857
 H1456 H 0.45263 0.07606 0.11330
 C1457 C 0.38060 0.43164 -0.00102
 C1458 C 0.37586 0.41294 0.01409
 C1459 C 0.35462 0.39988 0.01223
 C1460 C 0.33817 0.40562 -0.00472
 C1461 C 0.34283 0.42447 -0.01970
 C1462 C 0.36406 0.43750 -0.01785
 C1463 C 0.36828 0.45620 -0.03311
 C1464 C 0.35204 0.46186 -0.04969
 C1465 C 0.33132 0.44913 -0.05150
 C1466 C 0.32668 0.43063 -0.03672
 C1467 C 0.35039 0.38119 0.02749
 C1468 C 0.36660 0.37559 0.04413
 C1469 C 0.38727 0.38841 0.04599
 C1470 C 0.39198 0.40683 0.03115
 C1471 C 0.31653 0.39209 -0.00677
 C1472 C 0.29866 0.38074 -0.00827
 C1473 C 0.40277 0.44434 0.00017
 C1474 C 0.42122 0.45476 0.00029
 H1475 H 0.38413 0.46665 -0.03239
 H1476 H 0.35556 0.47622 -0.06121
 H1477 H 0.31877 0.45360 -0.06442
 H1478 H 0.31031 0.42125 -0.03880
 H1479 H 0.33455 0.37074 0.02674
 H1480 H 0.36308 0.36125 0.05566
 H1481 H 0.39976 0.38403 0.05900
 H1482 H 0.40832 0.41625 0.03324
 C1483 C -0.11937 0.93140 0.50004
 C1484 C -0.12408 0.91259 0.51505
 C1485 C -0.14536 0.89960 0.51320
 C1486 C -0.16188 0.90551 0.49637
 C1487 C -0.15727 0.92449 0.48150
 C1488 C -0.13599 0.93745 0.48334
 C1489 C -0.13180 0.95625 0.46818
 C1490 C -0.14811 0.96210 0.45171
 C1491 C -0.16888 0.94945 0.44993
 C1492 C -0.17350 0.93085 0.46461
 C1493 C -0.14954 0.88079 0.52834
 C1494 C -0.13326 0.87502 0.54487
 C1495 C -0.11255 0.88778 0.54673
 C1496 C -0.10788 0.90631 0.53199
 C1497 C -0.18352 0.89201 0.49426
 C1498 C -0.20139 0.88066 0.49266
 C1499 C -0.09716 0.94399 0.50119
 C1500 C -0.07866 0.95432 0.50125
 H1501 H -0.11592 0.96665 0.46890
 H1502 H -0.14461 0.97653 0.44027
 H1503 H -0.18149 0.95406 0.43710
 H1504 H -0.18991 0.92154 0.46255
 H1505 H -0.16541 0.87037 0.52759
 H1506 H -0.13674 0.86059 0.55632
 H1507 H -0.10001 0.88327 0.55965
 H1508 H -0.09150 0.91567 0.53407
 C1509 C -0.12390 0.07456 0.99566
 C1510 C -0.14268 0.06358 1.00657
 C1511 C -0.16400 0.07568 1.00812
 C1512 C -0.16649 0.09869 0.99875
 C1513 C -0.14778 0.10960 0.98767
 C1514 C -0.12645 0.09750 0.98612
 C1515 C -0.10803 0.10878 0.97501
 C1516 C -0.11058 0.13137 0.96566
 C1517 C -0.13140 0.14321 0.96717
 C1518 C -0.14984 0.13254 0.97803
 C1519 C -0.18245 0.06436 1.01915
 C1520 C -0.17994 0.04172 1.02839
 C1521 C -0.15913 0.02988 1.02687
 C1522 C -0.14066 0.04060 1.01612
 C1523 C -0.18822 0.11121 1.00043
 C1524 C -0.20595 0.12221 1.00134
 C1525 C -0.10185 0.06243 0.99487
 C1526 C -0.08377 0.05187 0.99506
 H1527 H -0.09152 0.10027 0.97339
 H1528 H -0.09634 0.13972 0.95717
 H1529 H -0.13329 0.16076 0.95989
 H1530 H -0.16568 0.14247 0.97876
 H1531 H -0.19898 0.07286 1.02075
 H1532 H -0.19423 0.03331 1.03677
 H1533 H -0.15728 0.01229 1.03407
 H1534 H -0.12484 0.03064 1.01536
 C1535 C 0.37715 0.57449 0.49545
 C1536 C 0.35856 0.56388 0.50691
 C1537 C 0.33729 0.57609 0.50847
 C1538 C 0.33468 0.59884 0.49858
 C1539 C 0.35318 0.60936 0.48693
 C1540 C 0.37446 0.59715 0.48537
 C1541 C 0.39268 0.60807 0.47370
 C1542 C 0.38999 0.63038 0.46381
 C1543 C 0.36923 0.64232 0.46533
 C1544 C 0.35099 0.63202 0.47673
 C1545 C 0.31903 0.56512 0.52004
 C1546 C 0.32166 0.54275 0.52982
 C1547 C 0.34243 0.53082 0.52832
 C1548 C 0.36072 0.54118 0.51702
 C1549 C 0.31304 0.61152 0.50037
 C1550 C 0.29538 0.62261 0.50141
 C1551 C 0.39919 0.56231 0.49465
 C1552 C 0.41732 0.55185 0.49482
 H1553 H 0.40915 0.59946 0.47205
 H1554 H 0.40408 0.63844 0.45489
 H1555 H 0.36724 0.65966 0.45762
 H1556 H 0.33518 0.64201 0.47744
 H1557 H 0.30254 0.57370 0.52165
 H1558 H 0.30751 0.53462 0.53861
 H1559 H 0.34439 0.51344 0.53595
 H1560 H 0.37651 0.53117 0.51630
 C1561 C 0.12027 0.59166 0.50621
 C1562 C 0.13045 0.59522 0.48568
 C1563 C 0.15316 0.60524 0.48432
 C1564 C 0.16563 0.61171 0.50349
 C1565 C 0.15522 0.60872 0.52396
 C1566 C 0.13249 0.59870 0.52531
 C1567 C 0.12254 0.59581 0.54595
 C1568 C 0.13468 0.60257 0.56475
 C1569 C 0.15690 0.61228 0.56345
 C1570 C 0.16712 0.61541 0.54333
 C1571 C 0.16297 0.60845 0.46363
 C1572 C 0.15072 0.60197 0.44480
 C1573 C 0.12854 0.59220 0.44611
 C1574 C 0.11845 0.58881 0.46626
 C1575 C 0.18926 0.62105 0.50213
 C1576 C 0.20889 0.62867 0.50096
 C1577 C 0.09772 0.57980 0.50757
 C1578 C 0.07934 0.56926 0.50778
 H1579 H 0.10529 0.58836 0.54777
 H1580 H 0.12682 0.60022 0.58042
 H1581 H 0.16628 0.61739 0.57812
 H1582 H 0.18441 0.62312 0.54314
 H1583 H 0.18016 0.61601 0.46176
 H1584 H 0.15849 0.60456 0.42911
 H1585 H 0.11910 0.58721 0.43144
 H1586 H 0.10113 0.58119 0.46641
 C1587 C 0.62077 0.09278 0.00654
 C1588 C 0.63006 0.09785 -0.01417
 C1589 C 0.65273 0.10793 -0.01577
 C1590 C 0.66605 0.11292 0.00332
 C1591 C 0.65653 0.10844 0.02402
 C1592 C 0.63384 0.09836 0.02563
 C1593 C 0.62480 0.09394 0.04648
 C1594 C 0.63778 0.09927 0.06525
 C1595 C 0.65994 0.10906 0.06369
 C1596 C 0.66928 0.11368 0.04336
 C1597 C 0.66163 0.11267 -0.03666
 C1598 C 0.64855 0.10763 -0.05543
 C1599 C 0.62642 0.09780 -0.05387
 C1600 C 0.61720 0.09292 -0.03354
 C1601 C 0.68962 0.12231 0.00165
 C1602 C 0.70921 0.13000 0.00021
 C1603 C 0.59826 0.08084 0.00803
 C1604 C 0.57992 0.07024 0.00832
 H1605 H 0.60763 0.08637 0.04850
 H1606 H 0.63061 0.09577 0.08108
 H1607 H 0.66997 0.11309 0.07832
 H1608 H 0.68656 0.12138 0.04298
 H1609 H 0.67875 0.12033 -0.03872
 H1610 H 0.65563 0.11139 -0.07127
 H1611 H 0.61632 0.09393 -0.06850
 H1612 H 0.59988 0.08531 -0.03320
 C1613 C 0.62663 0.91915 0.49658
 C1614 C 0.63033 0.90298 0.48002
 C1615 C 0.65230 0.89200 0.47869
 C1616 C 0.67046 0.89721 0.49395
 C1617 C 0.66669 0.91324 0.51061
 C1618 C 0.64476 0.92422 0.51192
 C1619 C 0.64148 0.94018 0.52872
 C1620 C 0.65932 0.94515 0.54379
 C1621 C 0.68075 0.93442 0.54251
 C1622 C 0.68449 0.91865 0.52615
 C1623 C 0.65554 0.87595 0.46198
 C1624 C 0.63764 0.87089 0.44698
 C1625 C 0.61621 0.88163 0.44826
 C1626 C 0.61248 0.89748 0.46458
 C1627 C 0.69309 0.88631 0.49251
 C1628 C 0.71205 0.87761 0.49161
 C1629 C 0.60427 0.93059 0.49795
 C1630 C 0.58590 0.94030 0.49957
 H1631 H 0.62513 0.94898 0.53042
 H1632 H 0.65650 0.95739 0.55653
 H1633 H 0.69455 0.93835 0.55425
 H1634 H 0.70146 0.91075 0.52586
 H1635 H 0.67191 0.86716 0.46032
 H1636 H 0.64042 0.85858 0.43429
 H1637 H 0.60238 0.87765 0.43656
 H1638 H 0.59550 0.90534 0.46494
 C1639 C 0.12635 0.41835 0.99712
 C1640 C 0.14467 0.42410 1.01204
 C1641 C 0.16672 0.41335 1.01064
 C1642 C 0.17039 0.39688 0.99434
 C1643 C 0.15202 0.39097 0.97953
 C1644 C 0.12995 0.40173 0.98093
 C1645 C 0.11191 0.39554 0.96593
 C1646 C 0.11553 0.37923 0.94999
 C1647 C 0.13706 0.36870 0.94864
 C1648 C 0.15516 0.37445 0.96320
 C1649 C 0.18471 0.41942 1.02575
 C1650 C 0.18106 0.43563 1.04177
 C1651 C 0.15953 0.44613 1.04313
 C1652 C 0.14150 0.44051 1.02848
 C1653 C 0.19311 0.38621 0.99277
 C1654 C 0.21210 0.37764 0.99171
 C1655 C 0.10387 0.42954 0.99854
 C1656 C 0.08537 0.43902 1.00012
 H1657 H 0.09484 0.40321 0.96636
 H1658 H 0.10156 0.37474 0.93861
 H1659 H 0.13976 0.35602 0.93624
 H1660 H 0.17159 0.36579 0.96150
 H1661 H 0.20176 0.41172 1.02538
 H1662 H 0.19501 0.44005 1.05319
 H1663 H 0.15679 0.45871 1.05561
 H1664 H 0.12507 0.44916 1.03022
 C1665 C -0.00472 0.37064 0.47126
 C1666 C -0.02633 0.35916 0.46729
 C1667 C -0.02700 0.33701 0.45724
 C1668 C -0.00606 0.32659 0.45141
 C1669 C 0.01559 0.33695 0.45737
 C1670 C 0.01627 0.35914 0.46733
 C1671 C 0.03809 0.36959 0.47264
 C1672 C 0.05868 0.35831 0.46828
 C1673 C 0.05801 0.33655 0.45851
 C1674 C 0.03675 0.32592 0.45304
 C1675 C -0.04876 0.32604 0.45277
 C1676 C -0.06933 0.33661 0.45838
 C1677 C -0.06867 0.35826 0.46837
 C1678 C -0.04746 0.36956 0.47270
 C1679 C -0.00666 0.30745 0.43652
 C1680 C -0.00627 0.29300 0.42274
 C1681 C -0.00412 0.39499 0.47742
 C1682 C -0.00364 0.41547 0.48180
 H1683 H 0.03944 0.38646 0.48034
 H1684 H 0.07523 0.36650 0.47251
 H1685 H 0.07404 0.32784 0.45515
 H1686 H 0.03706 0.30892 0.44557
 H1687 H -0.05004 0.30912 0.44516
 H1688 H -0.08585 0.32794 0.45501
 H1689 H -0.08466 0.36632 0.47284
 H1690 H -0.04777 0.38637 0.48051
 C1691 C 0.49683 -0.12921 -0.02605
 C1692 C 0.47532 -0.14093 -0.02986
 C1693 C 0.47484 -0.16320 -0.03970
 C1694 C 0.49587 -0.17347 -0.04549
 C1695 C 0.51743 -0.16286 -0.03963
 C1696 C 0.51792 -0.14056 -0.02988
 C1697 C 0.53965 -0.12986 -0.02470
 C1698 C 0.56034 -0.14100 -0.02900
 C1699 C 0.55986 -0.16287 -0.03856
 C1700 C 0.53868 -0.17375 -0.04390
 C1701 C 0.45317 -0.17441 -0.04403
 C1702 C 0.43251 -0.16396 -0.03851
 C1703 C 0.43299 -0.14219 -0.02873
 C1704 C 0.45410 -0.13066 -0.02452
 C1705 C 0.49539 -0.19259 -0.06038
 C1706 C 0.49571 -0.20697 -0.07423
 C1707 C 0.49723 -0.10475 -0.02021
 C1708 C 0.49755 -0.08420 -0.01611
 H1709 H 0.54086 -0.11289 -0.01717
 H1710 H 0.57683 -0.13261 -0.02488
 H1711 H 0.57596 -0.17146 -0.04187
 H1712 H 0.53913 -0.19082 -0.05122
 H1713 H 0.45205 -0.19143 -0.05148
 H1714 H 0.41607 -0.17282 -0.04179
 H1715 H 0.41693 -0.13422 -0.02434
 H1716 H 0.45365 -0.11376 -0.01688
 C1717 C -0.00511 -0.14158 1.05402
 C1718 C -0.02650 -0.15032 1.06183
 C1719 C -0.02793 -0.17362 1.07080
 C1720 C -0.00796 -0.18785 1.07191
 C1721 C 0.01308 -0.17956 1.06304
 C1722 C 0.01453 -0.15626 1.05406
 C1723 C 0.03583 -0.14810 1.04554
 C1724 C 0.05513 -0.16266 1.04587
 C1725 C 0.05371 -0.18552 1.05470
 C1726 C 0.03297 -0.19397 1.06323
 C1727 C -0.04936 -0.18204 1.07881
 C1728 C -0.06888 -0.16776 1.07792
 C1729 C -0.06749 -0.14488 1.06914
 C1730 C -0.04658 -0.13616 1.06117
 C1731 C -0.00821 -0.20968 1.08455
 C1732 C -0.00754 -0.22692 1.09636
 C1733 C -0.00332 -0.11743 1.04614
 C1734 C -0.00230 -0.09740 1.03933
 H1735 H 0.03776 -0.13045 1.03852
 H1736 H 0.07126 -0.15619 1.03923
 H1737 H 0.06874 -0.19678 1.05491
 H1738 H 0.03264 -0.21191 1.06983
 H1739 H -0.05128 -0.19977 1.08568
 H1740 H -0.08515 -0.17448 1.08407
 H1741 H -0.08268 -0.13383 1.06848
 H1742 H -0.04636 -0.11826 1.05448
 C1743 C 0.50088 0.36084 0.55729
 C1744 C 0.47933 0.34854 0.55740
 C1745 C 0.47820 0.32520 0.56635
 C1746 C 0.49860 0.31446 0.57507
 C1747 C 0.52033 0.32631 0.57394
 C1748 C 0.52147 0.34967 0.56505
 C1749 C 0.54330 0.36143 0.56438
 C1750 C 0.56344 0.35032 0.57229
 C1751 C 0.56235 0.32738 0.58093
 C1752 C 0.54108 0.31542 0.58181
 C1753 C 0.45650 0.31320 0.56658
 C1754 C 0.43644 0.32402 0.55810
 C1755 C 0.43752 0.34691 0.54931
 C1756 C 0.45867 0.35913 0.54894
 C1757 C 0.49702 0.29237 0.58724
 C1758 C 0.49644 0.27485 0.59869
 C1759 C 0.50177 0.38502 0.54928
 C1760 C 0.50203 0.40498 0.54220
 H1761 H 0.54502 0.37927 0.55774
 H1762 H 0.57999 0.35957 0.57170
 H1763 H 0.57805 0.31879 0.58700
 H1764 H 0.54112 0.29756 0.58860
 H1765 H 0.45486 0.29533 0.57317
 H1766 H 0.41998 0.31459 0.55834
 H1767 H 0.42190 0.35525 0.54273
 H1768 H 0.45864 0.37689 0.54192
 C1769 C 0.47792 1.10244 0.58634
 C1770 C 0.49038 1.10716 0.60593
 C1771 C 0.48823 1.12943 0.61542
 C1772 C 0.47369 1.14669 0.60517
 C1773 C 0.45969 1.14118 0.58670
 C1774 C 0.46180 1.11891 0.57721
 C1775 C 0.44805 1.11389 0.55839
 C1776 C 0.43262 1.13047 0.54925
 C1777 C 0.43051 1.15228 0.55861
 C1778 C 0.44390 1.15770 0.57711
 C1779 C 0.50120 1.13410 0.63478
 C1780 C 0.51586 1.11715 0.64448
 C1781 C 0.51800 1.09534 0.63514
 C1782 C 0.50544 1.09029 0.61606
 C1783 C 0.47568 1.17081 0.61179
 C1784 C 0.47903 1.19092 0.61664
 C1785 C 0.48289 1.08156 0.57467
 C1786 C 0.48691 1.06468 0.56424
 H1787 H 0.44896 1.09709 0.55064
 H1788 H 0.42216 1.12632 0.53491
 H1789 H 0.41844 1.16506 0.55151
 H1790 H 0.44165 1.17485 0.58390
 H1791 H 0.50000 1.15080 0.64266
 H1792 H 0.52562 1.12097 0.65932
 H1793 H 0.52943 1.08224 0.64272
 H1794 H 0.50754 1.07304 0.60944
 C1795 C -0.02231 0.60019 1.08699
 C1796 C -0.00841 0.60558 1.10557
 C1797 C -0.01038 0.62791 1.11499
 C1798 C -0.02614 0.64458 1.10563
 C1799 C -0.04136 0.63845 1.08818
 C1800 C -0.03945 0.61610 1.07879
 C1801 C -0.05443 0.61045 1.06095
 C1802 C -0.07081 0.62653 1.05263
 C1803 C -0.07272 0.64842 1.06189
 C1804 C -0.05816 0.65443 1.07945
 C1805 C 0.00400 0.63326 1.13332
 C1806 C 0.01987 0.61692 1.14209
 C1807 C 0.02186 0.59505 1.13281
 C1808 C 0.00792 0.58935 1.11473
 C1809 C -0.02434 0.66881 1.11193
 C1810 C -0.02122 0.68906 1.11639
 C1811 C -0.01775 0.57929 1.07520
 C1812 C -0.01402 0.56244 1.06464
 H1813 H -0.05372 0.59357 1.05332
 H1814 H -0.08214 0.62194 1.03898
 H1815 H -0.08553 0.66081 1.05543
 H1816 H -0.06029 0.67162 1.08620
 H1817 H 0.00300 0.65003 1.14112
 H1818 H 0.03070 0.62126 1.15615
 H1819 H 0.03421 0.58241 1.13967
 H1820 H 0.00995 0.57208 1.10813
 C1821 C 0.52673 0.62299 -0.08450
 C1822 C 0.54298 0.64039 -0.07773
 C1823 C 0.53983 0.66427 -0.08470
 C1824 C 0.52042 0.67044 -0.09829
 C1825 C 0.50576 0.65267 -0.10703
 C1826 C 0.50897 0.62878 -0.10011
 C1827 C 0.49383 0.61125 -0.10858
 C1828 C 0.47602 0.61721 -0.12359
 C1829 C 0.47287 0.64064 -0.13037
 C1830 C 0.48749 0.65827 -0.12218
 C1831 C 0.55592 0.68156 -0.07738
 C1832 C 0.57466 0.67536 -0.06352
 C1833 C 0.57769 0.65196 -0.05660
 C1834 C 0.56206 0.63458 -0.06357
 C1835 C 0.51417 0.69497 -0.10136
 C1836 C 0.50852 0.71529 -0.10314
 C1837 C 0.52600 0.60040 -0.07292
 C1838 C 0.52424 0.58248 -0.06206
 H1839 H 0.49577 0.59279 -0.10385
 H1840 H 0.46464 0.60359 -0.13000
 H1841 H 0.45903 0.64519 -0.14204
 H1842 H 0.48447 0.67624 -0.12796
 H1843 H 0.55428 0.69996 -0.08241
 H1844 H 0.58687 0.68879 -0.05810
 H1845 H 0.59222 0.64726 -0.04579
 H1846 H 0.56517 0.61657 -0.05794
 C1847 C 0.02704 1.12120 0.41516
 C1848 C 0.04397 1.13846 0.42071
 C1849 C 0.04089 1.16223 0.41333
 C1850 C 0.02085 1.16843 0.40064
 C1851 C 0.00541 1.15071 0.39302
 C1852 C 0.00856 1.12693 0.40029
 C1853 C -0.00735 1.10947 0.39294
 C1854 C -0.02583 1.11541 0.37867
 C1855 C -0.02891 1.13874 0.37154
 C1856 C -0.01355 1.15629 0.37864
 C1857 C 0.05774 1.17940 0.41935
 C1858 C 0.07712 1.17320 0.43236
 C1859 C 0.08006 1.14992 0.43972
 C1860 C 0.06371 1.13266 0.43402
 C1861 C 0.01478 1.19298 0.39751
 C1862 C 0.00923 1.21332 0.39567
 C1863 C 0.02652 1.09889 0.42723
 C1864 C 0.02485 1.08117 0.43838
 H1865 H -0.00549 1.09109 0.39796
 H1866 H -0.03778 1.10183 0.37309
 H1867 H -0.04327 1.14326 0.36044
 H1868 H -0.01653 1.17419 0.37260
 H1869 H 0.05618 1.19769 0.41392
 H1870 H 0.08991 1.18652 0.43677
 H1871 H 0.09510 1.14523 0.44990
 H1872 H 0.06677 1.11473 0.43994
 C1873 C 0.75463 0.72423 0.87482
 C1874 C 0.77709 0.71702 0.88218
 C1875 C 0.78062 0.70734 0.90366
 C1876 C 0.76170 0.70495 0.91768
 C1877 C 0.73954 0.71338 0.91073
 C1878 C 0.73600 0.72303 0.88925
 C1879 C 0.71360 0.73093 0.88257
 C1880 C 0.69521 0.72938 0.89672
 C1881 C 0.69867 0.71996 0.91771
 C1882 C 0.72053 0.71201 0.92472
 C1883 C 0.80310 0.69986 0.91049
 C1884 C 0.82162 0.70193 0.89653
 C1885 C 0.81819 0.71141 0.87555
 C1886 C 0.79621 0.71888 0.86836
 C1887 C 0.76444 0.69210 0.93847
 C1888 C 0.76554 0.68048 0.95528
 C1889 C 0.75034 0.73086 0.85199
 C1890 C 0.74693 0.73496 0.83276
 H1891 H 0.71010 0.73846 0.86642
 H1892 H 0.67819 0.73553 0.89135
 H1893 H 0.68433 0.71881 0.92864
 H1894 H 0.72237 0.70489 0.94122
 H1895 H 0.80661 0.69244 0.92669
 H1896 H 0.83873 0.69616 0.90202
 H1897 H 0.83264 0.71299 0.86477
 H1898 H 0.79441 0.72620 0.85193
 C1899 C 0.25267 0.22442 0.37518
 C1900 C 0.27543 0.22174 0.38431
 C1901 C 0.27876 0.21190 0.40575
 C1902 C 0.25933 0.20481 0.41795
 C1903 C 0.23655 0.20861 0.40924
 C1904 C 0.23322 0.21844 0.38780
 C1905 C 0.21029 0.22168 0.37933
 C1906 C 0.19118 0.21543 0.39167
 C1907 C 0.19443 0.20583 0.41263
 C1908 C 0.21680 0.20241 0.42139
 C1909 C 0.30165 0.20906 0.41438
 C1910 C 0.32075 0.21578 0.40220
 C1911 C 0.31750 0.22538 0.38125
 C1912 C 0.29514 0.22835 0.37231
 C1913 C 0.26258 0.19207 0.43874
 C1914 C 0.26411 0.18053 0.45556
 C1915 C 0.24931 0.23128 0.35230
 C1916 C 0.24654 0.23559 0.33305
 H1917 H 0.20690 0.22916 0.36314
 H1918 H 0.17377 0.21805 0.38495
 H1919 H 0.17953 0.20100 0.42216
 H1920 H 0.21842 0.19495 0.43778
 H1921 H 0.30501 0.20170 0.43063
 H1922 H 0.33815 0.21352 0.40906
 H1923 H 0.33240 0.23057 0.37185
 H1924 H 0.29348 0.23596 0.35597
 C1925 C 0.75898 0.27527 0.38124
 C1926 C 0.77885 0.28388 0.39272
 C1927 C 0.77649 0.29402 0.41333
 C1928 C 0.75425 0.29549 0.42231
 C1929 C 0.73459 0.28570 0.41138
 C1930 C 0.73696 0.27554 0.39079
 C1931 C 0.71697 0.26618 0.38001
 C1932 C 0.69529 0.26679 0.38933
 C1933 C 0.69299 0.27673 0.40948
 C1934 C 0.71236 0.28614 0.42044
 C1935 C 0.79657 0.30284 0.42437
 C1936 C 0.81835 0.30163 0.41531
 C1937 C 0.82063 0.29173 0.39514
 C1938 C 0.80115 0.28296 0.38388
 C1939 C 0.75152 0.30834 0.44206
 C1940 C 0.75003 0.31980 0.45809
 C1941 C 0.76065 0.26839 0.35884
 C1942 C 0.76082 0.26403 0.33981
 H1943 H 0.71790 0.25819 0.36434
 H1944 H 0.68019 0.25951 0.38087
 H1945 H 0.67611 0.27716 0.41666
 H1946 H 0.70974 0.29366 0.43609
 H1947 H 0.79567 0.31066 0.44011
 H1948 H 0.83353 0.30841 0.42400
 H1949 H 0.83759 0.29084 0.38818
 H1950 H 0.80377 0.27535 0.36828
 C1951 C 0.25968 0.77749 0.88133
 C1952 C 0.23829 0.77544 0.89200
 C1953 C 0.23591 0.78566 0.91257
 C1954 C 0.25493 0.79778 0.92239
 C1955 C 0.27668 0.79868 0.91229
 C1956 C 0.27905 0.78849 0.89170
 C1957 C 0.30084 0.78990 0.88177
 C1958 C 0.31979 0.80106 0.89190
 C1959 C 0.31748 0.81106 0.91202
 C1960 C 0.29622 0.80995 0.92216
 C1961 C 0.21426 0.78378 0.92273
 C1962 C 0.19550 0.77205 0.91287
 C1963 C 0.19783 0.76203 0.89277
 C1964 C 0.21893 0.76367 0.88237
 C1965 C 0.25195 0.81042 0.94222
 C1966 C 0.25029 0.82175 0.95831
 C1967 C 0.26094 0.77054 0.85889
 C1968 C 0.26086 0.76610 0.83986
 H1969 H 0.30348 0.78229 0.86616
 H1970 H 0.33635 0.80195 0.88409
 H1971 H 0.33225 0.81971 0.91982
 H1972 H 0.29530 0.81794 0.93783
 H1973 H 0.21165 0.79128 0.93839
 H1974 H 0.17907 0.77074 0.92088
 H1975 H 0.18321 0.75292 0.88519
 H1976 H 0.21994 0.75551 0.86679
 C1977 C 0.25051 0.78808 0.11959
 C1978 C 0.27073 0.78682 0.10726
 C1979 C 0.27108 0.79729 0.08592
 C1980 C 0.25118 0.80897 0.07702
 C1981 C 0.23079 0.80981 0.08917
 C1982 C 0.23044 0.79930 0.11049
 C1983 C 0.20989 0.80053 0.12236
 C1984 C 0.19030 0.81188 0.11348
 C1985 C 0.19065 0.82215 0.09265
 C1986 C 0.21060 0.82116 0.08056
 C1987 C 0.29158 0.79596 0.07401
 C1988 C 0.31118 0.78464 0.08291
 C1989 C 0.31084 0.77442 0.10375
 C1990 C 0.29090 0.77544 0.11586
 C1991 C 0.25169 0.82002 0.05535
 C1992 C 0.25210 0.82883 0.03723
 C1993 C 0.25096 0.77973 0.14222
 C1994 C 0.25138 0.77441 0.16139
 H1995 H 0.20873 0.79272 0.13859
 H1996 H 0.17477 0.81274 0.12282
 H1997 H 0.17538 0.83095 0.08583
 H1998 H 0.21004 0.82943 0.06444
 H1999 H 0.29270 0.80366 0.05774
 H2000 H 0.32672 0.78381 0.07357
 H2001 H 0.32612 0.76565 0.11058
 H2002 H 0.29144 0.76717 0.13198
 C2003 C 0.75141 0.28563 0.61914
 C2004 C 0.77212 0.28609 0.60737
 C2005 C 0.77232 0.29654 0.58603
 C2006 C 0.75181 0.30657 0.57658
 C2007 C 0.73095 0.30556 0.58812
 C2008 C 0.73074 0.29505 0.60945
 C2009 C 0.70972 0.29447 0.62072
 C2010 C 0.68949 0.30400 0.61122
 C2011 C 0.68968 0.31421 0.59036
 C2012 C 0.71012 0.31503 0.57887
 C2013 C 0.79327 0.29687 0.57466
 C2014 C 0.81346 0.28721 0.58410
 C2015 C 0.81329 0.27707 0.60498
 C2016 C 0.79290 0.27646 0.61656
 C2017 C 0.75218 0.31784 0.55499
 C2018 C 0.75244 0.32682 0.53693
 C2019 C 0.75182 0.27741 0.64181
 C2020 C 0.75223 0.27221 0.66101
 H2021 H 0.70867 0.28662 0.63694
 H2022 H 0.67357 0.30347 0.62009
 H2023 H 0.67391 0.32157 0.58305
 H2024 H 0.70940 0.32318 0.56270
 H2025 H 0.79428 0.30456 0.55837
 H2026 H 0.82934 0.28760 0.57517
 H2027 H 0.82903 0.26961 0.61226
 H2028 H 0.79360 0.26831 0.63273
 C2029 C 0.28119 0.20488 0.61938
 C2030 C 0.27076 0.18242 0.61602
 C2031 C 0.26791 0.17389 0.59461
 C2032 C 0.27548 0.18780 0.57660
 C2033 C 0.28644 0.20998 0.57999
 C2034 C 0.28929 0.21853 0.60142
 C2035 C 0.30013 0.24078 0.60436
 C2036 C 0.30802 0.25422 0.58664
 C2037 C 0.30525 0.24588 0.56571
 C2038 C 0.29458 0.22404 0.56232
 C2039 C 0.25730 0.15148 0.59171
 C2040 C 0.24971 0.13789 0.60944
 C2041 C 0.25247 0.14621 0.63036
 C2042 C 0.26285 0.16819 0.63371
 C2043 C 0.27166 0.17940 0.55464
 C2044 C 0.26832 0.17228 0.53650
 C2045 C 0.28226 0.21417 0.64119
 C2046 C 0.28141 0.22058 0.65967
 H2047 H 0.30270 0.24795 0.62035
 H2048 H 0.31632 0.27119 0.58917
 H2049 H 0.31141 0.25640 0.55201
 H2050 H 0.29283 0.21829 0.54575
 H2051 H 0.25478 0.14422 0.57576
 H2052 H 0.24164 0.12080 0.60692
 H2053 H 0.24654 0.13557 0.64408
 H2054 H 0.26464 0.17381 0.65031
 C2055 C 0.78296 0.70388 0.11927
 C2056 C 0.77272 0.68134 0.11589
 C2057 C 0.76977 0.67290 0.09444
 C2058 C 0.77702 0.68701 0.07642
 C2059 C 0.78783 0.70925 0.07985
 C2060 C 0.79080 0.71769 0.10132
 C2061 C 0.80149 0.74001 0.10428
 C2062 C 0.80911 0.75362 0.08656
 C2063 C 0.80622 0.74540 0.06560
 C2064 C 0.79571 0.72348 0.06218
 C2065 C 0.75938 0.65040 0.09152
 C2066 C 0.75208 0.63662 0.10925
 C2067 C 0.75491 0.64486 0.13019
 C2068 C 0.76510 0.66692 0.13357
 C2069 C 0.77298 0.67876 0.05442
 C2070 C 0.76947 0.67181 0.03624
 C2071 C 0.78406 0.71311 0.14111
 C2072 C 0.78325 0.71957 0.15958
 H2073 H 0.80415 0.74709 0.12030
 H2074 H 0.81729 0.77065 0.08912
 H2075 H 0.81218 0.75605 0.05190
 H2076 H 0.79387 0.71782 0.04559
 H2077 H 0.75682 0.64320 0.07554
 H2078 H 0.74417 0.61946 0.10671
 H2079 H 0.74920 0.63409 0.14391
 H2080 H 0.76697 0.67247 0.15019
 C2081 C 0.18089 0.63262 0.24799
 C2082 C 0.16093 0.62928 0.23430
 C2083 C 0.14755 0.60805 0.23624
 C2084 C 0.15418 0.59022 0.25184
 C2085 C 0.17428 0.59345 0.26535
 C2086 C 0.18766 0.61467 0.26343
 C2087 C 0.20761 0.61746 0.27721
 C2088 C 0.21418 0.59983 0.29243
 C2089 C 0.20112 0.57912 0.29430
 C2090 C 0.18139 0.57586 0.28097
 C2091 C 0.12763 0.60522 0.22243
 C2092 C 0.12116 0.62277 0.20709
 C2093 C 0.13429 0.64345 0.20514
 C2094 C 0.15391 0.64681 0.21861
 C2095 C 0.14038 0.56857 0.25400
 C2096 C 0.12898 0.55059 0.25571
 C2097 C 0.19393 0.65482 0.24693
 C2098 C 0.20461 0.67332 0.24701
 H2099 H 0.21837 0.63324 0.27636
 H2100 H 0.22950 0.60227 0.30282
 H2101 H 0.20630 0.56548 0.30615
 H2102 H 0.17180 0.55944 0.28304
 H2103 H 0.11689 0.58942 0.22330
 H2104 H 0.10589 0.62030 0.19664
 H2105 H 0.12921 0.65698 0.19315
 H2106 H 0.16352 0.66322 0.21652
 C2107 C 0.68339 0.13035 0.74849
 C2108 C 0.66266 0.12752 0.73574
 C2109 C 0.64924 0.10633 0.73784
 C2110 C 0.65664 0.08801 0.75264
 C2111 C 0.67754 0.09071 0.76513
 C2112 C 0.69093 0.11190 0.76307
 C2113 C 0.71167 0.11417 0.77586
 C2114 C 0.71900 0.09606 0.79025
 C2115 C 0.70593 0.07535 0.79225
 C2116 C 0.68543 0.07261 0.77987
 C2117 C 0.62852 0.10404 0.72503
 C2118 C 0.62130 0.12207 0.71049
 C2119 C 0.63447 0.14270 0.70836
 C2120 C 0.65488 0.14553 0.72086
 C2121 C 0.64271 0.06649 0.75506
 C2122 C 0.63101 0.04871 0.75686
 C2123 C 0.69640 0.15256 0.74741
 C2124 C 0.70697 0.17112 0.74742
 H2125 H 0.72247 0.12992 0.77487
 H2126 H 0.73491 0.09810 0.79991
 H2127 H 0.71170 0.06133 0.80345
 H2128 H 0.67586 0.05618 0.78200
 H2129 H 0.61771 0.08830 0.72607
 H2130 H 0.60542 0.12001 0.70079
 H2131 H 0.62883 0.15658 0.69695
 H2132 H 0.66450 0.16192 0.71866
 C2133 C 0.82706 0.12604 0.25488
 C2134 C 0.84389 0.11923 0.27109
 C2135 C 0.85582 0.09757 0.26956
 C2136 C 0.85085 0.08280 0.25180
 C2137 C 0.83400 0.08960 0.23561
 C2138 C 0.82208 0.11125 0.23714
 C2139 C 0.80532 0.11763 0.22069
 C2140 C 0.80052 0.10308 0.20326
 C2141 C 0.81219 0.08194 0.20177
 C2142 C 0.82876 0.07519 0.21771
 C2143 C 0.87260 0.09120 0.28597
 C2144 C 0.87742 0.10576 0.30339
 C2145 C 0.86574 0.12689 0.30490
 C2146 C 0.84917 0.13367 0.28896
 C2147 C 0.86329 0.06081 0.25013
 C2148 C 0.87412 0.04281 0.24919
 C2149 C 0.81485 0.14822 0.25621
 C2150 C 0.80413 0.16635 0.25627
 H2151 H 0.79577 0.13389 0.22109
 H2152 H 0.78767 0.10825 0.19083
 H2153 H 0.80840 0.07071 0.18819
 H2154 H 0.83738 0.05858 0.21585
 H2155 H 0.88214 0.07493 0.28553
 H2156 H 0.89030 0.10060 0.31580
 H2157 H 0.86952 0.13811 0.31849
 H2158 H 0.84056 0.15029 0.29080
 C2159 C 0.32736 0.62791 0.75530
 C2160 C 0.34486 0.62147 0.77099
 C2161 C 0.35662 0.59971 0.76946
 C2162 C 0.35084 0.58451 0.75221
 C2163 C 0.33326 0.59091 0.73658
 C2164 C 0.32150 0.61265 0.73811
 C2165 C 0.30403 0.61864 0.72222
 C2166 C 0.29833 0.60360 0.70535
 C2167 C 0.30982 0.58235 0.70389
 C2168 C 0.32710 0.57599 0.71927
 C2169 C 0.37404 0.59368 0.78537
 C2170 C 0.37967 0.60867 0.80230
 C2171 C 0.36817 0.62992 0.80378
 C2172 C 0.35098 0.63636 0.78833
 C2173 C 0.36326 0.56254 0.75038
 C2174 C 0.37411 0.54458 0.74921
 C2175 C 0.31535 0.65020 0.75660
 C2176 C 0.30473 0.66840 0.75662
 H2177 H 0.29458 0.63497 0.72263
 H2178 H 0.28493 0.60847 0.69335
 H2179 H 0.30532 0.57073 0.69075
 H2180 H 0.33554 0.55927 0.71745
 H2181 H 0.38346 0.57733 0.78494
 H2182 H 0.39302 0.60376 0.81434
 H2183 H 0.37260 0.64148 0.81698
 H2184 H 0.34253 0.65308 0.79013
 C2185 C 0.33978 0.36797 0.74374
 C2186 C 0.33463 0.38284 0.76095
 C2187 C 0.34528 0.40557 0.76219
 C2188 C 0.36103 0.41339 0.74620
 C2189 C 0.36652 0.39835 0.72923
 C2190 C 0.35592 0.37556 0.72804
 C2191 C 0.36174 0.36085 0.71098
 C2192 C 0.37750 0.36844 0.69546
 C2193 C 0.38773 0.39074 0.69653
 C2194 C 0.38240 0.40559 0.71320
 C2195 C 0.33978 0.42008 0.77952
 C2196 C 0.32424 0.41239 0.79519
 C2197 C 0.31382 0.39020 0.79399
 C2198 C 0.31888 0.37553 0.77711
 C2199 C 0.37119 0.43702 0.74712
 C2200 C 0.37921 0.45678 0.74807
 C2201 C 0.32792 0.34521 0.74207
 C2202 C 0.31714 0.32679 0.74164
 H2203 H 0.35423 0.34335 0.70950
 H2204 H 0.38178 0.35695 0.68252
 H2205 H 0.39985 0.39656 0.68435
 H2206 H 0.39086 0.42275 0.71338
 H2207 H 0.34744 0.43749 0.78119
 H2208 H 0.32026 0.42371 0.80835
 H2209 H 0.30176 0.38430 0.80621
 H2210 H 0.31034 0.35842 0.77694
 C2211 C 0.84094 0.86809 0.24286
 C2212 C 0.83241 0.88431 0.25761
 C2213 C 0.84288 0.90707 0.25928
 C2214 C 0.86184 0.91358 0.24620
 C2215 C 0.87044 0.89735 0.23151
 C2216 C 0.85998 0.87453 0.22986
 C2217 C 0.86891 0.85865 0.21510
 C2218 C 0.88761 0.86509 0.20229
 C2219 C 0.89781 0.88736 0.20387
 C2220 C 0.88938 0.90339 0.21827
 C2221 C 0.83398 0.92294 0.27411
 C2222 C 0.81530 0.91653 0.28694
 C2223 C 0.80508 0.89429 0.28534
 C2224 C 0.81345 0.87831 0.27089
 C2225 C 0.87227 0.93703 0.24783
 C2226 C 0.88050 0.95663 0.24938
 C2227 C 0.82979 0.84497 0.24116
 C2228 C 0.81940 0.82631 0.24085
 H2229 H 0.86155 0.84111 0.21335
 H2230 H 0.89424 0.85271 0.19109
 H2231 H 0.91235 0.89225 0.19390
 H2232 H 0.89788 0.92052 0.21893
 H2233 H 0.84133 0.94045 0.27597
 H2234 H 0.80873 0.92889 0.29819
 H2235 H 0.79057 0.88939 0.29535
 H2236 H 0.80487 0.86124 0.27028
 C2237 C 0.66371 0.87306 0.75320
 C2238 C 0.65651 0.88080 0.77352
 C2239 C 0.64582 0.90317 0.77485
 C2240 C 0.64230 0.91767 0.75584
 C2241 C 0.64859 0.90948 0.73539
 C2242 C 0.65937 0.88716 0.73407
 C2243 C 0.66560 0.87947 0.71344
 C2244 C 0.66120 0.89333 0.69465
 C2245 C 0.65060 0.91508 0.69594
 C2246 C 0.64437 0.92317 0.71603
 C2247 C 0.63885 0.91053 0.79536
 C2248 C 0.64223 0.89617 0.81401
 C2249 C 0.65265 0.87432 0.81270
 C2250 C 0.65979 0.86665 0.79273
 C2251 C 0.63272 0.94118 0.75730
 C2252 C 0.62505 0.96083 0.75822
 C2253 C 0.67589 0.85083 0.75191
 C2254 C 0.68620 0.83258 0.75037
 H2255 H 0.67381 0.86264 0.71157
 H2256 H 0.66601 0.88712 0.67900
 H2257 H 0.64717 0.92576 0.68129
 H2258 H 0.63611 0.94019 0.71618
 H2259 H 0.63061 0.92736 0.79717
 H2260 H 0.63671 0.90203 0.82955
 H2261 H 0.65517 0.86320 0.82722
 H2262 H 0.66772 0.84948 0.79251
 C2263 C 0.16754 0.37588 0.25485
 C2264 C 0.18030 0.39550 0.26280
 C2265 C 0.16947 0.41782 0.26387
 C2266 C 0.14591 0.42045 0.25697
 C2267 C 0.13305 0.40076 0.24931
 C2268 C 0.14385 0.37841 0.24833
 C2269 C 0.13059 0.35901 0.24069
 C2270 C 0.10736 0.36161 0.23409
 C2271 C 0.09685 0.38347 0.23493
 C2272 C 0.10945 0.40288 0.24245
 C2273 C 0.18266 0.43715 0.27178
 C2274 C 0.20586 0.43453 0.27845
 C2275 C 0.21643 0.41273 0.27742
 C2276 C 0.20389 0.39338 0.26970
 C2277 C 0.13507 0.44347 0.25752
 C2278 C 0.12638 0.46271 0.25790
 C2279 C 0.17897 0.35333 0.25282
 C2280 C 0.18869 0.33481 0.25087
 H2281 H 0.13799 0.34165 0.23977
 H2282 H 0.09747 0.34658 0.22830
 H2283 H 0.07882 0.38541 0.22973
 H2284 H 0.10051 0.41951 0.24282
 H2285 H 0.17522 0.45446 0.27291
 H2286 H 0.21569 0.44951 0.28445
 H2287 H 0.23445 0.41079 0.28264
 H2288 H 0.21287 0.37678 0.26925
 C2289 C 0.11692 0.24745 0.77109
 C2290 C 0.10512 0.26878 0.77376
 C2291 C 0.08284 0.26819 0.78284
 C2292 C 0.07273 0.24628 0.78922
 C2293 C 0.08340 0.22491 0.78430
 C2294 C 0.10564 0.22549 0.77511
 C2295 C 0.11634 0.20394 0.77066
 C2296 C 0.10523 0.18240 0.77511
 C2297 C 0.08348 0.18183 0.78429
 C2298 C 0.07263 0.20282 0.78894
 C2299 C 0.07147 0.28971 0.78599
 C2300 C 0.08186 0.31125 0.78015
 C2301 C 0.10373 0.31184 0.77123
 C2302 C 0.11535 0.29088 0.76809
 C2303 C 0.05389 0.24593 0.80406
 C2304 C 0.03983 0.24631 0.81799
 C2305 C 0.14129 0.24807 0.76639
 C2306 C 0.16173 0.24837 0.76323
 H2307 H 0.13323 0.20356 0.76351
 H2308 H 0.11351 0.16609 0.77138
 H2309 H 0.07496 0.16506 0.78776
 H2310 H 0.05565 0.20162 0.79592
 H2311 H 0.05439 0.29005 0.79277
 H2312 H 0.07290 0.32756 0.78255
 H2313 H 0.11174 0.32860 0.76672
 H2314 H 0.13229 0.29215 0.76103
 C2315 C 0.61919 0.74946 0.27124
 C2316 C 0.60747 0.72769 0.27499
 C2317 C 0.58527 0.72743 0.28425
 C2318 C 0.57507 0.74894 0.28950
 C2319 C 0.58567 0.77074 0.28351
 C2320 C 0.60792 0.77100 0.27437
 C2321 C 0.61866 0.79297 0.26913
 C2322 C 0.60758 0.81411 0.27276
 C2323 C 0.58574 0.81385 0.28171
 C2324 C 0.57483 0.79244 0.28711
 C2325 C 0.57408 0.70551 0.28863
 C2326 C 0.58449 0.68437 0.28369
 C2327 C 0.60619 0.68463 0.27446
 C2328 C 0.61770 0.70600 0.27023
 C2329 C 0.55616 0.74873 0.30426
 C2330 C 0.54202 0.74906 0.31812
 C2331 C 0.64350 0.74964 0.26637
 C2332 C 0.66391 0.74954 0.26309
 H2333 H 0.63560 0.79400 0.26206
 H2334 H 0.61600 0.83077 0.26860
 H2335 H 0.57719 0.83031 0.28449
 H2336 H 0.55779 0.79304 0.29393
 H2337 H 0.55711 0.70454 0.29567
 H2338 H 0.57565 0.66773 0.28700
 H2339 H 0.61415 0.66821 0.27051
 H2340 H 0.63455 0.70537 0.26302
 C2341 C 0.60887 0.24121 0.20397
 C2342 C 0.59453 0.26096 0.20633
 C2343 C 0.57112 0.26017 0.19853
 C2344 C 0.56235 0.23967 0.18851
 C2345 C 0.57622 0.21939 0.18751
 C2346 C 0.59965 0.22017 0.19525
 C2347 C 0.61344 0.19985 0.19372
 C2348 C 0.60424 0.17932 0.18482
 C2349 C 0.58124 0.17857 0.17723
 C2350 C 0.56732 0.19834 0.17848
 C2351 C 0.55710 0.28023 0.20059
 C2352 C 0.56600 0.30046 0.21027
 C2353 C 0.58894 0.30120 0.21801
 C2354 C 0.60316 0.28175 0.21604
 C2355 C 0.54057 0.24067 0.17635
 C2356 C 0.52364 0.24226 0.16457
 C2357 C 0.63316 0.24268 0.21020
 C2358 C 0.65329 0.24378 0.21571
 H2359 H 0.63141 0.19960 0.19942
 H2360 H 0.61500 0.16393 0.18380
 H2361 H 0.57416 0.16258 0.17034
 H2362 H 0.54949 0.19692 0.17248
 H2363 H 0.53911 0.28038 0.19493
 H2364 H 0.55504 0.31562 0.21181
 H2365 H 0.59576 0.31690 0.22560
 H2366 H 0.62089 0.28316 0.22227
 C2367 C 0.10920 0.74140 0.70391
 C2368 C 0.09453 0.76078 0.70672
 C2369 C 0.07106 0.75966 0.69911
 C2370 C 0.06259 0.73920 0.68881
 C2371 C 0.07684 0.71926 0.68732
 C2372 C 0.10032 0.72038 0.69488
 C2373 C 0.11449 0.70042 0.69286
 C2374 C 0.10562 0.67992 0.68363
 C2375 C 0.08258 0.67885 0.67621
 C2376 C 0.06827 0.69826 0.67797
 C2377 C 0.05668 0.77936 0.70163
 C2378 C 0.06530 0.79957 0.71154
 C2379 C 0.08829 0.80064 0.71908
 C2380 C 0.10285 0.78154 0.71668
 C2381 C 0.04070 0.74001 0.67682
 C2382 C 0.02369 0.74149 0.66513
 C2383 C 0.13350 0.74320 0.71005
 C2384 C 0.15362 0.74455 0.71553
 H2385 H 0.13251 0.70042 0.69841
 H2386 H 0.11668 0.66481 0.68223
 H2387 H 0.07575 0.66289 0.66907
 H2388 H 0.05043 0.69659 0.67209
 H2389 H 0.03864 0.77924 0.69613
 H2390 H 0.05406 0.81446 0.71341
 H2391 H 0.09489 0.81633 0.72684
 H2392 H 0.12061 0.78320 0.72278
 C2393 C 0.85179 0.72872 0.66626
 C2394 C 0.85825 0.74255 0.64784
 C2395 C 0.88086 0.74049 0.63979
 C2396 C 0.89671 0.72465 0.65029
 C2397 C 0.88951 0.70927 0.66739
 C2398 C 0.86691 0.71133 0.67546
 C2399 C 0.86018 0.69623 0.69301
 C2400 C 0.87542 0.67956 0.70227
 C2401 C 0.89754 0.67745 0.69425
 C2402 C 0.90463 0.69215 0.67704
 C2403 C 0.88728 0.75484 0.62164
 C2404 C 0.87166 0.77071 0.61168
 C2405 C 0.84947 0.77272 0.61958
 C2406 C 0.84276 0.75887 0.63750
 C2407 C 0.92101 0.72649 0.64549
 C2408 C 0.94124 0.72958 0.64220
 C2409 C 0.83055 0.73359 0.67691
 C2410 C 0.81343 0.73733 0.68674
 H2411 H 0.84306 0.69705 0.69965
 H2412 H 0.86999 0.66811 0.71565
 H2413 H 0.90926 0.66436 0.70140
 H2414 H 0.92197 0.68987 0.67126
 H2415 H 0.90432 0.75378 0.61488
 H2416 H 0.87679 0.78149 0.59775
 H2417 H 0.83739 0.78505 0.61178
 H2418 H 0.82529 0.76093 0.64304
 C2419 C 0.35205 0.22890 0.16600
 C2420 C 0.35831 0.24287 0.14760
 C2421 C 0.38086 0.24092 0.13935
 C2422 C 0.39682 0.22505 0.14962
 C2423 C 0.38978 0.20949 0.16665
 C2424 C 0.36725 0.21144 0.17492
 C2425 C 0.36067 0.19613 0.19238
 C2426 C 0.37600 0.17937 0.20136
 C2427 C 0.39805 0.17740 0.19316
 C2428 C 0.40499 0.19230 0.17603
 C2429 C 0.38709 0.25542 0.12123
 C2430 C 0.37134 0.27131 0.11147
 C2431 C 0.34923 0.27320 0.11957
 C2432 C 0.34270 0.25921 0.13747
 C2433 C 0.42108 0.22706 0.14471
 C2434 C 0.44129 0.23028 0.14139
 C2435 C 0.33098 0.23376 0.17694
 C2436 C 0.31399 0.23755 0.18695
 H2437 H 0.34361 0.19685 0.19914
 H2438 H 0.37068 0.16777 0.21467
 H2439 H 0.40984 0.16426 0.20011
 H2440 H 0.42228 0.19012 0.17011
 H2441 H 0.40407 0.25446 0.11433
 H2442 H 0.37633 0.28220 0.09756
 H2443 H 0.33705 0.28553 0.11192
 H2444 H 0.32528 0.26116 0.14315
 C2445 C 0.37265 0.78062 0.32949
 C2446 C 0.38928 0.79742 0.32223
 C2447 C 0.41299 0.79471 0.32869
 C2448 C 0.41974 0.77518 0.34225
 C2449 C 0.40278 0.75987 0.35132
 C2450 C 0.37906 0.76268 0.34497
 C2451 C 0.36232 0.74696 0.35385
 C2452 C 0.36890 0.72892 0.36866
 C2453 C 0.39217 0.72609 0.37482
 C2454 C 0.40901 0.74132 0.36626
 C2455 C 0.42951 0.81135 0.32089
 C2456 C 0.42272 0.83020 0.30708
 C2457 C 0.39950 0.83279 0.30067
 C2458 C 0.38288 0.81662 0.30811
 C2459 C 0.44404 0.76946 0.34500
 C2460 C 0.46415 0.76413 0.34656
 C2461 C 0.35010 0.77952 0.31858
 C2462 C 0.33212 0.77748 0.30832
 H2463 H 0.34402 0.74862 0.34959
 H2464 H 0.35588 0.71709 0.37537
 H2465 H 0.39720 0.71204 0.38630
 H2466 H 0.42689 0.73852 0.37157
 H2467 H 0.44775 0.81005 0.32551
 H2468 H 0.43556 0.84283 0.30130
 H2469 H 0.39434 0.84742 0.28989
 H2470 H 0.36497 0.81942 0.30286
 C2471 C 0.87331 0.27953 0.82985
 C2472 C 0.89034 0.29605 0.82288
 C2473 C 0.91388 0.29295 0.82975
 C2474 C 0.92008 0.27331 0.84340
 C2475 C 0.90270 0.25835 0.85224
 C2476 C 0.87915 0.26152 0.84546
 C2477 C 0.86201 0.24606 0.85404
 C2478 C 0.86804 0.22796 0.86900
 C2479 C 0.89114 0.22485 0.87564
 C2480 C 0.90837 0.23979 0.86736
 C2481 C 0.93081 0.30933 0.82227
 C2482 C 0.92459 0.32827 0.80834
 C2483 C 0.90154 0.33121 0.80148
 C2484 C 0.88451 0.31532 0.80862
 C2485 C 0.94422 0.26700 0.84631
 C2486 C 0.96419 0.26118 0.84791
 C2487 C 0.85094 0.27877 0.81856
 C2488 C 0.83310 0.27689 0.80806
 H2489 H 0.84382 0.24795 0.84943
 H2490 H 0.85473 0.21631 0.87547
 H2491 H 0.89573 0.21079 0.88727
 H2492 H 0.92610 0.23678 0.87304
 H2493 H 0.94894 0.30775 0.82725
 H2494 H 0.93773 0.34070 0.80281
 H2495 H 0.89682 0.34589 0.79059
 H2496 H 0.86676 0.31838 0.80303
 C2497 C 0.52525 0.98375 0.64409
 C2498 C 0.51942 1.00373 0.65589
 C2499 C 0.52955 1.00704 0.67698
 C2500 C 0.54540 0.99031 0.68620
 C2501 C 0.55030 0.96973 0.67486
 C2502 C 0.54019 0.96644 0.65376
 C2503 C 0.54567 0.94592 0.64260
 C2504 C 0.56072 0.92915 0.65201
 C2505 C 0.57063 0.93239 0.67262
 C2506 C 0.56554 0.95241 0.68399
 C2507 C 0.52382 1.02739 0.68826
 C2508 C 0.50844 1.04395 0.67901
 C2509 C 0.49846 1.04065 0.65843
 C2510 C 0.50389 1.02085 0.64689
 C2511 C 0.55814 0.99519 0.70638
 C2512 C 0.56969 0.99978 0.72244
 C2513 C 0.51763 0.98206 0.62142
 C2514 C 0.51252 0.98117 0.60228
 H2515 H 0.53833 0.94260 0.62656
 H2516 H 0.56472 0.91356 0.64325
 H2517 H 0.58233 0.91933 0.67984
 H2518 H 0.57361 0.95412 0.70001
 H2519 H 0.53108 1.03066 0.70434
 H2520 H 0.50423 1.05942 0.68786
 H2521 H 0.48649 1.05353 0.65134
 H2522 H 0.49571 1.01905 0.63093
 C2523 C 0.02326 0.48212 1.14438
 C2524 C 0.01887 0.50312 1.15528
 C2525 C 0.02922 0.50677 1.17623
 C2526 C 0.04378 0.48932 1.18622
 C2527 C 0.04687 0.46767 1.17596
 C2528 C 0.03662 0.46407 1.15496
 C2529 C 0.04032 0.44245 1.14486
 C2530 C 0.05369 0.42484 1.15524
 C2531 C 0.06369 0.42834 1.17578
 C2532 C 0.06041 0.44950 1.18608
 C2533 C 0.02501 0.52813 1.18657
 C2534 C 0.01077 0.54530 1.17661
 C2535 C 0.00049 0.54163 1.15622
 C2536 C 0.00454 0.52088 1.14554
 C2537 C 0.05706 0.49444 1.20606
 C2538 C 0.06894 0.49935 1.22184
 C2539 C 0.01590 0.48007 1.12166
 C2540 C 0.01099 0.47906 1.10249
 H2541 H 0.03281 0.43889 1.12893
 H2542 H 0.05629 0.40838 1.14731
 H2543 H 0.07404 0.41460 1.18379
 H2544 H 0.06847 0.45140 1.20209
 H2545 H 0.03252 0.53171 1.20250
 H2546 H 0.00766 0.56151 1.18478
 H2547 H -0.01066 0.55495 1.14863
 H2548 H -0.00382 0.51883 1.12969
 C2549 C -0.02841 -0.02258 1.13436
 C2550 C -0.01872 -0.00575 1.14864
 C2551 C -0.02844 -0.00288 1.16929
 C2552 C -0.04778 -0.01689 1.17554
 C2553 C -0.05633 -0.03494 1.16196
 C2554 C -0.04662 -0.03778 1.14128
 C2555 C -0.05575 -0.05561 1.12779
 C2556 C -0.07389 -0.07032 1.13458
 C2557 C -0.08336 -0.06756 1.15481
 C2558 C -0.07477 -0.05008 1.16841
 C2559 C -0.01874 0.01437 1.18313
 C2560 C 0.00008 0.02836 1.17676
 C2561 C 0.00959 0.02556 1.15656
 C2562 C 0.00035 0.00875 1.14258
 C2563 C -0.05993 -0.01152 1.19503
 C2564 C -0.07052 -0.00646 1.21074
 C2565 C -0.02150 -0.02235 1.11186
 C2566 C -0.01679 -0.02068 1.09291
 H2567 H -0.04885 -0.05847 1.11196
 H2568 H -0.08062 -0.08393 1.12408
 H2569 H -0.09747 -0.07901 1.15999
 H2570 H -0.08262 -0.04866 1.18404
 H2571 H -0.02551 0.01712 1.19903
 H2572 H 0.00732 0.04143 1.18757
 H2573 H 0.02422 0.03646 1.15170
 H2574 H 0.00839 0.00714 1.12707
 C2575 C 0.47660 0.48558 0.63515
 C2576 C 0.47784 0.50761 0.64533
 C2577 C 0.46753 0.51019 0.66575
 C2578 C 0.45613 0.49069 0.67591
 C2579 C 0.45638 0.46826 0.66648
 C2580 C 0.46662 0.46571 0.64600
 C2581 C 0.46632 0.44325 0.63669
 C2582 C 0.45639 0.42376 0.64742
 C2583 C 0.44647 0.42622 0.66749
 C2584 C 0.44630 0.44821 0.67695
 C2585 C 0.46858 0.53250 0.67541
 C2586 C 0.47957 0.55171 0.66522
 C2587 C 0.48968 0.54919 0.64525
 C2588 C 0.48885 0.52745 0.63534
 C2589 C 0.44285 0.49421 0.69514
 C2590 C 0.43128 0.49786 0.71061
 C2591 C 0.48335 0.48421 0.61270
 C2592 C 0.48770 0.48463 0.59367
 H2593 H 0.47396 0.44050 0.62115
 H2594 H 0.45644 0.40664 0.64015
 H2595 H 0.43893 0.41100 0.67581
 H2596 H 0.43839 0.44929 0.69259
 H2597 H 0.46104 0.53531 0.69097
 H2598 H 0.48026 0.56864 0.67286
 H2599 H 0.49822 0.56416 0.63740
 H2600 H 0.49706 0.52634 0.61985
 C2601 C 0.49075 0.49736 -0.14057
 C2602 C 0.48731 0.51873 -0.15270
 C2603 C 0.47547 0.51847 -0.17332
 C2604 C 0.46718 0.49682 -0.18164
 C2605 C 0.47232 0.47531 -0.17032
 C2606 C 0.48418 0.47557 -0.14969
 C2607 C 0.48870 0.45388 -0.13841
 C2608 C 0.48176 0.43251 -0.14729
 C2609 C 0.47014 0.43226 -0.16747
 C2610 C 0.46539 0.45338 -0.17891
 C2611 C 0.47170 0.54014 -0.18495
 C2612 C 0.47951 0.56143 -0.17646
 C2613 C 0.49114 0.56165 -0.15630
 C2614 C 0.49498 0.54060 -0.14445
 C2615 C 0.45133 0.49707 -0.20047
 C2616 C 0.43717 0.49854 -0.21530
 C2617 C 0.49809 0.49800 -0.11781
 C2618 C 0.50233 0.49845 -0.09852
 H2619 H 0.49778 0.45322 -0.12272
 H2620 H 0.48542 0.41606 -0.13848
 H2621 H 0.46479 0.41562 -0.17429
 H2622 H 0.45639 0.45236 -0.19458
 H2623 H 0.46284 0.54083 -0.20074
 H2624 H 0.47655 0.57783 -0.18559
 H2625 H 0.49724 0.57821 -0.14982
 H2626 H 0.50418 0.54162 -0.12887
 C2627 C -0.00921 0.99659 0.36020
 C2628 C -0.01303 1.01803 0.34826
 C2629 C -0.02481 1.01779 0.32761
 C2630 C -0.03265 0.99609 0.31904
 C2631 C -0.02714 0.97456 0.33018
 C2632 C -0.01537 0.97480 0.35085
 C2633 C -0.01050 0.95308 0.36195
 C2634 C -0.01702 0.93170 0.35284
 C2635 C -0.02853 0.93148 0.33261
 C2636 C -0.03362 0.95262 0.32135
 C2637 C -0.02897 1.03950 0.31619
 C2638 C -0.02160 1.06082 0.32491
 C2639 C -0.01002 1.06103 0.34510
 C2640 C -0.00580 1.03993 0.35674
 C2641 C -0.04839 0.99625 0.30012
 C2642 C -0.06247 0.99759 0.28520
 C2643 C -0.00184 0.99710 0.38297
 C2644 C 0.00246 0.99747 0.40226
 H2645 H -0.00149 0.95241 0.37767
 H2646 H -0.01311 0.91523 0.36151
 H2647 H -0.03355 0.91483 0.32561
 H2648 H -0.04253 0.95162 0.30563
 H2649 H -0.03781 1.04022 0.30039
 H2650 H -0.02485 1.07727 0.31593
 H2651 H -0.00425 1.07762 0.35175
 H2652 H 0.00333 1.04094 0.37236
 C2653 C 0.03173 0.48504 0.37590
 C2654 C 0.02157 0.50000 0.35940
 C2655 C 0.03181 0.50239 0.33870
 C2656 C 0.05217 0.48980 0.33457
 C2657 C 0.06147 0.47373 0.35060
 C2658 C 0.05122 0.47134 0.37131
 C2659 C 0.06107 0.45546 0.38716
 C2660 C 0.08046 0.44225 0.38270
 C2661 C 0.09048 0.44458 0.36249
 C2662 C 0.08118 0.46014 0.34657
 C2663 C 0.02155 0.51777 0.32264
 C2664 C 0.00172 0.53040 0.32687
 C2665 C -0.00828 0.52807 0.34709
 C2666 C 0.00147 0.51309 0.36323
 C2667 C 0.06438 0.49461 0.31451
 C2668 C 0.07493 0.49936 0.29825
 C2669 C 0.02372 0.48576 0.39807
 C2670 C 0.01797 0.48804 0.41659
 H2671 H 0.05380 0.45300 0.40308
 H2672 H 0.08774 0.43014 0.39500
 H2673 H 0.10553 0.43428 0.35911
 H2674 H 0.08953 0.46131 0.33107
 H2675 H 0.02867 0.52011 0.30665
 H2676 H -0.00592 0.54206 0.31439
 H2677 H -0.02369 0.53792 0.35028
 H2678 H -0.00699 0.51178 0.37867
 C2679 C 0.53278 -0.01532 -0.12290
 C2680 C 0.52281 0.00004 -0.13919
 C2681 C 0.53296 0.00247 -0.15992
 C2682 C 0.55300 -0.01049 -0.16432
 C2683 C 0.56205 -0.02698 -0.14853
 C2684 C 0.55192 -0.02939 -0.12777
 C2685 C 0.56152 -0.04568 -0.11216
 C2686 C 0.58052 -0.05932 -0.11692
 C2687 C 0.59040 -0.05700 -0.13721
 C2688 C 0.58137 -0.04100 -0.15288
 C2689 C 0.52291 0.01826 -0.17577
 C2690 C 0.50336 0.03121 -0.17130
 C2691 C 0.49343 0.02882 -0.15105
 C2692 C 0.50299 0.01346 -0.13511
 C2693 C 0.56513 -0.00571 -0.18442
 C2694 C 0.57560 -0.00101 -0.20073
 C2695 C 0.52492 -0.01464 -0.10067
 C2696 C 0.51921 -0.01231 -0.08216
 H2697 H 0.55434 -0.04816 -0.09620
 H2698 H 0.58760 -0.07178 -0.10482
 H2699 H 0.60514 -0.06765 -0.14083
 H2700 H 0.58959 -0.03985 -0.16844
 H2701 H 0.52997 0.02066 -0.19178
 H2702 H 0.49586 0.04316 -0.18363
 H2703 H 0.47823 0.03891 -0.14768
 H2704 H 0.49460 0.01212 -0.11964
 C2705 C 0.64208 0.56515 -0.01001
 C2706 C 0.65974 0.55869 0.00556
 C2707 C 0.68042 0.57262 0.00744
 C2708 C 0.68333 0.59295 -0.00624
 C2709 C 0.66579 0.59921 -0.02204
 C2710 C 0.64515 0.58527 -0.02394
 C2711 C 0.62790 0.59193 -0.03982
 C2712 C 0.63094 0.61177 -0.05346
 C2713 C 0.65106 0.62544 -0.05158
 C2714 C 0.66834 0.61933 -0.03609
 C2715 C 0.69776 0.56584 0.02315
 C2716 C 0.69479 0.54587 0.03666
 C2717 C 0.67459 0.53227 0.03486
 C2718 C 0.65721 0.53853 0.01952
 C2719 C 0.70432 0.60744 -0.00439
 C2720 C 0.72129 0.62019 -0.00417
 C2721 C 0.62023 0.55195 -0.01090
 C2722 C 0.60169 0.54174 -0.01102
 H2723 H 0.61195 0.58185 -0.04193
 H2724 H 0.61761 0.61654 -0.06557
 H2725 H 0.65332 0.64087 -0.06220
 H2726 H 0.68367 0.63054 -0.03531
 H2727 H 0.71376 0.57588 0.02515
 H2728 H 0.70823 0.54092 0.04860
 H2729 H 0.67237 0.51678 0.04540
 H2730 H 0.64184 0.52737 0.01869
 C2731 C 0.14259 1.06363 0.49057
 C2732 C 0.14602 1.08309 0.47593
 C2733 C 0.16656 1.09719 0.47780
 C2734 C 0.18365 1.09173 0.49428
 C2735 C 0.18042 1.07202 0.50864
 C2736 C 0.15984 1.05794 0.50679
 C2737 C 0.15697 1.03842 0.52145
 C2738 C 0.17392 1.03294 0.53745
 C2739 C 0.19403 1.04667 0.53922
 C2740 C 0.19734 1.06602 0.52502
 C2741 C 0.16945 1.11665 0.46304
 C2742 C 0.15260 1.12199 0.44691
 C2743 C 0.13257 1.10816 0.44506
 C2744 C 0.12921 1.08895 0.45939
 C2745 C 0.20446 1.10648 0.49618
 C2746 C 0.22124 1.11948 0.49639
 C2747 C 0.12077 1.05040 0.48971
 C2748 C 0.10222 1.04022 0.48962
 H2749 H 0.14165 1.02718 0.52067
 H2750 H 0.17145 1.01793 0.54852
 H2751 H 0.20715 1.04232 0.55166
 H2752 H 0.21325 1.07620 0.52702
 H2753 H 0.18473 1.12794 0.46376
 H2754 H 0.15511 1.13693 0.43576
 H2755 H 0.11957 1.11233 0.43246
 H2756 H 0.11334 1.07872 0.45727
 C2757 C 0.12696 -0.07325 1.01186
 C2758 C 0.13107 -0.09455 1.02401
 C2759 C 0.15257 -0.10640 1.02242
 C2760 C 0.16985 -0.09695 1.00864
 C2761 C 0.16601 -0.07527 0.99703
 C2762 C 0.14454 -0.06341 0.99863
 C2763 C 0.14111 -0.04190 0.98666
 C2764 C 0.15834 -0.03236 0.97351
 C2765 C 0.17929 -0.04393 0.97196
 C2766 C 0.18317 -0.06514 0.98354
 C2767 C 0.15617 -0.12771 1.03465
 C2768 C 0.13907 -0.13706 1.04805
 C2769 C 0.11809 -0.12552 1.04958
 C2770 C 0.11403 -0.10451 1.03771
 C2771 C 0.19099 -0.11007 1.00539
 C2772 C 0.20817 -0.12112 1.00184
 C2773 C 0.10441 -0.06187 1.01218
 C2774 C 0.08582 -0.05218 1.01148
 H2775 H 0.12513 -0.03220 0.98734
 H2776 H 0.15541 -0.01590 0.96448
 H2777 H 0.19262 -0.03644 0.96174
 H2778 H 0.19978 -0.07343 0.98185
 H2779 H 0.17224 -0.13729 1.03403
 H2780 H 0.14213 -0.15337 1.05732
 H2781 H 0.10489 -0.13286 1.06003
 H2782 H 0.09745 -0.09615 1.03943
 C2783 C 0.62817 0.42649 0.51237
 C2784 C 0.62878 0.40186 0.51710
 C2785 C 0.64992 0.38940 0.51555
 C2786 C 0.67039 0.40157 0.50919
 C2787 C 0.66997 0.42633 0.50526
 C2788 C 0.64884 0.43880 0.50686
 C2789 C 0.64889 0.46350 0.50262
 C2790 C 0.66919 0.47554 0.49701
 C2791 C 0.68980 0.46336 0.49545
 C2792 C 0.69029 0.43904 0.49950
 C2793 C 0.64999 0.36478 0.52022
 C2794 C 0.62978 0.35278 0.52617
 C2795 C 0.60913 0.36493 0.52759
 C2796 C 0.60854 0.38919 0.52317
 C2797 C 0.69144 0.38846 0.50552
 C2798 C 0.70851 0.37731 0.50177
 C2799 C 0.60615 0.43892 0.51211
 C2800 C 0.58785 0.44917 0.51117
 H2801 H 0.63330 0.47376 0.50367
 H2802 H 0.66891 0.49444 0.49385
 H2803 H 0.70551 0.47281 0.49108
 H2804 H 0.70675 0.43034 0.49815
 H2805 H 0.66564 0.35456 0.51937
 H2806 H 0.63014 0.33395 0.52967
 H2807 H 0.59346 0.35550 0.53211
 H2808 H 0.59208 0.39788 0.52458
 C2809 C -0.13050 0.43721 0.49607
 C2810 C -0.13436 0.41849 0.48167
 C2811 C -0.15520 0.40479 0.48260
 C2812 C -0.17215 0.40987 0.49792
 C2813 C -0.16836 0.42867 0.51221
 C2814 C -0.14749 0.44237 0.51129
 C2815 C -0.14413 0.46105 0.52581
 C2816 C -0.16086 0.46606 0.54076
 C2817 C -0.18124 0.45268 0.54162
 C2818 C -0.18503 0.43417 0.52755
 C2819 C -0.15857 0.38614 0.46802
 C2820 C -0.14191 0.38121 0.45298
 C2821 C -0.12159 0.39464 0.45207
 C2822 C -0.11774 0.41305 0.46623
 C2823 C -0.19338 0.39566 0.49869
 C2824 C -0.21040 0.38299 0.49794
 C2825 C -0.10883 0.45074 0.49561
 C2826 C -0.09076 0.46182 0.49580
 H2827 H -0.12858 0.47198 0.52574
 H2828 H -0.15801 0.48042 0.55173
 H2829 H -0.19418 0.45666 0.55326
 H2830 H -0.20114 0.42424 0.52881
 H2831 H -0.17408 0.37517 0.46805
 H2832 H -0.14479 0.36689 0.44198
 H2833 H -0.10870 0.39074 0.44036
 H2834 H -0.10163 0.42296 0.46492
 C2835 C 0.37029 -0.06224 -0.00274
 C2836 C 0.36655 -0.08136 -0.01671
 C2837 C 0.34556 -0.09484 -0.01582
 C2838 C 0.32835 -0.08912 -0.00098
 C2839 C 0.33208 -0.07000 0.01297
 C2840 C 0.35309 -0.05654 0.01210
 C2841 C 0.35639 -0.03754 0.02627
 C2842 C 0.33945 -0.03200 0.04084
 C2843 C 0.31894 -0.04515 0.04167
 C2844 C 0.31520 -0.06396 0.02792
 C2845 C 0.34233 -0.11391 -0.02995
 C2846 C 0.35925 -0.11946 -0.04453
 C2847 C 0.37970 -0.10624 -0.04542
 C2848 C 0.38343 -0.08742 -0.03168
 C2849 C 0.30685 -0.10293 -0.00043
 C2850 C 0.28962 -0.11530 -0.00140
 C2851 C 0.39202 -0.04880 -0.00327
 C2852 C 0.41011 -0.03776 -0.00315
 H2853 H 0.37205 -0.02677 0.02623
 H2854 H 0.34227 -0.01740 0.05156
 H2855 H 0.30585 -0.04076 0.05302
 H2856 H 0.29898 -0.07370 0.02915
 H2857 H 0.32673 -0.12475 -0.02990
 H2858 H 0.35647 -0.13410 -0.05519
 H2859 H 0.39279 -0.11062 -0.05678
 H2860 H 0.39965 -0.07770 -0.03296
 C2861 C 0.37084 1.05261 0.51757
 C2862 C 0.35328 1.04779 0.50160
 C2863 C 0.33435 1.06347 0.49812
 C2864 C 0.33305 1.08391 0.51060
 C2865 C 0.35004 1.08815 0.52725
 C2866 C 0.36896 1.07244 0.53075
 C2867 C 0.38582 1.07717 0.54735
 C2868 C 0.38398 1.09678 0.56021
 C2869 C 0.36557 1.11218 0.55673
 C2870 C 0.34874 1.10801 0.54045
 C2871 C 0.31719 1.05840 0.48187
 C2872 C 0.31868 1.03842 0.46943
 C2873 C 0.33718 1.02312 0.47283
 C2874 C 0.35434 1.02766 0.48870
 C2875 C 0.31481 1.10101 0.50568
 C2876 C 0.29993 1.11533 0.50115
 C2877 C 0.39174 1.03841 0.51899
 C2878 C 0.40953 1.02741 0.51888
 H2879 H 0.40047 1.06570 0.55065
 H2880 H 0.39696 1.10007 0.57292
 H2881 H 0.36429 1.12743 0.56672
 H2882 H 0.33468 1.12043 0.53840
 H2883 H 0.30245 1.06975 0.47865
 H2884 H 0.30539 1.03480 0.45709
 H2885 H 0.33825 1.00762 0.46313
 H2886 H 0.36834 1.01518 0.49080
 C2887 C -0.13023 0.55053 1.01711
 C2888 C -0.14712 0.54663 1.00030
 C2889 C -0.16586 0.56253 0.99678
 C2890 C -0.16765 0.58229 1.01008
 C2891 C -0.15140 0.58555 1.02756
 C2892 C -0.13267 0.56960 1.03110
 C2893 C -0.11658 0.57332 1.04857
 C2894 C -0.11897 0.59218 1.06223
 C2895 C -0.13716 0.60785 1.05869
 C2896 C -0.15324 0.60466 1.04157
 C2897 C -0.18232 0.55839 0.97970
 C2898 C -0.18036 0.53908 0.96649
 C2899 C -0.16205 0.52354 0.96993
 C2900 C -0.14556 0.52720 0.98660
 C2901 C -0.18559 0.59971 1.00518
 C2902 C -0.20019 0.61433 1.00068
 C2903 C -0.10938 0.53627 1.01865
 C2904 C -0.09159 0.52525 1.01861
 H2905 H -0.10212 0.56162 1.05193
 H2906 H -0.10657 0.59471 1.07558
 H2907 H -0.13886 0.62253 1.06929
 H2908 H -0.16715 0.61725 1.03951
 H2909 H -0.19690 0.56995 0.97641
 H2910 H -0.19313 0.53615 0.95352
 H2911 H -0.16062 0.50856 0.95963
 H2912 H -0.13169 0.51457 0.98870
 C2913 C -0.00291 0.65698 0.53385
 C2914 C 0.01830 0.66702 0.54147
 C2915 C 0.01809 0.68783 0.55359
 C2916 C -0.00333 0.69829 0.55791
 C2917 C -0.02420 0.68981 0.54811
 C2918 C -0.02400 0.66900 0.53599
 C2919 C -0.04515 0.66026 0.52689
 C2920 C -0.06595 0.67191 0.52965
 C2921 C -0.06614 0.69232 0.54156
 C2922 C -0.04554 0.70122 0.55079
 C2923 C 0.03937 0.69724 0.56180
 C2924 C 0.06034 0.68638 0.55798
 C2925 C 0.06056 0.66597 0.54608
 C2926 C 0.03980 0.65628 0.53791
 C2927 C -0.00434 0.71459 0.57533
 C2928 C -0.00509 0.72631 0.59116
 C2929 C -0.00340 0.63300 0.52668
 C2930 C -0.00391 0.61262 0.52197
 H2931 H -0.04577 0.64449 0.51744
 H2932 H -0.08199 0.66505 0.52252
 H2933 H -0.08233 0.70129 0.54367
 H2934 H -0.04643 0.71720 0.55985
 H2935 H 0.03998 0.71314 0.57106
 H2936 H 0.07649 0.69383 0.56430
 H2937 H 0.07688 0.65759 0.54316
 H2938 H 0.04077 0.64044 0.52867
 C2939 C 0.49711 0.15805 0.03327
 C2940 C 0.51834 0.16827 0.04063
 C2941 C 0.51813 0.18913 0.05267
 C2942 C 0.49670 0.19946 0.05717
 C2943 C 0.47578 0.19082 0.04760
 C2944 C 0.47598 0.16994 0.03556
 C2945 C 0.45478 0.16102 0.02671
 C2946 C 0.43396 0.17256 0.02961
 C2947 C 0.43378 0.19304 0.04143
 C2948 C 0.45442 0.20211 0.05042
 C2949 C 0.53944 0.19871 0.06064
 C2950 C 0.56042 0.18797 0.05665
 C2951 C 0.56063 0.16752 0.04480
 C2952 C 0.53986 0.15766 0.03688
 C2953 C 0.49577 0.21576 0.07460
 C2954 C 0.49504 0.22745 0.09045
 C2955 C 0.49669 0.13400 0.02626
 C2956 C 0.49629 0.11357 0.02173
 H2957 H 0.45416 0.14519 0.01735
 H2958 H 0.41789 0.16558 0.02265
 H2959 H 0.41757 0.20194 0.04364
 H2960 H 0.45354 0.21813 0.05943
 H2961 H 0.54005 0.21466 0.06983
 H2962 H 0.57660 0.19556 0.06278
 H2963 H 0.57697 0.15924 0.04174
 H2964 H 0.54081 0.14179 0.02768
 C2965 C 0.00347 0.13096 0.94026
 C2966 C 0.02091 0.13254 0.92459
 C2967 C 0.02220 0.15269 0.91037
 C2968 C 0.00603 0.17108 0.91193
 C2969 C -0.01129 0.16958 0.92770
 C2970 C -0.01259 0.14940 0.94193
 C2971 C -0.03019 0.14807 0.95744
 C2972 C -0.04605 0.16625 0.95886
 C2973 C -0.04476 0.18604 0.94494
 C2974 C -0.02760 0.18779 0.92951
 C2975 C 0.03966 0.15385 0.89468
 C2976 C 0.05533 0.13554 0.89307
 C2977 C 0.05405 0.11578 0.90698
 C2978 C 0.03709 0.11421 0.92260
 C2979 C 0.00707 0.19120 0.89692
 C2980 C 0.00850 0.20749 0.88401
 C2981 C 0.00153 0.10976 0.95381
 C2982 C 0.00040 0.09135 0.96399
 H2983 H -0.03186 0.13302 0.96861
 H2984 H -0.05941 0.16497 0.97081
 H2985 H -0.05712 0.20011 0.94611
 H2986 H -0.02727 0.20351 0.91904
 H2987 H 0.04140 0.16885 0.88348
 H2988 H 0.06852 0.13668 0.88095
 H2989 H 0.06623 0.10158 0.90567
 H2990 H 0.03684 0.09847 0.93305
 C2991 C 0.50266 0.63048 0.43666
 C2992 C 0.52004 0.63221 0.42093
 C2993 C 0.52143 0.65261 0.40701
 C2994 C 0.50547 0.67111 0.40897
 C2995 C 0.48810 0.66938 0.42469
 C2996 C 0.48669 0.64895 0.43861
 C2997 C 0.46915 0.64748 0.45417
 C2998 C 0.45343 0.66573 0.45592
 C2999 C 0.45480 0.68573 0.44228
 C3000 C 0.47191 0.68764 0.42681
 C3001 C 0.53885 0.65394 0.39129
 C3002 C 0.55443 0.63560 0.38940
 C3003 C 0.55309 0.61564 0.40305
 C3004 C 0.53613 0.61386 0.41866
 C3005 C 0.50699 0.69178 0.39466
 C3006 C 0.50890 0.70859 0.38239
 C3007 C 0.50097 0.60928 0.45027
 C3008 C 0.50017 0.59102 0.46072
 H3009 H 0.46741 0.63226 0.46512
 H3010 H 0.44014 0.66435 0.46792
 H3011 H 0.44254 0.69985 0.44369
 H3012 H 0.47230 0.70352 0.41655
 H3013 H 0.54062 0.66909 0.38027
 H3014 H 0.56761 0.63689 0.37726
 H3015 H 0.56523 0.60143 0.40153
 H3016 H 0.53582 0.59795 0.42887
 C3017 C 0.51646 0.86871 0.43170
 C3018 C 0.50048 0.86467 0.41421
 C3019 C 0.50250 0.84423 0.40180
 C3020 C 0.52055 0.82808 0.40694
 C3021 C 0.53696 0.83249 0.42398
 C3022 C 0.53491 0.85293 0.43644
 C3023 C 0.55146 0.85705 0.45347
 C3024 C 0.56954 0.84138 0.45802
 C3025 C 0.57157 0.82139 0.44579
 C3026 C 0.55549 0.81688 0.42896
 C3027 C 0.48625 0.84042 0.38443
 C3028 C 0.46858 0.85644 0.37945
 C3029 C 0.46664 0.87651 0.39158
 C3030 C 0.48234 0.88066 0.40880
 C3031 C 0.52196 0.80691 0.39467
 C3032 C 0.52217 0.78969 0.38387
 C3033 C 0.51355 0.88881 0.44510
 C3034 C 0.51080 0.90545 0.45624
 H3035 H 0.55066 0.87242 0.46335
 H3036 H 0.58209 0.84483 0.47106
 H3037 H 0.58569 0.80931 0.44936
 H3038 H 0.55777 0.80111 0.41988
 H3039 H 0.48703 0.82509 0.37448
 H3040 H 0.45634 0.85327 0.36610
 H3041 H 0.45291 0.88893 0.38764
 H3042 H 0.48014 0.89654 0.41773
 C3043 C 0.01571 0.36707 0.93149
 C3044 C -0.00017 0.36349 0.91382
 C3045 C 0.00163 0.34314 0.90125
 C3046 C 0.01935 0.32664 0.90641
 C3047 C 0.03567 0.33059 0.92363
 C3048 C 0.03385 0.35093 0.93624
 C3049 C 0.05030 0.35459 0.95345
 C3050 C 0.06807 0.33856 0.95803
 C3051 C 0.06986 0.31864 0.94566
 C3052 C 0.05386 0.31459 0.92865
 C3053 C -0.01454 0.33977 0.88372
 C3054 C -0.03190 0.35613 0.87874
 C3055 C -0.03361 0.37611 0.89103
 C3056 C -0.01799 0.37983 0.90840
 C3057 C 0.02046 0.30553 0.89405
 C3058 C 0.02046 0.28830 0.88325
 C3059 C 0.01296 0.38704 0.94507
 C3060 C 0.01026 0.40360 0.95632
 H3061 H 0.04968 0.36989 0.96346
 H3062 H 0.08055 0.34165 0.97121
 H3063 H 0.08372 0.30627 0.94925
 H3064 H 0.05595 0.29886 0.91946
 H3065 H -0.01392 0.32453 0.87365
 H3066 H -0.04407 0.35329 0.86526
 H3067 H -0.04711 0.38880 0.88709
 H3068 H -0.02001 0.39567 0.91745
 C3069 C 0.48202 0.38083 0.07353
 C3070 C 0.46490 0.36413 0.06704
 C3071 C 0.46161 0.34317 0.07987
 C3072 C 0.47548 0.33920 0.09900
 C3073 C 0.49137 0.35669 0.10630
 C3074 C 0.49469 0.37762 0.09347
 C3075 C 0.51102 0.39475 0.10080
 C3076 C 0.52371 0.39121 0.12029
 C3077 C 0.52040 0.37072 0.13291
 C3078 C 0.50446 0.35358 0.12606
 C3079 C 0.44468 0.32645 0.07302
 C3080 C 0.43130 0.33042 0.05398
 C3081 C 0.43456 0.35094 0.04136
 C3082 C 0.45115 0.36768 0.04774
 C3083 C 0.47556 0.31620 0.10975
 C3084 C 0.47743 0.29698 0.11834
 C3085 C 0.48728 0.40084 0.05937
 C3086 C 0.49194 0.41759 0.04783
 H3087 H 0.51409 0.41104 0.09161
 H3088 H 0.53612 0.40448 0.12565
 H3089 H 0.53024 0.36809 0.14808
 H3090 H 0.50241 0.33796 0.13647
 H3091 H 0.44152 0.31029 0.08239
 H3092 H 0.41834 0.31751 0.04900
 H3093 H 0.42411 0.35396 0.02660
 H3094 H 0.45297 0.38344 0.03748
 C3095 C -0.01833 0.88006 0.57435
 C3096 C -0.03535 0.86333 0.56773
 C3097 C -0.03864 0.84231 0.58048
 C3098 C -0.02485 0.83831 0.59965
 C3099 C -0.00910 0.85585 0.60711
 C3100 C -0.00579 0.87684 0.59436
 C3101 C 0.01042 0.89401 0.60183
 C3102 C 0.02298 0.89047 0.62140
 C3103 C 0.01967 0.86992 0.63394
 C3104 C 0.00386 0.85273 0.62694
 C3105 C -0.05547 0.82555 0.57349
 C3106 C -0.06877 0.82955 0.55441
 C3107 C -0.06552 0.85013 0.54187
 C3108 C -0.04902 0.86690 0.54838
 C3109 C -0.02468 0.81526 0.61030
 C3110 C -0.02271 0.79602 0.61884
 C3111 C -0.01299 0.90009 0.56025
 C3112 C -0.00825 0.91684 0.54873
 H3113 H 0.01349 0.91035 0.59271
 H3114 H 0.03530 0.90377 0.62687
 H3115 H 0.02940 0.86728 0.64916
 H3116 H 0.00179 0.83707 0.63730
 H3117 H -0.05863 0.80934 0.58280
 H3118 H -0.08167 0.81663 0.54934
 H3119 H -0.07591 0.85318 0.52708
 H3120 H -0.04719 0.88271 0.53818
 C3121 C 0.23478 0.27506 0.10593
 C3122 C 0.25562 0.27132 0.09505
 C3123 C 0.25868 0.28148 0.07386
 C3124 C 0.24085 0.29525 0.06362
 C3125 C 0.21953 0.29789 0.07401
 C3126 C 0.21649 0.28778 0.09522
 C3127 C 0.19516 0.29099 0.10540
 C3128 C 0.17732 0.30378 0.09492
 C3129 C 0.18029 0.31365 0.07420
 C3130 C 0.20113 0.31082 0.06379
 C3131 C 0.27985 0.27786 0.06352
 C3132 C 0.29742 0.26447 0.07374
 C3133 C 0.29436 0.25443 0.09438
 C3134 C 0.27378 0.25784 0.10504
 C3135 C 0.24515 0.30826 0.04333
 C3136 C 0.24940 0.31997 0.02716
 C3137 C 0.23291 0.26752 0.12865
 C3138 C 0.23183 0.26236 0.14779
 H3139 H 0.19202 0.28358 0.12149
 H3140 H 0.16109 0.30603 0.10293
 H3141 H 0.16637 0.32355 0.06613
 H3142 H 0.20261 0.31876 0.04764
 H3143 H 0.28298 0.28522 0.04741
 H3144 H 0.31349 0.26184 0.06558
 H3145 H 0.30801 0.24393 0.10219
 H3146 H 0.27221 0.24968 0.12109
 C3147 C 0.73400 0.77404 0.60571
 C3148 C 0.75497 0.77056 0.59496
 C3149 C 0.75811 0.78084 0.57383
 C3150 C 0.74023 0.79450 0.56351
 C3151 C 0.71879 0.79685 0.57376
 C3152 C 0.71568 0.78664 0.59492
 C3153 C 0.69424 0.78965 0.60498
 C3154 C 0.67636 0.80230 0.59442
 C3155 C 0.67938 0.81222 0.57372
 C3156 C 0.70032 0.80960 0.56343
 C3157 C 0.77939 0.77746 0.56361
 C3158 C 0.79702 0.76420 0.57391
 C3159 C 0.79390 0.75407 0.59451
 C3160 C 0.77319 0.75723 0.60503
 C3161 C 0.74462 0.80773 0.54334
 C3162 C 0.74897 0.81963 0.52731
 C3163 C 0.73202 0.76635 0.62839
 C3164 C 0.73090 0.76107 0.64751
 H3165 H 0.69106 0.78219 0.62105
 H3166 H 0.66005 0.80440 0.60234
 H3167 H 0.66542 0.82200 0.56557
 H3168 H 0.70184 0.81757 0.54730
 H3169 H 0.78258 0.78489 0.54754
 H3170 H 0.81318 0.76174 0.56585
 H3171 H 0.80759 0.74369 0.60239
 H3172 H 0.77158 0.74900 0.62105
 C3173 C 0.23052 0.72047 0.61726
 C3174 C 0.21371 0.70494 0.60812
 C3175 C 0.21717 0.69543 0.58739
 C3176 C 0.23745 0.70148 0.57596
 C3177 C 0.25351 0.71818 0.58448
 C3178 C 0.25002 0.72772 0.60517
 C3179 C 0.26651 0.74413 0.61349
 C3180 C 0.28586 0.75093 0.60169
 C3181 C 0.28926 0.74159 0.58147
 C3182 C 0.27334 0.72538 0.57289
 C3183 C 0.20024 0.67974 0.57868
 C3184 C 0.18041 0.67370 0.59009
 C3185 C 0.17708 0.68293 0.61039
 C3186 C 0.19352 0.69835 0.61940
 C3187 C 0.24263 0.68944 0.55624
 C3188 C 0.24753 0.67899 0.54030
 C3189 C 0.22921 0.72713 0.63980
 C3190 C 0.22991 0.73185 0.65879
 H3191 H 0.26456 0.75197 0.62910
 H3192 H 0.29827 0.76354 0.60828
 H3193 H 0.30432 0.74694 0.57237
 H3194 H 0.27670 0.71866 0.55707
 H3195 H 0.20207 0.67214 0.56294
 H3196 H 0.16753 0.66183 0.58313
 H3197 H 0.16165 0.67816 0.61918
 H3198 H 0.19015 0.70519 0.63518
 C3199 C 0.72886 0.21928 0.11719
 C3200 C 0.71255 0.20288 0.10860
 C3201 C 0.71579 0.19349 0.08779
 C3202 C 0.73536 0.20054 0.07573
 C3203 C 0.75080 0.21812 0.08370
 C3204 C 0.74752 0.22755 0.10447
 C3205 C 0.76338 0.24486 0.11222
 C3206 C 0.78194 0.25266 0.09980
 C3207 C 0.78516 0.24342 0.07950
 C3208 C 0.76984 0.22633 0.07147
 C3209 C 0.69941 0.17689 0.07965
 C3210 C 0.68030 0.16986 0.09169
 C3211 C 0.67717 0.17900 0.11206
 C3212 C 0.69309 0.19529 0.12052
 C3213 C 0.74057 0.18861 0.05597
 C3214 C 0.74557 0.17824 0.04002
 C3215 C 0.72802 0.22580 0.13980
 C3216 C 0.72903 0.23042 0.15881
 H3217 H 0.76153 0.25266 0.12786
 H3218 H 0.79387 0.26595 0.10595
 H3219 H 0.79961 0.24953 0.06991
 H3220 H 0.77301 0.21973 0.05556
 H3221 H 0.70111 0.16933 0.06387
 H3222 H 0.66782 0.15730 0.08516
 H3223 H 0.66230 0.17347 0.12134
 H3224 H 0.68991 0.20201 0.13639
 C3225 C 0.75059 0.23978 0.88905
 C3226 C 0.77155 0.23612 0.90126
 C3227 C 0.77109 0.22455 0.92210
 C3228 C 0.74965 0.21676 0.93060
 C3229 C 0.72858 0.22211 0.91915
 C3230 C 0.72905 0.23366 0.89829
 C3231 C 0.70778 0.23838 0.88691
 C3232 C 0.68665 0.23196 0.89593
 C3233 C 0.68620 0.22068 0.91634
 C3234 C 0.70690 0.21572 0.92788
 C3235 C 0.79233 0.22059 0.93379
 C3236 C 0.81340 0.22797 0.92519
 C3237 C 0.81382 0.23934 0.90482
 C3238 C 0.79319 0.24335 0.89289
 C3239 C 0.74958 0.20121 0.94986
 C3240 C 0.75070 0.18722 0.96506
 C3241 C 0.75131 0.24720 0.86626
 C3242 C 0.75167 0.25166 0.84697
 H3243 H 0.70728 0.24721 0.87103
 H3244 H 0.67053 0.23578 0.88704
 H3245 H 0.66974 0.21576 0.92329
 H3246 H 0.70573 0.20699 0.94373
 H3247 H 0.79287 0.21191 0.94974
 H3248 H 0.82948 0.22488 0.93438
 H3249 H 0.83021 0.24514 0.89825
 H3250 H 0.79436 0.25231 0.87714
 C3251 C 0.24977 0.73988 0.38920
 C3252 C 0.27089 0.73649 0.40122
 C3253 C 0.27080 0.72480 0.42202
 C3254 C 0.24956 0.71657 0.43066
 C3255 C 0.22832 0.72149 0.41932
 C3256 C 0.22842 0.73318 0.39851
 C3257 C 0.20699 0.73743 0.38725
 C3258 C 0.18605 0.73042 0.39634
 C3259 C 0.18597 0.71901 0.41670
 C3260 C 0.20682 0.71452 0.42813
 C3261 C 0.29220 0.72114 0.43353
 C3262 C 0.31308 0.72886 0.42476
 C3263 C 0.31315 0.74031 0.40442
 C3264 C 0.29235 0.74410 0.39269
 C3265 C 0.24990 0.70104 0.44993
 C3266 C 0.25128 0.68710 0.46515
 C3267 C 0.25019 0.74763 0.36647
 C3268 C 0.25039 0.75237 0.34722
 H3269 H 0.20619 0.74633 0.37141
 H3270 H 0.16980 0.73385 0.38753
 H3271 H 0.16966 0.71360 0.42369
 H3272 H 0.20593 0.70566 0.44395
 H3273 H 0.29301 0.71240 0.44945
 H3274 H 0.32929 0.72596 0.43380
 H3275 H 0.32940 0.74632 0.39769
 H3276 H 0.29325 0.75315 0.37696
 C3277 C 0.73301 0.78339 0.37214
 C3278 C 0.74899 0.77368 0.38789
 C3279 C 0.75154 0.78367 0.40877
 C3280 C 0.73808 0.80334 0.41384
 C3281 C 0.72108 0.81210 0.39859
 C3282 C 0.71855 0.80212 0.37768
 C3283 C 0.70170 0.81144 0.36263
 C3284 C 0.68763 0.83000 0.36808
 C3285 C 0.69005 0.83971 0.38849
 C3286 C 0.70659 0.83096 0.40362
 C3287 C 0.76788 0.77385 0.42407
 C3288 C 0.78131 0.75469 0.41895
 C3289 C 0.77884 0.74493 0.39857
 C3290 C 0.76292 0.75426 0.38315
 C3291 C 0.74288 0.81547 0.43406
 C3292 C 0.74772 0.82592 0.45045
 C3293 C 0.73315 0.77558 0.34979
 C3294 C 0.73508 0.76969 0.33123
 H3295 H 0.69913 0.80437 0.34660
 H3296 H 0.67475 0.83686 0.35639
 H3297 H 0.67905 0.85410 0.39264
 H3298 H 0.70780 0.83903 0.41932
 H3299 H 0.77037 0.78078 0.44016
 H3300 H 0.79369 0.74736 0.43087
 H3301 H 0.78931 0.73004 0.39468
 H3302 H 0.76155 0.74599 0.36756
 C3303 C 0.22997 0.28386 0.87203
 C3304 C 0.24275 0.27175 0.88891
 C3305 C 0.24573 0.28184 0.90971
 C3306 C 0.23590 0.30401 0.91356
 C3307 C 0.22184 0.31536 0.89713
 C3308 C 0.21891 0.30528 0.87631
 C3309 C 0.20514 0.31720 0.86006
 C3310 C 0.19447 0.33840 0.86425
 C3311 C 0.19728 0.34822 0.88458
 C3312 C 0.21083 0.33693 0.90088
 C3313 C 0.25890 0.26955 0.92617
 C3314 C 0.26881 0.24788 0.92224
 C3315 C 0.26590 0.23803 0.90194
 C3316 C 0.25307 0.24976 0.88540
 C3317 C 0.24154 0.31585 0.93378
 C3318 C 0.24694 0.32611 0.95014
 C3319 C 0.23039 0.27563 0.84984
 C3320 C 0.23252 0.26953 0.83138
 H3321 H 0.20237 0.31017 0.84403
 H3322 H 0.18393 0.34725 0.85164
 H3323 H 0.18893 0.36468 0.88775
 H3324 H 0.21246 0.34520 0.91647
 H3325 H 0.26157 0.27648 0.94224
 H3326 H 0.27879 0.23869 0.93504
 H3327 H 0.27362 0.22119 0.89898
 H3328 H 0.25120 0.24134 0.86990
 C3329 C 0.81536 0.39503 0.75961
 C3330 C 0.80990 0.41345 0.74421
 C3331 C 0.82488 0.43353 0.74224
 C3332 C 0.84527 0.43506 0.75563
 C3333 C 0.85048 0.41685 0.77135
 C3334 C 0.83545 0.39684 0.77337
 C3335 C 0.84103 0.37891 0.78920
 C3336 C 0.86084 0.38071 0.80269
 C3337 C 0.87560 0.40019 0.80064
 C3338 C 0.87058 0.41809 0.78519
 C3339 C 0.81908 0.45166 0.72673
 C3340 C 0.79903 0.45003 0.71351
 C3341 C 0.78442 0.43039 0.71540
 C3342 C 0.78972 0.41225 0.73053
 C3343 C 0.86087 0.45537 0.75362
 C3344 C 0.87446 0.47176 0.75330
 C3345 C 0.80130 0.37353 0.76031
 C3346 C 0.79061 0.35507 0.76026
 H3347 H 0.83010 0.36340 0.79142
 H3348 H 0.86476 0.36690 0.81478
 H3349 H 0.89102 0.40145 0.81111
 H3350 H 0.88261 0.43289 0.78427
 H3351 H 0.82993 0.46726 0.72468
 H3352 H 0.79482 0.46408 0.70174
 H3353 H 0.76888 0.42922 0.70509
 H3354 H 0.77779 0.39736 0.73145
 C3355 C 0.31538 0.89598 0.26044
 C3356 C 0.31026 0.91400 0.24455
 C3357 C 0.32527 0.93404 0.24244
 C3358 C 0.34533 0.93595 0.25621
 C3359 C 0.35022 0.91813 0.27239
 C3360 C 0.33518 0.89814 0.27454
 C3361 C 0.34046 0.88057 0.29080
 C3362 C 0.36001 0.88269 0.30458
 C3363 C 0.37477 0.90216 0.30243
 C3364 C 0.37002 0.91972 0.28657
 C3365 C 0.31984 0.95174 0.22638
 C3366 C 0.30014 0.94973 0.21277
 C3367 C 0.28548 0.93015 0.21481
 C3368 C 0.29040 0.91243 0.23048
 C3369 C 0.36093 0.95624 0.25408
 C3370 C 0.37450 0.97265 0.25366
 C3371 C 0.30131 0.87449 0.26130
 C3372 C 0.29052 0.85608 0.26126
 H3373 H 0.32951 0.86509 0.29310
 H3374 H 0.36374 0.86913 0.31696
 H3375 H 0.38998 0.90368 0.31314
 H3376 H 0.38204 0.93452 0.28559
 H3377 H 0.33075 0.96728 0.22418
 H3378 H 0.29623 0.96344 0.20057
 H3379 H 0.27019 0.92868 0.20420
 H3380 H 0.27845 0.89757 0.23149
 C3381 C 0.17218 0.87642 0.73829
 C3382 C 0.18196 0.89581 0.74949
 C3383 C 0.16904 0.91686 0.75113
 C3384 C 0.14639 0.91848 0.74156
 C3385 C 0.13692 0.89939 0.72974
 C3386 C 0.14984 0.87833 0.72809
 C3387 C 0.13993 0.85948 0.71631
 C3388 C 0.11791 0.86137 0.70636
 C3389 C 0.10526 0.88190 0.70802
 C3390 C 0.11456 0.90074 0.71957
 C3391 C 0.17915 0.93586 0.76260
 C3392 C 0.20137 0.93417 0.77213
 C3393 C 0.21399 0.91363 0.77051
 C3394 C 0.20448 0.89461 0.75936
 C3395 C 0.13249 0.93930 0.74480
 C3396 C 0.12081 0.95625 0.74818
 C3397 C 0.18469 0.85425 0.73821
 C3398 C 0.19525 0.83595 0.73907
 H3399 H 0.14911 0.84316 0.71457
 H3400 H 0.11063 0.84683 0.69731
 H3401 H 0.08815 0.88325 0.70028
 H3402 H 0.10409 0.91637 0.72035
 H3403 H 0.17005 0.95223 0.76426
 H3404 H 0.20884 0.94888 0.78082
 H3405 H 0.23126 0.91241 0.77793
 H3406 H 0.21501 0.87904 0.75851
 C3407 C 0.67331 0.37556 0.23859
 C3408 C 0.68313 0.39469 0.25014
 C3409 C 0.67050 0.41593 0.25168
 C3410 C 0.64806 0.41798 0.24172
 C3411 C 0.63854 0.39913 0.22961
 C3412 C 0.65119 0.37788 0.22804
 C3413 C 0.64121 0.35927 0.21598
 C3414 C 0.61940 0.36156 0.20570
 C3415 C 0.60702 0.38227 0.20727
 C3416 C 0.61639 0.40089 0.21908
 C3417 C 0.68065 0.43468 0.26344
 C3418 C 0.70262 0.43254 0.27343
 C3419 C 0.71494 0.41179 0.27196
 C3420 C 0.70540 0.39303 0.26048
 C3421 C 0.63436 0.43894 0.24495
 C3422 C 0.62284 0.45599 0.24840
 C3423 C 0.68557 0.35324 0.23847
 C3424 C 0.69592 0.33481 0.23927
 H3425 H 0.65018 0.34281 0.21431
 H3426 H 0.61207 0.34719 0.19646
 H3427 H 0.59007 0.38393 0.19927
 H3428 H 0.60613 0.41668 0.21978
 H3429 H 0.67177 0.45120 0.26501
 H3430 H 0.71012 0.44707 0.28235
 H3431 H 0.73200 0.41021 0.27976
 H3432 H 0.71569 0.37727 0.25977
 C3433 C 0.68064 0.61911 0.25278
 C3434 C 0.68580 0.60149 0.23793
 C3435 C 0.67205 0.58047 0.23709
 C3436 C 0.65319 0.57717 0.25107
 C3437 C 0.64799 0.59483 0.26588
 C3438 C 0.66175 0.61584 0.26673
 C3439 C 0.65619 0.63320 0.28165
 C3440 C 0.63760 0.62991 0.29538
 C3441 C 0.62412 0.60943 0.29455
 C3442 C 0.62917 0.59204 0.28002
 C3443 C 0.67755 0.56314 0.22215
 C3444 C 0.69609 0.56648 0.20836
 C3445 C 0.70951 0.58702 0.20913
 C3446 C 0.70451 0.60438 0.22372
 C3447 C 0.63916 0.55562 0.25056
 C3448 C 0.62677 0.53829 0.25146
 C3449 C 0.69451 0.64075 0.25340
 C3450 C 0.70602 0.65871 0.25329
 H3451 H 0.66612 0.64947 0.28286
 H3452 H 0.63359 0.64339 0.30668
 H3453 H 0.60966 0.60699 0.30522
 H3454 H 0.61815 0.57643 0.28001
 H3455 H 0.66758 0.54689 0.22095
 H3456 H 0.70006 0.55305 0.19701
 H3457 H 0.72389 0.58953 0.19838
 H3458 H 0.71546 0.62004 0.22371
 C3459 C 0.17942 0.11880 0.75262
 C3460 C 0.18424 0.10151 0.73733
 C3461 C 0.17043 0.08053 0.73634
 C3462 C 0.15188 0.07693 0.75062
 C3463 C 0.14706 0.09423 0.76591
 C3464 C 0.16086 0.11519 0.76691
 C3465 C 0.15569 0.13216 0.78232
 C3466 C 0.13743 0.12855 0.79639
 C3467 C 0.12390 0.10811 0.79540
 C3468 C 0.12857 0.09110 0.78038
 C3469 C 0.17557 0.06356 0.72094
 C3470 C 0.19384 0.06717 0.70688
 C3471 C 0.20733 0.08766 0.70782
 C3472 C 0.20267 0.10468 0.72284
 C3473 C 0.13776 0.05546 0.74995
 C3474 C 0.12521 0.03824 0.75083
 C3475 C 0.19325 0.14046 0.75330
 C3476 C 0.20471 0.15846 0.75323
 H3477 H 0.16568 0.14838 0.78368
 H3478 H 0.13371 0.14172 0.80807
 H3479 H 0.10969 0.10541 0.80632
 H3480 H 0.11752 0.07552 0.78027
 H3481 H 0.16553 0.04736 0.71960
 H3482 H 0.19754 0.05401 0.69518
 H3483 H 0.22150 0.09038 0.69686
 H3484 H 0.21367 0.12031 0.72295
 C3485 C 0.30467 0.11960 0.23210
 C3486 C 0.32326 0.11771 0.21781
 C3487 C 0.33976 0.09940 0.22132
 C3488 C 0.33750 0.08302 0.23906
 C3489 C 0.31824 0.08421 0.25267
 C3490 C 0.30181 0.10256 0.24920
 C3491 C 0.28293 0.10357 0.26325
 C3492 C 0.28029 0.08690 0.28019
 C3493 C 0.29631 0.06894 0.28354
 C3494 C 0.31511 0.06753 0.27001
 C3495 C 0.35838 0.09811 0.20701
 C3496 C 0.36055 0.11433 0.18963
 C3497 C 0.34435 0.13211 0.18613
 C3498 C 0.32595 0.13395 0.20008
 C3499 C 0.35536 0.06553 0.24387
 C3500 C 0.37021 0.05118 0.24835
 C3501 C 0.28982 0.14018 0.23058
 C3502 C 0.27832 0.15781 0.23068
 H3503 H 0.26995 0.11716 0.26124
 H3504 H 0.26572 0.08792 0.29075
 H3505 H 0.29417 0.05601 0.29671
 H3506 H 0.32709 0.05320 0.27325
 H3507 H 0.37136 0.08453 0.20904
 H3508 H 0.37486 0.11308 0.17881
 H3509 H 0.34612 0.14465 0.17260
 H3510 H 0.31381 0.14812 0.19674
 C3511 C 0.80534 0.61905 0.73194
 C3512 C 0.82406 0.61728 0.71778
 C3513 C 0.84056 0.59897 0.72132
 C3514 C 0.83818 0.58247 0.73895
 C3515 C 0.81880 0.58355 0.75242
 C3516 C 0.80236 0.60188 0.74892
 C3517 C 0.78331 0.60274 0.76280
 C3518 C 0.78054 0.58596 0.77961
 C3519 C 0.79660 0.56803 0.78302
 C3520 C 0.81555 0.56676 0.76965
 C3521 C 0.85931 0.59780 0.70714
 C3522 C 0.86158 0.61411 0.68985
 C3523 C 0.84538 0.63188 0.68631
 C3524 C 0.82687 0.63362 0.70014
 C3525 C 0.85598 0.56490 0.74374
 C3526 C 0.87074 0.55044 0.74820
 C3527 C 0.79042 0.63959 0.73039
 C3528 C 0.77881 0.65715 0.73049
 H3529 H 0.77030 0.61629 0.76073
 H3530 H 0.76585 0.58686 0.79005
 H3531 H 0.79436 0.55502 0.79610
 H3532 H 0.82754 0.55246 0.77293
 H3533 H 0.87231 0.58423 0.70920
 H3534 H 0.87598 0.61295 0.67912
 H3535 H 0.84724 0.64449 0.67285
 H3536 H 0.81473 0.64779 0.69679
 C3537 C 0.90389 0.73974 0.22230
 C3538 C 0.91542 0.76151 0.21810
 C3539 C 0.93683 0.76184 0.20740
 C3540 C 0.94640 0.74040 0.20111
 C3541 C 0.93630 0.71857 0.20772
 C3542 C 0.91487 0.71823 0.21837
 C3543 C 0.90452 0.69624 0.22418
 C3544 C 0.91519 0.67513 0.21963
 C3545 C 0.93621 0.67547 0.20915
 C3546 C 0.94671 0.69692 0.20316
 C3547 C 0.94775 0.78379 0.20253
 C3548 C 0.93782 0.80488 0.20832
 C3549 C 0.91686 0.80456 0.21889
 C3550 C 0.90564 0.78315 0.22369
 C3551 C 0.96348 0.74084 0.18451
 C3552 C 0.97582 0.74114 0.16918
 C3553 C 0.87974 0.73957 0.22776
 C3554 C 0.85935 0.73953 0.23114
 H3555 H 0.88821 0.69519 0.23242
 H3556 H 0.90710 0.65844 0.22424
 H3557 H 0.94443 0.65903 0.20563
 H3558 H 0.96311 0.69640 0.19512
 H3559 H 0.96414 0.78480 0.19443
 H3560 H 0.94645 0.82155 0.20460
 H3561 H 0.90925 0.82095 0.22342
 H3562 H 0.88939 0.78370 0.23197
 C3563 C 0.40175 0.24225 0.72188
 C3564 C 0.41217 0.26409 0.71574
 C3565 C 0.43368 0.26437 0.70521
 C3566 C 0.44445 0.24282 0.70099
 C3567 C 0.43530 0.22122 0.70931
 C3568 C 0.41380 0.22093 0.71985
 C3569 C 0.40447 0.19910 0.72749
 C3570 C 0.41621 0.17810 0.72482
 C3571 C 0.43728 0.17838 0.71443
 C3572 C 0.44678 0.19967 0.70668
 C3573 C 0.44351 0.28630 0.69843
 C3574 C 0.43239 0.30742 0.70212
 C3575 C 0.41131 0.30715 0.71249
 C3576 C 0.40120 0.28576 0.71921
 C3577 C 0.46209 0.24254 0.68494
 C3578 C 0.47505 0.24241 0.67009
 C3579 C 0.37764 0.24152 0.72749
 C3580 C 0.35728 0.24107 0.73101
 H3581 H 0.38816 0.19809 0.73571
 H3582 H 0.40889 0.16153 0.73083
 H3583 H 0.44631 0.16204 0.71237
 H3584 H 0.46326 0.19912 0.69877
 H3585 H 0.45994 0.28731 0.69040
 H3586 H 0.44017 0.32406 0.69690
 H3587 H 0.40275 0.32358 0.71534
 H3588 H 0.38482 0.28637 0.72727
 C3589 C 0.38398 0.75800 0.80211
 C3590 C 0.39247 0.78020 0.80887
 C3591 C 0.41281 0.78145 0.82242
 C3592 C 0.42446 0.76047 0.82908
 C3593 C 0.41672 0.73842 0.82130
 C3594 C 0.39637 0.73718 0.80772
 C3595 C 0.38870 0.71494 0.80030
 C3596 C 0.40091 0.69449 0.80610
 C3597 C 0.42083 0.69570 0.81944
 C3598 C 0.42871 0.71737 0.82703
 C3599 C 0.42086 0.80379 0.82930
 C3600 C 0.40910 0.82432 0.82289
 C3601 C 0.38916 0.82310 0.80960
 C3602 C 0.38084 0.80133 0.80264
 C3603 C 0.44352 0.76151 0.84489
 C3604 C 0.45892 0.76265 0.85847
 C3605 C 0.36156 0.75645 0.79098
 C3606 C 0.34242 0.75539 0.78267
 H3607 H 0.37333 0.71315 0.78986
 H3608 H 0.39489 0.67765 0.80018
 H3609 H 0.43024 0.67977 0.82391
 H3610 H 0.44433 0.71746 0.83730
 H3611 H 0.43633 0.80564 0.83959
 H3612 H 0.41551 0.84127 0.82825
 H3613 H 0.38009 0.83909 0.80465
 H3614 H 0.36530 0.80128 0.79225
 C3615 C 0.88428 0.25481 0.30111
 C3616 C 0.89354 0.27707 0.30685
 C3617 C 0.91401 0.27831 0.32023
 C3618 C 0.92501 0.25726 0.32774
 C3619 C 0.91655 0.23508 0.32091
 C3620 C 0.89608 0.23385 0.30749
 C3621 C 0.88769 0.21149 0.30102
 C3622 C 0.89929 0.19091 0.30759
 C3623 C 0.91933 0.19211 0.32078
 C3624 C 0.92793 0.21390 0.32743
 C3625 C 0.92283 0.30074 0.32607
 C3626 C 0.91169 0.32136 0.31885
 C3627 C 0.89161 0.32014 0.30575
 C3628 C 0.88255 0.29829 0.29978
 C3629 C 0.94411 0.25846 0.34351
 C3630 C 0.95951 0.25990 0.35706
 C3631 C 0.86169 0.25345 0.29028
 C3632 C 0.84244 0.25260 0.28219
 H3633 H 0.87221 0.20970 0.29072
 H3634 H 0.89272 0.17397 0.30240
 H3635 H 0.92827 0.17607 0.32585
 H3636 H 0.94362 0.21398 0.33761
 H3637 H 0.93844 0.30258 0.33618
 H3638 H 0.91869 0.33836 0.32343
 H3639 H 0.88302 0.33619 0.30016
 H3640 H 0.86694 0.29823 0.28949
 C3641 C 0.11721 0.26325 0.31523
 C3642 C 0.10204 0.28206 0.30960
 C3643 C 0.08140 0.28457 0.32119
 C3644 C 0.07617 0.26824 0.33828
 C3645 C 0.09166 0.24977 0.34427
 C3646 C 0.11231 0.24729 0.33270
 C3647 C 0.12761 0.22874 0.33893
 C3648 C 0.12259 0.21306 0.35613
 C3649 C 0.10233 0.21544 0.36744
 C3650 C 0.08697 0.23354 0.36164
 C3651 C 0.06641 0.30347 0.31532
 C3652 C 0.07172 0.31947 0.29844
 C3653 C 0.09194 0.31701 0.28708
 C3654 C 0.10699 0.29854 0.29250
 C3655 C 0.05482 0.27014 0.34966
 C3656 C 0.03732 0.27088 0.35964
 C3657 C 0.13763 0.26001 0.30277
 C3658 C 0.15448 0.25726 0.29224
 H3659 H 0.14361 0.22619 0.33065
 H3660 H 0.13450 0.19900 0.36069
 H3661 H 0.09849 0.20321 0.38078
 H3662 H 0.07146 0.23466 0.37097
 H3663 H 0.05050 0.30611 0.32372
 H3664 H 0.06010 0.33386 0.29418
 H3665 H 0.09601 0.32949 0.27400
 H3666 H 0.12253 0.29739 0.28322
 C3667 C 0.61662 0.76068 0.81545
 C3668 C 0.60690 0.74106 0.82689
 C3669 C 0.58673 0.74398 0.83904
 C3670 C 0.57647 0.76648 0.83960
 C3671 C 0.58636 0.78616 0.82840
 C3672 C 0.60655 0.78325 0.81625
 C3673 C 0.61620 0.80314 0.80511
 C3674 C 0.60614 0.82529 0.80600
 C3675 C 0.58637 0.82814 0.81794
 C3676 C 0.57651 0.80885 0.82904
 C3677 C 0.57725 0.72413 0.85041
 C3678 C 0.58747 0.70205 0.84978
 C3679 C 0.60723 0.69920 0.83785
 C3680 C 0.61691 0.71841 0.82650
 C3681 C 0.55579 0.76918 0.85181
 C3682 C 0.53871 0.77036 0.86231
 C3683 C 0.63689 0.75757 0.80274
 C3684 C 0.65370 0.75496 0.79212
 H3685 H 0.63159 0.80181 0.79564
 H3686 H 0.61369 0.84030 0.79736
 H3687 H 0.57864 0.84538 0.81860
 H3688 H 0.56113 0.81191 0.83811
 H3689 H 0.56189 0.72543 0.85993
 H3690 H 0.58001 0.68709 0.85859
 H3691 H 0.61512 0.68201 0.83739
 H3692 H 0.63231 0.71531 0.81748
 C3693 C 0.62995 0.22558 0.68281
 C3694 C 0.62679 0.23287 0.66073
 C3695 C 0.60523 0.22847 0.64977
 C3696 C 0.58715 0.21683 0.66104
 C3697 C 0.59117 0.20740 0.68236
 C3698 C 0.61274 0.21182 0.69334
 C3699 C 0.61638 0.20266 0.71484
 C3700 C 0.59917 0.18930 0.72511
 C3701 C 0.57801 0.18499 0.71431
 C3702 C 0.57391 0.19400 0.69319
 C3703 C 0.60209 0.23640 0.62781
 C3704 C 0.61991 0.24820 0.61697
 C3705 C 0.64110 0.25242 0.62770
 C3706 C 0.64458 0.24495 0.64936
 C3707 C 0.56381 0.21797 0.65190
 C3708 C 0.54479 0.22146 0.64405
 C3709 C 0.65033 0.23334 0.69492
 C3710 C 0.66734 0.23996 0.70483
 H3711 H 0.63262 0.20545 0.72379
 H3712 H 0.60230 0.18221 0.74148
 H3713 H 0.56471 0.17459 0.72234
 H3714 H 0.55727 0.19016 0.68532
 H3715 H 0.58596 0.23333 0.61876
 H3716 H 0.61727 0.25405 0.60015
 H3717 H 0.65492 0.26150 0.61919
 H3718 H 0.66138 0.24857 0.65702
 C3719 C 0.12917 0.73010 0.18126
 C3720 C 0.12580 0.73912 0.15970
 C3721 C 0.10462 0.73443 0.14821
 C3722 C 0.08711 0.72076 0.15842
 C3723 C 0.09135 0.70997 0.17918
 C3724 C 0.11253 0.71468 0.19071
 C3725 C 0.11637 0.70408 0.21165
 C3726 C 0.09972 0.68910 0.22085
 C3727 C 0.07895 0.68448 0.20953
 C3728 C 0.07467 0.69484 0.18894
 C3729 C 0.10127 0.74401 0.12680
 C3730 C 0.11853 0.75771 0.11699
 C3731 C 0.13936 0.76222 0.12824
 C3732 C 0.14303 0.75314 0.14939
 C3733 C 0.06394 0.72075 0.14885
 C3734 C 0.04477 0.72304 0.14094
 C3735 C 0.14931 0.73745 0.19394
 C3736 C 0.16620 0.74358 0.20428
 H3737 H 0.13234 0.70705 0.22098
 H3738 H 0.10301 0.68095 0.23681
 H3739 H 0.06609 0.67280 0.21672
 H3740 H 0.05832 0.69071 0.18064
 H3741 H 0.08541 0.74083 0.11737
 H3742 H 0.11575 0.76481 0.10057
 H3743 H 0.15276 0.77277 0.12053
 H3744 H 0.15952 0.75709 0.15749
   
