data_POSCAR
  _audit_creation_date              2014-09-24
  _audit_creation_method            'ToBaCCo'
  _symmetry_space_group_name_H-M    'P1'
  _symmetry_Int_Tables_number       1
  _symmetry_cell_setting            triclinic
  loop_
  _symmetry_equiv_pos_as_xyz
 x,y,z
_cell_length_a 50.7400
_cell_length_b 50.7396
_cell_length_c 50.7483
_cell_angle_alpha 89.996200
_cell_angle_beta 90.063000
_cell_angle_gamma 89.989900
loop_
  _atom_site_label
  _atom_site_type_symbol
  _atom_site_fract_x
  _atom_site_fract_y
  _atom_site_fract_z
C1 C 0.24861 1.07437 -0.00009
 C2 C 0.25226 1.06097 0.02367
 C3 C 0.25364 1.03337 0.02390
 C4 C 0.24994 1.01866 0.00049
 C5 C 0.24550 1.03270 -0.02320
 C6 C 0.24559 1.06031 -0.02356
 C7 C 0.25073 0.98900 0.00074
 C8 C 0.25599 0.97456 -0.02256
 C9 C 0.25592 0.94696 -0.02241
 C10 C 0.25204 0.93334 0.00111
 C11 C 0.24754 0.94708 0.02445
 C12 C 0.24620 0.97465 0.02424
 H13 H 0.24816 1.09577 -0.00033
 H14 H 0.25778 1.02371 0.04244
 H15 H 0.24183 1.02249 -0.04153
 H16 H 0.26029 0.98437 -0.04095
 H17 H 0.25249 0.91195 0.00124
 H18 H 0.24144 0.98452 0.04250
 C19 C 0.74918 0.57027 0.50175
 C20 C 0.75260 0.55634 0.52520
 C21 C 0.75373 0.52876 0.52488
 C22 C 0.75002 0.51455 0.50113
 C23 C 0.74582 0.52918 0.47774
 C24 C 0.74615 0.55677 0.47801
 C25 C 0.75056 0.48487 0.50073
 C26 C 0.75525 0.47087 0.47704
 C27 C 0.75494 0.44328 0.47659
 C28 C 0.75142 0.42917 0.49988
 C29 C 0.74751 0.44245 0.52360
 C30 C 0.74637 0.47003 0.52400
 H31 H 0.74891 0.59165 0.50197
 H32 H 0.75767 0.51879 0.54327
 H33 H 0.74216 0.51953 0.45912
 H34 H 0.75930 0.48101 0.45877
 H35 H 0.75172 0.40778 0.49955
 H36 H 0.74205 0.47951 0.54256
 C37 C 0.75024 0.99914 1.07299
 C38 C 0.74648 0.97570 1.05907
 C39 C 0.74553 0.97602 1.03146
 C40 C 0.74978 0.99967 1.01727
 C41 C 0.75430 1.02302 1.03185
 C42 C 0.75379 1.02282 1.05945
 C43 C 0.74948 1.00000 0.98761
 C44 C 0.74477 1.02363 0.97352
 C45 C 0.74527 1.02400 0.94594
 C46 C 0.74903 1.00066 0.93194
 C47 C 0.75301 0.97700 0.94534
 C48 C 0.75393 0.97670 0.97291
 H49 H 0.75039 0.99895 1.09439
 H50 H 0.74131 0.95773 1.02138
 H51 H 0.75837 1.04149 1.02206
 H52 H 0.74056 1.04191 0.98361
 H53 H 0.74887 1.00091 0.91056
 H54 H 0.75829 0.95820 0.98252
 C55 C 0.24924 0.50214 0.57174
 C56 C 0.24562 0.47858 0.55807
 C57 C 0.24477 0.47860 0.53049
 C58 C 0.24902 0.50209 0.51603
 C59 C 0.25331 0.52563 0.53040
 C60 C 0.25270 0.52569 0.55799
 C61 C 0.24900 0.50199 0.48634
 C62 C 0.24483 0.52545 0.47179
 C63 C 0.24542 0.52528 0.44419
 C64 C 0.24877 0.50162 0.43064
 C65 C 0.25228 0.47815 0.44449
 C66 C 0.25313 0.47836 0.47206
 H67 H 0.24935 0.50215 0.59312
 H68 H 0.24065 0.46014 0.52072
 H69 H 0.25729 0.54407 0.52053
 H70 H 0.24095 0.54399 0.48150
 H71 H 0.24865 0.50146 0.40926
 H72 H 0.25716 0.45995 0.48196
 C73 C 1.07269 0.24851 -0.00117
 C74 C 1.05904 0.25254 0.02237
 C75 C 1.03143 0.25342 0.02229
 C76 C 1.01698 0.24881 -0.00115
 C77 C 1.03130 0.24411 -0.02459
 C78 C 1.05889 0.24466 -0.02465
 C79 C 0.98733 0.24887 -0.00111
 C80 C 0.97282 0.25338 -0.02456
 C81 C 0.94518 0.25280 -0.02444
 C82 C 0.93164 0.24908 -0.00082
 C83 C 0.94550 0.24522 0.02259
 C84 C 0.97306 0.24440 0.02242
 H85 H 1.09409 0.24837 -0.00126
 H86 H 1.02153 0.25786 0.04062
 H87 H 1.02136 0.23986 -0.04294
 H88 H 0.98267 0.25754 -0.04298
 H89 H 0.91024 0.24920 -0.00060
 H90 H 0.98301 0.24013 0.04077
 C91 C 0.57128 0.74841 0.50019
 C92 C 0.55738 0.75222 0.52357
 C93 C 0.52981 0.75313 0.52325
 C94 C 0.51557 0.74879 0.49964
 C95 C 0.53015 0.74431 0.47628
 C96 C 0.55775 0.74483 0.47652
 C97 C 0.48589 0.74899 0.49942
 C98 C 0.47163 0.75328 0.47580
 C99 C 0.44403 0.75289 0.47564
 C100 C 0.43019 0.74961 0.49912
 C101 C 0.44375 0.74599 0.52275
 C102 C 0.47132 0.74494 0.52287
 H103 H 0.59266 0.74827 0.50041
 H104 H 0.51986 0.75740 0.54157
 H105 H 0.52044 0.74026 0.45777
 H106 H 0.48159 0.75713 0.45739
 H107 H 0.40880 0.74989 0.49902
 H108 H 0.48101 0.74085 0.54139
 C109 C 0.00095 0.75145 -0.07146
 C110 C 0.02425 0.74783 -0.05731
 C111 C 0.02370 0.74696 -0.02973
 C112 C -0.00008 0.75118 -0.01576
 C113 C -0.02334 0.75550 -0.03057
 C114 C -0.02288 0.75492 -0.05818
 C115 C -0.00060 0.75111 0.01390
 C116 C -0.02427 0.74641 0.02793
 C117 C -0.02469 0.74701 0.05555
 C118 C -0.00135 0.75090 0.06959
 C119 C 0.02230 0.75491 0.05622
 C120 C 0.02262 0.75574 0.02866
 H121 H 0.00140 0.75154 -0.09285
 H122 H 0.04195 0.74285 -0.01955
 H123 H -0.04192 0.75949 -0.02097
 H124 H -0.04247 0.74209 0.01771
 H125 H -0.00153 0.75079 0.09098
 H126 H 0.04112 0.76014 0.01911
 C127 C 0.50051 0.25125 0.42793
 C128 C 0.52425 0.24766 0.44135
 C129 C 0.52454 0.24652 0.46892
 C130 C 0.50115 0.25037 0.48363
 C131 C 0.47745 0.25475 0.46951
 C132 C 0.47710 0.25444 0.44193
 C133 C 0.50142 0.24975 0.51331
 C134 C 0.47802 0.24512 0.52778
 C135 C 0.47816 0.24534 0.55536
 C136 C 0.50177 0.24870 0.56900
 C137 C 0.52524 0.25254 0.55526
 C138 C 0.52504 0.25377 0.52768
 H139 H 0.50026 0.25153 0.40655
 H140 H 0.54312 0.24244 0.47850
 H141 H 0.45908 0.25853 0.47956
 H142 H 0.45951 0.24119 0.51800
 H143 H 0.50189 0.24834 0.59038
 H144 H 0.54342 0.25802 0.51783
 C145 C 1.06910 0.00101 0.25001
 C146 C 1.05488 0.02425 0.25377
 C147 C 1.02726 0.02357 0.25437
 C148 C 1.01340 -0.00025 0.24974
 C149 C 1.02835 -0.02337 0.24530
 C150 C 1.05591 -0.02277 0.24614
 C151 C 0.98373 -0.00097 0.24943
 C152 C 0.96975 -0.02482 0.25346
 C153 C 0.94212 -0.02539 0.25242
 C154 C 0.92803 -0.00204 0.24877
 C155 C 0.94137 0.02175 0.24542
 C156 C 0.96893 0.02223 0.24500
 H157 H 1.09050 0.00139 0.25010
 H158 H 1.01693 0.04171 0.25861
 H159 H 1.01894 -0.04198 0.24100
 H160 H 0.97998 -0.04304 0.25759
 H161 H 0.90663 -0.00231 0.24857
 H162 H 0.97844 0.04086 0.24107
 C163 C 0.56937 0.49936 0.75178
 C164 C 0.55549 0.52273 0.75577
 C165 C 0.52790 0.52255 0.75608
 C166 C 0.51370 0.49907 0.75098
 C167 C 0.52827 0.47573 0.74635
 C168 C 0.55585 0.47584 0.74742
 C169 C 0.48405 0.49897 0.75049
 C170 C 0.46965 0.47542 0.75449
 C171 C 0.44206 0.47535 0.75345
 C172 C 0.42836 0.49890 0.74976
 C173 C 0.44208 0.52248 0.74641
 C174 C 0.46967 0.52247 0.74606
 H175 H 0.59076 0.49948 0.75206
 H176 H 0.51789 0.54083 0.76044
 H177 H 0.51855 0.45735 0.74173
 H178 H 0.47951 0.45699 0.75860
 H179 H 0.40697 0.49889 0.74952
 H180 H 0.47956 0.54093 0.74220
 C181 C 0.99819 1.06916 0.74829
 C182 C 0.97480 1.05523 0.75221
 C183 C 0.97524 1.02761 0.75344
 C184 C 0.99898 1.01345 0.74929
 C185 C 1.02221 1.02812 0.74457
 C186 C 1.02186 1.05568 0.74482
 C187 C 0.99956 0.98377 0.74981
 C188 C 1.02341 0.96981 0.75399
 C189 C 1.02397 0.94219 0.75351
 C190 C 1.00059 0.92804 0.75039
 C191 C 0.97677 0.94134 0.74700
 C192 C 0.97628 0.96890 0.74599
 H193 H 0.99802 1.09056 0.74795
 H194 H 0.95699 1.01754 0.75780
 H195 H 1.04077 1.01851 0.74053
 H196 H 1.04170 0.98006 0.75776
 H197 H 1.00088 0.90665 0.75057
 H198 H 0.95761 0.97834 0.74203
 C199 C 0.49916 0.56947 0.24864
 C200 C 0.47557 0.55584 0.24500
 C201 C 0.47548 0.52824 0.24445
 C202 C 0.49893 0.51378 0.24890
 C203 C 0.52249 0.52810 0.25328
 C204 C 0.52263 0.55568 0.25244
 C205 C 0.49888 0.48412 0.24897
 C206 C 0.52231 0.46970 0.24436
 C207 C 0.52237 0.44212 0.24518
 C208 C 0.49889 0.42843 0.24920
 C209 C 0.47539 0.44215 0.25307
 C210 C 0.47542 0.46976 0.25364
 H211 H 0.49925 0.59085 0.24852
 H212 H 0.45702 0.51842 0.24038
 H213 H 0.54086 0.51819 0.25749
 H214 H 0.54067 0.47955 0.23997
 H215 H 0.49890 0.40704 0.24930
 H216 H 0.45706 0.47966 0.25789
 O217 O 0.24756 0.18251 0.21511
 O218 O 0.27577 0.17438 0.25179
 O219 O 0.17832 0.21449 0.25339
 O220 O 0.16887 0.24873 0.27911
 O221 O 0.21087 0.25199 0.18379
 O222 O 0.24765 0.28045 0.17671
 O223 O 0.24797 0.28646 0.32087
 O224 O 0.21668 0.25153 0.32715
 O225 O 0.31498 0.25111 0.28889
 O226 O 0.32320 0.22117 0.25170
 O227 O 0.28374 0.31850 0.25394
 O228 O 0.24611 0.32688 0.22373
 O229 O 0.24852 0.31826 0.28924
 O230 O 0.21818 0.32679 0.25183
 O231 O 0.31522 0.28654 0.25378
 O232 O 0.32289 0.24875 0.22314
 O233 O 0.28339 0.25186 0.32069
 O234 O 0.25140 0.22127 0.32842
 O235 O 0.24790 0.21458 0.18370
 O236 O 0.27673 0.25125 0.17668
 O237 O 0.17891 0.25155 0.21527
 O238 O 0.17298 0.28184 0.25266
 O239 O 0.20983 0.18258 0.25188
 O240 O 0.24800 0.17398 0.28063
 Zr241 Zr 0.24580 0.20332 0.25104
 O242 O 0.27044 0.22565 0.27590
 Zr243 Zr 0.19980 0.24990 0.25123
 O244 O 0.22250 0.27417 0.27627
 Zr245 Zr 0.24634 0.25002 0.20513
 O246 O 0.27098 0.27438 0.22794
 Zr247 Zr 0.24780 0.25101 0.29942
 O248 O 0.22264 0.22625 0.27689
 Zr249 Zr 0.29401 0.25094 0.25315
 O250 O 0.27155 0.22633 0.22805
 Zr251 Zr 0.24791 0.29755 0.25335
 O252 O 0.22304 0.27539 0.22817
 O253 O 0.22153 0.22548 0.22657
 O254 O 0.27251 0.27566 0.27787
 C255 C 0.24853 0.19040 0.19108
 C256 C 0.18580 0.19032 0.25337
 C257 C 0.18671 0.25261 0.19122
 C258 C 0.24855 0.31058 0.31332
 C259 C 0.30748 0.25178 0.31300
 C260 C 0.30779 0.31070 0.25416
 H261 H 0.28105 0.21364 0.28700
 H262 H 0.28194 0.28529 0.21611
 H263 H 0.21024 0.21433 0.21520
 H264 H 0.21072 0.28491 0.28745
 H265 H 0.20471 0.23684 0.32249
 H266 H 0.17548 0.25722 0.29535
 H267 H 0.31995 0.26365 0.21091
 H268 H 0.29065 0.23908 0.18290
 H269 H 0.23992 0.20661 0.32280
 H270 H 0.23264 0.17636 0.29238
 H271 H 0.26051 0.32344 0.21106
 H272 H 0.23582 0.29457 0.18312
 H273 H 0.29009 0.18094 0.24029
 H274 H 0.31901 0.20802 0.26546
 H275 H 0.17844 0.29449 0.23885
 H276 H 0.20551 0.32317 0.26618
 O277 O 0.74953 0.81583 0.21230
 O278 O 0.72155 0.82381 0.24898
 O279 O 0.81907 0.78400 0.25009
 O280 O 0.82881 0.74965 0.27557
 O281 O 0.78636 0.74675 0.18027
 O282 O 0.74956 0.71819 0.17327
 O283 O 0.75005 0.71156 0.31732
 O284 O 0.78127 0.74646 0.32376
 O285 O 0.68265 0.74675 0.28595
 O286 O 0.67427 0.77688 0.24877
 O287 O 0.71405 0.67960 0.25053
 O288 O 0.75145 0.67146 0.22016
 O289 O 0.74940 0.67970 0.28575
 O290 O 0.77971 0.67164 0.24808
 O291 O 0.68245 0.71143 0.25068
 O292 O 0.67438 0.74923 0.22023
 O293 O 0.71462 0.74606 0.31744
 O294 O 0.74654 0.77659 0.32531
 O295 O 0.74918 0.78414 0.18051
 O296 O 0.72032 0.74738 0.17354
 O297 O 0.81829 0.74709 0.21185
 O298 O 0.82464 0.71669 0.24902
 O299 O 0.78743 0.81580 0.24888
 O300 O 0.74931 0.82407 0.27780
 Zr301 Zr 0.75155 0.79491 0.24804
 O302 O 0.72711 0.77240 0.27285
 Zr303 Zr 0.79768 0.74853 0.24784
 O304 O 0.77524 0.72404 0.27282
 Zr305 Zr 0.75094 0.74853 0.20179
 O306 O 0.72652 0.72393 0.22465
 Zr307 Zr 0.75003 0.74706 0.29610
 O308 O 0.77497 0.77200 0.27368
 Zr309 Zr 0.70349 0.74712 0.25008
 O310 O 0.72575 0.77193 0.22501
 Zr311 Zr 0.74978 0.70067 0.24991
 O312 O 0.77440 0.72308 0.22471
 O313 O 0.77576 0.77300 0.22336
 O314 O 0.72526 0.72239 0.27460
 C315 C 0.74850 0.80824 0.18820
 C316 C 0.81150 0.80814 0.25024
 C317 C 0.81051 0.74613 0.18779
 C318 C 0.74947 0.68743 0.30983
 C319 C 0.69046 0.74609 0.31000
 C320 C 0.68997 0.68731 0.25093
 H321 H 0.71653 0.78433 0.28405
 H322 H 0.71553 0.71303 0.21283
 H323 H 0.78696 0.78424 0.21203
 H324 H 0.78713 0.71330 0.28393
 H325 H 0.79320 0.76119 0.31914
 H326 H 0.82233 0.74109 0.29182
 H327 H 0.67742 0.73449 0.20784
 H328 H 0.70643 0.75951 0.17990
 H329 H 0.75793 0.79134 0.31973
 H330 H 0.76480 0.82179 0.28944
 H331 H 0.73705 0.67500 0.20749
 H332 H 0.76147 0.70409 0.17961
 H333 H 0.70712 0.81722 0.23761
 H334 H 0.67839 0.78988 0.26270
 H335 H 0.81912 0.70406 0.23521
 H336 H 0.79229 0.67509 0.26258
 O337 O 0.74819 0.18218 0.78929
 O338 O 0.72064 0.17373 0.75214
 O339 O 0.81821 0.21278 0.75226
 O340 O 0.82835 0.24609 0.72538
 O341 O 0.78557 0.25171 0.82026
 O342 O 0.74890 0.28051 0.82663
 O343 O 0.74974 0.28429 0.68229
 O344 O 0.78076 0.24970 0.67634
 O345 O 0.68245 0.25039 0.71399
 O346 O 0.67362 0.22102 0.75214
 O347 O 0.71411 0.31781 0.74831
 O348 O 0.75151 0.32644 0.77851
 O349 O 0.74947 0.31674 0.71325
 O350 O 0.77979 0.32539 0.75080
 O351 O 0.68214 0.28638 0.74858
 O352 O 0.67362 0.24947 0.77959
 O353 O 0.71443 0.24962 0.68258
 O354 O 0.75055 0.21843 0.67588
 O355 O 0.74807 0.21449 0.82047
 O356 O 0.71946 0.25167 0.82661
 O357 O 0.81776 0.25066 0.78903
 O358 O 0.82437 0.28025 0.75158
 O359 O 0.78639 0.18111 0.75317
 O360 O 0.75024 0.17336 0.72344
 Zr361 Zr 0.75078 0.20248 0.75324
 O362 O 0.72641 0.22458 0.72791
 Zr363 Zr 0.79724 0.24855 0.75300
 O364 O 0.77508 0.27253 0.72722
 Zr365 Zr 0.75021 0.24973 0.79860
 O366 O 0.72613 0.27407 0.77510
 Zr367 Zr 0.74981 0.24917 0.70422
 O368 O 0.77449 0.22483 0.72752
 Zr369 Zr 0.70301 0.25056 0.75002
 O370 O 0.72499 0.22605 0.77566
 Zr371 Zr 0.74967 0.29654 0.74947
 O372 O 0.77396 0.27457 0.77540
 O373 O 0.77497 0.22471 0.77772
 O374 O 0.72510 0.27450 0.72505
 C375 C 0.74715 0.19025 0.81324
 C376 C 0.81054 0.18866 0.75249
 C377 C 0.80979 0.25209 0.81298
 C378 C 0.74939 0.30856 0.68933
 C379 C 0.69027 0.25020 0.68996
 C380 C 0.68995 0.31040 0.74795
 H381 H 0.71548 0.21246 0.71730
 H382 H 0.71520 0.28532 0.78662
 H383 H 0.78597 0.21362 0.78943
 H384 H 0.78705 0.28298 0.71596
 H385 H 0.79404 0.23672 0.68240
 H386 H 0.82293 0.25615 0.70958
 H387 H 0.67699 0.26419 0.79193
 H388 H 0.70554 0.23948 0.82042
 H389 H 0.73648 0.20568 0.68023
 H390 H 0.76276 0.17926 0.70970
 H391 H 0.73718 0.32321 0.79130
 H392 H 0.76081 0.29450 0.82007
 H393 H 0.70610 0.18058 0.76317
 H394 H 0.67711 0.20804 0.73802
 H395 H 0.81870 0.29324 0.76498
 H396 H 0.79235 0.32160 0.73641
 O397 O 0.25454 0.82033 0.78875
 O398 O 0.28201 0.82831 0.75158
 O399 O 0.18428 0.78917 0.75210
 O400 O 0.17429 0.75565 0.72536
 O401 O 0.21723 0.75097 0.82047
 O402 O 0.25403 0.72224 0.82696
 O403 O 0.25204 0.71679 0.68274
 O404 O 0.22108 0.75226 0.67699
 O405 O 0.32007 0.75118 0.71393
 O406 O 0.32898 0.78106 0.75121
 O407 O 0.28844 0.68421 0.74911
 O408 O 0.25127 0.67597 0.77967
 O409 O 0.25282 0.68486 0.71425
 O410 O 0.22287 0.67656 0.75205
 O411 O 0.32045 0.71563 0.74896
 O412 O 0.32887 0.75324 0.77965
 O413 O 0.28783 0.75097 0.68272
 O414 O 0.25620 0.78183 0.67528
 O415 O 0.25471 0.78823 0.82014
 O416 O 0.28333 0.75124 0.82673
 O417 O 0.18509 0.75160 0.78910
 O418 O 0.17809 0.72206 0.75157
 O419 O 0.21597 0.82092 0.75330
 O420 O 0.25334 0.82894 0.72317
 Zr421 Zr 0.25177 0.79969 0.75287
 O422 O 0.27586 0.77716 0.72765
 Zr423 Zr 0.20543 0.75356 0.75302
 O424 O 0.22743 0.72914 0.72765
 Zr425 Zr 0.25253 0.75280 0.79868
 O426 O 0.27660 0.72827 0.77543
 Zr427 Zr 0.25260 0.75216 0.70434
 O428 O 0.22802 0.77713 0.72720
 Zr429 Zr 0.29956 0.75150 0.74998
 O430 O 0.27765 0.77627 0.77544
 Zr431 Zr 0.25290 0.70546 0.75021
 O432 O 0.22866 0.72776 0.77578
 O433 O 0.22772 0.77761 0.77757
 O434 O 0.27737 0.72715 0.72545
 C435 C 0.25562 0.81241 0.81275
 C436 C 0.19185 0.81329 0.75250
 C437 C 0.19301 0.75041 0.81310
 C438 C 0.25253 0.69263 0.69019
 C439 C 0.31205 0.75071 0.68996
 C440 C 0.31260 0.69159 0.74859
 H441 H 0.28643 0.78910 0.71645
 H442 H 0.28760 0.71718 0.78707
 H443 H 0.21674 0.78872 0.78925
 H444 H 0.21536 0.71857 0.71658
 H445 H 0.20949 0.76722 0.68175
 H446 H 0.18043 0.74682 0.70912
 H447 H 0.32590 0.73836 0.79189
 H448 H 0.29728 0.76327 0.82032
 H449 H 0.24555 0.79691 0.68138
 H450 H 0.23745 0.82688 0.71204
 H451 H 0.26580 0.67926 0.79225
 H452 H 0.24199 0.70825 0.82064
 H453 H 0.29652 0.82155 0.76275
 H454 H 0.32488 0.79412 0.73732
 H455 H 0.18370 0.70907 0.76501
 H456 H 0.21018 0.68018 0.73769
 O457 O 0.24917 0.31617 0.71116
 O458 O 0.22062 0.32358 0.74746
 O459 O 0.31814 0.28380 0.74962
 O460 O 0.32736 0.24920 0.77498
 O461 O 0.28681 0.24752 0.67884
 O462 O 0.25014 0.21917 0.67064
 O463 O 0.24809 0.21041 0.81461
 O464 O 0.27906 0.24528 0.82208
 O465 O 0.18114 0.24573 0.78255
 O466 O 0.17332 0.27655 0.74586
 O467 O 0.21324 0.17936 0.74600
 O468 O 0.25150 0.17165 0.71696
 O469 O 0.24772 0.17897 0.78263
 O470 O 0.27889 0.17140 0.74556
 O471 O 0.18163 0.21118 0.74603
 O472 O 0.17407 0.24970 0.71671
 O473 O 0.21258 0.24487 0.81456
 O474 O 0.24423 0.27521 0.82348
 O475 O 0.24958 0.28497 0.67891
 O476 O 0.22092 0.24827 0.67080
 O477 O 0.31812 0.24731 0.71102
 O478 O 0.32384 0.21656 0.74786
 O479 O 0.28648 0.31559 0.74830
 O480 O 0.24790 0.32339 0.77676
 Zr481 Zr 0.25065 0.29471 0.74659
 O482 O 0.22579 0.27181 0.77060
 Zr483 Zr 0.29683 0.24836 0.74659
 O484 O 0.27396 0.22348 0.77076
 Zr485 Zr 0.25099 0.24903 0.69967
 O486 O 0.22619 0.22410 0.72170
 Zr487 Zr 0.24832 0.24616 0.79387
 O488 O 0.27363 0.27146 0.77231
 Zr489 Zr 0.20262 0.24686 0.74704
 O490 O 0.22531 0.27206 0.72275
 Zr491 Zr 0.24895 0.20043 0.74705
 O492 O 0.27401 0.22325 0.72266
 O493 O 0.27536 0.27319 0.72205
 O494 O 0.22392 0.22174 0.77161
 C495 C 0.24861 0.30894 0.68694
 C496 C 0.31053 0.30793 0.74993
 C497 C 0.31080 0.24667 0.68681
 C498 C 0.24754 0.18639 0.80681
 C499 C 0.18856 0.24487 0.80672
 C500 C 0.18917 0.18706 0.74567
 H501 H 0.21500 0.28357 0.78179
 H502 H 0.21549 0.21342 0.70942
 H503 H 0.28676 0.28458 0.71106
 H504 H 0.28565 0.21259 0.78194
 H505 H 0.29101 0.26013 0.81790
 H506 H 0.32065 0.24024 0.79091
 H507 H 0.17761 0.23550 0.70385
 H508 H 0.20699 0.26046 0.67694
 H509 H 0.25554 0.29014 0.81825
 H510 H 0.26324 0.32100 0.78858
 H511 H 0.23770 0.17560 0.70377
 H512 H 0.26206 0.20503 0.67687
 H513 H 0.20633 0.31707 0.73586
 H514 H 0.17720 0.28932 0.76006
 H515 H 0.31846 0.20399 0.73393
 H516 H 0.29114 0.17464 0.76039
 O517 O 0.74853 0.68079 0.71662
 O518 O 0.77734 0.67351 0.75293
 O519 O 0.67997 0.71374 0.75536
 O520 O 0.67117 0.74841 0.78079
 O521 O 0.71101 0.74964 0.68449
 O522 O 0.74769 0.77775 0.67585
 O523 O 0.75091 0.78715 0.81986
 O524 O 0.71987 0.75234 0.82757
 O525 O 0.81734 0.75128 0.78732
 O526 O 0.82486 0.72034 0.75086
 O527 O 0.78536 0.81764 0.75086
 O528 O 0.74685 0.82536 0.72190
 O529 O 0.75109 0.81826 0.78754
 O530 O 0.71984 0.82601 0.75073
 O531 O 0.81682 0.78566 0.75077
 O532 O 0.82384 0.74690 0.72148
 O533 O 0.78639 0.75253 0.81972
 O534 O 0.75465 0.72226 0.82887
 O535 O 0.74803 0.71210 0.68447
 O536 O 0.77668 0.74860 0.67592
 O537 O 0.67974 0.75010 0.71666
 O538 O 0.67459 0.78101 0.75348
 O539 O 0.71145 0.68178 0.75397
 O540 O 0.75011 0.67387 0.78232
 Zr541 Zr 0.74739 0.70246 0.75205
 O542 O 0.77255 0.72536 0.77584
 Zr543 Zr 0.70141 0.74906 0.75215
 O544 O 0.72464 0.77391 0.77610
 Zr545 Zr 0.74694 0.74805 0.70506
 O546 O 0.77203 0.77292 0.72676
 Zr547 Zr 0.75041 0.75126 0.79922
 O548 O 0.72478 0.72599 0.77784
 Zr549 Zr 0.79563 0.75010 0.75202
 O550 O 0.77265 0.72491 0.72799
 Zr551 Zr 0.74955 0.79673 0.75213
 O552 O 0.72416 0.77399 0.72800
 O553 O 0.72260 0.72406 0.72759
 O554 O 0.77470 0.77543 0.77663
 C555 C 0.74895 0.68811 0.69240
 C556 C 0.68746 0.68958 0.75569
 C557 C 0.68704 0.75062 0.69243
 C558 C 0.75143 0.81109 0.81179
 C559 C 0.81031 0.75235 0.81156
 C560 C 0.80940 0.80981 0.75041
 H561 H 0.78339 0.71360 0.78701
 H562 H 0.78268 0.78350 0.71437
 H563 H 0.71108 0.71269 0.71668
 H564 H 0.71310 0.78491 0.78729
 H565 H 0.70786 0.73750 0.82352
 H566 H 0.67807 0.75745 0.79662
 H567 H 0.82044 0.76122 0.70870
 H568 H 0.79066 0.73640 0.68201
 H569 H 0.74325 0.70735 0.82373
 H570 H 0.73490 0.67647 0.79422
 H571 H 0.76068 0.82144 0.70875
 H572 H 0.73591 0.79199 0.68209
 H573 H 0.79151 0.67984 0.74113
 H574 H 0.82093 0.70754 0.76501
 H575 H 0.67988 0.79348 0.73945
 H576 H 0.70753 0.82273 0.76547
 O577 O 0.24902 0.68260 0.28516
 O578 O 0.22061 0.67511 0.24843
 O579 O 0.31809 0.71435 0.24700
 O580 O 0.32809 0.74870 0.22184
 O581 O 0.28656 0.75138 0.31724
 O582 O 0.25005 0.77991 0.32499
 O583 O 0.24848 0.78750 0.18081
 O584 O 0.27933 0.75307 0.17337
 O585 O 0.18172 0.75250 0.21281
 O586 O 0.17353 0.72238 0.25033
 O587 O 0.21397 0.81921 0.24803
 O588 O 0.25171 0.82715 0.27801
 O589 O 0.24886 0.81913 0.21261
 O590 O 0.27969 0.82677 0.24996
 O591 O 0.18202 0.78775 0.24804
 O592 O 0.17411 0.75011 0.27854
 O593 O 0.21313 0.75283 0.18083
 O594 O 0.24920 0.72178 0.17270
 O595 O 0.24917 0.71414 0.31710
 O596 O 0.22061 0.75110 0.32465
 O597 O 0.31828 0.75101 0.28552
 O598 O 0.32413 0.78187 0.24873
 O599 O 0.28635 0.68260 0.24775
 O600 O 0.24943 0.67545 0.21911
 Zr601 Zr 0.25074 0.70385 0.24957
 O602 O 0.22594 0.72657 0.22524
 Zr603 Zr 0.29717 0.75002 0.24974
 O604 O 0.27457 0.77459 0.22495
 Zr605 Zr 0.25091 0.74990 0.29612
 O606 O 0.22643 0.77483 0.27368
 Zr607 Zr 0.24890 0.75181 0.20180
 O608 O 0.27398 0.72694 0.22405
 Zr609 Zr 0.20291 0.75194 0.24843
 O610 O 0.22533 0.72678 0.27303
 Zr611 Zr 0.24954 0.79797 0.24827
 O612 O 0.27425 0.77538 0.27321
 O613 O 0.27538 0.72544 0.27419
 O614 O 0.22456 0.77655 0.22372
 C615 C 0.24826 0.69009 0.30931
 C616 C 0.31043 0.69024 0.24646
 C617 C 0.31066 0.75191 0.30962
 C618 C 0.24835 0.81158 0.18849
 C619 C 0.18911 0.75302 0.18866
 C620 C 0.18982 0.81178 0.24778
 H621 H 0.21484 0.71471 0.21451
 H622 H 0.21568 0.78578 0.28567
 H623 H 0.28664 0.71401 0.28531
 H624 H 0.28635 0.78533 0.21377
 H625 H 0.29277 0.74003 0.17891
 H626 H 0.32214 0.75857 0.20612
 H627 H 0.17751 0.76472 0.29098
 H628 H 0.20660 0.73906 0.31838
 H629 H 0.23494 0.70914 0.17671
 H630 H 0.26137 0.68182 0.20508
 H631 H 0.23753 0.82361 0.29088
 H632 H 0.26170 0.79415 0.31853
 H633 H 0.20634 0.68161 0.26003
 H634 H 0.17698 0.70956 0.23606
 H635 H 0.31885 0.79429 0.26282
 H636 H 0.29204 0.82337 0.23528
 O637 O 0.75264 0.32002 0.28464
 O638 O 0.78118 0.32734 0.24813
 O639 O 0.68352 0.28805 0.24621
 O640 O 0.67380 0.25366 0.22088
 O641 O 0.71496 0.25120 0.31669
 O642 O 0.75158 0.22263 0.32449
 O643 O 0.75277 0.21454 0.18043
 O644 O 0.72191 0.24983 0.17334
 O645 O 0.82007 0.24976 0.21251
 O646 O 0.82814 0.28012 0.24946
 O647 O 0.78766 0.18325 0.24796
 O648 O 0.74995 0.17549 0.27802
 O649 O 0.75272 0.18320 0.21253
 O650 O 0.72203 0.17561 0.24989
 O651 O 0.81965 0.21468 0.24792
 O652 O 0.82737 0.25275 0.27836
 O653 O 0.78853 0.24881 0.18060
 O654 O 0.75700 0.27946 0.17187
 O655 O 0.75237 0.28842 0.31652
 O656 O 0.78085 0.25163 0.32437
 O657 O 0.68347 0.25144 0.28467
 O658 O 0.67740 0.22090 0.24761
 O659 O 0.71512 0.31987 0.24764
 O660 O 0.75356 0.32755 0.21898
 Zr661 Zr 0.75091 0.29873 0.24902
 O662 O 0.77554 0.27576 0.22474
 Zr663 Zr 0.70459 0.25253 0.24898
 O664 O 0.72714 0.22770 0.22453
 Zr665 Zr 0.75067 0.25267 0.29564
 O666 O 0.77525 0.22773 0.27338
 Zr667 Zr 0.75281 0.25031 0.20137
 O668 O 0.72776 0.27565 0.22325
 Zr669 Zr 0.79875 0.25054 0.24805
 O670 O 0.77629 0.27574 0.27257
 Zr671 Zr 0.75211 0.20447 0.24808
 O672 O 0.72731 0.22719 0.27272
 O673 O 0.72628 0.27711 0.27356
 O674 O 0.77712 0.22572 0.22349
 C675 C 0.75332 0.31247 0.30878
 C676 C 0.69107 0.31217 0.24604
 C677 C 0.69091 0.25058 0.30884
 C678 C 0.75300 0.19052 0.18834
 C679 C 0.81258 0.24882 0.18838
 C680 C 0.81181 0.19065 0.24772
 H681 H 0.78634 0.28752 0.21357
 H682 H 0.78601 0.21686 0.28544
 H683 H 0.71498 0.28848 0.28467
 H684 H 0.71532 0.21692 0.21340
 H685 H 0.71015 0.26480 0.17761
 H686 H 0.68049 0.24512 0.20471
 H687 H 0.82426 0.23794 0.29065
 H688 H 0.79497 0.26350 0.31803
 H689 H 0.74597 0.29452 0.17732
 H690 H 0.73819 0.32520 0.20720
 H691 H 0.76428 0.17899 0.29079
 H692 H 0.73974 0.20848 0.31813
 H693 H 0.79534 0.32081 0.25987
 H694 H 0.82421 0.29308 0.23544
 H695 H 0.68258 0.20835 0.26163
 H696 H 0.70962 0.17898 0.23523
 C697 C 0.23389 0.13863 0.10684
 C698 C 0.25791 0.13496 0.08847
 C699 C 0.25392 0.10497 0.08978
 C700 C 0.22988 0.10841 0.10786
 C701 C 0.25234 0.13666 0.13079
 C702 C 0.24834 0.10668 0.13217
 C703 C 0.27638 0.13323 0.11271
 C704 C 0.27241 0.10294 0.11369
 C705 C 0.25421 0.08807 0.06637
 C706 C 0.25371 0.07496 0.04656
 C707 C 0.25116 0.15503 0.15304
 C708 C 0.25000 0.17082 0.17074
 H709 H 0.21803 0.15349 0.10425
 H710 H 0.26187 0.14642 0.07026
 H711 H 0.21077 0.09801 0.10561
 H712 H 0.24437 0.09526 0.15039
 H713 H 0.29549 0.14364 0.11496
 H714 H 0.28825 0.08807 0.11624
 C715 C 0.73336 0.63403 0.60979
 C716 C 0.75702 0.63092 0.59086
 C717 C 0.75417 0.60083 0.59274
 C718 C 0.73049 0.60370 0.61138
 C719 C 0.75248 0.63312 0.63327
 C720 C 0.74962 0.60303 0.63522
 C721 C 0.77616 0.63026 0.61463
 C722 C 0.77333 0.59987 0.61618
 C723 C 0.75455 0.58376 0.56946
 C724 C 0.75412 0.57071 0.54962
 C725 C 0.75130 0.65189 0.65517
 C726 C 0.75022 0.66807 0.67252
 H727 H 0.71691 0.64825 0.60738
 H728 H 0.76009 0.64223 0.57239
 H729 H 0.71172 0.59257 0.60979
 H730 H 0.74654 0.59179 0.65373
 H731 H 0.79492 0.64139 0.61620
 H732 H 0.78977 0.58562 0.61854
 C733 C 0.72165 0.88756 0.13186
 C734 C 0.74146 0.91075 0.13247
 C735 C 0.74371 0.90917 0.10232
 C736 C 0.72388 0.88630 0.10141
 C737 C 0.74484 0.86819 0.13408
 C738 C 0.74710 0.86654 0.10393
 C739 C 0.76463 0.89109 0.13492
 C740 C 0.76689 0.88981 0.10454
 C741 C 0.74374 0.93265 0.08551
 C742 C 0.74458 0.95259 0.07263
 C743 C 0.74587 0.84601 0.15254
 C744 C 0.74698 0.82842 0.16846
 H745 H 0.70306 0.88639 0.14331
 H746 H 0.73912 0.92917 0.14404
 H747 H 0.70712 0.88461 0.08744
 H748 H 0.74944 0.84809 0.09241
 H749 H 0.78140 0.89285 0.14888
 H750 H 0.78549 0.89098 0.09310
 C751 C 0.22160 0.38884 0.63171
 C752 C 0.24127 0.41215 0.63243
 C753 C 0.24337 0.41085 0.60226
 C754 C 0.22368 0.38788 0.60124
 C755 C 0.24491 0.36959 0.63362
 C756 C 0.24701 0.36822 0.60345
 C757 C 0.26457 0.39259 0.63459
 C758 C 0.26668 0.39160 0.60418
 C759 C 0.24316 0.43439 0.58555
 C760 C 0.24378 0.45428 0.57259
 C761 C 0.24607 0.34720 0.65182
 C762 C 0.24721 0.32940 0.66749
 H763 H 0.20307 0.38746 0.64324
 H764 H 0.23889 0.43045 0.64418
 H765 H 0.20686 0.38622 0.58734
 H766 H 0.24941 0.34990 0.59175
 H767 H 0.28140 0.39431 0.64847
 H768 H 0.28522 0.39298 0.59266
 C769 C 0.75186 0.10348 0.86159
 C770 C 0.76692 0.10195 0.88806
 C771 C 0.74185 0.09130 0.90127
 C772 C 0.72680 0.09255 0.87502
 C773 C 0.74302 0.13156 0.86864
 C774 C 0.71792 0.12096 0.88183
 C775 C 0.75810 0.13036 0.89488
 C776 C 0.73299 0.11936 0.90841
 C777 C 0.74196 0.06814 0.91850
 C778 C 0.74293 0.04837 0.93161
 C779 C 0.74413 0.15330 0.84967
 C780 C 0.74538 0.17051 0.83336
 H781 H 0.75965 0.09716 0.84216
 H782 H 0.78708 0.09389 0.89080
 H783 H 0.71391 0.07676 0.86705
 H784 H 0.69778 0.12905 0.87904
 H785 H 0.77099 0.14615 0.90282
 H786 H 0.72521 0.12560 0.92787
 C787 C 0.25272 0.60284 0.35798
 C788 C 0.26803 0.60158 0.38433
 C789 C 0.24294 0.59161 0.39802
 C790 C 0.22763 0.59257 0.37190
 C791 C 0.24439 0.63119 0.36456
 C792 C 0.21928 0.62126 0.37823
 C793 C 0.25972 0.63026 0.39067
 C794 C 0.23460 0.61994 0.40468
 C795 C 0.24280 0.56886 0.41578
 C796 C 0.24350 0.54939 0.42935
 C797 C 0.24555 0.65269 0.34534
 C798 C 0.24673 0.66995 0.32907
 H799 H 0.26020 0.59602 0.33859
 H800 H 0.28809 0.59326 0.38703
 H801 H 0.21440 0.57684 0.36438
 H802 H 0.19923 0.62960 0.37549
 H803 H 0.27296 0.64600 0.39816
 H804 H 0.22713 0.62670 0.42409
 C805 C 0.26545 0.85991 0.90048
 C806 C 0.28398 0.88405 0.90275
 C807 C 0.26037 0.90093 0.91134
 C808 C 0.24186 0.87703 0.90938
 C809 C 0.25957 0.86748 0.87176
 C810 C 0.23597 0.88436 0.88037
 C811 C 0.27811 0.89135 0.87364
 C812 C 0.25448 0.90855 0.88264
 C813 C 0.25998 0.91866 0.93409
 C814 C 0.25870 0.93220 0.95355
 C815 C 0.25860 0.84829 0.85023
 C816 C 0.25740 0.83207 0.83295
 H817 H 0.26992 0.83970 0.90759
 H818 H 0.30373 0.88415 0.91219
 H819 H 0.22694 0.87132 0.92431
 H820 H 0.21621 0.88426 0.87096
 H821 H 0.29301 0.89700 0.85867
 H822 H 0.25000 0.92877 0.87557
 C823 C 0.76297 0.35855 0.39666
 C824 C 0.78164 0.38251 0.39961
 C825 C 0.75816 0.39920 0.40890
 C826 C 0.73952 0.37547 0.40626
 C827 C 0.75696 0.36708 0.36823
 C828 C 0.73349 0.38377 0.37754
 C829 C 0.77564 0.39079 0.37079
 C830 C 0.75214 0.40780 0.38050
 C831 C 0.75810 0.41615 0.43225
 C832 C 0.75719 0.42909 0.45214
 C833 C 0.75592 0.34841 0.34625
 C834 C 0.75480 0.33234 0.32881
 H835 H 0.76739 0.33811 0.40309
 H836 H 0.80144 0.38219 0.40893
 H837 H 0.72467 0.36933 0.42109
 H838 H 0.71368 0.38408 0.36824
 H839 H 0.79047 0.39687 0.35593
 H840 H 0.74772 0.42825 0.37412
 C841 C 0.12300 0.28078 0.11717
 C842 C 0.12976 0.26864 0.08999
 C843 C 0.10218 0.25618 0.08902
 C844 C 0.09511 0.26831 0.11584
 C845 C 0.13328 0.25562 0.13056
 C846 C 0.10570 0.24314 0.12963
 C847 C 0.14027 0.24351 0.10371
 C848 C 0.11248 0.23104 0.10244
 C849 C 0.08563 0.25582 0.06534
 C850 C 0.07278 0.25471 0.04537
 C851 C 0.15140 0.25489 0.15306
 C852 C 0.16710 0.25397 0.17088
 H853 H 0.12753 0.30123 0.12349
 H854 H 0.13949 0.27913 0.07345
 H855 H 0.07635 0.27851 0.12055
 H856 H 0.09601 0.23264 0.14618
 H857 H 0.15901 0.23329 0.09893
 H858 H 0.10798 0.21058 0.09614
 C859 C 0.63425 0.73472 0.60940
 C860 C 0.60394 0.73148 0.61036
 C861 C 0.60117 0.75506 0.59155
 C862 C 0.63125 0.75827 0.59029
 C863 C 0.63264 0.75391 0.63275
 C864 C 0.62987 0.77748 0.61394
 C865 C 0.60256 0.75068 0.63409
 C866 C 0.59949 0.77428 0.61487
 C867 C 0.58451 0.75505 0.56796
 C868 C 0.57169 0.75425 0.54799
 C869 C 0.65103 0.75293 0.65499
 C870 C 0.66703 0.75192 0.67251
 H871 H 0.64872 0.71843 0.60737
 H872 H 0.59308 0.71257 0.60863
 H873 H 0.64288 0.76141 0.57204
 H874 H 0.64074 0.79638 0.61566
 H875 H 0.59099 0.74753 0.65237
 H876 H 0.58500 0.79056 0.61683
 C877 C 0.11440 0.72314 0.86997
 C878 C 0.11552 0.72584 0.90039
 C879 C 0.09234 0.74528 0.89911
 C880 C 0.09089 0.74256 0.86898
 C881 C 0.13340 0.74660 0.86750
 C882 C 0.11018 0.76600 0.86628
 C883 C 0.13492 0.74934 0.89762
 C884 C 0.11133 0.76874 0.89664
 C885 C 0.06879 0.74519 0.91580
 C886 C 0.04879 0.74590 0.92859
 C887 C 0.15557 0.74769 0.84905
 C888 C 0.17307 0.74885 0.83305
 H889 H 0.11591 0.70439 0.85879
 H890 H 0.11745 0.70933 0.91460
 H891 H 0.07255 0.73975 0.85736
 H892 H 0.10819 0.78253 0.85209
 H893 H 0.15329 0.75215 0.90918
 H894 H 0.10982 0.78750 0.90780
 C895 C 0.63350 0.24995 0.39333
 C896 C 0.60978 0.26921 0.39282
 C897 C 0.59101 0.24563 0.39580
 C898 C 0.61433 0.22635 0.39661
 C899 C 0.63130 0.24711 0.36326
 C900 C 0.61253 0.22353 0.36623
 C901 C 0.60795 0.26636 0.36251
 C902 C 0.58888 0.24280 0.36573
 C903 C 0.56794 0.24540 0.41312
 C904 C 0.54834 0.24596 0.42649
 C905 C 0.65319 0.24821 0.34450
 C906 C 0.67068 0.24927 0.32849
 H907 H 0.65211 0.25292 0.40445
 H908 H 0.60840 0.28798 0.40397
 H909 H 0.61669 0.20989 0.41083
 H910 H 0.61390 0.20476 0.35508
 H911 H 0.60554 0.28283 0.34830
 H912 H 0.57029 0.23984 0.35455
 C913 C 0.89311 0.76212 0.13408
 C914 C 0.91174 0.73845 0.12945
 C915 C 0.90944 0.74293 0.09958
 C916 C 0.89109 0.76662 0.10398
 C917 C 0.86942 0.74333 0.13251
 C918 C 0.86704 0.74782 0.10265
 C919 C 0.88776 0.71963 0.12812
 C920 C 0.88578 0.72410 0.09795
 C921 C 0.93250 0.74340 0.08223
 C922 C 0.95225 0.74464 0.06910
 C923 C 0.84775 0.74399 0.15157
 C924 C 0.83048 0.74485 0.16784
 H925 H 0.89592 0.77776 0.14912
 H926 H 0.93035 0.73458 0.14030
 H927 H 0.89270 0.78594 0.09385
 H928 H 0.84840 0.75170 0.09186
 H929 H 0.88616 0.70032 0.13828
 H930 H 0.88304 0.70848 0.08288
 C931 C 0.36869 0.24695 0.60270
 C932 C 0.39261 0.26592 0.60382
 C933 C 0.41114 0.24222 0.60039
 C934 C 0.38762 0.22322 0.59898
 C935 C 0.37067 0.24336 0.63270
 C936 C 0.38920 0.21966 0.62929
 C937 C 0.39422 0.26233 0.63406
 C938 C 0.41305 0.23864 0.63040
 C939 C 0.43431 0.24227 0.58322
 C940 C 0.45400 0.24315 0.57000
 C941 C 0.34869 0.24435 0.65134
 C942 C 0.33113 0.24537 0.66727
 H943 H 0.35018 0.25039 0.59154
 H944 H 0.39426 0.28494 0.59313
 H945 H 0.38519 0.20714 0.58435
 H946 H 0.38755 0.20065 0.63999
 H947 H 0.39671 0.27843 0.64867
 H948 H 0.43154 0.23521 0.64161
 C949 C 0.85931 0.24632 0.89988
 C950 C 0.88590 0.23140 0.90030
 C951 C 0.89939 0.25639 0.91083
 C952 C 0.87304 0.27131 0.91070
 C953 C 0.86533 0.25560 0.87171
 C954 C 0.87880 0.28062 0.88220
 C955 C 0.89168 0.24066 0.87181
 C956 C 0.90549 0.26569 0.88268
 C957 C 0.91743 0.25611 0.93338
 C958 C 0.93111 0.25502 0.95278
 C959 C 0.84584 0.25471 0.85041
 C960 C 0.82948 0.25364 0.83322
 H961 H 0.84014 0.23834 0.90675
 H962 H 0.88903 0.21114 0.90796
 H963 H 0.86558 0.28394 0.92692
 H964 H 0.87563 0.30086 0.87451
 H965 H 0.89911 0.22802 0.85558
 H966 H 0.92468 0.27365 0.87587
 C967 C 0.35907 0.74571 0.39668
 C968 C 0.38568 0.73087 0.39785
 C969 C 0.39878 0.75594 0.40868
 C970 C 0.37240 0.77077 0.40781
 C971 C 0.36582 0.75494 0.36866
 C972 C 0.37890 0.78004 0.37946
 C973 C 0.39220 0.74010 0.36950
 C974 C 0.40562 0.76520 0.38069
 C975 C 0.41622 0.75585 0.43169
 C976 C 0.42951 0.75499 0.45136
 C977 C 0.34678 0.75406 0.34698
 C978 C 0.33054 0.75313 0.32967
 H979 H 0.33975 0.73767 0.40304
 H980 H 0.38867 0.71065 0.40565
 H981 H 0.36445 0.78340 0.42379
 H982 H 0.37588 0.80025 0.37164
 H983 H 0.40011 0.72746 0.35350
 H984 H 0.42497 0.77322 0.37440
 C985 C 0.10183 0.13222 0.24768
 C986 C 0.10581 0.10614 0.23230
 C987 C 0.09831 0.09065 0.25721
 C988 C 0.09402 0.11635 0.27263
 C989 C 0.13081 0.13106 0.25642
 C990 C 0.12332 0.11559 0.28135
 C991 C 0.13503 0.10533 0.24104
 C992 C 0.12730 0.08955 0.26594
 C993 C 0.08119 0.06738 0.25697
 C994 C 0.06824 0.04747 0.25592
 C995 C 0.14969 0.15293 0.25560
 C996 C 0.16587 0.17030 0.25466
 H997 H 0.09157 0.15002 0.24014
 H998 H 0.09842 0.10202 0.21212
 H999 H 0.07695 0.12062 0.28562
 H1000 H 0.13074 0.11971 0.30152
 H1001 H 0.15206 0.10100 0.22804
 H1002 H 0.13761 0.07177 0.27346
 C1003 C 0.60355 0.63161 0.75116
 C1004 C 0.60740 0.60573 0.73542
 C1005 C 0.60020 0.58993 0.76022
 C1006 C 0.59604 0.61543 0.77600
 C1007 C 0.63262 0.63037 0.75957
 C1008 C 0.62544 0.61459 0.78439
 C1009 C 0.63670 0.60483 0.74383
 C1010 C 0.62928 0.58875 0.76862
 C1011 C 0.58304 0.56674 0.75978
 C1012 C 0.56992 0.54699 0.75850
 C1013 C 0.65143 0.65224 0.75866
 C1014 C 0.66757 0.66960 0.75748
 H1015 H 0.59320 0.64950 0.74396
 H1016 H 0.59979 0.60184 0.71527
 H1017 H 0.57911 0.61951 0.78922
 H1018 H 0.63309 0.61850 0.80452
 H1019 H 0.65360 0.60069 0.73058
 H1020 H 0.63967 0.57088 0.77581
 C1021 C 0.88626 0.12589 0.72988
 C1022 C 0.91130 0.12894 0.74703
 C1023 C 0.90911 0.09977 0.75491
 C1024 C 0.88436 0.09644 0.73775
 C1025 C 0.86937 0.13311 0.75393
 C1026 C 0.86710 0.10395 0.76183
 C1027 C 0.89413 0.13640 0.77108
 C1028 C 0.89225 0.10696 0.77899
 C1029 C 0.93204 0.08219 0.75487
 C1030 C 0.95174 0.06890 0.75406
 C1031 C 0.84781 0.15234 0.75324
 C1032 C 0.83058 0.16870 0.75275
 H1033 H 0.88360 0.13387 0.70969
 H1034 H 0.92971 0.13906 0.74096
 H1035 H 0.88058 0.07979 0.72408
 H1036 H 0.84865 0.09389 0.76790
 H1037 H 0.89795 0.15304 0.78475
 H1038 H 0.89494 0.09898 0.79918
 C1039 C 0.38632 0.62939 0.21825
 C1040 C 0.41127 0.63131 0.23575
 C1041 C 0.40905 0.60169 0.24163
 C1042 C 0.38443 0.59944 0.22412
 C1043 C 0.36928 0.63493 0.24264
 C1044 C 0.36699 0.60532 0.24853
 C1045 C 0.39392 0.63711 0.26011
 C1046 C 0.39199 0.60725 0.26600
 C1047 C 0.43191 0.58406 0.24177
 C1048 C 0.45144 0.57059 0.24274
 C1049 C 0.34770 0.65409 0.24364
 C1050 C 0.33045 0.67037 0.24480
 H1051 H 0.38376 0.63872 0.19863
 H1052 H 0.42971 0.64182 0.23048
 H1053 H 0.38080 0.58374 0.20933
 H1054 H 0.34852 0.59486 0.25381
 H1055 H 0.39761 0.65279 0.27492
 H1056 H 0.39455 0.59794 0.28563
 C1057 C 0.10872 0.86491 0.77377
 C1058 C 0.10991 0.89501 0.77877
 C1059 C 0.09079 0.89924 0.75566
 C1060 C 0.08929 0.86940 0.75069
 C1061 C 0.13181 0.86750 0.75436
 C1062 C 0.11266 0.87175 0.73129
 C1063 C 0.13340 0.89733 0.75935
 C1064 C 0.11387 0.90185 0.73624
 C1065 C 0.06726 0.91601 0.75580
 C1066 C 0.04723 0.92880 0.75516
 C1067 C 0.15401 0.84902 0.75351
 C1068 C 0.17163 0.83308 0.75290
 H1069 H 0.10682 0.84950 0.78919
 H1070 H 0.10853 0.90476 0.79830
 H1071 H 0.07091 0.85806 0.74716
 H1072 H 0.11399 0.86201 0.71175
 H1073 H 0.15181 0.90861 0.76287
 H1074 H 0.11574 0.91725 0.72082
 C1075 C 0.60832 0.36534 0.26253
 C1076 C 0.60955 0.39574 0.26467
 C1077 C 0.58995 0.39779 0.24166
 C1078 C 0.58842 0.36763 0.23954
 C1079 C 0.63101 0.36615 0.24253
 C1080 C 0.61141 0.36820 0.21952
 C1081 C 0.63261 0.39632 0.24465
 C1082 C 0.61260 0.39867 0.22162
 C1083 C 0.56648 0.41461 0.24187
 C1084 C 0.54663 0.42760 0.24287
 C1085 C 0.65325 0.34776 0.24344
 C1086 C 0.67088 0.33189 0.24451
 H1087 H 0.60679 0.35146 0.27937
 H1088 H 0.60854 0.40727 0.28323
 H1089 H 0.57001 0.35600 0.23743
 H1090 H 0.61242 0.35666 0.20097
 H1091 H 0.65105 0.40790 0.24678
 H1092 H 0.61408 0.41257 0.20480
 C1093 C 0.89042 0.86975 0.27177
 C1094 C 0.90690 0.87986 0.24808
 C1095 C 0.89860 0.90819 0.25484
 C1096 C 0.88243 0.89848 0.27851
 C1097 C 0.86624 0.86766 0.25362
 C1098 C 0.85801 0.89601 0.26036
 C1099 C 0.88241 0.87738 0.22995
 C1100 C 0.87440 0.90602 0.23672
 C1101 C 0.91568 0.93150 0.25489
 C1102 C 0.92865 0.95141 0.25416
 C1103 C 0.84746 0.84570 0.25262
 C1104 C 0.83136 0.82825 0.25159
 H1105 H 0.89680 0.85456 0.28618
 H1106 H 0.92720 0.87347 0.24306
 H1107 H 0.88263 0.90738 0.29849
 H1108 H 0.83771 0.90245 0.26538
 H1109 H 0.88220 0.86849 0.20997
 H1110 H 0.86796 0.92117 0.22230
 C1111 C 0.38795 0.37042 0.77388
 C1112 C 0.40596 0.37948 0.75090
 C1113 C 0.39725 0.40806 0.75580
 C1114 C 0.37955 0.39941 0.77877
 C1115 C 0.36503 0.36747 0.75429
 C1116 C 0.35638 0.39608 0.75918
 C1117 C 0.38272 0.37614 0.73132
 C1118 C 0.37430 0.40504 0.73624
 C1119 C 0.41434 0.43132 0.75596
 C1120 C 0.42749 0.45108 0.75530
 C1121 C 0.34635 0.34549 0.75305
 C1122 C 0.33032 0.32802 0.75174
 H1123 H 0.39334 0.35592 0.78935
 H1124 H 0.42655 0.37293 0.74752
 H1125 H 0.37845 0.40922 0.79828
 H1126 H 0.33580 0.40269 0.76255
 H1127 H 0.38382 0.36634 0.71180
 H1128 H 0.36885 0.41951 0.72075
 C1129 C 0.10587 0.23161 0.86600
 C1130 C 0.11128 0.21644 0.89200
 C1131 C 0.10290 0.24096 0.90764
 C1132 C 0.09718 0.25613 0.88206
 C1133 C 0.13435 0.24188 0.86649
 C1134 C 0.12594 0.26636 0.88216
 C1135 C 0.14004 0.22672 0.89208
 C1136 C 0.13139 0.25120 0.90804
 C1137 C 0.08621 0.24120 0.93117
 C1138 C 0.07331 0.24226 0.95106
 C1139 C 0.15270 0.24278 0.84425
 C1140 C 0.16864 0.24372 0.82670
 H1141 H 0.09559 0.22358 0.84843
 H1142 H 0.10507 0.19591 0.89631
 H1143 H 0.07934 0.26821 0.87821
 H1144 H 0.13214 0.28690 0.87789
 H1145 H 0.15787 0.21464 0.89597
 H1146 H 0.14173 0.25924 0.92558
 C1147 C 0.63907 0.72503 0.39361
 C1148 C 0.63270 0.74870 0.41174
 C1149 C 0.60327 0.74185 0.40977
 C1150 C 0.60936 0.71814 0.39196
 C1151 C 0.63590 0.74312 0.36954
 C1152 C 0.60647 0.73625 0.36748
 C1153 C 0.62977 0.76679 0.38738
 C1154 C 0.60007 0.75995 0.38570
 C1155 C 0.58591 0.74184 0.43282
 C1156 C 0.57254 0.74269 0.45242
 C1157 C 0.65471 0.74414 0.34768
 C1158 C 0.67076 0.74508 0.33022
 H1159 H 0.65533 0.71069 0.39664
 H1160 H 0.64333 0.75380 0.43019
 H1161 H 0.60076 0.69814 0.39409
 H1162 H 0.59590 0.73116 0.34901
 H1163 H 0.63836 0.78680 0.38529
 H1164 H 0.58382 0.77429 0.38269
 C1165 C 0.86896 0.76184 0.89480
 C1166 C 0.88799 0.73853 0.90019
 C1167 C 0.91145 0.75745 0.89725
 C1168 C 0.89283 0.78077 0.89215
 C1169 C 0.87075 0.75595 0.86515
 C1170 C 0.89420 0.77486 0.86221
 C1171 C 0.88940 0.73266 0.87029
 C1172 C 0.91316 0.75157 0.86760
 C1173 C 0.93469 0.75756 0.91438
 C1174 C 0.95437 0.75678 0.92767
 C1175 C 0.84859 0.75476 0.84667
 C1176 C 0.83086 0.75364 0.83091
 H1177 H 0.85051 0.76603 0.90576
 H1178 H 0.88570 0.72361 0.91603
 H1179 H 0.89450 0.80055 0.90134
 H1180 H 0.89652 0.78977 0.84638
 H1181 H 0.88777 0.71287 0.86111
 H1182 H 0.93158 0.74737 0.85658
 C1183 C 0.36642 0.26043 0.39656
 C1184 C 0.38592 0.23735 0.40126
 C1185 C 0.40902 0.25669 0.39820
 C1186 C 0.38993 0.27979 0.39379
 C1187 C 0.36777 0.25502 0.36680
 C1188 C 0.39088 0.27435 0.36375
 C1189 C 0.38689 0.23196 0.37124
 C1190 C 0.41029 0.25129 0.36844
 C1191 C 0.43262 0.25695 0.41485
 C1192 C 0.45262 0.25632 0.42768
 C1193 C 0.34544 0.25382 0.34851
 C1194 C 0.32774 0.25280 0.33270
 H1195 H 0.34810 0.26415 0.40790
 H1196 H 0.38414 0.22216 0.41690
 H1197 H 0.39146 0.29945 0.40325
 H1198 H 0.39268 0.28954 0.34811
 H1199 H 0.38541 0.21229 0.36180
 H1200 H 0.42857 0.24756 0.35703
 C1201 C 0.10594 0.77528 0.13695
 C1202 C 0.10762 0.78118 0.10703
 C1203 C 0.08905 0.75785 0.10177
 C1204 C 0.08704 0.75200 0.13140
 C1205 C 0.12942 0.75635 0.13426
 C1206 C 0.11082 0.73307 0.12897
 C1207 C 0.13150 0.76223 0.10464
 C1208 C 0.11252 0.73892 0.09907
 C1209 C 0.06595 0.75794 0.08447
 C1210 C 0.04634 0.75710 0.07110
 C1211 C 0.15134 0.75520 0.15300
 C1212 C 0.16884 0.75415 0.16901
 H1213 H 0.10347 0.79021 0.15275
 H1214 H 0.10603 0.80095 0.09780
 H1215 H 0.06851 0.74781 0.14224
 H1216 H 0.11236 0.71329 0.13818
 H1217 H 0.15007 0.76640 0.09386
 H1218 H 0.11498 0.72399 0.08327
 C1219 C 0.61943 0.22873 0.62100
 C1220 C 0.59172 0.23978 0.62727
 C1221 C 0.59199 0.25468 0.60090
 C1222 C 0.61940 0.24363 0.59434
 C1223 C 0.63170 0.25303 0.63424
 C1224 C 0.63205 0.26796 0.60789
 C1225 C 0.60427 0.26407 0.64075
 C1226 C 0.60424 0.27900 0.61414
 C1227 C 0.56911 0.25494 0.58328
 C1228 C 0.54951 0.25435 0.56986
 C1229 C 0.65321 0.25191 0.65349
 C1230 C 0.67037 0.25101 0.66989
 H1231 H 0.62589 0.20804 0.62404
 H1232 H 0.57488 0.22819 0.63507
 H1233 H 0.62537 0.23527 0.57503
 H1234 H 0.64892 0.27954 0.60015
 H1235 H 0.59825 0.27243 0.66004
 H1236 H 0.59776 0.29968 0.61110
 C1237 C 0.89791 0.24453 0.13223
 C1238 C 0.89915 0.22206 0.11152
 C1239 C 0.90053 0.24286 0.08958
 C1240 C 0.89960 0.26530 0.10989
 C1241 C 0.86774 0.24480 0.12961
 C1242 C 0.86918 0.26556 0.10764
 C1243 C 0.86867 0.22236 0.10931
 C1244 C 0.87035 0.24314 0.08705
 C1245 C 0.91785 0.24255 0.06655
 C1246 C 0.93105 0.24321 0.04686
 C1247 C 0.84877 0.24620 0.15126
 C1248 C 0.83252 0.24746 0.16848
 H1249 H 0.90900 0.24513 0.15109
 H1250 H 0.91168 0.20417 0.11283
 H1251 H 0.91255 0.28294 0.10987
 H1252 H 0.85666 0.28346 0.10627
 H1253 H 0.85571 0.20473 0.10931
 H1254 H 0.85920 0.24254 0.06822
 C1255 C 0.36550 0.76581 0.60656
 C1256 C 0.39586 0.76836 0.60826
 C1257 C 0.39853 0.74457 0.58972
 C1258 C 0.36842 0.74202 0.58772
 C1259 C 0.36615 0.74679 0.63009
 C1260 C 0.36882 0.72299 0.61156
 C1261 C 0.39626 0.74934 0.63216
 C1262 C 0.39923 0.72551 0.61323
 C1263 C 0.41577 0.74400 0.56660
 C1264 C 0.42904 0.74438 0.54693
 C1265 C 0.34749 0.74826 0.65204
 C1266 C 0.33157 0.74948 0.66959
 H1267 H 0.35145 0.78239 0.60403
 H1268 H 0.40719 0.78700 0.60665
 H1269 H 0.35716 0.73897 0.56920
 H1270 H 0.35748 0.70435 0.61316
 H1271 H 0.40748 0.75239 0.65070
 H1272 H 0.41330 0.70894 0.61570
 C1273 C 0.23862 0.10317 0.86655
 C1274 C 0.26195 0.09856 0.88580
 C1275 C 0.24303 0.10234 0.90912
 C1276 C 0.21969 0.10665 0.89031
 C1277 C 0.24441 0.13288 0.86725
 C1278 C 0.22550 0.13664 0.89058
 C1279 C 0.26772 0.12853 0.88610
 C1280 C 0.24881 0.13206 0.90972
 C1281 C 0.24296 0.08617 0.93304
 C1282 C 0.24374 0.07367 0.95322
 C1283 C 0.24549 0.15082 0.84465
 C1284 C 0.24648 0.16654 0.82689
 H1285 H 0.23446 0.09149 0.84852
 H1286 H 0.27692 0.08271 0.88410
 H1287 H 0.19993 0.09748 0.89231
 H1288 H 0.21053 0.15250 0.89231
 H1289 H 0.28748 0.13769 0.88414
 H1290 H 0.25298 0.14379 0.92772
 C1291 C 0.74066 0.60371 0.36814
 C1292 C 0.76369 0.59867 0.38762
 C1293 C 0.74435 0.60160 0.41071
 C1294 C 0.72130 0.60635 0.39165
 C1295 C 0.74625 0.63342 0.36984
 C1296 C 0.72691 0.63635 0.39294
 C1297 C 0.76926 0.62865 0.38894
 C1298 C 0.74992 0.63132 0.41234
 C1299 C 0.74395 0.58465 0.43407
 C1300 C 0.74445 0.57150 0.45383
 C1301 C 0.74751 0.65187 0.34768
 C1302 C 0.74853 0.66775 0.33006
 H1303 H 0.73689 0.59257 0.34969
 H1304 H 0.77880 0.58296 0.38569
 H1305 H 0.70158 0.59699 0.39303
 H1306 H 0.71181 0.65206 0.39489
 H1307 H 0.78899 0.63800 0.38760
 H1308 H 0.75370 0.64252 0.43075
 C1309 C 0.77472 0.10681 0.13763
 C1310 C 0.75147 0.08764 0.13295
 C1311 C 0.75674 0.08902 0.10317
 C1312 C 0.78003 0.10785 0.10757
 C1313 C 0.75559 0.13011 0.13474
 C1314 C 0.76088 0.13157 0.10497
 C1315 C 0.73234 0.11124 0.13030
 C1316 C 0.73760 0.11231 0.10027
 C1317 C 0.75668 0.06555 0.08637
 C1318 C 0.75578 0.04571 0.07334
 C1319 C 0.75466 0.15241 0.15304
 C1320 C 0.75383 0.17014 0.16880
 H1321 H 0.78997 0.10479 0.15321
 H1322 H 0.74762 0.06934 0.14429
 H1323 H 0.79964 0.10619 0.09804
 H1324 H 0.76472 0.14990 0.09368
 H1325 H 0.71272 0.11286 0.13982
 H1326 H 0.72236 0.11431 0.08469
 C1327 C 0.25092 0.63536 0.60530
 C1328 C 0.27462 0.61639 0.60156
 C1329 C 0.25557 0.59289 0.60290
 C1330 C 0.23190 0.61147 0.60634
 C1331 C 0.25450 0.63334 0.63530
 C1332 C 0.23549 0.60982 0.63659
 C1333 C 0.27817 0.61477 0.63187
 C1334 C 0.25915 0.59095 0.63291
 C1335 C 0.25555 0.56969 0.58572
 C1336 C 0.25474 0.54995 0.57255
 C1337 C 0.25369 0.65524 0.65410
 C1338 C 0.25304 0.67263 0.67025
 H1339 H 0.24751 0.65389 0.59418
 H1340 H 0.29071 0.61882 0.58696
 H1341 H 0.21288 0.60987 0.59564
 H1342 H 0.21939 0.60733 0.65117
 H1343 H 0.29719 0.61636 0.64259
 H1344 H 0.26256 0.57245 0.64409
 C1345 C 0.75907 0.86807 0.89613
 C1346 C 0.77891 0.89130 0.89494
 C1347 C 0.75601 0.91061 0.89931
 C1348 C 0.73619 0.88778 0.90081
 C1349 C 0.75469 0.87069 0.86628
 C1350 C 0.73182 0.89003 0.87069
 C1351 C 0.77451 0.89353 0.86479
 C1352 C 0.75164 0.91316 0.86945
 C1353 C 0.75603 0.93349 0.91689
 C1354 C 0.75518 0.95298 0.93042
 C1355 C 0.75361 0.84896 0.84733
 C1356 C 0.75259 0.83149 0.83129
 H1357 H 0.76210 0.84925 0.90687
 H1358 H 0.79827 0.89208 0.90513
 H1359 H 0.72045 0.88565 0.91584
 H1360 H 0.71246 0.88930 0.86052
 H1361 H 0.79024 0.89567 0.84975
 H1362 H 0.74860 0.93195 0.85866
 C1363 C 0.25648 0.36801 0.39776
 C1364 C 0.27661 0.39097 0.39597
 C1365 C 0.25397 0.41067 0.40002
 C1366 C 0.23387 0.38812 0.40212
 C1367 C 0.25197 0.37005 0.36789
 C1368 C 0.22938 0.38977 0.37197
 C1369 C 0.27207 0.39261 0.36581
 C1370 C 0.24948 0.41262 0.37014
 C1371 C 0.25443 0.43396 0.41703
 C1372 C 0.25396 0.45379 0.43008
 C1373 C 0.25065 0.34808 0.34923
 C1374 C 0.24958 0.33063 0.33317
 H1375 H 0.25933 0.34939 0.40889
 H1376 H 0.29602 0.39174 0.40604
 H1377 H 0.21819 0.38653 0.41727
 H1378 H 0.20995 0.38906 0.36192
 H1379 H 0.28775 0.39422 0.35065
 H1380 H 0.24662 0.43120 0.35895
 C1381 C 0.23024 0.89359 0.13049
 C1382 C 0.25466 0.90751 0.11848
 C1383 C 0.24419 0.90113 0.09080
 C1384 C 0.21978 0.88752 0.10240
 C1385 C 0.24544 0.86739 0.13012
 C1386 C 0.23498 0.86105 0.10242
 C1387 C 0.26983 0.88100 0.11849
 C1388 C 0.25936 0.87490 0.09051
 C1389 C 0.24425 0.91894 0.06811
 C1390 C 0.24521 0.93246 0.04862
 C1391 C 0.24645 0.84799 0.15145
 C1392 C 0.24737 0.83155 0.16854
 H1393 H 0.21828 0.90103 0.14722
 H1394 H 0.26272 0.92684 0.12482
 H1395 H 0.19920 0.89044 0.09555
 H1396 H 0.22693 0.84174 0.09603
 H1397 H 0.29042 0.87809 0.12531
 H1398 H 0.27133 0.86740 0.07382
 C1399 C 0.72488 0.38372 0.62539
 C1400 C 0.74640 0.40444 0.61891
 C1401 C 0.74506 0.39615 0.58983
 C1402 C 0.72355 0.37575 0.59593
 C1403 C 0.74659 0.36301 0.62965
 C1404 C 0.74524 0.35478 0.60056
 C1405 C 0.76810 0.38341 0.62355
 C1406 C 0.76673 0.37542 0.59414
 C1407 C 0.74488 0.41382 0.56701
 C1408 C 0.74557 0.42743 0.54757
 C1409 C 0.74766 0.34403 0.65137
 C1410 C 0.74856 0.32800 0.66886
 H1411 H 0.70768 0.38689 0.63852
 H1412 H 0.74685 0.42507 0.62618
 H1413 H 0.70521 0.37281 0.58434
 H1414 H 0.74480 0.33417 0.59323
 H1415 H 0.78643 0.38634 0.63514
 H1416 H 0.78394 0.37220 0.58105
 C1417 C 0.13080 0.10332 0.74972
 C1418 C 0.10544 0.10650 0.76641
 C1419 C 0.08886 0.10069 0.74173
 C1420 C 0.11382 0.09720 0.72501
 C1421 C 0.12950 0.13278 0.74289
 C1422 C 0.11293 0.12699 0.71821
 C1423 C 0.10450 0.13621 0.75958
 C1424 C 0.08762 0.13016 0.73492
 C1425 C 0.06563 0.08363 0.74175
 C1426 C 0.04594 0.07043 0.74263
 C1427 C 0.15151 0.15137 0.74381
 C1428 C 0.16902 0.16734 0.74468
 H1429 H 0.14883 0.09252 0.75583
 H1430 H 0.10210 0.09786 0.78623
 H1431 H 0.11736 0.08096 0.71080
 H1432 H 0.11628 0.13564 0.69840
 H1433 H 0.10091 0.15243 0.77381
 H1434 H 0.06961 0.14101 0.72881
 C1435 C 0.60962 0.63039 0.23197
 C1436 C 0.61148 0.60000 0.23402
 C1437 C 0.58989 0.60047 0.25523
 C1438 C 0.58774 0.63061 0.25316
 C1439 C 0.63038 0.63280 0.25388
 C1440 C 0.60879 0.63327 0.27509
 C1441 C 0.63261 0.60267 0.25596
 C1442 C 0.61062 0.60284 0.27718
 C1443 C 0.56667 0.58333 0.25529
 C1444 C 0.54692 0.57018 0.25450
 C1445 C 0.65232 0.65152 0.25285
 C1446 C 0.66980 0.66755 0.25191
 H1447 H 0.60942 0.64190 0.21337
 H1448 H 0.61233 0.58610 0.21715
 H1449 H 0.56904 0.64192 0.25204
 H1450 H 0.60792 0.64717 0.29196
 H1451 H 0.65134 0.59141 0.25707
 H1452 H 0.61076 0.59131 0.29577
 C1453 C 0.12039 0.88202 0.26891
 C1454 C 0.12748 0.91026 0.25986
 C1455 C 0.10209 0.91100 0.24334
 C1456 C 0.09471 0.88307 0.25239
 C1457 C 0.13504 0.87104 0.24483
 C1458 C 0.10967 0.87171 0.22828
 C1459 C 0.14238 0.89899 0.23579
 C1460 C 0.11674 0.90004 0.21924
 C1461 C 0.08455 0.93388 0.24324
 C1462 C 0.07099 0.95333 0.24403
 C1463 C 0.15400 0.84934 0.24592
 C1464 C 0.17012 0.83196 0.24686
 H1465 H 0.12212 0.87438 0.28934
 H1466 H 0.13462 0.92637 0.27283
 H1467 H 0.07489 0.87680 0.25917
 H1468 H 0.10259 0.85557 0.21532
 H1469 H 0.16219 0.90530 0.22901
 H1470 H 0.11501 0.90770 0.19882
 C1471 C 0.62698 0.38584 0.76898
 C1472 C 0.63067 0.41132 0.75266
 C1473 C 0.60179 0.40941 0.74371
 C1474 C 0.59783 0.38422 0.76004
 C1475 C 0.63497 0.36959 0.74473
 C1476 C 0.60610 0.36760 0.73576
 C1477 C 0.63891 0.39479 0.72841
 C1478 C 0.60975 0.39319 0.71943
 C1479 C 0.58417 0.43227 0.74392
 C1480 C 0.57067 0.45177 0.74498
 C1481 C 0.65405 0.34795 0.74570
 C1482 C 0.67023 0.33060 0.74671
 H1483 H 0.63427 0.38260 0.78935
 H1484 H 0.64060 0.42954 0.75960
 H1485 H 0.58072 0.38012 0.77302
 H1486 H 0.59623 0.34934 0.72883
 H1487 H 0.65602 0.39891 0.71543
 H1488 H 0.60245 0.39647 0.69906
 C1489 C 0.86285 0.10766 0.22475
 C1490 C 0.89305 0.10872 0.22032
 C1491 C 0.89670 0.08908 0.24306
 C1492 C 0.86679 0.08769 0.24746
 C1493 C 0.86533 0.13028 0.24473
 C1494 C 0.86902 0.11060 0.26744
 C1495 C 0.89524 0.13174 0.24032
 C1496 C 0.89919 0.11169 0.26305
 C1497 C 0.91345 0.06561 0.24282
 C1498 C 0.92654 0.04582 0.24349
 C1499 C 0.84712 0.15260 0.24590
 C1500 C 0.83138 0.17034 0.24685
 H1501 H 0.84769 0.10626 0.20902
 H1502 H 0.90313 0.10765 0.20094
 H1503 H 0.85526 0.06932 0.25037
 H1504 H 0.85895 0.11163 0.28683
 H1505 H 0.90671 0.15014 0.23742
 H1506 H 0.91435 0.11307 0.27878
 C1507 C 0.36540 0.60975 0.72385
 C1508 C 0.39586 0.61098 0.72182
 C1509 C 0.39781 0.59014 0.74370
 C1510 C 0.36764 0.58857 0.74569
 C1511 C 0.36627 0.63126 0.74515
 C1512 C 0.36827 0.61038 0.76698
 C1513 C 0.39644 0.63291 0.74314
 C1514 C 0.39869 0.61165 0.76499
 C1515 C 0.41459 0.56665 0.74360
 C1516 C 0.42757 0.54677 0.74437
 C1517 C 0.34797 0.65355 0.74629
 C1518 C 0.33219 0.67127 0.74737
 H1519 H 0.35150 0.60921 0.70695
 H1520 H 0.40740 0.61096 0.70326
 H1521 H 0.35596 0.57010 0.74672
 H1522 H 0.35674 0.61036 0.78556
 H1523 H 0.40807 0.65141 0.74212
 H1524 H 0.41258 0.61218 0.78190
 C1525 C 0.89285 0.86270 0.76602
 C1526 C 0.91162 0.86595 0.74224
 C1527 C 0.90987 0.89601 0.74540
 C1528 C 0.89141 0.89301 0.76919
 C1529 C 0.86924 0.86391 0.74710
 C1530 C 0.86743 0.89397 0.75027
 C1531 C 0.88770 0.86691 0.72331
 C1532 C 0.88628 0.89727 0.72645
 C1533 C 0.93307 0.91312 0.74502
 C1534 C 0.95273 0.92641 0.74545
 C1535 C 0.84720 0.84536 0.74826
 C1536 C 0.82964 0.82944 0.74927
 H1537 H 0.89532 0.84830 0.78231
 H1538 H 0.93003 0.85462 0.73892
 H1539 H 0.89320 0.90396 0.78805
 H1540 H 0.84899 0.90525 0.75360
 H1541 H 0.88591 0.85596 0.70446
 H1542 H 0.88387 0.91169 0.71017
 C1543 C 0.39142 0.36231 0.27502
 C1544 C 0.40996 0.36756 0.25141
 C1545 C 0.40822 0.39727 0.25706
 C1546 C 0.39000 0.39230 0.28070
 C1547 C 0.36764 0.36500 0.25644
 C1548 C 0.36581 0.39470 0.26211
 C1549 C 0.38589 0.37001 0.23284
 C1550 C 0.38444 0.39997 0.23848
 C1551 C 0.43145 0.41440 0.25669
 C1552 C 0.45118 0.42758 0.25554
 C1553 C 0.34561 0.34635 0.25575
 C1554 C 0.32806 0.33038 0.25501
 H1555 H 0.39406 0.34661 0.29004
 H1556 H 0.42836 0.35657 0.24703
 H1557 H 0.39195 0.40166 0.30037
 H1558 H 0.34738 0.40564 0.26649
 H1559 H 0.38399 0.36066 0.21316
 H1560 H 0.38182 0.41566 0.22346
   
