data_POSCAR
  _audit_creation_date              2014-09-24
  _audit_creation_method            'ToBaCCo'
  _symmetry_space_group_name_H-M    'P1'
  _symmetry_Int_Tables_number       1
  _symmetry_cell_setting            triclinic
  loop_
  _symmetry_equiv_pos_as_xyz
 x,y,z
_cell_length_a 62.6239
_cell_length_b 63.1490
_cell_length_c 64.0005
_cell_angle_alpha 90.260600
_cell_angle_beta 90.077900
_cell_angle_gamma 89.776500
loop_
  _atom_site_label
  _atom_site_type_symbol
  _atom_site_fract_x
  _atom_site_fract_y
  _atom_site_fract_z
N1 N 0.37655 0.31793 0.33362
 N2 N 0.37620 0.33287 0.31938
 C3 C 0.39289 0.33003 0.30637
 C4 C 0.40444 0.31262 0.31307
 C5 C 0.39346 0.30518 0.33022
 H6 H 0.39634 0.33973 0.29292
 H7 H 0.39724 0.29120 0.33923
 Cu8 Cu 0.35371 0.35426 0.31891
 Cu9 Cu 0.35468 0.31557 0.35497
 Cu10 Cu 0.31361 0.35239 0.35398
 N11 N 0.33002 0.37430 0.31821
 N12 N 0.31450 0.37353 0.33200
 C13 C 0.29988 0.38849 0.32747
 C14 C 0.30642 0.39899 0.30970
 C15 C 0.32575 0.38980 0.30440
 H16 H 0.28533 0.39128 0.33617
 H17 H 0.33556 0.39373 0.29109
 N18 N 0.31551 0.32978 0.37500
 N19 N 0.33116 0.31571 0.37530
 C20 C 0.32749 0.30174 0.39069
 C21 C 0.30851 0.30711 0.40033
 C22 C 0.30147 0.32511 0.39023
 H23 H 0.33756 0.28832 0.39438
 H24 H 0.28683 0.33368 0.39335
 H25 H 0.33066 0.32970 0.33751
 H26 H 0.34610 0.34722 0.35561
 N27 N 0.38079 0.82169 -0.16480
 N28 N 0.37934 0.83563 -0.17991
 C29 C 0.39636 0.83342 -0.19258
 C30 C 0.40955 0.81760 -0.18473
 C31 C 0.39890 0.81041 -0.16714
 H32 H 0.39896 0.84263 -0.20654
 H33 H 0.40315 0.79692 -0.15763
 Cu34 Cu 0.35479 0.85453 -0.18205
 Cu35 Cu 0.35816 0.81774 -0.14439
 Cu36 Cu 0.31377 0.85050 -0.14851
 N37 N 0.33008 0.87326 -0.18385
 N38 N 0.31384 0.87114 -0.17106
 C39 C 0.29846 0.88507 -0.17631
 C40 C 0.30520 0.89645 -0.19358
 C41 C 0.32562 0.88880 -0.19755
 H42 H 0.28379 0.88728 -0.16767
 H43 H 0.33606 0.89359 -0.21010
 N44 N 0.31675 0.82869 -0.12673
 N45 N 0.33362 0.81616 -0.12526
 C46 C 0.33052 0.80238 -0.10955
 C47 C 0.31076 0.80638 -0.10083
 C48 C 0.30255 0.82328 -0.11189
 H49 H 0.34160 0.79007 -0.10497
 H50 H 0.28709 0.83063 -0.10963
 H51 H 0.33356 0.82871 -0.16308
 H52 H 0.34650 0.84841 -0.14535
 N53 N 0.87760 0.32192 -0.16434
 N54 N 0.87825 0.33816 -0.17710
 C55 C 0.89541 0.33612 -0.18964
 C56 C 0.90620 0.31779 -0.18415
 C57 C 0.89430 0.30908 -0.16823
 H58 H 0.89955 0.34691 -0.20205
 H59 H 0.89722 0.29411 -0.16057
 Cu60 Cu 0.85633 0.36007 -0.17656
 Cu61 Cu 0.85462 0.31792 -0.14449
 Cu62 Cu 0.81190 0.35251 -0.14781
 N63 N 0.83092 0.37748 -0.18022
 N64 N 0.81347 0.37408 -0.16940
 C65 C 0.79815 0.38759 -0.17574
 C66 C 0.80627 0.40005 -0.19167
 C67 C 0.82736 0.39344 -0.19368
 H68 H 0.78249 0.38873 -0.16873
 H69 H 0.83896 0.39919 -0.20477
 N70 N 0.81349 0.32966 -0.12698
 N71 N 0.82985 0.31647 -0.12579
 C72 C 0.82616 0.30232 -0.11059
 C73 C 0.80644 0.30665 -0.10195
 C74 C 0.79895 0.32424 -0.11247
 H75 H 0.83689 0.28965 -0.10616
 H76 H 0.78384 0.33219 -0.10995
 H77 H 0.83257 0.33275 -0.16375
 H78 H 0.84416 0.34910 -0.14207
 N79 N 0.88084 0.82092 0.33567
 N80 N 0.87966 0.83529 0.32090
 C81 C 0.89625 0.83268 0.30774
 C82 C 0.90862 0.81599 0.31485
 C83 C 0.89822 0.80875 0.33245
 H84 H 0.89892 0.84180 0.29372
 H85 H 0.90248 0.79504 0.34165
 Cu86 Cu 0.85555 0.85474 0.31973
 Cu87 Cu 0.85856 0.81760 0.35667
 Cu88 Cu 0.81442 0.85102 0.35285
 N89 N 0.83123 0.87384 0.31771
 N90 N 0.81475 0.87165 0.33020
 C91 C 0.79946 0.88558 0.32472
 C92 C 0.80665 0.89718 0.30776
 C93 C 0.82713 0.88955 0.30410
 H94 H 0.78455 0.88764 0.33301
 H95 H 0.83786 0.89454 0.29186
 N96 N 0.81740 0.82921 0.37470
 N97 N 0.83432 0.81675 0.37628
 C98 C 0.83133 0.80320 0.39218
 C99 C 0.81152 0.80714 0.40084
 C100 C 0.80322 0.82388 0.38960
 H101 H 0.84245 0.79095 0.39682
 H102 H 0.78770 0.83113 0.39173
 H103 H 0.83391 0.82902 0.33837
 H104 H 0.84702 0.84835 0.35626
 N105 N 0.62303 0.68214 0.33386
 N106 N 0.62142 0.66601 0.32089
 C107 C 0.60330 0.66794 0.30975
 C108 C 0.59288 0.68619 0.31613
 C109 C 0.60599 0.69496 0.33131
 H110 H 0.59839 0.65730 0.29738
 H111 H 0.60372 0.70996 0.33925
 Cu112 Cu 0.64432 0.64537 0.31815
 Cu113 Cu 0.64810 0.68576 0.35178
 Cu114 Cu 0.67607 0.63883 0.35933
 N115 N 0.66665 0.62389 0.31796
 N116 N 0.67926 0.62147 0.33422
 C117 C 0.69343 0.60590 0.33017
 C118 C 0.68969 0.59850 0.31013
 C119 C 0.67245 0.61007 0.30290
 H120 H 0.70563 0.60052 0.34091
 H121 H 0.66495 0.60868 0.28774
 N122 N 0.67810 0.66327 0.37841
 N123 N 0.66851 0.68157 0.37495
 C124 C 0.67515 0.69570 0.38938
 C125 C 0.68989 0.68588 0.40230
 C126 C 0.69092 0.66519 0.39519
 H127 H 0.67004 0.71206 0.39016
 H128 H 0.70091 0.65265 0.40130
 H129 H 0.67035 0.66370 0.33991
 H130 H 0.64681 0.65427 0.35506
 N131 N 0.62453 0.18310 -0.16842
 N132 N 0.62325 0.16737 -0.18190
 C133 C 0.60722 0.17140 -0.19544
 C134 C 0.59837 0.19084 -0.19031
 C135 C 0.60953 0.19765 -0.17292
 H136 H 0.60281 0.16142 -0.20852
 H137 H 0.60733 0.21244 -0.16459
 Cu138 Cu 0.64337 0.14378 -0.18079
 Cu139 Cu 0.64658 0.18463 -0.14710
 Cu140 Cu 0.68059 0.14157 -0.14278
 N141 N 0.66456 0.12115 -0.17984
 N142 N 0.67924 0.12066 -0.16516
 C143 C 0.69200 0.10377 -0.16824
 C144 C 0.68458 0.09252 -0.18542
 C145 C 0.66729 0.10430 -0.19257
 H146 H 0.70539 0.09969 -0.15834
 H147 H 0.65805 0.10140 -0.20657
 N148 N 0.67938 0.16451 -0.12187
 N149 N 0.66651 0.18101 -0.12359
 C150 C 0.66960 0.19401 -0.10713
 C151 C 0.68495 0.18512 -0.09431
 C152 C 0.69102 0.16660 -0.10428
 H153 H 0.66162 0.20906 -0.10482
 H154 H 0.70320 0.15561 -0.09916
 H155 H 0.66936 0.16513 -0.16155
 H156 H 0.64929 0.15221 -0.14422
 N157 N 0.12385 0.68352 -0.16799
 N158 N 0.12471 0.66895 -0.18274
 C159 C 0.10965 0.67314 -0.19722
 C160 C 0.09900 0.69137 -0.19128
 C161 C 0.10826 0.69746 -0.17260
 H162 H 0.10702 0.66411 -0.21138
 H163 H 0.10410 0.71114 -0.16324
 Cu164 Cu 0.14659 0.64702 -0.18220
 Cu165 Cu 0.14320 0.68361 -0.14413
 Cu166 Cu 0.18145 0.64377 -0.14250
 N167 N 0.16833 0.62498 -0.18143
 N168 N 0.18206 0.62396 -0.16589
 C169 C 0.19621 0.60833 -0.16973
 C170 C 0.19117 0.59925 -0.18878
 C171 C 0.17329 0.61001 -0.19570
 H172 H 0.20943 0.60414 -0.15969
 H173 H 0.16509 0.60755 -0.21038
 N174 N 0.17831 0.66536 -0.12039
 N175 N 0.16414 0.68086 -0.12123
 C176 C 0.16705 0.69381 -0.10468
 C177 C 0.18360 0.68586 -0.09266
 C178 C 0.19048 0.66797 -0.10323
 H179 H 0.15838 0.70840 -0.10198
 H180 H 0.20385 0.65798 -0.09899
 H181 H 0.16842 0.66876 -0.15897
 H182 H 0.14944 0.65157 -0.14452
 N183 N 0.12432 0.18048 0.32913
 N184 N 0.12245 0.16284 0.31831
 C185 C 0.10645 0.16496 0.30445
 C186 C 0.09819 0.18525 0.30623
 C187 C 0.10968 0.19453 0.32233
 H188 H 0.10139 0.15271 0.29369
 H189 H 0.10757 0.21037 0.32852
 Cu190 Cu 0.14210 0.13937 0.32187
 Cu191 Cu 0.14487 0.18328 0.35186
 Cu192 Cu 0.18145 0.14235 0.35699
 N193 N 0.16777 0.12219 0.31925
 N194 N 0.18348 0.12371 0.33278
 C195 C 0.19917 0.11016 0.32728
 C196 C 0.19301 0.09980 0.30915
 C197 C 0.17287 0.10763 0.30466
 H198 H 0.21380 0.10776 0.33599
 H199 H 0.16272 0.10306 0.29173
 N200 N 0.18031 0.16658 0.37634
 N201 N 0.16683 0.18252 0.37403
 C202 C 0.16970 0.19637 0.38983
 C203 C 0.18540 0.18852 0.40296
 C204 C 0.19200 0.16978 0.39371
 H205 H 0.16088 0.21100 0.39177
 H206 H 0.20420 0.15912 0.39944
 H207 H 0.16720 0.16389 0.33771
 H208 H 0.14934 0.15169 0.35755
 N209 N 0.62317 0.32139 0.66877
 N210 N 0.62083 0.33922 0.67921
 C211 C 0.60505 0.33703 0.69326
 C212 C 0.59747 0.31650 0.69205
 C213 C 0.60908 0.30714 0.67603
 H214 H 0.59977 0.34936 0.70386
 H215 H 0.60765 0.29102 0.67043
 Cu216 Cu 0.63985 0.36301 0.67516
 Cu217 Cu 0.64451 0.31818 0.64672
 Cu218 Cu 0.68290 0.35732 0.64431
 N219 N 0.66415 0.38190 0.67742
 N220 N 0.68089 0.37962 0.66525
 C221 C 0.69588 0.39371 0.67091
 C222 C 0.68827 0.40520 0.68777
 C223 C 0.66794 0.39754 0.69131
 H224 H 0.71146 0.39505 0.66376
 H225 H 0.65712 0.40237 0.70362
 N226 N 0.68206 0.33328 0.62471
 N227 N 0.66748 0.31826 0.62554
 C228 C 0.67160 0.30385 0.61044
 C229 C 0.68982 0.31000 0.59994
 C230 C 0.69589 0.32879 0.60924
 H231 H 0.66239 0.28968 0.60758
 H232 H 0.70959 0.33828 0.60515
 H233 H 0.66562 0.33695 0.66314
 H234 H 0.65073 0.34970 0.64105
 N235 N 0.62715 0.81615 1.16762
 N236 N 0.62780 0.83045 1.18260
 C237 C 0.61364 0.82523 1.19754
 C238 C 0.60370 0.80664 1.19161
 C239 C 0.61244 0.80147 1.17241
 H240 H 0.61076 0.83414 1.21173
 H241 H 0.60847 0.78798 1.16273
 Cu242 Cu 0.64773 0.85392 1.18120
 Cu243 Cu 0.64575 0.81736 1.14320
 Cu244 Cu 0.68187 0.85892 1.14141
 N245 N 0.66800 0.87712 1.18042
 N246 N 0.68155 0.87873 1.16484
 C247 C 0.69492 0.89492 1.16862
 C248 C 0.68950 0.90382 1.18763
 C249 C 0.67234 0.89226 1.19472
 H250 H 0.70817 0.89934 1.15877
 H251 H 0.66430 0.89422 1.20954
 N252 N 0.67965 0.83729 1.11924
 N253 N 0.66594 0.82147 1.11991
 C254 C 0.66893 0.80903 1.10300
 C255 C 0.68509 0.81755 1.09102
 C256 C 0.69167 0.83531 1.10190
 H257 H 0.66056 0.79439 1.09996
 H258 H 0.70460 0.84572 1.09766
 H259 H 0.67034 0.83327 1.15782
 H260 H 0.65033 0.84969 1.14351
 N261 N 0.12579 0.31327 1.16309
 N262 N 0.12708 0.32558 1.17965
 C263 C 0.11226 0.31956 1.19363
 C264 C 0.10134 0.30240 1.18548
 C265 C 0.11011 0.29908 1.16592
 H266 H 0.10956 0.32701 1.20864
 H267 H 0.10539 0.28721 1.15460
 Cu268 Cu 0.14753 0.34866 1.18083
 Cu269 Cu 0.14505 0.31587 1.13943
 Cu270 Cu 0.18183 0.35671 1.14123
 N271 N 0.16812 0.37161 1.18159
 N272 N 0.18111 0.37496 1.16584
 C273 C 0.19275 0.39239 1.16978
 C274 C 0.18649 0.40062 1.18887
 C275 C 0.17110 0.38682 1.19611
 H276 H 0.20469 0.39884 1.15942
 H277 H 0.16260 0.38796 1.21075
 N278 N 0.18002 0.33647 1.11775
 N279 N 0.16593 0.32099 1.11708
 C280 C 0.16920 0.30942 1.09965
 C281 C 0.18594 0.31817 1.08865
 C282 C 0.19260 0.33513 1.10072
 H283 H 0.16066 0.29512 1.09562
 H284 H 0.20598 0.34538 1.09751
 H285 H 0.16997 0.33000 1.15559
 H286 H 0.15020 0.34803 1.14285
 N287 N 0.12611 0.81516 0.66525
 N288 N 0.12657 0.82887 0.68075
 C289 C 0.11064 0.82451 0.69416
 C290 C 0.09990 0.80695 0.68679
 C291 C 0.10998 0.80150 0.66833
 H292 H 0.10750 0.83298 0.70856
 H293 H 0.10615 0.78828 0.65822
 Cu294 Cu 0.14868 0.85027 0.68297
 Cu295 Cu 0.14719 0.81531 0.64297
 Cu296 Cu 0.18356 0.85639 0.64330
 N297 N 0.16765 0.87446 0.68143
 N298 N 0.18092 0.87707 0.66577
 C299 C 0.19206 0.89500 0.66886
 C300 C 0.18525 0.90426 0.68735
 C301 C 0.16998 0.89058 0.69505
 H302 H 0.20445 0.90076 0.65862
 H303 H 0.16157 0.89204 0.70973
 N304 N 0.18366 0.83385 0.62196
 N305 N 0.16975 0.81820 0.62179
 C306 C 0.17455 0.80485 0.60599
 C307 C 0.19251 0.81230 0.59598
 C308 C 0.19774 0.83081 0.60632
 H309 H 0.16618 0.79032 0.60247
 H310 H 0.21120 0.84094 0.60302
 H311 H 0.17159 0.83041 0.65898
 H312 H 0.15175 0.84770 0.64520
 N313 N 0.36700 0.68824 0.67412
 N314 N 0.36809 0.67220 0.68710
 C315 C 0.38436 0.67543 0.70052
 C316 C 0.39379 0.69456 0.69571
 C317 C 0.38255 0.70216 0.67874
 H318 H 0.38894 0.66483 0.71298
 H319 H 0.38515 0.71696 0.67071
 Cu320 Cu 0.34757 0.64915 0.68586
 Cu321 Cu 0.34477 0.69059 0.65311
 Cu322 Cu 0.31356 0.64608 0.64500
 N323 N 0.32824 0.62537 0.68222
 N324 N 0.31500 0.62426 0.66629
 C325 C 0.30318 0.60659 0.66797
 C326 C 0.30961 0.59590 0.68570
 C327 C 0.32538 0.60835 0.69449
 H328 H 0.29064 0.60195 0.65728
 H329 H 0.33374 0.60541 0.70899
 N330 N 0.31429 0.67002 0.62544
 N331 N 0.32583 0.68714 0.62884
 C332 C 0.32306 0.70062 0.61284
 C333 C 0.30935 0.69143 0.59854
 C334 C 0.30382 0.67220 0.60716
 H335 H 0.33054 0.71596 0.61157
 H336 H 0.29310 0.66063 0.60045
 H337 H 0.32203 0.66977 0.66506
 H338 H 0.34423 0.65824 0.64913
 N339 N 0.37496 0.18134 1.16793
 N340 N 0.37395 0.16717 1.18287
 C341 C 0.39075 0.16975 1.19580
 C342 C 0.40299 0.18631 1.18843
 C343 C 0.39234 0.19345 1.17088
 H344 H 0.39362 0.16063 1.20980
 H345 H 0.39676 0.20672 1.16121
 Cu346 Cu 0.35042 0.14724 1.18456
 Cu347 Cu 0.35313 0.18380 1.14644
 Cu348 Cu 0.31401 0.14534 1.14560
 N349 N 0.33056 0.12381 1.18167
 N350 N 0.31631 0.12318 1.16657
 C351 C 0.30439 0.10564 1.16868
 C352 C 0.31176 0.09450 1.18581
 C353 C 0.32823 0.10663 1.19383
 H354 H 0.29118 0.10134 1.15864
 H355 H 0.33749 0.10339 1.20774
 N356 N 0.31457 0.16910 1.12574
 N357 N 0.32966 0.18364 1.12598
 C358 C 0.32550 0.19799 1.11102
 C359 C 0.30672 0.19242 1.10113
 C360 C 0.30037 0.17386 1.11060
 H361 H 0.33519 0.21168 1.10766
 H362 H 0.28618 0.16484 1.10699
 H363 H 0.32821 0.16962 1.16223
 H364 H 0.34636 0.15169 1.14702
 N365 N 0.87316 0.68185 1.16990
 N366 N 0.87041 0.66914 1.18585
 C367 C 0.88639 0.67197 1.19964
 C368 C 0.90016 0.68702 1.19173
 C369 C 0.89108 0.69317 1.17296
 H370 H 0.88774 0.66396 1.21449
 H371 H 0.89689 0.70526 1.16252
 Cu372 Cu 0.84643 0.64995 1.18711
 Cu373 Cu 0.85223 0.68410 1.14744
 Cu374 Cu 0.80843 0.65062 1.15018
 N375 N 0.82756 0.62606 1.18278
 N376 N 0.81246 0.62639 1.16852
 C377 C 0.80078 0.60861 1.17005
 C378 C 0.80933 0.59628 1.18588
 C379 C 0.82619 0.60799 1.19370
 H380 H 0.78661 0.60532 1.16092
 H381 H 0.83629 0.60393 1.20683
 N382 N 0.81201 0.67177 1.12799
 N383 N 0.82892 0.68412 1.12663
 C384 C 0.82623 0.69739 1.11043
 C385 C 0.80664 0.69333 1.10136
 C386 C 0.79818 0.67678 1.11262
 H387 H 0.83726 0.70969 1.10597
 H388 H 0.78279 0.66945 1.11020
 H389 H 0.82653 0.67441 1.16445
 H390 H 0.84091 0.65325 1.14967
 N391 N 0.87481 0.18396 0.66537
 N392 N 0.87435 0.17019 0.68073
 C393 C 0.88955 0.17525 0.69481
 C394 C 0.89981 0.19329 0.68801
 C395 C 0.89027 0.19822 0.66915
 H396 H 0.89242 0.16702 0.70932
 H397 H 0.89386 0.21161 0.65929
 Cu398 Cu 0.85265 0.14824 0.68131
 Cu399 Cu 0.85392 0.18379 0.64269
 Cu400 Cu 0.81464 0.14515 0.64473
 N401 N 0.83054 0.12674 0.68279
 N402 N 0.81568 0.12574 0.66828
 C403 C 0.80159 0.11058 0.67330
 C404 C 0.80783 0.10175 0.69205
 C405 C 0.82642 0.11213 0.69753
 H406 H 0.78754 0.10660 0.66428
 H407 H 0.83574 0.10967 0.71156
 N408 N 0.81633 0.16624 0.62221
 N409 N 0.83129 0.18091 0.62135
 C410 C 0.82703 0.19390 0.60521
 C411 C 0.80842 0.18723 0.59572
 C412 C 0.80221 0.16953 0.60668
 H413 H 0.83606 0.20790 0.60132
 H414 H 0.78787 0.16040 0.60406
 H415 H 0.82957 0.17020 0.65965
 H416 H 0.84679 0.15204 0.64393
 N417 N 0.31485 0.37582 0.66343
 N418 N 0.33140 0.37851 0.67579
 C419 C 0.32710 0.39414 0.68952
 C420 C 0.30664 0.40143 0.68572
 C421 C 0.29943 0.38967 0.66885
 H422 H 0.33780 0.39942 0.70174
 H423 H 0.28402 0.39095 0.66129
 Cu424 Cu 0.35645 0.36054 0.67384
 Cu425 Cu 0.31436 0.35405 0.64182
 Cu426 Cu 0.35404 0.31599 0.64475
 N427 N 0.37611 0.33724 0.67810
 N428 N 0.37455 0.31943 0.66752
 C429 C 0.38906 0.30555 0.67493
 C430 C 0.40007 0.31514 0.69120
 C431 C 0.39173 0.33542 0.69240
 H432 H 0.39128 0.28958 0.66914
 H433 H 0.39645 0.34785 0.70312
 N434 N 0.33187 0.31592 0.62280
 N435 N 0.31690 0.33064 0.62161
 C436 C 0.30483 0.32702 0.60458
 C437 C 0.31277 0.30937 0.59436
 C438 C 0.32969 0.30250 0.60650
 H439 H 0.29128 0.33654 0.59986
 H440 H 0.33990 0.28899 0.60341
 H441 H 0.33200 0.33399 0.66083
 H442 H 0.34699 0.34747 0.63931
 N443 N 0.31499 0.87024 0.16836
 N444 N 0.33107 0.87286 0.18133
 C445 C 0.32617 0.88842 0.19498
 C446 C 0.30590 0.89583 0.19045
 C447 C 0.29936 0.88410 0.17329
 H448 H 0.33651 0.89403 0.20734
 H449 H 0.28451 0.88582 0.16481
 Cu450 Cu 0.35695 0.85579 0.17935
 Cu451 Cu 0.31579 0.84950 0.14573
 Cu452 Cu 0.36156 0.81881 0.14160
 N453 N 0.38170 0.83707 0.17767
 N454 N 0.38337 0.82268 0.16287
 C455 C 0.40116 0.81112 0.16607
 C456 C 0.41145 0.81886 0.18362
 C457 C 0.39848 0.83519 0.19073
 H458 H 0.40574 0.79739 0.15693
 H459 H 0.40080 0.84450 0.20477
 N460 N 0.33775 0.81699 0.12163
 N461 N 0.31981 0.82780 0.12376
 C462 C 0.30598 0.82151 0.10880
 C463 C 0.31566 0.80589 0.09683
 C464 C 0.33597 0.80388 0.10511
 H465 H 0.28990 0.82754 0.10693
 H466 H 0.34840 0.79330 0.09967
 H467 H 0.33652 0.82898 0.16052
 H468 H 0.34842 0.84911 0.14271
 N469 N 0.81347 0.37200 0.16689
 N470 N 0.82892 0.37294 0.18079
 C471 C 0.82444 0.38842 0.19467
 C472 C 0.80505 0.39739 0.18931
 C473 C 0.79864 0.38677 0.17147
 H474 H 0.83432 0.39273 0.20787
 H475 H 0.78429 0.38967 0.16249
 Cu476 Cu 0.85313 0.35354 0.17973
 Cu477 Cu 0.81372 0.35185 0.14387
 Cu478 Cu 0.85542 0.31575 0.14239
 N479 N 0.87603 0.33263 0.17895
 N480 N 0.87661 0.31773 0.16456
 C481 C 0.89381 0.30533 0.16780
 C482 C 0.90485 0.31308 0.18492
 C483 C 0.89291 0.33022 0.19182
 H484 H 0.89789 0.29153 0.15855
 H485 H 0.89632 0.34011 0.20523
 N486 N 0.83249 0.31641 0.12130
 N487 N 0.81671 0.33031 0.12177
 C488 C 0.80400 0.32710 0.10506
 C489 C 0.81235 0.31056 0.09342
 C490 C 0.83021 0.30395 0.10431
 H491 H 0.78962 0.33597 0.10164
 H492 H 0.84081 0.29112 0.09998
 H493 H 0.83099 0.32900 0.15980
 H494 H 0.84645 0.34727 0.14265
 N495 N 0.81646 0.87768 0.66635
 N496 N 0.83034 0.87592 0.68168
 C497 C 0.82809 0.89257 0.69474
 C498 C 0.81207 0.90552 0.68703
 C499 C 0.80487 0.89544 0.66917
 H500 H 0.83708 0.89487 0.70901
 H501 H 0.79206 0.90065 0.65906
 Cu502 Cu 0.84952 0.85176 0.68362
 Cu503 Cu 0.81449 0.85693 0.64386
 Cu504 Cu 0.85257 0.81708 0.64356
 N505 N 0.87268 0.83129 0.68142
 N506 N 0.87361 0.81755 0.66595
 C507 C 0.89088 0.80507 0.66850
 C508 C 0.90153 0.81157 0.68632
 C509 C 0.88941 0.82809 0.69428
 H510 H 0.89547 0.79226 0.65815
 H511 H 0.89244 0.83692 0.70849
 N512 N 0.82995 0.81935 0.62230
 N513 N 0.81534 0.83447 0.62243
 C514 C 0.80224 0.83173 0.60592
 C515 C 0.80917 0.81424 0.59472
 C516 C 0.82656 0.80663 0.60570
 H517 H 0.78851 0.84153 0.60242
 H518 H 0.83600 0.79280 0.60181
 H519 H 0.82749 0.83124 0.65940
 H520 H 0.84658 0.84926 0.64582
 N521 N 0.68447 0.62701 0.66830
 N522 N 0.67005 0.62755 0.68320
 C523 C 0.67286 0.61071 0.69574
 C524 C 0.68985 0.59889 0.68818
 C525 C 0.69701 0.60985 0.67092
 H526 H 0.66349 0.60743 0.70953
 H527 H 0.71036 0.60561 0.66103
 Cu528 Cu 0.64915 0.65031 0.68520
 Cu529 Cu 0.68601 0.64868 0.64680
 Cu530 Cu 0.64521 0.68572 0.64614
 N531 N 0.62452 0.66894 0.68251
 N532 N 0.62302 0.68269 0.66721
 C533 C 0.60488 0.69394 0.66950
 C534 C 0.59429 0.68673 0.68703
 C535 C 0.60737 0.67100 0.69505
 H536 H 0.59989 0.70675 0.65942
 H537 H 0.60490 0.66222 0.70931
 N538 N 0.66913 0.68610 0.62616
 N539 N 0.68467 0.67191 0.62635
 C540 C 0.69864 0.67646 0.61104
 C541 C 0.69172 0.69453 0.60096
 C542 C 0.67286 0.70008 0.61077
 H543 H 0.71299 0.66754 0.60759
 H544 H 0.66267 0.71337 0.60692
 H545 H 0.67060 0.67290 0.66263
 H546 H 0.65341 0.65394 0.64767
 N547 N 0.68446 0.12329 0.16544
 N548 N 0.66944 0.12284 0.17977
 C549 C 0.67413 0.10753 0.19367
 C550 C 0.69322 0.09812 0.18785
 C551 C 0.69911 0.10826 0.16967
 H552 H 0.66483 0.10399 0.20743
 H553 H 0.71336 0.10531 0.16056
 Cu554 Cu 0.64593 0.14315 0.17990
 Cu555 Cu 0.68514 0.14462 0.14368
 Cu556 Cu 0.64547 0.18278 0.14464
 N557 N 0.62449 0.16559 0.18057
 N558 N 0.62438 0.18089 0.16671
 C559 C 0.60889 0.19487 0.17154
 C560 C 0.59895 0.18816 0.18955
 C561 C 0.60900 0.16938 0.19474
 H562 H 0.60557 0.20929 0.16305
 H563 H 0.60587 0.15976 0.20832
 N564 N 0.66814 0.18214 0.12346
 N565 N 0.68323 0.16751 0.12300
 C566 C 0.69706 0.17208 0.10756
 C567 C 0.69050 0.19063 0.09814
 C568 C 0.67197 0.19642 0.10837
 H569 H 0.71133 0.16312 0.10393
 H570 H 0.66236 0.21034 0.10536
 H571 H 0.66929 0.16738 0.16129
 H572 H 0.65272 0.15087 0.14315
 N573 N 0.18503 0.62611 0.16811
 N574 N 0.17206 0.62876 0.18404
 C575 C 0.17473 0.61268 0.19751
 C576 C 0.19000 0.59907 0.18944
 C577 C 0.19644 0.60823 0.17092
 H578 H 0.16623 0.61102 0.21211
 H579 H 0.20840 0.60220 0.16024
 Cu580 Cu 0.15257 0.65260 0.18575
 Cu581 Cu 0.18608 0.64616 0.14515
 Cu582 Cu 0.14618 0.68413 0.14385
 N583 N 0.12772 0.67064 0.18255
 N584 N 0.12504 0.68275 0.16610
 C585 C 0.10654 0.69350 0.16811
 C586 C 0.09704 0.68756 0.18668
 C587 C 0.11109 0.67327 0.19558
 H588 H 0.10049 0.70492 0.15701
 H589 H 0.10952 0.66566 0.21060
 N590 N 0.16923 0.68266 0.12295
 N591 N 0.18431 0.66800 0.12338
 C592 C 0.19840 0.67182 0.10802
 C593 C 0.19210 0.68995 0.09769
 C594 C 0.17338 0.69625 0.10731
 H595 H 0.21267 0.66260 0.10502
 H596 H 0.16407 0.71024 0.10376
 H597 H 0.17245 0.67237 0.15972
 H598 H 0.15372 0.65256 0.14788
 N599 N 0.18519 0.12736 0.67055
 N600 N 0.17099 0.12852 0.68563
 C601 C 0.17405 0.11222 0.69880
 C602 C 0.19081 0.10004 0.69139
 C603 C 0.19774 0.11028 0.67361
 H604 H 0.16475 0.10930 0.71270
 H605 H 0.21074 0.10545 0.66353
 Cu606 Cu 0.14932 0.15064 0.68642
 Cu607 Cu 0.18613 0.14795 0.64800
 Cu608 Cu 0.14754 0.18736 0.64857
 N609 N 0.12703 0.17218 0.68564
 N610 N 0.12658 0.18651 0.67082
 C611 C 0.11021 0.19989 0.67424
 C612 C 0.09996 0.19373 0.69228
 C613 C 0.11084 0.17596 0.69904
 H614 H 0.10629 0.21341 0.66464
 H615 H 0.10757 0.16697 0.71301
 N616 N 0.16999 0.18560 0.62726
 N617 N 0.18444 0.17034 0.62666
 C618 C 0.19687 0.17309 0.60970
 C619 C 0.18968 0.19076 0.59905
 C620 C 0.17294 0.19851 0.61086
 H621 H 0.21006 0.16294 0.60527
 H622 H 0.16359 0.21256 0.60765
 H623 H 0.17227 0.17244 0.66456
 H624 H 0.15401 0.15511 0.64896
 N625 N 0.31681 0.62347 0.32984
 N626 N 0.33058 0.62477 0.31441
 C627 C 0.32775 0.60813 0.30143
 C628 C 0.31152 0.59569 0.30933
 C629 C 0.30480 0.60605 0.32722
 H630 H 0.33644 0.60547 0.28706
 H631 H 0.29198 0.60129 0.33746
 Cu632 Cu 0.35041 0.64845 0.31268
 Cu633 Cu 0.31516 0.64449 0.35212
 Cu634 Cu 0.35093 0.68611 0.34992
 N635 N 0.37063 0.67186 0.31182
 N636 N 0.37064 0.68645 0.32654
 C637 C 0.38573 0.70088 0.32231
 C638 C 0.39551 0.69530 0.30376
 C639 C 0.38579 0.67660 0.29766
 H640 H 0.38937 0.71448 0.33200
 H641 H 0.38938 0.66737 0.28382
 N642 N 0.32979 0.68307 0.37236
 N643 N 0.31605 0.66730 0.37319
 C644 C 0.30384 0.66968 0.39037
 C645 C 0.31048 0.68760 0.40094
 C646 C 0.32672 0.69585 0.38896
 H647 H 0.29118 0.65912 0.39502
 H648 H 0.33553 0.71020 0.39214
 H649 H 0.32688 0.66949 0.33498
 H650 H 0.34670 0.65365 0.35023
 N651 N 0.31876 0.12156 0.83399
 N652 N 0.33321 0.12227 0.81912
 C653 C 0.33026 0.10575 0.80603
 C654 C 0.31328 0.09390 0.81328
 C655 C 0.30616 0.10462 0.83085
 H656 H 0.33975 0.10245 0.79230
 H657 H 0.29263 0.10050 0.84048
 Cu658 Cu 0.35458 0.14464 0.81857
 Cu659 Cu 0.31732 0.14253 0.85641
 Cu660 Cu 0.35195 0.18494 0.85286
 N661 N 0.37517 0.16775 0.81793
 N662 N 0.37407 0.18333 0.83161
 C663 C 0.38925 0.19765 0.82730
 C664 C 0.40030 0.19088 0.80983
 C665 C 0.39117 0.17171 0.80441
 H666 H 0.39165 0.21230 0.83580
 H667 H 0.39533 0.16189 0.79113
 N668 N 0.33168 0.18158 0.87610
 N669 N 0.31842 0.16545 0.87745
 C670 C 0.30667 0.16766 0.89496
 C671 C 0.31312 0.18583 0.90527
 C672 C 0.32882 0.19439 0.89275
 H673 H 0.29430 0.15691 0.89992
 H674 H 0.33729 0.20903 0.89550
 H675 H 0.32900 0.16621 0.83811
 H676 H 0.34883 0.15257 0.85533
 N677 N 0.81635 0.62670 0.83231
 N678 N 0.82958 0.62846 0.81649
 C679 C 0.82671 0.61199 0.80335
 C680 C 0.81093 0.59918 0.81149
 C681 C 0.80453 0.60912 0.82972
 H682 H 0.83520 0.60964 0.78881
 H683 H 0.79222 0.60387 0.84031
 Cu684 Cu 0.84888 0.65237 0.81424
 Cu685 Cu 0.81563 0.64713 0.85517
 Cu686 Cu 0.85367 0.68678 0.85434
 N687 N 0.87218 0.67257 0.81566
 N688 N 0.87375 0.68627 0.83111
 C689 C 0.89110 0.69840 0.82810
 C690 C 0.90111 0.69171 0.80999
 C691 C 0.88855 0.67544 0.80236
 H692 H 0.89627 0.71097 0.83844
 H693 H 0.89110 0.66649 0.78812
 N694 N 0.83199 0.68445 0.87651
 N695 N 0.81756 0.66927 0.87686
 C696 C 0.80534 0.67172 0.89401
 C697 C 0.81262 0.68905 0.90514
 C698 C 0.82932 0.69694 0.89344
 H699 H 0.79212 0.66164 0.89822
 H700 H 0.83863 0.71090 0.89692
 H701 H 0.82792 0.67287 0.83946
 H702 H 0.84758 0.65467 0.85216
 N703 N 0.81862 0.12265 0.33389
 N704 N 0.83339 0.12346 0.31934
 C705 C 0.83147 0.10639 0.30679
 C706 C 0.81473 0.09417 0.31396
 C707 C 0.80674 0.10517 0.33099
 H708 H 0.84131 0.10314 0.29327
 H709 H 0.79294 0.10104 0.34023
 Cu710 Cu 0.85327 0.14705 0.31782
 Cu711 Cu 0.81564 0.14437 0.35535
 Cu712 Cu 0.85045 0.18664 0.35280
 N713 N 0.87375 0.17023 0.31778
 N714 N 0.87301 0.18533 0.33197
 C715 C 0.88841 0.19957 0.32801
 C716 C 0.89907 0.19331 0.31007
 C717 C 0.88959 0.17444 0.30422
 H718 H 0.89128 0.21371 0.33716
 H719 H 0.89356 0.16490 0.29069
 N720 N 0.82887 0.18390 0.37496
 N721 N 0.81531 0.16795 0.37562
 C722 C 0.80158 0.17116 0.39151
 C723 C 0.80675 0.19001 0.40122
 C724 C 0.82423 0.19759 0.39053
 H725 H 0.78847 0.16086 0.39549
 H726 H 0.83239 0.21237 0.39346
 H727 H 0.82757 0.16834 0.33754
 H728 H 0.84710 0.15419 0.35466
 N729 N 0.68076 0.37849 0.33340
 N730 N 0.66561 0.37813 0.31914
 C731 C 0.66941 0.39340 0.30498
 C732 C 0.68801 0.40364 0.31063
 C733 C 0.69466 0.39397 0.32884
 H734 H 0.65999 0.39625 0.29109
 H735 H 0.70901 0.39743 0.33762
 Cu736 Cu 0.64384 0.35629 0.31984
 Cu737 Cu 0.68261 0.35764 0.35576
 Cu738 Cu 0.64401 0.31825 0.35604
 N739 N 0.62265 0.33389 0.31925
 N740 N 0.62285 0.31908 0.33364
 C741 C 0.60772 0.30469 0.32915
 C742 C 0.59773 0.31065 0.31083
 C743 C 0.60738 0.32938 0.30507
 H744 H 0.60469 0.29055 0.33812
 H745 H 0.60407 0.33845 0.29114
 N746 N 0.66685 0.32024 0.37723
 N747 N 0.68163 0.33511 0.37701
 C748 C 0.69569 0.33138 0.39251
 C749 C 0.68955 0.31324 0.40282
 C750 C 0.67110 0.30672 0.39294
 H751 H 0.70973 0.34076 0.39577
 H752 H 0.66201 0.29267 0.39647
 H753 H 0.66772 0.33339 0.33960
 H754 H 0.65058 0.35015 0.35682
 N755 N 0.68441 0.87526 0.83101
 N756 N 0.66958 0.87487 0.81645
 C757 C 0.67357 0.89025 0.80248
 C758 C 0.69200 0.90055 0.80851
 C759 C 0.69832 0.89085 0.82681
 H760 H 0.66440 0.89318 0.78846
 H761 H 0.71240 0.89442 0.83595
 Cu762 Cu 0.64795 0.85288 0.81604
 Cu763 Cu 0.68585 0.85438 0.85322
 Cu764 Cu 0.64724 0.81519 0.85297
 N765 N 0.62648 0.83075 0.81599
 N766 N 0.62635 0.81604 0.83047
 C767 C 0.61101 0.80187 0.82601
 C768 C 0.60122 0.80788 0.80761
 C769 C 0.61117 0.82641 0.80181
 H770 H 0.60760 0.78790 0.83510
 H771 H 0.60800 0.83551 0.78788
 N772 N 0.66977 0.81705 0.87437
 N773 N 0.68457 0.83188 0.87436
 C774 C 0.69857 0.82796 0.88986
 C775 C 0.69238 0.80969 0.89990
 C776 C 0.67393 0.80333 0.88993
 H777 H 0.71262 0.83726 0.89325
 H778 H 0.66483 0.78923 0.89323
 H779 H 0.67134 0.83014 0.83671
 H780 H 0.65375 0.84720 0.85327
 N781 N 0.18255 0.37771 0.83367
 N782 N 0.16689 0.37818 0.81998
 C783 C 0.17043 0.39399 0.80635
 C784 C 0.18943 0.40369 0.81171
 C785 C 0.19653 0.39317 0.82928
 H786 H 0.16056 0.39754 0.79293
 H787 H 0.21126 0.39602 0.83766
 Cu788 Cu 0.14436 0.35700 0.81996
 Cu789 Cu 0.18496 0.35592 0.85480
 Cu790 Cu 0.14694 0.31646 0.85420
 N791 N 0.12422 0.33359 0.81915
 N792 N 0.12525 0.31794 0.83259
 C793 C 0.11022 0.30354 0.82784
 C794 C 0.09940 0.31036 0.81029
 C795 C 0.10845 0.32962 0.80534
 H796 H 0.10764 0.28893 0.83620
 H797 H 0.10431 0.33958 0.79223
 N798 N 0.17014 0.31760 0.87488
 N799 N 0.18478 0.33257 0.87497
 C800 C 0.19924 0.32828 0.88997
 C801 C 0.19349 0.30963 0.89959
 C802 C 0.17484 0.30343 0.88988
 H803 H 0.21318 0.33772 0.89342
 H804 H 0.16584 0.28923 0.89307
 H805 H 0.16939 0.33307 0.83714
 H806 H 0.15286 0.34856 0.85623
 N807 N 0.18163 0.87925 0.33434
 N808 N 0.16677 0.87908 0.31982
 C809 C 0.16950 0.89591 0.30726
 C810 C 0.18680 0.90736 0.31447
 C811 C 0.19428 0.89618 0.33153
 H812 H 0.16007 0.89927 0.29349
 H813 H 0.20811 0.89996 0.34095
 Cu814 Cu 0.14585 0.85647 0.31811
 Cu815 Cu 0.18387 0.85715 0.35532
 Cu816 Cu 0.14725 0.81622 0.35250
 N817 N 0.12613 0.83285 0.31621
 N818 N 0.12660 0.81726 0.32976
 C819 C 0.11171 0.80288 0.32447
 C820 C 0.10162 0.80968 0.30647
 C821 C 0.11095 0.82887 0.30181
 H822 H 0.10873 0.78831 0.33276
 H823 H 0.10704 0.83902 0.28878
 N824 N 0.16943 0.81798 0.37432
 N825 N 0.18356 0.83342 0.37518
 C826 C 0.19741 0.82949 0.39082
 C827 C 0.19179 0.81064 0.40012
 C828 C 0.17387 0.80387 0.38948
 H829 H 0.21093 0.83928 0.39488
 H830 H 0.16527 0.78931 0.39212
 H831 H 0.17036 0.83345 0.33716
 H832 H 0.15204 0.84845 0.35491
 O833 O 0.27547 0.97625 0.24604
 O834 O 0.25107 1.02154 0.27361
 O835 O 0.24811 0.98041 0.27621
 O836 O 0.27859 1.01748 0.24372
 O837 O 0.25235 1.01800 0.22067
 O838 O 0.22179 0.98098 0.25322
 O839 O 0.22472 1.02194 0.25062
 O840 O 0.24908 0.97661 0.22311
 Cu841 Cu 0.26597 0.99885 0.26218
 Cu842 Cu 0.23439 0.99943 0.23453
 C843 C 0.26616 0.96843 0.23017
 C844 C 0.23389 1.02962 0.26663
 C845 C 0.22973 0.97441 0.27028
 C846 C 0.27061 1.02422 0.22676
 O847 O 0.22162 0.48050 0.75317
 O848 O 0.25007 0.51993 0.72145
 O849 O 0.24809 0.47874 0.72253
 O850 O 0.22296 0.52215 0.75220
 O851 O 0.24970 0.52161 0.77472
 O852 O 0.27517 0.47863 0.74473
 O853 O 0.27671 0.51959 0.74406
 O854 O 0.24862 0.47993 0.77541
 Cu855 Cu 0.23289 0.50051 0.73517
 Cu856 Cu 0.26515 0.50000 0.76210
 C857 C 0.23079 0.47281 0.76915
 C858 C 0.26837 0.52631 0.72727
 C859 C 0.26571 0.47105 0.72882
 C860 C 0.23229 0.52960 0.76823
 O861 O 0.72656 0.02186 0.24683
 O862 O 0.75177 -0.02174 0.27595
 O863 O 0.75479 0.01941 0.27686
 O864 O 0.72438 -0.01973 0.24617
 O865 O 0.75055 -0.02107 0.22306
 O866 O 0.78066 0.01833 0.25348
 O867 O 0.77783 -0.02299 0.25277
 O868 O 0.75247 0.02046 0.22351
 Cu869 Cu 0.73672 0.00029 0.26374
 Cu870 Cu 0.76797 -0.00125 0.23584
 C871 C 0.73538 0.02882 0.23040
 C872 C 0.76860 -0.03039 0.26881
 C873 C 0.77299 0.02540 0.27050
 C874 C 0.73282 -0.02777 0.22992
 O875 O 0.75047 0.48043 0.77679
 O876 O 0.72324 0.52249 0.74730
 O877 O 0.72258 0.48130 0.74737
 O878 O 0.75186 0.52194 0.77723
 O879 O 0.77753 0.52125 0.75366
 O880 O 0.74856 0.48044 0.72401
 O881 O 0.74889 0.52176 0.72369
 O882 O 0.77628 0.47968 0.75331
 Cu883 Cu 0.73451 0.50186 0.76459
 Cu884 Cu 0.76547 0.50098 0.73635
 C885 C 0.76742 0.47214 0.76949
 C886 C 0.73115 0.52897 0.73025
 C887 C 0.73100 0.47344 0.73103
 C888 C 0.76979 0.52841 0.77060
 O889 O 0.27506 0.51805 0.25235
 O890 O 0.24339 0.47823 0.22397
 O891 O 0.24526 0.51941 0.22384
 O892 O 0.27310 0.47664 0.25200
 O893 O 0.24842 0.47778 0.27663
 O894 O 0.22082 0.52067 0.24859
 O895 O 0.21897 0.47923 0.24870
 O896 O 0.25056 0.51920 0.27709
 Cu897 Cu 0.26171 0.49806 0.23561
 Cu898 Cu 0.23226 0.49948 0.26526
 C899 C 0.26824 0.52539 0.26961
 C900 C 0.22584 0.47174 0.23153
 C901 C 0.22813 0.52719 0.23129
 C902 C 0.26509 0.46950 0.26875
 O903 O 0.75031 1.02372 0.72533
 O904 O 0.72416 0.97868 0.75096
 O905 O 0.72129 1.01973 0.75376
 O906 O 0.75290 0.98238 0.72219
 O907 O 0.77829 0.98254 0.74615
 O908 O 0.74606 1.01915 0.77825
 O909 O 0.74971 0.97826 0.77482
 O910 O 0.77536 1.02378 0.74968
 Cu911 Cu 0.73469 1.00118 0.73557
 Cu912 Cu 0.76493 1.00102 0.76462
 C913 C 0.76701 1.03170 0.73340
 C914 C 0.73275 0.97056 0.76704
 C915 C 0.72807 1.02559 0.77155
 C916 C 0.77087 0.97590 0.72885
 O917 O 0.77480 0.47780 0.24468
 O918 O 0.74882 0.52100 0.27406
 O919 O 0.74760 0.47940 0.27464
 O920 O 0.77671 0.51898 0.24403
 O921 O 0.75071 0.51935 0.22073
 O922 O 0.72111 0.48020 0.25182
 O923 O 0.72277 0.52187 0.25083
 O924 O 0.74827 0.47808 0.22188
 Cu925 Cu 0.76456 0.49938 0.26173
 Cu926 Cu 0.73302 0.50010 0.23405
 C927 C 0.76553 0.47008 0.22873
 C928 C 0.73167 0.52918 0.26716
 C929 C 0.72988 0.47238 0.26796
 C930 C 0.76881 0.52577 0.22705
 O931 O 0.24389 -0.02021 0.72435
 O932 O 0.27665 0.01793 0.75395
 O933 O 0.27355 -0.02377 0.75213
 O934 O 0.24707 0.02074 0.72534
 O935 O 0.22244 0.02152 0.74996
 O936 O 0.24942 -0.02235 0.77720
 O937 O 0.25211 0.01902 0.77866
 O938 O 0.21985 -0.01980 0.74943
 Cu939 Cu 0.26288 -0.00132 0.73657
 Cu940 Cu 0.23358 -0.00012 0.76634
 C941 C 0.22632 -0.02672 0.73188
 C942 C 0.26990 0.02503 0.77134
 C943 C 0.26549 -0.03120 0.76875
 C944 C 0.22994 0.02840 0.73285
 O945 O 0.25424 0.22227 0.98120
 O946 O 0.22353 0.25616 1.01730
 O947 O 0.22598 0.25197 0.97700
 O948 O 0.25135 0.22579 1.02198
 O949 O 0.27703 0.24966 1.02173
 O950 O 0.25206 0.27543 0.97641
 O951 O 0.24924 0.27996 1.01678
 O952 O 0.28020 0.24581 0.98106
 Cu953 Cu 0.23624 0.23661 0.99947
 Cu954 Cu 0.26728 0.26504 0.99902
 C955 C 0.27237 0.22839 0.97477
 C956 C 0.23099 0.27396 1.02299
 C957 C 0.23490 0.26794 0.96885
 C958 C 0.26823 0.23358 1.02983
 O959 O 0.25126 0.77708 0.47673
 O960 O 0.27977 0.74918 0.51870
 O961 O 0.27942 0.74698 0.47808
 O962 O 0.25121 0.77853 0.51799
 O963 O 0.22580 0.75440 0.51911
 O964 O 0.25357 0.72331 0.47850
 O965 O 0.25473 0.72482 0.51908
 O966 O 0.22542 0.75342 0.47776
 Cu967 Cu 0.26785 0.76546 0.49773
 Cu968 Cu 0.23718 0.73672 0.49873
 C969 C 0.23390 0.76965 0.46961
 C970 C 0.27232 0.73210 0.52597
 C971 C 0.27135 0.72975 0.47150
 C972 C 0.23420 0.77132 0.52601
 O973 O 0.22479 0.74582 -0.01937
 O974 O 0.25923 0.77282 0.01934
 O975 O 0.25550 0.77338 -0.02200
 O976 O 0.22737 0.74700 0.02112
 O977 O 0.25107 0.72099 0.02010
 O978 O 0.27822 0.74668 -0.02398
 O979 O 0.28264 0.74701 0.01667
 O980 O 0.24774 0.71923 -0.02038
 Cu981 Cu 0.23954 0.76256 -0.00017
 Cu982 Cu 0.26728 0.73092 -0.00211
 C983 C 0.23032 0.72768 -0.02622
 C984 C 0.27659 0.76410 0.02523
 C985 C 0.27115 0.76418 -0.03085
 C986 C 0.23474 0.72972 0.02824
 O987 O 0.27463 0.24885 0.47767
 O988 O 0.24603 0.22268 0.52052
 O989 O 0.24375 0.22179 0.47990
 O990 O 0.27682 0.25007 0.51853
 O991 O 0.25345 0.27634 0.51874
 O992 O 0.22055 0.24810 0.47997
 O993 O 0.22255 0.24882 0.52096
 O994 O 0.25121 0.27507 0.47802
 Cu995 Cu 0.26270 0.23327 0.49915
 Cu996 Cu 0.23458 0.26471 0.49961
 C997 C 0.26748 0.26605 0.47013
 C998 C 0.22927 0.23120 0.52795
 C999 C 0.22657 0.23013 0.47317
 C1000 C 0.27075 0.26808 0.52518
 O1001 O 0.75030 0.77670 0.97747
 O1002 O 0.77620 0.75102 1.02227
 O1003 O 0.77900 0.74763 0.98166
 O1004 O 0.74747 0.78056 1.01797
 O1005 O 0.72227 0.75623 1.01837
 O1006 O 0.75353 0.72355 0.98172
 O1007 O 0.75095 0.72673 1.02262
 O1008 O 0.72469 0.75272 0.97797
 Cu1009 Cu 0.76581 0.76639 0.99988
 Cu1010 Cu 0.73538 0.73730 1.00026
 C1011 C 0.73330 0.76889 0.96988
 C1012 C 0.76776 0.73478 1.03039
 C1013 C 0.77147 0.73014 0.97522
 C1014 C 0.72943 0.77406 1.02428
 O1015 O 0.74775 0.27761 0.48014
 O1016 O 0.77496 0.24579 0.52023
 O1017 O 0.77459 0.24658 0.47944
 O1018 O 0.74759 0.27643 0.52141
 O1019 O 0.72083 0.25377 0.52073
 O1020 O 0.74780 0.22393 0.47879
 O1021 O 0.74817 0.22312 0.51986
 O1022 O 0.72095 0.25497 0.47967
 Cu1023 Cu 0.76383 0.26397 0.50038
 Cu1024 Cu 0.73176 0.23667 0.49971
 C1025 C 0.73018 0.27126 0.47249
 C1026 C 0.76588 0.22939 0.52730
 C1027 C 0.76541 0.23054 0.47153
 C1028 C 0.73006 0.26971 0.52877
 O1029 O 0.77526 0.24861 -0.02337
 O1030 O 0.74820 0.22297 0.02078
 O1031 O 0.74593 0.21994 -0.01969
 O1032 O 0.77798 0.25102 0.01747
 O1033 O 0.75372 0.27647 0.01698
 O1034 O 0.72138 0.24510 -0.01985
 O1035 O 0.72392 0.24846 0.02076
 O1036 O 0.75062 0.27370 -0.02372
 Cu1037 Cu 0.76436 0.23315 -0.00122
 Cu1038 Cu 0.73496 0.26349 -0.00149
 C1039 C 0.76724 0.26519 -0.03144
 C1040 C 0.73166 0.23163 0.02854
 C1041 C 0.72814 0.22716 -0.02607
 C1042 C 0.77124 0.26894 0.02372
 O1043 O 0.77813 0.74929 0.47927
 O1044 O 0.74889 0.72387 0.52230
 O1045 O 0.74990 0.71925 0.48159
 O1046 O 0.77756 0.75287 0.51991
 O1047 O 0.75220 0.77708 0.51705
 O1048 O 0.72492 0.74345 0.47801
 O1049 O 0.72336 0.74790 0.51924
 O1050 O 0.75276 0.77347 0.47648
 Cu1051 Cu 0.76611 0.73387 0.50099
 Cu1052 Cu 0.73563 0.76278 0.49743
 C1053 C 0.77028 0.76548 0.47030
 C1054 C 0.73148 0.73208 0.52856
 C1055 C 0.73316 0.72583 0.47255
 C1056 C 0.76953 0.77058 0.52520
 O1057 O 1.01692 0.21754 0.24751
 O1058 O 0.97807 0.25098 0.21981
 O1059 O 1.01916 0.24612 0.21853
 O1060 O 0.97550 0.22298 0.24942
 O1061 O 0.97982 0.24784 0.27340
 O1062 O 1.02321 0.27106 0.24237
 O1063 O 0.98184 0.27601 0.24372
 O1064 O 1.02156 0.24268 0.27093
 Cu1065 Cu 0.99693 0.23184 0.23152
 Cu1066 Cu 1.00188 0.26185 0.26010
 C1067 C 1.02665 0.22468 0.26340
 C1068 C 0.97348 0.26923 0.22688
 C1069 C 1.02900 0.26227 0.22540
 C1070 C 0.96996 0.23173 0.26648
 O1071 O 0.51950 0.28297 0.75403
 O1072 O 0.47787 0.25147 0.77982
 O1073 O 0.52018 0.25150 0.77990
 O1074 O 0.47839 0.28291 0.75385
 O1075 O 0.47815 0.26013 0.72786
 O1076 O 0.52014 0.22850 0.75380
 O1077 O 0.47818 0.22851 0.75369
 O1078 O 0.52018 0.26015 0.72808
 Cu1079 Cu 0.49895 0.26930 0.76967
 Cu1080 Cu 0.49917 0.24206 0.73823
 C1081 C 0.52738 0.27682 0.73682
 C1082 C 0.47047 0.23505 0.77089
 C1083 C 0.52775 0.23508 0.77102
 C1084 C 0.47075 0.27678 0.73653
 O1085 O 0.01944 0.25173 0.72315
 O1086 O -0.02086 0.28115 0.75332
 O1087 O 0.02039 0.27904 0.75293
 O1088 O -0.02272 0.25280 0.72357
 O1089 O -0.02338 0.22720 0.74693
 O1090 O 0.02019 0.25302 0.77593
 O1091 O -0.02114 0.25563 0.77677
 O1092 O 0.01880 0.22585 0.74625
 Cu1093 Cu -0.00108 0.26863 0.73575
 Cu1094 Cu -0.00171 0.23771 0.76369
 C1095 C 0.02685 0.23444 0.73019
 C1096 C -0.02742 0.27368 0.77051
 C1097 C 0.02806 0.27013 0.76906
 C1098 C -0.03077 0.23581 0.73054
 O1099 O 0.47933 0.22178 0.24785
 O1100 O 0.52124 0.25048 0.27636
 O1101 O 0.47964 0.25139 0.27686
 O1102 O 0.52100 0.22200 0.24772
 O1103 O 0.52110 0.24716 0.22383
 O1104 O 0.47900 0.27588 0.25235
 O1105 O 0.52063 0.27568 0.25251
 O1106 O 0.47933 0.24634 0.22342
 Cu1107 Cu 0.50004 0.23390 0.26463
 Cu1108 Cu 0.49976 0.26374 0.23556
 C1109 C 0.47251 0.22889 0.23057
 C1110 C 0.52854 0.26759 0.26895
 C1111 C 0.47255 0.26881 0.26975
 C1112 C 0.52873 0.23012 0.23128
 O1113 O 1.02028 0.72306 0.75043
 O1114 O 0.97861 0.75140 0.72068
 O1115 O 1.02035 0.74994 0.72059
 O1116 O 0.97852 0.72329 0.75079
 O1117 O 0.97909 0.74910 0.77414
 O1118 O 1.02081 0.77607 0.74367
 O1119 O 0.97917 0.77719 0.74406
 O1120 O 1.02089 0.74921 0.77348
 Cu1121 Cu 0.99912 0.73430 0.73329
 Cu1122 Cu 0.99978 0.76550 0.76119
 C1123 C 1.02832 0.73184 0.76651
 C1124 C 0.97206 0.76933 0.72717
 C1125 C 1.02829 0.76710 0.72743
 C1126 C 0.97193 0.73141 0.76778
 O1127 O 0.51844 0.72270 0.25475
 O1128 O 0.48295 0.75597 0.22251
 O1129 O 0.52407 0.75043 0.22548
 O1130 O 0.47710 0.72679 0.25043
 O1131 O 0.47776 0.75159 0.27484
 O1132 O 0.52475 0.77550 0.24963
 O1133 O 0.48343 0.78077 0.24694
 O1134 O 0.51911 0.74769 0.27894
 Cu1135 Cu 0.50056 0.73647 0.23590
 Cu1136 Cu 0.50133 0.76637 0.26504
 C1137 C 0.52490 0.72957 0.27235
 C1138 C 0.47716 0.77407 0.22924
 C1139 C 0.53261 0.76679 0.23340
 C1140 C 0.46917 0.73534 0.26665
 O1141 O 0.02335 0.75147 0.27491
 O1142 O -0.02120 0.72237 0.25087
 O1143 O 0.02049 0.72179 0.24719
 O1144 O -0.01805 0.75347 0.27774
 O1145 O -0.01979 0.77665 0.25209
 O1146 O 0.01893 0.74519 0.22176
 O1147 O -0.02228 0.74534 0.22511
 O1148 O 0.02193 0.77494 0.24947
 Cu1149 Cu 0.00116 0.73492 0.26521
 Cu1150 Cu -0.00060 0.76296 0.23463
 C1151 C 0.03056 0.76789 0.26604
 C1152 C -0.02906 0.72851 0.23364
 C1153 C 0.02639 0.72812 0.22928
 C1154 C -0.02529 0.77061 0.27018
 O1155 O 0.52241 0.75054 0.77463
 O1156 O 0.47583 0.72533 0.75028
 O1157 O 0.51741 0.72167 0.74636
 O1158 O 0.48123 0.75469 0.77823
 O1159 O 0.48114 0.77912 0.75372
 O1160 O 0.51724 0.74620 0.72191
 O1161 O 0.47561 0.74971 0.72565
 O1162 O 0.52218 0.77519 0.75023
 Cu1163 Cu 0.49917 0.73554 0.76478
 Cu1164 Cu 0.49897 0.76493 0.73532
 C1165 C 0.53037 0.76699 0.76648
 C1166 C 0.46747 0.73349 0.73412
 C1167 C 0.52380 0.72850 0.72882
 C1168 C 0.47520 0.77266 0.77155
 C1169 C 0.43850 0.28855 0.27076
 C1170 C 0.42217 0.29926 0.28116
 C1171 C 0.42315 0.30270 0.30277
 C1172 C 0.44160 0.29615 0.31395
 C1173 C 0.45826 0.28520 0.30335
 C1174 C 0.45634 0.28092 0.28164
 C1175 C 0.47666 0.27960 0.31477
 N1176 N 0.47807 0.28448 0.33537
 N1177 N 0.46248 0.29476 0.34530
 C1178 C 0.44439 0.30085 0.33530
 H1179 H 0.43690 0.28570 0.25412
 H1180 H 0.40831 0.30433 0.27232
 H1181 H 0.49016 0.27183 0.30754
 H1182 H 0.43265 0.30973 0.34409
 C1183 C 0.44496 0.79773 0.77327
 C1184 C 0.42924 0.80907 0.78383
 C1185 C 0.42794 0.80877 0.80575
 C1186 C 0.44474 0.79872 0.81714
 C1187 C 0.46089 0.78716 0.80627
 C1188 C 0.46034 0.78594 0.78410
 C1189 C 0.47766 0.77814 0.81799
 N1190 N 0.47825 0.78063 0.83901
 N1191 N 0.46350 0.79186 0.84913
 C1192 C 0.44701 0.80119 0.83894
 H1193 H 0.44448 0.79746 0.75635
 H1194 H 0.41713 0.81685 0.77450
 H1195 H 0.49078 0.76979 0.81076
 H1196 H 0.43651 0.81124 0.84796
 C1197 C -0.05990 0.29580 0.77246
 C1198 C -0.07580 0.30660 0.78334
 C1199 C -0.07527 0.30801 0.80517
 C1200 C -0.05763 0.29931 0.81617
 C1201 C -0.04138 0.28827 0.80507
 C1202 C -0.04295 0.28601 0.78304
 C1203 C -0.02373 0.28054 0.81641
 N1204 N -0.02269 0.28343 0.83739
 N1205 N -0.03794 0.29374 0.84778
 C1206 C -0.05527 0.30188 0.83791
 H1207 H -0.06121 0.29455 0.75562
 H1208 H -0.08906 0.31327 0.77466
 H1209 H -0.01047 0.27265 0.80888
 H1210 H -0.06671 0.31067 0.84714
 C1211 C -0.05902 0.79082 0.27192
 C1212 C -0.07490 0.80182 0.28266
 C1213 C -0.07302 0.80591 0.30411
 C1214 C -0.05413 0.79965 0.31473
 C1215 C -0.03792 0.78837 0.30379
 C1216 C -0.04075 0.78346 0.28229
 C1217 C -0.01911 0.78302 0.31465
 N1218 N -0.01688 0.78845 0.33505
 N1219 N -0.03204 0.79905 0.34527
 C1220 C -0.05050 0.80492 0.33582
 H1221 H -0.06136 0.78741 0.25547
 H1222 H -0.08915 0.80656 0.27424
 H1223 H -0.00595 0.77499 0.30710
 H1224 H -0.06189 0.81403 0.34481
 C1225 C 0.55664 0.70639 0.27370
 C1226 C 0.57315 0.69620 0.28422
 C1227 C 0.57392 0.69596 0.30610
 C1228 C 0.55688 0.70522 0.31757
 C1229 C 0.53996 0.71563 0.30682
 C1230 C 0.54031 0.71682 0.28465
 C1231 C 0.52289 0.72384 0.31868
 N1232 N 0.52302 0.72203 0.33978
 N1233 N 0.53891 0.71240 0.34983
 C1234 C 0.55574 0.70384 0.33948
 H1235 H 0.55710 0.70679 0.25679
 H1236 H 0.58588 0.68908 0.27511
 H1237 H 0.50914 0.73116 0.31145
 H1238 H 0.56776 0.69565 0.34849
 C1239 C 0.54479 0.20273 0.78539
 C1240 C 0.56198 0.19202 0.79447
 C1241 C 0.58128 0.20245 0.79853
 C1242 C 0.58365 0.22385 0.79234
 C1243 C 0.56609 0.23479 0.78340
 C1244 C 0.54639 0.22420 0.78030
 C1245 C 0.56910 0.25586 0.77709
 N1246 N 0.58837 0.26525 0.77951
 N1247 N 0.60494 0.25490 0.78764
 C1248 C 0.60330 0.23454 0.79400
 H1249 H 0.52999 0.19432 0.78271
 H1250 H 0.56004 0.17557 0.79882
 H1251 H 0.55644 0.26481 0.76991
 H1252 H 0.61754 0.22685 0.79977
 C1253 C 1.04622 0.70068 0.78207
 C1254 C 1.06335 0.69091 0.79214
 C1255 C 1.08180 0.70234 0.79718
 C1256 C 1.08344 0.72381 0.79105
 C1257 C 1.06602 0.73376 0.78079
 C1258 C 1.04705 0.72215 0.77678
 C1259 C 1.06857 0.75484 0.77413
 N1260 N 1.08718 0.76513 0.77771
 N1261 N 1.10349 0.75579 0.78736
 C1262 C 1.10231 0.73550 0.79408
 H1263 H 1.03204 0.69149 0.77872
 H1264 H 1.06205 0.67439 0.79641
 H1265 H 1.05623 0.76318 0.76573
 H1266 H 1.11631 0.72864 0.80127
 C1267 C 1.04783 0.21577 0.29473
 C1268 C 1.06530 0.20695 0.30496
 C1269 C 1.08041 0.19482 0.29411
 C1270 C 1.07793 0.19182 0.27225
 C1271 C 1.05941 0.19976 0.26190
 C1272 C 1.04442 0.21248 0.27328
 C1273 C 1.05722 0.19516 0.24040
 N1274 N 1.07289 0.18471 0.22999
 N1275 N 1.09074 0.17854 0.23944
 C1276 C 1.09387 0.18188 0.26011
 H1277 H 1.03680 0.22536 0.30378
 H1278 H 1.06697 0.20961 0.32162
 H1279 H 1.04340 0.19945 0.23148
 H1280 H 1.10906 0.17720 0.26661
 C1281 C 0.54836 0.28511 0.70521
 C1282 C 0.56536 0.29405 0.69449
 C1283 C 0.58033 0.30670 0.70478
 C1284 C 0.57828 0.31003 0.72665
 C1285 C 0.56027 0.30184 0.73759
 C1286 C 0.54528 0.28866 0.72670
 C1287 C 0.55862 0.30681 0.75910
 N1288 N 0.57422 0.31787 0.76889
 N1289 N 0.59154 0.32433 0.75886
 C1290 C 0.59419 0.32063 0.73820
 H1291 H 0.53737 0.27531 0.69641
 H1292 H 0.56671 0.29115 0.67784
 H1293 H 0.54547 0.30211 0.76868
 H1294 H 0.60903 0.32556 0.73125
 C1295 C 0.55231 0.79795 0.22063
 C1296 C 0.56940 0.80750 0.21053
 C1297 C 0.58659 0.79544 0.20302
 C1298 C 0.58697 0.77329 0.20664
 C1299 C 0.56946 0.76350 0.21684
 C1300 C 0.55178 0.77599 0.22349
 C1301 C 0.57070 0.74159 0.22076
 N1302 N 0.58817 0.73039 0.21479
 N1303 N 0.60461 0.73958 0.20535
 C1304 C 0.60467 0.76061 0.20119
 H1305 H 0.53910 0.80778 0.22579
 H1306 H 0.56898 0.82447 0.20814
 H1307 H 0.55825 0.73327 0.22890
 H1308 H 0.61880 0.76718 0.19413
 C1309 C 1.04980 0.29327 0.21410
 C1310 C 1.06733 0.30293 0.20491
 C1311 C 1.08338 0.29091 0.19529
 C1312 C 1.08185 0.26848 0.19530
 C1313 C 1.06363 0.25856 0.20419
 C1314 C 1.04747 0.27119 0.21385
 C1315 C 1.06283 0.23627 0.20378
 N1316 N 1.07915 0.22487 0.19552
 N1317 N 1.09642 0.23415 0.18780
 C1318 C 1.09841 0.25549 0.18755
 H1319 H 1.03783 0.30324 0.22146
 H1320 H 1.06827 0.32006 0.20520
 H1321 H 1.04961 0.22761 0.20997
 H1322 H 1.11317 0.26191 0.18175
 C1323 C 1.04638 0.79787 0.71173
 C1324 C 1.06372 0.80747 0.70204
 C1325 C 1.08215 0.79584 0.69718
 C1326 C 1.08344 0.77419 0.70286
 C1327 C 1.06581 0.76440 0.71277
 C1328 C 1.04698 0.77635 0.71686
 C1329 C 1.06803 0.74315 0.71908
 N1330 N 1.08652 0.73253 0.71545
 N1331 N 1.10302 0.74172 0.70613
 C1332 C 1.10217 0.76216 0.69981
 H1333 H 1.03228 0.80729 0.71508
 H1334 H 1.06267 0.82411 0.69810
 H1335 H 1.05552 0.73491 0.72721
 H1336 H 1.11632 0.76883 0.69287
 C1337 C 0.44733 0.72012 0.70363
 C1338 C 0.42956 0.71072 0.69440
 C1339 C 0.41188 0.70493 0.70644
 C1340 C 0.41176 0.70951 0.72816
 C1341 C 0.42982 0.71921 0.73755
 C1342 C 0.44793 0.72408 0.72516
 C1343 C 0.42874 0.72447 0.75894
 N1344 N 0.41096 0.71995 0.77009
 N1345 N 0.39409 0.71074 0.76130
 C1346 C 0.39382 0.70548 0.74075
 H1347 H 0.46092 0.72399 0.69391
 H1348 H 0.42977 0.70755 0.67775
 H1349 H 0.44159 0.73254 0.76689
 H1350 H 0.37941 0.69860 0.73445
 C1351 C 0.43867 0.22848 0.21083
 C1352 C 0.42191 0.21821 0.20080
 C1353 C 0.42189 0.19614 0.19842
 C1354 C 0.43974 0.18427 0.20554
 C1355 C 0.45689 0.19476 0.21578
 C1356 C 0.45600 0.21704 0.21887
 C1357 C 0.47475 0.18262 0.22184
 N1358 N 0.47515 0.16146 0.21817
 N1359 N 0.45907 0.15164 0.20863
 C1360 C 0.44148 0.16230 0.20208
 H1361 H 0.43780 0.24551 0.21285
 H1362 H 0.40852 0.22758 0.19530
 H1363 H 0.48863 0.18969 0.22900
 H1364 H 0.42933 0.15352 0.19384
 C1365 C -0.06189 0.72817 0.21230
 C1366 C -0.07868 0.71830 0.20194
 C1367 C -0.08083 0.69626 0.20213
 C1368 C -0.06517 0.68383 0.21251
 C1369 C -0.04815 0.69390 0.22346
 C1370 C -0.04658 0.71644 0.22337
 C1371 C -0.03293 0.68084 0.23338
 N1372 N -0.03454 0.65948 0.23219
 N1373 N -0.05017 0.65014 0.22157
 C1374 C -0.06540 0.66154 0.21159
 H1375 H -0.06107 0.74530 0.21189
 H1376 H -0.09036 0.72808 0.19399
 H1377 H -0.01959 0.68711 0.24188
 H1378 H -0.07713 0.65296 0.20260
 C1379 C -0.04845 0.20407 0.71600
 C1380 C -0.06522 0.19384 0.70586
 C1381 C -0.08321 0.20513 0.69909
 C1382 C -0.08467 0.22716 0.70338
 C1383 C -0.06753 0.23764 0.71364
 C1384 C -0.04910 0.22596 0.71965
 C1385 C -0.06990 0.25934 0.71834
 N1386 N -0.08806 0.26973 0.71298
 N1387 N -0.10413 0.25989 0.70346
 C1388 C -0.10313 0.23901 0.69860
 H1389 H -0.03468 0.19484 0.72080
 H1390 H -0.06399 0.17695 0.70300
 H1391 H -0.05778 0.26814 0.72658
 H1392 H -0.11701 0.23187 0.69152
 C1393 C 0.29663 0.45162 0.28394
 C1394 C 0.30657 0.43453 0.29369
 C1395 C 0.29512 0.41617 0.29852
 C1396 C 0.27333 0.41469 0.29256
 C1397 C 0.26315 0.43218 0.28282
 C1398 C 0.27490 0.45090 0.27885
 C1399 C 0.24167 0.43000 0.27662
 N1400 N 0.23124 0.41157 0.27997
 N1401 N 0.24084 0.39510 0.28890
 C1402 C 0.26150 0.39596 0.29518
 H1403 H 0.30587 0.46570 0.28068
 H1404 H 0.32329 0.43580 0.29786
 H1405 H 0.23311 0.44256 0.26882
 H1406 H 0.26851 0.38181 0.30168
 C1407 C 0.29691 -0.05264 0.77890
 C1408 C 0.30657 -0.07050 0.78746
 C1409 C 0.29437 -0.08708 0.79582
 C1410 C 0.27170 -0.08625 0.79343
 C1411 C 0.26186 -0.06790 0.78475
 C1412 C 0.27468 -0.05069 0.77803
 C1413 C 0.23952 -0.06799 0.78191
 N1414 N 0.22796 -0.08525 0.78712
 N1415 N 0.23720 -0.10264 0.79455
 C1416 C 0.25858 -0.10387 0.79755
 H1417 H 0.30697 -0.03995 0.77330
 H1418 H 0.32384 -0.07069 0.78854
 H1419 H 0.23103 -0.05490 0.77498
 H1420 H 0.26503 -0.11900 0.80212
 C1421 C 0.79860 0.45186 0.78228
 C1422 C 0.80815 0.43402 0.79102
 C1423 C 0.79592 0.41654 0.79733
 C1424 C 0.77362 0.41652 0.79265
 C1425 C 0.76386 0.43488 0.78395
 C1426 C 0.77649 0.45291 0.77930
 C1427 C 0.74192 0.43404 0.77898
 N1428 N 0.73076 0.41601 0.78201
 N1429 N 0.74003 0.39859 0.78935
 C1430 C 0.76102 0.39813 0.79447
 H1431 H 0.80856 0.46520 0.77818
 H1432 H 0.82520 0.43448 0.79381
 H1433 H 0.73354 0.44719 0.77207
 H1434 H 0.76771 0.38304 0.79887
 C1435 C 0.79944 -0.05144 0.28095
 C1436 C 0.80874 -0.06932 0.28978
 C1437 C 0.79622 -0.08613 0.29718
 C1438 C 0.77371 -0.08544 0.29365
 C1439 C 0.76424 -0.06713 0.28453
 C1440 C 0.77728 -0.04972 0.27877
 C1441 C 0.74214 -0.06748 0.28023
 N1442 N 0.73046 -0.08489 0.28464
 N1443 N 0.73937 -0.10218 0.29265
 C1444 C 0.76052 -0.10318 0.29700
 H1445 H 0.80969 -0.03859 0.27607
 H1446 H 0.82592 -0.06940 0.29175
 H1447 H 0.73398 -0.05447 0.27282
 H1448 H 0.76678 -0.11822 0.30203
 C1449 C 0.26776 0.55949 0.70708
 C1450 C 0.27772 0.57632 0.69713
 C1451 C 0.29993 0.57668 0.69468
 C1452 C 0.31223 0.55904 0.70129
 C1453 C 0.30207 0.54176 0.71127
 C1454 C 0.27969 0.54241 0.71481
 C1455 C 0.31466 0.52411 0.71679
 N1456 N 0.33594 0.52408 0.71292
 N1457 N 0.34547 0.54035 0.70370
 C1458 C 0.33436 0.55775 0.69766
 H1459 H 0.25065 0.56022 0.70948
 H1460 H 0.26804 0.58959 0.69199
 H1461 H 0.30781 0.51011 0.72366
 H1462 H 0.34290 0.57015 0.68970
 C1463 C 0.27013 1.05755 0.20688
 C1464 C 0.28005 1.07457 0.19722
 C1465 C 0.30228 1.07515 0.19492
 C1466 C 0.31465 1.05752 0.20155
 C1467 C 0.30452 1.04009 0.21138
 C1468 C 0.28208 1.04047 0.21457
 C1469 C 0.31717 1.02256 0.21705
 N1470 N 0.33848 1.02268 0.21337
 N1471 N 0.34797 1.03900 0.20420
 C1472 C 0.33681 1.05632 0.19805
 H1473 H 0.25298 1.05812 0.20907
 H1474 H 0.27028 1.08777 0.19211
 H1475 H 0.31036 1.00851 0.22387
 H1476 H 0.34534 1.06871 0.19007
 C1477 C 0.78979 0.55862 0.22682
 C1478 C 0.79940 0.57563 0.21696
 C1479 C 0.80028 0.57679 0.19513
 C1480 C 0.79221 0.55968 0.18304
 C1481 C 0.78207 0.54239 0.19313
 C1482 C 0.78041 0.54222 0.21526
 C1483 C 0.77468 0.52550 0.18068
 N1484 N 0.77723 0.52601 0.15966
 N1485 N 0.78688 0.54209 0.15025
 C1486 C 0.79458 0.55883 0.16119
 H1487 H 0.78907 0.55867 0.24371
 H1488 H 0.80563 0.58835 0.22656
 H1489 H 0.76737 0.51165 0.18738
 H1490 H 0.80294 0.57098 0.15271
 C1491 C 0.79866 1.04998 0.71937
 C1492 C 0.80852 1.06696 0.70951
 C1493 C 0.79679 1.08497 0.70383
 C1494 C 0.77485 1.08635 0.70922
 C1495 C 0.76479 1.06904 0.71922
 C1496 C 0.77677 1.05052 0.72381
 C1497 C 0.74318 1.07120 0.72496
 N1498 N 0.73248 1.08939 0.72080
 N1499 N 0.74193 1.10564 0.71146
 C1500 C 0.76271 1.10480 0.70563
 H1501 H 0.80809 1.03607 0.72309
 H1502 H 0.82535 1.06579 0.70576
 H1503 H 0.73476 1.05883 0.73308
 H1504 H 0.76958 1.11875 0.69868
 C1505 C 0.69980 0.54744 0.28128
 C1506 C 0.68964 0.56421 0.29145
 C1507 C 0.70131 0.58157 0.29885
 C1508 C 0.72359 0.58245 0.29517
 C1509 C 0.73397 0.56540 0.28473
 C1510 C 0.72193 0.54754 0.27808
 C1511 C 0.75597 0.56727 0.28063
 N1512 N 0.76670 0.58484 0.28673
 N1513 N 0.75695 0.60080 0.29650
 C1514 C 0.73578 0.60026 0.30085
 H1515 H 0.69032 0.53407 0.27613
 H1516 H 0.67254 0.56347 0.29389
 H1517 H 0.76478 0.55519 0.27235
 H1518 H 0.72868 0.61395 0.30832
 C1519 C 0.72665 1.05556 0.79637
 C1520 C 0.71611 1.07169 0.80704
 C1521 C 0.69383 1.07415 0.80564
 C1522 C 0.68186 1.05819 0.79502
 C1523 C 0.69271 1.04151 0.78429
 C1524 C 0.71541 1.04083 0.78425
 C1525 C 0.68037 1.02544 0.77487
 N1526 N 0.65879 1.02610 0.77605
 N1527 N 0.64865 1.04142 0.78639
 C1528 C 0.65939 1.05721 0.79614
 H1529 H 0.74394 1.05516 0.79692
 H1530 H 0.72582 1.08320 0.81526
 H1531 H 0.68748 1.01188 0.76728
 H1532 H 0.65016 1.06815 0.80545
 C1533 C 0.20097 0.54734 0.78390
 C1534 C 0.19106 0.56416 0.79419
 C1535 C 0.20267 0.58211 0.80015
 C1536 C 0.22464 0.58343 0.79501
 C1537 C 0.23476 0.56630 0.78444
 C1538 C 0.22280 0.54795 0.77923
 C1539 C 0.25633 0.56859 0.77866
 N1540 N 0.26697 0.58662 0.78345
 N1541 N 0.25750 0.60262 0.79343
 C1542 C 0.23673 0.60171 0.79926
 H1543 H 0.19155 0.53360 0.77974
 H1544 H 0.17420 0.56306 0.79779
 H1545 H 0.26481 0.55650 0.77002
 H1546 H 0.22984 0.61546 0.80678
 C1547 C 0.20283 1.04734 0.28273
 C1548 C 0.19301 1.06429 0.29290
 C1549 C 0.20444 1.08269 0.29783
 C1550 C 0.22614 1.08427 0.29166
 C1551 C 0.23618 1.06693 0.28134
 C1552 C 0.22442 1.04823 0.27719
 C1553 C 0.25750 1.06928 0.27478
 N1554 N 0.26797 1.08767 0.27849
 N1555 N 0.25853 1.10394 0.28807
 C1556 C 0.23799 1.10294 0.29465
 H1557 H 0.19357 1.03325 0.27948
 H1558 H 0.17638 1.06287 0.29729
 H1559 H 0.26587 1.05690 0.26642
 H1560 H 0.23109 1.11692 0.30171
 C1561 C 0.69950 0.45752 0.71387
 C1562 C 0.68917 0.44095 0.70362
 C1563 C 0.69967 0.42166 0.69989
 C1564 C 0.72073 0.41868 0.70760
 C1565 C 0.73137 0.43568 0.71771
 C1566 C 0.72069 0.45535 0.72051
 C1567 C 0.75215 0.43211 0.72542
 N1568 N 0.76142 0.41279 0.72332
 N1569 N 0.75130 0.39675 0.71414
 C1570 C 0.73130 0.39898 0.70633
 H1571 H 0.69102 0.47233 0.71627
 H1572 H 0.67296 0.44335 0.69816
 H1573 H 0.76102 0.44428 0.73344
 H1574 H 0.72375 0.38516 0.69972
 C1575 C 0.70094 -0.04383 0.21345
 C1576 C 0.69047 -0.06043 0.20337
 C1577 C 0.70113 -0.07948 0.19906
 C1578 C 0.72252 -0.08222 0.20577
 C1579 C 0.73319 -0.06535 0.21604
 C1580 C 0.72237 -0.04583 0.21944
 C1581 C 0.75416 -0.06894 0.22324
 N1582 N 0.76368 -0.08800 0.22016
 N1583 N 0.75367 -0.10380 0.21048
 C1584 C 0.73344 -0.10160 0.20322
 H1585 H 0.69235 -0.02917 0.21631
 H1586 H 0.67400 -0.05830 0.19858
 H1587 H 0.76302 -0.05698 0.23158
 H1588 H 0.72603 -0.11515 0.19589
 C1589 C 0.22663 0.43922 0.21012
 C1590 C 0.21731 0.42219 0.19981
 C1591 C 0.19513 0.41969 0.19944
 C1592 C 0.18201 0.43529 0.20910
 C1593 C 0.19153 0.45257 0.22000
 C1594 C 0.21419 0.45447 0.22055
 C1595 C 0.17785 0.46765 0.22929
 N1596 N 0.15638 0.46571 0.22752
 N1597 N 0.14755 0.44983 0.21693
 C1598 C 0.15958 0.43468 0.20755
 H1599 H 0.24391 0.44021 0.21032
 H1600 H 0.22761 0.41058 0.19237
 H1601 H 0.18375 0.48114 0.23771
 H1602 H 0.15142 0.42269 0.19859
 C1603 C 0.22617 -0.05791 0.70860
 C1604 C 0.21646 -0.07435 0.69770
 C1605 C 0.19428 -0.07677 0.69785
 C1606 C 0.18154 -0.06162 0.70862
 C1607 C 0.19146 -0.04515 0.72039
 C1608 C 0.21416 -0.04331 0.72034
 C1609 C 0.17808 -0.03084 0.73118
 N1610 N 0.15657 -0.03250 0.72971
 N1611 N 0.14738 -0.04742 0.71810
 C1612 C 0.15909 -0.06192 0.70743
 H1613 H 0.24344 -0.05699 0.70827
 H1614 H 0.22651 -0.08562 0.68948
 H1615 H 0.18420 -0.01822 0.74068
 H1616 H 0.15066 -0.07313 0.69772
 C1617 C 0.28187 0.29740 0.45204
 C1618 C 0.29159 0.30731 0.43516
 C1619 C 0.29764 0.29573 0.41741
 C1620 C 0.29304 0.27376 0.41633
 C1621 C 0.28320 0.26362 0.43357
 C1622 C 0.27793 0.27557 0.45173
 C1623 C 0.27815 0.24198 0.43161
 N1624 N 0.28284 0.23133 0.41375
 N1625 N 0.29199 0.24085 0.39760
 C1626 C 0.29710 0.26168 0.39820
 H1627 H 0.27765 0.30683 0.46562
 H1628 H 0.29474 0.32415 0.43610
 H1629 H 0.27019 0.23343 0.44383
 H1630 H 0.30383 0.26858 0.38430
 C1631 C 0.28443 0.79592 -0.04913
 C1632 C 0.29384 0.80612 -0.06601
 C1633 C 0.30030 0.79471 -0.08372
 C1634 C 0.29643 0.77262 -0.08478
 C1635 C 0.28668 0.76220 -0.06764
 C1636 C 0.28108 0.77398 -0.04943
 C1637 C 0.28206 0.74048 -0.06977
 N1638 N 0.28725 0.72999 -0.08758
 N1639 N 0.29651 0.73973 -0.10355
 C1640 C 0.30117 0.76066 -0.10282
 H1641 H 0.27998 0.80523 -0.03554
 H1642 H 0.29645 0.82305 -0.06509
 H1643 H 0.27400 0.73172 -0.05774
 H1644 H 0.30811 0.76774 -0.11653
 C1645 C 0.77954 0.29679 -0.05045
 C1646 C 0.78871 0.30682 -0.06755
 C1647 C 0.79581 0.29513 -0.08483
 C1648 C 0.79283 0.27287 -0.08526
 C1649 C 0.78349 0.26261 -0.06782
 C1650 C 0.77718 0.27474 -0.05010
 C1651 C 0.78002 0.24061 -0.06915
 N1652 N 0.78573 0.22976 -0.08660
 N1653 N 0.79444 0.23939 -0.10293
 C1654 C 0.79805 0.26054 -0.10292
 H1655 H 0.77453 0.30634 -0.03721
 H1656 H 0.79068 0.32386 -0.06709
 H1657 H 0.77247 0.23190 -0.05677
 H1658 H 0.80452 0.26747 -0.11693
 C1659 C 0.78308 0.79717 0.45161
 C1660 C 0.79278 0.80722 0.43478
 C1661 C 0.80102 0.79550 0.41799
 C1662 C 0.79879 0.77315 0.41784
 C1663 C 0.78903 0.76288 0.43506
 C1664 C 0.78135 0.77506 0.45222
 C1665 C 0.78639 0.74079 0.43398
 N1666 N 0.79315 0.72981 0.41698
 N1667 N 0.80216 0.73944 0.40081
 C1668 C 0.80507 0.76068 0.40058
 H1669 H 0.77702 0.80677 0.46438
 H1670 H 0.79407 0.82432 0.43499
 H1671 H 0.77867 0.73212 0.44622
 H1672 H 0.81178 0.76755 0.38666
 C1673 C 0.69884 0.28497 0.54719
 C1674 C 0.68905 0.29430 0.56450
 C1675 C 0.70076 0.29886 0.58261
 C1676 C 0.72264 0.29306 0.58361
 C1677 C 0.73263 0.28352 0.56600
 C1678 C 0.72064 0.27992 0.54746
 C1679 C 0.75413 0.27712 0.56794
 N1680 N 0.76479 0.28033 0.58611
 N1681 N 0.75543 0.28933 0.60257
 C1682 C 0.73475 0.29570 0.60199
 H1683 H 0.68936 0.28192 0.53333
 H1684 H 0.67226 0.29841 0.56360
 H1685 H 0.76253 0.26919 0.55544
 H1686 H 0.72792 0.30232 0.61607
 C1687 C 0.72839 0.79654 1.05588
 C1688 C 0.71772 0.80684 1.07205
 C1689 C 0.69538 0.80804 1.07234
 C1690 C 0.68365 0.79976 1.05518
 C1691 C 0.69456 0.78917 1.03867
 C1692 C 0.71712 0.78695 1.03948
 C1693 C 0.68248 0.78178 1.02157
 N1694 N 0.66101 0.78459 1.02126
 N1695 N 0.65081 0.79450 1.03672
 C1696 C 0.66137 0.80228 1.05357
 H1697 H 0.74563 0.79535 1.05664
 H1698 H 0.72702 0.81324 1.08488
 H1699 H 0.68984 0.77429 1.00819
 H1700 H 0.65226 0.81078 1.06523
 C1701 C 0.22978 0.29715 1.05415
 C1702 C 0.21892 0.30776 1.07003
 C1703 C 0.19660 0.30917 1.06993
 C1704 C 0.18512 0.30105 1.05252
 C1705 C 0.19619 0.29010 1.03636
 C1706 C 0.21868 0.28743 1.03770
 C1707 C 0.18437 0.28280 1.01906
 N1708 N 0.16299 0.28608 1.01820
 N1709 N 0.15263 0.29637 1.03331
 C1710 C 0.16295 0.30408 1.05034
 H1711 H 0.24698 0.29578 1.05525
 H1712 H 0.22804 0.31411 1.08300
 H1713 H 0.19190 0.27503 1.00592
 H1714 H 0.15377 0.31296 1.06166
 C1715 C 0.20270 0.78706 0.54352
 C1716 C 0.19267 0.79679 0.56048
 C1717 C 0.20413 0.80193 0.57860
 C1718 C 0.22611 0.79654 0.57990
 C1719 C 0.23636 0.78665 0.56262
 C1720 C 0.22452 0.78221 0.54417
 C1721 C 0.25795 0.78068 0.56481
 N1722 N 0.26846 0.78457 0.58294
 N1723 N 0.25884 0.79379 0.59913
 C1724 C 0.23806 0.79979 0.59830
 H1725 H 0.19338 0.78341 0.52970
 H1726 H 0.17580 0.80052 0.55938
 H1727 H 0.26656 0.77264 0.55252
 H1728 H 0.23106 0.80659 0.61220
 C1729 C 0.27059 0.71011 0.55771
 C1730 C 0.27937 0.70020 0.57508
 C1731 C 0.30136 0.70070 0.57881
 C1732 C 0.31495 0.71052 0.56406
 C1733 C 0.30602 0.72098 0.54641
 C1734 C 0.28344 0.72098 0.54337
 C1735 C 0.32025 0.73049 0.53223
 N1736 N 0.34162 0.72931 0.53540
 N1737 N 0.34990 0.71915 0.55167
 C1738 C 0.33734 0.70963 0.56601
 H1739 H 0.25339 0.70981 0.55585
 H1740 H 0.26877 0.69259 0.58609
 H1741 H 0.31493 0.73864 0.51851
 H1742 H 0.34509 0.70105 0.57847
 C1743 C 0.28067 0.20196 1.04899
 C1744 C 0.28975 0.19203 1.06627
 C1745 C 0.29589 0.20375 1.08390
 C1746 C 0.29187 0.22588 1.08448
 C1747 C 0.28285 0.23604 1.06678
 C1748 C 0.27757 0.22393 1.04876
 C1749 C 0.27864 0.25793 1.06809
 N1750 N 0.28316 0.26877 1.08586
 N1751 N 0.29139 0.25920 1.10252
 C1752 C 0.29577 0.23816 1.10251
 H1753 H 0.27644 0.19244 1.03549
 H1754 H 0.29247 0.17508 1.06567
 H1755 H 0.27145 0.26652 1.05536
 H1756 H 0.30172 0.23126 1.11678
 C1757 C 0.77944 0.70308 1.04988
 C1758 C 0.78871 0.69310 1.06701
 C1759 C 0.79635 0.70489 1.08400
 C1760 C 0.79376 0.72723 1.08411
 C1761 C 0.78428 0.73743 1.06665
 C1762 C 0.77747 0.72518 1.04920
 C1763 C 0.78113 0.75951 1.06772
 N1764 N 0.78732 0.77051 1.08490
 N1765 N 0.79620 0.76094 1.10124
 C1766 C 0.79949 0.73973 1.10151
 H1767 H 0.77406 0.69345 1.03685
 H1768 H 0.79030 0.67601 1.06685
 H1769 H 0.77341 0.76819 1.05536
 H1770 H 0.80608 0.73291 1.11555
 C1771 C 0.79709 0.21182 0.54342
 C1772 C 0.80739 0.20189 0.56003
 C1773 C 0.79664 0.19805 0.57880
 C1774 C 0.77518 0.20498 0.58110
 C1775 C 0.76461 0.21494 0.56412
 C1776 C 0.77568 0.21811 0.54505
 C1777 C 0.74356 0.22225 0.56718
 N1778 N 0.73388 0.21970 0.58592
 N1779 N 0.74384 0.21051 0.60188
 C1780 C 0.76413 0.20317 0.60017
 H1781 H 0.80586 0.21453 0.52910
 H1782 H 0.82388 0.19698 0.55817
 H1783 H 0.73475 0.23030 0.55508
 H1784 H 0.77149 0.19647 0.61390
 C1785 C 0.70142 0.71724 0.45117
 C1786 C 0.69110 0.70836 0.43400
 C1787 C 0.70214 0.69556 0.41976
 C1788 C 0.72431 0.69190 0.42282
 C1789 C 0.73475 0.70000 0.44098
 C1790 C 0.72319 0.71347 0.45510
 C1791 C 0.75648 0.69458 0.44376
 N1792 N 0.76708 0.68336 0.42894
 N1793 N 0.75760 0.67705 0.41142
 C1794 C 0.73669 0.68103 0.40780
 H1795 H 0.69215 0.72725 0.46157
 H1796 H 0.67420 0.71147 0.43189
 H1797 H 0.76554 0.69884 0.45734
 H1798 H 0.73019 0.67602 0.39297
 C1799 C 0.72741 0.20466 -0.05762
 C1800 C 0.71705 0.19467 -0.07412
 C1801 C 0.69474 0.19456 -0.07540
 C1802 C 0.68260 0.20366 -0.05891
 C1803 C 0.69320 0.21388 -0.04200
 C1804 C 0.71585 0.21496 -0.04179
 C1805 C 0.68068 0.22198 -0.02551
 N1806 N 0.65913 0.22025 -0.02618
 N1807 N 0.64922 0.21074 -0.04203
 C1808 C 0.66019 0.20228 -0.05831
 H1809 H 0.74469 0.20495 -0.05763
 H1810 H 0.72662 0.18759 -0.08641
 H1811 H 0.68772 0.22917 -0.01182
 H1812 H 0.65125 0.19414 -0.07032
 C1813 C 0.22776 0.70645 -0.05844
 C1814 C 0.21658 0.69648 -0.07442
 C1815 C 0.19423 0.69601 -0.07447
 C1816 C 0.18296 0.70517 -0.05740
 C1817 C 0.19442 0.71554 -0.04109
 C1818 C 0.21706 0.71652 -0.04194
 C1819 C 0.18277 0.72378 -0.02408
 N1820 N 0.16122 0.72194 -0.02360
 N1821 N 0.15053 0.71218 -0.03881
 C1822 C 0.16063 0.70362 -0.05557
 H1823 H 0.24502 0.70668 -0.05928
 H1824 H 0.22558 0.68947 -0.08716
 H1825 H 0.19049 0.73122 -0.01088
 H1826 H 0.15109 0.69527 -0.06696
 C1827 C 0.22624 0.20738 0.44179
 C1828 C 0.21650 0.19748 0.42490
 C1829 C 0.19436 0.19844 0.42212
 C1830 C 0.18168 0.20891 0.43741
 C1831 C 0.19170 0.21979 0.45431
 C1832 C 0.21436 0.21911 0.45640
 C1833 C 0.17847 0.23024 0.46889
 N1834 N 0.15694 0.22931 0.46701
 N1835 N 0.14762 0.21852 0.45165
 C1836 C 0.15920 0.20819 0.43691
 H1837 H 0.24344 0.20627 0.44310
 H1838 H 0.22650 0.18934 0.41362
 H1839 H 0.18477 0.23891 0.48195
 H1840 H 0.15064 0.19902 0.42540
 C1841 C 0.29632 0.45429 0.71104
 C1842 C 0.30620 0.43742 0.70081
 C1843 C 0.29528 0.41842 0.69721
 C1844 C 0.27415 0.41613 0.70483
 C1845 C 0.26396 0.43346 0.71499
 C1846 C 0.27517 0.45274 0.71785
 C1847 C 0.24314 0.43055 0.72273
 N1848 N 0.23338 0.41156 0.72054
 N1849 N 0.24304 0.39522 0.71130
 C1850 C 0.26308 0.39680 0.70351
 H1851 H 0.30518 0.46881 0.71342
 H1852 H 0.32246 0.43932 0.69540
 H1853 H 0.23462 0.44299 0.73083
 H1854 H 0.27025 0.38275 0.69684
 C1855 C 0.29676 0.94979 0.21414
 C1856 C 0.30628 0.93226 0.20466
 C1857 C 0.29466 0.91370 0.20085
 C1858 C 0.27302 0.91266 0.20736
 C1859 C 0.26326 0.93062 0.21689
 C1860 C 0.27526 0.94939 0.22002
 C1861 C 0.24200 0.92884 0.22380
 N1862 N 0.23133 0.91038 0.22123
 N1863 N 0.24050 0.89352 0.21244
 C1864 C 0.26096 0.89397 0.20555
 H1865 H 0.30621 0.96392 0.21667
 H1866 H 0.32287 0.93331 0.20001
 H1867 H 0.23381 0.94175 0.23153
 H1868 H 0.26763 0.87955 0.19920
 C1869 C 0.79628 0.45126 0.21315
 C1870 C 0.80585 0.43361 0.20391
 C1871 C 0.79408 0.41522 0.19988
 C1872 C 0.77235 0.41432 0.20602
 C1873 C 0.76255 0.43235 0.21533
 C1874 C 0.77464 0.45107 0.21856
 C1875 C 0.74115 0.43066 0.22188
 N1876 N 0.73045 0.41223 0.21921
 N1877 N 0.73968 0.39531 0.21060
 C1878 C 0.76024 0.39568 0.20402
 H1879 H 0.80582 0.46529 0.21586
 H1880 H 0.82254 0.43444 0.19957
 H1881 H 0.73287 0.44358 0.22945
 H1882 H 0.76696 0.38123 0.19773
 C1883 C 0.77057 0.94249 0.70895
 C1884 C 0.78049 0.92545 0.69909
 C1885 C 0.80272 0.92466 0.69691
 C1886 C 0.81515 0.94200 0.70407
 C1887 C 0.80499 0.95949 0.71406
 C1888 C 0.78252 0.95941 0.71692
 C1889 C 0.81766 0.97681 0.72016
 N1890 N 0.83903 0.97640 0.71679
 N1891 N 0.84855 0.95998 0.70753
 C1892 C 0.83736 0.94286 0.70096
 H1893 H 0.75340 0.94211 0.71095
 H1894 H 0.77071 0.91243 0.69361
 H1895 H 0.81082 0.99090 0.72712
 H1896 H 0.84594 0.93034 0.69301
 C1897 C 0.73167 0.56261 0.71073
 C1898 C 0.72171 0.57945 0.70061
 C1899 C 0.69955 0.57972 0.69759
 C1900 C 0.68733 0.56198 0.70388
 C1901 C 0.69750 0.54477 0.71419
 C1902 C 0.71980 0.54546 0.71815
 C1903 C 0.68502 0.52710 0.71952
 N1904 N 0.66386 0.52688 0.71505
 N1905 N 0.65435 0.54300 0.70541
 C1906 C 0.66535 0.56043 0.69956
 H1907 H 0.74875 0.56330 0.71339
 H1908 H 0.73135 0.59273 0.69569
 H1909 H 0.69187 0.51322 0.72675
 H1910 H 0.65684 0.57263 0.69117
 C1911 C 0.70369 0.04654 0.21540
 C1912 C 0.69352 0.06330 0.20533
 C1913 C 0.70496 0.08121 0.19907
 C1914 C 0.72710 0.08251 0.20378
 C1915 C 0.73754 0.06526 0.21374
 C1916 C 0.72567 0.04704 0.21940
 C1917 C 0.75940 0.06729 0.21854
 N1918 N 0.76993 0.08533 0.21378
 N1919 N 0.76008 0.10160 0.20474
 C1920 C 0.73906 0.10088 0.19973
 H1921 H 0.69434 0.03289 0.21987
 H1922 H 0.67658 0.06214 0.20211
 H1923 H 0.76822 0.05495 0.22634
 H1924 H 0.73192 0.11492 0.19314
 C1925 C 0.22986 0.55998 0.21052
 C1926 C 0.22075 0.57722 0.20035
 C1927 C 0.19856 0.57959 0.19913
 C1928 C 0.18524 0.56360 0.20747
 C1929 C 0.19451 0.54607 0.21804
 C1930 C 0.21711 0.54450 0.21990
 C1931 C 0.18076 0.53032 0.22565
 N1932 N 0.15937 0.53204 0.22287
 N1933 N 0.15073 0.54835 0.21280
 C1934 C 0.16290 0.56409 0.20490
 H1935 H 0.24711 0.55903 0.21154
 H1936 H 0.23116 0.58915 0.19384
 H1937 H 0.18670 0.51644 0.23339
 H1938 H 0.15496 0.57647 0.19626
 C1939 C 0.23140 0.06223 0.71365
 C1940 C 0.22204 0.07938 0.70349
 C1941 C 0.19986 0.08064 0.70090
 C1942 C 0.18693 0.06363 0.70778
 C1943 C 0.19646 0.04624 0.71834
 C1944 C 0.21890 0.04579 0.72163
 C1945 C 0.18320 0.02946 0.72447
 N1946 N 0.16197 0.03010 0.72037
 N1947 N 0.15309 0.04628 0.71030
 C1948 C 0.16482 0.06295 0.70374
 H1949 H 0.24857 0.06205 0.71575
 H1950 H 0.23219 0.09207 0.69807
 H1951 H 0.18949 0.01566 0.73208
 H1952 H 0.15677 0.07516 0.69497
 C1953 C 0.26893 0.55929 0.28879
 C1954 C 0.27934 0.57627 0.29818
 C1955 C 0.30164 0.57668 0.29975
 C1956 C 0.31365 0.55903 0.29247
 C1957 C 0.30299 0.54161 0.28295
 C1958 C 0.28043 0.54206 0.28069
 C1959 C 0.31531 0.52397 0.27675
 N1960 N 0.33676 0.52400 0.27961
 N1961 N 0.34672 0.54032 0.28846
 C1962 C 0.33593 0.55773 0.29510
 H1963 H 0.25169 0.55991 0.28735
 H1964 H 0.26986 0.58949 0.30383
 H1965 H 0.30815 0.50992 0.27016
 H1966 H 0.34486 0.57012 0.30276
 C1967 C 0.29007 0.05852 0.77157
 C1968 C 0.30047 0.07513 0.78167
 C1969 C 0.30375 0.07485 0.80334
 C1970 C 0.29742 0.05674 0.81485
 C1971 C 0.28664 0.03988 0.80455
 C1972 C 0.28253 0.04109 0.78279
 C1973 C 0.28096 0.02200 0.81635
 N1974 N 0.28576 0.02116 0.83699
 N1975 N 0.29602 0.03686 0.84659
 C1976 C 0.30212 0.05450 0.83624
 H1977 H 0.28720 0.05966 0.75491
 H1978 H 0.30535 0.08868 0.77254
 H1979 H 0.27320 0.00846 0.80936
 H1980 H 0.31105 0.06629 0.84479
 C1981 C 0.76932 0.56218 0.79011
 C1982 C 0.77923 0.57929 0.79982
 C1983 C 0.80147 0.57998 0.80195
 C1984 C 0.81391 0.56247 0.79508
 C1985 C 0.80377 0.54489 0.78534
 C1986 C 0.78130 0.54511 0.78232
 C1987 C 0.81648 0.52734 0.77966
 N1988 N 0.83784 0.52767 0.78312
 N1989 N 0.84734 0.54420 0.79208
 C1990 C 0.83613 0.56153 0.79828
 H1991 H 0.75214 0.56260 0.78811
 H1992 H 0.76946 0.59242 0.80518
 H1993 H 0.80969 0.51314 0.77301
 H1994 H 0.84469 0.57414 0.80602
 C1995 C 0.79395 0.05833 0.27156
 C1996 C 0.80393 0.07492 0.28202
 C1997 C 0.80565 0.07503 0.30385
 C1998 C 0.79815 0.05730 0.31524
 C1999 C 0.78763 0.04051 0.30457
 C2000 C 0.78506 0.04140 0.28256
 C2001 C 0.78075 0.02299 0.31627
 N2002 N 0.78419 0.02242 0.33717
 N2003 N 0.79424 0.03802 0.34714
 C2004 C 0.80145 0.05532 0.33691
 H2005 H 0.79253 0.05914 0.25473
 H2006 H 0.80973 0.08814 0.27295
 H2007 H 0.77313 0.00950 0.30905
 H2008 H 0.81016 0.06701 0.34578
 C2009 C 0.69824 0.45563 0.28398
 C2010 C 0.68811 0.43893 0.29407
 C2011 C 0.69925 0.42030 0.29886
 C2012 C 0.72080 0.41802 0.29242
 C2013 C 0.73118 0.43506 0.28229
 C2014 C 0.71984 0.45421 0.27851
 C2015 C 0.75239 0.43199 0.27554
 N2016 N 0.76237 0.41321 0.27881
 N2017 N 0.75258 0.39721 0.28821
 C2018 C 0.73217 0.39892 0.29503
 H2019 H 0.68925 0.46995 0.28077
 H2020 H 0.67152 0.44073 0.29857
 H2021 H 0.76109 0.44407 0.26736
 H2022 H 0.72497 0.38515 0.30199
 C2023 C 0.70126 0.95259 0.78177
 C2024 C 0.69147 0.93569 0.79180
 C2025 C 0.70313 0.91751 0.79708
 C2026 C 0.72492 0.91591 0.79121
 C2027 C 0.73491 0.93316 0.78104
 C2028 C 0.72301 0.95180 0.77676
 C2029 C 0.75636 0.93081 0.77480
 N2030 N 0.76697 0.91250 0.77864
 N2031 N 0.75758 0.89630 0.78811
 C2032 C 0.73695 0.89732 0.79441
 H2033 H 0.69189 0.96662 0.77832
 H2034 H 0.67472 0.93699 0.79589
 H2035 H 0.76472 0.94312 0.76652
 H2036 H 0.73010 0.88339 0.80141
 C2037 C 0.19957 0.45616 0.78597
 C2038 C 0.18954 0.43935 0.79597
 C2039 C 0.20063 0.42054 0.80016
 C2040 C 0.22207 0.41827 0.79332
 C2041 C 0.23236 0.43545 0.78333
 C2042 C 0.22103 0.45468 0.77999
 C2043 C 0.25345 0.43242 0.77622
 N2044 N 0.26339 0.41354 0.77897
 N2045 N 0.25366 0.39739 0.78818
 C2046 C 0.23337 0.39905 0.79532
 H2047 H 0.19060 0.47057 0.78314
 H2048 H 0.17305 0.44117 0.80080
 H2049 H 0.26208 0.44462 0.76812
 H2050 H 0.22619 0.38513 0.80202
 C2051 C 0.22934 0.94143 0.29070
 C2052 C 0.21901 0.92526 0.30129
 C2053 C 0.19690 0.92592 0.30452
 C2054 C 0.18513 0.94391 0.29781
 C2055 C 0.19569 0.96045 0.28699
 C2056 C 0.21792 0.95884 0.28297
 C2057 C 0.18368 0.97838 0.28118
 N2058 N 0.16256 0.97946 0.28570
 N2059 N 0.15268 0.96397 0.29582
 C2060 C 0.16323 0.94633 0.30214
 H2061 H 0.24634 0.93997 0.28789
 H2062 H 0.22830 0.91173 0.30641
 H2063 H 0.19086 0.99178 0.27353
 H2064 H 0.15444 0.93467 0.31087
 C2065 C 0.45016 0.28516 0.70467
 C2066 C 0.43301 0.29378 0.69381
 C2067 C 0.41746 0.30584 0.70405
 C2068 C 0.41922 0.30914 0.72595
 C2069 C 0.43742 0.30141 0.73701
 C2070 C 0.45285 0.28857 0.72623
 C2071 C 0.43886 0.30647 0.75851
 N2072 N 0.42284 0.31709 0.76821
 N2073 N 0.40531 0.32304 0.75807
 C2074 C 0.40287 0.31927 0.73739
 H2075 H 0.46155 0.27568 0.69594
 H2076 H 0.43197 0.29105 0.67711
 H2077 H 0.45221 0.30224 0.76814
 H2078 H 0.38791 0.32382 0.73034
 C2079 C 0.44491 0.79654 0.22721
 C2080 C 0.42908 0.80730 0.21625
 C2081 C 0.43010 0.80933 0.19448
 C2082 C 0.44833 0.80141 0.18376
 C2083 C 0.46435 0.79012 0.19493
 C2084 C 0.46221 0.78716 0.21679
 C2085 C 0.48240 0.78286 0.18389
 N2086 N 0.48418 0.78665 0.16313
 N2087 N 0.46929 0.79738 0.15271
 C2088 C 0.45154 0.80499 0.16230
 H2089 H 0.44317 0.79486 0.24394
 H2090 H 0.41547 0.81340 0.22484
 H2091 H 0.49539 0.77470 0.19155
 H2092 H 0.44049 0.81426 0.15312
 C2093 C 0.94090 0.29145 0.22687
 C2094 C 0.92428 0.30189 0.21670
 C2095 C 0.92413 0.30387 0.19489
 C2096 C 0.94196 0.29641 0.18327
 C2097 C 0.95877 0.28551 0.19364
 C2098 C 0.95780 0.28245 0.21556
 C2099 C 0.97639 0.27862 0.18173
 N2100 N 0.97705 0.28244 0.16092
 N2101 N 0.96141 0.29284 0.15124
 C2102 C 0.94401 0.30006 0.16169
 H2103 H 0.94007 0.28963 0.24366
 H2104 H 0.91100 0.30777 0.22592
 H2105 H 0.98991 0.27071 0.18877
 H2106 H 0.93230 0.30907 0.15305
 C2107 C 0.93787 0.76945 0.70793
 C2108 C 0.92082 0.77967 0.69824
 C2109 C 0.92074 0.80169 0.69567
 C2110 C 0.93886 0.81353 0.70202
 C2111 C 0.95636 0.80307 0.71174
 C2112 C 0.95547 0.78090 0.71528
 C2113 C 0.97452 0.81512 0.71688
 N2114 N 0.97483 0.83619 0.71294
 N2115 N 0.95837 0.84601 0.70399
 C2116 C 0.94048 0.83541 0.69830
 H2117 H 0.93699 0.75250 0.71029
 H2118 H 0.90723 0.77035 0.69326
 H2119 H 0.98869 0.80801 0.72348
 H2120 H 0.92797 0.84417 0.69052
 C2121 C 0.54547 0.29948 0.28401
 C2122 C 0.56226 0.30988 0.29395
 C2123 C 0.58101 0.29900 0.29928
 C2124 C 0.58331 0.27739 0.29353
 C2125 C 0.56615 0.26674 0.28355
 C2126 C 0.54692 0.27788 0.27919
 C2127 C 0.56920 0.24546 0.27751
 N2128 N 0.58811 0.23567 0.28124
 N2129 N 0.60424 0.24570 0.29045
 C2130 C 0.60254 0.26620 0.29662
 H2131 H 0.53105 0.30828 0.28041
 H2132 H 0.56043 0.32649 0.29791
 H2133 H 0.55700 0.23656 0.26949
 H2134 H 0.61644 0.27359 0.30342
 C2135 C 0.54877 0.79840 0.78063
 C2136 C 0.56587 0.80823 0.79058
 C2137 C 0.58413 0.79668 0.79616
 C2138 C 0.58559 0.77492 0.79065
 C2139 C 0.56811 0.76488 0.78059
 C2140 C 0.54941 0.77672 0.77601
 C2141 C 0.57030 0.74345 0.77475
 N2142 N 0.58871 0.73290 0.77885
 N2143 N 0.60514 0.74233 0.78820
 C2144 C 0.60427 0.76295 0.79413
 H2145 H 0.53468 0.80770 0.77696
 H2146 H 0.56464 0.82492 0.79442
 H2147 H 0.55780 0.73505 0.76660
 H2148 H 0.61839 0.76982 0.80103
 C2149 C 0.04602 0.30097 0.78496
 C2150 C 0.06334 0.31072 0.79464
 C2151 C 0.08204 0.29932 0.79903
 C2152 C 0.08362 0.27780 0.79269
 C2153 C 0.06588 0.26780 0.78302
 C2154 C 0.04683 0.27950 0.77948
 C2155 C 0.06820 0.24659 0.77643
 N2156 N 0.08697 0.23627 0.77931
 N2157 N 0.10366 0.24571 0.78818
 C2158 C 0.10269 0.26609 0.79485
 H2159 H 0.03171 0.31020 0.78200
 H2160 H 0.06200 0.32724 0.79910
 H2161 H 0.05550 0.23817 0.76865
 H2162 H 0.11701 0.27299 0.80129
 C2163 C 0.04934 0.78224 0.29687
 C2164 C 0.06652 0.79213 0.30662
 C2165 C 0.08420 0.79885 0.29508
 C2166 C 0.08486 0.79484 0.27324
 C2167 C 0.06729 0.78479 0.26327
 C2168 C 0.04924 0.77876 0.27524
 C2169 C 0.06889 0.78027 0.24175
 N2170 N 0.08671 0.78566 0.23105
 N2171 N 0.10316 0.79503 0.24041
 C2172 C 0.10292 0.79967 0.26110
 H2173 H 0.03587 0.77745 0.30632
 H2174 H 0.06587 0.79484 0.32334
 H2175 H 0.05643 0.77217 0.23332
 H2176 H 0.11707 0.80664 0.26785
 C2177 C 0.55676 0.72828 0.70795
 C2178 C 0.57378 0.71827 0.69803
 C2179 C 0.57492 0.69616 0.69669
 C2180 C 0.55783 0.68392 0.70472
 C2181 C 0.54037 0.69417 0.71485
 C2182 C 0.54017 0.71657 0.71687
 C2183 C 0.52336 0.68160 0.72193
 N2184 N 0.52399 0.66030 0.71927
 N2185 N 0.54031 0.65072 0.70980
 C2186 C 0.55714 0.66177 0.70233
 H2187 H 0.55694 0.74539 0.70928
 H2188 H 0.58655 0.72795 0.69190
 H2189 H 0.50932 0.68844 0.72908
 H2190 H 0.56952 0.65313 0.69418
 C2191 C 0.54627 0.19848 0.21604
 C2192 C 0.56334 0.18831 0.20620
 C2193 C 0.58202 0.19937 0.20135
 C2194 C 0.58395 0.22090 0.20749
 C2195 C 0.56649 0.23133 0.21727
 C2196 C 0.54735 0.22004 0.22115
 C2197 C 0.56914 0.25257 0.22355
 N2198 N 0.58796 0.26253 0.22027
 N2199 N 0.60439 0.25268 0.21128
 C2200 C 0.60309 0.23224 0.20489
 H2201 H 0.53191 0.18956 0.21928
 H2202 H 0.56176 0.17178 0.20189
 H2203 H 0.55666 0.26132 0.23139
 H2204 H 0.61722 0.22500 0.19830
 C2205 C 0.05763 0.72815 0.20586
 C2206 C 0.07459 0.71848 0.19554
 C2207 C 0.07743 0.69651 0.19619
 C2208 C 0.06198 0.68389 0.20645
 C2209 C 0.04474 0.69377 0.21722
 C2210 C 0.04291 0.71624 0.21735
 C2211 C 0.02954 0.68066 0.22681
 N2212 N 0.03152 0.65931 0.22571
 N2213 N 0.04755 0.65009 0.21546
 C2214 C 0.06273 0.66161 0.20569
 H2215 H 0.05644 0.74525 0.20538
 H2216 H 0.08604 0.72838 0.18755
 H2217 H 0.01583 0.68701 0.23476
 H2218 H 0.07483 0.65317 0.19698
 C2219 C 0.04556 0.20319 0.71543
 C2220 C 0.06337 0.19329 0.70667
 C2221 C 0.08205 0.20471 0.70272
 C2222 C 0.08315 0.22636 0.70853
 C2223 C 0.06500 0.23650 0.71732
 C2224 C 0.04591 0.22482 0.72039
 C2225 C 0.06696 0.25786 0.72353
 N2226 N 0.08571 0.26816 0.72101
 N2227 N 0.10274 0.25859 0.71285
 C2228 C 0.10215 0.23807 0.70662
 H2229 H 0.03128 0.19397 0.71813
 H2230 H 0.06245 0.17665 0.70258
 H2231 H 0.05402 0.26645 0.73073
 H2232 H 0.11670 0.23107 0.70070
 C2233 C 0.44887 0.70413 0.27837
 C2234 C 0.43101 0.69444 0.28697
 C2235 C 0.41330 0.70643 0.29331
 C2236 C 0.41327 0.72866 0.29005
 C2237 C 0.43161 0.73860 0.28154
 C2238 C 0.44968 0.72616 0.27595
 C2239 C 0.43082 0.76061 0.27812
 N2240 N 0.41293 0.77176 0.28286
 N2241 N 0.39567 0.76241 0.29058
 C2242 C 0.39516 0.74129 0.29420
 H2243 H 0.46239 0.69435 0.27392
 H2244 H 0.43122 0.67743 0.28913
 H2245 H 0.44401 0.76910 0.27142
 H2246 H 0.38040 0.73460 0.29976
 C2247 C 0.45374 0.20269 0.78541
 C2248 C 0.43667 0.19202 0.79459
 C2249 C 0.41728 0.20245 0.79861
 C2250 C 0.41469 0.22379 0.79225
 C2251 C 0.43211 0.23468 0.78316
 C2252 C 0.45191 0.22412 0.78012
 C2253 C 0.42888 0.25568 0.77666
 N2254 N 0.40954 0.26508 0.77907
 N2255 N 0.39313 0.25482 0.78740
 C2256 C 0.39499 0.23451 0.79395
 H2257 H 0.46863 0.19430 0.78283
 H2258 H 0.43879 0.17562 0.79907
 H2259 H 0.44141 0.26458 0.76935
 H2260 H 0.38087 0.22688 0.79992
 C2261 C 0.93803 0.73251 0.78746
 C2262 C 0.92093 0.72292 0.79752
 C2263 C 0.92040 0.70094 0.80032
 C2264 C 0.93813 0.68850 0.79384
 C2265 C 0.95566 0.69830 0.78370
 C2266 C 0.95523 0.72045 0.77994
 C2267 C 0.97339 0.68562 0.77833
 N2268 N 0.97331 0.66460 0.78252
 N2269 N 0.95684 0.65541 0.79191
 C2270 C 0.93934 0.66662 0.79781
 H2271 H 0.93750 0.74946 0.78493
 H2272 H 0.90765 0.73270 0.80262
 H2273 H 0.98755 0.69221 0.77132
 H2274 H 0.92682 0.65835 0.80595
 C2275 C 0.95124 0.20132 0.28205
 C2276 C 0.93412 0.19211 0.29242
 C2277 C 0.91664 0.20432 0.29906
 C2278 C 0.91626 0.22635 0.29459
 C2279 C 0.93398 0.23583 0.28444
 C2280 C 0.95162 0.22311 0.27819
 C2281 C 0.93297 0.25764 0.28004
 N2282 N 0.91536 0.26903 0.28523
 N2283 N 0.89859 0.26007 0.29429
 C2284 C 0.89835 0.23917 0.29899
 H2285 H 0.96445 0.19134 0.27715
 H2286 H 0.93461 0.17524 0.29543
 H2287 H 0.94578 0.26578 0.27228
 H2288 H 0.88390 0.23283 0.30557
 C2289 C 0.29029 0.26759 0.55866
 C2290 C 0.30043 0.27755 0.57538
 C2291 C 0.30419 0.29939 0.57515
 C2292 C 0.29889 0.31118 0.55702
 C2293 C 0.28844 0.30104 0.54002
 C2294 C 0.28354 0.27918 0.54122
 C2295 C 0.28381 0.31307 0.52209
 N2296 N 0.28925 0.33382 0.52138
 N2297 N 0.29916 0.34329 0.53726
 C2298 C 0.30427 0.33270 0.55496
 H2299 H 0.28687 0.25082 0.55975
 H2300 H 0.30459 0.26825 0.58898
 H2301 H 0.27639 0.30615 0.50845
 H2302 H 0.31294 0.34111 0.56698
 C2303 C 0.28547 0.79538 0.04691
 C2304 C 0.29412 0.80533 0.06441
 C2305 C 0.30636 0.79404 0.07888
 C2306 C 0.30989 0.77205 0.07556
 C2307 C 0.30238 0.76207 0.05692
 C2308 C 0.28912 0.77380 0.04276
 C2309 C 0.30803 0.74057 0.05381
 N2310 N 0.31868 0.72974 0.06881
 N2311 N 0.32416 0.73874 0.08682
 C2312 C 0.31996 0.75939 0.09078
 H2313 H 0.27566 0.80479 0.03651
 H2314 H 0.29115 0.82210 0.06665
 H2315 H 0.30433 0.73183 0.03990
 H2316 H 0.32409 0.76543 0.10603
 C2317 C 0.79103 0.26884 0.05700
 C2318 C 0.80083 0.27886 0.07386
 C2319 C 0.80328 0.30088 0.07428
 C2320 C 0.79675 0.31293 0.05670
 C2321 C 0.78675 0.30270 0.03947
 C2322 C 0.78338 0.28051 0.03996
 C2323 C 0.78109 0.31502 0.02203
 N2324 N 0.78502 0.33611 0.02202
 N2325 N 0.79439 0.34569 0.03815
 C2326 C 0.80049 0.33485 0.05540
 H2327 H 0.78871 0.25186 0.05764
 H2328 H 0.80590 0.26936 0.08704
 H2329 H 0.77406 0.30810 0.00819
 H2330 H 0.80860 0.34343 0.06767
 C2331 C 0.78659 0.77194 0.55977
 C2332 C 0.79600 0.78243 0.57653
 C2333 C 0.79920 0.80435 0.57609
 C2334 C 0.79321 0.81587 0.55798
 C2335 C 0.78348 0.80514 0.54086
 C2336 C 0.77999 0.78299 0.54195
 C2337 C 0.77838 0.81690 0.52289
 N2338 N 0.78260 0.83792 0.52224
 N2339 N 0.79178 0.84794 0.53822
 C2340 C 0.79736 0.83765 0.55596
 H2341 H 0.78408 0.75502 0.56092
 H2342 H 0.80051 0.77332 0.59016
 H2343 H 0.77150 0.80960 0.50917
 H2344 H 0.80535 0.84657 0.56805
 C2345 C 0.26980 0.70964 0.43836
 C2346 C 0.27919 0.69942 0.42137
 C2347 C 0.30136 0.69674 0.42028
 C2348 C 0.31424 0.70340 0.43732
 C2349 C 0.30466 0.71385 0.45465
 C2350 C 0.28228 0.71748 0.45485
 C2351 C 0.31782 0.71963 0.47154
 N2352 N 0.33905 0.71541 0.47099
 N2353 N 0.34801 0.70558 0.45477
 C2354 C 0.33635 0.69933 0.43801
 H2355 H 0.25266 0.71208 0.43829
 H2356 H 0.26910 0.69421 0.40859
 H2357 H 0.31141 0.72697 0.48536
 H2358 H 0.34446 0.69079 0.42568
 C2359 C 0.27170 0.20711 0.94238
 C2360 C 0.28149 0.19699 0.92555
 C2361 C 0.30375 0.19515 0.92448
 C2362 C 0.31632 0.20259 0.94145
 C2363 C 0.30631 0.21284 0.95870
 C2364 C 0.28381 0.21567 0.95878
 C2365 C 0.31919 0.21930 0.97559
 N2366 N 0.34058 0.21599 0.97502
 N2367 N 0.34996 0.20647 0.95884
 C2368 C 0.33859 0.19957 0.94213
 H2369 H 0.25449 0.20900 0.94216
 H2370 H 0.27160 0.19125 0.91285
 H2371 H 0.31251 0.22646 0.98948
 H2372 H 0.34706 0.19139 0.92980
 C2373 C 0.77100 0.71018 0.94210
 C2374 C 0.78092 0.70048 0.92512
 C2375 C 0.80316 0.69818 0.92440
 C2376 C 0.81555 0.70480 0.94183
 C2377 C 0.80542 0.71476 0.95917
 C2378 C 0.78298 0.71793 0.95897
 C2379 C 0.81808 0.72056 0.97644
 N2380 N 0.83939 0.71676 0.97622
 N2381 N 0.84888 0.70738 0.96003
 C2382 C 0.83771 0.70116 0.94292
 H2383 H 0.75383 0.71235 0.94169
 H2384 H 0.77114 0.69536 0.91208
 H2385 H 0.81125 0.72758 0.99034
 H2386 H 0.84625 0.69301 0.93063
 C2387 C 0.79671 0.21459 0.45393
 C2388 C 0.80672 0.20501 0.43689
 C2389 C 0.79531 0.20051 0.41858
 C2390 C 0.77352 0.20648 0.41713
 C2391 C 0.76332 0.21633 0.43444
 C2392 C 0.77501 0.21999 0.45315
 C2393 C 0.74197 0.22304 0.43204
 N2394 N 0.73162 0.21978 0.41370
 N2395 N 0.74117 0.21044 0.39752
 C2396 C 0.76173 0.20377 0.39856
 H2397 H 0.80596 0.21766 0.46793
 H2398 H 0.82347 0.20083 0.43807
 H2399 H 0.73346 0.23123 0.44430
 H2400 H 0.76872 0.19683 0.38470
 C2401 C 0.69925 0.28828 0.45526
 C2402 C 0.68943 0.29818 0.43835
 C2403 C 0.70083 0.30238 0.42004
 C2404 C 0.72244 0.29575 0.41843
 C2405 C 0.73248 0.28570 0.43567
 C2406 C 0.72078 0.28230 0.45436
 C2407 C 0.75366 0.27851 0.43320
 N2408 N 0.76396 0.28136 0.41482
 N2409 N 0.75453 0.29073 0.39867
 C2410 C 0.73414 0.29792 0.39979
 H2411 H 0.68999 0.28538 0.46925
 H2412 H 0.67280 0.30280 0.43964
 H2413 H 0.76207 0.27028 0.44544
 H2414 H 0.72722 0.30480 0.38592
 C2415 C 0.70187 0.78402 0.95197
 C2416 C 0.69204 0.79386 0.93505
 C2417 C 0.70360 0.79857 0.91696
 C2418 C 0.72534 0.79233 0.91549
 C2419 C 0.73537 0.78231 0.93274
 C2420 C 0.72356 0.77861 0.95125
 C2421 C 0.75672 0.77557 0.93051
 N2422 N 0.76722 0.77886 0.91232
 N2423 N 0.75781 0.78824 0.89614
 C2424 C 0.73726 0.79498 0.89705
 H2425 H 0.69258 0.78100 0.96590
 H2426 H 0.67533 0.79823 0.93624
 H2427 H 0.76507 0.76735 0.94283
 H2428 H 0.73039 0.80188 0.88317
 C2429 C 0.20339 0.28303 0.95112
 C2430 C 0.19343 0.29309 0.93441
 C2431 C 0.20493 0.29837 0.91644
 C2432 C 0.22678 0.29253 0.91491
 C2433 C 0.23693 0.28225 0.93195
 C2434 C 0.22515 0.27793 0.95035
 C2435 C 0.25838 0.27586 0.92960
 N2436 N 0.26887 0.27976 0.91152
 N2437 N 0.25935 0.28941 0.89556
 C2438 C 0.23869 0.29581 0.89658
 H2439 H 0.19410 0.27957 0.96496
 H2440 H 0.17665 0.29717 0.93569
 H2441 H 0.26683 0.26742 0.94172
 H2442 H 0.23173 0.30296 0.88286
 C2443 C 0.20199 0.78453 0.45198
 C2444 C 0.19185 0.79430 0.43515
 C2445 C 0.20322 0.79945 0.41706
 C2446 C 0.22508 0.79374 0.41549
 C2447 C 0.23541 0.78372 0.43258
 C2448 C 0.22381 0.77960 0.45118
 C2449 C 0.25687 0.77738 0.43010
 N2450 N 0.26720 0.78116 0.41191
 N2451 N 0.25753 0.79062 0.39593
 C2452 C 0.23685 0.79693 0.39704
 H2453 H 0.19282 0.78113 0.46590
 H2454 H 0.17505 0.79826 0.43642
 H2455 H 0.26547 0.76908 0.44218
 H2456 H 0.22977 0.80393 0.38331
 C2457 C 0.71716 0.70169 0.54822
 C2458 C 0.70780 0.69267 0.56578
 C2459 C 0.70207 0.70513 0.58306
 C2460 C 0.70656 0.72714 0.58290
 C2461 C 0.71604 0.73637 0.56497
 C2462 C 0.72102 0.72349 0.54737
 C2463 C 0.72105 0.75810 0.56568
 N2464 N 0.71669 0.76967 0.58305
 N2465 N 0.70789 0.76100 0.59986
 C2466 C 0.70280 0.74017 0.60044
 H2467 H 0.72125 0.69159 0.53509
 H2468 H 0.70474 0.67579 0.56576
 H2469 H 0.72872 0.76600 0.55281
 H2470 H 0.69633 0.73400 0.61479
 C2471 C 0.71663 0.20044 0.04624
 C2472 C 0.70677 0.19058 0.06306
 C2473 C 0.70145 0.20202 0.08112
 C2474 C 0.70697 0.22377 0.08257
 C2475 C 0.71699 0.23383 0.06539
 C2476 C 0.72146 0.22206 0.04697
 C2477 C 0.72299 0.25520 0.06762
 N2478 N 0.71903 0.26569 0.08573
 N2479 N 0.70971 0.25625 0.10184
 C2480 C 0.70368 0.23567 0.10095
 H2481 H 0.72022 0.19118 0.03238
 H2482 H 0.70293 0.17390 0.06183
 H2483 H 0.73117 0.26362 0.05537
 H2484 H 0.69684 0.22880 0.11481
 C2485 C 0.20260 0.71582 0.04586
 C2486 C 0.19231 0.70642 0.06272
 C2487 C 0.20363 0.70103 0.08085
 C2488 C 0.22561 0.70620 0.08240
 C2489 C 0.23612 0.71554 0.06514
 C2490 C 0.22453 0.72000 0.04661
 C2491 C 0.25778 0.72089 0.06733
 N2492 N 0.26815 0.71716 0.08555
 N2493 N 0.25825 0.70863 0.10183
 C2494 C 0.23736 0.70317 0.10095
 H2495 H 0.19346 0.71949 0.03194
 H2496 H 0.17544 0.70290 0.06144
 H2497 H 0.26647 0.72834 0.05489
 H2498 H 0.23013 0.69702 0.11495
 C2499 C 0.23037 0.21176 0.56131
 C2500 C 0.22093 0.20180 0.57829
 C2501 C 0.19870 0.20008 0.57978
 C2502 C 0.18575 0.20782 0.56322
 C2503 C 0.19537 0.21841 0.54610
 C2504 C 0.21793 0.22057 0.54530
 C2505 C 0.18202 0.22572 0.52995
 N2506 N 0.16066 0.22249 0.53081
 N2507 N 0.15172 0.21220 0.54661
 C2508 C 0.16350 0.20461 0.56271
 H2509 H 0.24762 0.21304 0.56093
 H2510 H 0.23110 0.19581 0.59065
 H2511 H 0.18826 0.23364 0.51649
 H2512 H 0.15535 0.19566 0.57457
   
