data_POSCAR
  _audit_creation_date              2014-09-24
  _audit_creation_method            'ToBaCCo'
  _symmetry_space_group_name_H-M    'P1'
  _symmetry_Int_Tables_number       1
  _symmetry_cell_setting            triclinic
  loop_
  _symmetry_equiv_pos_as_xyz
 x,y,z
_cell_length_a 78.2121
_cell_length_b 79.7153
_cell_length_c 79.8429
_cell_angle_alpha 89.667400
_cell_angle_beta 90.110000
_cell_angle_gamma 90.195400
loop_
  _atom_site_label
  _atom_site_type_symbol
  _atom_site_fract_x
  _atom_site_fract_y
  _atom_site_fract_z
C1 C 0.35524 0.34245 0.33892
 C2 C 0.34711 0.35721 0.33356
 C3 C 0.33241 0.36309 0.34172
 C4 C 0.32599 0.35411 0.35556
 C5 C 0.33395 0.33929 0.36110
 C6 C 0.34861 0.33363 0.35273
 H7 H 0.35212 0.36402 0.32285
 H8 H 0.31440 0.35830 0.36164
 H9 H 0.35504 0.32243 0.35715
 C10 C 0.36056 0.83540 -0.16265
 C11 C 0.35319 0.82962 -0.14757
 C12 C 0.33864 0.83727 -0.14085
 C13 C 0.33139 0.85108 -0.14914
 C14 C 0.33831 0.85728 -0.16426
 C15 C 0.35296 0.84930 -0.17074
 H16 H 0.35799 0.81843 -0.14148
 H17 H 0.31990 0.85649 -0.14398
 H18 H 0.35928 0.85478 -0.18148
 C19 C 0.85873 0.33581 -0.16223
 C20 C 0.85141 0.32804 -0.14818
 C21 C 0.83592 0.33371 -0.14160
 C22 C 0.82770 0.34741 -0.14919
 C23 C 0.83462 0.35551 -0.16347
 C24 C 0.85034 0.34949 -0.16976
 H25 H 0.85748 0.31710 -0.14270
 H26 H 0.81624 0.35211 -0.14333
 H27 H 0.85594 0.35493 -0.18092
 C28 C 0.85532 0.83794 0.33751
 C29 C 0.84898 0.85261 0.32997
 C30 C 0.83374 0.86020 0.33558
 C31 C 0.82505 0.85260 0.34918
 C32 C 0.83134 0.83800 0.35695
 C33 C 0.84648 0.83079 0.35103
 H34 H 0.85576 0.85763 0.31926
 H35 H 0.81377 0.85837 0.35440
 H36 H 0.85108 0.81922 0.35658
 C37 C 0.63811 0.65973 0.32630
 C38 C 0.64554 0.66732 0.34039
 C39 C 0.65967 0.66003 0.34850
 C40 C 0.66628 0.64488 0.34238
 C41 C 0.65898 0.63709 0.32832
 C42 C 0.64488 0.64459 0.32040
 H43 H 0.64013 0.67880 0.34522
 H44 H 0.67725 0.63923 0.34847
 H45 H 0.63956 0.63896 0.30922
 C46 C 0.63469 0.15325 -0.16454
 C47 C 0.64207 0.15972 -0.14992
 C48 C 0.65627 0.15200 -0.14251
 C49 C 0.66302 0.13748 -0.14978
 C50 C 0.65597 0.13062 -0.16455
 C51 C 0.64172 0.13881 -0.17181
 H52 H 0.63686 0.17097 -0.14437
 H53 H 0.67457 0.13230 -0.14439
 H54 H 0.63547 0.13363 -0.18272
 C55 C 0.14121 0.66754 -0.16780
 C56 C 0.14886 0.67514 -0.15384
 C57 C 0.16431 0.66909 -0.14734
 C58 C 0.17208 0.65522 -0.15486
 C59 C 0.16479 0.64727 -0.16893
 C60 C 0.14915 0.65360 -0.17517
 H61 H 0.14308 0.68614 -0.14835
 H62 H 0.18348 0.65020 -0.14903
 H63 H 0.14329 0.64816 -0.18616
 C64 C 0.14309 0.16991 0.33043
 C65 C 0.15101 0.15584 0.32342
 C66 C 0.16523 0.14836 0.33115
 C67 C 0.17140 0.15502 0.34626
 C68 C 0.16358 0.16906 0.35356
 C69 C 0.14941 0.17639 0.34556
 H70 H 0.14589 0.15050 0.31201
 H71 H 0.18239 0.14934 0.35229
 H72 H 0.14365 0.18752 0.35081
 C73 C 0.64133 0.33236 0.66274
 C74 C 0.64840 0.34726 0.66918
 C75 C 0.66341 0.35417 0.66232
 C76 C 0.67138 0.34597 0.64893
 C77 C 0.66456 0.33109 0.64236
 C78 C 0.64949 0.32443 0.64927
 H79 H 0.64228 0.35342 0.67962
 H80 H 0.68304 0.35113 0.64367
 H81 H 0.64417 0.31294 0.64423
 C82 C 0.64659 0.84168 1.16018
 C83 C 0.65467 0.85646 1.16588
 C84 C 0.66998 0.86255 1.15868
 C85 C 0.67711 0.85348 1.14529
 C86 C 0.66929 0.83887 1.13923
 C87 C 0.65415 0.83307 1.14672
 H88 H 0.64989 0.86239 1.17706
 H89 H 0.68836 0.85813 1.13888
 H90 H 0.64816 0.82196 1.14166
 C91 C 0.14822 0.33953 1.16687
 C92 C 0.15556 0.33169 1.15277
 C93 C 0.17059 0.33797 1.14534
 C94 C 0.17824 0.35248 1.15188
 C95 C 0.17123 0.36059 1.16577
 C96 C 0.15630 0.35410 1.17311
 H97 H 0.15032 0.32005 1.14808
 H98 H 0.18980 0.35741 1.14622
 H99 H 0.15062 0.36106 1.18325
 C100 C 0.13865 0.83760 0.65993
 C101 C 0.14644 0.85226 0.66632
 C102 C 0.16144 0.85889 0.65920
 C103 C 0.16868 0.85094 0.64533
 C104 C 0.16125 0.83644 0.63863
 C105 C 0.14633 0.82987 0.64595
 H106 H 0.14136 0.85832 0.67731
 H107 H 0.18052 0.85572 0.64010
 H108 H 0.14037 0.81912 0.64011
 C109 C 0.36063 0.66237 0.66226
 C110 C 0.35451 0.67000 0.64751
 C111 C 0.34003 0.66364 0.63924
 C112 C 0.33166 0.64950 0.64586
 C113 C 0.33751 0.64176 0.66062
 C114 C 0.35207 0.64821 0.66868
 H115 H 0.36117 0.68076 0.64231
 H116 H 0.32040 0.64463 0.63962
 H117 H 0.35636 0.64258 0.68033
 C118 C 0.36186 0.16737 1.16983
 C119 C 0.35491 0.15197 1.17545
 C120 C 0.34130 0.14418 1.16703
 C121 C 0.33450 0.15176 1.15263
 C122 C 0.34124 0.16695 1.14653
 C123 C 0.35486 0.17461 1.15514
 H124 H 0.36018 0.14566 1.18630
 H125 H 0.32414 0.14565 1.14598
 H126 H 0.35916 0.18678 1.15081
 C127 C 0.86371 0.65701 1.16770
 C128 C 0.85537 0.66414 1.15365
 C129 C 0.84073 0.65665 1.14668
 C130 C 0.83428 0.64182 1.15380
 C131 C 0.84224 0.63444 1.16773
 C132 C 0.85691 0.64200 1.17450
 H133 H 0.86033 0.67540 1.14778
 H134 H 0.82315 0.63585 1.14832
 H135 H 0.86223 0.63666 1.18584
 C136 C 0.86270 0.15807 0.67022
 C137 C 0.85551 0.14333 0.67726
 C138 C 0.84080 0.13562 0.67035
 C139 C 0.83359 0.14286 0.65582
 C140 C 0.84057 0.15732 0.64848
 C141 C 0.85500 0.16480 0.65569
 H142 H 0.86042 0.13875 0.68907
 H143 H 0.82293 0.13687 0.64956
 H144 H 0.86036 0.17576 0.64960
 C145 C 0.32771 0.35599 0.66729
 C146 C 0.34293 0.34940 0.67393
 C147 C 0.35059 0.33521 0.66683
 C148 C 0.34287 0.32764 0.65284
 C149 C 0.32762 0.33405 0.64605
 C150 C 0.32021 0.34827 0.65332
 H151 H 0.34849 0.35500 0.68502
 H152 H 0.34864 0.31665 0.64731
 H153 H 0.30870 0.35353 0.64788
 C154 C 0.33201 0.86303 0.16040
 C155 C 0.32364 0.85634 0.14635
 C156 C 0.32958 0.84166 0.13871
 C157 C 0.34409 0.83364 0.14527
 C158 C 0.35259 0.84006 0.15937
 C159 C 0.34651 0.85481 0.16683
 H160 H 0.31237 0.86250 0.14140
 H161 H 0.34869 0.82227 0.13946
 H162 H 0.35298 0.85981 0.17772
 C163 C 0.82665 0.35083 0.15980
 C164 C 0.84192 0.34396 0.16603
 C165 C 0.84936 0.32993 0.15837
 C166 C 0.84144 0.32292 0.14422
 C167 C 0.82622 0.32968 0.13780
 C168 C 0.81896 0.34365 0.14564
 H169 H 0.84770 0.34916 0.17721
 H170 H 0.84706 0.31207 0.13828
 H171 H 0.80741 0.34915 0.14051
 C172 C 0.82408 0.84880 0.66011
 C173 C 0.83883 0.84150 0.66706
 C174 C 0.84622 0.82724 0.65980
 C175 C 0.83879 0.82042 0.64530
 C176 C 0.82409 0.82756 0.63815
 C177 C 0.81686 0.84176 0.64562
 H178 H 0.84422 0.84656 0.67848
 H179 H 0.84439 0.80941 0.63965
 H180 H 0.80573 0.84754 0.63996
 C181 C 0.66147 0.63761 0.65973
 C182 C 0.64714 0.64553 0.66670
 C183 C 0.64049 0.66025 0.65954
 C184 C 0.64832 0.66705 0.64522
 C185 C 0.66272 0.65942 0.63811
 C186 C 0.66916 0.64463 0.64539
 H187 H 0.64124 0.64033 0.67785
 H188 H 0.64329 0.67846 0.63970
 H189 H 0.68028 0.63869 0.63999
 C190 C 0.66415 0.14892 0.16824
 C191 C 0.67117 0.15552 0.15340
 C192 C 0.66496 0.17054 0.14647
 C193 C 0.65154 0.17891 0.15448
 C194 C 0.64438 0.17255 0.16931
 C195 C 0.65068 0.15748 0.17607
 H196 H 0.68156 0.14903 0.14731
 H197 H 0.64642 0.19028 0.14895
 H198 H 0.64549 0.15271 0.18774
 C199 C 0.16424 0.64614 0.16400
 C200 C 0.17078 0.65425 0.14969
 C201 C 0.16263 0.66844 0.14295
 C202 C 0.14767 0.67437 0.15055
 C203 C 0.14091 0.66641 0.16480
 C204 C 0.14927 0.65231 0.17146
 H205 H 0.18233 0.64963 0.14387
 H206 H 0.14137 0.68535 0.14544
 H207 H 0.14421 0.64623 0.18257
 C208 C 0.16287 0.13788 0.66245
 C209 C 0.14902 0.14520 0.67078
 C210 C 0.14214 0.16050 0.66528
 C211 C 0.14917 0.16843 0.65111
 C212 C 0.16312 0.16134 0.64262
 C213 C 0.16988 0.14604 0.64841
 H214 H 0.14368 0.13906 0.68173
 H215 H 0.14388 0.18023 0.64680
 H216 H 0.18072 0.14053 0.64208
 C217 C 0.33745 0.65022 0.33410
 C218 C 0.35155 0.65868 0.32710
 C219 C 0.35810 0.67329 0.33454
 C220 C 0.35051 0.67930 0.34925
 C221 C 0.33646 0.67100 0.35645
 C222 C 0.33002 0.65647 0.34880
 H223 H 0.35706 0.65423 0.31551
 H224 H 0.35547 0.69058 0.35503
 H225 H 0.31937 0.64984 0.35448
 C226 C 0.32968 0.14120 0.83672
 C227 C 0.32238 0.14915 0.85060
 C228 C 0.33000 0.16346 0.85764
 C229 C 0.34527 0.16973 0.85070
 C230 C 0.35280 0.16188 0.83680
 C231 C 0.34489 0.14763 0.82994
 H232 H 0.31085 0.14399 0.85613
 H233 H 0.35121 0.18079 0.85601
 H234 H 0.35028 0.14186 0.81890
 C235 C 0.83391 0.63812 0.83663
 C236 C 0.84830 0.64513 0.82870
 C237 C 0.85677 0.65907 0.83553
 C238 C 0.85076 0.66595 0.85056
 C239 C 0.83642 0.65910 0.85873
 C240 C 0.82807 0.64519 0.85165
 H241 H 0.85255 0.64009 0.81686
 H242 H 0.85718 0.67675 0.85584
 H243 H 0.81719 0.63965 0.85801
 C244 C 0.83306 0.14794 0.33402
 C245 C 0.84724 0.15515 0.32593
 C246 C 0.85516 0.16963 0.33232
 C247 C 0.84883 0.17676 0.34712
 C248 C 0.83467 0.16971 0.35538
 C249 C 0.82690 0.15529 0.34875
 H250 H 0.85202 0.14954 0.31454
 H251 H 0.85456 0.18817 0.35191
 H252 H 0.81620 0.14957 0.35524
 C253 C 0.66587 0.35844 0.35031
 C254 C 0.67343 0.35178 0.36486
 C255 C 0.66660 0.33746 0.37271
 C256 C 0.65197 0.32984 0.36592
 C257 C 0.64424 0.33627 0.35137
 C258 C 0.65123 0.35063 0.34368
 H259 H 0.68483 0.35761 0.36995
 H260 H 0.64672 0.31871 0.37185
 H261 H 0.64541 0.35560 0.33238
 C262 C 0.66583 0.85335 0.84249
 C263 C 0.67374 0.84688 0.85695
 C264 C 0.66758 0.83220 0.86470
 C265 C 0.65325 0.82404 0.85786
 C266 C 0.64518 0.83030 0.84341
 C267 C 0.65154 0.84498 0.83583
 H268 H 0.68509 0.85296 0.86182
 H269 H 0.64819 0.81292 0.86398
 H270 H 0.64545 0.84984 0.82462
 C271 C 0.16954 0.35965 0.83931
 C272 C 0.17697 0.35157 0.85318
 C273 C 0.16969 0.33691 0.85997
 C274 C 0.15462 0.33044 0.85282
 C275 C 0.14695 0.33842 0.83897
 C276 C 0.15453 0.35300 0.83232
 H277 H 0.18833 0.35687 0.85889
 H278 H 0.14894 0.31911 0.85793
 H279 H 0.14906 0.35885 0.82128
 C280 C 0.16189 0.86559 0.34236
 C281 C 0.14706 0.85863 0.33525
 C282 C 0.13971 0.84394 0.34191
 C283 C 0.14728 0.83631 0.35597
 C284 C 0.16212 0.84308 0.36324
 C285 C 0.16931 0.85774 0.35637
 H286 H 0.14161 0.86428 0.32409
 H287 H 0.14175 0.82493 0.36112
 H288 H 0.18058 0.86320 0.36210
 O289 O 0.25418 1.01883 0.23306
 O290 O 0.23342 0.98670 0.25920
 O291 O 0.23290 1.01937 0.25803
 O292 O 0.25556 0.98620 0.23499
 O293 O 0.27685 0.98771 0.25308
 O294 O 0.25420 1.02064 0.27611
 O295 O 0.25469 0.98797 0.27732
 O296 O 0.27550 1.02039 0.25111
 Cu297 Cu 0.24189 1.00264 0.24451
 Cu298 Cu 0.26746 1.00432 0.26620
 C299 C 0.26833 1.02520 0.23761
 C300 C 0.24048 0.98175 0.27267
 C301 C 0.23972 1.02570 0.27102
 C302 C 0.27008 0.98122 0.24017
 O303 O 0.26996 0.48640 0.74990
 O304 O 0.24483 0.52011 0.76937
 O305 O 0.24492 0.48751 0.77117
 O306 O 0.27048 0.51905 0.74868
 O307 O 0.25227 0.51835 0.72757
 O308 O 0.22658 0.48665 0.75017
 O309 O 0.22662 0.51933 0.74826
 O310 O 0.25163 0.48573 0.72888
 Cu311 Cu 0.25937 0.50337 0.76189
 Cu312 Cu 0.23743 0.50245 0.73661
 C313 C 0.26502 0.48025 0.73604
 C314 C 0.23143 0.52550 0.76212
 C315 C 0.23144 0.48159 0.76453
 C316 C 0.26580 0.52412 0.73429
 O317 O 0.74860 -0.01281 0.22780
 O318 O 0.77361 0.01862 0.25085
 O319 O 0.77096 -0.01406 0.25195
 O320 O 0.75051 0.01981 0.22744
 O321 O 0.73005 0.02127 0.24634
 O322 O 0.75057 -0.01220 0.27088
 O323 O 0.75316 0.02038 0.26973
 O324 O 0.72820 -0.01145 0.24677
 Cu325 Cu 0.76298 0.00272 0.23763
 Cu326 Cu 0.73844 0.00466 0.26031
 C327 C 0.73418 -0.01760 0.23335
 C328 C 0.76765 0.02501 0.26414
 C329 C 0.76420 -0.01895 0.26561
 C330 C 0.73679 0.02638 0.23278
 O331 O 0.74747 0.47953 0.72669
 O332 O 0.77222 0.51307 0.74752
 O333 O 0.77176 0.48047 0.74902
 O334 O 0.74897 0.51223 0.72420
 O335 O 0.72931 0.51413 0.74385
 O336 O 0.75196 0.48177 0.76860
 O337 O 0.75254 0.51437 0.76721
 O338 O 0.72770 0.48143 0.74623
 Cu339 Cu 0.76204 0.49616 0.73486
 Cu340 Cu 0.73838 0.49807 0.75840
 C341 C 0.73334 0.47470 0.73299
 C342 C 0.76659 0.51941 0.76101
 C343 C 0.76583 0.47565 0.76304
 C344 C 0.73538 0.51879 0.72979
 O345 O 0.22548 0.52125 0.25342
 O346 O 0.25040 0.48947 0.27651
 O347 O 0.24913 0.52221 0.27637
 O348 O 0.22681 0.48858 0.25363
 O349 O 0.24670 0.48924 0.23409
 O350 O 0.26881 0.52325 0.25664
 O351 O 0.27028 0.49052 0.25697
 O352 O 0.24518 0.52193 0.23370
 Cu353 Cu 0.23598 0.50531 0.26695
 Cu354 Cu 0.25973 0.50634 0.24340
 C355 C 0.23106 0.52704 0.23961
 C356 C 0.26456 0.48444 0.27061
 C357 C 0.26271 0.52860 0.27035
 C358 C 0.23301 0.48302 0.24005
 O359 O 0.74089 1.01020 0.76638
 O360 O 0.76659 0.97775 0.74546
 O361 O 0.76590 1.01052 0.74500
 O362 O 0.74206 0.97749 0.76737
 O363 O 0.72321 0.97653 0.74682
 O364 O 0.74714 1.00963 0.72436
 O365 O 0.74774 0.97694 0.72490
 O366 O 0.72208 1.00919 0.74580
 Cu367 Cu 0.75575 0.99409 0.75811
 Cu368 Cu 0.73317 0.99299 0.73341
 C369 C 0.72710 1.01528 0.75963
 C370 C 0.76148 0.97172 0.73161
 C371 C 0.76059 1.01580 0.73090
 C372 C 0.72862 0.97127 0.76092
 O373 O 0.75134 0.50992 0.22947
 O374 O 0.72797 0.47769 0.25323
 O375 O 0.72870 0.51039 0.25318
 O376 O 0.75146 0.47728 0.23019
 O377 O 0.77176 0.47741 0.24940
 O378 O 0.74896 0.51021 0.27242
 O379 O 0.74826 0.47750 0.27246
 O380 O 0.77164 0.51013 0.24868
 Cu381 Cu 0.73783 0.49380 0.23960
 Cu382 Cu 0.76219 0.49379 0.26267
 C383 C 0.76540 0.51566 0.23501
 C384 C 0.73408 0.47201 0.26686
 C385 C 0.73502 0.51603 0.26671
 C386 C 0.76553 0.47168 0.23589
 O387 O 0.24796 -0.02055 0.72896
 O388 O 0.27252 0.01246 0.75059
 O389 O 0.27085 -0.02009 0.75269
 O390 O 0.25015 0.01202 0.72650
 O391 O 0.22964 0.01446 0.74523
 O392 O 0.25013 -0.01810 0.77127
 O393 O 0.25199 0.01446 0.76937
 O394 O 0.22733 -0.01808 0.74756
 Cu395 Cu 0.26243 -0.00429 0.73780
 Cu396 Cu 0.23770 -0.00159 0.76022
 C397 C 0.23342 -0.02497 0.73459
 C398 C 0.26642 0.01911 0.76371
 C399 C 0.26405 -0.02464 0.76641
 C400 C 0.23643 0.01885 0.73143
 O401 O 0.24670 0.26774 0.98729
 O402 O 0.27036 0.24505 1.02044
 O403 O 0.27144 0.24599 0.98770
 O404 O 0.24636 0.26753 1.01993
 O405 O 0.22717 0.24720 1.01949
 O406 O 0.25219 0.22573 0.98681
 O407 O 0.25121 0.22471 1.01953
 O408 O 0.22746 0.24746 0.98682
 Cu409 Cu 0.26064 0.25859 1.00390
 Cu410 Cu 0.23761 0.23423 1.00310
 C411 C 0.23301 0.26145 0.98138
 C412 C 0.26473 0.23101 1.02573
 C413 C 0.26607 0.23227 0.98159
 C414 C 0.23254 0.26107 1.02532
 O415 O 0.26205 0.73863 0.48415
 O416 O 0.23785 0.76150 0.51606
 O417 O 0.23857 0.76164 0.48348
 O418 O 0.26187 0.73901 0.51677
 O419 O 0.28167 0.75878 0.51671
 O420 O 0.25826 0.78152 0.48379
 O421 O 0.25764 0.78127 0.51639
 O422 O 0.28173 0.75851 0.48406
 Cu423 Cu 0.24811 0.74820 0.50011
 Cu424 Cu 0.27181 0.77200 0.50026
 C425 C 0.27596 0.74468 0.47854
 C426 C 0.24358 0.77527 0.52173
 C427 C 0.24446 0.77548 0.47793
 C428 C 0.27577 0.74505 0.52245
 O429 O 0.26571 0.75625 -0.01938
 O430 O 0.24452 0.73114 0.01331
 O431 O 0.24231 0.73303 -0.01922
 O432 O 0.26741 0.75484 0.01315
 O433 O 0.24725 0.77403 0.01498
 O434 O 0.22215 0.75220 -0.01724
 O435 O 0.22433 0.75026 0.01532
 O436 O 0.24555 0.77543 -0.01755
 Cu437 Cu 0.25700 0.74189 -0.00323
 Cu438 Cu 0.23278 0.76489 -0.00091
 C439 C 0.25927 0.77009 -0.02412
 C440 C 0.23085 0.73640 0.01998
 C441 C 0.22796 0.73894 -0.02384
 C442 C 0.26160 0.76819 0.01961
 O443 O 0.27187 0.25019 0.48410
 O444 O 0.25021 0.22355 0.51565
 O445 O 0.25035 0.22525 0.48296
 O446 O 0.27260 0.24772 0.51667
 O447 O 0.25146 0.26589 0.51799
 O448 O 0.22920 0.24344 0.48390
 O449 O 0.22904 0.24172 0.51662
 O450 O 0.25069 0.26832 0.48545
 Cu451 Cu 0.26336 0.23485 0.49972
 Cu452 Cu 0.23796 0.25663 0.50112
 C453 C 0.26493 0.26384 0.47937
 C454 C 0.23592 0.22817 0.52161
 C455 C 0.23607 0.23054 0.47752
 C456 C 0.26587 0.26060 0.52315
 O457 O 0.75425 0.76466 0.98662
 O458 O 0.77989 0.74267 1.01866
 O459 O 0.77685 0.74088 0.98610
 O460 O 0.75732 0.76659 1.01909
 O461 O 0.73682 0.74776 1.02211
 O462 O 0.75630 0.72209 0.98902
 O463 O 0.75938 0.72382 1.02152
 O464 O 0.73372 0.74585 0.98965
 Cu465 Cu 0.76915 0.75557 1.00234
 Cu466 Cu 0.74451 0.73300 1.00590
 C467 C 0.73963 0.75895 0.98257
 C468 C 0.77399 0.72950 1.02562
 C469 C 0.76983 0.72717 0.98177
 C470 C 0.74374 0.76158 1.02627
 O471 O 0.74463 0.25348 0.52318
 O472 O 0.76775 0.23242 0.48923
 O473 O 0.76799 0.23042 0.52179
 O474 O 0.74447 0.25551 0.49064
 O475 O 0.76454 0.27499 0.49161
 O476 O 0.78808 0.24988 0.52279
 O477 O 0.78783 0.25190 0.49012
 O478 O 0.76468 0.27298 0.52414
 Cu479 Cu 0.75421 0.24100 0.50612
 Cu480 Cu 0.77832 0.26437 0.50728
 C481 C 0.75068 0.26684 0.52948
 C482 C 0.78167 0.23860 0.48376
 C483 C 0.78202 0.23589 0.52769
 C484 C 0.75049 0.26952 0.48574
 O485 O 0.72161 0.24176 -0.02036
 O486 O 0.74703 0.26384 0.01146
 O487 O 0.74474 0.26521 -0.02099
 O488 O 0.72390 0.24044 0.01216
 O489 O 0.74401 0.22121 0.01025
 O490 O 0.76491 0.24606 -0.02296
 O491 O 0.76715 0.24462 0.00957
 O492 O 0.74173 0.22255 -0.02235
 Cu493 Cu 0.73229 0.25472 -0.00424
 Cu494 Cu 0.75646 0.23167 -0.00659
 C495 C 0.72734 0.22841 -0.02687
 C496 C 0.76140 0.25799 0.01603
 C497 C 0.75840 0.25989 -0.02767
 C498 C 0.73043 0.22666 0.01699
 O499 O 0.77236 0.74021 0.47635
 O500 O 0.74994 0.71508 0.50840
 O501 O 0.74982 0.71607 0.47571
 O502 O 0.77235 0.73920 0.50899
 O503 O 0.75160 0.75786 0.50938
 O504 O 0.72908 0.73474 0.47613
 O505 O 0.72918 0.73374 0.50882
 O506 O 0.75161 0.75887 0.47679
 Cu507 Cu 0.76319 0.72577 0.49229
 Cu508 Cu 0.73827 0.74815 0.49280
 C509 C 0.76585 0.75385 0.47109
 C510 C 0.73578 0.72018 0.51420
 C511 C 0.73560 0.72147 0.47019
 C512 C 0.76580 0.75246 0.51493
 O513 O 1.01594 0.27909 0.24427
 O514 O 0.98232 0.25827 0.26934
 O515 O 1.01561 0.25798 0.26926
 O516 O 0.98258 0.28002 0.24492
 O517 O 0.98188 0.25925 0.22680
 O518 O 1.01493 0.23708 0.25128
 O519 O 0.98168 0.23749 0.25123
 O520 O 1.01525 0.25816 0.22634
 Cu521 Cu 0.99918 0.27095 0.25873
 Cu522 Cu 0.99835 0.24593 0.23709
 C523 C 1.02144 0.27209 0.23107
 C524 C 0.97624 0.24429 0.26453
 C525 C 1.02095 0.24377 0.26446
 C526 C 0.97649 0.27340 0.23176
 O527 O 0.47857 0.24555 0.72408
 O528 O 0.51126 0.22133 0.74637
 O529 O 0.47812 0.22407 0.74872
 O530 O 0.51190 0.24427 0.72312
 O531 O 0.51392 0.26444 0.74181
 O532 O 0.48074 0.24423 0.76735
 O533 O 0.51389 0.24142 0.76508
 O534 O 0.48052 0.26574 0.74276
 Cu535 Cu 0.49473 0.23181 0.73371
 Cu536 Cu 0.49751 0.25598 0.75610
 C537 C 0.47378 0.25967 0.72959
 C538 C 0.51829 0.22718 0.75943
 C539 C 0.47362 0.23080 0.76244
 C540 C 0.51875 0.25783 0.72820
 O541 O -0.01223 0.27616 0.75174
 O542 O 0.02023 0.25236 0.72910
 O543 O -0.01301 0.25292 0.72898
 O544 O 0.02107 0.27400 0.75336
 O545 O 0.01948 0.25386 0.77234
 O546 O -0.01430 0.23306 0.74828
 O547 O 0.01896 0.23215 0.74804
 O548 O -0.01383 0.25624 0.77096
 Cu549 Cu 0.00416 0.26588 0.73892
 Cu550 Cu 0.00247 0.24186 0.76184
 C551 C -0.01875 0.27030 0.76509
 C552 C 0.02515 0.23821 0.73456
 C553 C -0.01950 0.23934 0.73457
 C554 C 0.02616 0.26740 0.76703
 O555 O 0.51724 0.25855 0.28000
 O556 O 0.48513 0.23548 0.25505
 O557 O 0.51832 0.23520 0.25739
 O558 O 0.48397 0.25763 0.27877
 O559 O 0.48452 0.27746 0.25940
 O560 O 0.51942 0.25496 0.23798
 O561 O 0.48628 0.25529 0.23568
 O562 O 0.51789 0.27835 0.26060
 Cu563 Cu 0.50109 0.24475 0.26975
 Cu564 Cu 0.50213 0.26853 0.24650
 C565 C 0.52308 0.27244 0.27449
 C566 C 0.48026 0.24147 0.24104
 C567 C 0.52476 0.24114 0.24404
 C568 C 0.47823 0.27127 0.27277
 O569 O 1.01303 0.77013 0.74185
 O570 O 0.98033 0.74865 0.76727
 O571 O 1.01354 0.74715 0.76503
 O572 O 0.97972 0.77151 0.74389
 O573 O 0.97754 0.75188 0.72465
 O574 O 1.01123 0.72752 0.74579
 O575 O 0.97799 0.72902 0.74803
 O576 O 1.01075 0.75053 0.72258
 Cu577 Cu 0.99687 0.76133 0.75643
 Cu578 Cu 0.99414 0.73777 0.73334
 C579 C 1.01758 0.76396 0.72792
 C580 C 0.97350 0.73519 0.76199
 C581 C 1.01824 0.73320 0.75897
 C582 C 0.97279 0.76582 0.73068
 O583 O 0.51635 0.73550 0.24387
 O584 O 0.48269 0.75945 0.22177
 O585 O 0.51597 0.75839 0.22054
 O586 O 0.48305 0.73549 0.24406
 O587 O 0.48368 0.75472 0.26379
 O588 O 0.51717 0.77761 0.24027
 O589 O 0.48381 0.77870 0.24146
 O590 O 0.51694 0.75478 0.26357
 Cu591 Cu 0.49941 0.74529 0.23058
 Cu592 Cu 0.50046 0.76840 0.25422
 C593 C 0.52241 0.74112 0.25754
 C594 C 0.47749 0.77320 0.22790
 C595 C 0.52236 0.77180 0.22638
 C596 C 0.47769 0.74111 0.25792
 O597 O 0.01535 0.75315 0.27742
 O598 O -0.01713 0.73127 0.25215
 O599 O 0.01601 0.72963 0.25499
 O600 O -0.01786 0.75457 0.27476
 O601 O -0.01525 0.77379 0.25494
 O602 O 0.01862 0.74887 0.23519
 O603 O -0.01446 0.75046 0.23231
 O604 O 0.01793 0.77238 0.25760
 Cu605 Cu -0.00117 0.74023 0.26683
 Cu606 Cu 0.00198 0.76331 0.24303
 C607 C 0.02226 0.76648 0.27180
 C608 C -0.02138 0.73713 0.23791
 C609 C 0.02314 0.73499 0.24171
 C610 C -0.02242 0.76840 0.26819
 O611 O 0.51836 0.75240 0.77139
 O612 O 0.48509 0.73019 0.74717
 O613 O 0.51834 0.72860 0.74913
 O614 O 0.48507 0.75339 0.76986
 O615 O 0.48695 0.77263 0.74998
 O616 O 0.52029 0.74774 0.72916
 O617 O 0.48708 0.74941 0.72727
 O618 O 0.52016 0.77150 0.75137
 Cu619 Cu 0.50155 0.73922 0.76138
 Cu620 Cu 0.50383 0.76223 0.73744
 C621 C 0.52494 0.76579 0.76549
 C622 C 0.48032 0.73610 0.73309
 C623 C 0.52504 0.73391 0.73562
 C624 C 0.48024 0.76720 0.76346
 C625 C 0.38339 0.34690 0.32437
 C626 C 0.39764 0.34068 0.31590
 C627 C 0.39925 0.32344 0.31285
 C628 C 0.38602 0.31257 0.31801
 C629 C 0.37181 0.31878 0.32649
 C630 C 0.37038 0.33599 0.32986
 C631 C 0.41460 0.31723 0.30399
 C632 C 0.42058 0.30161 0.30615
 C633 C 0.43585 0.29483 0.29758
 C634 C 0.44349 0.28039 0.30430
 C635 C 0.45739 0.27296 0.29637
 C636 C 0.46397 0.27974 0.28142
 C637 C 0.45643 0.29429 0.27469
 C638 C 0.44247 0.30175 0.28266
 H639 H 0.38267 0.36022 0.32685
 H640 H 0.40757 0.34933 0.31191
 H641 H 0.38642 0.29930 0.31529
 H642 H 0.36177 0.31013 0.33016
 H643 H 0.42155 0.32607 0.29623
 H644 H 0.41441 0.29342 0.31518
 H645 H 0.43862 0.27474 0.31571
 H646 H 0.46286 0.26176 0.30190
 H647 H 0.46113 0.29974 0.26313
 H648 H 0.43669 0.31261 0.27682
 C649 C 0.38688 0.81856 0.84054
 C650 C 0.40101 0.81053 0.83357
 C651 C 0.40391 0.81099 0.81626
 C652 C 0.39218 0.81955 0.80598
 C653 C 0.37810 0.82767 0.81291
 C654 C 0.37509 0.82735 0.83036
 C655 C 0.41877 0.80177 0.80942
 C656 C 0.42541 0.80468 0.79417
 C657 C 0.43983 0.79502 0.78702
 C658 C 0.44866 0.80176 0.77323
 C659 C 0.46189 0.79284 0.76566
 C660 C 0.46656 0.77691 0.77170
 C661 C 0.45775 0.77015 0.78551
 C662 C 0.44448 0.77902 0.79303
 H663 H 0.38568 0.81828 0.85403
 H664 H 0.40982 0.80399 0.84180
 H665 H 0.39344 0.81963 0.79250
 H666 H 0.36915 0.83345 0.80431
 H667 H 0.42467 0.79259 0.81759
 H668 H 0.42049 0.81489 0.78662
 H669 H 0.44527 0.81397 0.76824
 H670 H 0.46840 0.79839 0.75501
 H671 H 0.46092 0.75782 0.79036
 H672 H 0.43770 0.77305 0.80324
 C673 C -0.11181 0.32387 0.84121
 C674 C -0.09719 0.31639 0.83461
 C675 C -0.09554 0.31401 0.81730
 C676 C -0.10890 0.31929 0.80666
 C677 C -0.12354 0.32677 0.81327
 C678 C -0.12522 0.32901 0.83063
 C679 C -0.08023 0.30518 0.81093
 C680 C -0.07455 0.30679 0.79516
 C681 C -0.05964 0.29756 0.78848
 C682 C -0.05147 0.30392 0.77416
 C683 C -0.03797 0.29524 0.76683
 C684 C -0.03240 0.27986 0.77357
 C685 C -0.04047 0.27351 0.78798
 C686 C -0.05399 0.28223 0.79535
 H687 H -0.11270 0.32555 0.85463
 H688 H -0.08715 0.31237 0.84308
 H689 H -0.10842 0.31717 0.79331
 H690 H -0.13381 0.33025 0.80484
 H691 H -0.07315 0.29755 0.81978
 H692 H -0.08069 0.31567 0.78681
 H693 H -0.05563 0.31562 0.76854
 H694 H -0.03208 0.30048 0.75570
 H695 H -0.03657 0.26163 0.79339
 H696 H -0.06026 0.27664 0.80609
 C697 C -0.11663 0.82329 0.34177
 C698 C -0.10221 0.81520 0.33546
 C699 C -0.09991 0.81342 0.31813
 C700 C -0.11253 0.81973 0.30720
 C701 C -0.12693 0.82784 0.31351
 C702 C -0.12914 0.82971 0.33085
 C703 C -0.08472 0.80424 0.31201
 C704 C -0.07843 0.80606 0.29648
 C705 C -0.06364 0.79646 0.29003
 C706 C -0.05490 0.80265 0.27595
 C707 C -0.04138 0.79367 0.26899
 C708 C -0.03634 0.77821 0.27592
 C709 C -0.04506 0.77200 0.29004
 C710 C -0.05860 0.78097 0.29699
 H711 H -0.11798 0.82462 0.35519
 H712 H -0.09278 0.81033 0.34416
 H713 H -0.11162 0.81806 0.29380
 H714 H -0.13657 0.83228 0.30481
 H715 H -0.07824 0.79616 0.32089
 H716 H -0.08393 0.81534 0.28814
 H717 H -0.05861 0.81446 0.27025
 H718 H -0.03496 0.79879 0.25808
 H719 H -0.04160 0.76005 0.29558
 H720 H -0.06532 0.77545 0.30749
 C721 C 0.60981 0.65822 0.31142
 C722 C 0.59630 0.66587 0.30283
 C723 C 0.59619 0.68329 0.30019
 C724 C 0.61010 0.69289 0.30603
 C725 C 0.62358 0.68525 0.31463
 C726 C 0.62358 0.66784 0.31745
 C727 C 0.58170 0.69092 0.29089
 C728 C 0.57714 0.70702 0.29265
 C729 C 0.56271 0.71496 0.28355
 C730 C 0.55585 0.72982 0.28999
 C731 C 0.54266 0.73815 0.28164
 C732 C 0.53606 0.73188 0.26653
 C733 C 0.54289 0.71700 0.26002
 C734 C 0.55612 0.70863 0.26840
 H735 H 0.60941 0.64478 0.31347
 H736 H 0.58583 0.65817 0.29835
 H737 H 0.61085 0.70625 0.30370
 H738 H 0.63421 0.69292 0.31876
 H739 H 0.57415 0.68272 0.28303
 H740 H 0.58376 0.71470 0.30174
 H741 H 0.56075 0.73504 0.30155
 H742 H 0.53774 0.74960 0.28700
 H743 H 0.53817 0.71193 0.24833
 H744 H 0.56137 0.69750 0.26274
 C745 C 0.60659 0.16820 0.83775
 C746 C 0.59303 0.17708 0.83057
 C747 C 0.59223 0.17967 0.81319
 C748 C 0.60540 0.17323 0.80310
 C749 C 0.61898 0.16435 0.81030
 C750 C 0.61978 0.16183 0.82771
 C751 C 0.57792 0.18971 0.80621
 C752 C 0.57264 0.18860 0.79026
 C753 C 0.55837 0.19859 0.78315
 C754 C 0.55013 0.19265 0.76873
 C755 C 0.53700 0.20183 0.76123
 C756 C 0.53186 0.21731 0.76788
 C757 C 0.54010 0.22332 0.78231
 C758 C 0.55325 0.21409 0.78987
 H759 H 0.60676 0.16633 0.85119
 H760 H 0.58312 0.18195 0.83864
 H761 H 0.60560 0.17542 0.78973
 H762 H 0.62912 0.15988 0.80228
 H763 H 0.57108 0.19772 0.81479
 H764 H 0.57844 0.17943 0.78212
 H765 H 0.55389 0.18084 0.76323
 H766 H 0.53098 0.19684 0.75008
 H767 H 0.53653 0.23526 0.78766
 H768 H 0.55961 0.21936 0.80068
 C769 C 1.11200 0.68010 0.83542
 C770 C 1.09735 0.68749 0.82863
 C771 C 1.09555 0.68950 0.81124
 C772 C 1.10882 0.68400 0.80075
 C773 C 1.12347 0.67660 0.80754
 C774 C 1.12527 0.67464 0.82496
 C775 C 1.08017 0.69821 0.80466
 C776 C 1.07450 0.69659 0.78887
 C777 C 1.05958 0.70586 0.78204
 C778 C 1.05134 0.69962 0.76774
 C779 C 1.03775 0.70833 0.76041
 C780 C 1.03216 0.72360 0.76716
 C781 C 1.04037 0.72986 0.78151
 C782 C 1.05397 0.72114 0.78885
 H783 H 1.11297 0.67865 0.84889
 H784 H 1.08739 0.69171 0.83701
 H785 H 1.10825 0.68584 0.78733
 H786 H 1.13364 0.67288 0.79918
 H787 H 1.07306 0.70581 0.81338
 H788 H 1.08064 0.68776 0.78061
 H789 H 1.05549 0.68797 0.76215
 H790 H 1.03175 0.70319 0.74933
 H791 H 1.03648 0.74166 0.78694
 H792 H 1.06029 0.72668 0.79953
 C793 C 1.12852 0.17991 0.30423
 C794 C 1.11468 0.18724 0.29596
 C795 C 1.10048 0.19296 0.30495
 C796 C 1.10030 0.19096 0.32249
 C797 C 1.11418 0.18360 0.33078
 C798 C 1.12843 0.17797 0.32174
 C799 C 1.08602 0.20045 0.29551
 C800 C 1.07461 0.21094 0.30227
 C801 C 1.06066 0.21887 0.29246
 C802 C 1.05396 0.23417 0.29797
 C803 C 1.04102 0.24222 0.28893
 C804 C 1.03438 0.23504 0.27424
 C805 C 1.04079 0.21951 0.26894
 C806 C 1.05375 0.21147 0.27797
 H807 H 1.13940 0.17588 0.29693
 H808 H 1.11512 0.18857 0.28245
 H809 H 1.08938 0.19469 0.32984
 H810 H 1.11361 0.18199 0.34425
 H811 H 1.08545 0.19791 0.28221
 H812 H 1.07610 0.21479 0.31516
 H813 H 1.05892 0.24005 0.30918
 H814 H 1.03629 0.25413 0.29341
 H815 H 1.03582 0.21355 0.25778
 H816 H 1.05815 0.19940 0.27365
 C817 C 0.61191 0.33516 0.67502
 C818 C 0.59723 0.32812 0.68220
 C819 C 0.59585 0.31071 0.68464
 C820 C 0.60962 0.30046 0.67992
 C821 C 0.62430 0.30750 0.67275
 C822 C 0.62563 0.32492 0.67022
 C823 C 0.58033 0.30389 0.69295
 C824 C 0.57518 0.28785 0.69171
 C825 C 0.56017 0.28089 0.70080
 C826 C 0.55247 0.26608 0.69496
 C827 C 0.53882 0.25870 0.70364
 C828 C 0.53266 0.26592 0.71846
 C829 C 0.54035 0.28076 0.72429
 C830 C 0.55397 0.28812 0.71563
 H831 H 0.61247 0.34861 0.67310
 H832 H 0.58689 0.33633 0.68584
 H833 H 0.60938 0.28707 0.68213
 H834 H 0.63480 0.29931 0.66953
 H835 H 0.57266 0.31266 0.69996
 H836 H 0.58189 0.27946 0.68341
 H837 H 0.55709 0.26015 0.68368
 H838 H 0.53323 0.24724 0.69886
 H839 H 0.53604 0.28658 0.73574
 H840 H 0.55986 0.29918 0.72091
 C841 C 0.62012 0.84633 0.17639
 C842 C 0.60554 0.84014 0.18444
 C843 C 0.60175 0.82296 0.18441
 C844 C 0.61303 0.81200 0.17629
 C845 C 0.62758 0.81815 0.16816
 C846 C 0.63152 0.83546 0.16808
 C847 C 0.58640 0.81688 0.19356
 C848 C 0.57864 0.80224 0.19020
 C849 C 0.56366 0.79554 0.19951
 C850 C 0.55444 0.78222 0.19242
 C851 C 0.54085 0.77477 0.20101
 C852 C 0.53615 0.78043 0.21698
 C853 C 0.54519 0.79391 0.22404
 C854 C 0.55887 0.80135 0.21546
 H855 H 0.62200 0.85978 0.17629
 H856 H 0.59708 0.84887 0.19062
 H857 H 0.61103 0.79857 0.17658
 H858 H 0.63613 0.80903 0.16277
 H859 H 0.58111 0.82511 0.20292
 H860 H 0.58314 0.79482 0.17980
 H861 H 0.55788 0.77742 0.18021
 H862 H 0.53416 0.76441 0.19519
 H863 H 0.54196 0.79847 0.23639
 H864 H 0.56586 0.81127 0.22163
 C865 C 1.13005 0.33571 0.19188
 C866 C 1.11543 0.32926 0.19960
 C867 C 1.10349 0.31978 0.19057
 C868 C 1.10646 0.31702 0.17343
 C869 C 1.12118 0.32336 0.16567
 C870 C 1.13330 0.33291 0.17471
 C871 C 1.08817 0.31334 0.19958
 C872 C 1.07765 0.30140 0.19368
 C873 C 1.06289 0.29455 0.20326
 C874 C 1.05633 0.27878 0.19880
 C875 C 1.04276 0.27160 0.20769
 C876 C 1.03535 0.28006 0.22124
 C877 C 1.04160 0.29603 0.22547
 C878 C 1.05514 0.30326 0.21653
 H879 H 1.13909 0.34230 0.19974
 H880 H 1.11356 0.33156 0.21283
 H881 H 1.09737 0.31029 0.16577
 H882 H 1.12252 0.32133 0.15236
 H883 H 1.08609 0.31817 0.21204
 H884 H 1.08038 0.29556 0.18181
 H885 H 1.06191 0.27185 0.18855
 H886 H 1.03822 0.25929 0.20405
 H887 H 1.03603 0.30297 0.23572
 H888 H 1.05931 0.31570 0.22002
 C889 C 1.11215 0.84085 0.67644
 C890 C 1.09777 0.83394 0.68424
 C891 C 1.09435 0.81670 0.68339
 C892 C 1.10574 0.80644 0.67454
 C893 C 1.12009 0.81333 0.66662
 C894 C 1.12371 0.83069 0.66749
 C895 C 1.07934 0.80992 0.69261
 C896 C 1.07240 0.79476 0.68979
 C897 C 1.05791 0.78769 0.69958
 C898 C 1.04882 0.77401 0.69298
 C899 C 1.03558 0.76644 0.70205
 C900 C 1.03114 0.77236 0.71800
 C901 C 1.04017 0.78609 0.72461
 C902 C 1.05346 0.79361 0.71558
 H903 H 1.11375 0.85431 0.67706
 H904 H 1.08921 0.84217 0.69096
 H905 H 1.10404 0.79299 0.67408
 H906 H 1.12877 0.80471 0.66064
 H907 H 1.07361 0.81807 0.70180
 H908 H 1.07716 0.78721 0.67962
 H909 H 1.05204 0.76908 0.68077
 H910 H 1.02891 0.75585 0.69661
 H911 H 1.03719 0.79084 0.73694
 H912 H 1.06043 0.80373 0.72145
 C913 C 0.38811 0.65890 0.67825
 C914 C 0.40209 0.66564 0.68688
 C915 C 0.40398 0.68306 0.68855
 C916 C 0.39139 0.69364 0.68165
 C917 C 0.37743 0.68691 0.67302
 C918 C 0.37564 0.66947 0.67120
 C919 C 0.41883 0.68970 0.69806
 C920 C 0.42507 0.70525 0.69584
 C921 C 0.43969 0.71227 0.70543
 C922 C 0.44819 0.72639 0.69892
 C923 C 0.46153 0.73394 0.70777
 C924 C 0.46664 0.72760 0.72345
 C925 C 0.45820 0.71342 0.72999
 C926 C 0.44482 0.70585 0.72112
 H927 H 0.38713 0.64542 0.67697
 H928 H 0.41151 0.65721 0.69218
 H929 H 0.39199 0.70710 0.68321
 H930 H 0.36782 0.69535 0.66809
 H931 H 0.42516 0.68116 0.70662
 H932 H 0.41968 0.71316 0.68614
 H933 H 0.44443 0.73167 0.68693
 H934 H 0.46772 0.74487 0.70238
 H935 H 0.46174 0.70831 0.74210
 H936 H 0.43831 0.69531 0.72684
 C937 C 0.37755 0.17257 0.19621
 C938 C 0.39072 0.18040 0.20506
 C939 C 0.40216 0.19129 0.19699
 C940 C 0.39995 0.19441 0.17976
 C941 C 0.38677 0.18658 0.17085
 C942 C 0.37528 0.17541 0.17885
 C943 C 0.41576 0.19936 0.20722
 C944 C 0.42934 0.20748 0.20085
 C945 C 0.44243 0.21575 0.21144
 C946 C 0.45123 0.22967 0.20494
 C947 C 0.46350 0.23799 0.21455
 C948 C 0.46743 0.23241 0.23084
 C949 C 0.45892 0.21821 0.23724
 C950 C 0.44654 0.20995 0.22765
 H951 H 0.36878 0.16487 0.20336
 H952 H 0.39189 0.17797 0.21838
 H953 H 0.40819 0.20295 0.17298
 H954 H 0.38613 0.18897 0.15752
 H955 H 0.41436 0.19855 0.22069
 H956 H 0.43086 0.20875 0.18746
 H957 H 0.44843 0.23427 0.19244
 H958 H 0.46992 0.24882 0.20920
 H959 H 0.46177 0.21352 0.24969
 H960 H 0.44043 0.19891 0.23287
 C961 C -0.10965 0.65553 0.18429
 C962 C -0.09592 0.66338 0.19228
 C963 C -0.09380 0.68082 0.19143
 C964 C -0.10575 0.69030 0.18225
 C965 C -0.11945 0.68247 0.17414
 C966 C -0.12185 0.66492 0.17516
 C967 C -0.07956 0.68856 0.20103
 C968 C -0.07386 0.70428 0.19857
 C969 C -0.06012 0.71208 0.20877
 C970 C -0.05142 0.72610 0.20228
 C971 C -0.03875 0.73416 0.21166
 C972 C -0.03456 0.72842 0.22782
 C973 C -0.04331 0.71444 0.23438
 C974 C -0.05601 0.70641 0.22502
 H975 H -0.11029 0.64199 0.18499
 H976 H -0.08688 0.65574 0.19920
 H977 H -0.10502 0.70384 0.18171
 H978 H -0.12865 0.69049 0.16794
 H979 H -0.07333 0.68069 0.21026
 H980 H -0.07899 0.71172 0.18838
 H981 H -0.05444 0.73084 0.18988
 H982 H -0.03229 0.74494 0.20626
 H983 H -0.04052 0.70981 0.24687
 H984 H -0.06279 0.69605 0.23079
 C985 C -0.11093 0.15702 0.68731
 C986 C -0.09695 0.16504 0.69476
 C987 C -0.09450 0.18239 0.69296
 C988 C -0.10649 0.19163 0.68361
 C989 C -0.12040 0.18363 0.67604
 C990 C -0.12297 0.16614 0.67774
 C991 C -0.07982 0.19037 0.70171
 C992 C -0.07396 0.20589 0.69833
 C993 C -0.05978 0.21399 0.70772
 C994 C -0.05134 0.22785 0.70052
 C995 C -0.03822 0.23612 0.70915
 C996 C -0.03329 0.23070 0.72522
 C997 C -0.04182 0.21693 0.73247
 C998 C -0.05497 0.20874 0.72391
 H999 H -0.11181 0.14354 0.68866
 H1000 H -0.08795 0.15759 0.70193
 H1001 H -0.10558 0.20511 0.68244
 H1002 H -0.12956 0.19151 0.66961
 H1003 H -0.07339 0.18281 0.71107
 H1004 H -0.07933 0.21294 0.68799
 H1005 H -0.05490 0.23229 0.68815
 H1006 H -0.03194 0.24672 0.70324
 H1007 H -0.03849 0.21256 0.74493
 H1008 H -0.06150 0.19858 0.73026
 C1009 C 0.31705 0.39033 0.34645
 C1010 C 0.30885 0.40469 0.34032
 C1011 C 0.30705 0.40738 0.32302
 C1012 C 0.31321 0.39513 0.31194
 C1013 C 0.32139 0.38081 0.31806
 C1014 C 0.32352 0.37829 0.33536
 C1015 C 0.29818 0.42267 0.31694
 C1016 C 0.30104 0.42941 0.30174
 C1017 C 0.29188 0.44423 0.29491
 C1018 C 0.29877 0.45246 0.28086
 C1019 C 0.29011 0.46575 0.27322
 C1020 C 0.27426 0.47112 0.27943
 C1021 C 0.26744 0.46309 0.29365
 C1022 C 0.27610 0.44975 0.30129
 H1023 H 0.31854 0.38875 0.35986
 H1024 H 0.30405 0.41382 0.34913
 H1025 H 0.31143 0.39635 0.29855
 H1026 H 0.32580 0.37154 0.30921
 H1027 H 0.28957 0.42877 0.32554
 H1028 H 0.31087 0.42407 0.29390
 H1029 H 0.31084 0.44843 0.27562
 H1030 H 0.29572 0.47165 0.26227
 H1031 H 0.25519 0.46684 0.29866
 H1032 H 0.27007 0.44353 0.31180
 C1033 C 0.33223 -0.12714 0.80962
 C1034 C 0.32472 -0.11368 0.80116
 C1035 C 0.31541 -0.10154 0.80984
 C1036 C 0.31396 -0.10303 0.82733
 C1037 C 0.32138 -0.11656 0.83584
 C1038 C 0.33072 -0.12893 0.82717
 C1039 C 0.30789 -0.08744 0.80013
 C1040 C 0.29564 -0.07724 0.80591
 C1041 C 0.28802 -0.06351 0.79576
 C1042 C 0.27180 -0.05746 0.80012
 C1043 C 0.26404 -0.04474 0.79071
 C1044 C 0.27239 -0.03776 0.77673
 C1045 C 0.28879 -0.04352 0.77259
 C1046 C 0.29659 -0.05615 0.78205
 H1047 H 0.33862 -0.13647 0.80211
 H1048 H 0.32603 -0.11288 0.78767
 H1049 H 0.30747 -0.09365 0.83465
 H1050 H 0.32037 -0.11676 0.84935
 H1051 H 0.31218 -0.08601 0.78733
 H1052 H 0.29020 -0.07948 0.81816
 H1053 H 0.26500 -0.06275 0.81072
 H1054 H 0.25142 -0.04051 0.79427
 H1055 H 0.29567 -0.03821 0.76205
 H1056 H 0.30938 -0.05991 0.77863
 C1057 C 0.80796 0.37085 0.83014
 C1058 C 0.79936 0.38420 0.82256
 C1059 C 0.80824 0.39640 0.81333
 C1060 C 0.82607 0.39479 0.81166
 C1061 C 0.83473 0.38140 0.81922
 C1062 C 0.82589 0.36914 0.82873
 C1063 C 0.79825 0.41022 0.80548
 C1064 C 0.80510 0.42407 0.79860
 C1065 C 0.79453 0.43720 0.79051
 C1066 C 0.80051 0.44476 0.77584
 C1067 C 0.79114 0.45702 0.76732
 C1068 C 0.77514 0.46281 0.77289
 C1069 C 0.76774 0.45671 0.78770
 C1070 C 0.77810 0.44297 0.79754
 H1071 H 0.80022 0.36154 0.83651
 H1072 H 0.78559 0.38493 0.82386
 H1073 H 0.83353 0.40368 0.80448
 H1074 H 0.84849 0.38120 0.81802
 H1075 H 0.78447 0.40877 0.80528
 H1076 H 0.81879 0.42569 0.79797
 H1077 H 0.81266 0.44091 0.77064
 H1078 H 0.79662 0.46210 0.75591
 H1079 H 0.77084 0.44945 0.79513
 H1080 H 0.77614 0.43527 0.81095
 C1081 C 0.83822 -0.11377 0.31914
 C1082 C 0.83177 -0.09966 0.31087
 C1083 C 0.81421 -0.09628 0.31077
 C1084 C 0.80315 -0.10744 0.31914
 C1085 C 0.80957 -0.12153 0.32752
 C1086 C 0.82726 -0.12512 0.32760
 C1087 C 0.80799 -0.08147 0.30120
 C1088 C 0.79262 -0.07443 0.30354
 C1089 C 0.78619 -0.05987 0.29373
 C1090 C 0.77230 -0.05082 0.30008
 C1091 C 0.76533 -0.03742 0.29106
 C1092 C 0.77205 -0.03277 0.27539
 C1093 C 0.78599 -0.04176 0.26900
 C1094 C 0.79294 -0.05523 0.27801
 H1095 H 0.85195 -0.11533 0.31927
 H1096 H 0.84062 -0.09126 0.30456
 H1097 H 0.78945 -0.10573 0.31887
 H1098 H 0.80038 -0.13003 0.33313
 H1099 H 0.81678 -0.07591 0.29230
 H1100 H 0.78445 -0.07909 0.31345
 H1101 H 0.76676 -0.05417 0.31207
 H1102 H 0.75457 -0.03078 0.29634
 H1103 H 0.79135 -0.03860 0.25689
 H1104 H 0.80327 -0.06214 0.27235
 C1105 C 0.31010 0.62729 0.66831
 C1106 C 0.30116 0.61376 0.67524
 C1107 C 0.30993 0.59997 0.68202
 C1108 C 0.32792 0.59983 0.68137
 C1109 C 0.33687 0.61340 0.67445
 C1110 C 0.32806 0.62729 0.66788
 C1111 C 0.29982 0.58599 0.68936
 C1112 C 0.30604 0.57526 0.70081
 C1113 C 0.29559 0.56194 0.70887
 C1114 C 0.30064 0.55582 0.72462
 C1115 C 0.29101 0.54351 0.73283
 C1116 C 0.27615 0.53692 0.72539
 C1117 C 0.27128 0.54275 0.70945
 C1118 C 0.28092 0.55508 0.70122
 H1119 H 0.30295 0.63790 0.66352
 H1120 H 0.28731 0.61416 0.67550
 H1121 H 0.33516 0.58920 0.68592
 H1122 H 0.35070 0.61292 0.67399
 H1123 H 0.28644 0.58532 0.68594
 H1124 H 0.31896 0.57690 0.70542
 H1125 H 0.31196 0.56076 0.73071
 H1126 H 0.29518 0.53923 0.74506
 H1127 H 0.26001 0.53779 0.70330
 H1128 H 0.27693 0.55902 0.68884
 C1129 C 0.34477 1.11539 0.17939
 C1130 C 0.33794 1.10103 0.18696
 C1131 C 0.32020 1.09917 0.18894
 C1132 C 0.30938 1.11198 0.18294
 C1133 C 0.31623 1.12633 0.17531
 C1134 C 0.33399 1.12829 0.17369
 C1135 C 0.31371 1.08430 0.19826
 C1136 C 0.29744 1.07896 0.19767
 C1137 C 0.29083 1.06468 0.20778
 C1138 C 0.27570 1.05673 0.20263
 C1139 C 0.26855 1.04375 0.21218
 C1140 C 0.27633 1.03849 0.22719
 C1141 C 0.29151 1.04641 0.23236
 C1142 C 0.29866 1.05941 0.22281
 H1143 H 0.35851 1.11650 0.17814
 H1144 H 0.34658 1.09142 0.19149
 H1145 H 0.29569 1.11135 0.18463
 H1146 H 0.30766 1.13620 0.17127
 H1147 H 0.32292 1.07734 0.20564
 H1148 H 0.28854 1.08491 0.18913
 H1149 H 0.26932 1.06062 0.19121
 H1150 H 0.25681 1.03795 0.20785
 H1151 H 0.29773 1.04276 0.24394
 H1152 H 0.31001 1.06555 0.22754
 C1153 C 0.84546 0.60618 0.18147
 C1154 C 0.83848 0.59208 0.18944
 C1155 C 0.82074 0.59060 0.19168
 C1156 C 0.81012 0.60367 0.18598
 C1157 C 0.81710 0.61775 0.17801
 C1158 C 0.83484 0.61918 0.17568
 C1159 C 0.81388 0.57569 0.20064
 C1160 C 0.79776 0.57019 0.19874
 C1161 C 0.79044 0.55565 0.20796
 C1162 C 0.77555 0.54812 0.20165
 C1163 C 0.76762 0.53496 0.21028
 C1164 C 0.77435 0.52907 0.22554
 C1165 C 0.78934 0.53650 0.23185
 C1166 C 0.79728 0.54970 0.22321
 H1167 H 0.85918 0.60689 0.17978
 H1168 H 0.84696 0.58227 0.19382
 H1169 H 0.79645 0.60335 0.18803
 H1170 H 0.80863 0.62774 0.17405
 H1171 H 0.82265 0.56877 0.20854
 H1172 H 0.78956 0.57623 0.18961
 H1173 H 0.76994 0.55251 0.19001
 H1174 H 0.75608 0.52954 0.20507
 H1175 H 0.79476 0.53234 0.24365
 H1176 H 0.80844 0.55545 0.22878
 C1177 C 0.84301 1.10986 0.68766
 C1178 C 0.83546 1.09575 0.69510
 C1179 C 0.81796 1.09245 0.69312
 C1180 C 0.80805 1.10379 0.68373
 C1181 C 0.81557 1.11784 0.67619
 C1182 C 0.83324 1.12121 0.67795
 C1183 C 0.81041 1.07754 0.70162
 C1184 C 0.79543 1.07059 0.69712
 C1185 C 0.78735 1.05611 0.70589
 C1186 C 0.77379 1.04771 0.69794
 C1187 C 0.76522 1.03451 0.70594
 C1188 C 0.77001 1.02940 0.72214
 C1189 C 0.78362 1.03772 0.73011
 C1190 C 0.79214 1.05098 0.72214
 H1191 H 0.85668 1.11138 0.68910
 H1192 H 0.84340 1.08726 0.70233
 H1193 H 0.79438 1.10223 0.68250
 H1194 H 0.80716 1.12644 0.66970
 H1195 H 0.81786 1.07193 0.71158
 H1196 H 0.78880 1.07537 0.68621
 H1197 H 0.76973 1.05144 0.68549
 H1198 H 0.75477 1.02838 0.69946
 H1199 H 0.78752 1.03419 0.74266
 H1200 H 0.80212 1.05735 0.72901
 C1201 C 0.65576 0.60843 0.31583
 C1202 C 0.66275 0.59400 0.30877
 C1203 C 0.68053 0.59221 0.30730
 C1204 C 0.69121 0.60526 0.31297
 C1205 C 0.68421 0.61967 0.32006
 C1206 C 0.66641 0.62145 0.32150
 C1207 C 0.68735 0.57702 0.29903
 C1208 C 0.70338 0.57149 0.30124
 C1209 C 0.71056 0.55673 0.29250
 C1210 C 0.72526 0.54913 0.29914
 C1211 C 0.73301 0.53575 0.29093
 C1212 C 0.72629 0.52969 0.27579
 C1213 C 0.71151 0.53720 0.26915
 C1214 C 0.70375 0.55062 0.27736
 H1215 H 0.64199 0.60940 0.31688
 H1216 H 0.65423 0.58421 0.30441
 H1217 H 0.70493 0.60469 0.31153
 H1218 H 0.69272 0.62966 0.32397
 H1219 H 0.67858 0.56994 0.29130
 H1220 H 0.71162 0.57768 0.31020
 H1221 H 0.73085 0.55365 0.31070
 H1222 H 0.74441 0.53027 0.29638
 H1223 H 0.70610 0.53293 0.25742
 H1224 H 0.69277 0.55642 0.27151
 C1225 C 0.67245 1.10433 0.83773
 C1226 C 0.68042 1.09060 0.83033
 C1227 C 0.67960 1.08811 0.81299
 C1228 C 0.67035 1.09966 0.80317
 C1229 C 0.66222 1.11336 0.81056
 C1230 C 0.66333 1.11617 0.82799
 C1231 C 0.68926 1.07382 0.80581
 C1232 C 0.68741 1.06824 0.79007
 C1233 C 0.69766 1.05434 0.78295
 C1234 C 0.69157 1.04621 0.76857
 C1235 C 0.70103 1.03343 0.76110
 C1236 C 0.71688 1.02852 0.76781
 C1237 C 0.72303 1.03666 0.78219
 C1238 C 0.71361 1.04949 0.78962
 H1239 H 0.67314 1.10526 0.85122
 H1240 H 0.68734 1.08187 0.83827
 H1241 H 0.66973 1.09860 0.78970
 H1242 H 0.65596 1.12222 0.80230
 H1243 H 0.69805 1.06746 0.81415
 H1244 H 0.67768 1.07360 0.78206
 H1245 H 0.67943 1.04977 0.76306
 H1246 H 0.69593 1.02745 0.75001
 H1247 H 0.73528 1.03331 0.78755
 H1248 H 0.71912 1.05577 0.80032
 C1249 C 0.19097 0.63142 0.82462
 C1250 C 0.19912 0.61764 0.81756
 C1251 C 0.18977 0.60532 0.80907
 C1252 C 0.17193 0.60709 0.80779
 C1253 C 0.16372 0.62097 0.81477
 C1254 C 0.17305 0.63337 0.82350
 C1255 C 0.19920 0.59073 0.80227
 C1256 C 0.19284 0.58006 0.79089
 C1257 C 0.20280 0.56587 0.78402
 C1258 C 0.19819 0.55939 0.76834
 C1259 C 0.20741 0.54622 0.76127
 C1260 C 0.22141 0.53917 0.76980
 C1261 C 0.22579 0.54537 0.78567
 C1262 C 0.21654 0.55850 0.79277
 H1263 H 0.19901 0.64081 0.83042
 H1264 H 0.21289 0.61668 0.81866
 H1265 H 0.16410 0.59765 0.80184
 H1266 H 0.14992 0.62136 0.81399
 H1267 H 0.21230 0.58928 0.80638
 H1268 H 0.18030 0.58222 0.78560
 H1269 H 0.18756 0.56469 0.76142
 H1270 H 0.20364 0.54168 0.74905
 H1271 H 0.23637 0.54005 0.79266
 H1272 H 0.22011 0.56264 0.80516
 C1273 C 0.17602 1.13335 0.30580
 C1274 C 0.18348 1.11945 0.29820
 C1275 C 0.18889 1.10567 0.30782
 C1276 C 0.18652 1.10602 0.32530
 C1277 C 0.17904 1.11995 0.33291
 C1278 C 0.17364 1.13374 0.32323
 C1279 C 0.19638 1.09110 0.29904
 C1280 C 0.20663 1.07980 0.30644
 C1281 C 0.21458 1.06571 0.29726
 C1282 C 0.22996 1.05898 0.30332
 C1283 C 0.23806 1.04594 0.29487
 C1284 C 0.23085 1.03920 0.28022
 C1285 C 0.21522 1.04563 0.27438
 C1286 C 0.20713 1.05872 0.28282
 H1287 H 0.17220 1.14386 0.29801
 H1288 H 0.18509 1.11951 0.28472
 H1289 H 0.19002 1.09546 0.33312
 H1290 H 0.17709 1.11977 0.34634
 H1291 H 0.19408 1.09027 0.28569
 H1292 H 0.21031 1.08144 0.31940
 H1293 H 0.23587 1.06401 0.31451
 H1294 H 0.25004 1.04120 0.29977
 H1295 H 0.20924 1.04061 0.26323
 H1296 H 0.19499 1.06316 0.27808
 C1297 C 0.67784 0.38211 0.65859
 C1298 C 0.68594 0.39629 0.66513
 C1299 C 0.68740 0.39849 0.68250
 C1300 C 0.68055 0.38611 0.69325
 C1301 C 0.67242 0.37192 0.68670
 C1302 C 0.67110 0.36970 0.66930
 C1303 C 0.69688 0.41336 0.68880
 C1304 C 0.69518 0.41939 0.70436
 C1305 C 0.70496 0.43398 0.71084
 C1306 C 0.69867 0.44239 0.72492
 C1307 C 0.70775 0.45575 0.73192
 C1308 C 0.72345 0.46097 0.72506
 C1309 C 0.72977 0.45260 0.71094
 C1310 C 0.72068 0.43921 0.70393
 H1311 H 0.67688 0.38082 0.64513
 H1312 H 0.69114 0.40557 0.65656
 H1313 H 0.68188 0.38698 0.70669
 H1314 H 0.66765 0.36242 0.69525
 H1315 H 0.70511 0.41982 0.67999
 H1316 H 0.68578 0.41386 0.71268
 H1317 H 0.68669 0.43857 0.73059
 H1318 H 0.70252 0.46189 0.74283
 H1319 H 0.74190 0.45622 0.70545
 H1320 H 0.72627 0.43277 0.69341
 C1321 C 0.69600 -0.12054 0.16385
 C1322 C 0.70401 -0.10652 0.17085
 C1323 C 0.69451 -0.09430 0.17924
 C1324 C 0.67665 -0.09609 0.17997
 C1325 C 0.66861 -0.11015 0.17310
 C1326 C 0.67812 -0.12282 0.16507
 C1327 C 0.70372 -0.07990 0.18684
 C1328 C 0.69715 -0.07025 0.19896
 C1329 C 0.70670 -0.05641 0.20720
 C1330 C 0.70095 -0.05064 0.22279
 C1331 C 0.70971 -0.03790 0.23121
 C1332 C 0.72443 -0.03060 0.22418
 C1333 C 0.72997 -0.03607 0.20840
 C1334 C 0.72116 -0.04874 0.19994
 H1335 H 0.70412 -0.12993 0.15828
 H1336 H 0.71779 -0.10543 0.17000
 H1337 H 0.66870 -0.08660 0.18559
 H1338 H 0.65480 -0.11064 0.17363
 H1339 H 0.71680 -0.07795 0.18290
 H1340 H 0.68461 -0.07313 0.20390
 H1341 H 0.68976 -0.05619 0.22861
 H1342 H 0.70508 -0.03393 0.24333
 H1343 H 0.74114 -0.03053 0.20254
 H1344 H 0.72569 -0.05229 0.18769
 C1345 C 0.18597 0.38848 0.16226
 C1346 C 0.19363 0.40282 0.16901
 C1347 C 0.19491 0.40486 0.18642
 C1348 C 0.18876 0.39199 0.19698
 C1349 C 0.18110 0.37768 0.19023
 C1350 C 0.17953 0.37580 0.17281
 C1351 C 0.20322 0.42021 0.19309
 C1352 C 0.20010 0.42616 0.20848
 C1353 C 0.20848 0.44126 0.21563
 C1354 C 0.20111 0.44869 0.22978
 C1355 C 0.20891 0.46241 0.23752
 C1356 C 0.22435 0.46901 0.23132
 C1357 C 0.23169 0.46169 0.21708
 C1358 C 0.22391 0.44792 0.20935
 H1359 H 0.18487 0.38743 0.14878
 H1360 H 0.19841 0.41246 0.16059
 H1361 H 0.19012 0.39271 0.21043
 H1362 H 0.17663 0.36793 0.19867
 H1363 H 0.21156 0.42708 0.18471
 H1364 H 0.19054 0.42004 0.21618
 H1365 H 0.18931 0.44377 0.23496
 H1366 H 0.20291 0.46772 0.24848
 H1367 H 0.24366 0.46638 0.21209
 H1368 H 0.23031 0.44233 0.19879
 C1369 C 0.17681 -0.11354 0.65639
 C1370 C 0.18540 -0.09988 0.66343
 C1371 C 0.18728 -0.09858 0.68085
 C1372 C 0.18054 -0.11138 0.69114
 C1373 C 0.17195 -0.12503 0.68411
 C1374 C 0.17001 -0.12628 0.66666
 C1375 C 0.19697 -0.08415 0.68776
 C1376 C 0.19504 -0.07866 0.70349
 C1377 C 0.20493 -0.06452 0.71068
 C1378 C 0.19839 -0.05636 0.72479
 C1379 C 0.20754 -0.04340 0.73241
 C1380 C 0.22355 -0.03837 0.72615
 C1381 C 0.23014 -0.04652 0.71201
 C1382 C 0.22097 -0.05950 0.70438
 H1383 H 0.17544 -0.11413 0.64291
 H1384 H 0.19057 -0.09027 0.65521
 H1385 H 0.18226 -0.11121 0.70458
 H1386 H 0.16722 -0.13486 0.69231
 H1387 H 0.20547 -0.07753 0.67931
 H1388 H 0.18534 -0.08429 0.71139
 H1389 H 0.18615 -0.06006 0.72999
 H1390 H 0.20211 -0.03742 0.74331
 H1391 H 0.24251 -0.04304 0.70697
 H1392 H 0.22673 -0.06579 0.69385
 C1393 C 0.32611 0.31185 0.37459
 C1394 C 0.31958 0.30250 0.38799
 C1395 C 0.31347 0.31049 0.40239
 C1396 C 0.31429 0.32813 0.40321
 C1397 C 0.32081 0.33749 0.38977
 C1398 C 0.32681 0.32945 0.37532
 C1399 C 0.30675 0.29992 0.41629
 C1400 C 0.29607 0.30556 0.42810
 C1401 C 0.28867 0.29468 0.44142
 C1402 C 0.27331 0.29959 0.44896
 C1403 C 0.26568 0.28964 0.46132
 C1404 C 0.27334 0.27456 0.46657
 C1405 C 0.28893 0.26980 0.45932
 C1406 C 0.29656 0.27977 0.44692
 H1407 H 0.33045 0.30529 0.36356
 H1408 H 0.31917 0.28896 0.38702
 H1409 H 0.31026 0.33477 0.41428
 H1410 H 0.32148 0.35101 0.39081
 H1411 H 0.30998 0.28673 0.41606
 H1412 H 0.29157 0.31836 0.42747
 H1413 H 0.26704 0.31108 0.44509
 H1414 H 0.25371 0.29373 0.46670
 H1415 H 0.29524 0.25835 0.46320
 H1416 H 0.30871 0.27582 0.44186
 C1417 C 0.34054 0.82502 -0.11188
 C1418 C 0.33292 0.81768 -0.09780
 C1419 C 0.31513 0.81546 -0.09702
 C1420 C 0.30507 0.82071 -0.11071
 C1421 C 0.31269 0.82806 -0.12478
 C1422 C 0.33051 0.83022 -0.12555
 C1423 C 0.30773 0.80671 -0.08226
 C1424 C 0.29125 0.80787 -0.07778
 C1425 C 0.28373 0.79831 -0.06359
 C1426 C 0.26862 0.80417 -0.05621
 C1427 C 0.26077 0.79515 -0.04325
 C1428 C 0.26779 0.77996 -0.03750
 C1429 C 0.28288 0.77406 -0.04492
 C1430 C 0.29073 0.78308 -0.05785
 H1431 H 0.35430 0.82660 -0.11209
 H1432 H 0.34098 0.81363 -0.08750
 H1433 H 0.29139 0.81871 -0.11091
 H1434 H 0.30467 0.83159 -0.13529
 H1435 H 0.31640 0.79937 -0.07464
 H1436 H 0.28291 0.81647 -0.08439
 H1437 H 0.26286 0.81576 -0.06050
 H1438 H 0.24911 0.80000 -0.03785
 H1439 H 0.28854 0.76233 -0.04089
 H1440 H 0.30201 0.77780 -0.06357
 C1441 C 0.83819 0.31964 -0.11347
 C1442 C 0.83083 0.31099 -0.10002
 C1443 C 0.81321 0.30766 -0.09974
 C1444 C 0.80308 0.31299 -0.11334
 C1445 C 0.81044 0.32164 -0.12678
 C1446 C 0.82807 0.32503 -0.12702
 C1447 C 0.80602 0.29796 -0.08550
 C1448 C 0.78953 0.29865 -0.08102
 C1449 C 0.78219 0.28868 -0.06704
 C1450 C 0.76705 0.29424 -0.05954
 C1451 C 0.75941 0.28498 -0.04666
 C1452 C 0.76669 0.26984 -0.04109
 C1453 C 0.78180 0.26420 -0.04866
 C1454 C 0.78946 0.27348 -0.06154
 H1455 H 0.85181 0.32218 -0.11326
 H1456 H 0.83894 0.30692 -0.08976
 H1457 H 0.78956 0.31014 -0.11392
 H1458 H 0.80239 0.32531 -0.13723
 H1459 H 0.81486 0.29053 -0.07813
 H1460 H 0.78106 0.30733 -0.08735
 H1461 H 0.76111 0.30581 -0.06365
 H1462 H 0.74773 0.28965 -0.04113
 H1463 H 0.78764 0.25251 -0.04476
 H1464 H 0.80080 0.26847 -0.06737
 C1465 C 0.80412 0.82843 0.37071
 C1466 C 0.79545 0.82024 0.38372
 C1467 C 0.80446 0.81340 0.39735
 C1468 C 0.82233 0.81547 0.39801
 C1469 C 0.83099 0.82364 0.38500
 C1470 C 0.82201 0.83004 0.37112
 C1471 C 0.79479 0.80440 0.41064
 C1472 C 0.80181 0.79266 0.42060
 C1473 C 0.79218 0.78306 0.43350
 C1474 C 0.79894 0.76778 0.43924
 C1475 C 0.79041 0.75830 0.45142
 C1476 C 0.77492 0.76394 0.45823
 C1477 C 0.76823 0.77934 0.45265
 C1478 C 0.77678 0.78884 0.44048
 H1479 H 0.79685 0.83315 0.36014
 H1480 H 0.78168 0.81896 0.38297
 H1481 H 0.82969 0.81100 0.40860
 H1482 H 0.84474 0.82504 0.38585
 H1483 H 0.78123 0.80686 0.41143
 H1484 H 0.81502 0.78914 0.41869
 H1485 H 0.81084 0.76308 0.43420
 H1486 H 0.79595 0.74652 0.45547
 H1487 H 0.75641 0.78413 0.45777
 H1488 H 0.77139 0.80079 0.43683
 C1489 C 0.66407 0.31575 0.61498
 C1490 C 0.67248 0.30772 0.60185
 C1491 C 0.69036 0.30622 0.60188
 C1492 C 0.69965 0.31259 0.61557
 C1493 C 0.69125 0.32065 0.62866
 C1494 C 0.67338 0.32240 0.62847
 C1495 C 0.69875 0.29752 0.58774
 C1496 C 0.71520 0.29992 0.58357
 C1497 C 0.72374 0.29128 0.56948
 C1498 C 0.73884 0.29825 0.56294
 C1499 C 0.74755 0.29039 0.54991
 C1500 C 0.74138 0.27528 0.54318
 C1501 C 0.72634 0.26821 0.54979
 C1502 C 0.71765 0.27606 0.56285
 H1503 H 0.65029 0.31699 0.61445
 H1504 H 0.66499 0.30279 0.59155
 H1505 H 0.71337 0.31111 0.61644
 H1506 H 0.69872 0.32528 0.63910
 H1507 H 0.69077 0.28949 0.58011
 H1508 H 0.72270 0.30916 0.59025
 H1509 H 0.74391 0.30987 0.56790
 H1510 H 0.75913 0.29614 0.54513
 H1511 H 0.72135 0.25649 0.54500
 H1512 H 0.70640 0.26994 0.56787
 C1513 C 0.66653 0.82320 1.11213
 C1514 C 0.67367 0.81410 1.09899
 C1515 C 0.69136 0.81128 1.09829
 C1516 C 0.70179 0.81767 1.11118
 C1517 C 0.69464 0.82678 1.12433
 C1518 C 0.67693 0.82959 1.12499
 C1519 C 0.69825 0.80107 1.08437
 C1520 C 0.71463 0.80162 1.07938
 C1521 C 0.72150 0.79127 1.06555
 C1522 C 0.73649 0.79657 1.05744
 C1523 C 0.74363 0.78702 1.04461
 C1524 C 0.73600 0.77184 1.03968
 C1525 C 0.72105 0.76645 1.04787
 C1526 C 0.71390 0.77601 1.06070
 H1527 H 0.65286 0.82531 1.11218
 H1528 H 0.66533 0.80926 1.08929
 H1529 H 0.71540 0.81532 1.11145
 H1530 H 0.70293 0.83129 1.13423
 H1531 H 0.68922 0.79334 1.07760
 H1532 H 0.72331 0.81051 1.08510
 H1533 H 0.74270 0.80818 1.06103
 H1534 H 0.75520 0.79151 1.03862
 H1535 H 0.71494 0.75474 1.04448
 H1536 H 0.70267 0.77117 1.06698
 C1537 C 0.19648 0.32710 1.13047
 C1538 C 0.20416 0.31898 1.11700
 C1539 C 0.19424 0.31249 1.10387
 C1540 C 0.17635 0.31444 1.10444
 C1541 C 0.16866 0.32259 1.11795
 C1542 C 0.17865 0.32907 1.13108
 C1543 C 0.20318 0.30444 1.08964
 C1544 C 0.19569 0.29393 1.07876
 C1545 C 0.20513 0.28591 1.06482
 C1546 C 0.19918 0.27060 1.05840
 C1547 C 0.20796 0.26255 1.04549
 C1548 C 0.22282 0.26975 1.03861
 C1549 C 0.22851 0.28530 1.04473
 C1550 C 0.21975 0.29333 1.05761
 H1551 H 0.20452 0.33173 1.14049
 H1552 H 0.21794 0.31771 1.11688
 H1553 H 0.16826 0.31007 1.09436
 H1554 H 0.15491 0.32414 1.11795
 H1555 H 0.21678 0.30677 1.08865
 H1556 H 0.18249 0.29026 1.08055
 H1557 H 0.18784 0.26471 1.06358
 H1558 H 0.20318 0.25063 1.04099
 H1559 H 0.23979 0.29130 1.03958
 H1560 H 0.22439 0.30542 1.06172
 C1561 C 0.17074 0.81043 0.62379
 C1562 C 0.17886 0.80252 0.61042
 C1563 C 0.18582 0.81196 0.59719
 C1564 C 0.18403 0.82952 0.59733
 C1565 C 0.17592 0.83743 0.61071
 C1566 C 0.16931 0.82798 0.62414
 C1567 C 0.19453 0.80301 0.58341
 C1568 C 0.20625 0.81020 0.57339
 C1569 C 0.21542 0.80105 0.56002
 C1570 C 0.23120 0.80733 0.55440
 C1571 C 0.24034 0.79903 0.54193
 C1572 C 0.23382 0.78429 0.53473
 C1573 C 0.21786 0.77817 0.54012
 C1574 C 0.20871 0.78649 0.55255
 H1575 H 0.16589 0.80282 0.63402
 H1576 H 0.17994 0.78897 0.61056
 H1577 H 0.18862 0.83722 0.58708
 H1578 H 0.17468 0.85096 0.61048
 H1579 H 0.19186 0.78974 0.58223
 H1580 H 0.21011 0.82305 0.57560
 H1581 H 0.23657 0.81862 0.55981
 H1582 H 0.25256 0.80411 0.53801
 H1583 H 0.21238 0.76696 0.53468
 H1584 H 0.19632 0.78156 0.55606
 C1585 C 0.32739 0.66253 0.61036
 C1586 C 0.32013 0.67040 0.59640
 C1587 C 0.31867 0.68793 0.59567
 C1588 C 0.32466 0.69747 0.60929
 C1589 C 0.33196 0.68959 0.62324
 C1590 C 0.33327 0.67203 0.62398
 C1591 C 0.31000 0.69563 0.58100
 C1592 C 0.31180 0.71180 0.57657
 C1593 C 0.30257 0.71962 0.56230
 C1594 C 0.30914 0.73448 0.55529
 C1595 C 0.30055 0.74262 0.54224
 C1596 C 0.28509 0.73615 0.53597
 C1597 C 0.27846 0.72129 0.54299
 C1598 C 0.28705 0.71314 0.55606
 H1599 H 0.32836 0.64898 0.61053
 H1600 H 0.31555 0.66274 0.58615
 H1601 H 0.32327 0.71095 0.60953
 H1602 H 0.33607 0.69720 0.63370
 H1603 H 0.30223 0.68743 0.57334
 H1604 H 0.32080 0.71964 0.58325
 H1605 H 0.32097 0.73982 0.55995
 H1606 H 0.30598 0.75408 0.53715
 H1607 H 0.26650 0.71607 0.53855
 H1608 H 0.28123 0.70205 0.56146
 C1609 C 0.34439 0.18262 1.11930
 C1610 C 0.33735 0.19047 1.10519
 C1611 C 0.31957 0.19086 1.10277
 C1612 C 0.30893 0.18344 1.11497
 C1613 C 0.31598 0.17557 1.12906
 C1614 C 0.33378 0.17506 1.13139
 C1615 C 0.31264 0.19966 1.08780
 C1616 C 0.29709 0.19648 1.08137
 C1617 C 0.28978 0.20536 1.06661
 C1618 C 0.27577 0.19806 1.05837
 C1619 C 0.26786 0.20624 1.04493
 C1620 C 0.27373 0.22202 1.03943
 C1621 C 0.28783 0.22932 1.04757
 C1622 C 0.29574 0.22114 1.06106
 H1623 H 0.35816 0.18233 1.12068
 H1624 H 0.34584 0.19619 1.09608
 H1625 H 0.29516 0.18400 1.11395
 H1626 H 0.30746 0.17021 1.13835
 H1627 H 0.32100 0.20854 1.08158
 H1628 H 0.28944 0.18650 1.08675
 H1629 H 0.27083 0.18599 1.06241
 H1630 H 0.25701 0.20026 1.03897
 H1631 H 0.29257 0.24154 1.04374
 H1632 H 0.30617 0.22747 1.06732
 C1633 C 0.81405 0.66563 1.13173
 C1634 C 0.80573 0.67294 1.11804
 C1635 C 0.81508 0.67931 1.10441
 C1636 C 0.83304 0.67797 1.10468
 C1637 C 0.84137 0.67069 1.11842
 C1638 C 0.83196 0.66445 1.13209
 C1639 C 0.80552 0.68678 1.09013
 C1640 C 0.81250 0.69708 1.07865
 C1641 C 0.80256 0.70486 1.06480
 C1642 C 0.80872 0.71970 1.05739
 C1643 C 0.79957 0.72763 1.04455
 C1644 C 0.78406 0.72081 1.03876
 C1645 C 0.77811 0.70572 1.04587
 C1646 C 0.78728 0.69778 1.05867
 H1647 H 0.80647 0.66106 1.14215
 H1648 H 0.79190 0.67371 1.11816
 H1649 H 0.84073 0.68219 1.09424
 H1650 H 0.85517 0.66966 1.11823
 H1651 H 0.79192 0.68428 1.08968
 H1652 H 0.82574 0.70084 1.07988
 H1653 H 0.82054 0.72533 1.06172
 H1654 H 0.80455 0.73920 1.03929
 H1655 H 0.76632 0.70003 1.04155
 H1656 H 0.78240 0.68602 1.06355
 C1657 C 0.81481 0.16638 0.63210
 C1658 C 0.80735 0.17378 0.61799
 C1659 C 0.81753 0.17979 0.60479
 C1660 C 0.83538 0.17776 0.60575
 C1661 C 0.84284 0.17037 0.61988
 C1662 C 0.83265 0.16473 0.63326
 C1663 C 0.80902 0.18788 0.59025
 C1664 C 0.81687 0.19884 0.58000
 C1665 C 0.80797 0.20774 0.56618
 C1666 C 0.81458 0.22315 0.56054
 C1667 C 0.80629 0.23221 0.54791
 C1668 C 0.79124 0.22598 0.54055
 C1669 C 0.78489 0.21031 0.54583
 C1670 C 0.79320 0.20124 0.55845
 H1671 H 0.80664 0.16223 0.64226
 H1672 H 0.79357 0.17506 0.61751
 H1673 H 0.84364 0.18164 0.59558
 H1674 H 0.85660 0.16890 0.62028
 H1675 H 0.79547 0.18553 0.58875
 H1676 H 0.82999 0.20243 0.58246
 H1677 H 0.82604 0.22835 0.56615
 H1678 H 0.81156 0.24421 0.54407
 H1679 H 0.77345 0.20506 0.54026
 H1680 H 0.78805 0.18912 0.56197
 C1681 C 0.66985 0.68588 0.36336
 C1682 C 0.67743 0.69376 0.37710
 C1683 C 0.68313 0.68435 0.39092
 C1684 C 0.68076 0.66683 0.39085
 C1685 C 0.67317 0.65894 0.37710
 C1686 C 0.66766 0.66837 0.36318
 C1687 C 0.69101 0.69333 0.40523
 C1688 C 0.70168 0.68609 0.41627
 C1689 C 0.70995 0.69534 0.43020
 C1690 C 0.72534 0.68920 0.43688
 C1691 C 0.73365 0.69763 0.44989
 C1692 C 0.72664 0.71232 0.45664
 C1693 C 0.71104 0.71827 0.45021
 C1694 C 0.70275 0.70986 0.43719
 H1695 H 0.66592 0.69348 0.35276
 H1696 H 0.67900 0.70726 0.37686
 H1697 H 0.68443 0.65917 0.40148
 H1698 H 0.67133 0.64548 0.37748
 H1699 H 0.68861 0.70667 0.40604
 H1700 H 0.70539 0.67315 0.41455
 H1701 H 0.73108 0.67795 0.43186
 H1702 H 0.74560 0.69266 0.45460
 H1703 H 0.70520 0.72946 0.45525
 H1704 H 0.69061 0.71467 0.43282
 C1705 C 0.67036 0.14929 -0.11434
 C1706 C 0.67859 0.15638 -0.10051
 C1707 C 0.68108 0.17379 -0.09955
 C1708 C 0.67535 0.18400 -0.11285
 C1709 C 0.66712 0.17692 -0.12666
 C1710 C 0.66455 0.15950 -0.12757
 C1711 C 0.69042 0.18074 -0.08497
 C1712 C 0.68877 0.19668 -0.07992
 C1713 C 0.69857 0.20398 -0.06581
 C1714 C 0.69229 0.21849 -0.05812
 C1715 C 0.70149 0.22627 -0.04531
 C1716 C 0.71728 0.21978 -0.03998
 C1717 C 0.72358 0.20523 -0.04764
 C1718 C 0.71437 0.19743 -0.06046
 H1719 H 0.66847 0.13583 -0.11466
 H1720 H 0.68301 0.14822 -0.09051
 H1721 H 0.67759 0.19739 -0.11292
 H1722 H 0.66316 0.18505 -0.13685
 H1723 H 0.69844 0.17221 -0.07792
 H1724 H 0.67947 0.20471 -0.08599
 H1725 H 0.68024 0.22387 -0.06210
 H1726 H 0.69630 0.23749 -0.03971
 H1727 H 0.73578 0.19999 -0.04392
 H1728 H 0.71994 0.18660 -0.06640
 C1729 C 0.19029 0.67994 -0.13251
 C1730 C 0.19820 0.68707 -0.11858
 C1731 C 0.18859 0.69177 -0.10456
 C1732 C 0.17077 0.68910 -0.10476
 C1733 C 0.16283 0.68199 -0.11875
 C1734 C 0.17253 0.67724 -0.13272
 C1735 C 0.19778 0.69882 -0.08993
 C1736 C 0.19029 0.70782 -0.07787
 C1737 C 0.19994 0.71520 -0.06370
 C1738 C 0.19348 0.72956 -0.05589
 C1739 C 0.20247 0.73717 -0.04282
 C1740 C 0.21807 0.73047 -0.03718
 C1741 C 0.22429 0.71579 -0.04465
 C1742 C 0.21530 0.70819 -0.05771
 H1743 H 0.19806 0.67657 -0.14318
 H1744 H 0.21193 0.68893 -0.11877
 H1745 H 0.16293 0.69206 -0.09405
 H1746 H 0.14916 0.67979 -0.11848
 H1747 H 0.21151 0.69717 -0.08964
 H1748 H 0.17686 0.71089 -0.07885
 H1749 H 0.18159 0.73509 -0.06013
 H1750 H 0.19728 0.74841 -0.03727
 H1751 H 0.23616 0.71020 -0.04045
 H1752 H 0.22037 0.69676 -0.06296
 C1753 C 0.15943 0.18199 0.38188
 C1754 C 0.16595 0.18927 0.39647
 C1755 C 0.18365 0.19102 0.39883
 C1756 C 0.19473 0.18551 0.38613
 C1757 C 0.18821 0.17821 0.37157
 C1758 C 0.17049 0.17638 0.36926
 C1759 C 0.18999 0.19926 0.41430
 C1760 C 0.20585 0.19709 0.42037
 C1761 C 0.21260 0.20555 0.43555
 C1762 C 0.22743 0.19910 0.44309
 C1763 C 0.23484 0.20704 0.45687
 C1764 C 0.22763 0.22171 0.46345
 C1765 C 0.21270 0.22814 0.45603
 C1766 C 0.20529 0.22021 0.44219
 H1767 H 0.14571 0.18067 0.38052
 H1768 H 0.15711 0.19351 0.40597
 H1769 H 0.20842 0.18718 0.38712
 H1770 H 0.19705 0.17437 0.36190
 H1771 H 0.18096 0.20684 0.42113
 H1772 H 0.21429 0.18830 0.41430
 H1773 H 0.23341 0.18791 0.43821
 H1774 H 0.24635 0.20175 0.46226
 H1775 H 0.20692 0.23951 0.46070
 H1776 H 0.19416 0.22592 0.43652
 C1777 C 0.30163 0.37132 0.67697
 C1778 C 0.29380 0.38528 0.68407
 C1779 C 0.30360 0.39896 0.68958
 C1780 C 0.32149 0.39847 0.68766
 C1781 C 0.32932 0.38448 0.68053
 C1782 C 0.31947 0.37077 0.67508
 C1783 C 0.29459 0.41364 0.69662
 C1784 C 0.30199 0.42499 0.70667
 C1785 C 0.29254 0.43938 0.71377
 C1786 C 0.29814 0.44638 0.72892
 C1787 C 0.28931 0.45974 0.73614
 C1788 C 0.27477 0.46648 0.72824
 C1789 C 0.26946 0.45977 0.71284
 C1790 C 0.27827 0.44643 0.70564
 H1791 H 0.29371 0.36087 0.67308
 H1792 H 0.28001 0.38536 0.68534
 H1793 H 0.32946 0.40896 0.69124
 H1794 H 0.34307 0.38453 0.67895
 H1795 H 0.28104 0.41458 0.69401
 H1796 H 0.31509 0.42326 0.71069
 H1797 H 0.30921 0.44131 0.73533
 H1798 H 0.29379 0.46469 0.74797
 H1799 H 0.25844 0.46480 0.70631
 H1800 H 0.27395 0.44183 0.69363
 C1801 C 0.31923 0.89184 0.15885
 C1802 C 0.31207 0.90588 0.16650
 C1803 C 0.31088 0.90682 0.18400
 C1804 C 0.31700 0.89333 0.19375
 C1805 C 0.32418 0.87929 0.18609
 C1806 C 0.32526 0.87833 0.16856
 C1807 C 0.30238 0.92160 0.19150
 C1808 C 0.30482 0.92646 0.20738
 C1809 C 0.29592 0.94092 0.21502
 C1810 C 0.30319 0.94849 0.22918
 C1811 C 0.29494 0.96172 0.23718
 C1812 C 0.27910 0.96761 0.23128
 C1813 C 0.27178 0.96004 0.21711
 C1814 C 0.28005 0.94681 0.20909
 H1815 H 0.32004 0.89155 0.14532
 H1816 H 0.30738 0.91604 0.15869
 H1817 H 0.31582 0.89327 0.20724
 H1818 H 0.32839 0.86893 0.19389
 H1819 H 0.29426 0.92900 0.18335
 H1820 H 0.31417 0.92003 0.21506
 H1821 H 0.31531 0.94412 0.23410
 H1822 H 0.30090 0.96722 0.24811
 H1823 H 0.25951 0.96418 0.21234
 H1824 H 0.27373 0.94098 0.19855
 C1825 C 0.80066 0.36563 0.17044
 C1826 C 0.79285 0.37931 0.17809
 C1827 C 0.80263 0.39292 0.18380
 C1828 C 0.82048 0.39264 0.18149
 C1829 C 0.82831 0.37892 0.17385
 C1830 C 0.81847 0.36529 0.16821
 C1831 C 0.79362 0.40722 0.19161
 C1832 C 0.80121 0.41833 0.20179
 C1833 C 0.79187 0.43217 0.21005
 C1834 C 0.79859 0.43891 0.22487
 C1835 C 0.79009 0.45177 0.23321
 C1836 C 0.77471 0.45830 0.22682
 C1837 C 0.76816 0.45183 0.21177
 C1838 C 0.77667 0.43895 0.20343
 H1839 H 0.79275 0.35523 0.16640
 H1840 H 0.77909 0.37921 0.17964
 H1841 H 0.82845 0.40309 0.18520
 H1842 H 0.84202 0.37912 0.17202
 H1843 H 0.77996 0.40797 0.18956
 H1844 H 0.81452 0.41673 0.20513
 H1845 H 0.81035 0.43404 0.23015
 H1846 H 0.79553 0.45653 0.24473
 H1847 H 0.75645 0.45672 0.20642
 H1848 H 0.77139 0.43455 0.19172
 C1849 C 0.79810 0.86451 0.66944
 C1850 C 0.79039 0.87842 0.67676
 C1851 C 0.80032 0.89166 0.68306
 C1852 C 0.81825 0.89075 0.68172
 C1853 C 0.82597 0.87679 0.67439
 C1854 C 0.81598 0.86354 0.66813
 C1855 C 0.79138 0.90631 0.69033
 C1856 C 0.79873 0.91742 0.70070
 C1857 C 0.78927 0.93167 0.70811
 C1858 C 0.79494 0.93840 0.72336
 C1859 C 0.78607 0.95154 0.73094
 C1860 C 0.77140 0.95833 0.72332
 C1861 C 0.76604 0.95193 0.70780
 C1862 C 0.77490 0.93882 0.70023
 H1863 H 0.79005 0.85442 0.66493
 H1864 H 0.77657 0.87881 0.67756
 H1865 H 0.82637 0.90088 0.68594
 H1866 H 0.83977 0.87652 0.67330
 H1867 H 0.77787 0.90740 0.68761
 H1868 H 0.81179 0.91556 0.70476
 H1869 H 0.80609 0.93327 0.72959
 H1870 H 0.79059 0.95624 0.74285
 H1871 H 0.75492 0.95701 0.70149
 H1872 H 0.77051 0.93446 0.68816
 C1873 C 0.65777 0.60970 0.67408
 C1874 C 0.66450 0.59567 0.68230
 C1875 C 0.68223 0.59383 0.68431
 C1876 C 0.69313 0.60647 0.67800
 C1877 C 0.68639 0.62050 0.66977
 C1878 C 0.66864 0.62232 0.66778
 C1879 C 0.68878 0.57906 0.69370
 C1880 C 0.70471 0.57315 0.69197
 C1881 C 0.71159 0.55869 0.70162
 C1882 C 0.72606 0.55044 0.69542
 C1883 C 0.73355 0.53730 0.70442
 C1884 C 0.72682 0.53215 0.71994
 C1885 C 0.71226 0.54032 0.72614
 C1886 C 0.70475 0.55349 0.71712
 H1887 H 0.64404 0.61068 0.67262
 H1888 H 0.65582 0.58620 0.68712
 H1889 H 0.70682 0.60587 0.67979
 H1890 H 0.69507 0.63018 0.66539
 H1891 H 0.67986 0.57256 0.70183
 H1892 H 0.71306 0.57872 0.68267
 H1893 H 0.73167 0.55425 0.68360
 H1894 H 0.74477 0.53132 0.69928
 H1895 H 0.70686 0.53675 0.73812
 H1896 H 0.69393 0.55981 0.72260
 C1897 C 0.66027 0.12101 0.18252
 C1898 C 0.66697 0.10649 0.18987
 C1899 C 0.68471 0.10391 0.19060
 C1900 C 0.69566 0.11633 0.18397
 C1901 C 0.68895 0.13083 0.17659
 C1902 C 0.67119 0.13334 0.17580
 C1903 C 0.69124 0.08861 0.19912
 C1904 C 0.70702 0.08247 0.19681
 C1905 C 0.71384 0.06764 0.20592
 C1906 C 0.72820 0.05940 0.19943
 C1907 C 0.73553 0.04586 0.20799
 C1908 C 0.72869 0.04029 0.22331
 C1909 C 0.71429 0.04849 0.22980
 C1910 C 0.70700 0.06205 0.22128
 H1911 H 0.64653 0.12256 0.18200
 H1912 H 0.65825 0.09722 0.19499
 H1913 H 0.70940 0.11520 0.18482
 H1914 H 0.69769 0.14028 0.17185
 H1915 H 0.68240 0.08199 0.20721
 H1916 H 0.71530 0.08819 0.18754
 H1917 H 0.73383 0.06352 0.18772
 H1918 H 0.74665 0.03985 0.20267
 H1919 H 0.70881 0.04463 0.24167
 H1920 H 0.69632 0.06834 0.22706
 C1921 C 0.19115 0.63143 0.17278
 C1922 C 0.19961 0.61781 0.18009
 C1923 C 0.19038 0.60400 0.18631
 C1924 C 0.17245 0.60388 0.18464
 C1925 C 0.16399 0.61752 0.17734
 C1926 C 0.17324 0.63148 0.17141
 C1927 C 0.19997 0.58993 0.19410
 C1928 C 0.19303 0.57900 0.20502
 C1929 C 0.20290 0.56546 0.21338
 C1930 C 0.19687 0.55889 0.22862
 C1931 C 0.20592 0.54634 0.23708
 C1932 C 0.22117 0.53997 0.23041
 C1933 C 0.22702 0.54625 0.21496
 C1934 C 0.21796 0.55879 0.20649
 H1935 H 0.19862 0.64206 0.16848
 H1936 H 0.21342 0.61819 0.18110
 H1937 H 0.16490 0.59323 0.18871
 H1938 H 0.15021 0.61705 0.17614
 H1939 H 0.21351 0.58930 0.19146
 H1940 H 0.17989 0.58057 0.20888
 H1941 H 0.18522 0.56366 0.23413
 H1942 H 0.20102 0.54172 0.24893
 H1943 H 0.23862 0.54148 0.20938
 H1944 H 0.22273 0.56305 0.19449
 C1945 C 0.15962 0.10889 0.67437
 C1946 C 0.16654 0.09448 0.68169
 C1947 C 0.18429 0.09281 0.68365
 C1948 C 0.19503 0.10585 0.67794
 C1949 C 0.18809 0.12026 0.67057
 C1950 C 0.17030 0.12202 0.66892
 C1951 C 0.19089 0.07788 0.69272
 C1952 C 0.20716 0.07268 0.69193
 C1953 C 0.21386 0.05840 0.70191
 C1954 C 0.22874 0.05032 0.69648
 C1955 C 0.23592 0.03730 0.70591
 C1956 C 0.22844 0.03218 0.72111
 C1957 C 0.21353 0.04026 0.72657
 C1958 C 0.20635 0.05327 0.71713
 H1959 H 0.14586 0.10985 0.67311
 H1960 H 0.15797 0.08468 0.68602
 H1961 H 0.20873 0.10535 0.67966
 H1962 H 0.19660 0.13031 0.66676
 H1963 H 0.18178 0.07076 0.70009
 H1964 H 0.21595 0.07876 0.68336
 H1965 H 0.23487 0.05413 0.68490
 H1966 H 0.24745 0.03139 0.70138
 H1967 H 0.20755 0.03671 0.73829
 H1968 H 0.19522 0.05953 0.72207
 C1969 C 0.34105 0.62278 0.31916
 C1970 C 0.33420 0.60858 0.31140
 C1971 C 0.31643 0.60627 0.31029
 C1972 C 0.30561 0.61870 0.31683
 C1973 C 0.31246 0.63287 0.32460
 C1974 C 0.33025 0.63507 0.32590
 C1975 C 0.30969 0.59115 0.30170
 C1976 C 0.29399 0.58487 0.30445
 C1977 C 0.28686 0.57000 0.29572
 C1978 C 0.27260 0.56186 0.30272
 C1979 C 0.26494 0.54828 0.29463
 C1980 C 0.27131 0.54254 0.27925
 C1981 C 0.28564 0.55062 0.27225
 C1982 C 0.29330 0.56424 0.28033
 H1983 H 0.35481 0.62407 0.32005
 H1984 H 0.34282 0.59929 0.30634
 H1985 H 0.29187 0.61777 0.31566
 H1986 H 0.30382 0.64231 0.32931
 H1987 H 0.31831 0.58470 0.29336
 H1988 H 0.28603 0.59048 0.31396
 H1989 H 0.26730 0.56609 0.31448
 H1990 H 0.25389 0.54237 0.30036
 H1991 H 0.29077 0.54660 0.26034
 H1992 H 0.30393 0.57042 0.27422
 C1993 C 0.30337 0.12603 0.82699
 C1994 C 0.29538 0.11220 0.81967
 C1995 C 0.30500 0.09848 0.81416
 C1996 C 0.32286 0.09873 0.81645
 C1997 C 0.33086 0.11259 0.82377
 C1998 C 0.32120 0.12641 0.82909
 C1999 C 0.29585 0.08408 0.80655
 C2000 C 0.30329 0.07282 0.79650
 C2001 C 0.29377 0.05882 0.78857
 C2002 C 0.30021 0.05178 0.77380
 C2003 C 0.29144 0.03879 0.76577
 C2004 C 0.27607 0.03249 0.77242
 C2005 C 0.26985 0.03925 0.78743
 C2006 C 0.27863 0.05220 0.79547
 H2007 H 0.29560 0.13656 0.83080
 H2008 H 0.28161 0.11230 0.81815
 H2009 H 0.33070 0.08819 0.81293
 H2010 H 0.34459 0.11240 0.82552
 H2011 H 0.28220 0.08338 0.80865
 H2012 H 0.31658 0.07436 0.79308
 H2013 H 0.31195 0.05652 0.76832
 H2014 H 0.29662 0.03380 0.75426
 H2015 H 0.25816 0.03453 0.79301
 H2016 H 0.27357 0.05680 0.80717
 C2017 C 0.80688 0.62313 0.82854
 C2018 C 0.79834 0.60976 0.82092
 C2019 C 0.80752 0.59667 0.81347
 C2020 C 0.82550 0.59702 0.81421
 C2021 C 0.83404 0.61042 0.82181
 C2022 C 0.82483 0.62367 0.82898
 C2023 C 0.79782 0.58278 0.80552
 C2024 C 0.80445 0.57243 0.79402
 C2025 C 0.79453 0.55878 0.78590
 C2026 C 0.80020 0.55250 0.77048
 C2027 C 0.79120 0.53968 0.76238
 C2028 C 0.77636 0.53280 0.76959
 C2029 C 0.77086 0.53888 0.78517
 C2030 C 0.77987 0.55163 0.79328
 H2031 H 0.79942 0.63322 0.83382
 H2032 H 0.78449 0.60976 0.82066
 H2033 H 0.83308 0.58691 0.80920
 H2034 H 0.84788 0.61032 0.82226
 H2035 H 0.78443 0.58170 0.80872
 H2036 H 0.81738 0.57446 0.78965
 H2037 H 0.81155 0.55764 0.76459
 H2038 H 0.79582 0.53524 0.75043
 H2039 H 0.75960 0.53370 0.79117
 H2040 H 0.77540 0.55561 0.80542
 C2041 C 0.80653 0.13199 0.32642
 C2042 C 0.79836 0.11788 0.31982
 C2043 C 0.80788 0.10440 0.31359
 C2044 C 0.82587 0.10522 0.31439
 C2045 C 0.83404 0.11939 0.32093
 C2046 C 0.82445 0.13292 0.32700
 C2047 C 0.79849 0.08975 0.30670
 C2048 C 0.80550 0.07839 0.29646
 C2049 C 0.79572 0.06436 0.28886
 C2050 C 0.80202 0.05705 0.27417
 C2051 C 0.79303 0.04414 0.26628
 C2052 C 0.77754 0.03816 0.27296
 C2053 C 0.77145 0.04513 0.28792
 C2054 C 0.78047 0.05803 0.29585
 H2055 H 0.79880 0.14228 0.33088
 H2056 H 0.78452 0.11758 0.31946
 H2057 H 0.83374 0.09492 0.31028
 H2058 H 0.84787 0.11964 0.32152
 H2059 H 0.78498 0.08898 0.30945
 H2060 H 0.81863 0.07993 0.29249
 H2061 H 0.81382 0.06154 0.26861
 H2062 H 0.79813 0.03899 0.25481
 H2063 H 0.75966 0.04066 0.29350
 H2064 H 0.77548 0.06285 0.30747
 C2065 C 0.68001 0.38675 0.35103
 C2066 C 0.68808 0.40023 0.34300
 C2067 C 0.68994 0.40047 0.32552
 C2068 C 0.68362 0.38682 0.31621
 C2069 C 0.67553 0.37336 0.32425
 C2070 C 0.67371 0.37314 0.34174
 C2071 C 0.69919 0.41472 0.31759
 C2072 C 0.69733 0.41903 0.30143
 C2073 C 0.70681 0.43301 0.29330
 C2074 C 0.70023 0.43991 0.27844
 C2075 C 0.70898 0.45268 0.26999
 C2076 C 0.72464 0.45879 0.27614
 C2077 C 0.73129 0.45188 0.29101
 C2078 C 0.72252 0.43909 0.29948
 H2079 H 0.67869 0.38698 0.36453
 H2080 H 0.69291 0.41051 0.35048
 H2081 H 0.68532 0.38619 0.30279
 H2082 H 0.67115 0.36287 0.31680
 H2083 H 0.70730 0.42222 0.32562
 H2084 H 0.68800 0.41252 0.29382
 H2085 H 0.68824 0.43537 0.27332
 H2086 H 0.70351 0.45768 0.25854
 H2087 H 0.74340 0.45621 0.29600
 H2088 H 0.72833 0.43377 0.31060
 C2089 C 0.67840 0.88235 0.84355
 C2090 C 0.68543 0.89646 0.83565
 C2091 C 0.68697 0.89717 0.81815
 C2092 C 0.68141 0.88333 0.80867
 C2093 C 0.67435 0.86924 0.81657
 C2094 C 0.67282 0.86856 0.83409
 C2095 C 0.69524 0.91211 0.81042
 C2096 C 0.69345 0.91643 0.79423
 C2097 C 0.70234 0.93096 0.78639
 C2098 C 0.69592 0.93755 0.77131
 C2099 C 0.70429 0.95078 0.76313
 C2100 C 0.71937 0.95766 0.76983
 C2101 C 0.72582 0.95108 0.78493
 C2102 C 0.71747 0.93784 0.79308
 H2103 H 0.67727 0.88224 0.85706
 H2104 H 0.68970 0.90687 0.84327
 H2105 H 0.68290 0.88306 0.79522
 H2106 H 0.67051 0.85866 0.80897
 H2107 H 0.70267 0.92005 0.81864
 H2108 H 0.68475 0.90941 0.78637
 H2109 H 0.68439 0.93240 0.76578
 H2110 H 0.69901 0.95552 0.75149
 H2111 H 0.73751 0.95597 0.79034
 H2112 H 0.72322 0.93280 0.80435
 C2113 C 0.19555 0.37570 0.83013
 C2114 C 0.20324 0.38978 0.82284
 C2115 C 0.19327 0.40319 0.81695
 C2116 C 0.17541 0.40242 0.81890
 C2117 C 0.16772 0.38833 0.82623
 C2118 C 0.17770 0.37478 0.83185
 C2119 C 0.20205 0.41781 0.80927
 C2120 C 0.19453 0.42837 0.79840
 C2121 C 0.20381 0.44244 0.79025
 C2122 C 0.19824 0.44824 0.77453
 C2123 C 0.20706 0.46110 0.76622
 C2124 C 0.22155 0.46852 0.77356
 C2125 C 0.22679 0.46308 0.78953
 C2126 C 0.21799 0.45024 0.79782
 H2127 H 0.20359 0.36540 0.83416
 H2128 H 0.21702 0.39010 0.82158
 H2129 H 0.16733 0.41273 0.81506
 H2130 H 0.15396 0.38812 0.82770
 H2131 H 0.21556 0.41921 0.81193
 H2132 H 0.18151 0.42606 0.79441
 H2133 H 0.18724 0.44258 0.76852
 H2134 H 0.20264 0.46508 0.75397
 H2135 H 0.23777 0.46868 0.79563
 H2136 H 0.22228 0.44658 0.81020
 C2137 C 0.15983 0.89416 0.32912
 C2138 C 0.16740 0.90815 0.32151
 C2139 C 0.18520 0.90911 0.31949
 C2140 C 0.19532 0.89567 0.32522
 C2141 C 0.18776 0.88169 0.33286
 C2142 C 0.16993 0.88074 0.33482
 C2143 C 0.19253 0.92380 0.31051
 C2144 C 0.20902 0.92842 0.31148
 C2145 C 0.21642 0.94254 0.30167
 C2146 C 0.23174 0.94993 0.30716
 C2147 C 0.23949 0.96281 0.29789
 C2148 C 0.23211 0.96849 0.28284
 C2149 C 0.21679 0.96107 0.27733
 C2150 C 0.20907 0.94820 0.28657
 H2151 H 0.14607 0.89384 0.33058
 H2152 H 0.15928 0.91826 0.31712
 H2153 H 0.20902 0.89558 0.32340
 H2154 H 0.19583 0.87138 0.33680
 H2155 H 0.18376 0.93127 0.30311
 H2156 H 0.21748 0.92197 0.32009
 H2157 H 0.23777 0.94570 0.31865
 H2158 H 0.25132 0.96822 0.30245
 H2159 H 0.21086 0.96502 0.26570
 H2160 H 0.19762 0.94247 0.28155
 C2161 C 0.37956 0.33855 0.68010
 C2162 C 0.39414 0.33178 0.68768
 C2163 C 0.39591 0.31436 0.68961
 C2164 C 0.38262 0.30383 0.68399
 C2165 C 0.36806 0.31060 0.67640
 C2166 C 0.36635 0.32803 0.67438
 C2167 C 0.41140 0.30769 0.69809
 C2168 C 0.41720 0.29207 0.69570
 C2169 C 0.43237 0.28486 0.70428
 C2170 C 0.43964 0.27030 0.69762
 C2171 C 0.45329 0.26239 0.70566
 C2172 C 0.45999 0.26880 0.72067
 C2173 C 0.45290 0.28351 0.72729
 C2174 C 0.43918 0.29144 0.71923
 H2175 H 0.37866 0.35203 0.67864
 H2176 H 0.40411 0.34018 0.69200
 H2177 H 0.38314 0.29038 0.68580
 H2178 H 0.35792 0.30219 0.67250
 H2179 H 0.41849 0.31623 0.70600
 H2180 H 0.41089 0.28417 0.68659
 H2181 H 0.43463 0.26490 0.68619
 H2182 H 0.45843 0.25107 0.70020
 H2183 H 0.45770 0.28869 0.73891
 H2184 H 0.43371 0.30238 0.72506
 C2185 C 0.36753 0.81356 0.16787
 C2186 C 0.38171 0.80509 0.17434
 C2187 C 0.39627 0.81396 0.17959
 C2188 C 0.39645 0.83157 0.17796
 C2189 C 0.38224 0.84005 0.17152
 C2190 C 0.36763 0.83113 0.16641
 C2191 C 0.41098 0.80433 0.18635
 C2192 C 0.42302 0.81097 0.19632
 C2193 C 0.43715 0.80108 0.20383
 C2194 C 0.44497 0.80708 0.21845
 C2195 C 0.45811 0.79808 0.22618
 C2196 C 0.46386 0.78289 0.21937
 C2197 C 0.45633 0.77704 0.20450
 C2198 C 0.44315 0.78606 0.19677
 H2199 H 0.35639 0.80636 0.16419
 H2200 H 0.38122 0.79154 0.17537
 H2201 H 0.40761 0.83887 0.18131
 H2202 H 0.38279 0.85357 0.17023
 H2203 H 0.41119 0.79101 0.18379
 H2204 H 0.42196 0.82392 0.20014
 H2205 H 0.44072 0.81868 0.22407
 H2206 H 0.46369 0.80300 0.23757
 H2207 H 0.46059 0.76548 0.19885
 H2208 H 0.43788 0.78129 0.18520
 C2209 C 0.86652 0.30477 0.16689
 C2210 C 0.88121 0.29754 0.17375
 C2211 C 0.89478 0.30761 0.17940
 C2212 C 0.89349 0.32516 0.17766
 C2213 C 0.87875 0.33239 0.17085
 C2214 C 0.86509 0.32228 0.16544
 C2215 C 0.90998 0.29925 0.18680
 C2216 C 0.92119 0.30697 0.19694
 C2217 C 0.93571 0.29826 0.20520
 C2218 C 0.94275 0.30530 0.21974
 C2219 C 0.95611 0.29734 0.22824
 C2220 C 0.96282 0.28216 0.22232
 C2221 C 0.95612 0.27532 0.20750
 C2222 C 0.94276 0.28331 0.19898
 H2223 H 0.85614 0.29666 0.16298
 H2224 H 0.88188 0.28401 0.17485
 H2225 H 0.90385 0.33338 0.18129
 H2226 H 0.87811 0.34591 0.16958
 H2227 H 0.91124 0.28594 0.18459
 H2228 H 0.91910 0.31991 0.20036
 H2229 H 0.93770 0.31689 0.22471
 H2230 H 0.96103 0.30300 0.23957
 H2231 H 0.96115 0.26374 0.20251
 H2232 H 0.93817 0.27776 0.18748
 C2233 C 0.86238 0.80164 0.66889
 C2234 C 0.87667 0.79400 0.67608
 C2235 C 0.89032 0.80367 0.68220
 C2236 C 0.88943 0.82127 0.68078
 C2237 C 0.87508 0.82893 0.67361
 C2238 C 0.86141 0.81919 0.66756
 C2239 C 0.90531 0.79482 0.68944
 C2240 C 0.91694 0.80203 0.69951
 C2241 C 0.93153 0.79273 0.70698
 C2242 C 0.93899 0.79874 0.72179
 C2243 C 0.95250 0.79013 0.72942
 C2244 C 0.95893 0.77535 0.72232
 C2245 C 0.95177 0.76957 0.70725
 C2246 C 0.93829 0.77819 0.69961
 H2247 H 0.85197 0.79380 0.66453
 H2248 H 0.87702 0.78043 0.67693
 H2249 H 0.89986 0.82921 0.68485
 H2250 H 0.87480 0.84247 0.67250
 H2251 H 0.90621 0.78152 0.68696
 H2252 H 0.91529 0.81492 0.70330
 H2253 H 0.93417 0.81001 0.72763
 H2254 H 0.95779 0.79497 0.74098
 H2255 H 0.95657 0.75835 0.70133
 H2256 H 0.93339 0.77349 0.68786
 C2257 C 0.62876 0.31009 0.34283
 C2258 C 0.61472 0.30195 0.33567
 C2259 C 0.60086 0.31117 0.32936
 C2260 C 0.60114 0.32878 0.33075
 C2261 C 0.61522 0.33692 0.33788
 C2262 C 0.62920 0.32767 0.34394
 C2263 C 0.58640 0.30191 0.32162
 C2264 C 0.57549 0.30885 0.31062
 C2265 C 0.56179 0.29932 0.30197
 C2266 C 0.55541 0.30565 0.28678
 C2267 C 0.54278 0.29698 0.27795
 C2268 C 0.53612 0.28178 0.28418
 C2269 C 0.54219 0.27560 0.29959
 C2270 C 0.55485 0.28430 0.30844
 H2271 H 0.63941 0.30263 0.34725
 H2272 H 0.61481 0.28839 0.33485
 H2273 H 0.59048 0.33634 0.32660
 H2274 H 0.61508 0.35047 0.33888
 H2275 H 0.58554 0.28861 0.32428
 H2276 H 0.57730 0.32177 0.30680
 H2277 H 0.56039 0.31726 0.28158
 H2278 H 0.53833 0.30215 0.26616
 H2279 H 0.53719 0.26402 0.30481
 H2280 H 0.55898 0.27927 0.32038
 C2281 C 0.63020 0.80375 0.83497
 C2282 C 0.61639 0.79533 0.82767
 C2283 C 0.60243 0.80429 0.82118
 C2284 C 0.60232 0.82189 0.82264
 C2285 C 0.61614 0.83030 0.82993
 C2286 C 0.63029 0.82134 0.83606
 C2287 C 0.58825 0.79485 0.81319
 C2288 C 0.57779 0.80161 0.80166
 C2289 C 0.56419 0.79207 0.79285
 C2290 C 0.55825 0.79821 0.77741
 C2291 C 0.54553 0.78969 0.76857
 C2292 C 0.53832 0.77483 0.77503
 C2293 C 0.54405 0.76879 0.79063
 C2294 C 0.55681 0.77733 0.79949
 H2295 H 0.64098 0.79650 0.83947
 H2296 H 0.61676 0.78178 0.82683
 H2297 H 0.59153 0.82922 0.81839
 H2298 H 0.61568 0.84383 0.83094
 H2299 H 0.58723 0.78162 0.81614
 H2300 H 0.57989 0.81443 0.79761
 H2301 H 0.56360 0.80960 0.77208
 H2302 H 0.54137 0.79474 0.75663
 H2303 H 0.53863 0.75747 0.79603
 H2304 H 0.56062 0.77246 0.81159
 C2305 C 0.11822 0.34192 0.82536
 C2306 C 0.10405 0.33538 0.81692
 C2307 C 0.10263 0.31810 0.81398
 C2308 C 0.11578 0.30744 0.81967
 C2309 C 0.12996 0.31399 0.82813
 C2310 C 0.13140 0.33132 0.83096
 C2311 C 0.08771 0.31182 0.80432
 C2312 C 0.08214 0.29591 0.80511
 C2313 C 0.06739 0.28945 0.79533
 C2314 C 0.05923 0.27477 0.80092
 C2315 C 0.04572 0.26780 0.79185
 C2316 C 0.04010 0.27528 0.77684
 C2317 C 0.04823 0.29000 0.77119
 C2318 C 0.06178 0.29700 0.78030
 H2319 H 0.11891 0.35532 0.82748
 H2320 H 0.09416 0.34388 0.81263
 H2321 H 0.11551 0.29413 0.81718
 H2322 H 0.14008 0.30556 0.83197
 H2323 H 0.08077 0.32089 0.79683
 H2324 H 0.08811 0.28726 0.81379
 H2325 H 0.06336 0.26862 0.81236
 H2326 H 0.03978 0.25643 0.79656
 H2327 H 0.04430 0.29598 0.75960
 H2328 H 0.06804 0.30804 0.77528
 C2329 C 0.11106 0.84626 0.32782
 C2330 C 0.09701 0.83898 0.31976
 C2331 C 0.09605 0.82155 0.31759
 C2332 C 0.10958 0.81151 0.32350
 C2333 C 0.12361 0.81878 0.33156
 C2334 C 0.12452 0.83623 0.33379
 C2335 C 0.08126 0.81441 0.30838
 C2336 C 0.07614 0.79840 0.31001
 C2337 C 0.06183 0.79099 0.30029
 C2338 C 0.05387 0.77641 0.30643
 C2339 C 0.04085 0.76858 0.29732
 C2340 C 0.03560 0.77511 0.28176
 C2341 C 0.04356 0.78972 0.27560
 C2342 C 0.05657 0.79755 0.28471
 H2343 H 0.11135 0.85973 0.32945
 H2344 H 0.08685 0.84701 0.31521
 H2345 H 0.10967 0.79810 0.32153
 H2346 H 0.13398 0.81077 0.33565
 H2347 H 0.07410 0.82288 0.30042
 H2348 H 0.08227 0.79039 0.31919
 H2349 H 0.05778 0.77101 0.31832
 H2350 H 0.03503 0.75731 0.30240
 H2351 H 0.03992 0.79498 0.26358
 H2352 H 0.06273 0.80844 0.27926
 C2353 C 0.61258 0.67555 0.65724
 C2354 C 0.59900 0.68421 0.66449
 C2355 C 0.59816 0.68629 0.68191
 C2356 C 0.61133 0.67962 0.69196
 C2357 C 0.62489 0.67093 0.68470
 C2358 C 0.62570 0.66886 0.66727
 C2359 C 0.58384 0.69613 0.68898
 C2360 C 0.57878 0.69491 0.70499
 C2361 C 0.56471 0.70499 0.71219
 C2362 C 0.55674 0.69921 0.72686
 C2363 C 0.54377 0.70852 0.73438
 C2364 C 0.53855 0.72391 0.72744
 C2365 C 0.54657 0.72977 0.71278
 C2366 C 0.55955 0.72046 0.70526
 H2367 H 0.61281 0.67405 0.64377
 H2368 H 0.58910 0.68930 0.65645
 H2369 H 0.61153 0.68144 0.70537
 H2370 H 0.63502 0.66624 0.69271
 H2371 H 0.57688 0.70418 0.68042
 H2372 H 0.58467 0.68571 0.71315
 H2373 H 0.56056 0.68743 0.73255
 H2374 H 0.53791 0.70367 0.74570
 H2375 H 0.54295 0.74166 0.70721
 H2376 H 0.56573 0.72566 0.69429
 C2377 C 0.63122 0.19939 0.17906
 C2378 C 0.61796 0.20824 0.18660
 C2379 C 0.60366 0.19977 0.19311
 C2380 C 0.60284 0.18217 0.19173
 C2381 C 0.61615 0.17331 0.18422
 C2382 C 0.63045 0.18183 0.17775
 C2383 C 0.58979 0.20981 0.20072
 C2384 C 0.57838 0.20348 0.21159
 C2385 C 0.56479 0.21361 0.21957
 C2386 C 0.55756 0.20770 0.23454
 C2387 C 0.54465 0.21669 0.24249
 C2388 C 0.53855 0.23178 0.23556
 C2389 C 0.54563 0.23765 0.22046
 C2390 C 0.55857 0.22864 0.21249
 H2391 H 0.64217 0.20629 0.17434
 H2392 H 0.61891 0.22177 0.18742
 H2393 H 0.59181 0.17518 0.19605
 H2394 H 0.61508 0.15981 0.18310
 H2395 H 0.58964 0.22309 0.19786
 H2396 H 0.57949 0.19056 0.21564
 H2397 H 0.56199 0.19611 0.24020
 H2398 H 0.53943 0.21176 0.25408
 H2399 H 0.54108 0.24914 0.21472
 H2400 H 0.56338 0.23336 0.20068
 C2401 C 0.11153 0.67881 0.16322
 C2402 C 0.09741 0.68626 0.17078
 C2403 C 0.09676 0.68826 0.18822
 C2404 C 0.11057 0.68249 0.19801
 C2405 C 0.12470 0.67499 0.19043
 C2406 C 0.12541 0.67325 0.17295
 C2407 C 0.08203 0.69734 0.19549
 C2408 C 0.07760 0.69651 0.21170
 C2409 C 0.06336 0.70637 0.21885
 C2410 C 0.05547 0.70065 0.23360
 C2411 C 0.04231 0.70984 0.24096
 C2412 C 0.03687 0.72507 0.23380
 C2413 C 0.04486 0.73088 0.21912
 C2414 C 0.05800 0.72168 0.21175
 H2415 H 0.11165 0.67748 0.14973
 H2416 H 0.08700 0.69064 0.16294
 H2417 H 0.11086 0.68423 0.21142
 H2418 H 0.13535 0.67110 0.19820
 H2419 H 0.07434 0.70471 0.18692
 H2420 H 0.08418 0.68794 0.22003
 H2421 H 0.05948 0.68899 0.23942
 H2422 H 0.03647 0.70506 0.25232
 H2423 H 0.04109 0.74264 0.21337
 H2424 H 0.06415 0.72685 0.20074
 C2425 C 0.12806 0.16857 0.69222
 C2426 C 0.11466 0.17589 0.70108
 C2427 C 0.10085 0.18325 0.69259
 C2428 C 0.10054 0.18279 0.67495
 C2429 C 0.11398 0.17550 0.66608
 C2430 C 0.12789 0.16833 0.67463
 C2431 C 0.08702 0.19100 0.70259
 C2432 C 0.07655 0.20287 0.69653
 C2433 C 0.06335 0.21142 0.70668
 C2434 C 0.05738 0.22706 0.70115
 C2435 C 0.04503 0.23571 0.71022
 C2436 C 0.03822 0.22884 0.72504
 C2437 C 0.04397 0.21305 0.73051
 C2438 C 0.05637 0.20438 0.72140
 H2439 H 0.13868 0.16328 0.69915
 H2440 H 0.11520 0.17598 0.71464
 H2441 H 0.08986 0.18777 0.66791
 H2442 H 0.11335 0.17519 0.65254
 H2443 H 0.08628 0.18751 0.71568
 H2444 H 0.07834 0.20741 0.68385
 H2445 H 0.06241 0.23272 0.68980
 H2446 H 0.04084 0.24781 0.70560
 H2447 H 0.03885 0.20736 0.74178
 H2448 H 0.06021 0.19211 0.72582
 C2449 C 0.37242 0.70012 0.32575
 C2450 C 0.38604 0.70883 0.31843
 C2451 C 0.40010 0.70018 0.31189
 C2452 C 0.40042 0.68255 0.31316
 C2453 C 0.38676 0.67383 0.32045
 C2454 C 0.37261 0.68252 0.32679
 C2455 C 0.41418 0.71001 0.30413
 C2456 C 0.42504 0.70363 0.29287
 C2457 C 0.43857 0.71360 0.28439
 C2458 C 0.44501 0.70775 0.26912
 C2459 C 0.45768 0.71669 0.26057
 C2460 C 0.46433 0.73167 0.26716
 C2461 C 0.45811 0.73743 0.28259
 C2462 C 0.44540 0.72847 0.29116
 H2463 H 0.36162 0.70716 0.33037
 H2464 H 0.38550 0.72240 0.31771
 H2465 H 0.41126 0.67542 0.30883
 H2466 H 0.38739 0.66029 0.32139
 H2467 H 0.41482 0.72323 0.30707
 H2468 H 0.42337 0.69081 0.28879
 H2469 H 0.44009 0.69628 0.26369
 H2470 H 0.46223 0.71184 0.24876
 H2471 H 0.46310 0.74884 0.28808
 H2472 H 0.44120 0.73313 0.30315
 C2473 C 0.38144 0.15797 0.82328
 C2474 C 0.39569 0.16431 0.81478
 C2475 C 0.39748 0.18160 0.81184
 C2476 C 0.38467 0.19247 0.81769
 C2477 C 0.37041 0.18612 0.82621
 C2478 C 0.36855 0.16878 0.82895
 C2479 C 0.41236 0.18761 0.80192
 C2480 C 0.41820 0.20345 0.80229
 C2481 C 0.43282 0.20960 0.79210
 C2482 C 0.44137 0.22418 0.79723
 C2483 C 0.45476 0.23087 0.78774
 C2484 C 0.45985 0.22320 0.77275
 C2485 C 0.45132 0.20857 0.76756
 C2486 C 0.43791 0.20185 0.77710
 H2487 H 0.38045 0.14456 0.82533
 H2488 H 0.40531 0.15565 0.81038
 H2489 H 0.38523 0.20582 0.81524
 H2490 H 0.36053 0.19472 0.83013
 H2491 H 0.41902 0.17840 0.79449
 H2492 H 0.41254 0.21227 0.81088
 H2493 H 0.43765 0.23048 0.80864
 H2494 H 0.46100 0.24218 0.79209
 H2495 H 0.45483 0.20245 0.75601
 H2496 H 0.43133 0.19088 0.77242
 C2497 C 0.88416 0.65652 0.81941
 C2498 C 0.89788 0.66371 0.81073
 C2499 C 0.89944 0.68120 0.80924
 C2500 C 0.88680 0.69139 0.81647
 C2501 C 0.87310 0.68420 0.82517
 C2502 C 0.87160 0.66669 0.82671
 C2503 C 0.91391 0.68824 0.79943
 C2504 C 0.91966 0.70403 0.80111
 C2505 C 0.93384 0.71127 0.79104
 C2506 C 0.94225 0.72562 0.79702
 C2507 C 0.95525 0.73326 0.78770
 C2508 C 0.96009 0.72677 0.77209
 C2509 C 0.95168 0.71240 0.76607
 C2510 C 0.93866 0.70477 0.77538
 H2511 H 0.88341 0.64299 0.82048
 H2512 H 0.90734 0.65556 0.80519
 H2513 H 0.88713 0.70489 0.81511
 H2514 H 0.86342 0.69234 0.83034
 H2515 H 0.92037 0.67980 0.79099
 H2516 H 0.91423 0.71195 0.81066
 H2517 H 0.93872 0.73098 0.80896
 H2518 H 0.96143 0.74435 0.79269
 H2519 H 0.95499 0.70718 0.75401
 H2520 H 0.93216 0.69407 0.77003
 C2521 C 0.86954 0.17889 0.30574
 C2522 C 0.88312 0.18649 0.29723
 C2523 C 0.89713 0.19308 0.30603
 C2524 C 0.89743 0.19162 0.32362
 C2525 C 0.88383 0.18400 0.33214
 C2526 C 0.86971 0.17758 0.32329
 C2527 C 0.91130 0.20087 0.29636
 C2528 C 0.92246 0.21192 0.30281
 C2529 C 0.93633 0.21987 0.29284
 C2530 C 0.94303 0.23534 0.29805
 C2531 C 0.95602 0.24329 0.28891
 C2532 C 0.96267 0.23583 0.27442
 C2533 C 0.95620 0.22018 0.26940
 C2534 C 0.94324 0.21224 0.27853
 H2535 H 0.85876 0.17426 0.29857
 H2536 H 0.88260 0.18736 0.28369
 H2537 H 0.90824 0.19601 0.33085
 H2538 H 0.88447 0.18289 0.34565
 H2539 H 0.91189 0.19796 0.28315
 H2540 H 0.92093 0.21609 0.31559
 H2541 H 0.93808 0.24141 0.30912
 H2542 H 0.96078 0.25530 0.29317
 H2543 H 0.96118 0.21399 0.25841
 H2544 H 0.93890 0.20004 0.27443
 C2545 C 0.30143 0.32370 0.63112
 C2546 C 0.29346 0.31632 0.61733
 C2547 C 0.30308 0.31085 0.60360
 C2548 C 0.32095 0.31312 0.60390
 C2549 C 0.32895 0.32048 0.61774
 C2550 C 0.31927 0.32588 0.63148
 C2551 C 0.29388 0.30332 0.58917
 C2552 C 0.30135 0.29355 0.57769
 C2553 C 0.29194 0.28557 0.56365
 C2554 C 0.29904 0.27135 0.55611
 C2555 C 0.29061 0.26331 0.54295
 C2556 C 0.27490 0.26938 0.53691
 C2557 C 0.26791 0.28380 0.54422
 C2558 C 0.27635 0.29186 0.55740
 H2559 H 0.29364 0.32760 0.64160
 H2560 H 0.27969 0.31480 0.61744
 H2561 H 0.32883 0.30961 0.59338
 H2562 H 0.34267 0.32228 0.61754
 H2563 H 0.28021 0.30525 0.58861
 H2564 H 0.31471 0.29036 0.57906
 H2565 H 0.31109 0.26632 0.56054
 H2566 H 0.29641 0.25227 0.53756
 H2567 H 0.25591 0.28890 0.53975
 H2568 H 0.27071 0.30312 0.56244
 C2569 C 0.30251 0.83354 0.12395
 C2570 C 0.29391 0.82642 0.11038
 C2571 C 0.30302 0.81998 0.09673
 C2572 C 0.32098 0.82123 0.09674
 C2573 C 0.32958 0.82833 0.11034
 C2574 C 0.32044 0.83447 0.12412
 C2575 C 0.29328 0.81240 0.08272
 C2576 C 0.30002 0.80145 0.07188
 C2577 C 0.29002 0.79339 0.05831
 C2578 C 0.29591 0.77821 0.05165
 C2579 C 0.28676 0.77006 0.03902
 C2580 C 0.27154 0.77698 0.03270
 C2581 C 0.26583 0.79235 0.03910
 C2582 C 0.27500 0.80053 0.05169
 H2583 H 0.29513 0.83805 0.13446
 H2584 H 0.28007 0.82572 0.11065
 H2585 H 0.32847 0.81701 0.08622
 H2586 H 0.34340 0.82921 0.10999
 H2587 H 0.27979 0.81526 0.08203
 H2588 H 0.31310 0.79737 0.07351
 H2589 H 0.30753 0.77253 0.05639
 H2590 H 0.29155 0.75826 0.03430
 H2591 H 0.25427 0.79813 0.03435
 H2592 H 0.27035 0.81251 0.05600
 C2593 C 0.79987 0.31991 0.12281
 C2594 C 0.79179 0.31279 0.10896
 C2595 C 0.80131 0.30752 0.09508
 C2596 C 0.81918 0.30977 0.09526
 C2597 C 0.82728 0.31688 0.10916
 C2598 C 0.81771 0.32202 0.12307
 C2599 C 0.79203 0.30021 0.08064
 C2600 C 0.79935 0.29040 0.06912
 C2601 C 0.78964 0.28266 0.05518
 C2602 C 0.79583 0.26785 0.04801
 C2603 C 0.78679 0.25991 0.03517
 C2604 C 0.77139 0.26671 0.02914
 C2605 C 0.76545 0.28181 0.03597
 C2606 C 0.77450 0.28975 0.04879
 H2607 H 0.79217 0.32359 0.13342
 H2608 H 0.77802 0.31128 0.10913
 H2609 H 0.82695 0.30641 0.08462
 H2610 H 0.84101 0.31865 0.10889
 H2611 H 0.77838 0.30231 0.08012
 H2612 H 0.81265 0.28694 0.07044
 H2613 H 0.80756 0.26223 0.05257
 H2614 H 0.79176 0.24834 0.03011
 H2615 H 0.75374 0.28749 0.03145
 H2616 H 0.76965 0.30149 0.05351
 C2617 C 0.79826 0.81830 0.62192
 C2618 C 0.79073 0.81095 0.60786
 C2619 C 0.80084 0.80503 0.59466
 C2620 C 0.81872 0.80700 0.59565
 C2621 C 0.82625 0.81434 0.60974
 C2622 C 0.81611 0.82000 0.62306
 C2623 C 0.79219 0.79725 0.58005
 C2624 C 0.79996 0.78679 0.56939
 C2625 C 0.79104 0.77848 0.55524
 C2626 C 0.79798 0.76370 0.54868
 C2627 C 0.78988 0.75531 0.53552
 C2628 C 0.77467 0.76160 0.52854
 C2629 C 0.76790 0.77660 0.53484
 C2630 C 0.77602 0.78500 0.54798
 H2631 H 0.79011 0.82241 0.63204
 H2632 H 0.77694 0.80970 0.60740
 H2633 H 0.82696 0.80318 0.58552
 H2634 H 0.84001 0.81580 0.61011
 H2635 H 0.77863 0.79953 0.57873
 H2636 H 0.81313 0.78328 0.57158
 H2637 H 0.80962 0.75849 0.55390
 H2638 H 0.79547 0.74382 0.53092
 H2639 H 0.75631 0.78188 0.52961
 H2640 H 0.77057 0.79668 0.55222
 C2641 C 0.31045 0.67838 0.37316
 C2642 C 0.30280 0.68531 0.38731
 C2643 C 0.31283 0.69185 0.40035
 C2644 C 0.33076 0.69081 0.39917
 C2645 C 0.33840 0.68390 0.38500
 C2646 C 0.32834 0.67775 0.37178
 C2647 C 0.30410 0.69938 0.41494
 C2648 C 0.31151 0.71059 0.42516
 C2649 C 0.30240 0.71878 0.43917
 C2650 C 0.30847 0.73427 0.44504
 C2651 C 0.30002 0.74262 0.45794
 C2652 C 0.28535 0.73559 0.46533
 C2653 C 0.27953 0.71987 0.45978
 C2654 C 0.28800 0.71151 0.44691
 H2655 H 0.30236 0.67385 0.36312
 H2656 H 0.28898 0.68582 0.38795
 H2657 H 0.33895 0.69510 0.40920
 H2658 H 0.35222 0.68323 0.38444
 H2659 H 0.29072 0.69633 0.41657
 H2660 H 0.32439 0.71486 0.42260
 H2661 H 0.31964 0.74007 0.43943
 H2662 H 0.30488 0.75468 0.46198
 H2663 H 0.26839 0.71401 0.46536
 H2664 H 0.28327 0.69931 0.44323
 C2665 C 0.30395 0.17381 0.87256
 C2666 C 0.29602 0.18086 0.88648
 C2667 C 0.30567 0.18616 0.90032
 C2668 C 0.32358 0.18426 0.89989
 C2669 C 0.33154 0.17722 0.88590
 C2670 C 0.32179 0.17178 0.87215
 C2671 C 0.29641 0.19298 0.91501
 C2672 C 0.30374 0.20225 0.92705
 C2673 C 0.29402 0.20935 0.94130
 C2674 C 0.30029 0.22382 0.94914
 C2675 C 0.29132 0.23115 0.96233
 C2676 C 0.27592 0.22406 0.96810
 C2677 C 0.26988 0.20928 0.96058
 C2678 C 0.27884 0.20196 0.94737
 H2679 H 0.29611 0.16993 0.86207
 H2680 H 0.28223 0.18213 0.88644
 H2681 H 0.33149 0.18774 0.91043
 H2682 H 0.34527 0.17557 0.88604
 H2683 H 0.28274 0.19086 0.91539
 H2684 H 0.31707 0.20573 0.92602
 H2685 H 0.31203 0.22966 0.94486
 H2686 H 0.29640 0.24248 0.96790
 H2687 H 0.25816 0.20340 0.96484
 H2688 H 0.27390 0.19046 0.94208
 C2689 C 0.84152 0.67217 0.88687
 C2690 C 0.83553 0.67980 0.90143
 C2691 C 0.81794 0.68202 0.90404
 C2692 C 0.80641 0.67649 0.89165
 C2693 C 0.81241 0.66885 0.87709
 C2694 C 0.83003 0.66667 0.87449
 C2695 C 0.81225 0.69091 0.91934
 C2696 C 0.79641 0.68962 0.92568
 C2697 C 0.79051 0.69906 0.94057
 C2698 C 0.77606 0.69323 0.94926
 C2699 C 0.76953 0.70216 0.96284
 C2700 C 0.77726 0.71723 0.96797
 C2701 C 0.79178 0.72304 0.95933
 C2702 C 0.79830 0.71411 0.94575
 H2703 H 0.85516 0.67052 0.88533
 H2704 H 0.84469 0.68402 0.91071
 H2705 H 0.79280 0.67846 0.89286
 H2706 H 0.80327 0.66506 0.86762
 H2707 H 0.82174 0.69836 0.92581
 H2708 H 0.78741 0.68094 0.92013
 H2709 H 0.76971 0.68176 0.94547
 H2710 H 0.75829 0.69736 0.96917
 H2711 H 0.79795 0.73469 0.96285
 H2712 H 0.80912 0.71936 0.93910
 C2713 C 0.80999 0.17898 0.37297
 C2714 C 0.80338 0.18598 0.38755
 C2715 C 0.81429 0.19175 0.40026
 C2716 C 0.83210 0.19024 0.39809
 C2717 C 0.83872 0.18326 0.38344
 C2718 C 0.82773 0.17749 0.37076
 C2719 C 0.80649 0.19869 0.41565
 C2720 C 0.81482 0.20837 0.42670
 C2721 C 0.80645 0.21552 0.44170
 C2722 C 0.81308 0.23030 0.44866
 C2723 C 0.80521 0.23770 0.46247
 C2724 C 0.79057 0.23038 0.46969
 C2725 C 0.78426 0.21529 0.46305
 C2726 C 0.79215 0.20788 0.44928
 H2727 H 0.80121 0.17482 0.36333
 H2728 H 0.78963 0.18693 0.38889
 H2729 H 0.84098 0.19405 0.40775
 H2730 H 0.85244 0.18201 0.38219
 H2731 H 0.79298 0.19630 0.41742
 H2732 H 0.82789 0.21212 0.42428
 H2733 H 0.82420 0.23633 0.44320
 H2734 H 0.81044 0.24929 0.46734
 H2735 H 0.77315 0.20920 0.46845
 H2736 H 0.78704 0.19613 0.44473
 C2737 C 0.66544 0.32405 0.40120
 C2738 C 0.67348 0.31644 0.41491
 C2739 C 0.69133 0.31476 0.41538
 C2740 C 0.70102 0.32079 0.40176
 C2741 C 0.69298 0.32842 0.38808
 C2742 C 0.67511 0.33006 0.38761
 C2743 C 0.69923 0.30582 0.42975
 C2744 C 0.71571 0.30754 0.43410
 C2745 C 0.72386 0.29789 0.44786
 C2746 C 0.73905 0.30406 0.45495
 C2747 C 0.74758 0.29497 0.46741
 C2748 C 0.74116 0.27943 0.47297
 C2749 C 0.72595 0.27324 0.46589
 C2750 C 0.71743 0.28232 0.45342
 H2751 H 0.65165 0.32525 0.40123
 H2752 H 0.66570 0.31180 0.42516
 H2753 H 0.71473 0.31920 0.40131
 H2754 H 0.70073 0.33258 0.37761
 H2755 H 0.69093 0.29787 0.43721
 H2756 H 0.72360 0.31671 0.42767
 H2757 H 0.74437 0.31593 0.45078
 H2758 H 0.75930 0.30007 0.47257
 H2759 H 0.72076 0.26124 0.46979
 H2760 H 0.70610 0.27682 0.44791
 C2761 C 0.68257 0.83576 0.89235
 C2762 C 0.69109 0.82909 0.90627
 C2763 C 0.69345 0.81172 0.90794
 C2764 C 0.68736 0.80112 0.89519
 C2765 C 0.67887 0.80778 0.88127
 C2766 C 0.67636 0.82517 0.87968
 C2767 C 0.70295 0.80519 0.92268
 C2768 C 0.70105 0.78949 0.92856
 C2769 C 0.71085 0.78258 0.94294
 C2770 C 0.70438 0.76841 0.95133
 C2771 C 0.71356 0.76094 0.96440
 C2772 C 0.72953 0.76740 0.96929
 C2773 C 0.73600 0.78164 0.96096
 C2774 C 0.72681 0.78913 0.94789
 H2775 H 0.68073 0.84919 0.89155
 H2776 H 0.69577 0.83754 0.91584
 H2777 H 0.68949 0.78773 0.89567
 H2778 H 0.67460 0.79933 0.87153
 H2779 H 0.71125 0.81387 0.92918
 H2780 H 0.69150 0.78137 0.92300
 H2781 H 0.69220 0.76303 0.94769
 H2782 H 0.70822 0.74995 0.97051
 H2783 H 0.74834 0.78684 0.96434
 H2784 H 0.73251 0.79971 0.94144
 C2785 C 0.19592 0.32671 0.87491
 C2786 C 0.20392 0.31909 0.88861
 C2787 C 0.19428 0.31278 0.90207
 C2788 C 0.17635 0.31441 0.90157
 C2789 C 0.16834 0.32204 0.88781
 C2790 C 0.17805 0.32834 0.87437
 C2791 C 0.20352 0.30515 0.91647
 C2792 C 0.19626 0.29465 0.92759
 C2793 C 0.20586 0.28665 0.94155
 C2794 C 0.19966 0.27153 0.94833
 C2795 C 0.20841 0.26342 0.96130
 C2796 C 0.22352 0.27033 0.96793
 C2797 C 0.22954 0.28566 0.96143
 C2798 C 0.22079 0.29378 0.94843
 H2799 H 0.20375 0.33127 0.86467
 H2800 H 0.21773 0.31806 0.88867
 H2801 H 0.16845 0.31021 0.91187
 H2802 H 0.15456 0.32338 0.88788
 H2803 H 0.21710 0.30766 0.91731
 H2804 H 0.18308 0.29087 0.92594
 H2805 H 0.18811 0.26585 0.94340
 H2806 H 0.20336 0.25166 0.96607
 H2807 H 0.24104 0.29141 0.96637
 H2808 H 0.22566 0.30570 0.94398
 C2809 C 0.16051 0.82796 0.39088
 C2810 C 0.16835 0.81971 0.40434
 C2811 C 0.18619 0.81800 0.40498
 C2812 C 0.19606 0.82447 0.39169
 C2813 C 0.18823 0.83274 0.37826
 C2814 C 0.17038 0.83459 0.37771
 C2815 C 0.19396 0.80886 0.41932
 C2816 C 0.21026 0.81104 0.42414
 C2817 C 0.21830 0.80183 0.43828
 C2818 C 0.23318 0.80851 0.44550
 C2819 C 0.24157 0.80005 0.45846
 C2820 C 0.23530 0.78460 0.46446
 C2821 C 0.22041 0.77786 0.45723
 C2822 C 0.21202 0.78633 0.44424
 H2823 H 0.14674 0.82928 0.39085
 H2824 H 0.16044 0.81473 0.41434
 H2825 H 0.20977 0.82286 0.39135
 H2826 H 0.19612 0.83736 0.36810
 H2827 H 0.18567 0.80064 0.42647
 H2828 H 0.21802 0.82045 0.41794
 H2829 H 0.23838 0.82034 0.44107
 H2830 H 0.25303 0.80557 0.46372
 H2831 H 0.21534 0.76591 0.46147
 H2832 H 0.20090 0.78046 0.43869
 C2833 C 0.67345 0.68465 0.62245
 C2834 C 0.68091 0.69211 0.60839
 C2835 C 0.68638 0.68233 0.59488
 C2836 C 0.68415 0.66480 0.59573
 C2837 C 0.67668 0.65732 0.60985
 C2838 C 0.67116 0.66718 0.62331
 C2839 C 0.69374 0.69104 0.58007
 C2840 C 0.70359 0.68359 0.56857
 C2841 C 0.71123 0.69286 0.55423
 C2842 C 0.72647 0.68696 0.54719
 C2843 C 0.73435 0.69569 0.53405
 C2844 C 0.72704 0.71045 0.52755
 C2845 C 0.71147 0.71605 0.53424
 C2846 C 0.70361 0.70734 0.54738
 H2847 H 0.66955 0.69257 0.63272
 H2848 H 0.68243 0.70563 0.60808
 H2849 H 0.68774 0.65683 0.58541
 H2850 H 0.67484 0.64385 0.61006
 H2851 H 0.69158 0.70442 0.57916
 H2852 H 0.70717 0.67059 0.57018
 H2853 H 0.73249 0.67574 0.55210
 H2854 H 0.74628 0.69097 0.52911
 H2855 H 0.70539 0.72726 0.52939
 H2856 H 0.69153 0.71193 0.55202
 C2857 C 0.67556 0.19498 0.12958
 C2858 C 0.68219 0.20184 0.11484
 C2859 C 0.68606 0.19157 0.10116
 C2860 C 0.68306 0.17419 0.10251
 C2861 C 0.67642 0.16731 0.11729
 C2862 C 0.67252 0.17765 0.13094
 C2863 C 0.69254 0.19964 0.08566
 C2864 C 0.70115 0.19155 0.07367
 C2865 C 0.70794 0.20025 0.05863
 C2866 C 0.72264 0.19399 0.05084
 C2867 C 0.72982 0.20238 0.03711
 C2868 C 0.72232 0.21713 0.03082
 C2869 C 0.70722 0.22302 0.03822
 C2870 C 0.70006 0.21464 0.05192
 H2871 H 0.67288 0.20324 0.13996
 H2872 H 0.68433 0.21526 0.11414
 H2873 H 0.68538 0.16589 0.09210
 H2874 H 0.67393 0.15395 0.11790
 H2875 H 0.69085 0.21308 0.08458
 H2876 H 0.70440 0.17846 0.07534
 H2877 H 0.72882 0.18281 0.05565
 H2878 H 0.74140 0.19746 0.03162
 H2879 H 0.70099 0.23421 0.03353
 H2880 H 0.68833 0.21946 0.05717
 C2881 C 0.17060 0.69495 0.12782
 C2882 C 0.17719 0.70340 0.11389
 C2883 C 0.18328 0.69450 0.10003
 C2884 C 0.18241 0.67684 0.10032
 C2885 C 0.17586 0.66837 0.11431
 C2886 C 0.16985 0.67734 0.12819
 C2887 C 0.18999 0.70417 0.08551
 C2888 C 0.20032 0.69771 0.07382
 C2889 C 0.20756 0.70775 0.05980
 C2890 C 0.22265 0.70222 0.05218
 C2891 C 0.23013 0.71144 0.03917
 C2892 C 0.22260 0.72638 0.03340
 C2893 C 0.20725 0.73173 0.04074
 C2894 C 0.19975 0.72249 0.05374
 H2895 H 0.16623 0.70220 0.13841
 H2896 H 0.17763 0.71699 0.11400
 H2897 H 0.18643 0.66947 0.08972
 H2898 H 0.17515 0.65480 0.11414
 H2899 H 0.18699 0.71740 0.08508
 H2900 H 0.20462 0.68488 0.07502
 H2901 H 0.22883 0.69083 0.05647
 H2902 H 0.24191 0.70692 0.03374
 H2903 H 0.20102 0.74308 0.03644
 H2904 H 0.18778 0.72687 0.05883
 C2905 C 0.17304 0.18761 0.62806
 C2906 C 0.18037 0.19588 0.61436
 C2907 C 0.18584 0.18687 0.60031
 C2908 C 0.18354 0.16935 0.60013
 C2909 C 0.17617 0.16107 0.61385
 C2910 C 0.17086 0.17010 0.62798
 C2911 C 0.19333 0.19631 0.58601
 C2912 C 0.20369 0.18949 0.57455
 C2913 C 0.21145 0.19934 0.56066
 C2914 C 0.22694 0.19394 0.55370
 C2915 C 0.23484 0.20316 0.54089
 C2916 C 0.22730 0.21792 0.53466
 C2917 C 0.21153 0.22304 0.54129
 C2918 C 0.20366 0.21385 0.55409
 H2919 H 0.16930 0.19492 0.63883
 H2920 H 0.18190 0.20938 0.61480
 H2921 H 0.18706 0.16201 0.58934
 H2922 H 0.17436 0.14762 0.61328
 H2923 H 0.19088 0.20966 0.58555
 H2924 H 0.20754 0.17652 0.57585
 H2925 H 0.23311 0.18271 0.55839
 H2926 H 0.24694 0.19882 0.53599
 H2927 H 0.20527 0.23424 0.53665
 H2928 H 0.19142 0.21808 0.55867
   
