data_POSCAR
  _audit_creation_date              2014-09-24
  _audit_creation_method            'ToBaCCo'
  _symmetry_space_group_name_H-M    'P1'
  _symmetry_Int_Tables_number       1
  _symmetry_cell_setting            triclinic
  loop_
  _symmetry_equiv_pos_as_xyz
 x,y,z
_cell_length_a 58.8982
_cell_length_b 58.9371
_cell_length_c 59.1398
_cell_angle_alpha 90.086000
_cell_angle_beta 89.959200
_cell_angle_gamma 90.119800
loop_
  _atom_site_label
  _atom_site_type_symbol
  _atom_site_fract_x
  _atom_site_fract_y
  _atom_site_fract_z
O1 O 0.32601 0.35469 0.02693
 O2 O 0.35298 0.31994 -0.01714
 O3 O 0.32199 0.35139 -0.01685
 O4 O 0.35646 0.32321 0.02662
 O5 O 0.32989 0.29705 0.03058
 O6 O 0.29514 0.32567 -0.01251
 O7 O 0.32647 0.29376 -0.01300
 O8 O 0.29913 0.32886 0.03098
 Cu9 Cu 0.34201 0.33991 0.00438
 Cu10 Cu 0.30997 0.30871 0.00933
 C11 C 0.30799 0.34774 0.03650
 C12 C 0.34458 0.30079 -0.02239
 C13 C 0.30248 0.34363 -0.02192
 C14 C 0.34908 0.30529 0.03601
 O15 O 0.64208 0.67172 -0.02957
 O16 O 0.67364 0.63938 0.01317
 O17 O 0.64186 0.66966 0.01447
 O18 O 0.67452 0.64183 -0.03089
 O19 O 0.70027 0.66893 -0.02894
 O20 O 0.66754 0.69695 0.01602
 O21 O 0.69956 0.66644 0.01474
 O22 O 0.66753 0.69919 -0.02771
 Cu23 Cu 0.65546 0.65292 -0.00844
 Cu24 Cu 0.68630 0.68562 -0.00638
 C25 C 0.64921 0.69109 -0.03573
 C26 C 0.69199 0.64732 0.02123
 C27 C 0.64912 0.68812 0.02295
 C28 C 0.69320 0.65043 -0.03750
 O29 O 0.66238 0.36655 0.97991
 O30 O 0.63140 0.33486 1.02379
 O31 O 0.66253 0.36618 1.02398
 O32 O 0.63101 0.33592 0.97965
 O33 O 0.65721 0.30921 0.97910
 O34 O 0.68929 0.34013 1.02290
 O35 O 0.65774 0.30829 1.02310
 O36 O 0.68883 0.34005 0.97933
 Cu37 Cu 0.64417 0.35350 1.00199
 Cu38 Cu 0.67587 0.32168 1.00118
 C39 C 0.68089 0.35870 0.97212
 C40 C 0.63919 0.31607 1.03082
 C41 C 0.68156 0.35868 1.03073
 C42 C 0.63876 0.31749 0.97167
 O43 O 0.32590 0.64263 0.97774
 O44 O 0.35330 0.67749 1.02158
 O45 O 0.32257 0.64561 1.02179
 O46 O 0.35595 0.67488 0.97784
 O47 O 0.32899 0.70066 0.97480
 O48 O 0.29535 0.67090 1.01804
 O49 O 0.32632 0.70320 1.01823
 O50 O 0.29875 0.66813 0.97433
 Cu51 Cu 0.34207 0.65754 1.00013
 Cu52 Cu 0.30958 0.68823 0.99608
 C53 C 0.30770 0.64941 0.96848
 C54 C 0.34479 0.69649 1.02709
 C55 C 0.30310 0.65309 1.02732
 C56 C 0.34828 0.69297 0.96905
 O57 O 0.02036 0.32302 0.34927
 O58 O -0.02547 0.35302 0.31990
 O59 O -0.02400 0.32117 0.35008
 O60 O 0.01864 0.35392 0.31802
 O61 O 0.01831 0.32769 0.29133
 O62 O -0.02354 0.29469 0.32374
 O63 O -0.02552 0.32690 0.29310
 O64 O 0.02035 0.29651 0.32286
 Cu65 Cu -0.00260 0.34037 0.33701
 Cu66 Cu -0.00262 0.30879 0.30511
 C67 C 0.02812 0.30462 0.34123
 C68 C -0.03315 0.34531 0.30137
 C69 C -0.03096 0.30217 0.34250
 C70 C 0.02551 0.34650 0.29902
 O71 O 0.02433 0.66777 0.64802
 O72 O -0.02274 0.64197 0.67987
 O73 O -0.01991 0.67025 0.64638
 O74 O 0.02124 0.63957 0.68160
 O75 O 0.02151 0.66791 0.70605
 O76 O -0.01868 0.69919 0.66998
 O77 O -0.02217 0.67066 0.70389
 O78 O 0.02521 0.69629 0.67222
 Cu79 Cu 0.00066 0.65206 0.66152
 Cu80 Cu 0.00151 0.68643 0.69041
 C81 C 0.03281 0.68646 0.65465
 C82 C -0.03031 0.65174 0.69747
 C83 C -0.02623 0.69010 0.65197
 C84 C 0.02815 0.64833 0.69999
 O85 O 0.97815 0.67580 0.35494
 O86 O 1.02310 0.64867 0.32113
 O87 O 1.02218 0.67861 0.35329
 O88 O 0.97895 0.64559 0.32284
 O89 O 0.97664 0.67252 0.29704
 O90 O 1.01914 0.70617 0.32834
 O91 O 1.02047 0.67597 0.29577
 O92 O 0.97544 0.70301 0.32949
 Cu93 Cu 1.00084 0.65942 0.34057
 Cu94 Cu 0.99763 0.69214 0.31009
 C95 C 0.96935 0.69423 0.34814
 C96 C 1.02940 0.65763 0.30263
 C97 C 1.02789 0.69819 0.34630
 C98 C 0.97062 0.65326 0.30460
 O99 O 0.97993 0.31971 0.64293
 O100 O 1.02577 0.35185 0.67083
 O101 O 1.02406 0.31846 0.64208
 O102 O 0.98138 0.35314 0.67133
 O103 O 0.98137 0.32913 0.69993
 O104 O 1.02323 0.29364 0.66990
 O105 O 1.02558 0.32734 0.69898
 O106 O 0.97956 0.29536 0.67126
 Cu107 Cu 1.00288 0.33828 0.65402
 Cu108 Cu 1.00247 0.30900 0.68793
 C109 C 0.97204 0.30195 0.65225
 C110 C 1.03350 0.34511 0.68971
 C111 C 1.03063 0.29983 0.65066
 C112 C 0.97401 0.34706 0.69057
 O113 O 0.33198 -0.02956 0.36143
 O114 O 0.35972 0.01377 0.32596
 O115 O 0.33004 0.01463 0.35862
 O116 O 0.36193 -0.03017 0.32946
 O117 O 0.33466 -0.03311 0.30402
 O118 O 0.30221 0.01123 0.33387
 O119 O 0.33216 0.01056 0.30088
 O120 O 0.30452 -0.03268 0.33625
 Cu121 Cu 0.34864 -0.00743 0.34642
 Cu122 Cu 0.31558 -0.01123 0.31626
 C123 C 0.31354 -0.03861 0.35481
 C124 C 0.35084 0.01930 0.30719
 C125 C 0.31061 0.02044 0.35142
 C126 C 0.35384 -0.03922 0.31171
 O127 O 0.64847 0.02611 0.68040
 O128 O 0.67775 -0.01759 0.64678
 O129 O 0.64647 -0.01784 0.67762
 O130 O 0.67973 0.02655 0.64911
 O131 O 0.70634 0.02383 0.67522
 O132 O 0.67266 -0.02021 0.70421
 O133 O 0.70425 -0.02004 0.67303
 O134 O 0.67480 0.02346 0.70679
 Cu135 Cu 0.66050 0.00464 0.66082
 Cu136 Cu 0.69220 0.00155 0.69244
 C137 C 0.65638 0.03193 0.69954
 C138 C 0.69606 -0.02622 0.65413
 C139 C 0.65374 -0.02642 0.69591
 C140 C 0.69885 0.03256 0.65707
 O141 O 0.35707 0.98089 0.66944
 O142 O 0.32705 1.02463 0.63702
 O143 O 0.35876 1.02510 0.66732
 O144 O 0.32439 0.98063 0.63979
 O145 O 0.29888 0.98343 0.66701
 O146 O 0.33309 1.02775 0.69439
 O147 O 0.30112 1.02714 0.66389
 O148 O 0.33186 0.98382 0.69692
 Cu149 Cu 0.34439 1.00247 0.65070
 Cu150 Cu 0.31369 1.00574 0.68331
 C151 C 0.34981 0.97503 0.68879
 C152 C 0.30891 1.03328 0.64479
 C153 C 0.35172 1.03405 0.68558
 C154 C 0.30560 0.97468 0.64857
 O155 O 0.63563 0.97425 0.33708
 O156 O 0.66434 1.01941 0.36921
 O157 O 0.63427 1.01849 0.33751
 O158 O 0.66621 0.97515 0.36889
 O159 O 0.69329 0.97631 0.34310
 O160 O 0.66145 1.01978 0.31182
 O161 O 0.69183 1.02028 0.34392
 O162 O 0.66237 0.97582 0.31097
 Cu163 Cu 0.64741 0.99661 0.35574
 Cu164 Cu 0.67997 0.99808 0.32487
 C165 C 0.64387 0.96755 0.31838
 C166 C 0.68300 1.02764 0.36215
 C167 C 0.64245 1.02661 0.31935
 C168 C 0.68533 0.96851 0.36149
 O169 O 0.83609 0.86377 0.52725
 O170 O 0.86602 0.83321 0.48198
 O171 O 0.83473 0.86410 0.48324
 O172 O 0.86722 0.83276 0.52617
 O173 O 0.84099 0.80593 0.52635
 O174 O 0.80822 0.83758 0.48384
 O175 O 0.83980 0.80640 0.48253
 O176 O 0.80947 0.83734 0.52758
 Cu177 Cu 0.85368 0.85110 0.50461
 Cu178 Cu 0.82198 0.81912 0.50514
 C179 C 0.81757 0.85591 0.53500
 C180 C 0.85811 0.81457 0.47456
 C181 C 0.81583 0.85630 0.47635
 C182 C 0.85970 0.81394 0.53349
 O183 O 0.16744 0.13931 0.51693
 O184 O 0.13710 0.16722 0.47038
 O185 O 0.16727 0.13516 0.47301
 O186 O 0.13803 0.17196 0.51429
 O187 O 0.16553 0.19728 0.51100
 O188 O 0.19487 0.16039 0.47037
 O189 O 0.16456 0.19262 0.46760
 O190 O 0.19522 0.16434 0.51402
 Cu191 Cu 0.14969 0.15089 0.49394
 Cu192 Cu 0.18284 0.18116 0.49048
 C193 C 0.18657 0.14692 0.52334
 C194 C 0.14551 0.18478 0.46117
 C195 C 0.18620 0.14147 0.46477
 C196 C 0.14673 0.19103 0.51946
 O197 O 0.15091 0.81693 0.52717
 O198 O 0.17974 0.84452 0.47966
 O199 O 0.14876 0.81350 0.48321
 O200 O 0.18310 0.84692 0.52340
 O201 O 0.20903 0.81992 0.52351
 O202 O 0.17483 0.78663 0.48355
 O203 O 0.20627 0.81809 0.48001
 O204 O 0.17653 0.78964 0.52719
 Cu205 Cu 0.16299 0.83313 0.50338
 Cu206 Cu 0.19426 0.80084 0.50358
 C207 C 0.15857 0.79851 0.53517
 C208 C 0.19804 0.83628 0.47191
 C209 C 0.15595 0.79428 0.47662
 C210 C 0.20210 0.83922 0.53007
 O211 O 0.84486 0.18734 0.52158
 O212 O 0.81647 0.15475 0.47670
 O213 O 0.84641 0.18727 0.47762
 O214 O 0.81418 0.15546 0.52078
 O215 O 0.78707 0.18122 0.51944
 O216 O 0.81920 0.21298 0.47657
 O217 O 0.78885 0.18002 0.47577
 O218 O 0.81793 0.21329 0.52007
 Cu219 Cu 0.83318 0.16861 0.49929
 Cu220 Cu 0.80050 0.19942 0.49778
 C221 C 0.83651 0.20605 0.52822
 C222 C 0.79766 0.16161 0.46882
 C223 C 0.83844 0.20580 0.47009
 C224 C 0.79500 0.16285 0.52734
 O225 O 0.51939 0.83779 0.86532
 O226 O 0.47571 0.86974 0.83430
 O227 O 0.47511 0.83799 0.86477
 O228 O 0.52003 0.86936 0.83485
 O229 O 0.51988 0.84354 0.80778
 O230 O 0.47556 0.81166 0.83819
 O231 O 0.47581 0.84370 0.80746
 O232 O 0.51953 0.81172 0.83850
 Cu233 Cu 0.49751 0.85634 0.85249
 Cu234 Cu 0.49767 0.82506 0.82027
 C235 C 0.52690 0.81928 0.85725
 C236 C 0.46837 0.86225 0.81552
 C237 C 0.46784 0.81935 0.85673
 C238 C 0.52759 0.86185 0.81617
 O239 O 0.52083 0.17014 0.14546
 O240 O 0.47941 0.13957 0.18101
 O241 O 0.47666 0.16890 0.14835
 O242 O 0.52342 0.14006 0.17745
 O243 O 0.52444 0.16737 0.20303
 O244 O 0.47824 0.19689 0.17316
 O245 O 0.48076 0.16731 0.20610
 O246 O 0.52212 0.19773 0.17070
 Cu247 Cu 0.49995 0.15192 0.16052
 Cu248 Cu 0.50154 0.18514 0.19075
 C249 C 0.52842 0.18927 0.15197
 C250 C 0.47323 0.14812 0.19977
 C251 C 0.46961 0.18791 0.15560
 C252 C 0.53164 0.14854 0.19541
 O253 O 0.51861 0.15007 0.81885
 O254 O 0.47675 0.18253 0.85241
 O255 O 0.47441 0.15128 0.82144
 O256 O 0.52089 0.18010 0.85099
 O257 O 0.52058 0.20744 0.82550
 O258 O 0.47474 0.17762 0.79492
 O259 O 0.47672 0.20914 0.82619
 O260 O 0.51856 0.17713 0.79309
 Cu261 Cu 0.49766 0.16329 0.83851
 Cu262 Cu 0.49765 0.19553 0.80732
 C263 C 0.52559 0.15806 0.80012
 C264 C 0.46975 0.20153 0.84504
 C265 C 0.46682 0.15928 0.80304
 C266 C 0.52847 0.19882 0.84355
 O267 O 0.48202 0.81995 0.14132
 O268 O 0.52402 0.85522 0.17173
 O269 O 0.52614 0.82383 0.14080
 O270 O 0.47985 0.85197 0.17136
 O271 O 0.48216 0.82646 0.19856
 O272 O 0.52792 0.79751 0.16726
 O273 O 0.52607 0.82923 0.19847
 O274 O 0.48417 0.79418 0.16827
 Cu275 Cu 0.50284 0.84034 0.15362
 Cu276 Cu 0.50533 0.80927 0.18585
 C277 C 0.47601 0.80096 0.14960
 C278 C 0.53206 0.84830 0.19044
 C279 C 0.53471 0.80571 0.14858
 C280 C 0.47318 0.84417 0.19022
 O281 O 0.82090 0.47583 0.85131
 O282 O 0.84857 0.51945 0.81635
 O283 O 0.81665 0.51947 0.84670
 O284 O 0.85297 0.47569 0.82109
 O285 O 0.82757 0.47047 0.79414
 O286 O 0.79086 0.51375 0.82020
 O287 O 0.82308 0.51395 0.78954
 O288 O 0.79520 0.47055 0.82464
 Cu289 Cu 0.83737 0.49816 0.83651
 Cu290 Cu 0.80665 0.49163 0.80439
 C291 C 0.80310 0.46602 0.84409
 C292 C 0.84067 0.52403 0.79691
 C293 C 0.79740 0.52380 0.83807
 C294 C 0.84658 0.46575 0.80312
 O295 O 0.15404 0.52742 0.18576
 O296 O 0.17991 0.48081 0.15351
 O297 O 0.15043 0.48343 0.18601
 O298 O 0.18429 0.52485 0.15360
 O299 O 0.21177 0.52223 0.17881
 O300 O 0.17776 0.48134 0.21145
 O301 O 0.20751 0.47857 0.17863
 O302 O 0.18126 0.52502 0.21127
 Cu303 Cu 0.16444 0.50442 0.16717
 Cu304 Cu 0.19735 0.50162 0.19757
 C305 C 0.16293 0.53390 0.20423
 C306 C 0.19818 0.47182 0.16045
 C307 C 0.15825 0.47548 0.20439
 C308 C 0.20399 0.53031 0.16050
 O309 O 0.86487 0.47834 0.16146
 O310 O 0.83485 0.52338 0.13074
 O311 O 0.86631 0.52268 0.16156
 O312 O 0.83295 0.47916 0.13135
 O313 O 0.80679 0.48068 0.15808
 O314 O 0.84037 0.52349 0.18850
 O315 O 0.80866 0.52440 0.15745
 O316 O 0.83896 0.47941 0.18841
 Cu317 Cu 0.85239 0.50081 0.14361
 Cu318 Cu 0.82114 0.50215 0.17585
 C319 C 0.85706 0.47111 0.18013
 C320 C 0.81651 0.53140 0.13868
 C321 C 0.85906 0.53042 0.18029
 C322 C 0.81407 0.47265 0.13952
 O323 O 0.17687 0.51759 0.85401
 O324 O 0.14934 0.46967 0.82536
 O325 O 0.18073 0.47355 0.85610
 O326 O 0.14691 0.51370 0.82202
 O327 O 0.17387 0.51382 0.79607
 O328 O 0.20746 0.47411 0.82990
 O329 O 0.17574 0.47013 0.79885
 O330 O 0.20411 0.51778 0.82834
 Cu331 Cu 0.16078 0.49357 0.84198
 Cu332 Cu 0.19299 0.49396 0.81068
 C333 C 0.19526 0.52575 0.84630
 C334 C 0.15754 0.46192 0.80708
 C335 C 0.20006 0.46726 0.84885
 C336 C 0.15462 0.52043 0.80308
 C337 C 0.30005 0.39159 0.08253
 C338 C 0.27644 0.39039 0.08692
 C339 C 0.26339 0.37474 0.07409
 C340 C 0.27386 0.36037 0.05826
 C341 C 0.29722 0.36193 0.05408
 C342 C 0.31014 0.37771 0.06626
 C343 C 0.23989 0.37379 0.07682
 C344 C 0.22885 0.38866 0.09135
 C345 C 0.24103 0.40471 0.10432
 C346 C 0.26529 0.40466 0.10305
 C347 C 0.27757 0.41869 0.11808
 C348 C 0.26657 0.43314 0.13303
 C349 C 0.24296 0.43471 0.13319
 C350 C 0.22980 0.42072 0.11867
 C351 C 0.20597 0.42393 0.11859
 C352 C 0.19581 0.44030 0.13233
 C353 C 0.20890 0.45372 0.14689
 C354 C 0.23245 0.45060 0.14748
 H355 H 0.31108 0.40360 0.09081
 H356 H 0.26368 0.34846 0.04860
 H357 H 0.32821 0.37933 0.06320
 H358 H 0.22983 0.36172 0.06724
 H359 H 0.21069 0.38679 0.09246
 H360 H 0.29583 0.41851 0.11906
 H361 H 0.27671 0.44360 0.14426
 H362 H 0.19478 0.41467 0.10750
 H363 H 0.17758 0.44255 0.13147
 H364 H 0.24274 0.46124 0.15842
 C365 C 0.70539 0.60478 0.06709
 C366 C 0.72917 0.60722 0.06975
 C367 C 0.74047 0.62326 0.05582
 C368 C 0.72817 0.63680 0.04062
 C369 C 0.70468 0.63401 0.03816
 C370 C 0.69348 0.61785 0.05144
 C371 C 0.76402 0.62543 0.05684
 C372 C 0.77680 0.61143 0.07073
 C373 C 0.76641 0.59504 0.08474
 C374 C 0.74215 0.59383 0.08519
 C375 C 0.73169 0.57946 0.10121
 C376 C 0.74444 0.56588 0.11552
 C377 C 0.76806 0.56555 0.11406
 C378 C 0.77943 0.57992 0.09849
 C379 C 0.80334 0.57798 0.09681
 C380 C 0.81528 0.56244 0.11003
 C381 C 0.80395 0.54864 0.12564
 C382 C 0.78035 0.55052 0.12779
 H383 H 0.69559 0.59240 0.07629
 H384 H 0.73704 0.64901 0.03011
 H385 H 0.67534 0.61528 0.04972
 H386 H 0.77275 0.63780 0.04641
 H387 H 0.79488 0.61423 0.07050
 H388 H 0.71355 0.57870 0.10347
 H389 H 0.73566 0.55512 0.12755
 H390 H 0.81325 0.58759 0.08486
 H391 H 0.83351 0.56115 0.10796
 H392 H 0.77140 0.53958 0.13954
 C393 C 0.69359 0.39843 0.92360
 C394 C 0.71736 0.39601 0.92087
 C395 C 0.72893 0.38136 0.93595
 C396 C 0.71687 0.36887 0.95222
 C397 C 0.69335 0.37141 0.95456
 C398 C 0.68190 0.38644 0.94030
 C399 C 0.75249 0.37942 0.93490
 C400 C 0.76503 0.39231 0.91972
 C401 C 0.75434 0.40721 0.90440
 C402 C 0.73007 0.40808 0.90413
 C403 C 0.71932 0.42070 0.88695
 C404 C 0.73181 0.43293 0.87121
 C405 C 0.75544 0.43366 0.87235
 C406 C 0.76710 0.42107 0.88913
 C407 C 0.79100 0.42353 0.89038
 C408 C 0.80266 0.43786 0.87557
 C409 C 0.79102 0.44981 0.85879
 C410 C 0.76744 0.44738 0.85707
 H411 H 0.68364 0.40997 0.91358
 H412 H 0.72592 0.35758 0.96352
 H413 H 0.66373 0.38882 0.94194
 H414 H 0.76141 0.36810 0.94626
 H415 H 0.78313 0.38977 0.91999
 H416 H 0.70115 0.42100 0.88484
 H417 H 0.72281 0.44234 0.85828
 H418 H 0.80110 0.41531 0.90314
 H419 H 0.82088 0.43969 0.87734
 H420 H 0.75827 0.45699 0.84440
 C421 C 0.29902 0.60485 0.92314
 C422 C 0.27560 0.60684 0.91814
 C423 C 0.26295 0.62332 0.93026
 C424 C 0.27363 0.63760 0.94608
 C425 C 0.29678 0.63523 0.95091
 C426 C 0.30931 0.61871 0.93934
 C427 C 0.23962 0.62524 0.92683
 C428 C 0.22829 0.61052 0.91235
 C429 C 0.24001 0.59356 0.90019
 C430 C 0.26420 0.59257 0.90213
 C431 C 0.27617 0.57748 0.88791
 C432 C 0.26485 0.56298 0.87318
 C433 C 0.24120 0.56245 0.87244
 C434 C 0.22839 0.57759 0.88606
 C435 C 0.20444 0.57549 0.88560
 C436 C 0.19383 0.55897 0.87236
 C437 C 0.20659 0.54428 0.85880
 C438 C 0.23027 0.54639 0.85858
 H439 H 0.30974 0.59226 0.91537
 H440 H 0.26371 0.65012 0.95519
 H441 H 0.32721 0.61646 0.94285
 H442 H 0.22989 0.63798 0.93583
 H443 H 0.21028 0.61319 0.91069
 H444 H 0.29444 0.57677 0.88745
 H445 H 0.27476 0.55164 0.86264
 H446 H 0.19342 0.58572 0.89597
 H447 H 0.17550 0.55754 0.87290
 H448 H 0.24028 0.53478 0.84842
 C449 C 0.07661 0.29269 0.38124
 C450 C 0.07833 0.26874 0.38038
 C451 C 0.06327 0.25689 0.36582
 C452 C 0.04770 0.26874 0.35228
 C453 C 0.04599 0.29239 0.35373
 C454 C 0.06055 0.30421 0.36828
 C455 C 0.06339 0.23324 0.36527
 C456 C 0.07737 0.22097 0.37965
 C457 C 0.09234 0.23195 0.39478
 C458 C 0.09383 0.25617 0.39411
 C459 C 0.11080 0.26699 0.40711
 C460 C 0.12496 0.25472 0.42129
 C461 C 0.12241 0.23131 0.42357
 C462 C 0.10596 0.21956 0.41051
 C463 C 0.10326 0.19600 0.41439
 C464 C 0.11629 0.18477 0.43059
 C465 C 0.13269 0.19646 0.44317
 C466 C 0.13591 0.21968 0.43931
 H467 H 0.08677 0.30298 0.39241
 H468 H 0.03619 0.25946 0.34134
 H469 H 0.05943 0.32249 0.36977
 H470 H 0.05212 0.22407 0.35399
 H471 H 0.07637 0.20277 0.37821
 H472 H 0.11388 0.28499 0.40635
 H473 H 0.13770 0.26377 0.43100
 H474 H 0.09063 0.18591 0.40583
 H475 H 0.11340 0.16683 0.43339
 H476 H 0.14833 0.22894 0.44925
 C477 C 0.08059 0.69467 0.61257
 C478 C 0.08549 0.71812 0.61465
 C479 C 0.07274 0.73082 0.63060
 C480 C 0.05623 0.72022 0.64411
 C481 C 0.05138 0.69709 0.64154
 C482 C 0.06372 0.68445 0.62571
 C483 C 0.07615 0.75413 0.63269
 C484 C 0.09117 0.76543 0.61854
 C485 C 0.10382 0.75371 0.60197
 C486 C 0.10196 0.72952 0.60093
 C487 C 0.11663 0.71759 0.58626
 C488 C 0.13167 0.72894 0.57211
 C489 C 0.13228 0.75258 0.57154
 C490 C 0.11829 0.76535 0.58637
 C491 C 0.11866 0.78928 0.58428
 C492 C 0.13212 0.79990 0.56800
 C493 C 0.14597 0.78718 0.55355
 C494 C 0.14634 0.76353 0.55572
 H495 H 0.08891 0.68389 0.60042
 H496 H 0.04657 0.73023 0.65613
 H497 H 0.06024 0.66655 0.62333
 H498 H 0.06670 0.76387 0.64508
 H499 H 0.09278 0.78344 0.62129
 H500 H 0.11717 0.69933 0.58556
 H501 H 0.14251 0.71906 0.56103
 H502 H 0.10805 0.80027 0.59428
 H503 H 0.13148 0.81821 0.56654
 H504 H 0.15675 0.75356 0.54431
 C505 C 0.92531 0.70551 0.39343
 C506 C 0.92235 0.72932 0.39201
 C507 C 0.93501 0.74117 0.37537
 C508 C 0.94945 0.72946 0.36051
 C509 C 0.95244 0.70598 0.36243
 C510 C 0.94027 0.69415 0.37899
 C511 C 0.93364 0.76473 0.37394
 C512 C 0.92073 0.77701 0.38929
 C513 C 0.90813 0.76609 0.40644
 C514 C 0.90790 0.74182 0.40698
 C515 C 0.89314 0.73089 0.42234
 C516 C 0.87982 0.74321 0.43735
 C517 C 0.88114 0.76682 0.43817
 C518 C 0.89555 0.77863 0.42295
 C519 C 0.89730 0.80248 0.42538
 C520 C 0.88509 0.81398 0.44205
 C521 C 0.87048 0.80227 0.45662
 C522 C 0.86841 0.77869 0.45443
 H523 H 0.91699 0.69527 0.40604
 H524 H 0.95911 0.73883 0.34799
 H525 H 0.94244 0.67600 0.38092
 H526 H 0.94307 0.77387 0.36108
 H527 H 0.92058 0.79513 0.38696
 H528 H 0.89110 0.71273 0.42284
 H529 H 0.86869 0.73408 0.44880
 H530 H 0.90853 0.81268 0.41520
 H531 H 0.88710 0.83220 0.44353
 H532 H 0.85743 0.76944 0.46593
 C533 C 0.93646 0.25211 0.63301
 C534 C 0.92257 0.26179 0.61604
 C535 C 0.92409 0.28556 0.61264
 C536 C 0.94014 0.29859 0.62455
 C537 C 0.95436 0.28851 0.64061
 C538 C 0.95199 0.26532 0.64509
 C539 C 0.90977 0.29620 0.59721
 C540 C 0.89395 0.28379 0.58491
 C541 C 0.89233 0.25998 0.58701
 C542 C 0.90735 0.24873 0.60234
 C543 C 0.90734 0.22477 0.60279
 C544 C 0.89331 0.21220 0.58866
 C545 C 0.87821 0.22291 0.57404
 C546 C 0.87686 0.24693 0.57357
 C547 C 0.86015 0.25682 0.55948
 C548 C 0.84648 0.24344 0.54548
 C549 C 0.84907 0.21985 0.54493
 C550 C 0.86469 0.20967 0.55957
 H551 H 0.93558 0.23444 0.63757
 H552 H 0.94153 0.31665 0.62134
 H553 H 0.96259 0.25719 0.65765
 H554 H 0.91079 0.31438 0.59458
 H555 H 0.88383 0.29332 0.57313
 H556 H 0.91874 0.21511 0.61323
 H557 H 0.89436 0.19385 0.58915
 H558 H 0.85710 0.27483 0.55897
 H559 H 0.83433 0.25168 0.53450
 H560 H 0.86645 0.19135 0.55958
 C561 C 0.37065 0.04967 0.25446
 C562 C 0.38766 0.06446 0.26284
 C563 C 0.39095 0.06530 0.28659
 C564 C 0.37881 0.05069 0.30097
 C565 C 0.36266 0.03557 0.29224
 C566 C 0.35837 0.03557 0.26897
 C567 C 0.40647 0.08055 0.29588
 C568 C 0.41887 0.09512 0.28216
 C569 C 0.41674 0.09453 0.25838
 C570 C 0.40145 0.07840 0.24853
 C571 C 0.40107 0.07616 0.22476
 C572 C 0.41504 0.08924 0.21104
 C573 C 0.42944 0.10556 0.22033
 C574 C 0.43002 0.10896 0.24407
 C575 C 0.44387 0.12674 0.25246
 C576 C 0.45735 0.13971 0.23796
 C577 C 0.45764 0.13537 0.21469
 C578 C 0.44345 0.11841 0.20595
 H579 H 0.36621 0.04876 0.23681
 H580 H 0.38193 0.05112 0.31904
 H581 H 0.34578 0.02421 0.26182
 H582 H 0.40906 0.08129 0.31402
 H583 H 0.43070 0.10611 0.29074
 H584 H 0.39072 0.06377 0.21618
 H585 H 0.41451 0.08657 0.19290
 H586 H 0.44448 0.13128 0.27010
 H587 H 0.46798 0.15291 0.24512
 H588 H 0.44324 0.11524 0.18788
 C589 C 0.63323 0.06211 0.75110
 C590 C 0.61609 0.07612 0.74182
 C591 C 0.61397 0.07666 0.71793
 C592 C 0.62735 0.06250 0.70424
 C593 C 0.64358 0.04809 0.71381
 C594 C 0.64673 0.04843 0.73727
 C595 C 0.59832 0.09113 0.70780
 C596 C 0.58466 0.10520 0.72080
 C597 C 0.58565 0.10491 0.74466
 C598 C 0.60106 0.08955 0.75535
 C599 C 0.60035 0.08755 0.77914
 C600 C 0.58527 0.10020 0.79207
 C601 C 0.57077 0.11586 0.78198
 C602 C 0.57119 0.11893 0.75820
 C603 C 0.55717 0.13606 0.74898
 C604 C 0.54278 0.14885 0.76271
 C605 C 0.54165 0.14496 0.78603
 C606 C 0.55580 0.12849 0.79559
 H607 H 0.63679 0.06149 0.76895
 H608 H 0.62508 0.06266 0.68604
 H609 H 0.65932 0.03760 0.74509
 H610 H 0.59660 0.09161 0.68955
 H611 H 0.57284 0.11557 0.71157
 H612 H 0.61074 0.07568 0.78829
 H613 H 0.58505 0.09776 0.81024
 H614 H 0.55718 0.14033 0.73127
 H615 H 0.53218 0.16165 0.75493
 H616 H 0.55535 0.12568 0.81371
 C617 C 0.39067 0.92789 0.70344
 C618 C 0.38989 0.92748 0.72737
 C619 C 0.37516 0.94303 0.73833
 C620 C 0.36143 0.95781 0.72568
 C621 C 0.36273 0.95815 0.70203
 C622 C 0.37744 0.94308 0.69109
 C623 C 0.37456 0.94411 0.76188
 C624 C 0.38888 0.93074 0.77489
 C625 C 0.40409 0.91522 0.76481
 C626 C 0.40372 0.91272 0.74074
 C627 C 0.41706 0.89547 0.73086
 C628 C 0.43110 0.88184 0.74387
 C629 C 0.43285 0.88512 0.76715
 C630 C 0.41955 0.90197 0.77800
 C631 C 0.42280 0.90525 0.80151
 C632 C 0.43848 0.89229 0.81358
 C633 C 0.45126 0.87544 0.80279
 C634 C 0.44816 0.87181 0.77958
 H635 H 0.40190 0.91726 0.69372
 H636 H 0.35035 0.96968 0.73430
 H637 H 0.37885 0.94312 0.67282
 H638 H 0.36319 0.95580 0.77038
 H639 H 0.38731 0.93267 0.79293
 H640 H 0.41671 0.89173 0.71303
 H641 H 0.44103 0.86882 0.73551
 H642 H 0.41401 0.91815 0.81099
 H643 H 0.44063 0.89553 0.83149
 H644 H 0.45821 0.85903 0.77099
 C645 C 0.60423 0.91930 0.30332
 C646 C 0.60563 0.91855 0.27942
 C647 C 0.62016 0.93441 0.26861
 C648 C 0.63329 0.94969 0.28143
 C649 C 0.63149 0.95028 0.30504
 C650 C 0.61681 0.93503 0.31581
 C651 C 0.62118 0.93526 0.24507
 C652 C 0.60751 0.92127 0.23190
 C653 C 0.59266 0.90528 0.24181
 C654 C 0.59261 0.90311 0.26591
 C655 C 0.57976 0.88541 0.27570
 C656 C 0.56663 0.87096 0.26254
 C657 C 0.56527 0.87384 0.23919
 C658 C 0.57802 0.89119 0.22844
 C659 C 0.57508 0.89403 0.20483
 C660 C 0.56027 0.88011 0.19256
 C661 C 0.54817 0.86270 0.20326
 C662 C 0.55092 0.85958 0.22658
 H663 H 0.59299 0.90852 0.31288
 H664 H 0.64429 0.96176 0.27293
 H665 H 0.61498 0.93529 0.33404
 H666 H 0.63237 0.94723 0.23669
 H667 H 0.60936 0.92304 0.21386
 H668 H 0.57991 0.88191 0.29357
 H669 H 0.55710 0.85758 0.27082
 H670 H 0.58344 0.90728 0.19543
 H671 H 0.55831 0.88299 0.17458
 H672 H 0.54133 0.84640 0.23511
 C673 C 0.36634 0.24908 0.94638
 C674 C 0.38241 0.25858 0.93123
 C675 C 0.38418 0.28257 0.93046
 C676 C 0.37157 0.29617 0.94536
 C677 C 0.35645 0.28642 0.96085
 C678 C 0.35357 0.26283 0.96085
 C679 C 0.39875 0.29293 0.91503
 C680 C 0.41173 0.28006 0.90024
 C681 C 0.41112 0.25611 0.90068
 C682 C 0.39675 0.24518 0.91690
 C683 C 0.39782 0.22132 0.91881
 C684 C 0.41237 0.20856 0.90537
 C685 C 0.42593 0.21889 0.88900
 C686 C 0.42500 0.24274 0.88594
 C687 C 0.43803 0.25220 0.86815
 C688 C 0.45207 0.23868 0.85478
 C689 C 0.45380 0.21532 0.85865
 C690 C 0.44051 0.20548 0.87570
 H691 H 0.36310 0.23111 0.94735
 H692 H 0.37359 0.31446 0.94494
 H693 H 0.34180 0.25490 0.97252
 H694 H 0.40018 0.31126 0.91438
 H695 H 0.42277 0.28949 0.88917
 H696 H 0.38816 0.21199 0.93118
 H697 H 0.41294 0.19033 0.90778
 H698 H 0.43752 0.26994 0.86386
 H699 H 0.46196 0.24669 0.84155
 H700 H 0.44141 0.18733 0.87854
 C701 C 0.60665 0.70612 0.91888
 C702 C 0.60737 0.73014 0.91875
 C703 C 0.62261 0.74101 0.93387
 C704 C 0.63691 0.72818 0.94792
 C705 C 0.63568 0.70445 0.94801
 C706 C 0.62045 0.69359 0.93340
 C707 C 0.62319 0.76462 0.93527
 C708 C 0.60833 0.77778 0.92265
 C709 C 0.59262 0.76781 0.90758
 C710 C 0.59299 0.74369 0.90471
 C711 C 0.57913 0.73397 0.88779
 C712 C 0.56464 0.74716 0.87482
 C713 C 0.56292 0.77046 0.87850
 C714 C 0.57667 0.78114 0.89510
 C715 C 0.57339 0.80465 0.89891
 C716 C 0.55732 0.81690 0.88661
 C717 C 0.54419 0.80630 0.86992
 C718 C 0.54723 0.78309 0.86584
 H719 H 0.59505 0.69647 0.90857
 H720 H 0.64839 0.73674 0.95947
 H721 H 0.61907 0.67525 0.93328
 H722 H 0.63495 0.77304 0.94662
 H723 H 0.60992 0.79587 0.92476
 H724 H 0.57943 0.71614 0.88379
 H725 H 0.55435 0.73893 0.86200
 H726 H 0.58246 0.81396 0.91173
 H727 H 0.55520 0.83480 0.89019
 H728 H 0.53689 0.77465 0.85319
 C729 C 0.36676 0.74894 0.05696
 C730 C 0.38414 0.74008 0.07094
 C731 C 0.38663 0.71617 0.07174
 C732 C 0.37341 0.70206 0.05781
 C733 C 0.35704 0.71122 0.04330
 C734 C 0.35346 0.73469 0.04345
 C735 C 0.40256 0.70641 0.08614
 C736 C 0.41625 0.71983 0.09981
 C737 C 0.41501 0.74375 0.09917
 C738 C 0.39914 0.75405 0.08402
 C739 C 0.39940 0.77791 0.08182
 C740 C 0.41458 0.79127 0.09396
 C741 C 0.42966 0.78154 0.10928
 C742 C 0.42967 0.75771 0.11262
 C743 C 0.44436 0.74888 0.12937
 C744 C 0.45900 0.76302 0.14149
 C745 C 0.45969 0.78638 0.13730
 C746 C 0.44483 0.79556 0.12125
 H747 H 0.36291 0.76678 0.05615
 H748 H 0.37602 0.68385 0.05812
 H749 H 0.34075 0.74219 0.03255
 H750 H 0.40451 0.68814 0.08684
 H751 H 0.42831 0.71086 0.11012
 H752 H 0.38857 0.78681 0.07016
 H753 H 0.41445 0.80947 0.09134
 H754 H 0.44476 0.73117 0.13381
 H755 H 0.47012 0.75552 0.15398
 H756 H 0.44493 0.81370 0.11822
 C757 C 0.59828 0.30176 0.07803
 C758 C 0.60036 0.27789 0.07979
 C759 C 0.61557 0.26685 0.06479
 C760 C 0.62871 0.27945 0.04943
 C761 C 0.62633 0.30304 0.04791
 C762 C 0.61094 0.31401 0.06224
 C763 C 0.61734 0.24326 0.06494
 C764 C 0.60379 0.23022 0.07912
 C765 C 0.58831 0.24036 0.09430
 C766 C 0.58745 0.26460 0.09545
 C767 C 0.57396 0.27474 0.11240
 C768 C 0.56101 0.26174 0.12712
 C769 C 0.56047 0.23817 0.12520
 C770 C 0.57385 0.22708 0.10860
 C771 C 0.57170 0.20320 0.10665
 C772 C 0.55706 0.19101 0.12075
 C773 C 0.54435 0.20207 0.13744
 C774 C 0.54630 0.22565 0.13967
 H775 H 0.58649 0.31143 0.08808
 H776 H 0.64029 0.27077 0.03809
 H777 H 0.60866 0.33222 0.06125
 H778 H 0.62905 0.23472 0.05364
 H779 H 0.60626 0.21214 0.07818
 H780 H 0.57347 0.29281 0.11513
 H781 H 0.55097 0.27029 0.13992
 H782 H 0.58055 0.19350 0.09397
 H783 H 0.55570 0.17280 0.11856
 H784 H 0.53620 0.23442 0.15228
 C785 C 0.29656 0.07804 0.60079
 C786 C 0.27288 0.08143 0.60320
 C787 C 0.26136 0.06866 0.62000
 C788 C 0.27332 0.05370 0.63411
 C789 C 0.29668 0.05035 0.63121
 C790 C 0.30813 0.06264 0.61446
 C791 C 0.23788 0.07050 0.62233
 C792 C 0.22534 0.08395 0.60770
 C793 C 0.23594 0.09666 0.59042
 C794 C 0.26018 0.09640 0.58901
 C795 C 0.27091 0.11118 0.57354
 C796 C 0.25840 0.12481 0.55906
 C797 C 0.23475 0.12388 0.55897
 C798 C 0.22312 0.10969 0.57452
 C799 C 0.19915 0.10855 0.57294
 C800 C 0.18741 0.12087 0.55657
 C801 C 0.19901 0.13501 0.54146
 C802 C 0.22268 0.13671 0.54300
 H803 H 0.30652 0.08639 0.58798
 H804 H 0.26426 0.04398 0.64681
 H805 H 0.32617 0.06027 0.61182
 H806 H 0.22900 0.06100 0.63531
 H807 H 0.20730 0.08438 0.61066
 H808 H 0.28909 0.11294 0.57248
 H809 H 0.26738 0.13582 0.54741
 H810 H 0.18901 0.09766 0.58353
 H811 H 0.16911 0.11918 0.55563
 H812 H 0.23183 0.14736 0.53113
 C813 C 0.69351 0.07217 0.40564
 C814 C 0.71558 0.07985 0.40008
 C815 C 0.72686 0.06912 0.38179
 C816 C 0.71582 0.05234 0.36891
 C817 C 0.69385 0.04491 0.37460
 C818 C 0.68301 0.05492 0.39327
 C819 C 0.74924 0.07497 0.37664
 C820 C 0.76102 0.09060 0.38979
 C821 C 0.75054 0.10170 0.40820
 C822 C 0.72705 0.09728 0.41250
 C823 C 0.71574 0.11063 0.42881
 C824 C 0.72723 0.12694 0.44135
 C825 C 0.75056 0.13005 0.43874
 C826 C 0.76266 0.11727 0.42235
 C827 C 0.78655 0.11998 0.42145
 C828 C 0.79779 0.13466 0.43628
 C829 C 0.78562 0.14753 0.45203
 C830 C 0.76196 0.14547 0.45290
 H831 H 0.68418 0.07861 0.41995
 H832 H 0.72471 0.04460 0.35481
 H833 H 0.66616 0.04955 0.39837
 H834 H 0.75794 0.06699 0.36257
 H835 H 0.77824 0.09415 0.38471
 H836 H 0.69774 0.10929 0.43185
 H837 H 0.71784 0.13681 0.45367
 H838 H 0.79714 0.11027 0.41016
 H839 H 0.81613 0.13583 0.43555
 H840 H 0.75253 0.15503 0.46546
 C841 C 0.70804 0.92849 0.61032
 C842 C 0.73172 0.92508 0.61263
 C843 C 0.74338 0.93821 0.62907
 C844 C 0.73152 0.95343 0.64303
 C845 C 0.70813 0.95668 0.64036
 C846 C 0.69656 0.94416 0.62386
 C847 C 0.76687 0.93643 0.63126
 C848 C 0.77929 0.92256 0.61688
 C849 C 0.76857 0.90937 0.60002
 C850 C 0.74431 0.90966 0.59875
 C851 C 0.73347 0.89439 0.58381
 C852 C 0.74588 0.88011 0.56981
 C853 C 0.76954 0.88089 0.56962
 C854 C 0.78127 0.89572 0.58451
 C855 C 0.80523 0.89682 0.58270
 C856 C 0.81688 0.88372 0.56682
 C857 C 0.80520 0.86882 0.55251
 C858 C 0.78153 0.86725 0.55421
 H859 H 0.69800 0.91989 0.59771
 H860 H 0.74069 0.96335 0.65552
 H861 H 0.67849 0.94650 0.62136
 H862 H 0.77584 0.94624 0.64396
 H863 H 0.79734 0.92215 0.61974
 H864 H 0.71527 0.89271 0.58290
 H865 H 0.73681 0.86866 0.55863
 H866 H 0.81542 0.90823 0.59271
 H867 H 0.83517 0.88534 0.56568
 H868 H 0.77234 0.85604 0.54288
 C869 C 0.30375 0.91623 0.39928
 C870 C 0.28067 0.91034 0.39587
 C871 C 0.26861 0.92202 0.37873
 C872 C 0.27955 0.93824 0.36519
 C873 C 0.30238 0.94384 0.36881
 C874 C 0.31431 0.93278 0.38602
 C875 C 0.24560 0.91768 0.37530
 C876 C 0.23393 0.90268 0.38915
 C877 C 0.24502 0.89094 0.40675
 C878 C 0.26900 0.89383 0.40930
 C879 C 0.28050 0.88002 0.42504
 C880 C 0.26883 0.86480 0.43871
 C881 C 0.24523 0.86319 0.43774
 C882 C 0.23292 0.87635 0.42186
 C883 C 0.20892 0.87507 0.42244
 C884 C 0.19776 0.86158 0.43831
 C885 C 0.21004 0.84855 0.45378
 C886 C 0.23379 0.84901 0.45310
 H887 H 0.31396 0.90883 0.41245
 H888 H 0.27006 0.94692 0.35210
 H889 H 0.33195 0.93688 0.38925
 H890 H 0.23637 0.92633 0.36202
 H891 H 0.21622 0.90027 0.38530
 H892 H 0.29869 0.88027 0.42693
 H893 H 0.27836 0.85461 0.45063
 H894 H 0.19821 0.88505 0.41158
 H895 H 0.17937 0.86158 0.43870
 H896 H 0.24336 0.83927 0.46537
 C897 C 0.08093 0.38738 0.70011
 C898 C 0.08530 0.38474 0.72352
 C899 C 0.07218 0.36849 0.73549
 C900 C 0.05589 0.35520 0.72424
 C901 C 0.05164 0.35824 0.70113
 C902 C 0.06430 0.37443 0.68923
 C903 C 0.07508 0.36584 0.75872
 C904 C 0.08999 0.37964 0.77064
 C905 C 0.10307 0.39643 0.75964
 C906 C 0.10164 0.39813 0.73555
 C907 C 0.11662 0.41310 0.72434
 C908 C 0.13159 0.42686 0.73628
 C909 C 0.13186 0.42673 0.75986
 C910 C 0.11754 0.41161 0.77193
 C911 C 0.11763 0.41297 0.79584
 C912 C 0.13107 0.42889 0.80710
 C913 C 0.14520 0.44369 0.79507
 C914 C 0.14591 0.44218 0.77145
 H915 H 0.08954 0.39980 0.68985
 H916 H 0.04600 0.34291 0.73369
 H917 H 0.06129 0.37720 0.67138
 H918 H 0.06533 0.35324 0.76791
 H919 H 0.09119 0.37643 0.78852
 H920 H 0.11745 0.41434 0.70618
 H921 H 0.14267 0.43818 0.72694
 H922 H 0.10680 0.40268 0.80635
 H923 H 0.13015 0.42985 0.82538
 H924 H 0.15652 0.45387 0.76200
 C925 C 0.06344 0.63846 0.25189
 C926 C 0.07837 0.62220 0.26131
 C927 C 0.07802 0.61933 0.28511
 C928 C 0.06217 0.63103 0.29850
 C929 C 0.04690 0.64632 0.28872
 C930 C 0.04806 0.65031 0.26543
 C931 C 0.09329 0.60459 0.29544
 C932 C 0.10886 0.59238 0.28269
 C933 C 0.10933 0.59390 0.25887
 C934 C 0.09345 0.60865 0.24797
 C935 C 0.09252 0.60864 0.22411
 C936 C 0.10631 0.59450 0.21132
 C937 C 0.12206 0.58030 0.22166
 C938 C 0.12445 0.58038 0.24552
 C939 C 0.14173 0.56666 0.25497
 C940 C 0.15486 0.55237 0.24141
 C941 C 0.15121 0.55120 0.21805
 C942 C 0.13513 0.56562 0.20824
 H943 H 0.06331 0.64259 0.23415
 H944 H 0.06172 0.62822 0.31662
 H945 H 0.03663 0.66228 0.25750
 H946 H 0.09318 0.60241 0.31364
 H947 H 0.11974 0.58113 0.29204
 H948 H 0.08056 0.61870 0.21472
 H949 H 0.10449 0.59459 0.19307
 H950 H 0.14557 0.56657 0.27278
 H951 H 0.16740 0.54160 0.24937
 H952 H 0.13253 0.56516 0.19009
 C953 C 0.92035 0.38758 0.28908
 C954 C 0.91895 0.38697 0.26518
 C955 C 0.93323 0.37150 0.25353
 C956 C 0.94787 0.35706 0.26550
 C957 C 0.94944 0.35840 0.28908
 C958 C 0.93550 0.37366 0.30072
 C959 C 0.93333 0.37097 0.22996
 C960 C 0.92042 0.38621 0.21758
 C961 C 0.90636 0.40233 0.22835
 C962 C 0.90459 0.40179 0.25247
 C963 C 0.88853 0.41605 0.26305
 C964 C 0.87551 0.43119 0.25066
 C965 C 0.87833 0.43318 0.22734
 C966 C 0.89392 0.41893 0.21582
 C967 C 0.89695 0.42243 0.19233
 C968 C 0.88492 0.43926 0.18090
 C969 C 0.86928 0.45298 0.19232
 C970 C 0.86589 0.44966 0.21553
 H971 H 0.91069 0.39926 0.29926
 H972 H 0.95890 0.34554 0.25634
 H973 H 0.93650 0.37508 0.31896
 H974 H 0.94397 0.35899 0.22095
 H975 H 0.92152 0.38467 0.19946
 H976 H 0.88527 0.41562 0.28097
 H977 H 0.86342 0.44183 0.25953
 H978 H 0.90901 0.41298 0.18240
 H979 H 0.88793 0.44154 0.16297
 H980 H 0.85404 0.46042 0.22458
 C981 C 0.93397 0.63364 0.74740
 C982 C 0.92095 0.61556 0.73832
 C983 C 0.92269 0.61134 0.71477
 C984 C 0.93821 0.62354 0.70145
 C985 C 0.95183 0.64052 0.71101
 C986 C 0.94910 0.64588 0.73391
 C987 C 0.90926 0.59469 0.70467
 C988 C 0.89427 0.58180 0.71745
 C989 C 0.89259 0.58459 0.74111
 C990 C 0.90654 0.60141 0.75179
 C991 C 0.90638 0.60283 0.77563
 C992 C 0.89332 0.58819 0.78863
 C993 C 0.87938 0.57199 0.77847
 C994 C 0.87816 0.57046 0.75457
 C995 C 0.86263 0.55464 0.74520
 C996 C 0.85001 0.54014 0.75901
 C997 C 0.85246 0.54080 0.78254
 C998 C 0.86689 0.55705 0.79217
 H999 H 0.93283 0.63884 0.76483
 H1000 H 0.93987 0.61961 0.68360
 H1001 H 0.95921 0.65916 0.74163
 H1002 H 0.91043 0.59148 0.68665
 H1003 H 0.88488 0.56905 0.70831
 H1004 H 0.91694 0.61451 0.78490
 H1005 H 0.89424 0.58951 0.80690
 H1006 H 0.85972 0.55310 0.72729
 H1007 H 0.83871 0.52792 0.75117
 H1008 H 0.86850 0.55801 0.81042
 C1009 C 0.74225 0.63458 0.92615
 C1010 C 0.73450 0.61440 0.91571
 C1011 C 0.71168 0.60779 0.91959
 C1012 C 0.69803 0.61983 0.93494
 C1013 C 0.70634 0.63920 0.94610
 C1014 C 0.72836 0.64678 0.94093
 C1015 C 0.70265 0.58903 0.90834
 C1016 C 0.71579 0.57653 0.89334
 C1017 C 0.73889 0.58181 0.88963
 C1018 C 0.74859 0.60057 0.90162
 C1019 C 0.77224 0.60425 0.89998
 C1020 C 0.78597 0.59004 0.88720
 C1021 C 0.77666 0.57214 0.87487
 C1022 C 0.75288 0.56829 0.87515
 C1023 C 0.74415 0.55096 0.86098
 C1024 C 0.75863 0.53717 0.84830
 C1025 C 0.78218 0.54004 0.84946
 C1026 C 0.79108 0.55779 0.86249
 H1027 H 0.75887 0.64159 0.92303
 H1028 H 0.68085 0.61399 0.93817
 H1029 H 0.73526 0.66192 0.94877
 H1030 H 0.68518 0.58393 0.91115
 H1031 H 0.70758 0.56210 0.88566
 H1032 H 0.78087 0.61741 0.90930
 H1033 H 0.80413 0.59311 0.88699
 H1034 H 0.72623 0.54775 0.85916
 H1035 H 0.75136 0.52371 0.83809
 H1036 H 0.80931 0.56040 0.86304
 C1037 C 0.25209 0.36150 0.94458
 C1038 C 0.26039 0.38079 0.93297
 C1039 C 0.28371 0.38621 0.93544
 C1040 C 0.29752 0.37386 0.95032
 C1041 C 0.28885 0.35525 0.96241
 C1042 C 0.26612 0.34891 0.95886
 C1043 C 0.29318 0.40406 0.92318
 C1044 C 0.28008 0.41660 0.90827
 C1045 C 0.25665 0.41228 0.90561
 C1046 C 0.24644 0.39476 0.91891
 C1047 C 0.22259 0.39234 0.91835
 C1048 C 0.20917 0.40640 0.90508
 C1049 C 0.21899 0.42280 0.89117
 C1050 C 0.24293 0.42547 0.89067
 C1051 C 0.25217 0.44111 0.87501
 C1052 C 0.23814 0.45420 0.86127
 C1053 C 0.21450 0.45240 0.86279
 C1054 C 0.20499 0.43660 0.87772
 H1055 H 0.23491 0.35545 0.94268
 H1056 H 0.31516 0.37878 0.95234
 H1057 H 0.25888 0.33443 0.96756
 H1058 H 0.31101 0.40832 0.92502
 H1059 H 0.28868 0.43027 0.89973
 H1060 H 0.21365 0.38026 0.92874
 H1061 H 0.19089 0.40425 0.90556
 H1062 H 0.27017 0.44330 0.87261
 H1063 H 0.24588 0.46613 0.84965
 H1064 H 0.18668 0.43480 0.87860
 C1065 C 0.25377 0.63545 0.06264
 C1066 C 0.26242 0.61642 0.07434
 C1067 C 0.28564 0.61097 0.07117
 C1068 C 0.29897 0.62306 0.05557
 C1069 C 0.28994 0.64145 0.04347
 C1070 C 0.26734 0.64777 0.04765
 C1071 C 0.29545 0.59340 0.08351
 C1072 C 0.28280 0.58115 0.09912
 C1073 C 0.25946 0.58546 0.10245
 C1074 C 0.24890 0.60275 0.08917
 C1075 C 0.22509 0.60522 0.09051
 C1076 C 0.21205 0.59141 0.10444
 C1077 C 0.22221 0.57517 0.11821
 C1078 C 0.24613 0.57247 0.11801
 C1079 C 0.25571 0.55691 0.13351
 C1080 C 0.24198 0.54382 0.14767
 C1081 C 0.21831 0.54558 0.14674
 C1082 C 0.20852 0.56145 0.13212
 H1083 H 0.23669 0.64152 0.06500
 H1084 H 0.31654 0.61817 0.05305
 H1085 H 0.25982 0.66209 0.03897
 H1086 H 0.31320 0.58914 0.08117
 H1087 H 0.29164 0.56770 0.10770
 H1088 H 0.21586 0.61713 0.08023
 H1089 H 0.19377 0.59358 0.10451
 H1090 H 0.27377 0.55469 0.13537
 H1091 H 0.24995 0.53184 0.15903
 H1092 H 0.19020 0.56323 0.13165
 C1093 C 0.69770 0.40375 0.07178
 C1094 C 0.72079 0.39881 0.07604
 C1095 C 0.73044 0.37983 0.06490
 C1096 C 0.71708 0.36588 0.05092
 C1097 C 0.69429 0.37130 0.04644
 C1098 C 0.68485 0.39041 0.05707
 C1099 C 0.75354 0.37521 0.06726
 C1100 C 0.76755 0.38964 0.07958
 C1101 C 0.75875 0.40884 0.09084
 C1102 C 0.73478 0.41258 0.09027
 C1103 C 0.72557 0.42979 0.10411
 C1104 C 0.73940 0.44364 0.11719
 C1105 C 0.76295 0.44145 0.11640
 C1106 C 0.77305 0.42429 0.10293
 C1107 C 0.79706 0.42381 0.10155
 C1108 C 0.81033 0.43955 0.11334
 C1109 C 0.80017 0.45590 0.12719
 C1110 C 0.77648 0.45663 0.12879
 H1111 H 0.68932 0.41841 0.07875
 H1112 H 0.72486 0.35142 0.04263
 H1113 H 0.66739 0.39524 0.05397
 H1114 H 0.76103 0.36061 0.05895
 H1115 H 0.78521 0.38496 0.08050
 H1116 H 0.70755 0.43254 0.10571
 H1117 H 0.73158 0.45657 0.12765
 H1118 H 0.80606 0.41200 0.09091
 H1119 H 0.82864 0.43886 0.11171
 H1120 H 0.76851 0.46958 0.13914
 C1121 C 0.93343 0.70319 0.60538
 C1122 C 0.92862 0.72641 0.60912
 C1123 C 0.93966 0.73735 0.62743
 C1124 C 0.95392 0.72510 0.64200
 C1125 C 0.95860 0.70206 0.63805
 C1126 C 0.94828 0.69138 0.61945
 C1127 C 0.93672 0.76058 0.63091
 C1128 C 0.92370 0.77341 0.61613
 C1129 C 0.91237 0.76330 0.59764
 C1130 C 0.91378 0.73923 0.59491
 C1131 C 0.90003 0.72875 0.57836
 C1132 C 0.88608 0.74142 0.56432
 C1133 C 0.88584 0.76503 0.56564
 C1134 C 0.89931 0.77640 0.58201
 C1135 C 0.89964 0.80043 0.58160
 C1136 C 0.88684 0.81250 0.56583
 C1137 C 0.87298 0.80113 0.55030
 C1138 C 0.87242 0.77739 0.55041
 H1139 H 0.92661 0.69385 0.59125
 H1140 H 0.96198 0.73384 0.65602
 H1141 H 0.95159 0.67369 0.61568
 H1142 H 0.94497 0.76905 0.64498
 H1143 H 0.92228 0.79122 0.62003
 H1144 H 0.89915 0.71060 0.57629
 H1145 H 0.87568 0.73262 0.55197
 H1146 H 0.91019 0.81037 0.59274
 H1147 H 0.88769 0.83087 0.56587
 H1148 H 0.86207 0.76849 0.53807
 C1149 C 0.93363 0.25348 0.36173
 C1150 C 0.92318 0.26224 0.38142
 C1151 C 0.92720 0.28532 0.38690
 C1152 C 0.94257 0.29836 0.37418
 C1153 C 0.95335 0.28925 0.35501
 C1154 C 0.94822 0.26683 0.34869
 C1155 C 0.91587 0.29530 0.40507
 C1156 C 0.90033 0.28298 0.41779
 C1157 C 0.89622 0.25977 0.41341
 C1158 C 0.90869 0.24898 0.39567
 C1159 C 0.90693 0.22519 0.39330
 C1160 C 0.89328 0.21240 0.40764
 C1161 C 0.88009 0.22286 0.42423
 C1162 C 0.88071 0.24679 0.42679
 C1163 C 0.86561 0.25674 0.44255
 C1164 C 0.85144 0.24334 0.45596
 C1165 C 0.85208 0.21967 0.45440
 C1166 C 0.86632 0.20949 0.43838
 H1167 H 0.93044 0.23653 0.35564
 H1168 H 0.94581 0.31582 0.37907
 H1169 H 0.95586 0.25927 0.33382
 H1170 H 0.91886 0.31294 0.40938
 H1171 H 0.89250 0.29190 0.43166
 H1172 H 0.91675 0.21579 0.38110
 H1173 H 0.89290 0.19413 0.40557
 H1174 H 0.86403 0.27484 0.44461
 H1175 H 0.84035 0.25155 0.46808
 H1176 H 0.86649 0.19116 0.43680
 C1177 C 0.06353 0.24906 0.63259
 C1178 C 0.07286 0.25625 0.61172
 C1179 C 0.06950 0.27916 0.60533
 C1180 C 0.05567 0.29350 0.61834
 C1181 C 0.04563 0.28584 0.63850
 C1182 C 0.05034 0.26367 0.64577
 C1183 C 0.07975 0.28764 0.58583
 C1184 C 0.09341 0.27391 0.57249
 C1185 C 0.09668 0.25078 0.57768
 C1186 C 0.08545 0.24158 0.59707
 C1187 C 0.08637 0.21791 0.60063
 C1188 C 0.09798 0.20372 0.58584
 C1189 C 0.10990 0.21259 0.56747
 C1190 C 0.11012 0.23633 0.56359
 C1191 C 0.12394 0.24465 0.54584
 C1192 C 0.13610 0.22987 0.53196
 C1193 C 0.13467 0.20639 0.53504
 C1194 C 0.12163 0.19782 0.55290
 H1195 H 0.06640 0.23234 0.63935
 H1196 H 0.05280 0.31075 0.61266
 H1197 H 0.04328 0.25725 0.66144
 H1198 H 0.07725 0.30515 0.58085
 H1199 H 0.10039 0.28172 0.55755
 H1200 H 0.07741 0.20968 0.61424
 H1201 H 0.09776 0.18559 0.58893
 H1202 H 0.12611 0.26250 0.54254
 H1203 H 0.14635 0.23685 0.51841
 H1204 H 0.12092 0.17964 0.55566
 C1205 C 0.06210 0.74728 0.36676
 C1206 C 0.07298 0.73816 0.38603
 C1207 C 0.06983 0.71476 0.39056
 C1208 C 0.05496 0.70168 0.37735
 C1209 C 0.04356 0.71115 0.35877
 C1210 C 0.04781 0.73395 0.35333
 C1211 C 0.08139 0.70450 0.40835
 C1212 C 0.09625 0.71689 0.42175
 C1213 C 0.09954 0.74037 0.41836
 C1214 C 0.08696 0.75137 0.40085
 C1215 C 0.08812 0.77525 0.39927
 C1216 C 0.10128 0.78795 0.41414
 C1217 C 0.11448 0.77736 0.43058
 C1218 C 0.11440 0.75337 0.43245
 C1219 C 0.12940 0.74338 0.44825
 C1220 C 0.14308 0.75675 0.46218
 C1221 C 0.14209 0.78043 0.46110
 C1222 C 0.12782 0.79066 0.44519
 H1223 H 0.06457 0.76458 0.36138
 H1224 H 0.05240 0.68395 0.38158
 H1225 H 0.03966 0.74180 0.33891
 H1226 H 0.07903 0.68661 0.41192
 H1227 H 0.10423 0.70771 0.43532
 H1228 H 0.07826 0.78475 0.38723
 H1229 H 0.10126 0.80627 0.41260
 H1230 H 0.13135 0.72529 0.44991
 H1231 H 0.15422 0.74848 0.47418
 H1232 H 0.12740 0.80902 0.44394
 C1233 C 0.60931 0.92873 0.70761
 C1234 C 0.61037 0.92647 0.73143
 C1235 C 0.62648 0.93993 0.74322
 C1236 C 0.64126 0.95443 0.73143
 C1237 C 0.63968 0.95669 0.70792
 C1238 C 0.62361 0.94375 0.69616
 C1239 C 0.62742 0.93928 0.76676
 C1240 C 0.61207 0.92630 0.77903
 C1241 C 0.59547 0.91288 0.76813
 C1242 C 0.59549 0.91194 0.74395
 C1243 C 0.58078 0.89641 0.73314
 C1244 C 0.56579 0.88303 0.74543
 C1245 C 0.56438 0.88500 0.76888
 C1246 C 0.57897 0.90015 0.78059
 C1247 C 0.57595 0.90243 0.80425
 C1248 C 0.55933 0.88999 0.81566
 C1249 C 0.54539 0.87467 0.80403
 C1250 C 0.54815 0.87211 0.78065
 H1251 H 0.59706 0.91981 0.69739
 H1252 H 0.65340 0.96472 0.74070
 H1253 H 0.62197 0.94536 0.67799
 H1254 H 0.63986 0.94934 0.77586
 H1255 H 0.61397 0.92676 0.79714
 H1256 H 0.58079 0.89381 0.71511
 H1257 H 0.55485 0.87131 0.73639
 H1258 H 0.58564 0.91420 0.81434
 H1259 H 0.55741 0.89237 0.83373
 H1260 H 0.53717 0.86055 0.77145
 C1261 C 0.39738 0.91532 0.29969
 C1262 C 0.39444 0.91128 0.27626
 C1263 C 0.37744 0.92385 0.26483
 C1264 C 0.36367 0.93925 0.27666
 C1265 C 0.36711 0.94326 0.29974
 C1266 C 0.38403 0.93116 0.31111
 C1267 C 0.37460 0.92139 0.24156
 C1268 C 0.38898 0.90756 0.22909
 C1269 C 0.40650 0.89510 0.23958
 C1270 C 0.40833 0.89590 0.26368
 C1271 C 0.42392 0.88126 0.27438
 C1272 C 0.43819 0.86730 0.26191
 C1273 C 0.43796 0.86780 0.23835
 C1274 C 0.42224 0.88181 0.22679
 C1275 C 0.42355 0.88261 0.20290
 C1276 C 0.43985 0.87014 0.19116
 C1277 C 0.45512 0.85617 0.20270
 C1278 C 0.45382 0.85476 0.22629
 H1279 H 0.41039 0.90715 0.30952
 H1280 H 0.35082 0.94881 0.26766
 H1281 H 0.38707 0.93405 0.32895
 H1282 H 0.36144 0.93071 0.23277
 H1283 H 0.38565 0.90664 0.21121
 H1284 H 0.42521 0.87987 0.29249
 H1285 H 0.44996 0.85640 0.27085
 H1286 H 0.41284 0.89339 0.19281
 H1287 H 0.44062 0.87157 0.17291
 H1288 H 0.46584 0.84424 0.23536
 C1289 C 0.60103 0.07364 0.30602
 C1290 C 0.60453 0.07715 0.28259
 C1291 C 0.62074 0.06328 0.27148
 C1292 C 0.63345 0.04731 0.28367
 C1293 C 0.62968 0.04406 0.30682
 C1294 C 0.61331 0.05726 0.31782
 C1295 C 0.62396 0.06514 0.24821
 C1296 C 0.61076 0.07980 0.23544
 C1297 C 0.59417 0.09373 0.24563
 C1298 C 0.59200 0.09337 0.26972
 C1299 C 0.57753 0.10936 0.28013
 C1300 C 0.56462 0.12430 0.26740
 C1301 C 0.56507 0.12349 0.24385
 C1302 C 0.57970 0.10809 0.23256
 C1303 C 0.57854 0.10707 0.20866
 C1304 C 0.56331 0.12058 0.19666
 C1305 C 0.54912 0.13586 0.20795
 C1306 C 0.55041 0.13758 0.23152
 H1307 H 0.58841 0.08275 0.31559
 H1308 H 0.64585 0.03689 0.27495
 H1309 H 0.61000 0.05495 0.33569
 H1310 H 0.63651 0.05478 0.23966
 H1311 H 0.61432 0.08020 0.21758
 H1312 H 0.57616 0.11106 0.29822
 H1313 H 0.55368 0.13622 0.27612
 H1314 H 0.58843 0.09532 0.19878
 H1315 H 0.56244 0.11886 0.17844
 H1316 H 0.53913 0.14908 0.24039
 C1317 C 0.39559 0.07992 0.69608
 C1318 C 0.39199 0.08534 0.71915
 C1319 C 0.37484 0.07321 0.73090
 C1320 C 0.36151 0.05698 0.71969
 C1321 C 0.36537 0.05179 0.69690
 C1322 C 0.38255 0.06332 0.68525
 C1323 C 0.37124 0.07707 0.75387
 C1324 C 0.38494 0.09202 0.76581
 C1325 C 0.40255 0.10418 0.75504
 C1326 C 0.40523 0.10181 0.73111
 C1327 C 0.42093 0.11608 0.71997
 C1328 C 0.43443 0.13127 0.73192
 C1329 C 0.43335 0.13238 0.75545
 C1330 C 0.41754 0.11871 0.76741
 C1331 C 0.41805 0.11947 0.79133
 C1332 C 0.43373 0.13303 0.80275
 C1333 C 0.44907 0.14663 0.79081
 C1334 C 0.44850 0.14660 0.76715
 H1335 H 0.40878 0.08769 0.68609
 H1336 H 0.34845 0.04791 0.72896
 H1337 H 0.38595 0.05953 0.66764
 H1338 H 0.35794 0.06807 0.76286
 H1339 H 0.38097 0.09405 0.78348
 H1340 H 0.42288 0.11622 0.70185
 H1341 H 0.44629 0.14184 0.72266
 H1342 H 0.40727 0.10904 0.80177
 H1343 H 0.43402 0.13268 0.82106
 H1344 H 0.46068 0.15679 0.75784
 C1345 C 0.60706 0.69865 0.07020
 C1346 C 0.60979 0.72216 0.07445
 C1347 C 0.62579 0.73419 0.06110
 C1348 C 0.63894 0.72285 0.04486
 C1349 C 0.63592 0.69962 0.04083
 C1350 C 0.61982 0.68768 0.05356
 C1351 C 0.62837 0.75756 0.06375
 C1352 C 0.61473 0.76953 0.07871
 C1353 C 0.59829 0.75844 0.09212
 C1354 C 0.59673 0.73424 0.09093
 C1355 C 0.58234 0.72295 0.10637
 C1356 C 0.56900 0.73492 0.12163
 C1357 C 0.56894 0.75858 0.12169
 C1358 C 0.58341 0.77073 0.10679
 C1359 C 0.58171 0.79469 0.10659
 C1360 C 0.56622 0.80594 0.12047
 C1361 C 0.55225 0.79382 0.13531
 C1362 C 0.55399 0.77016 0.13615
 H1363 H 0.59470 0.68839 0.07893
 H1364 H 0.65112 0.73232 0.03483
 H1365 H 0.61707 0.66973 0.05066
 H1366 H 0.64077 0.76680 0.05379
 H1367 H 0.61786 0.78752 0.07974
 H1368 H 0.58134 0.70472 0.10739
 H1369 H 0.55817 0.72553 0.13313
 H1370 H 0.59141 0.80521 0.09524
 H1371 H 0.56501 0.82425 0.11943
 H1372 H 0.54287 0.76066 0.14732
 C1373 C 0.39387 0.29476 0.08053
 C1374 C 0.39106 0.27137 0.08528
 C1375 C 0.37399 0.25940 0.07324
 C1376 C 0.35992 0.27070 0.05778
 C1377 C 0.36309 0.29379 0.05321
 C1378 C 0.38019 0.30566 0.06465
 C1379 C 0.37127 0.23611 0.07637
 C1380 C 0.38576 0.22416 0.09048
 C1381 C 0.40325 0.23520 0.10257
 C1382 C 0.40506 0.25936 0.10095
 C1383 C 0.42066 0.27068 0.11517
 C1384 C 0.43488 0.25876 0.12959
 C1385 C 0.43460 0.23511 0.12998
 C1386 C 0.41894 0.22293 0.11634
 C1387 C 0.42024 0.19894 0.11643
 C1388 C 0.43644 0.18769 0.12943
 C1389 C 0.45159 0.19985 0.14307
 C1390 C 0.45033 0.22356 0.14356
 H1391 H 0.40696 0.30496 0.08822
 H1392 H 0.34694 0.26130 0.04872
 H1393 H 0.38305 0.32351 0.06131
 H1394 H 0.35808 0.22691 0.06743
 H1395 H 0.38248 0.20623 0.09196
 H1396 H 0.42198 0.28890 0.11589
 H1397 H 0.44662 0.26818 0.14016
 H1398 H 0.40960 0.18838 0.10597
 H1399 H 0.43722 0.16934 0.12868
 H1400 H 0.46230 0.23310 0.15378
 C1401 C 0.59785 0.30627 0.92371
 C1402 C 0.60137 0.28297 0.91904
 C1403 C 0.61746 0.27119 0.93243
 C1404 C 0.62997 0.28262 0.94916
 C1405 C 0.62616 0.30566 0.95356
 C1406 C 0.60997 0.31730 0.94075
 C1407 C 0.62077 0.24799 0.92931
 C1408 C 0.60774 0.23591 0.91387
 C1409 C 0.59119 0.24675 0.90044
 C1410 C 0.58895 0.27085 0.90210
 C1411 C 0.57448 0.28203 0.88672
 C1412 C 0.56155 0.26997 0.87118
 C1413 C 0.56204 0.24634 0.87072
 C1414 C 0.57679 0.23432 0.88539
 C1415 C 0.57578 0.21032 0.88504
 C1416 C 0.56051 0.19891 0.87102
 C1417 C 0.54608 0.21092 0.85659
 C1418 C 0.54730 0.23462 0.85613
 H1419 H 0.58536 0.31631 0.91499
 H1420 H 0.64226 0.27340 0.95920
 H1421 H 0.60664 0.33510 0.94389
 H1422 H 0.63325 0.23894 0.93928
 H1423 H 0.61136 0.21805 0.91253
 H1424 H 0.57306 0.30023 0.88599
 H1425 H 0.55055 0.27927 0.85980
 H1426 H 0.58582 0.19986 0.89608
 H1427 H 0.55976 0.18055 0.87172
 H1428 H 0.53588 0.24403 0.84525
 C1429 C 0.39295 0.70668 0.92510
 C1430 C 0.39032 0.73039 0.92223
 C1431 C 0.37332 0.74141 0.93519
 C1432 C 0.35916 0.72894 0.94969
 C1433 C 0.36217 0.70555 0.95245
 C1434 C 0.37921 0.69457 0.94012
 C1435 C 0.37079 0.76488 0.93397
 C1436 C 0.38537 0.77791 0.92086
 C1437 C 0.40276 0.76783 0.90787
 C1438 C 0.40441 0.74361 0.90755
 C1439 C 0.41991 0.73345 0.89241
 C1440 C 0.43404 0.74647 0.87880
 C1441 C 0.43382 0.77009 0.88019
 C1442 C 0.41842 0.78115 0.89497
 C1443 C 0.41985 0.80508 0.89676
 C1444 C 0.43578 0.81736 0.88425
 C1445 C 0.45051 0.80634 0.86930
 C1446 C 0.44927 0.78271 0.86716
 H1447 H 0.40598 0.69710 0.91660
 H1448 H 0.34627 0.73764 0.95951
 H1449 H 0.38197 0.67652 0.94213
 H1450 H 0.35766 0.77337 0.94365
 H1451 H 0.38221 0.79591 0.92084
 H1452 H 0.42116 0.71533 0.89029
 H1453 H 0.44563 0.73792 0.86738
 H1454 H 0.40948 0.81477 0.90824
 H1455 H 0.43657 0.83562 0.88632
 H1456 H 0.46095 0.77402 0.85592
 C1457 C 0.70078 0.92297 0.40379
 C1458 C 0.72469 0.92165 0.40156
 C1459 C 0.73529 0.93615 0.38559
 C1460 C 0.72228 0.95071 0.37204
 C1461 C 0.69867 0.95193 0.37465
 C1462 C 0.68809 0.93799 0.39065
 C1463 C 0.75886 0.93639 0.38348
 C1464 C 0.77233 0.92318 0.39747
 C1465 C 0.76268 0.90866 0.41385
 C1466 C 0.73846 0.90697 0.41506
 C1467 C 0.72885 0.89054 0.42956
 C1468 C 0.74234 0.87691 0.44315
 C1469 C 0.76587 0.87948 0.44332
 C1470 C 0.77642 0.89557 0.42890
 C1471 C 0.80026 0.89833 0.43066
 C1472 C 0.81293 0.88551 0.44593
 C1473 C 0.80243 0.86932 0.45973
 C1474 C 0.77889 0.86625 0.45817
 H1475 H 0.69141 0.91320 0.41604
 H1476 H 0.73066 0.96173 0.35995
 H1477 H 0.66988 0.93874 0.39311
 H1478 H 0.76705 0.94728 0.37114
 H1479 H 0.79037 0.92436 0.39468
 H1480 H 0.71084 0.88742 0.43045
 H1481 H 0.73419 0.86450 0.45398
 H1482 H 0.80956 0.91074 0.42101
 H1483 H 0.83109 0.88832 0.44695
 H1484 H 0.77056 0.85401 0.46908
 C1485 C 0.25359 0.94259 0.62902
 C1486 C 0.26253 0.92763 0.61253
 C1487 C 0.28642 0.92738 0.60944
 C1488 C 0.30038 0.94266 0.62126
 C1489 C 0.29110 0.95787 0.63693
 C1490 C 0.26769 0.95736 0.64102
 C1491 C 0.29626 0.91200 0.59446
 C1492 C 0.28296 0.89669 0.58247
 C1493 C 0.25906 0.89663 0.58447
 C1494 C 0.24864 0.91292 0.59911
 C1495 C 0.22472 0.91452 0.59924
 C1496 C 0.21140 0.90061 0.58568
 C1497 C 0.22126 0.88406 0.57200
 C1498 C 0.24518 0.88134 0.57169
 C1499 C 0.25418 0.86333 0.55863
 C1500 C 0.24008 0.84944 0.54565
 C1501 C 0.21661 0.85306 0.54508
 C1502 C 0.20727 0.87029 0.55848
 H1503 H 0.23581 0.94310 0.63330
 H1504 H 0.31857 0.94265 0.61833
 H1505 H 0.26013 0.96878 0.65324
 H1506 H 0.31450 0.91173 0.59201
 H1507 H 0.29193 0.88564 0.57105
 H1508 H 0.21572 0.92703 0.60904
 H1509 H 0.19312 0.90278 0.58600
 H1510 H 0.27201 0.85929 0.55831
 H1511 H 0.24768 0.83605 0.53563
 H1512 H 0.18905 0.87290 0.55847
 C1513 C 0.29683 0.06952 0.39019
 C1514 C 0.27279 0.06995 0.38986
 C1515 C 0.26145 0.05358 0.37634
 C1516 C 0.27385 0.03808 0.36316
 C1517 C 0.29762 0.03784 0.36390
 C1518 C 0.30893 0.05362 0.37755
 C1519 C 0.23780 0.05246 0.37639
 C1520 C 0.22507 0.06669 0.39017
 C1521 C 0.23553 0.08317 0.40406
 C1522 C 0.25970 0.08559 0.40299
 C1523 C 0.26994 0.10370 0.41487
 C1524 C 0.25721 0.11834 0.42816
 C1525 C 0.23388 0.11526 0.43060
 C1526 C 0.22266 0.09751 0.41882
 C1527 C 0.19910 0.09457 0.42281
 C1528 C 0.18733 0.10881 0.43765
 C1529 C 0.19849 0.12658 0.44879
 C1530 C 0.22176 0.12976 0.44504
 H1531 H 0.30683 0.08071 0.40063
 H1532 H 0.26496 0.02562 0.35294
 H1533 H 0.32730 0.05364 0.37853
 H1534 H 0.22901 0.04010 0.36596
 H1535 H 0.20691 0.06469 0.38918
 H1536 H 0.28783 0.10739 0.41383
 H1537 H 0.26584 0.13203 0.43693
 H1538 H 0.18938 0.08105 0.41523
 H1539 H 0.16937 0.10588 0.44038
 H1540 H 0.23066 0.14326 0.45385
 C1541 C 0.74967 0.06466 0.63436
 C1542 C 0.73980 0.07891 0.61780
 C1543 C 0.71579 0.07889 0.61595
 C1544 C 0.70257 0.06401 0.62903
 C1545 C 0.71272 0.04936 0.64464
 C1546 C 0.73628 0.05022 0.64756
 C1547 C 0.70506 0.09348 0.60087
 C1548 C 0.71758 0.10817 0.58742
 C1549 C 0.74155 0.10844 0.58807
 C1550 C 0.75287 0.09308 0.60301
 C1551 C 0.77679 0.09180 0.60207
 C1552 C 0.78926 0.10503 0.58709
 C1553 C 0.77854 0.12054 0.57292
 C1554 C 0.75459 0.12299 0.57367
 C1555 C 0.74473 0.13997 0.55993
 C1556 C 0.75797 0.15309 0.54537
 C1557 C 0.78145 0.14974 0.54386
 C1558 C 0.79167 0.13356 0.55786
 H1559 H 0.76764 0.06437 0.63769
 H1560 H 0.68427 0.06378 0.62696
 H1561 H 0.74452 0.03923 0.65970
 H1562 H 0.68671 0.09354 0.59940
 H1563 H 0.70790 0.11857 0.57601
 H1564 H 0.78643 0.08008 0.61218
 H1565 H 0.80756 0.10309 0.58665
 H1566 H 0.72685 0.14379 0.56020
 H1567 H 0.74968 0.16566 0.53492
 H1568 H 0.80990 0.13116 0.55712
 C1569 C 0.92583 0.60932 0.29111
 C1570 C 0.92437 0.61048 0.26724
 C1571 C 0.93853 0.62634 0.25595
 C1572 C 0.95280 0.64092 0.26829
 C1573 C 0.95416 0.63932 0.29187
 C1574 C 0.94064 0.62338 0.30312
 C1575 C 0.93874 0.62724 0.23240
 C1576 C 0.92584 0.61217 0.21966
 C1577 C 0.91160 0.59596 0.23006
 C1578 C 0.90991 0.59597 0.25420
 C1579 C 0.89365 0.58169 0.26449
 C1580 C 0.88017 0.56718 0.25174
 C1581 C 0.88276 0.56581 0.22835
 C1582 C 0.89872 0.57991 0.21714
 C1583 C 0.90150 0.57691 0.19352
 C1584 C 0.88871 0.56084 0.18166
 C1585 C 0.87253 0.54748 0.19280
 C1586 C 0.86958 0.55017 0.21615
 H1587 H 0.91641 0.59717 0.30098
 H1588 H 0.96359 0.65293 0.25945
 H1589 H 0.94158 0.62171 0.32134
 H1590 H 0.94938 0.63945 0.22366
 H1591 H 0.92699 0.61402 0.20157
 H1592 H 0.89048 0.58176 0.28243
 H1593 H 0.86784 0.55660 0.26038
 H1594 H 0.91387 0.58623 0.18382
 H1595 H 0.89143 0.55894 0.16364
 H1596 H 0.85736 0.53961 0.22498
 C1597 C 0.92604 0.38849 0.70000
 C1598 C 0.92339 0.38828 0.72380
 C1599 C 0.93833 0.37444 0.73653
 C1600 C 0.95441 0.36063 0.72563
 C1601 C 0.95667 0.36103 0.70205
 C1602 C 0.94250 0.37520 0.68942
 C1603 C 0.93734 0.37464 0.76009
 C1604 C 0.92233 0.38884 0.77141
 C1605 C 0.90714 0.40297 0.75953
 C1606 C 0.90686 0.40175 0.73536
 C1607 C 0.88986 0.41375 0.72358
 C1608 C 0.87430 0.42729 0.73490
 C1609 C 0.87538 0.42994 0.75829
 C1610 C 0.89198 0.41808 0.77098
 C1611 C 0.89309 0.42238 0.79453
 C1612 C 0.87826 0.43768 0.80489
 C1613 C 0.86163 0.44891 0.79228
 C1614 C 0.86013 0.44475 0.76902
 H1615 H 0.91613 0.39924 0.68911
 H1616 H 0.96561 0.34999 0.73556
 H1617 H 0.94404 0.37593 0.67118
 H1618 H 0.94859 0.36398 0.76993
 H1619 H 0.92265 0.38792 0.78960
 H1620 H 0.88775 0.41258 0.70553
 H1621 H 0.86151 0.43614 0.72513
 H1622 H 0.90569 0.41479 0.80531
 H1623 H 0.87987 0.44076 0.82288
 H1624 H 0.84756 0.45371 0.75906
 C1625 C 0.05802 0.62616 0.75205
 C1626 C 0.07144 0.60831 0.74318
 C1627 C 0.07142 0.60510 0.71941
 C1628 C 0.05737 0.61824 0.70548
 C1629 C 0.04369 0.63533 0.71464
 C1630 C 0.04449 0.63947 0.73794
 C1631 C 0.08532 0.58870 0.70961
 C1632 C 0.09950 0.57546 0.72283
 C1633 C 0.09987 0.57764 0.74661
 C1634 C 0.08493 0.59367 0.75701
 C1635 C 0.08343 0.59402 0.78085
 C1636 C 0.09628 0.57943 0.79409
 C1637 C 0.11169 0.56446 0.78422
 C1638 C 0.11419 0.56379 0.76037
 C1639 C 0.13114 0.54943 0.75130
 C1640 C 0.14433 0.53574 0.76528
 C1641 C 0.14100 0.53567 0.78871
 C1642 C 0.12467 0.55013 0.79811
 H1643 H 0.05786 0.63050 0.76975
 H1644 H 0.05716 0.61523 0.68738
 H1645 H 0.03422 0.65276 0.74539
 H1646 H 0.08532 0.58613 0.69145
 H1647 H 0.10942 0.56300 0.71389
 H1648 H 0.07181 0.60489 0.78982
 H1649 H 0.09425 0.58003 0.81230
 H1650 H 0.13501 0.54870 0.73350
 H1651 H 0.15701 0.52487 0.75763
 H1652 H 0.12233 0.55050 0.81630
 C1653 C 0.05664 0.37110 0.24879
 C1654 C 0.07092 0.38763 0.25885
 C1655 C 0.07093 0.38924 0.28278
 C1656 C 0.05607 0.37589 0.29580
 C1657 C 0.04162 0.36008 0.28545
 C1658 C 0.04237 0.35754 0.26193
 C1659 C 0.08572 0.40420 0.29363
 C1660 C 0.10074 0.41751 0.28129
 C1661 C 0.10107 0.41693 0.25742
 C1662 C 0.08527 0.40243 0.24601
 C1663 C 0.08381 0.40373 0.22221
 C1664 C 0.09749 0.41845 0.20993
 C1665 C 0.11367 0.43193 0.22071
 C1666 C 0.11617 0.43092 0.24454
 C1667 C 0.13386 0.44387 0.25444
 C1668 C 0.14771 0.45787 0.24129
 C1669 C 0.14433 0.45965 0.21794
 C1670 C 0.12735 0.44651 0.20773
 H1671 H 0.05638 0.36793 0.23085
 H1672 H 0.05591 0.37763 0.31405
 H1673 H 0.03152 0.34527 0.25356
 H1674 H 0.08579 0.40554 0.31191
 H1675 H 0.11138 0.42876 0.29101
 H1676 H 0.07160 0.39414 0.21256
 H1677 H 0.09546 0.41916 0.19172
 H1678 H 0.13770 0.44328 0.27224
 H1679 H 0.16089 0.46769 0.24954
 H1680 H 0.12492 0.44746 0.18958
   
