data_POSCAR
  _audit_creation_date              2014-09-24
  _audit_creation_method            'ToBaCCo'
  _symmetry_space_group_name_H-M    'P1'
  _symmetry_Int_Tables_number       1
  _symmetry_cell_setting            triclinic
  loop_
  _symmetry_equiv_pos_as_xyz
 x,y,z
_cell_length_a 67.8012
_cell_length_b 67.8759
_cell_length_c 68.0377
_cell_angle_alpha 89.979200
_cell_angle_beta 89.978600
_cell_angle_gamma 89.925200
loop_
  _atom_site_label
  _atom_site_type_symbol
  _atom_site_fract_x
  _atom_site_fract_y
  _atom_site_fract_z
N1 N 0.36817 0.31340 0.32753
 N2 N 0.36796 0.32721 0.31395
 C3 C 0.38331 0.32439 0.30167
 C4 C 0.39359 0.30807 0.30805
 C5 C 0.38367 0.30138 0.32441
 H6 H 0.38687 0.33354 0.28914
 H7 H 0.38750 0.28881 0.33340
 Cu8 Cu 0.34765 0.34747 0.31390
 Cu9 Cu 0.34855 0.31218 0.34842
 Cu10 Cu 0.31229 0.34837 0.34839
 N11 N 0.32735 0.36774 0.31390
 N12 N 0.31351 0.36797 0.32747
 C13 C 0.30148 0.38344 0.32431
 C14 C 0.30817 0.39334 0.30793
 C15 C 0.32453 0.38307 0.30160
 H16 H 0.28888 0.38727 0.33329
 H17 H 0.33370 0.38660 0.28907
 N18 N 0.31359 0.32726 0.36828
 N19 N 0.32739 0.31348 0.36829
 C20 C 0.32440 0.30138 0.38372
 C21 C 0.30804 0.30794 0.39379
 C22 C 0.30148 0.32427 0.38371
 H23 H 0.33346 0.28881 0.38745
 H24 H 0.28887 0.33331 0.38742
 H25 H 0.32621 0.32603 0.33313
 H26 H 0.34208 0.34191 0.34892
 N27 N 0.36875 0.81353 -0.17279
 N28 N 0.36854 0.82734 -0.18638
 C29 C 0.38390 0.82452 -0.19866
 C30 C 0.39414 0.80817 -0.19228
 C31 C 0.38423 0.80148 -0.17592
 H32 H 0.38743 0.83366 -0.21121
 H33 H 0.38803 0.78889 -0.16692
 Cu34 Cu 0.34820 0.84765 -0.18638
 Cu35 Cu 0.34912 0.81227 -0.15190
 Cu36 Cu 0.31282 0.84845 -0.15198
 N37 N 0.32782 0.86794 -0.18646
 N38 N 0.31397 0.86812 -0.17290
 C39 C 0.30186 0.88355 -0.17608
 C40 C 0.30853 0.89347 -0.19247
 C41 C 0.32497 0.88326 -0.19878
 H42 H 0.28923 0.88731 -0.16711
 H43 H 0.33413 0.88679 -0.21132
 N44 N 0.31413 0.82731 -0.13205
 N45 N 0.32795 0.81356 -0.13203
 C46 C 0.32499 0.80147 -0.11658
 C47 C 0.30862 0.80800 -0.10651
 C48 C 0.30203 0.82432 -0.11660
 H49 H 0.33408 0.78891 -0.11285
 H50 H 0.28942 0.83334 -0.11288
 H51 H 0.32684 0.82604 -0.16723
 H52 H 0.34265 0.84190 -0.15140
 N53 N 0.86787 0.31418 -0.17264
 N54 N 0.86765 0.32797 -0.18623
 C55 C 0.88304 0.32519 -0.19848
 C56 C 0.89332 0.30886 -0.19210
 C57 C 0.88337 0.30216 -0.17575
 H58 H 0.88662 0.33435 -0.21099
 H59 H 0.88718 0.28958 -0.16677
 Cu60 Cu 0.84735 0.34825 -0.18632
 Cu61 Cu 0.84823 0.31295 -0.15177
 Cu62 Cu 0.81203 0.34921 -0.15174
 N63 N 0.82710 0.36859 -0.18621
 N64 N 0.81330 0.36885 -0.17261
 C65 C 0.80132 0.38438 -0.17571
 C66 C 0.80807 0.39429 -0.19205
 C67 C 0.82438 0.38398 -0.19846
 H68 H 0.78873 0.38822 -0.16671
 H69 H 0.83357 0.38752 -0.21097
 N70 N 0.81329 0.32803 -0.13189
 N71 N 0.82707 0.31424 -0.13191
 C72 C 0.82409 0.30213 -0.11649
 C73 C 0.80775 0.30869 -0.10640
 C74 C 0.80119 0.32504 -0.11645
 H75 H 0.83314 0.28954 -0.11278
 H76 H 0.78861 0.33410 -0.11270
 H77 H 0.82586 0.32685 -0.16700
 H78 H 0.84180 0.34271 -0.15128
 N79 N 0.86793 0.81401 0.32739
 N80 N 0.86772 0.82782 0.31381
 C81 C 0.88306 0.82498 0.30151
 C82 C 0.89331 0.80863 0.30787
 C83 C 0.88340 0.80196 0.32424
 H84 H 0.88659 0.83410 0.28896
 H85 H 0.88721 0.78937 0.33322
 Cu86 Cu 0.84743 0.84810 0.31381
 Cu87 Cu 0.84831 0.81279 0.34829
 Cu88 Cu 0.81205 0.84899 0.34827
 N89 N 0.82711 0.86836 0.31376
 N90 N 0.81327 0.86859 0.32734
 C91 C 0.80120 0.88403 0.32416
 C92 C 0.80790 0.89389 0.30777
 C93 C 0.82429 0.88367 0.30144
 H94 H 0.78858 0.88784 0.33314
 H95 H 0.83345 0.88717 0.28890
 N96 N 0.81337 0.82787 0.36818
 N97 N 0.82717 0.81410 0.36818
 C98 C 0.82422 0.80202 0.38363
 C99 C 0.80787 0.80857 0.39371
 C100 C 0.80128 0.82490 0.38363
 H101 H 0.83329 0.78945 0.38735
 H102 H 0.78869 0.83394 0.38736
 H103 H 0.82595 0.82665 0.33298
 H104 H 0.84180 0.84251 0.34879
 N105 N 0.63189 0.68656 0.32765
 N106 N 0.63211 0.67278 0.31406
 C107 C 0.61676 0.67559 0.30180
 C108 C 0.60649 0.69192 0.30818
 C109 C 0.61640 0.69859 0.32453
 H110 H 0.61320 0.66644 0.28929
 H111 H 0.61255 0.71115 0.33353
 Cu112 Cu 0.65226 0.65236 0.31406
 Cu113 Cu 0.65147 0.68775 0.34854
 Cu114 Cu 0.68770 0.65160 0.34852
 N115 N 0.67273 0.63226 0.31403
 N116 N 0.68654 0.63203 0.32761
 C117 C 0.69860 0.61658 0.32447
 C118 C 0.69192 0.60669 0.30810
 C119 C 0.67556 0.61693 0.30175
 H120 H 0.71118 0.61274 0.33346
 H121 H 0.66639 0.61338 0.28925
 N122 N 0.68638 0.67269 0.36841
 N123 N 0.67258 0.68646 0.36841
 C124 C 0.67554 0.69855 0.38383
 C125 C 0.69189 0.69200 0.39390
 C126 C 0.69848 0.67567 0.38383
 H127 H 0.66648 0.71113 0.38755
 H128 H 0.71108 0.66664 0.38755
 H129 H 0.67373 0.67384 0.33314
 H130 H 0.65788 0.65799 0.34902
 N131 N 0.63183 0.18619 -0.17246
 N132 N 0.63209 0.17241 -0.18607
 C133 C 0.61665 0.17516 -0.19826
 C134 C 0.60635 0.19146 -0.19187
 C135 C 0.61630 0.19817 -0.17555
 H136 H 0.61309 0.16600 -0.21077
 H137 H 0.61247 0.21075 -0.16656
 Cu138 Cu 0.65240 0.15211 -0.18611
 Cu139 Cu 0.65146 0.18747 -0.15161
 Cu140 Cu 0.68776 0.15130 -0.15167
 N141 N 0.67277 0.13185 -0.18615
 N142 N 0.68658 0.13161 -0.17256
 C143 C 0.69863 0.11613 -0.17570
 C144 C 0.69192 0.10621 -0.19206
 C145 C 0.67554 0.11646 -0.19840
 H146 H 0.71125 0.11234 -0.16672
 H147 H 0.66634 0.11293 -0.21090
 N148 N 0.68646 0.17246 -0.13180
 N149 N 0.67264 0.18622 -0.13179
 C150 C 0.67560 0.19833 -0.11638
 C151 C 0.69197 0.19182 -0.10631
 C152 C 0.69857 0.17549 -0.11637
 H153 H 0.66651 0.21089 -0.11265
 H154 H 0.71118 0.16647 -0.11264
 H155 H 0.67377 0.17371 -0.16691
 H156 H 0.65791 0.15780 -0.15114
 N157 N 0.13185 0.68642 -0.17242
 N158 N 0.13203 0.67259 -0.18597
 C159 C 0.11670 0.67542 -0.19825
 C160 C 0.10649 0.69180 -0.19193
 C161 C 0.11640 0.69849 -0.17558
 H162 H 0.11315 0.66629 -0.21078
 H163 H 0.11261 0.71110 -0.16663
 Cu164 Cu 0.15228 0.65229 -0.18596
 Cu165 Cu 0.15147 0.68765 -0.15154
 Cu166 Cu 0.18765 0.65138 -0.15154
 N167 N 0.17254 0.63199 -0.18597
 N168 N 0.18638 0.63177 -0.17241
 C169 C 0.19841 0.61629 -0.17557
 C170 C 0.19168 0.60640 -0.19192
 C171 C 0.17532 0.61666 -0.19825
 H172 H 0.21102 0.61247 -0.16662
 H173 H 0.16616 0.61315 -0.21077
 N174 N 0.18639 0.67252 -0.13169
 N175 N 0.17262 0.68632 -0.13170
 C176 C 0.17562 0.69841 -0.11628
 C177 C 0.19195 0.69182 -0.10621
 C178 C 0.19850 0.67548 -0.11627
 H179 H 0.16658 0.71100 -0.11256
 H180 H 0.21108 0.66641 -0.11254
 H181 H 0.17378 0.67374 -0.16686
 H182 H 0.15790 0.65792 -0.15101
 N183 N 0.13178 0.18642 0.32753
 N184 N 0.13205 0.17266 0.31391
 C185 C 0.11665 0.17542 0.30168
 C186 C 0.10635 0.19171 0.30808
 C187 C 0.11626 0.19840 0.32444
 H188 H 0.11310 0.16627 0.28917
 H189 H 0.11240 0.21096 0.33344
 Cu190 Cu 0.15232 0.15237 0.31389
 Cu191 Cu 0.15138 0.18763 0.34842
 Cu192 Cu 0.18764 0.15145 0.34838
 N193 N 0.17265 0.13214 0.31385
 N194 N 0.18643 0.13188 0.32746
 C195 C 0.19845 0.11638 0.32433
 C196 C 0.19175 0.10650 0.30796
 C197 C 0.17542 0.11679 0.30160
 H198 H 0.21103 0.11253 0.33332
 H199 H 0.16624 0.11325 0.28910
 N200 N 0.18633 0.17255 0.36826
 N201 N 0.17253 0.18633 0.36827
 C202 C 0.17549 0.19840 0.38371
 C203 C 0.19183 0.19183 0.39377
 C204 C 0.19842 0.17552 0.38369
 H205 H 0.16641 0.21096 0.38745
 H206 H 0.21101 0.16647 0.38742
 H207 H 0.17374 0.17380 0.33313
 H208 H 0.15784 0.15789 0.34886
 N209 N 0.63174 0.31357 0.67250
 N210 N 0.63194 0.32737 0.68608
 C211 C 0.61659 0.32456 0.69837
 C212 C 0.60635 0.30823 0.69202
 C213 C 0.61628 0.30154 0.67565
 H214 H 0.61305 0.33369 0.71091
 H215 H 0.61249 0.28896 0.66668
 Cu216 Cu 0.65224 0.34763 0.68608
 Cu217 Cu 0.65138 0.31231 0.65162
 Cu218 Cu 0.68761 0.34844 0.65163
 N219 N 0.67255 0.36788 0.68610
 N220 N 0.68638 0.36807 0.67252
 C221 C 0.69844 0.38350 0.67569
 C222 C 0.69175 0.39342 0.69206
 C223 C 0.67537 0.38320 0.69839
 H224 H 0.71105 0.38728 0.66672
 H225 H 0.66622 0.38673 0.71093
 N226 N 0.68632 0.32732 0.63174
 N227 N 0.67253 0.31357 0.63174
 C228 C 0.67551 0.30149 0.61631
 C229 C 0.69185 0.30801 0.60623
 C230 C 0.69842 0.32432 0.61630
 H231 H 0.66645 0.28893 0.61259
 H232 H 0.71101 0.33335 0.61256
 H233 H 0.67372 0.32611 0.66693
 H234 H 0.65785 0.34200 0.65111
 N235 N 0.63190 0.81389 1.17270
 N236 N 0.63210 0.82769 1.18626
 C237 C 0.61676 0.82490 1.19856
 C238 C 0.60652 0.80857 1.19222
 C239 C 0.61644 0.80187 1.17586
 H240 H 0.61324 0.83403 1.21111
 H241 H 0.61264 0.78928 1.16689
 Cu242 Cu 0.65239 0.84790 1.18626
 Cu243 Cu 0.65155 0.81263 1.15181
 Cu244 Cu 0.68780 0.84873 1.15180
 N245 N 0.67268 0.86809 1.18626
 N246 N 0.68652 0.86828 1.17270
 C247 C 0.69858 0.88368 1.17586
 C248 C 0.69187 0.89357 1.19222
 C249 C 0.67550 0.88339 1.19856
 H250 H 0.71120 0.88747 1.16690
 H251 H 0.66635 0.88694 1.21110
 N252 N 0.68649 0.82764 1.13194
 N253 N 0.67270 0.81389 1.13194
 C254 C 0.67568 0.80182 1.11650
 C255 C 0.69203 0.80836 1.10643
 C256 C 0.69860 0.82466 1.11651
 H257 H 0.66662 0.78927 1.11276
 H258 H 0.71119 0.83368 1.11279
 H259 H 0.67396 0.82648 1.16712
 H260 H 0.65810 0.84238 1.15130
 N261 N 0.13186 0.31397 1.17258
 N262 N 0.13205 0.32780 1.18613
 C263 C 0.11671 0.32501 1.19842
 C264 C 0.10648 0.30866 1.19211
 C265 C 0.11641 0.30194 1.17576
 H266 H 0.11316 0.33416 1.21095
 H267 H 0.11263 0.28933 1.16681
 Cu268 Cu 0.15232 0.34803 1.18608
 Cu269 Cu 0.15152 0.31270 1.15170
 Cu270 Cu 0.18773 0.34883 1.15163
 N271 N 0.17259 0.36825 1.18606
 N272 N 0.18643 0.36843 1.17250
 C273 C 0.19847 0.38386 1.17564
 C274 C 0.19174 0.39377 1.19197
 C275 C 0.17538 0.38357 1.19833
 H276 H 0.21108 0.38765 1.16667
 H277 H 0.16623 0.38713 1.21086
 N278 N 0.18645 0.32770 1.13181
 N279 N 0.17267 0.31394 1.13183
 C280 C 0.17567 0.30184 1.11642
 C281 C 0.19201 0.30836 1.10634
 C282 C 0.19856 0.32469 1.11638
 H283 H 0.16662 0.28927 1.11271
 H284 H 0.21114 0.33372 1.11264
 H285 H 0.17391 0.32660 1.16699
 H286 H 0.15804 0.34246 1.15113
 N287 N 0.13192 0.81396 0.67246
 N288 N 0.13216 0.82773 0.68608
 C289 C 0.11677 0.82500 0.69831
 C290 C 0.10647 0.80872 0.69192
 C291 C 0.11640 0.80200 0.67557
 H292 H 0.11321 0.83417 0.71082
 H293 H 0.11258 0.78943 0.66659
 Cu294 Cu 0.15245 0.84794 0.68606
 Cu295 Cu 0.15156 0.81272 0.65156
 Cu296 Cu 0.18779 0.84884 0.65153
 N297 N 0.17271 0.86815 0.68604
 N298 N 0.18650 0.86839 0.67242
 C299 C 0.19848 0.88388 0.67550
 C300 C 0.19174 0.89378 0.69184
 C301 C 0.17544 0.88353 0.69825
 H302 H 0.21106 0.88769 0.66652
 H303 H 0.16626 0.88710 0.71076
 N304 N 0.18651 0.82772 0.63170
 N305 N 0.17272 0.81397 0.63170
 C306 C 0.17571 0.80189 0.61627
 C307 C 0.19206 0.80843 0.60620
 C308 C 0.19862 0.82474 0.61627
 H309 H 0.16666 0.78933 0.61253
 H310 H 0.21119 0.83378 0.61253
 H311 H 0.17399 0.82658 0.66681
 H312 H 0.15807 0.84251 0.65108
 N313 N 0.36816 0.68643 0.67253
 N314 N 0.36796 0.67261 0.68609
 C315 C 0.38329 0.67543 0.69840
 C316 C 0.39352 0.69179 0.69207
 C317 C 0.38360 0.69848 0.67570
 H318 H 0.38682 0.66629 0.71093
 H319 H 0.38739 0.71109 0.66674
 Cu320 Cu 0.34770 0.65232 0.68606
 Cu321 Cu 0.34854 0.68768 0.65162
 Cu322 Cu 0.31237 0.65148 0.65157
 N323 N 0.32742 0.63204 0.68604
 N324 N 0.31361 0.63184 0.67246
 C325 C 0.30158 0.61638 0.67560
 C326 C 0.30826 0.60645 0.69196
 C327 C 0.32461 0.61669 0.69832
 H328 H 0.28899 0.61259 0.66661
 H329 H 0.33375 0.61316 0.71086
 N330 N 0.31365 0.67263 0.63171
 N331 N 0.32742 0.68640 0.63173
 C332 C 0.32443 0.69851 0.61630
 C333 C 0.30811 0.69196 0.60620
 C334 C 0.30156 0.67562 0.61626
 H335 H 0.33347 0.71108 0.61258
 H336 H 0.28900 0.66658 0.61252
 H337 H 0.32619 0.67380 0.66690
 H338 H 0.34211 0.65796 0.65109
 N339 N 0.36825 0.18598 1.17254
 N340 N 0.36806 0.17214 1.18609
 C341 C 0.38340 0.17492 1.19839
 C342 C 0.39365 0.19126 1.19205
 C343 C 0.38372 0.19798 1.17570
 H344 H 0.38694 0.16576 1.21092
 H345 H 0.38752 0.21058 1.16673
 Cu346 Cu 0.34777 0.15194 1.18614
 Cu347 Cu 0.34859 0.18723 1.15167
 Cu348 Cu 0.31238 0.15110 1.15165
 N349 N 0.32752 0.13171 1.18607
 N350 N 0.31368 0.13153 1.17252
 C351 C 0.30166 0.11608 1.17565
 C352 C 0.30838 0.10617 1.19198
 C353 C 0.32472 0.11638 1.19835
 H354 H 0.28906 0.11229 1.16668
 H355 H 0.33388 0.11280 1.21087
 N356 N 0.31366 0.17223 1.13181
 N357 N 0.32744 0.18599 1.13181
 C358 C 0.32443 0.19809 1.11639
 C359 C 0.30808 0.19155 1.10634
 C360 C 0.30154 0.17522 1.11640
 H361 H 0.33347 0.21066 1.11266
 H362 H 0.28896 0.16619 1.11269
 H363 H 0.32618 0.17332 1.16697
 H364 H 0.34207 0.15745 1.15114
 N365 N 0.86806 0.68612 1.17262
 N366 N 0.86784 0.67234 1.18622
 C367 C 0.88324 0.67507 1.19845
 C368 C 0.89350 0.69139 1.19208
 C369 C 0.88356 0.69810 1.17573
 H370 H 0.88680 0.66589 1.21095
 H371 H 0.88737 0.71069 1.16675
 Cu372 Cu 0.84762 0.65205 1.18629
 Cu373 Cu 0.84841 0.68735 1.15177
 Cu374 Cu 0.81223 0.65121 1.15174
 N375 N 0.82732 0.63186 1.18619
 N376 N 0.81353 0.63163 1.17259
 C377 C 0.80155 0.61613 1.17569
 C378 C 0.80830 0.60621 1.19201
 C379 C 0.82459 0.61647 1.19840
 H380 H 0.78897 0.61231 1.16670
 H381 H 0.83378 0.61289 1.21090
 N382 N 0.81349 0.67234 1.13191
 N383 N 0.82726 0.68611 1.13192
 C384 C 0.82426 0.69821 1.11650
 C385 C 0.80792 0.69167 1.10644
 C386 C 0.80138 0.67533 1.11650
 H387 H 0.83329 0.71078 1.11277
 H388 H 0.78881 0.66629 1.11277
 H389 H 0.82603 0.67341 1.16706
 H390 H 0.84196 0.65753 1.15130
 N391 N 0.86799 0.18606 0.67248
 N392 N 0.86776 0.17228 0.68610
 C393 C 0.88314 0.17503 0.69834
 C394 C 0.89341 0.19134 0.69196
 C395 C 0.88349 0.19804 0.67560
 H396 H 0.88670 0.16586 0.71086
 H397 H 0.88730 0.21061 0.66662
 Cu398 Cu 0.84753 0.15202 0.68613
 Cu399 Cu 0.84836 0.18727 0.65160
 Cu400 Cu 0.81219 0.15110 0.65157
 N401 N 0.82727 0.13180 0.68607
 N402 N 0.81349 0.13155 0.67245
 C403 C 0.80153 0.11605 0.67555
 C404 C 0.80827 0.10615 0.69188
 C405 C 0.82455 0.11642 0.69829
 H406 H 0.78896 0.11221 0.66656
 H407 H 0.83372 0.11285 0.71080
 N408 N 0.81345 0.17222 0.63174
 N409 N 0.82722 0.18599 0.63174
 C410 C 0.82421 0.19808 0.61630
 C411 C 0.80789 0.19151 0.60623
 C412 C 0.80135 0.17519 0.61631
 H413 H 0.83325 0.21065 0.61256
 H414 H 0.78879 0.16613 0.61258
 H415 H 0.82594 0.17335 0.66686
 H416 H 0.84189 0.15745 0.65113
 N417 N 0.31353 0.36819 0.67237
 N418 N 0.32734 0.36796 0.68594
 C419 C 0.32460 0.38334 0.69817
 C420 C 0.30826 0.39361 0.69182
 C421 C 0.30152 0.38370 0.67549
 H422 H 0.33377 0.38687 0.71068
 H423 H 0.28891 0.38753 0.66654
 Cu424 Cu 0.34758 0.34764 0.68609
 Cu425 Cu 0.31226 0.34855 0.65155
 Cu426 Cu 0.34848 0.31233 0.65157
 N427 N 0.36790 0.32740 0.68596
 N428 N 0.36812 0.31359 0.67240
 C429 C 0.38362 0.30157 0.67554
 C430 C 0.39354 0.30830 0.69187
 C431 C 0.38328 0.32465 0.69820
 H432 H 0.38744 0.28897 0.66659
 H433 H 0.38682 0.33380 0.71071
 N434 N 0.32731 0.31360 0.63174
 N435 N 0.31352 0.32738 0.63173
 C436 C 0.30141 0.32439 0.61631
 C437 C 0.30798 0.30805 0.60626
 C438 C 0.32432 0.30149 0.61633
 H439 H 0.28883 0.33345 0.61257
 H440 H 0.33338 0.28891 0.61261
 H441 H 0.32612 0.32619 0.66686
 H442 H 0.34203 0.34207 0.65110
 N443 N 0.31383 0.86846 0.17215
 N444 N 0.32766 0.86825 0.18571
 C445 C 0.32487 0.88360 0.19797
 C446 C 0.30852 0.89386 0.19161
 C447 C 0.30180 0.88394 0.17527
 H448 H 0.33401 0.88714 0.21049
 H449 H 0.28919 0.88775 0.16631
 Cu450 Cu 0.34792 0.84797 0.18575
 Cu451 Cu 0.31257 0.84882 0.15130
 Cu452 Cu 0.34878 0.81258 0.15139
 N453 N 0.36818 0.82769 0.18581
 N454 N 0.36839 0.81384 0.17228
 C455 C 0.38384 0.80179 0.17547
 C456 C 0.39374 0.80851 0.19181
 C457 C 0.38351 0.82489 0.19811
 H458 H 0.38766 0.78917 0.16654
 H459 H 0.38704 0.83404 0.21062
 N460 N 0.32765 0.81386 0.13152
 N461 N 0.31387 0.82765 0.13148
 C462 C 0.30178 0.82465 0.11605
 C463 C 0.30834 0.80830 0.10602
 C464 C 0.32468 0.80175 0.11612
 H465 H 0.28919 0.83370 0.11230
 H466 H 0.33373 0.78915 0.11242
 H467 H 0.32643 0.82650 0.16666
 H468 H 0.34232 0.84231 0.15080
 N469 N 0.81376 0.36854 0.17224
 N470 N 0.82760 0.36832 0.18580
 C471 C 0.82482 0.38367 0.19806
 C472 C 0.80847 0.39393 0.19172
 C473 C 0.80174 0.38402 0.17539
 H474 H 0.83397 0.38719 0.21059
 H475 H 0.78912 0.38784 0.16643
 Cu476 Cu 0.84787 0.34804 0.18581
 Cu477 Cu 0.81249 0.34891 0.15138
 Cu478 Cu 0.84869 0.31266 0.15142
 N479 N 0.86811 0.32774 0.18583
 N480 N 0.86831 0.31391 0.17229
 C481 C 0.88377 0.30186 0.17547
 C482 C 0.89368 0.30856 0.19181
 C483 C 0.88345 0.32493 0.19813
 H484 H 0.88757 0.28924 0.16652
 H485 H 0.88699 0.33408 0.21064
 N486 N 0.82754 0.31397 0.13156
 N487 N 0.81376 0.32776 0.13154
 C488 C 0.80166 0.32478 0.11612
 C489 C 0.80821 0.30843 0.10607
 C490 C 0.82455 0.30186 0.11615
 H491 H 0.78908 0.33384 0.11239
 H492 H 0.83360 0.28927 0.11244
 H493 H 0.82636 0.32658 0.16672
 H494 H 0.84224 0.34239 0.15085
 N495 N 0.81375 0.86859 0.67249
 N496 N 0.82729 0.86808 0.68634
 C497 C 0.82458 0.88350 0.69854
 C498 C 0.80854 0.89408 0.69190
 C499 C 0.80195 0.88429 0.67542
 H500 H 0.83361 0.88687 0.71120
 H501 H 0.78959 0.88834 0.66623
 Cu502 Cu 0.84726 0.84748 0.68640
 Cu503 Cu 0.81254 0.84902 0.65151
 Cu504 Cu 0.84878 0.81273 0.65153
 N505 N 0.86782 0.82748 0.68636
 N506 N 0.86832 0.81394 0.67253
 C507 C 0.88400 0.80213 0.67548
 C508 C 0.89377 0.80870 0.69195
 C509 C 0.88323 0.82476 0.69858
 H510 H 0.88805 0.78977 0.66629
 H511 H 0.88663 0.83378 0.71123
 N512 N 0.82767 0.81409 0.63162
 N513 N 0.81388 0.82789 0.63161
 C514 C 0.80175 0.82487 0.61621
 C515 C 0.80829 0.80851 0.60618
 C516 C 0.82465 0.80196 0.61624
 H517 H 0.78913 0.83389 0.61251
 H518 H 0.83367 0.78934 0.61256
 H519 H 0.82619 0.82637 0.66650
 H520 H 0.84236 0.84248 0.65128
 N521 N 0.68647 0.63180 0.67269
 N522 N 0.67266 0.63201 0.68629
 C523 C 0.67548 0.61665 0.69854
 C524 C 0.69183 0.60639 0.69217
 C525 C 0.69851 0.61632 0.67581
 H526 H 0.66631 0.61309 0.71105
 H527 H 0.71110 0.61250 0.66680
 Cu528 Cu 0.65220 0.65215 0.68627
 Cu529 Cu 0.68765 0.65141 0.65180
 Cu530 Cu 0.65146 0.68759 0.65182
 N531 N 0.63206 0.67261 0.68631
 N532 N 0.63185 0.68641 0.67272
 C533 C 0.61638 0.69846 0.67585
 C534 C 0.60645 0.69179 0.69222
 C535 C 0.61670 0.67544 0.69858
 H536 H 0.61256 0.71104 0.66686
 H537 H 0.61312 0.66628 0.71108
 N538 N 0.67258 0.68631 0.63193
 N539 N 0.68636 0.67252 0.63191
 C540 C 0.69847 0.67552 0.61648
 C541 C 0.69191 0.69187 0.60642
 C542 C 0.67556 0.69842 0.61651
 H543 H 0.71107 0.66648 0.61275
 H544 H 0.66651 0.71101 0.61281
 H545 H 0.67370 0.67363 0.66720
 H546 H 0.65784 0.65782 0.65131
 N547 N 0.68654 0.13132 0.17231
 N548 N 0.67269 0.13151 0.18587
 C549 C 0.67549 0.11615 0.19813
 C550 C 0.69185 0.10591 0.19179
 C551 C 0.69858 0.11584 0.17545
 H552 H 0.66633 0.11261 0.21066
 H553 H 0.71120 0.11204 0.16649
 Cu554 Cu 0.65241 0.15179 0.18589
 Cu555 Cu 0.68781 0.15098 0.15146
 Cu556 Cu 0.65158 0.18720 0.15152
 N557 N 0.63213 0.17207 0.18594
 N558 N 0.63194 0.18592 0.17240
 C559 C 0.61647 0.19797 0.17558
 C560 C 0.60655 0.19125 0.19192
 C561 C 0.61678 0.17487 0.19823
 H562 H 0.61267 0.21060 0.16664
 H563 H 0.61324 0.16571 0.21075
 N564 N 0.67273 0.18594 0.13165
 N565 N 0.68653 0.17216 0.13162
 C566 C 0.69863 0.17518 0.11620
 C567 C 0.69207 0.19154 0.10616
 C568 C 0.67571 0.19807 0.11625
 H569 H 0.71123 0.16614 0.11245
 H570 H 0.66666 0.21066 0.11256
 H571 H 0.67392 0.17328 0.16681
 H572 H 0.65806 0.15748 0.15094
 N573 N 0.18623 0.63170 0.17236
 N574 N 0.17268 0.63221 0.18622
 C575 C 0.17537 0.61678 0.19841
 C576 C 0.19141 0.60621 0.19175
 C577 C 0.19801 0.61599 0.17528
 H578 H 0.16634 0.61339 0.21107
 H579 H 0.21037 0.61193 0.16608
 Cu580 Cu 0.15274 0.65281 0.18629
 Cu581 Cu 0.18747 0.65126 0.15138
 Cu582 Cu 0.15125 0.68756 0.15142
 N583 N 0.13218 0.67280 0.18627
 N584 N 0.13169 0.68635 0.17243
 C585 C 0.11601 0.69817 0.17539
 C586 C 0.10623 0.69159 0.19187
 C587 C 0.11677 0.67552 0.19849
 H588 H 0.11197 0.71054 0.16621
 H589 H 0.11336 0.66649 0.21114
 N590 N 0.17238 0.68620 0.13150
 N591 N 0.18616 0.67240 0.13149
 C592 C 0.19830 0.67541 0.11609
 C593 C 0.19178 0.69179 0.10605
 C594 C 0.17542 0.69834 0.11612
 H595 H 0.21092 0.66638 0.11238
 H596 H 0.16641 0.71097 0.11244
 H597 H 0.17386 0.67388 0.16638
 H598 H 0.15768 0.65778 0.15117
 N599 N 0.18617 0.13137 0.67262
 N600 N 0.17262 0.13187 0.68647
 C601 C 0.17534 0.11644 0.69868
 C602 C 0.19140 0.10586 0.69203
 C603 C 0.19797 0.11567 0.67554
 H604 H 0.16632 0.11306 0.71135
 H605 H 0.21034 0.11163 0.66633
 Cu606 Cu 0.15265 0.15249 0.68656
 Cu607 Cu 0.18736 0.15097 0.65163
 Cu608 Cu 0.15112 0.18725 0.65166
 N609 N 0.13207 0.17248 0.68651
 N610 N 0.13157 0.18603 0.67268
 C611 C 0.11589 0.19785 0.67563
 C612 C 0.10611 0.19128 0.69212
 C613 C 0.11665 0.17522 0.69874
 H614 H 0.11185 0.21022 0.66644
 H615 H 0.11325 0.16620 0.71140
 N616 N 0.17224 0.18590 0.63174
 N617 N 0.18603 0.17211 0.63172
 C618 C 0.19815 0.17514 0.61631
 C619 C 0.19161 0.19151 0.60628
 C620 C 0.17525 0.19805 0.61635
 H621 H 0.21077 0.16612 0.61259
 H622 H 0.16623 0.21067 0.61268
 H623 H 0.17371 0.17362 0.66662
 H624 H 0.15754 0.15751 0.65142
 N625 N 0.31355 0.63168 0.32736
 N626 N 0.32739 0.63186 0.31380
 C627 C 0.32458 0.61655 0.30150
 C628 C 0.30822 0.60633 0.30785
 C629 C 0.30151 0.61624 0.32420
 H630 H 0.33374 0.61299 0.28897
 H631 H 0.28890 0.61245 0.33318
 Cu632 Cu 0.34769 0.65209 0.31384
 Cu633 Cu 0.31228 0.65128 0.34825
 Cu634 Cu 0.34848 0.68743 0.34824
 N635 N 0.36795 0.67237 0.31378
 N636 N 0.36812 0.68618 0.32734
 C637 C 0.38357 0.69823 0.32419
 C638 C 0.39351 0.69154 0.30783
 C639 C 0.38329 0.67519 0.30148
 H640 H 0.38735 0.71082 0.33316
 H641 H 0.38686 0.66606 0.28895
 N642 N 0.32733 0.68616 0.36811
 N643 N 0.31355 0.67240 0.36812
 C644 C 0.30145 0.67539 0.38355
 C645 C 0.30800 0.69172 0.39361
 C646 C 0.32434 0.69825 0.38353
 H647 H 0.28886 0.66636 0.38729
 H648 H 0.33339 0.71082 0.38725
 H649 H 0.32615 0.67357 0.33294
 H650 H 0.34201 0.65772 0.34879
 N651 N 0.31346 0.13147 0.82744
 N652 N 0.32699 0.13199 0.81357
 C653 C 0.32428 0.11662 0.80134
 C654 C 0.30825 0.10607 0.80798
 C655 C 0.30167 0.11581 0.82449
 H656 H 0.33331 0.11323 0.78867
 H657 H 0.28932 0.11174 0.83370
 Cu658 Cu 0.34695 0.15254 0.81353
 Cu659 Cu 0.31222 0.15097 0.84847
 Cu660 Cu 0.34843 0.18719 0.84846
 N661 N 0.36750 0.17251 0.81357
 N662 N 0.36798 0.18601 0.82744
 C663 C 0.38365 0.19782 0.82450
 C664 C 0.39344 0.19128 0.80799
 C665 C 0.38291 0.17525 0.80134
 H666 H 0.38767 0.21016 0.83371
 H667 H 0.38632 0.16625 0.78867
 N668 N 0.32732 0.18583 0.86839
 N669 N 0.31355 0.17205 0.86840
 C670 C 0.30143 0.17505 0.88382
 C671 C 0.30796 0.19139 0.89387
 C672 C 0.32430 0.19793 0.88380
 H673 H 0.28882 0.16604 0.88753
 H674 H 0.33331 0.21053 0.88749
 H675 H 0.32580 0.17358 0.83350
 H676 H 0.34200 0.15741 0.84866
 N677 N 0.81383 0.63171 0.82775
 N678 N 0.82764 0.63193 0.81416
 C679 C 0.82489 0.61655 0.80192
 C680 C 0.80855 0.60628 0.80828
 C681 C 0.80184 0.61622 0.82463
 H682 H 0.83405 0.61302 0.78939
 H683 H 0.78924 0.61242 0.83362
 Cu684 Cu 0.84793 0.65220 0.81406
 Cu685 Cu 0.81258 0.65136 0.84859
 Cu686 Cu 0.84871 0.68758 0.84854
 N687 N 0.86816 0.67254 0.81410
 N688 N 0.86835 0.68635 0.82767
 C689 C 0.88380 0.69839 0.82450
 C690 C 0.89374 0.69169 0.80815
 C691 C 0.88352 0.67534 0.80182
 H692 H 0.88758 0.71099 0.83346
 H693 H 0.88708 0.66619 0.78931
 N694 N 0.82757 0.68630 0.86841
 N695 N 0.81381 0.67251 0.86843
 C696 C 0.80171 0.67550 0.88387
 C697 C 0.80824 0.69184 0.89392
 C698 C 0.82456 0.69840 0.88383
 H699 H 0.78915 0.66645 0.88763
 H700 H 0.83359 0.71098 0.88754
 H701 H 0.82642 0.67370 0.83325
 H702 H 0.84234 0.65786 0.84905
 N703 N 0.81380 0.13139 0.32748
 N704 N 0.82761 0.13163 0.31389
 C705 C 0.82488 0.11624 0.30165
 C706 C 0.80858 0.10595 0.30805
 C707 C 0.80185 0.11588 0.32439
 H708 H 0.83406 0.11268 0.28913
 H709 H 0.78927 0.11205 0.33338
 Cu710 Cu 0.84778 0.15197 0.31368
 Cu711 Cu 0.81249 0.15101 0.34833
 Cu712 Cu 0.84862 0.18723 0.34828
 N713 N 0.86808 0.17221 0.31383
 N714 N 0.86826 0.18601 0.32740
 C715 C 0.88374 0.19802 0.32427
 C716 C 0.89370 0.19133 0.30792
 C717 C 0.88347 0.17500 0.30156
 H718 H 0.88752 0.21060 0.33324
 H719 H 0.88706 0.16584 0.28904
 N720 N 0.82746 0.18595 0.36813
 N721 N 0.81371 0.17216 0.36816
 C722 C 0.80159 0.17514 0.38358
 C723 C 0.80811 0.19149 0.39363
 C724 C 0.82444 0.19805 0.38355
 H725 H 0.78903 0.16608 0.38733
 H726 H 0.83346 0.21063 0.38726
 H727 H 0.82628 0.17334 0.33303
 H728 H 0.84224 0.15747 0.34879
 N729 N 0.68641 0.36830 0.32745
 N730 N 0.67260 0.36808 0.31387
 C731 C 0.67535 0.38347 0.30164
 C732 C 0.69168 0.39371 0.30800
 C733 C 0.69840 0.38378 0.32434
 H734 H 0.66620 0.38701 0.28912
 H735 H 0.71100 0.38759 0.33332
 Cu736 Cu 0.65239 0.34777 0.31368
 Cu737 Cu 0.68770 0.34866 0.34829
 Cu738 Cu 0.65153 0.31248 0.34825
 N739 N 0.63206 0.32755 0.31383
 N740 N 0.63187 0.31374 0.32741
 C741 C 0.61639 0.30173 0.32428
 C742 C 0.60644 0.30843 0.30793
 C743 C 0.61668 0.32478 0.30159
 H744 H 0.61260 0.28913 0.33324
 H745 H 0.61315 0.33393 0.28906
 N746 N 0.67269 0.31372 0.36810
 N747 N 0.68646 0.32749 0.36811
 C748 C 0.69856 0.32449 0.38354
 C749 C 0.69202 0.30815 0.39360
 C750 C 0.67569 0.30161 0.38352
 H751 H 0.71112 0.33354 0.38728
 H752 H 0.66665 0.28904 0.38724
 H753 H 0.67391 0.32635 0.33298
 H754 H 0.65795 0.34224 0.34870
 N755 N 0.68642 0.86847 0.82763
 N756 N 0.67262 0.86825 0.81404
 C757 C 0.67537 0.88363 0.80180
 C758 C 0.69171 0.89386 0.80816
 C759 C 0.69843 0.88394 0.82451
 H760 H 0.66619 0.88720 0.78930
 H761 H 0.71102 0.88775 0.83348
 Cu762 Cu 0.65237 0.84797 0.81406
 Cu763 Cu 0.68769 0.84887 0.84853
 Cu764 Cu 0.65146 0.81274 0.84858
 N765 N 0.63202 0.82778 0.81409
 N766 N 0.63180 0.81401 0.82771
 C767 C 0.61629 0.80203 0.82463
 C768 C 0.60633 0.80874 0.80829
 C769 C 0.61661 0.82504 0.80189
 H770 H 0.61248 0.78946 0.83363
 H771 H 0.61304 0.83420 0.78937
 N772 N 0.67265 0.81399 0.86841
 N773 N 0.68643 0.82774 0.86839
 C774 C 0.69855 0.82474 0.88381
 C775 C 0.69200 0.80842 0.89389
 C776 C 0.67565 0.80189 0.88384
 H777 H 0.71113 0.83377 0.88752
 H778 H 0.66660 0.78934 0.88759
 H779 H 0.67384 0.82658 0.83329
 H780 H 0.65794 0.84250 0.84904
 N781 N 0.18613 0.36815 0.82767
 N782 N 0.17232 0.36796 0.81410
 C783 C 0.17510 0.38334 0.80186
 C784 C 0.19145 0.39358 0.80822
 C785 C 0.19815 0.38362 0.82456
 H786 H 0.16596 0.38689 0.78933
 H787 H 0.21076 0.38740 0.83353
 Cu788 Cu 0.15208 0.34764 0.81393
 Cu789 Cu 0.18738 0.34849 0.84851
 Cu790 Cu 0.15120 0.31235 0.84853
 N791 N 0.13173 0.32742 0.81411
 N792 N 0.13154 0.31362 0.82769
 C793 C 0.11605 0.30161 0.82457
 C794 C 0.10610 0.30831 0.80822
 C795 C 0.11635 0.32465 0.80187
 H796 H 0.11227 0.28901 0.83354
 H797 H 0.11281 0.33379 0.78933
 N798 N 0.17237 0.31357 0.86836
 N799 N 0.18615 0.32733 0.86836
 C800 C 0.19826 0.32434 0.88378
 C801 C 0.19171 0.30801 0.89386
 C802 C 0.17537 0.30147 0.88379
 H803 H 0.21083 0.33338 0.88751
 H804 H 0.16632 0.28891 0.88753
 H805 H 0.17354 0.32617 0.83319
 H806 H 0.15760 0.34208 0.84893
 N807 N 0.18630 0.86842 0.32731
 N808 N 0.17247 0.86823 0.31374
 C809 C 0.17529 0.88355 0.30144
 C810 C 0.19165 0.89375 0.30778
 C811 C 0.19835 0.88385 0.32414
 H812 H 0.16615 0.88709 0.28891
 H813 H 0.21095 0.88764 0.33311
 Cu814 Cu 0.15218 0.84800 0.31376
 Cu815 Cu 0.18756 0.84884 0.34820
 Cu816 Cu 0.15134 0.81269 0.34823
 N817 N 0.13190 0.82775 0.31376
 N818 N 0.13170 0.81394 0.32734
 C819 C 0.11624 0.80191 0.32419
 C820 C 0.10632 0.80860 0.30782
 C821 C 0.11656 0.82495 0.30147
 H822 H 0.11245 0.78933 0.33317
 H823 H 0.11303 0.83408 0.28893
 N824 N 0.17249 0.81397 0.36810
 N825 N 0.18627 0.82773 0.36809
 C826 C 0.19838 0.82474 0.38351
 C827 C 0.19183 0.80843 0.39360
 C828 C 0.17549 0.80188 0.38354
 H829 H 0.21096 0.83378 0.38723
 H830 H 0.16644 0.78932 0.38728
 H831 H 0.17371 0.82655 0.33292
 H832 H 0.15783 0.84243 0.34874
 O833 O 0.27505 0.98067 0.24812
 O834 O 0.24794 1.01941 0.27474
 O835 O 0.24791 0.98069 0.27475
 O836 O 0.27506 1.01929 0.24813
 O837 O 0.25217 1.01935 0.22497
 O838 O 0.22502 0.98075 0.25159
 O839 O 0.22506 1.01946 0.25158
 O840 O 0.25217 0.98072 0.22496
 Cu841 Cu 0.26379 1.00000 0.26378
 Cu842 Cu 0.23628 1.00007 0.23595
 C843 C 0.26799 0.97391 0.23223
 C844 C 0.23216 1.02627 0.26743
 C845 C 0.23210 0.97391 0.26745
 C846 C 0.26799 1.02610 0.23227
 O847 O 0.25200 0.51935 0.72513
 O848 O 0.22491 0.48058 0.75176
 O849 O 0.22488 0.51930 0.75179
 O850 O 0.25203 0.48063 0.72511
 O851 O 0.27494 0.48060 0.74824
 O852 O 0.24779 0.51926 0.77492
 O853 O 0.24781 0.48055 0.77490
 O854 O 0.27490 0.51931 0.74826
 Cu855 Cu 0.23615 0.49997 0.73612
 Cu856 Cu 0.26366 0.49993 0.76391
 C857 C 0.26781 0.52617 0.73242
 C858 C 0.23200 0.47374 0.76761
 C859 C 0.23197 0.52610 0.76764
 C860 C 0.26785 0.47380 0.73239
 O861 O 0.74816 -0.01967 0.22527
 O862 O 0.77529 0.01893 0.25189
 O863 O 0.77524 -0.01981 0.25191
 O864 O 0.74818 0.01897 0.22524
 O865 O 0.72526 0.01903 0.24838
 O866 O 0.75232 -0.01975 0.27504
 O867 O 0.75237 0.01899 0.27503
 O868 O 0.72523 -0.01960 0.24842
 Cu869 Cu 0.76404 -0.00040 0.23626
 Cu870 Cu 0.73650 -0.00032 0.26406
 C871 C 0.73232 -0.02642 0.23256
 C872 C 0.76818 0.02577 0.26773
 C873 C 0.76811 -0.02663 0.26775
 C874 C 0.73235 0.02580 0.23249
 O875 O 0.72512 0.51921 0.74848
 O876 O 0.75225 0.48046 0.77513
 O877 O 0.75226 0.51920 0.77511
 O878 O 0.72514 0.48047 0.74847
 O879 O 0.74805 0.48045 0.72532
 O880 O 0.77516 0.51917 0.75197
 O881 O 0.77516 0.48043 0.75198
 O882 O 0.74802 0.51919 0.72533
 Cu883 Cu 0.73639 0.49983 0.76412
 Cu884 Cu 0.76390 0.49981 0.73632
 C885 C 0.73221 0.52603 0.73262
 C886 C 0.76807 0.47362 0.76784
 C887 C 0.76808 0.52601 0.76782
 C888 C 0.73224 0.47363 0.73261
 O889 O 0.24789 0.48066 0.22501
 O890 O 0.27499 0.51928 0.25166
 O891 O 0.27498 0.48054 0.25165
 O892 O 0.24788 0.51930 0.22499
 O893 O 0.22496 0.51931 0.24814
 O894 O 0.25206 0.48056 0.27478
 O895 O 0.25207 0.51930 0.27480
 O896 O 0.22497 0.48068 0.24815
 Cu897 Cu 0.26376 0.49995 0.23601
 Cu898 Cu 0.23622 0.49997 0.26381
 C899 C 0.23207 0.47389 0.23229
 C900 C 0.26788 0.52610 0.26751
 C901 C 0.26786 0.47370 0.26748
 C902 C 0.23204 0.52609 0.23226
 O903 O 0.75191 1.01957 0.72526
 O904 O 0.72480 0.98102 0.75199
 O905 O 0.72481 1.01984 0.75194
 O906 O 0.75191 0.98096 0.72530
 O907 O 0.77482 0.98095 0.74842
 O908 O 0.74773 1.01982 0.77505
 O909 O 0.74772 0.98101 0.77511
 O910 O 0.77484 1.01956 0.74838
 Cu911 Cu 0.73603 1.00035 0.73632
 Cu912 Cu 0.76356 1.00033 0.76409
 C913 C 0.76776 1.02631 0.73250
 C914 C 0.73193 0.97418 0.76782
 C915 C 0.73194 1.02671 0.76776
 C916 C 0.76776 0.97416 0.73255
 O917 O 0.74790 0.51943 0.27493
 O918 O 0.77502 0.48074 0.24826
 O919 O 0.77499 0.51936 0.24829
 O920 O 0.74790 0.48070 0.27491
 O921 O 0.72499 0.48075 0.25178
 O922 O 0.75207 0.51942 0.22516
 O923 O 0.75211 0.48079 0.22512
 O924 O 0.72499 0.51948 0.25180
 Cu925 Cu 0.76375 0.50005 0.26394
 Cu926 Cu 0.73622 0.50011 0.23614
 C927 C 0.73210 0.52630 0.26764
 C928 C 0.76795 0.47398 0.23238
 C929 C 0.76790 0.52617 0.23244
 C930 C 0.73210 0.47391 0.26762
 O931 O 0.22529 0.01887 0.74846
 O932 O 0.25248 -0.02007 0.77497
 O933 O 0.25241 0.01876 0.77512
 O934 O 0.22529 -0.01975 0.74838
 O935 O 0.24818 -0.01970 0.72521
 O936 O 0.27529 0.01883 0.75195
 O937 O 0.27536 -0.01999 0.75180
 O938 O 0.24817 0.01894 0.72529
 Cu939 Cu 0.23659 -0.00055 0.76409
 Cu940 Cu 0.26408 -0.00047 0.73626
 C941 C 0.23233 0.02572 0.73258
 C942 C 0.26827 -0.02693 0.76762
 C943 C 0.26819 0.02562 0.76781
 C944 C 0.23235 -0.02647 0.73247
 O945 O 0.24805 0.27476 0.98078
 O946 O 0.27492 0.24777 1.01939
 O947 O 0.27492 0.24778 0.98077
 O948 O 0.24814 0.27484 1.01940
 O949 O 0.22500 0.25191 1.01948
 O950 O 0.25177 0.22485 0.98083
 O951 O 0.25178 0.22484 1.01945
 O952 O 0.22490 0.25184 0.98086
 Cu953 Cu 0.26384 0.26360 1.00008
 Cu954 Cu 0.23603 0.23605 1.00016
 C955 C 0.23215 0.26764 0.97402
 C956 C 0.26767 0.23197 1.02623
 C957 C 0.26765 0.23197 0.97399
 C958 C 0.23228 0.26772 1.02625
 O959 O 0.24813 0.77516 0.48053
 O960 O 0.27502 0.74820 0.51916
 O961 O 0.27499 0.74816 0.48052
 O962 O 0.24818 0.77520 0.51914
 O963 O 0.22505 0.75225 0.51920
 O964 O 0.25186 0.72521 0.48059
 O965 O 0.25190 0.72525 0.51922
 O966 O 0.22500 0.75221 0.48059
 Cu967 Cu 0.26391 0.76399 0.49983
 Cu968 Cu 0.23613 0.73642 0.49990
 C969 C 0.23224 0.76802 0.47375
 C970 C 0.26778 0.73240 0.52600
 C971 C 0.26773 0.73234 0.47374
 C972 C 0.23231 0.76807 0.52598
 O973 O 0.27530 0.75178 -0.01944
 O974 O 0.24829 0.72503 0.01925
 O975 O 0.24830 0.72499 -0.01937
 O976 O 0.27523 0.75189 0.01921
 O977 O 0.25219 0.77498 0.01914
 O978 O 0.22526 0.74809 -0.01942
 O979 O 0.22526 0.74813 0.01920
 O980 O 0.25226 0.77488 -0.01951
 Cu981 Cu 0.26410 0.73610 -0.00008
 Cu982 Cu 0.23643 0.76385 -0.00016
 C983 C 0.26812 0.76763 -0.02630
 C984 C 0.23243 0.73227 0.02604
 C985 C 0.23245 0.73221 -0.02619
 C986 C 0.26803 0.76776 0.02598
 O987 O 0.27486 0.25174 0.48078
 O988 O 0.24794 0.22487 0.51942
 O989 O 0.24795 0.22487 0.48080
 O990 O 0.27485 0.25176 0.51940
 O991 O 0.25176 0.27481 0.51939
 O992 O 0.22486 0.24793 0.48079
 O993 O 0.22486 0.24792 0.51942
 O994 O 0.25178 0.27479 0.48077
 Cu995 Cu 0.26372 0.23599 0.50010
 Cu996 Cu 0.23599 0.26368 0.50009
 C997 C 0.26765 0.26759 0.47396
 C998 C 0.23208 0.23207 0.52623
 C999 C 0.23208 0.23208 0.47399
 C1000 C 0.26763 0.26761 0.52619
 O1001 O 0.75192 0.72515 0.98083
 O1002 O 0.72507 0.75213 1.01946
 O1003 O 0.72505 0.75214 0.98085
 O1004 O 0.75184 0.72507 1.01945
 O1005 O 0.77498 0.74800 1.01949
 O1006 O 0.74820 0.77506 0.98086
 O1007 O 0.74822 0.77506 1.01948
 O1008 O 0.77508 0.74807 0.98087
 Cu1009 Cu 0.73614 0.73631 1.00014
 Cu1010 Cu 0.76395 0.76386 1.00018
 C1011 C 0.76782 0.73228 0.97405
 C1012 C 0.73233 0.76793 1.02628
 C1013 C 0.73232 0.76795 0.97405
 C1014 C 0.76771 0.73218 1.02627
 O1015 O 0.77489 0.24768 0.51923
 O1016 O 0.74810 0.27473 0.48061
 O1017 O 0.74806 0.27468 0.51924
 O1018 O 0.77496 0.24772 0.48061
 O1019 O 0.75183 0.22478 0.48058
 O1020 O 0.72492 0.25174 0.51920
 O1021 O 0.72497 0.25178 0.48057
 O1022 O 0.75176 0.22473 0.51919
 Cu1023 Cu 0.76383 0.26351 0.49992
 Cu1024 Cu 0.73604 0.23595 0.49988
 C1025 C 0.76763 0.23186 0.52601
 C1026 C 0.73223 0.26760 0.47378
 C1027 C 0.73217 0.26754 0.52603
 C1028 C 0.76772 0.23191 0.47379
 O1029 O 0.74819 0.22518 0.01923
 O1030 O 0.77492 0.25223 -0.01943
 O1031 O 0.77501 0.25216 0.01919
 O1032 O 0.74811 0.22524 -0.01941
 O1033 O 0.72494 0.24820 -0.01933
 O1034 O 0.75184 0.27512 0.01928
 O1035 O 0.75176 0.27519 -0.01935
 O1036 O 0.72502 0.24814 0.01932
 Cu1037 Cu 0.76389 0.23639 -0.00011
 Cu1038 Cu 0.73606 0.26397 -0.00001
 C1039 C 0.73231 0.23231 0.02609
 C1040 C 0.76764 0.26806 -0.02620
 C1041 C 0.76775 0.26797 0.02604
 C1042 C 0.73220 0.23239 -0.02617
 O1043 O 0.72497 0.74827 0.48084
 O1044 O 0.75189 0.77519 0.51942
 O1045 O 0.75181 0.77522 0.48079
 O1046 O 0.72501 0.74827 0.51948
 O1047 O 0.74814 0.72526 0.51944
 O1048 O 0.77493 0.75221 0.48074
 O1049 O 0.77502 0.75218 0.51937
 O1050 O 0.74810 0.72526 0.48080
 Cu1051 Cu 0.73609 0.76405 0.50014
 Cu1052 Cu 0.76387 0.73641 0.50008
 C1053 C 0.73221 0.73244 0.47402
 C1054 C 0.76778 0.76801 0.52619
 C1055 C 0.76767 0.76804 0.47394
 C1056 C 0.73227 0.73243 0.52628
 O1057 O 1.01934 0.27516 0.24834
 O1058 O 0.98056 0.24796 0.27481
 O1059 O 1.01930 0.24798 0.27488
 O1060 O 0.98062 0.27514 0.24824
 O1061 O 0.98072 0.25234 0.22502
 O1062 O 1.01940 0.22518 0.25167
 O1063 O 0.98066 0.22517 0.25160
 O1064 O 1.01945 0.25236 0.22512
 Cu1065 Cu 0.99995 0.26386 0.26391
 Cu1066 Cu 1.00006 0.23646 0.23601
 C1067 C 1.02622 0.26814 0.23247
 C1068 C 0.97379 0.23219 0.26747
 C1069 C 1.02617 0.23221 0.26756
 C1070 C 0.97387 0.26811 0.23234
 O1071 O 0.48053 0.25199 0.72519
 O1072 O 0.51927 0.22490 0.75185
 O1073 O 0.48053 0.22489 0.75183
 O1074 O 0.51927 0.25197 0.72519
 O1075 O 0.51923 0.27484 0.74833
 O1076 O 0.48047 0.24776 0.77497
 O1077 O 0.51922 0.24776 0.77500
 O1078 O 0.48049 0.27487 0.74833
 Cu1079 Cu 0.49990 0.23613 0.73618
 Cu1080 Cu 0.49985 0.26361 0.76399
 C1081 C 0.47370 0.26779 0.73247
 C1082 C 0.52606 0.23197 0.76771
 C1083 C 0.47368 0.23196 0.76768
 C1084 C 0.52607 0.26777 0.73247
 O1085 O -0.01967 0.27500 0.75167
 O1086 O 0.01904 0.24775 0.72511
 O1087 O -0.01969 0.24776 0.72518
 O1088 O 0.01909 0.27489 0.75172
 O1089 O 0.01906 0.25209 0.77495
 O1090 O -0.01970 0.22496 0.74841
 O1091 O 0.01903 0.22495 0.74835
 O1092 O -0.01971 0.25220 0.77490
 Cu1093 Cu -0.00031 0.26365 0.73609
 Cu1094 Cu -0.00033 0.23626 0.76400
 C1095 C -0.02651 0.26798 0.76755
 C1096 C 0.02585 0.23196 0.73245
 C1097 C -0.02651 0.23199 0.73253
 C1098 C 0.02591 0.26785 0.76761
 O1099 O 0.48069 0.27466 0.25170
 O1100 O 0.51942 0.24750 0.22506
 O1101 O 0.48068 0.24750 0.22514
 O1102 O 0.51945 0.27468 0.25162
 O1103 O 0.51953 0.25187 0.27484
 O1104 O 0.48075 0.22469 0.24836
 O1105 O 0.51949 0.22469 0.24828
 O1106 O 0.48077 0.25185 0.27492
 Cu1107 Cu 0.50005 0.26338 0.23605
 Cu1108 Cu 0.50014 0.23598 0.26394
 C1109 C 0.47391 0.26762 0.26759
 C1110 C 0.52627 0.23173 0.23239
 C1111 C 0.47389 0.23172 0.23249
 C1112 C 0.52632 0.26765 0.26749
 O1113 O 1.01948 0.72523 0.75175
 O1114 O 0.98082 0.75239 0.72508
 O1115 O 1.01954 0.75238 0.72517
 O1116 O 0.98075 0.72528 0.75172
 O1117 O 0.98069 0.74812 0.77490
 O1118 O 1.01948 0.77522 0.74834
 O1119 O 0.98076 0.77523 0.74825
 O1120 O 1.01943 0.74808 0.77493
 Cu1121 Cu 1.00015 0.73651 0.73610
 Cu1122 Cu 1.00008 0.76396 0.76394
 C1123 C 1.02627 0.73229 0.76762
 C1124 C 0.97399 0.76818 0.73237
 C1125 C 1.02633 0.76817 0.73249
 C1126 C 0.97389 0.73233 0.76759
 O1127 O 0.48075 0.75230 0.22513
 O1128 O 0.51942 0.72515 0.25181
 O1129 O 0.48068 0.72515 0.25172
 O1130 O 0.51948 0.75231 0.22524
 O1131 O 0.51937 0.77513 0.24843
 O1132 O 0.48057 0.74797 0.27491
 O1133 O 0.51931 0.74798 0.27500
 O1134 O 0.48065 0.77512 0.24832
 Cu1135 Cu 0.50009 0.73642 0.23614
 Cu1136 Cu 0.49996 0.76385 0.26400
 C1137 C 0.47390 0.76808 0.23242
 C1138 C 0.52618 0.73220 0.26770
 C1139 C 0.47379 0.73219 0.26757
 C1140 C 0.52625 0.76809 0.23257
 O1141 O 0.01914 0.74792 0.22501
 O1142 O -0.01957 0.77511 0.25163
 O1143 O 0.01919 0.77507 0.25160
 O1144 O -0.01960 0.74788 0.22514
 O1145 O -0.01951 0.72509 0.24838
 O1146 O 0.01925 0.75229 0.27484
 O1147 O -0.01951 0.75232 0.27487
 O1148 O 0.01922 0.72514 0.24825
 Cu1149 Cu -0.00021 0.76380 0.23601
 Cu1150 Cu -0.00013 0.73642 0.26392
 C1151 C 0.02599 0.73215 0.23234
 C1152 C -0.02636 0.76808 0.26752
 C1153 C 0.02605 0.76805 0.26747
 C1154 C -0.02638 0.73210 0.23250
 O1155 O 0.48054 0.72526 0.74853
 O1156 O 0.51930 0.75236 0.77514
 O1157 O 0.48052 0.75235 0.77518
 O1158 O 0.51929 0.72522 0.74854
 O1159 O 0.51928 0.74808 0.72537
 O1160 O 0.48049 0.77521 0.75201
 O1161 O 0.51927 0.77522 0.75197
 O1162 O 0.48052 0.74812 0.72536
 Cu1163 Cu 0.49991 0.73650 0.76418
 Cu1164 Cu 0.49989 0.76396 0.73635
 C1165 C 0.47370 0.73232 0.73266
 C1166 C 0.52611 0.76815 0.76783
 C1167 C 0.47367 0.76814 0.76788
 C1168 C 0.52611 0.73228 0.73267
 C1169 C 0.41123 0.29990 0.29964
 C1170 C 0.42600 0.29296 0.29262
 C1171 C 0.44314 0.28460 0.28429
 C1172 C 0.45748 0.27712 0.27692
 C1173 C 0.41085 0.80042 0.79978
 C1174 C 0.42566 0.79346 0.79280
 C1175 C 0.44284 0.78510 0.78453
 C1176 C 0.45720 0.77763 0.77718
 C1177 C -0.08908 0.30062 0.79948
 C1178 C -0.07435 0.29358 0.79246
 C1179 C -0.05725 0.28510 0.78417
 C1180 C -0.04294 0.27754 0.77683
 C1181 C -0.08907 0.80043 0.29945
 C1182 C -0.07430 0.79346 0.29245
 C1183 C -0.05715 0.78508 0.28417
 C1184 C -0.04280 0.77759 0.27682
 C1185 C 0.58885 0.70006 0.29979
 C1186 C 0.57407 0.70697 0.29277
 C1187 C 0.55692 0.71528 0.28443
 C1188 C 0.54259 0.72273 0.27704
 C1189 C 0.58871 0.19964 0.79974
 C1190 C 0.57395 0.20661 0.79273
 C1191 C 0.55682 0.21499 0.78442
 C1192 C 0.54249 0.22248 0.77704
 C1193 C 1.08888 0.69999 0.79965
 C1194 C 1.07413 0.70695 0.79263
 C1195 C 1.05700 0.71531 0.78432
 C1196 C 1.04268 0.72279 0.77695
 C1197 C 1.08874 0.19988 0.29966
 C1198 C 1.07399 0.20684 0.29262
 C1199 C 1.05688 0.21522 0.28428
 C1200 C 1.04257 0.22271 0.27689
 C1201 C 0.58873 0.30005 0.70044
 C1202 C 0.57397 0.29309 0.70746
 C1203 C 0.55683 0.28473 0.71577
 C1204 C 0.54250 0.27725 0.72315
 C1205 C 0.58891 0.80041 0.20065
 C1206 C 0.57414 0.79347 0.20767
 C1207 C 0.55701 0.78510 0.21596
 C1208 C 0.54268 0.77760 0.22330
 C1209 C 1.08887 0.30050 0.20055
 C1210 C 1.07411 0.29354 0.20757
 C1211 C 1.05698 0.28516 0.21586
 C1212 C 1.04265 0.27766 0.22320
 C1213 C 1.08887 0.80055 0.70038
 C1214 C 1.07414 0.79358 0.70744
 C1215 C 1.05705 0.78518 0.71579
 C1216 C 1.04274 0.77768 0.72317
 C1217 C 0.41112 0.69999 0.70053
 C1218 C 0.42586 0.70696 0.70758
 C1219 C 0.44297 0.71534 0.71593
 C1220 C 0.45728 0.72282 0.72333
 C1221 C 0.41126 0.19941 0.20049
 C1222 C 0.42602 0.20635 0.20752
 C1223 C 0.44314 0.21471 0.21585
 C1224 C 0.45746 0.22220 0.22321
 C1225 C -0.08890 0.69957 0.20052
 C1226 C -0.07417 0.70656 0.20756
 C1227 C -0.05708 0.71500 0.21588
 C1228 C -0.04278 0.72254 0.22323
 C1229 C -0.08900 0.19953 0.70042
 C1230 C -0.07428 0.20652 0.70748
 C1231 C -0.05720 0.21494 0.71583
 C1232 C -0.04291 0.22246 0.72321
 C1233 C 0.30000 0.41095 0.29950
 C1234 C 0.29307 0.42572 0.29247
 C1235 C 0.28474 0.44287 0.28414
 C1236 C 0.27730 0.45723 0.27678
 C1237 C 0.30071 -0.08985 0.79951
 C1238 C 0.29368 -0.07508 0.79247
 C1239 C 0.28526 -0.05789 0.78417
 C1240 C 0.27776 -0.04349 0.77686
 C1241 C 0.80035 0.41097 0.79996
 C1242 C 0.79340 0.42573 0.79291
 C1243 C 0.78504 0.44286 0.78456
 C1244 C 0.77756 0.45718 0.77717
 C1245 C 0.80017 -0.08944 0.29977
 C1246 C 0.79325 -0.07466 0.29273
 C1247 C 0.78495 -0.05749 0.28441
 C1248 C 0.77754 -0.04312 0.27705
 C1249 C 0.30009 0.58883 0.70039
 C1250 C 0.29313 0.57407 0.70741
 C1251 C 0.28477 0.55693 0.71572
 C1252 C 0.27729 0.54261 0.72310
 C1253 C 0.30025 1.08857 0.20035
 C1254 C 0.29333 1.07383 0.20733
 C1255 C 0.28498 1.05673 0.21560
 C1256 C 0.27750 1.04244 0.22295
 C1257 C 0.80018 0.58861 0.20040
 C1258 C 0.79324 0.57388 0.20741
 C1259 C 0.78489 0.55680 0.21573
 C1260 C 0.77740 0.54252 0.22311
 C1261 C 0.80015 1.08856 0.70028
 C1262 C 0.79320 1.07385 0.70731
 C1263 C 0.78482 1.05681 0.71566
 C1264 C 0.77731 1.04258 0.72309
 C1265 C 0.70008 0.58906 0.29969
 C1266 C 0.70698 0.57429 0.29265
 C1267 C 0.71527 0.55712 0.28432
 C1268 C 0.72267 0.54276 0.27695
 C1269 C 0.69971 1.08954 0.79991
 C1270 C 0.70669 1.07479 0.79282
 C1271 C 0.71506 1.05763 0.78443
 C1272 C 0.72250 1.04325 0.77705
 C1273 C 0.19982 0.58877 0.79966
 C1274 C 0.20673 0.57400 0.79265
 C1275 C 0.21504 0.55685 0.78434
 C1276 C 0.22249 0.54252 0.77697
 C1277 C 0.19993 1.08891 0.29951
 C1278 C 0.20688 1.07417 0.29245
 C1279 C 0.21524 1.05706 0.28410
 C1280 C 0.22270 1.04273 0.27673
 C1281 C 0.69995 0.41101 0.70052
 C1282 C 0.70692 0.42575 0.70756
 C1283 C 0.71528 0.44287 0.71590
 C1284 C 0.72275 0.45719 0.72328
 C1285 C 0.70003 -0.08885 0.20061
 C1286 C 0.70697 -0.07412 0.20760
 C1287 C 0.71533 -0.05704 0.21588
 C1288 C 0.72281 -0.04276 0.22324
 C1289 C 0.19987 0.41137 0.20035
 C1290 C 0.20679 0.42613 0.20733
 C1291 C 0.21511 0.44324 0.21561
 C1292 C 0.22258 0.45753 0.22296
 C1293 C 0.19989 -0.08865 0.70024
 C1294 C 0.20686 -0.07396 0.70727
 C1295 C 0.21527 -0.05694 0.71563
 C1296 C 0.22280 -0.04273 0.72306
 C1297 C 0.29976 0.29967 0.41138
 C1298 C 0.29279 0.29270 0.42613
 C1299 C 0.28446 0.28438 0.44324
 C1300 C 0.27705 0.27697 0.45755
 C1301 C 0.30034 0.79969 -0.08890
 C1302 C 0.29335 0.79270 -0.07416
 C1303 C 0.28500 0.78437 -0.05705
 C1304 C 0.27756 0.77698 -0.04273
 C1305 C 0.79950 0.30040 -0.08879
 C1306 C 0.79258 0.29339 -0.07404
 C1307 C 0.78432 0.28500 -0.05692
 C1308 C 0.77697 0.27753 -0.04261
 C1309 C 0.79961 0.80028 0.41132
 C1310 C 0.79267 0.79327 0.42607
 C1311 C 0.78439 0.78491 0.44319
 C1312 C 0.77702 0.77746 0.45751
 C1313 C 0.70013 0.29972 0.58863
 C1314 C 0.70709 0.29272 0.57388
 C1315 C 0.71539 0.28438 0.55676
 C1316 C 0.72279 0.27695 0.54245
 C1317 C 0.70031 0.80009 1.08884
 C1318 C 0.70727 0.79312 1.07410
 C1319 C 0.71558 0.78478 1.05699
 C1320 C 0.72297 0.77735 1.04268
 C1321 C 0.20030 0.30006 1.08876
 C1322 C 0.20726 0.29304 1.07404
 C1323 C 0.21556 0.28465 1.05694
 C1324 C 0.22293 0.27718 1.04264
 C1325 C 0.20032 0.80019 0.58858
 C1326 C 0.20727 0.79324 0.57382
 C1327 C 0.21557 0.78493 0.55670
 C1328 C 0.22295 0.77750 0.54238
 C1329 C 0.29984 0.70025 0.58860
 C1330 C 0.29287 0.70723 0.57386
 C1331 C 0.28456 0.71557 0.55674
 C1332 C 0.27716 0.72299 0.54242
 C1333 C 0.29978 0.19983 1.08876
 C1334 C 0.29279 0.20680 1.07403
 C1335 C 0.28446 0.21513 1.05692
 C1336 C 0.27705 0.22255 1.04262
 C1337 C 0.79965 0.69993 1.08884
 C1338 C 0.79270 0.70691 1.07409
 C1339 C 0.78442 0.71527 1.05698
 C1340 C 0.77705 0.72273 1.04267
 C1341 C 0.79962 0.19975 0.58862
 C1342 C 0.79266 0.20669 0.57386
 C1343 C 0.78437 0.21500 0.55673
 C1344 C 0.77698 0.22242 0.54242
 C1345 C 0.70016 0.70029 0.41149
 C1346 C 0.70712 0.70728 0.42622
 C1347 C 0.71542 0.71562 0.44332
 C1348 C 0.72282 0.72304 0.45763
 C1349 C 0.70021 0.20013 -0.08871
 C1350 C 0.70714 0.20715 -0.07397
 C1351 C 0.71542 0.21553 -0.05686
 C1352 C 0.72281 0.22298 -0.04257
 C1353 C 0.20026 0.70010 -0.08864
 C1354 C 0.20725 0.70707 -0.07393
 C1355 C 0.21560 0.71540 -0.05684
 C1356 C 0.22303 0.72281 -0.04256
 C1357 C 0.20007 0.20007 0.41139
 C1358 C 0.20701 0.20701 0.42615
 C1359 C 0.21531 0.21531 0.44327
 C1360 C 0.22270 0.22270 0.45759
 C1361 C 0.30010 0.41122 0.70026
 C1362 C 0.29317 0.42597 0.70731
 C1363 C 0.28481 0.44308 0.71566
 C1364 C 0.27734 0.45739 0.72305
 C1365 C 0.30036 0.91147 0.20002
 C1366 C 0.29341 0.92621 0.20706
 C1367 C 0.28504 0.94330 0.21542
 C1368 C 0.27754 0.95757 0.22285
 C1369 C 0.80031 0.41154 0.20014
 C1370 C 0.79337 0.42628 0.20719
 C1371 C 0.78500 0.44337 0.21556
 C1372 C 0.77749 0.45764 0.22299
 C1373 C 0.80039 0.91174 0.70029
 C1374 C 0.79340 0.92649 0.70733
 C1375 C 0.78493 0.94356 0.71570
 C1376 C 0.77735 0.95781 0.72314
 C1377 C 0.70000 0.58875 0.70057
 C1378 C 0.70693 0.57397 0.70758
 C1379 C 0.71527 0.55682 0.71591
 C1380 C 0.72273 0.54248 0.72330
 C1381 C 0.70002 0.08829 0.20022
 C1382 C 0.70697 0.07355 0.20728
 C1383 C 0.71533 0.05644 0.21566
 C1384 C 0.72282 0.04216 0.22310
 C1385 C 0.19951 0.58854 0.20011
 C1386 C 0.20648 0.57377 0.20711
 C1387 C 0.21491 0.55669 0.21545
 C1388 C 0.22247 0.54243 0.22287
 C1389 C 0.19957 0.08819 0.70042
 C1390 C 0.20659 0.07344 0.70744
 C1391 C 0.21510 0.05635 0.71580
 C1392 C 0.22270 0.04209 0.72322
 C1393 C 0.30005 0.58873 0.29945
 C1394 C 0.29312 0.57397 0.29245
 C1395 C 0.28478 0.55684 0.28417
 C1396 C 0.27733 0.54252 0.27681
 C1397 C 0.30019 0.08839 0.79963
 C1398 C 0.29330 0.07360 0.79267
 C1399 C 0.28501 0.05643 0.78442
 C1400 C 0.27760 0.04208 0.77709
 C1401 C 0.80039 0.58866 0.79985
 C1402 C 0.79343 0.57390 0.79283
 C1403 C 0.78505 0.55677 0.78451
 C1404 C 0.77757 0.54245 0.77714
 C1405 C 0.80044 0.08834 0.29966
 C1406 C 0.79350 0.07359 0.29267
 C1407 C 0.78514 0.05648 0.28438
 C1408 C 0.77767 0.04217 0.27703
 C1409 C 0.69984 0.41131 0.29959
 C1410 C 0.70678 0.42606 0.29257
 C1411 C 0.71515 0.44317 0.28427
 C1412 C 0.72262 0.45749 0.27692
 C1413 C 0.69986 0.91147 0.79974
 C1414 C 0.70679 0.92622 0.79273
 C1415 C 0.71510 0.94337 0.78444
 C1416 C 0.72252 0.95772 0.77710
 C1417 C 0.19966 0.41117 0.79976
 C1418 C 0.20664 0.42590 0.79271
 C1419 C 0.21503 0.44300 0.78435
 C1420 C 0.22251 0.45731 0.77695
 C1421 C 0.19982 0.91135 0.29937
 C1422 C 0.20677 0.92609 0.29238
 C1423 C 0.21513 0.94321 0.28410
 C1424 C 0.22261 0.95752 0.27675
 C1425 C 0.41114 0.30013 0.70032
 C1426 C 0.42588 0.29317 0.70737
 C1427 C 0.44299 0.28479 0.71573
 C1428 C 0.45729 0.27729 0.72313
 C1429 C 0.41135 0.80035 0.20026
 C1430 C 0.42610 0.79342 0.20731
 C1431 C 0.44322 0.78507 0.21566
 C1432 C 0.45752 0.77759 0.22306
 C1433 C 0.91128 0.30039 0.20024
 C1434 C 0.92604 0.29345 0.20727
 C1435 C 0.94316 0.28510 0.21561
 C1436 C 0.95747 0.27762 0.22300
 C1437 C 0.91144 0.80059 0.70032
 C1438 C 0.92621 0.79363 0.70731
 C1439 C 0.94332 0.78523 0.71562
 C1440 C 0.95762 0.77771 0.72301
 C1441 C 0.58885 0.30022 0.29947
 C1442 C 0.57413 0.29321 0.29244
 C1443 C 0.55703 0.28475 0.28413
 C1444 C 0.54273 0.27720 0.27677
 C1445 C 0.58871 0.80055 0.79987
 C1446 C 0.57396 0.79356 0.79284
 C1447 C 0.55685 0.78515 0.78452
 C1448 C 0.54254 0.77765 0.77715
 C1449 C 0.08850 0.30012 0.79977
 C1450 C 0.07377 0.29317 0.79270
 C1451 C 0.05665 0.28481 0.78433
 C1452 C 0.04234 0.27734 0.77693
 C1453 C 0.08871 0.80043 0.29939
 C1454 C 0.07395 0.79346 0.29238
 C1455 C 0.05681 0.78508 0.28409
 C1456 C 0.04249 0.77758 0.27674
 C1457 C 0.58881 0.69997 0.70062
 C1458 C 0.57403 0.70693 0.70764
 C1459 C 0.55689 0.71530 0.71596
 C1460 C 0.54255 0.72279 0.72334
 C1461 C 0.58892 0.19942 0.20035
 C1462 C 0.57415 0.20637 0.20737
 C1463 C 0.55701 0.21473 0.21569
 C1464 C 0.54269 0.22222 0.22306
 C1465 C 0.08856 0.69971 0.20026
 C1466 C 0.07379 0.70667 0.20727
 C1467 C 0.05667 0.71508 0.21559
 C1468 C 0.04237 0.72261 0.22299
 C1469 C 0.08844 0.19942 0.70049
 C1470 C 0.07366 0.20640 0.70748
 C1471 C 0.05654 0.21484 0.71577
 C1472 C 0.04224 0.22239 0.72314
 C1473 C 0.41113 0.69974 0.29942
 C1474 C 0.42589 0.70674 0.29244
 C1475 C 0.44303 0.71515 0.28417
 C1476 C 0.45736 0.72267 0.27684
 C1477 C 0.41109 0.19944 0.79962
 C1478 C 0.42585 0.20644 0.79264
 C1479 C 0.44296 0.21489 0.78436
 C1480 C 0.45727 0.22244 0.77700
 C1481 C 0.91133 0.69990 0.79968
 C1482 C 0.92606 0.70689 0.79263
 C1483 C 0.94317 0.71530 0.78429
 C1484 C 0.95747 0.72282 0.77690
 C1485 C 0.91129 0.19957 0.29948
 C1486 C 0.92601 0.20660 0.29245
 C1487 C 0.94309 0.21507 0.28412
 C1488 C 0.95738 0.22263 0.27676
 C1489 C 0.29971 0.29977 0.58867
 C1490 C 0.29275 0.29279 0.57395
 C1491 C 0.28444 0.28444 0.55686
 C1492 C 0.27703 0.27701 0.54257
 C1493 C 0.30007 0.79998 0.08846
 C1494 C 0.29311 0.79297 0.07374
 C1495 C 0.28481 0.78460 0.05665
 C1496 C 0.27742 0.77716 0.04236
 C1497 C 0.79991 0.30013 0.08850
 C1498 C 0.79292 0.29314 0.07379
 C1499 C 0.78458 0.28480 0.05671
 C1500 C 0.77715 0.27737 0.04242
 C1501 C 0.79997 0.80018 0.58863
 C1502 C 0.79297 0.79318 0.57393
 C1503 C 0.78462 0.78483 0.55685
 C1504 C 0.77719 0.77741 0.54257
 C1505 C 0.29971 0.70003 0.41120
 C1506 C 0.29276 0.70704 0.42593
 C1507 C 0.28447 0.71543 0.44303
 C1508 C 0.27709 0.72289 0.45734
 C1509 C 0.29965 0.19970 0.91145
 C1510 C 0.29268 0.20670 0.92618
 C1511 C 0.28438 0.21506 0.94328
 C1512 C 0.27700 0.22252 0.95759
 C1513 C 0.79995 0.70012 0.91152
 C1514 C 0.79298 0.70709 0.92626
 C1515 C 0.78464 0.71542 0.94336
 C1516 C 0.77722 0.72285 0.95766
 C1517 C 0.79983 0.19975 0.41124
 C1518 C 0.79286 0.20672 0.42599
 C1519 C 0.78454 0.21506 0.44310
 C1520 C 0.77713 0.22249 0.45740
 C1521 C 0.70028 0.29987 0.41120
 C1522 C 0.70723 0.29288 0.42595
 C1523 C 0.71551 0.28451 0.44307
 C1524 C 0.72288 0.27705 0.45737
 C1525 C 0.70028 0.80016 0.91150
 C1526 C 0.70724 0.79319 0.92624
 C1527 C 0.71555 0.78485 0.94336
 C1528 C 0.72295 0.77740 0.95766
 C1529 C 0.19999 0.29974 0.91146
 C1530 C 0.20698 0.29279 0.92621
 C1531 C 0.21532 0.28447 0.94332
 C1532 C 0.22274 0.27706 0.95762
 C1533 C 0.20012 0.80015 0.41120
 C1534 C 0.20710 0.79318 0.42594
 C1535 C 0.21543 0.78485 0.44305
 C1536 C 0.22285 0.77743 0.45735
 C1537 C 0.70021 0.70019 0.58884
 C1538 C 0.70718 0.70720 0.57411
 C1539 C 0.71550 0.71557 0.55700
 C1540 C 0.72290 0.72301 0.54270
 C1541 C 0.70035 0.19989 0.08859
 C1542 C 0.70731 0.20694 0.07388
 C1543 C 0.71561 0.21536 0.05679
 C1544 C 0.72298 0.22285 0.04250
 C1545 C 0.20013 0.70013 0.08851
 C1546 C 0.20715 0.70714 0.07381
 C1547 C 0.21553 0.71549 0.05673
 C1548 C 0.22299 0.72290 0.04244
 C1549 C 0.19992 0.19985 0.58872
 C1550 C 0.20691 0.20687 0.57401
 C1551 C 0.21525 0.21524 0.55693
 C1552 C 0.22267 0.22267 0.54263
   
