data_POSCAR
  _audit_creation_date              2014-09-24
  _audit_creation_method            'ToBaCCo'
  _symmetry_space_group_name_H-M    'P1'
  _symmetry_Int_Tables_number       1
  _symmetry_cell_setting            triclinic
  loop_
  _symmetry_equiv_pos_as_xyz
 x,y,z
_cell_length_a 43.7329
_cell_length_b 47.3366
_cell_length_c 58.9971
_cell_angle_alpha 90.004200
_cell_angle_beta 90.004000
_cell_angle_gamma 90.079300
loop_
  _atom_site_label
  _atom_site_type_symbol
  _atom_site_fract_x
  _atom_site_fract_y
  _atom_site_fract_z
Zr1 Zr 0.24651 0.24526 0.28583
 O2 O 0.27070 0.26642 0.31189
 O3 O 0.21458 0.22173 0.30449
 O4 O 0.21785 0.27334 0.30356
 O5 O 0.30069 0.19318 0.27835
 O6 O 0.19512 0.29960 0.27588
 O7 O 0.27353 0.21702 0.30519
 O8 O 0.18715 0.19860 0.27729
 O9 O 0.20692 0.24815 0.26598
 O10 O 0.24461 0.20825 0.26661
 O11 O 0.25176 0.28231 0.26644
 O12 O 0.28800 0.24416 0.26756
 Zr13 Zr 0.25094 0.24621 0.20681
 Zr14 Zr 0.21320 0.28378 0.24538
 Zr15 Zr 0.28432 0.20804 0.24715
 Zr16 Zr 0.20623 0.21175 0.24609
 O17 O 0.33272 0.20839 0.24756
 O18 O 0.15908 0.22207 0.24519
 O19 O 0.24581 0.20882 0.22593
 O20 O 0.20983 0.24746 0.22527
 O21 O 0.25294 0.28361 0.22567
 O22 O 0.29023 0.24361 0.22687
 C23 C 0.19332 0.20473 0.29808
 C24 C 0.29369 0.19862 0.29907
 C25 C 0.19973 0.29305 0.29678
 O26 O 0.16498 0.28337 0.24257
 O27 O 0.20100 0.30190 0.21399
 O28 O 0.22604 0.27569 0.18745
 C29 C 0.20809 0.29597 0.19332
 O30 O 0.31175 0.29471 0.27694
 Zr31 Zr 0.29123 0.27993 0.24650
 O32 O 0.28160 0.27095 0.18806
 O33 O 0.22026 0.32795 0.24722
 O34 O 0.28685 0.32454 0.24662
 O35 O 0.33885 0.27152 0.24614
 O36 O 0.30842 0.29478 0.21518
 C37 C 0.30202 0.28888 0.19437
 O38 O 0.22559 0.22598 0.18087
 O39 O 0.27711 0.16383 0.24771
 O40 O 0.27789 0.21676 0.18888
 O41 O 0.29993 0.19027 0.21673
 O42 O 0.20849 0.16702 0.24720
 O43 O 0.18848 0.19419 0.21564
 C44 C 0.29549 0.19672 0.19582
 H45 H 0.24336 0.19091 0.27595
 H46 H 0.19194 0.24838 0.21501
 H47 H 0.30933 0.24210 0.21795
 H48 H 0.25308 0.29921 0.27628
 H49 H 0.14750 0.20474 0.24913
 H50 H 0.15826 0.30335 0.24295
 H51 H 0.19990 0.33695 0.24583
 H52 H 0.30711 0.33258 0.24274
 H53 H 0.18765 0.15991 0.25058
 H54 H 0.29755 0.15493 0.24889
 H55 H 0.33948 0.18842 0.24726
 H56 H 0.34945 0.28943 0.24233
 H57 H 0.16985 0.18310 0.21911
 H58 H 0.23434 0.23218 0.16616
 H59 H 0.26197 0.25998 0.32654
 H60 H 0.32667 0.30980 0.27332
 Zr61 Zr 0.75058 0.74675 0.29123
 O62 O 0.72630 0.72451 0.31668
 O63 O 0.78189 0.76984 0.31081
 O64 O 0.77902 0.71786 0.30828
 O65 O 0.69892 0.80160 0.28542
 O66 O 0.80010 0.69132 0.28008
 O67 O 0.72324 0.77358 0.31120
 O68 O 0.81257 0.79055 0.28436
 O69 O 0.79014 0.74308 0.27152
 O70 O 0.75434 0.78455 0.27315
 O71 O 0.74373 0.71072 0.27102
 O72 O 0.70930 0.75060 0.27296
 Zr73 Zr 0.74647 0.74921 0.21247
 Zr74 Zr 0.78227 0.70859 0.25002
 Zr75 Zr 0.71482 0.78751 0.25360
 Zr76 Zr 0.79271 0.78021 0.25269
 O77 O 0.66648 0.78928 0.25324
 O78 O 0.83931 0.76802 0.25127
 O79 O 0.75344 0.78562 0.23251
 O80 O 0.78742 0.74554 0.23091
 O81 O 0.74262 0.71121 0.23032
 O82 O 0.70725 0.75287 0.23248
 C83 C 0.80486 0.78524 0.30502
 C84 C 0.70462 0.79356 0.30586
 C85 C 0.79641 0.69783 0.30109
 O86 O 0.83042 0.70697 0.24688
 O87 O 0.79347 0.69108 0.21824
 O88 O 0.76969 0.71927 0.19237
 C89 C 0.78664 0.69805 0.19773
 O90 O 0.68275 0.70199 0.28142
 Zr91 Zr 0.70446 0.71574 0.25114
 O92 O 0.71406 0.72726 0.19302
 O93 O 0.77295 0.66473 0.25104
 O94 O 0.70617 0.67097 0.25124
 O95 O 0.65723 0.72569 0.24979
 O96 O 0.68810 0.70147 0.21945
 C97 C 0.69405 0.70871 0.19886
 O98 O 0.77310 0.76921 0.18713
 O99 O 0.72414 0.83130 0.25596
 O100 O 0.72131 0.78029 0.19523
 O101 O 0.70184 0.80804 0.22337
 O102 O 0.79282 0.82489 0.25538
 O103 O 0.81134 0.79847 0.22280
 C104 C 0.70589 0.80167 0.20235
 H105 H 0.75623 0.80137 0.28303
 H106 H 0.80525 0.74429 0.22061
 H107 H 0.68838 0.75556 0.22347
 H108 H 0.74169 0.69357 0.28052
 H109 H 0.85173 0.78461 0.25579
 H110 H 0.83615 0.68672 0.24689
 H111 H 0.79283 0.65491 0.24942
 H112 H 0.68548 0.66398 0.24727
 H113 H 0.81397 0.83081 0.25913
 H114 H 0.70413 0.84100 0.25708
 H115 H 0.66086 0.80955 0.25351
 H116 H 0.64614 0.70809 0.24583
 H117 H 0.83033 0.80883 0.22663
 H118 H 0.76418 0.76396 0.17225
 H119 H 0.73506 0.73018 0.33152
 H120 H 0.66689 0.68778 0.27769
 Zr121 Zr 0.74909 0.25595 -0.29462
 O122 O 0.72589 0.27923 -0.31999
 O123 O 0.77969 0.23214 -0.31429
 O124 O 0.77866 0.28425 -0.31129
 O125 O 0.69535 0.20259 -0.28949
 O126 O 0.80040 0.30993 -0.28281
 O127 O 0.72080 0.23031 -0.31492
 O128 O 0.80952 0.21048 -0.28781
 O129 O 0.78861 0.25825 -0.27472
 O130 O 0.75135 0.21783 -0.27686
 O131 O 0.74340 0.29189 -0.27410
 O132 O 0.70757 0.25308 -0.27651
 Zr133 Zr 0.74438 0.25261 -0.21588
 Zr134 Zr 0.78186 0.29268 -0.25295
 Zr135 Zr 0.71159 0.21576 -0.25748
 Zr136 Zr 0.78970 0.22083 -0.25618
 O137 O 0.66321 0.21539 -0.25723
 O138 O 0.83671 0.23160 -0.25438
 O139 O 0.75012 0.21628 -0.23622
 O140 O 0.78555 0.25535 -0.23415
 O141 O 0.74202 0.29094 -0.23340
 O142 O 0.70516 0.25031 -0.23605
 C143 C 0.80216 0.21616 -0.30847
 C144 C 0.70143 0.21080 -0.30984
 C145 C 0.79662 0.30376 -0.30388
 O146 O 0.83004 0.29288 -0.24975
 O147 O 0.79364 0.30931 -0.22097
 O148 O 0.76866 0.28150 -0.19542
 C149 C 0.78649 0.30223 -0.20054
 O150 O 0.68285 0.30260 -0.28459
 Zr151 Zr 0.70385 0.28776 -0.25438
 O152 O 0.71266 0.27520 -0.19634
 O153 O 0.77411 0.33679 -0.25353
 O154 O 0.70721 0.33245 -0.25405
 O155 O 0.65627 0.27910 -0.25332
 O156 O 0.68773 0.30201 -0.22260
 C157 C 0.69329 0.29433 -0.20206
 O158 O 0.77007 0.23150 -0.19062
 O159 O 0.71929 0.17176 -0.26027
 O160 O 0.71805 0.22198 -0.19903
 O161 O 0.69785 0.19511 -0.22748
 O162 O 0.78821 0.17622 -0.25935
 O163 O 0.80730 0.20160 -0.22637
 C164 C 0.70204 0.20107 -0.20640
 H165 H 0.75269 0.20111 -0.28688
 H166 H 0.80335 0.25594 -0.22379
 H167 H 0.68616 0.24801 -0.22712
 H168 H 0.74203 0.30921 -0.28345
 H169 H 0.84855 0.21469 -0.25896
 H170 H 0.83650 0.31296 -0.24953
 H171 H 0.79433 0.34602 -0.25176
 H172 H 0.68677 0.33998 -0.25006
 H173 H 0.80917 0.16975 -0.26303
 H174 H 0.69894 0.16267 -0.26152
 H175 H 0.65686 0.19530 -0.25769
 H176 H 0.64579 0.29693 -0.24923
 H177 H 0.82591 0.19070 -0.23019
 H178 H 0.76123 0.23678 -0.17572
 H179 H 0.73455 0.27350 -0.33484
 H180 H 0.66748 0.31719 -0.28077
 Zr181 Zr 0.24466 0.75454 -0.28552
 O182 O 0.26880 0.73340 -0.31158
 O183 O 0.21297 0.77816 -0.30423
 O184 O 0.21582 0.72678 -0.30347
 O185 O 0.29938 0.80611 -0.27758
 O186 O 0.19239 0.70067 -0.27597
 O187 O 0.27225 0.78276 -0.30462
 O188 O 0.18590 0.80160 -0.27725
 O189 O 0.20487 0.75191 -0.26587
 O190 O 0.24307 0.79149 -0.26625
 O191 O 0.24916 0.71734 -0.26622
 O192 O 0.28599 0.75512 -0.26706
 Zr193 Zr 0.24836 0.75313 -0.20646
 Zr194 Zr 0.21043 0.71616 -0.24533
 Zr195 Zr 0.28257 0.79115 -0.24657
 Zr196 Zr 0.20449 0.78824 -0.24593
 O197 O 0.33097 0.79037 -0.24679
 O198 O 0.15718 0.77840 -0.24531
 O199 O 0.24390 0.79065 -0.22552
 O200 O 0.20741 0.75242 -0.22516
 O201 O 0.24998 0.71578 -0.22542
 O202 O 0.28781 0.75545 -0.22636
 C203 C 0.19177 0.79543 -0.29812
 C204 C 0.29257 0.80111 -0.29843
 C205 C 0.19731 0.70726 -0.29683
 O206 O 0.16218 0.71699 -0.24280
 O207 O 0.19757 0.69814 -0.21401
 O208 O 0.22261 0.72397 -0.18732
 C209 C 0.20428 0.70388 -0.19319
 O210 O 0.30896 0.70428 -0.27648
 Zr211 Zr 0.28847 0.71921 -0.24609
 O212 O 0.27852 0.72795 -0.18766
 O213 O 0.21685 0.67192 -0.24722
 O214 O 0.28340 0.67465 -0.24629
 O215 O 0.33621 0.72714 -0.24557
 O216 O 0.30533 0.70418 -0.21476
 C217 C 0.29888 0.71000 -0.19396
 O218 O 0.22320 0.77357 -0.18056
 O219 O 0.27598 0.83543 -0.24694
 O220 O 0.27568 0.78217 -0.18833
 O221 O 0.29820 0.80858 -0.21605
 O222 O 0.20743 0.83295 -0.24691
 O223 O 0.18665 0.80591 -0.21557
 C224 C 0.29363 0.80205 -0.19518
 H225 H 0.24211 0.80887 -0.27556
 H226 H 0.18940 0.75166 -0.21500
 H227 H 0.30688 0.75673 -0.21738
 H228 H 0.25032 0.70047 -0.27610
 H229 H 0.14590 0.79584 -0.24933
 H230 H 0.15518 0.69708 -0.24324
 H231 H 0.19634 0.66313 -0.24594
 H232 H 0.30351 0.66639 -0.24233
 H233 H 0.18677 0.84027 -0.25051
 H234 H 0.29654 0.84416 -0.24801
 H235 H 0.33800 0.81027 -0.24637
 H236 H 0.34654 0.70912 -0.24180
 H237 H 0.16824 0.81723 -0.21914
 H238 H 0.23173 0.76719 -0.16584
 H239 H 0.26027 0.74005 -0.32622
 H240 H 0.32360 0.68900 -0.27283
 Zr241 Zr 1.24970 1.25010 0.79157
 O242 O 1.22167 1.23145 0.81674
 O243 O 1.28195 1.27162 0.81143
 O244 O 1.27447 1.22027 0.81071
 O245 O 1.20349 1.30821 0.78202
 O246 O 1.29482 1.19087 0.78411
 O247 O 1.22462 1.28066 0.80959
 O248 O 1.31531 1.28920 0.78532
 O249 O 1.28993 1.24262 0.77339
 O250 O 1.25760 1.28638 0.77226
 O251 O 1.24098 1.21350 0.77242
 O252 O 1.20991 1.25562 0.77179
 Zr253 Zr 1.25034 1.24805 0.71263
 Zr254 Zr 1.28042 1.20756 0.75291
 Zr255 Zr 1.21957 1.29081 0.75131
 Zr256 Zr 1.29661 1.27829 0.75334
 O257 O 1.17155 1.29576 0.74962
 O258 O 1.34210 1.26288 0.75401
 O259 O 1.25909 1.28506 0.73161
 O260 O 1.28973 1.24284 0.73266
 O261 O 1.24233 1.21156 0.73172
 O262 O 1.21042 1.25557 0.73115
 C263 C 1.30627 1.28530 0.80591
 C264 C 1.20804 1.30156 0.80295
 C265 C 1.29054 1.19873 0.80474
 O266 O 1.32846 1.20247 0.75180
 O267 O 1.29270 1.18769 0.72239
 O268 O 1.27283 1.21559 0.69459
 C269 C 1.28799 1.19385 0.70143
 O270 O 1.17905 1.20884 0.78084
 Zr271 Zr 1.20345 1.21996 0.75099
 O272 O 1.21822 1.22617 0.69287
 O273 O 1.26743 1.16456 0.75493
 O274 O 1.20169 1.17521 0.75214
 O275 O 1.15732 1.23330 0.74826
 O276 O 1.18706 1.20583 0.71918
 C277 C 1.19553 1.21037 0.69856
 O278 O 1.27966 1.26511 0.68755
 O279 O 1.23233 1.33394 0.75202
 O280 O 1.22802 1.27935 0.69340
 O281 O 1.20956 1.31000 0.71996
 O282 O 1.30012 1.32296 0.75435
 O283 O 1.31852 1.29344 0.72355
 C284 C 1.21382 1.30203 0.69933
 H285 H 1.26043 1.30362 0.78153
 H286 H 1.30804 1.23981 0.72310
 H287 H 1.19231 1.25892 0.72145
 H288 H 1.23698 1.19710 0.78241
 H289 H 1.35555 1.27881 0.75845
 H290 H 1.33253 1.18192 0.75281
 H291 H 1.28653 1.15332 0.75451
 H292 H 1.18078 1.16943 0.74760
 H293 H 1.32140 1.32770 0.75873
 H294 H 1.21314 1.34504 0.75218
 H295 H 1.16756 1.31634 0.74885
 H296 H 1.14489 1.21646 0.74437
 H297 H 1.33804 1.30272 0.72771
 H298 H 1.27134 1.25936 0.67260
 H299 H 1.22998 1.23727 0.83168
 H300 H 1.16247 1.19542 0.77694
 Zr301 Zr 0.74674 0.74746 0.78553
 O302 O 0.77137 0.77052 0.81030
 O303 O 0.71577 0.72472 0.80560
 O304 O 0.71794 0.77623 0.80229
 O305 O 0.79941 0.69353 0.78033
 O306 O 0.69537 0.80137 0.77387
 O307 O 0.77360 0.72054 0.80596
 O308 O 0.68632 0.70180 0.77956
 O309 O 0.70689 0.74933 0.76592
 O310 O 0.74432 0.70923 0.76796
 O311 O 0.75188 0.78323 0.76468
 O312 O 0.78807 0.74481 0.76721
 Zr313 Zr 0.75029 0.74313 0.70671
 Zr314 Zr 0.71308 0.78355 0.74384
 Zr315 Zr 0.78392 0.70735 0.74841
 Zr316 Zr 0.70571 0.71168 0.74766
 O317 O 0.83229 0.70771 0.74914
 O318 O 0.65862 0.72209 0.74602
 O319 O 0.74510 0.70709 0.72744
 O320 O 0.70939 0.74589 0.72537
 O321 O 0.75263 0.78180 0.72389
 O322 O 0.78976 0.74162 0.72664
 C323 C 0.69347 0.70837 0.80011
 C324 C 0.79255 0.70073 0.80076
 C325 C 0.69982 0.79562 0.79497
 O326 O 0.66481 0.78339 0.74153
 O327 O 0.70005 0.79918 0.71172
 O328 O 0.72405 0.77040 0.68632
 C329 C 0.70610 0.79100 0.69136
 O330 O 0.81210 0.79550 0.77442
 Zr331 Zr 0.79111 0.77921 0.74466
 O332 O 0.78060 0.76688 0.68664
 O333 O 0.72069 0.82770 0.74354
 O334 O 0.78713 0.82381 0.74313
 O335 O 0.83874 0.77081 0.74414
 O336 O 0.80783 0.79207 0.71269
 C337 C 0.80120 0.78509 0.69214
 O338 O 0.72509 0.72087 0.68176
 O339 O 0.77637 0.66325 0.75027
 O340 O 0.77706 0.71255 0.68994
 O341 O 0.79954 0.68778 0.71861
 O342 O 0.70717 0.66713 0.75131
 O343 O 0.68804 0.69183 0.71810
 C344 C 0.79475 0.69292 0.69748
 H345 H 0.74284 0.69253 0.77799
 H346 H 0.69133 0.74605 0.71526
 H347 H 0.80875 0.73954 0.71767
 H348 H 0.75337 0.80070 0.77384
 H349 H 0.64693 0.70518 0.75086
 H350 H 0.65826 0.80341 0.74114
 H351 H 0.70038 0.83675 0.74201
 H352 H 0.80742 0.83144 0.73882
 H353 H 0.68621 0.66070 0.75513
 H354 H 0.79672 0.65427 0.75182
 H355 H 0.83897 0.68771 0.74955
 H356 H 0.84926 0.78853 0.73971
 H357 H 0.66936 0.68108 0.72206
 H358 H 0.73361 0.72616 0.66675
 H359 H 0.76288 0.76519 0.82530
 H360 H 0.82696 0.81041 0.77021
 Zr361 Zr 1.24988 0.75226 0.20680
 O362 O 1.22173 0.77110 0.18183
 O363 O 1.28143 0.73018 0.18669
 O364 O 1.27467 0.78175 0.18729
 O365 O 1.20277 0.69483 0.21710
 O366 O 1.29582 0.81116 0.21360
 O367 O 1.22372 0.72203 0.18920
 O368 O 1.31507 0.71260 0.21258
 O369 O 1.29057 0.75944 0.22453
 O370 O 1.25762 0.71600 0.22616
 O371 O 1.24205 0.78902 0.22595
 O372 O 1.21043 0.74729 0.22708
 Zr373 Zr 1.25218 0.75480 0.28579
 Zr374 Zr 1.28196 0.79469 0.24499
 Zr375 Zr 1.21998 0.71211 0.24756
 Zr376 Zr 1.29711 0.72383 0.24467
 O377 O 1.17195 0.70762 0.24997
 O378 O 1.34283 0.73872 0.24348
 O379 O 1.25995 0.71759 0.26682
 O380 O 1.29120 0.75947 0.26528
 O381 O 1.24428 0.79124 0.26665
 O382 O 1.21178 0.74752 0.26773
 C383 C 1.30571 0.71638 0.19206
 C384 C 1.20684 0.70143 0.19610
 C385 C 1.29104 0.80324 0.19305
 O386 O 1.33010 0.79926 0.24542
 O387 O 1.29537 0.81461 0.27521
 O388 O 1.27552 0.78726 0.30339
 C389 C 1.29097 0.80873 0.29625
 O390 O 1.18005 0.79447 0.21828
 Zr391 Zr 1.20489 0.78309 0.24786
 O392 O 1.22069 0.77695 0.30585
 O393 O 1.26955 0.83782 0.24303
 O394 O 1.20381 0.82785 0.24668
 O395 O 1.15865 0.77012 0.25103
 O396 O 1.18923 0.79739 0.27982
 C397 C 1.19802 0.79283 0.30037
 O398 O 1.28180 0.73770 0.31063
 O399 O 1.23207 0.66884 0.24672
 O400 O 1.22993 0.72370 0.30536
 O401 O 1.21059 0.69309 0.27907
 O402 O 1.29988 0.67911 0.24377
 O403 O 1.31936 0.70860 0.27428
 C404 C 1.21542 0.70107 0.29963
 H405 H 1.25997 0.69869 0.21691
 H406 H 1.30976 0.76237 0.27461
 H407 H 1.19384 0.74435 0.27764
 H408 H 1.23807 0.80541 0.21596
 H409 H 1.35595 0.72261 0.23900
 H410 H 1.33448 0.81976 0.24426
 H411 H 1.28881 0.84887 0.24314
 H412 H 1.18310 0.83387 0.25147
 H413 H 1.32098 0.67411 0.23918
 H414 H 1.21270 0.65795 0.24684
 H415 H 1.16769 0.68708 0.25085
 H416 H 1.14650 0.78705 0.25507
 H417 H 1.33860 0.69902 0.26994
 H418 H 1.27384 0.74364 0.32564
 H419 H 1.22965 0.76507 0.16683
 H420 H 1.16373 0.80803 0.22237
 Zr421 Zr 0.74428 1.25062 0.21439
 O422 O 0.76719 1.22659 0.18936
 O423 O 0.71427 1.27482 0.19472
 O424 O 0.71348 1.22343 0.19789
 O425 O 0.80159 1.30055 0.21888
 O426 O 0.69002 1.19925 0.22649
 O427 O 0.77155 1.27672 0.19364
 O428 O 0.68711 1.29940 0.22109
 O429 O 0.70481 1.25065 0.23443
 O430 O 0.74476 1.28883 0.23202
 O431 O 0.74772 1.21455 0.23509
 O432 O 0.78616 1.25098 0.23216
 Zr433 Zr 0.74981 1.25441 0.29312
 Zr434 Zr 0.70940 1.21605 0.25636
 Zr435 Zr 0.78490 1.28852 0.25102
 Zr436 Zr 0.70645 1.28825 0.25276
 O437 O 0.83320 1.28579 0.25041
 O438 O 0.65882 1.28027 0.25488
 O439 O 0.74656 1.29070 0.27245
 O440 O 0.70841 1.25377 0.27494
 O441 O 0.74942 1.21576 0.27585
 O442 O 0.78894 1.25401 0.27277
 C443 C 0.69331 1.29244 0.20046
 C444 C 0.79294 1.29441 0.19859
 C445 C 0.69443 1.20487 0.20536
 O446 O 0.66130 1.21871 0.25941
 O447 O 0.69653 1.20057 0.28855
 O448 O 0.72271 1.22802 0.31376
 C449 C 0.70367 1.20814 0.30887
 O450 O 0.80686 1.19895 0.22474
 Zr451 Zr 0.78758 1.21646 0.25467
 O452 O 0.77929 1.22941 0.31281
 O453 O 0.71416 1.17157 0.25627
 O454 O 0.78081 1.17214 0.25631
 O455 O 0.83563 1.22260 0.25454
 O456 O 0.80423 1.20281 0.28646
 C457 C 0.79862 1.21021 0.30708
 O458 O 0.72628 1.27754 0.31840
 O459 O 0.78025 1.33290 0.24863
 O460 O 0.77839 1.28390 0.30958
 O461 O 0.80183 1.30754 0.28068
 O462 O 0.71057 1.33268 0.24926
 O463 O 0.69080 1.30877 0.28262
 C464 C 0.79694 1.30277 0.30185
 H465 H 0.74419 1.30562 0.22204
 H466 H 0.69061 1.25440 0.28530
 H467 H 0.80818 1.25520 0.28156
 H468 H 0.74795 1.19708 0.22587
 H469 H 0.64814 1.29779 0.25024
 H470 H 0.65351 1.19905 0.25977
 H471 H 0.69335 1.16356 0.25807
 H472 H 0.80066 1.16348 0.26044
 H473 H 0.68995 1.34018 0.24579
 H474 H 0.80116 1.34072 0.24693
 H475 H 0.84109 1.30541 0.24974
 H476 H 0.84521 1.20446 0.25897
 H477 H 0.67262 1.32037 0.27898
 H478 H 0.73483 1.27182 0.33329
 H479 H 0.75870 1.23229 0.17446
 H480 H 0.82100 1.18345 0.22886
 O481 O 0.49479 1.04950 0.02769
 O482 O 0.52355 0.95252 0.02723
 O483 O 0.45790 0.98453 0.02653
 O484 O 0.56164 1.01808 0.02626
 O485 O 0.47278 0.94617 0.01231
 O486 O 0.54572 1.05568 0.01175
 O487 O 0.56637 0.97032 0.01678
 O488 O 0.45249 1.03205 0.01637
 C489 C 0.46725 1.04523 0.03112
 C490 C 0.55094 0.95693 0.03116
 C491 C 0.45933 0.95865 0.02791
 C492 C 0.55807 1.04374 0.02803
 O493 O 0.52278 1.04976 -0.02973
 O494 O 0.49487 0.95251 -0.03002
 O495 O 0.45755 1.01730 -0.02878
 O496 O 0.56152 0.98452 -0.02903
 O497 O 0.54602 0.94673 -0.01444
 O498 O 0.47219 1.05574 -0.01454
 O499 O 0.56590 1.03238 -0.01962
 O500 O 0.45257 0.96971 -0.01854
 Co501 Co 0.50888 1.04750 -0.00113
 Co502 Co 0.50927 0.95469 -0.00130
 Co503 Co 0.46018 1.00092 -0.00112
 Co504 Co 0.55887 1.00132 -0.00139
 O505 O 0.50932 1.00111 -0.00124
 C506 C 0.55013 1.04555 -0.03391
 C507 C 0.46726 0.95648 -0.03328
 C508 C 0.45879 1.04320 -0.03015
 C509 C 0.55846 0.95877 -0.03066
 O510 O 0.99437 0.54954 0.52705
 O511 O 1.02387 0.45254 0.52764
 O512 O 0.95768 0.48522 0.52635
 O513 O 1.06171 0.51788 0.52664
 O514 O 0.97307 0.44665 0.51278
 O515 O 1.04569 0.55556 0.51208
 O516 O 1.06668 0.46999 0.51698
 O517 O 0.95230 0.53256 0.51506
 C518 C 0.96674 0.54537 0.53016
 C519 C 1.05135 0.45670 0.53143
 C520 C 0.96006 0.45944 0.52842
 C521 C 1.05829 0.54359 0.52826
 O522 O 1.02438 0.54944 0.47001
 O523 O 0.99521 0.45220 0.47022
 O524 O 0.95830 0.51643 0.47038
 O525 O 1.06238 0.48420 0.47141
 O526 O 1.04617 0.44648 0.48585
 O527 O 0.97325 0.55509 0.48416
 O528 O 1.06699 0.53215 0.48117
 O529 O 0.95279 0.46904 0.48158
 Co530 Co 1.00938 0.54728 0.49844
 Co531 Co 1.00953 0.45459 0.49901
 Co532 Co 0.96037 0.50081 0.49838
 Co533 Co 1.05932 0.50104 0.49901
 O534 O 1.00968 0.50093 0.49870
 C535 C 1.05196 0.54544 0.46658
 C536 C 0.96764 0.45613 0.46676
 C537 C 0.96048 0.54224 0.46842
 C538 C 1.05909 0.45845 0.46981
 O539 O 1.01514 0.46466 0.04257
 O540 O 1.01253 0.53481 -0.04315
 O541 O 1.02204 0.44800 -0.02661
 O542 O 1.01728 0.55195 0.02602
 O543 O 1.03512 0.48846 -0.03939
 O544 O 1.03316 0.51256 0.03923
 O545 O 1.03161 0.54928 -0.01264
 O546 O 1.03536 0.45162 0.01197
 C547 C 1.03719 0.45367 0.03276
 C548 C 1.03382 0.54708 -0.03341
 C549 C 1.04071 0.46297 -0.03735
 C550 C 1.03671 0.53838 0.03721
 O551 O 0.97562 0.53025 0.04391
 O552 O 0.97938 0.46628 -0.04478
 O553 O 0.97446 0.44426 0.02342
 O554 O 0.96993 0.55198 -0.02441
 O555 O 0.95679 0.51243 -0.03903
 O556 O 0.95722 0.48234 0.03798
 O557 O 0.95642 0.54590 0.01375
 O558 O 0.96043 0.44977 -0.01490
 Co559 Co 0.99528 0.49762 0.03672
 Co560 Co 0.99594 0.50033 -0.03744
 Co561 Co 0.99783 0.45322 -0.00146
 Co562 Co 0.99405 0.54496 0.00056
 O563 O 0.99578 0.49904 -0.00039
 C564 C 0.95406 0.54233 0.03435
 C565 C 0.95821 0.45326 -0.03553
 C566 C 0.95461 0.45651 0.03513
 C567 C 0.95136 0.53783 -0.03599
 O568 O 0.53999 0.97412 0.53661
 O569 O 0.54317 1.02640 0.47416
 O570 O 0.51277 0.94295 0.47544
 O571 O 0.51088 1.05997 0.51976
 O572 O 0.54424 0.97649 0.47067
 O573 O 0.54186 1.02703 0.53037
 O574 O 0.51087 1.05927 0.47860
 O575 O 0.51621 0.94085 0.51758
 C576 C 0.53736 0.94885 0.53078
 C577 C 0.53735 1.05185 0.47318
 C578 C 0.53874 0.95102 0.46948
 C579 C 0.53645 1.05258 0.52775
 O580 O 0.48485 1.02981 0.54603
 O581 O 0.48670 0.97685 0.45224
 O582 O 0.45797 0.95400 0.52077
 O583 O 0.45444 1.03390 0.47929
 O584 O 0.48737 1.02772 0.45339
 O585 O 0.48200 0.97758 0.54733
 O586 O 0.45320 1.03724 0.51945
 O587 O 0.45573 0.96215 0.47830
 Co588 Co 0.51097 1.00223 0.53612
 Co589 Co 0.51391 1.00180 0.46571
 Co590 Co 0.48681 0.95501 0.49803
 Co591 Co 0.48383 1.04362 0.49928
 O592 O 0.49863 1.00030 0.50003
 C593 C 0.45854 1.03653 0.53997
 C594 C 0.46102 0.96685 0.45792
 C595 C 0.46100 0.96092 0.54110
 C596 C 0.46066 1.03404 0.45890
 O597 O 1.05815 1.02298 0.47621
 O598 O 0.94337 1.02071 0.52543
 O599 O 0.96456 1.01687 0.45696
 O600 O 1.03694 1.01397 0.54448
 O601 O 0.94841 1.03404 0.48737
 O602 O 1.05307 1.03356 0.51494
 O603 O 0.98621 1.03323 0.53987
 O604 O 1.01533 1.03675 0.46249
 C605 C 1.04308 1.04086 0.46515
 C606 C 0.95870 1.03809 0.53686
 C607 C 0.95196 1.03676 0.46680
 C608 C 1.04947 1.03467 0.53563
 O609 O 1.05792 0.97618 0.52506
 O610 O 0.94416 0.97713 0.47445
 O611 O 1.03804 0.98506 0.45651
 O612 O 0.96384 0.98119 0.54312
 O613 O 0.94851 0.96385 0.51254
 O614 O 1.05372 0.96542 0.48614
 O615 O 1.01495 0.96193 0.53824
 O616 O 0.98742 0.96511 0.46048
 Co617 Co 1.05059 0.99949 0.50055
 Co618 Co 0.95118 0.99896 0.49998
 Co619 Co 1.00127 1.00081 0.46322
 Co620 Co 1.00050 0.99770 0.53733
 O621 O 1.00087 0.99924 0.50027
 C622 C 1.04282 0.95826 0.53608
 C623 C 0.95989 0.95999 0.46312
 C624 C 1.05053 0.96440 0.46539
 C625 C 0.95181 0.96109 0.53312
 O626 O 0.55345 0.53418 -0.01490
 O627 O 0.44852 0.53498 0.01222
 O628 O 0.48726 0.53361 -0.04040
 O629 O 0.51528 0.53823 0.03718
 O630 O 0.44428 0.52143 -0.02584
 O631 O 0.55817 0.52429 0.02375
 O632 O 0.46450 0.51801 0.04270
 O633 O 0.53812 0.51396 -0.04432
 C634 C 0.55006 0.53501 -0.03560
 C635 C 0.45214 0.53794 0.03277
 C636 C 0.45975 0.53858 -0.03738
 C637 C 0.54298 0.54248 0.03436
 O638 O 0.55367 0.46644 0.01446
 O639 O 0.44891 0.46457 -0.01292
 O640 O 0.51575 0.46221 -0.03789
 O641 O 0.48762 0.46651 0.03976
 O642 O 0.44450 0.47808 0.02518
 O643 O 0.55848 0.47646 -0.02433
 O644 O 0.53819 0.48676 0.04376
 O645 O 0.46478 0.48181 -0.04336
 Co646 Co 0.55089 0.50030 -0.00026
 Co647 Co 0.45159 0.49979 -0.00033
 Co648 Co 0.50147 0.49807 -0.03741
 Co649 Co 0.50139 0.50220 0.03677
 O650 O 0.50132 0.50009 -0.00032
 C651 C 0.55034 0.46576 0.03518
 C652 C 0.45267 0.46169 -0.03347
 C653 C 0.54351 0.45829 -0.03516
 C654 C 0.46019 0.46117 0.03676
 C655 C 0.34813 1.15063 0.14686
 C656 C 0.35729 1.15177 0.16962
 C657 C 0.33981 1.16638 0.18547
 C658 C 0.31303 1.18056 0.17887
 C659 C 0.30394 1.17966 0.15606
 C660 C 0.32121 1.16457 0.14022
 C661 C 0.36650 1.13470 0.13028
 N662 N 0.35376 1.12541 0.11068
 N663 N 0.37015 1.11048 0.09595
 C664 C 0.39995 1.10437 0.10015
 N665 N 0.41279 1.11385 0.11967
 N666 N 0.39633 1.12862 0.13449
 C667 C 0.41783 1.08778 0.08369
 C668 C 0.44995 1.08922 0.08320
 C669 C 0.46641 1.07482 0.06646
 C670 C 0.45093 1.05853 0.05018
 C671 C 0.41895 1.05621 0.05136
 C672 C 0.40259 1.07081 0.06782
 H673 H 0.37782 1.14111 0.17525
 H674 H 0.34759 1.16691 0.20290
 H675 H 0.28342 1.19042 0.15051
 H676 H 0.31368 1.16410 0.12273
 H677 H 0.46227 1.10214 0.09530
 H678 H 0.49107 1.07689 0.06595
 H679 H 0.40636 1.04365 0.03916
 H680 H 0.37790 1.06896 0.06797
 C681 C 0.84646 0.64503 0.64892
 C682 C 0.85573 0.64635 0.67167
 C683 C 0.83848 0.66137 0.68749
 C684 C 0.81184 0.67576 0.68084
 C685 C 0.80252 0.67441 0.65809
 C686 C 0.81953 0.65899 0.64232
 C687 C 0.86484 0.62930 0.63214
 N688 N 0.85218 0.62077 0.61229
 N689 N 0.86867 0.60663 0.59713
 C690 C 0.89855 0.60059 0.60110
 N691 N 0.91130 0.60923 0.62091
 N692 N 0.89472 0.62321 0.63617
 C693 C 0.91664 0.58515 0.58397
 C694 C 0.94878 0.58652 0.58372
 C695 C 0.96541 0.57320 0.56647
 C696 C 0.95012 0.55808 0.54939
 C697 C 0.91809 0.55594 0.55019
 C698 C 0.90156 0.56945 0.56717
 H699 H 0.87627 0.63569 0.67727
 H700 H 0.84640 0.66216 0.70488
 H701 H 0.78210 0.68528 0.65248
 H702 H 0.81186 0.65841 0.62487
 H703 H 0.96100 0.59848 0.59649
 H704 H 0.99010 0.57508 0.56629
 H705 H 0.90562 0.54428 0.53737
 H706 H 0.87687 0.56770 0.56705
 C707 C 0.66018 0.85261 0.15268
 C708 C 0.66642 0.82403 0.14839
 C709 C 0.68197 0.80774 0.16434
 C710 C 0.69097 0.81954 0.18514
 C711 C 0.68475 0.84815 0.18947
 C712 C 0.66982 0.86467 0.17323
 C713 C 0.64314 0.86942 0.13587
 N714 N 0.64764 0.89772 0.13392
 N715 N 0.63249 0.91261 0.11838
 C716 C 0.61199 0.89981 0.10444
 N717 N 0.60736 0.87158 0.10655
 N718 N 0.62272 0.85667 0.12189
 C719 C 0.59551 0.91589 0.08687
 C720 C 0.56691 0.90641 0.07916
 C721 C 0.55199 0.92040 0.06156
 C722 C 0.56569 0.94377 0.05098
 C723 C 0.59403 0.95363 0.05894
 C724 C 0.60868 0.93998 0.07693
 H725 H 0.65939 0.81427 0.13262
 H726 H 0.68631 0.78570 0.16062
 H727 H 0.69153 0.85774 0.20537
 H728 H 0.66516 0.88665 0.17695
 H729 H 0.55616 0.88802 0.08665
 H730 H 0.53013 0.91237 0.05576
 H731 H 0.60494 0.97173 0.05112
 H732 H 0.63075 0.94766 0.08255
 C733 C 1.16868 0.35180 0.64860
 C734 C 1.17423 0.32293 0.64494
 C735 C 1.19011 0.30701 0.66103
 C736 C 1.20014 0.31954 0.68130
 C737 C 1.19500 0.34850 0.68480
 C738 C 1.17973 0.36457 0.66847
 C739 C 1.15062 0.36826 0.63209
 N740 N 1.15422 0.39668 0.63028
 N741 N 1.13772 0.41146 0.61547
 C742 C 1.11668 0.39846 0.60211
 N743 N 1.11296 0.37008 0.60402
 N744 N 1.12967 0.35526 0.61867
 C745 C 1.09879 0.41463 0.58532
 C746 C 1.07025 0.40463 0.57786
 C747 C 1.05412 0.41902 0.56100
 C748 C 1.06661 0.44331 0.55093
 C749 C 1.09483 0.45367 0.55871
 C750 C 1.11062 0.43964 0.57594
 H751 H 1.16614 0.31261 0.62969
 H752 H 1.19356 0.28467 0.65798
 H753 H 1.20253 0.35867 0.70028
 H754 H 1.17570 0.38677 0.67173
 H755 H 1.06050 0.38553 0.58495
 H756 H 1.03242 0.41058 0.55527
 H757 H 1.10485 0.47243 0.55126
 H758 H 1.13258 0.44780 0.58136
 C759 C 0.65593 1.15002 -0.15699
 C760 C 0.66549 1.13805 -0.17758
 C761 C 0.68042 1.15464 -0.19380
 C762 C 0.68669 1.18323 -0.18938
 C763 C 0.67766 1.19498 -0.16859
 C764 C 0.66211 1.17862 -0.15267
 C765 C 0.63920 1.13308 -0.14010
 N766 N 0.61874 1.14565 -0.12607
 N767 N 0.60383 1.13066 -0.11053
 C768 C 0.60896 1.10253 -0.10825
 N769 N 0.62947 1.08991 -0.12226
 N770 N 0.64418 1.10488 -0.13799
 C771 C 0.59306 1.08642 -0.09041
 C772 C 0.60683 1.06274 -0.08034
 C773 C 0.59274 1.04914 -0.06206
 C774 C 0.56438 1.05866 -0.05394
 C775 C 0.55008 1.08161 -0.06464
 C776 C 0.56444 1.09554 -0.08254
 H777 H 0.66087 1.11605 -0.18131
 H778 H 0.68725 1.14511 -0.20970
 H779 H 0.68207 1.21701 -0.16482
 H780 H 0.65512 1.18831 -0.13686
 H781 H 0.62894 1.05535 -0.08609
 H782 H 0.60410 1.03137 -0.05416
 H783 H 0.52819 1.08935 -0.05873
 H784 H 0.55324 1.11361 -0.09013
 C785 C 1.17096 0.65126 0.35069
 C786 C 1.18197 0.63848 0.33082
 C787 C 1.19706 0.65457 0.31441
 C788 C 1.20207 0.68358 0.31782
 C789 C 1.19216 0.69613 0.33809
 C790 C 1.17644 0.68017 0.35427
 C791 C 1.15291 0.63476 0.36720
 N792 N 1.13186 0.64768 0.38054
 N793 N 1.11501 0.63278 0.39507
 C794 C 1.11869 0.60440 0.39694
 N795 N 1.13986 0.59148 0.38368
 N796 N 1.15650 0.60635 0.36898
 C797 C 1.10052 0.58810 0.41350
 C798 C 1.11216 0.56304 0.42287
 C799 C 1.09601 0.54882 0.43983
 C800 C 1.06763 0.55904 0.44734
 C801 C 1.05536 0.58340 0.43728
 C802 C 1.07184 0.59798 0.42069
 H803 H 1.17800 0.61625 0.32762
 H804 H 1.20452 0.64439 0.29893
 H805 H 1.19553 0.71850 0.34105
 H806 H 1.16838 0.69050 0.36952
 H807 H 1.13422 0.55497 0.41765
 H808 H 1.10587 0.53000 0.44729
 H809 H 1.03355 0.59173 0.44281
 H810 H 1.06223 0.61712 0.41360
 C811 C 0.34712 0.84769 -0.14645
 C812 C 0.31988 0.83427 -0.13972
 C813 C 0.30234 0.81924 -0.15546
 C814 C 0.31150 0.81789 -0.17823
 C815 C 0.33868 0.83144 -0.18489
 C816 C 0.35639 0.84599 -0.16915
 C817 C 0.36567 0.86382 -0.13008
 N818 N 0.39555 0.86960 -0.13442
 N819 N 0.41213 0.88481 -0.11995
 C820 C 0.39936 0.89505 -0.10068
 N821 N 0.36952 0.88919 -0.09632
 N822 N 0.35301 0.87382 -0.11070
 C823 C 0.41737 0.91223 -0.08468
 C824 C 0.40228 0.92975 -0.06915
 C825 C 0.41880 0.94496 -0.05312
 C826 C 0.45079 0.94271 -0.05205
 C827 C 0.46611 0.92590 -0.06803
 C828 C 0.44950 0.91088 -0.08434
 H829 H 0.31228 0.83519 -0.12226
 H830 H 0.28153 0.80892 -0.14989
 H831 H 0.34654 0.83053 -0.20228
 H832 H 0.37718 0.85623 -0.17485
 H833 H 0.37759 0.93154 -0.06923
 H834 H 0.40633 0.95791 -0.04115
 H835 H 0.49078 0.92388 -0.06759
 H836 H 0.46169 0.89756 -0.09620
 C837 C 0.84956 0.35099 0.34976
 C838 C 0.85929 0.34838 0.32719
 C839 C 0.84191 0.33306 0.31159
 C840 C 0.81467 0.31966 0.31832
 C841 C 0.80503 0.32209 0.34094
 C842 C 0.82218 0.33781 0.35646
 C843 C 0.86775 0.36748 0.36620
 N844 N 0.85468 0.37732 0.38549
 N845 N 0.87091 0.39230 0.40030
 C846 C 0.90094 0.39796 0.39652
 N847 N 0.91411 0.38801 0.37728
 N848 N 0.89779 0.37317 0.36236
 C849 C 0.91872 0.41434 0.41329
 C850 C 0.95083 0.41280 0.41409
 C851 C 0.96710 0.42688 0.43116
 C852 C 0.95148 0.44293 0.44750
 C853 C 0.91953 0.44533 0.44604
 C854 C 0.90335 0.43108 0.42925
 H855 H 0.88021 0.35839 0.32151
 H856 H 0.85007 0.33140 0.29431
 H857 H 0.78414 0.31201 0.34661
 H858 H 0.81416 0.33937 0.37378
 H859 H 0.96327 0.40006 0.40197
 H860 H 0.99175 0.42477 0.43185
 H861 H 0.90682 0.45772 0.45826
 H862 H 0.87868 0.43300 0.42890
 C863 C 1.16793 0.34772 0.14087
 C864 C 1.18461 0.32335 0.13517
 C865 C 1.19792 0.30664 0.15212
 C866 C 1.19462 0.31379 0.17516
 C867 C 1.17812 0.33827 0.18077
 C868 C 1.16506 0.35502 0.16389
 C869 C 1.15286 0.36525 0.12322
 N870 N 1.13914 0.38990 0.12902
 N871 N 1.12425 0.40517 0.11367
 C872 C 1.12236 0.39657 0.09176
 N873 N 1.13640 0.37205 0.08580
 N874 N 1.15138 0.35672 0.10122
 C875 C 1.10352 0.41285 0.07535
 C876 C 1.10036 0.40441 0.05255
 C877 C 1.07994 0.41852 0.03805
 C878 C 1.06217 0.44101 0.04624
 C879 C 1.06638 0.45010 0.06866
 C880 C 1.08687 0.43638 0.08295
 H881 H 1.18733 0.31714 0.11763
 H882 H 1.21054 0.28796 0.14717
 H883 H 1.17521 0.34456 0.19829
 H884 H 1.15236 0.37358 0.16898
 H885 H 1.11297 0.38646 0.04610
 H886 H 1.07707 0.41107 0.02082
 H887 H 1.05311 0.46747 0.07542
 H888 H 1.08877 0.44371 0.10028
 C889 C 0.66067 0.83423 0.63669
 C890 C 0.67033 0.80615 0.63403
 C891 C 0.68564 0.79227 0.65164
 C892 C 0.69094 0.80600 0.67243
 C893 C 0.68104 0.83400 0.67512
 C894 C 0.66637 0.84805 0.65737
 C895 C 0.64481 0.84930 0.61811
 N896 N 0.64582 0.87790 0.61707
 N897 N 0.63115 0.89176 0.60077
 C898 C 0.61462 0.87770 0.58486
 N899 N 0.61353 0.84903 0.58586
 N900 N 0.62850 0.83509 0.60210
 C901 C 0.59723 0.89385 0.56763
 C902 C 0.57110 0.88258 0.55696
 C903 C 0.55230 0.89987 0.54352
 C904 C 0.55951 0.92859 0.54055
 C905 C 0.58690 0.93905 0.54980
 C906 C 0.60543 0.92196 0.56318
 H907 H 0.66637 0.79503 0.61826
 H908 H 0.69286 0.77062 0.64914
 H909 H 0.68485 0.84513 0.69092
 H910 H 0.65906 0.86966 0.65995
 H911 H 0.56429 0.86091 0.56003
 H912 H 0.53133 0.89126 0.53661
 H913 H 0.59338 0.96097 0.54755
 H914 H 0.62570 0.93116 0.57074
 C915 C 1.16314 0.65462 -0.14223
 C916 C 1.18281 0.67698 -0.13648
 C917 C 1.19681 0.69331 -0.15341
 C918 C 1.19123 0.68792 -0.17665
 C919 C 1.17145 0.66533 -0.18217
 C920 C 1.15780 0.64897 -0.16527
 C921 C 1.14775 0.63729 -0.12455
 N922 N 1.13249 0.61345 -0.13051
 N923 N 1.11761 0.59823 -0.11510
 C924 C 1.11722 0.60609 -0.09296
 N925 N 1.13271 0.62984 -0.08686
 N926 N 1.14773 0.64509 -0.10234
 C927 C 1.09873 0.58963 -0.07638
 C928 C 1.09540 0.59819 -0.05361
 C929 C 1.07539 0.58367 -0.03898
 C930 C 1.05826 0.56060 -0.04700
 C931 C 1.06269 0.55145 -0.06939
 C932 C 1.08269 0.56562 -0.08380
 H933 H 1.18750 0.68185 -0.11889
 H934 H 1.21184 0.71030 -0.14812
 H935 H 1.16630 0.66006 -0.19964
 H936 H 1.14271 0.63198 -0.17038
 H937 H 1.10753 0.61652 -0.04730
 H938 H 1.07236 0.59117 -0.02178
 H939 H 1.05001 0.53363 -0.07604
 H940 H 1.08480 0.55811 -0.10107
 C941 C 0.65932 1.16445 0.36392
 C942 C 0.66955 1.19239 0.36670
 C943 C 0.68445 1.20644 0.34895
 C944 C 0.68875 1.19306 0.32790
 C945 C 0.67829 1.16521 0.32510
 C946 C 0.66406 1.15096 0.34299
 C947 C 0.64371 1.14929 0.38262
 N948 N 0.64439 1.12065 0.38356
 N949 N 0.62985 1.10679 0.39997
 C950 C 0.61379 1.12092 0.41609
 N951 N 0.61307 1.14961 0.41518
 N952 N 0.62790 1.16352 0.39885
 C953 C 0.59643 1.10498 0.43350
 C954 C 0.57037 1.11654 0.44397
 C955 C 0.55181 1.09979 0.45799
 C956 C 0.55923 1.07133 0.46200
 C957 C 0.58643 1.06050 0.45275
 C958 C 0.60465 1.07703 0.43857
 H959 H 0.66632 1.20326 0.38267
 H960 H 0.69216 1.22795 0.35157
 H961 H 0.68137 1.15433 0.30911
 H962 H 0.65631 1.12948 0.34030
 H963 H 0.56350 1.13806 0.44041
 H964 H 0.53101 1.10873 0.46489
 H965 H 0.59294 1.03871 0.45556
 H966 H 0.62479 1.06762 0.43104
 C967 C 0.82482 0.64674 0.14422
 C968 C 0.82645 0.63812 0.16700
 C969 C 0.81396 0.65470 0.18422
 C970 C 0.79927 0.68034 0.17918
 C971 C 0.79711 0.68880 0.15636
 C972 C 0.80986 0.67224 0.13908
 C973 C 0.83951 0.62945 0.12624
 N974 N 0.84199 0.63901 0.10457
 N975 N 0.85670 0.62390 0.08889
 C976 C 0.86945 0.59857 0.09422
 N977 N 0.86655 0.58893 0.11579
 N978 N 0.85193 0.60400 0.13142
 C979 C 0.88802 0.58251 0.07751
 C980 C 0.90325 0.55780 0.08435
 C981 C 0.92361 0.54422 0.06983
 C982 C 0.92912 0.55476 0.04798
 C983 C 0.91266 0.57846 0.04049
 C984 C 0.89238 0.59233 0.05519
 H985 H 0.83779 0.61865 0.17165
 H986 H 0.81592 0.64739 0.20155
 H987 H 0.78592 0.70841 0.15186
 H988 H 0.80813 0.67949 0.12173
 H989 H 0.90032 0.54938 0.10128
 H990 H 0.93574 0.52580 0.07595
 H991 H 0.91653 0.58701 0.02370
 H992 H 0.88087 0.61119 0.04932
 C993 C 0.32943 1.13874 0.65191
 C994 C 0.33347 1.13407 0.67523
 C995 C 0.31965 1.15171 0.69115
 C996 C 0.30142 1.17460 0.68423
 C997 C 0.29684 1.17902 0.66090
 C998 C 0.31068 1.16125 0.64491
 C999 C 0.34565 1.12074 0.63519
 N1000 N 0.34104 1.12397 0.61256
 N1001 N 0.35669 1.10854 0.59764
 C1002 C 0.37763 1.08925 0.60471
 N1003 N 0.38202 1.08588 0.62733
 N1004 N 0.36635 1.10125 0.64222
 C1005 C 0.39654 1.07338 0.58817
 C1006 C 0.42176 1.05739 0.59554
 C1007 C 0.44132 1.04458 0.57988
 C1008 C 0.43597 1.04730 0.55651
 C1009 C 0.41000 1.06214 0.54914
 C1010 C 0.39056 1.07515 0.56480
 H1011 H 0.34762 1.11690 0.68129
 H1012 H 0.32366 1.14753 0.70895
 H1013 H 0.28283 1.19636 0.65497
 H1014 H 0.30705 1.16544 0.62707
 H1015 H 0.42699 1.05545 0.61340
 H1016 H 0.46104 1.03310 0.58605
 H1017 H 0.40526 1.06455 0.53123
 H1018 H 0.37123 1.08709 0.55854
 C1019 C 0.82710 0.35118 -0.14649
 C1020 C 0.82885 0.36023 -0.16917
 C1021 C 0.81554 0.34443 -0.18654
 C1022 C 0.79990 0.31916 -0.18178
 C1023 C 0.79763 0.31027 -0.15907
 C1024 C 0.81120 0.32605 -0.14162
 C1025 C 0.84257 0.36771 -0.12838
 N1026 N 0.84491 0.35775 -0.10681
 N1027 N 0.86022 0.37225 -0.09103
 C1028 C 0.87375 0.39734 -0.09617
 N1029 N 0.87100 0.40735 -0.11764
 N1030 N 0.85579 0.39290 -0.13335
 C1031 C 0.89276 0.41288 -0.07938
 C1032 C 0.90883 0.43715 -0.08624
 C1033 C 0.92915 0.45055 -0.07158
 C1034 C 0.93382 0.44036 -0.04952
 C1035 C 0.91677 0.41694 -0.04208
 C1036 C 0.89650 0.40319 -0.05696
 H1037 H 0.84089 0.37944 -0.17362
 H1038 H 0.81763 0.35206 -0.20378
 H1039 H 0.78573 0.29092 -0.15479
 H1040 H 0.80935 0.31848 -0.12436
 H1041 H 0.90649 0.44544 -0.10326
 H1042 H 0.94181 0.46866 -0.07776
 H1043 H 0.91998 0.40864 -0.02514
 H1044 H 0.88437 0.38464 -0.05108
 C1045 C 0.33390 0.86435 0.34482
 C1046 C 0.31394 0.84285 0.35217
 C1047 C 0.29975 0.82484 0.33649
 C1048 C 0.30513 0.82802 0.31313
 C1049 C 0.32471 0.84983 0.30586
 C1050 C 0.33892 0.86768 0.32147
 C1051 C 0.35013 0.88275 0.36131
 N1052 N 0.37208 0.90109 0.35422
 N1053 N 0.38754 0.91687 0.36901
 C1054 C 0.38164 0.91509 0.39156
 N1055 N 0.35948 0.89695 0.39864
 N1056 N 0.34406 0.88112 0.38385
 C1057 C 0.40012 0.93131 0.40821
 C1058 C 0.39291 0.93026 0.43140
 C1059 C 0.41197 0.94303 0.44740
 C1060 C 0.43882 0.95707 0.44064
 C1061 C 0.44527 0.95942 0.41739
 C1062 C 0.42610 0.94669 0.40133
 H1063 H 0.30955 0.83968 0.37005
 H1064 H 0.28472 0.80836 0.34269
 H1065 H 0.32942 0.85301 0.28802
 H1066 H 0.35403 0.88402 0.31516
 H1067 H 0.37295 0.91889 0.43732
 H1068 H 0.40618 0.94099 0.46517
 H1069 H 0.46568 0.97025 0.41165
 H1070 H 0.43223 0.94810 0.38359
 C1071 C 1.14408 1.16212 0.35085
 C1072 C 1.15104 1.14817 0.33050
 C1073 C 1.16612 1.16239 0.31303
 C1074 C 1.17530 1.19058 0.31588
 C1075 C 1.16820 1.20464 0.33618
 C1076 C 1.15227 1.19063 0.35342
 C1077 C 1.12952 1.14647 0.36956
 N1078 N 1.10875 1.15902 0.38341
 N1079 N 1.09554 1.14449 0.40013
 C1080 C 1.10307 1.11704 0.40384
 N1081 N 1.12400 1.10464 0.39010
 N1082 N 1.13685 1.11901 0.37322
 C1083 C 1.08834 1.10040 0.42194
 C1084 C 1.10492 1.07908 0.43294
 C1085 C 1.09046 1.06093 0.44817
 C1086 C 1.05893 1.06328 0.45229
 C1087 C 1.04254 1.08537 0.44200
 C1088 C 1.05725 1.10402 0.42712
 H1089 H 1.14482 1.12621 0.32811
 H1090 H 1.17149 1.15109 0.29757
 H1091 H 1.17499 1.22643 0.33869
 H1092 H 1.14724 1.20175 0.36902
 H1093 H 1.12898 1.07603 0.42934
 H1094 H 1.10370 1.04410 0.45580
 H1095 H 1.01821 1.08766 0.44492
 H1096 H 1.04399 1.12030 0.41878
 C1097 C 0.64237 0.66852 -0.14618
 C1098 C 0.63246 0.66669 -0.16882
 C1099 C 0.64873 0.68001 -0.18616
 C1100 C 0.67525 0.69565 -0.18130
 C1101 C 0.68469 0.69821 -0.15858
 C1102 C 0.66848 0.68472 -0.14122
 C1103 C 0.62626 0.65245 -0.12819
 N1104 N 0.63727 0.65136 -0.10664
 N1105 N 0.62373 0.63529 -0.09099
 C1106 C 0.59863 0.61966 -0.09627
 N1107 N 0.58743 0.62116 -0.11770
 N1108 N 0.60091 0.63718 -0.13329
 C1109 C 0.58481 0.59980 -0.07973
 C1110 C 0.56244 0.58057 -0.08709
 C1111 C 0.55103 0.56005 -0.07249
 C1112 C 0.56129 0.55835 -0.04999
 C1113 C 0.58275 0.57818 -0.04217
 C1114 C 0.59460 0.59866 -0.05699
 H1115 H 0.61242 0.65445 -0.17330
 H1116 H 0.64068 0.67773 -0.20342
 H1117 H 0.70501 0.71013 -0.15422
 H1118 H 0.67670 0.68664 -0.12398
 H1119 H 0.55422 0.58078 -0.10440
 H1120 H 0.53433 0.54521 -0.07898
 H1121 H 0.59097 0.57733 -0.02487
 H1122 H 0.61174 0.61326 -0.05077
 C1123 C 0.85308 1.17341 0.63928
 C1124 C 0.82455 1.18565 0.63442
 C1125 C 0.80840 1.20027 0.65119
 C1126 C 0.82024 1.20262 0.67328
 C1127 C 0.84901 1.19082 0.67801
 C1128 C 0.86532 1.17655 0.66117
 C1129 C 0.86952 1.15653 0.62197
 N1130 N 0.89920 1.14914 0.62517
 N1131 N 0.91361 1.13277 0.61026
 C1132 C 0.89895 1.12296 0.59154
 N1133 N 0.86932 1.13052 0.58823
 N1134 N 0.85493 1.14702 0.60311
 C1135 C 0.91458 1.10320 0.57584
 C1136 C 0.89793 1.08762 0.55969
 C1137 C 0.91239 1.06703 0.54646
 C1138 C 0.94382 1.06175 0.54900
 C1139 C 0.96068 1.07823 0.56439
 C1140 C 0.94623 1.09862 0.57770
 H1141 H 0.81455 1.18373 0.61770
 H1142 H 0.78625 1.20906 0.64701
 H1143 H 0.85885 1.19238 0.69481
 H1144 H 0.88721 1.16737 0.66551
 H1145 H 0.87353 1.09067 0.55778
 H1146 H 0.89883 1.05477 0.53464
 H1147 H 0.98496 1.07484 0.56665
 H1148 H 0.95982 1.11041 0.58979
 C1149 C 0.35619 0.67500 0.13867
 C1150 C 0.36794 0.67640 0.16085
 C1151 C 0.35185 0.69025 0.17801
 C1152 C 0.32363 0.70324 0.17346
 C1153 C 0.31226 0.70256 0.15114
 C1154 C 0.32831 0.68854 0.13396
 C1155 C 0.37243 0.65844 0.12098
 N1156 N 0.36000 0.65427 0.10010
 N1157 N 0.37392 0.63789 0.08485
 C1158 C 0.40087 0.62503 0.08985
 N1159 N 0.41342 0.62958 0.11059
 N1160 N 0.39955 0.64590 0.12579
 C1161 C 0.41545 0.60487 0.07385
 C1162 C 0.44068 0.58888 0.08106
 C1163 C 0.45287 0.56783 0.06729
 C1164 C 0.44051 0.56236 0.04578
 C1165 C 0.41627 0.57916 0.03792
 C1166 C 0.40367 0.60015 0.05193
 H1167 H 0.38936 0.66629 0.16514
 H1168 H 0.36141 0.69045 0.19494
 H1169 H 0.29060 0.71235 0.14700
 H1170 H 0.31862 0.68796 0.11708
 H1171 H 0.45057 0.59195 0.09771
 H1172 H 0.47179 0.55546 0.07370
 H1173 H 0.40637 0.57536 0.02137
 H1174 H 0.38435 0.61221 0.04580
 C1175 C 1.14202 0.83629 0.65086
 C1176 C 1.16172 0.81401 0.64541
 C1177 C 1.17840 0.80035 0.66239
 C1178 C 1.17501 0.80809 0.68543
 C1179 C 1.15402 0.82979 0.69073
 C1180 C 1.13824 0.84402 0.67361
 C1181 C 1.12677 0.85251 0.63283
 N1182 N 1.12615 0.88113 0.63384
 N1183 N 1.11341 0.89609 0.61725
 C1184 C 1.10041 0.88300 0.59919
 N1185 N 1.10068 0.85434 0.59826
 N1186 N 1.11390 0.83935 0.61470
 C1187 C 1.08669 0.89994 0.58095
 C1188 C 1.05712 0.89411 0.57296
 C1189 C 1.04294 0.91255 0.55765
 C1190 C 1.05859 0.93651 0.54963
 C1191 C 1.08882 0.94130 0.55671
 C1192 C 1.10255 0.92343 0.57249
 H1193 H 1.16504 0.80781 0.62791
 H1194 H 1.19390 0.78366 0.65732
 H1195 H 1.15038 0.83658 0.70806
 H1196 H 1.12302 0.86116 0.67814
 H1197 H 1.04449 0.87612 0.57940
 H1198 H 1.01956 0.90850 0.55250
 H1199 H 1.10133 0.95972 0.55096
 H1200 H 1.12543 0.92820 0.57841
 C1201 C 0.64350 0.33428 0.14706
 C1202 C 0.66857 0.31687 0.14194
 C1203 C 0.68439 0.30287 0.15921
 C1204 C 0.67561 0.30609 0.18203
 C1205 C 0.65022 0.32311 0.18708
 C1206 C 0.63433 0.33695 0.16982
 C1207 C 0.62757 0.35044 0.12904
 N1208 N 0.60283 0.36644 0.13421
 N1209 N 0.58935 0.38223 0.11850
 C1210 C 0.59993 0.38279 0.09686
 N1211 N 0.62447 0.36650 0.09154
 N1212 N 0.63800 0.35063 0.10731
 C1213 C 0.58592 0.40219 0.08006
 C1214 C 0.59564 0.40299 0.05728
 C1215 C 0.58352 0.42303 0.04220
 C1216 C 0.56182 0.44274 0.04978
 C1217 C 0.55163 0.44133 0.07231
 C1218 C 0.56333 0.42127 0.08718
 H1219 H 0.67622 0.31428 0.12461
 H1220 H 0.70386 0.28993 0.15470
 H1221 H 0.64273 0.32597 0.20442
 H1222 H 0.61512 0.35016 0.17443
 H1223 H 0.61294 0.38849 0.05123
 H1224 H 0.59172 0.42366 0.02489
 H1225 H 0.53474 0.45606 0.07864
 H1226 H 0.55511 0.42130 0.10449
 C1227 C 0.85589 0.82697 0.35782
 C1228 C 0.86802 0.82459 0.33583
 C1229 C 0.85170 0.81068 0.31877
 C1230 C 0.82303 0.79852 0.32337
 C1231 C 0.81132 0.80017 0.34554
 C1232 C 0.82748 0.81438 0.36252
 C1233 C 0.87224 0.84344 0.37544
 N1234 N 0.85761 0.85202 0.39456
 N1235 N 0.87185 0.86811 0.40982
 C1236 C 0.90137 0.87616 0.40666
 N1237 N 0.91609 0.86728 0.38768
 N1238 N 0.90182 0.85132 0.37238
 C1239 C 0.91675 0.89550 0.42284
 C1240 C 0.94838 0.90038 0.42125
 C1241 C 0.96255 0.92049 0.43503
 C1242 C 0.94540 0.93641 0.45059
 C1243 C 0.91399 0.93078 0.45286
 C1244 C 0.89983 0.91045 0.43918
 H1245 H 0.88983 0.83409 0.33161
 H1246 H 0.86144 0.80968 0.30191
 H1247 H 0.78927 0.79108 0.34966
 H1248 H 0.81756 0.81571 0.37931
 H1249 H 0.96217 0.88905 0.40902
 H1250 H 0.98682 0.92416 0.43298
 H1251 H 0.90021 0.94260 0.46480
 H1252 H 0.87543 0.90715 0.44089
 C1253 C 0.35754 0.32570 -0.14059
 C1254 C 0.36883 0.32512 -0.16292
 C1255 C 0.35251 0.31159 -0.18017
 C1256 C 0.32455 0.29813 -0.17553
 C1257 C 0.31368 0.29799 -0.15306
 C1258 C 0.32994 0.31167 -0.13582
 C1259 C 0.37389 0.34193 -0.12274
 N1260 N 0.36164 0.34545 -0.10173
 N1261 N 0.37556 0.36156 -0.08629
 C1262 C 0.40236 0.37479 -0.09121
 N1263 N 0.41475 0.37088 -0.11209
 N1264 N 0.40086 0.35483 -0.12749
 C1265 C 0.41685 0.39473 -0.07498
 C1266 C 0.44217 0.41084 -0.08193
 C1267 C 0.45412 0.43185 -0.06798
 C1268 C 0.44144 0.43716 -0.04656
 C1269 C 0.41718 0.42018 -0.03892
 C1270 C 0.40482 0.39922 -0.05310
 H1271 H 0.39003 0.33565 -0.16725
 H1272 H 0.36167 0.31202 -0.19722
 H1273 H 0.29224 0.28780 -0.14883
 H1274 H 0.32061 0.31160 -0.11882
 H1275 H 0.45226 0.40793 -0.09852
 H1276 H 0.47308 0.44437 -0.07422
 H1277 H 0.40704 0.42385 -0.02243
 H1278 H 0.38543 0.38706 -0.04717
 C1279 C 1.16757 0.35427 -0.14552
 C1280 C 1.18115 0.32834 -0.13978
 C1281 C 1.19423 0.31125 -0.15648
 C1282 C 1.19381 0.31955 -0.17937
 C1283 C 1.18018 0.34547 -0.18511
 C1284 C 1.16733 0.36267 -0.16837
 C1285 C 1.15312 0.37211 -0.12785
 N1286 N 1.14377 0.39882 -0.13264
 N1287 N 1.12969 0.41441 -0.11702
 C1288 C 1.12431 0.40397 -0.09594
 N1289 N 1.13391 0.37736 -0.09110
 N1290 N 1.14810 0.36181 -0.10669
 C1291 C 1.10635 0.42040 -0.07919
 C1292 C 1.09419 0.40707 -0.05989
 C1293 C 1.07401 0.42145 -0.04563
 C1294 C 1.06580 0.44955 -0.05021
 C1295 C 1.07945 0.46348 -0.06864
 C1296 C 1.09939 0.44900 -0.08308
 H1297 H 1.18178 0.32123 -0.12234
 H1298 H 1.20456 0.29144 -0.15143
 H1299 H 1.17960 0.35261 -0.20254
 H1300 H 1.15695 0.38246 -0.17341
 H1301 H 1.09917 0.38513 -0.05630
 H1302 H 1.06400 0.41025 -0.03144
 H1303 H 1.07357 0.48514 -0.07258
 H1304 H 1.10860 0.45997 -0.09767
 C1305 C 0.65943 0.83772 0.36012
 C1306 C 0.66942 0.80978 0.36318
 C1307 C 0.68437 0.79547 0.34563
 C1308 C 0.68898 0.80861 0.32452
 C1309 C 0.67863 0.83641 0.32140
 C1310 C 0.66430 0.85090 0.33908
 C1311 C 0.64404 0.85324 0.37865
 N1312 N 0.64441 0.88190 0.37901
 N1313 N 0.63007 0.89608 0.39531
 C1314 C 0.61456 0.88225 0.41188
 N1315 N 0.61418 0.85355 0.41158
 N1316 N 0.62879 0.83931 0.39535
 C1317 C 0.59736 0.89846 0.42914
 C1318 C 0.57223 0.88652 0.44055
 C1319 C 0.55378 0.90322 0.45461
 C1320 C 0.56041 0.93203 0.45770
 C1321 C 0.58666 0.94341 0.44739
 C1322 C 0.60478 0.92688 0.43318
 H1323 H 0.66606 0.79915 0.37924
 H1324 H 0.69202 0.77401 0.34848
 H1325 H 0.68199 0.84713 0.30538
 H1326 H 0.65670 0.87236 0.33617
 H1327 H 0.56599 0.86464 0.43778
 H1328 H 0.53374 0.89387 0.46238
 H1329 H 0.59252 0.96550 0.44949
 H1330 H 0.62421 0.93661 0.42489
 C1331 C 0.83098 0.65030 -0.14543
 C1332 C 0.81651 0.67610 -0.14047
 C1333 C 0.80422 0.69273 -0.15789
 C1334 C 0.80654 0.68407 -0.18063
 C1335 C 0.82139 0.65845 -0.18552
 C1336 C 0.83328 0.64174 -0.16816
 C1337 C 0.84400 0.63238 -0.12722
 N1338 N 0.85197 0.60519 -0.13155
 N1339 N 0.86491 0.58930 -0.11560
 C1340 C 0.87050 0.59990 -0.09462
 N1341 N 0.86224 0.62703 -0.09020
 N1342 N 0.84914 0.64291 -0.10614
 C1343 C 0.88741 0.58289 -0.07764
 C1344 C 0.90030 0.59582 -0.05843
 C1345 C 0.91984 0.58067 -0.04416
 C1346 C 0.92669 0.55222 -0.04867
 C1347 C 0.91218 0.53876 -0.06697
 C1348 C 0.89286 0.55397 -0.08137
 H1349 H 0.81436 0.68328 -0.12312
 H1350 H 0.79286 0.71231 -0.15353
 H1351 H 0.82346 0.65098 -0.20280
 H1352 H 0.84446 0.62212 -0.17262
 H1353 H 0.89647 0.61800 -0.05497
 H1354 H 0.93051 0.59155 -0.03007
 H1355 H 0.91693 0.51685 -0.07084
 H1356 H 0.88302 0.54327 -0.09586
 C1357 C 0.33916 1.14631 0.34860
 C1358 C 0.31473 1.16384 0.35522
 C1359 C 0.30017 1.18141 0.33937
 C1360 C 0.30974 1.18171 0.31661
 C1361 C 0.33448 1.16449 0.31022
 C1362 C 0.34893 1.14710 0.32594
 C1363 C 0.35465 1.12717 0.36491
 N1364 N 0.37793 1.11036 0.35786
 N1365 N 0.39240 1.09342 0.37229
 C1366 C 0.38421 1.09243 0.39445
 N1367 N 0.36076 1.10909 0.40154
 N1368 N 0.34624 1.12608 0.38707
 C1369 C 0.40167 1.07467 0.41066
 C1370 C 0.39365 1.07369 0.43372
 C1371 C 0.41198 1.05919 0.44928
 C1372 C 0.43882 1.04550 0.44212
 C1373 C 0.44602 1.04527 0.41894
 C1374 C 0.42763 1.05963 0.40338
 H1375 H 0.30668 1.16383 0.37257
 H1376 H 0.28114 1.19435 0.34483
 H1377 H 0.34270 1.16420 0.29291
 H1378 H 0.36774 1.13410 0.32018
 H1379 H 0.37370 1.08480 0.43990
 H1380 H 0.40581 1.05969 0.46705
 H1381 H 0.46643 1.03474 0.41291
 H1382 H 0.43438 1.05968 0.38572
 C1383 C 1.16295 0.64997 0.14518
 C1384 C 1.17608 0.67613 0.13943
 C1385 C 1.19033 0.69278 0.15592
 C1386 C 1.19151 0.68383 0.17864
 C1387 C 1.17827 0.65771 0.18441
 C1388 C 1.16430 0.64093 0.16786
 C1389 C 1.14752 0.63246 0.12773
 N1390 N 1.13963 0.60524 0.13213
 N1391 N 1.12503 0.58975 0.11668
 C1392 C 1.11761 0.60083 0.09616
 N1393 N 1.12565 0.62801 0.09170
 N1394 N 1.14038 0.64345 0.10713
 C1395 C 1.09965 0.58414 0.07953
 C1396 C 1.08534 0.59750 0.06108
 C1397 C 1.06584 0.58234 0.04675
 C1398 C 1.06046 0.55343 0.05041
 C1399 C 1.07601 0.53973 0.06811
 C1400 C 1.09526 0.55495 0.08260
 H1401 H 1.17551 0.68371 0.12212
 H1402 H 1.20028 0.71277 0.15087
 H1403 H 1.17889 0.65009 0.20172
 H1404 H 1.15431 0.62095 0.17291
 H1405 H 1.08829 0.61992 0.05817
 H1406 H 1.05429 0.59343 0.03317
 H1407 H 1.07237 0.51747 0.07134
 H1408 H 1.10615 0.54395 0.09650
 C1409 C 0.65559 1.16859 0.63514
 C1410 C 0.66069 1.15466 0.65583
 C1411 C 0.67510 1.16856 0.67379
 C1412 C 0.68536 1.19650 0.67129
 C1413 C 0.68042 1.21044 0.65056
 C1414 C 0.66532 1.19672 0.63274
 C1415 C 0.64054 1.15348 0.61622
 N1416 N 0.62391 1.16753 0.60034
 N1417 N 0.60965 1.15350 0.58378
 C1418 C 0.61184 1.12492 0.58231
 N1419 N 0.62873 1.11101 0.59806
 N1420 N 0.64268 1.12496 0.61469
 C1421 C 0.59500 1.10867 0.56483
 C1422 C 0.60452 1.08119 0.55944
 C1423 C 0.58645 1.06380 0.54587
 C1424 C 0.55818 1.07332 0.53751
 C1425 C 0.54964 1.10153 0.54145
 C1426 C 0.56799 1.11913 0.55496
 H1427 H 0.65329 1.13302 0.65822
 H1428 H 0.67871 1.15725 0.68953
 H1429 H 0.68800 1.23203 0.64820
 H1430 H 0.66177 1.20791 0.61695
 H1431 H 0.62548 1.07268 0.56643
 H1432 H 0.59394 1.04231 0.54292
 H1433 H 0.52801 1.10948 0.53520
 H1434 H 0.56015 1.14029 0.55876
 C1435 C 0.83620 0.34144 0.14521
 C1436 C 0.80486 0.33510 0.14406
 C1437 C 0.79096 0.31891 0.16106
 C1438 C 0.80801 0.30957 0.17981
 C1439 C 0.83927 0.31610 0.18101
 C1440 C 0.85334 0.33150 0.16370
 C1441 C 0.85121 0.35827 0.12729
 N1442 N 0.88058 0.35279 0.12137
 N1443 N 0.89449 0.36809 0.10548
 C1444 C 0.87976 0.38972 0.09506
 N1445 N 0.85039 0.39536 0.10105
 N1446 N 0.83631 0.37979 0.11677
 C1447 C 0.89592 0.40679 0.07783
 C1448 C 0.89090 0.43602 0.07581
 C1449 C 0.90919 0.45238 0.06129
 C1450 C 0.93225 0.43959 0.04824
 C1451 C 0.93588 0.41011 0.04940
 C1452 C 0.91818 0.39399 0.06419
 H1453 H 0.79121 0.34242 0.12992
 H1454 H 0.76672 0.31435 0.15990
 H1455 H 0.85285 0.30916 0.19533
 H1456 H 0.87752 0.33620 0.16501
 H1457 H 0.87387 0.44638 0.08621
 H1458 H 0.90589 0.47505 0.06075
 H1459 H 0.95339 0.39955 0.03958
 H1460 H 0.92230 0.37147 0.06526
 C1461 C 0.33806 0.85083 0.65304
 C1462 C 0.34446 0.85362 0.67621
 C1463 C 0.32953 0.83690 0.69217
 C1464 C 0.30742 0.81662 0.68560
 C1465 C 0.30122 0.81366 0.66222
 C1466 C 0.31634 0.83058 0.64618
 C1467 C 0.35429 0.86904 0.63639
 N1468 N 0.34893 0.86669 0.61379
 N1469 N 0.36400 0.88285 0.59902
 C1470 C 0.38503 0.90208 0.60618
 N1471 N 0.39025 0.90451 0.62878
 N1472 N 0.37519 0.88837 0.64353
 C1473 C 0.40280 0.91921 0.58968
 C1474 C 0.42566 0.93812 0.59702
 C1475 C 0.44392 0.95259 0.58131
 C1476 C 0.43973 0.94842 0.55794
 C1477 C 0.41608 0.93037 0.55066
 C1478 C 0.39788 0.91598 0.56630
 H1479 H 0.36109 0.86887 0.68218
 H1480 H 0.33547 0.84022 0.70980
 H1481 H 0.28454 0.79847 0.65620
 H1482 H 0.31092 0.82783 0.62841
 H1483 H 0.42997 0.94127 0.61491
 H1484 H 0.46186 0.96639 0.58747
 H1485 H 0.41205 0.92675 0.53278
 H1486 H 0.38038 0.90181 0.56001
 C1487 C 0.33729 1.15037 -0.14428
 C1488 C 0.32624 1.17756 -0.13928
 C1489 C 0.31036 1.19310 -0.15563
 C1490 C 0.30553 1.18185 -0.17738
 C1491 C 0.31621 1.15452 -0.18224
 C1492 C 0.33175 1.13891 -0.16585
 C1493 C 0.35514 1.13425 -0.12736
 N1494 N 0.36166 1.10653 -0.13078
 N1495 N 0.37832 1.09215 -0.11585
 C1496 C 0.38932 1.10494 -0.09693
 N1497 N 0.38277 1.13266 -0.09349
 N1498 N 0.36600 1.14701 -0.10839
 C1499 C 0.40798 1.08905 -0.08036
 C1500 C 0.42370 1.10339 -0.06306
 C1501 C 0.44075 1.08846 -0.04708
 C1502 C 0.44225 1.05885 -0.04793
 C1503 C 0.42695 1.04446 -0.06539
 C1504 C 0.41006 1.05944 -0.08151
 H1505 H 0.33002 1.18694 -0.12277
 H1506 H 0.30250 1.21414 -0.15143
 H1507 H 0.31269 1.14518 -0.19880
 H1508 H 0.33994 1.11805 -0.17027
 H1509 H 0.42279 1.12619 -0.06179
 H1510 H 0.45239 1.10011 -0.03384
 H1511 H 0.42777 1.02162 -0.06645
 H1512 H 0.39824 1.04776 -0.09465
 C1513 C 0.84689 0.64982 0.35032
 C1514 C 0.83416 0.67610 0.35611
 C1515 C 0.81748 0.69156 0.34020
 C1516 C 0.81347 0.68120 0.31809
 C1517 C 0.82621 0.65493 0.31229
 C1518 C 0.84259 0.63932 0.32828
 C1519 C 0.86469 0.63358 0.36717
 N1520 N 0.87147 0.60592 0.36366
 N1521 N 0.88742 0.59135 0.37893
 C1522 C 0.89740 0.60393 0.39826
 N1523 N 0.89069 0.63160 0.40171
 N1524 N 0.87464 0.64611 0.38651
 C1525 C 0.91479 0.58788 0.41546
 C1526 C 0.93013 0.60226 0.43292
 C1527 C 0.94551 0.58733 0.44977
 C1528 C 0.94569 0.55767 0.44968
 C1529 C 0.93091 0.54319 0.43202
 C1530 C 0.91569 0.55818 0.41498
 H1531 H 0.83697 0.68473 0.37298
 H1532 H 0.80807 0.71179 0.34516
 H1533 H 0.82342 0.64633 0.29540
 H1534 H 0.85217 0.61918 0.32328
 H1535 H 0.93012 0.62511 0.43367
 H1536 H 0.95684 0.59907 0.46311
 H1537 H 0.93080 0.52032 0.43152
 H1538 H 0.90410 0.54650 0.40174
 C1539 C 0.64593 1.15692 0.15490
 C1540 C 0.65801 1.18369 0.14976
 C1541 C 0.67341 1.19934 0.16624
 C1542 C 0.67678 1.18875 0.18834
 C1543 C 0.66402 1.16231 0.19369
 C1544 C 0.64893 1.14645 0.17708
 C1545 C 0.63099 1.13992 0.13697
 N1546 N 0.62612 1.11176 0.13973
 N1547 N 0.61373 1.09640 0.12315
 C1548 C 0.60560 1.10860 0.10320
 N1549 N 0.61026 1.13677 0.10056
 N1550 N 0.62275 1.15208 0.11706
 C1551 C 0.59257 1.09165 0.08443
 C1552 C 0.57945 1.10522 0.06562
 C1553 C 0.56809 1.08956 0.04747
 C1554 C 0.56977 1.05994 0.04758
 C1555 C 0.58254 1.04623 0.06645
 C1556 C 0.59374 1.06195 0.08476
 H1557 H 0.65612 1.19239 0.13284
 H1558 H 0.68280 1.21974 0.16163
 H1559 H 0.66632 1.15358 0.21058
 H1560 H 0.63974 1.12596 0.18159
 H1561 H 0.57799 1.12804 0.06487
 H1562 H 0.55820 1.10070 0.03322
 H1563 H 0.58393 1.02340 0.06702
 H1564 H 0.60374 1.05086 0.09900
 C1565 C 1.15148 0.65849 0.65189
 C1566 C 1.16413 0.68501 0.64663
 C1567 C 1.17886 0.70097 0.66330
 C1568 C 1.18093 0.69088 0.68563
 C1569 C 1.16780 0.66458 0.69098
 C1570 C 1.15339 0.64849 0.67426
 C1571 C 1.13670 0.64123 0.63409
 N1572 N 1.13075 0.61338 0.63752
 N1573 N 1.11788 0.59778 0.62132
 C1574 C 1.11031 0.60945 0.60106
 N1575 N 1.11615 0.63732 0.59769
 N1576 N 1.12914 0.65287 0.61384
 C1577 C 1.09626 0.59227 0.58289
 C1578 C 1.08288 0.60559 0.56409
 C1579 C 1.07027 0.58966 0.54656
 C1580 C 1.07100 0.56002 0.54730
 C1581 C 1.08407 0.54657 0.56617
 C1582 C 1.09648 0.56258 0.58388
 H1583 H 1.16306 0.69330 0.62954
 H1584 H 1.18862 0.72121 0.65868
 H1585 H 1.16911 0.65617 0.70802
 H1586 H 1.14374 0.62821 0.67888
 H1587 H 1.08212 0.62841 0.56287
 H1588 H 1.06023 0.60062 0.53228
 H1589 H 1.08477 0.52374 0.56720
 H1590 H 1.10665 0.55170 0.59815
 C1591 C 0.65291 0.84514 -0.15468
 C1592 C 0.66511 0.81854 -0.14922
 C1593 C 0.68021 0.80249 -0.16559
 C1594 C 0.68319 0.81250 -0.18790
 C1595 C 0.67057 0.83890 -0.19350
 C1596 C 0.65577 0.85514 -0.17701
 C1597 C 0.63761 0.86230 -0.13702
 N1598 N 0.63199 0.89025 -0.14027
 N1599 N 0.61884 0.90568 -0.12407
 C1600 C 0.61064 0.89375 -0.10402
 N1601 N 0.61613 0.86580 -0.10087
 N1602 N 0.62938 0.85043 -0.11698
 C1603 C 0.59645 0.91073 -0.08574
 C1604 C 0.58300 0.89718 -0.06704
 C1605 C 0.57042 0.91289 -0.04936
 C1606 C 0.57120 0.94254 -0.04984
 C1607 C 0.58429 0.95621 -0.06862
 C1608 C 0.59670 0.94044 -0.08647
 H1609 H 0.66337 0.81021 -0.13217
 H1610 H 0.68950 0.78216 -0.16076
 H1611 H 0.67256 0.84722 -0.21054
 H1612 H 0.64651 0.87550 -0.18178
 H1613 H 0.58221 0.87436 -0.06599
 H1614 H 0.56034 0.90175 -0.03517
 H1615 H 0.58503 0.97906 -0.06947
 H1616 H 0.60691 0.95151 -0.10064
 C1617 C 1.15419 0.34268 0.34763
 C1618 C 1.16702 0.31636 0.35319
 C1619 C 1.18168 0.30015 0.33668
 C1620 C 1.18348 0.30975 0.31419
 C1621 C 1.17021 0.33586 0.30856
 C1622 C 1.15589 0.35223 0.32512
 C1623 C 1.13937 0.36015 0.36525
 N1624 N 1.13330 0.38792 0.36153
 N1625 N 1.12029 0.40368 0.37756
 C1626 C 1.11268 0.39225 0.39790
 N1627 N 1.11868 0.36448 0.40157
 N1628 N 1.13181 0.34878 0.38561
 C1629 C 1.09833 0.40955 0.41585
 C1630 C 1.08466 0.39633 0.43459
 C1631 C 1.07167 0.41234 0.45189
 C1632 C 1.07229 0.44198 0.45099
 C1633 C 1.08568 0.45534 0.43219
 C1634 C 1.09848 0.43924 0.41470
 H1635 H 1.16615 0.30844 0.37039
 H1636 H 1.19162 0.28010 0.34154
 H1637 H 1.17131 0.34392 0.29139
 H1638 H 1.14610 0.37234 0.32028
 H1639 H 1.08394 0.37352 0.43593
 H1640 H 1.06139 0.40144 0.46612
 H1641 H 1.08632 0.47817 0.43105
 H1642 H 1.10887 0.45004 0.40047
 C1643 C 0.33727 0.85144 0.14172
 C1644 C 0.33165 0.86308 0.16321
 C1645 C 0.31622 0.84752 0.17969
 C1646 C 0.30576 0.82005 0.17500
 C1647 C 0.31060 0.80862 0.15333
 C1648 C 0.32638 0.82412 0.13687
 C1649 C 0.35512 0.86752 0.12479
 N1650 N 0.36620 0.85468 0.10593
 N1651 N 0.38308 0.86902 0.09107
 C1652 C 0.38954 0.89678 0.09444
 N1653 N 0.37831 0.90965 0.11323
 N1654 N 0.36153 0.89529 0.12812
 C1655 C 0.40833 0.91267 0.07795
 C1656 C 0.41039 0.94229 0.07911
 C1657 C 0.42739 0.95729 0.06306
 C1658 C 0.44281 0.94293 0.04567
 C1659 C 0.44135 0.91332 0.04482
 C1660 C 0.42419 0.89835 0.06073
 H1661 H 0.33971 0.88404 0.16751
 H1662 H 0.31266 0.85698 0.19619
 H1663 H 0.30288 0.78747 0.14927
 H1664 H 0.33023 0.81463 0.12042
 H1665 H 0.39847 0.95395 0.09218
 H1666 H 0.42818 0.98013 0.06411
 H1667 H 0.45307 0.90170 0.03162
 H1668 H 0.42328 0.87554 0.05947
 C1669 C 0.84796 0.35150 0.64716
 C1670 C 0.84392 0.36185 0.66927
 C1671 C 0.82737 0.34629 0.68521
 C1672 C 0.81418 0.32022 0.67928
 C1673 C 0.81803 0.30996 0.65712
 C1674 C 0.83490 0.32536 0.64128
 C1675 C 0.86572 0.36776 0.63029
 N1676 N 0.87550 0.35527 0.61091
 N1677 N 0.89136 0.36984 0.59562
 C1678 C 0.89802 0.39754 0.59901
 N1679 N 0.88823 0.41008 0.61840
 N1680 N 0.87247 0.39545 0.63377
 C1681 C 0.91512 0.41367 0.58169
 C1682 C 0.91575 0.44337 0.58205
 C1683 C 0.93068 0.45841 0.56489
 C1684 C 0.94542 0.44397 0.54720
 C1685 C 0.94549 0.41432 0.54722
 C1686 C 0.93039 0.39934 0.56420
 H1687 H 0.85379 0.38188 0.67433
 H1688 H 0.82470 0.35479 0.70214
 H1689 H 0.80828 0.28988 0.65207
 H1690 H 0.83750 0.31684 0.62435
 H1691 H 0.90418 0.45501 0.59531
 H1692 H 0.93040 0.48129 0.56531
 H1693 H 0.95681 0.40262 0.53386
 H1694 H 0.93058 0.37648 0.56353
 C1695 C 1.14594 1.16732 0.64552
 C1696 C 1.13529 1.16699 0.66802
 C1697 C 1.15116 1.18122 0.68511
 C1698 C 1.17805 1.19629 0.68017
 C1699 C 1.18841 1.19711 0.65758
 C1700 C 1.17256 1.18275 0.64046
 C1701 C 1.12978 1.15079 0.62776
 N1702 N 1.14072 1.14917 0.60622
 N1703 N 1.12683 1.13310 0.59073
 C1704 C 1.10140 1.11799 0.59616
 N1705 N 1.09034 1.11994 0.61761
 N1706 N 1.10418 1.13596 0.63304
 C1707 C 1.08684 1.09845 0.57967
 C1708 C 1.06352 1.08018 0.58701
 C1709 C 1.05120 1.06006 0.57241
 C1710 C 1.06150 1.05779 0.54996
 C1711 C 1.08394 1.07670 0.54216
 C1712 C 1.09667 1.09677 0.55696
 H1713 H 1.11486 1.15538 0.67258
 H1714 H 1.14241 1.18020 0.70227
 H1715 H 1.20907 1.20848 0.65315
 H1716 H 1.18140 1.18348 0.62333
 H1717 H 1.05522 1.08083 0.60429
 H1718 H 1.03375 1.04595 0.57888
 H1719 H 1.09226 1.07539 0.52490
 H1720 H 1.11451 1.11063 0.55073
 C1721 C 0.64626 0.66598 0.14548
 C1722 C 0.65292 0.69489 0.14351
 C1723 C 0.66859 0.70892 0.16087
 C1724 C 0.67691 0.69440 0.18071
 C1725 C 0.66941 0.66571 0.18290
 C1726 C 0.65462 0.65153 0.16531
 C1727 C 0.63160 0.65046 0.12678
 N1728 N 0.64015 0.62353 0.12221
 N1729 N 0.62686 0.60908 0.10557
 C1730 C 0.60425 0.62087 0.09298
 N1731 N 0.59555 0.64781 0.09757
 N1732 N 0.60918 0.66244 0.11406
 C1733 C 0.58891 0.60394 0.07536
 C1734 C 0.55733 0.60644 0.07150
 C1735 C 0.54229 0.58719 0.05730
 C1736 C 0.55878 0.56559 0.04645
 C1737 C 0.59066 0.56446 0.04916
 C1738 C 0.60550 0.58323 0.06366
 H1739 H 0.64678 0.70638 0.12831
 H1740 H 0.67408 0.73109 0.15888
 H1741 H 0.67575 0.65406 0.19799
 H1742 H 0.64959 0.62924 0.16722
 H1743 H 0.54406 0.62224 0.08040
 H1744 H 0.51771 0.58861 0.05542
 H1745 H 0.60403 0.54812 0.04100
 H1746 H 0.62992 0.58107 0.06621
 C1747 C 1.14895 0.83515 0.35403
 C1748 C 1.17573 0.81988 0.35880
 C1749 C 1.19148 0.80584 0.34147
 C1750 C 1.18086 0.80686 0.31895
 C1751 C 1.15389 0.82187 0.31427
 C1752 C 1.13813 0.83576 0.33158
 C1753 C 1.13270 0.85112 0.37205
 N1754 N 1.10670 0.86545 0.36708
 N1755 N 1.09267 0.88091 0.38276
 C1756 C 1.10390 0.88277 0.40416
 N1757 N 1.12974 0.86817 0.40930
 N1758 N 1.14383 0.85265 0.39356
 C1759 C 1.08901 0.90175 0.42091
 C1760 C 1.09894 0.90339 0.44361
 C1761 C 1.08583 0.92302 0.45861
 C1762 C 1.06291 0.94152 0.45101
 C1763 C 1.05254 0.93923 0.42856
 C1764 C 1.06521 0.91956 0.41380
 H1765 H 1.18471 0.81894 0.37588
 H1766 H 1.21220 0.79451 0.34570
 H1767 H 1.14496 0.82304 0.29718
 H1768 H 1.11758 0.84728 0.32722
 H1769 H 1.11715 0.88988 0.44966
 H1770 H 1.09424 0.92437 0.47584
 H1771 H 1.03477 0.95305 0.42222
 H1772 H 1.05680 0.91892 0.39655
 C1773 C 0.64629 0.33710 -0.14830
 C1774 C 0.65483 0.35166 -0.16805
 C1775 C 0.66938 0.33750 -0.18577
 C1776 C 0.67644 0.30871 -0.18379
 C1777 C 0.66795 0.29409 -0.16403
 C1778 C 0.65254 0.30811 -0.14655
 C1779 C 0.63174 0.35251 -0.12947
 N1780 N 0.60978 0.34021 -0.11648
 N1781 N 0.59633 0.35463 -0.09981
 C1782 C 0.60475 0.38170 -0.09532
 N1783 N 0.62689 0.39382 -0.10819
 N1784 N 0.64001 0.37956 -0.12500
 C1785 C 0.58959 0.39834 -0.07743
 C1786 C 0.60603 0.41947 -0.06604
 C1787 C 0.59123 0.43776 -0.05113
 C1788 C 0.55952 0.43570 -0.04768
 C1789 C 0.54325 0.41372 -0.05827
 C1790 C 0.55826 0.39497 -0.07287
 H1791 H 0.65011 0.37401 -0.16982
 H1792 H 0.67584 0.34924 -0.20079
 H1793 H 0.67309 0.27184 -0.16218
 H1794 H 0.64627 0.29650 -0.13142
 H1795 H 0.63025 0.42232 -0.06911
 H1796 H 0.60441 0.45444 -0.04321
 H1797 H 0.51881 0.41160 -0.05584
 H1798 H 0.54510 0.37883 -0.08151
 C1799 C 0.84900 1.16742 0.35972
 C1800 C 0.82336 1.18397 0.36519
 C1801 C 0.80707 1.19810 0.34817
 C1802 C 0.81592 1.19575 0.32531
 C1803 C 0.84159 1.17927 0.31992
 C1804 C 0.85796 1.16540 0.33688
 C1805 C 0.86615 1.15175 0.37740
 N1806 N 0.89266 1.13850 0.37204
 N1807 N 0.90758 1.12324 0.38738
 C1808 C 0.89672 1.12049 0.40882
 N1809 N 0.87034 1.13402 0.41435
 N1810 N 0.85538 1.14938 0.39896
 C1811 C 0.91251 1.10155 0.42511
 C1812 C 0.90124 1.09706 0.44720
 C1813 C 0.91483 1.07687 0.46144
 C1814 C 0.93961 1.06071 0.45366
 C1815 C 0.95161 1.06614 0.43204
 C1816 C 0.93838 1.08636 0.41802
 H1817 H 0.81585 1.18598 0.38260
 H1818 H 0.78735 1.21060 0.35290
 H1819 H 0.84918 1.17709 0.30254
 H1820 H 0.87752 1.15281 0.33199
 H1821 H 0.88146 1.10854 0.45325
 H1822 H 0.90521 1.07308 0.47808
 H1823 H 0.97096 1.05426 0.42572
 H1824 H 0.94797 1.08937 0.40127
 C1825 C 0.34987 0.66696 -0.14207
 C1826 C 0.32177 0.67983 -0.13694
 C1827 C 0.30527 0.69399 -0.15375
 C1828 C 0.31636 0.69525 -0.17609
 C1829 C 0.34442 0.68234 -0.18121
 C1830 C 0.36108 0.66852 -0.16437
 C1831 C 0.36716 0.65143 -0.12450
 N1832 N 0.39670 0.64390 -0.12812
 N1833 N 0.41195 0.62888 -0.11278
 C1834 C 0.39830 0.62066 -0.09318
 N1835 N 0.36882 0.62839 -0.08945
 N1836 N 0.35359 0.64355 -0.10476
 C1837 C 0.41466 0.60214 -0.07703
 C1838 C 0.39868 0.58765 -0.05992
 C1839 C 0.41358 0.56770 -0.04641
 C1840 C 0.44480 0.56200 -0.04965
 C1841 C 0.46112 0.57759 -0.06590
 C1842 C 0.44619 0.59735 -0.07952
 H1843 H 0.31254 0.67902 -0.11992
 H1844 H 0.28365 0.70365 -0.14930
 H1845 H 0.35366 0.68308 -0.19823
 H1846 H 0.38258 0.65871 -0.16891
 H1847 H 0.37439 0.59093 -0.05751
 H1848 H 0.40048 0.55615 -0.03388
 H1849 H 0.48523 0.57384 -0.06869
 H1850 H 0.45926 0.60837 -0.09236
 C1851 C 0.85170 0.82708 0.63910
 C1852 C 0.86188 0.82778 0.66171
 C1853 C 0.84556 0.81404 0.67877
 C1854 C 0.81871 0.79898 0.67372
 C1855 C 0.80874 0.79777 0.65106
 C1856 C 0.82500 0.81179 0.63394
 C1857 C 0.86858 0.84303 0.62140
 N1858 N 0.85697 0.84646 0.60019
 N1859 N 0.87158 0.86228 0.58488
 C1860 C 0.89843 0.87522 0.59017
 N1861 N 0.91015 0.87137 0.61125
 N1862 N 0.89559 0.85565 0.62650
 C1863 C 0.91376 0.89481 0.57410
 C1864 C 0.93942 0.91029 0.58131
 C1865 C 0.95217 0.93106 0.56753
 C1866 C 0.93990 0.93675 0.54604
 C1867 C 0.91533 0.92034 0.53814
 C1868 C 0.90220 0.89962 0.55214
 H1869 H 0.88231 0.83935 0.66637
 H1870 H 0.85403 0.81529 0.69600
 H1871 H 0.78810 0.78638 0.64660
 H1872 H 0.81654 0.81079 0.61671
 H1873 H 0.94919 0.90708 0.59797
 H1874 H 0.97138 0.94313 0.57392
 H1875 H 0.90553 0.92431 0.52159
 H1876 H 0.88258 0.88794 0.54601
 C1877 C 0.35266 0.33199 0.14229
 C1878 C 0.32465 0.31884 0.13725
 C1879 C 0.30832 0.30464 0.15412
 C1880 C 0.31949 0.30358 0.17645
 C1881 C 0.34748 0.31674 0.18149
 C1882 C 0.36398 0.33063 0.16456
 C1883 C 0.36965 0.34766 0.12461
 N1884 N 0.39912 0.35559 0.12809
 N1885 N 0.41406 0.37072 0.11263
 C1886 C 0.40016 0.37863 0.09306
 N1887 N 0.37075 0.37050 0.08948
 N1888 N 0.35584 0.35524 0.10491
 C1889 C 0.41616 0.39726 0.07677
 C1890 C 0.39982 0.41154 0.05974
 C1891 C 0.41438 0.43161 0.04610
 C1892 C 0.44558 0.43761 0.04912
 C1893 C 0.46224 0.42221 0.06528
 C1894 C 0.44767 0.40235 0.07902
 H1895 H 0.31533 0.31948 0.12025
 H1896 H 0.28674 0.29480 0.14973
 H1897 H 0.35676 0.31617 0.19851
 H1898 H 0.38542 0.34065 0.16903
 H1899 H 0.37554 0.40802 0.05751
 H1900 H 0.40102 0.44300 0.03365
 H1901 H 0.48636 0.42620 0.06789
 H1902 H 0.46099 0.39149 0.09180
   
