data_POSCAR
  _audit_creation_date              2014-09-24
  _audit_creation_method            'ToBaCCo'
  _symmetry_space_group_name_H-M    'P1'
  _symmetry_Int_Tables_number       1
  _symmetry_cell_setting            triclinic
  loop_
  _symmetry_equiv_pos_as_xyz
 x,y,z
_cell_length_a 60.6295
_cell_length_b 60.5779
_cell_length_c 60.5283
_cell_angle_alpha 89.889200
_cell_angle_beta 89.928600
_cell_angle_gamma 89.961400
loop_
  _atom_site_label
  _atom_site_type_symbol
  _atom_site_fract_x
  _atom_site_fract_y
  _atom_site_fract_z
C1 C 0.25496 0.99921 -0.01629
 C2 C 0.25688 0.99919 0.00603
 C3 C 0.25742 0.97867 0.01932
 C4 C 0.25727 1.02002 0.01882
 C5 C 0.25334 1.02019 -0.02881
 C6 C 0.25467 0.97861 -0.02942
 C7 C 0.23892 0.96484 0.02053
 C8 C 0.23789 0.94816 0.03654
 C9 C 0.25538 0.94509 0.05153
 C10 C 0.27437 0.95821 0.04932
 C11 C 0.27529 0.97494 0.03350
 C12 C 0.24062 1.02413 0.03421
 C13 C 0.24092 1.04323 0.04697
 C14 C 0.25821 1.05893 0.04507
 C15 C 0.27477 1.05455 0.02901
 C16 C 0.27430 1.03536 0.01622
 C17 C 0.27009 1.02597 -0.04369
 C18 C 0.26922 1.04606 -0.05498
 C19 C 0.25140 1.06057 -0.05179
 C20 C 0.23440 1.05452 -0.03718
 C21 C 0.23537 1.03448 -0.02575
 C22 C 0.27249 0.96381 -0.02894
 C23 C 0.27288 0.94560 -0.04312
 C24 C 0.25540 0.94186 -0.05790
 C25 C 0.23740 0.95647 -0.05796
 C26 C 0.23712 0.97473 -0.04396
 H27 H 0.22481 0.96777 0.00997
 H28 H 0.22296 0.93847 0.03791
 H29 H 0.28832 0.95595 0.06024
 H30 H 0.28965 0.98556 0.03282
 H31 H 0.22712 1.01257 0.03616
 H32 H 0.22680 1.04572 0.05756
 H33 H 0.28753 1.03222 0.00459
 H34 H 0.28401 1.01506 -0.04628
 H35 H 0.28235 1.05017 -0.06641
 H36 H 0.22053 1.06544 -0.03438
 H37 H 0.22222 1.03014 -0.01443
 H38 H 0.28635 0.96673 -0.01806
 H39 H 0.28691 0.93453 -0.04268
 H40 H 0.22386 0.95419 -0.06938
 H41 H 0.22332 0.98609 -0.04469
 H42 H 0.28904 1.06500 0.02692
 C43 C 0.75377 0.49477 0.48445
 C44 C 0.75551 0.49467 0.50683
 C45 C 0.75561 0.47410 0.52009
 C46 C 0.75643 0.51546 0.51973
 C47 C 0.75249 0.51589 0.47206
 C48 C 0.75321 0.47418 0.47117
 C49 C 0.73709 0.46025 0.52076
 C50 C 0.73590 0.44317 0.53634
 C51 C 0.75321 0.43974 0.55145
 C52 C 0.77218 0.45299 0.54985
 C53 C 0.77327 0.47009 0.53445
 C54 C 0.74028 0.51951 0.53580
 C55 C 0.74122 0.53850 0.54873
 C56 C 0.75846 0.55376 0.54597
 C57 C 0.77453 0.54982 0.52966
 C58 C 0.77358 0.53074 0.51671
 C59 C 0.76913 0.52134 0.45693
 C60 C 0.76869 0.54159 0.44590
 C61 C 0.75143 0.55665 0.44962
 C62 C 0.73448 0.55091 0.46442
 C63 C 0.73500 0.53068 0.47555
 C64 C 0.76960 0.45790 0.47331
 C65 C 0.76952 0.43934 0.45956
 C66 C 0.75324 0.43692 0.44322
 C67 C 0.73677 0.45313 0.44128
 C68 C 0.73679 0.47155 0.45508
 H69 H 0.72315 0.46337 0.51003
 H70 H 0.72099 0.43339 0.53726
 H71 H 0.78600 0.45047 0.56088
 H72 H 0.78766 0.48068 0.53417
 H73 H 0.72690 0.50793 0.53833
 H74 H 0.72843 0.54126 0.56091
 H75 H 0.78638 0.52770 0.50459
 H76 H 0.78267 0.51004 0.45397
 H77 H 0.78176 0.54542 0.43429
 H78 H 0.72103 0.56222 0.46765
 H79 H 0.72190 0.52662 0.48703
 H80 H 0.78277 0.45983 0.48522
 H81 H 0.78258 0.42725 0.46123
 H82 H 0.72386 0.45156 0.42904
 H83 H 0.72401 0.48390 0.45310
 H84 H 0.78813 0.56117 0.52735
 C85 C 0.75931 0.98123 0.99726
 C86 C 0.75835 1.00362 0.99749
 C87 C 0.75786 1.01638 1.01833
 C88 C 0.75748 1.01699 0.97699
 C89 C 0.76001 0.96858 0.97631
 C90 C 0.75912 0.96820 1.01803
 C91 C 0.73962 1.01547 1.03259
 C92 C 0.73825 1.02981 1.05066
 C93 C 0.75510 1.04527 1.05468
 C94 C 0.77373 1.04540 1.04081
 C95 C 0.77500 1.03122 1.02274
 C96 C 0.73944 1.03106 0.97356
 C97 C 0.73930 1.04582 0.95587
 C98 C 0.75732 1.04697 0.94131
 C99 C 0.77524 1.03251 0.94447
 C100 C 0.77530 1.01759 0.96218
 C101 C 0.77810 0.95485 0.97191
 C102 C 0.77883 0.94228 0.95260
 C103 C 0.76129 0.94295 0.93745
 C104 C 0.74310 0.95667 0.94193
 C105 C 0.74249 0.96944 0.96118
 C106 C 0.77585 0.97040 1.03381
 C107 C 0.77524 0.95805 1.05337
 C108 C 0.75786 0.94302 1.05768
 C109 C 0.74113 0.94112 1.04149
 C110 C 0.74189 0.95339 1.02197
 H111 H 0.72611 1.00430 1.02921
 H112 H 0.72360 1.02944 1.06089
 H113 H 0.78719 1.05677 1.04370
 H114 H 0.78918 1.03212 1.01188
 H115 H 0.72565 1.03096 0.98497
 H116 H 0.72542 1.05694 0.95409
 H117 H 0.78951 1.00705 0.96477
 H118 H 0.79168 0.95386 0.98349
 H119 H 0.79290 0.93164 0.94973
 H120 H 0.72940 0.95756 0.93051
 H121 H 0.72827 0.97975 0.96444
 H122 H 0.78952 0.98152 1.03085
 H123 H 0.78903 0.95982 1.06451
 H124 H 0.72679 0.93084 1.04397
 H125 H 0.72869 0.95166 1.01005
 H126 H 0.78929 1.03296 0.93342
 C127 C 0.25910 0.50790 0.49648
 C128 C 0.26000 0.48554 0.49731
 C129 C 0.25960 0.47333 0.51863
 C130 C 0.26078 0.47191 0.47698
 C131 C 0.25859 0.52034 0.47541
 C132 C 0.25839 0.52171 0.51662
 C133 C 0.27553 0.47699 0.53506
 C134 C 0.27503 0.46482 0.55476
 C135 C 0.25878 0.44862 0.55821
 C136 C 0.24287 0.44509 0.54172
 C137 C 0.24333 0.45726 0.52214
 C138 C 0.27835 0.45719 0.47391
 C139 C 0.27848 0.44269 0.45602
 C140 C 0.26083 0.44236 0.44095
 C141 C 0.24343 0.45751 0.44380
 C142 C 0.24340 0.47214 0.46169
 C143 C 0.24045 0.53398 0.47096
 C144 C 0.24097 0.54875 0.45330
 C145 C 0.25978 0.55036 0.43981
 C146 C 0.27770 0.53611 0.44381
 C147 C 0.27708 0.52115 0.46148
 C148 C 0.24006 0.52142 0.53077
 C149 C 0.23842 0.53676 0.54797
 C150 C 0.25507 0.55262 0.55118
 C151 C 0.27377 0.55219 0.53744
 C152 C 0.27532 0.53700 0.52026
 H153 H 0.28849 0.48901 0.53251
 H154 H 0.28767 0.46770 0.56704
 H155 H 0.22996 0.43295 0.54401
 H156 H 0.23089 0.45419 0.50969
 H157 H 0.29188 0.45676 0.48558
 H158 H 0.29233 0.43157 0.45410
 H159 H 0.22949 0.48312 0.46402
 H160 H 0.22615 0.53373 0.48172
 H161 H 0.22705 0.55969 0.45087
 H162 H 0.29233 0.53689 0.43357
 H163 H 0.29136 0.51095 0.46490
 H164 H 0.22669 0.50992 0.52796
 H165 H 0.22372 0.53680 0.55815
 H166 H 0.28708 0.56386 0.53976
 H167 H 0.28957 0.53744 0.50945
 H168 H 0.22946 0.45751 0.43269
 C169 C 0.98729 0.24487 -0.00700
 C170 C 0.98764 0.24335 0.01536
 C171 C 1.00847 0.24316 0.02821
 C172 C 0.96697 0.24183 0.02837
 C173 C 0.96645 0.24371 -0.01972
 C174 C 1.00755 0.24747 -0.02045
 C175 C 1.01274 0.22544 0.04241
 C176 C 1.03119 0.22555 0.05614
 C177 C 1.04592 0.24364 0.05641
 C178 C 1.04175 0.26118 0.04145
 C179 C 1.02321 0.26096 0.02765
 C180 C 0.95346 0.22307 0.02731
 C181 C 0.93459 0.22156 0.04059
 C182 C 0.92890 0.23888 0.05496
 C183 C 0.94240 0.25770 0.05577
 C184 C 0.96135 0.25907 0.04273
 C185 C 0.95078 0.26066 -0.01875
 C186 C 0.93257 0.26054 -0.03297
 C187 C 0.92967 0.24347 -0.04868
 C188 C 0.94521 0.22603 -0.04862
 C189 C 0.96336 0.22630 -0.03451
 C190 C 1.00951 0.26591 -0.03423
 C191 C 1.02666 0.26742 -0.04950
 C192 C 1.04233 0.25026 -0.05176
 C193 C 1.04073 0.23216 -0.03697
 C194 C 1.02348 0.23076 -0.02161
 H195 H 1.00166 0.21142 0.04291
 H196 H 1.03393 0.21101 0.06615
 H197 H 1.05192 0.27582 0.04112
 H198 H 1.01997 0.27502 0.01706
 H199 H 0.95771 0.20952 0.01646
 H200 H 0.92441 0.20692 0.03960
 H201 H 0.97172 0.27358 0.04385
 H202 H 0.95312 0.27443 -0.00761
 H203 H 0.92171 0.27468 -0.03238
 H204 H 0.94342 0.21178 -0.05916
 H205 H 0.97524 0.21295 -0.03530
 H206 H 0.99742 0.27907 -0.03342
 H207 H 1.02758 0.28234 -0.05926
 H208 H 1.05178 0.21820 -0.03804
 H209 H 1.02199 0.21618 -0.01133
 H210 H 0.93856 0.27115 0.06690
 C211 C 0.49445 0.75251 0.49511
 C212 C 0.49455 0.75113 0.51747
 C213 C 0.51525 0.75053 0.53045
 C214 C 0.47374 0.75024 0.53031
 C215 C 0.47367 0.75211 0.48230
 C216 C 0.51490 0.75404 0.48179
 C217 C 0.51910 0.73267 0.54468
 C218 C 0.53740 0.73255 0.55862
 C219 C 0.55212 0.75047 0.55887
 C220 C 0.54854 0.76816 0.54417
 C221 C 0.53022 0.76820 0.53008
 C222 C 0.45957 0.73199 0.52891
 C223 C 0.44048 0.73108 0.54190
 C224 C 0.43521 0.74848 0.55633
 C225 C 0.44939 0.76678 0.55750
 C226 C 0.46855 0.76756 0.54472
 C227 C 0.45877 0.76982 0.48299
 C228 C 0.44053 0.77019 0.46883
 C229 C 0.43696 0.75285 0.45380
 C230 C 0.45154 0.73478 0.45386
 C231 C 0.46979 0.73452 0.46784
 C232 C 0.51779 0.77225 0.46777
 C233 C 0.53501 0.77264 0.45249
 C234 C 0.54956 0.75466 0.45068
 C235 C 0.54718 0.73677 0.46539
 C236 C 0.52994 0.73646 0.48082
 H237 H 0.50774 0.71888 0.54516
 H238 H 0.53989 0.71849 0.56939
 H239 H 0.55943 0.78231 0.54412
 H240 H 0.52733 0.78229 0.51945
 H241 H 0.46347 0.71838 0.51801
 H242 H 0.42978 0.71683 0.54064
 H243 H 0.47941 0.78169 0.54609
 H244 H 0.46172 0.78365 0.49390
 H245 H 0.42973 0.78443 0.46905
 H246 H 0.44901 0.72094 0.44287
 H247 H 0.48114 0.72072 0.46715
 H248 H 0.50629 0.78594 0.46827
 H249 H 0.53666 0.78686 0.44175
 H250 H 0.55801 0.72260 0.46430
 H251 H 0.52772 0.72210 0.49128
 H252 H 0.44589 0.78027 0.56869
 C253 C 0.00579 0.74738 0.00486
 C254 C -0.01644 0.74944 0.00580
 C255 C -0.02846 0.75066 0.02701
 C256 C -0.03027 0.75048 -0.01431
 C257 C 0.01767 0.74529 -0.01641
 C258 C 0.01974 0.74718 0.02495
 C259 C -0.04283 0.73356 0.03275
 C260 C -0.05597 0.73513 0.05158
 C261 C -0.05547 0.75419 0.06501
 C262 C -0.04055 0.77120 0.05918
 C263 C -0.02713 0.76937 0.04045
 C264 C -0.03129 0.73278 -0.02911
 C265 C -0.04583 0.73342 -0.04702
 C266 C -0.05994 0.75175 -0.05044
 C267 C -0.05819 0.76967 -0.03561
 C268 C -0.04368 0.76893 -0.01779
 C269 C 0.01804 0.76258 -0.03177
 C270 C 0.03118 0.76108 -0.05073
 C271 C 0.04442 0.74222 -0.05473
 C272 C 0.04306 0.72462 -0.03939
 C273 C 0.03006 0.72627 -0.02047
 C274 C 0.03704 0.76243 0.02663
 C275 C 0.05182 0.76133 0.04421
 C276 C 0.04966 0.74489 0.06044
 C277 C 0.03198 0.72993 0.05910
 C278 C 0.01720 0.73098 0.04138
 H279 H -0.04420 0.71911 0.02232
 H280 H -0.06752 0.72186 0.05457
 H281 H -0.03881 0.78585 0.06923
 H282 H -0.01610 0.78277 0.03614
 H283 H -0.02132 0.71819 -0.02640
 H284 H -0.04673 0.71886 -0.05726
 H285 H -0.04295 0.78285 -0.00659
 H286 H 0.00878 0.77756 -0.02868
 H287 H 0.03179 0.77542 -0.06137
 H288 H 0.05166 0.70920 -0.04195
 H289 H 0.02974 0.71266 -0.00883
 H290 H 0.03929 0.77502 0.01409
 H291 H 0.06510 0.77325 0.04500
 H292 H 0.03009 0.71696 0.07129
 H293 H 0.00425 0.71876 0.04012
 H294 H -0.06758 0.78468 -0.03784
 C295 C 0.49848 0.25674 0.50313
 C296 C 0.47628 0.25945 0.50360
 C297 C 0.46299 0.26082 0.48310
 C298 C 0.46379 0.26107 0.52456
 C299 C 0.51210 0.25578 0.52348
 C300 C 0.51071 0.25444 0.48206
 C301 C 0.45035 0.27977 0.47907
 C302 C 0.43637 0.28083 0.46082
 C303 C 0.43453 0.26281 0.44633
 C304 C 0.44757 0.24395 0.45018
 C305 C 0.46166 0.24295 0.46845
 C306 C 0.46665 0.27899 0.53893
 C307 C 0.45318 0.28117 0.55761
 C308 C 0.43682 0.26535 0.56222
 C309 C 0.43437 0.24724 0.54798
 C310 C 0.44762 0.24522 0.52926
 C311 C 0.50866 0.23953 0.53971
 C312 C 0.52339 0.23740 0.55740
 C313 C 0.54192 0.25128 0.55893
 C314 C 0.54490 0.26788 0.54298
 C315 C 0.53018 0.27006 0.52544
 C316 C 0.52240 0.23492 0.47797
 C317 C 0.53588 0.23312 0.45939
 C318 C 0.53825 0.25097 0.44469
 C319 C 0.52598 0.27034 0.44851
 C320 C 0.51230 0.27205 0.46708
 H321 H 0.45118 0.29371 0.49023
 H322 H 0.42687 0.29573 0.45812
 H323 H 0.44631 0.22968 0.43951
 H324 H 0.47104 0.22804 0.47152
 H325 H 0.47890 0.29152 0.53536
 H326 H 0.45542 0.29525 0.56837
 H327 H 0.44509 0.23140 0.51822
 H328 H 0.49508 0.22804 0.53826
 H329 H 0.52081 0.22433 0.56936
 H330 H 0.55883 0.27903 0.54393
 H331 H 0.53315 0.28267 0.51308
 H332 H 0.52132 0.22118 0.48939
 H333 H 0.54470 0.21781 0.45669
 H334 H 0.52760 0.28446 0.43765
 H335 H 0.50358 0.28735 0.47018
 H336 H 0.42170 0.23499 0.55095
 C337 C 1.00633 0.01569 0.24575
 C338 C 1.00620 -0.00668 0.24632
 C339 C 0.98543 -0.01932 0.24870
 C340 C 1.02667 -0.01997 0.24505
 C341 C 1.02698 0.02870 0.24454
 C342 C 0.98565 0.02869 0.24622
 C343 C 0.98219 -0.03223 0.26757
 C344 C 0.96334 -0.04522 0.26980
 C345 C 0.94722 -0.04605 0.25292
 C346 C 0.95058 -0.03251 0.23409
 C347 C 0.96945 -0.01937 0.23204
 C348 C 1.04275 -0.01890 0.26159
 C349 C 1.06065 -0.03351 0.26142
 C350 C 1.06285 -0.04973 0.24470
 C351 C 1.04684 -0.04988 0.22772
 C352 C 1.02899 -0.03537 0.22804
 C353 C 1.04071 0.02786 0.22588
 C354 C 1.05853 0.04244 0.22390
 C355 C 1.06291 0.05796 0.24061
 C356 C 1.04945 0.05823 0.25951
 C357 C 1.03161 0.04384 0.26138
 C358 C 0.98053 0.04233 0.22823
 C359 C 0.96203 0.05599 0.22889
 C360 C 0.94842 0.05651 0.24770
 C361 C 0.95335 0.04245 0.26558
 C362 C 0.97186 0.02867 0.26485
 H363 H 0.99430 -0.03216 0.28072
 H364 H 0.96141 -0.05408 0.28518
 H365 H 0.93939 -0.03275 0.22022
 H366 H 0.97189 -0.00967 0.21718
 H367 H 1.04097 -0.00734 0.27511
 H368 H 1.07185 -0.03275 0.27526
 H369 H 1.01678 -0.03629 0.21502
 H370 H 1.03717 0.01648 0.21257
 H371 H 1.06871 0.04181 0.20920
 H372 H 1.05218 0.07019 0.27250
 H373 H 1.02103 0.04485 0.27578
 H374 H 0.99102 0.04251 0.21373
 H375 H 0.95847 0.06629 0.21469
 H376 H 0.94334 0.04267 0.28040
 H377 H 0.97579 0.01845 0.27901
 H378 H 1.04805 -0.06089 0.21374
 C379 C 0.50506 0.51353 0.74904
 C380 C 0.50638 0.49124 0.75065
 C381 C 0.48646 0.47721 0.75259
 C382 C 0.52767 0.47924 0.75029
 C383 C 0.52490 0.52767 0.74709
 C384 C 0.48360 0.52531 0.74975
 C385 C 0.47237 0.47871 0.77094
 C386 C 0.45468 0.46405 0.77325
 C387 C 0.45092 0.44761 0.75729
 C388 C 0.46481 0.44658 0.73871
 C389 C 0.48246 0.46114 0.73647
 C390 C 0.53336 0.46601 0.76842
 C391 C 0.55127 0.45161 0.76720
 C392 C 0.56369 0.44986 0.74764
 C393 C 0.55855 0.46390 0.72979
 C394 C 0.54066 0.47849 0.73111
 C395 C 0.52675 0.54208 0.72905
 C396 C 0.54358 0.55776 0.72828
 C397 C 0.55875 0.55957 0.74573
 C398 C 0.55730 0.54458 0.76348
 C399 C 0.54049 0.52876 0.76416
 C400 C 0.46727 0.52166 0.73375
 C401 C 0.44773 0.53400 0.73403
 C402 C 0.44432 0.55030 0.75022
 C403 C 0.46059 0.55356 0.76642
 C404 C 0.48005 0.54128 0.76611
 H405 H 0.47543 0.49083 0.78370
 H406 H 0.44440 0.46510 0.78785
 H407 H 0.46211 0.43439 0.72594
 H408 H 0.49317 0.45977 0.72219
 H409 H 0.52346 0.46636 0.78333
 H410 H 0.55508 0.44145 0.78142
 H411 H 0.53627 0.48835 0.71683
 H412 H 0.51481 0.54151 0.71576
 H413 H 0.54449 0.56872 0.71416
 H414 H 0.56857 0.54567 0.77730
 H415 H 0.53906 0.51803 0.77842
 H416 H 0.46987 0.50963 0.72079
 H417 H 0.43561 0.53128 0.72120
 H418 H 0.45831 0.56569 0.77933
 H419 H 0.49245 0.54430 0.77861
 H420 H 0.56768 0.46284 0.71444
 C421 C 1.01767 1.00372 0.74407
 C422 C 0.99535 1.00347 0.74314
 C423 C 0.98243 0.98279 0.74243
 C424 C 0.98233 1.02409 0.74250
 C425 C 1.03000 1.02469 0.74618
 C426 C 1.03109 0.98326 0.74337
 C427 C 0.98342 0.96865 0.72412
 C428 C 0.96914 0.95055 0.72272
 C429 C 0.95379 0.94631 0.73967
 C430 C 0.95332 0.96024 0.75819
 C431 C 0.96742 0.97835 0.75949
 C432 C 0.97242 1.03057 0.72269
 C433 C 0.95835 1.04879 0.72207
 C434 C 0.95338 1.06078 0.74148
 C435 C 0.96392 1.05425 0.76131
 C436 C 0.97831 1.03620 0.76174
 C437 C 1.04176 1.02889 0.76561
 C438 C 1.05448 1.04797 0.76757
 C439 C 1.05598 1.06309 0.74995
 C440 C 1.04388 1.05893 0.73055
 C441 C 1.03098 1.03988 0.72869
 C442 C 1.02934 0.96701 0.75976
 C443 C 1.04360 0.94879 0.75975
 C444 C 1.06018 0.94646 0.74339
 C445 C 1.06113 0.96274 0.72662
 C446 C 1.04695 0.98087 0.72675
 H447 H 0.99474 0.97203 0.71068
 H448 H 0.96991 0.94000 0.70832
 H449 H 0.94147 0.95762 0.77133
 H450 H 0.96633 0.98920 0.77365
 H451 H 0.97521 1.02116 0.70774
 H452 H 0.95036 1.05240 0.70652
 H453 H 0.98593 1.03134 0.77719
 H454 H 1.04112 1.01732 0.77926
 H455 H 1.06320 1.05085 0.78289
 H456 H 1.04489 1.07006 0.71658
 H457 H 1.02220 1.03669 0.71346
 H458 H 1.01742 0.96879 0.77298
 H459 H 1.04223 0.93738 0.77343
 H460 H 1.07247 0.96148 0.71289
 H461 H 1.04839 0.99316 0.71381
 H462 H 0.96150 1.06326 0.77653
 C463 C 0.51890 0.50463 0.24744
 C464 C 0.49667 0.50358 0.24594
 C465 C 0.48466 0.48237 0.24529
 C466 C 0.48272 0.52355 0.24511
 C467 C 0.53060 0.52590 0.24983
 C468 C 0.53282 0.48458 0.24682
 C469 C 0.48486 0.46910 0.22634
 C470 C 0.47074 0.45087 0.22488
 C471 C 0.45628 0.44572 0.24237
 C472 C 0.45700 0.45854 0.26169
 C473 C 0.47091 0.47678 0.26304
 C474 C 0.47009 0.52758 0.22617
 C475 C 0.45441 0.54440 0.22601
 C476 C 0.45085 0.55734 0.24493
 C477 C 0.46419 0.55384 0.26364
 C478 C 0.48001 0.53702 0.26373
 C479 C 0.54194 0.53029 0.26947
 C480 C 0.55439 0.54951 0.27162
 C481 C 0.55610 0.56458 0.25399
 C482 C 0.54428 0.56033 0.23443
 C483 C 0.53158 0.54114 0.23239
 C484 C 0.53179 0.46867 0.26366
 C485 C 0.54605 0.45050 0.26336
 C486 C 0.56157 0.44800 0.24622
 C487 C 0.56218 0.46384 0.22921
 C488 C 0.54805 0.48201 0.22961
 H489 H 0.49521 0.47341 0.21240
 H490 H 0.47047 0.44142 0.20972
 H491 H 0.44648 0.45472 0.27565
 H492 H 0.47060 0.48691 0.27777
 H493 H 0.47200 0.51728 0.21168
 H494 H 0.44473 0.54699 0.21121
 H495 H 0.48945 0.53387 0.27859
 H496 H 0.54125 0.51869 0.28310
 H497 H 0.56283 0.55247 0.28708
 H498 H 0.54543 0.57142 0.22044
 H499 H 0.52305 0.53785 0.21704
 H500 H 0.52032 0.47060 0.27725
 H501 H 0.54536 0.43877 0.27686
 H502 H 0.57363 0.46221 0.21557
 H503 H 0.54902 0.49414 0.21647
 H504 H 0.46170 0.56341 0.27853
 O505 O 0.25836 0.19863 0.20705
 O506 O 0.28225 0.19400 0.23811
 O507 O 0.19933 0.22347 0.23714
 O508 O 0.19006 0.25226 0.25845
 O509 O 0.22513 0.25422 0.17826
 O510 O 0.25492 0.27920 0.17152
 O511 O 0.25460 0.28846 0.29211
 O512 O 0.22992 0.25901 0.29892
 O513 O 0.31197 0.26006 0.26660
 O514 O 0.31971 0.23432 0.23549
 O515 O 0.28359 0.31453 0.23487
 O516 O 0.25166 0.31937 0.20964
 O517 O 0.25406 0.31422 0.26481
 O518 O 0.22853 0.31927 0.23336
 O519 O 0.31099 0.28901 0.23622
 O520 O 0.31936 0.25762 0.21195
 O521 O 0.28536 0.25989 0.29304
 O522 O 0.25585 0.23376 0.30049
 O523 O 0.25734 0.22421 0.17954
 O524 O 0.28035 0.25569 0.17247
 O525 O 0.19851 0.25379 0.20471
 O526 O 0.19202 0.27972 0.23471
 O527 O 0.22710 0.19825 0.23817
 O528 O 0.25782 0.19373 0.26232
 Zr529 Zr 0.25611 0.21705 0.23634
 O530 O 0.27583 0.23721 0.25645
 Zr531 Zr 0.21579 0.25408 0.23487
 O532 O 0.23376 0.27594 0.25515
 Zr533 Zr 0.25484 0.25455 0.19628
 O534 O 0.27447 0.27650 0.21470
 Zr535 Zr 0.25564 0.25816 0.27530
 O536 O 0.23567 0.23606 0.25708
 Zr537 Zr 0.29455 0.25856 0.23659
 O538 O 0.27681 0.23646 0.21626
 Zr539 Zr 0.25433 0.29578 0.23535
 O540 O 0.23442 0.27562 0.21486
 O541 O 0.23501 0.23377 0.21507
 O542 O 0.27560 0.27912 0.25665
 C543 C 0.25873 0.20420 0.18655
 C544 C 0.20658 0.20352 0.23846
 C545 C 0.20482 0.25418 0.18442
 C546 C 0.25419 0.30856 0.28529
 C547 C 0.30564 0.26035 0.28687
 C548 C 0.30407 0.30902 0.23550
 H549 H 0.28531 0.22776 0.26577
 H550 H 0.28325 0.28570 0.20447
 H551 H 0.22603 0.22368 0.20591
 H552 H 0.22349 0.28484 0.26419
 H553 H 0.21902 0.24771 0.29443
 H554 H 0.19420 0.26183 0.27099
 H555 H 0.31562 0.26877 0.20060
 H556 H 0.29237 0.24617 0.17812
 H557 H 0.26775 0.22308 0.29723
 H558 H 0.24752 0.19890 0.27392
 H559 H 0.26376 0.31661 0.19902
 H560 H 0.24442 0.29072 0.17642
 H561 H 0.29387 0.19938 0.22794
 H562 H 0.31737 0.22406 0.24800
 H563 H 0.19656 0.29039 0.22317
 H564 H 0.21789 0.31602 0.24534
 O565 O 0.75462 0.81402 0.23039
 O566 O 0.72974 0.82140 0.26043
 O567 O 0.81105 0.78772 0.26442
 O568 O 0.81809 0.76011 0.28791
 O569 O 0.78594 0.75551 0.20678
 O570 O 0.75515 0.73104 0.20062
 O571 O 0.75066 0.72890 0.32123
 O572 O 0.77730 0.75772 0.32667
 O573 O 0.69601 0.75758 0.29256
 O574 O 0.69019 0.78263 0.26018
 O575 O 0.72289 0.70108 0.26410
 O576 O 0.75548 0.69339 0.24080
 O577 O 0.75024 0.70189 0.29524
 O578 O 0.77745 0.69371 0.26560
 O579 O 0.69643 0.72759 0.26314
 O580 O 0.69049 0.75865 0.23728
 O581 O 0.72193 0.75877 0.31958
 O582 O 0.75183 0.78383 0.32654
 O583 O 0.75516 0.78641 0.20503
 O584 O 0.73109 0.75592 0.19886
 O585 O 0.81157 0.75557 0.23419
 O586 O 0.81568 0.73135 0.26586
 O587 O 0.78493 0.81460 0.26235
 O588 O 0.75360 0.82200 0.28555
 Zr589 Zr 0.75487 0.79720 0.26105
 O590 O 0.73354 0.77908 0.28180
 Zr591 Zr 0.79319 0.75803 0.26353
 O592 O 0.77359 0.73824 0.28441
 Zr593 Zr 0.75557 0.75721 0.22367
 O594 O 0.73420 0.73742 0.24263
 Zr595 Zr 0.75204 0.75829 0.30259
 O596 O 0.77354 0.77843 0.28372
 Zr597 Zr 0.71428 0.75744 0.26283
 O598 O 0.73382 0.77747 0.24172
 Zr599 Zr 0.75280 0.71849 0.26493
 O600 O 0.77437 0.73635 0.24406
 O601 O 0.77576 0.77805 0.24179
 O602 O 0.73172 0.73727 0.28454
 C603 C 0.75470 0.80692 0.21034
 C604 C 0.80509 0.80809 0.26377
 C605 C 0.80597 0.75472 0.21375
 C606 C 0.74957 0.70854 0.31536
 C607 C 0.70184 0.75811 0.31299
 C608 C 0.70265 0.70730 0.26355
 H609 H 0.72421 0.78939 0.29031
 H610 H 0.72536 0.72812 0.23259
 H611 H 0.78554 0.78711 0.23231
 H612 H 0.78303 0.72935 0.29432
 H613 H 0.78840 0.76882 0.32211
 H614 H 0.81315 0.75134 0.30079
 H615 H 0.69395 0.74671 0.22671
 H616 H 0.71919 0.76609 0.20356
 H617 H 0.74141 0.79538 0.32161
 H618 H 0.76348 0.81710 0.29762
 H619 H 0.74419 0.69627 0.22937
 H620 H 0.76563 0.71977 0.20615
 H621 H 0.71809 0.81570 0.25054
 H622 H 0.69267 0.79328 0.27228
 H623 H 0.81089 0.72010 0.25505
 H624 H 0.78729 0.69671 0.27826
 O625 O 0.74555 0.18471 0.77572
 O626 O 0.72310 0.17743 0.74491
 O627 O 0.80367 0.21218 0.74480
 O628 O 0.81226 0.24087 0.72387
 O629 O 0.77562 0.24279 0.80292
 O630 O 0.74483 0.26615 0.80887
 O631 O 0.74552 0.27109 0.68726
 O632 O 0.77097 0.24283 0.68146
 O633 O 0.68927 0.24197 0.71422
 O634 O 0.68188 0.21769 0.74555
 O635 O 0.71553 0.29871 0.74343
 O636 O 0.74596 0.30675 0.76737
 O637 O 0.74467 0.29809 0.71323
 O638 O 0.77093 0.30475 0.74542
 O639 O 0.68908 0.27221 0.74329
 O640 O 0.68273 0.24047 0.76958
 O641 O 0.71587 0.24220 0.68778
 O642 O 0.74685 0.21579 0.68209
 O643 O 0.74546 0.21106 0.80243
 O644 O 0.72009 0.24186 0.80778
 O645 O 0.80252 0.24302 0.77675
 O646 O 0.80740 0.26892 0.74515
 O647 O 0.77772 0.18512 0.74578
 O648 O 0.74731 0.17873 0.72026
 Zr649 Zr 0.74746 0.20234 0.74595
 O650 O 0.72646 0.22079 0.72531
 Zr651 Zr 0.78556 0.24167 0.74637
 O652 O 0.76671 0.26145 0.72479
 Zr653 Zr 0.74623 0.24112 0.78464
 O654 O 0.72598 0.26177 0.76525
 Zr655 Zr 0.74570 0.24176 0.70555
 O656 O 0.76699 0.22174 0.72470
 Zr657 Zr 0.70673 0.24219 0.74419
 O658 O 0.72547 0.22133 0.76512
 Zr659 Zr 0.74531 0.28108 0.74372
 O660 O 0.76570 0.26274 0.76550
 O661 O 0.76734 0.22093 0.76674
 O662 O 0.72485 0.26264 0.72325
 C663 C 0.74495 0.19081 0.79602
 C664 C 0.79787 0.19178 0.74503
 C665 C 0.79596 0.24352 0.79697
 C666 C 0.74488 0.29145 0.69304
 C667 C 0.69557 0.24225 0.69396
 C668 C 0.69530 0.29251 0.74313
 H669 H 0.71738 0.21063 0.71640
 H670 H 0.71681 0.27101 0.77507
 H671 H 0.77676 0.21162 0.77633
 H672 H 0.77660 0.27037 0.71534
 H673 H 0.78278 0.23277 0.68661
 H674 H 0.80704 0.24763 0.70995
 H675 H 0.68485 0.25333 0.77939
 H676 H 0.70920 0.23073 0.80288
 H677 H 0.73413 0.20591 0.68466
 H678 H 0.75838 0.18366 0.70927
 H679 H 0.73600 0.30244 0.77959
 H680 H 0.75438 0.27828 0.80350
 H681 H 0.71047 0.18297 0.75367
 H682 H 0.68569 0.20616 0.73465
 H683 H 0.80328 0.27890 0.75742
 H684 H 0.78024 0.30311 0.73209
 O685 O 0.24309 0.79686 0.78512
 O686 O 0.26607 0.80400 0.75361
 O687 O 0.18525 0.76914 0.75394
 O688 O 0.17763 0.74039 0.73225
 O689 O 0.21345 0.73845 0.81188
 O690 O 0.24480 0.71490 0.81753
 O691 O 0.24358 0.70952 0.69696
 O692 O 0.21708 0.73831 0.69159
 O693 O 0.29961 0.74012 0.72272
 O694 O 0.30620 0.76587 0.75409
 O695 O 0.27509 0.68361 0.75236
 O696 O 0.24414 0.67614 0.77853
 O697 O 0.24500 0.68308 0.72360
 O698 O 0.22049 0.67548 0.75523
 O699 O 0.30073 0.71089 0.75215
 O700 O 0.30719 0.74235 0.77749
 O701 O 0.27287 0.73953 0.69647
 O702 O 0.24240 0.76419 0.68980
 O703 O 0.24354 0.77008 0.81151
 O704 O 0.26863 0.74009 0.81731
 O705 O 0.18657 0.73840 0.78575
 O706 O 0.18161 0.71260 0.75513
 O707 O 0.21111 0.79628 0.75465
 O708 O 0.24106 0.80357 0.72986
 Zr709 Zr 0.24144 0.77936 0.75505
 O710 O 0.26219 0.76106 0.73400
 Zr711 Zr 0.20367 0.73970 0.75550
 O712 O 0.22279 0.71964 0.73442
 Zr713 Zr 0.24298 0.74038 0.79369
 O714 O 0.26387 0.72037 0.77444
 Zr715 Zr 0.24327 0.73943 0.71463
 O716 O 0.22217 0.75972 0.73379
 Zr717 Zr 0.28244 0.74029 0.75293
 O718 O 0.26353 0.76055 0.77418
 Zr719 Zr 0.24473 0.70057 0.75347
 O720 O 0.22371 0.71873 0.77470
 O721 O 0.22170 0.76051 0.77583
 O722 O 0.26462 0.71921 0.73248
 C723 C 0.24376 0.79041 0.80539
 C724 C 0.19100 0.78958 0.75391
 C725 C 0.19310 0.73782 0.80594
 C726 C 0.24442 0.68925 0.70330
 C727 C 0.29319 0.73963 0.70250
 C728 C 0.29515 0.69046 0.75176
 H729 H 0.27103 0.77128 0.72484
 H730 H 0.27337 0.71144 0.78425
 H731 H 0.21221 0.76975 0.78540
 H732 H 0.21297 0.71041 0.72526
 H733 H 0.20600 0.74930 0.69646
 H734 H 0.18244 0.73178 0.71925
 H735 H 0.30469 0.73026 0.78820
 H736 H 0.28003 0.75044 0.81185
 H737 H 0.25272 0.77606 0.69405
 H738 H 0.23101 0.79804 0.71825
 H739 H 0.25652 0.67908 0.78873
 H740 H 0.23491 0.70299 0.81237
 H741 H 0.27826 0.79887 0.76321
 H742 H 0.30312 0.77620 0.74180
 H743 H 0.18665 0.70213 0.76666
 H744 H 0.20936 0.67853 0.74368
 O745 O 0.24503 0.32043 0.73176
 O746 O 0.21941 0.32544 0.76166
 O747 O 0.30226 0.29595 0.76593
 O748 O 0.31116 0.26752 0.78731
 O749 O 0.27911 0.26440 0.70626
 O750 O 0.24972 0.23857 0.69922
 O751 O 0.24510 0.23239 0.81972
 O752 O 0.27003 0.26233 0.82623
 O753 O 0.18896 0.25923 0.79176
 O754 O 0.18193 0.28474 0.76010
 O755 O 0.21880 0.20491 0.76174
 O756 O 0.25167 0.19959 0.73828
 O757 O 0.24615 0.20617 0.79296
 O758 O 0.27375 0.20042 0.76299
 O759 O 0.19105 0.23009 0.76161
 O760 O 0.18359 0.26154 0.73650
 O761 O 0.21476 0.26045 0.81889
 O762 O 0.24332 0.28714 0.82668
 O763 O 0.24628 0.29371 0.70546
 O764 O 0.22439 0.26198 0.69814
 O765 O 0.30462 0.26518 0.73374
 O766 O 0.30979 0.23974 0.76458
 O767 O 0.27481 0.32149 0.76397
 O768 O 0.24305 0.32647 0.78706
 Zr769 Zr 0.24578 0.30260 0.76178
 O770 O 0.22536 0.28278 0.78186
 Zr771 Zr 0.28609 0.26541 0.76311
 O772 O 0.26748 0.24401 0.78329
 Zr773 Zr 0.24865 0.26397 0.72311
 O774 O 0.22829 0.24249 0.74137
 Zr775 Zr 0.24489 0.26233 0.80203
 O776 O 0.26536 0.28410 0.78389
 Zr777 Zr 0.20732 0.26079 0.76212
 O778 O 0.22584 0.28245 0.74173
 Zr779 Zr 0.24778 0.22382 0.76314
 O780 O 0.26843 0.24344 0.74290
 O781 O 0.26773 0.28524 0.74196
 O782 O 0.22572 0.24087 0.78324
 C783 C 0.24500 0.31398 0.71150
 C784 C 0.29521 0.31599 0.76585
 C785 C 0.29914 0.26453 0.71325
 C786 C 0.24513 0.21218 0.81326
 C787 C 0.19473 0.25916 0.81222
 C788 C 0.19827 0.21013 0.76141
 H789 H 0.21550 0.29232 0.79065
 H790 H 0.21995 0.23305 0.73103
 H791 H 0.27706 0.29516 0.73289
 H792 H 0.27736 0.23532 0.79296
 H793 H 0.28062 0.27406 0.82200
 H794 H 0.30629 0.25874 0.80022
 H795 H 0.18750 0.24989 0.72575
 H796 H 0.21180 0.27109 0.70319
 H797 H 0.23181 0.29790 0.82244
 H798 H 0.25291 0.32158 0.79914
 H799 H 0.24035 0.20236 0.72685
 H800 H 0.26066 0.22764 0.70451
 H801 H 0.20821 0.31952 0.75138
 H802 H 0.18398 0.29530 0.77237
 H803 H 0.30579 0.22887 0.75308
 H804 H 0.28339 0.20351 0.77578
 O805 O 0.76133 0.69241 0.70999
 O806 O 0.78430 0.68546 0.74124
 O807 O 0.70315 0.71919 0.74105
 O808 O 0.69477 0.74809 0.76222
 O809 O 0.73107 0.75027 0.68274
 O810 O 0.76186 0.77416 0.67714
 O811 O 0.76029 0.77927 0.79805
 O812 O 0.73471 0.75050 0.80359
 O813 O 0.81705 0.74892 0.77194
 O814 O 0.82385 0.72398 0.74010
 O815 O 0.79191 0.80589 0.74215
 O816 O 0.76082 0.81343 0.71690
 O817 O 0.76153 0.80604 0.77176
 O818 O 0.73696 0.81330 0.73981
 O819 O 0.81784 0.77884 0.74291
 O820 O 0.82478 0.74799 0.71731
 O821 O 0.79027 0.74962 0.79819
 O822 O 0.75968 0.72444 0.80461
 O823 O 0.76202 0.71886 0.68332
 O824 O 0.78635 0.74965 0.67759
 O825 O 0.70417 0.75043 0.70892
 O826 O 0.69873 0.77586 0.73979
 O827 O 0.72953 0.69253 0.74036
 O828 O 0.75943 0.68573 0.76508
 Zr829 Zr 0.75943 0.70990 0.73984
 O830 O 0.77994 0.72832 0.76080
 Zr831 Zr 0.72110 0.74898 0.73926
 O832 O 0.73991 0.76916 0.76046
 Zr833 Zr 0.76052 0.74873 0.70106
 O834 O 0.78099 0.76906 0.72043
 Zr835 Zr 0.76064 0.74960 0.78019
 O836 O 0.73977 0.72922 0.76102
 Zr837 Zr 0.79987 0.74935 0.74183
 O838 O 0.78129 0.72887 0.72061
 Zr839 Zr 0.76168 0.78866 0.74160
 O840 O 0.74102 0.77021 0.72019
 O841 O 0.73944 0.72837 0.71893
 O842 O 0.78182 0.77018 0.76248
 C843 C 0.76245 0.69860 0.68970
 C844 C 0.70932 0.69884 0.74123
 C845 C 0.71072 0.75108 0.68871
 C846 C 0.76071 0.79961 0.79201
 C847 C 0.81059 0.74916 0.79215
 C848 C 0.81204 0.79920 0.74288
 H849 H 0.78887 0.71811 0.76986
 H850 H 0.79036 0.77815 0.71063
 H851 H 0.73010 0.71901 0.70936
 H852 H 0.72992 0.77821 0.76966
 H853 H 0.72340 0.73986 0.79852
 H854 H 0.69958 0.75624 0.77550
 H855 H 0.82201 0.76003 0.70660
 H856 H 0.79787 0.73940 0.68300
 H857 H 0.77103 0.71330 0.80099
 H858 H 0.74927 0.69111 0.77670
 H859 H 0.77251 0.81006 0.70601
 H860 H 0.75199 0.78605 0.68247
 H861 H 0.79638 0.69057 0.73148
 H862 H 0.82087 0.71340 0.75221
 H863 H 0.70371 0.78646 0.72836
 H864 H 0.72604 0.81026 0.75158
 O865 O 0.25381 0.69250 0.27788
 O866 O 0.23208 0.68446 0.24696
 O867 O 0.31102 0.72268 0.24753
 O868 O 0.31851 0.75182 0.22691
 O869 O 0.28157 0.75139 0.30579
 O870 O 0.24997 0.77350 0.31189
 O871 O 0.25057 0.77935 0.19022
 O872 O 0.27716 0.75234 0.18422
 O873 O 0.19559 0.74785 0.21686
 O874 O 0.18913 0.72304 0.24805
 O875 O 0.21939 0.80538 0.24627
 O876 O 0.24916 0.81466 0.27039
 O877 O 0.24873 0.80621 0.21626
 O878 O 0.27457 0.81362 0.24880
 O879 O 0.19404 0.77783 0.24642
 O880 O 0.18891 0.74564 0.27214
 O881 O 0.22223 0.74919 0.19049
 O882 O 0.25436 0.72420 0.18476
 O883 O 0.25243 0.71849 0.30490
 O884 O 0.22608 0.74846 0.31046
 O885 O 0.30844 0.75323 0.27966
 O886 O 0.31231 0.77951 0.24823
 O887 O 0.28621 0.69457 0.24816
 O888 O 0.25616 0.68711 0.22245
 Zr889 Zr 0.25526 0.71046 0.24836
 O890 O 0.23354 0.72815 0.22786
 Zr891 Zr 0.29167 0.75133 0.24924
 O892 O 0.27210 0.77043 0.22771
 Zr893 Zr 0.25231 0.74878 0.28741
 O894 O 0.23133 0.76877 0.26809
 Zr895 Zr 0.25198 0.75000 0.20832
 O896 O 0.27405 0.73079 0.22736
 Zr897 Zr 0.21292 0.74858 0.24688
 O898 O 0.23246 0.72833 0.26765
 Zr899 Zr 0.24986 0.78903 0.24670
 O900 O 0.27088 0.77138 0.26847
 O901 O 0.27429 0.72965 0.26940
 O902 O 0.23022 0.76988 0.22608
 C903 C 0.25263 0.69830 0.29823
 C904 C 0.30606 0.70207 0.24753
 C905 C 0.30184 0.75318 0.29987
 C906 C 0.24920 0.79964 0.19604
 C907 C 0.20194 0.74836 0.19662
 C908 C 0.19943 0.79836 0.24614
 H909 H 0.22491 0.71767 0.21887
 H910 H 0.22177 0.77757 0.27796
 H911 H 0.28401 0.72063 0.27897
 H912 H 0.28165 0.77980 0.21834
 H913 H 0.28944 0.74284 0.18935
 H914 H 0.31303 0.75829 0.21295
 H915 H 0.19062 0.75835 0.28222
 H916 H 0.21565 0.73691 0.30551
 H917 H 0.24203 0.71380 0.18718
 H918 H 0.26719 0.69247 0.21164
 H919 H 0.23972 0.80965 0.28275
 H920 H 0.25893 0.78609 0.30657
 H921 H 0.21906 0.68945 0.25548
 H922 H 0.19330 0.71185 0.23691
 H923 H 0.30785 0.78916 0.26063
 H924 H 0.28387 0.81260 0.23540
 O925 O 0.74048 0.29440 0.28071
 O926 O 0.76378 0.29846 0.24906
 O927 O 0.68181 0.26661 0.25205
 O928 O 0.67290 0.23680 0.23253
 O929 O 0.70917 0.23940 0.31185
 O930 O 0.73945 0.21509 0.31921
 O931 O 0.73804 0.20134 0.19906
 O932 O 0.71252 0.23016 0.19159
 O933 O 0.79496 0.23128 0.22263
 O934 O 0.80287 0.25853 0.25201
 O935 O 0.76817 0.17788 0.25650
 O936 O 0.73715 0.17311 0.28239
 O937 O 0.73848 0.17657 0.22728
 O938 O 0.71310 0.17245 0.25951
 O939 O 0.79498 0.20398 0.25471
 O940 O 0.80269 0.23717 0.27724
 O941 O 0.76811 0.23036 0.19653
 O942 O 0.73814 0.25561 0.18853
 O943 O 0.74076 0.26976 0.30908
 O944 O 0.76447 0.23891 0.31697
 O945 O 0.68217 0.23807 0.28586
 O946 O 0.67627 0.21033 0.25698
 O947 O 0.70868 0.29275 0.25076
 O948 O 0.73882 0.29698 0.22513
 Zr949 Zr 0.73835 0.27479 0.25213
 O950 O 0.75842 0.25434 0.23252
 Zr951 Zr 0.69915 0.23670 0.25553
 O952 O 0.71739 0.21463 0.23573
 Zr953 Zr 0.73866 0.23876 0.29351
 O954 O 0.75854 0.21654 0.27563
 Zr955 Zr 0.73859 0.23225 0.21469
 O956 O 0.71823 0.25449 0.23240
 Zr957 Zr 0.77791 0.23411 0.25282
 O958 O 0.75987 0.25663 0.27253
 Zr959 Zr 0.73861 0.19606 0.25601
 O960 O 0.71853 0.21648 0.27612
 O961 O 0.71805 0.25824 0.27427
 O962 O 0.75922 0.21243 0.23382
 C963 C 0.74136 0.28956 0.30139
 C964 C 0.68834 0.28677 0.25071
 C965 C 0.68878 0.23889 0.30602
 C966 C 0.73825 0.18150 0.20662
 C967 C 0.78844 0.23009 0.20247
 C968 C 0.78850 0.18384 0.25592
 H969 H 0.76760 0.26359 0.22270
 H970 H 0.76765 0.20795 0.28609
 H971 H 0.70897 0.26847 0.28321
 H972 H 0.70724 0.20519 0.22717
 H973 H 0.70154 0.24152 0.19581
 H974 H 0.67735 0.22733 0.22000
 H975 H 0.79970 0.22606 0.28886
 H976 H 0.77611 0.24868 0.31096
 H977 H 0.74943 0.26696 0.19157
 H978 H 0.72811 0.29126 0.21421
 H979 H 0.74888 0.17699 0.29304
 H980 H 0.72914 0.20320 0.31488
 H981 H 0.77587 0.29349 0.25887
 H982 H 0.79977 0.26853 0.23946
 H983 H 0.68086 0.20063 0.26933
 H984 H 0.70268 0.17450 0.24712
 C985 C 0.27201 0.09598 0.05296
 C986 C 0.27306 0.11432 0.06693
 C987 C 0.26146 0.11462 0.08691
 C988 C 0.24808 0.09655 0.09232
 C989 C 0.24695 0.07823 0.07850
 C990 C 0.25900 0.07725 0.05840
 C991 C 0.26316 0.13412 0.10155
 C992 C 0.26058 0.13260 0.12352
 C993 C 0.26133 0.15159 0.13887
 C994 C 0.26384 0.14722 0.16149
 C995 C 0.26335 0.16431 0.17688
 C996 C 0.26024 0.18627 0.17002
 C997 C 0.25795 0.19074 0.14732
 C998 C 0.25839 0.17358 0.13190
 H999 H 0.28079 0.09732 0.03749
 H1000 H 0.28310 0.12832 0.06213
 H1001 H 0.23831 0.09643 0.10730
 H1002 H 0.23734 0.06454 0.08464
 H1003 H 0.26756 0.14972 0.09404
 H1004 H 0.25833 0.11647 0.13092
 H1005 H 0.26599 0.13044 0.16734
 H1006 H 0.26519 0.16024 0.19421
 H1007 H 0.25535 0.20745 0.14149
 H1008 H 0.25580 0.17765 0.11470
 C1009 C 0.76556 0.59418 0.55222
 C1010 C 0.76650 0.61252 0.56623
 C1011 C 0.76218 0.61023 0.58890
 C1012 C 0.75640 0.58932 0.59724
 C1013 C 0.75542 0.57108 0.58329
 C1014 C 0.75994 0.57328 0.56063
 C1015 C 0.76285 0.62995 0.60334
 C1016 C 0.76772 0.62857 0.62491
 C1017 C 0.76670 0.64722 0.64072
 C1018 C 0.76679 0.64216 0.66334
 C1019 C 0.76540 0.65881 0.67913
 C1020 C 0.76403 0.68108 0.67271
 C1021 C 0.76424 0.68627 0.65005
 C1022 C 0.76559 0.66953 0.63418
 H1023 H 0.76884 0.59640 0.53476
 H1024 H 0.77069 0.62850 0.55936
 H1025 H 0.75216 0.58700 0.61445
 H1026 H 0.75118 0.55517 0.59028
 H1027 H 0.75912 0.64571 0.59582
 H1028 H 0.77211 0.61264 0.63176
 H1029 H 0.76770 0.62516 0.66888
 H1030 H 0.76538 0.65415 0.69641
 H1031 H 0.76335 0.70326 0.64454
 H1032 H 0.76595 0.67427 0.61697
 C1033 C 0.76862 0.93670 0.09674
 C1034 C 0.76823 0.92372 0.11591
 C1035 C 0.75673 0.90368 0.11644
 C1036 C 0.74493 0.89724 0.09757
 C1037 C 0.74534 0.91007 0.07840
 C1038 C 0.75729 0.93010 0.07742
 C1039 C 0.75714 0.89001 0.13686
 C1040 C 0.75440 0.86802 0.13645
 C1041 C 0.75494 0.85332 0.15610
 C1042 C 0.75666 0.83054 0.15241
 C1043 C 0.75662 0.81568 0.17000
 C1044 C 0.75479 0.82314 0.19191
 C1045 C 0.75309 0.84598 0.19574
 C1046 C 0.75309 0.86095 0.17802
 H1047 H 0.77730 0.95225 0.09760
 H1048 H 0.77712 0.92932 0.13038
 H1049 H 0.73522 0.88227 0.09745
 H1050 H 0.73684 0.90350 0.06419
 H1051 H 0.76097 0.89821 0.15223
 H1052 H 0.75253 0.85994 0.12063
 H1053 H 0.75802 0.82413 0.13576
 H1054 H 0.75804 0.79824 0.16632
 H1055 H 0.75156 0.85229 0.21240
 H1056 H 0.75125 0.87832 0.18162
 C1057 C 0.26246 0.44436 0.59947
 C1058 C 0.26155 0.43135 0.61861
 C1059 C 0.25658 0.40875 0.61731
 C1060 C 0.25338 0.39925 0.59635
 C1061 C 0.25426 0.41221 0.57730
 C1062 C 0.25856 0.43495 0.57862
 C1063 C 0.25562 0.39533 0.63786
 C1064 C 0.24345 0.37688 0.63941
 C1065 C 0.24356 0.36170 0.65865
 C1066 C 0.23739 0.33970 0.65506
 C1067 C 0.23769 0.32440 0.67228
 C1068 C 0.24387 0.33077 0.69370
 C1069 C 0.24944 0.35297 0.69756
 C1070 C 0.24938 0.36831 0.68017
 H1071 H 0.26580 0.46185 0.60100
 H1072 H 0.26440 0.43901 0.63451
 H1073 H 0.25060 0.38172 0.59447
 H1074 H 0.25183 0.40435 0.56143
 H1075 H 0.26530 0.40082 0.65180
 H1076 H 0.23351 0.37188 0.62545
 H1077 H 0.23267 0.33419 0.63871
 H1078 H 0.23310 0.30750 0.66875
 H1079 H 0.25421 0.35838 0.71392
 H1080 H 0.25369 0.38526 0.68372
 C1081 C 0.77681 0.07666 0.91991
 C1082 C 0.77657 0.09404 0.90466
 C1083 C 0.75738 0.09900 0.89268
 C1084 C 0.73834 0.08621 0.89631
 C1085 C 0.73856 0.06891 0.91160
 C1086 C 0.75773 0.06405 0.92370
 C1087 C 0.75753 0.11809 0.87729
 C1088 C 0.74393 0.11966 0.85990
 C1089 C 0.74426 0.13839 0.84414
 C1090 C 0.73744 0.13462 0.82237
 C1091 C 0.73755 0.15169 0.80688
 C1092 C 0.74412 0.17310 0.81290
 C1093 C 0.75041 0.17709 0.83489
 C1094 C 0.75055 0.15987 0.85037
 H1095 H 0.79171 0.07355 0.92925
 H1096 H 0.79140 0.10374 0.90231
 H1097 H 0.72304 0.08986 0.88790
 H1098 H 0.72362 0.05945 0.91415
 H1099 H 0.76997 0.13065 0.87980
 H1100 H 0.73301 0.10607 0.85609
 H1101 H 0.73229 0.11829 0.81723
 H1102 H 0.73243 0.14809 0.79013
 H1103 H 0.75551 0.19341 0.84003
 H1104 H 0.75530 0.16348 0.86720
 C1105 C 0.28018 0.58081 0.42044
 C1106 C 0.28060 0.59876 0.40587
 C1107 C 0.26203 0.60405 0.39309
 C1108 C 0.24295 0.59097 0.39519
 C1109 C 0.24252 0.57307 0.40977
 C1110 C 0.26104 0.56792 0.42271
 C1111 C 0.26281 0.62368 0.37841
 C1112 C 0.25014 0.62569 0.36038
 C1113 C 0.25107 0.64482 0.34515
 C1114 C 0.24501 0.64152 0.32308
 C1115 C 0.24549 0.65894 0.30802
 C1116 C 0.25171 0.68025 0.31474
 C1117 C 0.25731 0.68377 0.33698
 C1118 C 0.25708 0.66618 0.35207
 H1119 H 0.29457 0.57749 0.43049
 H1120 H 0.29543 0.60866 0.40470
 H1121 H 0.22807 0.59482 0.38613
 H1122 H 0.22755 0.56343 0.41115
 H1123 H 0.27497 0.63625 0.38200
 H1124 H 0.23957 0.61212 0.35561
 H1125 H 0.24010 0.62531 0.31739
 H1126 H 0.24086 0.65568 0.29107
 H1127 H 0.26212 0.70002 0.34264
 H1128 H 0.26127 0.66941 0.36913
 C1129 C 0.27557 0.91921 0.91393
 C1130 C 0.27586 0.90291 0.89761
 C1131 C 0.25697 0.89026 0.89330
 C1132 C 0.23768 0.89431 0.90559
 C1133 C 0.23735 0.91071 0.92179
 C1134 C 0.25624 0.92342 0.92604
 C1135 C 0.25760 0.87381 0.87521
 C1136 C 0.24473 0.85583 0.87491
 C1137 C 0.24516 0.83943 0.85681
 C1138 C 0.23941 0.81753 0.86157
 C1139 C 0.23918 0.80162 0.84491
 C1140 C 0.24432 0.80737 0.82298
 C1141 C 0.24975 0.82941 0.81811
 C1142 C 0.25023 0.84529 0.83487
 H1143 H 0.29026 0.92899 0.91662
 H1144 H 0.29085 0.90025 0.88822
 H1145 H 0.22262 0.88532 0.90234
 H1146 H 0.22223 0.91360 0.93089
 H1147 H 0.26973 0.87618 0.86227
 H1148 H 0.23422 0.85228 0.88895
 H1149 H 0.23520 0.81267 0.87829
 H1150 H 0.23470 0.78485 0.84921
 H1151 H 0.25368 0.83438 0.80137
 H1152 H 0.25411 0.86218 0.83051
 C1153 C 0.75809 0.39648 0.43524
 C1154 C 0.75809 0.37870 0.42050
 C1155 C 0.75369 0.38202 0.39794
 C1156 C 0.74990 0.40369 0.39035
 C1157 C 0.74978 0.42138 0.40510
 C1158 C 0.75371 0.41798 0.42771
 C1159 C 0.75372 0.36264 0.38291
 C1160 C 0.74387 0.36259 0.36304
 C1161 C 0.74398 0.34347 0.34777
 C1162 C 0.74066 0.34743 0.32517
 C1163 C 0.74008 0.32999 0.31012
 C1164 C 0.74256 0.30806 0.31737
 C1165 C 0.74573 0.30405 0.34005
 C1166 C 0.74643 0.32154 0.35510
 H1167 H 0.76114 0.39336 0.45260
 H1168 H 0.76129 0.36225 0.42678
 H1169 H 0.74739 0.40726 0.37304
 H1170 H 0.74694 0.43786 0.39873
 H1171 H 0.76202 0.34791 0.38867
 H1172 H 0.73549 0.37725 0.35725
 H1173 H 0.73854 0.36413 0.31910
 H1174 H 0.73745 0.33373 0.29282
 H1175 H 0.74754 0.28736 0.34622
 H1176 H 0.74836 0.31772 0.37245
 C1177 C 0.06313 0.23220 0.09161
 C1178 C 0.08038 0.23310 0.10681
 C1179 C 0.09911 0.24598 0.10272
 C1180 C 0.10013 0.25822 0.08298
 C1181 C 0.08281 0.25740 0.06769
 C1182 C 0.06387 0.24433 0.07163
 C1183 C 0.11653 0.24674 0.11996
 C1184 C 0.13730 0.25362 0.11650
 C1185 C 0.15428 0.25389 0.13420
 C1186 C 0.17667 0.25287 0.12832
 C1187 C 0.19310 0.25296 0.14455
 C1188 C 0.18750 0.25423 0.16708
 C1189 C 0.16509 0.25566 0.17292
 C1190 C 0.14870 0.25561 0.15671
 H1191 H 0.04880 0.22270 0.09635
 H1192 H 0.07894 0.22378 0.12204
 H1193 H 0.11407 0.26874 0.07932
 H1194 H 0.08480 0.26664 0.05252
 H1195 H 0.11208 0.24035 0.13606
 H1196 H 0.14253 0.25816 0.10002
 H1197 H 0.18146 0.25176 0.11111
 H1198 H 0.21019 0.25193 0.13942
 H1199 H 0.16014 0.25696 0.19007
 H1200 H 0.13172 0.25730 0.16196
 C1201 C 0.56702 0.74331 0.59681
 C1202 C 0.58406 0.74368 0.61227
 C1203 C 0.60501 0.75173 0.60661
 C1204 C 0.60845 0.75977 0.58500
 C1205 C 0.59135 0.75935 0.56945
 C1206 C 0.57046 0.75101 0.57516
 C1207 C 0.62230 0.75183 0.62400
 C1208 C 0.64392 0.75493 0.62027
 C1209 C 0.66074 0.75436 0.63812
 C1210 C 0.68281 0.74999 0.63257
 C1211 C 0.69909 0.74902 0.64891
 C1212 C 0.69365 0.75246 0.67124
 C1213 C 0.67164 0.75726 0.67675
 C1214 C 0.65541 0.75837 0.66042
 H1215 H 0.55101 0.73727 0.60194
 H1216 H 0.58079 0.73763 0.62881
 H1217 H 0.62412 0.76663 0.57998
 H1218 H 0.59453 0.76538 0.55290
 H1219 H 0.61681 0.74815 0.64061
 H1220 H 0.64988 0.75682 0.60354
 H1221 H 0.68744 0.74707 0.61553
 H1222 H 0.71589 0.74536 0.64406
 H1223 H 0.66692 0.76037 0.69373
 H1224 H 0.63884 0.76270 0.66540
 C1225 C 0.05585 0.75422 0.90780
 C1226 C 0.07093 0.75376 0.89029
 C1227 C 0.08985 0.74053 0.89138
 C1228 C 0.09300 0.72705 0.90999
 C1229 C 0.07803 0.72749 0.92750
 C1230 C 0.05917 0.74123 0.92696
 C1231 C 0.10576 0.74089 0.87275
 C1232 C 0.12718 0.73586 0.87521
 C1233 C 0.14354 0.73642 0.85700
 C1234 C 0.16600 0.73770 0.86241
 C1235 C 0.18209 0.73806 0.84589
 C1236 C 0.17607 0.73700 0.82350
 C1237 C 0.15357 0.73542 0.81806
 C1238 C 0.13748 0.73504 0.83461
 H1239 H 0.04132 0.76437 0.90578
 H1240 H 0.06787 0.76396 0.87590
 H1241 H 0.10700 0.71605 0.91120
 H1242 H 0.08212 0.71761 0.94181
 H1243 H 0.09975 0.74669 0.85695
 H1244 H 0.13347 0.73217 0.89153
 H1245 H 0.17114 0.73859 0.87952
 H1246 H 0.19924 0.73927 0.85070
 H1247 H 0.14835 0.73438 0.80099
 H1248 H 0.12043 0.73329 0.82973
 C1249 C 0.54957 0.25909 0.40545
 C1250 C 0.56498 0.25800 0.38825
 C1251 C 0.58548 0.24764 0.39140
 C1252 C 0.59002 0.23789 0.41202
 C1253 C 0.57470 0.23906 0.42919
 C1254 C 0.55429 0.24967 0.42615
 C1255 C 0.60137 0.24680 0.37274
 C1256 C 0.62314 0.24375 0.37552
 C1257 C 0.63938 0.24264 0.35718
 C1258 C 0.66184 0.24504 0.36224
 C1259 C 0.67786 0.24373 0.34570
 C1260 C 0.67180 0.23992 0.32363
 C1261 C 0.64932 0.23731 0.31855
 C1262 C 0.63329 0.23853 0.33513
 H1263 H 0.53388 0.26709 0.40247
 H1264 H 0.56093 0.26540 0.37246
 H1265 H 0.60522 0.22905 0.41500
 H1266 H 0.57899 0.23183 0.44498
 H1267 H 0.59485 0.24974 0.35638
 H1268 H 0.62976 0.24284 0.39208
 H1269 H 0.66704 0.24803 0.37909
 H1270 H 0.69500 0.24584 0.35023
 H1271 H 0.64408 0.23415 0.30176
 H1272 H 0.61628 0.23586 0.33053
 C1273 C 0.92221 0.77739 0.09001
 C1274 C 0.90621 0.77937 0.10654
 C1275 C 0.89774 0.76061 0.11709
 C1276 C 0.90561 0.73973 0.11087
 C1277 C 0.92138 0.73767 0.09420
 C1278 C 0.92979 0.75642 0.08313
 C1279 C 0.87986 0.76315 0.13354
 C1280 C 0.87689 0.74897 0.15028
 C1281 C 0.85856 0.75101 0.16625
 C1282 C 0.86177 0.74373 0.18800
 C1283 C 0.84470 0.74504 0.20343
 C1284 C 0.82388 0.75320 0.19726
 C1285 C 0.82052 0.76010 0.17535
 C1286 C 0.83773 0.75911 0.15999
 H1287 H 0.92749 0.79236 0.08181
 H1288 H 0.90021 0.79564 0.11091
 H1289 H 0.89920 0.72485 0.11842
 H1290 H 0.92715 0.72121 0.09038
 H1291 H 0.86929 0.77752 0.13216
 H1292 H 0.88880 0.73593 0.15306
 H1293 H 0.87760 0.73719 0.19310
 H1294 H 0.84773 0.73944 0.22016
 H1295 H 0.80465 0.76646 0.17013
 H1296 H 0.83459 0.76430 0.14316
 C1297 C 0.41121 0.28841 0.58512
 C1298 C 0.39521 0.29036 0.60168
 C1299 C 0.38956 0.27213 0.61485
 C1300 C 0.40027 0.25184 0.61118
 C1301 C 0.41610 0.24985 0.59452
 C1302 C 0.42157 0.26804 0.58118
 C1303 C 0.37155 0.27438 0.63127
 C1304 C 0.37026 0.26188 0.64952
 C1305 C 0.35186 0.26345 0.66553
 C1306 C 0.35582 0.25795 0.68768
 C1307 C 0.33874 0.25853 0.70317
 C1308 C 0.31719 0.26422 0.69675
 C1309 C 0.31315 0.26949 0.67449
 C1310 C 0.33032 0.26917 0.65903
 H1311 H 0.41489 0.30261 0.57487
 H1312 H 0.38706 0.30609 0.60405
 H1313 H 0.39595 0.23727 0.62060
 H1314 H 0.42386 0.23397 0.59182
 H1315 H 0.35940 0.28719 0.62848
 H1316 H 0.38359 0.25065 0.65347
 H1317 H 0.37221 0.25326 0.69304
 H1318 H 0.34239 0.25422 0.72015
 H1319 H 0.29672 0.27389 0.66901
 H1320 H 0.32659 0.27290 0.64195
 C1321 C 0.89269 0.25628 0.93929
 C1322 C 0.87595 0.25717 0.92340
 C1323 C 0.87820 0.24618 0.90317
 C1324 C 0.89733 0.23366 0.89940
 C1325 C 0.91406 0.23273 0.91518
 C1326 C 0.91224 0.24408 0.93552
 C1327 C 0.86009 0.24752 0.88671
 C1328 C 0.86326 0.24439 0.86496
 C1329 C 0.84545 0.24501 0.84814
 C1330 C 0.85140 0.24698 0.82580
 C1331 C 0.83538 0.24672 0.80922
 C1332 C 0.81294 0.24441 0.81459
 C1333 C 0.80694 0.24248 0.83697
 C1334 C 0.82298 0.24267 0.85356
 H1335 H 0.88973 0.26463 0.95477
 H1336 H 0.86116 0.26659 0.92693
 H1337 H 0.89949 0.22435 0.88433
 H1338 H 0.92877 0.22370 0.91071
 H1339 H 0.84394 0.25208 0.89278
 H1340 H 0.87985 0.24186 0.85886
 H1341 H 0.86857 0.24862 0.82111
 H1342 H 0.84064 0.24821 0.79218
 H1343 H 0.78983 0.24045 0.84172
 H1344 H 0.81764 0.24045 0.87046
 C1345 C 0.39798 0.76244 0.44299
 C1346 C 0.38108 0.76338 0.42728
 C1347 C 0.38467 0.75604 0.40557
 C1348 C 0.40546 0.74730 0.40002
 C1349 C 0.42232 0.74645 0.41566
 C1350 C 0.41881 0.75394 0.43734
 C1351 C 0.36623 0.75691 0.38946
 C1352 C 0.36933 0.75684 0.36748
 C1353 C 0.35132 0.75666 0.35086
 C1354 C 0.35680 0.76069 0.32867
 C1355 C 0.34076 0.75974 0.31217
 C1356 C 0.31876 0.75473 0.31746
 C1357 C 0.31318 0.75081 0.33968
 C1358 C 0.32927 0.75163 0.35619
 H1359 H 0.39465 0.76807 0.45963
 H1360 H 0.36515 0.76992 0.43209
 H1361 H 0.40879 0.74071 0.38377
 H1362 H 0.43823 0.74003 0.41066
 H1363 H 0.34975 0.75829 0.39615
 H1364 H 0.38597 0.75741 0.36104
 H1365 H 0.37365 0.76446 0.32403
 H1366 H 0.34565 0.76288 0.29524
 H1367 H 0.29642 0.74668 0.34431
 H1368 H 0.32430 0.74780 0.37291
 C1369 C 0.08318 0.08616 0.21795
 C1370 C 0.09844 0.10338 0.21616
 C1371 C 0.11164 0.10932 0.23423
 C1372 C 0.10927 0.09762 0.25421
 C1373 C 0.09395 0.08049 0.25603
 C1374 C 0.08059 0.07471 0.23800
 C1375 C 0.12683 0.12839 0.23204
 C1376 C 0.14505 0.13069 0.24436
 C1377 C 0.16030 0.14969 0.24236
 C1378 C 0.18248 0.14665 0.24812
 C1379 C 0.19741 0.16412 0.24681
 C1380 C 0.19043 0.18522 0.24006
 C1381 C 0.16811 0.18843 0.23467
 C1382 C 0.15318 0.17082 0.23575
 H1383 H 0.07286 0.08231 0.20389
 H1384 H 0.09981 0.11223 0.20065
 H1385 H 0.11869 0.10205 0.26870
 H1386 H 0.09233 0.07194 0.27168
 H1387 H 0.12330 0.14039 0.21924
 H1388 H 0.14977 0.11761 0.25561
 H1389 H 0.18833 0.13061 0.25348
 H1390 H 0.21445 0.16109 0.25125
 H1391 H 0.16221 0.20450 0.22947
 H1392 H 0.13605 0.17391 0.23179
 C1393 C 0.56950 0.59886 0.73818
 C1394 C 0.58489 0.61599 0.73818
 C1395 C 0.60648 0.61245 0.74570
 C1396 C 0.61221 0.59136 0.75374
 C1397 C 0.59680 0.57417 0.75367
 C1398 C 0.57530 0.57768 0.74577
 C1399 C 0.62218 0.63128 0.74521
 C1400 C 0.64418 0.62889 0.74583
 C1401 C 0.66013 0.64748 0.74453
 C1402 C 0.68230 0.64248 0.74016
 C1403 C 0.69813 0.65914 0.73899
 C1404 C 0.69223 0.68136 0.74221
 C1405 C 0.67005 0.68647 0.74664
 C1406 C 0.65417 0.66973 0.74793
 H1407 H 0.55293 0.60230 0.73249
 H1408 H 0.57990 0.63210 0.73217
 H1409 H 0.62841 0.58801 0.76039
 H1410 H 0.60179 0.55807 0.75965
 H1411 H 0.61514 0.64754 0.74305
 H1412 H 0.65113 0.61246 0.74624
 H1413 H 0.68743 0.62554 0.73757
 H1414 H 0.71504 0.65454 0.73551
 H1415 H 0.66499 0.70339 0.74941
 H1416 H 0.63744 0.67440 0.75195
 C1417 C 0.93374 0.09049 0.72161
 C1418 C 0.91745 0.10678 0.72090
 C1419 C 0.90429 0.11107 0.73941
 C1420 C 0.90841 0.09948 0.75908
 C1421 C 0.92495 0.08340 0.75997
 C1422 C 0.93768 0.07821 0.74110
 C1423 C 0.88680 0.12804 0.73779
 C1424 C 0.86785 0.12685 0.74918
 C1425 C 0.85011 0.14356 0.74722
 C1426 C 0.82821 0.13731 0.75141
 C1427 C 0.81113 0.15281 0.75021
 C1428 C 0.81568 0.17500 0.74514
 C1429 C 0.83766 0.18126 0.74106
 C1430 C 0.85467 0.16574 0.74209
 H1431 H 0.94361 0.08810 0.70691
 H1432 H 0.91490 0.11587 0.70568
 H1433 H 0.89891 0.10283 0.77385
 H1434 H 0.92678 0.07434 0.77528
 H1435 H 0.88908 0.14108 0.72574
 H1436 H 0.86466 0.11255 0.75948
 H1437 H 0.82431 0.12036 0.75558
 H1438 H 0.79443 0.14747 0.75365
 H1439 H 0.84179 0.19823 0.73725
 H1440 H 0.87141 0.17132 0.73940
 C1441 C 0.41203 0.56803 0.23589
 C1442 C 0.39451 0.58294 0.23637
 C1443 C 0.39692 0.60367 0.24632
 C1444 C 0.41723 0.60903 0.25625
 C1445 C 0.43481 0.59408 0.25574
 C1446 C 0.43243 0.57346 0.24544
 C1447 C 0.37769 0.61879 0.24638
 C1448 C 0.37925 0.64067 0.24926
 C1449 C 0.36001 0.65579 0.24855
 C1450 C 0.36380 0.67830 0.24465
 C1451 C 0.34628 0.69325 0.24406
 C1452 C 0.32450 0.68603 0.24744
 C1453 C 0.32067 0.66351 0.25146
 C1454 C 0.33822 0.64856 0.25216
 H1455 H 0.40948 0.55206 0.22830
 H1456 H 0.37900 0.57825 0.22886
 H1457 H 0.41960 0.62454 0.26472
 H1458 H 0.45032 0.59870 0.26328
 H1459 H 0.36182 0.61156 0.24262
 H1460 H 0.39533 0.64817 0.25105
 H1461 H 0.38040 0.68436 0.24198
 H1462 H 0.34986 0.71050 0.24098
 H1463 H 0.30413 0.65745 0.25447
 H1464 H 0.33458 0.63151 0.25600
 C1465 C 0.09666 0.93093 0.73384
 C1466 C 0.11216 0.91393 0.73472
 C1467 C 0.10750 0.89410 0.74569
 C1468 C 0.08683 0.89171 0.75600
 C1469 C 0.07122 0.90875 0.75515
 C1470 C 0.07575 0.92881 0.74402
 C1471 C 0.12506 0.87699 0.74657
 C1472 C 0.12176 0.85578 0.75212
 C1473 C 0.13981 0.83916 0.75264
 C1474 C 0.13453 0.81670 0.75051
 C1475 C 0.15108 0.80058 0.75086
 C1476 C 0.17334 0.80658 0.75347
 C1477 C 0.17858 0.82904 0.75598
 C1478 C 0.16204 0.84512 0.75571
 H1479 H 0.10181 0.94610 0.72596
 H1480 H 0.12806 0.91643 0.72693
 H1481 H 0.08263 0.87688 0.76502
 H1482 H 0.05539 0.90568 0.76278
 H1483 H 0.14137 0.88216 0.74148
 H1484 H 0.10523 0.84992 0.75537
 H1485 H 0.11754 0.81162 0.74838
 H1486 H 0.14641 0.78344 0.74901
 H1487 H 0.19548 0.83426 0.75838
 H1488 H 0.16681 0.86211 0.75832
 C1489 C 0.59949 0.43288 0.23965
 C1490 C 0.61463 0.41553 0.23964
 C1491 C 0.60834 0.39425 0.24633
 C1492 C 0.58641 0.39077 0.25329
 C1493 C 0.57120 0.40816 0.25319
 C1494 C 0.57756 0.42940 0.24632
 C1495 C 0.62544 0.37667 0.24629
 C1496 C 0.62138 0.35506 0.24914
 C1497 C 0.63898 0.33798 0.24922
 C1498 C 0.63313 0.31587 0.24553
 C1499 C 0.64912 0.29922 0.24580
 C1500 C 0.67137 0.30434 0.24979
 C1501 C 0.67721 0.32644 0.25365
 C1502 C 0.66122 0.34303 0.25356
 H1503 H 0.60509 0.44913 0.23472
 H1504 H 0.63142 0.41882 0.23444
 H1505 H 0.58083 0.37485 0.25907
 H1506 H 0.55440 0.40493 0.25834
 H1507 H 0.64215 0.38199 0.24304
 H1508 H 0.60460 0.34929 0.25070
 H1509 H 0.61611 0.31145 0.24237
 H1510 H 0.64404 0.28234 0.24287
 H1511 H 0.69413 0.33092 0.25721
 H1512 H 0.66644 0.35964 0.25741
 C1513 C 0.90908 0.94345 0.24252
 C1514 C 0.89121 0.92889 0.24384
 C1515 C 0.89227 0.90996 0.25715
 C1516 C 0.91134 0.90630 0.26977
 C1517 C 0.92923 0.92072 0.26843
 C1518 C 0.92865 0.93961 0.25465
 C1519 C 0.87318 0.89461 0.25767
 C1520 C 0.87511 0.87321 0.26316
 C1521 C 0.85659 0.85719 0.26333
 C1522 C 0.86170 0.83460 0.26362
 C1523 C 0.84502 0.81874 0.26392
 C1524 C 0.82271 0.82507 0.26403
 C1525 C 0.81753 0.84771 0.26403
 C1526 C 0.83426 0.86362 0.26378
 H1527 H 0.90701 0.95802 0.23242
 H1528 H 0.87652 0.93237 0.23427
 H1529 H 0.91263 0.89233 0.28084
 H1530 H 0.94378 0.91619 0.27767
 H1531 H 0.85746 0.90100 0.25216
 H1532 H 0.89129 0.86657 0.26672
 H1533 H 0.87872 0.82914 0.26346
 H1534 H 0.84968 0.80148 0.26392
 H1535 H 0.80052 0.85318 0.26427
 H1536 H 0.82954 0.88082 0.26423
 C1537 C 0.43700 0.40883 0.75477
 C1538 C 0.42035 0.39313 0.75708
 C1539 C 0.39940 0.39915 0.76488
 C1540 C 0.39561 0.42131 0.77086
 C1541 C 0.41233 0.43708 0.76849
 C1542 C 0.43314 0.43102 0.76024
 C1543 C 0.38238 0.38165 0.76669
 C1544 C 0.36066 0.38546 0.76875
 C1545 C 0.34402 0.36750 0.76907
 C1546 C 0.32223 0.37237 0.76295
 C1547 C 0.30626 0.35575 0.76218
 C1548 C 0.31177 0.33385 0.76757
 C1549 C 0.33342 0.32908 0.77434
 C1550 C 0.34931 0.34572 0.77528
 H1551 H 0.45300 0.40352 0.74886
 H1552 H 0.42385 0.37617 0.75261
 H1553 H 0.37994 0.42661 0.77752
 H1554 H 0.40888 0.45406 0.77286
 H1555 H 0.38811 0.36484 0.76487
 H1556 H 0.35454 0.40222 0.76870
 H1557 H 0.31763 0.38904 0.75832
 H1558 H 0.28971 0.35999 0.75695
 H1559 H 0.33810 0.31246 0.77900
 H1560 H 0.36562 0.34137 0.78103
 C1561 C 0.05506 0.26341 0.91172
 C1562 C 0.07077 0.26402 0.89486
 C1563 C 0.09066 0.25247 0.89681
 C1564 C 0.09433 0.23977 0.91594
 C1565 C 0.07859 0.23907 0.93287
 C1566 C 0.05860 0.25100 0.93123
 C1567 C 0.10676 0.25380 0.87835
 C1568 C 0.12841 0.24993 0.88074
 C1569 C 0.14475 0.25248 0.86262
 C1570 C 0.16696 0.25546 0.86827
 C1571 C 0.18304 0.25784 0.85193
 C1572 C 0.17735 0.25717 0.82941
 C1573 C 0.15511 0.25398 0.82368
 C1574 C 0.13898 0.25158 0.84009
 H1575 H 0.03974 0.27203 0.90872
 H1576 H 0.06730 0.27362 0.88014
 H1577 H 0.10921 0.23012 0.91789
 H1578 H 0.08267 0.22965 0.94749
 H1579 H 0.10059 0.25960 0.86261
 H1580 H 0.13484 0.24606 0.89696
 H1581 H 0.17192 0.25606 0.88545
 H1582 H 0.20000 0.26015 0.85702
 H1583 H 0.15018 0.25308 0.80651
 H1584 H 0.12216 0.24861 0.83498
 C1585 C 0.56092 0.76207 0.41153
 C1586 C 0.57651 0.76186 0.39454
 C1587 C 0.59792 0.75391 0.39826
 C1588 C 0.60323 0.74557 0.41935
 C1589 C 0.58760 0.74580 0.43640
 C1590 C 0.56632 0.75422 0.43272
 C1591 C 0.61387 0.75433 0.37961
 C1592 C 0.63583 0.75376 0.38229
 C1593 C 0.65199 0.75519 0.36385
 C1594 C 0.67397 0.76022 0.36901
 C1595 C 0.68998 0.76144 0.35248
 C1596 C 0.68447 0.75761 0.33026
 C1597 C 0.66247 0.75256 0.32499
 C1598 C 0.64641 0.75123 0.34159
 H1599 H 0.54451 0.76815 0.40796
 H1600 H 0.57184 0.76810 0.37842
 H1601 H 0.61928 0.73860 0.42279
 H1602 H 0.59224 0.73958 0.45252
 H1603 H 0.60708 0.75651 0.36324
 H1604 H 0.64254 0.75340 0.39883
 H1605 H 0.67881 0.76323 0.38597
 H1606 H 0.70676 0.76534 0.35720
 H1607 H 0.65773 0.74921 0.30808
 H1608 H 0.62986 0.74666 0.33685
 C1609 C 0.90490 0.76493 0.93381
 C1610 C 0.88919 0.76500 0.91700
 C1611 C 0.89226 0.75238 0.89790
 C1612 C 0.91134 0.73933 0.89607
 C1613 C 0.92712 0.73918 0.91291
 C1614 C 0.92428 0.75203 0.93218
 C1615 C 0.87476 0.75273 0.88084
 C1616 C 0.87807 0.74711 0.85968
 C1617 C 0.86040 0.74781 0.84280
 C1618 C 0.86633 0.74983 0.82049
 C1619 C 0.85019 0.75041 0.80405
 C1620 C 0.82771 0.74881 0.80958
 C1621 C 0.82178 0.74655 0.83193
 C1622 C 0.83792 0.74593 0.84835
 H1623 H 0.90106 0.77434 0.94848
 H1624 H 0.87444 0.77491 0.91902
 H1625 H 0.91411 0.72892 0.88184
 H1626 H 0.94180 0.72941 0.91026
 H1627 H 0.85879 0.75894 0.88586
 H1628 H 0.89450 0.74291 0.85409
 H1629 H 0.88352 0.75113 0.81576
 H1630 H 0.85536 0.75213 0.78700
 H1631 H 0.80464 0.74500 0.83676
 H1632 H 0.83268 0.74353 0.86527
 C1633 C 0.39746 0.27296 0.43107
 C1634 C 0.38204 0.27337 0.41399
 C1635 C 0.38705 0.26432 0.39326
 C1636 C 0.40793 0.25458 0.39006
 C1637 C 0.42342 0.25422 0.40720
 C1638 C 0.41836 0.26342 0.42789
 C1639 C 0.36967 0.26468 0.37600
 C1640 C 0.37336 0.26117 0.35441
 C1641 C 0.35558 0.26137 0.33754
 C1642 C 0.36126 0.26470 0.31529
 C1643 C 0.34508 0.26457 0.29884
 C1644 C 0.32281 0.26101 0.30428
 C1645 C 0.31713 0.25757 0.32654
 C1646 C 0.33330 0.25758 0.34296
 H1647 H 0.39283 0.27976 0.44694
 H1648 H 0.36604 0.28073 0.41704
 H1649 H 0.41234 0.24687 0.37460
 H1650 H 0.43940 0.24680 0.40421
 H1651 H 0.35319 0.26884 0.38145
 H1652 H 0.39005 0.25891 0.34852
 H1653 H 0.37829 0.26746 0.31062
 H1654 H 0.35006 0.26725 0.28185
 H1655 H 0.30018 0.25447 0.33130
 H1656 H 0.32822 0.25411 0.35973
 C1657 C 0.06025 0.73920 0.10017
 C1658 C 0.07627 0.73805 0.11676
 C1659 C 0.09873 0.74065 0.11164
 C1660 C 0.10490 0.74365 0.08941
 C1661 C 0.08892 0.74490 0.07290
 C1662 C 0.06643 0.74294 0.07812
 C1663 C 0.11516 0.73975 0.12975
 C1664 C 0.13527 0.74893 0.12826
 C1665 C 0.15189 0.74819 0.14616
 C1666 C 0.17419 0.75092 0.14058
 C1667 C 0.19046 0.75078 0.15689
 C1668 C 0.18474 0.74813 0.17925
 C1669 C 0.16236 0.74561 0.18488
 C1670 C 0.14610 0.74567 0.16854
 H1671 H 0.04302 0.73762 0.10464
 H1672 H 0.07108 0.73547 0.13370
 H1673 H 0.12202 0.74470 0.08453
 H1674 H 0.09418 0.74716 0.05594
 H1675 H 0.11023 0.73152 0.14483
 H1676 H 0.14014 0.75726 0.11321
 H1677 H 0.17907 0.75310 0.12349
 H1678 H 0.20750 0.75293 0.15196
 H1679 H 0.15735 0.74372 0.20195
 H1680 H 0.12906 0.74425 0.17363
 C1681 C 0.55259 0.24399 0.59844
 C1682 C 0.56869 0.24144 0.61481
 C1683 C 0.59123 0.24283 0.60952
 C1684 C 0.59733 0.24613 0.58731
 C1685 C 0.58126 0.24879 0.57102
 C1686 C 0.55874 0.24797 0.57641
 C1687 C 0.60777 0.24035 0.62747
 C1688 C 0.62862 0.24769 0.62590
 C1689 C 0.64527 0.24546 0.64371
 C1690 C 0.66769 0.24660 0.63802
 C1691 C 0.68402 0.24525 0.65425
 C1692 C 0.67828 0.24295 0.67664
 C1693 C 0.65580 0.24193 0.68237
 C1694 C 0.63947 0.24320 0.66612
 H1695 H 0.53534 0.24326 0.60305
 H1696 H 0.56352 0.23867 0.63172
 H1697 H 0.61442 0.24633 0.58222
 H1698 H 0.58649 0.25122 0.55407
 H1699 H 0.60227 0.23246 0.64254
 H1700 H 0.63412 0.25566 0.61087
 H1701 H 0.67262 0.24853 0.62092
 H1702 H 0.70114 0.24625 0.64922
 H1703 H 0.65076 0.24036 0.69947
 H1704 H 0.62241 0.24296 0.67132
 C1705 C 0.89493 0.25531 0.07189
 C1706 C 0.87716 0.25429 0.08658
 C1707 C 0.87361 0.23540 0.09955
 C1708 C 0.88765 0.21708 0.09681
 C1709 C 0.90528 0.21801 0.08190
 C1710 C 0.90930 0.23726 0.06956
 C1711 C 0.85515 0.23537 0.11562
 C1712 C 0.85577 0.22409 0.13470
 C1713 C 0.83813 0.22546 0.15163
 C1714 C 0.84365 0.22219 0.17390
 C1715 C 0.82757 0.22375 0.19040
 C1716 C 0.80548 0.22827 0.18495
 C1717 C 0.79985 0.23101 0.16256
 C1718 C 0.81599 0.22965 0.14608
 H1719 H 0.89748 0.27024 0.06236
 H1720 H 0.86643 0.26851 0.08820
 H1721 H 0.88501 0.20202 0.10608
 H1722 H 0.91613 0.20387 0.08042
 H1723 H 0.84149 0.24644 0.11239
 H1724 H 0.87046 0.21483 0.13892
 H1725 H 0.86054 0.21873 0.17859
 H1726 H 0.83245 0.22131 0.20744
 H1727 H 0.78298 0.23435 0.15775
 H1728 H 0.81100 0.23160 0.12903
 C1729 C 0.40168 0.76595 0.57314
 C1730 C 0.38370 0.76537 0.58761
 C1731 C 0.37930 0.74641 0.60021
 C1732 C 0.39266 0.72762 0.59731
 C1733 C 0.41050 0.72812 0.58264
 C1734 C 0.41539 0.74740 0.57067
 C1735 C 0.36072 0.74679 0.61613
 C1736 C 0.36094 0.73526 0.63508
 C1737 C 0.34323 0.73672 0.65192
 C1738 C 0.34853 0.73261 0.67409
 C1739 C 0.33236 0.73381 0.69051
 C1740 C 0.31038 0.73883 0.68506
 C1741 C 0.30497 0.74259 0.66278
 C1742 C 0.32122 0.74159 0.64637
 H1743 H 0.40492 0.78093 0.56390
 H1744 H 0.37351 0.77995 0.58936
 H1745 H 0.38934 0.71251 0.60628
 H1746 H 0.42081 0.71360 0.58105
 H1747 H 0.34740 0.75827 0.61294
 H1748 H 0.37536 0.72556 0.63924
 H1749 H 0.36531 0.72863 0.67877
 H1750 H 0.33706 0.73056 0.70747
 H1751 H 0.28817 0.74632 0.65799
 H1752 H 0.31640 0.74423 0.62936
 C1753 C 0.26939 0.09503 0.93405
 C1754 C 0.26883 0.11449 0.92162
 C1755 C 0.24950 0.12085 0.91063
 C1756 C 0.23035 0.10798 0.91320
 C1757 C 0.23086 0.08863 0.92579
 C1758 C 0.25048 0.08177 0.93602
 C1759 C 0.24995 0.14067 0.89631
 C1760 C 0.23790 0.14211 0.87782
 C1761 C 0.23990 0.16052 0.86187
 C1762 C 0.23552 0.15631 0.83955
 C1763 C 0.23746 0.17304 0.82382
 C1764 C 0.24348 0.19454 0.83013
 C1765 C 0.24742 0.19892 0.85258
 C1766 C 0.24572 0.18205 0.86832
 H1767 H 0.28463 0.09030 0.94209
 H1768 H 0.28371 0.12427 0.92009
 H1769 H 0.21499 0.11278 0.90546
 H1770 H 0.21604 0.07873 0.92706
 H1771 H 0.26204 0.15330 0.89995
 H1772 H 0.22755 0.12834 0.87308
 H1773 H 0.23082 0.13991 0.83421
 H1774 H 0.23400 0.16916 0.80671
 H1775 H 0.25189 0.21536 0.85797
 H1776 H 0.24864 0.18598 0.88550
 C1777 C 0.77046 0.59059 0.43547
 C1778 C 0.77036 0.61028 0.42341
 C1779 C 0.75098 0.61773 0.41321
 C1780 C 0.73136 0.60570 0.41625
 C1781 C 0.73142 0.58608 0.42844
 C1782 C 0.75105 0.57812 0.43784
 C1783 C 0.75191 0.63768 0.39906
 C1784 C 0.73920 0.63999 0.38111
 C1785 C 0.74184 0.65815 0.36495
 C1786 C 0.73626 0.65409 0.34288
 C1787 C 0.73893 0.67044 0.32688
 C1788 C 0.74691 0.69143 0.33264
 C1789 C 0.75197 0.69576 0.35487
 C1790 C 0.74956 0.67923 0.37090
 H1791 H 0.78574 0.58504 0.44288
 H1792 H 0.78562 0.61939 0.42150
 H1793 H 0.71596 0.61133 0.40917
 H1794 H 0.71622 0.57684 0.43003
 H1795 H 0.76491 0.64952 0.40221
 H1796 H 0.72780 0.62693 0.37681
 H1797 H 0.73010 0.63806 0.33793
 H1798 H 0.73455 0.66664 0.30996
 H1799 H 0.75797 0.71184 0.35982
 H1800 H 0.75347 0.68306 0.38791
 C1801 C 0.75961 0.08395 0.06843
 C1802 C 0.75733 0.10004 0.08472
 C1803 C 0.74820 0.09481 0.10538
 C1804 C 0.74112 0.07299 0.10931
 C1805 C 0.74347 0.05682 0.09296
 C1806 C 0.75281 0.06212 0.07235
 C1807 C 0.74594 0.11287 0.12180
 C1808 C 0.74157 0.10990 0.14335
 C1809 C 0.74007 0.12847 0.15927
 C1810 C 0.74376 0.12427 0.18178
 C1811 C 0.74299 0.14141 0.19721
 C1812 C 0.73841 0.16316 0.19045
 C1813 C 0.73421 0.16727 0.16799
 C1814 C 0.73485 0.15014 0.15261
 H1815 H 0.76637 0.08875 0.05257
 H1816 H 0.76269 0.11671 0.08109
 H1817 H 0.73351 0.06827 0.12476
 H1818 H 0.73809 0.04014 0.09648
 H1819 H 0.74907 0.12941 0.11579
 H1820 H 0.74023 0.09338 0.15000
 H1821 H 0.74759 0.10772 0.18740
 H1822 H 0.74628 0.13765 0.21440
 H1823 H 0.73029 0.18376 0.16227
 H1824 H 0.73097 0.15399 0.13560
 C1825 C 0.25920 0.59196 0.56309
 C1826 C 0.25718 0.60866 0.57881
 C1827 C 0.24860 0.60412 0.59985
 C1828 C 0.24151 0.58248 0.60467
 C1829 C 0.24359 0.56573 0.58892
 C1830 C 0.25263 0.57026 0.56801
 C1831 C 0.24711 0.62252 0.61594
 C1832 C 0.24535 0.61961 0.63785
 C1833 C 0.24501 0.63800 0.65402
 C1834 C 0.24959 0.63316 0.67622
 C1835 C 0.24948 0.64979 0.69214
 C1836 C 0.24471 0.67175 0.68626
 C1837 C 0.23997 0.67664 0.66406
 C1838 C 0.23995 0.65995 0.64813
 H1839 H 0.26572 0.59614 0.54695
 H1840 H 0.26249 0.62519 0.57451
 H1841 H 0.23413 0.57836 0.62041
 H1842 H 0.23833 0.54918 0.59318
 H1843 H 0.24891 0.63902 0.60936
 H1844 H 0.24541 0.60305 0.64455
 H1845 H 0.25342 0.61643 0.68128
 H1846 H 0.25324 0.64541 0.70908
 H1847 H 0.23597 0.69333 0.65903
 H1848 H 0.23559 0.66438 0.63139
 C1849 C 0.78114 0.92709 0.90469
 C1850 C 0.78197 0.91299 0.88644
 C1851 C 0.76365 0.90006 0.88075
 C1852 C 0.74410 0.90223 0.89313
 C1853 C 0.74320 0.91652 0.91124
 C1854 C 0.76181 0.92886 0.91741
 C1855 C 0.76543 0.88458 0.86186
 C1856 C 0.75445 0.86537 0.86120
 C1857 C 0.75690 0.84899 0.84318
 C1858 C 0.75268 0.82671 0.84788
 C1859 C 0.75429 0.81071 0.83137
 C1860 C 0.75982 0.81665 0.80959
 C1861 C 0.76393 0.83902 0.80480
 C1862 C 0.76253 0.85503 0.82142
 H1863 H 0.79563 0.93663 0.90889
 H1864 H 0.79712 0.91181 0.87701
 H1865 H 0.72946 0.89299 0.88882
 H1866 H 0.72809 0.91753 0.92075
 H1867 H 0.77736 0.88839 0.84909
 H1868 H 0.74425 0.86069 0.87514
 H1869 H 0.74817 0.82164 0.86446
 H1870 H 0.75087 0.79369 0.83566
 H1871 H 0.76814 0.84418 0.78818
 H1872 H 0.76536 0.87212 0.81705
 C1873 C 0.26758 0.40397 0.42699
 C1874 C 0.26690 0.38806 0.41036
 C1875 C 0.25884 0.39325 0.38925
 C1876 C 0.25123 0.41489 0.38523
 C1877 C 0.25200 0.43088 0.40191
 C1878 C 0.26022 0.42561 0.42298
 C1879 C 0.25825 0.37535 0.37245
 C1880 C 0.25434 0.37842 0.35081
 C1881 C 0.25412 0.36013 0.33444
 C1882 C 0.25706 0.36520 0.31198
 C1883 C 0.25702 0.34853 0.29601
 C1884 C 0.25394 0.32634 0.30213
 C1885 C 0.25067 0.32128 0.32457
 C1886 C 0.25059 0.33795 0.34051
 H1887 H 0.27355 0.39917 0.44315
 H1888 H 0.27266 0.37153 0.41408
 H1889 H 0.24443 0.41964 0.36944
 H1890 H 0.24627 0.44741 0.39825
 H1891 H 0.26207 0.35892 0.37832
 H1892 H 0.25217 0.39494 0.34441
 H1893 H 0.25961 0.38213 0.30677
 H1894 H 0.25957 0.35305 0.27887
 H1895 H 0.24795 0.30441 0.32986
 H1896 H 0.24739 0.33329 0.35746
 C1897 C 0.26149 0.93504 0.09126
 C1898 C 0.25962 0.92044 0.10903
 C1899 C 0.24963 0.89975 0.10635
 C1900 C 0.24100 0.89419 0.08547
 C1901 C 0.24296 0.90879 0.06763
 C1902 C 0.25338 0.92932 0.07028
 C1903 C 0.24852 0.88474 0.12575
 C1904 C 0.24567 0.86285 0.12411
 C1905 C 0.24624 0.84740 0.14317
 C1906 C 0.24942 0.82491 0.13878
 C1907 C 0.25038 0.80956 0.15593
 C1908 C 0.24811 0.81627 0.17806
 C1909 C 0.24459 0.83876 0.18255
 C1910 C 0.24356 0.85418 0.16530
 H1911 H 0.26907 0.95096 0.09405
 H1912 H 0.26615 0.92532 0.12495
 H1913 H 0.23250 0.87876 0.08277
 H1914 H 0.23647 0.90391 0.05171
 H1915 H 0.25167 0.89198 0.14175
 H1916 H 0.24428 0.85547 0.10792
 H1917 H 0.25138 0.81916 0.12195
 H1918 H 0.25302 0.79239 0.15176
 H1919 H 0.24247 0.84443 0.19938
 H1920 H 0.24039 0.87123 0.16945
 C1921 C 0.75891 0.42856 0.59091
 C1922 C 0.75702 0.41341 0.60820
 C1923 C 0.74731 0.39269 0.60477
 C1924 C 0.73902 0.38765 0.58362
 C1925 C 0.74099 0.40283 0.56626
 C1926 C 0.75111 0.42340 0.56968
 C1927 C 0.74605 0.37718 0.62376
 C1928 C 0.74299 0.35536 0.62166
 C1929 C 0.74320 0.33963 0.64051
 C1930 C 0.74644 0.31717 0.63595
 C1931 C 0.74701 0.30164 0.65298
 C1932 C 0.74430 0.30816 0.67511
 C1933 C 0.74075 0.33060 0.67974
 C1934 C 0.74007 0.34618 0.66264
 H1935 H 0.76626 0.44448 0.59428
 H1936 H 0.76329 0.41789 0.62433
 H1937 H 0.73077 0.37219 0.58034
 H1938 H 0.73476 0.39838 0.55012
 H1939 H 0.74919 0.38404 0.63993
 H1940 H 0.74163 0.34827 0.60534
 H1941 H 0.74873 0.31160 0.61910
 H1942 H 0.74970 0.28448 0.64875
 H1943 H 0.73827 0.33614 0.69657
 H1944 H 0.73679 0.36318 0.66691
 C1945 C 0.06463 0.10309 0.74241
 C1946 C 0.07879 0.12128 0.74378
 C1947 C 0.09937 0.11944 0.75425
 C1948 C 0.10524 0.09909 0.76387
 C1949 C 0.09118 0.08092 0.76238
 C1950 C 0.07072 0.08264 0.75161
 C1951 C 0.11402 0.13908 0.75516
 C1952 C 0.13592 0.13765 0.75814
 C1953 C 0.15117 0.15683 0.75888
 C1954 C 0.17390 0.15270 0.75732
 C1955 C 0.18910 0.16995 0.75818
 C1956 C 0.18197 0.19189 0.76065
 C1957 C 0.15922 0.19610 0.76242
 C1958 C 0.14397 0.17878 0.76165
 H1959 H 0.04884 0.10510 0.73433
 H1960 H 0.07370 0.13681 0.73649
 H1961 H 0.12053 0.09706 0.77280
 H1962 H 0.09651 0.06540 0.76950
 H1963 H 0.10646 0.15498 0.75220
 H1964 H 0.14350 0.12152 0.75922
 H1965 H 0.17997 0.13599 0.75536
 H1966 H 0.20648 0.16604 0.75681
 H1967 H 0.15318 0.21279 0.76458
 H1968 H 0.12670 0.18275 0.76356
 C1969 C 0.56539 0.60442 0.24613
 C1970 C 0.57985 0.62239 0.24741
 C1971 C 0.60026 0.62034 0.25817
 C1972 C 0.60559 0.60009 0.26827
 C1973 C 0.59126 0.58214 0.26685
 C1974 C 0.57101 0.58401 0.25571
 C1975 C 0.61541 0.63961 0.25879
 C1976 C 0.63729 0.63750 0.26153
 C1977 C 0.65327 0.65608 0.26197
 C1978 C 0.67581 0.65093 0.26097
 C1979 C 0.69173 0.66752 0.26156
 C1980 C 0.68554 0.68982 0.26317
 C1981 C 0.66296 0.69508 0.26436
 C1982 C 0.64697 0.67840 0.26386
 H1983 H 0.54976 0.60655 0.23775
 H1984 H 0.57517 0.63788 0.23976
 H1985 H 0.62071 0.59794 0.27747
 H1986 H 0.59626 0.56665 0.27426
 H1987 H 0.60829 0.65570 0.25580
 H1988 H 0.64430 0.62111 0.26268
 H1989 H 0.68120 0.63393 0.25967
 H1990 H 0.70894 0.66280 0.26064
 H1991 H 0.65763 0.71208 0.26582
 H1992 H 0.62986 0.68318 0.26523
 C1993 C 0.10005 0.93821 0.25666
 C1994 C 0.11673 0.92226 0.25736
 C1995 C 0.11408 0.90182 0.24688
 C1996 C 0.09452 0.89785 0.23517
 C1997 C 0.07782 0.91371 0.23445
 C1998 C 0.08012 0.93430 0.24521
 C1999 C 0.13234 0.88549 0.24788
 C2000 C 0.12960 0.86377 0.24435
 C2001 C 0.14787 0.84744 0.24498
 C2002 C 0.14274 0.82500 0.24776
 C2003 C 0.15939 0.80901 0.24812
 C2004 C 0.18161 0.81514 0.24563
 C2005 C 0.18672 0.83758 0.24254
 C2006 C 0.17008 0.85353 0.24210
 H2007 H 0.10338 0.95386 0.26452
 H2008 H 0.13183 0.92595 0.26617
 H2009 H 0.09197 0.88259 0.22630
 H2010 H 0.06279 0.90914 0.22604
 H2011 H 0.14839 0.89167 0.25258
 H2012 H 0.11319 0.85731 0.24169
 H2013 H 0.12575 0.81981 0.24976
 H2014 H 0.15485 0.79188 0.25044
 H2015 H 0.20363 0.84288 0.24023
 H2016 H 0.17477 0.87048 0.23907
 C2017 C 0.60083 0.43666 0.73430
 C2018 C 0.61690 0.42014 0.73246
 C2019 C 0.61344 0.39911 0.74166
 C2020 C 0.59361 0.39506 0.75307
 C2021 C 0.57757 0.41150 0.75485
 C2022 C 0.58098 0.43253 0.74558
 C2023 C 0.63121 0.38227 0.73991
 C2024 C 0.62782 0.36049 0.74257
 C2025 C 0.64560 0.34358 0.74199
 C2026 C 0.63971 0.32128 0.73960
 C2027 C 0.65576 0.30468 0.73987
 C2028 C 0.67815 0.31001 0.74260
 C2029 C 0.68406 0.33233 0.74500
 C2030 C 0.66801 0.34890 0.74483
 H2031 H 0.60409 0.45274 0.72719
 H2032 H 0.63212 0.42383 0.72382
 H2033 H 0.59045 0.37939 0.76105
 H2034 H 0.56235 0.40764 0.76340
 H2035 H 0.64749 0.38821 0.73568
 H2036 H 0.61118 0.35445 0.74481
 H2037 H 0.62257 0.31666 0.73757
 H2038 H 0.65061 0.28768 0.73795
 H2039 H 0.70112 0.33705 0.74733
 H2040 H 0.67333 0.36572 0.74745
 C2041 C 0.93229 0.09387 0.24051
 C2042 C 0.91497 0.10898 0.24162
 C2043 C 0.89470 0.10308 0.25114
 C2044 C 0.89222 0.08163 0.25984
 C2045 C 0.90959 0.06644 0.25866
 C2046 C 0.92979 0.07238 0.24892
 C2047 C 0.87714 0.12012 0.25212
 C2048 C 0.85584 0.11602 0.25656
 C2049 C 0.83880 0.13362 0.25696
 C2050 C 0.81666 0.12794 0.25331
 C2051 C 0.80023 0.14416 0.25313
 C2052 C 0.80564 0.16644 0.25666
 C2053 C 0.82773 0.17205 0.26082
 C2054 C 0.84409 0.15584 0.26116
 H2055 H 0.94778 0.09916 0.23335
 H2056 H 0.91748 0.12543 0.23502
 H2057 H 0.87712 0.07649 0.26782
 H2058 H 0.90716 0.04999 0.26525
 H2059 H 0.88206 0.13679 0.24798
 H2060 H 0.85027 0.09922 0.25883
 H2061 H 0.81210 0.11092 0.25028
 H2062 H 0.78336 0.13929 0.24992
 H2063 H 0.83241 0.18900 0.26400
 H2064 H 0.86075 0.16086 0.26500
 C2065 C 0.40341 0.55565 0.74527
 C2066 C 0.38470 0.56922 0.74528
 C2067 C 0.38657 0.59191 0.74959
 C2068 C 0.40751 0.60068 0.75439
 C2069 C 0.42613 0.58716 0.75439
 C2070 C 0.42434 0.56449 0.74988
 C2071 C 0.36643 0.60587 0.74987
 C2072 C 0.36700 0.62757 0.74530
 C2073 C 0.34789 0.64284 0.74691
 C2074 C 0.35222 0.66558 0.74637
 C2075 C 0.33514 0.68090 0.74807
 C2076 C 0.31315 0.67391 0.75025
 C2077 C 0.30867 0.65113 0.75054
 C2078 C 0.32585 0.63572 0.74889
 H2079 H 0.40147 0.53819 0.74201
 H2080 H 0.36873 0.56201 0.74183
 H2081 H 0.40960 0.61789 0.75860
 H2082 H 0.44203 0.59452 0.75785
 H2083 H 0.35103 0.59787 0.75394
 H2084 H 0.38255 0.63492 0.74050
 H2085 H 0.36898 0.67158 0.74477
 H2086 H 0.33926 0.69829 0.74759
 H2087 H 0.29190 0.64518 0.75200
 H2088 H 0.32163 0.61840 0.74893
 C2089 C 0.92598 0.92484 0.71787
 C2090 C 0.90912 0.90913 0.71669
 C2091 C 0.90359 0.89630 0.73522
 C2092 C 0.91531 0.89947 0.75502
 C2093 C 0.93208 0.91521 0.75621
 C2094 C 0.93745 0.92821 0.73773
 C2095 C 0.88491 0.88060 0.73367
 C2096 C 0.88316 0.86266 0.74655
 C2097 C 0.86458 0.84690 0.74516
 C2098 C 0.86824 0.82492 0.75142
 C2099 C 0.85118 0.80952 0.75061
 C2100 C 0.82989 0.81583 0.74385
 C2101 C 0.82605 0.83797 0.73804
 C2102 C 0.84325 0.85337 0.73862
 H2103 H 0.92952 0.93486 0.70347
 H2104 H 0.90023 0.90714 0.70131
 H2105 H 0.91117 0.89036 0.76983
 H2106 H 0.94067 0.91744 0.77172
 H2107 H 0.87276 0.88350 0.72088
 H2108 H 0.89643 0.85855 0.75779
 H2109 H 0.88444 0.81960 0.75678
 H2110 H 0.85465 0.79265 0.75546
 H2111 H 0.80981 0.84335 0.73289
 H2112 H 0.83970 0.87035 0.73432
 C2113 C 0.44478 0.40787 0.22964
 C2114 C 0.42890 0.39123 0.22775
 C2115 C 0.40750 0.39426 0.23616
 C2116 C 0.40242 0.41425 0.24683
 C2117 C 0.41823 0.43087 0.24864
 C2118 C 0.43962 0.42787 0.24017
 C2119 C 0.39135 0.37595 0.23440
 C2120 C 0.36943 0.37875 0.23627
 C2121 C 0.35320 0.36043 0.23559
 C2122 C 0.33090 0.36549 0.23191
 C2123 C 0.31490 0.34888 0.23182
 C2124 C 0.32089 0.32676 0.23547
 C2125 C 0.34320 0.32169 0.23932
 C2126 C 0.35915 0.33830 0.23951
 H2127 H 0.46118 0.40495 0.22317
 H2128 H 0.43335 0.37591 0.21969
 H2129 H 0.38643 0.41711 0.25422
 H2130 H 0.41360 0.44618 0.25660
 H2131 H 0.39792 0.35975 0.23082
 H2132 H 0.36278 0.39524 0.23780
 H2133 H 0.32580 0.38241 0.22909
 H2134 H 0.29787 0.35338 0.22887
 H2135 H 0.34837 0.30486 0.24250
 H2136 H 0.37596 0.33367 0.24322
   
