data_POSCAR
  _audit_creation_date              2014-09-24
  _audit_creation_method            'ToBaCCo'
  _symmetry_space_group_name_H-M    'P1'
  _symmetry_Int_Tables_number       1
  _symmetry_cell_setting            triclinic
  loop_
  _symmetry_equiv_pos_as_xyz
 x,y,z
_cell_length_a 41.7821
_cell_length_b 41.8421
_cell_length_c 41.9206
_cell_angle_alpha 89.768100
_cell_angle_beta 90.032300
_cell_angle_gamma 89.862200
loop_
  _atom_site_label
  _atom_site_type_symbol
  _atom_site_fract_x
  _atom_site_fract_y
  _atom_site_fract_z
C1 C 0.25341 0.99582 0.01016
 C2 C 0.25128 0.99592 -0.02215
 C3 C 0.25156 1.02605 -0.04073
 C4 C 0.25005 0.96596 -0.04060
 C5 C 0.25476 0.96577 0.02903
 C6 C 0.25423 1.02585 0.02890
 C7 C 0.22515 1.04665 -0.04084
 C8 C 0.22633 1.07563 -0.05760
 C9 C 0.25441 1.08538 -0.07392
 C10 C 0.28055 1.06369 -0.07395
 C11 C 0.27898 1.03449 -0.05783
 C12 C 0.22104 0.95607 -0.05409
 C13 C 0.21983 0.92850 -0.07275
 C14 C 0.24773 0.91066 -0.07857
 C15 C 0.27688 0.92096 -0.06535
 C16 C 0.27795 0.94819 -0.04615
 C17 C 0.28091 0.96051 0.04938
 C18 C 0.28107 0.93465 0.07046
 C19 C 0.25507 0.91353 0.07156
 C20 C 0.22892 0.91857 0.05106
 C21 C 0.22878 0.94453 0.02985
 C22 C 0.27799 1.04908 0.02395
 C23 C 0.27865 1.07668 0.04265
 C24 C 0.25590 1.08115 0.06687
 C25 C 0.23294 1.05735 0.07249
 C26 C 0.23192 1.03014 0.05349
 H27 H 0.20349 1.04007 -0.02827
 H28 H 0.20451 1.08957 -0.05885
 H29 H 0.30315 1.06969 -0.08502
 H30 H 0.29970 1.01887 -0.05778
 H31 H 0.19937 0.96979 -0.05020
 H32 H 0.19717 0.92125 -0.08296
 H33 H 0.30059 0.95585 -0.03622
 H34 H 0.30090 0.97696 0.04946
 H35 H 0.30121 0.93144 0.08646
 H36 H 0.20848 0.90272 0.05188
 H37 H 0.20799 0.94872 0.01497
 H38 H 0.29627 1.04564 0.00602
 H39 H 0.29700 1.09443 0.03841
 H40 H 0.21580 1.05985 0.09171
 H41 H 0.21380 1.01225 0.05813
 H42 H 0.29886 0.90812 -0.07023
 C43 C 0.75451 0.49538 0.47958
 C44 C 0.75540 0.49546 0.51194
 C45 C 0.75596 0.52534 0.53054
 C46 C 0.75566 0.46567 0.53087
 C47 C 0.75352 0.46509 0.46147
 C48 C 0.75467 0.52548 0.46063
 C49 C 0.78510 0.53746 0.54174
 C50 C 0.78568 0.56504 0.56033
 C51 C 0.75702 0.58033 0.56897
 C52 C 0.72776 0.56740 0.55860
 C53 C 0.72727 0.54040 0.53908
 C54 C 0.78463 0.45369 0.54280
 C55 C 0.78471 0.42796 0.56410
 C56 C 0.75584 0.41334 0.57321
 C57 C 0.72686 0.42526 0.56096
 C58 C 0.72676 0.45143 0.54015
 C59 C 0.72549 0.44671 0.46035
 C60 C 0.72433 0.41901 0.44181
 C61 C 0.75118 0.40937 0.42414
 C62 C 0.77909 0.42801 0.42506
 C63 C 0.78024 0.45565 0.44360
 C64 C 0.73049 0.53118 0.43806
 C65 C 0.73029 0.55940 0.42014
 C66 C 0.75379 0.58287 0.42511
 C67 C 0.77858 0.57665 0.44689
 C68 C 0.77931 0.54799 0.46406
 H69 H 0.80742 0.52564 0.53591
 H70 H 0.80850 0.57420 0.56839
 H71 H 0.70527 0.57798 0.56595
 H72 H 0.70455 0.53076 0.53127
 H73 H 0.80707 0.46488 0.53637
 H74 H 0.80727 0.41979 0.57396
 H75 H 0.70415 0.46107 0.53185
 H76 H 0.70436 0.45419 0.47326
 H77 H 0.70243 0.40525 0.44097
 H78 H 0.79981 0.42133 0.41105
 H79 H 0.80186 0.46988 0.44383
 H80 H 0.71171 0.51378 0.43436
 H81 H 0.71170 0.56301 0.40246
 H82 H 0.79751 0.59391 0.45045
 H83 H 0.79931 0.54330 0.47975
 H84 H 0.70430 0.41468 0.56803
 C85 C 0.74552 1.01095 0.99811
 C86 C 0.74455 0.97869 0.99727
 C87 C 0.74521 0.96061 0.96707
 C88 C 0.74260 0.95955 1.02684
 C89 C 0.74505 1.02884 1.02841
 C90 C 0.74339 1.03077 0.96905
 C91 C 0.71844 0.94264 0.95791
 C92 C 0.72057 0.92122 0.93252
 C93 C 0.74957 0.91728 0.91621
 C94 C 0.77595 0.93629 0.92439
 C95 C 0.77383 0.95769 0.94983
 C96 C 0.71269 0.95293 1.04043
 C97 C 0.71046 0.93300 1.06707
 C98 C 0.73805 0.91871 1.07990
 C99 C 0.76808 0.92584 1.06671
 C100 C 0.77033 0.94611 1.04020
 C101 C 0.77206 1.04635 1.03769
 C102 C 0.77027 1.06743 1.06340
 C103 C 0.74134 1.07138 1.07989
 C104 C 0.71474 1.05282 1.07147
 C105 C 0.71644 1.03205 1.04558
 C106 C 0.77109 1.03998 0.95267
 C107 C 0.76953 1.06379 0.92922
 C108 C 0.74040 1.07967 0.92272
 C109 C 0.71244 1.06885 0.93804
 C110 C 0.71399 1.04479 0.96109
 H111 H 0.69626 0.94439 0.97114
 H112 H 0.70003 0.90669 0.92649
 H113 H 0.79852 0.93342 0.91201
 H114 H 0.79493 0.97078 0.95706
 H115 H 0.69104 0.96271 1.03003
 H116 H 0.68715 0.92788 1.07713
 H117 H 0.79353 0.95084 1.02971
 H118 H 0.79416 1.04449 1.02431
 H119 H 0.79101 1.08159 1.06964
 H120 H 0.69227 1.05555 1.08407
 H121 H 0.69508 1.01959 1.03810
 H122 H 0.79410 1.02985 0.95908
 H123 H 0.79152 1.07127 0.91775
 H124 H 0.68935 1.07928 0.93241
 H125 H 0.69241 1.03794 0.97367
 H126 H 0.78958 0.91503 1.07643
 C127 C 0.25025 0.50894 0.49625
 C128 C 0.24834 0.47662 0.49694
 C129 C 0.24559 0.45906 0.52758
 C130 C 0.24883 0.45685 0.46763
 C131 C 0.25095 0.52786 0.46635
 C132 C 0.24775 0.52801 0.52571
 C133 C 0.27092 0.43956 0.53801
 C134 C 0.26754 0.42071 0.56540
 C135 C 0.23866 0.42089 0.58241
 C136 C 0.21354 0.44085 0.57236
 C137 C 0.21692 0.45967 0.54498
 C138 C 0.27415 0.45879 0.44565
 C139 C 0.27592 0.43729 0.42018
 C140 C 0.25245 0.41366 0.41653
 C141 C 0.22675 0.41229 0.43789
 C142 C 0.22498 0.43367 0.46326
 C143 C 0.22456 0.52790 0.44558
 C144 C 0.22229 0.55082 0.42126
 C145 C 0.24631 0.57392 0.41763
 C146 C 0.27337 0.57290 0.43732
 C147 C 0.27564 0.55007 0.46155
 C148 C 0.21774 0.53968 0.53501
 C149 C 0.21528 0.56144 0.55996
 C150 C 0.24295 0.57297 0.57500
 C151 C 0.27292 0.56027 0.56657
 C152 C 0.27529 0.53777 0.54208
 H153 H 0.29304 0.43857 0.52459
 H154 H 0.28706 0.40529 0.57283
 H155 H 0.19106 0.44106 0.58521
 H156 H 0.19686 0.47392 0.53680
 H157 H 0.29311 0.47608 0.44890
 H158 H 0.29610 0.43832 0.40399
 H159 H 0.20532 0.43166 0.47997
 H160 H 0.20498 0.51139 0.44931
 H161 H 0.20122 0.55147 0.40622
 H162 H 0.29206 0.59062 0.43471
 H163 H 0.29608 0.55057 0.47742
 H164 H 0.19633 0.53256 0.52234
 H165 H 0.19190 0.57041 0.56663
 H166 H 0.29450 0.56861 0.57816
 H167 H 0.29863 0.52903 0.53497
 H168 H 0.20863 0.39398 0.43545
 C169 C 0.99219 0.24344 -0.00676
 C170 C 0.99182 0.24369 0.02556
 C171 C 0.96165 0.24130 0.04376
 C172 C 1.02168 0.24622 0.04450
 C173 C 1.02240 0.24452 -0.02497
 C174 C 0.96247 0.24348 -0.02579
 C175 C 0.93988 0.26687 0.04464
 C176 C 0.91287 0.26523 0.06427
 C177 C 0.90732 0.23797 0.08307
 C178 C 0.92905 0.21238 0.08200
 C179 C 0.95604 0.21407 0.06250
 C180 C 1.02545 0.27177 0.06564
 C181 C 1.05353 0.27493 0.08338
 C182 C 1.07875 0.25272 0.08014
 C183 C 1.07421 0.22643 0.05964
 C184 C 1.04603 0.22326 0.04200
 C185 C 1.03229 0.21769 -0.04220
 C186 C 1.06036 0.21861 -0.06016
 C187 C 1.07923 0.24652 -0.06143
 C188 C 1.06880 0.27349 -0.04410
 C189 C 1.04084 0.27239 -0.02587
 C190 C 0.94846 0.21478 -0.03546
 C191 C 0.92257 0.21511 -0.05663
 C192 C 0.90964 0.24425 -0.06800
 C193 C 0.92398 0.27296 -0.05776
 C194 C 0.95013 0.27252 -0.03704
 H195 H 0.94431 0.28837 0.03091
 H196 H 0.89656 0.28536 0.06520
 H197 H 0.92541 0.19142 0.09679
 H198 H 0.97290 0.19436 0.06239
 H199 H 1.00676 0.28958 0.06807
 H200 H 1.05589 0.29545 0.09887
 H201 H 1.04309 0.20276 0.02660
 H202 H 1.01833 0.19593 -0.04160
 H203 H 1.06752 0.19717 -0.07269
 H204 H 1.08140 0.29602 -0.04572
 H205 H 1.03314 0.29348 -0.01306
 H206 H 0.95831 0.19213 -0.02755
 H207 H 0.91376 0.19242 -0.06526
 H208 H 0.91484 0.29594 -0.06557
 H209 H 0.96107 0.29487 -0.03007
 H210 H 1.09213 0.20776 0.05789
 C211 C 0.49477 0.74488 0.48986
 C212 C 0.49397 0.74185 0.52212
 C213 C 0.52363 0.74202 0.54148
 C214 C 0.46357 0.73987 0.54023
 C215 C 0.46526 0.74653 0.47028
 C216 C 0.52535 0.74718 0.47201
 C217 C 0.54725 0.71833 0.53794
 C218 C 0.57506 0.71926 0.55654
 C219 C 0.57949 0.74396 0.57863
 C220 C 0.55570 0.76731 0.58239
 C221 C 0.52794 0.76628 0.56403
 C222 C 0.45855 0.71384 0.56079
 C223 C 0.43147 0.71270 0.58020
 C224 C 0.40900 0.73764 0.57941
 C225 C 0.41391 0.76373 0.55884
 C226 C 0.44102 0.76482 0.53929
 C227 C 0.46070 0.77281 0.44989
 C228 C 0.43443 0.77403 0.42945
 C229 C 0.41221 0.74898 0.42906
 C230 C 0.41666 0.72259 0.44940
 C231 C 0.44303 0.72139 0.46999
 C232 C 0.54708 0.77216 0.47751
 C233 C 0.57481 0.77481 0.45900
 C234 C 0.58093 0.75265 0.43472
 C235 C 0.55927 0.72775 0.42927
 C236 C 0.53169 0.72504 0.44776
 H237 H 0.54407 0.69922 0.52090
 H238 H 0.59316 0.70093 0.55364
 H239 H 0.55869 0.78630 0.59962
 H240 H 0.50990 0.78464 0.56714
 H241 H 0.47591 0.69461 0.56213
 H242 H 0.42830 0.69267 0.59633
 H243 H 0.44488 0.78545 0.52410
 H244 H 0.47778 0.79225 0.44957
 H245 H 0.43165 0.79429 0.41351
 H246 H 0.39992 0.70287 0.44905
 H247 H 0.44652 0.70063 0.48511
 H248 H 0.54224 0.78988 0.49564
 H249 H 0.59119 0.79438 0.46318
 H250 H 0.56362 0.71062 0.41044
 H251 H 0.51507 0.70581 0.44301
 H252 H 0.39698 0.78336 0.55828
 C253 C 0.00949 0.75855 0.00457
 C254 C -0.02289 0.75876 0.00405
 C255 C -0.04169 0.76047 0.03387
 C256 C -0.04157 0.75751 -0.02612
 C257 C 0.02912 0.75573 -0.02460
 C258 C 0.02778 0.75802 0.03464
 C259 C -0.04916 0.73258 0.05082
 C260 C -0.07211 0.73331 0.07507
 C261 C -0.08819 0.76201 0.08279
 C262 C -0.07817 0.79037 0.06746
 C263 C -0.05570 0.78947 0.04283
 C264 C -0.06694 0.73580 -0.02887
 C265 C -0.08646 0.73585 -0.05582
 C266 C -0.08135 0.75783 -0.08086
 C267 C -0.05477 0.77845 -0.07871
 C268 C -0.03561 0.77882 -0.05137
 C269 C 0.04970 0.78070 -0.03315
 C270 C 0.07162 0.77681 -0.05790
 C271 C 0.07417 0.74742 -0.07400
 C272 C 0.05222 0.72299 -0.06634
 C273 C 0.03003 0.72706 -0.04172
 C274 C 0.03957 0.78651 0.04759
 C275 C 0.06356 0.78554 0.07086
 C276 C 0.07597 0.75606 0.08117
 C277 C 0.06240 0.72761 0.06989
 C278 C 0.03865 0.72860 0.04654
 H279 H -0.03856 0.70996 0.04404
 H280 H -0.07868 0.71090 0.08626
 H281 H -0.08801 0.81333 0.07423
 H282 H -0.04981 0.81129 0.03015
 H283 H -0.07203 0.71897 -0.00988
 H284 H -0.10655 0.71954 -0.05627
 H285 H -0.01646 0.79611 -0.04979
 H286 H 0.04927 0.80301 -0.02017
 H287 H 0.08785 0.79628 -0.06317
 H288 H 0.05230 0.70067 -0.07934
 H289 H 0.01422 0.70756 -0.03539
 H290 H 0.03157 0.80938 0.03835
 H291 H 0.07357 0.80769 0.07963
 H292 H 0.07143 0.70468 0.07800
 H293 H 0.02999 0.70644 0.03645
 H294 H -0.04878 0.79444 -0.09818
 C295 C 0.50623 0.25843 0.50824
 C296 C 0.47384 0.25994 0.50714
 C297 C 0.45476 0.26114 0.53684
 C298 C 0.45556 0.26020 0.47654
 C299 C 0.52642 0.25559 0.47938
 C300 C 0.52407 0.25703 0.53865
 C301 C 0.44386 0.23282 0.55108
 C302 C 0.42083 0.23397 0.57522
 C303 C 0.40890 0.26348 0.58591
 C304 C 0.42208 0.29183 0.57352
 C305 C 0.44435 0.29065 0.54866
 C306 C 0.42893 0.24006 0.47294
 C307 C 0.41076 0.24072 0.44505
 C308 C 0.41885 0.26136 0.41993
 C309 C 0.44583 0.28109 0.42303
 C310 C 0.46361 0.28103 0.45135
 C311 C 0.55048 0.27830 0.47382
 C312 C 0.57250 0.27396 0.44925
 C313 C 0.57103 0.24665 0.43012
 C314 C 0.54642 0.22435 0.43493
 C315 C 0.52428 0.22872 0.45955
 C316 C 0.53312 0.28528 0.55413
 C317 C 0.55728 0.28460 0.57728
 C318 C 0.57261 0.25567 0.58497
 C319 C 0.56171 0.22715 0.57128
 C320 C 0.53780 0.22788 0.54806
 H321 H 0.45190 0.20986 0.54230
 H322 H 0.41154 0.21179 0.58482
 H323 H 0.41417 0.31486 0.58223
 H324 H 0.45279 0.31271 0.53802
 H325 H 0.42205 0.22360 0.49163
 H326 H 0.39017 0.22516 0.44312
 H327 H 0.48346 0.29744 0.45364
 H328 H 0.55258 0.29910 0.48896
 H329 H 0.59128 0.29142 0.44570
 H330 H 0.54495 0.20321 0.42017
 H331 H 0.50617 0.21073 0.46382
 H332 H 0.52305 0.30801 0.54673
 H333 H 0.56524 0.30677 0.58788
 H334 H 0.57299 0.20459 0.57732
 H335 H 0.53133 0.20595 0.53603
 H336 H 0.45277 0.29689 0.40372
 C337 C 1.00351 -0.01156 0.23089
 C338 C 1.00482 0.02080 0.22802
 C339 C 0.97543 0.04079 0.22776
 C340 C 1.03563 0.03820 0.22770
 C341 C 1.03272 -0.03182 0.23288
 C342 C 0.97265 -0.02914 0.23245
 C343 C 0.95166 0.03705 0.20432
 C344 C 0.92319 0.05473 0.20601
 C345 C 0.91823 0.07618 0.23119
 C346 C 0.94242 0.08064 0.25392
 C347 C 0.97081 0.06317 0.25216
 C348 C 1.04442 0.05583 0.20066
 C349 C 1.07218 0.07437 0.20080
 C350 C 1.09177 0.07605 0.22822
 C351 C 1.08231 0.05844 0.25546
 C352 C 1.05483 0.03945 0.25504
 C353 C 1.03545 -0.05390 0.25796
 C354 C 1.05972 -0.07679 0.25802
 C355 C 1.08181 -0.07858 0.23267
 C356 C 1.08018 -0.05498 0.20854
 C357 C 1.05562 -0.03213 0.20841
 C358 C 0.94973 -0.02263 0.25611
 C359 C 0.92191 -0.04108 0.25829
 C360 C 0.91684 -0.06653 0.23713
 C361 C 0.94008 -0.07333 0.21395
 C362 C 0.96753 -0.05465 0.21146
 H363 H 0.95497 0.02013 0.18512
 H364 H 0.90482 0.05127 0.18812
 H365 H 0.93905 0.09738 0.27328
 H366 H 0.98886 0.06646 0.27041
 H367 H 1.02964 0.05530 0.17942
 H368 H 1.07845 0.08711 0.17916
 H369 H 1.04782 0.02668 0.27645
 H370 H 1.01799 -0.05412 0.27706
 H371 H 1.05997 -0.09428 0.27714
 H372 H 1.09782 -0.05424 0.18964
 H373 H 1.05390 -0.01540 0.18871
 H374 H 0.95365 -0.00375 0.27324
 H375 H 0.90454 -0.03582 0.27672
 H376 H 0.93713 -0.09342 0.19801
 H377 H 0.98516 -0.06045 0.19343
 H378 H 1.09524 0.06047 0.27775
 C379 C 0.50209 0.52018 0.73110
 C380 C 0.50181 0.48776 0.73367
 C381 C 0.47141 0.46942 0.73549
 C382 C 0.53176 0.46840 0.73512
 C383 C 0.53226 0.53852 0.73179
 C384 C 0.47218 0.53938 0.73017
 C385 C 0.44821 0.47599 0.75887
 C386 C 0.42058 0.45732 0.76104
 C387 C 0.41602 0.43148 0.74027
 C388 C 0.43967 0.42440 0.71759
 C389 C 0.46690 0.44339 0.71499
 C390 C 0.53476 0.44462 0.75869
 C391 C 0.56041 0.42325 0.75822
 C392 C 0.58370 0.42524 0.73423
 C393 C 0.58170 0.44997 0.71153
 C394 C 0.55562 0.47104 0.71161
 C395 C 0.54186 0.55577 0.70473
 C396 C 0.56920 0.57486 0.70575
 C397 C 0.58699 0.57750 0.73406
 C398 C 0.57695 0.56053 0.76130
 C399 C 0.55006 0.54080 0.76003
 C400 C 0.44913 0.53508 0.70612
 C401 C 0.42056 0.55268 0.70661
 C402 C 0.41476 0.57457 0.73122
 C403 C 0.43813 0.57940 0.75471
 C404 C 0.46662 0.56203 0.75413
 H405 H 0.45171 0.49521 0.77571
 H406 H 0.40291 0.46278 0.77912
 H407 H 0.43711 0.40399 0.70199
 H408 H 0.48476 0.43751 0.69722
 H409 H 0.51667 0.44205 0.77702
 H410 H 0.56165 0.40456 0.77614
 H411 H 0.55354 0.48863 0.69273
 H412 H 0.52806 0.55451 0.68289
 H413 H 0.57625 0.58799 0.68458
 H414 H 0.58967 0.56297 0.78367
 H415 H 0.54249 0.52812 0.78129
 H416 H 0.45319 0.51797 0.68723
 H417 H 0.40283 0.54895 0.68815
 H418 H 0.43411 0.59647 0.77365
 H419 H 0.48408 0.56577 0.77284
 H420 H 0.59976 0.45224 0.69314
 C421 C 1.02101 1.00363 0.76170
 C422 C 0.98901 1.00352 0.75697
 C423 C 0.97101 0.97324 0.75521
 C424 C 0.96935 1.03300 0.75590
 C425 C 1.03951 1.03340 0.76473
 C426 C 1.03967 0.97366 0.76100
 C427 C 0.96028 0.96166 0.72574
 C428 C 0.93791 0.93694 0.72467
 C429 C 0.92628 0.92342 0.75306
 C430 C 0.93924 0.93313 0.78238
 C431 C 0.96118 0.95821 0.78346
 C432 C 0.95190 1.04036 0.72828
 C433 C 0.92751 1.06318 0.72900
 C434 C 0.91995 1.07944 0.75747
 C435 C 0.93978 1.07405 0.78426
 C436 C 0.96353 1.05046 0.78375
 C437 C 1.04392 1.04746 0.79471
 C438 C 1.06458 1.07345 0.79813
 C439 C 1.08210 1.08479 0.77185
 C440 C 1.07709 1.07108 0.74173
 C441 C 1.05595 1.04554 0.73822
 C442 C 1.05067 0.95973 0.78936
 C443 C 1.06922 0.93189 0.78851
 C444 C 1.07708 0.91734 0.75917
 C445 C 1.06643 0.93223 0.73079
 C446 C 1.04763 0.95981 0.73175
 H447 H 0.96819 0.97259 0.70368
 H448 H 0.92863 0.92931 0.70181
 H449 H 0.93107 0.92240 0.80447
 H450 H 0.96942 0.96686 0.80636
 H451 H 0.95605 1.02737 0.70641
 H452 H 0.91329 1.06644 0.70763
 H453 H 0.97632 1.04492 0.80552
 H454 H 1.03207 1.03779 0.81556
 H455 H 1.06773 1.08405 0.82144
 H456 H 1.09019 1.07965 0.72113
 H457 H 1.05311 1.03460 0.71502
 H458 H 1.04482 0.97040 0.81213
 H459 H 1.07676 0.92138 0.81094
 H460 H 1.07354 0.92325 0.70766
 H461 H 1.03984 0.97080 0.70962
 H462 H 0.93659 1.08765 0.80595
 C463 C 0.52281 0.50285 0.26120
 C464 C 0.49064 0.50345 0.25775
 C465 C 0.47167 0.53341 0.25636
 C466 C 0.47196 0.47355 0.25641
 C467 C 0.54080 0.47242 0.26075
 C468 C 0.54209 0.53219 0.26386
 C469 C 0.47042 0.55423 0.28253
 C470 C 0.44798 0.57912 0.28320
 C471 C 0.42572 0.58273 0.25827
 C472 C 0.42809 0.56294 0.23148
 C473 C 0.45088 0.53860 0.23051
 C474 C 0.45887 0.46109 0.28457
 C475 C 0.43698 0.43602 0.28327
 C476 C 0.42685 0.42405 0.25368
 C477 C 0.44148 0.43523 0.22563
 C478 C 0.46412 0.45974 0.22702
 C479 C 0.55895 0.46443 0.23382
 C480 C 0.57686 0.43627 0.23340
 C481 C 0.57665 0.41553 0.25979
 C482 C 0.55863 0.42363 0.28686
 C483 C 0.54076 0.45194 0.28732
 C484 C 0.55378 0.54738 0.23641
 C485 C 0.57641 0.57178 0.23904
 C486 C 0.58747 0.58141 0.26917
 C487 C 0.57418 0.56745 0.29666
 C488 C 0.55221 0.54250 0.29399
 H489 H 0.48564 0.55032 0.30306
 H490 H 0.44695 0.59461 0.30381
 H491 H 0.41148 0.56560 0.21179
 H492 H 0.45144 0.52303 0.20998
 H493 H 0.46483 0.47151 0.30742
 H494 H 0.42666 0.42704 0.30523
 H495 H 0.47432 0.46898 0.20512
 H496 H 0.55935 0.48007 0.21319
 H497 H 0.59113 0.43072 0.21257
 H498 H 0.55856 0.40811 0.30760
 H499 H 0.52722 0.45807 0.30845
 H500 H 0.54631 0.53950 0.21298
 H501 H 0.58601 0.58253 0.21754
 H502 H 0.58172 0.57512 0.32013
 H503 H 0.54357 0.53076 0.31537
 H504 H 0.43443 0.42590 0.20262
 O505 O 0.26342 0.16943 0.18995
 O506 O 0.30066 0.15926 0.23206
 O507 O 0.17982 0.20003 0.23934
 O508 O 0.16507 0.23934 0.27188
 O509 O 0.21519 0.25649 0.15771
 O510 O 0.25932 0.28985 0.14927
 O511 O 0.25710 0.28623 0.32544
 O512 O 0.22516 0.24090 0.33151
 O513 O 0.34334 0.25243 0.28269
 O514 O 0.35501 0.22004 0.23603
 O515 O 0.29895 0.33360 0.24574
 O516 O 0.25185 0.34383 0.21181
 O517 O 0.25785 0.32720 0.28999
 O518 O 0.21868 0.33858 0.24579
 O519 O 0.33956 0.29757 0.24484
 O520 O 0.35049 0.25529 0.20246
 O521 O 0.30500 0.25001 0.32114
 O522 O 0.26440 0.20648 0.32883
 O523 O 0.25922 0.21039 0.15416
 O524 O 0.29592 0.25600 0.14887
 O525 O 0.17732 0.24658 0.19503
 O526 O 0.16788 0.28146 0.24212
 O527 O 0.22033 0.16379 0.23587
 O528 O 0.26764 0.15518 0.26895
 Zr529 Zr 0.26211 0.19196 0.23477
 O530 O 0.29082 0.21880 0.26607
 Zr531 Zr 0.20271 0.24479 0.23861
 O532 O 0.22851 0.27358 0.27068
 Zr533 Zr 0.25855 0.25187 0.18263
 O534 O 0.28660 0.28165 0.21179
 Zr535 Zr 0.26131 0.24557 0.29653
 O536 O 0.23243 0.21593 0.26760
 Zr537 Zr 0.31680 0.25307 0.24013
 O538 O 0.29123 0.22334 0.20832
 Zr539 Zr 0.25718 0.30561 0.24464
 O540 O 0.22866 0.27911 0.21247
 O541 O 0.23067 0.21889 0.20720
 O542 O 0.28896 0.27902 0.27218
 C543 C 0.26131 0.18055 0.16141
 C544 C 0.19049 0.17118 0.23800
 C545 C 0.18604 0.25208 0.16604
 C546 C 0.25790 0.31613 0.31868
 C547 C 0.33418 0.25245 0.31187
 C548 C 0.32879 0.32627 0.24695
 H549 H 0.30522 0.20440 0.27811
 H550 H 0.29876 0.29674 0.19828
 H551 H 0.21716 0.20556 0.19328
 H552 H 0.21349 0.28467 0.28511
 H553 H 0.20952 0.22525 0.32321
 H554 H 0.17238 0.24884 0.29217
 H555 H 0.34682 0.27541 0.19053
 H556 H 0.31204 0.23952 0.15443
 H557 H 0.28524 0.19564 0.32581
 H558 H 0.25565 0.16225 0.28799
 H559 H 0.26901 0.34185 0.19569
 H560 H 0.24630 0.30724 0.15863
 H561 H 0.31685 0.16910 0.21788
 H562 H 0.35039 0.20180 0.25036
 H563 H 0.17325 0.29772 0.22577
 H564 H 0.20450 0.33256 0.26370
 O565 O 0.73861 0.84020 0.21393
 O566 O 0.70821 0.84946 0.26154
 O567 O 0.82958 0.81001 0.25460
 O568 O 0.84625 0.77126 0.28789
 O569 O 0.78823 0.75969 0.17624
 O570 O 0.74675 0.71974 0.17261
 O571 O 0.75446 0.71939 0.34606
 O572 O 0.79385 0.76238 0.34967
 O573 O 0.67241 0.75498 0.31333
 O574 O 0.65569 0.78938 0.26690
 O575 O 0.71217 0.67511 0.26907
 O576 O 0.75703 0.66783 0.22988
 O577 O 0.75783 0.67974 0.30920
 O578 O 0.79127 0.66965 0.26345
 O579 O 0.67144 0.71091 0.27267
 O580 O 0.65494 0.75380 0.23508
 O581 O 0.71289 0.76387 0.34801
 O582 O 0.75580 0.79921 0.35299
 O583 O 0.73850 0.79980 0.17783
 O584 O 0.70870 0.75093 0.17296
 O585 O 0.82944 0.76448 0.21143
 O586 O 0.84266 0.72891 0.25592
 O587 O 0.78832 0.84570 0.25266
 O588 O 0.74751 0.85392 0.29255
 Zr589 Zr 0.74707 0.81724 0.25800
 O590 O 0.72172 0.78957 0.29148
 Zr591 Zr 0.80712 0.76511 0.25642
 O592 O 0.78423 0.73494 0.28978
 Zr593 Zr 0.74687 0.75832 0.20505
 O594 O 0.72115 0.72819 0.23602
 Zr595 Zr 0.75372 0.76200 0.31890
 O596 O 0.77959 0.79292 0.28813
 Zr597 Zr 0.69360 0.75569 0.26771
 O598 O 0.71609 0.78587 0.23382
 Zr599 Zr 0.75360 0.70350 0.26539
 O600 O 0.77958 0.73104 0.23186
 O601 O 0.77611 0.79122 0.22753
 O602 O 0.72416 0.72894 0.29648
 C603 C 0.73583 0.82944 0.18535
 C604 C 0.81825 0.83850 0.25237
 C605 C 0.81815 0.76245 0.18299
 C606 C 0.75620 0.68981 0.33796
 C607 C 0.68329 0.75908 0.34176
 C608 C 0.68242 0.68222 0.27237
 H609 H 0.70864 0.80397 0.30483
 H610 H 0.70777 0.71355 0.22329
 H611 H 0.78715 0.80520 0.21203
 H612 H 0.80021 0.72329 0.30280
 H613 H 0.80856 0.77899 0.34141
 H614 H 0.84278 0.75713 0.30654
 H615 H 0.65817 0.73498 0.22122
 H616 H 0.68966 0.76053 0.18316
 H617 H 0.74197 0.81678 0.34520
 H618 H 0.76570 0.84932 0.30702
 H619 H 0.73785 0.66958 0.21613
 H620 H 0.76442 0.70529 0.17907
 H621 H 0.69028 0.83975 0.24960
 H622 H 0.65946 0.80493 0.28421
 H623 H 0.83577 0.71270 0.24022
 H624 H 0.80885 0.67752 0.27710
 O625 O 0.74103 0.16850 0.79864
 O626 O 0.71071 0.15800 0.75273
 O627 O 0.83015 0.20228 0.75552
 O628 O 0.84659 0.24281 0.72671
 O629 O 0.78782 0.24894 0.83754
 O630 O 0.74662 0.28769 0.84292
 O631 O 0.75484 0.28904 0.66694
 O632 O 0.78820 0.24362 0.66126
 O633 O 0.66852 0.25009 0.70407
 O634 O 0.65396 0.22067 0.75149
 O635 O 0.71027 0.33468 0.74471
 O636 O 0.75182 0.34532 0.77979
 O637 O 0.75483 0.32928 0.70321
 O638 O 0.79136 0.33710 0.75238
 O639 O 0.67007 0.29832 0.74092
 O640 O 0.65549 0.25653 0.78256
 O641 O 0.70820 0.25075 0.66742
 O642 O 0.75145 0.20851 0.66265
 O643 O 0.73989 0.20806 0.83559
 O644 O 0.70751 0.25704 0.84024
 O645 O 0.82867 0.24608 0.80176
 O646 O 0.83930 0.28421 0.75573
 O647 O 0.79028 0.16529 0.75821
 O648 O 0.74749 0.15723 0.71903
 Zr649 Zr 0.74757 0.19242 0.75509
 O650 O 0.71995 0.21980 0.72310
 Zr651 Zr 0.80600 0.24613 0.75663
 O652 O 0.78182 0.27501 0.72298
 Zr653 Zr 0.74654 0.25048 0.80894
 O654 O 0.72045 0.28118 0.77856
 Zr655 Zr 0.75067 0.24752 0.69479
 O656 O 0.77873 0.21795 0.72500
 Zr657 Zr 0.69226 0.25348 0.74792
 O658 O 0.71611 0.22267 0.78036
 Zr659 Zr 0.75154 0.30624 0.74797
 O660 O 0.77792 0.27918 0.78192
 O661 O 0.77642 0.21859 0.78551
 O662 O 0.72145 0.28043 0.71792
 C663 C 0.73835 0.17846 0.82745
 C664 C 0.81998 0.17345 0.75727
 C665 C 0.81764 0.24692 0.83041
 C666 C 0.75611 0.31871 0.67446
 C667 C 0.67841 0.25026 0.67510
 C668 C 0.68081 0.32709 0.74103
 H669 H 0.70642 0.20530 0.71038
 H670 H 0.70736 0.29598 0.79145
 H671 H 0.78827 0.20439 0.80029
 H672 H 0.79760 0.28647 0.70963
 H673 H 0.80500 0.23022 0.67129
 H674 H 0.84013 0.25104 0.70553
 H675 H 0.65783 0.27704 0.79398
 H676 H 0.68974 0.24424 0.83145
 H677 H 0.73206 0.19549 0.66624
 H678 H 0.76500 0.16277 0.70411
 H679 H 0.74024 0.33844 0.79919
 H680 H 0.76296 0.30326 0.83581
 H681 H 0.69235 0.16697 0.76466
 H682 H 0.65931 0.20216 0.73787
 H683 H 0.83488 0.29775 0.77455
 H684 H 0.80484 0.33448 0.73316
 O685 O 0.24506 0.81861 0.79868
 O686 O 0.27790 0.82877 0.75321
 O687 O 0.15800 0.78578 0.75198
 O688 O 0.14219 0.74390 0.72261
 O689 O 0.19687 0.73457 0.83487
 O690 O 0.24054 0.70056 0.84346
 O691 O 0.23536 0.69841 0.66654
 O692 O 0.19883 0.74494 0.66214
 O693 O 0.31987 0.73633 0.70432
 O694 O 0.33253 0.76911 0.75178
 O695 O 0.27906 0.65375 0.74458
 O696 O 0.23613 0.64190 0.77893
 O697 O 0.23410 0.65821 0.70298
 O698 O 0.19742 0.64995 0.75148
 O699 O 0.31892 0.69066 0.74361
 O700 O 0.33206 0.73263 0.78321
 O701 O 0.28034 0.73809 0.66701
 O702 O 0.24022 0.77665 0.65857
 O703 O 0.24319 0.77881 0.83557
 O704 O 0.27862 0.73074 0.83965
 O705 O 0.15746 0.74088 0.79787
 O706 O 0.14782 0.70402 0.75245
 O707 O 0.19772 0.82272 0.75542
 O708 O 0.24135 0.83177 0.71947
 Zr709 Zr 0.24007 0.79534 0.75453
 O710 O 0.26793 0.76825 0.72271
 Zr711 Zr 0.18177 0.74149 0.75397
 O712 O 0.20677 0.71232 0.72145
 Zr713 Zr 0.23954 0.73673 0.80819
 O714 O 0.26686 0.70664 0.77849
 Zr715 Zr 0.23797 0.74029 0.69388
 O716 O 0.20979 0.77017 0.72333
 Zr717 Zr 0.29550 0.73485 0.74825
 O718 O 0.27074 0.76491 0.78054
 Zr719 Zr 0.23688 0.68134 0.74732
 O720 O 0.20924 0.70818 0.78014
 O721 O 0.21019 0.76885 0.78402
 O722 O 0.26712 0.70764 0.71780
 C723 C 0.24581 0.80843 0.82768
 C724 C 0.16812 0.81475 0.75308
 C725 C 0.16733 0.73706 0.82663
 C726 C 0.23389 0.66869 0.67414
 C727 C 0.30988 0.73672 0.67534
 C728 C 0.30870 0.66179 0.74296
 H729 H 0.28155 0.78272 0.70995
 H730 H 0.27977 0.69188 0.79175
 H731 H 0.19749 0.78263 0.79843
 H732 H 0.19133 0.70073 0.70789
 H733 H 0.18526 0.76268 0.67003
 H734 H 0.14978 0.73683 0.70146
 H735 H 0.32801 0.71378 0.79693
 H736 H 0.29538 0.74572 0.83230
 H737 H 0.25374 0.79408 0.66688
 H738 H 0.22553 0.82579 0.70295
 H739 H 0.24660 0.64890 0.79883
 H740 H 0.22748 0.68280 0.83508
 H741 H 0.29535 0.81969 0.76644
 H742 H 0.32859 0.78576 0.73541
 H743 H 0.15280 0.68930 0.77033
 H744 H 0.18362 0.65316 0.73254
 O745 O 0.23633 0.34348 0.71728
 O746 O 0.20579 0.35329 0.76512
 O747 O 0.32582 0.30970 0.75765
 O748 O 0.34102 0.27018 0.79087
 O749 O 0.28289 0.26152 0.67904
 O750 O 0.24002 0.22277 0.67535
 O751 O 0.25119 0.22153 0.84907
 O752 O 0.28834 0.26458 0.85280
 O753 O 0.16621 0.26119 0.81542
 O754 O 0.15159 0.29564 0.76888
 O755 O 0.20364 0.17930 0.77281
 O756 O 0.24719 0.16978 0.73292
 O757 O 0.24932 0.18214 0.81201
 O758 O 0.28271 0.17110 0.76531
 O759 O 0.16399 0.21651 0.77499
 O760 O 0.14946 0.25993 0.73740
 O761 O 0.20732 0.26283 0.85076
 O762 O 0.25088 0.30144 0.85555
 O763 O 0.23414 0.30330 0.68095
 O764 O 0.20331 0.25554 0.67528
 O765 O 0.32410 0.26494 0.71435
 O766 O 0.33598 0.22821 0.75845
 O767 O 0.28584 0.34685 0.75611
 O768 O 0.24546 0.35627 0.79602
 Zr769 Zr 0.24360 0.31986 0.76124
 O770 O 0.21728 0.29284 0.79459
 Zr771 Zr 0.30176 0.26565 0.75928
 O772 O 0.27788 0.23610 0.79245
 Zr773 Zr 0.24141 0.26131 0.70779
 O774 O 0.21460 0.23195 0.73861
 Zr775 Zr 0.24839 0.26397 0.82181
 O776 O 0.27524 0.29416 0.79115
 Zr777 Zr 0.18800 0.26037 0.77025
 O778 O 0.21161 0.28986 0.73664
 Zr779 Zr 0.24603 0.20597 0.76804
 O780 O 0.27300 0.23271 0.73457
 O781 O 0.27167 0.29300 0.73060
 O782 O 0.21754 0.23233 0.79909
 C783 C 0.23286 0.33300 0.68867
 C784 C 0.31549 0.33858 0.75560
 C785 C 0.31286 0.26359 0.68585
 C786 C 0.25059 0.19191 0.84097
 C787 C 0.17737 0.26168 0.84399
 C788 C 0.17413 0.18754 0.77553
 H789 H 0.20456 0.30739 0.80810
 H790 H 0.20068 0.21783 0.72587
 H791 H 0.28315 0.30671 0.71520
 H792 H 0.29358 0.22388 0.80528
 H793 H 0.30355 0.28044 0.84399
 H794 H 0.33692 0.25622 0.80951
 H795 H 0.15197 0.24098 0.72359
 H796 H 0.18439 0.26520 0.68563
 H797 H 0.23631 0.31863 0.84836
 H798 H 0.26306 0.35054 0.81081
 H799 H 0.22824 0.17264 0.71904
 H800 H 0.25696 0.20758 0.68206
 H801 H 0.18798 0.34496 0.75202
 H802 H 0.15613 0.31138 0.78583
 H803 H 0.32851 0.21242 0.74259
 H804 H 0.30010 0.17764 0.77989
 O805 O 0.75909 0.66962 0.69335
 O806 O 0.79703 0.65956 0.73465
 O807 O 0.67727 0.70190 0.74399
 O808 O 0.66263 0.74234 0.77466
 O809 O 0.71228 0.75430 0.65972
 O810 O 0.75583 0.78940 0.65083
 O811 O 0.75683 0.78910 0.82674
 O812 O 0.72312 0.74467 0.83373
 O813 O 0.84120 0.75347 0.78431
 O814 O 0.85251 0.72041 0.73815
 O815 O 0.79736 0.83450 0.74648
 O816 O 0.75046 0.84456 0.71221
 O817 O 0.75567 0.82943 0.79045
 O818 O 0.71704 0.84000 0.74591
 O819 O 0.83766 0.79812 0.74539
 O820 O 0.84811 0.75499 0.70399
 O821 O 0.80323 0.75016 0.82308
 O822 O 0.76165 0.70927 0.83186
 O823 O 0.75809 0.71005 0.65698
 O824 O 0.79276 0.75630 0.65042
 O825 O 0.67445 0.74761 0.69820
 O826 O 0.66613 0.78370 0.74443
 O827 O 0.71717 0.66526 0.73952
 O828 O 0.76513 0.65734 0.77304
 Zr829 Zr 0.75916 0.69300 0.73775
 O830 O 0.78835 0.72012 0.76834
 Zr831 Zr 0.70038 0.74645 0.74132
 O832 O 0.72669 0.77556 0.77261
 Zr833 Zr 0.75588 0.75191 0.68467
 O834 O 0.78437 0.78201 0.71311
 Zr835 Zr 0.75938 0.74765 0.79866
 O836 O 0.73002 0.71777 0.77049
 Zr837 Zr 0.81451 0.75373 0.74179
 O838 O 0.78850 0.72362 0.71066
 Zr839 Zr 0.75538 0.80683 0.74567
 O840 O 0.72642 0.77996 0.71421
 O841 O 0.72774 0.71968 0.70996
 O842 O 0.78716 0.78050 0.77359
 C843 C 0.75828 0.68024 0.66451
 C844 C 0.68751 0.67290 0.74261
 C845 C 0.68312 0.75153 0.66902
 C846 C 0.75665 0.81889 0.81930
 C847 C 0.83231 0.75264 0.81358
 C848 C 0.82713 0.82691 0.74734
 H849 H 0.80270 0.70573 0.78045
 H850 H 0.79657 0.79676 0.69927
 H851 H 0.71412 0.70612 0.69626
 H852 H 0.71189 0.78706 0.78697
 H853 H 0.70730 0.72891 0.82597
 H854 H 0.67016 0.75192 0.79482
 H855 H 0.84454 0.77491 0.69169
 H856 H 0.80961 0.74075 0.65649
 H857 H 0.78099 0.69640 0.82734
 H858 H 0.75130 0.66373 0.79108
 H859 H 0.76805 0.84264 0.69654
 H860 H 0.74450 0.80742 0.66106
 H861 H 0.81325 0.66908 0.72029
 H862 H 0.84728 0.70197 0.75200
 H863 H 0.67121 0.79931 0.72737
 H864 H 0.70271 0.83438 0.76383
 O865 O 0.24381 0.66807 0.29623
 O866 O 0.21583 0.65615 0.24942
 O867 O 0.33275 0.70584 0.25497
 O868 O 0.34728 0.74654 0.22523
 O869 O 0.28766 0.75339 0.33574
 O870 O 0.24308 0.78536 0.34260
 O871 O 0.25464 0.78969 0.16533
 O872 O 0.28991 0.74637 0.15973
 O873 O 0.16959 0.74798 0.20162
 O874 O 0.15576 0.71657 0.24767
 O875 O 0.20703 0.83276 0.24238
 O876 O 0.24960 0.84437 0.27953
 O877 O 0.25167 0.82983 0.20164
 O878 O 0.28727 0.83994 0.24990
 O879 O 0.16831 0.79469 0.24007
 O880 O 0.15630 0.75092 0.28075
 O881 O 0.20965 0.74923 0.16521
 O882 O 0.25484 0.70937 0.16041
 O883 O 0.24373 0.70693 0.33372
 O884 O 0.20578 0.75364 0.33666
 O885 O 0.32880 0.75025 0.30030
 O886 O 0.33840 0.78795 0.25451
 O887 O 0.29457 0.66713 0.25709
 O888 O 0.25316 0.65729 0.21685
 Zr889 Zr 0.25083 0.69234 0.25298
 O890 O 0.22225 0.71869 0.22091
 Zr891 Zr 0.30660 0.74861 0.25515
 O892 O 0.28148 0.77663 0.22153
 Zr893 Zr 0.24655 0.74995 0.30707
 O894 O 0.21949 0.77981 0.27663
 Zr895 Zr 0.25192 0.74791 0.19295
 O896 O 0.28100 0.71935 0.22318
 Zr897 Zr 0.19283 0.75090 0.24574
 O898 O 0.21777 0.72087 0.27809
 Zr899 Zr 0.24958 0.80639 0.24632
 O900 O 0.27674 0.78021 0.28029
 O901 O 0.27820 0.71965 0.28388
 O902 O 0.22097 0.77930 0.21602
 C903 C 0.24190 0.67742 0.32531
 C904 C 0.32389 0.67657 0.25678
 C905 C 0.31758 0.75275 0.32874
 C906 C 0.25406 0.81936 0.17293
 C907 C 0.17981 0.74841 0.17278
 C908 C 0.17785 0.82387 0.23967
 H909 H 0.20942 0.70379 0.20794
 H910 H 0.20564 0.79390 0.28953
 H911 H 0.29073 0.70636 0.29899
 H912 H 0.29683 0.78884 0.20834
 H913 H 0.30716 0.73345 0.16963
 H914 H 0.34092 0.75560 0.20435
 H915 H 0.15767 0.77117 0.29276
 H916 H 0.19094 0.73654 0.32994
 H917 H 0.23768 0.69401 0.16558
 H918 H 0.27098 0.66344 0.20254
 H919 H 0.23222 0.84036 0.29504
 H920 H 0.25154 0.80514 0.33279
 H921 H 0.19652 0.66440 0.26034
 H922 H 0.16213 0.69853 0.23387
 H923 H 0.33224 0.80212 0.27235
 H924 H 0.30179 0.83672 0.23155
 O925 O 0.74271 0.31683 0.30298
 O926 O 0.77593 0.32682 0.25757
 O927 O 0.65679 0.28122 0.25755
 O928 O 0.64198 0.23887 0.22853
 O929 O 0.69755 0.23295 0.34076
 O930 O 0.74230 0.19740 0.34756
 O931 O 0.73450 0.19480 0.17243
 O932 O 0.69788 0.24047 0.16760
 O933 O 0.81933 0.23526 0.20867
 O934 O 0.83148 0.26922 0.25583
 O935 O 0.78137 0.15219 0.25017
 O936 O 0.73857 0.14008 0.28606
 O937 O 0.73618 0.15491 0.20934
 O938 O 0.70029 0.14579 0.25773
 O939 O 0.82013 0.19018 0.24801
 O940 O 0.83284 0.23272 0.28722
 O941 O 0.77934 0.23544 0.17185
 O942 O 0.73819 0.27310 0.16351
 O943 O 0.74476 0.27716 0.34021
 O944 O 0.77779 0.23023 0.34678
 O945 O 0.65783 0.23650 0.30379
 O946 O 0.64864 0.19926 0.25894
 O947 O 0.69579 0.31902 0.26005
 O948 O 0.73891 0.32883 0.22384
 Zr949 Zr 0.73872 0.29271 0.25925
 O950 O 0.76686 0.26606 0.22733
 Zr951 Zr 0.68172 0.23753 0.25975
 O952 O 0.70720 0.20856 0.22748
 Zr953 Zr 0.74006 0.23470 0.31356
 O954 O 0.76815 0.20517 0.28390
 Zr955 Zr 0.73726 0.23703 0.19918
 O956 O 0.70872 0.26656 0.22858
 Zr957 Zr 0.79559 0.23371 0.25292
 O958 O 0.77037 0.26327 0.28527
 Zr959 Zr 0.73847 0.17868 0.25338
 O960 O 0.71024 0.20520 0.28600
 O961 O 0.70972 0.26584 0.28932
 O962 O 0.76757 0.20545 0.22313
 C963 C 0.74542 0.30680 0.33188
 C964 C 0.66637 0.31039 0.25815
 C965 C 0.66785 0.23405 0.33263
 C966 C 0.73448 0.16515 0.18048
 C967 C 0.80901 0.23491 0.17981
 C968 C 0.81072 0.16102 0.24772
 H969 H 0.77994 0.28074 0.21426
 H970 H 0.78174 0.19104 0.29716
 H971 H 0.69691 0.27953 0.30371
 H972 H 0.69190 0.19639 0.21428
 H973 H 0.68373 0.25770 0.17563
 H974 H 0.64942 0.23103 0.20759
 H975 H 0.83021 0.21328 0.30046
 H976 H 0.79657 0.24038 0.33665
 H977 H 0.75176 0.29075 0.17125
 H978 H 0.72328 0.32223 0.20739
 H979 H 0.75175 0.14660 0.30447
 H980 H 0.72867 0.18009 0.33916
 H981 H 0.79337 0.31843 0.27125
 H982 H 0.82714 0.28533 0.23903
 H983 H 0.65457 0.18448 0.27649
 H984 H 0.68584 0.14900 0.23928
 C985 C 0.22959 0.12876 0.09363
 C986 C 0.25703 0.10962 0.08778
 C987 C 0.28532 0.11555 0.10475
 C988 C 0.28644 0.13910 0.12810
 C989 C 0.25925 0.15720 0.13534
 C990 C 0.23035 0.15187 0.11843
 C991 C 0.20132 0.12534 0.07544
 C992 C 0.17379 0.14257 0.08305
 C993 C 0.17388 0.16348 0.10874
 C994 C 0.20187 0.16830 0.12619
 H995 H 0.20028 0.10947 0.05517
 H996 H 0.15222 0.13950 0.06909
 H997 H 0.15230 0.17645 0.11486
 H998 H 0.20094 0.18510 0.14560
 H999 H 0.30643 0.10104 0.10068
 H1000 H 0.30853 0.14279 0.14111
 C1001 C 0.74009 0.63658 0.58579
 C1002 C 0.75769 0.60797 0.59118
 C1003 C 0.77508 0.60447 0.61957
 C1004 C 0.77509 0.62827 0.64256
 C1005 C 0.75706 0.65626 0.63852
 C1006 C 0.73843 0.66018 0.61025
 C1007 C 0.72415 0.64234 0.55657
 C1008 C 0.70477 0.66921 0.55252
 C1009 C 0.70082 0.69075 0.57737
 C1010 C 0.71736 0.68635 0.60596
 H1011 H 0.72662 0.62630 0.53657
 H1012 H 0.69239 0.67307 0.53014
 H1013 H 0.68497 0.71108 0.57447
 H1014 H 0.71271 0.70329 0.62464
 H1015 H 0.78851 0.58278 0.62430
 H1016 H 0.78924 0.62460 0.66394
 C1017 C 0.71831 0.86644 0.10333
 C1018 C 0.73530 0.89554 0.10647
 C1019 C 0.74921 0.90332 0.13576
 C1020 C 0.74740 0.88241 0.16158
 C1021 C 0.73158 0.85299 0.15901
 C1022 C 0.71520 0.84572 0.13020
 C1023 C 0.70462 0.85724 0.07394
 C1024 C 0.68635 0.82953 0.07167
 C1025 C 0.68114 0.81068 0.09854
 C1026 C 0.69521 0.81873 0.12756
 H1027 H 0.70790 0.87125 0.05246
 H1028 H 0.67575 0.82294 0.04907
 H1029 H 0.66609 0.78972 0.09692
 H1030 H 0.68938 0.80426 0.14802
 H1031 H 0.76200 0.92564 0.13852
 H1032 H 0.75952 0.88887 0.18345
 C1033 C 0.21404 0.37176 0.60773
 C1034 C 0.23417 0.39888 0.60967
 C1035 C 0.25038 0.40530 0.63810
 C1036 C 0.24790 0.38472 0.66415
 C1037 C 0.22941 0.35684 0.66250
 C1038 C 0.21084 0.35114 0.63468
 C1039 C 0.19723 0.36448 0.57944
 C1040 C 0.17644 0.33852 0.57827
 C1041 C 0.17177 0.31958 0.60520
 C1042 C 0.18859 0.32588 0.63320
 H1043 H 0.19990 0.37875 0.55803
 H1044 H 0.16352 0.33337 0.55651
 H1045 H 0.15493 0.29998 0.60445
 H1046 H 0.18323 0.31146 0.65385
 H1047 H 0.26558 0.42616 0.63993
 H1048 H 0.26162 0.39004 0.68538
 C1049 C 0.72225 0.13443 0.90679
 C1050 C 0.73924 0.10541 0.90081
 C1051 C 0.75460 0.10164 0.87133
 C1052 C 0.75267 0.12502 0.84786
 C1053 C 0.73581 0.15357 0.85279
 C1054 C 0.71935 0.15795 0.88212
 C1055 C 0.70977 0.14166 0.93732
 C1056 C 0.69188 0.16931 0.94238
 C1057 C 0.68623 0.19046 0.91736
 C1058 C 0.69978 0.18493 0.88753
 H1059 H 0.71416 0.12645 0.95776
 H1060 H 0.68214 0.17421 0.96579
 H1061 H 0.67159 0.21148 0.92118
 H1062 H 0.69417 0.20167 0.86878
 H1063 H 0.76748 0.07984 0.86582
 H1064 H 0.76502 0.12076 0.82558
 C1065 C 0.23017 0.63079 0.40456
 C1066 C 0.24224 0.60068 0.39494
 C1067 C 0.25128 0.59598 0.36336
 C1068 C 0.25002 0.62097 0.34149
 C1069 C 0.23934 0.65172 0.35018
 C1070 C 0.22783 0.65637 0.38193
 C1071 C 0.21991 0.63575 0.43626
 C1072 C 0.20680 0.66490 0.44545
 C1073 C 0.20315 0.68938 0.42324
 C1074 C 0.21321 0.68518 0.39182
 H1075 H 0.22159 0.61706 0.45412
 H1076 H 0.19890 0.66832 0.46979
 H1077 H 0.19214 0.71170 0.43032
 H1078 H 0.20825 0.70447 0.37558
 H1079 H 0.26037 0.57295 0.35577
 H1080 H 0.25854 0.61617 0.31758
 C1081 C 0.25965 0.85237 0.90773
 C1082 C 0.24679 0.88274 0.89956
 C1083 C 0.23411 0.88749 0.86902
 C1084 C 0.23430 0.86317 0.84657
 C1085 C 0.24783 0.83312 0.85332
 C1086 C 0.26151 0.82782 0.88414
 C1087 C 0.27048 0.84579 0.93901
 C1088 C 0.28499 0.81670 0.94642
 C1089 C 0.28916 0.79377 0.92290
 C1090 C 0.27774 0.79922 0.89210
 H1091 H 0.26767 0.86289 0.95808
 H1092 H 0.29344 0.81212 0.97043
 H1093 H 0.30128 0.77156 0.92856
 H1094 H 0.28264 0.78107 0.87475
 H1095 H 0.22419 0.91051 0.86229
 H1096 H 0.22358 0.86807 0.82352
 C1097 C 0.77084 0.35479 0.40589
 C1098 C 0.74952 0.38108 0.40299
 C1099 C 0.72735 0.38169 0.37795
 C1100 C 0.72654 0.35734 0.35547
 C1101 C 0.74787 0.33147 0.35712
 C1102 C 0.77059 0.33020 0.38236
 C1103 C 0.79240 0.35241 0.43174
 C1104 C 0.81427 0.32727 0.43362
 C1105 C 0.81525 0.30426 0.40978
 C1106 C 0.79380 0.30572 0.38432
 H1107 H 0.79245 0.36979 0.45078
 H1108 H 0.83077 0.32583 0.45349
 H1109 H 0.83274 0.28517 0.41100
 H1110 H 0.79605 0.28787 0.36604
 H1111 H 0.71095 0.40164 0.37537
 H1112 H 0.70905 0.35880 0.33644
 C1113 C 0.13823 0.24936 0.08653
 C1114 C 0.10697 0.25560 0.09870
 C1115 C 0.10377 0.26332 0.13108
 C1116 C 0.12974 0.26233 0.15165
 C1117 C 0.16041 0.25369 0.14112
 C1118 C 0.16500 0.24732 0.10785
 C1119 C 0.14372 0.24683 0.05330
 C1120 C 0.17381 0.23909 0.04142
 C1121 C 0.19922 0.23434 0.06218
 C1122 C 0.19511 0.23859 0.09487
 H1123 H 0.12498 0.25135 0.03608
 H1124 H 0.17738 0.23668 0.01596
 H1125 H 0.22245 0.22765 0.05287
 H1126 H 0.21592 0.23397 0.10919
 H1127 H 0.08050 0.26837 0.14131
 H1128 H 0.12546 0.26796 0.17649
 C1129 C 0.63067 0.77074 0.59630
 C1130 C 0.60846 0.74532 0.59873
 C1131 C 0.61183 0.72258 0.62303
 C1132 C 0.63615 0.72525 0.64551
 C1133 C 0.65784 0.75074 0.64441
 C1134 C 0.65524 0.77386 0.61966
 C1135 C 0.62880 0.79325 0.57118
 C1136 C 0.65001 0.81888 0.56969
 C1137 C 0.67315 0.82272 0.59324
 C1138 C 0.67570 0.80061 0.61810
 H1139 H 0.61108 0.79116 0.55247
 H1140 H 0.64827 0.83601 0.55035
 H1141 H 0.68917 0.84300 0.59230
 H1142 H 0.69341 0.80506 0.63625
 H1143 H 0.59491 0.70311 0.62515
 H1144 H 0.63802 0.70722 0.66406
 C1145 C 0.11759 0.71526 0.90024
 C1146 C 0.09786 0.74314 0.90228
 C1147 C 0.10208 0.76765 0.87958
 C1148 C 0.12406 0.76468 0.85492
 C1149 C 0.14303 0.73733 0.85209
 C1150 C 0.13958 0.71207 0.87437
 C1151 C 0.11780 0.69145 0.92435
 C1152 C 0.13659 0.66404 0.92139
 C1153 C 0.15598 0.65990 0.89478
 C1154 C 0.15766 0.68370 0.87152
 H1155 H 0.10420 0.69398 0.94609
 H1156 H 0.13615 0.64594 0.93991
 H1157 H 0.17021 0.63839 0.89242
 H1158 H 0.17311 0.67963 0.85128
 H1159 H 0.08748 0.78908 0.88024
 H1160 H 0.12657 0.78421 0.83803
 C1161 C 0.61913 0.21674 0.40841
 C1162 C 0.59585 0.24130 0.40563
 C1163 C 0.59654 0.26198 0.37937
 C1164 C 0.61982 0.25875 0.35593
 C1165 C 0.64325 0.23478 0.35799
 C1166 C 0.64266 0.21303 0.38406
 C1167 C 0.61976 0.19596 0.43505
 C1168 C 0.64217 0.17130 0.43700
 C1169 C 0.66415 0.16674 0.41251
 C1170 C 0.66438 0.18726 0.38622
 H1171 H 0.60307 0.19858 0.45458
 H1172 H 0.64227 0.15545 0.45747
 H1173 H 0.68111 0.14718 0.41387
 H1174 H 0.68130 0.18237 0.36747
 H1175 H 0.57897 0.28094 0.37711
 H1176 H 0.61987 0.27556 0.33618
 C1177 C 0.85850 0.78133 0.10287
 C1178 C 0.88689 0.76228 0.10589
 C1179 C 0.89074 0.74360 0.13366
 C1180 C 0.86841 0.74433 0.15820
 C1181 C 0.84129 0.76383 0.15631
 C1182 C 0.83660 0.78335 0.12895
 C1183 C 0.85011 0.79688 0.07396
 C1184 C 0.82360 0.81712 0.07220
 C1185 C 0.80444 0.82183 0.09885
 C1186 C 0.81064 0.80501 0.12692
 H1187 H 0.86339 0.79310 0.05220
 H1188 H 0.81795 0.82927 0.05005
 H1189 H 0.78432 0.83812 0.09759
 H1190 H 0.79504 0.80942 0.14694
 H1191 H 0.91194 0.72907 0.13722
 H1192 H 0.87243 0.72942 0.17904
 C1193 C 0.35426 0.28243 0.60607
 C1194 C 0.38295 0.26445 0.61021
 C1195 C 0.38749 0.24711 0.63851
 C1196 C 0.36450 0.24721 0.66246
 C1197 C 0.33628 0.26510 0.65933
 C1198 C 0.33147 0.28391 0.63140
 C1199 C 0.34744 0.29870 0.57723
 C1200 C 0.32043 0.31815 0.57439
 C1201 C 0.29964 0.32168 0.60002
 C1202 C 0.30499 0.30479 0.62825
 H1203 H 0.36265 0.29645 0.55653
 H1204 H 0.31579 0.33081 0.55229
 H1205 H 0.27915 0.33745 0.59796
 H1206 H 0.28851 0.30890 0.64759
 H1207 H 0.40919 0.23334 0.64218
 H1208 H 0.36879 0.23302 0.68373
 C1209 C 0.85827 0.22333 0.90913
 C1210 C 0.88482 0.24481 0.90880
 C1211 C 0.88757 0.26641 0.88303
 C1212 C 0.86599 0.26624 0.85778
 C1213 C 0.84070 0.24456 0.85707
 C1214 C 0.83708 0.22226 0.88241
 C1215 C 0.85098 0.20420 0.93608
 C1216 C 0.82621 0.18195 0.93520
 C1217 C 0.80776 0.17868 0.90783
 C1218 C 0.81289 0.19873 0.88174
 H1219 H 0.86385 0.20659 0.95831
 H1220 H 0.82136 0.16712 0.95585
 H1221 H 0.78901 0.16092 0.90703
 H1222 H 0.79791 0.19540 0.86105
 H1223 H 0.90751 0.28283 0.88144
 H1224 H 0.86908 0.28334 0.83854
 C1225 C 0.36245 0.77461 0.40534
 C1226 C 0.38562 0.74979 0.40573
 C1227 C 0.38551 0.72682 0.38155
 C1228 C 0.36344 0.72849 0.35674
 C1229 C 0.34078 0.75318 0.35531
 C1230 C 0.34026 0.77671 0.37959
 C1231 C 0.36086 0.79740 0.43005
 C1232 C 0.33881 0.82242 0.42875
 C1233 C 0.31812 0.82533 0.40287
 C1234 C 0.31885 0.80283 0.37843
 H1235 H 0.37647 0.79598 0.45061
 H1236 H 0.33795 0.83980 0.44779
 H1237 H 0.30143 0.84513 0.40171
 H1238 H 0.30290 0.80645 0.35847
 H1239 H 0.40320 0.70784 0.38148
 H1240 H 0.36400 0.71024 0.33845
 C1241 C 0.14740 0.09002 0.24608
 C1242 C 0.11850 0.09708 0.22921
 C1243 C 0.11549 0.12740 0.21480
 C1244 C 0.13889 0.15067 0.21833
 C1245 C 0.16634 0.14509 0.23670
 C1246 C 0.17047 0.11465 0.25136
 C1247 C 0.15489 0.05862 0.25635
 C1248 C 0.18200 0.05248 0.27475
 C1249 C 0.20240 0.07728 0.28302
 C1250 C 0.19679 0.10806 0.27146
 H1251 H 0.14022 0.03843 0.24982
 H1252 H 0.18705 0.02839 0.28286
 H1253 H 0.22295 0.07258 0.29807
 H1254 H 0.21299 0.12654 0.27888
 H1255 H 0.09403 0.13412 0.20189
 H1256 H 0.13530 0.17353 0.20658
 C1257 C 0.64478 0.59116 0.74821
 C1258 C 0.61440 0.60001 0.73586
 C1259 C 0.60904 0.63174 0.72662
 C1260 C 0.63288 0.65461 0.72950
 C1261 C 0.66294 0.64702 0.74252
 C1262 C 0.66867 0.61504 0.75311
 C1263 C 0.65206 0.55897 0.75558
 C1264 C 0.68104 0.55075 0.76986
 C1265 C 0.70316 0.57434 0.77725
 C1266 C 0.69706 0.60612 0.76916
 H1267 H 0.63558 0.53984 0.75022
 H1268 H 0.68614 0.52603 0.77568
 H1269 H 0.72522 0.56798 0.78928
 H1270 H 0.71444 0.62344 0.77656
 H1271 H 0.58597 0.63903 0.71724
 H1272 H 0.62766 0.67860 0.72114
 C1273 C 0.87294 0.10423 0.78569
 C1274 C 0.89356 0.10096 0.75857
 C1275 C 0.88780 0.12074 0.73184
 C1276 C 0.86370 0.14367 0.73190
 C1277 C 0.84447 0.14814 0.75868
 C1278 C 0.84949 0.12911 0.78619
 C1279 C 0.87349 0.08239 0.81158
 C1280 C 0.85523 0.08776 0.83888
 C1281 C 0.83523 0.11426 0.84064
 C1282 C 0.83175 0.13443 0.81434
 H1283 H 0.88747 0.06066 0.81093
 H1284 H 0.85663 0.07125 0.85879
 H1285 H 0.82170 0.11872 0.86217
 H1286 H 0.81511 0.15415 0.81626
 H1287 H 0.90297 0.11963 0.71094
 H1288 H 0.86034 0.15850 0.71089
 C1289 C 0.37656 0.60700 0.28509
 C1290 C 0.39947 0.60663 0.26001
 C1291 C 0.39695 0.62906 0.23522
 C1292 C 0.37233 0.65148 0.23472
 C1293 C 0.34945 0.65231 0.25905
 C1294 C 0.35195 0.63069 0.28505
 C1295 C 0.37720 0.58416 0.31001
 C1296 C 0.35589 0.58622 0.33550
 C1297 C 0.33334 0.61069 0.33651
 C1298 C 0.33099 0.63252 0.31140
 H1299 H 0.39401 0.56451 0.31015
 H1300 H 0.35706 0.56889 0.35471
 H1301 H 0.31747 0.61261 0.35679
 H1302 H 0.31299 0.65104 0.31310
 H1303 H 0.41420 0.62913 0.21593
 H1304 H 0.37096 0.66823 0.21497
 C1305 C 0.09292 0.86467 0.73565
 C1306 C 0.09713 0.88990 0.75813
 C1307 C 0.12381 0.88856 0.77865
 C1308 C 0.14661 0.86444 0.77612
 C1309 C 0.14393 0.84066 0.75296
 C1310 C 0.11732 0.84104 0.73192
 C1311 C 0.06426 0.86118 0.71799
 C1312 C 0.06142 0.83776 0.69462
 C1313 C 0.08676 0.81709 0.68858
 C1314 C 0.11446 0.81858 0.70702
 H1315 H 0.04358 0.87608 0.72241
 H1316 H 0.03950 0.83580 0.68098
 H1317 H 0.08476 0.79945 0.66986
 H1318 H 0.13363 0.80223 0.70132
 H1319 H 0.12817 0.90720 0.79596
 H1320 H 0.16667 0.86438 0.79253
 C1321 C 0.59404 0.36251 0.23597
 C1322 C 0.59695 0.38648 0.25962
 C1323 C 0.62152 0.38429 0.28224
 C1324 C 0.64361 0.35941 0.28127
 C1325 C 0.64193 0.33593 0.25762
 C1326 C 0.61718 0.33747 0.23443
 C1327 C 0.56859 0.36288 0.21379
 C1328 C 0.56685 0.34007 0.18971
 C1329 C 0.59039 0.31664 0.18716
 C1330 C 0.61541 0.31533 0.20915
 H1331 H 0.54976 0.38063 0.21495
 H1332 H 0.54730 0.34075 0.17277
 H1333 H 0.58925 0.29936 0.16805
 H1334 H 0.63349 0.29719 0.20576
 H1335 H 0.62411 0.40248 0.30038
 H1336 H 0.66233 0.35853 0.29913
 C1337 C 0.86828 0.90484 0.21449
 C1338 C 0.88863 0.91227 0.24056
 C1339 C 0.88411 0.89668 0.26988
 C1340 C 0.86079 0.87322 0.27340
 C1341 C 0.84132 0.86462 0.24772
 C1342 C 0.84499 0.88025 0.21788
 C1343 C 0.87059 0.92126 0.18507
 C1344 C 0.85185 0.91234 0.15908
 C1345 C 0.83032 0.88719 0.16193
 C1346 C 0.82662 0.87143 0.19106
 H1347 H 0.88677 0.94117 0.18191
 H1348 H 0.85414 0.92489 0.13658
 H1349 H 0.81619 0.88008 0.14152
 H1350 H 0.80937 0.85230 0.19227
 H1351 H 0.89956 0.90191 0.28995
 H1352 H 0.85829 0.86123 0.29622
 C1353 C 0.36785 0.40266 0.71712
 C1354 C 0.38769 0.41043 0.74347
 C1355 C 0.38227 0.39566 0.77306
 C1356 C 0.35842 0.37275 0.77665
 C1357 C 0.33941 0.36385 0.75075
 C1358 C 0.34412 0.37853 0.72059
 C1359 C 0.37101 0.41837 0.68739
 C1360 C 0.35271 0.40908 0.66121
 C1361 C 0.33079 0.38430 0.66417
 C1362 C 0.32625 0.36930 0.69357
 H1363 H 0.38746 0.43802 0.68412
 H1364 H 0.35564 0.42110 0.63849
 H1365 H 0.31694 0.37695 0.64366
 H1366 H 0.30868 0.35048 0.69485
 H1367 H 0.39731 0.40119 0.79335
 H1368 H 0.35511 0.36148 0.79973
 C1369 C 0.13457 0.26552 0.92563
 C1370 C 0.10615 0.24833 0.91800
 C1371 C 0.10367 0.23462 0.88755
 C1372 C 0.12694 0.23953 0.86451
 C1373 C 0.15375 0.25868 0.87042
 C1374 C 0.15761 0.27221 0.90130
 C1375 C 0.14155 0.27467 0.95732
 C1376 C 0.16841 0.29301 0.96429
 C1377 C 0.18886 0.30257 0.93996
 C1378 C 0.18357 0.29241 0.90877
 H1379 H 0.12669 0.26723 0.97709
 H1380 H 0.17317 0.30010 0.98863
 H1381 H 0.20918 0.31762 0.94532
 H1382 H 0.19979 0.30104 0.89082
 H1383 H 0.08261 0.22134 0.88052
 H1384 H 0.12363 0.22833 0.84148
 C1385 C 0.64049 0.74857 0.42336
 C1386 C 0.60896 0.75620 0.41356
 C1387 C 0.60320 0.76565 0.38217
 C1388 C 0.62787 0.76709 0.36014
 C1389 C 0.65948 0.75892 0.36840
 C1390 C 0.66620 0.74995 0.40081
 C1391 C 0.64667 0.73854 0.45498
 C1392 C 0.67744 0.73014 0.46457
 C1393 C 0.70253 0.73132 0.44291
 C1394 C 0.69716 0.74099 0.41149
 H1395 H 0.62777 0.73687 0.47254
 H1396 H 0.68180 0.72242 0.48887
 H1397 H 0.72635 0.72432 0.45041
 H1398 H 0.71767 0.74015 0.39613
 H1399 H 0.57912 0.77157 0.37448
 H1400 H 0.62189 0.77446 0.33605
 C1401 C 0.88666 0.78728 0.87770
 C1402 C 0.89781 0.75841 0.89242
 C1403 C 0.88733 0.72900 0.87992
 C1404 C 0.86706 0.72764 0.85370
 C1405 C 0.85695 0.75550 0.83841
 C1406 C 0.86721 0.78560 0.84974
 C1407 C 0.89164 0.81768 0.89158
 C1408 C 0.88098 0.84550 0.87658
 C1409 C 0.86429 0.84380 0.84800
 C1410 C 0.85702 0.81419 0.83480
 H1411 H 0.90269 0.82045 0.91467
 H1412 H 0.88529 0.86852 0.88745
 H1413 H 0.85607 0.86553 0.83667
 H1414 H 0.84267 0.81384 0.81333
 H1415 H 0.89537 0.70654 0.89010
 H1416 H 0.85899 0.70454 0.84535
 C1417 C 0.38369 0.28933 0.37846
 C1418 C 0.39911 0.26145 0.39046
 C1419 C 0.39444 0.23216 0.37494
 C1420 C 0.37422 0.22983 0.34867
 C1421 C 0.35855 0.25683 0.33673
 C1422 C 0.36403 0.28708 0.35076
 C1423 C 0.38621 0.31914 0.39396
 C1424 C 0.37134 0.34630 0.38144
 C1425 C 0.35350 0.34435 0.35351
 C1426 C 0.34968 0.31505 0.33826
 H1427 H 0.39919 0.32180 0.41607
 H1428 H 0.37353 0.36898 0.39358
 H1429 H 0.34195 0.36552 0.34409
 H1430 H 0.33498 0.31438 0.31702
 H1431 H 0.40600 0.21066 0.38376
 H1432 H 0.37013 0.20662 0.33805
 C1433 C 0.13354 0.74079 0.09315
 C1434 C 0.10408 0.75477 0.10259
 C1435 C 0.10065 0.76646 0.13347
 C1436 C 0.12549 0.76388 0.15533
 C1437 C 0.15484 0.74941 0.14730
 C1438 C 0.15881 0.73706 0.11587
 C1439 C 0.13838 0.73048 0.06145
 C1440 C 0.16664 0.71521 0.05264
 C1441 C 0.19044 0.70970 0.07516
 C1442 C 0.18661 0.72027 0.10643
 H1443 H 0.12049 0.73423 0.04315
 H1444 H 0.16991 0.70726 0.02832
 H1445 H 0.21204 0.69710 0.06838
 H1446 H 0.20543 0.71432 0.12284
 H1447 H 0.07832 0.77736 0.14089
 H1448 H 0.12158 0.77360 0.17892
 C1449 C 0.63166 0.24521 0.59509
 C1450 C 0.60111 0.25523 0.60599
 C1451 C 0.59710 0.26359 0.63784
 C1452 C 0.62246 0.26161 0.65916
 C1453 C 0.65305 0.25092 0.64973
 C1454 C 0.65763 0.24190 0.61715
 C1455 C 0.63684 0.23849 0.56248
 C1456 C 0.66625 0.22705 0.55191
 C1457 C 0.69092 0.22183 0.57351
 C1458 C 0.68675 0.22893 0.60571
 H1459 H 0.61832 0.24216 0.54479
 H1460 H 0.66977 0.22181 0.52688
 H1461 H 0.71350 0.21216 0.56528
 H1462 H 0.70654 0.22323 0.62100
 H1463 H 0.57394 0.27149 0.64642
 H1464 H 0.61786 0.26888 0.68351
 C1465 C 0.85577 0.21369 0.10406
 C1466 C 0.88024 0.23703 0.10577
 C1467 C 0.88047 0.25876 0.13106
 C1468 C 0.85731 0.25743 0.15483
 C1469 C 0.83307 0.23441 0.15402
 C1470 C 0.83230 0.21196 0.12868
 C1471 C 0.85406 0.19209 0.07832
 C1472 C 0.83050 0.16857 0.07744
 C1473 C 0.80842 0.16599 0.10213
 C1474 C 0.80933 0.18728 0.12763
 H1475 H 0.87074 0.19328 0.05863
 H1476 H 0.82951 0.15210 0.05761
 H1477 H 0.79048 0.14741 0.10150
 H1478 H 0.79221 0.18388 0.14657
 H1479 H 0.89918 0.27657 0.13275
 H1480 H 0.85824 0.27466 0.17404
 C1481 C 0.35800 0.71302 0.60134
 C1482 C 0.38165 0.73727 0.60184
 C1483 C 0.38087 0.76046 0.62581
 C1484 C 0.35754 0.75968 0.64948
 C1485 C 0.33416 0.73580 0.64982
 C1486 C 0.33436 0.71196 0.62582
 C1487 C 0.35730 0.68982 0.57698
 C1488 C 0.33460 0.66546 0.57738
 C1489 C 0.31234 0.66366 0.60199
 C1490 C 0.31217 0.68656 0.62605
 H1491 H 0.37414 0.69039 0.55739
 H1492 H 0.33442 0.64774 0.55864
 H1493 H 0.29516 0.64439 0.60241
 H1494 H 0.29486 0.68391 0.64497
 H1495 H 0.39895 0.77897 0.62659
 H1496 H 0.35769 0.77797 0.66772
 C1497 C 0.23835 0.14195 0.91774
 C1498 C 0.25566 0.11356 0.90913
 C1499 C 0.27329 0.11444 0.88039
 C1500 C 0.27165 0.14028 0.85964
 C1501 C 0.25225 0.16672 0.86606
 C1502 C 0.23508 0.16767 0.89529
 C1503 C 0.22633 0.14668 0.94897
 C1504 C 0.20759 0.17324 0.95632
 C1505 C 0.20093 0.19603 0.93306
 C1506 C 0.21461 0.19346 0.90288
 H1507 H 0.23186 0.13030 0.96822
 H1508 H 0.19809 0.17607 0.98017
 H1509 H 0.18576 0.21622 0.93868
 H1510 H 0.20889 0.21187 0.88580
 H1511 H 0.28663 0.09396 0.87196
 H1512 H 0.28512 0.13907 0.83759
 C1513 C 0.72614 0.63240 0.40225
 C1514 C 0.75376 0.61284 0.40591
 C1515 C 0.78170 0.62064 0.38906
 C1516 C 0.78238 0.64650 0.36811
 C1517 C 0.75508 0.66520 0.36308
 C1518 C 0.72647 0.65796 0.37971
 C1519 C 0.69811 0.62711 0.42033
 C1520 C 0.67036 0.64477 0.41444
 C1521 C 0.67001 0.66803 0.39064
 C1522 C 0.69780 0.67480 0.37354
 H1523 H 0.69737 0.60946 0.43922
 H1524 H 0.64895 0.64020 0.42823
 H1525 H 0.64825 0.68127 0.38578
 H1526 H 0.69660 0.69323 0.35544
 H1527 H 0.80296 0.60593 0.39132
 H1528 H 0.80416 0.65142 0.35498
 C1529 C 0.71708 0.12236 0.10172
 C1530 C 0.73838 0.09608 0.10484
 C1531 C 0.75685 0.09279 0.13250
 C1532 C 0.75458 0.11501 0.15699
 C1533 C 0.73353 0.14108 0.15474
 C1534 C 0.71374 0.14436 0.12735
 C1535 C 0.69921 0.12746 0.07350
 C1536 C 0.67714 0.15240 0.07137
 C1537 C 0.67228 0.17254 0.09724
 C1538 C 0.69022 0.16856 0.12502
 H1539 H 0.70218 0.11242 0.05279
 H1540 H 0.66347 0.15587 0.04969
 H1541 H 0.65453 0.19138 0.09576
 H1542 H 0.68489 0.18416 0.14476
 H1543 H 0.77329 0.07287 0.13508
 H1544 H 0.76994 0.11216 0.17766
 C1545 C 0.22474 0.62818 0.59247
 C1546 C 0.24042 0.59874 0.59904
 C1547 C 0.25273 0.59300 0.62955
 C1548 C 0.24969 0.61569 0.65351
 C1549 C 0.23348 0.64466 0.64811
 C1550 C 0.21965 0.65050 0.61759
 C1551 C 0.21425 0.63611 0.56135
 C1552 C 0.19675 0.66393 0.55566
 C1553 C 0.18916 0.68419 0.58074
 C1554 C 0.20028 0.67755 0.61142
 H1555 H 0.21961 0.62110 0.54111
 H1556 H 0.18856 0.66950 0.53177
 H1557 H 0.17464 0.70523 0.57640
 H1558 H 0.19270 0.69336 0.63017
 H1559 H 0.26487 0.57070 0.63490
 H1560 H 0.26058 0.61065 0.67646
 C1561 C 0.77109 0.86353 0.89856
 C1562 C 0.75291 0.89152 0.89236
 C1563 C 0.73702 0.89491 0.86324
 C1564 C 0.73892 0.87121 0.84014
 C1565 C 0.75664 0.84308 0.84533
 C1566 C 0.77345 0.83927 0.87479
 C1567 C 0.78679 0.85906 0.92813
 C1568 C 0.80534 0.83196 0.93388
 C1569 C 0.80862 0.80885 0.91044
 C1570 C 0.79305 0.81243 0.88123
 H1571 H 0.78486 0.87635 0.94714
 H1572 H 0.81739 0.82898 0.95657
 H1573 H 0.82346 0.78804 0.91483
 H1574 H 0.79738 0.79417 0.86387
 H1575 H 0.72296 0.91617 0.85834
 H1576 H 0.72596 0.87479 0.81802
 C1577 C 0.27123 0.35898 0.39938
 C1578 C 0.25603 0.38842 0.39228
 C1579 C 0.24268 0.39346 0.36220
 C1580 C 0.24377 0.36971 0.33913
 C1581 C 0.25814 0.33986 0.34525
 C1582 C 0.27243 0.33437 0.37586
 C1583 C 0.28554 0.35374 0.42952
 C1584 C 0.30106 0.32509 0.43646
 C1585 C 0.30267 0.30120 0.41365
 C1586 C 0.28865 0.30566 0.38378
 H1587 H 0.28511 0.37182 0.44790
 H1588 H 0.31212 0.32152 0.45956
 H1589 H 0.31524 0.27915 0.41898
 H1590 H 0.29192 0.28655 0.36717
 H1591 H 0.23095 0.41593 0.35664
 H1592 H 0.23278 0.37470 0.31623
 C1593 C 0.27873 0.86340 0.09650
 C1594 C 0.25476 0.88742 0.09557
 C1595 C 0.23160 0.88849 0.11970
 C1596 C 0.23216 0.86661 0.14485
 C1597 C 0.25590 0.84299 0.14667
 C1598 C 0.27983 0.84155 0.12265
 C1599 C 0.30164 0.86058 0.07190
 C1600 C 0.32596 0.83779 0.07376
 C1601 C 0.32808 0.81760 0.10013
 C1602 C 0.30540 0.81947 0.12444
 H1603 H 0.30087 0.87579 0.05098
 H1604 H 0.34345 0.83601 0.05480
 H1605 H 0.34740 0.80039 0.10176
 H1606 H 0.30850 0.80389 0.14480
 H1607 H 0.21327 0.90685 0.11940
 H1608 H 0.21374 0.86802 0.16298
 C1609 C 0.77541 0.35971 0.59467
 C1610 C 0.75587 0.38734 0.59743
 C1611 C 0.73749 0.39164 0.62505
 C1612 C 0.73838 0.36943 0.64983
 C1613 C 0.75817 0.34241 0.64817
 C1614 C 0.77773 0.33790 0.62080
 C1615 C 0.79258 0.35312 0.56641
 C1616 C 0.81339 0.32711 0.56478
 C1617 C 0.81766 0.30735 0.59120
 C1618 C 0.80019 0.31270 0.61900
 H1619 H 0.78995 0.36782 0.54528
 H1620 H 0.82660 0.32253 0.54306
 H1621 H 0.83455 0.28772 0.59014
 H1622 H 0.80509 0.29742 0.63920
 H1623 H 0.72251 0.41264 0.62764
 H1624 H 0.72321 0.37329 0.67043
 C1625 C 0.13229 0.10890 0.79661
 C1626 C 0.10571 0.11094 0.77551
 C1627 C 0.10149 0.13849 0.75688
 C1628 C 0.12331 0.16347 0.75816
 C1629 C 0.15002 0.16188 0.77828
 C1630 C 0.15398 0.13507 0.79876
 C1631 C 0.13829 0.08125 0.81519
 C1632 C 0.16354 0.08035 0.83695
 C1633 C 0.18335 0.10676 0.84056
 C1634 C 0.17873 0.13386 0.82168
 H1635 H 0.12376 0.06005 0.81305
 H1636 H 0.16759 0.05915 0.85128
 H1637 H 0.20250 0.10616 0.85796
 H1638 H 0.19428 0.15401 0.82564
 H1639 H 0.08126 0.14047 0.74078
 H1640 H 0.11979 0.18388 0.74253
 C1641 C 0.64190 0.60117 0.28856
 C1642 C 0.61274 0.60618 0.27172
 C1643 C 0.60715 0.63568 0.25689
 C1644 C 0.62975 0.65995 0.25810
 C1645 C 0.65878 0.65583 0.27444
 C1646 C 0.66460 0.62654 0.29084
 C1647 C 0.64932 0.57137 0.30280
 C1648 C 0.67706 0.56738 0.32088
 C1649 C 0.69810 0.59272 0.32487
 C1650 C 0.69210 0.62193 0.30994
 H1651 H 0.63399 0.55082 0.30003
 H1652 H 0.68216 0.54454 0.33202
 H1653 H 0.71932 0.58968 0.33942
 H1654 H 0.70894 0.64086 0.31412
 H1655 H 0.58502 0.63995 0.24406
 H1656 H 0.62468 0.68206 0.24553
 C1657 C 0.11392 0.87919 0.20443
 C1658 C 0.10530 0.89683 0.23237
 C1659 C 0.12080 0.88928 0.26133
 C1660 C 0.14440 0.86590 0.26300
 C1661 C 0.15356 0.84906 0.23590
 C1662 C 0.13897 0.85594 0.20621
 C1663 C 0.09689 0.88211 0.17534
 C1664 C 0.10650 0.86543 0.14821
 C1665 C 0.13264 0.84486 0.14953
 C1666 C 0.14852 0.83973 0.17831
 H1667 H 0.07552 0.89650 0.17326
 H1668 H 0.09341 0.86831 0.12609
 H1669 H 0.14009 0.83212 0.12835
 H1670 H 0.16814 0.82278 0.17858
 H1671 H 0.11538 0.90228 0.28297
 H1672 H 0.15565 0.86087 0.28579
 C1673 C 0.61499 0.38067 0.70674
 C1674 C 0.60980 0.40111 0.73327
 C1675 C 0.62906 0.39768 0.76049
 C1676 C 0.65255 0.37411 0.76220
 C1677 C 0.65760 0.35328 0.73670
 C1678 C 0.63969 0.35713 0.70826
 C1679 C 0.59583 0.38245 0.67900
 C1680 C 0.60232 0.36318 0.65270
 C1681 C 0.62768 0.34159 0.65357
 C1682 C 0.64603 0.33823 0.68116
 H1683 H 0.57565 0.39856 0.67727
 H1684 H 0.58768 0.36511 0.63146
 H1685 H 0.63290 0.32708 0.63288
 H1686 H 0.66538 0.32099 0.68098
 H1687 H 0.62547 0.41311 0.78088
 H1688 H 0.66639 0.37158 0.78394
 C1689 C 0.86678 0.08931 0.26025
 C1690 C 0.88789 0.09420 0.23422
 C1691 C 0.88184 0.11895 0.21251
 C1692 C 0.85618 0.13973 0.21702
 C1693 C 0.83572 0.13637 0.24332
 C1694 C 0.84075 0.11084 0.26515
 C1695 C 0.87126 0.06361 0.28173
 C1696 C 0.85116 0.05974 0.30798
 C1697 C 0.82648 0.08143 0.31345
 C1698 C 0.82135 0.10683 0.29241
 H1699 H 0.89020 0.04625 0.27835
 H1700 H 0.85491 0.03997 0.32431
 H1701 H 0.81125 0.07859 0.33415
 H1702 H 0.80236 0.12337 0.29796
 H1703 H 0.89784 0.12294 0.19256
 H1704 H 0.85262 0.15910 0.20011
 C1705 C 0.36264 0.58912 0.75832
 C1706 C 0.38451 0.59295 0.73276
 C1707 C 0.37951 0.61724 0.71028
 C1708 C 0.35421 0.63868 0.71364
 C1709 C 0.33308 0.63641 0.73952
 C1710 C 0.33699 0.61130 0.76206
 C1711 C 0.36604 0.56386 0.78052
 C1712 C 0.34522 0.56108 0.80635
 C1713 C 0.32090 0.58342 0.81069
 C1714 C 0.31684 0.60840 0.78892
 H1715 H 0.38467 0.54603 0.77803
 H1716 H 0.34814 0.54164 0.82323
 H1717 H 0.30512 0.58143 0.83106
 H1718 H 0.29809 0.62549 0.79361
 H1719 H 0.39613 0.62046 0.69070
 H1720 H 0.35149 0.65773 0.69623
 C1721 C 0.87014 0.90562 0.76793
 C1722 C 0.89967 0.90013 0.75211
 C1723 C 0.90428 0.87171 0.73533
 C1724 C 0.88049 0.84859 0.73425
 C1725 C 0.85127 0.85281 0.75024
 C1726 C 0.84623 0.88132 0.76810
 C1727 C 0.86378 0.93488 0.78347
 C1728 C 0.83569 0.93929 0.80078
 C1729 C 0.81345 0.91477 0.80300
 C1730 C 0.81858 0.88612 0.78694
 H1731 H 0.88028 0.95471 0.78234
 H1732 H 0.83136 0.96169 0.81288
 H1733 H 0.79210 0.91794 0.81727
 H1734 H 0.80118 0.86767 0.79064
 H1735 H 0.92665 0.86731 0.72302
 H1736 H 0.88499 0.82714 0.72056
 C1737 C 0.37008 0.40625 0.26634
 C1738 C 0.40036 0.40056 0.25206
 C1739 C 0.40603 0.37150 0.23673
 C1740 C 0.38257 0.34804 0.23556
 C1741 C 0.35270 0.35240 0.25028
 C1742 C 0.34667 0.38147 0.26692
 C1743 C 0.36242 0.43621 0.27990
 C1744 C 0.33372 0.44082 0.29610
 C1745 C 0.31213 0.41582 0.29916
 C1746 C 0.31845 0.38648 0.28484
 H1747 H 0.37836 0.45643 0.27798
 H1748 H 0.32841 0.46376 0.30673
 H1749 H 0.29030 0.41921 0.31263
 H1750 H 0.30144 0.36777 0.28909
 H1751 H 0.42898 0.36684 0.22563
 H1752 H 0.38790 0.32619 0.22282
   
