data_POSCAR
  _audit_creation_date              2014-09-24
  _audit_creation_method            'ToBaCCo'
  _symmetry_space_group_name_H-M    'P1'
  _symmetry_Int_Tables_number       1
  _symmetry_cell_setting            triclinic
  loop_
  _symmetry_equiv_pos_as_xyz
 x,y,z
_cell_length_a 46.8436
_cell_length_b 46.7762
_cell_length_c 37.2909
_cell_angle_alpha 89.787600
_cell_angle_beta 89.782700
_cell_angle_gamma 89.953200
loop_
  _atom_site_label
  _atom_site_type_symbol
  _atom_site_fract_x
  _atom_site_fract_y
  _atom_site_fract_z
C1 C 0.31250 -0.03684 0.24617
 C2 C 0.32922 -0.01267 0.23877
 C3 C 0.34953 -0.01350 0.21132
 C4 C 0.35378 -0.03836 0.19122
 C5 C 0.33574 -0.06183 0.19703
 C6 C 0.31513 -0.06162 0.22488
 C7 C 0.32959 0.01197 0.26307
 C8 C 0.35051 0.01268 0.28962
 C9 C 0.35582 0.03765 0.30955
 C10 C 0.33786 0.06144 0.30377
 C11 C 0.31688 0.06102 0.27684
 C12 C 0.31302 0.03626 0.25628
 H13 H 0.29736 -0.03601 0.26817
 H14 H 0.36307 0.00498 0.20685
 H15 H 0.36283 -0.00660 0.29413
 H16 H 0.29769 0.03609 0.23459
 H17 H 0.33976 -0.08125 0.18207
 H18 H 0.34167 0.08133 0.31771
 C19 C 0.18690 -0.03665 0.75527
 C20 C 0.16929 -0.01323 0.76300
 C21 C 0.14798 -0.01579 0.78915
 C22 C 0.14355 -0.04169 0.80735
 C23 C 0.16195 -0.06471 0.80059
 C24 C 0.18346 -0.06242 0.77430
 C25 C 0.16876 0.01208 0.73959
 C26 C 0.14759 0.01355 0.71339
 C27 C 0.14263 0.03880 0.69365
 C28 C 0.16112 0.06214 0.69932
 C29 C 0.18225 0.06097 0.72607
 C30 C 0.18584 0.03592 0.74637
 H31 H 0.20253 -0.03513 0.73385
 H32 H 0.13389 0.00220 0.79404
 H33 H 0.13492 -0.00544 0.70879
 H34 H 0.20137 0.03520 0.76783
 H35 H 0.15839 -0.08500 0.81400
 H36 H 0.15770 0.08222 0.68543
 C37 C 0.68431 0.46351 0.25155
 C38 C 0.66628 0.48641 0.26017
 C39 C 0.64470 0.48268 0.28574
 C40 C 0.64036 0.45616 0.30253
 C41 C 0.65914 0.43360 0.29484
 C42 C 0.68095 0.43711 0.26916
 C43 C 0.66621 0.51296 0.23898
 C44 C 0.64449 0.51672 0.21380
 C45 C 0.63991 0.54332 0.19732
 C46 C 0.65858 0.56593 0.20490
 C47 C 0.68054 0.56236 0.23016
 C48 C 0.68415 0.53589 0.24747
 H49 H 0.70032 0.46597 0.23072
 H50 H 0.63057 0.50045 0.29160
 H51 H 0.63043 0.49893 0.20805
 H52 H 0.70024 0.53341 0.26805
 H53 H 0.65593 0.41288 0.30732
 H54 H 0.65519 0.58672 0.19269
 C55 C 0.81230 0.46382 0.74497
 C56 C 0.82981 0.48734 0.73721
 C57 C 0.85065 0.48520 0.71045
 C58 C 0.85474 0.45963 0.69162
 C59 C 0.83637 0.43656 0.69836
 C60 C 0.81532 0.43843 0.72527
 C61 C 0.83073 0.51232 0.76096
 C62 C 0.85206 0.51319 0.78700
 C63 C 0.85756 0.53820 0.80677
 C64 C 0.83947 0.56194 0.80124
 C65 C 0.81812 0.56138 0.77476
 C66 C 0.81399 0.53653 0.75443
 H67 H 0.79705 0.46496 0.76685
 H68 H 0.86470 0.50323 0.70555
 H69 H 0.86444 0.49394 0.79140
 H70 H 0.79829 0.53624 0.73316
 H71 H 0.83963 0.41652 0.68441
 H72 H 0.84335 0.58186 0.81507
 C73 C 0.24614 0.39575 1.04951
 C74 C 0.25777 0.41033 1.01999
 C75 C 0.28280 0.42605 1.02369
 C76 C 0.29627 0.42794 1.05697
 C77 C 0.28452 0.41347 1.08662
 C78 C 0.25961 0.39643 1.08341
 C79 C 0.24348 0.40962 0.98505
 C80 C 0.21816 0.42494 0.98040
 C81 C 0.20405 0.42480 0.94734
 C82 C 0.21547 0.40869 0.91900
 C83 C 0.24076 0.39276 0.92351
 C84 C 0.25497 0.39380 0.95659
 H85 H 0.22747 0.38276 1.04482
 H86 H 0.29184 0.43671 1.00041
 H87 H 0.20927 0.43667 1.00285
 H88 H 0.27425 0.38144 0.96077
 H89 H 0.29473 0.41648 1.11225
 H90 H 0.20459 0.40849 0.89342
 C91 C 0.75427 0.10383 1.04730
 C92 C 0.74241 0.08915 1.01825
 C93 C 0.71703 0.07404 1.02249
 C94 C 0.70339 0.07287 1.05585
 C95 C 0.71530 0.08750 1.08503
 C96 C 0.74065 0.10390 1.08127
 C97 C 0.75675 0.08912 0.98317
 C98 C 0.78177 0.07326 0.97874
 C99 C 0.79563 0.07234 0.94540
 C100 C 0.78426 0.08793 0.91652
 C101 C 0.75932 0.10448 0.92078
 C102 C 0.74538 0.10450 0.95422
 H103 H 0.77325 0.11632 1.04217
 H104 H 0.70785 0.06328 0.99957
 H105 H 0.79058 0.06188 1.00154
 H106 H 0.72635 0.11729 0.95826
 H107 H 0.70488 0.08509 1.11075
 H108 H 0.79491 0.08720 0.89071
 C109 C 0.25417 0.60311 0.54560
 C110 C 0.24272 0.58765 0.51693
 C111 C 0.21745 0.57226 0.52150
 C112 C 0.20337 0.57192 0.55473
 C113 C 0.21482 0.58758 0.58334
 C114 C 0.24006 0.60364 0.57891
 C115 C 0.25703 0.58756 0.48187
 C116 C 0.28211 0.57180 0.47741
 C117 C 0.29614 0.57124 0.44416
 C118 C 0.28484 0.58703 0.41541
 C119 C 0.25983 0.60347 0.41971
 C120 C 0.24575 0.60317 0.45306
 H121 H 0.27337 0.61560 0.54139
 H122 H 0.20855 0.56089 0.49887
 H123 H 0.29088 0.56033 0.50016
 H124 H 0.22672 0.61594 0.45717
 H125 H 0.20398 0.58734 0.60904
 H126 H 0.29564 0.58661 0.38968
 C127 C 0.74616 0.89655 0.54603
 C128 C 0.75703 0.91232 0.51715
 C129 C 0.78194 0.92831 0.52106
 C130 C 0.79672 0.92889 0.55392
 C131 C 0.78556 0.91264 0.58276
 C132 C 0.76053 0.89622 0.57895
 C133 C 0.74267 0.91189 0.48227
 C134 C 0.71746 0.92738 0.47766
 C135 C 0.70353 0.92758 0.44447
 C136 C 0.71505 0.91172 0.41596
 C137 C 0.74023 0.89561 0.42044
 C138 C 0.75418 0.89623 0.45371
 H139 H 0.72719 0.88367 0.54229
 H140 H 0.79024 0.93914 0.49754
 H141 H 0.70854 0.93894 0.50022
 H142 H 0.77336 0.88372 0.45796
 H143 H 0.79574 0.91324 0.60873
 H144 H 0.70431 0.91188 0.39028
 C145 C -0.03569 0.23965 0.36887
 C146 C -0.00991 0.23819 0.38753
 C147 C -0.00289 0.21362 0.40700
 C148 C -0.02186 0.19030 0.40909
 C149 C -0.04775 0.19207 0.38957
 C150 C -0.05511 0.21658 0.36912
 C151 C 0.00946 0.26300 0.38762
 C152 C 0.00139 0.28811 0.40531
 C153 C 0.01977 0.31178 0.40608
 C154 C 0.04629 0.31013 0.38826
 C155 C 0.05464 0.28506 0.37024
 C156 C 0.03599 0.26149 0.37029
 H157 H -0.03959 0.25861 0.35293
 H158 H 0.01669 0.21382 0.42231
 H159 H -0.01923 0.28913 0.41854
 H160 H 0.04178 0.24206 0.35630
 H161 H -0.06233 0.17428 0.39051
 H162 H 0.06085 0.32807 0.38945
 C163 C -0.03493 0.75865 0.13080
 C164 C -0.00902 0.76010 0.11204
 C165 C -0.00149 0.78511 0.09376
 C166 C -0.01979 0.80878 0.09379
 C167 C -0.04574 0.80728 0.11296
 C168 C -0.05388 0.78222 0.13185
 C169 C 0.01048 0.73540 0.11180
 C170 C 0.00298 0.71044 0.09350
 C171 C 0.02153 0.68663 0.09252
 C172 C 0.04776 0.68868 0.11122
 C173 C 0.05538 0.71362 0.12987
 C174 C 0.03653 0.73693 0.12981
 H175 H -0.03924 0.73933 0.14588
 H176 H 0.01871 0.78608 0.07954
 H177 H -0.01777 0.70972 0.08091
 H178 H 0.04180 0.75625 0.14430
 H179 H -0.06011 0.82531 0.11117
 H180 H 0.06333 0.67165 0.10968
 C181 C 0.46411 0.26001 0.63066
 C182 C 0.49047 0.26130 0.61290
 C183 C 0.49863 0.28643 0.59512
 C184 C 0.48047 0.31030 0.59466
 C185 C 0.45412 0.30887 0.61291
 C186 C 0.44571 0.28378 0.63103
 C187 C 0.50955 0.23627 0.61283
 C188 C 0.50136 0.21117 0.59531
 C189 C 0.51960 0.18736 0.59461
 C190 C 0.54605 0.18881 0.61239
 C191 C 0.55448 0.21388 0.63023
 C192 C 0.53600 0.23758 0.63009
 H193 H 0.45827 0.24058 0.64478
 H194 H 0.51912 0.28729 0.58156
 H195 H 0.48081 0.21030 0.58211
 H196 H 0.54185 0.25700 0.64401
 H197 H 0.43973 0.32699 0.61197
 H198 H 0.56049 0.17074 0.61129
 C199 C 0.46413 0.74037 0.86886
 C200 C 0.49003 0.73910 0.88729
 C201 C 0.49717 0.71461 0.90705
 C202 C 0.47817 0.69125 0.90961
 C203 C 0.45218 0.69295 0.89035
 C204 C 0.44508 0.71725 0.86987
 C205 C 0.50933 0.76395 0.88702
 C206 C 0.50148 0.78902 0.90495
 C207 C 0.51992 0.81265 0.90557
 C208 C 0.54629 0.81099 0.88733
 C209 C 0.55440 0.78594 0.86907
 C210 C 0.53568 0.76244 0.86927
 H211 H 0.45910 0.75931 0.85330
 H212 H 0.51684 0.71492 0.92216
 H213 H 0.48100 0.79003 0.91850
 H214 H 0.54128 0.74303 0.85512
 H215 H 0.43742 0.67520 0.89052
 H216 H 0.56091 0.82889 0.88839
 C217 C -0.28663 0.56281 1.00607
 C218 C -0.26219 0.57894 1.01362
 C219 C -0.26261 0.59862 1.04164
 C220 C -0.28732 0.60281 1.06217
 C221 C -0.31103 0.58522 1.05629
 C222 C -0.31124 0.56530 1.02783
 C223 C -0.23760 0.57945 0.98907
 C224 C -0.23675 0.60069 0.96269
 C225 C -0.21171 0.60621 0.94274
 C226 C -0.18802 0.58809 0.94829
 C227 C -0.18859 0.56678 0.97506
 C228 C -0.21340 0.56275 0.99566
 H229 H -0.28616 0.54821 0.98359
 H230 H -0.24396 0.61182 1.04619
 H231 H -0.25595 0.61313 0.95837
 H232 H -0.21367 0.54718 1.01726
 H233 H -0.33031 0.58918 1.07163
 H234 H -0.16808 0.59199 0.93434
 C235 C -0.28712 0.43639 0.49478
 C236 C -0.26292 0.41976 0.48741
 C237 C -0.26356 0.39973 0.45979
 C238 C -0.28821 0.39582 0.43929
 C239 C -0.31173 0.41381 0.44509
 C240 C -0.31175 0.43402 0.47325
 C241 C -0.23796 0.41994 0.51113
 C242 C -0.23609 0.39892 0.53777
 C243 C -0.21065 0.39460 0.55676
 C244 C -0.18741 0.41280 0.55014
 C245 C -0.18901 0.43394 0.52330
 C246 C -0.21428 0.43726 0.50356
 H247 H -0.28642 0.45139 0.51683
 H248 H -0.24501 0.38633 0.45523
 H249 H -0.25426 0.38505 0.54254
 H250 H -0.21525 0.45267 0.48182
 H251 H -0.33098 0.41008 0.42980
 H252 H -0.16747 0.40937 0.56418
 C253 C 0.21324 -0.06362 -0.00702
 C254 C 0.23745 -0.08014 -0.01429
 C255 C 0.23654 -0.10089 -0.04107
 C256 C 0.21146 -0.10616 -0.06070
 C257 C 0.18778 -0.08811 -0.05463
 C258 C 0.18841 -0.06729 -0.02744
 C259 C 0.26227 -0.08014 0.00970
 C260 C 0.26366 -0.10136 0.03609
 C261 C 0.28899 -0.10675 0.05530
 C262 C 0.31239 -0.08831 0.04919
 C263 C 0.31119 -0.06693 0.02255
 C264 C 0.28618 -0.06318 0.00250
 H265 H 0.21349 -0.04850 0.01494
 H266 H 0.25575 -0.11321 -0.04594
 H267 H 0.24459 -0.11388 0.04097
 H268 H 0.28557 -0.04766 -0.01914
 H269 H 0.16785 -0.09175 -0.06849
 H270 H 0.33252 -0.09186 0.06265
 C271 C 0.21396 1.06366 0.50737
 C272 C 0.23767 1.08081 0.51506
 C273 C 0.23554 1.10197 0.54131
 C274 C 0.20980 1.10673 0.55962
 C275 C 0.18651 1.08878 0.55291
 C276 C 0.18835 1.06740 0.52657
 C277 C 0.26286 1.08117 0.49145
 C278 C 0.26437 1.10245 0.46517
 C279 C 0.28955 1.10731 0.44528
 C280 C 0.31278 1.08863 0.45093
 C281 C 0.31161 1.06735 0.47774
 C282 C 0.28660 1.06385 0.49816
 H283 H 0.21515 1.04815 0.48590
 H284 H 0.25374 1.11572 0.54615
 H285 H 0.24548 1.11531 0.46063
 H286 H 0.28582 1.04818 0.51962
 H287 H 0.16634 1.09261 0.56641
 H288 H 0.33280 1.09203 0.43694
 C289 C 0.14537 0.49623 0.20406
 C290 C 0.16101 0.50756 0.23264
 C291 C 0.17667 0.53266 0.22793
 C292 C 0.17707 0.54673 0.19469
 C293 C 0.16116 0.53545 0.16618
 C294 C 0.14491 0.51032 0.17071
 C295 C 0.16106 0.49328 0.26774
 C296 C 0.17679 0.46818 0.27230
 C297 C 0.17744 0.45428 0.30565
 C298 C 0.16176 0.46575 0.33439
 C299 C 0.14536 0.49079 0.32998
 C300 C 0.14557 0.50472 0.29653
 H301 H 0.13274 0.47712 0.20834
 H302 H 0.18823 0.54144 0.25048
 H303 H 0.18821 0.45930 0.24958
 H304 H 0.13284 0.52379 0.29235
 H305 H 0.16142 0.54630 0.14047
 H306 H 0.16228 0.45507 0.36021
 C307 C -0.14547 1.00325 0.20238
 C308 C -0.16037 0.99231 0.23193
 C309 C -0.17566 0.96693 0.22907
 C310 C -0.17678 0.95193 0.19648
 C311 C -0.16167 0.96326 0.16679
 C312 C -0.14529 0.98870 0.16927
 C313 C -0.16019 1.00752 0.26631
 C314 C -0.17585 1.03276 0.26978
 C315 C -0.17630 1.04804 0.30230
 C316 C -0.16016 1.03711 0.33122
 C317 C -0.14403 1.01179 0.32785
 C318 C -0.14455 0.99689 0.29531
 H319 H -0.13286 1.02230 0.20646
 H320 H -0.18577 0.95862 0.25308
 H321 H -0.18666 1.04081 0.24620
 H322 H -0.13199 0.97761 0.29195
 H323 H -0.16425 0.95311 0.14107
 H324 H -0.16067 1.04766 0.35698
 C325 C 0.35668 0.50397 -0.29817
 C326 C 0.34208 0.49248 -0.26859
 C327 C 0.32672 0.46718 -0.27198
 C328 C 0.32523 0.45327 -0.30502
 C329 C 0.33980 0.46481 -0.33471
 C330 C 0.35640 0.49008 -0.33183
 C331 C 0.34197 0.50742 -0.23404
 C332 C 0.32588 0.53237 -0.23041
 C333 C 0.32500 0.54741 -0.19774
 C334 C 0.34120 0.53657 -0.16881
 C335 C 0.35773 0.51151 -0.17231
 C336 C 0.35761 0.49682 -0.20503
 H337 H 0.36929 0.52296 -0.29373
 H338 H 0.31593 0.45834 -0.24868
 H339 H 0.31505 0.54040 -0.25398
 H340 H 0.37046 0.47774 -0.20847
 H341 H 0.33711 0.45423 -0.36018
 H342 H 0.34039 0.54695 -0.14295
 C343 C 0.64525 -0.00432 -0.29823
 C344 C 0.65990 0.00745 -0.26911
 C345 C 0.67540 0.03262 -0.27336
 C346 C 0.67697 0.04613 -0.30680
 C347 C 0.66235 0.03431 -0.33603
 C348 C 0.64560 0.00918 -0.33228
 C349 C 0.65960 -0.00685 -0.23400
 C350 C 0.67519 -0.03204 -0.22941
 C351 C 0.67574 -0.04595 -0.19608
 C352 C 0.66004 -0.03447 -0.16738
 C353 C 0.64382 -0.00931 -0.17178
 C354 C 0.64416 0.00468 -0.20521
 H355 H 0.63249 -0.02313 -0.29311
 H356 H 0.68616 0.04173 -0.25039
 H357 H 0.68665 -0.04094 -0.25208
 H358 H 0.63161 0.02387 -0.20935
 H359 H 0.66506 0.04461 -0.36180
 H360 H 0.66046 -0.04518 -0.14159
 C361 C -0.01218 0.21265 0.87951
 C362 C -0.01344 0.23926 0.86226
 C363 C -0.03842 0.24756 0.84450
 C364 C -0.06217 0.22930 0.84358
 C365 C -0.06075 0.20268 0.86133
 C366 C -0.03581 0.19413 0.87942
 C367 C 0.01151 0.25842 0.86265
 C368 C 0.03668 0.25053 0.84485
 C369 C 0.06048 0.26874 0.84475
 C370 C 0.05891 0.29487 0.86334
 C371 C 0.03381 0.30300 0.88150
 C372 C 0.01012 0.28456 0.88078
 H373 H 0.00713 0.20670 0.89360
 H374 H -0.03927 0.26823 0.83132
 H375 H 0.03764 0.23021 0.83102
 H376 H -0.00934 0.29017 0.89491
 H377 H -0.07876 0.18822 0.86005
 H378 H 0.07697 0.30931 0.86264
 C379 C 0.51181 0.21547 0.12008
 C380 C 0.51341 0.24187 0.13756
 C381 C 0.53868 0.24983 0.15480
 C382 C 0.56238 0.23144 0.15503
 C383 C 0.56061 0.20505 0.13704
 C384 C 0.53539 0.19684 0.11944
 C385 C 0.48851 0.26113 0.13799
 C386 C 0.46350 0.25299 0.15601
 C387 C 0.43975 0.27130 0.15693
 C388 C 0.44119 0.29779 0.13890
 C389 C 0.46614 0.30620 0.12053
 C390 C 0.48979 0.28765 0.12047
 H391 H 0.49228 0.20979 0.10638
 H392 H 0.53978 0.27034 0.16815
 H393 H 0.46262 0.23240 0.16938
 H394 H 0.50911 0.29347 0.10615
 H395 H 0.57859 0.19049 0.13778
 H396 H 0.42317 0.31228 0.14019
 C397 C 0.01086 0.71472 0.62048
 C398 C 0.01241 0.74109 0.63803
 C399 C 0.03757 0.74893 0.65563
 C400 C 0.06120 0.73047 0.65607
 C401 C 0.05948 0.70410 0.63804
 C402 C 0.03438 0.69600 0.62010
 C403 C -0.01234 0.76056 0.63798
 C404 C -0.03741 0.75297 0.65625
 C405 C -0.06133 0.77138 0.65678
 C406 C -0.05926 0.79757 0.63766
 C407 C -0.03423 0.80530 0.61903
 C408 C -0.01080 0.78660 0.61958
 H409 H -0.00857 0.70913 0.60648
 H410 H 0.03866 0.76944 0.66899
 H411 H -0.03814 0.73223 0.66918
 H412 H 0.00858 0.79197 0.60511
 H413 H 0.07740 0.68948 0.63897
 H414 H -0.07639 0.81305 0.63886
 C415 C 0.48892 0.71334 0.37775
 C416 C 0.48763 0.74007 0.36077
 C417 C 0.46256 0.74853 0.34333
 C418 C 0.43876 0.73033 0.34248
 C419 C 0.44021 0.70362 0.35998
 C420 C 0.46523 0.69489 0.37773
 C421 C 0.51263 0.75917 0.36116
 C422 C 0.53794 0.75101 0.34389
 C423 C 0.56182 0.76911 0.34388
 C424 C 0.56020 0.79542 0.36208
 C425 C 0.53494 0.80383 0.37972
 C426 C 0.51118 0.78549 0.37886
 H427 H 0.50829 0.70725 0.39162
 H428 H 0.46167 0.76927 0.33033
 H429 H 0.53895 0.73054 0.33041
 H430 H 0.49162 0.79131 0.39263
 H431 H 0.42215 0.68921 0.35875
 H432 H 0.57834 0.80976 0.36151
 B433 B -0.02986 0.01234 1.00662
 B434 B -0.04114 0.00275 0.96602
 B435 B -0.01757 0.02913 0.97019
 B436 B 0.00496 0.02141 1.00413
 B437 B -0.00533 -0.01116 1.02083
 B438 B -0.03441 -0.02243 0.99706
 B439 B 0.01031 -0.01841 0.95102
 B440 B 0.02180 -0.00864 0.99141
 B441 B -0.00195 -0.03500 0.98743
 B442 B -0.02442 -0.02729 0.95343
 B443 B -0.01401 0.00523 0.93663
 B444 B 0.01499 0.01655 0.96032
 B445 B 0.47153 0.51392 0.50604
 B446 B 0.46011 0.50354 0.46583
 B447 B 0.48365 0.53002 0.46905
 B448 B 0.50631 0.52300 0.50306
 B449 B 0.49615 0.49074 0.52080
 B450 B 0.46701 0.47896 0.49756
 B451 B 0.51153 0.48216 0.45111
 B452 B 0.52317 0.49276 0.49116
 B453 B 0.49945 0.46626 0.48811
 B454 B 0.47682 0.47331 0.45405
 B455 B 0.48711 0.50550 0.43620
 B456 B 0.51619 0.51731 0.45932
 B457 B 0.52857 0.98413 0.50902
 B458 B 0.53929 0.99384 0.46803
 B459 B 0.51597 0.96729 0.47308
 B460 B 0.49378 0.97482 0.50761
 B461 B 0.50405 1.00745 0.52374
 B462 B 0.53276 1.01894 0.49906
 B463 B 0.48754 1.01463 0.45433
 B464 B 0.47659 1.00477 0.49511
 B465 B 0.50011 1.03130 0.49024
 B466 B 0.52221 1.02376 0.45568
 B467 B 0.51184 0.99118 0.43946
 B468 B 0.48321 0.97964 0.46404
 B469 B 0.02870 0.48441 1.00865
 B470 B 0.04008 0.49322 0.96762
 B471 B 0.01630 0.46711 0.97293
 B472 B -0.00620 0.47559 1.00677
 B473 B 0.00435 0.50834 1.02217
 B474 B 0.03353 0.51897 0.99778
 B475 B -0.01121 0.51453 0.95228
 B476 B -0.02277 0.50555 0.99311
 B477 B 0.00118 0.53165 0.98797
 B478 B 0.02360 0.52317 0.95408
 B479 B 0.01294 0.49047 0.93856
 B480 B -0.01615 0.47978 0.96288
 B481 B 0.02809 0.51550 0.49175
 B482 B 0.03902 0.50565 0.53250
 B483 B 0.01549 0.53210 0.52802
 B484 B -0.00674 0.52462 0.49376
 B485 B 0.00369 0.49213 0.47722
 B486 B 0.03255 0.48066 0.50138
 B487 B -0.01258 0.48449 0.54678
 B488 B -0.02369 0.49453 0.50623
 B489 B 0.00002 0.46809 0.51055
 B490 B 0.02217 0.47557 0.54486
 B491 B 0.01162 0.50800 0.56152
 B492 B -0.01716 0.51952 0.53743
 B493 B 0.52812 0.01611 -0.00843
 B494 B 0.53911 0.00652 0.03239
 B495 B 0.51554 0.03290 0.02769
 B496 B 0.49326 0.02517 -0.00645
 B497 B 0.50374 -0.00740 -0.02269
 B498 B 0.53266 -0.01866 0.00152
 B499 B 0.48756 -0.01463 0.04696
 B500 B 0.47639 -0.00489 0.00633
 B501 B 0.50015 -0.03126 0.01085
 B502 B 0.52232 -0.02352 0.04507
 B503 B 0.51174 0.00900 0.06142
 B504 B 0.48291 0.02032 0.03727
 B505 B 0.47145 0.48826 -0.00653
 B506 B 0.45963 0.49736 0.03411
 B507 B 0.48353 0.47125 0.02977
 B508 B 0.50632 0.47949 -0.00389
 B509 B 0.49588 0.51212 -0.02021
 B510 B 0.46642 0.52289 0.00350
 B511 B 0.51070 0.51889 0.04982
 B512 B 0.52271 0.50955 0.00933
 B513 B 0.49864 0.53569 0.01355
 B514 B 0.47589 0.52742 0.04725
 B515 B 0.48648 0.49489 0.06368
 B516 B 0.51585 0.48405 0.04007
 B517 B -0.02891 0.98754 0.49208
 B518 B -0.03999 0.99602 0.53327
 B519 B -0.01626 0.96991 0.52757
 B520 B 0.00598 0.97865 0.49350
 B521 B -0.00467 1.01156 0.47833
 B522 B -0.03366 1.02202 0.50313
 B523 B 0.01142 1.01711 0.54805
 B524 B 0.02266 1.00846 0.50705
 B525 B -0.00124 1.03457 0.51260
 B526 B -0.02339 1.02582 0.54672
 B527 B -0.01263 0.99297 0.56199
 B528 B 0.01627 0.98245 0.53726
 B529 B 0.76631 0.22183 0.23894
 B530 B 0.75687 0.21149 0.28018
 B531 B 0.78334 0.23481 0.27453
 B532 B 0.77559 0.25668 0.23973
 B533 B 0.74292 0.24621 0.22407
 B534 B 0.73161 0.21771 0.24930
 B535 B 0.73615 0.26346 0.29328
 B536 B 0.74575 0.27399 0.25222
 B537 B 0.71929 0.25048 0.25771
 B538 B 0.72705 0.22869 0.29255
 B539 B 0.75967 0.23926 0.30831
 B540 B 0.77103 0.26770 0.28317
 B541 B 0.73611 0.77931 0.74206
 B542 B 0.74507 0.79048 0.78294
 B543 B 0.71891 0.76678 0.77803
 B544 B 0.72720 0.74439 0.74410
 B545 B 0.75989 0.75492 0.72821
 B546 B 0.77067 0.78399 0.75241
 B547 B 0.76624 0.73897 0.79802
 B548 B 0.75711 0.72762 0.75735
 B549 B 0.78327 0.75150 0.76207
 B550 B 0.77497 0.77381 0.79607
 B551 B 0.74232 0.76316 0.81207
 B552 B 0.73149 0.73418 0.78794
 B553 B 0.26493 0.27789 0.75983
 B554 B 0.25552 0.28987 0.71936
 B555 B 0.28158 0.26586 0.72329
 B556 B 0.27357 0.24295 0.75695
 B557 B 0.24116 0.25346 0.77371
 B558 B 0.23026 0.28305 0.75028
 B559 B 0.23383 0.23882 0.70374
 B560 B 0.24340 0.22667 0.74400
 B561 B 0.21735 0.25084 0.74025
 B562 B 0.22535 0.27368 0.70653
 B563 B 0.25771 0.26305 0.68966
 B564 B 0.26866 0.23356 0.71302
 B565 B 0.23562 0.72137 0.25797
 B566 B 0.24534 0.71039 0.21720
 B567 B 0.21877 0.73374 0.22181
 B568 B 0.22620 0.75615 0.25589
 B569 B 0.25881 0.74605 0.27222
 B570 B 0.27040 0.71718 0.24808
 B571 B 0.26595 0.76222 0.20249
 B572 B 0.25601 0.77338 0.24312
 B573 B 0.28262 0.74987 0.23867
 B574 B 0.27517 0.72749 0.20452
 B575 B 0.24261 0.73772 0.18810
 B576 B 0.23098 0.76651 0.21214
 B577 B 0.26524 0.72085 0.73980
 B578 B 0.25586 0.70996 0.78084
 B579 B 0.28217 0.73354 0.77562
 B580 B 0.27428 0.75574 0.74123
 B581 B 0.24169 0.74524 0.72536
 B582 B 0.23056 0.71637 0.75006
 B583 B 0.23477 0.76165 0.79485
 B584 B 0.24434 0.77269 0.75401
 B585 B 0.21802 0.74897 0.75906
 B586 B 0.22591 0.72683 0.79351
 B587 B 0.25845 0.73744 0.80948
 B588 B 0.26963 0.76622 0.78485
 B589 B 0.23642 0.27940 0.24395
 B590 B 0.24593 0.29040 0.28470
 B591 B 0.21965 0.26676 0.28017
 B592 B 0.22746 0.24450 0.24595
 B593 B 0.25996 0.25503 0.22944
 B594 B 0.27112 0.28398 0.25362
 B595 B 0.26716 0.23879 0.29906
 B596 B 0.25749 0.22762 0.25850
 B597 B 0.28376 0.25142 0.26284
 B598 B 0.27595 0.27362 0.29713
 B599 B 0.24348 0.26298 0.31372
 B600 B 0.23228 0.23412 0.28963
 B601 B 0.76640 0.77728 0.26092
 B602 B 0.75731 0.78798 0.21979
 B603 B 0.78361 0.76443 0.22525
 B604 B 0.77550 0.74238 0.25979
 B605 B 0.74278 0.75297 0.27549
 B606 B 0.73180 0.78172 0.25055
 B607 B 0.73643 0.73623 0.20612
 B608 B 0.74567 0.72536 0.24707
 B609 B 0.71938 0.74909 0.24177
 B610 B 0.72749 0.77105 0.20718
 B611 B 0.76018 0.76036 0.19136
 B612 B 0.77121 0.73168 0.21624
 B613 B 0.73508 0.22073 0.75745
 B614 B 0.74486 0.20981 0.71667
 B615 B 0.71833 0.23322 0.72127
 B616 B 0.72577 0.25555 0.75546
 B617 B 0.75831 0.24531 0.77185
 B618 B 0.76986 0.21645 0.74766
 B619 B 0.76563 0.26162 0.70223
 B620 B 0.75567 0.27270 0.74283
 B621 B 0.78221 0.24912 0.73841
 B622 B 0.77476 0.22686 0.70414
 B623 B 0.74226 0.23722 0.68765
 B624 B 0.73065 0.26599 0.71176
 C625 C 0.42647 1.03917 0.38040
 C626 C 0.42709 1.02220 0.34979
 C627 C 0.40409 1.02213 0.32633
 C628 C 0.37960 1.03902 0.33298
 C629 C 0.37985 1.05716 0.36328
 C630 C 0.40305 1.05701 0.38693
 C631 C 0.44843 1.03500 0.40663
 C632 C 0.46641 1.02814 0.42794
 H633 H 0.44518 1.00836 0.34443
 H634 H 0.40609 1.00912 0.30253
 H635 H 0.36157 1.07021 0.37016
 H636 H 0.40220 1.06993 0.41097
 C637 C -0.07157 0.53931 0.87735
 C638 C -0.09487 0.55730 0.88394
 C639 C -0.11809 0.55765 0.86033
 C640 C -0.11852 0.53956 0.82999
 C641 C -0.09410 0.52257 0.82322
 C642 C -0.07107 0.52243 0.84665
 C643 C -0.04969 0.53488 0.90367
 C644 C -0.03191 0.52794 0.92522
 H645 H -0.09562 0.57017 0.90803
 H646 H -0.13629 0.57079 0.86730
 H647 H -0.09223 0.50960 0.79937
 H648 H -0.05309 0.50848 0.84123
 C649 C 0.07096 -0.04561 0.87742
 C650 C 0.09650 -0.05891 0.88767
 C651 C 0.12008 -0.05866 0.86444
 C652 C 0.11820 -0.04501 0.83086
 C653 C 0.09187 -0.03341 0.82005
 C654 C 0.06851 -0.03357 0.84325
 C655 C 0.04887 -0.04003 0.90322
 C656 C 0.03104 -0.03233 0.92439
 H657 H 0.09860 -0.06822 0.91416
 H658 H 0.14006 -0.06788 0.87334
 H659 H 0.08956 -0.02349 0.79393
 H660 H 0.04890 -0.02314 0.83510
 C661 C 0.56942 0.45247 0.37520
 C662 C 0.59451 0.43754 0.38350
 C663 C 0.61741 0.43743 0.35919
 C664 C 0.61523 0.45219 0.32638
 C665 C 0.58903 0.46495 0.31719
 C666 C 0.56643 0.46529 0.34154
 C667 C 0.54865 0.45899 0.40243
 C668 C 0.53177 0.46749 0.42438
 H669 H 0.59699 0.42744 0.40949
 H670 H 0.63725 0.42723 0.36685
 H671 H 0.58637 0.47568 0.29163
 H672 H 0.54711 0.47684 0.33478
 C673 C 0.56850 0.54741 0.12601
 C674 C 0.59346 0.56254 0.11750
 C675 C 0.61651 0.56246 0.14136
 C676 C 0.61462 0.54733 0.17395
 C677 C 0.58856 0.53432 0.18339
 C678 C 0.56580 0.53416 0.15947
 C679 C 0.54759 0.54120 0.09903
 C680 C 0.53071 0.53304 0.07705
 H681 H 0.59572 0.57294 0.09165
 H682 H 0.63623 0.57284 0.13349
 H683 H 0.58611 0.52331 0.20881
 H684 H 0.54659 0.52245 0.16639
 C685 C 0.07207 1.04123 0.62268
 C686 C 0.07110 1.02456 0.65368
 C687 C 0.09403 1.02432 0.67725
 C688 C 0.11880 1.04074 0.67035
 C689 C 0.11885 1.05874 0.63976
 C690 C 0.09574 1.05872 0.61595
 C691 C 0.05021 1.03706 0.59633
 C692 C 0.03234 1.03030 0.57488
 H693 H 0.05282 1.01102 0.65923
 H694 H 0.09182 1.01148 0.70130
 H695 H 0.13733 1.07149 0.63278
 H696 H 0.09685 1.07144 0.59164
 C697 C -0.07345 0.45681 0.62017
 C698 C -0.09919 0.44396 0.60999
 C699 C -0.12253 0.44384 0.63362
 C700 C -0.12021 0.45667 0.66753
 C701 C -0.09370 0.46784 0.67819
 C702 C -0.07059 0.46805 0.65461
 C703 C -0.05144 0.46262 0.59426
 C704 C -0.03356 0.47045 0.57317
 H705 H -0.10160 0.43522 0.58332
 H706 H -0.14265 0.43495 0.62484
 H707 H -0.09105 0.47713 0.70453
 H708 H -0.05082 0.47811 0.66273
 C709 C 0.42612 -0.04088 0.12029
 C710 C 0.42850 -0.02879 0.15432
 C711 C 0.40517 -0.02877 0.17758
 C712 C 0.37888 -0.04051 0.16696
 C713 C 0.37701 -0.05392 0.13333
 C714 C 0.40059 -0.05410 0.11010
 C715 C 0.44845 -0.03570 0.09461
 C716 C 0.46653 -0.02835 0.07352
 H717 H 0.44811 -0.01842 0.16243
 H718 H 0.40759 -0.01912 0.20374
 H719 H 0.35711 -0.06327 0.12450
 H720 H 0.39857 -0.06350 0.08374
 C721 C 0.37700 0.47077 0.05781
 C722 C 0.37351 0.44510 0.07672
 C723 C 0.34683 0.43181 0.07797
 C724 C 0.32341 0.44398 0.06004
 C725 C 0.32686 0.47040 0.04239
 C726 C 0.35354 0.48367 0.04122
 C727 C 0.40513 0.48197 0.05184
 C728 C 0.42897 0.48991 0.04510
 H729 H 0.39166 0.43477 0.08922
 H730 H 0.34485 0.41132 0.09137
 H731 H 0.30909 0.48036 0.02867
 H732 H 0.35609 0.50342 0.02628
 C733 C -0.12314 0.97079 0.55625
 C734 C -0.14488 0.98119 0.53432
 C735 C -0.17166 0.96822 0.53470
 C736 C -0.17727 0.94426 0.55690
 C737 C -0.15546 0.93516 0.58050
 C738 C -0.12859 0.94817 0.57985
 C739 C -0.09458 0.98113 0.55122
 C740 C -0.07056 0.98865 0.54472
 H741 H -0.14087 0.99881 0.51602
 H742 H -0.18791 0.97724 0.51750
 H743 H -0.15811 0.91662 0.59760
 H744 H -0.11171 0.93973 0.59663
 C745 C -0.12368 0.02931 0.94265
 C746 C -0.12699 0.05553 0.92495
 C747 C -0.15364 0.06897 0.92432
 C748 C -0.17720 0.05638 0.94169
 C749 C -0.17390 0.02945 0.95812
 C750 C -0.14726 0.01605 0.95867
 C751 C -0.09559 0.01794 0.94824
 C752 C -0.07176 0.00996 0.95484
 H753 H -0.10874 0.06616 0.91294
 H754 H -0.15547 0.08984 0.91188
 H755 H -0.19177 0.01916 0.97138
 H756 H -0.14483 -0.00412 0.97273
 C757 C 0.37734 0.52918 0.44200
 C758 C 0.37384 0.55544 0.42444
 C759 C 0.34703 0.56854 0.42358
 C760 C 0.32349 0.55557 0.44054
 C761 C 0.32699 0.52859 0.45677
 C762 C 0.35380 0.51553 0.45757
 C763 C 0.40553 0.51814 0.44785
 C764 C 0.42942 0.51044 0.45460
 H765 H 0.39205 0.56636 0.41277
 H766 H 0.34505 0.58947 0.41131
 H767 H 0.30915 0.51801 0.46972
 H768 H 0.35637 0.49532 0.47150
 C769 C 0.12171 0.53093 0.55699
 C770 C 0.12541 0.55723 0.57412
 C771 C 0.15236 0.56999 0.57500
 C772 C 0.17584 0.55663 0.55846
 C773 C 0.17212 0.52962 0.54268
 C774 C 0.14518 0.51689 0.54188
 C775 C 0.09344 0.52019 0.55104
 C776 C 0.06957 0.51262 0.54410
 H777 H 0.10726 0.56845 0.58544
 H778 H 0.15453 0.59095 0.58692
 H779 H 0.18992 0.51875 0.53005
 H780 H 0.14247 0.49664 0.52829
 C781 C 0.62179 0.03176 0.05726
 C782 C 0.62556 0.05764 0.07535
 C783 C 0.65252 0.07037 0.07657
 C784 C 0.67593 0.05741 0.05938
 C785 C 0.67216 0.03077 0.04267
 C786 C 0.64522 0.01806 0.04156
 C787 C 0.59352 0.02112 0.05106
 C788 C 0.56966 0.01357 0.04398
 H789 H 0.60744 0.06859 0.08718
 H790 H 0.65476 0.09103 0.08925
 H791 H 0.68991 0.02021 0.02954
 H792 H 0.64247 -0.00186 0.02726
 C793 C 0.62196 0.96877 0.44244
 C794 C 0.64541 0.98284 0.45726
 C795 C 0.67235 0.97006 0.45632
 C796 C 0.67606 0.94297 0.44072
 C797 C 0.65261 0.92959 0.42442
 C798 C 0.62566 0.94240 0.42542
 C799 C 0.59369 0.97948 0.44873
 C800 C 0.56982 0.98700 0.45599
 H801 H 0.64268 1.00313 0.47077
 H802 H 0.69013 0.98094 0.46875
 H803 H 0.65478 0.90857 0.41263
 H804 H 0.60752 0.93116 0.41434
 C805 C 0.12270 0.46649 0.94429
 C806 C 0.14621 0.48055 0.95901
 C807 C 0.17304 0.46753 0.95853
 C808 C 0.17660 0.44022 0.94346
 C809 C 0.15309 0.42680 0.92735
 C810 C 0.12625 0.43985 0.92791
 C811 C 0.09451 0.47768 0.94983
 C812 C 0.07067 0.48568 0.95643
 H813 H 0.14361 0.50106 0.97202
 H814 H 0.19087 0.47845 0.97080
 H815 H 0.15514 0.40563 0.91597
 H816 H 0.10806 0.42863 0.91690
 C817 C -0.00177 0.38804 0.46440
 C818 C -0.00763 0.36121 0.47941
 C819 C -0.00117 0.33632 0.46017
 C820 C 0.01149 0.33804 0.42587
 C821 C 0.01678 0.36512 0.41087
 C822 C 0.01018 0.38988 0.42999
 C823 C -0.00530 0.41397 0.48467
 C824 C -0.00535 0.43711 0.49879
 H825 H -0.01654 0.35950 0.50618
 H826 H -0.00524 0.31573 0.47254
 H827 H 0.02615 0.36714 0.38439
 H828 H 0.01501 0.41054 0.41820
 C829 C 0.49872 -0.11130 -0.03534
 C830 C 0.51064 -0.10932 -0.06977
 C831 C 0.51718 -0.13399 -0.08911
 C832 C 0.51187 -0.16114 -0.07432
 C833 C 0.49932 -0.16301 -0.03996
 C834 C 0.49291 -0.13821 -0.02051
 C835 C 0.49508 -0.08544 -0.01494
 C836 C 0.49491 -0.06230 -0.00077
 H837 H 0.51544 -0.08861 -0.08143
 H838 H 0.52648 -0.13185 -0.11562
 H839 H 0.49525 -0.18364 -0.02773
 H840 H 0.48402 -0.14003 0.00625
 C841 C 0.00058 -0.11511 1.03393
 C842 C 0.00552 -0.14197 1.01873
 C843 C -0.00062 -0.16682 1.03840
 C844 C -0.01203 -0.16502 1.07336
 C845 C -0.01644 -0.13792 1.08851
 C846 C -0.01016 -0.11321 1.06894
 C847 C 0.00375 -0.08919 1.01338
 C848 C 0.00357 -0.06602 0.99913
 H849 H 0.01347 -0.14372 0.99151
 H850 H 0.00275 -0.18742 1.02594
 H851 H -0.02485 -0.13586 1.11547
 H852 H -0.01429 -0.09251 1.08089
 C853 C 0.50192 0.38646 0.53557
 C854 C 0.50730 0.35962 0.52055
 C855 C 0.50089 0.33475 0.54005
 C856 C 0.48878 0.33653 0.57463
 C857 C 0.48400 0.36361 0.58965
 C858 C 0.49054 0.38834 0.57026
 C859 C 0.50520 0.41236 0.51499
 C860 C 0.50503 0.43543 0.50051
 H861 H 0.51574 0.35789 0.49356
 H862 H 0.50455 0.31416 0.52768
 H863 H 0.47503 0.36564 0.61634
 H864 H 0.48607 0.40902 0.58205
 C865 C 0.49794 1.11130 0.53629
 C866 C 0.50957 1.10936 0.57076
 C867 C 0.51620 1.13406 0.58990
 C868 C 0.51126 1.16117 0.57484
 C869 C 0.49892 1.16300 0.54049
 C870 C 0.49243 1.13818 0.52124
 C871 C 0.49450 1.08542 0.51599
 C872 C 0.49456 1.06227 0.50188
 H873 H 0.51414 1.08866 0.58258
 H874 H 0.52534 1.13196 0.61641
 H875 H 0.49513 1.18362 0.52809
 H876 H 0.48378 1.13995 0.49442
 C877 C 0.00137 0.61170 1.03323
 C878 C 0.01940 0.61020 1.06294
 C879 C 0.02579 0.63466 1.08258
 C880 C 0.01426 0.66154 1.07301
 C881 C -0.00444 0.66255 1.04317
 C882 C -0.01068 0.63788 1.02344
 C883 C -0.00322 0.58606 1.01282
 C884 C -0.00387 0.56287 0.99886
 H885 H 0.02872 0.58994 1.07094
 H886 H 0.03913 0.63200 1.10596
 H887 H -0.01330 0.68251 1.03362
 H888 H -0.02446 0.63936 1.00024
 C889 C 0.49724 0.61790 -0.02682
 C890 C 0.51943 0.63446 -0.04093
 C891 C 0.51329 0.65890 -0.06138
 C892 C 0.48471 0.66703 -0.06864
 C893 C 0.46271 0.65017 -0.05344
 C894 C 0.46896 0.62602 -0.03287
 C895 C 0.50254 0.59090 -0.00939
 C896 C 0.50356 0.56707 0.00295
 H897 H 0.54143 0.62807 -0.03701
 H898 H 0.53114 0.67032 -0.07303
 H899 H 0.44045 0.65584 -0.05636
 H900 H 0.45156 0.61330 -0.02213
 C901 C -0.00284 1.11694 0.47275
 C902 C 0.01934 1.13336 0.45836
 C903 C 0.01320 1.15777 0.43785
 C904 C -0.01538 1.16602 0.43081
 C905 C -0.03738 1.14930 0.44625
 C906 C -0.03112 1.12516 0.46687
 C907 C 0.00248 1.08993 0.49016
 C908 C 0.00358 1.06605 0.50240
 H909 H 0.04134 1.12688 0.46211
 H910 H 0.03104 1.16908 0.42600
 H911 H -0.05962 1.15508 0.44353
 H912 H -0.04852 1.11254 0.47781
 C913 C 0.79034 0.67781 0.87253
 C914 C 0.77317 0.67808 0.90311
 C915 C 0.77292 0.65477 0.92636
 C916 C 0.78983 0.63030 0.91953
 C917 C 0.80815 0.63091 0.88926
 C918 C 0.80819 0.65442 0.86583
 C919 C 0.78629 0.70000 0.84635
 C920 C 0.77956 0.71803 0.82491
 H921 H 0.75930 0.69612 0.90858
 H922 H 0.75977 0.65650 0.95016
 H923 H 0.82122 0.61268 0.88222
 H924 H 0.82125 0.65384 0.84181
 C925 C 0.29204 0.17800 0.37372
 C926 C 0.27554 0.17907 0.40483
 C927 C 0.27528 0.15610 0.42861
 C928 C 0.29152 0.13119 0.42180
 C929 C 0.30938 0.13104 0.39110
 C930 C 0.30937 0.15420 0.36708
 C931 C 0.28777 0.19987 0.34715
 C932 C 0.28080 0.21778 0.32565
 H933 H 0.26212 0.19745 0.41030
 H934 H 0.26257 0.15837 0.45271
 H935 H 0.32198 0.11245 0.38418
 H936 H 0.32195 0.15301 0.34269
 C937 C 0.71030 0.32495 0.36648
 C938 C 0.72192 0.32183 0.40070
 C939 C 0.72161 0.34468 0.42453
 C940 C 0.70999 0.37124 0.41434
 C941 C 0.69712 0.37388 0.38044
 C942 C 0.69729 0.35078 0.35661
 C943 C 0.71547 0.30292 0.34055
 C944 C 0.72270 0.28486 0.31948
 H945 H 0.73210 0.30198 0.40858
 H946 H 0.73090 0.34169 0.45083
 H947 H 0.68790 0.39402 0.37191
 H948 H 0.68822 0.35338 0.33013
 C949 C 0.20994 0.82294 0.86862
 C950 C 0.22674 0.82234 0.89935
 C951 C 0.22675 0.84540 0.92275
 C952 C 0.20995 0.86997 0.91597
 C953 C 0.19188 0.86966 0.88565
 C954 C 0.19214 0.84641 0.86198
 C955 C 0.21424 0.80088 0.84247
 C956 C 0.22121 0.78281 0.82127
 H957 H 0.24053 0.80423 0.90483
 H958 H 0.23966 0.84343 0.94662
 H959 H 0.17883 0.88796 0.87878
 H960 H 0.17932 0.84724 0.83788
 C961 C 0.29121 0.82214 0.12646
 C962 C 0.30982 0.84511 0.13188
 C963 C 0.30983 0.86839 0.10803
 C964 C 0.29093 0.86913 0.07851
 C965 C 0.27365 0.84481 0.07259
 C966 C 0.27372 0.82182 0.09635
 C967 C 0.28669 0.80062 0.15351
 C968 C 0.27955 0.78308 0.17550
 H969 H 0.32329 0.84570 0.15542
 H970 H 0.32335 0.88640 0.11433
 H971 H 0.26016 0.84298 0.04924
 H972 H 0.25939 0.80403 0.09171
 C973 C 0.79214 0.32282 0.62852
 C974 C 0.80515 0.34855 0.63846
 C975 C 0.80515 0.37189 0.61478
 C976 C 0.79203 0.36959 0.58104
 C977 C 0.78054 0.34311 0.57067
 C978 C 0.78046 0.31999 0.59431
 C979 C 0.78677 0.30071 0.65449
 C980 C 0.77932 0.28273 0.67570
 H981 H 0.81418 0.35096 0.66497
 H982 H 0.81425 0.39199 0.62338
 H983 H 0.77101 0.34045 0.54448
 H984 H 0.77026 0.30022 0.58639
 C985 C 0.20648 0.17905 0.62972
 C986 C 0.19278 0.15363 0.63980
 C987 C 0.19294 0.13014 0.61661
 C988 C 0.20688 0.13199 0.58322
 C989 C 0.21896 0.15822 0.57256
 C990 C 0.21891 0.18149 0.59575
 C991 C 0.21207 0.20096 0.65557
 C992 C 0.21979 0.21855 0.67688
 H993 H 0.18320 0.15153 0.66616
 H994 H 0.18334 0.11025 0.62540
 H995 H 0.22911 0.16054 0.54657
 H996 H 0.22966 0.20101 0.58773
 C997 C 0.71076 0.67456 0.13352
 C998 C 0.69764 0.64890 0.14390
 C999 C 0.69767 0.62548 0.12058
 C1000 C 0.71087 0.62764 0.08672
 C1001 C 0.72260 0.65403 0.07600
 C1002 C 0.72270 0.67719 0.09932
 C1003 C 0.71582 0.69685 0.15904
 C1004 C 0.72302 0.71500 0.17989
 H1005 H 0.68834 0.64668 0.17039
 H1006 H 0.68832 0.60549 0.12945
 H1007 H 0.73210 0.65666 0.04968
 H1008 H 0.73298 0.69691 0.09107
 C1009 C 0.21940 0.62782 0.19252
 C1010 C 0.19299 0.62461 0.17555
 C1011 C 0.17980 0.59783 0.17457
 C1012 C 0.19282 0.57403 0.19086
 C1013 C 0.21994 0.57724 0.20644
 C1014 C 0.23310 0.60401 0.20733
 C1015 C 0.23057 0.65593 0.19865
 C1016 C 0.23839 0.67975 0.20566
 H1017 H 0.18203 0.64302 0.16445
 H1018 H 0.15878 0.59605 0.16279
 H1019 H 0.23055 0.55920 0.21888
 H1020 H 0.25342 0.60633 0.22080
 C1021 C 0.71937 0.12716 0.69166
 C1022 C 0.69359 0.12372 0.67330
 C1023 C 0.68046 0.09692 0.67213
 C1024 C 0.69289 0.07336 0.68963
 C1025 C 0.71944 0.07677 0.70660
 C1026 C 0.73255 0.10355 0.70768
 C1027 C 0.73030 0.15535 0.69790
 C1028 C 0.73796 0.17920 0.70502
 H1029 H 0.68303 0.14198 0.66124
 H1030 H 0.65988 0.09496 0.65924
 H1031 H 0.72961 0.05890 0.71999
 H1032 H 0.75238 0.10606 0.72220
 C1033 C 0.78165 0.12834 0.30420
 C1034 C 0.80433 0.12307 0.32755
 C1035 C 0.81745 0.09620 0.32825
 C1036 C 0.80840 0.07419 0.30498
 C1037 C 0.78446 0.07966 0.28294
 C1038 C 0.77138 0.10645 0.28250
 C1039 C 0.77123 0.15690 0.29906
 C1040 C 0.76379 0.18093 0.29232
 H1041 H 0.81271 0.14009 0.34408
 H1042 H 0.83599 0.09370 0.34516
 H1043 H 0.77549 0.06328 0.26597
 H1044 H 0.75378 0.11033 0.26434
 C1045 C 0.28160 0.62697 0.80434
 C1046 C 0.27177 0.60498 0.78249
 C1047 C 0.28527 0.57840 0.78291
 C1048 C 0.30921 0.57326 0.80507
 C1049 C 0.31777 0.59532 0.82855
 C1050 C 0.30423 0.62198 0.82786
 C1051 C 0.27079 0.65540 0.79920
 C1052 C 0.26307 0.67936 0.79257
 H1053 H 0.25419 0.60862 0.76422
 H1054 H 0.27665 0.56193 0.76580
 H1055 H 0.33626 0.59305 0.84560
 H1056 H 0.31226 0.63908 0.84455
 C1057 C 0.28243 0.37242 0.69512
 C1058 C 0.26939 0.39615 0.71094
 C1059 C 0.28268 0.42284 0.70944
 C1060 C 0.30928 0.42604 0.69222
 C1061 C 0.32162 0.40233 0.67503
 C1062 C 0.30830 0.37563 0.67662
 C1063 C 0.27110 0.34435 0.70138
 C1064 C 0.26304 0.32056 0.70831
 H1065 H 0.24948 0.39383 0.72554
 H1066 H 0.27258 0.44083 0.72258
 H1067 H 0.34223 0.40413 0.66195
 H1068 H 0.31874 0.35728 0.66469
 C1069 C 0.78194 0.87128 0.19591
 C1070 C 0.80401 0.87686 0.17156
 C1071 C 0.81682 0.90386 0.17045
 C1072 C 0.80809 0.92568 0.19429
 C1073 C 0.78475 0.91989 0.21740
 C1074 C 0.77196 0.89299 0.21823
 C1075 C 0.77176 0.84264 0.20116
 C1076 C 0.76439 0.81858 0.20789
 H1077 H 0.81215 0.86000 0.15449
 H1078 H 0.83493 0.90665 0.15270
 H1079 H 0.77601 0.93611 0.23490
 H1080 H 0.75480 0.88888 0.23713
 C1081 C 0.71825 0.87302 0.80665
 C1082 C 0.73182 0.89668 0.79120
 C1083 C 0.71857 0.92343 0.79181
 C1084 C 0.69150 0.92675 0.80774
 C1085 C 0.67859 0.90311 0.82460
 C1086 C 0.69186 0.87635 0.82390
 C1087 C 0.72956 0.84488 0.80094
 C1088 C 0.73761 0.82107 0.79422
 H1089 H 0.75212 0.89425 0.77752
 H1090 H 0.72910 0.94136 0.77895
 H1091 H 0.65761 0.90499 0.83666
 H1092 H 0.68101 0.85804 0.83547
 C1093 C 0.21970 0.37309 0.30852
 C1094 C 0.23322 0.39661 0.29266
 C1095 C 0.22007 0.42341 0.29319
 C1096 C 0.19315 0.42694 0.30945
 C1097 C 0.18030 0.40343 0.32668
 C1098 C 0.19348 0.37662 0.32608
 C1099 C 0.23084 0.34487 0.30290
 C1100 C 0.23870 0.32099 0.29619
 H1101 H 0.25339 0.39402 0.27871
 H1102 H 0.23056 0.44123 0.28003
 H1103 H 0.15942 0.40543 0.33899
 H1104 H 0.18265 0.35842 0.33797
 C1105 C 0.13701 0.24834 0.78607
 C1106 C 0.13860 0.25926 0.82093
 C1107 C 0.11375 0.26543 0.84017
 C1108 C 0.08682 0.26075 0.82485
 C1109 C 0.08533 0.24909 0.79010
 C1110 C 0.11031 0.24305 0.77074
 C1111 C 0.16305 0.24528 0.76580
 C1112 C 0.18628 0.24549 0.75178
 H1113 H 0.15915 0.26362 0.83298
 H1114 H 0.11558 0.27403 0.86699
 H1115 H 0.06486 0.24551 0.77750
 H1116 H 0.10881 0.23493 0.74365
 C1117 C 0.63874 0.74737 0.28672
 C1118 C 0.64010 0.75879 0.32133
 C1119 C 0.61513 0.76545 0.34008
 C1120 C 0.58830 0.76076 0.32448
 C1121 C 0.58703 0.74863 0.28997
 C1122 C 0.61214 0.74211 0.27112
 C1123 C 0.66493 0.74384 0.26685
 C1124 C 0.68825 0.74378 0.25308
 H1125 H 0.66058 0.76316 0.33358
 H1126 H 0.61679 0.77440 0.36673
 H1127 H 0.56665 0.74504 0.27715
 H1128 H 0.61080 0.73362 0.24419
 C1129 C 0.63901 0.25255 0.21243
 C1130 C 0.61232 0.25825 0.22782
 C1131 C 0.58732 0.25192 0.20889
 C1132 C 0.58877 0.23955 0.17450
 C1133 C 0.61570 0.23441 0.15912
 C1134 C 0.64057 0.24087 0.17794
 C1135 C 0.66506 0.25595 0.23237
 C1136 C 0.68827 0.25592 0.24625
 H1137 H 0.61082 0.26694 0.25464
 H1138 H 0.56687 0.25586 0.22156
 H1139 H 0.61751 0.22526 0.13257
 H1140 H 0.66111 0.23616 0.16585
 C1141 C 0.13773 0.75121 0.71384
 C1142 C 0.11103 0.75699 0.72915
 C1143 C 0.08605 0.75079 0.71009
 C1144 C 0.08755 0.73850 0.67568
 C1145 C 0.11450 0.73330 0.66038
 C1146 C 0.13934 0.73962 0.67931
 C1147 C 0.16376 0.75450 0.73385
 C1148 C 0.18698 0.75440 0.74770
 H1149 H 0.10950 0.76563 0.75599
 H1150 H 0.06557 0.75479 0.72268
 H1151 H 0.11635 0.72420 0.63380
 H1152 H 0.15990 0.73487 0.66728
 C1153 C 0.86336 0.75128 0.71611
 C1154 C 0.88946 0.73933 0.72622
 C1155 C 0.91425 0.74550 0.70644
 C1156 C 0.91345 0.76405 0.67625
 C1157 C 0.88665 0.77541 0.66632
 C1158 C 0.86206 0.76908 0.68600
 C1159 C 0.83762 0.74688 0.73666
 C1160 C 0.81443 0.74636 0.75079
 H1161 H 0.89078 0.72572 0.74972
 H1162 H 0.93412 0.73675 0.71624
 H1163 H 0.88414 0.78859 0.64266
 H1164 H 0.84188 0.77831 0.67774
 C1165 C 0.36378 0.24968 0.21625
 C1166 C 0.36185 0.26141 0.18173
 C1167 C 0.38652 0.26802 0.16229
 C1168 C 0.41360 0.26297 0.17706
 C1169 C 0.41543 0.25052 0.21147
 C1170 C 0.39063 0.24405 0.23104
 C1171 C 0.33792 0.24615 0.23680
 C1172 C 0.31477 0.24610 0.25107
 H1173 H 0.34118 0.26606 0.17010
 H1174 H 0.38442 0.27723 0.13574
 H1175 H 0.43602 0.24664 0.22366
 H1176 H 0.39240 0.23531 0.25788
 C1177 C 0.36260 0.75232 0.28447
 C1178 C 0.36079 0.74049 0.31896
 C1179 C 0.38552 0.73383 0.33802
 C1180 C 0.41255 0.73893 0.32288
 C1181 C 0.41426 0.75155 0.28855
 C1182 C 0.38939 0.75807 0.26936
 C1183 C 0.33669 0.75571 0.26422
 C1184 C 0.31355 0.75556 0.25019
 H1185 H 0.34017 0.73575 0.33083
 H1186 H 0.38353 0.72448 0.36452
 H1187 H 0.43481 0.75548 0.27610
 H1188 H 0.39108 0.76688 0.24254
 C1189 C 0.86200 0.25117 0.78477
 C1190 C 0.85999 0.23929 0.81922
 C1191 C 0.88461 0.23262 0.83851
 C1192 C 0.91172 0.23776 0.82366
 C1193 C 0.91363 0.25037 0.78933
 C1194 C 0.88888 0.25691 0.76992
 C1195 C 0.83620 0.25468 0.76432
 C1196 C 0.81312 0.25466 0.75011
 H1197 H 0.83929 0.23456 0.83090
 H1198 H 0.88245 0.22328 0.86500
 H1199 H 0.93425 0.25433 0.77708
 H1200 H 0.89072 0.26576 0.74313
 C1201 C 0.59106 0.98000 0.58424
 C1202 C 0.60191 1.00777 0.58375
 C1203 C 0.62030 1.01707 0.61052
 C1204 C 0.62868 0.99869 0.63881
 C1205 C 0.61837 0.97013 0.63796
 C1206 C 0.59956 0.96100 0.61111
 C1207 C 0.56915 0.97328 0.55868
 C1208 C 0.55051 0.97352 0.53650
 H1209 H 0.59512 1.02284 0.56331
 H1210 H 0.62612 1.03939 0.60974
 H1211 H 0.62484 0.95442 0.65762
 H1212 H 0.59134 0.93937 0.61172
 C1213 C 0.08766 0.48204 1.08814
 C1214 C 0.10307 0.46175 1.10784
 C1215 C 0.12210 0.47078 1.13453
 C1216 C 0.12586 0.50016 1.14160
 C1217 C 0.11029 0.52017 1.12142
 C1218 C 0.09147 0.51118 1.09498
 C1219 C 0.06743 0.47451 1.06081
 C1220 C 0.04987 0.47419 1.03729
 H1221 H 0.10033 0.43914 1.10272
 H1222 H 0.13392 0.45486 1.14952
 H1223 H 0.11213 0.54286 1.12662
 H1224 H 0.07956 0.52709 1.08000
 C1225 C -0.09098 0.01654 1.08410
 C1226 C -0.10036 0.03622 1.10961
 C1227 C -0.11899 0.02745 1.13709
 C1228 C -0.12831 -0.00139 1.13986
 C1229 C -0.11897 -0.02056 1.11302
 C1230 C -0.10071 -0.01164 1.08565
 C1231 C -0.06959 0.02324 1.05759
 C1232 C -0.05135 0.02300 1.03471
 H1233 H -0.09302 0.05816 1.10860
 H1234 H -0.12621 0.04362 1.15564
 H1235 H -0.12403 -0.04308 1.11390
 H1236 H -0.09325 -0.02720 1.06627
 C1237 C 0.41018 0.51886 0.58292
 C1238 C 0.40165 0.53807 0.60944
 C1239 C 0.38313 0.52905 0.63692
 C1240 C 0.37314 0.50039 0.63874
 C1241 C 0.38158 0.48176 0.61084
 C1242 C 0.39967 0.49095 0.58346
 C1243 C 0.43173 0.52552 0.55660
 C1244 C 0.45006 0.52506 0.53387
 H1245 H 0.40962 0.55980 0.60926
 H1246 H 0.37661 0.54491 0.65628
 H1247 H 0.37601 0.45937 0.61081
 H1248 H 0.40649 0.47572 0.56330
 C1249 C 0.41380 0.48470 -0.08745
 C1250 C 0.39870 0.46406 -0.10673
 C1251 C 0.38009 0.47262 -0.13423
 C1252 C 0.37645 0.50187 -0.14250
 C1253 C 0.39173 0.52223 -0.12276
 C1254 C 0.41013 0.51370 -0.09553
 C1255 C 0.43354 0.47765 -0.05930
 C1256 C 0.45070 0.47769 -0.03532
 H1257 H 0.40133 0.44156 -0.10066
 H1258 H 0.36847 0.45645 -0.14886
 H1259 H 0.38994 0.54481 -0.12886
 H1260 H 0.42180 0.52987 -0.08086
 C1261 C -0.08756 0.98475 0.41213
 C1262 C -0.09096 1.01375 0.40390
 C1263 C -0.10953 1.02236 0.37689
 C1264 C -0.12524 1.00209 0.35755
 C1265 C -0.12190 0.97284 0.36603
 C1266 C -0.10313 0.96420 0.39329
 C1267 C -0.06757 0.97757 0.43994
 C1268 C -0.05013 0.97741 0.46359
 H1269 H -0.07893 1.02984 0.41823
 H1270 H -0.11108 1.04493 0.37061
 H1271 H -0.13386 0.95674 0.35172
 H1272 H -0.10070 0.94169 0.39950
 C1273 C 0.08803 0.51884 0.41314
 C1274 C 0.09232 0.48973 0.40660
 C1275 C 0.11118 0.48082 0.37999
 C1276 C 0.12635 0.50091 0.35935
 C1277 C 0.12216 0.53029 0.36616
 C1278 C 0.10305 0.53923 0.39302
 C1279 C 0.06749 0.52621 0.44036
 C1280 C 0.04962 0.52622 0.46367
 H1281 H 0.08068 0.47374 0.42188
 H1282 H 0.11331 0.45813 0.37499
 H1283 H 0.13367 0.54627 0.35082
 H1284 H 0.09990 0.56183 0.39787
 C1285 C 0.58722 0.01910 -0.08805
 C1286 C 0.59098 -0.01003 -0.09497
 C1287 C 0.60954 -0.01905 -0.12184
 C1288 C 0.62494 0.00094 -0.14237
 C1289 C 0.62122 0.03033 -0.13526
 C1290 C 0.60242 0.03939 -0.10813
 C1291 C 0.56709 0.02659 -0.06041
 C1292 C 0.54949 0.02671 -0.03677
 H1293 H 0.57919 -0.02593 -0.07973
 H1294 H 0.61132 -0.04174 -0.12707
 H1295 H 0.63291 0.04622 -0.15054
 H1296 H 0.59968 0.06200 -0.10299
 C1297 C 0.60888 0.52778 0.00556
 C1298 C 0.61845 0.52989 0.04083
 C1299 C 0.64519 0.54136 0.04812
 C1300 C 0.66344 0.55015 0.02007
 C1301 C 0.65463 0.54536 -0.01565
 C1302 C 0.62721 0.53481 -0.02281
 C1303 C 0.57937 0.52075 0.00009
 C1304 C 0.55418 0.51564 0.00060
 H1305 H 0.60472 0.52357 0.06288
 H1306 H 0.65158 0.54330 0.07589
 H1307 H 0.66779 0.55197 -0.03811
 H1308 H 0.62001 0.53314 -0.05029
 C1309 C 0.10842 1.02838 0.50235
 C1310 C 0.11995 1.02593 0.53680
 C1311 C 0.14670 1.03746 0.54429
 C1312 C 0.16243 1.05120 0.51721
 C1313 C 0.15152 1.05219 0.48213
 C1314 C 0.12444 1.04101 0.47479
 C1315 C 0.07900 1.02074 0.49739
 C1316 C 0.05396 1.01501 0.49798
 H1317 H 0.10769 1.01622 0.55831
 H1318 H 0.15472 1.03654 0.57149
 H1319 H 0.16323 1.06302 0.46099
 H1320 H 0.11559 1.04323 0.44813
 C1321 C 0.10782 -0.02855 0.99615
 C1322 C 0.12266 -0.04304 1.02320
 C1323 C 0.14980 -0.05434 1.01611
 C1324 C 0.16199 -0.05166 0.98173
 C1325 C 0.14742 -0.03621 0.95520
 C1326 C 0.12061 -0.02450 0.96251
 C1327 C 0.07832 -0.02072 1.00063
 C1328 C 0.05326 -0.01493 1.00005
 H1329 H 0.11287 -0.04653 1.04921
 H1330 H 0.16063 -0.06643 1.03682
 H1331 H 0.15647 -0.03393 0.92857
 H1332 H 0.10925 -0.01342 0.94134
 C1333 C 0.60919 0.47391 0.49509
 C1334 C 0.62731 0.46683 0.52352
 C1335 C 0.65447 0.45543 0.51644
 C1336 C 0.66322 0.44983 0.48079
 C1337 C 0.64522 0.45865 0.45265
 C1338 C 0.61876 0.47095 0.45983
 C1339 C 0.57979 0.48162 0.50057
 C1340 C 0.55465 0.48700 0.50005
 H1341 H 0.62011 0.46911 0.55099
 H1342 H 0.66743 0.44885 0.53898
 H1343 H 0.65161 0.45612 0.42490
 H1344 H 0.60520 0.47723 0.43770
 C1345 C -0.10948 0.47459 0.49996
 C1346 C -0.12254 0.47837 0.53345
 C1347 C -0.14914 0.46617 0.54058
 C1348 C -0.16321 0.45047 0.51403
 C1349 C -0.15085 0.44815 0.47974
 C1350 C -0.12390 0.45996 0.47282
 C1351 C -0.08002 0.48256 0.49593
 C1352 C -0.05500 0.48836 0.49700
 H1353 H -0.11147 0.48951 0.55470
 H1354 H -0.15832 0.46812 0.56717
 H1355 H -0.16131 0.43585 0.45905
 H1356 H -0.11387 0.45665 0.44695
 C1357 C 0.39076 -0.02591 -0.00008
 C1358 C 0.37721 -0.02177 0.03305
 C1359 C 0.35070 -0.03427 0.04001
 C1360 C 0.33719 -0.05059 0.01360
 C1361 C 0.35006 -0.05337 -0.02033
 C1362 C 0.37692 -0.04129 -0.02704
 C1363 C 0.42013 -0.01747 -0.00388
 C1364 C 0.44508 -0.01133 -0.00278
 H1365 H 0.38782 -0.01003 0.05417
 H1366 H 0.34110 -0.03193 0.06631
 H1367 H 0.34000 -0.06612 -0.04092
 H1368 H 0.38731 -0.04489 -0.05263
 C1369 C 0.39107 1.02601 0.50039
 C1370 C 0.37562 1.03883 0.52822
 C1371 C 0.34885 1.05098 0.52129
 C1372 C 0.33763 1.05083 0.48634
 C1373 C 0.35282 1.03702 0.45892
 C1374 C 0.37926 1.02450 0.46601
 C1375 C 0.42028 1.01735 0.50507
 C1376 C 0.44524 1.01111 0.50438
 H1377 H 0.38468 1.04038 0.55483
 H1378 H 0.33758 1.06179 0.54274
 H1379 H 0.34455 1.03663 0.43183
 H1380 H 0.39107 1.01465 0.44427
 C1381 C -0.10830 0.52706 0.99744
 C1382 C -0.12000 0.52556 0.96300
 C1383 C -0.14666 0.53760 0.95597
 C1384 C -0.16217 0.55089 0.98351
 C1385 C -0.15100 0.55108 1.01848
 C1386 C -0.12402 0.53941 1.02536
 C1387 C -0.07905 0.51860 1.00223
 C1388 C -0.05412 0.51233 1.00178
 H1389 H -0.10799 0.51601 0.94123
 H1390 H -0.15489 0.53718 0.92886
 H1391 H -0.16252 0.56150 1.04002
 H1392 H -0.11505 0.54091 1.05202
 C1393 C 0.02832 0.61471 0.56648
 C1394 C 0.05376 0.63037 0.56472
 C1395 C 0.05581 0.65684 0.58206
 C1396 C 0.03245 0.66792 0.60151
 C1397 C 0.00706 0.65190 0.60310
 C1398 C 0.00505 0.62558 0.58572
 C1399 C 0.02600 0.58690 0.55020
 C1400 C 0.02248 0.56311 0.53860
 H1401 H 0.07200 0.62209 0.55011
 H1402 H 0.07556 0.66874 0.57998
 H1403 H -0.01114 0.65946 0.61834
 H1404 H -0.01464 0.61351 0.58765
 C1405 C 0.52880 0.11553 0.06594
 C1406 C 0.55423 0.13116 0.06381
 C1407 C 0.55649 0.15761 0.08117
 C1408 C 0.53333 0.16870 0.10099
 C1409 C 0.50796 0.15267 0.10300
 C1410 C 0.50574 0.12638 0.08560
 C1411 C 0.52626 0.08774 0.04962
 C1412 C 0.52258 0.06396 0.03806
 H1413 H 0.57231 0.12289 0.04889
 H1414 H 0.57622 0.16951 0.07879
 H1415 H 0.48991 0.16022 0.11854
 H1416 H 0.48606 0.11432 0.08784
 C1417 C -0.03034 0.11210 0.93214
 C1418 C -0.05573 0.12787 0.93389
 C1419 C -0.05762 0.15456 0.91679
 C1420 C -0.03413 0.16575 0.89762
 C1421 C -0.00881 0.14960 0.89598
 C1422 C -0.00696 0.12306 0.91312
 C1423 C -0.02812 0.08413 0.94826
 C1424 C -0.02461 0.06023 0.95974
 H1425 H -0.07404 0.11952 0.94832
 H1426 H -0.07733 0.16655 0.91887
 H1427 H 0.00948 0.15724 0.88094
 H1428 H 0.01270 0.11091 0.91119
 C1429 C 0.47072 0.61269 0.42994
 C1430 C 0.44543 0.62858 0.43210
 C1431 C 0.44353 0.65531 0.41513
 C1432 C 0.46691 0.66644 0.39571
 C1433 C 0.49213 0.65016 0.39364
 C1434 C 0.49399 0.62357 0.41063
 C1435 C 0.47299 0.58476 0.44617
 C1436 C 0.47654 0.56095 0.45791
 H1437 H 0.42721 0.62030 0.44679
 H1438 H 0.42391 0.66741 0.41754
 H1439 H 0.51034 0.65777 0.37840
 H1440 H 0.51357 0.61134 0.40843
 C1441 C 0.52903 0.88484 0.43411
 C1442 C 0.50595 0.87444 0.41434
 C1443 C 0.50794 0.84824 0.39668
 C1444 C 0.53310 0.83185 0.39851
 C1445 C 0.55628 0.84248 0.41844
 C1446 C 0.55425 0.86884 0.43608
 C1447 C 0.52672 0.91255 0.45071
 C1448 C 0.52313 0.93628 0.46249
 H1449 H 0.48644 0.88679 0.41225
 H1450 H 0.48990 0.84104 0.38107
 H1451 H 0.57585 0.83029 0.42069
 H1452 H 0.57234 0.87676 0.45107
 C1453 C 0.02836 0.38399 0.93599
 C1454 C 0.05363 0.36803 0.93751
 C1455 C 0.05546 0.34161 0.91998
 C1456 C 0.03204 0.33090 0.90056
 C1457 C 0.00679 0.34719 0.89930
 C1458 C 0.00500 0.37345 0.91688
 C1459 C 0.02637 0.41189 0.95209
 C1460 C 0.02307 0.43584 0.96330
 H1461 H 0.07194 0.37606 0.95199
 H1462 H 0.07510 0.32950 0.92182
 H1463 H -0.01144 0.33993 0.88409
 H1464 H -0.01455 0.38577 0.91512
 C1465 C 0.47140 0.38800 0.06719
 C1466 C 0.44606 0.37220 0.06580
 C1467 C 0.44427 0.34556 0.08303
 C1468 C 0.46780 0.33444 0.10201
 C1469 C 0.49310 0.35061 0.10322
 C1470 C 0.49486 0.37710 0.08594
 C1471 C 0.47344 0.41603 0.05115
 C1472 C 0.47676 0.44001 0.03983
 H1473 H 0.42769 0.38050 0.05159
 H1474 H 0.42457 0.33355 0.08126
 H1475 H 0.51143 0.34303 0.11809
 H1476 H 0.51447 0.38928 0.08759
 C1477 C -0.02832 0.88650 0.56433
 C1478 C -0.00496 0.87564 0.58330
 C1479 C -0.00687 0.84929 0.60090
 C1480 C -0.03225 0.83324 0.59981
 C1481 C -0.05564 0.84426 0.58048
 C1482 C -0.05369 0.87075 0.56292
 C1483 C -0.02626 0.91453 0.54832
 C1484 C -0.02297 0.93857 0.53716
 H1485 H 0.01468 0.88778 0.58496
 H1486 H 0.01136 0.84177 0.61601
 H1487 H -0.07539 0.83233 0.57879
 H1488 H -0.07200 0.87902 0.54854
 C1489 C 0.23130 0.34174 0.16800
 C1490 C 0.25886 0.35301 0.16805
 C1491 C 0.26786 0.37146 0.14093
 C1492 C 0.24937 0.37950 0.11272
 C1493 C 0.22099 0.36879 0.11402
 C1494 C 0.21217 0.34991 0.14123
 C1495 C 0.22497 0.31975 0.19388
 C1496 C 0.22554 0.30114 0.21628
 H1497 H 0.27402 0.34649 0.18842
 H1498 H 0.29007 0.37759 0.14138
 H1499 H 0.20520 0.37498 0.09443
 H1500 H 0.19070 0.34134 0.14097
 C1501 C 0.73315 0.83877 0.66258
 C1502 C 0.76217 0.84274 0.65515
 C1503 C 0.77089 0.86166 0.62840
 C1504 C 0.75069 0.87717 0.60851
 C1505 C 0.72142 0.87328 0.61621
 C1506 C 0.71267 0.85415 0.64322
 C1507 C 0.72589 0.81837 0.69008
 C1508 C 0.72577 0.80065 0.71361
 H1509 H 0.77822 0.83086 0.66989
 H1510 H 0.79349 0.86361 0.62271
 H1511 H 0.70537 0.88507 0.60146
 H1512 H 0.69015 0.85128 0.64880
 C1513 C 0.26820 0.66100 0.66145
 C1514 C 0.23912 0.65717 0.65456
 C1515 C 0.23018 0.63831 0.62814
 C1516 C 0.25019 0.62268 0.60805
 C1517 C 0.27953 0.62642 0.61519
 C1518 C 0.28850 0.64553 0.64186
 C1519 C 0.27562 0.68146 0.68855
 C1520 C 0.27574 0.69930 0.71177
 H1521 H 0.22321 0.66915 0.66944
 H1522 H 0.20754 0.63651 0.62287
 H1523 H 0.29544 0.61456 0.60026
 H1524 H 0.31107 0.64831 0.64700
 C1525 C 0.77009 0.15877 0.16434
 C1526 C 0.74225 0.14817 0.16481
 C1527 C 0.73286 0.12968 0.13818
 C1528 C 0.75122 0.12091 0.11008
 C1529 C 0.77984 0.13094 0.11097
 C1530 C 0.78906 0.14987 0.13766
 C1531 C 0.77693 0.18082 0.18968
 C1532 C 0.77678 0.19963 0.21167
 H1533 H 0.72721 0.15526 0.18510
 H1534 H 0.71051 0.12410 0.13892
 H1535 H 0.79552 0.12416 0.09146
 H1536 H 0.81074 0.15788 0.13708
 C1537 C 0.73167 0.16120 0.83673
 C1538 C 0.76071 0.15695 0.84351
 C1539 C 0.76948 0.13833 0.87047
 C1540 C 0.74932 0.12335 0.89121
 C1541 C 0.72002 0.12752 0.88419
 C1542 C 0.71121 0.14640 0.85699
 C1543 C 0.72444 0.18151 0.80917
 C1544 C 0.72447 0.19923 0.78565
 H1545 H 0.77674 0.16844 0.82814
 H1546 H 0.79211 0.13621 0.87562
 H1547 H 0.70400 0.11616 0.89962
 H1548 H 0.68867 0.14953 0.85197
 C1549 C 0.23237 0.66128 0.33671
 C1550 C 0.26140 0.65697 0.34354
 C1551 C 0.27011 0.63796 0.37010
 C1552 C 0.24992 0.62266 0.39040
 C1553 C 0.22063 0.62688 0.38332
 C1554 C 0.21188 0.64613 0.35650
 C1555 C 0.22516 0.68189 0.30948
 C1556 C 0.22514 0.69978 0.28617
 H1557 H 0.27745 0.66870 0.32850
 H1558 H 0.29274 0.63580 0.37532
 H1559 H 0.20458 0.61527 0.39841
 H1560 H 0.18935 0.64928 0.35142
 C1561 C 0.76883 0.83770 0.33850
 C1562 C 0.78903 0.85325 0.35794
 C1563 C 0.77989 0.87256 0.38437
 C1564 C 0.75052 0.87643 0.39143
 C1565 C 0.73062 0.86076 0.37146
 C1566 C 0.73972 0.84169 0.34527
 C1567 C 0.77643 0.81700 0.31170
 C1568 C 0.77670 0.79898 0.28873
 H1569 H 0.81163 0.85036 0.35287
 H1570 H 0.79572 0.88447 0.39920
 H1571 H 0.70794 0.86266 0.37668
 H1572 H 0.72389 0.82966 0.33048
 C1573 C 0.26867 0.33540 0.84065
 C1574 C 0.28899 0.35151 0.85919
 C1575 C 0.28009 0.37041 0.88623
 C1576 C 0.25085 0.37340 0.89463
 C1577 C 0.23085 0.35701 0.87578
 C1578 C 0.23970 0.33828 0.84909
 C1579 C 0.27593 0.31570 0.81254
 C1580 C 0.27580 0.29856 0.78853
 H1581 H 0.31147 0.34949 0.85281
 H1582 H 0.29596 0.38286 0.90029
 H1583 H 0.20830 0.35828 0.88209
 H1584 H 0.22379 0.32585 0.83498
 C1585 C 0.77495 0.35878 0.74900
 C1586 C 0.78949 0.37336 0.77608
 C1587 C 0.80113 0.40039 0.76907
 C1588 C 0.79873 0.41269 0.73475
 C1589 C 0.78308 0.39848 0.70827
 C1590 C 0.77105 0.37178 0.71549
 C1591 C 0.76722 0.32921 0.75307
 C1592 C 0.76164 0.30410 0.75202
 H1593 H 0.79288 0.36336 0.80197
 H1594 H 0.81341 0.41095 0.78970
 H1595 H 0.78109 0.40759 0.68165
 H1596 H 0.75998 0.36060 0.69428
 C1597 C 0.27512 0.85934 0.24707
 C1598 C 0.28158 0.87775 0.27537
 C1599 C 0.29305 0.90489 0.26814
 C1600 C 0.29931 0.91334 0.23249
 C1601 C 0.29114 0.89502 0.20444
 C1602 C 0.27881 0.86858 0.21175
 C1603 C 0.26723 0.82998 0.25275
 C1604 C 0.26175 0.80484 0.25224
 H1605 H 0.27875 0.87081 0.30290
 H1606 H 0.29914 0.91808 0.29063
 H1607 H 0.29418 0.90113 0.17664
 H1608 H 0.27299 0.85481 0.18971
 C1609 C 0.22418 0.85844 0.74929
 C1610 C 0.21117 0.87429 0.72195
 C1611 C 0.19939 0.90113 0.72957
 C1612 C 0.20014 0.91196 0.76469
 C1613 C 0.21425 0.89643 0.79154
 C1614 C 0.22639 0.86994 0.78378
 C1615 C 0.23220 0.82910 0.74418
 C1616 C 0.23805 0.80404 0.74473
 H1617 H 0.20909 0.86546 0.69528
 H1618 H 0.18829 0.91270 0.70861
 H1619 H 0.21501 0.90441 0.81876
 H1620 H 0.23635 0.85779 0.80514
 C1621 C 0.72449 0.35952 0.24443
 C1622 C 0.70790 0.37297 0.21815
 C1623 C 0.69513 0.39944 0.22535
 C1624 C 0.69850 0.41226 0.25909
 C1625 C 0.71613 0.39927 0.28468
 C1626 C 0.72925 0.37316 0.27725
 C1627 C 0.73315 0.33019 0.24075
 C1628 C 0.73938 0.30523 0.24225
 H1629 H 0.70376 0.36245 0.19287
 H1630 H 0.68131 0.40909 0.20547
 H1631 H 0.71878 0.40881 0.31089
 H1632 H 0.74179 0.36279 0.29792
 C1633 C 0.72393 0.63990 0.25473
 C1634 C 0.72934 0.62591 0.22226
 C1635 C 0.71622 0.59982 0.21489
 C1636 C 0.69795 0.58723 0.24022
 C1637 C 0.69387 0.60043 0.27364
 C1638 C 0.70665 0.62685 0.28077
 C1639 C 0.73271 0.66919 0.25827
 C1640 C 0.73907 0.69411 0.25680
 H1641 H 0.74241 0.63598 0.20176
 H1642 H 0.71941 0.58999 0.18892
 H1643 H 0.67955 0.59107 0.29330
 H1644 H 0.70201 0.63766 0.30577
 C1645 C 0.22246 0.14081 0.74881
 C1646 C 0.22598 0.12809 0.71514
 C1647 C 0.21379 0.10149 0.70808
 C1648 C 0.19840 0.08707 0.73490
 C1649 C 0.19628 0.09914 0.76929
 C1650 C 0.20805 0.12608 0.77613
 C1651 C 0.23071 0.17019 0.75308
 C1652 C 0.23678 0.19520 0.75245
 H1653 H 0.23702 0.13937 0.69378
 H1654 H 0.21565 0.09251 0.68144
 H1655 H 0.18424 0.08841 0.79022
 H1656 H 0.20497 0.13583 0.80216
 C1657 C 0.27795 0.14180 0.25402
 C1658 C 0.29017 0.12596 0.22614
 C1659 C 0.30154 0.09881 0.23315
 C1660 C 0.30117 0.08758 0.26821
 C1661 C 0.28797 0.10322 0.29570
 C1662 C 0.27626 0.13005 0.28855
 C1663 C 0.26985 0.17119 0.24911
 C1664 C 0.26389 0.19623 0.24958
 H1665 H 0.29183 0.13495 0.19940
 H1666 H 0.31191 0.08721 0.21164
 H1667 H 0.28742 0.09496 0.32288
 H1668 H 0.26685 0.14216 0.31031
 C1669 C 0.77837 0.64190 0.75273
 C1670 C 0.79082 0.62638 0.72471
 C1671 C 0.80246 0.59930 0.73146
 C1672 C 0.80217 0.58784 0.76641
 C1673 C 0.78877 0.60315 0.79403
 C1674 C 0.77674 0.62989 0.78712
 C1675 C 0.76997 0.67124 0.74808
 C1676 C 0.76377 0.69624 0.74861
 H1677 H 0.79241 0.63556 0.69807
 H1678 H 0.81297 0.58794 0.70986
 H1679 H 0.78828 0.59469 0.82112
 H1680 H 0.76711 0.64173 0.80897
 C1681 C 0.86662 0.77707 0.18775
 C1682 C 0.87930 0.80367 0.18155
 C1683 C 0.90552 0.80548 0.16345
 C1684 C 0.91967 0.78060 0.15093
 C1685 C 0.90639 0.75394 0.15781
 C1686 C 0.88030 0.75230 0.17594
 C1687 C 0.83865 0.77485 0.20375
 C1688 C 0.81474 0.77138 0.21509
 H1689 H 0.86884 0.82306 0.19048
 H1690 H 0.91483 0.82648 0.16041
 H1691 H 0.91511 0.73412 0.14777
 H1692 H 0.87041 0.73158 0.17996
 C1693 C 0.36437 0.27825 0.68502
 C1694 C 0.37503 0.25495 0.66573
 C1695 C 0.40135 0.25681 0.64820
 C1696 C 0.41759 0.28207 0.64972
 C1697 C 0.40672 0.30547 0.66920
 C1698 C 0.38023 0.30357 0.68669
 C1699 C 0.33652 0.27610 0.70136
 C1700 C 0.31268 0.27268 0.71293
 H1701 H 0.36278 0.23537 0.66386
 H1702 H 0.40876 0.23860 0.63293
 H1703 H 0.41880 0.32512 0.67119
 H1704 H 0.37210 0.32183 0.70132
 C1705 C 0.36487 0.72192 0.81382
 C1706 C 0.37559 0.74584 0.83169
 C1707 C 0.40165 0.74432 0.84969
 C1708 C 0.41752 0.71878 0.85010
 C1709 C 0.40668 0.69482 0.83182
 C1710 C 0.38048 0.69638 0.81386
 C1711 C 0.33709 0.72364 0.79743
 C1712 C 0.31326 0.72677 0.78588
 H1713 H 0.36355 0.76563 0.83221
 H1714 H 0.40907 0.76300 0.86394
 H1715 H 0.41852 0.67494 0.83123
 H1716 H 0.37231 0.67765 0.80032
 C1717 C 0.86599 0.22184 0.31252
 C1718 C 0.87995 0.24662 0.32359
 C1719 C 0.90585 0.24492 0.34190
 C1720 C 0.91867 0.21819 0.34974
 C1721 C 0.90427 0.19331 0.33790
 C1722 C 0.87823 0.19518 0.31962
 C1723 C 0.83816 0.22417 0.29636
 C1724 C 0.81436 0.22774 0.28488
 H1725 H 0.87040 0.26741 0.31887
 H1726 H 0.91479 0.26479 0.35137
 H1727 H 0.91325 0.17222 0.34155
 H1728 H 0.86757 0.17578 0.31124
 C1729 C 0.13662 0.27930 0.31778
 C1730 C 0.12555 0.25589 0.33671
 C1731 C 0.09898 0.25780 0.35368
 C1732 C 0.08293 0.28320 0.35198
 C1733 C 0.09421 0.30668 0.33283
 C1734 C 0.12092 0.30474 0.31590
 C1735 C 0.16464 0.27709 0.30191
 C1736 C 0.18856 0.27366 0.29058
 H1737 H 0.13764 0.23619 0.33871
 H1738 H 0.09126 0.23951 0.36870
 H1739 H 0.08230 0.32645 0.33069
 H1740 H 0.12935 0.32307 0.30152
 C1741 C 0.63590 0.77969 0.81545
 C1742 C 0.62041 0.80529 0.81394
 C1743 C 0.59387 0.80742 0.83128
 C1744 C 0.58255 0.78397 0.85047
 C1745 C 0.59842 0.75843 0.85182
 C1746 C 0.62480 0.75634 0.83444
 C1747 C 0.66383 0.77731 0.79935
 C1748 C 0.68773 0.77373 0.78802
 H1749 H 0.62888 0.82360 0.79957
 H1750 H 0.58211 0.82729 0.82941
 H1751 H 0.59069 0.74016 0.86687
 H1752 H 0.63674 0.73654 0.83620
 C1753 C 0.63592 0.21984 0.68308
 C1754 C 0.62513 0.24305 0.66361
 C1755 C 0.59881 0.24102 0.64638
 C1756 C 0.58269 0.21568 0.64839
 C1757 C 0.59373 0.19235 0.66796
 C1758 C 0.62022 0.19442 0.68516
 C1759 C 0.66368 0.22227 0.69932
 C1760 C 0.68741 0.22598 0.71085
 H1761 H 0.63725 0.26271 0.66143
 H1762 H 0.59127 0.25918 0.63102
 H1763 H 0.58176 0.17264 0.67029
 H1764 H 0.62846 0.17623 0.69993
 C1765 C 0.13635 0.72017 0.18376
 C1766 C 0.12528 0.74351 0.16478
 C1767 C 0.09907 0.74133 0.14731
 C1768 C 0.08335 0.71572 0.14858
 C1769 C 0.09463 0.69230 0.16777
 C1770 C 0.12101 0.69451 0.18520
 C1771 C 0.16410 0.72268 0.20000
 C1772 C 0.18784 0.72643 0.21150
 H1773 H 0.13712 0.76336 0.16310
 H1774 H 0.09134 0.75958 0.13226
 H1775 H 0.08296 0.67237 0.16955
 H1776 H 0.12947 0.67623 0.19958
   
