data_POSCAR
  _audit_creation_date              2014-09-24
  _audit_creation_method            'ToBaCCo'
  _symmetry_space_group_name_H-M    'P1'
  _symmetry_Int_Tables_number       1
  _symmetry_cell_setting            triclinic
  loop_
  _symmetry_equiv_pos_as_xyz
 x,y,z
_cell_length_a 75.2501
_cell_length_b 76.7922
_cell_length_c 77.5264
_cell_angle_alpha 90.120300
_cell_angle_beta 89.575500
_cell_angle_gamma 89.063400
loop_
  _atom_site_label
  _atom_site_type_symbol
  _atom_site_fract_x
  _atom_site_fract_y
  _atom_site_fract_z
C1 C 0.73920 0.64316 0.98259
 H2 H 0.75158 0.64208 0.97545
 C3 C 0.72504 0.65299 0.97595
 H4 H 0.72665 0.65934 0.96360
 C5 C 0.72180 0.63516 1.00681
 H6 H 0.72040 0.62790 1.01863
 C7 C 0.70739 0.64496 1.00075
 H8 H 0.69522 0.64543 1.00828
 N9 N 0.73729 0.63436 0.99767
 C10 C 0.78954 0.62229 1.01860
 H11 H 0.78834 0.60830 1.01952
 C12 C 0.80466 0.63032 1.02483
 H13 H 0.81519 0.62235 1.03030
 C14 C 0.77714 0.64955 1.01027
 H15 H 0.76623 0.65696 1.00481
 C16 C 0.79210 0.65816 1.01638
 H17 H 0.79256 0.67222 1.01562
 Zn18 Zn 0.75603 0.61932 1.00471
 N19 N 0.77619 0.63191 1.01148
 C20 C 0.77871 0.60456 0.97924
 N21 N 0.76193 0.60453 0.98586
 C22 C 0.74904 0.59475 0.97861
 C23 C 0.75291 0.58420 0.96430
 C24 C 0.78316 0.59423 0.96500
 C25 C 0.74684 0.61525 1.03917
 C26 C 0.74211 0.60672 1.05434
 C27 C 0.74201 0.57965 1.03847
 C28 C 0.74687 0.58877 1.02363
 N29 N 0.74896 0.60628 1.02420
 H30 H 0.78866 0.61281 0.98478
 H31 H 0.73570 0.59521 0.98393
 H32 H 0.74254 0.57638 0.95880
 H33 H 0.79653 0.59472 0.95977
 H34 H 0.74868 0.62920 1.03927
 H35 H 0.73972 0.61485 1.06552
 H36 H 0.74127 0.56567 1.03730
 H37 H 0.74920 0.58176 1.01172
 C38 C 0.80604 0.64851 1.02393
 C39 C 0.70875 0.65381 0.98495
 C40 C 0.73945 0.58848 1.05442
 C41 C 0.77021 0.58383 0.95734
 C42 C 0.73584 0.35399 0.51468
 H43 H 0.74896 0.35217 0.52007
 C44 C 0.72149 0.34480 0.52146
 H45 H 0.72367 0.33591 0.53208
 C46 C 0.71685 0.36858 0.49499
 H47 H 0.71491 0.37820 0.48503
 C48 C 0.70219 0.35975 0.50139
 H49 H 0.68922 0.36238 0.49593
 N50 N 0.73329 0.36562 0.50168
 C51 C 0.78589 0.37486 0.47948
 H52 H 0.78554 0.38895 0.47970
 C53 C 0.80088 0.36601 0.47312
 H54 H 0.81202 0.37337 0.46833
 C55 C 0.77156 0.34821 0.48521
 H56 H 0.76005 0.34135 0.48983
 C57 C 0.78625 0.33880 0.47876
 H58 H 0.78603 0.32471 0.47866
 Zn59 Zn 0.75251 0.37955 0.49436
 N60 N 0.77177 0.36592 0.48567
 C61 C 0.77657 0.39055 0.51990
 N62 N 0.75976 0.39251 0.51381
 C63 C 0.74747 0.40262 0.52225
 C64 C 0.75192 0.41123 0.53749
 C65 C 0.78159 0.39896 0.53501
 C66 C 0.74003 0.38602 0.46155
 C67 C 0.73294 0.39548 0.44785
 C68 C 0.73714 0.42195 0.46415
 C69 C 0.74402 0.41191 0.47768
 N70 N 0.74492 0.39425 0.47626
 H71 H 0.78605 0.38214 0.51333
 H72 H 0.73408 0.40366 0.51732
 H73 H 0.74184 0.41887 0.54425
 H74 H 0.79508 0.39727 0.53955
 H75 H 0.74115 0.37198 0.46071
 H76 H 0.72872 0.38866 0.43639
 H77 H 0.73597 0.43595 0.46559
 H78 H 0.74829 0.41821 0.48938
 C79 C 0.80123 0.34774 0.47281
 C80 C 0.70435 0.34784 0.51495
 C81 C 0.73114 0.41364 0.44918
 C82 C 0.76915 0.40929 0.54415
 C83 C 0.24016 -0.14797 0.01632
 H84 H 0.25287 -0.14893 0.02271
 C85 C 0.22560 -0.15704 0.02280
 H86 H 0.22719 -0.16496 0.03424
 C87 C 0.22243 -0.13573 -0.00584
 H88 H 0.22109 -0.12713 -0.01677
 C89 C 0.20755 -0.14447 0.00023
 H90 H 0.19500 -0.14278 -0.00636
 N91 N 0.23832 -0.13753 0.00227
 C92 C 0.29168 -0.12891 -0.01803
 H93 H 0.29115 -0.11484 -0.01854
 C94 C 0.30689 -0.13787 -0.02368
 H95 H 0.31802 -0.13060 -0.02865
 C96 C 0.27752 -0.15544 -0.01136
 H97 H 0.26596 -0.16220 -0.00670
 C98 C 0.29245 -0.16497 -0.01709
 H99 H 0.29237 -0.17906 -0.01660
 Zn100 Zn 0.25768 -0.12382 -0.00493
 N101 N 0.27750 -0.13773 -0.01180
 C102 C 0.28043 -0.11124 0.02084
 N103 N 0.26398 -0.10939 0.01386
 C104 C 0.25174 -0.09808 0.02074
 C105 C 0.25607 -0.08767 0.03489
 C106 C 0.28529 -0.10115 0.03493
 C107 C 0.24880 -0.12000 -0.03913
 C108 C 0.24357 -0.11187 -0.05435
 C109 C 0.24342 -0.08432 -0.03934
 C110 C 0.24884 -0.09307 -0.02441
 N111 N 0.25106 -0.11064 -0.02450
 H112 H 0.28976 -0.12077 0.01572
 H113 H 0.23859 -0.09716 0.01523
 H114 H 0.24627 -0.07853 0.04002
 H115 H 0.29838 -0.10306 0.04039
 H116 H 0.25110 -0.13394 -0.03894
 H117 H 0.24291 -0.12013 -0.06559
 H118 H 0.24092 -0.07051 -0.03805
 H119 H 0.25097 -0.08578 -0.01270
 C120 C 0.30742 -0.15613 -0.02324
 C121 C 0.20896 -0.15514 0.01485
 C122 C 0.24031 -0.09363 -0.05487
 C123 C 0.27311 -0.08907 0.04209
 C124 C 0.23813 0.14897 0.47878
 H125 H 0.25115 0.14833 0.47277
 C126 C 0.22447 0.15869 0.47113
 H127 H 0.22711 0.16573 0.45932
 C128 C 0.21869 0.14001 0.50113
 H129 H 0.21629 0.13226 0.51249
 C130 C 0.20470 0.14967 0.49401
 H131 H 0.19169 0.14927 0.50003
 N132 N 0.23499 0.13977 0.49342
 C133 C 0.28614 0.12767 0.51678
 H134 H 0.28486 0.11368 0.51754
 C135 C 0.30107 0.13560 0.52356
 H136 H 0.31137 0.12754 0.52930
 C137 C 0.27416 0.15503 0.50823
 H138 H 0.26349 0.16252 0.50245
 C139 C 0.28894 0.16354 0.51489
 H140 H 0.28950 0.17760 0.51423
 Zn141 Zn 0.25328 0.12480 0.50158
 N142 N 0.27310 0.13739 0.50927
 C143 C 0.27707 0.11029 0.47689
 N144 N 0.26014 0.10990 0.48312
 C145 C 0.24769 0.09974 0.47565
 C146 C 0.25219 0.08919 0.46150
 C147 C 0.28211 0.10001 0.46279
 C148 C 0.24136 0.12118 0.53534
 C149 C 0.23587 0.11273 0.55031
 C150 C 0.23860 0.08526 0.53518
 C151 C 0.24407 0.09426 0.52047
 N152 N 0.24517 0.11192 0.52077
 H153 H 0.28664 0.11886 0.48258
 H154 H 0.23423 0.09992 0.48065
 H155 H 0.24215 0.08105 0.45585
 H156 H 0.29556 0.10084 0.45784
 H157 H 0.24260 0.13519 0.53528
 H158 H 0.23260 0.12040 0.56167
 H159 H 0.23795 0.07119 0.53478
 H160 H 0.24762 0.08709 0.50892
 C161 C 0.30257 0.15378 0.52280
 C162 C 0.20743 0.15894 0.47866
 C163 C 0.23443 0.09453 0.55037
 C164 C 0.26963 0.08924 0.45489
 C165 C 0.15547 0.48288 0.23854
 H166 H 0.15686 0.47565 0.25043
 C167 C 0.16372 0.47673 0.22343
 H168 H 0.17145 0.46473 0.22380
 C169 C 0.14272 0.50669 0.22339
 H170 H 0.13415 0.51809 0.22322
 C171 C 0.15070 0.50103 0.20804
 H172 H 0.14848 0.50844 0.19637
 N173 N 0.14511 0.49757 0.23823
 C174 C 0.13799 0.51603 0.29116
 H175 H 0.12371 0.51786 0.29087
 C176 C 0.14729 0.51984 0.30612
 H177 H 0.14007 0.52481 0.31727
 C178 C 0.16465 0.50746 0.27680
 H179 H 0.17131 0.50262 0.26532
 C180 C 0.17454 0.51121 0.29155
 H181 H 0.18880 0.50905 0.29137
 Zn182 Zn 0.13188 0.50405 0.25821
 N183 N 0.14666 0.50964 0.27701
 C184 C 0.11928 0.47745 0.28003
 N185 N 0.11742 0.48496 0.26427
 C186 C 0.10585 0.47858 0.25251
 C187 C 0.09516 0.46444 0.25667
 C188 C 0.10889 0.46335 0.28471
 C189 C 0.12665 0.53912 0.25036
 C190 C 0.11734 0.55434 0.24608
 C191 C 0.08989 0.53874 0.24919
 C192 C 0.09974 0.52379 0.25342
 N193 N 0.11781 0.52415 0.25355
 H194 H 0.12896 0.48223 0.28900
 H195 H 0.10487 0.48457 0.23992
 H196 H 0.08579 0.45973 0.24728
 H197 H 0.11074 0.45749 0.29728
 H198 H 0.14102 0.53908 0.25073
 H199 H 0.12469 0.56594 0.24296
 H200 H 0.07552 0.53818 0.24899
 H201 H 0.09292 0.51190 0.25644
 C202 C 0.16578 0.51721 0.30655
 C203 C 0.16111 0.48570 0.20785
 C204 C 0.09871 0.55423 0.24523
 C205 C 0.09651 0.45673 0.27303
 C206 C -0.15167 0.01881 0.23553
 H207 H -0.15260 0.02486 0.24812
 C208 C -0.16192 0.02529 0.22194
 H209 H -0.17108 0.03594 0.22471
 C210 C -0.13872 -0.00267 0.21728
 H211 H -0.12920 -0.01315 0.21527
 C212 C -0.14876 0.00328 0.20337
 H213 H -0.14631 -0.00283 0.19099
 N214 N -0.14035 0.00507 0.23299
 C215 C -0.12940 -0.01601 0.28418
 H216 H -0.11502 -0.01583 0.28381
 C217 C -0.13817 -0.02209 0.29882
 H218 H -0.13047 -0.02670 0.30969
 C219 C -0.15685 -0.01052 0.27025
 H220 H -0.16405 -0.00611 0.25903
 C221 C -0.16619 -0.01671 0.28458
 H222 H -0.18057 -0.01682 0.28438
 Zn223 Zn -0.12540 -0.00197 0.25136
 N224 N -0.13878 -0.01009 0.27040
 C225 C -0.11404 0.02446 0.27401
 N226 N -0.11215 0.01774 0.25785
 C227 C -0.10210 0.02582 0.24569
 C228 C -0.09351 0.04134 0.24961
 C229 C -0.10569 0.03987 0.27847
 C230 C -0.11894 -0.03561 0.23996
 C231 C -0.10941 -0.04980 0.23324
 C232 C -0.08242 -0.03343 0.23601
 C233 C -0.09253 -0.01942 0.24257
 N234 N -0.11050 -0.02064 0.24401
 H235 H -0.12242 0.01817 0.28339
 H236 H -0.10113 0.02042 0.23281
 H237 H -0.08592 0.04782 0.23967
 H238 H -0.10739 0.04496 0.29143
 H239 H -0.13321 -0.03629 0.24150
 H240 H -0.11642 -0.06148 0.22973
 H241 H -0.06819 -0.03214 0.23442
 H242 H -0.08605 -0.00752 0.24619
 C243 C -0.15681 -0.02244 0.29917
 C244 C -0.16056 0.01765 0.20536
 C245 C -0.09096 -0.04870 0.23090
 C246 C -0.09546 0.04867 0.26614
 C247 C 0.35107 0.51514 0.74274
 H248 H 0.35070 0.52143 0.75524
 C249 C 0.34114 0.52206 0.72915
 H250 H 0.33293 0.53357 0.73134
 C251 C 0.36267 0.49278 0.72457
 H252 H 0.37148 0.48170 0.72266
 C253 C 0.35287 0.49919 0.71068
 H254 H 0.35425 0.49290 0.69821
 N255 N 0.36165 0.50082 0.74022
 C256 C 0.37265 0.47900 0.79104
 H257 H 0.38702 0.47861 0.79034
 C258 C 0.36397 0.47289 0.80572
 H259 H 0.37175 0.46768 0.81627
 C260 C 0.34511 0.48595 0.77788
 H261 H 0.33785 0.49095 0.76694
 C262 C 0.33586 0.47982 0.79230
 H263 H 0.32147 0.48036 0.79243
 Zn264 Zn 0.37657 0.49360 0.75853
 N265 N 0.36319 0.48561 0.77762
 C266 C 0.38855 0.51950 0.78144
 N267 N 0.39003 0.51314 0.76510
 C268 C 0.39992 0.52140 0.75294
 C269 C 0.40879 0.53671 0.75705
 C270 C 0.39721 0.53468 0.78610
 C271 C 0.38306 0.45965 0.74784
 C272 C 0.39282 0.44494 0.74270
 C273 C 0.41970 0.46153 0.74517
 C274 C 0.40938 0.47598 0.75028
 N275 N 0.39139 0.47481 0.75134
 H276 H 0.38031 0.51307 0.79084
 H277 H 0.40058 0.51628 0.73993
 H278 H 0.41625 0.54333 0.74711
 H279 H 0.39588 0.53943 0.79921
 H280 H 0.36875 0.45906 0.74898
 H281 H 0.38584 0.43313 0.73961
 H282 H 0.43402 0.46262 0.74449
 H283 H 0.41577 0.48805 0.75348
 C284 C 0.34534 0.47332 0.80652
 C285 C 0.34211 0.51415 0.71281
 C286 C 0.41141 0.44574 0.74129
 C287 C 0.40731 0.54365 0.77379
 C288 C 0.65869 0.97858 0.73247
 H289 H 0.65921 0.97045 0.74384
 C290 C 0.66829 0.97366 0.71767
 H291 H 0.67616 0.96174 0.71784
 C292 C 0.64659 1.00314 0.71803
 H293 H 0.63779 1.01438 0.71798
 C294 C 0.65604 0.99880 0.70305
 H295 H 0.65466 1.00705 0.69181
 N296 N 0.64779 0.99290 0.73228
 C297 C 0.63539 1.00967 0.78485
 H298 H 0.62145 1.01272 0.78311
 C299 C 0.64344 1.01367 0.80045
 H300 H 0.63527 1.01992 0.81027
 C301 C 0.66279 0.99963 0.77314
 H302 H 0.67031 0.99422 0.76244
 C303 C 0.67149 1.00362 0.78852
 H304 H 0.68554 1.00057 0.78933
 Zn305 Zn 0.63220 0.99748 0.75128
 N306 N 0.64498 1.00244 0.77169
 C307 C 0.60749 0.97665 0.76946
 N308 N 0.61756 0.97776 0.75486
 C309 C 0.61759 0.96477 0.74288
 C310 C 0.60793 0.94966 0.74573
 C311 C 0.59762 0.96178 0.77282
 C312 C 0.62594 1.03298 0.74605
 C313 C 0.61634 1.04798 0.74161
 C314 C 0.59023 1.03042 0.73818
 C315 C 0.60036 1.01572 0.74268
 N316 N 0.61792 1.01725 0.74628
 H317 H 0.60731 0.98714 0.77872
 H318 H 0.62516 0.96603 0.73108
 H319 H 0.60828 0.93942 0.73610
 H320 H 0.59022 0.96095 0.78482
 H321 H 0.63994 1.03378 0.74896
 H322 H 0.62315 1.06027 0.74095
 H323 H 0.57629 1.02897 0.73527
 H324 H 0.59428 1.00307 0.74300
 C325 C 0.66181 1.01057 0.80271
 C326 C 0.66669 0.98362 0.70256
 C327 C 0.59827 1.04680 0.73742
 C328 C 0.59800 0.94790 0.76101
 C329 C 0.01136 0.23884 -0.15415
 H330 H 0.01737 0.25154 -0.15396
 C331 C 0.01922 0.22531 -0.16374
 H332 H 0.03120 0.22774 -0.17113
 C333 C -0.01129 0.22011 -0.14434
 H334 H -0.02285 0.21793 -0.13637
 C335 C -0.00393 0.20627 -0.15380
 H336 H -0.00999 0.19360 -0.15299
 N337 N -0.00358 0.23602 -0.14465
 C338 C -0.02842 0.28671 -0.13419
 H339 H -0.02973 0.28573 -0.12032
 C340 C -0.03426 0.30174 -0.14261
 H341 H -0.04023 0.31228 -0.13515
 C342 C -0.01914 0.27402 -0.16073
 H343 H -0.01324 0.26317 -0.16771
 C344 C -0.02498 0.28879 -0.16972
 H345 H -0.02336 0.28928 -0.18360
 Zn346 Zn -0.01238 0.25416 -0.13020
 N347 N -0.02069 0.27340 -0.14325
 C348 C 0.01250 0.27780 -0.11721
 N349 N 0.00667 0.26117 -0.11603
 C350 C 0.01535 0.24915 -0.10618
 C351 C 0.03064 0.25368 -0.09713
 C352 C 0.02763 0.28287 -0.10841
 C353 C -0.04675 0.24277 -0.12622
 C354 C -0.06169 0.23604 -0.11810
 C355 C -0.04607 0.23701 -0.09105
 C356 C -0.03138 0.24374 -0.09981
 N357 N -0.03188 0.24611 -0.11714
 H358 H 0.00580 0.28710 -0.12540
 H359 H 0.01069 0.23590 -0.10576
 H360 H 0.03767 0.24386 -0.08973
 H361 H 0.03202 0.29617 -0.10961
 H362 H -0.04693 0.24523 -0.13996
 H363 H -0.07326 0.23435 -0.12605
 H364 H -0.04443 0.23449 -0.07746
 H365 H -0.01946 0.24670 -0.09277
 C366 C -0.03241 0.30299 -0.16058
 C367 C 0.01164 0.20871 -0.16351
 C368 C -0.06168 0.23256 -0.10014
 C369 C 0.03711 0.27069 -0.09845
 C370 C 0.47853 0.23744 0.15224
 H371 H 0.47180 0.24983 0.15434
 C372 C 0.47315 0.22273 0.16137
 H373 H 0.46224 0.22387 0.17051
 C374 C 0.50012 0.22063 0.13690
 H375 H 0.51026 0.21970 0.12700
 C376 C 0.49511 0.20562 0.14563
 H377 H 0.50173 0.19336 0.14260
 N378 N 0.49172 0.23612 0.14019
 C379 C 0.50925 0.28878 0.12924
 H380 H 0.50825 0.28821 0.11534
 C381 C 0.51579 0.30363 0.13714
 H382 H 0.51961 0.31456 0.12921
 C383 C 0.50538 0.27511 0.15637
 H384 H 0.50158 0.26383 0.16374
 C385 C 0.51184 0.28980 0.16485
 H386 H 0.51299 0.28970 0.17876
 Zn387 Zn 0.49661 0.25553 0.12601
 N388 N 0.50419 0.27493 0.13886
 C389 C 0.46715 0.27690 0.11728
 N390 N 0.47541 0.26131 0.11417
 C391 C 0.46810 0.24928 0.10357
 C392 C 0.45205 0.25292 0.09525
 C393 C 0.45099 0.28097 0.10944
 C394 C 0.53149 0.24679 0.11792
 C395 C 0.54617 0.24198 0.10782
 C396 C 0.52765 0.24391 0.08254
 C397 C 0.51330 0.24879 0.09315
 N398 N 0.51540 0.24978 0.11055
 H399 H 0.47287 0.28610 0.12611
 H400 H 0.47470 0.23679 0.10168
 H401 H 0.44634 0.24322 0.08690
 H402 H 0.44459 0.29344 0.11206
 H403 H 0.53281 0.24784 0.13177
 H404 H 0.55872 0.23915 0.11403
 H405 H 0.52576 0.24300 0.06873
 H406 H 0.50054 0.25168 0.08748
 C407 C 0.51729 0.30424 0.15516
 C408 C 0.48125 0.20649 0.15782
 C409 C 0.54431 0.24030 0.08990
 C410 C 0.44326 0.26891 0.09827
 C411 C 0.97632 0.74096 0.65766
 H412 H 0.97046 0.75390 0.65837
 C413 C 0.96970 0.72766 0.66805
 H414 H 0.95894 0.73060 0.67699
 C415 C 0.99731 0.72144 0.64492
 H416 H 1.00773 0.71891 0.63556
 C417 C 0.99103 0.70776 0.65494
 H418 H 0.99674 0.69486 0.65306
 N419 N 0.98991 0.73765 0.64641
 C420 C 1.01302 0.78768 0.63335
 H421 H 1.01316 0.78628 0.61946
 C422 C 1.01998 0.80254 0.64091
 H423 H 1.02522 0.81264 0.63268
 C424 C 1.00573 0.77619 0.66080
 H425 H 1.00041 0.76577 0.66850
 C426 C 1.01262 0.79088 0.66894
 H427 H 1.01254 0.79158 0.68289
 Zn428 Zn 0.99730 0.75543 0.63121
 N429 N 1.00591 0.77497 0.64329
 C430 C 0.97166 0.77891 0.61753
 N431 N 0.97748 0.76205 0.61763
 C432 C 0.96885 0.74954 0.60867
 C433 C 0.95393 0.75388 0.59883
 C434 C 0.95692 0.78383 0.60778
 C435 C 1.03188 0.74376 0.62553
 C436 C 1.04672 0.73758 0.61641
 C437 C 1.02937 0.73834 0.59031
 C438 C 1.01485 0.74465 0.59994
 N439 N 1.01632 0.74702 0.61727
 H440 H 0.97828 0.78860 0.62514
 H441 H 0.97357 0.73617 0.60921
 H442 H 0.94732 0.74381 0.59162
 H443 H 0.95243 0.79730 0.60796
 H444 H 1.03269 0.74589 0.63930
 H445 H 1.05889 0.73476 0.62330
 H446 H 1.02803 0.73649 0.57653
 H447 H 1.00245 0.74762 0.59357
 C448 C 1.01988 0.80429 0.65894
 C449 C 0.97696 0.71072 0.66664
 C450 C 1.04557 0.73471 0.59857
 C451 C 0.94788 0.77126 0.59821
 C452 C 0.51024 0.73950 0.34542
 H453 H 0.51597 0.75230 0.34463
 C454 C 0.51718 0.72588 0.33529
 H455 H 0.52806 0.72842 0.32649
 C456 C 0.48930 0.72062 0.35811
 H457 H 0.47878 0.71845 0.36738
 C458 C 0.49585 0.70665 0.34831
 H459 H 0.49024 0.69390 0.35022
 N460 N 0.49654 0.73666 0.35653
 C461 C 0.47364 0.78794 0.36830
 H462 H 0.47344 0.78708 0.38223
 C463 C 0.46752 0.80307 0.36023
 H464 H 0.46219 0.81340 0.36833
 C465 C 0.48003 0.77474 0.34133
 H466 H 0.48494 0.76365 0.33402
 C467 C 0.47382 0.78956 0.33266
 H468 H 0.47470 0.78959 0.31873
 Zn469 Zn 0.48890 0.75493 0.37140
 N470 N 0.48013 0.77434 0.35884
 C471 C 0.51521 0.77792 0.38285
 N472 N 0.50888 0.76152 0.38454
 C473 C 0.51760 0.74937 0.39420
 C474 C 0.53337 0.75356 0.40262
 C475 C 0.53086 0.78264 0.39098
 C476 C 0.45462 0.74403 0.37693
 C477 C 0.44006 0.73725 0.38566
 C478 C 0.45713 0.73743 0.41194
 C479 C 0.47141 0.74430 0.40267
 N480 N 0.47000 0.74709 0.38540
 H481 H 0.50848 0.78730 0.37475
 H482 H 0.51255 0.73629 0.39500
 H483 H 0.54037 0.74364 0.40993
 H484 H 0.53565 0.79576 0.38941
 H485 H 0.45382 0.74657 0.36323
 H486 H 0.42798 0.73487 0.37860
 H487 H 0.45864 0.73473 0.42555
 H488 H 0.48368 0.74706 0.40920
 C489 C 0.46767 0.80429 0.34206
 C490 C 0.51008 0.70913 0.33679
 C491 C 0.44128 0.73354 0.40334
 C492 C 0.54030 0.77034 0.40083
 C493 C 0.38812 -0.01075 0.26891
 H494 H 0.38606 0.00063 0.27696
 C495 C 0.39724 -0.02531 0.27539
 H496 H 0.40202 -0.02499 0.28852
 C497 C 0.38330 -0.02530 0.24242
 H498 H 0.37762 -0.02540 0.22968
 C499 C 0.39250 -0.04003 0.24829
 H500 H 0.39406 -0.05114 0.23976
 N501 N 0.38117 -0.01110 0.25278
 C502 C 0.37215 0.03992 0.23023
 H503 H 0.35808 0.03896 0.22770
 C504 C 0.38152 0.05419 0.22418
 H505 H 0.37456 0.06429 0.21705
 C506 C 0.39832 0.02778 0.24252
 H507 H 0.40478 0.01732 0.24951
 C508 C 0.40818 0.04201 0.23690
 H509 H 0.42228 0.04243 0.23953
 Zn510 Zn 0.36667 0.00785 0.24557
 N511 N 0.38064 0.02703 0.23909
 C512 C 0.35310 0.03070 0.27093
 N513 N 0.35171 0.01435 0.26435
 C514 C 0.34152 0.00220 0.27227
 C515 C 0.33244 0.00628 0.28761
 C516 C 0.34447 0.03523 0.28629
 C517 C 0.36298 0.00115 0.21076
 C518 C 0.35519 -0.00455 0.19558
 C519 C 0.32821 -0.01008 0.21158
 C520 C 0.33649 -0.00404 0.22651
 N521 N 0.35370 0.00110 0.22587
 H522 H 0.36151 0.04008 0.26470
 H523 H 0.34105 -0.01086 0.26707
 H524 H 0.32483 -0.00364 0.29410
 H525 H 0.34611 0.04816 0.29158
 H526 H 0.37662 0.00537 0.21058
 H527 H 0.36289 -0.00430 0.18374
 H528 H 0.31473 -0.01474 0.21245
 H529 H 0.32929 -0.00386 0.23861
 C530 C 0.39977 0.05531 0.22743
 C531 C 0.39931 -0.04033 0.26511
 C532 C 0.33770 -0.01065 0.19589
 C533 C 0.33426 0.02286 0.29497
 C534 C 0.11359 1.02780 0.77729
 H535 H 0.12174 1.02031 0.78604
 C536 C 0.10438 1.04249 0.78343
 H537 H 0.10557 1.04611 0.79688
 C538 C 0.10185 1.03210 0.74934
 H539 H 0.10088 1.02807 0.73606
 C540 C 0.09233 1.04684 0.75497
 H541 H 0.08436 1.05414 0.74584
 N542 N 0.11260 1.02314 0.76038
 C543 C 0.12263 0.97350 0.73470
 H544 H 0.13687 0.97445 0.73307
 C545 C 0.11376 0.95939 0.72775
 H546 H 0.12134 0.94940 0.72094
 C547 C 0.09563 0.98534 0.74592
 H548 H 0.08870 0.99555 0.75301
 C549 C 0.08617 0.97136 0.73916
 H550 H 0.07190 0.97098 0.74096
 Zn551 Zn 0.12734 1.00457 0.75191
 N552 N 0.11353 0.98609 0.74357
 C553 C 0.14034 0.97934 0.77524
 N554 N 0.14221 0.99609 0.76992
 C555 C 0.15397 1.00682 0.77770
 C556 C 0.16456 1.00072 0.79121
 C557 C 0.15064 0.97274 0.78866
 C558 C 0.13223 1.01506 0.71786
 C559 C 0.14123 1.02034 0.70305
 C560 C 0.16858 1.01976 0.71914
 C561 C 0.15903 1.01443 0.73369
 N562 N 0.14110 1.01243 0.73288
 H563 H 0.13065 0.97110 0.76928
 H564 H 0.15497 1.02020 0.77353
 H565 H 0.17393 1.00941 0.79714
 H566 H 0.14866 0.95946 0.79285
 H567 H 0.11815 1.01267 0.71725
 H568 H 0.13381 1.02258 0.69133
 H569 H 0.18284 1.02117 0.71999
 H570 H 0.16604 1.01172 0.74548
 C571 C 0.09527 0.95821 0.72985
 C572 C 0.09386 1.05242 0.77214
 C573 C 0.15966 1.02278 0.70356
 C574 C 0.16298 0.98344 0.79683
 C575 C 0.59603 0.52398 0.26788
 H576 H 0.59407 0.51177 0.27451
 C577 C 0.58651 0.53890 0.27309
 H578 H 0.57721 0.53807 0.28377
 C579 C 0.61133 0.54012 0.24658
 H580 H 0.62130 0.54069 0.23652
 C581 C 0.60217 0.55531 0.25139
 H582 H 0.60494 0.56733 0.24469
 N583 N 0.60822 0.52487 0.25488
 C584 C 0.61878 0.47250 0.23534
 H585 H 0.63314 0.47278 0.23579
 C586 C 0.61037 0.45808 0.22846
 H587 H 0.61837 0.44718 0.22380
 C588 C 0.59101 0.48645 0.24103
 H589 H 0.58357 0.49766 0.24573
 C590 C 0.58200 0.47218 0.23428
 H591 H 0.56762 0.47253 0.23381
 Zn592 Zn 0.62260 0.50506 0.24972
 N593 N 0.60908 0.48628 0.24150
 C594 C 0.63189 0.48221 0.27672
 N595 N 0.63446 0.49840 0.27018
 C596 C 0.64450 0.51022 0.27864
 C597 C 0.65254 0.50585 0.29429
 C598 C 0.63964 0.47733 0.29227
 C599 C 0.63159 0.51301 0.21608
 C600 C 0.64233 0.51686 0.20193
 C601 C 0.66797 0.51534 0.22051
 C602 C 0.65670 0.51136 0.23433
 N603 N 0.63885 0.51048 0.23190
 H604 H 0.62359 0.47310 0.27006
 H605 H 0.64604 0.52313 0.27332
 H606 H 0.66026 0.51549 0.30100
 H607 H 0.63752 0.46432 0.29714
 H608 H 0.61737 0.51210 0.21451
 H609 H 0.63624 0.51913 0.18951
 H610 H 0.68215 0.51604 0.22260
 H611 H 0.66223 0.50899 0.24694
 C612 C 0.59174 0.45781 0.22778
 C613 C 0.58975 0.55488 0.26497
 C614 C 0.66077 0.51813 0.20405
 C615 C 0.65001 0.48924 0.30136
 C616 C 0.88782 0.48915 0.76762
 H617 H 0.88724 0.50101 0.77518
 C618 C 0.89700 0.47452 0.77386
 H619 H 0.90338 0.47525 0.78630
 C620 C 0.87911 0.47352 0.74279
 H621 H 0.87177 0.47293 0.73092
 C622 C 0.88826 0.45869 0.74843
 H623 H 0.88819 0.44709 0.74049
 N624 N 0.87900 0.48838 0.75239
 C625 C 0.86966 0.54076 0.73264
 H626 H 0.85555 0.53983 0.73031
 C627 C 0.87853 0.55595 0.72838
 H628 H 0.87115 0.56657 0.72249
 C629 C 0.89634 0.52775 0.74286
 H630 H 0.90318 0.51672 0.74854
 C631 C 0.90576 0.54280 0.73887
 H632 H 0.91981 0.54325 0.74171
 Zn633 Zn 0.86466 0.50773 0.74574
 N634 N 0.87857 0.52713 0.73989
 C635 C 0.85215 0.52926 0.77266
 N636 N 0.84991 0.51358 0.76486
 C637 C 0.83895 0.50146 0.77176
 C638 C 0.82991 0.50486 0.78728
 C639 C 0.84360 0.53309 0.78823
 C640 C 0.86115 0.49931 0.71130
 C641 C 0.85311 0.49323 0.69638
 C642 C 0.82488 0.49368 0.71147
 C643 C 0.83353 0.49966 0.72621
 N644 N 0.85144 0.50183 0.72597
 H645 H 0.86120 0.53859 0.76726
 H646 H 0.83774 0.48891 0.76555
 H647 H 0.82163 0.49495 0.79294
 H648 H 0.84591 0.54546 0.79449
 H649 H 0.87533 0.50141 0.71142
 H650 H 0.86116 0.49079 0.68497
 H651 H 0.81074 0.49131 0.71198
 H652 H 0.82600 0.50209 0.73791
 C653 C 0.89680 0.55723 0.73167
 C654 C 0.89710 0.45892 0.76431
 C655 C 0.83483 0.48993 0.69648
 C656 C 0.83257 0.52070 0.79586
 C657 C 0.26445 0.39098 -0.01366
 H658 H 0.27156 0.38976 -0.00165
 C659 C 0.27248 0.39923 -0.02771
 H660 H 0.28568 0.40441 -0.02627
 C661 C 0.23931 0.38448 -0.03051
 H662 H 0.22661 0.37839 -0.03187
 C663 C 0.24676 0.39269 -0.04480
 H664 H 0.23934 0.39317 -0.05670
 N665 N 0.24809 0.38386 -0.01523
 C666 C 0.21529 0.38408 0.02986
 H667 H 0.20683 0.37373 0.02558
 C668 C 0.20999 0.39422 0.04398
 H669 H 0.19742 0.39163 0.05027
 C670 C 0.24240 0.39919 0.02772
 H671 H 0.25514 0.40091 0.02153
 C672 C 0.23767 0.40956 0.04194
 H673 H 0.24674 0.41938 0.04639
 Zn674 Zn 0.23838 0.37136 0.00377
 N675 N 0.23123 0.38671 0.02196
 C676 C 0.26024 0.35609 0.02910
 N677 N 0.25622 0.35596 0.01204
 C678 C 0.26532 0.34556 0.00071
 C679 C 0.27926 0.33483 0.00642
 C680 C 0.27410 0.34567 0.03534
 C681 C 0.20387 0.36805 -0.00898
 C682 C 0.18919 0.35966 -0.01573
 C683 C 0.20396 0.33201 -0.01056
 C684 C 0.21848 0.34097 -0.00399
 N685 N 0.21833 0.35869 -0.00368
 H686 H 0.25287 0.36446 0.03790
 H687 H 0.26186 0.34576 -0.01281
 H688 H 0.28633 0.32662 -0.00278
 H689 H 0.27738 0.34641 0.04889
 H690 H 0.20396 0.38212 -0.00832
 H691 H 0.17796 0.36736 -0.02018
 H692 H 0.20447 0.31792 -0.01124
 H693 H 0.22997 0.33375 0.00052
 C694 C 0.22128 0.40709 0.05027
 C695 C 0.26364 0.40008 -0.04360
 C696 C 0.18925 0.34143 -0.01686
 C697 C 0.28391 0.33491 0.02395
 C698 C 0.76329 0.09256 1.02211
 H699 H 0.76789 0.08783 1.00972
 C700 C 0.76943 0.08451 1.03714
 H701 H 0.77879 0.07369 1.03609
 C702 C 0.74626 0.11285 1.03861
 H703 H 0.73755 0.12415 1.03920
 C704 C 0.75202 0.10518 1.05392
 H705 H 0.74725 0.11044 1.06610
 N706 N 0.75186 0.10645 1.02307
 C707 C 0.72059 0.10120 0.98005
 H708 H 0.71040 0.10910 0.98617
 C709 C 0.71596 0.09040 0.96637
 H710 H 0.70224 0.09015 0.96229
 C711 C 0.75088 0.09285 0.97696
 H712 H 0.76456 0.09431 0.98076
 C713 C 0.74683 0.08192 0.96313
 H714 H 0.75743 0.07466 0.95672
 Zn715 Zn 0.74429 0.11819 1.00275
 N716 N 0.73780 0.10215 0.98521
 C717 C 0.76111 0.13900 0.97819
 N718 N 0.76315 0.13153 0.99394
 C719 C 0.77854 0.13296 1.00286
 C720 C 0.79276 0.14212 0.99587
 C721 C 0.77496 0.14829 0.97073
 C722 C 0.71009 0.12554 1.01582
 C723 C 0.69519 0.13568 1.02022
 C724 C 0.71048 0.16109 1.00989
 C725 C 0.72508 0.15042 1.00559
 N726 N 0.72457 0.13296 1.00844
 H727 H 0.74872 0.13759 0.97136
 H728 H 0.77989 0.12684 1.01534
 H729 H 0.80505 0.14278 1.00299
 H730 H 0.77302 0.15423 0.95822
 H731 H 0.71014 0.11168 1.01828
 H732 H 0.68385 0.12953 1.02616
 H733 H 0.71102 0.17493 1.00735
 H734 H 0.73680 0.15613 0.99999
 C735 C 0.72916 0.08062 0.95766
 C736 C 0.76385 0.09087 1.05334
 C737 C 0.69524 0.15370 1.01721
 C738 C 0.79112 0.14983 0.97953
 C739 C 0.26071 0.58802 0.52968
 H740 H 0.25856 0.58039 0.51818
 C741 C 0.26693 0.57987 0.54464
 H742 H 0.26980 0.56602 0.54439
 C743 C 0.25985 0.61537 0.54390
 H744 H 0.25697 0.62921 0.54349
 C745 C 0.26595 0.60777 0.55911
 H746 H 0.26753 0.61588 0.57041
 N747 N 0.25754 0.60551 0.52954
 C748 C 0.22610 0.60089 0.48642
 H749 H 0.21582 0.60867 0.49261
 C750 C 0.22175 0.59047 0.47236
 H751 H 0.20812 0.59034 0.46798
 C752 C 0.25643 0.59244 0.48382
 H753 H 0.26997 0.59354 0.48823
 C754 C 0.25268 0.58197 0.46955
 H755 H 0.26337 0.57482 0.46317
 Zn756 Zn 0.24933 0.61740 0.50972
 N757 N 0.24320 0.60168 0.49190
 C758 C 0.26441 0.64003 0.48566
 N759 N 0.26742 0.63178 0.50089
 C760 C 0.28334 0.63291 0.50900
 C761 C 0.29699 0.64268 0.50178
 C762 C 0.27771 0.64989 0.47797
 C763 C 0.21567 0.62254 0.52448
 C764 C 0.20043 0.63171 0.52980
 C765 C 0.21350 0.65816 0.51913
 C766 C 0.22848 0.64846 0.51393
 N767 N 0.22919 0.63094 0.51648
 H768 H 0.25171 0.63873 0.47938
 H769 H 0.28563 0.62595 0.52088
 H770 H 0.30969 0.64311 0.50823
 H771 H 0.27507 0.65636 0.46584
 H772 H 0.21674 0.60865 0.52664
 H773 H 0.18983 0.62479 0.53619
 H774 H 0.21304 0.67205 0.51677
 H775 H 0.23950 0.65496 0.50787
 C776 C 0.23513 0.58097 0.46363
 C777 C 0.26976 0.58981 0.55960
 C778 C 0.19917 0.64976 0.52708
 C779 C 0.29431 0.65121 0.48599
 C780 C 0.76512 0.89635 0.48016
 H781 H 0.77099 0.89831 0.49265
 C782 C 0.77185 0.90523 0.46587
 H783 H 0.78288 0.91392 0.46762
 C784 C 0.74459 0.88175 0.46250
 H785 H 0.73442 0.87215 0.46097
 C786 C 0.75075 0.89048 0.44795
 H787 H 0.74467 0.88788 0.43562
 N788 N 0.75171 0.88482 0.47829
 C789 C 0.72062 0.88709 0.52244
 H790 H 0.71035 0.87994 0.51608
 C791 C 0.71616 0.89714 0.53689
 H792 H 0.70248 0.89760 0.54133
 C793 C 0.75093 0.89431 0.52521
 H794 H 0.76456 0.89272 0.52094
 C795 C 0.74707 0.90443 0.53983
 H796 H 0.75773 0.91097 0.54638
 Zn797 Zn 0.74381 0.87142 0.49755
 N798 N 0.73775 0.88601 0.51670
 C799 C 0.76190 0.84884 0.52024
 N800 N 0.76253 0.85633 0.50437
 C801 C 0.77693 0.85415 0.49384
 C802 C 0.79175 0.84465 0.49942
 C803 C 0.77648 0.83924 0.52636
 C804 C 0.70953 0.86745 0.48448
 C805 C 0.69498 0.85870 0.47793
 C806 C 0.70948 0.83138 0.48510
 C807 C 0.72389 0.84070 0.49142
 N808 N 0.72373 0.85841 0.49082
 H809 H 0.75030 0.85086 0.52837
 H810 H 0.77707 0.86007 0.48121
 H811 H 0.80316 0.84323 0.49091
 H812 H 0.77602 0.83399 0.53930
 H813 H 0.70976 0.88153 0.48405
 H814 H 0.68392 0.86614 0.47271
 H815 H 0.70996 0.81728 0.48522
 H816 H 0.73535 0.83376 0.49643
 C817 C 0.72945 0.90598 0.54579
 C818 C 0.76473 0.90227 0.44943
 C819 C 0.69495 0.84044 0.47794
 C820 C 0.79181 0.83736 0.51602
 C821 C -0.01289 0.27061 0.38733
 H822 H -0.00014 0.27686 0.38813
 C823 C -0.02748 0.27736 0.39658
 H824 H -0.02582 0.28889 0.40441
 C825 C -0.03070 0.24861 0.37528
 H826 H -0.03213 0.23770 0.36665
 C827 C -0.04554 0.25479 0.38442
 H828 H -0.05802 0.24813 0.38302
 N829 N -0.01475 0.25651 0.37688
 C830 C 0.03825 0.23432 0.36799
 H831 H 0.03829 0.23448 0.35403
 C832 C 0.05297 0.22777 0.37680
 H833 H 0.06440 0.22315 0.36945
 C834 C 0.02332 0.24064 0.39434
 H835 H 0.01163 0.24553 0.40107
 C836 C 0.03777 0.23409 0.40371
 H837 H 0.03701 0.23390 0.41766
 Zn838 Zn 0.00490 0.24904 0.36311
 N839 N 0.02390 0.24074 0.37680
 C840 C 0.02844 0.27550 0.35369
 N841 N 0.01238 0.26852 0.35011
 C842 C 0.00106 0.27633 0.33878
 C843 C 0.00579 0.29179 0.33052
 C844 C 0.03359 0.29098 0.34591
 C845 C -0.00614 0.21549 0.35776
 C846 C -0.01288 0.20119 0.34908
 C847 C -0.00959 0.21678 0.32223
 C848 C -0.00303 0.23095 0.33149
 N849 N -0.00194 0.23020 0.34900
 H850 H 0.03706 0.26947 0.36309
 H851 H -0.01185 0.27079 0.33651
 H852 H -0.00348 0.29808 0.32182
 H853 H 0.04631 0.29647 0.34913
 H854 H -0.00483 0.21516 0.37164
 H855 H -0.01664 0.18978 0.35636
 H856 H -0.01101 0.21770 0.30837
 H857 H 0.00078 0.24261 0.32474
 C858 C 0.05288 0.22753 0.39491
 C859 C -0.04416 0.26951 0.39507
 C860 C -0.01504 0.20187 0.33115
 C861 C 0.02212 0.29942 0.33434
 C862 C 1.02434 0.76879 0.09983
 H863 H 1.01107 0.77419 0.09836
 C864 C 1.03834 0.77525 0.08994
 H865 H 1.03564 0.78539 0.08060
 C866 C 1.04394 0.74919 0.11404
 H867 H 1.04617 0.73938 0.12378
 C868 C 1.05833 0.75532 0.10449
 H869 H 1.07149 0.75009 0.10706
 N870 N 1.02735 0.75599 0.11159
 C871 C 0.97613 0.73263 0.12258
 H872 H 0.97663 0.73318 0.13652
 C873 C 0.96171 0.72505 0.11449
 H874 H 0.95103 0.71996 0.12233
 C875 C 0.98948 0.73888 0.09556
 H876 H 1.00046 0.74408 0.08826
 C877 C 0.97523 0.73141 0.08690
 H878 H 0.97539 0.73089 0.07294
 Zn879 Zn 1.00830 0.74914 0.12598
 N880 N 0.98956 0.73950 0.11310
 C881 C 0.98288 0.77479 0.13590
 N882 N 0.99998 0.76924 0.13793
 C883 C 1.01163 0.77856 0.14745
 C884 C 1.00616 0.79413 0.15541
 C885 C 0.97686 0.79021 0.14363
 C886 C 1.02050 0.71601 0.13410
 C887 C 1.02553 0.70193 0.14438
 C888 C 1.02134 0.72014 0.16959
 C889 C 1.01627 0.73390 0.15879
 N890 N 1.01603 0.73160 0.14139
 H891 H 0.97390 0.76748 0.12800
 H892 H 1.02526 0.77403 0.14858
 H893 H 1.01569 0.80155 0.16265
 H894 H 0.96315 0.79429 0.14191
 H895 H 1.02002 0.71451 0.12024
 H896 H 1.02919 0.68967 0.13829
 H897 H 1.02129 0.72208 0.18343
 H898 H 1.01233 0.74630 0.16434
 C899 C 0.96112 0.72434 0.09641
 C900 C 1.05568 0.76863 0.09233
 C901 C 1.02593 0.70387 0.16238
 C902 C 0.98859 0.80021 0.15340
 C903 C 0.52206 0.26949 0.60272
 H904 H 0.50882 0.27516 0.60209
 C905 C 0.53580 0.27649 0.59285
 H906 H 0.53293 0.28736 0.58439
 C907 C 0.54185 0.24859 0.61473
 H908 H 0.54429 0.23803 0.62362
 C909 C 0.55598 0.25522 0.60517
 H910 H 0.56915 0.24961 0.60687
 N911 N 0.52528 0.25577 0.61335
 C912 C 0.47419 0.23196 0.62407
 H913 H 0.47515 0.23134 0.63798
 C914 C 0.45947 0.22509 0.61585
 H915 H 0.44903 0.21941 0.62358
 C916 C 0.48667 0.24034 0.59725
 H917 H 0.49744 0.24606 0.59006
 C918 C 0.47213 0.23359 0.58846
 H919 H 0.47187 0.23416 0.57451
 Zn920 Zn 0.50663 0.24790 0.62775
 N921 N 0.48733 0.23954 0.61477
 C922 C 0.48172 0.27222 0.64180
 N923 N 0.49904 0.26687 0.64176
 C924 C 0.51140 0.27536 0.65119
 C925 C 0.50643 0.28969 0.66140
 C926 C 0.47615 0.28633 0.65194
 C927 C 0.51907 0.21409 0.63294
 C928 C 0.52438 0.19929 0.64204
 C929 C 0.52047 0.21547 0.66860
 C930 C 0.51519 0.23000 0.65896
 N931 N 0.51469 0.22906 0.64144
 H932 H 0.47217 0.26568 0.63386
 H933 H 0.52513 0.27099 0.65074
 H934 H 0.51637 0.29624 0.66894
 H935 H 0.46232 0.29045 0.65173
 H936 H 0.51836 0.21367 0.61901
 H937 H 0.52804 0.18757 0.63498
 H938 H 0.52058 0.21636 0.68254
 H939 H 0.51129 0.24192 0.66549
 C940 C 0.45830 0.22579 0.59780
 C941 C 0.55310 0.26944 0.59412
 C942 C 0.52508 0.19983 0.66013
 C943 C 0.48856 0.29523 0.66192
 C944 C 0.49263 0.76956 0.88765
 H945 H 0.50516 0.77628 0.88754
 C946 C 0.47811 0.77653 0.89684
 H947 H 0.47956 0.78872 0.90368
 C948 C 0.47535 0.74595 0.87814
 H949 H 0.47411 0.73423 0.87058
 C950 C 0.46058 0.75236 0.88722
 H951 H 0.44835 0.74514 0.88685
 N952 N 0.49103 0.75450 0.87857
 C953 C 0.54416 0.73170 0.87172
 H954 H 0.54423 0.73000 0.85786
 C955 C 0.55881 0.72629 0.88134
 H956 H 0.57013 0.72030 0.87481
 C957 C 0.52905 0.74121 0.89706
 H958 H 0.51736 0.74692 0.90313
 C959 C 0.54338 0.73581 0.90722
 H960 H 0.54271 0.73761 0.92107
 Zn961 Zn 0.51066 0.74606 0.86529
 N962 N 0.52978 0.73924 0.87963
 C963 C 0.53467 0.77010 0.85083
 N964 N 0.51775 0.76418 0.85026
 C965 C 0.50541 0.77175 0.83982
 C966 C 0.50997 0.78579 0.82930
 C967 C 0.53983 0.78395 0.84044
 C968 C 0.50030 0.71176 0.86256
 C969 C 0.49366 0.69682 0.85489
 C970 C 0.49559 0.71102 0.82716
 C971 C 0.50209 0.72581 0.83542
 N972 N 0.50385 0.72604 0.85288
 H973 H 0.54418 0.76436 0.85957
 H974 H 0.49195 0.76700 0.83983
 H975 H 0.50000 0.79169 0.82106
 H976 H 0.55329 0.78863 0.84129
 H977 H 0.50209 0.71223 0.87638
 H978 H 0.49048 0.68573 0.86288
 H979 H 0.49362 0.71119 0.81334
 H980 H 0.50529 0.73720 0.82793
 C981 C 0.55856 0.72836 0.89933
 C982 C 0.46175 0.76794 0.89664
 C983 C 0.49087 0.69646 0.83702
 C984 C 0.52740 0.79203 0.82953
 C985 C 0.45002 -0.14914 0.31711
 C986 C 0.45708 -0.14860 0.33379
 C987 C 0.46282 -0.16384 0.34196
 C988 C 0.46189 -0.18020 0.33364
 C989 C 0.45504 -0.18055 0.31672
 C990 C 0.44909 -0.16528 0.30866
 C991 C 0.44341 -0.13298 0.30873
 N992 N 0.43303 -0.13373 0.29450
 N993 N 0.42668 -0.11922 0.28727
 C994 C 0.43050 -0.10333 0.29390
 N995 N 0.44100 -0.10258 0.30805
 N996 N 0.44729 -0.11710 0.31533
 C997 C 0.42299 -0.08722 0.28615
 C998 C 0.42951 -0.07080 0.29070
 C999 C 0.42205 -0.05560 0.28369
 C1000 C 0.40780 -0.05646 0.27210
 C1001 C 0.40137 -0.07293 0.26753
 C1002 C 0.40894 -0.08811 0.27438
 H1003 H 0.45808 -0.13636 0.34064
 H1004 H 0.46860 -0.16252 0.35461
 H1005 H 0.45346 -0.19266 0.30980
 H1006 H 0.44367 -0.16616 0.29579
 H1007 H 0.44041 -0.06967 0.29964
 H1008 H 0.42753 -0.04318 0.28731
 H1009 H 0.39018 -0.07413 0.25894
 H1010 H 0.40350 -0.10054 0.27071
 C1011 C 0.94986 0.34990 0.81401
 C1012 C 0.96014 0.35073 0.82905
 C1013 C 0.96600 0.33549 0.83718
 C1014 C 0.96185 0.31909 0.83038
 C1015 C 0.95193 0.31822 0.81515
 C1016 C 0.94591 0.33347 0.80710
 C1017 C 0.94291 0.36606 0.80589
 N1018 N 0.93016 0.36537 0.79362
 N1019 N 0.92345 0.37991 0.78675
 C1020 C 0.92924 0.39577 0.79181
 N1021 N 0.94211 0.39647 0.80398
 N1022 N 0.94877 0.38192 0.81090
 C1023 C 0.92135 0.41193 0.78452
 C1024 C 0.92918 0.42818 0.78735
 C1025 C 0.92146 0.44342 0.78069
 C1026 C 0.90566 0.44276 0.77115
 C1027 C 0.89785 0.42649 0.76838
 C1028 C 0.90564 0.41127 0.77488
 H1029 H 0.96344 0.36315 0.83472
 H1030 H 0.97382 0.33652 0.84879
 H1031 H 0.94847 0.30574 0.80970
 H1032 H 0.93806 0.33237 0.79550
 H1033 H 0.94134 0.42914 0.79465
 H1034 H 0.92795 0.45570 0.78289
 H1035 H 0.88547 0.42549 0.76144
 H1036 H 0.89915 0.39901 0.77260
 C1037 C 0.03679 1.16378 0.81279
 C1038 C 0.04698 1.17639 0.82118
 C1039 C 0.03887 1.19122 0.82842
 C1040 C 0.02038 1.19374 0.82751
 C1041 C 0.01022 1.18137 0.81877
 C1042 C 0.01834 1.16658 0.81144
 C1043 C 0.04528 1.14755 0.80606
 N1044 N 0.03574 1.13573 0.79711
 N1045 N 0.04328 1.12090 0.79157
 C1046 C 0.06067 1.11724 0.79479
 N1047 N 0.07021 1.12910 0.80367
 N1048 N 0.06269 1.14393 0.80917
 C1049 C 0.06904 1.10060 0.78897
 C1050 C 0.08643 1.09614 0.79403
 C1051 C 0.09435 1.08045 0.78868
 C1052 C 0.08513 1.06886 0.77808
 C1053 C 0.06777 1.07330 0.77297
 C1054 C 0.05978 1.08898 0.77841
 H1055 H 0.06123 1.17469 0.82243
 H1056 H 0.04702 1.20041 0.83525
 H1057 H -0.00404 1.18307 0.81770
 H1058 H 0.01008 1.15718 0.80502
 H1059 H 0.09397 1.10476 0.80215
 H1060 H 0.10785 1.07752 0.79261
 H1061 H 0.06030 1.06457 0.76491
 H1062 H 0.04636 1.09199 0.77428
 C1063 C 0.53315 0.66434 0.31083
 C1064 C 0.54396 0.67784 0.31676
 C1065 C 0.53645 0.69251 0.32484
 C1066 C 0.51794 0.69410 0.32712
 C1067 C 0.50711 0.68082 0.32077
 C1068 C 0.51462 0.66610 0.31277
 C1069 C 0.54121 0.64834 0.30315
 N1070 N 0.53114 0.63426 0.29964
 N1071 N 0.53851 0.61970 0.29326
 C1072 C 0.55628 0.61861 0.29011
 N1073 N 0.56632 0.63273 0.29353
 N1074 N 0.55896 0.64726 0.29994
 C1075 C 0.56464 0.60233 0.28335
 C1076 C 0.58275 0.60187 0.27878
 C1077 C 0.59079 0.58651 0.27272
 C1078 C 0.58095 0.57120 0.27112
 C1079 C 0.56284 0.57161 0.27566
 C1080 C 0.55474 0.58703 0.28165
 H1081 H 0.55828 0.67691 0.31553
 H1082 H 0.54521 0.70235 0.32979
 H1083 H 0.49279 0.68178 0.32205
 H1084 H 0.50589 0.65603 0.30822
 H1085 H 0.59079 0.61337 0.27995
 H1086 H 0.60483 0.58654 0.26957
 H1087 H 0.55491 0.56004 0.27444
 H1088 H 0.54077 0.58692 0.28507
 C1089 C 0.53886 0.35024 0.17847
 C1090 C 0.54659 0.34291 0.16352
 C1091 C 0.53971 0.32789 0.15618
 C1092 C 0.52491 0.31978 0.16358
 C1093 C 0.51734 0.32685 0.17873
 C1094 C 0.52422 0.34197 0.18608
 C1095 C 0.54606 0.36649 0.18584
 N1096 N 0.53878 0.37400 0.20019
 N1097 N 0.54535 0.38866 0.20662
 C1098 C 0.55944 0.39643 0.19894
 N1099 N 0.56666 0.38891 0.18460
 N1100 N 0.56012 0.37430 0.17819
 C1101 C 0.56707 0.41259 0.20608
 C1102 C 0.58192 0.42007 0.19807
 C1103 C 0.58965 0.43489 0.20497
 C1104 C 0.58275 0.44264 0.22007
 C1105 C 0.56765 0.43547 0.22791
 C1106 C 0.55991 0.42055 0.22100
 H1107 H 0.55794 0.34882 0.15735
 H1108 H 0.54603 0.32257 0.14469
 H1109 H 0.50585 0.32093 0.18465
 H1110 H 0.51796 0.34725 0.19762
 H1111 H 0.58773 0.41441 0.18649
 H1112 H 0.60108 0.44031 0.19848
 H1113 H 0.56213 0.44112 0.23962
 H1114 H 0.54845 0.41516 0.22747
 C1115 C 0.04138 0.85072 0.68158
 C1116 C 0.04979 0.84258 0.66739
 C1117 C 0.04296 0.82740 0.66029
 C1118 C 0.02749 0.81999 0.66713
 C1119 C 0.01922 0.82793 0.68152
 C1120 C 0.02610 0.84314 0.68868
 C1121 C 0.04853 0.86710 0.68870
 N1122 N 0.04174 0.87435 0.70339
 N1123 N 0.04829 0.88908 0.70966
 C1124 C 0.06185 0.89721 0.70146
 N1125 N 0.06857 0.88996 0.68676
 N1126 N 0.06206 0.87525 0.68052
 C1127 C 0.06952 0.91340 0.70846
 C1128 C 0.08268 0.92217 0.69908
 C1129 C 0.09065 0.93691 0.70588
 C1130 C 0.08575 0.94327 0.72227
 C1131 C 0.07224 0.93484 0.73149
 C1132 C 0.06420 0.92005 0.72465
 H1133 H 0.06168 0.84793 0.66168
 H1134 H 0.04986 0.82142 0.64945
 H1135 H 0.00719 0.82263 0.68699
 H1136 H 0.01929 0.84908 0.69961
 H1137 H 0.08698 0.91757 0.68649
 H1138 H 0.10075 0.94333 0.69830
 H1139 H 0.06825 0.93938 0.74419
 H1140 H 0.05409 0.91363 0.73221
 C1141 C 0.95462 0.66660 0.69292
 C1142 C 0.97308 0.66777 0.69052
 C1143 C 0.98038 0.68232 0.68252
 C1144 C 0.96937 0.69598 0.67656
 C1145 C 0.95093 0.69499 0.67936
 C1146 C 0.94366 0.68052 0.68752
 C1147 C 0.94675 0.65070 0.70036
 N1148 N 0.92937 0.65053 0.70517
 N1149 N 0.92207 0.63604 0.71113
 C1150 C 0.93180 0.62105 0.71246
 N1151 N 0.94922 0.62124 0.70775
 N1152 N 0.95655 0.63577 0.70186
 C1153 C 0.92337 0.60476 0.71829
 C1154 C 0.93210 0.58855 0.71618
 C1155 C 0.92362 0.57313 0.72075
 C1156 C 0.90627 0.57358 0.72760
 C1157 C 0.89778 0.58984 0.73017
 C1158 C 0.90619 0.60522 0.72551
 H1159 H 0.98192 0.65736 0.69470
 H1160 H 0.99466 0.68281 0.68088
 H1161 H 0.94202 0.70512 0.67473
 H1162 H 0.92937 0.68001 0.68910
 H1163 H 0.94533 0.58773 0.71061
 H1164 H 0.93048 0.56083 0.71846
 H1165 H 0.88458 0.59070 0.73578
 H1166 H 0.89915 0.61748 0.72749
 C1167 C 0.46042 0.15969 0.18021
 C1168 C 0.46478 0.16045 0.16258
 C1169 C 0.47177 0.17556 0.15546
 C1170 C 0.47446 0.19034 0.16576
 C1171 C 0.47019 0.18962 0.18341
 C1172 C 0.46334 0.17440 0.19061
 C1173 C 0.45241 0.14378 0.18746
 N1174 N 0.45131 0.14123 0.20478
 N1175 N 0.44379 0.12699 0.21115
 C1176 C 0.43697 0.11478 0.20046
 N1177 N 0.43811 0.11734 0.18317
 N1178 N 0.44571 0.13150 0.17682
 C1179 C 0.42799 0.09924 0.20740
 C1180 C 0.41681 0.08951 0.19675
 C1181 C 0.40779 0.07520 0.20328
 C1182 C 0.40991 0.07014 0.22053
 C1183 C 0.42138 0.07957 0.23113
 C1184 C 0.43024 0.09409 0.22466
 H1185 H 0.46273 0.14937 0.15420
 H1186 H 0.47471 0.17581 0.14177
 H1187 H 0.47221 0.20082 0.19164
 H1188 H 0.46007 0.17424 0.20423
 H1189 H 0.41476 0.09312 0.18341
 H1190 H 0.39914 0.06803 0.19482
 H1191 H 0.42316 0.07593 0.24450
 H1192 H 0.43882 0.10128 0.23316
 C1193 C 0.31903 0.45350 -0.14820
 C1194 C 0.31278 0.44946 -0.16477
 C1195 C 0.32111 0.45614 -0.17947
 C1196 C 0.33595 0.46687 -0.17792
 C1197 C 0.34206 0.47108 -0.16137
 C1198 C 0.33367 0.46453 -0.14668
 C1199 C 0.31057 0.44598 -0.13263
 N1200 N 0.31507 0.45144 -0.11658
 N1201 N 0.30772 0.44443 -0.10259
 C1202 C 0.29561 0.43159 -0.10405
 N1203 N 0.29109 0.42616 -0.12009
 N1204 N 0.29839 0.43321 -0.13408
 C1205 C 0.28759 0.42356 -0.08851
 C1206 C 0.27735 0.40851 -0.09004
 C1207 C 0.26976 0.40086 -0.07548
 C1208 C 0.27207 0.40814 -0.05900
 C1209 C 0.28239 0.42316 -0.05744
 C1210 C 0.29009 0.43076 -0.07203
 H1211 H 0.30151 0.44105 -0.16642
 H1212 H 0.31620 0.45258 -0.19207
 H1213 H 0.35335 0.47950 -0.15979
 H1214 H 0.33881 0.46793 -0.13413
 H1215 H 0.27529 0.40250 -0.10250
 H1216 H 0.26224 0.38908 -0.07714
 H1217 H 0.28428 0.42922 -0.04498
 H1218 H 0.29787 0.44238 -0.07039
 C1219 C 0.81672 0.95763 0.34425
 C1220 C 0.81143 0.95253 0.32765
 C1221 C 0.81976 0.95928 0.31299
 C1222 C 0.83370 0.97109 0.31463
 C1223 C 0.83886 0.97634 0.33120
 C1224 C 0.83039 0.96976 0.34585
 C1225 C 0.80835 0.94999 0.35980
 N1226 N 0.81086 0.95708 0.37566
 N1227 N 0.80371 0.94993 0.38968
 C1228 C 0.79384 0.93533 0.38844
 N1229 N 0.79129 0.92828 0.37258
 N1230 N 0.79836 0.93548 0.35856
 C1231 C 0.78629 0.92704 0.40405
 C1232 C 0.78002 0.90994 0.40328
 C1233 C 0.77316 0.90193 0.41799
 C1234 C 0.77215 0.91090 0.43382
 C1235 C 0.77837 0.92806 0.43457
 C1236 C 0.78544 0.93601 0.41987
 H1237 H 0.80089 0.94326 0.32596
 H1238 H 0.81561 0.95494 0.30037
 H1239 H 0.84945 0.98558 0.33282
 H1240 H 0.83479 0.97396 0.35844
 H1241 H 0.78066 0.90259 0.39135
 H1242 H 0.76892 0.88857 0.41697
 H1243 H 0.77759 0.93544 0.44647
 H1244 H 0.79009 0.94924 0.42087
 C1245 C 0.81253 0.03855 1.16156
 C1246 C 0.81755 0.02089 1.16212
 C1247 C 0.82605 0.01396 1.17658
 C1248 C 0.82983 0.02446 1.19106
 C1249 C 0.82418 0.04210 1.19057
 C1250 C 0.81575 0.04901 1.17604
 C1251 C 0.80445 0.04612 1.14580
 N1252 N 0.80084 0.06347 1.14475
 N1253 N 0.79412 0.07036 1.13041
 C1254 C 0.79073 0.06021 1.11648
 N1255 N 0.79425 0.04284 1.11756
 N1256 N 0.80098 0.03595 1.13191
 C1257 C 0.78364 0.06797 1.10038
 C1258 C 0.77938 0.05740 1.08621
 C1259 C 0.77294 0.06480 1.07097
 C1260 C 0.77061 0.08293 1.06953
 C1261 C 0.77485 0.09349 1.08371
 C1262 C 0.78126 0.08611 1.09894
 H1263 H 0.81505 0.01237 1.15129
 H1264 H 0.82920 0.00017 1.17638
 H1265 H 0.82705 0.05103 1.20093
 H1266 H 0.81207 0.06270 1.17607
 H1267 H 0.78100 0.04338 1.08687
 H1268 H 0.76958 0.05630 1.06036
 H1269 H 0.77349 0.10752 1.08295
 H1270 H 0.78449 0.09466 1.10954
 C1271 C 0.31703 0.53683 0.66817
 C1272 C 0.32527 0.54740 0.68050
 C1273 C 0.33301 0.54006 0.69517
 C1274 C 0.33279 0.52198 0.69782
 C1275 C 0.32430 0.51142 0.68568
 C1276 C 0.31644 0.51877 0.67104
 C1277 C 0.30955 0.54460 0.65223
 N1278 N 0.29995 0.53490 0.64109
 N1279 N 0.29360 0.54185 0.62660
 C1280 C 0.29665 0.55876 0.62260
 N1281 N 0.30622 0.56845 0.63376
 N1282 N 0.31251 0.56152 0.64826
 C1283 C 0.28984 0.56652 0.60638
 C1284 C 0.29530 0.58313 0.60117
 C1285 C 0.28890 0.59055 0.58596
 C1286 C 0.27677 0.58163 0.57560
 C1287 C 0.27138 0.56496 0.58074
 C1288 C 0.27787 0.55747 0.59593
 H1289 H 0.32592 0.56136 0.67876
 H1290 H 0.33963 0.54850 0.70421
 H1291 H 0.32378 0.49746 0.68748
 H1292 H 0.31016 0.51025 0.66185
 H1293 H 0.30464 0.59040 0.60878
 H1294 H 0.29362 0.60325 0.58222
 H1295 H 0.26190 0.55781 0.57317
 H1296 H 0.27336 0.54467 0.59958
 C1297 C 0.19270 0.52900 0.35396
 C1298 C 0.17682 0.51961 0.35406
 C1299 C 0.16839 0.51548 0.33866
 C1300 C 0.17561 0.52058 0.32273
 C1301 C 0.19182 0.52941 0.32252
 C1302 C 0.20027 0.53362 0.33799
 C1303 C 0.20073 0.53457 0.37048
 N1304 N 0.21577 0.54412 0.37071
 N1305 N 0.22227 0.54996 0.38556
 C1306 C 0.21398 0.54652 0.40079
 N1307 N 0.19908 0.53681 0.40054
 N1308 N 0.19261 0.53096 0.38573
 C1309 C 0.22037 0.55403 0.41723
 C1310 C 0.21022 0.55243 0.43243
 C1311 C 0.21531 0.56075 0.44760
 C1312 C 0.23075 0.57077 0.44799
 C1313 C 0.24131 0.57182 0.43302
 C1314 C 0.23615 0.56359 0.41777
 H1315 H 0.17067 0.51569 0.36608
 H1316 H 0.15610 0.50835 0.33921
 H1317 H 0.19766 0.53356 0.31043
 H1318 H 0.21251 0.54081 0.33743
 H1319 H 0.19804 0.54512 0.43254
 H1320 H 0.20703 0.55954 0.45901
 H1321 H 0.25321 0.57957 0.43292
 H1322 H 0.24432 0.56504 0.40633
 C1323 C 0.68603 0.02430 0.85035
 C1324 C 0.66811 0.01961 0.84976
 C1325 C 0.66028 0.01490 0.83422
 C1326 C 0.67013 0.01460 0.81863
 C1327 C 0.68835 0.01871 0.81944
 C1328 C 0.69612 0.02361 0.83504
 C1329 C 0.69382 0.03047 0.86675
 N1330 N 0.71026 0.03752 0.86711
 N1331 N 0.71673 0.04397 0.88172
 C1332 C 0.70704 0.04359 0.89658
 N1333 N 0.69072 0.03633 0.89623
 N1334 N 0.68425 0.02993 0.88165
 C1335 C 0.71362 0.05176 0.91263
 C1336 C 0.70335 0.05132 0.92785
 C1337 C 0.70870 0.06023 0.94259
 C1338 C 0.72444 0.06981 0.94251
 C1339 C 0.73507 0.06975 0.92752
 C1340 C 0.72971 0.06083 0.91273
 H1341 H 0.65995 0.01977 0.86133
 H1342 H 0.64653 0.01103 0.83471
 H1343 H 0.69657 0.01912 0.80796
 H1344 H 0.70999 0.02714 0.83503
 H1345 H 0.69096 0.04436 0.92831
 H1346 H 0.70038 0.05980 0.95403
 H1347 H 0.74719 0.07714 0.92700
 H1348 H 0.73795 0.06144 0.90125
 C1349 C 0.68950 0.96476 0.65464
 C1350 C 0.69899 0.96305 0.67012
 C1351 C 0.69179 0.96940 0.68566
 C1352 C 0.67494 0.97759 0.68605
 C1353 C 0.66558 0.97945 0.67052
 C1354 C 0.67277 0.97318 0.65503
 C1355 C 0.69660 0.95741 0.63821
 N1356 N 0.68734 0.95936 0.62335
 N1357 N 0.69324 0.95224 0.60869
 C1358 C 0.70868 0.94285 0.60820
 N1359 N 0.71805 0.94100 0.62303
 N1360 N 0.71214 0.94814 0.63773
 C1361 C 0.71471 0.93427 0.59196
 C1362 C 0.73047 0.92417 0.59137
 C1363 C 0.73551 0.91531 0.57626
 C1364 C 0.72487 0.91631 0.56146
 C1365 C 0.70937 0.92675 0.56193
 C1366 C 0.70437 0.93563 0.57698
 H1367 H 0.71194 0.95669 0.67028
 H1368 H 0.69942 0.96791 0.69737
 H1369 H 0.65242 0.98536 0.67036
 H1370 H 0.66502 0.97467 0.64340
 H1371 H 0.73876 0.92284 0.60266
 H1372 H 0.74745 0.90725 0.57633
 H1373 H 0.70105 0.92798 0.55065
 H1374 H 0.69221 0.94337 0.57690
 C1375 C 0.18137 0.46497 0.15966
 C1376 C 0.16422 0.47243 0.16079
 C1377 C 0.15777 0.47919 0.17638
 C1378 C 0.16828 0.47868 0.19129
 C1379 C 0.18544 0.47123 0.19022
 C1380 C 0.19194 0.46449 0.17455
 C1381 C 0.18793 0.45752 0.14307
 N1382 N 0.20474 0.45095 0.14147
 N1383 N 0.21039 0.44396 0.12661
 C1384 C 0.19947 0.44324 0.11275
 N1385 N 0.18271 0.44988 0.11436
 N1386 N 0.17708 0.45688 0.12918
 C1387 C 0.20543 0.43489 0.09637
 C1388 C 0.19332 0.43235 0.08291
 C1389 C 0.19858 0.42366 0.06783
 C1390 C 0.21611 0.41738 0.06579
 C1391 C 0.22838 0.42033 0.07901
 C1392 C 0.22308 0.42894 0.09418
 H1393 H 0.15566 0.47299 0.14963
 H1394 H 0.14438 0.48455 0.17684
 H1395 H 0.19389 0.47075 0.20145
 H1396 H 0.20521 0.45882 0.17415
 H1397 H 0.17964 0.43681 0.08410
 H1398 H 0.18890 0.42177 0.05776
 H1399 H 0.24194 0.41550 0.07786
 H1400 H 0.23277 0.43071 0.10426
 C1401 C -0.15233 0.32118 0.45238
 C1402 C -0.16945 0.31586 0.44773
 C1403 C -0.18455 0.32423 0.45464
 C1404 C -0.18284 0.33820 0.46619
 C1405 C -0.16576 0.34335 0.47104
 C1406 C -0.15067 0.33488 0.46428
 C1407 C -0.13631 0.31284 0.44452
 N1408 N -0.11986 0.31591 0.45085
 N1409 N -0.10542 0.30881 0.44345
 C1410 C -0.10682 0.29843 0.42934
 N1411 N -0.12327 0.29531 0.42305
 N1412 N -0.13771 0.30234 0.43049
 C1413 C -0.09077 0.29092 0.42076
 C1414 C -0.09195 0.28352 0.40423
 C1415 C -0.07685 0.27669 0.39594
 C1416 C -0.06017 0.27689 0.40402
 C1417 C -0.05899 0.28426 0.42058
 C1418 C -0.07411 0.29126 0.42883
 H1419 H -0.17120 0.30531 0.43865
 H1420 H -0.19756 0.32007 0.45061
 H1421 H -0.16408 0.35396 0.48008
 H1422 H -0.13771 0.33931 0.46816
 H1423 H -0.10453 0.28321 0.39755
 H1424 H -0.07822 0.27149 0.38303
 H1425 H -0.04642 0.28444 0.42728
 H1426 H -0.07275 0.29681 0.44160
 C1427 C 0.35401 0.81757 0.95639
 C1428 C 0.35560 0.83153 0.96801
 C1429 C 0.34047 0.83982 0.97487
 C1430 C 0.32341 0.83425 0.97042
 C1431 C 0.32179 0.81996 0.95924
 C1432 C 0.33693 0.81175 0.95223
 C1433 C 0.37004 0.80955 0.94820
 N1434 N 0.36852 0.79856 0.93457
 N1435 N 0.38291 0.79188 0.92677
 C1436 C 0.39946 0.79587 0.93227
 N1437 N 0.40099 0.80675 0.94600
 N1438 N 0.38658 0.81348 0.95377
 C1439 C 0.41545 0.78874 0.92327
 C1440 C 0.43244 0.79036 0.93047
 C1441 C 0.44748 0.78364 0.92187
 C1442 C 0.44586 0.77525 0.90582
 C1443 C 0.42886 0.77381 0.89859
 C1444 C 0.41385 0.78038 0.90724
 H1445 H 0.36854 0.83632 0.97152
 H1446 H 0.34209 0.85069 0.98361
 H1447 H 0.30880 0.81548 0.95550
 H1448 H 0.33523 0.80099 0.94339
 H1449 H 0.43413 0.79668 0.94283
 H1450 H 0.46033 0.78479 0.92791
 H1451 H 0.42714 0.76777 0.88610
 H1452 H 0.40100 0.77907 0.90123
 C1453 C 1.16239 0.82076 0.03626
 C1454 C 1.17860 0.81142 0.03512
 C1455 C 1.19375 0.81920 0.02820
 C1456 C 1.19297 0.83643 0.02215
 C1457 C 1.17677 0.84573 0.02325
 C1458 C 1.16168 0.83801 0.03023
 C1459 C 1.14633 0.81273 0.04383
 N1460 N 1.13134 0.82243 0.04670
 N1461 N 1.11696 0.81536 0.05370
 C1462 C 1.11691 0.79825 0.05811
 N1463 N 1.13187 0.78851 0.05518
 N1464 N 1.14629 0.79560 0.04821
 C1465 C 1.10098 0.79053 0.06625
 C1466 C 1.10015 0.77250 0.06918
 C1467 C 1.08532 0.76535 0.07732
 C1468 C 1.07103 0.77606 0.08282
 C1469 C 1.07178 0.79406 0.07968
 C1470 C 1.08654 0.80119 0.07146
 H1471 H 1.17963 0.79812 0.03966
 H1472 H 1.20604 0.81169 0.02741
 H1473 H 1.17581 0.85911 0.01894
 H1474 H 1.14945 0.84561 0.03092
 H1475 H 1.11096 0.76389 0.06522
 H1476 H 1.08505 0.75140 0.07929
 H1477 H 1.06116 0.80273 0.08399
 H1478 H 1.08675 0.81514 0.06947
 C1479 C 0.65850 0.32341 0.53744
 C1480 C 0.67427 0.31372 0.53447
 C1481 C 0.68920 0.32162 0.52724
 C1482 C 0.68864 0.33932 0.52270
 C1483 C 0.67289 0.34898 0.52568
 C1484 C 0.65803 0.34114 0.53298
 C1485 C 0.64264 0.31520 0.54522
 N1486 N 0.62813 0.32502 0.54964
 N1487 N 0.61390 0.31775 0.55675
 C1488 C 0.61354 0.30034 0.55972
 N1489 N 0.62804 0.29050 0.55525
 N1490 N 0.64229 0.29778 0.54817
 C1491 C 0.59779 0.29235 0.56793
 C1492 C 0.59664 0.27418 0.56953
 C1493 C 0.58200 0.26673 0.57772
 C1494 C 0.56821 0.27727 0.58458
 C1495 C 0.56927 0.29544 0.58277
 C1496 C 0.58385 0.30288 0.57451
 H1497 H 0.67510 0.30004 0.53778
 H1498 H 0.70113 0.31383 0.52499
 H1499 H 0.67214 0.36272 0.52258
 H1500 H 0.64615 0.34903 0.53511
 H1501 H 0.60706 0.26567 0.56450
 H1502 H 0.58148 0.25268 0.57866
 H1503 H 0.55904 0.30397 0.58813
 H1504 H 0.58431 0.31693 0.57356
 C1505 C 0.34891 0.17731 0.54477
 C1506 C 0.34175 0.18370 0.52926
 C1507 C 0.32654 0.17629 0.52222
 C1508 C 0.31819 0.16234 0.53053
 C1509 C 0.32514 0.15625 0.54621
 C1510 C 0.34030 0.16360 0.55322
 C1511 C 0.36537 0.18460 0.55210
 N1512 N 0.37294 0.17720 0.56619
 N1513 N 0.38777 0.18352 0.57281
 C1514 C 0.39572 0.19753 0.56565
 N1515 N 0.38816 0.20498 0.55154
 N1516 N 0.37331 0.19862 0.54488
 C1517 C 0.41215 0.20455 0.57329
 C1518 C 0.41965 0.22001 0.56711
 C1519 C 0.43481 0.22680 0.57485
 C1520 C 0.44277 0.21827 0.58891
 C1521 C 0.43548 0.20262 0.59481
 C1522 C 0.42036 0.19587 0.58712
 H1523 H 0.34805 0.19425 0.52243
 H1524 H 0.32157 0.18119 0.51006
 H1525 H 0.31881 0.14577 0.55313
 H1526 H 0.34530 0.15845 0.56527
 H1527 H 0.41367 0.22703 0.55648
 H1528 H 0.44003 0.23896 0.57011
 H1529 H 0.44150 0.19554 0.60538
 H1530 H 0.41509 0.18384 0.59212
 C1531 C 0.85261 0.67263 0.04478
 C1532 C 0.84508 0.67882 0.02936
 C1533 C 0.82982 0.67119 0.02265
 C1534 C 0.82180 0.65721 0.03122
 C1535 C 0.82916 0.65127 0.04678
 C1536 C 0.84436 0.65885 0.05346
 C1537 C 0.86904 0.68026 0.05183
 N1538 N 0.87668 0.67339 0.06615
 N1539 N 0.89144 0.68007 0.07256
 C1540 C 0.89925 0.69392 0.06495
 N1541 N 0.89163 0.70082 0.05061
 N1542 N 0.87684 0.69411 0.04416
 C1543 C 0.91555 0.70141 0.07240
 C1544 C 0.92320 0.71643 0.06538
 C1545 C 0.93820 0.72373 0.07294
 C1546 C 0.94583 0.71617 0.08769
 C1547 C 0.93841 0.70095 0.09446
 C1548 C 0.92347 0.69367 0.08693
 H1549 H 0.85109 0.68942 0.02235
 H1550 H 0.82453 0.67597 0.01057
 H1551 H 0.82310 0.64076 0.05388
 H1552 H 0.84965 0.65383 0.06544
 H1553 H 0.91746 0.72271 0.05419
 H1554 H 0.94355 0.73554 0.06752
 H1555 H 0.94418 0.69463 0.10562
 H1556 H 0.91806 0.68202 0.09262
 C1557 C 0.66322 0.67996 0.96259
 C1558 C 0.68032 0.68684 0.96061
 C1559 C 0.69505 0.67855 0.96808
 C1560 C 0.69306 0.66311 0.97758
 C1561 C 0.67592 0.65633 0.97962
 C1562 C 0.66119 0.66469 0.97230
 C1563 C 0.64765 0.68833 0.95421
 N1564 N 0.63088 0.68333 0.95819
 N1565 N 0.61690 0.69041 0.95025
 C1566 C 0.61908 0.70275 0.93793
 N1567 N 0.63584 0.70782 0.93401
 N1568 N 0.64983 0.70079 0.94200
 C1569 C 0.60357 0.71005 0.92857
 C1570 C 0.60601 0.71999 0.91355
 C1571 C 0.59139 0.72609 0.90419
 C1572 C 0.57401 0.72254 0.90972
 C1573 C 0.57152 0.71298 0.92495
 C1574 C 0.58615 0.70673 0.93423
 H1575 H 0.68233 0.69865 0.95330
 H1576 H 0.70800 0.68429 0.96646
 H1577 H 0.67389 0.64429 0.98654
 H1578 H 0.64824 0.65895 0.97398
 H1579 H 0.61923 0.72281 0.90883
 H1580 H 0.59368 0.73360 0.89260
 H1581 H 0.55827 0.70995 0.92943
 H1582 H 0.58379 0.69917 0.94577
 C1583 C 0.16210 0.18255 0.45379
 C1584 C 0.17492 0.17310 0.44417
 C1585 C 0.18987 0.16589 0.45219
 C1586 C 0.19229 0.16783 0.47003
 C1587 C 0.17966 0.17752 0.47962
 C1588 C 0.16476 0.18489 0.47157
 C1589 C 0.14583 0.18943 0.44535
 N1590 N 0.13466 0.20077 0.45368
 N1591 N 0.11989 0.20666 0.44611
 C1592 C 0.11564 0.20137 0.42994
 N1593 N 0.12682 0.19005 0.42164
 N1594 N 0.14160 0.18423 0.42916
 C1595 C 0.09922 0.20778 0.42144
 C1596 C 0.09330 0.19979 0.40625
 C1597 C 0.07810 0.20599 0.39791
 C1598 C 0.06850 0.22045 0.40442
 C1599 C 0.07424 0.22830 0.41977
 C1600 C 0.08941 0.22199 0.42821
 H1601 H 0.17333 0.17110 0.43044
 H1602 H 0.19927 0.15831 0.44450
 H1603 H 0.18127 0.17932 0.49338
 H1604 H 0.15516 0.19210 0.47935
 H1605 H 0.10040 0.18869 0.40078
 H1606 H 0.07385 0.19939 0.38634
 H1607 H 0.06728 0.23958 0.42503
 H1608 H 0.09364 0.22847 0.43987
 C1609 C 0.57082 0.09267 0.71875
 C1610 C 0.58246 0.09376 0.73280
 C1611 C 0.59102 0.07883 0.73914
 C1612 C 0.58816 0.06247 0.73158
 C1613 C 0.57617 0.06132 0.71783
 C1614 C 0.56759 0.07623 0.71150
 C1615 C 0.56265 0.10863 0.71126
 N1616 N 0.55130 0.10757 0.69777
 N1617 N 0.54459 0.12191 0.69051
 C1618 C 0.54895 0.13794 0.69640
 N1619 N 0.56019 0.13901 0.70998
 N1620 N 0.56689 0.12466 0.71725
 C1621 C 0.54212 0.15388 0.68775
 C1622 C 0.54751 0.17048 0.69310
 C1623 C 0.54177 0.18542 0.68432
 C1624 C 0.53053 0.18409 0.67000
 C1625 C 0.52483 0.16754 0.66491
 C1626 C 0.53055 0.15262 0.67366
 H1627 H 0.58517 0.10618 0.73878
 H1628 H 0.59996 0.08011 0.74993
 H1629 H 0.57384 0.04896 0.71157
 H1630 H 0.55872 0.07490 0.70066
 H1631 H 0.55642 0.17195 0.70389
 H1632 H 0.54651 0.19798 0.68848
 H1633 H 0.51591 0.16611 0.65412
 H1634 H 0.52602 0.14008 0.66925
 C1635 C 1.07123 0.60001 0.22643
 C1636 C 1.08519 0.60153 0.23826
 C1637 C 1.09382 0.58668 0.24471
 C1638 C 1.08867 0.56997 0.23950
 C1639 C 1.07436 0.56844 0.22808
 C1640 C 1.06575 0.58327 0.22163
 C1641 C 1.06297 0.61572 0.21853
 N1642 N 1.05016 0.61416 0.20640
 N1643 N 1.04341 0.62817 0.19858
 C1644 C 1.04915 0.64436 0.20255
 N1645 N 1.06182 0.64595 0.21483
 N1646 N 1.06858 0.63192 0.22264
 C1647 C 1.04234 0.65982 0.19308
 C1648 C 1.04821 0.67664 0.19711
 C1649 C 1.04258 0.69103 0.18741
 C1650 C 1.03105 0.68888 0.17343
 C1651 C 1.02484 0.67215 0.16968
 C1652 C 1.03038 0.65781 0.17940
 H1653 H 1.08970 0.61420 0.24233
 H1654 H 1.10462 0.58827 0.25370
 H1655 H 1.07020 0.55577 0.22366
 H1656 H 1.05503 0.58159 0.21256
 H1657 H 1.05739 0.67868 0.20758
 H1658 H 1.04767 0.70375 0.19053
 H1659 H 1.01571 0.67014 0.15915
 H1660 H 1.02550 0.64508 0.17596
 C1661 C 0.93718 0.90848 0.20659
 C1662 C 0.94409 0.91637 0.22144
 C1663 C 0.93515 0.93049 0.22926
 C1664 C 0.91902 0.93679 0.22249
 C1665 C 0.91224 0.92903 0.20757
 C1666 C 0.92123 0.91510 0.19968
 C1667 C 0.94620 0.89325 0.19839
 N1668 N 0.94084 0.88746 0.18275
 N1669 N 0.94839 0.87344 0.17552
 C1670 C 0.96163 0.86454 0.18363
 N1671 N 0.96710 0.87037 0.19925
 N1672 N 0.95956 0.88446 0.20647
 C1673 C 0.96942 0.84853 0.17572
 C1674 C 0.98121 0.83768 0.18493
 C1675 C 0.98768 0.82211 0.17764
 C1676 C 0.98249 0.81707 0.16100
 C1677 C 0.97108 0.82816 0.15166
 C1678 C 0.96460 0.84365 0.15893
 H1679 H 0.95638 0.91162 0.22704
 H1680 H 0.94062 0.93624 0.24078
 H1681 H 0.89997 0.93381 0.20195
 H1682 H 0.91551 0.90939 0.18825
 H1683 H 0.98518 0.84105 0.19790
 H1684 H 0.99638 0.81379 0.18519
 H1685 H 0.96715 0.82486 0.13866
 H1686 H 0.95570 0.85174 0.15138
 C1687 C 0.44017 0.40022 0.72305
 C1688 C 0.44534 0.41695 0.71788
 C1689 C 0.43629 0.43177 0.72410
 C1690 C 0.42190 0.43017 0.73563
 C1691 C 0.41714 0.41347 0.74121
 C1692 C 0.42613 0.39869 0.73497
 C1693 C 0.44878 0.38441 0.71552
 N1694 N 0.44198 0.36843 0.71859
 N1695 N 0.44906 0.35427 0.71116
 C1696 C 0.46328 0.35545 0.70036
 N1697 N 0.47022 0.37141 0.69744
 N1698 N 0.46311 0.38560 0.70484
 C1699 C 0.47045 0.33977 0.69137
 C1700 C 0.48632 0.34044 0.68170
 C1701 C 0.49247 0.32584 0.67247
 C1702 C 0.48279 0.31036 0.67259
 C1703 C 0.46715 0.30957 0.68253
 C1704 C 0.46109 0.32408 0.69187
 H1705 H 0.45608 0.41861 0.70870
 H1706 H 0.44019 0.44444 0.71944
 H1707 H 0.40636 0.41182 0.75035
 H1708 H 0.42190 0.38603 0.73937
 H1709 H 0.49388 0.35230 0.68109
 H1710 H 0.50452 0.32681 0.66483
 H1711 H 0.45955 0.29772 0.68300
 H1712 H 0.44885 0.32307 0.69920
 C1713 C 0.43189 0.59174 0.78856
 C1714 C 0.41463 0.58779 0.79421
 C1715 C 0.40664 0.57235 0.78917
 C1716 C 0.41571 0.56039 0.77841
 C1717 C 0.43282 0.56447 0.77240
 C1718 C 0.44083 0.58000 0.77742
 C1719 C 0.44053 0.60778 0.79476
 N1720 N 0.45647 0.61286 0.78830
 N1721 N 0.46430 0.62707 0.79435
 C1722 C 0.45654 0.63672 0.80714
 N1723 N 0.44060 0.63165 0.81351
 N1724 N 0.43276 0.61753 0.80744
 C1725 C 0.46535 0.65219 0.81442
 C1726 C 0.45879 0.65985 0.82972
 C1727 C 0.46713 0.67417 0.83695
 C1728 C 0.48217 0.68131 0.82902
 C1729 C 0.48864 0.67389 0.81358
 C1730 C 0.48037 0.65938 0.80640
 H1731 H 0.40726 0.59659 0.80264
 H1732 H 0.39329 0.56981 0.79369
 H1733 H 0.44017 0.55547 0.76417
 H1734 H 0.45414 0.58264 0.77284
 H1735 H 0.44726 0.65469 0.83626
 H1736 H 0.46170 0.67979 0.84872
 H1737 H 0.50025 0.67914 0.80724
 H1738 H 0.48572 0.65382 0.79457
 C1739 C -0.07228 0.09769 0.28008
 C1740 C -0.06274 0.08573 0.26965
 C1741 C -0.07030 0.06989 0.26487
 C1742 C -0.08752 0.06571 0.27046
 C1743 C -0.09719 0.07787 0.28049
 C1744 C -0.08967 0.09363 0.28525
 C1745 C -0.06412 0.11402 0.28616
 N1746 N -0.07270 0.12419 0.29801
 N1747 N -0.06524 0.13848 0.30415
 C1748 C -0.04886 0.14330 0.29870
 N1749 N -0.04030 0.13325 0.28670
 N1750 N -0.04776 0.11888 0.28057
 C1751 C -0.04039 0.15878 0.30634
 C1752 C -0.02477 0.16572 0.29922
 C1753 C -0.01664 0.18000 0.30701
 C1754 C -0.02385 0.18737 0.32216
 C1755 C -0.03956 0.18059 0.32908
 C1756 C -0.04777 0.16653 0.32124
 H1757 H -0.04932 0.08844 0.26544
 H1758 H -0.06250 0.06074 0.25719
 H1759 H -0.11064 0.07523 0.28466
 H1760 H -0.09750 0.10257 0.29314
 H1761 H -0.01879 0.16007 0.28772
 H1762 H -0.00451 0.18501 0.30146
 H1763 H -0.04552 0.18620 0.34063
 H1764 H -0.05977 0.16157 0.32708
 C1765 C 0.06640 0.41209 0.28867
 C1766 C 0.07277 0.41344 0.27163
 C1767 C 0.08216 0.42812 0.26636
 C1768 C 0.08535 0.44175 0.27802
 C1769 C 0.07838 0.44067 0.29483
 C1770 C 0.06906 0.42603 0.30010
 C1771 C 0.05785 0.39598 0.29489
 N1772 N 0.05445 0.39382 0.31196
 N1773 N 0.04773 0.37904 0.31785
 C1774 C 0.04405 0.36576 0.30693
 N1775 N 0.04722 0.36797 0.28979
 N1776 N 0.05401 0.38277 0.28390
 C1777 C 0.03756 0.34901 0.31380
 C1778 C 0.03081 0.33614 0.30280
 C1779 C 0.02540 0.32011 0.30946
 C1780 C 0.02692 0.31659 0.32716
 C1781 C 0.03342 0.32952 0.33814
 C1782 C 0.03859 0.34556 0.33156
 H1783 H 0.07096 0.40294 0.26250
 H1784 H 0.08745 0.42853 0.25334
 H1785 H 0.08028 0.45111 0.30401
 H1786 H 0.06418 0.42555 0.31326
 H1787 H 0.02979 0.33842 0.28906
 H1788 H 0.02044 0.31031 0.30074
 H1789 H 0.03451 0.32721 0.35187
 H1790 H 0.04372 0.35514 0.34041
 C1791 C 0.57235 0.89995 0.77454
 C1792 C 0.58894 0.89974 0.76605
 C1793 C 0.59703 0.91528 0.76133
 C1794 C 0.58875 0.93142 0.76498
 C1795 C 0.57198 0.93164 0.77308
 C1796 C 0.56386 0.91609 0.77779
 C1797 C 0.56441 0.88348 0.78062
 N1798 N 0.54838 0.88350 0.78880
 N1799 N 0.54174 0.86880 0.79507
 C1800 C 0.55087 0.85347 0.79345
 N1801 N 0.56681 0.85343 0.78511
 N1802 N 0.57342 0.86811 0.77883
 C1803 C 0.54411 0.83730 0.80142
 C1804 C 0.55477 0.82209 0.80167
 C1805 C 0.54911 0.80726 0.81040
 C1806 C 0.53262 0.80724 0.81900
 C1807 C 0.52164 0.82219 0.81822
 C1808 C 0.52735 0.83708 0.80957
 H1809 H 0.59588 0.88757 0.76334
 H1810 H 0.61005 0.91466 0.75530
 H1811 H 0.56517 0.94387 0.77587
 H1812 H 0.55106 0.91674 0.78425
 H1813 H 0.56771 0.82173 0.79547
 H1814 H 0.55774 0.79584 0.81059
 H1815 H 0.50891 0.82257 0.82484
 H1816 H 0.51877 0.84854 0.80959
 C1817 C 0.72277 0.56282 0.09981
 C1818 C 0.72058 0.55506 0.08360
 C1819 C 0.72638 0.56334 0.06859
 C1820 C 0.73448 0.57989 0.06918
 C1821 C 0.73699 0.58727 0.08577
 C1822 C 0.73127 0.57888 0.10072
 C1823 C 0.71563 0.55456 0.11563
 N1824 N 0.71850 0.56166 0.13141
 N1825 N 0.71127 0.55482 0.14554
 C1826 C 0.70085 0.54059 0.14449
 N1827 N 0.69814 0.53337 0.12873
 N1828 N 0.70539 0.54020 0.11461
 C1829 C 0.69178 0.53373 0.16003
 C1830 C 0.67899 0.52069 0.15848
 C1831 C 0.66928 0.51529 0.17288
 C1832 C 0.67221 0.52273 0.18916
 C1833 C 0.68547 0.53526 0.19087
 C1834 C 0.69512 0.54075 0.17644
 H1835 H 0.71402 0.54267 0.08242
 H1836 H 0.72331 0.55696 0.05658
 H1837 H 0.74402 0.59927 0.08764
 H1838 H 0.73343 0.58513 0.11304
 H1839 H 0.67612 0.51493 0.14607
 H1840 H 0.65931 0.50543 0.17124
 H1841 H 0.68792 0.54129 0.20325
 H1842 H 0.70492 0.55076 0.17811
 C1843 C 0.21625 1.06895 0.59654
 C1844 C 0.21058 1.06336 0.58021
 C1845 C 0.21669 1.07147 0.56522
 C1846 C 0.22857 1.08535 0.56621
 C1847 C 0.23451 1.09070 0.58250
 C1848 C 0.22843 1.08260 0.59748
 C1849 C 0.20910 1.06097 0.61249
 N1850 N 0.21411 1.06675 0.62827
 N1851 N 0.20718 1.06006 0.64261
 C1852 C 0.19492 1.04730 0.64179
 N1853 N 0.19001 1.04143 0.62601
 N1854 N 0.19694 1.04812 0.61167
 C1855 C 0.18662 1.04037 0.65770
 C1856 C 0.17355 1.02754 0.65671
 C1857 C 0.16505 1.02163 0.67161
 C1858 C 0.16940 1.02841 0.68787
 C1859 C 0.18276 1.04093 0.68893
 C1860 C 0.19127 1.04686 0.67402
 H1861 H 0.20121 1.05289 0.57900
 H1862 H 0.21174 1.06716 0.55287
 H1863 H 0.24389 1.10117 0.58366
 H1864 H 0.23315 1.08718 0.60981
 H1865 H 0.16971 1.02216 0.64439
 H1866 H 0.15504 1.01174 0.67040
 H1867 H 0.18630 1.04649 0.70126
 H1868 H 0.20128 1.05673 0.67527
 C1869 C 0.22152 0.93107 0.89982
 C1870 C 0.22878 0.94090 0.91320
 C1871 C 0.23513 0.93281 0.92815
 C1872 C 0.23434 0.91448 0.93039
 C1873 C 0.22683 0.90486 0.91665
 C1874 C 0.22070 0.91298 0.90172
 C1875 C 0.21453 0.93950 0.88403
 N1876 N 0.21038 0.92973 0.87005
 N1877 N 0.20355 0.93709 0.85601
 C1878 C 0.20052 0.95454 0.85533
 N1879 N 0.20477 0.96437 0.86926
 N1880 N 0.21167 0.95700 0.88331
 C1881 C 0.19209 0.96247 0.83994
 C1882 C 0.18591 0.97985 0.84020
 C1883 C 0.17681 0.98682 0.82606
 C1884 C 0.17376 0.97658 0.81136
 C1885 C 0.18047 0.95940 0.81091
 C1886 C 0.18949 0.95243 0.82502
 H1887 H 0.22979 0.95490 0.91204
 H1888 H 0.24128 0.94123 0.93745
 H1889 H 0.22462 0.89104 0.91739
 H1890 H 0.21488 0.90500 0.89178
 H1891 H 0.18767 0.98794 0.85149
 H1892 H 0.17166 1.00005 0.82687
 H1893 H 0.17865 0.95128 0.79964
 H1894 H 0.19424 0.93906 0.82429
 C1895 C 0.70549 0.44163 0.40801
 C1896 C 0.72138 0.44780 0.41506
 C1897 C 0.72963 0.43892 0.42867
 C1898 C 0.72227 0.42360 0.43528
 C1899 C 0.70632 0.41758 0.42836
 C1900 C 0.69798 0.42651 0.41496
 C1901 C 0.69686 0.45051 0.39326
 N1902 N 0.68025 0.44606 0.38841
 N1903 N 0.67265 0.45337 0.37472
 C1904 C 0.68134 0.46543 0.36523
 N1905 N 0.69793 0.47002 0.37013
 N1906 N 0.70552 0.46273 0.38389
 C1907 C 0.67307 0.47273 0.34946
 C1908 C 0.68282 0.48311 0.33796
 C1909 C 0.67524 0.48883 0.32249
 C1910 C 0.65780 0.48428 0.31822
 C1911 C 0.64790 0.47442 0.33000
 C1912 C 0.65544 0.46870 0.34539
 H1913 H 0.72746 0.45943 0.41002
 H1914 H 0.74196 0.44379 0.43378
 H1915 H 0.70025 0.40592 0.43339
 H1916 H 0.68577 0.42138 0.40987
 H1917 H 0.69643 0.48646 0.34070
 H1918 H 0.68322 0.49635 0.31363
 H1919 H 0.63429 0.47104 0.32726
 H1920 H 0.64746 0.46091 0.35401
 C1921 C 0.78471 0.43313 0.59203
 C1922 C 0.79037 0.41612 0.58776
 C1923 C 0.78508 0.40838 0.57239
 C1924 C 0.77408 0.41746 0.56080
 C1925 C 0.76809 0.43435 0.56519
 C1926 C 0.77334 0.44210 0.58067
 C1927 C 0.79117 0.44147 0.60800
 N1928 N 0.78435 0.45700 0.61360
 N1929 N 0.79062 0.46457 0.62776
 C1930 C 0.80401 0.45695 0.63684
 N1931 N 0.81075 0.44141 0.63126
 N1932 N 0.80445 0.43384 0.61718
 C1933 C 0.81154 0.46545 0.65226
 C1934 C 0.82769 0.45927 0.65909
 C1935 C 0.83515 0.46729 0.67340
 C1936 C 0.82660 0.48161 0.68133
 C1937 C 0.81032 0.48770 0.67472
 C1938 C 0.80291 0.47977 0.66022
 H1939 H 0.79897 0.40873 0.59628
 H1940 H 0.78958 0.39520 0.56961
 H1941 H 0.75970 0.44173 0.55648
 H1942 H 0.76877 0.45523 0.58356
 H1943 H 0.83472 0.44828 0.65331
 H1944 H 0.84758 0.46216 0.67839
 H1945 H 0.80350 0.49876 0.68061
 H1946 H 0.79043 0.48481 0.65529
 C1947 C 0.28944 -0.06040 0.08694
 C1948 C 0.27191 -0.06632 0.08569
 C1949 C 0.26639 -0.07524 0.07094
 C1950 C 0.27828 -0.07834 0.05715
 C1951 C 0.29555 -0.07178 0.05817
 C1952 C 0.30108 -0.06298 0.07288
 C1953 C 0.29596 -0.05230 0.10301
 N1954 N 0.31367 -0.05048 0.10546
 N1955 N 0.31979 -0.04386 0.12009
 C1956 C 0.30848 -0.03872 0.13290
 N1957 N 0.29072 -0.04038 0.13043
 N1958 N 0.28459 -0.04711 0.11579
 C1959 C 0.31557 -0.03174 0.14924
 C1960 C 0.30466 -0.02235 0.16088
 C1961 C 0.31174 -0.01551 0.17609
 C1962 C 0.32983 -0.01808 0.17999
 C1963 C 0.34056 -0.02782 0.16847
 C1964 C 0.33356 -0.03445 0.15327
 H1965 H 0.26262 -0.06456 0.09631
 H1966 H 0.25303 -0.08025 0.07060
 H1967 H 0.30491 -0.07360 0.04761
 H1968 H 0.31460 -0.05839 0.07330
 H1969 H 0.29074 -0.02002 0.15812
 H1970 H 0.30313 -0.00796 0.18460
 H1971 H 0.35441 -0.03049 0.17126
 H1972 H 0.34229 -0.04185 0.14472
 C1973 C 0.28603 0.06103 0.40919
 C1974 C 0.26878 0.06825 0.41047
 C1975 C 0.26323 0.07700 0.42548
 C1976 C 0.27479 0.07862 0.43955
 C1977 C 0.29175 0.07074 0.43850
 C1978 C 0.29732 0.06211 0.42350
 C1979 C 0.29268 0.05335 0.39278
 N1980 N 0.31037 0.05045 0.39034
 N1981 N 0.31664 0.04460 0.37528
 C1982 C 0.30550 0.04132 0.36201
 N1983 N 0.28777 0.04397 0.36449
 N1984 N 0.28149 0.04992 0.37956
 C1985 C 0.31276 0.03587 0.34500
 C1986 C 0.30186 0.02837 0.33241
 C1987 C 0.30885 0.02380 0.31619
 C1988 C 0.32674 0.02697 0.31221
 C1989 C 0.33762 0.03431 0.32482
 C1990 C 0.33075 0.03860 0.34106
 H1991 H 0.25976 0.06768 0.39967
 H1992 H 0.25014 0.08304 0.42581
 H1993 H 0.30083 0.07141 0.44924
 H1994 H 0.31061 0.05651 0.42304
 H1995 H 0.28796 0.02605 0.33511
 H1996 H 0.30023 0.01814 0.30664
 H1997 H 0.35152 0.03668 0.32211
 H1998 H 0.33951 0.04438 0.35042
 C1999 C 0.78514 0.55560 0.91125
 C2000 C 0.79653 0.55598 0.92553
 C2001 C 0.79140 0.56461 0.94067
 C2002 C 0.77478 0.57315 0.94189
 C2003 C 0.76306 0.57215 0.92789
 C2004 C 0.76818 0.56344 0.91273
 C2005 C 0.79149 0.54807 0.89465
 N2006 N 0.78028 0.54596 0.88115
 N2007 N 0.78639 0.54029 0.86592
 C2008 C 0.80396 0.53661 0.86354
 N2009 N 0.81509 0.53854 0.87709
 N2010 N 0.80899 0.54411 0.89231
 C2011 C 0.81114 0.53161 0.84637
 C2012 C 0.82939 0.53324 0.84288
 C2013 C 0.83624 0.52957 0.82650
 C2014 C 0.82507 0.52396 0.81327
 C2015 C 0.80691 0.52181 0.81677
 C2016 C 0.79995 0.52578 0.83317
 H2017 H 0.80960 0.54989 0.92494
 H2018 H 0.80057 0.56481 0.95136
 H2019 H 0.75021 0.57870 0.92840
 H2020 H 0.75909 0.56340 0.90197
 H2021 H 0.83838 0.53774 0.85272
 H2022 H 0.85033 0.53112 0.82415
 H2023 H 0.79807 0.51749 0.80673
 H2024 H 0.78585 0.52433 0.83549
 C2025 C 0.09120 0.71279 0.57199
 C2026 C 0.07402 0.70695 0.56831
 C2027 C 0.05915 0.71436 0.57660
 C2028 C 0.06115 0.72770 0.58882
 C2029 C 0.07827 0.73383 0.59219
 C2030 C 0.09312 0.72650 0.58384
 C2031 C 0.10708 0.70424 0.56405
 N2032 N 0.12360 0.71043 0.56696
 N2033 N 0.13795 0.70233 0.56047
 C2034 C 0.13640 0.68765 0.55083
 N2035 N 0.11987 0.68153 0.54781
 N2036 N 0.10552 0.68965 0.55427
 C2037 C 0.15242 0.67825 0.54420
 C2038 C 0.15091 0.66209 0.53583
 C2039 C 0.16607 0.65291 0.53018
 C2040 C 0.18308 0.65972 0.53270
 C2041 C 0.18459 0.67599 0.54082
 C2042 C 0.16945 0.68513 0.54655
 H2043 H 0.07204 0.69646 0.55920
 H2044 H 0.04612 0.70930 0.57383
 H2045 H 0.08019 0.74427 0.60137
 H2046 H 0.10613 0.73141 0.58692
 H2047 H 0.13802 0.65641 0.53376
 H2048 H 0.16447 0.64051 0.52375
 H2049 H 0.19753 0.68149 0.54308
 H2050 H 0.17111 0.69755 0.55293
 C2051 C 0.58916 0.22004 1.06097
 C2052 C 0.57186 0.21446 1.05736
 C2053 C 0.55723 0.22148 1.06633
 C2054 C 0.55958 0.23416 1.07916
 C2055 C 0.57678 0.24017 1.08235
 C2056 C 0.59140 0.23322 1.07334
 C2057 C 0.60482 0.21152 1.05260
 N2058 N 0.62151 0.21710 1.05583
 N2059 N 0.63565 0.20879 1.04917
 C2060 C 0.63372 0.19452 1.03903
 N2061 N 0.61702 0.18905 1.03564
 N2062 N 0.60288 0.19737 1.04228
 C2063 C 0.64948 0.18463 1.03249
 C2064 C 0.64743 0.16872 1.02379
 C2065 C 0.66228 0.15883 1.01861
 C2066 C 0.67953 0.16466 1.02193
 C2067 C 0.68161 0.18077 1.03021
 C2068 C 0.66675 0.19063 1.03548
 H2069 H 0.56963 0.20438 1.04787
 H2070 H 0.54414 0.21650 1.06369
 H2071 H 0.57895 0.25011 1.09200
 H2072 H 0.60450 0.23790 1.07640
 H2073 H 0.63434 0.16372 1.02121
 H2074 H 0.66028 0.14658 1.01202
 H2075 H 0.69474 0.18553 1.03305
 H2076 H 0.66882 0.20284 1.04213
 C2077 C 0.89433 0.20912 0.92437
 C2078 C 0.89665 0.20811 0.90646
 C2079 C 0.91111 0.21588 0.89838
 C2080 C 0.92400 0.22508 0.90790
 C2081 C 0.92144 0.22593 0.92605
 C2082 C 0.90687 0.21814 0.93407
 C2083 C 0.87895 0.20064 0.93277
 N2084 N 0.87612 0.20193 0.95006
 N2085 N 0.86231 0.19419 0.95748
 C2086 C 0.85076 0.18483 0.94793
 N2087 N 0.85361 0.18357 0.93066
 N2088 N 0.86738 0.19131 0.92325
 C2089 C 0.83544 0.17606 0.95610
 C2090 C 0.82425 0.16559 0.94617
 C2091 C 0.80989 0.15717 0.95377
 C2092 C 0.80630 0.15902 0.97149
 C2093 C 0.81744 0.16952 0.98145
 C2094 C 0.83185 0.17794 0.97384
 H2095 H 0.88737 0.20107 0.89855
 H2096 H 0.91236 0.21362 0.88468
 H2097 H 0.93008 0.23325 0.93432
 H2098 H 0.90541 0.21930 0.94794
 H2099 H 0.82664 0.16376 0.93249
 H2100 H 0.80177 0.14894 0.94579
 H2101 H 0.81491 0.17138 0.99510
 H2102 H 0.84015 0.18595 0.98186
 C2103 C 0.39710 0.70954 0.42930
 C2104 C 0.40203 0.70457 0.41246
 C2105 C 0.41642 0.71226 0.40419
 C2106 C 0.42623 0.72521 0.41249
 C2107 C 0.42146 0.73008 0.42941
 C2108 C 0.40704 0.72232 0.43774
 C2109 C 0.38161 0.70143 0.43785
 N2110 N 0.37759 0.70477 0.45466
 N2111 N 0.36367 0.69737 0.46224
 C2112 C 0.35316 0.68636 0.45330
 N2113 N 0.35717 0.68308 0.43649
 N2114 N 0.37109 0.69044 0.42894
 C2115 C 0.33778 0.67788 0.46167
 C2116 C 0.32628 0.66756 0.45191
 C2117 C 0.31206 0.65915 0.45977
 C2118 C 0.30900 0.66079 0.47760
 C2119 C 0.32035 0.67124 0.48736
 C2120 C 0.33456 0.67973 0.47948
 H2121 H 0.39480 0.69467 0.40561
 H2122 H 0.41998 0.70793 0.39130
 H2123 H 0.42866 0.74012 0.43609
 H2124 H 0.40359 0.72647 0.45071
 H2125 H 0.32833 0.66584 0.43817
 H2126 H 0.30369 0.65101 0.45194
 H2127 H 0.31821 0.67288 0.50110
 H2128 H 0.34312 0.68761 0.48738
 C2129 C 0.58989 0.78563 0.42336
 C2130 C 0.58560 0.79021 0.40633
 C2131 C 0.56969 0.78494 0.39902
 C2132 C 0.55760 0.77497 0.40852
 C2133 C 0.56206 0.76989 0.42538
 C2134 C 0.57804 0.77520 0.43275
 C2135 C 0.60631 0.79232 0.43130
 N2136 N 0.61113 0.78777 0.44757
 N2137 N 0.62555 0.79447 0.45477
 C2138 C 0.63570 0.80603 0.44602
 N2139 N 0.63093 0.81043 0.42973
 N2140 N 0.61658 0.80373 0.42254
 C2141 C 0.65129 0.81423 0.45412
 C2142 C 0.65958 0.82828 0.44593
 C2143 C 0.67379 0.83661 0.45366
 C2144 C 0.68017 0.83106 0.46973
 C2145 C 0.67221 0.81677 0.47782
 C2146 C 0.65782 0.80849 0.47013
 H2147 H 0.59444 0.79807 0.39863
 H2148 H 0.56682 0.78873 0.38587
 H2149 H 0.55297 0.76224 0.43301
 H2150 H 0.58094 0.77142 0.44589
 H2151 H 0.65496 0.83306 0.43359
 H2152 H 0.67986 0.84742 0.44702
 H2153 H 0.67688 0.81227 0.49024
 H2154 H 0.65176 0.79767 0.47675
 C2155 C 0.08553 0.28699 -0.07432
 C2156 C 0.08151 0.29188 -0.09133
 C2157 C 0.06599 0.28629 -0.09915
 C2158 C 0.05401 0.27571 -0.09019
 C2159 C 0.05822 0.27035 -0.07336
 C2160 C 0.07383 0.27596 -0.06548
 C2161 C 0.10155 0.29395 -0.06586
 N2162 N 0.10644 0.28872 -0.04981
 N2163 N 0.12054 0.29554 -0.04216
 C2164 C 0.13029 0.30791 -0.05022
 N2165 N 0.12543 0.31303 -0.06627
 N2166 N 0.11140 0.30619 -0.07392
 C2167 C 0.14561 0.31608 -0.04165
 C2168 C 0.15341 0.33087 -0.04898
 C2169 C 0.16755 0.33899 -0.04089
 C2170 C 0.17434 0.33248 -0.02533
 C2171 C 0.16679 0.31754 -0.01807
 C2172 C 0.15247 0.30948 -0.02610
 H2173 H 0.09028 0.30019 -0.09862
 H2174 H 0.06335 0.29029 -0.11229
 H2175 H 0.04921 0.26223 -0.06613
 H2176 H 0.07654 0.27194 -0.05237
 H2177 H 0.14851 0.33633 -0.06093
 H2178 H 0.17329 0.35033 -0.04690
 H2179 H 0.17176 0.31231 -0.00604
 H2180 H 0.14678 0.29809 -0.02014
 C2181 C 0.39330 0.28202 0.07454
 C2182 C 0.40734 0.27482 0.06465
 C2183 C 0.42348 0.27020 0.07240
 C2184 C 0.42595 0.27296 0.09013
 C2185 C 0.41188 0.27997 0.10004
 C2186 C 0.39570 0.28436 0.09236
 C2187 C 0.37644 0.28761 0.06635
 N2188 N 0.36179 0.29120 0.07614
 N2189 N 0.34684 0.29702 0.06893
 C2190 C 0.34591 0.29960 0.05163
 N2191 N 0.36052 0.29589 0.04181
 N2192 N 0.37546 0.28997 0.04902
 C2193 C 0.32960 0.30718 0.04387
 C2194 C 0.32994 0.31413 0.02712
 C2195 C 0.31496 0.32271 0.02045
 C2196 C 0.29929 0.32442 0.03034
 C2197 C 0.29875 0.31680 0.04681
 C2198 C 0.31374 0.30835 0.05352
 H2199 H 0.40589 0.27280 0.05090
 H2200 H 0.43417 0.26488 0.06448
 H2201 H 0.41340 0.28205 0.11377
 H2202 H 0.38518 0.28990 0.10035
 H2203 H 0.34195 0.31348 0.01936
 H2204 H 0.31591 0.32858 0.00780
 H2205 H 0.28678 0.31752 0.05462
 H2206 H 0.31296 0.30294 0.06639
 C2207 C 0.90172 0.78734 0.56940
 C2208 C 0.91737 0.79709 0.56883
 C2209 C 0.93238 0.79170 0.57798
 C2210 C 0.93217 0.77638 0.58783
 C2211 C 0.91671 0.76637 0.58809
 C2212 C 0.90161 0.77182 0.57902
 C2213 C 0.88553 0.79367 0.56041
 N2214 N 0.86973 0.78558 0.56247
 N2215 N 0.85509 0.79175 0.55488
 C2216 C 0.85565 0.80626 0.54490
 N2217 N 0.87148 0.81424 0.54275
 N2218 N 0.88608 0.80810 0.55034
 C2219 C 0.83931 0.81362 0.53694
 C2220 C 0.84025 0.82845 0.52640
 C2221 C 0.82488 0.83593 0.51945
 C2222 C 0.80814 0.82877 0.52283
 C2223 C 0.80718 0.81381 0.53319
 C2224 C 0.82260 0.80628 0.54014
 H2225 H 0.91797 0.80906 0.56153
 H2226 H 0.94420 0.79955 0.57735
 H2227 H 0.91614 0.75457 0.59568
 H2228 H 0.88980 0.76398 0.57971
 H2229 H 0.85287 0.83449 0.52367
 H2230 H 0.82607 0.84762 0.51177
 H2231 H 0.79449 0.80790 0.53590
 H2232 H 0.82139 0.79484 0.54817
   
