data_POSCAR
  _audit_creation_date              2014-09-24
  _audit_creation_method            'ToBaCCo'
  _symmetry_space_group_name_H-M    'P1'
  _symmetry_Int_Tables_number       1
  _symmetry_cell_setting            triclinic
  loop_
  _symmetry_equiv_pos_as_xyz
 x,y,z
_cell_length_a 67.6268
_cell_length_b 67.6372
_cell_length_c 67.6334
_cell_angle_alpha 90.002300
_cell_angle_beta 89.997200
_cell_angle_gamma 89.971900
loop_
  _atom_site_label
  _atom_site_type_symbol
  _atom_site_fract_x
  _atom_site_fract_y
  _atom_site_fract_z
C1 C 0.20531 0.19587 0.22459
 C2 C 0.18928 0.19916 0.23734
 C3 C 0.17649 0.21514 0.23414
 C4 C 0.17962 0.22796 0.21817
 C5 C 0.19557 0.22489 0.20527
 C6 C 0.20849 0.20878 0.20847
 C7 C 0.21820 0.17991 0.22764
 C8 C 0.23415 0.17676 0.21481
 C9 C 0.23735 0.18954 0.19882
 C10 C 0.22460 0.20557 0.19554
 C11 C 0.22765 0.21846 0.17958
 C12 C 0.21481 0.23442 0.17645
 C13 C 0.19884 0.23763 0.18924
 H14 H 0.18673 0.18932 0.24975
 H15 H 0.16963 0.24029 0.21583
 H16 H 0.21586 0.16993 0.23998
 H17 H 0.24974 0.18696 0.18897
 H18 H 0.23997 0.21610 0.16958
 H19 H 0.18899 0.25003 0.18668
 C20 C 0.70543 0.69562 0.72445
 C21 C 0.68939 0.69887 0.73721
 C22 C 0.67657 0.71483 0.73402
 C23 C 0.67967 0.72767 0.71806
 C24 C 0.69563 0.72464 0.70516
 C25 C 0.70859 0.70855 0.70835
 C26 C 0.71835 0.67969 0.72750
 C27 C 0.73431 0.67658 0.71466
 C28 C 0.73749 0.68937 0.69869
 C29 C 0.72470 0.70538 0.69542
 C30 C 0.72773 0.71829 0.67946
 C31 C 0.71486 0.73422 0.67634
 C32 C 0.69888 0.73740 0.68913
 H33 H 0.68686 0.68902 0.74960
 H34 H 0.66966 0.73998 0.71572
 H35 H 0.71603 0.66969 0.73983
 H36 H 0.74989 0.68684 0.68883
 H37 H 0.74006 0.71596 0.66947
 H38 H 0.68900 0.74978 0.68658
 C39 C 0.29401 0.80454 0.72496
 C40 C 0.31003 0.80125 0.73772
 C41 C 0.32280 0.78525 0.73453
 C42 C 0.31967 0.77242 0.71858
 C43 C 0.30373 0.77549 0.70568
 C44 C 0.29082 0.79162 0.70885
 C45 C 0.28113 0.82052 0.72800
 C46 C 0.26517 0.82368 0.71515
 C47 C 0.26198 0.81087 0.69917
 C48 C 0.27472 0.79482 0.69592
 C49 C 0.27167 0.78192 0.67996
 C50 C 0.28449 0.76595 0.67685
 C51 C 0.30046 0.76274 0.68965
 H52 H 0.31259 0.81110 0.75011
 H53 H 0.32965 0.76008 0.71625
 H54 H 0.28352 0.83049 0.74034
 H55 H 0.24960 0.81340 0.68927
 H56 H 0.25935 0.78428 0.66996
 H57 H 0.31030 0.75033 0.68711
 C58 C 0.79499 0.30428 0.22477
 C59 C 0.81099 0.30104 0.23757
 C60 C 0.82382 0.28505 0.23444
 C61 C 0.82072 0.27218 0.21848
 C62 C 0.80479 0.27521 0.20555
 C63 C 0.79185 0.29132 0.20868
 C64 C 0.78207 0.32024 0.22777
 C65 C 0.76614 0.32333 0.21489
 C66 C 0.76299 0.31052 0.19893
 C67 C 0.77577 0.29449 0.19572
 C68 C 0.77276 0.28156 0.17978
 C69 C 0.78561 0.26561 0.17671
 C70 C 0.80156 0.26243 0.18953
 H71 H 0.81347 0.31095 0.24995
 H72 H 0.83071 0.25983 0.21614
 H73 H 0.78438 0.33025 0.24008
 H74 H 0.75062 0.31305 0.18905
 H75 H 0.76045 0.28388 0.16976
 H76 H 0.81142 0.25003 0.18702
 C77 C 0.79513 0.69594 0.27475
 C78 C 0.81116 0.69916 0.26200
 C79 C 0.82398 0.71514 0.26515
 C80 C 0.82084 0.72801 0.28110
 C81 C 0.80487 0.72500 0.29399
 C82 C 0.79194 0.70890 0.29083
 C83 C 0.78222 0.67999 0.27173
 C84 C 0.76625 0.67691 0.28457
 C85 C 0.76306 0.68974 0.30051
 C86 C 0.77582 0.70576 0.30375
 C87 C 0.77277 0.71869 0.31968
 C88 C 0.78561 0.73464 0.32278
 C89 C 0.80160 0.73779 0.31000
 H90 H 0.81367 0.68925 0.24963
 H91 H 0.83081 0.74036 0.28346
 H92 H 0.78455 0.66997 0.25943
 H93 H 0.75065 0.68722 0.31036
 H94 H 0.76043 0.71638 0.32967
 H95 H 0.81145 0.75018 0.31253
 C96 C 0.29513 0.19606 -0.22498
 C97 C 0.31119 0.19929 -0.23770
 C98 C 0.32396 0.21530 -0.23453
 C99 C 0.32075 0.22820 -0.21862
 C100 C 0.30476 0.22517 -0.20576
 C101 C 0.29187 0.20904 -0.20893
 C102 C 0.28226 0.18007 -0.22801
 C103 C 0.26627 0.17698 -0.21521
 C104 C 0.26301 0.18982 -0.19929
 C105 C 0.27572 0.20588 -0.19605
 C106 C 0.27260 0.21883 -0.18015
 C107 C 0.28540 0.23481 -0.17704
 C108 C 0.30141 0.23798 -0.18979
 H109 H 0.31376 0.18936 -0.25004
 H110 H 0.33069 0.24057 -0.21624
 H111 H 0.28466 0.17004 -0.24029
 H112 H 0.25058 0.18729 -0.18947
 H113 H 0.26024 0.21651 -0.17019
 H114 H 0.31123 0.25039 -0.18724
 C115 C 0.70516 0.30395 -0.22493
 C116 C 0.68912 0.30069 -0.23767
 C117 C 0.67634 0.28470 -0.23450
 C118 C 0.67950 0.27184 -0.21855
 C119 C 0.69546 0.27489 -0.20566
 C120 C 0.70837 0.29100 -0.20884
 C121 C 0.71805 0.31991 -0.22796
 C122 C 0.73401 0.32302 -0.21513
 C123 C 0.73723 0.31021 -0.19918
 C124 C 0.72449 0.29418 -0.19592
 C125 C 0.72756 0.28126 -0.17999
 C126 C 0.71475 0.26530 -0.17687
 C127 C 0.69876 0.26211 -0.18965
 H128 H 0.68660 0.31060 -0.25005
 H129 H 0.66954 0.25949 -0.21617
 H130 H 0.71569 0.32992 -0.24027
 H131 H 0.74963 0.31276 -0.18933
 H132 H 0.73990 0.28360 -0.17000
 H133 H 0.68892 0.24971 -0.18711
 C134 C 0.20563 0.80460 0.27493
 C135 C 0.18962 0.80132 0.26215
 C136 C 0.17685 0.78533 0.26532
 C137 C 0.17997 0.77250 0.28128
 C138 C 0.19590 0.77556 0.29420
 C139 C 0.20881 0.79168 0.29104
 C140 C 0.21851 0.82057 0.27190
 C141 C 0.23445 0.82372 0.28477
 C142 C 0.23763 0.81091 0.30076
 C143 C 0.22489 0.79488 0.30399
 C144 C 0.22792 0.78197 0.31995
 C145 C 0.21510 0.76601 0.32305
 C146 C 0.19915 0.76281 0.31023
 H147 H 0.18707 0.81117 0.24975
 H148 H 0.16999 0.76016 0.28360
 H149 H 0.21613 0.83054 0.25955
 H150 H 0.25000 0.81343 0.31066
 H151 H 0.24023 0.78432 0.32997
 H152 H 0.18931 0.75040 0.31276
 C153 C 0.44598 0.45541 0.47497
 C154 C 0.44924 0.43937 0.48772
 C155 C 0.46522 0.42658 0.48453
 C156 C 0.47807 0.42971 0.46859
 C157 C 0.47503 0.44567 0.45569
 C158 C 0.45892 0.45859 0.45887
 C159 C 0.43001 0.46831 0.47801
 C160 C 0.42690 0.48426 0.46517
 C161 C 0.43970 0.48746 0.44921
 C162 C 0.45574 0.47471 0.44595
 C163 C 0.46865 0.47775 0.43000
 C164 C 0.48460 0.46492 0.42688
 C165 C 0.48779 0.44894 0.43967
 H166 H 0.43938 0.43682 0.50010
 H167 H 0.49040 0.41971 0.46625
 H168 H 0.42001 0.46597 0.49032
 H169 H 0.43715 0.49986 0.43936
 H170 H 0.46631 0.49008 0.42001
 H171 H 0.50020 0.43908 0.43712
 C172 C -0.05446 -0.04446 0.97473
 C173 C -0.05124 -0.06053 0.98744
 C174 C -0.03527 -0.07334 0.98426
 C175 C -0.02239 -0.07019 0.96835
 C176 C -0.02538 -0.05420 0.95549
 C177 C -0.04148 -0.04125 0.95867
 C178 C -0.07041 -0.03154 0.97778
 C179 C -0.07348 -0.01553 0.96498
 C180 C -0.06063 -0.01232 0.94904
 C181 C -0.04461 -0.02510 0.94579
 C182 C -0.03165 -0.02203 0.92988
 C183 C -0.01571 -0.03489 0.92676
 C184 C -0.01258 -0.05091 0.93951
 H185 H -0.06113 -0.06311 0.99981
 H186 H -0.01007 -0.08020 0.96601
 H187 H -0.08042 -0.03395 0.99009
 H188 H -0.06309 0.00010 0.93918
 H189 H -0.03395 -0.00967 0.91991
 H190 H -0.00019 -0.06077 0.93696
 C191 C 1.05426 0.54454 0.97530
 C192 C 1.05098 0.56057 0.98806
 C193 C 1.03498 0.57337 0.98488
 C194 C 1.02213 0.57022 0.96892
 C195 C 1.02520 0.55426 0.95603
 C196 C 1.04132 0.54135 0.95921
 C197 C 1.07023 0.53166 0.97835
 C198 C 1.07338 0.51569 0.96550
 C199 C 1.06056 0.51250 0.94953
 C200 C 1.04452 0.52524 0.94628
 C201 C 1.03161 0.52219 0.93033
 C202 C 1.01564 0.53501 0.92722
 C203 C 1.01244 0.55098 0.94001
 H204 H 1.06087 0.56309 1.00044
 H205 H 1.00977 0.58018 0.96654
 H206 H 1.08021 0.53405 0.99068
 H207 H 1.06308 0.50011 0.93964
 H208 H 1.03396 0.50986 0.92034
 H209 H 1.00003 0.56082 0.93746
 C210 C 0.55446 0.04410 0.47506
 C211 C 0.55121 0.06010 0.48785
 C212 C 0.53521 0.07288 0.48473
 C213 C 0.52232 0.06977 0.46882
 C214 C 0.52535 0.05384 0.45588
 C215 C 0.54149 0.04092 0.45900
 C216 C 0.57045 0.03121 0.47805
 C217 C 0.57356 0.01526 0.46517
 C218 C 0.56070 0.01209 0.44922
 C219 C 0.54465 0.02484 0.44604
 C220 C 0.53170 0.02180 0.43012
 C221 C 0.51571 0.03463 0.42707
 C222 C 0.51254 0.05058 0.43990
 H223 H 0.56110 0.06265 0.50022
 H224 H 0.50997 0.07975 0.46653
 H225 H 0.58046 0.03359 0.49036
 H226 H 0.56320 -0.00028 0.43931
 H227 H 0.53402 0.00949 0.42010
 H228 H 0.50012 0.06042 0.43740
 C229 C -0.05433 0.04493 0.52547
 C230 C -0.05109 0.06098 0.51273
 C231 C -0.03511 0.07376 0.51592
 C232 C -0.02225 0.07062 0.53185
 C233 C -0.02527 0.05465 0.54473
 C234 C -0.04138 0.04173 0.54156
 C235 C -0.07028 0.03204 0.52243
 C236 C -0.07338 0.01607 0.53525
 C237 C -0.06056 0.01286 0.55120
 C238 C -0.04454 0.02561 0.55447
 C239 C -0.03161 0.02254 0.57040
 C240 C -0.01566 0.03538 0.57351
 C241 C -0.01249 0.05137 0.56074
 H242 H -0.06096 0.06354 0.50035
 H243 H -0.00993 0.08061 0.53418
 H244 H -0.08029 0.03439 0.51012
 H245 H -0.06309 0.00045 0.56104
 H246 H -0.03393 0.01021 0.58038
 H247 H -0.00010 0.06122 0.56328
 C248 C 0.44563 0.54504 0.02502
 C249 C 0.44892 0.56105 0.01225
 C250 C 0.46493 0.57382 0.01542
 C251 C 0.47778 0.57067 0.03138
 C252 C 0.47470 0.55473 0.04429
 C253 C 0.45856 0.54184 0.04113
 C254 C 0.42965 0.53218 0.02200
 C255 C 0.42650 0.51624 0.03485
 C256 C 0.43929 0.51304 0.05082
 C257 C 0.45535 0.52575 0.05407
 C258 C 0.46825 0.52268 0.07002
 C259 C 0.48423 0.53548 0.07312
 C260 C 0.48745 0.55144 0.06032
 H261 H 0.43903 0.56357 -0.00013
 H262 H 0.49015 0.58061 0.03375
 H263 H 0.41966 0.53453 0.00968
 H264 H 0.43672 0.50065 0.06068
 H265 H 0.46589 0.51037 0.08002
 H266 H 0.49987 0.56126 0.06286
 C267 C 0.55445 -0.04483 0.02558
 C268 C 0.55118 -0.06084 0.01281
 C269 C 0.53519 -0.07362 0.01599
 C270 C 0.52235 -0.07049 0.03194
 C271 C 0.52540 -0.05455 0.04485
 C272 C 0.54152 -0.04164 0.04168
 C273 C 0.57042 -0.03194 0.02255
 C274 C 0.57354 -0.01601 0.03540
 C275 C 0.56075 -0.01281 0.05137
 C276 C 0.54471 -0.02555 0.05463
 C277 C 0.53180 -0.02250 0.07058
 C278 C 0.51584 -0.03533 0.07368
 C279 C 0.51265 -0.05129 0.06088
 H280 H 0.56103 -0.06340 0.00041
 H281 H 0.51002 -0.08047 0.03426
 H282 H 0.58041 -0.03428 0.01022
 H283 H 0.56330 -0.00043 0.06123
 H284 H 0.53415 -0.01019 0.08058
 H285 H 0.50024 -0.06113 0.06342
 C286 C 1.05410 0.45518 0.52479
 C287 C 1.05080 0.43920 0.51198
 C288 C 1.03483 0.42639 0.51518
 C289 C 1.02204 0.42947 0.53120
 C290 C 1.02514 0.44538 0.54414
 C291 C 1.04123 0.45831 0.54095
 C292 C 1.07004 0.46810 0.52173
 C293 C 1.07320 0.48400 0.53461
 C294 C 1.06046 0.48714 0.55064
 C295 C 1.04445 0.47438 0.55392
 C296 C 1.03160 0.47737 0.56993
 C297 C 1.01566 0.46453 0.57306
 C298 C 1.01243 0.44860 0.56023
 H299 H 1.06065 0.43674 0.49955
 H300 H 1.00971 0.41949 0.53360
 H301 H 1.08000 0.46580 0.50937
 H302 H 1.06304 0.49950 0.56053
 H303 H 1.03397 0.48966 0.57995
 H304 H 1.00005 0.43874 0.56279
 C305 C 0.40500 0.00892 0.22379
 H306 H 0.40578 0.02232 0.23248
 C307 C 0.41794 0.00613 0.20793
 H308 H 0.42869 0.01743 0.20433
 C309 C 0.39023 -0.02236 0.21799
 H310 H 0.37965 -0.03356 0.22214
 C311 C 0.40290 -0.02574 0.20203
 H312 H 0.40190 -0.03945 0.19381
 N313 N 0.39135 -0.00514 0.22836
 C314 C 0.34447 0.02639 0.25955
 H315 H 0.34364 0.01772 0.27297
 C316 C 0.33160 0.04230 0.25672
 H317 H 0.32085 0.04598 0.26801
 C318 C 0.35929 0.03205 0.22827
 H319 H 0.36987 0.02784 0.21707
 C320 C 0.34669 0.04807 0.22485
 H321 H 0.34775 0.05626 0.21112
 Zn322 Zn 0.37468 -0.00033 0.25034
 N323 N 0.35812 0.02173 0.24551
 C324 C 0.39014 0.02167 0.28275
 N325 N 0.39125 0.00443 0.27241
 C326 C 0.40484 -0.00967 0.27705
 C327 C 0.41773 -0.00691 0.29294
 C328 C 0.40276 0.02502 0.29875
 C329 C 0.34445 -0.02692 0.24096
 C330 C 0.33153 -0.04279 0.24370
 C331 C 0.34645 -0.04866 0.27564
 C332 C 0.35910 -0.03268 0.27231
 N333 N 0.35803 -0.02233 0.25508
 H334 H 0.37960 0.03290 0.27855
 H335 H 0.40562 -0.02309 0.26837
 H336 H 0.42845 -0.01824 0.29660
 H337 H 0.40177 0.03875 0.30695
 H338 H 0.34370 -0.01823 0.22755
 H339 H 0.32083 -0.04642 0.23235
 H340 H 0.34742 -0.05688 0.28935
 H341 H 0.36963 -0.02853 0.28356
 C342 C 0.33277 0.05325 0.23923
 C343 C 0.41683 -0.01134 0.19694
 C344 C 0.33259 -0.05378 0.26118
 C345 C 0.41664 0.01058 0.30391
 C346 C 0.09517 -0.00916 0.72354
 H347 H 0.09437 -0.02256 0.73223
 C348 C 0.08225 -0.00636 0.70768
 H349 H 0.07149 -0.01766 0.70406
 C350 C 0.10995 0.02211 0.71777
 H351 H 0.12054 0.03331 0.72192
 C352 C 0.09730 0.02550 0.70180
 H353 H 0.09832 0.03921 0.69358
 N354 N 0.10882 0.00489 0.72813
 C355 C 0.15565 -0.02665 0.75938
 H356 H 0.15647 -0.01798 0.77279
 C357 C 0.16850 -0.04258 0.75659
 H358 H 0.17924 -0.04625 0.76789
 C359 C 0.14086 -0.03234 0.72809
 H360 H 0.13030 -0.02813 0.71688
 C361 C 0.15345 -0.04836 0.72470
 H362 H 0.15240 -0.05657 0.71098
 Zn363 Zn 0.12546 0.00007 0.75013
 N364 N 0.14202 -0.02199 0.74532
 C365 C 0.10995 -0.02190 0.78252
 N366 N 0.10886 -0.00467 0.77217
 C367 C 0.09527 0.00944 0.77680
 C368 C 0.08237 0.00669 0.79268
 C369 C 0.09731 -0.02525 0.79851
 C370 C 0.15572 0.02665 0.74078
 C371 C 0.16864 0.04251 0.74352
 C372 C 0.15369 0.04840 0.77544
 C373 C 0.14104 0.03243 0.77211
 N374 N 0.14212 0.02206 0.75488
 H375 H 0.12049 -0.03315 0.77834
 H376 H 0.09451 0.02286 0.76812
 H377 H 0.07165 0.01803 0.79633
 H378 H 0.09829 -0.03897 0.80671
 H379 H 0.15648 0.01795 0.72737
 H380 H 0.17935 0.04613 0.73218
 H381 H 0.15270 0.05663 0.78916
 H382 H 0.13049 0.02828 0.78335
 C383 C 0.16734 -0.05355 0.73910
 C384 C 0.08337 0.01111 0.69669
 C385 C 0.16756 0.05351 0.76100
 C386 C 0.08344 -0.01080 0.80365
 C387 C 0.59493 0.49094 0.22326
 H388 H 0.59416 0.47752 0.23194
 C389 C 0.58201 0.49373 0.20740
 H390 H 0.57128 0.48241 0.20376
 C391 C 0.60965 0.52225 0.21754
 H392 H 0.62021 0.53346 0.22171
 C393 C 0.59700 0.52563 0.20156
 H394 H 0.59799 0.53936 0.19336
 N395 N 0.60855 0.50501 0.22787
 C396 C 0.65546 0.47357 0.25909
 H397 H 0.65627 0.48226 0.27250
 C398 C 0.66837 0.45769 0.25629
 H399 H 0.67912 0.45405 0.26759
 C400 C 0.64066 0.46783 0.22781
 H401 H 0.63008 0.47200 0.21661
 C402 C 0.65330 0.45183 0.22442
 H403 H 0.65226 0.44362 0.21071
 Zn404 Zn 0.62520 0.50021 0.24986
 N405 N 0.64181 0.47818 0.24504
 C406 C 0.60978 0.47817 0.28224
 N407 N 0.60864 0.49542 0.27192
 C408 C 0.59503 0.50949 0.27660
 C409 C 0.58217 0.50670 0.29250
 C410 C 0.59718 0.47478 0.29826
 C411 C 0.65542 0.52682 0.24051
 C412 C 0.66834 0.54269 0.24325
 C413 C 0.65340 0.54856 0.27518
 C414 C 0.64075 0.53258 0.27185
 N415 N 0.64183 0.52222 0.25462
 H416 H 0.62032 0.46695 0.27802
 H417 H 0.59423 0.52292 0.26794
 H418 H 0.57144 0.51802 0.29619
 H419 H 0.59820 0.46105 0.30644
 H420 H 0.65618 0.51813 0.22710
 H421 H 0.67905 0.54631 0.23191
 H422 H 0.65242 0.55678 0.28890
 H423 H 0.63021 0.52842 0.28309
 C424 C 0.66722 0.44670 0.23882
 C425 C 0.58310 0.51122 0.19643
 C426 C 0.66727 0.55368 0.26073
 C427 C 0.58330 0.48920 0.30345
 C428 C 0.90541 0.50889 0.72357
 H429 H 0.90621 0.52231 0.73224
 C430 C 0.91831 0.50607 0.70770
 H431 H 0.92906 0.51738 0.70405
 C432 C 0.89063 0.47760 0.71785
 H433 H 0.88005 0.46641 0.72203
 C434 C 0.90327 0.47420 0.70187
 H435 H 0.90224 0.46048 0.69366
 N436 N 0.89176 0.49484 0.72819
 C437 C 0.84488 0.52641 0.75933
 H438 H 0.84405 0.51775 0.77276
 C439 C 0.83201 0.54231 0.75649
 H440 H 0.82125 0.54599 0.76778
 C441 C 0.85971 0.53206 0.72805
 H442 H 0.87029 0.52784 0.71686
 C443 C 0.84710 0.54806 0.72462
 H444 H 0.84816 0.55624 0.71088
 Zn445 Zn 0.87510 0.49969 0.75016
 N446 N 0.85854 0.52174 0.74530
 C447 C 0.89054 0.52174 0.78253
 N448 N 0.89166 0.50448 0.77223
 C449 C 0.90524 0.49039 0.77692
 C450 C 0.91810 0.49318 0.79283
 C451 C 0.90313 0.52512 0.79855
 C452 C 0.84485 0.47312 0.74082
 C453 C 0.83191 0.45727 0.74356
 C454 C 0.84683 0.45140 0.77550
 C455 C 0.85950 0.46736 0.77216
 N456 N 0.85844 0.47771 0.75493
 H457 H 0.88002 0.53298 0.77830
 H458 H 0.90603 0.47696 0.76827
 H459 H 0.92881 0.48185 0.79653
 H460 H 0.90213 0.53887 0.80672
 H461 H 0.84411 0.48180 0.72740
 H462 H 0.82121 0.45365 0.73221
 H463 H 0.84779 0.44319 0.78922
 H464 H 0.87004 0.47152 0.78341
 C465 C 0.83318 0.55325 0.73899
 C466 C 0.91718 0.48859 0.69672
 C467 C 0.83296 0.44629 0.76105
 C468 C 0.91699 0.51069 0.80376
 C469 C 0.22290 0.40572 0.00919
 H470 H 0.23160 0.40648 0.02259
 C471 C 0.20700 0.41862 0.00647
 H472 H 0.20336 0.42931 0.01783
 C473 C 0.21715 0.39108 -0.02216
 H474 H 0.22133 0.38056 -0.03342
 C475 C 0.20114 0.40371 -0.02547
 H476 H 0.19291 0.40274 -0.03919
 N477 N 0.22752 0.39215 -0.00494
 C478 C 0.25894 0.34526 0.02632
 H479 H 0.27235 0.34451 0.01763
 C480 C 0.25620 0.33231 0.04217
 H481 H 0.26755 0.32159 0.04578
 C482 C 0.22761 0.35993 0.03211
 H483 H 0.21636 0.37048 0.02797
 C484 C 0.22427 0.34725 0.04807
 H485 H 0.21055 0.34822 0.05629
 Zn486 Zn 0.24958 0.37555 -0.00023
 N487 N 0.24484 0.35887 0.02175
 C488 C 0.28195 0.39101 0.02181
 N489 N 0.27158 0.39218 0.00460
 C490 C 0.27616 0.40585 -0.00944
 C491 C 0.29203 0.41875 -0.00664
 C492 C 0.29793 0.40365 0.02520
 C493 C 0.24034 0.34540 -0.02698
 C494 C 0.24316 0.33254 -0.04289
 C495 C 0.27505 0.34760 -0.04865
 C496 C 0.27163 0.36019 -0.03263
 N497 N 0.25439 0.35902 -0.02231
 H498 H 0.27780 0.38042 0.03301
 H499 H 0.26745 0.40667 -0.02284
 H500 H 0.29564 0.42951 -0.01794
 H501 H 0.30616 0.40260 0.03890
 H502 H 0.22692 0.34457 -0.01831
 H503 H 0.23187 0.32180 -0.04656
 H504 H 0.28878 0.34864 -0.05683
 H505 H 0.28284 0.37074 -0.02842
 C506 C 0.23872 0.33337 0.05316
 C507 C 0.19600 0.41756 -0.01100
 C508 C 0.26066 0.33369 -0.05384
 C509 C 0.30304 0.41759 0.01082
 C510 C 0.72382 0.09436 -0.00919
 H511 H 0.73248 0.09356 -0.02262
 C512 C 0.70794 0.08148 -0.00637
 H513 H 0.70428 0.07073 -0.01767
 C514 C 0.71815 0.10914 0.02211
 H515 H 0.72235 0.11971 0.03331
 C516 C 0.70216 0.09652 0.02553
 H517 H 0.69398 0.09756 0.03926
 N518 N 0.72846 0.10800 0.00486
 C519 C 0.75965 0.15481 -0.02673
 H520 H 0.77309 0.15562 -0.01809
 C521 C 0.75681 0.16768 -0.04262
 H522 H 0.76811 0.17842 -0.04631
 C523 C 0.72833 0.14005 -0.03234
 H524 H 0.71714 0.12949 -0.02811
 C525 C 0.72490 0.15265 -0.04834
 H526 H 0.71115 0.15163 -0.05650
 Zn527 Zn 0.75046 0.12461 -0.00001
 N528 N 0.74560 0.14119 -0.02204
 C529 C 0.78280 0.10911 -0.02209
 N530 N 0.77250 0.10801 -0.00483
 C531 C 0.77716 0.09441 0.00925
 C532 C 0.79305 0.08152 0.00645
 C533 C 0.79880 0.09648 -0.02549
 C534 C 0.74120 0.15487 0.02662
 C535 C 0.74400 0.16778 0.04248
 C536 C 0.77594 0.15281 0.04826
 C537 C 0.77255 0.14016 0.03229
 N538 N 0.75529 0.14126 0.02198
 H539 H 0.77858 0.11964 -0.03332
 H540 H 0.76852 0.09364 0.02269
 H541 H 0.79673 0.07080 0.01778
 H542 H 0.80697 0.09747 -0.03923
 H543 H 0.72777 0.15563 0.01797
 H544 H 0.73267 0.17851 0.04614
 H545 H 0.78968 0.15182 0.05644
 H546 H 0.78377 0.12961 0.02810
 C547 C 0.73929 0.16655 -0.05354
 C548 C 0.69699 0.08262 0.01113
 C549 C 0.76151 0.16670 0.05342
 C550 C 0.80399 0.08261 -0.01106
 C551 C 0.22331 0.59485 0.49053
 H552 H 0.23203 0.59408 0.47715
 C553 C 0.20744 0.58193 0.49326
 H554 H 0.20385 0.57120 0.48193
 C555 C 0.21746 0.60956 0.52184
 H556 H 0.22159 0.62012 0.53307
 C557 C 0.20148 0.59691 0.52516
 H558 H 0.19324 0.59790 0.53886
 N559 N 0.22786 0.60847 0.50463
 C560 C 0.25920 0.65535 0.47331
 H561 H 0.27260 0.65614 0.48203
 C562 C 0.25645 0.66826 0.45744
 H563 H 0.26777 0.67900 0.45383
 C564 C 0.22792 0.64060 0.46750
 H565 H 0.21670 0.63003 0.47164
 C566 C 0.22457 0.65324 0.45151
 H567 H 0.21087 0.65223 0.44327
 Zn568 Zn 0.24988 0.62510 0.49992
 N569 N 0.24513 0.64172 0.47789
 C570 C 0.28233 0.60964 0.47798
 N571 N 0.27194 0.60851 0.49518
 C572 C 0.27654 0.59489 0.50926
 C573 C 0.29244 0.58200 0.50652
 C574 C 0.29835 0.59702 0.47464
 C575 C 0.24047 0.65531 0.52655
 C576 C 0.24319 0.66821 0.54244
 C577 C 0.27511 0.65323 0.54836
 C578 C 0.27179 0.64060 0.53235
 N579 N 0.25458 0.64170 0.52196
 H580 H 0.27818 0.62020 0.46675
 H581 H 0.26782 0.59409 0.52265
 H582 H 0.29606 0.57126 0.51784
 H583 H 0.30659 0.59804 0.46094
 H584 H 0.22708 0.65608 0.51783
 H585 H 0.23185 0.67893 0.54606
 H586 H 0.28881 0.65223 0.55660
 H587 H 0.28304 0.63005 0.52820
 C588 C 0.23899 0.66715 0.44642
 C589 C 0.19641 0.58301 0.51071
 C590 C 0.26065 0.66711 0.55346
 C591 C 0.30346 0.58312 0.48907
 C592 C 0.72314 0.90547 0.50899
 H593 H 0.73180 0.90623 0.52242
 C594 C 0.70724 0.91836 0.50623
 H595 H 0.70355 0.92905 0.51757
 C596 C 0.71749 0.89082 0.47763
 H597 H 0.72171 0.88030 0.46639
 C598 C 0.70148 0.90343 0.47427
 H599 H 0.69330 0.90245 0.46054
 N600 N 0.72781 0.89190 0.49489
 C601 C 0.75914 0.84502 0.52625
 H602 H 0.77257 0.84427 0.51759
 C603 C 0.75636 0.83208 0.54211
 H604 H 0.76770 0.82136 0.54574
 C605 C 0.72780 0.85970 0.53197
 H606 H 0.71657 0.87026 0.52779
 C607 C 0.72442 0.84704 0.54793
 H608 H 0.71069 0.84801 0.55612
 Zn609 Zn 0.74986 0.87530 0.49967
 N610 N 0.74505 0.85863 0.52164
 C611 C 0.78216 0.89077 0.52180
 N612 N 0.77185 0.89192 0.50455
 C613 C 0.77648 0.90558 0.49052
 C614 C 0.79235 0.91848 0.49336
 C615 C 0.79814 0.90340 0.52523
 C616 C 0.74068 0.84514 0.47292
 C617 C 0.74352 0.83228 0.45701
 C618 C 0.77543 0.84732 0.45131
 C619 C 0.77199 0.85992 0.46732
 N620 N 0.75472 0.85876 0.47761
 H621 H 0.77797 0.88018 0.53299
 H622 H 0.76782 0.90639 0.47709
 H623 H 0.79600 0.92923 0.48207
 H624 H 0.80632 0.90236 0.53897
 H625 H 0.72724 0.84432 0.48156
 H626 H 0.73223 0.82154 0.45331
 H627 H 0.78917 0.84836 0.44314
 H628 H 0.78318 0.87047 0.47155
 C629 C 0.73886 0.83315 0.55306
 C630 C 0.69629 0.91728 0.48872
 C631 C 0.76104 0.83343 0.44609
 C632 C 0.80329 0.91733 0.51086
 C633 C 0.00894 0.22399 0.40523
 H634 H 0.02234 0.23269 0.40600
 C635 C 0.00618 0.20813 0.41816
 H636 H 0.01751 0.20452 0.42889
 C637 C -0.02237 0.21821 0.39050
 H638 H -0.03359 0.22235 0.37993
 C639 C -0.02571 0.20223 0.40316
 H640 H -0.03942 0.19401 0.40216
 N641 N -0.00515 0.22857 0.39160
 C642 C 0.02627 0.25978 0.34470
 H643 H 0.01759 0.27320 0.34388
 C644 C 0.04215 0.25697 0.33180
 H645 H 0.04579 0.26826 0.32104
 C646 C 0.03201 0.22850 0.35950
 H647 H 0.02783 0.21731 0.37008
 C648 C 0.04800 0.22510 0.34687
 H649 H 0.05621 0.21138 0.34790
 Zn650 Zn -0.00038 0.25056 0.37494
 N651 N 0.02166 0.24574 0.35834
 C652 C 0.02164 0.28295 0.39037
 N653 N 0.00440 0.27262 0.39150
 C654 C -0.00969 0.27728 0.40511
 C655 C -0.00690 0.29317 0.41799
 C656 C 0.02502 0.29895 0.40299
 C657 C -0.02699 0.24118 0.34472
 C658 C -0.04286 0.24392 0.33180
 C659 C -0.04876 0.27585 0.34673
 C660 C -0.03277 0.27252 0.35939
 N661 N -0.02240 0.25530 0.35831
 H662 H 0.03286 0.27874 0.37983
 H663 H -0.02310 0.26861 0.40590
 H664 H -0.01822 0.29684 0.42871
 H665 H 0.03875 0.30714 0.40198
 H666 H -0.01829 0.22778 0.34397
 H667 H -0.04648 0.23257 0.32109
 H668 H -0.05699 0.28956 0.34770
 H669 H -0.02862 0.28377 0.36992
 C670 C 0.05313 0.23949 0.33294
 C671 C -0.01129 0.19713 0.41706
 C672 C -0.05386 0.26140 0.33286
 C673 C 0.01059 0.30412 0.41687
 C674 C -0.00941 0.72281 0.09463
 H675 H -0.02285 0.73146 0.09386
 C676 C -0.00663 0.70690 0.08177
 H677 H -0.01796 0.70321 0.07107
 C678 C 0.02195 0.71718 0.10931
 H679 H 0.03319 0.72140 0.11982
 C680 C 0.02533 0.70116 0.09671
 H681 H 0.03908 0.69299 0.09770
 N682 N 0.00469 0.72749 0.10821
 C683 C -0.02670 0.75888 0.15505
 H684 H -0.01802 0.77230 0.15579
 C685 C -0.04256 0.75613 0.16798
 H686 H -0.04619 0.76748 0.17869
 C687 C -0.03243 0.72754 0.14039
 H688 H -0.02827 0.71630 0.12985
 C689 C -0.04840 0.72420 0.15306
 H690 H -0.05661 0.71048 0.15209
 Zn691 Zn -0.00011 0.74955 0.12477
 N692 N -0.02209 0.74478 0.14145
 C693 C -0.02222 0.78187 0.10928
 N694 N -0.00498 0.77153 0.10813
 C695 C 0.00906 0.77614 0.09447
 C696 C 0.00624 0.79202 0.08157
 C697 C -0.02563 0.79785 0.09665
 C698 C 0.02664 0.74038 0.15496
 C699 C 0.04255 0.74323 0.16781
 C700 C 0.04826 0.77511 0.15273
 C701 C 0.03224 0.77167 0.14014
 N702 N 0.02195 0.75442 0.14132
 H703 H -0.03341 0.77769 0.11986
 H704 H 0.02249 0.76747 0.09366
 H705 H 0.01754 0.79567 0.07082
 H706 H -0.03936 0.80606 0.09769
 H707 H 0.01800 0.72695 0.15580
 H708 H 0.04625 0.73194 0.17856
 H709 H 0.05642 0.78885 0.15167
 H710 H 0.02801 0.78286 0.12957
 C711 C -0.05353 0.73865 0.16693
 C712 C 0.01089 0.69596 0.08286
 C713 C 0.05347 0.76073 0.16664
 C714 C -0.01124 0.80300 0.08272
 C715 C 0.49091 0.22314 0.59534
 H716 H 0.47749 0.23183 0.59454
 C717 C 0.49368 0.20724 0.58245
 H718 H 0.48236 0.20359 0.57173
 C719 C 0.52222 0.21740 0.61008
 H720 H 0.53344 0.22159 0.62063
 C721 C 0.52558 0.20139 0.59747
 H722 H 0.53930 0.19318 0.59848
 N723 N 0.50499 0.22777 0.60895
 C724 C 0.47355 0.25917 0.65574
 H725 H 0.48223 0.27258 0.65651
 C726 C 0.45765 0.25642 0.66863
 H727 H 0.45400 0.26777 0.67934
 C728 C 0.46782 0.22784 0.64105
 H729 H 0.47200 0.21660 0.63051
 C730 C 0.45182 0.22450 0.65367
 H731 H 0.44360 0.21079 0.65268
 Zn732 Zn 0.50020 0.24982 0.62553
 N733 N 0.47817 0.24507 0.64214
 C734 C 0.47819 0.28218 0.60999
 N735 N 0.49542 0.27182 0.60889
 C736 C 0.50950 0.27641 0.59526
 C737 C 0.50673 0.29228 0.58234
 C738 C 0.47482 0.29815 0.59733
 C739 C 0.52685 0.24055 0.65577
 C740 C 0.54274 0.24333 0.66866
 C741 C 0.54859 0.27520 0.65361
 C742 C 0.53259 0.27183 0.64099
 N743 N 0.52223 0.25461 0.64213
 H744 H 0.46697 0.27803 0.62055
 H745 H 0.52292 0.26772 0.59449
 H746 H 0.51805 0.29590 0.57161
 H747 H 0.46110 0.30637 0.59833
 H748 H 0.51816 0.22714 0.65658
 H749 H 0.54638 0.23202 0.67940
 H750 H 0.55680 0.28891 0.65258
 H751 H 0.52841 0.28304 0.63042
 C752 C 0.44667 0.23895 0.66754
 C753 C 0.51116 0.19625 0.58358
 C754 C 0.55373 0.26080 0.66752
 C755 C 0.48925 0.30326 0.58343
 C756 C 0.50916 0.72296 0.90528
 H757 H 0.52258 0.73163 0.90604
 C758 C 0.50639 0.70708 0.91818
 H759 H 0.51773 0.70342 0.92889
 C760 C 0.47780 0.71728 0.89062
 H761 H 0.46656 0.72148 0.88009
 C762 C 0.47444 0.70130 0.90325
 H763 H 0.46071 0.69311 0.90228
 N764 N 0.49505 0.72761 0.89170
 C765 C 0.52638 0.75895 0.84482
 H766 H 0.51769 0.77236 0.84407
 C767 C 0.54224 0.75618 0.83188
 H768 H 0.54586 0.76752 0.82116
 C769 C 0.53214 0.72762 0.85950
 H770 H 0.52799 0.71639 0.87006
 C771 C 0.54811 0.72426 0.84684
 H772 H 0.55633 0.71054 0.84781
 Zn773 Zn 0.49981 0.74964 0.87510
 N774 N 0.52179 0.74486 0.85843
 C775 C 0.52189 0.78197 0.89058
 N776 N 0.50465 0.77164 0.89173
 C777 C 0.49061 0.77626 0.90538
 C778 C 0.49342 0.79212 0.91829
 C779 C 0.52529 0.79795 0.90322
 C780 C 0.47307 0.74043 0.84493
 C781 C 0.45716 0.74326 0.83207
 C782 C 0.45141 0.77515 0.84712
 C783 C 0.46742 0.77173 0.85971
 N784 N 0.47774 0.75448 0.85855
 H785 H 0.53308 0.77780 0.87999
 H786 H 0.47719 0.76759 0.90619
 H787 H 0.48212 0.79577 0.92905
 H788 H 0.53901 0.80615 0.90218
 H789 H 0.48173 0.72700 0.84411
 H790 H 0.45347 0.73195 0.82134
 H791 H 0.44323 0.78889 0.84816
 H792 H 0.47165 0.78294 0.87027
 C793 C 0.55323 0.73870 0.83295
 C794 C 0.48889 0.69613 0.91711
 C795 C 0.44621 0.76076 0.83323
 C796 C 0.51090 0.80309 0.91715
 C797 C 0.12959 0.22443 0.27169
 C798 C 0.12478 0.24636 0.27500
 C799 C 0.10923 0.24943 0.28744
 C800 C 0.10002 0.23026 0.29536
 C801 C 0.11723 0.21896 0.30492
 C802 C 0.13278 0.21589 0.29248
 C803 C 0.11018 0.21518 0.26443
 C804 C 0.09463 0.21824 0.27688
 C805 C 0.14633 0.22112 0.25829
 C806 C 0.16008 0.21840 0.24729
 C807 C 0.08328 0.23356 0.30876
 C808 C 0.06953 0.23626 0.31978
 H809 H 0.13287 0.25842 0.26816
 H810 H 0.10400 0.26412 0.29127
 H811 H 0.11721 0.21382 0.32013
 H812 H 0.14608 0.20812 0.29702
 H813 H 0.10877 0.20694 0.25072
 H814 H 0.07990 0.21264 0.27383
 C815 C 0.62967 0.72395 0.77160
 C816 C 0.62053 0.70474 0.77951
 C817 C 0.60498 0.70774 0.79198
 C818 C 0.60010 0.72966 0.79531
 C819 C 0.59686 0.73820 0.77454
 C820 C 0.61241 0.73520 0.76207
 C821 C 0.63503 0.73596 0.79010
 C822 C 0.61949 0.73896 0.80256
 C823 C 0.64640 0.72071 0.75819
 C824 C 0.66016 0.71804 0.74717
 C825 C 0.58337 0.73288 0.80873
 C826 C 0.56962 0.73553 0.81977
 H827 H 0.62580 0.69007 0.77566
 H828 H 0.59694 0.69565 0.79880
 H829 H 0.58354 0.74594 0.77002
 H830 H 0.61241 0.74036 0.74687
 H831 H 0.64975 0.74161 0.79313
 H832 H 0.62088 0.74719 0.81628
 C833 C 0.36970 0.77594 0.77208
 C834 C 0.36428 0.77780 0.79404
 C835 C 0.37983 0.77471 0.80648
 C836 C 0.39928 0.77005 0.79573
 C837 C 0.40239 0.78739 0.78142
 C838 C 0.38684 0.79049 0.76898
 C839 C 0.37902 0.75534 0.77003
 C840 C 0.39458 0.75225 0.78247
 C841 C 0.35296 0.77926 0.75869
 C842 C 0.33921 0.78200 0.74768
 C843 C 0.41602 0.76673 0.80911
 C844 C 0.42978 0.76400 0.82011
 H845 H 0.34953 0.78125 0.79936
 H846 H 0.37840 0.77550 0.82244
 H847 H 0.41564 0.79645 0.78108
 H848 H 0.38676 0.80219 0.75800
 H849 H 0.37386 0.74417 0.75973
 H850 H 0.40274 0.73843 0.78281
 C851 C -0.13023 0.27611 0.27142
 C852 C -0.13140 0.25653 0.28283
 C853 C -0.11587 0.25353 0.29532
 C854 C -0.10070 0.27041 0.29518
 C855 C -0.11267 0.28912 0.29987
 C856 C -0.12819 0.29212 0.28738
 C857 C -0.11010 0.27563 0.26095
 C858 C -0.09457 0.27263 0.27344
 C859 C -0.14694 0.27935 0.25797
 C860 C -0.16067 0.28202 0.24692
 C861 C -0.08399 0.26718 0.30862
 C862 C -0.07026 0.26454 0.31968
 H863 H -0.14336 0.24595 0.28124
 H864 H -0.11454 0.24038 0.30443
 H865 H -0.10925 0.29913 0.31195
 H866 H -0.13808 0.30470 0.28875
 H867 H -0.10820 0.27748 0.24511
 H868 H -0.07938 0.27191 0.26831
 C869 C -0.12999 0.72401 0.22827
 C870 C -0.13584 0.73372 0.20860
 C871 C -0.12029 0.73670 0.19614
 C872 C -0.10041 0.72967 0.20456
 C873 C -0.10367 0.70788 0.20996
 C874 C -0.11922 0.70490 0.22243
 C875 C -0.11387 0.73745 0.23690
 C876 C -0.09832 0.74042 0.22444
 C877 C -0.14672 0.72081 0.24168
 C878 C -0.16048 0.71815 0.25270
 C879 C -0.08368 0.73287 0.19114
 C880 C -0.06993 0.73551 0.18010
 H881 H -0.15087 0.73789 0.20480
 H882 H -0.12200 0.74342 0.18166
 H883 H -0.09457 0.69584 0.20448
 H884 H -0.12344 0.69031 0.22762
 H885 H -0.11460 0.74404 0.25152
 H886 H -0.08573 0.74957 0.22838
 C887 C 0.37008 0.22423 0.72871
 C888 C 0.38995 0.21724 0.73718
 C889 C 0.40553 0.22024 0.72475
 C890 C 0.39971 0.22994 0.70507
 C891 C 0.38890 0.24904 0.71088
 C892 C 0.37332 0.24604 0.72331
 C893 C 0.36805 0.21348 0.70882
 C894 C 0.38363 0.21648 0.69639
 C895 C 0.35332 0.22100 0.74208
 C896 C 0.33954 0.21833 0.75306
 C897 C 0.41647 0.23316 0.69169
 C898 C 0.43024 0.23580 0.68068
 H899 H 0.39164 0.21053 0.75166
 H900 H 0.42056 0.21609 0.72858
 H901 H 0.39311 0.26363 0.70569
 H902 H 0.36419 0.25806 0.72877
 H903 H 0.35549 0.20432 0.70485
 H904 H 0.38440 0.20988 0.68178
 C905 C 0.63028 0.27569 0.72868
 C906 C 0.63570 0.26394 0.71003
 C907 C 0.62014 0.26090 0.69760
 C908 C 0.60067 0.26991 0.70504
 C909 C 0.60531 0.29184 0.70860
 C910 C 0.62087 0.29488 0.72103
 C911 C 0.61320 0.26414 0.73816
 C912 C 0.59763 0.26110 0.72573
 C913 C 0.64703 0.27895 0.74206
 C914 C 0.66079 0.28165 0.75306
 C915 C 0.58392 0.26665 0.69166
 C916 C 0.57015 0.26398 0.68066
 H917 H 0.65047 0.25848 0.70687
 H918 H 0.62157 0.25284 0.68379
 H919 H 0.59709 0.30392 0.70194
 H920 H 0.62599 0.30956 0.72502
 H921 H 0.61332 0.25881 0.75331
 H922 H 0.58442 0.25318 0.73023
 C923 C 0.12998 0.77600 0.22776
 C924 C 0.11013 0.77350 0.23848
 C925 C 0.09458 0.77039 0.22605
 C926 C 0.10040 0.77008 0.20412
 C927 C 0.11661 0.75427 0.20254
 C928 C 0.13216 0.75737 0.21497
 C929 C 0.12661 0.79292 0.21301
 C930 C 0.11105 0.78981 0.20058
 C931 C 0.14671 0.77934 0.24114
 C932 C 0.16046 0.78208 0.25215
 C933 C 0.08366 0.76674 0.19074
 C934 C 0.06990 0.76399 0.17975
 H935 H 0.10844 0.77411 0.25443
 H936 H 0.07957 0.76834 0.23136
 H937 H 0.11593 0.74173 0.19254
 H938 H 0.14481 0.74750 0.21561
 H939 H 0.13564 0.80617 0.21238
 H940 H 0.10676 0.80039 0.18930
 C941 C 0.27166 0.12982 0.22409
 C942 C 0.29360 0.13564 0.22457
 C943 C 0.30602 0.12007 0.22766
 C944 C 0.29529 0.10021 0.22996
 C945 C 0.28262 0.09816 0.21124
 C946 C 0.27020 0.11373 0.20815
 C947 C 0.26800 0.11903 0.24372
 C948 C 0.28042 0.10346 0.24680
 C949 C 0.25829 0.14658 0.22078
 C950 C 0.24729 0.16034 0.21805
 C951 C 0.30866 0.08345 0.23327
 C952 C 0.31965 0.06968 0.23599
 H953 H 0.29890 0.15067 0.22266
 H954 H 0.32196 0.12176 0.22839
 H955 H 0.28334 0.08559 0.20128
 H956 H 0.26028 0.11450 0.19556
 H957 H 0.25666 0.12324 0.25427
 H958 H 0.27972 0.09434 0.25999
 C959 C 0.77193 0.62972 0.72390
 C960 C 0.77038 0.62079 0.74471
 C961 C 0.78283 0.60525 0.74778
 C962 C 0.79562 0.60015 0.72973
 C963 C 0.80631 0.61946 0.72444
 C964 C 0.79386 0.63500 0.72138
 C965 C 0.76841 0.61232 0.70975
 C966 C 0.78086 0.59678 0.71282
 C967 C 0.75852 0.64644 0.72060
 C968 C 0.74749 0.66018 0.71789
 C969 C 0.80903 0.58342 0.73302
 C970 C 0.82004 0.56967 0.73574
 H971 H 0.76037 0.62621 0.75604
 H972 H 0.78350 0.59735 0.76173
 H973 H 0.82226 0.62080 0.72321
 H974 H 0.79913 0.64966 0.71752
 H975 H 0.75712 0.61222 0.69833
 H976 H 0.78025 0.58336 0.70402
 C977 C 0.77159 0.36990 0.77574
 C978 C 0.78571 0.37370 0.79311
 C979 C 0.79818 0.38923 0.79011
 C980 C 0.79531 0.39945 0.77005
 C981 C 0.77335 0.40518 0.76943
 C982 C 0.76088 0.38964 0.77243
 C983 C 0.78506 0.36739 0.75765
 C984 C 0.79753 0.38292 0.75465
 C985 C 0.75817 0.35318 0.77898
 C986 C 0.74715 0.33943 0.78165
 C987 C 0.80874 0.41617 0.76683
 C988 C 0.81978 0.42990 0.76419
 H989 H 0.78589 0.36495 0.80657
 H990 H 0.80905 0.39379 0.80101
 H991 H 0.76806 0.42012 0.76687
 H992 H 0.74491 0.39127 0.77243
 H993 H 0.78482 0.35454 0.74803
 H994 H 0.80797 0.38338 0.74247
 C995 C 0.27130 -0.13024 0.27585
 C996 C 0.27358 -0.11681 0.29400
 C997 C 0.28603 -0.10126 0.29101
 C998 C 0.29499 -0.10067 0.27016
 C999 C 0.27718 -0.10088 0.25609
 C1000 C 0.26473 -0.11643 0.25908
 C1001 C 0.29245 -0.13646 0.27042
 C1002 C 0.30491 -0.12091 0.26743
 C1003 C 0.25790 -0.14698 0.27907
 C1004 C 0.24689 -0.16074 0.28174
 C1005 C 0.30840 -0.08394 0.26695
 C1006 C 0.31942 -0.07019 0.26431
 H1007 H 0.26607 -0.11928 0.30797
 H1008 H 0.28919 -0.09042 0.30241
 H1009 H 0.27459 -0.08980 0.24477
 H1010 H 0.25146 -0.11867 0.25032
 H1011 H 0.29723 -0.15172 0.26905
 H1012 H 0.32035 -0.12286 0.26350
 C1013 C 0.22839 -0.13021 0.72416
 C1014 C 0.20729 -0.13636 0.72983
 C1015 C 0.19488 -0.12077 0.73287
 C1016 C 0.20478 -0.10057 0.72995
 C1017 C 0.21354 -0.10127 0.70902
 C1018 C 0.22595 -0.11685 0.70598
 C1019 C 0.23514 -0.11633 0.74081
 C1020 C 0.22273 -0.10075 0.74385
 C1021 C 0.24175 -0.14698 0.72089
 C1022 C 0.25274 -0.16076 0.71819
 C1023 C 0.19142 -0.08379 0.73322
 C1024 C 0.18045 -0.07000 0.73590
 H1025 H 0.20252 -0.15161 0.73131
 H1026 H 0.17947 -0.12268 0.73696
 H1027 H 0.21027 -0.09048 0.69759
 H1028 H 0.23332 -0.11941 0.69194
 H1029 H 0.24849 -0.11855 0.74944
 H1030 H 0.22545 -0.08962 0.75509
 C1031 C 0.72853 0.37023 0.22397
 C1032 C 0.72891 0.38556 0.20724
 C1033 C 0.71644 0.40110 0.21025
 C1034 C 0.70482 0.39980 0.22970
 C1035 C 0.72061 0.39754 0.24586
 C1036 C 0.73307 0.38199 0.24284
 C1037 C 0.70674 0.36417 0.22591
 C1038 C 0.69428 0.37972 0.22893
 C1039 C 0.74194 0.35349 0.22073
 C1040 C 0.75298 0.33975 0.21806
 C1041 C 0.69140 0.41654 0.23294
 C1042 C 0.68038 0.43029 0.23562
 H1043 H 0.73815 0.38431 0.19417
 H1044 H 0.71501 0.41317 0.19977
 H1045 H 0.72188 0.40729 0.25854
 H1046 H 0.74502 0.37842 0.25295
 H1047 H 0.70156 0.34901 0.22500
 H1048 H 0.67842 0.37788 0.23059
 C1049 C 0.72864 0.63006 0.27546
 C1050 C 0.70889 0.63200 0.28649
 C1051 C 0.69642 0.61647 0.28349
 C1052 C 0.70491 0.60052 0.26975
 C1053 C 0.72471 0.59459 0.27913
 C1054 C 0.73719 0.61012 0.28214
 C1055 C 0.72296 0.62704 0.25369
 C1056 C 0.71048 0.61151 0.25069
 C1057 C 0.74206 0.64677 0.27870
 C1058 C 0.75309 0.66051 0.28137
 C1059 C 0.69148 0.58381 0.26652
 C1060 C 0.68044 0.57007 0.26387
 H1061 H 0.70505 0.64448 0.29584
 H1062 H 0.68189 0.61564 0.29026
 H1063 H 0.72860 0.57952 0.28307
 H1064 H 0.75176 0.60835 0.28865
 H1065 H 0.72827 0.63629 0.24170
 H1066 H 0.70511 0.60745 0.23612
 C1067 C 0.22879 0.13002 0.77568
 C1068 C 0.21482 0.12607 0.79313
 C1069 C 0.20238 0.11051 0.79014
 C1070 C 0.20513 0.10042 0.76999
 C1071 C 0.22711 0.09478 0.76917
 C1072 C 0.23954 0.11034 0.77216
 C1073 C 0.21517 0.13260 0.75770
 C1074 C 0.20273 0.11704 0.75471
 C1075 C 0.24217 0.14677 0.77891
 C1076 C 0.25316 0.16054 0.78158
 C1077 C 0.19174 0.08368 0.76677
 C1078 C 0.18072 0.06992 0.76414
 H1079 H 0.21470 0.13473 0.80665
 H1080 H 0.19161 0.10584 0.80109
 H1081 H 0.23243 0.07988 0.76647
 H1082 H 0.25552 0.10877 0.77203
 H1083 H 0.21529 0.14551 0.74816
 H1084 H 0.19220 0.11661 0.74261
 C1085 C 0.22398 0.27199 0.12956
 C1086 C 0.23794 0.26360 0.11374
 C1087 C 0.24095 0.27607 0.09820
 C1088 C 0.22970 0.29571 0.10001
 C1089 C 0.23612 0.30436 0.11998
 C1090 C 0.23311 0.29189 0.13552
 C1091 C 0.20496 0.27736 0.11839
 C1092 C 0.20797 0.28983 0.10285
 C1093 C 0.22073 0.25857 0.14628
 C1094 C 0.21804 0.24756 0.16003
 C1095 C 0.23293 0.30913 0.08329
 C1096 C 0.23558 0.32018 0.06955
 H1097 H 0.24485 0.24914 0.11467
 H1098 H 0.25044 0.27229 0.08582
 H1099 H 0.24247 0.31899 0.12177
 H1100 H 0.23689 0.29584 0.15061
 H1101 H 0.19041 0.27185 0.12234
 H1102 H 0.19599 0.29500 0.09349
 C1103 C 0.72401 0.77181 0.62946
 C1104 C 0.73126 0.76133 0.61068
 C1105 C 0.73429 0.77379 0.59514
 C1106 C 0.72976 0.79552 0.59991
 C1107 C 0.74252 0.80034 0.61805
 C1108 C 0.73950 0.78787 0.63359
 C1109 C 0.70537 0.78309 0.62310
 C1110 C 0.70839 0.79556 0.60756
 C1111 C 0.72075 0.75839 0.64618
 C1112 C 0.71807 0.74738 0.65993
 C1113 C 0.73301 0.80894 0.58319
 C1114 C 0.73568 0.81997 0.56945
 H1115 H 0.73380 0.74551 0.60967
 H1116 H 0.73941 0.76865 0.58082
 H1117 H 0.75301 0.81247 0.61864
 H1118 H 0.74739 0.78933 0.64749
 H1119 H 0.69105 0.78144 0.63017
 H1120 H 0.69666 0.80458 0.60132
 C1121 C 0.77630 0.77224 0.36963
 C1122 C 0.78458 0.76447 0.38928
 C1123 C 0.78147 0.77691 0.40483
 C1124 C 0.77039 0.79591 0.39919
 C1125 C 0.75125 0.78884 0.38925
 C1126 C 0.75435 0.77639 0.37371
 C1127 C 0.78575 0.79269 0.36692
 C1128 C 0.78265 0.80513 0.38247
 C1129 C 0.77963 0.75884 0.35291
 C1130 C 0.78237 0.74781 0.33917
 C1131 C 0.76704 0.80930 0.41592
 C1132 C 0.76430 0.82030 0.42967
 H1133 H 0.79221 0.75043 0.39086
 H1134 H 0.78644 0.77354 0.41971
 H1135 H 0.73655 0.79322 0.39400
 H1136 H 0.74232 0.77011 0.36515
 H1137 H 0.79415 0.79701 0.35394
 H1138 H 0.78838 0.82012 0.38280
 C1139 C 0.27595 0.27245 -0.13025
 C1140 C 0.26484 0.29142 -0.13591
 C1141 C 0.26172 0.30388 -0.12038
 C1142 C 0.27001 0.29615 -0.10072
 C1143 C 0.29196 0.29202 -0.10479
 C1144 C 0.29508 0.27956 -0.12032
 C1145 C 0.26370 0.26323 -0.11352
 C1146 C 0.26058 0.27569 -0.09799
 C1147 C 0.27932 0.25904 -0.14696
 C1148 C 0.28209 0.24800 -0.16068
 C1149 C 0.26665 0.30955 -0.08400
 C1150 C 0.26391 0.32056 -0.07025
 H1151 H 0.25987 0.29478 -0.15080
 H1152 H 0.25407 0.31791 -0.12197
 H1153 H 0.30398 0.29832 -0.09623
 H1154 H 0.30979 0.27520 -0.12506
 H1155 H 0.25798 0.24824 -0.11384
 H1156 H 0.25218 0.27136 -0.08501
 C1157 C 0.72408 0.22773 -0.13001
 C1158 C 0.73534 0.20882 -0.13560
 C1159 C 0.73843 0.19638 -0.12006
 C1160 C 0.72997 0.20406 -0.10045
 C1161 C 0.70803 0.20807 -0.10466
 C1162 C 0.70493 0.22051 -0.12020
 C1163 C 0.73617 0.23702 -0.11320
 C1164 C 0.73927 0.22458 -0.09766
 C1165 C 0.72075 0.24112 -0.14674
 C1166 C 0.71801 0.25214 -0.16048
 C1167 C 0.73331 0.19068 -0.08371
 C1168 C 0.73604 0.17968 -0.06995
 H1169 H 0.74042 0.20549 -0.15046
 H1170 H 0.74617 0.18240 -0.12160
 H1171 H 0.69598 0.20169 -0.09618
 H1172 H 0.69023 0.22479 -0.12504
 H1173 H 0.74181 0.25204 -0.11348
 H1174 H 0.74756 0.22894 -0.08462
 C1175 C 0.22423 0.72845 0.36996
 C1176 C 0.21306 0.73453 0.38876
 C1177 C 0.21606 0.72207 0.40431
 C1178 C 0.22995 0.70475 0.39953
 C1179 C 0.24898 0.71441 0.39182
 C1180 C 0.24598 0.72686 0.37627
 C1181 C 0.21772 0.70709 0.36588
 C1182 C 0.22073 0.69463 0.38143
 C1183 C 0.22099 0.74185 0.35322
 C1184 C 0.21832 0.75287 0.33947
 C1185 C 0.23317 0.69134 0.41627
 C1186 C 0.23583 0.68032 0.43002
 H1187 H 0.20362 0.74748 0.38977
 H1188 H 0.20920 0.72435 0.41864
 H1189 H 0.26354 0.71170 0.39803
 H1190 H 0.25796 0.73483 0.36916
 H1191 H 0.21132 0.70219 0.35200
 H1192 H 0.21689 0.67906 0.38087
 C1193 C 0.27535 0.72839 0.62995
 C1194 C 0.26644 0.70839 0.63592
 C1195 C 0.26344 0.69593 0.62037
 C1196 C 0.26964 0.70470 0.60037
 C1197 C 0.29134 0.71077 0.60308
 C1198 C 0.29434 0.72323 0.61863
 C1199 C 0.26120 0.73669 0.61426
 C1200 C 0.25820 0.72423 0.59871
 C1201 C 0.27859 0.74179 0.64668
 C1202 C 0.28127 0.75281 0.66044
 C1203 C 0.26642 0.69129 0.58364
 C1204 C 0.26378 0.68027 0.56988
 H1205 H 0.26281 0.70436 0.65103
 H1206 H 0.25724 0.68124 0.62216
 H1207 H 0.30329 0.70574 0.59362
 H1208 H 0.30886 0.72886 0.62249
 H1209 H 0.25416 0.75108 0.61527
 H1210 H 0.24859 0.72796 0.58640
 C1211 C 0.77646 0.22799 0.12985
 C1212 C 0.77950 0.23780 0.10960
 C1213 C 0.77646 0.22534 0.09406
 C1214 C 0.77067 0.20430 0.10029
 C1215 C 0.75244 0.20689 0.11357
 C1216 C 0.75549 0.21935 0.12911
 C1217 C 0.79027 0.20998 0.12980
 C1218 C 0.78723 0.19752 0.11426
 C1219 C 0.77973 0.24140 0.14657
 C1220 C 0.78241 0.25243 0.16031
 C1221 C 0.76739 0.19089 0.08356
 C1222 C 0.76471 0.17986 0.06982
 H1223 H 0.78367 0.25317 0.10765
 H1224 H 0.77803 0.23004 0.07880
 H1225 H 0.73838 0.19959 0.11099
 H1226 H 0.74403 0.22272 0.13984
 H1227 H 0.80146 0.20724 0.14099
 H1228 H 0.79581 0.18411 0.11213
 C1229 C 0.47439 0.37969 0.52210
 C1230 C 0.46664 0.38327 0.54313
 C1231 C 0.46967 0.36772 0.55560
 C1232 C 0.48015 0.35012 0.54580
 C1233 C 0.49930 0.35871 0.53719
 C1234 C 0.49628 0.37426 0.52472
 C1235 C 0.46435 0.36051 0.51531
 C1236 C 0.46737 0.34496 0.52777
 C1237 C 0.47113 0.39642 0.50869
 C1238 C 0.46844 0.41017 0.49767
 C1239 C 0.48340 0.33340 0.55922
 C1240 C 0.48607 0.31966 0.57025
 H1241 H 0.45942 0.39681 0.54782
 H1242 H 0.46503 0.36796 0.57096
 H1243 H 0.51395 0.35308 0.54057
 H1244 H 0.50834 0.38194 0.51743
 H1245 H 0.45563 0.35924 0.50189
 H1246 H 0.46124 0.33039 0.52503
 C1247 C -0.02616 0.87964 0.02168
 C1248 C -0.01572 0.86207 0.01181
 C1249 C -0.01268 0.84648 0.02421
 C1250 C -0.02040 0.84999 0.04527
 C1251 C -0.04229 0.85544 0.04270
 C1252 C -0.04532 0.87103 0.03030
 C1253 C -0.01336 0.88472 0.03972
 C1254 C -0.01033 0.86913 0.05212
 C1255 C -0.02942 0.89642 0.00834
 C1256 C -0.03209 0.91020 -0.00264
 C1257 C -0.01714 0.83321 0.05862
 C1258 C -0.01445 0.81943 0.06960
 H1259 H -0.01110 0.86189 -0.00356
 H1260 H -0.00547 0.83294 0.01946
 H1261 H -0.05434 0.84774 0.04998
 H1262 H -0.05997 0.87669 0.02696
 H1263 H -0.00721 0.89928 0.04251
 H1264 H -0.00159 0.87034 0.06553
 C1265 C 0.02589 0.61941 0.02172
 C1266 C 0.01450 0.63657 0.01217
 C1267 C 0.01144 0.65213 0.02460
 C1268 C 0.02007 0.64901 0.04536
 C1269 C 0.04201 0.64425 0.04197
 C1270 C 0.04507 0.62869 0.02954
 C1271 C 0.01396 0.61402 0.04026
 C1272 C 0.01090 0.62959 0.05269
 C1273 C 0.02919 0.60266 0.00834
 C1274 C 0.03191 0.58890 -0.00267
 C1275 C 0.01678 0.66576 0.05874
 C1276 C 0.01409 0.67953 0.06973
 H1277 H 0.00930 0.63650 -0.00302
 H1278 H 0.00361 0.66539 0.02006
 H1279 H 0.05407 0.65238 0.04874
 H1280 H 0.05976 0.62349 0.02566
 H1281 H 0.00841 0.59929 0.04335
 H1282 H 0.00272 0.62818 0.06643
 C1283 C 0.52605 0.11975 0.52234
 C1284 C 0.51466 0.13694 0.51283
 C1285 C 0.51163 0.15248 0.52528
 C1286 C 0.52028 0.14933 0.54603
 C1287 C 0.54221 0.14455 0.54261
 C1288 C 0.54524 0.12900 0.53016
 C1289 C 0.51413 0.11436 0.54089
 C1290 C 0.51110 0.12990 0.55334
 C1291 C 0.52931 0.10302 0.50893
 C1292 C 0.53200 0.08928 0.49790
 C1293 C 0.51701 0.16606 0.55943
 C1294 C 0.51434 0.17982 0.57044
 H1295 H 0.50944 0.13689 0.49765
 H1296 H 0.50381 0.16576 0.52077
 H1297 H 0.55429 0.15267 0.54938
 H1298 H 0.55992 0.12380 0.52626
 H1299 H 0.50857 0.09962 0.54397
 H1300 H 0.50294 0.12849 0.56709
 C1301 C -0.02601 0.12068 0.47836
 C1302 C -0.00682 0.11911 0.46634
 C1303 C -0.00382 0.13466 0.45388
 C1304 C -0.02031 0.15025 0.45467
 C1305 C -0.02171 0.15625 0.47652
 C1306 C -0.02470 0.14070 0.48897
 C1307 C -0.04244 0.12326 0.46292
 C1308 C -0.03945 0.13881 0.45047
 C1309 C -0.02924 0.10394 0.49177
 C1310 C -0.03191 0.09018 0.50278
 C1311 C -0.01708 0.16699 0.44126
 C1312 C -0.01444 0.18073 0.43023
 H1313 H 0.00351 0.10687 0.46750
 H1314 H 0.00907 0.13574 0.44438
 H1315 H -0.02045 0.17137 0.48175
 H1316 H -0.02601 0.14250 0.50487
 H1317 H -0.05530 0.11371 0.46187
 H1318 H -0.04974 0.14258 0.43874
 C1319 C 0.47400 0.61977 0.97849
 C1320 C 0.45538 0.63220 0.97473
 C1321 C 0.45842 0.64772 0.96225
 C1322 C 0.47978 0.64929 0.95475
 C1323 C 0.48425 0.62910 0.94539
 C1324 C 0.48121 0.61358 0.95787
 C1325 C 0.48953 0.63453 0.98597
 C1326 C 0.49257 0.65005 0.97349
 C1327 C 0.47072 0.60306 0.99191
 C1328 C 0.46801 0.58933 1.00295
 C1329 C 0.48305 0.66600 0.94132
 C1330 C 0.48572 0.67974 0.93028
 H1331 H 0.44106 0.62908 0.98129
 H1332 H 0.44671 0.65790 0.95813
 H1333 H 0.48935 0.62717 0.93030
 H1334 H 0.48371 0.59835 0.95346
 H1335 H 0.49744 0.63293 0.99985
 H1336 H 0.50308 0.66175 0.97668
 C1337 C 0.52594 0.87952 0.97840
 C1338 C 0.52563 0.85940 0.98890
 C1339 C 0.52257 0.84386 0.97645
 C1340 C 0.52012 0.84996 0.95472
 C1341 C 0.53874 0.86197 0.94984
 C1342 C 0.54180 0.87752 0.96229
 C1343 C 0.50624 0.88062 0.96718
 C1344 C 0.50318 0.86508 0.95473
 C1345 C 0.52924 0.89625 0.99180
 C1346 C 0.53195 0.90999 1.00282
 C1347 C 0.51682 0.83323 0.94132
 C1348 C 0.51412 0.81949 0.93031
 H1349 H 0.52764 0.85752 1.00471
 H1350 H 0.52196 0.82867 0.98160
 H1351 H 0.54865 0.85857 0.93768
 H1352 H 0.55434 0.88743 0.96079
 H1353 H 0.49563 0.89256 0.96886
 H1354 H 0.48995 0.86370 0.94575
 C1355 C 0.02568 0.38048 0.47821
 C1356 C 0.01657 0.36234 0.48836
 C1357 C 0.01349 0.34682 0.47589
 C1358 C 0.01981 0.35096 0.45449
 C1359 C 0.04156 0.35730 0.45590
 C1360 C 0.04464 0.37282 0.46837
 C1361 C 0.01164 0.38529 0.46103
 C1362 C 0.00856 0.36977 0.44855
 C1363 C 0.02900 0.39718 0.49164
 C1364 C 0.03173 0.41090 0.50269
 C1365 C 0.01650 0.33426 0.44106
 C1366 C 0.01380 0.32052 0.43003
 H1367 H 0.01286 0.36174 0.50397
 H1368 H 0.00714 0.33293 0.48081
 H1369 H 0.05349 0.35022 0.44781
 H1370 H 0.05921 0.37904 0.47097
 H1371 H 0.00474 0.39962 0.45885
 H1372 H -0.00099 0.37080 0.43569
 C1373 C 0.37998 0.52184 0.47431
 C1374 C 0.38516 0.54373 0.47135
 C1375 C 0.36961 0.55619 0.47436
 C1376 C 0.35039 0.54554 0.48003
 C1377 C 0.35572 0.53309 0.49825
 C1378 C 0.37127 0.52063 0.49524
 C1379 C 0.36245 0.51802 0.46041
 C1380 C 0.34689 0.53048 0.46342
 C1381 C 0.39672 0.50843 0.47107
 C1382 C 0.41047 0.49741 0.46839
 C1383 C 0.33365 0.55895 0.48326
 C1384 C 0.31989 0.56997 0.48591
 H1385 H 0.39977 0.54899 0.46726
 H1386 H 0.37089 0.57212 0.47284
 H1387 H 0.34795 0.53398 0.51227
 H1388 H 0.37683 0.51084 0.50669
 H1389 H 0.36227 0.50654 0.44919
 H1390 H 0.33339 0.52967 0.45477
 C1391 C 0.88049 0.02135 -0.02600
 C1392 C 0.86836 0.02549 -0.04473
 C1393 C 0.85281 0.03794 -0.04169
 C1394 C 0.85090 0.04504 -0.02022
 C1395 C 0.87104 0.05426 -0.01526
 C1396 C 0.88659 0.04181 -0.01830
 C1397 C 0.86547 0.01361 -0.01085
 C1398 C 0.84991 0.02606 -0.00781
 C1399 C 0.89723 0.00795 -0.02927
 C1400 C 0.91098 -0.00307 -0.03197
 C1401 C 0.83416 0.05844 -0.01695
 C1402 C 0.82040 0.06945 -0.01427
 H1403 H 0.87170 0.01920 -0.05912
 H1404 H 0.84282 0.04231 -0.05348
 H1405 H 0.87291 0.06926 -0.00985
 H1406 H 0.90179 0.04614 -0.01549
 H1407 H 0.86693 -0.00042 -0.00318
 H1408 H 0.83804 0.02270 0.00246
 C1409 C 0.62047 0.02150 0.02618
 C1410 C 0.63459 0.01452 0.00984
 C1411 C 0.65016 0.02694 0.00678
 C1412 C 0.65007 0.04512 0.02035
 C1413 C 0.64914 0.03674 0.04143
 C1414 C 0.63358 0.02432 0.04449
 C1415 C 0.61428 0.04247 0.02007
 C1416 C 0.62984 0.05489 0.01700
 C1417 C 0.60372 0.00813 0.02947
 C1418 C 0.58996 -0.00287 0.03217
 C1419 C 0.66682 0.05849 0.01706
 C1420 C 0.68058 0.06949 0.01435
 H1421 H 0.63255 0.00101 0.00141
 H1422 H 0.66145 0.02407 -0.00427
 H1423 H 0.65977 0.04026 0.05293
 H1424 H 0.63088 0.01719 0.05861
 H1425 H 0.59903 0.04715 0.01830
 H1426 H 0.62792 0.07021 0.01262
 C1427 C 0.12004 0.52162 0.52544
 C1428 C 0.12702 0.53215 0.54430
 C1429 C 0.14254 0.54463 0.54129
 C1430 C 0.14957 0.54536 0.51972
 C1431 C 0.13110 0.55077 0.50769
 C1432 C 0.11557 0.53829 0.51069
 C1433 C 0.13854 0.51131 0.51726
 C1434 C 0.15407 0.52379 0.51425
 C1435 C 0.10333 0.50820 0.52869
 C1436 C 0.08960 0.49716 0.53138
 C1437 C 0.16629 0.55879 0.51649
 C1438 C 0.18002 0.56983 0.51385
 H1439 H 0.12035 0.53000 0.55874
 H1440 H 0.14918 0.55317 0.55315
 H1441 H 0.13029 0.56329 0.49768
 H1442 H 0.10146 0.54013 0.50327
 H1443 H 0.13937 0.49559 0.51411
 H1444 H 0.16820 0.51876 0.50852
 C1445 C 0.11945 0.47884 -0.02558
 C1446 C 0.13036 0.47320 -0.04468
 C1447 C 0.14592 0.46074 -0.04170
 C1448 C 0.14905 0.45514 -0.01993
 C1449 C 0.12915 0.44662 -0.01313
 C1450 C 0.11359 0.45907 -0.01610
 C1451 C 0.13546 0.48739 -0.01196
 C1452 C 0.15102 0.47493 -0.00898
 C1453 C 0.10270 0.49224 -0.02880
 C1454 C 0.08894 0.50326 -0.03146
 C1455 C 0.16580 0.44174 -0.01674
 C1456 C 0.17957 0.43071 -0.01413
 H1457 H 0.12623 0.47852 -0.05925
 H1458 H 0.15512 0.45539 -0.05373
 H1459 H 0.12743 0.43207 -0.00655
 H1460 H 0.09854 0.45520 -0.01207
 H1461 H 0.13464 0.50194 -0.00523
 H1462 H 0.16354 0.47881 0.00029
 C1463 C 0.61967 0.97844 0.47402
 C1464 C 0.61484 0.96093 0.48762
 C1465 C 0.63043 0.94849 0.49061
 C1466 C 0.64931 0.95479 0.47970
 C1467 C 0.65322 0.97608 0.48653
 C1468 C 0.63764 0.98851 0.48355
 C1469 C 0.62761 0.96906 0.45494
 C1470 C 0.64319 0.95663 0.45792
 C1471 C 0.60290 0.99182 0.47081
 C1472 C 0.58913 1.00282 0.46816
 C1473 C 0.66608 0.94141 0.48291
 C1474 C 0.67985 0.93041 0.48556
 H1475 H 0.60046 0.95850 0.49432
 H1476 H 0.62939 0.93542 0.49986
 H1477 H 0.66701 0.98096 0.49314
 H1478 H 0.63808 1.00404 0.48760
 H1479 H 0.62152 0.97193 0.44036
 H1480 H 0.65045 0.94885 0.44590
 C1481 C 0.87974 0.97852 0.52599
 C1482 C 0.86408 0.97932 0.54240
 C1483 C 0.84853 0.96688 0.53932
 C1484 C 0.85017 0.95487 0.52013
 C1485 C 0.87019 0.94423 0.52153
 C1486 C 0.88573 0.95667 0.52461
 C1487 C 0.86838 0.98275 0.50680
 C1488 C 0.85284 0.97031 0.50372
 C1489 C 0.89647 0.99191 0.52930
 C1490 C 0.91022 1.00292 0.53201
 C1491 C 0.83344 0.94148 0.51682
 C1492 C 0.81969 0.93047 0.51410
 H1493 H 0.86511 0.98881 0.55530
 H1494 H 0.83625 0.96572 0.54959
 H1495 H 0.87199 0.92834 0.52021
 H1496 H 0.90085 0.95143 0.52593
 H1497 H 0.87221 0.99448 0.49653
 H1498 H 0.84335 0.97139 0.49082
 C1499 C 0.37955 0.47876 0.02569
 C1500 C 0.37954 0.46905 0.00518
 C1501 C 0.36398 0.45662 0.00215
 C1502 C 0.34995 0.45512 0.01994
 C1503 C 0.34376 0.47650 0.02438
 C1504 C 0.35933 0.48893 0.02741
 C1505 C 0.37873 0.46149 0.04039
 C1506 C 0.36317 0.44906 0.03737
 C1507 C 0.39630 0.49214 0.02894
 C1508 C 0.41007 0.50313 0.03163
 C1509 C 0.33320 0.44174 0.01668
 C1510 C 0.31945 0.43073 0.01401
 H1511 H 0.39076 0.47170 -0.00599
 H1512 H 0.36187 0.44862 -0.01160
 H1513 H 0.32850 0.48145 0.02509
 H1514 H 0.35740 0.50453 0.03070
 H1515 H 0.38943 0.45923 0.05214
 H1516 H 0.36054 0.43615 0.04653
 C1517 C 0.52215 0.47416 0.37998
 C1518 C 0.51729 0.49282 0.36801
 C1519 C 0.52972 0.49589 0.35245
 C1520 C 0.54580 0.47999 0.35039
 C1521 C 0.53453 0.46033 0.34927
 C1522 C 0.52210 0.45726 0.36483
 C1523 C 0.54389 0.47654 0.38605
 C1524 C 0.55632 0.47961 0.37050
 C1525 C 0.50877 0.47086 0.39672
 C1526 C 0.49776 0.46815 0.41048
 C1527 C 0.55918 0.48329 0.33364
 C1528 C 0.57017 0.48599 0.31988
 H1529 H 0.50515 0.50276 0.37145
 H1530 H 0.52823 0.50845 0.34257
 H1531 H 0.53617 0.44974 0.33732
 H1532 H 0.51309 0.44405 0.36620
 H1533 H 0.54906 0.47588 0.40124
 H1534 H 0.57215 0.48157 0.37235
 C1535 C 0.02200 -0.02566 0.87998
 C1536 C 0.01350 -0.01194 0.86402
 C1537 C 0.02599 -0.00891 0.84851
 C1538 C 0.04576 -0.01989 0.85047
 C1539 C 0.04013 -0.04167 0.85347
 C1540 C 0.02764 -0.04470 0.86899
 C1541 C 0.04176 -0.01624 0.88594
 C1542 C 0.05426 -0.01321 0.87043
 C1543 C 0.00855 -0.02894 0.89667
 C1544 C -0.00251 -0.03164 0.91039
 C1545 C 0.05921 -0.01663 0.83377
 C1546 C 0.07026 -0.01397 0.82004
 H1547 H -0.00105 -0.00520 0.86484
 H1548 H 0.02215 0.00044 0.83603
 H1549 H 0.04549 -0.05365 0.84423
 H1550 H 0.02229 -0.05929 0.87303
 H1551 H 0.04561 -0.01230 0.90102
 H1552 H 0.06881 -0.00667 0.87222
 C1553 C 0.02199 0.02611 0.62033
 C1554 C 0.03974 0.01289 0.61526
 C1555 C 0.05222 0.00984 0.63079
 C1556 C 0.04572 0.02029 0.64986
 C1557 C 0.02455 0.01304 0.65364
 C1558 C 0.01208 0.01610 0.63812
 C1559 C 0.03104 0.04520 0.62861
 C1560 C 0.04351 0.04215 0.64414
 C1561 C 0.00856 0.02940 0.60362
 C1562 C -0.00248 0.03212 0.58989
 C1563 C 0.05915 0.01700 0.66657
 C1564 C 0.07019 0.01431 0.68030
 H1565 H 0.04229 0.00650 0.60076
 H1566 H 0.06545 0.00082 0.62958
 H1567 H 0.01979 0.00610 0.66731
 H1568 H -0.00338 0.01178 0.63849
 H1569 H 0.02792 0.05984 0.62279
 H1570 H 0.05108 0.05416 0.65162
 C1571 C 0.52181 0.52621 0.12000
 C1572 C 0.51118 0.52477 0.14001
 C1573 C 0.52364 0.52171 0.15555
 C1574 C 0.54549 0.52039 0.14956
 C1575 C 0.54966 0.53961 0.13822
 C1576 C 0.53720 0.54266 0.12268
 C1577 C 0.53389 0.50706 0.11834
 C1578 C 0.54634 0.50400 0.13389
 C1579 C 0.50840 0.52951 0.10327
 C1580 C 0.49739 0.53222 0.08952
 C1581 C 0.55890 0.51711 0.16629
 C1582 C 0.56993 0.51441 0.18003
 H1583 H 0.49528 0.52603 0.14181
 H1584 H 0.51840 0.52035 0.17066
 H1585 H 0.56135 0.54990 0.14206
 H1586 H 0.53823 0.55558 0.11321
 H1587 H 0.53275 0.49680 0.10605
 H1588 H 0.55588 0.49112 0.13490
 C1589 C 0.47822 -0.02616 0.12055
 C1590 C 0.47448 -0.04481 0.13294
 C1591 C 0.46200 -0.04179 0.14847
 C1592 C 0.45449 -0.02043 0.15010
 C1593 C 0.44512 -0.01593 0.12992
 C1594 C 0.45760 -0.01894 0.11438
 C1595 C 0.48570 -0.01067 0.13534
 C1596 C 0.47323 -0.00765 0.15088
 C1597 C 0.49165 -0.02941 0.10383
 C1598 C 0.50268 -0.03210 0.09009
 C1599 C 0.44106 -0.01720 0.16682
 C1600 C 0.43002 -0.01453 0.18055
 H1601 H 0.48105 -0.05911 0.12979
 H1602 H 0.45788 -0.05352 0.15863
 H1603 H 0.43002 -0.01083 0.12800
 H1604 H 0.45319 -0.01642 0.09916
 H1605 H 0.49958 -0.00276 0.13376
 H1606 H 0.47641 0.00284 0.16260
 C1607 C 0.97824 0.47366 0.62009
 C1608 C 0.97059 0.45447 0.62948
 C1609 C 0.95818 0.45751 0.64507
 C1610 C 0.95465 0.47944 0.64974
 C1611 C 0.94719 0.48848 0.63030
 C1612 C 0.95960 0.48544 0.61472
 C1613 C 0.98777 0.48518 0.63717
 C1614 C 0.97536 0.48822 0.65276
 C1615 C 0.99159 0.47039 0.60331
 C1616 C 1.00256 0.46771 0.58952
 C1617 C 0.94130 0.48271 0.66652
 C1618 C 0.93031 0.48539 0.68029
 H1619 H 0.97455 0.43979 0.62433
 H1620 H 0.95153 0.44543 0.65328
 H1621 H 0.93339 0.49655 0.62891
 H1622 H 0.95641 0.49091 0.59996
 H1623 H 1.00291 0.49048 0.63703
 H1624 H 0.97988 0.49612 0.66598
 C1625 C 0.97811 0.52574 0.88031
 C1626 C 0.95822 0.51656 0.88624
 C1627 C 0.94579 0.51349 0.87068
 C1628 C 0.95448 0.51989 0.85072
 C1629 C 0.97416 0.50870 0.84898
 C1630 C 0.98658 0.51177 0.86454
 C1631 C 0.97272 0.54472 0.86910
 C1632 C 0.96029 0.54165 0.85354
 C1633 C 0.99149 0.52904 0.89706
 C1634 C 1.00249 0.53176 0.91081
 C1635 C 0.94110 0.51659 0.83396
 C1636 C 0.93011 0.51389 0.82020
 H1637 H 0.95425 0.51280 0.90134
 H1638 H 0.93118 0.50710 0.87245
 H1639 H 0.97799 0.49920 0.83662
 H1640 H 1.00106 0.50490 0.86552
 H1641 H 0.97818 0.55929 0.87303
 H1642 H 0.95511 0.55359 0.84414
 C1643 C 0.47803 0.02546 0.38027
 C1644 C 0.48666 0.03185 0.36028
 C1645 C 0.47418 0.02882 0.34476
 C1646 C 0.45428 0.01970 0.35075
 C1647 C 0.44590 0.03368 0.36655
 C1648 C 0.45839 0.03671 0.38207
 C1649 C 0.47214 0.00372 0.37746
 C1650 C 0.45965 0.00069 0.36194
 C1651 C 0.49147 0.02872 0.39698
 C1652 C 0.50252 0.03141 0.41070
 C1653 C 0.44084 0.01644 0.33404
 C1654 C 0.42980 0.01377 0.32031
 H1655 H 0.50129 0.03819 0.35847
 H1656 H 0.47811 0.03257 0.32965
 H1657 H 0.43144 0.04059 0.36563
 H1658 H 0.45462 0.04621 0.39445
 H1659 H 0.47732 -0.00824 0.38684
 H1660 H 0.45413 -0.01386 0.35802
   
