data_POSCAR
  _audit_creation_date              2014-09-24
  _audit_creation_method            'ToBaCCo'
  _symmetry_space_group_name_H-M    'P1'
  _symmetry_Int_Tables_number       1
  _symmetry_cell_setting            triclinic
  loop_
  _symmetry_equiv_pos_as_xyz
 x,y,z
_cell_length_a 86.1286
_cell_length_b 83.3536
_cell_length_c 87.1791
_cell_angle_alpha 89.362900
_cell_angle_beta 89.557200
_cell_angle_gamma 89.047400
loop_
  _atom_site_label
  _atom_site_type_symbol
  _atom_site_fract_x
  _atom_site_fract_y
  _atom_site_fract_z
N1 N 0.37376 0.32426 0.34937
 N2 N 0.37596 0.33701 0.34069
 C3 C 0.38636 0.33340 0.32958
 C4 C 0.39089 0.31745 0.33135
 C5 C 0.38268 0.31210 0.34411
 H6 H 0.38963 0.34152 0.32039
 H7 H 0.38281 0.30011 0.34898
 Cu8 Cu 0.36340 0.35628 0.34346
 Cu9 Cu 0.35855 0.32398 0.36608
 Cu10 Cu 0.33639 0.35875 0.37122
 N11 N 0.34626 0.37165 0.34221
 N12 N 0.33570 0.37273 0.35312
 C13 C 0.32471 0.38353 0.34887
 C14 C 0.32846 0.38934 0.33436
 C15 C 0.34228 0.38155 0.33056
 H16 H 0.31431 0.38619 0.35545
 H17 H 0.34873 0.38256 0.31992
 N18 N 0.33461 0.33967 0.38465
 N19 N 0.34268 0.32629 0.38241
 C20 C 0.33760 0.31495 0.39225
 C21 C 0.32572 0.32145 0.40111
 C22 C 0.32421 0.33720 0.39603
 H23 H 0.34190 0.30270 0.39263
 H24 H 0.31550 0.34589 0.39962
 H25 H 0.34359 0.34105 0.35673
 H26 H 0.35856 0.34804 0.37031
 N27 N 0.37275 0.82327 -0.16861
 N28 N 0.37736 0.83704 -0.17431
 C29 C 0.38972 0.83439 -0.18360
 C30 C 0.39300 0.81795 -0.18371
 C31 C 0.38200 0.81143 -0.17385
 H32 H 0.39534 0.84368 -0.19024
 H33 H 0.38010 0.79892 -0.17129
 Cu34 Cu 0.36546 0.85666 -0.17038
 Cu35 Cu 0.35381 0.82103 -0.15673
 Cu36 Cu 0.33416 0.85583 -0.14691
 N37 N 0.34945 0.87341 -0.17099
 N38 N 0.33691 0.87268 -0.16235
 C39 C 0.32701 0.88460 -0.16645
 C40 C 0.33371 0.89338 -0.17834
 C41 C 0.34809 0.88597 -0.18073
 H42 H 0.31570 0.88646 -0.16126
 H43 H 0.35649 0.88869 -0.18962
 N44 N 0.32941 0.83487 -0.13753
 N45 N 0.33680 0.82160 -0.14162
 C46 C 0.33067 0.80910 -0.13400
 C47 C 0.31870 0.81467 -0.12472
 C48 C 0.31829 0.83114 -0.12717
 H49 H 0.33467 0.79682 -0.13514
 H50 H 0.31019 0.83971 -0.12222
 H51 H 0.34221 0.84180 -0.16386
 H52 H 0.35559 0.84315 -0.14719
 N53 N 0.87729 0.32840 -0.15381
 N54 N 0.87782 0.34144 -0.16237
 C55 C 0.88707 0.33862 -0.17463
 C56 C 0.89252 0.32288 -0.17370
 C57 C 0.88617 0.31686 -0.16022
 H58 H 0.88890 0.34705 -0.18396
 H59 H 0.88739 0.30479 -0.15566
 Cu60 Cu 0.86484 0.36007 -0.15751
 Cu61 Cu 0.86393 0.32691 -0.13581
 Cu62 Cu 0.83217 0.35291 -0.13711
 N63 N 0.84733 0.37495 -0.15770
 N64 N 0.83413 0.37143 -0.15091
 C65 C 0.82321 0.38230 -0.15517
 C66 C 0.82999 0.39340 -0.16508
 C67 C 0.84541 0.38837 -0.16621
 H68 H 0.81123 0.38201 -0.15142
 H69 H 0.85426 0.39320 -0.17372
 N70 N 0.83303 0.33362 -0.12365
 N71 N 0.84533 0.32398 -0.12308
 C72 C 0.84237 0.31157 -0.11361
 C73 C 0.82749 0.31344 -0.10781
 C74 C 0.82192 0.32763 -0.11432
 H75 H 0.85034 0.30166 -0.11144
 H76 H 0.81042 0.33281 -0.11284
 H77 H 0.84784 0.33881 -0.14902
 H78 H 0.85519 0.35042 -0.13250
 N79 N 0.86958 0.81038 0.34743
 N80 N 0.87387 0.82253 0.33876
 C81 C 0.88511 0.81755 0.32900
 C82 C 0.88797 0.80133 0.33166
 C83 C 0.87794 0.79728 0.34355
 H84 H 0.89008 0.82495 0.32002
 H85 H 0.87635 0.78553 0.34863
 Cu86 Cu 0.86266 0.84287 0.33967
 Cu87 Cu 0.85222 0.81189 0.36181
 Cu88 Cu 0.83184 0.84822 0.36295
 N89 N 0.84735 0.85973 0.33585
 N90 N 0.83531 0.86196 0.34495
 C91 C 0.82630 0.87390 0.33915
 C92 C 0.83292 0.87926 0.32543
 C93 C 0.84637 0.86995 0.32387
 H94 H 0.81540 0.87774 0.34424
 H95 H 0.85474 0.87016 0.31458
 N96 N 0.82680 0.82967 0.37636
 N97 N 0.83442 0.81581 0.37563
 C98 C 0.82737 0.80510 0.38484
 C99 C 0.81467 0.81246 0.39172
 C100 C 0.81471 0.82810 0.38617
 H101 H 0.83092 0.79266 0.38612
 H102 H 0.80604 0.83734 0.38836
 H103 H 0.83992 0.82972 0.35002
 H104 H 0.85301 0.83614 0.36561
 N105 N 0.61876 0.66986 0.33722
 N106 N 0.61952 0.65715 0.32844
 C107 C 0.61009 0.65936 0.31637
 C108 C 0.60291 0.67425 0.31764
 C109 C 0.60859 0.68057 0.33109
 H110 H 0.60899 0.65100 0.30707
 H111 H 0.60632 0.69246 0.33548
 Cu112 Cu 0.63389 0.63963 0.33258
 Cu113 Cu 0.63282 0.67239 0.35456
 Cu114 Cu 0.66171 0.64295 0.35875
 N115 N 0.65155 0.62501 0.33285
 N116 N 0.66218 0.62592 0.34352
 C117 C 0.67356 0.61508 0.34059
 C118 C 0.66995 0.60715 0.32723
 C119 C 0.65588 0.61377 0.32264
 H120 H 0.68421 0.61388 0.34703
 H121 H 0.64955 0.61106 0.31235
 N122 N 0.65931 0.66137 0.37266
 N123 N 0.64838 0.67257 0.37117
 C124 C 0.65098 0.68429 0.38135
 C125 C 0.66429 0.68035 0.38947
 C126 C 0.66915 0.66570 0.38371
 H127 H 0.64438 0.69541 0.38204
 H128 H 0.67956 0.65906 0.38683
 H129 H 0.65045 0.65919 0.34436
 H130 H 0.63815 0.64855 0.35878
 N131 N 0.62344 0.16312 -0.15030
 N132 N 0.62550 0.15404 -0.16241
 C133 C 0.61747 0.16053 -0.17425
 C134 C 0.61020 0.17449 -0.16921
 C135 C 0.61415 0.17565 -0.15396
 H136 H 0.61790 0.15616 -0.18588
 H137 H 0.61128 0.18543 -0.14633
 Cu138 Cu 0.64027 0.13600 -0.16191
 Cu139 Cu 0.63471 0.15946 -0.13138
 Cu140 Cu 0.66932 0.13864 -0.13628
 N141 N 0.65920 0.12306 -0.16371
 N142 N 0.67072 0.12484 -0.15412
 C143 C 0.68288 0.11576 -0.15868
 C144 C 0.67886 0.10767 -0.17187
 C145 C 0.66359 0.11257 -0.17463
 H146 H 0.69379 0.11507 -0.15266
 H147 H 0.65643 0.10941 -0.18423
 N148 N 0.66521 0.15302 -0.11883
 N149 N 0.65170 0.16033 -0.11665
 C150 C 0.65274 0.17026 -0.10467
 C151 C 0.66771 0.16928 -0.09904
 C152 C 0.67524 0.15808 -0.10821
 H153 H 0.64355 0.17840 -0.10107
 H154 H 0.68742 0.15477 -0.10789
 H155 H 0.65337 0.15456 -0.14542
 H156 H 0.64601 0.13698 -0.13428
 N157 N 0.11543 0.66287 -0.15870
 N158 N 0.11787 0.65134 -0.16861
 C159 C 0.10937 0.65435 -0.18123
 C160 C 0.10108 0.66855 -0.17909
 C161 C 0.10508 0.67352 -0.16455
 H162 H 0.10973 0.64706 -0.19142
 H163 H 0.10157 0.68457 -0.15904
 Cu164 Cu 0.13338 0.63473 -0.16480
 Cu165 Cu 0.12718 0.66395 -0.13974
 Cu166 Cu 0.16023 0.63908 -0.13766
 N167 N 0.15294 0.62303 -0.16558
 N168 N 0.16358 0.62471 -0.15501
 C169 C 0.17656 0.61659 -0.15928
 C170 C 0.17391 0.60978 -0.17344
 C171 C 0.15880 0.61408 -0.17703
 H172 H 0.18744 0.61667 -0.15317
 H173 H 0.15280 0.61165 -0.18759
 N174 N 0.15632 0.65735 -0.12376
 N175 N 0.14378 0.66666 -0.12462
 C176 C 0.14542 0.67922 -0.11528
 C177 C 0.15966 0.67782 -0.10814
 C178 C 0.16621 0.66373 -0.11368
 H179 H 0.13727 0.68918 -0.11446
 H180 H 0.17785 0.65923 -0.11153
 H181 H 0.14679 0.65475 -0.15053
 H182 H 0.13646 0.64090 -0.13725
 N183 N 0.13414 0.18348 0.34535
 N184 N 0.13524 0.17324 0.33401
 C185 C 0.12599 0.17840 0.32246
 C186 C 0.11889 0.19271 0.32685
 C187 C 0.12426 0.19545 0.34146
 H188 H 0.12525 0.17275 0.31139
 H189 H 0.12169 0.20576 0.34853
 Cu190 Cu 0.15005 0.15522 0.33489
 Cu191 Cu 0.14649 0.18152 0.36384
 Cu192 Cu 0.17978 0.15840 0.35947
 N193 N 0.16884 0.14194 0.33289
 N194 N 0.18053 0.14384 0.34227
 C195 C 0.19261 0.13468 0.33768
 C196 C 0.18835 0.12647 0.32477
 C197 C 0.17310 0.13125 0.32205
 H198 H 0.20382 0.13418 0.34319
 H199 H 0.16598 0.12786 0.31248
 N200 N 0.17679 0.17370 0.37626
 N201 N 0.16403 0.18242 0.37810
 C202 C 0.16611 0.19273 0.38968
 C203 C 0.18098 0.19042 0.39538
 C204 C 0.18729 0.17812 0.38665
 H205 H 0.15778 0.20194 0.39298
 H206 H 0.19893 0.17316 0.38734
 H207 H 0.16424 0.17457 0.34966
 H208 H 0.15625 0.15840 0.36225
 N209 N 0.63728 0.32079 0.64801
 N210 N 0.63408 0.33321 0.65667
 C211 C 0.62222 0.32963 0.66619
 C212 C 0.61776 0.31401 0.66341
 C213 C 0.62754 0.30889 0.65165
 H214 H 0.61802 0.33739 0.67522
 H215 H 0.62815 0.29709 0.64665
 Cu216 Cu 0.64755 0.35158 0.65650
 Cu217 Cu 0.65527 0.32007 0.63430
 Cu218 Cu 0.67968 0.35290 0.63458
 N219 N 0.66453 0.36553 0.66140
 N220 N 0.67718 0.36613 0.65289
 C221 C 0.68739 0.37590 0.65958
 C222 C 0.68084 0.38145 0.67316
 C223 C 0.66629 0.37467 0.67384
 H224 H 0.69902 0.37804 0.65533
 H225 H 0.65776 0.37584 0.68294
 N226 N 0.68308 0.33430 0.62098
 N227 N 0.67395 0.32172 0.62121
 C228 C 0.68014 0.31033 0.61214
 C229 C 0.69383 0.31590 0.60587
 C230 C 0.69530 0.33123 0.61161
 H231 H 0.67531 0.29858 0.61056
 H232 H 0.70502 0.33911 0.60989
 H233 H 0.66893 0.33537 0.64677
 H234 H 0.65738 0.34435 0.63080
 N235 N 0.62453 0.83175 1.16128
 N236 N 0.62337 0.84536 1.16869
 C237 C 0.61113 0.84487 1.17832
 C238 C 0.60420 0.83008 1.17697
 C239 C 0.61296 0.82211 1.16592
 H240 H 0.60815 0.85418 1.18642
 H241 H 0.61178 0.80977 1.16246
 Cu242 Cu 0.63961 0.86108 1.16741
 Cu243 Cu 0.64249 0.82680 1.14825
 Cu244 Cu 0.66885 0.85747 1.14219
 N245 N 0.65900 0.87206 1.17028
 N246 N 0.67051 0.87102 1.16033
 C247 C 0.68270 0.87918 1.16572
 C248 C 0.67860 0.88532 1.17994
 C249 C 0.66347 0.88061 1.18238
 H250 H 0.69397 0.87971 1.16019
 H251 H 0.65636 0.88277 1.19246
 N252 N 0.66861 0.83788 1.12964
 N253 N 0.65896 0.82600 1.13236
 C254 C 0.66258 0.81379 1.12295
 C255 C 0.67509 0.81813 1.11387
 C256 C 0.67856 0.83355 1.11836
 H257 H 0.65670 0.80243 1.12286
 H258 H 0.68815 0.84072 1.11434
 H259 H 0.65875 0.84232 1.15706
 H260 H 0.64545 0.85028 1.14194
 N261 N 0.14525 0.33091 1.15223
 N262 N 0.14481 0.34040 1.16418
 C263 C 0.13286 0.33624 1.17337
 C264 C 0.12545 0.32337 1.16688
 C265 C 0.13360 0.32040 1.15340
 H266 H 0.13035 0.34156 1.18440
 H267 H 0.13164 0.31090 1.14532
 Cu268 Cu 0.16080 0.35625 1.16743
 Cu269 Cu 0.16186 0.33194 1.13687
 Cu270 Cu 0.19556 0.34639 1.15242
 N271 N 0.17945 0.36754 1.17315
 N272 N 0.19300 0.36338 1.16728
 C273 C 0.20418 0.37181 1.17396
 C274 C 0.19734 0.38188 1.18465
 C275 C 0.18156 0.37892 1.18378
 H276 H 0.21642 0.37045 1.17138
 H277 H 0.17242 0.38402 1.19087
 N278 N 0.19525 0.33357 1.13364
 N279 N 0.18242 0.32842 1.12733
 C280 C 0.18621 0.31997 1.11469
 C281 C 0.20226 0.31980 1.11303
 C282 C 0.20751 0.32866 1.12523
 H283 H 0.17794 0.31389 1.10763
 H284 H 0.21942 0.33134 1.12786
 H285 H 0.17502 0.33401 1.15560
 H286 H 0.17467 0.35230 1.14306
 N287 N 0.11637 0.83592 0.65903
 N288 N 0.11525 0.84954 0.66644
 C289 C 0.10407 0.84846 0.67722
 C290 C 0.09780 0.83331 0.67658
 C291 C 0.10577 0.82573 0.66476
 H292 H 0.10148 0.85764 0.68557
 H293 H 0.10483 0.81331 0.66148
 Cu294 Cu 0.13046 0.86609 0.66352
 Cu295 Cu 0.13309 0.83172 0.64427
 Cu296 Cu 0.16090 0.86137 0.63995
 N297 N 0.14916 0.87829 0.66610
 N298 N 0.16125 0.87643 0.65697
 C299 C 0.17302 0.88526 0.66225
 C300 C 0.16804 0.89277 0.67558
 C301 C 0.15280 0.88813 0.67756
 H302 H 0.18459 0.88534 0.65735
 H303 H 0.14510 0.89110 0.68701
 N304 N 0.16116 0.84141 0.62795
 N305 N 0.15083 0.82999 0.62987
 C306 C 0.15490 0.81746 0.62102
 C307 C 0.16841 0.82112 0.61314
 C308 C 0.17200 0.83644 0.61777
 H309 H 0.14861 0.80637 0.62048
 H310 H 0.18216 0.84319 0.61454
 H311 H 0.14921 0.84643 0.65432
 H312 H 0.13757 0.85511 0.63826
 N313 N 0.37231 0.67462 0.64654
 N314 N 0.37478 0.66605 0.65906
 C315 C 0.38552 0.67332 0.66759
 C316 C 0.38992 0.68724 0.66001
 C317 C 0.38133 0.68762 0.64666
 H318 H 0.38931 0.66918 0.67877
 H319 H 0.38134 0.69685 0.63784
 Cu320 Cu 0.36284 0.64689 0.66343
 Cu321 Cu 0.35698 0.66869 0.63148
 Cu322 Cu 0.32876 0.64299 0.64524
 N323 N 0.34735 0.63182 0.67061
 N324 N 0.33416 0.63030 0.66332
 C325 C 0.32535 0.61958 0.67084
 C326 C 0.33334 0.61417 0.68363
 C327 C 0.34728 0.62225 0.68317
 H328 H 0.31370 0.61647 0.66758
 H329 H 0.35654 0.62146 0.69146
 N330 N 0.32589 0.65681 0.62697
 N331 N 0.33691 0.66606 0.62139
 C332 C 0.33119 0.67478 0.60959
 C333 C 0.31575 0.67096 0.60769
 C334 C 0.31284 0.65943 0.61886
 H335 H 0.33748 0.68412 0.60365
 H336 H 0.30186 0.65384 0.62130
 H337 H 0.34300 0.66189 0.64967
 H338 H 0.35090 0.64503 0.63792
 N339 N 0.36984 0.17567 1.15364
 N340 N 0.37298 0.16568 1.16502
 C341 C 0.38350 0.17233 1.17428
 C342 C 0.38700 0.18740 1.16846
 C343 C 0.37811 0.18908 1.15536
 H344 H 0.38766 0.16700 1.18487
 H345 H 0.37743 0.19946 1.14783
 Cu346 Cu 0.36185 0.14564 1.16738
 Cu347 Cu 0.35453 0.17112 1.13797
 Cu348 Cu 0.33209 0.13758 1.14405
 N349 N 0.34717 0.12878 1.17227
 N350 N 0.33600 0.12530 1.16273
 C351 C 0.32712 0.11384 1.16904
 C352 C 0.33287 0.10999 1.18341
 C353 C 0.34563 0.11975 1.18510
 H354 H 0.31659 0.10946 1.16401
 H355 H 0.35293 0.12060 1.19508
 N356 N 0.32980 0.15169 1.12595
 N357 N 0.33844 0.16440 1.12348
 C358 C 0.33307 0.17237 1.11102
 C359 C 0.32030 0.16443 1.10557
 C360 C 0.31861 0.15135 1.11528
 H361 H 0.33734 0.18378 1.10690
 H362 H 0.30940 0.14271 1.11503
 H363 H 0.34078 0.15838 1.15314
 H364 H 0.35415 0.14649 1.14046
 N365 N 0.86786 0.66081 1.15830
 N366 N 0.86775 0.65188 1.17082
 C367 C 0.87929 0.65647 1.18006
 C368 C 0.88697 0.66905 1.17296
 C369 C 0.87945 0.67136 1.15911
 H370 H 0.88128 0.65172 1.19148
 H371 H 0.88172 0.68052 1.15054
 Cu372 Cu 0.85155 0.63622 1.17452
 Cu373 Cu 0.85180 0.65949 1.14277
 Cu374 Cu 0.81745 0.64547 1.15802
 N375 N 0.83272 0.62483 1.18004
 N376 N 0.81948 0.62857 1.17342
 C377 C 0.80810 0.61995 1.17989
 C378 C 0.81445 0.61023 1.19131
 C379 C 0.83020 0.61362 1.19101
 H380 H 0.79604 0.62103 1.17667
 H381 H 0.83902 0.60887 1.19864
 N382 N 0.81852 0.65837 1.13900
 N383 N 0.83165 0.66331 1.13286
 C384 C 0.82846 0.67226 1.12027
 C385 C 0.81247 0.67301 1.11838
 C386 C 0.80662 0.66392 1.13047
 H387 H 0.83716 0.67832 1.11346
 H388 H 0.79458 0.66179 1.13318
 H389 H 0.83777 0.65798 1.16129
 H390 H 0.83864 0.63935 1.14962
 N391 N 0.87484 0.16644 0.66333
 N392 N 0.87341 0.15697 0.67539
 C393 C 0.88188 0.16265 0.68694
 C394 C 0.88919 0.17639 0.68184
 C395 C 0.88456 0.17838 0.66672
 H396 H 0.88256 0.15724 0.69825
 H397 H 0.88748 0.18813 0.65899
 Cu398 Cu 0.86035 0.13831 0.67501
 Cu399 Cu 0.86309 0.16290 0.64461
 Cu400 Cu 0.83189 0.13712 0.64923
 N401 N 0.84323 0.12378 0.67760
 N402 N 0.83223 0.12305 0.66729
 C403 C 0.82147 0.11259 0.67217
 C404 C 0.82588 0.10666 0.68641
 C405 C 0.83975 0.11405 0.68951
 H406 H 0.81080 0.11015 0.66622
 H407 H 0.84658 0.11278 0.69982
 N408 N 0.83389 0.15226 0.63177
 N409 N 0.84590 0.16172 0.62979
 C410 C 0.84326 0.17140 0.61756
 C411 C 0.82882 0.16799 0.61168
 C412 C 0.82328 0.15573 0.62093
 H413 H 0.85075 0.18104 0.61395
 H414 H 0.81205 0.15022 0.62019
 H415 H 0.84505 0.15545 0.65816
 H416 H 0.85535 0.13941 0.64720
 N417 N 0.33189 0.37002 0.66604
 N418 N 0.34403 0.36781 0.67491
 C419 C 0.34215 0.37655 0.68769
 C420 C 0.32816 0.38487 0.68668
 C421 C 0.32201 0.38056 0.67271
 H422 H 0.35021 0.37659 0.69714
 H423 H 0.31079 0.38408 0.66817
 Cu424 Cu 0.36077 0.35308 0.66943
 Cu425 Cu 0.32924 0.35759 0.64740
 Cu426 Cu 0.35188 0.32269 0.64658
 N427 N 0.37387 0.33403 0.66836
 N428 N 0.36997 0.32187 0.65983
 C429 C 0.37979 0.30947 0.66256
 C430 C 0.39043 0.31411 0.67339
 C431 C 0.38637 0.32984 0.67676
 H432 H 0.37894 0.29778 0.65740
 H433 H 0.39141 0.33727 0.68545
 N434 N 0.33327 0.32604 0.63390
 N435 N 0.32491 0.33946 0.63378
 C436 C 0.31270 0.33768 0.62439
 C437 C 0.31338 0.32233 0.61845
 C438 C 0.32662 0.31538 0.62467
 H439 H 0.30354 0.34654 0.62269
 H440 H 0.33093 0.30331 0.62282
 H441 H 0.33882 0.33889 0.65941
 H442 H 0.35114 0.34707 0.64361
 N443 N 0.32428 0.87836 0.15088
 N444 N 0.33401 0.87529 0.16212
 C445 C 0.32887 0.88283 0.17486
 C446 C 0.31509 0.89084 0.17133
 C447 C 0.31264 0.88783 0.15600
 H448 H 0.33423 0.88179 0.18601
 H449 H 0.30281 0.89173 0.14919
 Cu450 Cu 0.35142 0.86031 0.15918
 Cu451 Cu 0.32661 0.86880 0.13080
 Cu452 Cu 0.34803 0.83341 0.13071
 N453 N 0.36419 0.84084 0.15852
 N454 N 0.36241 0.83022 0.14766
 C455 C 0.37148 0.81731 0.15065
 C456 C 0.37941 0.81991 0.16412
 C457 C 0.37456 0.83505 0.16877
 H458 H 0.37206 0.80668 0.14366
 H459 H 0.37770 0.84102 0.17922
 N460 N 0.33297 0.83924 0.11453
 N461 N 0.32522 0.85303 0.11440
 C462 C 0.31483 0.85303 0.10298
 C463 C 0.31598 0.83849 0.09552
 C464 C 0.32774 0.83011 0.10306
 H465 H 0.30635 0.86250 0.10095
 H466 H 0.33135 0.81782 0.10107
 H467 H 0.33277 0.84816 0.14240
 H468 H 0.34877 0.85764 0.13117
 N469 N 0.81987 0.36093 0.17286
 N470 N 0.83344 0.36504 0.17819
 C471 C 0.83121 0.37633 0.18903
 C472 C 0.81533 0.37925 0.19056
 C473 C 0.80860 0.36930 0.18001
 H474 H 0.84035 0.38139 0.19580
 H475 H 0.79636 0.36795 0.17784
 Cu476 Cu 0.85225 0.35372 0.17139
 Cu477 Cu 0.81721 0.34397 0.15823
 Cu478 Cu 0.85046 0.32899 0.14106
 N479 N 0.86842 0.33758 0.16734
 N480 N 0.86750 0.32772 0.15571
 C481 C 0.87912 0.31677 0.15662
 C482 C 0.88784 0.31995 0.16947
 C483 C 0.88077 0.33332 0.17595
 H484 H 0.88071 0.30682 0.14886
 H485 H 0.88373 0.33881 0.18670
 N486 N 0.82968 0.32602 0.13235
 N487 N 0.81707 0.33146 0.13933
 C488 C 0.80457 0.32739 0.13128
 C489 C 0.80938 0.31881 0.11855
 C490 C 0.82549 0.31817 0.11962
 H491 H 0.79281 0.33049 0.13461
 H492 H 0.83358 0.31225 0.11191
 H493 H 0.83816 0.33147 0.16044
 H494 H 0.83765 0.34968 0.14776
 N495 N 0.82019 0.86473 0.65463
 N496 N 0.83167 0.86301 0.66440
 C497 C 0.82885 0.87229 0.67664
 C498 C 0.81484 0.88036 0.67446
 C499 C 0.80974 0.87537 0.66026
 H500 H 0.83627 0.87276 0.68657
 H501 H 0.79884 0.87850 0.65484
 Cu502 Cu 0.84871 0.84792 0.66095
 Cu503 Cu 0.81913 0.85169 0.63616
 Cu504 Cu 0.84049 0.81626 0.63959
 N505 N 0.86193 0.82884 0.66124
 N506 N 0.85861 0.81644 0.65278
 C507 C 0.86832 0.80418 0.65631
 C508 C 0.87824 0.80906 0.66774
 C509 C 0.87389 0.82489 0.67050
 H510 H 0.86767 0.79238 0.65139
 H511 H 0.87830 0.83258 0.67932
 N512 N 0.82402 0.81956 0.62429
 N513 N 0.81588 0.83304 0.62283
 C514 C 0.80482 0.83102 0.61218
 C515 C 0.80605 0.81546 0.60672
 C516 C 0.81848 0.80870 0.61457
 H517 H 0.79601 0.83992 0.60927
 H518 H 0.82296 0.79657 0.61361
 H519 H 0.82696 0.83398 0.65002
 H520 H 0.84111 0.84030 0.63494
 N521 N 0.67174 0.62139 0.66027
 N522 N 0.65965 0.62110 0.66957
 C523 C 0.66272 0.61128 0.68152
 C524 C 0.67752 0.60493 0.67963
 C525 C 0.68289 0.61148 0.66593
 H526 H 0.65501 0.60946 0.69121
 H527 H 0.69438 0.60998 0.66103
 Cu528 Cu 0.64195 0.63521 0.66646
 Cu529 Cu 0.67263 0.63621 0.64269
 Cu530 Cu 0.64023 0.66128 0.63732
 N531 N 0.62830 0.65386 0.66723
 N532 N 0.62750 0.66414 0.65574
 C533 C 0.61777 0.67630 0.65958
 C534 C 0.61242 0.67356 0.67441
 C535 C 0.61932 0.65914 0.67885
 H536 H 0.61544 0.68672 0.65241
 H537 H 0.61824 0.65309 0.68983
 N538 N 0.65829 0.66099 0.62330
 N539 N 0.67085 0.65201 0.62562
 C540 C 0.68183 0.65627 0.61533
 C541 C 0.67587 0.66847 0.60606
 C542 C 0.66089 0.67106 0.61141
 H543 H 0.69349 0.65130 0.61496
 H544 H 0.65288 0.68042 0.60770
 H545 H 0.65761 0.65353 0.65151
 H546 H 0.64924 0.63785 0.63917
 N547 N 0.66383 0.11859 0.16521
 N548 N 0.65262 0.12098 0.17524
 C549 C 0.65557 0.11224 0.18799
 C550 C 0.66936 0.10378 0.18577
 C551 C 0.67422 0.10800 0.17110
 H552 H 0.64837 0.11233 0.19821
 H553 H 0.68490 0.10435 0.16544
 Cu554 Cu 0.63576 0.13601 0.17095
 Cu555 Cu 0.66460 0.13060 0.14589
 Cu556 Cu 0.64168 0.16550 0.14518
 N557 N 0.62282 0.15517 0.17065
 N558 N 0.62507 0.16683 0.16064
 C559 C 0.61569 0.17937 0.16427
 C560 C 0.60737 0.17535 0.17740
 C561 C 0.61216 0.15989 0.18105
 H562 H 0.61582 0.19096 0.15857
 H563 H 0.60886 0.15295 0.19107
 N564 N 0.65900 0.16145 0.13055
 N565 N 0.66756 0.14815 0.13088
 C566 C 0.67923 0.14946 0.12064
 C567 C 0.67798 0.16425 0.11340
 C568 C 0.66495 0.17150 0.11987
 H569 H 0.68837 0.14057 0.11904
 H570 H 0.66073 0.18358 0.11763
 H571 H 0.65622 0.15012 0.15757
 H572 H 0.64247 0.14119 0.14385
 N573 N 0.18212 0.62894 0.16399
 N574 N 0.16889 0.62637 0.17112
 C575 C 0.17051 0.61334 0.18031
 C576 C 0.18562 0.60746 0.17882
 C577 C 0.19259 0.61771 0.16833
 H578 H 0.16156 0.60886 0.18791
 H579 H 0.20461 0.61760 0.16467
 Cu580 Cu 0.15170 0.64173 0.16915
 Cu581 Cu 0.18550 0.64766 0.15103
 Cu582 Cu 0.15185 0.66654 0.13846
 N583 N 0.13552 0.65805 0.16618
 N584 N 0.13585 0.66794 0.15433
 C585 C 0.12455 0.67913 0.15594
 C586 C 0.11674 0.67617 0.16957
 C587 C 0.12395 0.66262 0.17575
 H588 H 0.12264 0.68911 0.14810
 H589 H 0.12166 0.65723 0.18686
 N590 N 0.17198 0.66904 0.12800
 N591 N 0.18487 0.66228 0.13320
 C592 C 0.19687 0.66704 0.12444
 C593 C 0.19135 0.67748 0.11318
 C594 C 0.17545 0.67840 0.11578
 H595 H 0.20875 0.66319 0.12626
 H596 H 0.16706 0.68580 0.10967
 H597 H 0.16647 0.66268 0.15610
 H598 H 0.16359 0.64483 0.14376
 N599 N 0.16760 0.12826 0.66258
 N600 N 0.15539 0.12775 0.67170
 C601 C 0.15815 0.11724 0.68321
 C602 C 0.17286 0.11067 0.68113
 C603 C 0.17848 0.11786 0.66786
 H604 H 0.15026 0.11499 0.69268
 H605 H 0.18999 0.11637 0.66297
 Cu606 Cu 0.13783 0.14216 0.66864
 Cu607 Cu 0.16916 0.14385 0.64580
 Cu608 Cu 0.13725 0.16943 0.64030
 N609 N 0.12408 0.16077 0.66944
 N610 N 0.12366 0.17142 0.65823
 C611 C 0.11366 0.18336 0.66203
 C612 C 0.10774 0.18011 0.67655
 C613 C 0.11459 0.16562 0.68084
 H614 H 0.11156 0.19401 0.65510
 H615 H 0.11311 0.15923 0.69160
 N616 N 0.15594 0.16977 0.62708
 N617 N 0.16824 0.16042 0.62946
 C618 C 0.17978 0.16510 0.62000
 C619 C 0.17452 0.17801 0.61125
 C620 C 0.15931 0.18055 0.61598
 H621 H 0.19138 0.15996 0.61995
 H622 H 0.15167 0.19033 0.61248
 H623 H 0.15402 0.16095 0.65485
 H624 H 0.14592 0.14587 0.64165
 N625 N 0.33168 0.62766 0.35381
 N626 N 0.33864 0.62965 0.34047
 C627 C 0.33215 0.61983 0.33019
 C628 C 0.32049 0.61140 0.33757
 C629 C 0.32062 0.61660 0.35253
 H630 H 0.33463 0.61995 0.31801
 H631 H 0.31242 0.61354 0.36152
 Cu632 Cu 0.35317 0.64718 0.33721
 Cu633 Cu 0.33529 0.64135 0.37124
 Cu634 Cu 0.35439 0.67657 0.36345
 N635 N 0.36738 0.66512 0.33493
 N636 N 0.36722 0.67672 0.34504
 C637 C 0.37626 0.68864 0.34000
 C638 C 0.38246 0.68445 0.32593
 C639 C 0.37668 0.66935 0.32306
 H640 H 0.37781 0.69984 0.34589
 H641 H 0.37828 0.66253 0.31266
 N642 N 0.34111 0.67353 0.38164
 N643 N 0.33438 0.65985 0.38496
 C644 C 0.32531 0.66179 0.39746
 C645 C 0.32633 0.67754 0.40227
 C646 C 0.33657 0.68457 0.39196
 H647 H 0.31780 0.65262 0.40206
 H648 H 0.33981 0.69702 0.39144
 H649 H 0.33764 0.66086 0.35637
 H650 H 0.35628 0.65257 0.36446
 N651 N 0.34363 0.12065 0.83112
 N652 N 0.35537 0.12227 0.82157
 C653 C 0.35281 0.11369 0.80890
 C654 C 0.33874 0.10612 0.81065
 C655 C 0.33328 0.11067 0.82498
 H656 H 0.36046 0.11332 0.79900
 H657 H 0.32222 0.10771 0.83017
 Cu658 Cu 0.37232 0.13633 0.82615
 Cu659 Cu 0.34229 0.13296 0.85003
 Cu660 Cu 0.36595 0.16658 0.85049
 N661 N 0.38555 0.15476 0.82617
 N662 N 0.38306 0.16680 0.83553
 C663 C 0.39252 0.17891 0.83149
 C664 C 0.40115 0.17418 0.81878
 C665 C 0.39647 0.15876 0.81582
 H666 H 0.39219 0.19071 0.83652
 H667 H 0.39993 0.15143 0.80619
 N668 N 0.34806 0.16367 0.86464
 N669 N 0.33925 0.15084 0.86441
 C670 C 0.32725 0.15294 0.87418
 C671 C 0.32848 0.16780 0.88092
 C672 C 0.34190 0.17422 0.87471
 H673 H 0.31792 0.14455 0.87573
 H674 H 0.34626 0.18610 0.87667
 H675 H 0.35166 0.15177 0.83816
 H676 H 0.36455 0.14224 0.85278
 N677 N 0.83155 0.62290 0.83794
 N678 N 0.84488 0.62318 0.83050
 C679 C 0.84453 0.61279 0.81882
 C680 C 0.83022 0.60550 0.81901
 C681 C 0.82232 0.61210 0.83137
 H682 H 0.85376 0.61111 0.81047
 H683 H 0.81041 0.60994 0.83471
 Cu684 Cu 0.86089 0.63815 0.83574
 Cu685 Cu 0.82654 0.63824 0.85411
 Cu686 Cu 0.85686 0.66158 0.86641
 N687 N 0.87316 0.65727 0.83795
 N688 N 0.87153 0.66657 0.84994
 C689 C 0.88069 0.67940 0.84813
 C690 C 0.88845 0.67805 0.83419
 C691 C 0.88341 0.66380 0.82809
 H692 H 0.88131 0.68916 0.85616
 H693 H 0.88634 0.65895 0.81696
 N694 N 0.83701 0.66000 0.87761
 N695 N 0.82523 0.65161 0.87268
 C696 C 0.81276 0.65463 0.88169
 C697 C 0.81692 0.66545 0.89284
 C698 C 0.83242 0.66850 0.88992
 H699 H 0.80137 0.64977 0.87993
 H700 H 0.83951 0.67720 0.89557
 H701 H 0.84274 0.65572 0.84915
 H702 H 0.84891 0.63837 0.86145
 N703 N 0.84095 0.12706 0.32873
 N704 N 0.85233 0.12754 0.31862
 C705 C 0.84929 0.11757 0.30705
 C706 C 0.83528 0.11028 0.31011
 C707 C 0.83034 0.11650 0.32403
 H708 H 0.85649 0.11612 0.29693
 H709 H 0.81939 0.11429 0.32976
 Cu710 Cu 0.86932 0.14216 0.32086
 Cu711 Cu 0.83980 0.14199 0.34591
 Cu712 Cu 0.86764 0.17187 0.34639
 N713 N 0.88291 0.16028 0.31917
 N714 N 0.88255 0.17185 0.32929
 C715 C 0.89233 0.18345 0.32463
 C716 C 0.89893 0.17892 0.31075
 C717 C 0.89270 0.16413 0.30770
 H718 H 0.89370 0.19479 0.33034
 H719 H 0.89465 0.15697 0.29757
 N720 N 0.85131 0.16968 0.36237
 N721 N 0.84073 0.15838 0.36210
 C722 C 0.83041 0.16097 0.37350
 C723 C 0.83457 0.17459 0.38134
 C724 C 0.84797 0.17971 0.37402
 H725 H 0.82024 0.15382 0.37559
 H726 H 0.85423 0.19052 0.37641
 H727 H 0.85121 0.15994 0.33402
 H728 H 0.86307 0.14760 0.34768
 N729 N 0.67147 0.36119 0.34696
 N730 N 0.66168 0.36075 0.33548
 C731 C 0.66566 0.37190 0.32494
 C732 C 0.67864 0.37981 0.33010
 C733 C 0.68189 0.37276 0.34421
 H734 H 0.65979 0.37373 0.31412
 H735 H 0.69169 0.37511 0.35149
 Cu736 Cu 0.64528 0.34493 0.33483
 Cu737 Cu 0.67099 0.34530 0.36356
 Cu738 Cu 0.65430 0.30996 0.35205
 N739 N 0.63273 0.32601 0.33185
 N740 N 0.63653 0.31232 0.33855
 C741 C 0.62716 0.30079 0.33358
 C742 C 0.61684 0.30756 0.32317
 C743 C 0.62065 0.32367 0.32242
 H744 H 0.62809 0.28832 0.33702
 H745 H 0.61564 0.33276 0.31493
 N746 N 0.66869 0.31112 0.36943
 N747 N 0.67462 0.32465 0.37421
 C748 C 0.68438 0.32138 0.38589
 C749 C 0.68465 0.30495 0.38854
 C750 C 0.67445 0.29889 0.37794
 H751 H 0.69145 0.33022 0.39137
 H752 H 0.67166 0.28644 0.37630
 H753 H 0.66697 0.33016 0.34630
 H754 H 0.65034 0.33246 0.35997
 N755 N 0.66160 0.86484 0.84162
 N756 N 0.64888 0.86443 0.83339
 C757 C 0.65016 0.87459 0.82141
 C758 C 0.66445 0.88184 0.82207
 C759 C 0.67137 0.87552 0.83518
 H760 H 0.64162 0.87595 0.81244
 H761 H 0.68304 0.87762 0.83909
 Cu762 Cu 0.63275 0.84899 0.83743
 Cu763 Cu 0.66482 0.85006 0.85898
 Cu764 Cu 0.64227 0.81590 0.85719
 N765 N 0.62059 0.82978 0.83579
 N766 N 0.62473 0.81659 0.84317
 C767 C 0.61611 0.80439 0.83823
 C768 C 0.60606 0.81023 0.82707
 C769 C 0.60917 0.82647 0.82593
 H770 H 0.61763 0.79205 0.84193
 H771 H 0.60447 0.83494 0.81762
 N772 N 0.66036 0.81762 0.87076
 N773 N 0.66886 0.83062 0.87170
 C774 C 0.68061 0.82767 0.88154
 C775 C 0.67948 0.81202 0.88692
 C776 C 0.66647 0.80611 0.87989
 H777 H 0.68970 0.83602 0.88406
 H778 H 0.66190 0.79417 0.88120
 H779 H 0.65506 0.83324 0.84576
 H780 H 0.64306 0.83999 0.86239
 N781 N 0.16158 0.37535 0.83808
 N782 N 0.15080 0.37329 0.82774
 C783 C 0.15372 0.38277 0.81549
 C784 C 0.16698 0.39138 0.81840
 C785 C 0.17157 0.38645 0.83292
 H786 H 0.14689 0.38308 0.80513
 H787 H 0.18192 0.38992 0.83891
 Cu788 Cu 0.13451 0.35777 0.83100
 Cu789 Cu 0.16261 0.36219 0.85664
 Cu790 Cu 0.14243 0.32650 0.85450
 N791 N 0.12254 0.33835 0.83042
 N792 N 0.12609 0.32585 0.83910
 C793 C 0.11717 0.31347 0.83512
 C794 C 0.10747 0.31855 0.82336
 C795 C 0.11119 0.33444 0.82072
 H796 H 0.11791 0.30159 0.84019
 H797 H 0.10666 0.34227 0.81179
 N798 N 0.15921 0.32997 0.86939
 N799 N 0.16663 0.34366 0.87028
 C800 C 0.17815 0.34203 0.88052
 C801 C 0.17801 0.32657 0.88645
 C802 C 0.16576 0.31930 0.87923
 H803 H 0.18646 0.35122 0.88296
 H804 H 0.16247 0.30688 0.88040
 H805 H 0.15578 0.34352 0.84338
 H806 H 0.14112 0.35062 0.85770
 N807 N 0.15627 0.87261 0.33385
 N808 N 0.14726 0.86728 0.32300
 C809 C 0.15020 0.87539 0.30988
 C810 C 0.16155 0.88654 0.31275
 C811 C 0.16501 0.88451 0.32813
 H812 H 0.14474 0.87309 0.29900
 H813 H 0.17394 0.89050 0.33446
 Cu814 Cu 0.13304 0.84982 0.32706
 Cu815 Cu 0.15725 0.86243 0.35399
 Cu816 Cu 0.14267 0.82384 0.35533
 N817 N 0.12379 0.82883 0.32861
 N818 N 0.12813 0.81843 0.33924
 C819 C 0.12086 0.80449 0.33701
 C820 C 0.11135 0.80631 0.32437
 C821 C 0.11347 0.82194 0.31934
 H822 H 0.12233 0.79384 0.34409
 H823 H 0.10835 0.82766 0.30935
 N824 N 0.15728 0.83198 0.37062
 N825 N 0.16254 0.84676 0.37022
 C826 C 0.17321 0.84834 0.38127
 C827 C 0.17470 0.83387 0.38908
 C828 C 0.16434 0.82381 0.38210
 H829 H 0.17995 0.85899 0.38297
 H830 H 0.16281 0.81120 0.38458
 H831 H 0.15461 0.84111 0.34294
 H832 H 0.13769 0.84773 0.35488
 C833 C 0.24992 1.04363 0.25057
 C834 C 0.25894 1.03424 0.24059
 C835 C 0.25803 1.01746 0.24143
 C836 C 0.24897 1.00982 0.25286
 C837 C 0.24023 1.01965 0.26297
 C838 C 0.24022 1.03645 0.26154
 C839 C 0.24849 0.99179 0.25408
 C840 C 0.23596 0.98406 0.26146
 C841 C 0.23545 0.96727 0.26268
 C842 C 0.24705 0.95796 0.25557
 C843 C 0.25951 0.96526 0.24800
 C844 C 0.26046 0.98206 0.24776
 H845 H 0.25006 1.05658 0.24937
 H846 H 0.26453 1.01056 0.23308
 H847 H 0.23346 1.01446 0.27219
 H848 H 0.22631 0.99088 0.26616
 H849 H 0.24666 0.94498 0.25631
 H850 H 0.27052 0.98732 0.24238
 C851 C 0.26223 0.54504 0.76120
 C852 C 0.26823 0.53652 0.74871
 C853 C 0.26618 0.51989 0.74807
 C854 C 0.25913 0.51138 0.76031
 C855 C 0.25357 0.52029 0.77299
 C856 C 0.25445 0.53710 0.77314
 C857 C 0.25721 0.49346 0.75959
 C858 C 0.24613 0.48551 0.76886
 C859 C 0.24439 0.46880 0.76820
 C860 C 0.25329 0.45991 0.75769
 C861 C 0.26404 0.46752 0.74810
 C862 C 0.26627 0.48407 0.74940
 H863 H 0.26315 0.55800 0.76137
 H864 H 0.27011 0.51384 0.73783
 H865 H 0.24805 0.51446 0.78265
 H866 H 0.23845 0.49210 0.77643
 H867 H 0.25182 0.44706 0.75692
 H868 H 0.27532 0.48932 0.74243
 C869 C 0.75956 -0.05071 0.25114
 C870 C 0.76515 -0.04230 0.26367
 C871 C 0.76355 -0.02554 0.26402
 C872 C 0.75737 -0.01688 0.25136
 C873 C 0.75227 -0.02570 0.23861
 C874 C 0.75272 -0.04254 0.23876
 C875 C 0.75614 0.00116 0.25148
 C876 C 0.74552 0.00947 0.24186
 C877 C 0.74471 0.02630 0.24148
 C878 C 0.75410 0.03504 0.25127
 C879 C 0.76448 0.02714 0.26118
 C880 C 0.76564 0.01032 0.26108
 H881 H 0.76036 -0.06371 0.25114
 H882 H 0.76727 -0.01948 0.27422
 H883 H 0.74761 -0.01969 0.22859
 H884 H 0.73757 0.00308 0.23472
 H885 H 0.75341 0.04804 0.25109
 H886 H 0.77431 0.00461 0.26828
 C887 C 0.75174 0.44786 0.75159
 C888 C 0.75810 0.45617 0.76382
 C889 C 0.75965 0.47285 0.76273
 C890 C 0.75573 0.48137 0.74915
 C891 C 0.75011 0.47250 0.73667
 C892 C 0.74762 0.45593 0.73801
 C893 C 0.75716 0.49934 0.74817
 C894 C 0.74862 0.50848 0.73729
 C895 C 0.74964 0.52525 0.73659
 C896 C 0.75885 0.53318 0.74716
 C897 C 0.76725 0.52448 0.75822
 C898 C 0.76670 0.50766 0.75842
 H899 H 0.75045 0.43496 0.75247
 H900 H 0.76372 0.47897 0.77274
 H901 H 0.74739 0.47833 0.72588
 H902 H 0.74065 0.50287 0.72958
 H903 H 0.75930 0.54618 0.74690
 H904 H 0.77389 0.50131 0.76664
 C905 C 0.23854 0.45691 0.27529
 C906 C 0.24638 0.46526 0.28662
 C907 C 0.24535 0.48206 0.28689
 C908 C 0.23744 0.49071 0.27523
 C909 C 0.22971 0.48198 0.26387
 C910 C 0.23000 0.46515 0.26399
 C911 C 0.23813 0.50865 0.27426
 C912 C 0.22641 0.51770 0.26671
 C913 C 0.22792 0.53426 0.26438
 C914 C 0.24056 0.54216 0.27059
 C915 C 0.25207 0.53358 0.27861
 C916 C 0.25103 0.51685 0.28005
 H917 H 0.23912 0.44391 0.27530
 H918 H 0.25122 0.48827 0.29594
 H919 H 0.22400 0.48812 0.25443
 H920 H 0.21628 0.51197 0.26216
 H921 H 0.24165 0.55500 0.26882
 H922 H 0.26046 0.51036 0.28557
 C923 C 0.73780 1.03660 0.74247
 C924 C 0.74828 1.02758 0.73359
 C925 C 0.74735 1.01080 0.73370
 C926 C 0.73559 1.00289 0.74207
 C927 C 0.72465 1.01232 0.75025
 C928 C 0.72597 1.02906 0.75079
 C929 C 0.73504 0.98493 0.74256
 C930 C 0.72880 0.97678 0.75544
 C931 C 0.72844 0.95996 0.75599
 C932 C 0.73521 0.95115 0.74403
 C933 C 0.74187 0.95893 0.73135
 C934 C 0.74123 0.97573 0.73039
 H935 H 0.73857 1.04957 0.74258
 H936 H 0.75614 1.00406 0.72747
 H937 H 0.71519 1.00678 0.75646
 H938 H 0.72416 0.98337 0.76510
 H939 H 0.73540 0.93815 0.74464
 H940 H 0.74594 0.98150 0.72025
 C941 C 0.76604 0.53775 0.28275
 C942 C 0.77798 0.53016 0.27445
 C943 C 0.78008 0.51345 0.27587
 C944 C 0.76957 0.50401 0.28453
 C945 C 0.75755 0.51212 0.29265
 C946 C 0.75596 0.52886 0.29199
 C947 C 0.77040 0.48589 0.28421
 C948 C 0.76210 0.47647 0.29503
 C949 C 0.76104 0.45980 0.29339
 C950 C 0.76953 0.45215 0.28179
 C951 C 0.77843 0.46097 0.27130
 C952 C 0.77855 0.47776 0.27236
 H953 H 0.76458 0.55068 0.28204
 H954 H 0.78968 0.50800 0.26971
 H955 H 0.74886 0.50568 0.29909
 H956 H 0.75589 0.48188 0.30449
 H957 H 0.76909 0.43920 0.28092
 H958 H 0.78451 0.48426 0.26338
 C959 C 0.25207 -0.04672 0.74524
 C960 C 0.25981 -0.03872 0.75681
 C961 C 0.26165 -0.02210 0.75577
 C962 C 0.25653 -0.01328 0.74276
 C963 C 0.24957 -0.02185 0.73077
 C964 C 0.24685 -0.03836 0.73220
 C965 C 0.25792 0.00471 0.74205
 C966 C 0.24848 0.01412 0.73215
 C967 C 0.24926 0.03090 0.73197
 C968 C 0.25911 0.03860 0.74210
 C969 C 0.26851 0.02961 0.75214
 C970 C 0.26820 0.01280 0.75176
 H971 H 0.25045 -0.05956 0.74620
 H972 H 0.26683 -0.01628 0.76543
 H973 H 0.24589 -0.01583 0.72035
 H974 H 0.24003 0.00870 0.72482
 H975 H 0.25932 0.05160 0.74228
 H976 H 0.27617 0.00626 0.75911
 C977 C 0.25552 0.24084 1.03096
 C978 C 0.24606 0.25252 1.02384
 C979 C 0.24599 0.25367 1.00775
 C980 C 0.25500 0.24302 0.99867
 C981 C 0.26438 0.23137 1.00622
 C982 C 0.26490 0.23048 1.02227
 C983 C 0.25481 0.24420 0.98147
 C984 C 0.26756 0.23855 0.97262
 C985 C 0.26712 0.23894 0.95654
 C986 C 0.25441 0.24617 0.94916
 C987 C 0.24190 0.25241 0.95765
 C988 C 0.24187 0.25089 0.97369
 H989 H 0.25583 0.23998 1.04337
 H990 H 0.23923 0.26325 1.00247
 H991 H 0.27123 0.22274 0.99981
 H992 H 0.27783 0.23358 0.97804
 H993 H 0.25422 0.24690 0.93673
 H994 H 0.23174 0.25514 0.97993
 C995 C 0.25269 0.75938 0.54118
 C996 C 0.24401 0.77174 0.53412
 C997 C 0.24484 0.77378 0.51812
 C998 C 0.25375 0.76315 0.50901
 C999 C 0.26222 0.75073 0.51640
 C1000 C 0.26211 0.74909 0.53242
 C1001 C 0.25432 0.76500 0.49192
 C1002 C 0.26734 0.75945 0.48348
 C1003 C 0.26762 0.76042 0.46746
 C1004 C 0.25532 0.76789 0.45967
 C1005 C 0.24234 0.77366 0.46778
 C1006 C 0.24170 0.77188 0.48380
 H1007 H 0.25258 0.75820 0.55358
 H1008 H 0.23845 0.78366 0.51289
 H1009 H 0.26890 0.74209 0.50982
 H1010 H 0.27732 0.75414 0.48917
 H1011 H 0.25554 0.76852 0.44724
 H1012 H 0.23127 0.77575 0.48977
 C1013 C 0.23782 0.75453 -0.04857
 C1014 C 0.24638 0.76691 -0.04218
 C1015 C 0.24739 0.76794 -0.02616
 C1016 C 0.24096 0.75603 -0.01648
 C1017 C 0.23313 0.74322 -0.02332
 C1018 C 0.23112 0.74272 -0.03926
 C1019 C 0.24253 0.75691 0.00060
 C1020 C 0.23152 0.74966 0.01048
 C1021 C 0.23319 0.75010 0.02647
 C1022 C 0.24524 0.75898 0.03269
 C1023 C 0.25613 0.76644 0.02319
 C1024 C 0.25509 0.76496 0.00725
 H1025 H 0.23663 0.75388 -0.06092
 H1026 H 0.25348 0.77792 -0.02137
 H1027 H 0.22846 0.73358 -0.01639
 H1028 H 0.22176 0.74338 0.00586
 H1029 H 0.24633 0.75987 0.04504
 H1030 H 0.26410 0.77020 0.00020
 C1031 C 0.22873 0.28154 0.46704
 C1032 C 0.23895 0.28994 0.47625
 C1033 C 0.23638 0.29042 0.49215
 C1034 C 0.22333 0.28299 0.49895
 C1035 C 0.21277 0.27532 0.48920
 C1036 C 0.21581 0.27396 0.47343
 C1037 C 0.22151 0.28199 0.51612
 C1038 C 0.21303 0.26941 0.52308
 C1039 C 0.21247 0.26747 0.53905
 C1040 C 0.22081 0.27781 0.54828
 C1041 C 0.22952 0.29021 0.54177
 C1042 C 0.22929 0.29268 0.52581
 H1043 H 0.23088 0.28082 0.45480
 H1044 H 0.24510 0.29600 0.49905
 H1045 H 0.20246 0.26975 0.49376
 H1046 H 0.20742 0.26049 0.51627
 H1047 H 0.22067 0.27608 0.56063
 H1048 H 0.23577 0.30258 0.52108
 C1049 C 0.76140 0.76237 1.04298
 C1050 C 0.75112 0.77160 1.03406
 C1051 C 0.75247 0.77126 1.01800
 C1052 C 0.76442 0.76222 1.01072
 C1053 C 0.77512 0.75371 1.02016
 C1054 C 0.77325 0.75321 1.03615
 C1055 C 0.76524 0.76090 0.99349
 C1056 C 0.77308 0.74778 0.98652
 C1057 C 0.77351 0.74611 0.97054
 C1058 C 0.76545 0.75720 0.96133
 C1059 C 0.75711 0.77003 0.96784
 C1060 C 0.75758 0.77219 0.98380
 H1061 H 0.76027 0.76242 1.05538
 H1062 H 0.74374 0.77767 1.01143
 H1063 H 0.78473 0.74700 1.01526
 H1064 H 0.77851 0.73839 0.99331
 H1065 H 0.76571 0.75588 0.94898
 H1066 H 0.75155 0.78249 0.98850
 C1067 C 0.78514 0.26051 0.53779
 C1068 C 0.77658 0.27270 0.53041
 C1069 C 0.77712 0.27386 0.51433
 C1070 C 0.78506 0.26215 0.50546
 C1071 C 0.79349 0.24991 0.51329
 C1072 C 0.79369 0.24920 0.52937
 C1073 C 0.78355 0.26198 0.48828
 C1074 C 0.79452 0.25376 0.47894
 C1075 C 0.79207 0.25211 0.46313
 C1076 C 0.77921 0.25973 0.45634
 C1077 C 0.76847 0.26846 0.46517
 C1078 C 0.77050 0.26923 0.48109
 H1079 H 0.78507 0.25974 0.55022
 H1080 H 0.77078 0.28363 0.50888
 H1081 H 0.79936 0.24039 0.50712
 H1082 H 0.80479 0.24820 0.48385
 H1083 H 0.77767 0.25896 0.44404
 H1084 H 0.76145 0.27504 0.48775
 C1085 C 0.75002 0.24153 -0.03861
 C1086 C 0.75691 0.25423 -0.03094
 C1087 C 0.75607 0.25479 -0.01485
 C1088 C 0.74916 0.24224 -0.00632
 C1089 C 0.74279 0.22933 -0.01435
 C1090 C 0.74285 0.22921 -0.03038
 C1091 C 0.74856 0.24249 0.01083
 C1092 C 0.73638 0.23493 0.01893
 C1093 C 0.73622 0.23432 0.03499
 C1094 C 0.74769 0.24222 0.04310
 C1095 C 0.75948 0.25047 0.03537
 C1096 C 0.76018 0.25014 0.01929
 H1097 H 0.75012 0.24129 -0.05105
 H1098 H 0.76095 0.26496 -0.00911
 H1099 H 0.73763 0.21934 -0.00828
 H1100 H 0.72705 0.22930 0.01286
 H1101 H 0.74735 0.24206 0.05554
 H1102 H 0.76971 0.25601 0.01349
 C1103 C 0.71462 0.77401 0.45658
 C1104 C 0.72539 0.78248 0.46511
 C1105 C 0.72425 0.78238 0.48116
 C1106 C 0.71212 0.77427 0.48885
 C1107 C 0.70090 0.76657 0.47985
 C1108 C 0.70251 0.76585 0.46384
 C1109 C 0.71207 0.77254 0.50605
 C1110 C 0.70498 0.75924 0.51330
 C1111 C 0.70612 0.75669 0.52918
 C1112 C 0.71480 0.76719 0.53792
 C1113 C 0.72217 0.78032 0.53109
 C1114 C 0.72024 0.78333 0.51533
 H1115 H 0.71578 0.77358 0.44419
 H1116 H 0.73345 0.78793 0.48746
 H1117 H 0.69125 0.76045 0.48515
 H1118 H 0.69912 0.75030 0.50670
 H1119 H 0.71589 0.76510 0.55017
 H1120 H 0.72569 0.79377 0.51036
 C1121 C 1.05059 0.26198 0.24544
 C1122 C 1.04244 0.25047 0.25389
 C1123 C 1.02615 0.25111 0.25411
 C1124 C 1.01787 0.26393 0.24694
 C1125 C 1.02652 0.27579 0.23907
 C1126 C 1.04274 0.27447 0.23781
 C1127 C 1.00038 0.26472 0.24742
 C1128 C 0.99188 0.27334 0.23609
 C1129 C 0.97558 0.27358 0.23620
 C1130 C 0.96760 0.26465 0.24730
 C1131 C 0.97565 0.25606 0.25868
 C1132 C 0.99193 0.25652 0.25899
 H1133 H 1.06316 0.26125 0.24485
 H1134 H 1.02014 0.24159 0.26007
 H1135 H 1.02085 0.28601 0.23367
 H1136 H 0.99771 0.27962 0.22686
 H1137 H 0.95501 0.26472 0.24733
 H1138 H 0.99783 0.25022 0.26820
 C1139 C 0.54995 0.25499 0.75147
 C1140 C 0.54133 0.24378 0.75983
 C1141 C 0.52516 0.24571 0.76093
 C1142 C 0.51757 0.25934 0.75456
 C1143 C 0.52661 0.27074 0.74659
 C1144 C 0.54264 0.26829 0.74450
 C1145 C 0.50026 0.26124 0.75565
 C1146 C 0.49192 0.26974 0.74419
 C1147 C 0.47566 0.27065 0.74459
 C1148 C 0.46756 0.26259 0.75621
 C1149 C 0.47552 0.25410 0.76771
 C1150 C 0.49181 0.25388 0.76770
 H1151 H 0.56241 0.25326 0.75025
 H1152 H 0.51867 0.23649 0.76682
 H1153 H 0.52127 0.28139 0.74161
 H1154 H 0.49785 0.27521 0.73454
 H1155 H 0.45497 0.26298 0.75637
 H1156 H 0.49773 0.24753 0.77688
 C1157 C -0.04417 0.27166 0.72986
 C1158 C -0.03685 0.28356 0.73823
 C1159 C -0.02067 0.28503 0.73716
 C1160 C -0.01150 0.27383 0.72887
 C1161 C -0.01924 0.26188 0.72061
 C1162 C -0.03549 0.26099 0.72082
 C1163 C 0.00596 0.27390 0.72974
 C1164 C 0.01530 0.26592 0.71870
 C1165 C 0.03144 0.26433 0.72057
 C1166 C 0.03854 0.27183 0.73290
 C1167 C 0.02969 0.28048 0.74360
 C1168 C 0.01349 0.28114 0.74219
 H1169 H -0.05671 0.27075 0.73036
 H1170 H -0.01538 0.29464 0.74335
 H1171 H -0.01284 0.25272 0.71444
 H1172 H 0.01018 0.26046 0.70881
 H1173 H 0.05105 0.27107 0.73407
 H1174 H 0.00694 0.28691 0.75125
 C1175 C 0.45716 0.26257 0.23917
 C1176 C 0.46457 0.27477 0.24707
 C1177 C 0.48070 0.27642 0.24553
 C1178 C 0.48974 0.26515 0.23721
 C1179 C 0.48196 0.25259 0.22982
 C1180 C 0.46571 0.25158 0.23035
 C1181 C 0.50717 0.26609 0.23677
 C1182 C 0.51588 0.25873 0.22488
 C1183 C 0.53215 0.25806 0.22533
 C1184 C 0.53990 0.26585 0.23708
 C1185 C 0.53165 0.27378 0.24870
 C1186 C 0.51535 0.27365 0.24865
 H1187 H 0.44466 0.26144 0.24014
 H1188 H 0.48609 0.28629 0.25125
 H1189 H 0.48838 0.24344 0.22366
 H1190 H 0.51017 0.25302 0.21545
 H1191 H 0.55249 0.26568 0.23718
 H1192 H 0.50927 0.27894 0.25828
 C1193 C 1.03431 0.75214 0.75010
 C1194 C 1.02663 0.74467 0.76237
 C1195 C 1.01034 0.74494 0.76286
 C1196 C 1.00160 0.75152 0.75060
 C1197 C 1.00965 0.75838 0.73806
 C1198 C 1.02590 0.75914 0.73804
 C1199 C 0.98422 0.75105 0.75089
 C1200 C 0.97518 0.76270 0.74296
 C1201 C 0.95891 0.76190 0.74290
 C1202 C 0.95154 0.75010 0.75173
 C1203 C 0.96023 0.73860 0.75987
 C1204 C 0.97647 0.73880 0.75904
 H1205 H 1.04689 0.75247 0.74990
 H1206 H 1.00461 0.73975 0.77276
 H1207 H 1.00345 0.76332 0.72831
 H1208 H 0.98066 0.77228 0.73657
 H1209 H 0.93896 0.74968 0.75206
 H1210 H 0.98293 0.72934 0.76486
 C1211 C 0.53313 0.75119 0.24442
 C1212 C 0.52492 0.74354 0.25624
 C1213 C 0.50863 0.74346 0.25583
 C1214 C 0.50051 0.75004 0.24315
 C1215 C 0.50914 0.75709 0.23108
 C1216 C 0.52533 0.75813 0.23195
 C1217 C 0.48314 0.74967 0.24256
 C1218 C 0.47468 0.76180 0.23465
 C1219 C 0.45844 0.76138 0.23380
 C1220 C 0.45049 0.74923 0.24162
 C1221 C 0.45853 0.73738 0.25001
 C1222 C 0.47483 0.73734 0.25004
 H1223 H 0.54569 0.75170 0.24490
 H1224 H 0.50244 0.73809 0.26538
 H1225 H 0.50341 0.76198 0.22103
 H1226 H 0.48063 0.77161 0.22906
 H1227 H 0.43791 0.74914 0.24134
 H1228 H 0.48091 0.72782 0.25616
 C1229 C -0.04226 0.73499 0.24950
 C1230 C -0.03458 0.74703 0.25730
 C1231 C -0.01830 0.74723 0.25705
 C1232 C -0.00946 0.73466 0.25023
 C1233 C -0.01766 0.72219 0.24313
 C1234 C -0.03390 0.72271 0.24222
 C1235 C 0.00806 0.73468 0.25043
 C1236 C 0.01697 0.72507 0.24026
 C1237 C 0.03325 0.72529 0.24032
 C1238 C 0.04089 0.73563 0.25016
 C1239 C 0.03243 0.74541 0.26024
 C1240 C 0.01617 0.74456 0.26064
 H1241 H -0.05484 0.73509 0.24916
 H1242 H -0.01278 0.75719 0.26246
 H1243 H -0.01168 0.71206 0.23804
 H1244 H 0.01153 0.71762 0.23188
 H1245 H 0.05346 0.73613 0.24988
 H1246 H 0.01012 0.75163 0.26916
 C1247 C 0.46054 0.76562 0.72536
 C1248 C 0.46775 0.77798 0.73317
 C1249 C 0.48394 0.77910 0.73272
 C1250 C 0.49319 0.76703 0.72574
 C1251 C 0.48563 0.75433 0.71837
 C1252 C 0.46937 0.75387 0.71777
 C1253 C 0.51053 0.76712 0.72705
 C1254 C 0.52011 0.75913 0.71626
 C1255 C 0.53622 0.75784 0.71837
 C1256 C 0.54300 0.76550 0.73081
 C1257 C 0.53383 0.77407 0.74132
 C1258 C 0.51767 0.77455 0.73958
 H1259 H 0.44799 0.76479 0.72571
 H1260 H 0.48918 0.78905 0.73847
 H1261 H 0.49223 0.74459 0.71328
 H1262 H 0.51511 0.75347 0.70639
 H1263 H 0.55549 0.76492 0.73222
 H1264 H 0.51078 0.78029 0.74843
 C1265 C 0.41079 0.31517 0.31016
 C1266 C 0.41972 0.30593 0.29986
 C1267 C 0.41866 0.28901 0.30028
 C1268 C 0.40893 0.28164 0.31108
 C1269 C 0.40015 0.29089 0.32129
 C1270 C 0.40086 0.30774 0.32089
 C1271 C 0.42727 0.27972 0.28986
 C1272 C 0.43703 0.28708 0.27904
 C1273 C 0.43834 0.30396 0.27872
 C1274 C 0.42963 0.31330 0.28911
 C1275 C 0.44837 0.31117 0.26801
 C1276 C 0.45697 0.30174 0.25770
 C1277 C 0.45552 0.28498 0.25782
 C1278 C 0.44554 0.27775 0.26857
 H1279 H 0.41160 0.32812 0.30979
 H1280 H 0.40801 0.26869 0.31155
 H1281 H 0.39256 0.28477 0.32928
 H1282 H 0.42636 0.26675 0.29015
 H1283 H 0.43054 0.32626 0.28881
 H1284 H 0.44958 0.32409 0.26762
 H1285 H 0.46462 0.30753 0.24951
 H1286 H 0.44458 0.26479 0.26890
 C1287 C 0.41303 0.81720 0.79592
 C1288 C 0.42271 0.80828 0.78597
 C1289 C 0.42336 0.79138 0.78737
 C1290 C 0.41483 0.78369 0.79888
 C1291 C 0.40525 0.79254 0.80865
 C1292 C 0.40384 0.80938 0.80715
 C1293 C 0.43240 0.78231 0.77717
 C1294 C 0.44091 0.78990 0.76554
 C1295 C 0.44069 0.80682 0.76425
 C1296 C 0.43154 0.81594 0.77448
 C1297 C 0.44961 0.81426 0.75271
 C1298 C 0.45857 0.80497 0.74255
 C1299 C 0.45845 0.78816 0.74363
 C1300 C 0.44966 0.78074 0.75518
 H1301 H 0.41241 0.83011 0.79455
 H1302 H 0.41540 0.77075 0.80022
 H1303 H 0.39887 0.78591 0.81727
 H1304 H 0.43271 0.76932 0.77819
 H1305 H 0.43120 0.82892 0.77342
 H1306 H 0.44967 0.82721 0.75156
 H1307 H 0.46543 0.81085 0.73374
 H1308 H 0.44981 0.76775 0.75620
 C1309 C -0.08906 0.32167 0.80380
 C1310 C -0.08080 0.31288 0.79264
 C1311 C -0.08227 0.29601 0.79215
 C1312 C -0.09178 0.28821 0.80287
 C1313 C -0.09976 0.29698 0.81402
 C1314 C -0.09856 0.31377 0.81460
 C1315 C -0.07419 0.28715 0.78103
 C1316 C -0.06443 0.29487 0.77046
 C1317 C -0.06273 0.31169 0.77099
 C1318 C -0.07102 0.32062 0.78201
 C1319 C -0.05263 0.31923 0.76056
 C1320 C -0.04423 0.31016 0.74981
 C1321 C -0.04600 0.29346 0.74916
 C1322 C -0.05618 0.28593 0.75951
 H1323 H -0.08795 0.33459 0.80420
 H1324 H -0.09306 0.27530 0.80262
 H1325 H -0.10713 0.29058 0.82201
 H1326 H -0.07538 0.27422 0.78067
 H1327 H -0.06977 0.33354 0.78240
 H1328 H -0.05113 0.33211 0.76080
 H1329 H -0.03641 0.31618 0.74193
 H1330 H -0.05737 0.27300 0.75927
 C1331 C -0.09050 0.79610 0.31254
 C1332 C -0.08150 0.78549 0.30356
 C1333 C -0.08413 0.76881 0.30461
 C1334 C -0.09550 0.76300 0.31466
 C1335 C -0.10434 0.77357 0.32355
 C1336 C -0.10205 0.79023 0.32256
 C1337 C -0.07542 0.75816 0.29556
 C1338 C -0.06399 0.76391 0.28551
 C1339 C -0.06113 0.78054 0.28452
 C1340 C -0.06995 0.79126 0.29354
 C1341 C -0.04946 0.78610 0.27455
 C1342 C -0.04074 0.77527 0.26568
 C1343 C -0.04368 0.75876 0.26650
 C1344 C -0.05532 0.75320 0.27648
 H1345 H -0.08848 0.80887 0.31173
 H1346 H -0.09765 0.75025 0.31559
 H1347 H -0.11319 0.76861 0.33098
 H1348 H -0.07753 0.74538 0.29634
 H1349 H -0.06782 0.80403 0.29276
 H1350 H -0.04708 0.79880 0.27364
 H1351 H -0.03182 0.77980 0.25803
 H1352 H -0.05747 0.74043 0.27738
 C1353 C 0.58157 0.69366 0.31021
 C1354 C 0.57228 0.70120 0.29895
 C1355 C 0.57485 0.69762 0.28330
 C1356 C 0.58635 0.68639 0.27917
 C1357 C 0.59530 0.67875 0.29041
 C1358 C 0.59308 0.68234 0.30598
 C1359 C 0.56591 0.70528 0.27197
 C1360 C 0.55422 0.71634 0.27604
 C1361 C 0.55128 0.71969 0.29167
 C1362 C 0.56042 0.71218 0.30305
 C1363 C 0.53926 0.73052 0.29559
 C1364 C 0.53040 0.73809 0.28412
 C1365 C 0.53358 0.73510 0.26858
 C1366 C 0.54543 0.72411 0.26465
 H1367 H 0.57971 0.69639 0.32222
 H1368 H 0.58844 0.68351 0.26723
 H1369 H 0.60419 0.67023 0.28684
 H1370 H 0.56803 0.70263 0.25997
 H1371 H 0.55830 0.71484 0.31504
 H1372 H 0.53677 0.73319 0.30750
 H1373 H 0.52130 0.74655 0.28734
 H1374 H 0.54776 0.72160 0.25266
 C1375 C 0.59172 0.18352 0.81022
 C1376 C 0.58414 0.19592 0.80196
 C1377 C 0.58804 0.21208 0.80465
 C1378 C 0.59917 0.21561 0.81568
 C1379 C 0.60626 0.20329 0.82413
 C1380 C 0.60264 0.18720 0.82148
 C1381 C 0.58064 0.22451 0.79646
 C1382 C 0.56903 0.22109 0.78589
 C1383 C 0.56479 0.20501 0.78340
 C1384 C 0.57253 0.19249 0.79131
 C1385 C 0.55275 0.20179 0.77317
 C1386 C 0.54499 0.21439 0.76554
 C1387 C 0.54936 0.23033 0.76780
 C1388 C 0.56143 0.23359 0.77795
 H1389 H 0.58882 0.17111 0.80825
 H1390 H 0.60225 0.22792 0.81790
 H1391 H 0.61475 0.20635 0.83267
 H1392 H 0.58373 0.23687 0.79849
 H1393 H 0.56935 0.18015 0.78935
 H1394 H 0.54926 0.18957 0.77117
 H1395 H 0.53569 0.21170 0.75773
 H1396 H 0.56467 0.24592 0.77988
 C1397 C 1.08053 0.68904 0.81403
 C1398 C 1.07204 0.69793 0.80306
 C1399 C 1.07493 0.69542 0.78727
 C1400 C 1.08600 0.68390 0.78272
 C1401 C 1.09428 0.67502 0.79368
 C1402 C 1.09172 0.67755 0.80941
 C1403 C 1.06674 0.70445 0.77626
 C1404 C 1.05551 0.71582 0.78080
 C1405 C 1.05235 0.71815 0.79657
 C1406 C 1.06072 0.70927 0.80762
 C1407 C 1.04081 0.72929 0.80100
 C1408 C 1.03245 0.73799 0.78991
 C1409 C 1.03565 0.73585 0.77424
 C1410 C 1.04724 0.72477 0.76978
 H1411 H 1.07837 0.69100 0.82613
 H1412 H 1.08831 0.68178 0.77066
 H1413 H 1.10297 0.66644 0.78978
 H1414 H 1.06907 0.70258 0.76415
 H1415 H 1.05837 0.71111 0.81972
 H1416 H 1.03819 0.73120 0.81302
 H1417 H 1.02355 0.74648 0.79355
 H1418 H 1.04958 0.72287 0.75769
 C1419 C 1.09860 0.19855 0.30683
 C1420 C 1.08950 0.20961 0.29831
 C1421 C 1.09179 0.22626 0.30010
 C1422 C 1.10283 0.23160 0.31048
 C1423 C 1.11150 0.22059 0.31914
 C1424 C 1.10953 0.20402 0.31740
 C1425 C 1.08296 0.23738 0.29159
 C1426 C 1.07160 0.23216 0.28148
 C1427 C 1.06895 0.21557 0.27988
 C1428 C 1.07803 0.20437 0.28820
 C1429 C 1.05721 0.21055 0.27000
 C1430 C 1.04832 0.22185 0.26171
 C1431 C 1.05120 0.23831 0.26300
 C1432 C 1.06282 0.24335 0.27298
 H1433 H 1.09695 0.18577 0.30553
 H1434 H 1.10471 0.24431 0.31198
 H1435 H 1.11995 0.22508 0.32709
 H1436 H 1.08485 0.25013 0.29292
 H1437 H 1.07611 0.19163 0.28691
 H1438 H 1.05493 0.19790 0.26866
 H1439 H 1.03941 0.21774 0.25405
 H1440 H 1.06493 0.25606 0.27418
 C1441 C 0.59695 0.31114 0.68369
 C1442 C 0.58759 0.30155 0.69323
 C1443 C 0.58808 0.28468 0.69163
 C1444 C 0.59760 0.27773 0.68037
 C1445 C 0.60688 0.28731 0.67098
 C1446 C 0.60687 0.30409 0.67264
 C1447 C 0.57921 0.27499 0.70142
 C1448 C 0.56981 0.28190 0.71282
 C1449 C 0.56900 0.29877 0.71429
 C1450 C 0.57791 0.30851 0.70448
 C1451 C 0.55932 0.30556 0.72561
 C1452 C 0.55065 0.29571 0.73544
 C1453 C 0.55166 0.27894 0.73420
 C1454 C 0.56122 0.27215 0.72280
 H1455 H 0.59661 0.32403 0.68504
 H1456 H 0.59805 0.26483 0.67896
 H1457 H 0.61433 0.28141 0.66268
 H1458 H 0.57972 0.26204 0.70024
 H1459 H 0.57742 0.32144 0.70568
 H1460 H 0.55848 0.31846 0.72687
 H1461 H 0.54331 0.30117 0.74414
 H1462 H 0.56182 0.25921 0.72161
 C1463 C 0.58315 0.81028 0.18252
 C1464 C 0.57254 0.80311 0.19274
 C1465 C 0.57120 0.80880 0.20793
 C1466 C 0.58001 0.82185 0.21249
 C1467 C 0.59037 0.82900 0.20224
 C1468 C 0.59223 0.82317 0.18726
 C1469 C 0.56125 0.80124 0.21842
 C1470 C 0.55250 0.78812 0.21393
 C1471 C 0.55333 0.78273 0.19861
 C1472 C 0.56341 0.79023 0.18811
 C1473 C 0.54419 0.76980 0.19416
 C1474 C 0.53464 0.76205 0.20488
 C1475 C 0.53426 0.76700 0.22020
 C1476 C 0.54307 0.78014 0.22461
 H1477 H 0.58439 0.80578 0.17095
 H1478 H 0.57907 0.82638 0.22407
 H1479 H 0.59729 0.83878 0.20628
 H1480 H 0.56046 0.80546 0.23013
 H1481 H 0.56427 0.78594 0.17643
 H1482 H 0.54459 0.76556 0.18246
 H1483 H 0.52788 0.75190 0.20134
 H1484 H 0.54266 0.78404 0.23644
 C1485 C 1.10290 0.31993 0.18505
 C1486 C 1.09188 0.31017 0.19243
 C1487 C 1.09118 0.29373 0.18868
 C1488 C 1.10103 0.28747 0.17731
 C1489 C 1.11183 0.29726 0.16995
 C1490 C 1.11307 0.31348 0.17390
 C1491 C 1.08083 0.28371 0.19654
 C1492 C 1.07111 0.28990 0.20808
 C1493 C 1.07132 0.30644 0.21147
 C1494 C 1.08174 0.31649 0.20363
 C1495 C 1.06128 0.31255 0.22286
 C1496 C 1.05148 0.30227 0.23109
 C1497 C 1.05173 0.28575 0.22818
 C1498 C 1.06139 0.27969 0.21649
 H1499 H 1.10363 0.33247 0.18807
 H1500 H 1.10057 0.27492 0.17425
 H1501 H 1.11954 0.29193 0.16150
 H1502 H 1.08052 0.27105 0.19384
 H1503 H 1.08212 0.32913 0.20641
 H1504 H 1.06121 0.32520 0.22557
 H1505 H 1.04409 0.30711 0.24008
 H1506 H 1.06148 0.26694 0.21413
 C1507 C 1.07825 0.81262 0.68406
 C1508 C 1.06907 0.80490 0.69522
 C1509 C 1.06920 0.81033 0.71053
 C1510 C 1.07806 0.82361 0.71435
 C1511 C 1.08698 0.83131 0.70317
 C1512 C 1.08734 0.82579 0.68800
 C1513 C 1.06058 0.80234 0.72186
 C1514 C 1.05166 0.78909 0.71806
 C1515 C 1.05106 0.78393 0.70268
 C1516 C 1.05988 0.79180 0.69135
 C1517 C 1.04171 0.77091 0.69895
 C1518 C 1.03324 0.76296 0.71041
 C1519 C 1.03420 0.76778 0.72573
 C1520 C 1.04336 0.78089 0.72948
 H1521 H 1.07835 0.80837 0.67235
 H1522 H 1.07823 0.82794 0.72602
 H1523 H 1.09399 0.84131 0.70658
 H1524 H 1.06087 0.80640 0.73363
 H1525 H 1.05964 0.78770 0.67960
 H1526 H 1.04097 0.76687 0.68722
 H1527 H 1.02621 0.75282 0.70740
 H1528 H 1.04396 0.78469 0.74131
 C1529 C 0.41261 0.69582 0.67559
 C1530 C 0.42220 0.70785 0.68123
 C1531 C 0.41925 0.72407 0.67708
 C1532 C 0.40712 0.72792 0.66701
 C1533 C 0.39781 0.71588 0.66127
 C1534 C 0.40034 0.69977 0.66562
 C1535 C 0.42834 0.73620 0.68316
 C1536 C 0.44050 0.73235 0.69320
 C1537 C 0.44383 0.71612 0.69700
 C1538 C 0.43461 0.70396 0.69104
 C1539 C 0.45621 0.71239 0.70688
 C1540 C 0.46494 0.72464 0.71322
 C1541 C 0.46133 0.74079 0.70989
 C1542 C 0.44923 0.74454 0.69970
 H1543 H 0.41472 0.68341 0.67890
 H1544 H 0.40477 0.74028 0.66366
 H1545 H 0.38836 0.71925 0.65372
 H1546 H 0.42585 0.74865 0.68021
 H1547 H 0.43701 0.69153 0.69411
 H1548 H 0.45896 0.70003 0.70989
 H1549 H 0.47417 0.72154 0.72114
 H1550 H 0.44652 0.75700 0.69699
 C1551 C 0.40969 0.19537 0.18451
 C1552 C 0.41874 0.20721 0.19133
 C1553 C 0.41458 0.22360 0.18935
 C1554 C 0.40176 0.22788 0.18031
 C1555 C 0.39302 0.21607 0.17337
 C1556 C 0.39677 0.19974 0.17550
 C1557 C 0.42322 0.23546 0.19649
 C1558 C 0.43611 0.23123 0.20547
 C1559 C 0.44062 0.21491 0.20711
 C1560 C 0.43186 0.20299 0.20008
 C1561 C 0.45375 0.21083 0.21587
 C1562 C 0.46216 0.22276 0.22313
 C1563 C 0.45748 0.23895 0.22191
 C1564 C 0.44451 0.24309 0.21292
 H1565 H 0.41276 0.18280 0.18609
 H1566 H 0.39845 0.24037 0.17865
 H1567 H 0.38308 0.21975 0.16659
 H1568 H 0.41987 0.24800 0.19511
 H1569 H 0.43521 0.19046 0.20146
 H1570 H 0.45743 0.19840 0.21721
 H1571 H 0.47210 0.21932 0.23003
 H1572 H 0.44097 0.25558 0.21176
 C1573 C -0.09134 0.67374 0.19142
 C1574 C -0.08082 0.68405 0.19843
 C1575 C -0.08034 0.70035 0.19375
 C1576 C -0.08990 0.70592 0.18186
 C1577 C -0.10017 0.69558 0.17487
 C1578 C -0.10119 0.67949 0.17971
 C1579 C -0.07049 0.71091 0.20118
 C1580 C -0.06104 0.70543 0.21320
 C1581 C -0.06102 0.68903 0.21756
 C1582 C -0.07095 0.67843 0.21015
 C1583 C -0.05122 0.68364 0.22943
 C1584 C -0.04190 0.69448 0.23717
 C1585 C -0.04240 0.71084 0.23324
 C1586 C -0.05181 0.71620 0.22112
 H1587 H -0.09192 0.66131 0.19513
 H1588 H -0.08960 0.71835 0.17811
 H1589 H -0.10767 0.70038 0.16598
 H1590 H -0.07035 0.72346 0.19774
 H1591 H -0.07114 0.66590 0.21364
 H1592 H -0.05096 0.67111 0.23288
 H1593 H -0.03467 0.69020 0.24652
 H1594 H -0.05209 0.72884 0.21802
 C1595 C -0.08976 0.19668 0.68384
 C1596 C -0.08065 0.20696 0.69258
 C1597 C -0.08311 0.20789 0.70861
 C1598 C -0.09433 0.19827 0.71567
 C1599 C -0.10315 0.18791 0.70694
 C1600 C -0.10106 0.18711 0.69097
 C1601 C -0.07442 0.21849 0.71733
 C1602 C -0.06316 0.22808 0.71026
 C1603 C -0.06033 0.22682 0.69432
 C1604 C -0.06914 0.21632 0.68555
 C1605 C -0.04880 0.23621 0.68739
 C1606 C -0.04040 0.24699 0.69612
 C1607 C -0.04351 0.24867 0.71186
 C1608 C -0.05480 0.23905 0.71890
 H1609 H -0.08794 0.19602 0.67154
 H1610 H -0.09633 0.19879 0.72794
 H1611 H -0.11185 0.18076 0.71270
 H1612 H -0.07648 0.21934 0.72959
 H1613 H -0.06711 0.21550 0.67329
 H1614 H -0.04642 0.23536 0.67520
 H1615 H -0.03176 0.25436 0.69051
 H1616 H -0.05711 0.24018 0.73109
 C1617 C 0.30729 0.41008 0.33050
 C1618 C 0.29771 0.41945 0.32082
 C1619 C 0.29963 0.41843 0.30473
 C1620 C 0.31126 0.40842 0.29860
 C1621 C 0.32079 0.39927 0.30828
 C1622 C 0.31882 0.39984 0.32429
 C1623 C 0.28984 0.42734 0.29498
 C1624 C 0.27821 0.43739 0.30107
 C1625 C 0.27648 0.43880 0.31715
 C1626 C 0.28621 0.42975 0.32694
 C1627 C 0.26501 0.44922 0.32310
 C1628 C 0.25529 0.45805 0.31322
 C1629 C 0.25674 0.45637 0.29727
 C1630 C 0.26827 0.44607 0.29129
 H1631 H 0.30575 0.41077 0.34282
 H1632 H 0.31290 0.40755 0.28630
 H1633 H 0.32945 0.39143 0.30314
 H1634 H 0.29123 0.42640 0.28264
 H1635 H 0.28480 0.43068 0.33927
 H1636 H 0.26355 0.45052 0.33538
 H1637 H 0.24647 0.46599 0.31800
 H1638 H 0.26957 0.44494 0.27896
 C1639 C 0.31078 -0.09102 0.81350
 C1640 C 0.30379 -0.07977 0.80351
 C1641 C 0.31313 -0.07073 0.79333
 C1642 C 0.32925 -0.07314 0.79325
 C1643 C 0.33605 -0.08484 0.80274
 C1644 C 0.32693 -0.09408 0.81289
 C1645 C 0.30618 -0.05981 0.78302
 C1646 C 0.28996 -0.05838 0.78227
 C1647 C 0.28058 -0.06758 0.79230
 C1648 C 0.28756 -0.07794 0.80309
 C1649 C 0.26435 -0.06666 0.79099
 C1650 C 0.25751 -0.05708 0.77955
 C1651 C 0.26679 -0.04793 0.76961
 C1652 C 0.28297 -0.04837 0.77119
 H1653 H 0.30340 -0.09802 0.82103
 H1654 H 0.33658 -0.06626 0.78556
 H1655 H 0.34853 -0.08649 0.80212
 H1656 H 0.31336 -0.05290 0.77519
 H1657 H 0.28037 -0.08503 0.81076
 H1658 H 0.25698 -0.07368 0.79852
 H1659 H 0.24500 -0.05686 0.77838
 H1660 H 0.29012 -0.04145 0.76334
 C1661 C 0.80643 0.40655 0.82480
 C1662 C 0.79944 0.41783 0.81481
 C1663 C 0.80870 0.42927 0.80712
 C1664 C 0.82474 0.42927 0.80953
 C1665 C 0.83169 0.41760 0.81893
 C1666 C 0.82272 0.40592 0.82652
 C1667 C 0.80190 0.44015 0.79669
 C1668 C 0.78608 0.43921 0.79323
 C1669 C 0.77679 0.42770 0.80081
 C1670 C 0.78346 0.41732 0.81181
 C1671 C 0.76112 0.42634 0.79680
 C1672 C 0.75489 0.43586 0.78498
 C1673 C 0.76409 0.44721 0.77732
 C1674 C 0.77958 0.44909 0.78176
 H1675 H 0.79922 0.39767 0.83037
 H1676 H 0.83200 0.43799 0.80376
 H1677 H 0.84417 0.41787 0.82024
 H1678 H 0.80905 0.44889 0.79078
 H1679 H 0.77636 0.40841 0.81754
 H1680 H 0.75383 0.41757 0.80245
 H1681 H 0.74293 0.43426 0.78167
 H1682 H 0.78679 0.45766 0.77570
 C1683 C 0.81326 -0.10029 0.31816
 C1684 C 0.80688 -0.08958 0.30722
 C1685 C 0.81410 -0.08794 0.29269
 C1686 C 0.82781 -0.09653 0.28952
 C1687 C 0.83417 -0.10697 0.30046
 C1688 C 0.82688 -0.10932 0.31485
 C1689 C 0.80745 -0.07790 0.28146
 C1690 C 0.79368 -0.06933 0.28459
 C1691 C 0.78671 -0.07043 0.29929
 C1692 C 0.79332 -0.08061 0.31051
 C1693 C 0.77311 -0.06147 0.30242
 C1694 C 0.76631 -0.05184 0.29096
 C1695 C 0.77290 -0.05122 0.27622
 C1696 C 0.78667 -0.05985 0.27313
 H1697 H 0.80748 -0.10153 0.32917
 H1698 H 0.83356 -0.09529 0.27847
 H1699 H 0.84465 -0.11346 0.29729
 H1700 H 0.81289 -0.07688 0.27023
 H1701 H 0.78782 -0.08169 0.32170
 H1702 H 0.76765 -0.06207 0.31364
 H1703 H 0.75567 -0.04524 0.29346
 H1704 H 0.79179 -0.05926 0.26174
 C1705 C 0.31590 0.59213 0.69233
 C1706 C 0.30938 0.58256 0.70395
 C1707 C 0.31444 0.58416 0.71924
 C1708 C 0.32628 0.59491 0.72254
 C1709 C 0.33276 0.60434 0.71087
 C1710 C 0.32745 0.60325 0.69574
 C1711 C 0.30745 0.57515 0.73101
 C1712 C 0.29552 0.56452 0.72767
 C1713 C 0.29078 0.56256 0.71231
 C1714 C 0.29774 0.57160 0.70055
 C1715 C 0.27903 0.55169 0.70900
 C1716 C 0.27190 0.54299 0.72081
 C1717 C 0.27626 0.54517 0.73613
 C1718 C 0.28815 0.55588 0.73947
 H1719 H 0.31190 0.59100 0.68064
 H1720 H 0.33037 0.59619 0.73417
 H1721 H 0.34158 0.61285 0.71380
 H1722 H 0.31118 0.57655 0.74277
 H1723 H 0.29399 0.57022 0.68879
 H1724 H 0.27527 0.55003 0.69730
 H1725 H 0.26272 0.53481 0.71804
 H1726 H 0.29167 0.55746 0.75127
 C1727 C 0.31546 1.08726 0.19038
 C1728 C 0.30709 1.07830 0.20126
 C1729 C 0.30868 1.08157 0.21704
 C1730 C 0.31905 1.09335 0.22167
 C1731 C 0.32739 1.10218 0.21076
 C1732 C 0.32542 1.09947 0.19502
 C1733 C 0.29970 1.07323 0.22790
 C1734 C 0.28918 1.06163 0.22317
 C1735 C 0.28797 1.05798 0.20742
 C1736 C 0.29691 1.06635 0.19657
 C1737 C 0.27766 1.04614 0.20278
 C1738 C 0.26842 1.03819 0.21360
 C1739 C 0.26922 1.04208 0.22919
 C1740 C 0.27972 1.05373 0.23392
 H1741 H 0.31403 1.08487 0.17829
 H1742 H 0.32048 1.09595 0.23373
 H1743 H 0.33494 1.11153 0.21464
 H1744 H 0.30074 1.07592 0.23999
 H1745 H 0.29579 1.06374 0.18447
 H1746 H 0.27663 1.04314 0.19077
 H1747 H 0.26037 1.02926 0.20976
 H1748 H 0.28049 1.05662 0.24599
 C1749 C 0.81372 0.58847 0.21168
 C1750 C 0.80540 0.57881 0.22213
 C1751 C 0.78905 0.58045 0.22306
 C1752 C 0.78129 0.59153 0.21358
 C1753 C 0.78959 0.60103 0.20327
 C1754 C 0.80587 0.59970 0.20218
 C1755 C 0.78065 0.57107 0.23351
 C1756 C 0.78833 0.56001 0.24310
 C1757 C 0.80465 0.55816 0.24219
 C1758 C 0.81311 0.56760 0.23169
 C1759 C 0.81216 0.54691 0.25182
 C1760 C 0.80358 0.53770 0.26231
 C1761 C 0.78737 0.53967 0.26338
 C1762 C 0.77986 0.55079 0.25362
 H1763 H 0.82623 0.58718 0.21093
 H1764 H 0.76877 0.59293 0.21419
 H1765 H 0.78313 0.60959 0.19633
 H1766 H 0.76811 0.57242 0.23421
 H1767 H 0.82565 0.56625 0.23099
 H1768 H 0.82466 0.54528 0.25129
 H1769 H 0.80961 0.52920 0.26973
 H1770 H 0.76732 0.55216 0.25413
 C1771 C 0.80737 1.08423 0.69068
 C1772 C 0.79834 1.07460 0.70046
 C1773 C 0.79855 1.07713 0.71648
 C1774 C 0.80824 1.08882 0.72247
 C1775 C 0.81742 1.09813 0.71269
 C1776 C 0.81688 1.09610 0.69673
 C1777 C 0.78899 1.06805 0.72622
 C1778 C 0.77938 1.05630 0.72018
 C1779 C 0.77963 1.05332 0.70423
 C1780 C 0.78903 1.06255 0.69447
 C1781 C 0.77032 1.04126 0.69829
 C1782 C 0.76056 1.03250 0.70800
 C1783 C 0.75978 1.03581 0.72374
 C1784 C 0.76935 1.04761 0.72981
 H1785 H 0.80705 1.08246 0.67839
 H1786 H 0.80864 1.09085 0.73472
 H1787 H 0.82463 1.10725 0.71759
 H1788 H 0.78894 1.07022 0.73847
 H1789 H 0.78902 1.06045 0.68221
 H1790 H 0.77043 1.03875 0.68612
 H1791 H 0.75321 1.02348 0.70313
 H1792 H 0.76888 1.05008 0.74199
 C1793 C 0.69039 0.58545 0.32633
 C1794 C 0.70056 0.57536 0.31806
 C1795 C 0.70060 0.57597 0.30183
 C1796 C 0.69005 0.58616 0.29417
 C1797 C 0.67979 0.59593 0.30248
 C1798 C 0.68005 0.59588 0.31859
 C1799 C 0.71128 0.56656 0.29352
 C1800 C 0.72182 0.55637 0.30121
 C1801 C 0.72137 0.55522 0.31741
 C1802 C 0.71080 0.56479 0.32574
 C1803 C 0.73166 0.54465 0.32500
 C1804 C 0.74256 0.53563 0.31666
 C1805 C 0.74349 0.53722 0.30064
 C1806 C 0.73297 0.54747 0.29295
 H1807 H 0.69052 0.58520 0.33876
 H1808 H 0.68984 0.58670 0.28175
 H1809 H 0.67199 0.60393 0.29626
 H1810 H 0.71150 0.56728 0.28109
 H1811 H 0.71064 0.56413 0.33817
 H1812 H 0.73140 0.54352 0.33739
 H1813 H 0.75063 0.52778 0.32273
 H1814 H 0.73359 0.54859 0.28056
 C1815 C 0.68225 1.08806 0.80743
 C1816 C 0.69191 1.07790 0.79864
 C1817 C 0.70805 1.07728 0.80145
 C1818 C 0.71419 1.08639 0.81325
 C1819 C 0.70451 1.09615 0.82216
 C1820 C 0.68842 1.09733 0.81931
 C1821 C 0.71783 1.06756 0.79247
 C1822 C 0.71166 1.05813 0.78088
 C1823 C 0.69546 1.05826 0.77834
 C1824 C 0.68569 1.06827 0.78713
 C1825 C 0.68936 1.04835 0.76703
 C1826 C 0.69924 1.03856 0.75823
 C1827 C 0.71535 1.03877 0.76044
 C1828 C 0.72149 1.04853 0.77182
 H1829 H 0.66991 1.08844 0.80511
 H1830 H 0.72653 1.08598 0.81560
 H1831 H 0.70990 1.10307 0.83101
 H1832 H 0.73024 1.06730 0.79453
 H1833 H 0.67329 1.06854 0.78506
 H1834 H 0.67697 1.04819 0.76498
 H1835 H 0.69435 1.03106 0.74948
 H1836 H 0.73393 1.04854 0.77364
 C1837 C 0.19654 0.59108 0.82171
 C1838 C 0.20681 0.58331 0.81146
 C1839 C 0.20611 0.58709 0.79560
 C1840 C 0.19520 0.59841 0.79024
 C1841 C 0.18479 0.60569 0.80041
 C1842 C 0.18533 0.60209 0.81617
 C1843 C 0.21605 0.57927 0.78525
 C1844 C 0.22646 0.56737 0.79042
 C1845 C 0.22721 0.56342 0.80621
 C1846 C 0.21750 0.57157 0.81669
 C1847 C 0.23739 0.55111 0.81114
 C1848 C 0.24648 0.54261 0.80048
 C1849 C 0.24575 0.54652 0.78478
 C1850 C 0.23582 0.55904 0.77989
 H1851 H 0.19691 0.58821 0.83387
 H1852 H 0.19457 0.60147 0.77815
 H1853 H 0.17637 0.61429 0.79593
 H1854 H 0.21541 0.58216 0.77310
 H1855 H 0.21799 0.56853 0.82880
 H1856 H 0.23812 0.54786 0.82318
 H1857 H 0.25405 0.53296 0.80446
 H1858 H 0.23493 0.56190 0.76776
 C1859 C 0.19314 1.10203 0.30870
 C1860 C 0.20343 1.09166 0.30083
 C1861 C 0.21928 1.09568 0.29933
 C1862 C 0.22461 1.10983 0.30582
 C1863 C 0.21443 1.11982 0.31393
 C1864 C 0.19866 1.11604 0.31547
 C1865 C 0.22961 1.08546 0.29149
 C1866 C 0.22441 1.07110 0.28529
 C1867 C 0.20865 1.06687 0.28699
 C1868 C 0.19823 1.07723 0.29466
 C1869 C 0.20359 1.05236 0.28094
 C1870 C 0.21397 1.04229 0.27305
 C1871 C 0.22959 1.04655 0.27101
 C1872 C 0.23474 1.06094 0.27732
 H1873 H 0.18101 1.09898 0.31000
 H1874 H 0.23671 1.11308 0.30478
 H1875 H 0.21890 1.13061 0.31895
 H1876 H 0.24173 1.08865 0.29026
 H1877 H 0.18612 1.07403 0.29588
 H1878 H 0.19158 1.04888 0.28216
 H1879 H 0.20967 1.03136 0.26814
 H1880 H 0.24680 1.06425 0.27598
 C1881 C 0.70063 0.40126 0.68175
 C1882 C 0.70760 0.41018 0.69337
 C1883 C 0.70225 0.40859 0.70869
 C1884 C 0.68998 0.39831 0.71212
 C1885 C 0.68302 0.38967 0.70052
 C1886 C 0.68825 0.39099 0.68524
 C1887 C 0.70922 0.41726 0.72037
 C1888 C 0.72137 0.42770 0.71697
 C1889 C 0.72663 0.42954 0.70165
 C1890 C 0.71977 0.42069 0.68995
 C1891 C 0.73867 0.44022 0.69835
 C1892 C 0.74547 0.44891 0.71012
 C1893 C 0.74041 0.44698 0.72538
 C1894 C 0.72831 0.43636 0.72868
 H1895 H 0.70470 0.40246 0.67001
 H1896 H 0.68578 0.39693 0.72381
 H1897 H 0.67368 0.38172 0.70362
 H1898 H 0.70515 0.41592 0.73212
 H1899 H 0.72385 0.42201 0.67821
 H1900 H 0.74284 0.44182 0.68669
 H1901 H 0.75484 0.45696 0.70734
 H1902 H 0.72419 0.43498 0.74040
 C1903 C 0.70026 -0.09610 0.18646
 C1904 C 0.70909 -0.08807 0.19744
 C1905 C 0.70644 -0.09114 0.21324
 C1906 C 0.69502 -0.10196 0.21783
 C1907 C 0.68608 -0.10954 0.20691
 C1908 C 0.68855 -0.10669 0.19118
 C1909 C 0.71505 -0.08318 0.22428
 C1910 C 0.72606 -0.07186 0.21982
 C1911 C 0.72868 -0.06855 0.20408
 C1912 C 0.72029 -0.07683 0.19295
 C1913 C 0.73946 -0.05682 0.19980
 C1914 C 0.74739 -0.04834 0.21101
 C1915 C 0.74489 -0.05169 0.22666
 C1916 C 0.73427 -0.06355 0.23094
 H1917 H 0.70216 -0.09378 0.17434
 H1918 H 0.69287 -0.10444 0.22988
 H1919 H 0.67729 -0.11780 0.21082
 H1920 H 0.71299 -0.08560 0.23637
 H1921 H 0.72229 -0.07433 0.18087
 H1922 H 0.74161 -0.05407 0.18780
 H1923 H 0.75553 -0.03922 0.20749
 H1924 H 0.73207 -0.06598 0.24300
 C1925 C 0.19780 0.40537 0.20249
 C1926 C 0.20567 0.41509 0.21287
 C1927 C 0.22136 0.41153 0.21644
 C1928 C 0.22897 0.39853 0.20948
 C1929 C 0.22113 0.38904 0.19910
 C1930 C 0.20549 0.39229 0.19554
 C1931 C 0.22922 0.42094 0.22698
 C1932 C 0.22164 0.43393 0.23400
 C1933 C 0.20605 0.43774 0.23029
 C1934 C 0.19814 0.42827 0.21975
 C1935 C 0.19863 0.45090 0.23729
 C1936 C 0.20651 0.46002 0.24802
 C1937 C 0.22189 0.45608 0.25201
 C1938 C 0.22943 0.44310 0.24481
 H1939 H 0.18579 0.40807 0.19974
 H1940 H 0.24098 0.39564 0.21210
 H1941 H 0.22732 0.37896 0.19410
 H1942 H 0.24121 0.41809 0.22977
 H1943 H 0.18615 0.43112 0.21697
 H1944 H 0.18669 0.45403 0.23457
 H1945 H 0.20046 0.46995 0.25349
 H1946 H 0.24138 0.44013 0.24763
 C1947 C 0.19043 -0.08948 0.68176
 C1948 C 0.19922 -0.08102 0.69245
 C1949 C 0.19505 -0.08164 0.70818
 C1950 C 0.18214 -0.09040 0.71294
 C1951 C 0.17337 -0.09853 0.70226
 C1952 C 0.17741 -0.09822 0.68661
 C1953 C 0.20382 -0.07348 0.71896
 C1954 C 0.21659 -0.06444 0.71424
 C1955 C 0.22066 -0.06349 0.69852
 C1956 C 0.21201 -0.07190 0.68771
 C1957 C 0.23328 -0.05408 0.69393
 C1958 C 0.24177 -0.04573 0.70482
 C1959 C 0.23790 -0.04688 0.72047
 C1960 C 0.22528 -0.05626 0.72507
 H1961 H 0.19358 -0.08909 0.66971
 H1962 H 0.17880 -0.09097 0.72495
 H1963 H 0.16356 -0.10535 0.70636
 H1964 H 0.20066 -0.07409 0.73102
 H1965 H 0.21517 -0.07127 0.67565
 H1966 H 0.23657 -0.05315 0.68194
 H1967 H 0.25150 -0.03858 0.70107
 H1968 H 0.22212 -0.05700 0.73713
 C1969 C 0.30677 0.32126 0.42317
 C1970 C 0.29622 0.31318 0.43278
 C1971 C 0.29424 0.29648 0.43112
 C1972 C 0.30319 0.28806 0.42031
 C1973 C 0.31370 0.29615 0.41088
 C1974 C 0.31543 0.31284 0.41202
 C1975 C 0.28311 0.28850 0.44004
 C1976 C 0.27390 0.29699 0.45061
 C1977 C 0.27624 0.31357 0.45273
 C1978 C 0.28741 0.32157 0.44380
 C1979 C 0.26711 0.32192 0.46351
 C1980 C 0.25538 0.31406 0.47167
 C1981 C 0.25254 0.29777 0.46910
 C1982 C 0.26208 0.28923 0.45879
 H1983 H 0.30814 0.33409 0.42429
 H1984 H 0.30186 0.27525 0.41895
 H1985 H 0.32011 0.28935 0.40236
 H1986 H 0.28140 0.27575 0.43853
 H1987 H 0.28901 0.33435 0.44520
 H1988 H 0.26881 0.33460 0.46537
 H1989 H 0.24811 0.32082 0.47956
 H1990 H 0.26005 0.27659 0.45692
 C1991 C 0.29976 0.81151 -0.10276
 C1992 C 0.29043 0.80176 -0.09331
 C1993 C 0.28967 0.78512 -0.09621
 C1994 C 0.29807 0.77852 -0.10845
 C1995 C 0.30732 0.78822 -0.11771
 C1996 C 0.30839 0.80475 -0.11494
 C1997 C 0.28060 0.77526 -0.08680
 C1998 C 0.27229 0.78174 -0.07443
 C1999 C 0.27292 0.79834 -0.07144
 C2000 C 0.28198 0.80829 -0.08093
 C2001 C 0.26456 0.80462 -0.05891
 C2002 C 0.25579 0.79451 -0.04941
 C2003 C 0.25517 0.77798 -0.05234
 C2004 C 0.26347 0.77174 -0.06491
 H2005 H 0.30051 0.82422 -0.10047
 H2006 H 0.29755 0.76581 -0.11084
 H2007 H 0.31354 0.78268 -0.12714
 H2008 H 0.28009 0.76251 -0.08907
 H2009 H 0.28256 0.82102 -0.07862
 H2010 H 0.26485 0.81732 -0.05643
 H2011 H 0.24943 0.79962 -0.03983
 H2012 H 0.26337 0.75896 -0.06709
 C2013 C 0.80744 0.30698 -0.08767
 C2014 C 0.79973 0.29578 -0.07824
 C2015 C 0.80347 0.27925 -0.07952
 C2016 C 0.81496 0.27421 -0.08991
 C2017 C 0.82273 0.28540 -0.09900
 C2018 C 0.81905 0.30184 -0.09802
 C2019 C 0.79571 0.26798 -0.07039
 C2020 C 0.78440 0.27298 -0.05976
 C2021 C 0.78086 0.28950 -0.05814
 C2022 C 0.78847 0.30081 -0.06749
 C2023 C 0.76975 0.29437 -0.04718
 C2024 C 0.76215 0.28296 -0.03805
 C2025 C 0.76537 0.26653 -0.03991
 C2026 C 0.77658 0.26165 -0.05073
 H2027 H 0.80462 0.31966 -0.08675
 H2028 H 0.81799 0.26160 -0.09099
 H2029 H 0.83150 0.28112 -0.10700
 H2030 H 0.79850 0.25530 -0.07151
 H2031 H 0.78568 0.31348 -0.06635
 H2032 H 0.76691 0.30697 -0.04573
 H2033 H 0.75351 0.28693 -0.02978
 H2034 H 0.77925 0.24897 -0.05205
 C2035 C 0.79377 0.81325 0.41202
 C2036 C 0.78236 0.80553 0.42092
 C2037 C 0.77968 0.78900 0.41879
 C2038 C 0.78861 0.78041 0.40811
 C2039 C 0.80004 0.78808 0.39951
 C2040 C 0.80269 0.80455 0.40127
 C2041 C 0.76808 0.78129 0.42728
 C2042 C 0.75918 0.78981 0.43806
 C2043 C 0.76205 0.80622 0.44057
 C2044 C 0.77358 0.81402 0.43192
 C2045 C 0.75326 0.81454 0.45164
 C2046 C 0.74158 0.80672 0.45994
 C2047 C 0.73839 0.79055 0.45715
 C2048 C 0.74735 0.78213 0.44630
 H2049 H 0.79583 0.82592 0.41356
 H2050 H 0.78672 0.76773 0.40638
 H2051 H 0.80660 0.78112 0.39121
 H2052 H 0.76593 0.76867 0.42547
 H2053 H 0.77569 0.82665 0.43371
 H2054 H 0.75532 0.82710 0.45379
 H2055 H 0.73476 0.81339 0.46828
 H2056 H 0.74508 0.76957 0.44427
 C2057 C 0.71507 0.31394 0.58594
 C2058 C 0.72556 0.30467 0.57711
 C2059 C 0.72637 0.28784 0.57941
 C2060 C 0.71670 0.28055 0.59030
 C2061 C 0.70617 0.28976 0.59879
 C2062 C 0.70521 0.30649 0.59672
 C2063 C 0.73676 0.27850 0.57075
 C2064 C 0.74625 0.28566 0.55961
 C2065 C 0.74541 0.30242 0.55708
 C2066 C 0.73512 0.31187 0.56592
 C2067 C 0.75481 0.30938 0.54566
 C2068 C 0.76498 0.29980 0.53691
 C2069 C 0.76599 0.28315 0.53954
 C2070 C 0.75650 0.27621 0.55089
 H2071 H 0.71433 0.32682 0.58421
 H2072 H 0.71722 0.26768 0.59221
 H2073 H 0.69891 0.28375 0.60717
 H2074 H 0.73737 0.26561 0.57260
 H2075 H 0.73447 0.32475 0.56404
 H2076 H 0.75428 0.32219 0.54347
 H2077 H 0.77217 0.30541 0.52821
 H2078 H 0.75692 0.26332 0.55277
 C2079 C 0.69224 0.81447 1.09070
 C2080 C 0.70109 0.80457 1.08088
 C2081 C 0.70181 0.78783 1.08369
 C2082 C 0.69329 0.78121 1.09588
 C2083 C 0.68437 0.79108 1.10543
 C2084 C 0.68392 0.80779 1.10309
 C2085 C 0.71121 0.77797 1.07443
 C2086 C 0.71988 0.78460 1.06233
 C2087 C 0.71874 0.80124 1.05911
 C2088 C 0.70936 0.81114 1.06842
 C2089 C 0.72728 0.80772 1.04681
 C2090 C 0.73729 0.79792 1.03816
 C2091 C 0.73900 0.78152 1.04175
 C2092 C 0.72998 0.77488 1.05365
 H2093 H 0.69181 0.82733 1.08870
 H2094 H 0.69366 0.76839 1.09814
 H2095 H 0.67816 0.78564 1.11493
 H2096 H 0.71199 0.76518 1.07681
 H2097 H 0.70869 0.82395 1.06612
 H2098 H 0.72650 0.82043 1.04410
 H2099 H 0.74417 0.80326 1.02906
 H2100 H 0.73111 0.76218 1.05634
 C2101 C 0.20556 0.30559 1.08779
 C2102 C 0.21488 0.29717 1.07714
 C2103 C 0.23078 0.29432 1.08031
 C2104 C 0.23714 0.30005 1.09386
 C2105 C 0.22785 0.30838 1.10433
 C2106 C 0.21197 0.31121 1.10150
 C2107 C 0.24008 0.28562 1.07001
 C2108 C 0.23372 0.27956 1.05658
 C2109 C 0.21790 0.28255 1.05319
 C2110 C 0.20857 0.29140 1.06347
 C2111 C 0.21168 0.27640 1.03967
 C2112 C 0.22093 0.26701 1.02986
 C2113 C 0.23654 0.26362 1.03340
 C2114 C 0.24291 0.27026 1.04665
 H2115 H 0.19339 0.30777 1.08537
 H2116 H 0.24929 0.29795 1.09646
 H2117 H 0.23315 0.31234 1.11480
 H2118 H 0.25224 0.28335 1.07257
 H2119 H 0.19641 0.29360 1.06095
 H2120 H 0.19960 0.27859 1.03683
 H2121 H 0.21575 0.26199 1.01974
 H2122 H 0.25502 0.26798 1.04934
 C2123 C 0.18793 0.81698 0.59200
 C2124 C 0.19682 0.80687 0.58246
 C2125 C 0.19552 0.79003 0.58398
 C2126 C 0.18516 0.78361 0.59478
 C2127 C 0.17624 0.79374 0.60410
 C2128 C 0.17760 0.81049 0.60290
 C2129 C 0.20460 0.77988 0.57471
 C2130 C 0.21485 0.78633 0.56381
 C2131 C 0.21594 0.80317 0.56204
 C2132 C 0.20698 0.81333 0.57143
 C2133 C 0.22601 0.80953 0.55089
 C2134 C 0.23499 0.79932 0.54166
 C2135 C 0.23419 0.78260 0.54356
 C2136 C 0.22405 0.77619 0.55463
 H2137 H 0.18896 0.82987 0.59085
 H2138 H 0.18398 0.77074 0.59605
 H2139 H 0.16850 0.78840 0.61248
 H2140 H 0.20369 0.76697 0.57599
 H2141 H 0.20791 0.82624 0.57017
 H2142 H 0.22697 0.82239 0.54934
 H2143 H 0.24279 0.80448 0.53322
 H2144 H 0.22324 0.76328 0.55599
 C2145 C 0.30941 0.68832 0.58489
 C2146 C 0.29879 0.69740 0.57613
 C2147 C 0.28284 0.69745 0.58010
 C2148 C 0.27774 0.68797 0.59246
 C2149 C 0.28838 0.67897 0.60113
 C2150 C 0.30434 0.67928 0.59761
 C2151 C 0.27232 0.70722 0.57190
 C2152 C 0.27758 0.71698 0.55978
 C2153 C 0.29346 0.71652 0.55550
 C2154 C 0.30395 0.70673 0.56369
 C2155 C 0.29867 0.72610 0.54328
 C2156 C 0.28833 0.73635 0.53557
 C2157 C 0.27262 0.73727 0.53999
 C2158 C 0.26726 0.72740 0.55202
 H2159 H 0.32164 0.68851 0.58191
 H2160 H 0.26555 0.68777 0.59562
 H2161 H 0.28412 0.67220 0.61090
 H2162 H 0.26013 0.70746 0.57512
 H2163 H 0.31617 0.70661 0.56056
 H2164 H 0.31078 0.72586 0.53982
 H2165 H 0.29271 0.74394 0.52640
 H2166 H 0.25512 0.72794 0.55537
 C2167 C 0.31431 0.17936 1.08119
 C2168 C 0.30357 0.18598 1.07074
 C2169 C 0.28749 0.18377 1.07323
 C2170 C 0.28247 0.17434 1.08565
 C2171 C 0.29323 0.16760 1.09583
 C2172 C 0.30918 0.17032 1.09389
 C2173 C 0.27667 0.19132 1.06350
 C2174 C 0.28171 0.20098 1.05123
 C2175 C 0.29779 0.20253 1.04825
 C2176 C 0.30863 0.19505 1.05805
 C2177 C 0.30275 0.21192 1.03575
 C2178 C 0.29192 0.22031 1.02674
 C2179 C 0.27600 0.21953 1.03016
 C2180 C 0.27093 0.20954 1.04220
 H2181 H 0.32662 0.18136 1.07954
 H2182 H 0.27021 0.17241 1.08764
 H2183 H 0.28899 0.16077 1.10559
 H2184 H 0.26434 0.18998 1.06567
 H2185 H 0.32096 0.19656 1.05599
 H2186 H 0.31501 0.21314 1.03322
 H2187 H 0.29602 0.22802 1.01754
 H2188 H 0.25863 0.20883 1.04478
 C2189 C 0.81089 0.69217 1.09577
 C2190 C 0.80220 0.70188 1.08558
 C2191 C 0.78580 0.70198 1.08652
 C2192 C 0.77838 0.69219 1.09734
 C2193 C 0.78706 0.68260 1.10740
 C2194 C 0.80340 0.68258 1.10693
 C2195 C 0.77705 0.71196 1.07676
 C2196 C 0.78444 0.72193 1.06603
 C2197 C 0.80082 0.72169 1.06480
 C2198 C 0.80961 0.71165 1.07460
 C2199 C 0.80806 0.73159 1.05385
 C2200 C 0.79916 0.74176 1.04435
 C2201 C 0.78291 0.74229 1.04579
 C2202 C 0.77565 0.73221 1.05658
 H2203 H 0.82344 0.69229 1.09509
 H2204 H 0.76582 0.69206 1.09814
 H2205 H 0.78082 0.67536 1.11566
 H2206 H 0.76447 0.71209 1.07761
 H2207 H 0.82219 0.71155 1.07376
 H2208 H 0.82060 0.73155 1.05269
 H2209 H 0.80498 0.74942 1.03608
 H2210 H 0.76309 0.73234 1.05754
 C2211 C 0.82794 0.18578 0.58824
 C2212 C 0.81961 0.19536 0.57767
 C2213 C 0.80324 0.19653 0.57889
 C2214 C 0.79546 0.18766 0.59021
 C2215 C 0.80380 0.17806 0.60055
 C2216 C 0.82010 0.17721 0.59985
 C2217 C 0.79491 0.20677 0.56899
 C2218 C 0.80270 0.21587 0.55783
 C2219 C 0.81899 0.21425 0.55612
 C2220 C 0.82736 0.20401 0.56608
 C2221 C 0.82663 0.22320 0.54469
 C2222 C 0.81829 0.23410 0.53546
 C2223 C 0.80223 0.23628 0.53763
 C2224 C 0.79446 0.22689 0.54862
 H2225 H 0.84050 0.18508 0.58751
 H2226 H 0.78292 0.18835 0.59123
 H2227 H 0.79745 0.17172 0.60942
 H2228 H 0.78238 0.20789 0.57016
 H2229 H 0.83989 0.20300 0.56499
 H2230 H 0.83909 0.22204 0.54312
 H2231 H 0.82444 0.24128 0.52704
 H2232 H 0.78203 0.22846 0.55019
 C2233 C 0.66533 0.70255 0.40877
 C2234 C 0.67384 0.71260 0.41835
 C2235 C 0.69020 0.71089 0.41891
 C2236 C 0.69773 0.69900 0.41027
 C2237 C 0.68920 0.68895 0.40099
 C2238 C 0.67298 0.69067 0.40002
 C2239 C 0.69885 0.72112 0.42802
 C2240 C 0.69139 0.73295 0.43679
 C2241 C 0.67503 0.73448 0.43667
 C2242 C 0.66633 0.72435 0.42735
 C2243 C 0.66770 0.74616 0.44587
 C2244 C 0.67654 0.75628 0.45496
 C2245 C 0.69282 0.75505 0.45475
 C2246 C 0.70013 0.74329 0.44571
 H2247 H 0.65282 0.70389 0.40819
 H2248 H 0.71025 0.69753 0.41061
 H2249 H 0.69543 0.68008 0.39426
 H2250 H 0.71141 0.71988 0.42827
 H2251 H 0.65378 0.72560 0.42709
 H2252 H 0.65517 0.74747 0.44600
 H2253 H 0.67073 0.76526 0.46193
 H2254 H 0.71270 0.74214 0.44574
 C2255 C 0.68913 0.17584 -0.08092
 C2256 C 0.69661 0.18668 -0.07134
 C2257 C 0.68974 0.20192 -0.06861
 C2258 C 0.67534 0.20588 -0.07509
 C2259 C 0.66797 0.19504 -0.08456
 C2260 C 0.67489 0.18004 -0.08779
 C2261 C 0.69745 0.21308 -0.05966
 C2262 C 0.71197 0.20922 -0.05338
 C2263 C 0.71871 0.19384 -0.05570
 C2264 C 0.71097 0.18265 -0.06468
 C2265 C 0.73317 0.19002 -0.04915
 C2266 C 0.74098 0.20144 -0.04059
 C2267 C 0.73447 0.21680 -0.03864
 C2268 C 0.71995 0.22061 -0.04493
 H2269 H 0.69450 0.16425 -0.08316
 H2270 H 0.66990 0.21749 -0.07307
 H2271 H 0.65709 0.19870 -0.08973
 H2272 H 0.69226 0.22484 -0.05776
 H2273 H 0.71621 0.17092 -0.06664
 H2274 H 0.73850 0.17828 -0.05076
 H2275 H 0.75219 0.19840 -0.03572
 H2276 H 0.71495 0.23251 -0.04331
 C2277 C 0.17884 0.68590 -0.08827
 C2278 C 0.18652 0.69779 -0.08007
 C2279 C 0.18280 0.71416 -0.08286
 C2280 C 0.17125 0.71835 -0.09345
 C2281 C 0.16350 0.70647 -0.10133
 C2282 C 0.16733 0.69018 -0.09897
 C2283 C 0.19075 0.72612 -0.07513
 C2284 C 0.20228 0.72196 -0.06450
 C2285 C 0.20575 0.70562 -0.06134
 C2286 C 0.19789 0.69362 -0.06920
 C2287 C 0.21714 0.70160 -0.05045
 C2288 C 0.22514 0.71366 -0.04294
 C2289 C 0.22204 0.72989 -0.04637
 C2290 C 0.21049 0.73394 -0.05707
 H2291 H 0.18178 0.67335 -0.08631
 H2292 H 0.16829 0.73083 -0.09574
 H2293 H 0.15481 0.71011 -0.10962
 H2294 H 0.18801 0.73866 -0.07745
 H2295 H 0.20067 0.68108 -0.06693
 H2296 H 0.21995 0.68915 -0.04786
 H2297 H 0.23404 0.71031 -0.03474
 H2298 H 0.20793 0.74647 -0.05962
 C2299 C 0.18114 0.21138 0.41604
 C2300 C 0.18922 0.22131 0.42608
 C2301 C 0.20560 0.22013 0.42675
 C2302 C 0.21359 0.20895 0.41768
 C2303 C 0.20551 0.19916 0.40778
 C2304 C 0.18924 0.20032 0.40669
 C2305 C 0.21383 0.23023 0.43635
 C2306 C 0.20593 0.24155 0.44535
 C2307 C 0.18954 0.24265 0.44500
 C2308 C 0.18126 0.23252 0.43533
 C2309 C 0.18179 0.25394 0.45430
 C2310 C 0.19024 0.26411 0.46370
 C2311 C 0.20653 0.26325 0.46379
 C2312 C 0.21426 0.25184 0.45467
 H2313 H 0.16860 0.21235 0.41548
 H2314 H 0.22614 0.20790 0.41809
 H2315 H 0.21220 0.19095 0.40075
 H2316 H 0.22640 0.22935 0.43673
 H2317 H 0.16870 0.23343 0.43493
 H2318 H 0.16924 0.25493 0.45427
 H2319 H 0.18408 0.27282 0.47071
 H2320 H 0.22683 0.25090 0.45493
 C2321 C 0.31118 0.40802 0.69456
 C2322 C 0.30397 0.41740 0.70594
 C2323 C 0.30595 0.41323 0.72159
 C2324 C 0.31549 0.40008 0.72559
 C2325 C 0.32293 0.39107 0.71421
 C2326 C 0.32070 0.39484 0.69863
 C2327 C 0.29838 0.42226 0.73299
 C2328 C 0.28915 0.43564 0.72896
 C2329 C 0.28760 0.44015 0.71334
 C2330 C 0.29489 0.43090 0.70193
 C2331 C 0.27878 0.45384 0.70939
 C2332 C 0.27146 0.46293 0.72079
 C2333 C 0.27256 0.45829 0.73627
 C2334 C 0.28143 0.44463 0.74031
 H2335 H 0.30956 0.41108 0.68255
 H2336 H 0.31719 0.39676 0.73752
 H2337 H 0.33016 0.38090 0.71759
 H2338 H 0.29973 0.41891 0.74497
 H2339 H 0.29355 0.43426 0.68994
 H2340 H 0.27750 0.45749 0.69749
 H2341 H 0.26463 0.47343 0.71750
 H2342 H 0.28239 0.44112 0.75229
 C2343 C 0.30941 0.90884 0.19367
 C2344 C 0.29871 0.91738 0.20291
 C2345 C 0.28259 0.91560 0.20055
 C2346 C 0.27742 0.90552 0.18899
 C2347 C 0.28808 0.89748 0.17962
 C2348 C 0.30412 0.89908 0.18182
 C2349 C 0.27185 0.92417 0.20955
 C2350 C 0.27695 0.93489 0.22060
 C2351 C 0.29303 0.93692 0.22288
 C2352 C 0.30383 0.92797 0.21417
 C2353 C 0.29800 0.94811 0.23364
 C2354 C 0.28714 0.95733 0.24189
 C2355 C 0.27115 0.95528 0.23972
 C2356 C 0.26616 0.94392 0.22915
 H2357 H 0.32177 0.91021 0.19532
 H2358 H 0.26512 0.90405 0.18703
 H2359 H 0.28376 0.88987 0.17067
 H2360 H 0.25950 0.92276 0.20770
 H2361 H 0.31617 0.92951 0.21591
 H2362 H 0.31027 0.94989 0.23552
 H2363 H 0.29119 0.96602 0.25003
 H2364 H 0.25383 0.94247 0.22727
 C2365 C 0.81402 0.40250 0.20885
 C2366 C 0.80560 0.41216 0.21926
 C2367 C 0.78994 0.40857 0.22271
 C2368 C 0.78295 0.39555 0.21575
 C2369 C 0.79132 0.38610 0.20544
 C2370 C 0.80688 0.38945 0.20180
 C2371 C 0.78148 0.41794 0.23316
 C2372 C 0.78844 0.43086 0.24035
 C2373 C 0.80401 0.43469 0.23688
 C2374 C 0.81251 0.42532 0.22631
 C2375 C 0.81083 0.44770 0.24419
 C2376 C 0.80241 0.45654 0.25512
 C2377 C 0.78705 0.45252 0.25888
 C2378 C 0.78007 0.43984 0.25119
 H2379 H 0.82598 0.40525 0.20611
 H2380 H 0.77098 0.39262 0.21831
 H2381 H 0.78554 0.37599 0.20048
 H2382 H 0.76952 0.41505 0.23583
 H2383 H 0.82448 0.42818 0.22369
 H2384 H 0.82273 0.45088 0.24167
 H2385 H 0.80805 0.46624 0.26094
 H2386 H 0.76812 0.43685 0.25375
 C2387 C 0.79486 0.90161 0.68081
 C2388 C 0.78661 0.91095 0.69156
 C2389 C 0.78984 0.90906 0.70737
 C2390 C 0.80140 0.89816 0.71214
 C2391 C 0.80964 0.88906 0.70139
 C2392 C 0.80640 0.89058 0.68566
 C2393 C 0.78147 0.91807 0.71819
 C2394 C 0.77001 0.92913 0.71343
 C2395 C 0.76694 0.93132 0.69763
 C2396 C 0.77520 0.92213 0.68678
 C2397 C 0.75567 0.94270 0.69299
 C2398 C 0.74752 0.95178 0.70391
 C2399 C 0.75036 0.94945 0.71962
 C2400 C 0.76164 0.93811 0.72428
 H2401 H 0.79236 0.90301 0.66870
 H2402 H 0.80404 0.89660 0.72421
 H2403 H 0.81834 0.88057 0.70550
 H2404 H 0.78389 0.91650 0.73031
 H2405 H 0.77278 0.92371 0.67466
 H2406 H 0.75319 0.94459 0.68094
 H2407 H 0.73887 0.96049 0.70011
 H2408 H 0.76407 0.93647 0.73640
 C2409 C 0.69735 0.58362 0.68606
 C2410 C 0.70554 0.57424 0.69690
 C2411 C 0.70298 0.57680 0.71275
 C2412 C 0.69204 0.58836 0.71749
 C2413 C 0.68367 0.59732 0.70666
 C2414 C 0.68631 0.59512 0.69090
 C2415 C 0.71134 0.56773 0.72362
 C2416 C 0.72198 0.55586 0.71890
 C2417 C 0.72423 0.55293 0.70307
 C2418 C 0.71613 0.56227 0.69217
 C2419 C 0.73452 0.54065 0.69845
 C2420 C 0.74257 0.53145 0.70939
 C2421 C 0.74069 0.53459 0.72508
 C2422 C 0.73036 0.54679 0.72978
 H2423 H 0.69933 0.58178 0.67391
 H2424 H 0.68990 0.59044 0.72958
 H2425 H 0.67533 0.60623 0.71065
 H2426 H 0.70947 0.56984 0.73576
 H2427 H 0.71797 0.56013 0.68003
 H2428 H 0.73634 0.53817 0.68639
 H2429 H 0.75050 0.52205 0.70561
 H2430 H 0.72875 0.54909 0.74191
 C2431 C 0.68848 0.08182 0.19225
 C2432 C 0.69703 0.07272 0.20299
 C2433 C 0.69510 0.07569 0.21884
 C2434 C 0.68431 0.08739 0.22368
 C2435 C 0.67573 0.09628 0.21292
 C2436 C 0.67787 0.09373 0.19713
 C2437 C 0.70403 0.06701 0.22958
 C2438 C 0.71472 0.05521 0.22468
 C2439 C 0.71628 0.05190 0.20886
 C2440 C 0.70751 0.06074 0.19812
 C2441 C 0.72668 0.03983 0.20402
 C2442 C 0.73561 0.03127 0.21472
 C2443 C 0.73446 0.03477 0.23041
 C2444 C 0.72393 0.04672 0.23535
 H2445 H 0.69004 0.07960 0.18011
 H2446 H 0.68257 0.08974 0.23578
 H2447 H 0.66770 0.10543 0.21698
 H2448 H 0.70271 0.06947 0.24172
 H2449 H 0.70888 0.05833 0.18597
 H2450 H 0.72798 0.03709 0.19195
 H2451 H 0.74374 0.02214 0.21072
 H2452 H 0.72292 0.04933 0.24747
 C2453 C 0.18710 0.58861 0.20159
 C2454 C 0.19554 0.57760 0.21076
 C2455 C 0.21044 0.57228 0.20588
 C2456 C 0.21640 0.57751 0.19175
 C2457 C 0.20801 0.58848 0.18279
 C2458 C 0.19347 0.59446 0.18773
 C2459 C 0.21937 0.56213 0.21534
 C2460 C 0.21365 0.55725 0.22969
 C2461 C 0.19855 0.56203 0.23443
 C2462 C 0.18956 0.57218 0.22491
 C2463 C 0.19286 0.55681 0.24876
 C2464 C 0.20223 0.54733 0.25845
 C2465 C 0.21740 0.54311 0.25396
 C2466 C 0.22298 0.54790 0.23952
 H2467 H 0.17591 0.59306 0.20557
 H2468 H 0.22770 0.57337 0.18776
 H2469 H 0.21309 0.59245 0.17204
 H2470 H 0.23091 0.55832 0.21168
 H2471 H 0.17809 0.57612 0.22865
 H2472 H 0.18129 0.56025 0.25256
 H2473 H 0.19781 0.54361 0.26958
 H2474 H 0.23470 0.54452 0.23606
 C2475 C 0.19300 0.08935 0.68612
 C2476 C 0.20160 0.07952 0.69624
 C2477 C 0.19885 0.08053 0.71223
 C2478 C 0.18722 0.09095 0.71776
 C2479 C 0.17852 0.10045 0.70759
 C2480 C 0.18147 0.09990 0.69174
 C2481 C 0.20780 0.07117 0.72241
 C2482 C 0.21926 0.06058 0.71681
 C2483 C 0.22164 0.05915 0.70080
 C2484 C 0.21289 0.06874 0.69062
 C2485 C 0.23275 0.04815 0.69523
 C2486 C 0.24154 0.03875 0.70542
 C2487 C 0.23954 0.04044 0.72130
 C2488 C 0.22839 0.05135 0.72696
 H2489 H 0.19521 0.08872 0.67388
 H2490 H 0.18490 0.09181 0.72996
 H2491 H 0.16976 0.10857 0.71219
 H2492 H 0.20583 0.07212 0.73468
 H2493 H 0.21487 0.06781 0.67836
 H2494 H 0.23466 0.04682 0.68300
 H2495 H 0.25012 0.03035 0.70094
 H2496 H 0.22676 0.05251 0.73925
 C2497 C 0.31125 0.59001 0.31995
 C2498 C 0.29909 0.58118 0.31366
 C2499 C 0.28352 0.58517 0.31753
 C2500 C 0.28035 0.59757 0.32784
 C2501 C 0.29248 0.60592 0.33437
 C2502 C 0.30797 0.60229 0.33045
 C2503 C 0.27132 0.57665 0.31116
 C2504 C 0.27442 0.56388 0.30125
 C2505 C 0.28996 0.55950 0.29767
 C2506 C 0.30221 0.56830 0.30376
 C2507 C 0.29293 0.54632 0.28812
 C2508 C 0.28062 0.53768 0.28211
 C2509 C 0.26518 0.54223 0.28534
 C2510 C 0.26218 0.55534 0.29493
 H2511 H 0.32322 0.58711 0.31701
 H2512 H 0.26850 0.60074 0.33096
 H2513 H 0.28973 0.61543 0.34237
 H2514 H 0.25939 0.57986 0.31404
 H2515 H 0.31413 0.56505 0.30093
 H2516 H 0.30474 0.54271 0.28532
 H2517 H 0.28314 0.52761 0.27468
 H2518 H 0.25026 0.55876 0.29760
 C2519 C 0.32047 0.08442 0.80356
 C2520 C 0.31259 0.07560 0.79250
 C2521 C 0.31458 0.07937 0.77674
 C2522 C 0.32474 0.09156 0.77231
 C2523 C 0.33278 0.10003 0.78337
 C2524 C 0.33060 0.09666 0.79905
 C2525 C 0.30636 0.07094 0.76568
 C2526 C 0.29637 0.05859 0.77014
 C2527 C 0.29477 0.05447 0.78585
 C2528 C 0.30279 0.06308 0.79694
 C2529 C 0.28510 0.04183 0.79023
 C2530 C 0.27690 0.03351 0.77918
 C2531 C 0.27807 0.03781 0.76359
 C2532 C 0.28789 0.05033 0.75913
 H2533 H 0.31886 0.08165 0.81564
 H2534 H 0.32645 0.09456 0.76030
 H2535 H 0.34044 0.10950 0.77963
 H2536 H 0.30774 0.07399 0.75362
 H2537 H 0.30140 0.06005 0.80900
 H2538 H 0.28379 0.03846 0.80220
 H2539 H 0.26931 0.02394 0.78283
 H2540 H 0.28893 0.05359 0.74709
 C2541 C 0.81344 0.58273 0.81146
 C2542 C 0.80709 0.57288 0.80022
 C2543 C 0.81100 0.57540 0.78459
 C2544 C 0.82166 0.58727 0.78054
 C2545 C 0.82819 0.59676 0.79182
 C2546 C 0.82396 0.59475 0.80731
 C2547 C 0.80415 0.56611 0.77326
 C2548 C 0.79362 0.55411 0.77735
 C2549 C 0.79019 0.55114 0.79301
 C2550 C 0.79685 0.56062 0.80434
 C2551 C 0.77998 0.53884 0.79707
 C2552 C 0.77299 0.52979 0.78571
 C2553 C 0.77589 0.53306 0.77012
 C2554 C 0.78632 0.54517 0.76601
 H2555 H 0.81024 0.58105 0.82341
 H2556 H 0.82487 0.58930 0.76864
 H2557 H 0.83619 0.60604 0.78837
 H2558 H 0.80693 0.56828 0.76126
 H2559 H 0.79403 0.55849 0.81633
 H2560 H 0.77727 0.53634 0.80901
 H2561 H 0.76492 0.52055 0.78908
 H2562 H 0.78870 0.54761 0.75398
 C2563 C 0.81708 0.08765 0.30575
 C2564 C 0.80884 0.07773 0.29583
 C2565 C 0.80985 0.08031 0.27979
 C2566 C 0.81941 0.09238 0.27391
 C2567 C 0.82785 0.10190 0.28382
 C2568 C 0.82664 0.09975 0.29978
 C2569 C 0.80131 0.07078 0.26985
 C2570 C 0.79200 0.05848 0.27571
 C2571 C 0.79138 0.05552 0.29171
 C2572 C 0.79969 0.06526 0.30168
 C2573 C 0.78242 0.04286 0.29745
 C2574 C 0.77399 0.03336 0.28745
 C2575 C 0.77418 0.03655 0.27161
 C2576 C 0.78328 0.04908 0.26579
 H2577 H 0.81625 0.08581 0.31805
 H2578 H 0.82037 0.09446 0.26165
 H2579 H 0.83507 0.11121 0.27897
 H2580 H 0.80194 0.07292 0.25757
 H2581 H 0.79907 0.06311 0.31397
 H2582 H 0.78187 0.04034 0.30966
 H2583 H 0.76702 0.02375 0.29212
 H2584 H 0.78358 0.05144 0.25353
 C2585 C 0.69874 0.40139 0.32919
 C2586 C 0.70851 0.41176 0.32088
 C2587 C 0.70780 0.41219 0.30468
 C2588 C 0.69710 0.40267 0.29710
 C2589 C 0.68738 0.39251 0.30543
 C2590 C 0.68822 0.39156 0.32151
 C2591 C 0.71791 0.42197 0.29626
 C2592 C 0.72870 0.43143 0.30380
 C2593 C 0.72918 0.43143 0.32001
 C2594 C 0.71909 0.42155 0.32846
 C2595 C 0.73984 0.44125 0.32742
 C2596 C 0.75008 0.45075 0.31884
 C2597 C 0.74995 0.45038 0.30275
 C2598 C 0.73911 0.44081 0.29533
 H2599 H 0.69939 0.40093 0.34159
 H2600 H 0.69639 0.40291 0.28470
 H2601 H 0.67953 0.38504 0.29918
 H2602 H 0.71747 0.42211 0.28383
 H2603 H 0.71957 0.42136 0.34089
 H2604 H 0.74031 0.44151 0.33983
 H2605 H 0.75833 0.45812 0.32474
 H2606 H 0.73880 0.44071 0.28290
 C2607 C 0.68266 0.90347 0.81339
 C2608 C 0.68934 0.91284 0.80161
 C2609 C 0.68508 0.91026 0.78619
 C2610 C 0.67404 0.89872 0.78282
 C2611 C 0.66728 0.88972 0.79456
 C2612 C 0.67156 0.89189 0.80991
 C2613 C 0.69192 0.91919 0.77433
 C2614 C 0.70287 0.93086 0.77763
 C2615 C 0.70689 0.93384 0.79302
 C2616 C 0.70016 0.92473 0.80493
 C2617 C 0.71762 0.94586 0.79617
 C2618 C 0.72444 0.95464 0.78418
 C2619 C 0.72078 0.95139 0.76886
 C2620 C 0.70989 0.93956 0.76570
 H2621 H 0.68593 0.90530 0.82521
 H2622 H 0.67065 0.89662 0.77107
 H2623 H 0.65891 0.88076 0.79154
 H2624 H 0.68874 0.91705 0.76252
 H2625 H 0.70334 0.92689 0.81674
 H2626 H 0.72080 0.94839 0.80789
 H2627 H 0.73283 0.96372 0.78682
 H2628 H 0.70687 0.93718 0.75390
 C2629 C 0.18548 0.41372 0.81338
 C2630 C 0.19439 0.42312 0.80330
 C2631 C 0.19344 0.42070 0.78730
 C2632 C 0.18322 0.40930 0.78166
 C2633 C 0.17429 0.40010 0.79178
 C2634 C 0.17552 0.40203 0.80771
 C2635 C 0.20286 0.42953 0.77722
 C2636 C 0.21316 0.44084 0.78292
 C2637 C 0.21374 0.44365 0.79888
 C2638 C 0.20438 0.43475 0.80896
 C2639 C 0.22384 0.45519 0.80449
 C2640 C 0.23351 0.46364 0.79444
 C2641 C 0.23335 0.46058 0.77863
 C2642 C 0.22303 0.44926 0.77292
 H2643 H 0.18636 0.41546 0.82565
 H2644 H 0.18229 0.40734 0.76944
 H2645 H 0.16679 0.39111 0.78711
 H2646 H 0.20230 0.42748 0.76497
 H2647 H 0.20499 0.43675 0.82122
 H2648 H 0.22439 0.45756 0.81667
 H2649 H 0.24142 0.47228 0.79905
 H2650 H 0.22272 0.44701 0.76070
 C2651 C 0.17673 0.91109 0.30657
 C2652 C 0.18570 0.92032 0.29641
 C2653 C 0.18780 0.91533 0.28107
 C2654 C 0.18035 0.90154 0.27602
 C2655 C 0.17133 0.89248 0.28619
 C2656 C 0.16972 0.89698 0.30161
 C2657 C 0.19752 0.92403 0.27114
 C2658 C 0.20513 0.93767 0.27637
 C2659 C 0.20252 0.94299 0.29154
 C2660 C 0.19285 0.93428 0.30146
 C2661 C 0.20990 0.95677 0.29666
 C2662 C 0.22016 0.96495 0.28702
 C2663 C 0.22330 0.95945 0.27213
 C2664 C 0.21555 0.94592 0.26677
 H2665 H 0.17535 0.91479 0.31839
 H2666 H 0.18173 0.89760 0.26428
 H2667 H 0.16609 0.88162 0.28212
 H2668 H 0.19937 0.92003 0.25946
 H2669 H 0.19109 0.93820 0.31318
 H2670 H 0.20797 0.96105 0.30822
 H2671 H 0.22608 0.97528 0.29140
 H2672 H 0.21779 0.94172 0.25523
 C2673 C 0.41510 0.31074 0.68815
 C2674 C 0.42557 0.30118 0.69666
 C2675 C 0.42292 0.28455 0.69843
 C2676 C 0.41023 0.27768 0.69117
 C2677 C 0.39996 0.28724 0.68263
 C2678 C 0.40212 0.30387 0.68129
 C2679 C 0.43279 0.27513 0.70766
 C2680 C 0.44531 0.28210 0.71513
 C2681 C 0.44836 0.29859 0.71287
 C2682 C 0.43845 0.30803 0.70365
 C2683 C 0.46109 0.30541 0.72016
 C2684 C 0.47037 0.29612 0.73002
 C2685 C 0.46698 0.27994 0.73284
 C2686 C 0.45461 0.27291 0.72513
 H2687 H 0.41697 0.32352 0.68700
 H2688 H 0.40810 0.26494 0.69232
 H2689 H 0.39002 0.28166 0.67752
 H2690 H 0.43056 0.26245 0.70928
 H2691 H 0.44060 0.32074 0.70216
 H2692 H 0.46366 0.31799 0.71848
 H2693 H 0.47987 0.30171 0.73590
 H2694 H 0.45209 0.26036 0.72715
 C2695 C 0.40105 0.81358 0.18251
 C2696 C 0.41058 0.80242 0.19039
 C2697 C 0.40842 0.78580 0.18827
 C2698 C 0.39703 0.78062 0.17817
 C2699 C 0.38779 0.79176 0.17024
 C2700 C 0.38961 0.80831 0.17238
 C2701 C 0.41761 0.77458 0.19631
 C2702 C 0.42907 0.77972 0.20636
 C2703 C 0.43153 0.79630 0.20828
 C2704 C 0.42221 0.80757 0.20033
 C2705 C 0.44323 0.80129 0.21820
 C2706 C 0.45224 0.78996 0.22629
 C2707 C 0.44959 0.77348 0.22469
 C2708 C 0.43806 0.76847 0.21459
 H2709 H 0.40265 0.82631 0.18413
 H2710 H 0.39524 0.76794 0.17642
 H2711 H 0.37897 0.78736 0.16266
 H2712 H 0.41582 0.76185 0.19476
 H2713 H 0.42399 0.82029 0.20190
 H2714 H 0.44534 0.81394 0.21979
 H2715 H 0.46103 0.79407 0.23407
 H2716 H 0.43611 0.75576 0.21314
 C2717 C 0.91248 0.31652 0.18434
 C2718 C 0.92366 0.30666 0.19164
 C2719 C 0.92224 0.28978 0.19119
 C2720 C 0.91017 0.28306 0.18285
 C2721 C 0.89933 0.29294 0.17536
 C2722 C 0.90019 0.30971 0.17629
 C2723 C 0.93274 0.27989 0.19929
 C2724 C 0.94478 0.28662 0.20768
 C2725 C 0.94671 0.30344 0.20750
 C2726 C 0.93609 0.31337 0.19954
 C2727 C 0.95905 0.31007 0.21557
 C2728 C 0.96899 0.30019 0.22426
 C2729 C 0.96665 0.28358 0.22513
 C2730 C 0.95470 0.27682 0.21658
 H2731 H 0.91330 0.32946 0.18495
 H2732 H 0.90899 0.27016 0.18228
 H2733 H 0.88991 0.28744 0.16928
 H2734 H 0.93138 0.26697 0.19926
 H2735 H 0.93735 0.32629 0.19970
 H2736 H 0.96079 0.32291 0.21547
 H2737 H 0.97810 0.30559 0.23085
 H2738 H 0.95292 0.26398 0.21717
 C2739 C 0.90047 0.80571 0.68617
 C2740 C 0.91037 0.79591 0.69516
 C2741 C 0.90902 0.77904 0.69462
 C2742 C 0.89811 0.77224 0.68494
 C2743 C 0.88841 0.78202 0.67601
 C2744 C 0.88933 0.79884 0.67661
 C2745 C 0.91848 0.76919 0.70385
 C2746 C 0.92934 0.77595 0.71364
 C2747 C 0.93100 0.79278 0.71402
 C2748 C 0.92148 0.80268 0.70477
 C2749 C 0.94214 0.79938 0.72369
 C2750 C 0.95143 0.78938 0.73297
 C2751 C 0.94953 0.77268 0.73290
 C2752 C 0.93853 0.76607 0.72311
 H2753 H 0.90144 0.81863 0.68668
 H2754 H 0.89694 0.75934 0.68440
 H2755 H 0.87993 0.77630 0.66891
 H2756 H 0.91733 0.75625 0.70349
 H2757 H 0.92265 0.81561 0.70513
 H2758 H 0.94361 0.81225 0.72413
 H2759 H 0.95990 0.79469 0.74041
 H2760 H 0.93720 0.75315 0.72284
 C2761 C 0.59256 0.30690 0.30729
 C2762 C 0.58216 0.29859 0.29799
 C2763 C 0.58496 0.28217 0.29490
 C2764 C 0.59781 0.27424 0.30140
 C2765 C 0.60795 0.28251 0.31072
 C2766 C 0.60556 0.29891 0.31367
 C2767 C 0.57503 0.27393 0.28519
 C2768 C 0.56229 0.28187 0.27848
 C2769 C 0.55913 0.29815 0.28189
 C2770 C 0.56909 0.30643 0.29164
 C2771 C 0.54619 0.30591 0.27525
 C2772 C 0.53684 0.29779 0.26492
 C2773 C 0.54031 0.28182 0.26100
 C2774 C 0.55287 0.27385 0.26811
 H2775 H 0.59052 0.31951 0.30959
 H2776 H 0.60009 0.26165 0.29916
 H2777 H 0.61792 0.27606 0.31532
 H2778 H 0.57736 0.26140 0.28267
 H2779 H 0.56680 0.31897 0.29410
 H2780 H 0.54350 0.31835 0.27781
 H2781 H 0.52722 0.30417 0.25954
 H2782 H 0.55548 0.26144 0.26531
 C2783 C 0.58436 0.80846 0.80820
 C2784 C 0.57591 0.79990 0.79739
 C2785 C 0.57937 0.78347 0.79501
 C2786 C 0.59090 0.77578 0.80379
 C2787 C 0.59922 0.78437 0.81456
 C2788 C 0.59623 0.80084 0.81670
 C2789 C 0.57144 0.77505 0.78373
 C2790 C 0.56006 0.78285 0.77482
 C2791 C 0.55627 0.79917 0.77751
 C2792 C 0.56424 0.80759 0.78876
 C2793 C 0.54470 0.80684 0.76875
 C2794 C 0.53717 0.79854 0.75721
 C2795 C 0.54118 0.78248 0.75417
 C2796 C 0.55253 0.77465 0.76313
 H2797 H 0.58179 0.82109 0.80987
 H2798 H 0.59367 0.76318 0.80215
 H2799 H 0.60833 0.77817 0.82085
 H2800 H 0.57426 0.76250 0.78177
 H2801 H 0.56149 0.82017 0.79065
 H2802 H 0.54160 0.81931 0.77069
 H2803 H 0.52847 0.80478 0.75039
 H2804 H 0.55551 0.76218 0.76096
 C2805 C 0.08439 0.31624 0.80636
 C2806 C 0.07500 0.30735 0.79662
 C2807 C 0.07808 0.29078 0.79467
 C2808 C 0.09013 0.28329 0.80295
 C2809 C 0.09936 0.29222 0.81269
 C2810 C 0.09678 0.30882 0.81424
 C2811 C 0.06929 0.28205 0.78426
 C2812 C 0.05745 0.28970 0.77581
 C2813 C 0.05399 0.30613 0.77820
 C2814 C 0.06279 0.31485 0.78859
 C2815 C 0.04198 0.31367 0.76992
 C2816 C 0.03375 0.30513 0.75904
 C2817 C 0.03748 0.28897 0.75616
 C2818 C 0.04919 0.28124 0.76477
 H2819 H 0.08215 0.32899 0.80765
 H2820 H 0.09259 0.27058 0.80168
 H2821 H 0.10886 0.28623 0.81860
 H2822 H 0.07185 0.26941 0.78255
 H2823 H 0.06032 0.32753 0.79021
 H2824 H 0.03913 0.32623 0.77167
 H2825 H 0.02480 0.31131 0.75248
 H2826 H 0.05198 0.26871 0.76274
 C2827 C 0.08826 0.79860 0.30908
 C2828 C 0.07928 0.78703 0.30187
 C2829 C 0.08389 0.77068 0.30261
 C2830 C 0.09713 0.76613 0.31096
 C2831 C 0.10585 0.77770 0.31832
 C2832 C 0.10164 0.79402 0.31726
 C2833 C 0.07530 0.75917 0.29486
 C2834 C 0.06208 0.76379 0.28651
 C2835 C 0.05719 0.78008 0.28620
 C2836 C 0.06585 0.79160 0.29382
 C2837 C 0.04382 0.78463 0.27807
 C2838 C 0.03554 0.77321 0.27004
 C2839 C 0.04056 0.75710 0.26987
 C2840 C 0.05378 0.75243 0.27826
 H2841 H 0.08482 0.81115 0.30836
 H2842 H 0.10081 0.75365 0.31169
 H2843 H 0.11616 0.77390 0.32450
 H2844 H 0.07900 0.74667 0.29521
 H2845 H 0.06224 0.80413 0.29337
 H2846 H 0.03988 0.79704 0.27774
 H2847 H 0.02545 0.77706 0.26355
 H2848 H 0.05763 0.73998 0.27828
 C2849 C 0.59276 0.69593 0.67729
 C2850 C 0.58361 0.70615 0.68652
 C2851 C 0.58458 0.70483 0.70268
 C2852 C 0.59450 0.69330 0.70933
 C2853 C 0.60340 0.68310 0.70010
 C2854 C 0.60267 0.68431 0.68402
 C2855 C 0.57560 0.71501 0.71197
 C2856 C 0.56547 0.72639 0.70536
 C2857 C 0.56429 0.72764 0.68922
 C2858 C 0.57345 0.71757 0.67988
 C2859 C 0.55388 0.73890 0.68274
 C2860 C 0.54469 0.74874 0.69217
 C2861 C 0.54594 0.74764 0.70820
 C2862 C 0.55638 0.73643 0.71470
 H2863 H 0.59200 0.69691 0.66492
 H2864 H 0.59537 0.69215 0.72169
 H2865 H 0.61105 0.67443 0.70562
 H2866 H 0.57642 0.71402 0.72436
 H2867 H 0.57260 0.71855 0.66750
 H2868 H 0.55280 0.74004 0.67040
 H2869 H 0.53671 0.75734 0.68696
 H2870 H 0.55721 0.73534 0.72707
 C2871 C 0.58778 0.19773 0.18097
 C2872 C 0.57872 0.20761 0.19066
 C2873 C 0.58028 0.20603 0.20676
 C2874 C 0.59053 0.19453 0.21292
 C2875 C 0.59919 0.18458 0.20327
 C2876 C 0.59795 0.18608 0.18727
 C2877 C 0.57151 0.21590 0.21652
 C2878 C 0.56090 0.22712 0.21047
 C2879 C 0.55897 0.22856 0.19443
 C2880 C 0.56802 0.21888 0.18458
 C2881 C 0.54795 0.23960 0.18858
 C2882 C 0.53902 0.24915 0.19856
 C2883 C 0.54118 0.24797 0.21448
 C2884 C 0.55209 0.23686 0.22033
 H2885 H 0.58670 0.19885 0.16862
 H2886 H 0.59181 0.19315 0.22523
 H2887 H 0.60710 0.17584 0.20836
 H2888 H 0.57286 0.21475 0.22885
 H2889 H 0.56664 0.22001 0.17226
 H2890 H 0.54623 0.24083 0.17633
 H2891 H 0.53062 0.25762 0.19385
 H2892 H 0.55358 0.23566 0.23263
 C2893 C 0.09375 0.68018 0.18696
 C2894 C 0.08322 0.69029 0.19477
 C2895 C 0.08430 0.70713 0.19298
 C2896 C 0.09545 0.71353 0.18296
 C2897 C 0.10566 0.70338 0.17501
 C2898 C 0.10508 0.68667 0.17713
 C2899 C 0.07437 0.71732 0.20135
 C2900 C 0.06320 0.71090 0.21134
 C2901 C 0.06164 0.69407 0.21266
 C2902 C 0.07174 0.68386 0.20444
 C2903 C 0.05013 0.68773 0.22234
 C2904 C 0.04052 0.69796 0.23093
 C2905 C 0.04242 0.71464 0.23014
 C2906 C 0.05367 0.72106 0.22020
 H2907 H 0.09314 0.66728 0.18851
 H2908 H 0.09638 0.72639 0.18139
 H2909 H 0.11435 0.70866 0.16758
 H2910 H 0.07544 0.73022 0.20020
 H2911 H 0.07075 0.67096 0.20568
 H2912 H 0.04870 0.67488 0.22342
 H2913 H 0.03190 0.69285 0.23857
 H2914 H 0.05505 0.73396 0.21948
 C2915 C 0.08772 0.20219 0.67939
 C2916 C 0.07838 0.21224 0.68861
 C2917 C 0.07917 0.21076 0.70477
 C2918 C 0.08905 0.19918 0.71142
 C2919 C 0.09814 0.18915 0.70219
 C2920 C 0.09765 0.19057 0.68613
 C2921 C 0.07011 0.22086 0.71406
 C2922 C 0.06011 0.23236 0.70746
 C2923 C 0.05903 0.23373 0.69132
 C2924 C 0.06825 0.22370 0.68198
 C2925 C 0.04871 0.24509 0.68486
 C2926 C 0.03963 0.25504 0.69430
 C2927 C 0.04086 0.25389 0.71033
 C2928 C 0.05110 0.24246 0.71680
 H2929 H 0.08715 0.20331 0.66701
 H2930 H 0.08979 0.19791 0.72378
 H2931 H 0.10579 0.18047 0.70771
 H2932 H 0.07083 0.21976 0.72645
 H2933 H 0.06753 0.22480 0.66959
 H2934 H 0.04766 0.24628 0.67252
 H2935 H 0.03179 0.26379 0.68910
 H2936 H 0.05189 0.24131 0.72918
 C2937 C 0.40282 0.68888 0.30553
 C2938 C 0.41159 0.69933 0.29622
 C2939 C 0.40848 0.71606 0.29671
 C2940 C 0.39689 0.72207 0.30649
 C2941 C 0.38851 0.71168 0.31588
 C2942 C 0.39137 0.69505 0.31554
 C2943 C 0.41707 0.72659 0.28752
 C2944 C 0.42896 0.72073 0.27799
 C2945 C 0.43234 0.70409 0.27757
 C2946 C 0.42354 0.69345 0.28662
 C2947 C 0.44454 0.69846 0.26817
 C2948 C 0.45323 0.70923 0.25927
 C2949 C 0.44971 0.72574 0.25949
 C2950 C 0.43759 0.73137 0.26895
 H2951 H 0.40515 0.67606 0.30528
 H2952 H 0.39438 0.73484 0.30698
 H2953 H 0.37961 0.71671 0.32334
 H2954 H 0.41459 0.73938 0.28790
 H2955 H 0.42608 0.68067 0.28629
 H2956 H 0.44736 0.68576 0.26771
 H2957 H 0.46253 0.70465 0.25203
 H2958 H 0.43499 0.74414 0.26939
 C2959 C 0.42051 0.19599 0.81431
 C2960 C 0.42958 0.20534 0.80424
 C2961 C 0.42830 0.20323 0.78821
 C2962 C 0.41832 0.19169 0.78251
 C2963 C 0.40969 0.18222 0.79256
 C2964 C 0.41063 0.18429 0.80849
 C2965 C 0.43703 0.21262 0.77807
 C2966 C 0.44733 0.22391 0.78367
 C2967 C 0.44902 0.22584 0.79966
 C2968 C 0.43999 0.21664 0.80988
 C2969 C 0.45977 0.23689 0.80509
 C2970 C 0.46864 0.24599 0.79476
 C2971 C 0.46667 0.24434 0.77889
 C2972 C 0.45605 0.23324 0.77345
 H2973 H 0.42135 0.19756 0.82660
 H2974 H 0.41723 0.18993 0.77027
 H2975 H 0.40201 0.17343 0.78780
 H2976 H 0.43589 0.21107 0.76579
 H2977 H 0.44115 0.21820 0.82215
 H2978 H 0.46131 0.23849 0.81730
 H2979 H 0.47683 0.25451 0.79912
 H2980 H 0.45469 0.23177 0.76119
 C2981 C 0.90906 0.68515 0.81504
 C2982 C 0.91776 0.69655 0.80689
 C2983 C 0.91581 0.71303 0.81022
 C2984 C 0.90560 0.71776 0.82200
 C2985 C 0.89712 0.70631 0.83017
 C2986 C 0.89852 0.68997 0.82656
 C2987 C 0.92396 0.72451 0.80165
 C2988 C 0.93410 0.71972 0.78983
 C2989 C 0.93643 0.70321 0.78681
 C2990 C 0.92820 0.69173 0.79533
 C2991 C 0.94690 0.69848 0.77524
 C2992 C 0.95486 0.70999 0.76663
 C2993 C 0.95226 0.72639 0.76929
 C2994 C 0.94191 0.73119 0.78093
 H2995 H 0.91044 0.67255 0.81233
 H2996 H 0.90400 0.73033 0.82474
 H2997 H 0.88909 0.71034 0.83898
 H2998 H 0.92235 0.73716 0.80412
 H2999 H 0.92984 0.67908 0.79289
 H3000 H 0.94889 0.68588 0.77283
 H3001 H 0.96282 0.70614 0.75767
 H3002 H 0.94004 0.74387 0.78309
 C3003 C 0.91940 0.19959 0.30590
 C3004 C 0.92871 0.20853 0.29569
 C3005 C 0.92697 0.20663 0.27969
 C3006 C 0.91627 0.19570 0.27415
 C3007 C 0.90731 0.18669 0.28432
 C3008 C 0.90872 0.18856 0.30025
 C3009 C 0.93596 0.21565 0.26941
 C3010 C 0.94688 0.22640 0.27487
 C3011 C 0.94898 0.22809 0.29084
 C3012 C 0.93978 0.21923 0.30117
 C3013 C 0.96023 0.23866 0.29614
 C3014 C 0.96918 0.24756 0.28572
 C3015 C 0.96686 0.24618 0.26987
 C3016 C 0.95575 0.23549 0.26455
 H3017 H 0.92063 0.20101 0.31817
 H3018 H 0.91482 0.19410 0.26192
 H3019 H 0.89905 0.17843 0.27967
 H3020 H 0.93447 0.21427 0.25715
 H3021 H 0.94127 0.22061 0.31343
 H3022 H 0.96207 0.24009 0.30833
 H3023 H 0.97767 0.25579 0.29003
 H3024 H 0.95405 0.23424 0.25230
 C3025 C 0.29201 0.32316 0.59893
 C3026 C 0.28128 0.31527 0.58968
 C3027 C 0.28023 0.29836 0.59059
 C3028 C 0.28990 0.28964 0.60057
 C3029 C 0.30061 0.29751 0.60955
 C3030 C 0.30183 0.31430 0.60883
 C3031 C 0.26961 0.29037 0.58148
 C3032 C 0.26009 0.29900 0.57128
 C3033 C 0.26113 0.31587 0.57015
 C3034 C 0.27168 0.32394 0.57945
 C3035 C 0.25167 0.32431 0.55966
 C3036 C 0.24132 0.31607 0.55037
 C3037 C 0.24017 0.29931 0.55158
 C3038 C 0.24964 0.29090 0.56206
 H3039 H 0.29291 0.33610 0.59823
 H3040 H 0.28920 0.27668 0.60141
 H3041 H 0.30782 0.29040 0.61723
 H3042 H 0.26882 0.27741 0.58226
 H3043 H 0.27249 0.33689 0.57864
 H3044 H 0.25231 0.33724 0.55859
 H3045 H 0.23413 0.32279 0.54235
 H3046 H 0.24908 0.27792 0.56283
 C3047 C 0.30938 0.81925 0.07467
 C3048 C 0.29849 0.81231 0.06494
 C3049 C 0.28300 0.81823 0.06487
 C3050 C 0.27882 0.83135 0.07399
 C3051 C 0.28973 0.83824 0.08352
 C3052 C 0.30501 0.83209 0.08420
 C3053 C 0.27182 0.81075 0.05595
 C3054 C 0.27591 0.79742 0.04706
 C3055 C 0.29151 0.79186 0.04657
 C3056 C 0.30272 0.79934 0.05554
 C3057 C 0.29553 0.77869 0.03736
 C3058 C 0.28410 0.77077 0.02916
 C3059 C 0.26852 0.77583 0.03018
 C3060 C 0.26453 0.78931 0.03893
 H3061 H 0.32118 0.81454 0.07497
 H3062 H 0.26703 0.83609 0.07398
 H3063 H 0.28597 0.84803 0.09077
 H3064 H 0.25988 0.81511 0.05616
 H3065 H 0.31462 0.79490 0.05542
 H3066 H 0.30743 0.77431 0.03676
 H3067 H 0.28730 0.76035 0.02244
 H3068 H 0.25248 0.79325 0.03963
 C3069 C 0.80532 0.30191 0.09503
 C3070 C 0.79537 0.29441 0.08467
 C3071 C 0.77911 0.29655 0.08626
 C3072 C 0.77308 0.30636 0.09781
 C3073 C 0.78297 0.31377 0.10798
 C3074 C 0.79918 0.31149 0.10693
 C3075 C 0.76905 0.28870 0.07644
 C3076 C 0.77498 0.27866 0.06499
 C3077 C 0.79120 0.27671 0.06303
 C3078 C 0.80133 0.28462 0.07289
 C3079 C 0.79693 0.26669 0.05135
 C3080 C 0.78667 0.25841 0.04201
 C3081 C 0.77056 0.25994 0.04430
 C3082 C 0.76483 0.27032 0.05564
 H3083 H 0.81775 0.30006 0.09393
 H3084 H 0.76065 0.30820 0.09910
 H3085 H 0.77771 0.32116 0.11675
 H3086 H 0.75659 0.29023 0.07786
 H3087 H 0.81378 0.28300 0.07154
 H3088 H 0.80933 0.26509 0.04959
 H3089 H 0.79131 0.25049 0.03327
 H3090 H 0.75238 0.27178 0.05726
 C3091 C 0.78494 0.81559 0.58674
 C3092 C 0.77470 0.80733 0.57720
 C3093 C 0.77500 0.79035 0.57728
 C3094 C 0.78550 0.78193 0.58663
 C3095 C 0.79558 0.79017 0.59600
 C3096 C 0.79544 0.80705 0.59624
 C3097 C 0.76475 0.78196 0.56808
 C3098 C 0.75416 0.79026 0.55872
 C3099 C 0.75385 0.80721 0.55838
 C3100 C 0.76414 0.81568 0.56766
 C3101 C 0.74322 0.81532 0.54876
 C3102 C 0.73293 0.80669 0.53974
 C3103 C 0.73305 0.78983 0.54028
 C3104 C 0.74383 0.78175 0.54971
 H3105 H 0.78473 0.82858 0.58671
 H3106 H 0.78584 0.76893 0.58680
 H3107 H 0.80328 0.78316 0.60326
 H3108 H 0.76497 0.76894 0.56828
 H3109 H 0.76387 0.82869 0.56750
 H3110 H 0.74282 0.82832 0.54828
 H3111 H 0.72471 0.81315 0.53253
 H3112 H 0.74423 0.76873 0.54995
 C3113 C 0.31952 0.70187 0.41791
 C3114 C 0.30965 0.71008 0.42814
 C3115 C 0.29709 0.70198 0.43509
 C3116 C 0.29479 0.68577 0.43190
 C3117 C 0.30456 0.67773 0.42160
 C3118 C 0.31686 0.68572 0.41427
 C3119 C 0.28684 0.71029 0.44483
 C3120 C 0.28880 0.72667 0.44750
 C3121 C 0.30142 0.73481 0.44066
 C3122 C 0.31188 0.72640 0.43116
 C3123 C 0.30312 0.75130 0.44316
 C3124 C 0.29223 0.75972 0.45210
 C3125 C 0.27967 0.75169 0.45877
 C3126 C 0.27809 0.73517 0.45661
 H3127 H 0.32902 0.70823 0.41257
 H3128 H 0.28520 0.67940 0.43713
 H3129 H 0.30215 0.66534 0.41915
 H3130 H 0.27712 0.70410 0.45005
 H3131 H 0.32151 0.73263 0.42582
 H3132 H 0.31270 0.75772 0.43799
 H3133 H 0.29350 0.77250 0.45372
 H3134 H 0.26826 0.72906 0.46171
 C3135 C 0.32107 0.18801 0.90101
 C3136 C 0.30977 0.19580 0.91014
 C3137 C 0.29400 0.19160 0.90882
 C3138 C 0.28981 0.17950 0.89871
 C3139 C 0.30110 0.17167 0.88989
 C3140 C 0.31679 0.17588 0.89084
 C3141 C 0.28261 0.19951 0.91760
 C3142 C 0.28678 0.21142 0.92792
 C3143 C 0.30256 0.21542 0.92960
 C3144 C 0.31397 0.20768 0.92059
 C3145 C 0.30662 0.22706 0.94032
 C3146 C 0.29514 0.23467 0.94924
 C3147 C 0.27944 0.23096 0.94735
 C3148 C 0.27535 0.21932 0.93668
 H3149 H 0.33315 0.19125 0.90192
 H3150 H 0.27778 0.17613 0.89759
 H3151 H 0.29743 0.16252 0.88204
 H3152 H 0.27051 0.19635 0.91645
 H3153 H 0.32606 0.21083 0.92176
 H3154 H 0.31865 0.23024 0.94184
 H3155 H 0.29848 0.24360 0.95746
 H3156 H 0.26325 0.21625 0.93538
 C3157 C 0.81284 0.68156 0.91671
 C3158 C 0.80341 0.69126 0.92614
 C3159 C 0.78749 0.69341 0.92268
 C3160 C 0.78116 0.68530 0.91026
 C3161 C 0.79062 0.67567 0.90094
 C3162 C 0.80661 0.67402 0.90383
 C3163 C 0.77825 0.70394 0.93141
 C3164 C 0.78475 0.71246 0.94351
 C3165 C 0.80051 0.70985 0.94738
 C3166 C 0.80974 0.69923 0.93869
 C3167 C 0.80687 0.71826 0.95961
 C3168 C 0.79790 0.72964 0.96751
 C3169 C 0.78243 0.73281 0.96331
 C3170 C 0.77583 0.72390 0.95150
 H3171 H 0.82510 0.68015 0.91922
 H3172 H 0.76897 0.68675 0.90750
 H3173 H 0.78548 0.67003 0.89112
 H3174 H 0.76612 0.70583 0.92854
 H3175 H 0.82192 0.69751 0.94143
 H3176 H 0.81889 0.71632 0.96283
 H3177 H 0.80321 0.73642 0.97655
 H3178 H 0.76383 0.72613 0.94834
 C3179 C 0.83243 0.19423 0.40305
 C3180 C 0.82346 0.20285 0.41383
 C3181 C 0.80728 0.20034 0.41482
 C3182 C 0.80042 0.18903 0.40538
 C3183 C 0.80940 0.18046 0.39480
 C3184 C 0.82543 0.18307 0.39336
 C3185 C 0.79814 0.20931 0.42507
 C3186 C 0.80493 0.22075 0.43444
 C3187 C 0.82115 0.22301 0.43386
 C3188 C 0.83033 0.21406 0.42352
 C3189 C 0.82784 0.23434 0.44352
 C3190 C 0.81848 0.24357 0.45338
 C3191 C 0.80231 0.24172 0.45361
 C3192 C 0.79566 0.23012 0.44425
 H3193 H 0.84480 0.19624 0.40218
 H3194 H 0.78804 0.18695 0.40603
 H3195 H 0.80362 0.17211 0.38745
 H3196 H 0.78569 0.20751 0.42562
 H3197 H 0.84275 0.21594 0.42289
 H3198 H 0.84026 0.23618 0.44332
 H3199 H 0.82381 0.25246 0.46052
 H3200 H 0.78319 0.22849 0.44455
 C3201 C 0.70233 0.30313 0.41134
 C3202 C 0.71290 0.29448 0.42061
 C3203 C 0.71617 0.27815 0.41748
 C3204 C 0.70856 0.27065 0.40546
 C3205 C 0.69809 0.27930 0.39632
 C3206 C 0.69500 0.29565 0.39900
 C3207 C 0.72721 0.26965 0.42621
 C3208 C 0.73513 0.27727 0.43799
 C3209 C 0.73160 0.29347 0.44143
 C3210 C 0.72046 0.30197 0.43275
 C3211 C 0.73953 0.30097 0.45331
 C3212 C 0.75119 0.29266 0.46135
 C3213 C 0.75513 0.27673 0.45765
 C3214 C 0.74680 0.26901 0.44615
 H3215 H 0.69993 0.31567 0.41367
 H3216 H 0.71091 0.25813 0.40294
 H3217 H 0.69276 0.27320 0.38688
 H3218 H 0.72986 0.25719 0.42363
 H3219 H 0.71791 0.31446 0.43524
 H3220 H 0.73694 0.31335 0.45616
 H3221 H 0.75749 0.29887 0.47013
 H3222 H 0.74958 0.25663 0.44340
 C3223 C 0.69952 0.81047 0.90786
 C3224 C 0.70935 0.80136 0.91757
 C3225 C 0.71011 0.78447 0.91608
 C3226 C 0.70114 0.77698 0.90503
 C3227 C 0.69134 0.78605 0.89560
 C3228 C 0.69033 0.80282 0.89693
 C3229 C 0.71974 0.77525 0.92568
 C3230 C 0.72860 0.78259 0.93691
 C3231 C 0.72791 0.79943 0.93858
 C3232 C 0.71832 0.80875 0.92884
 C3233 C 0.73680 0.80658 0.95002
 C3234 C 0.74631 0.79712 0.95961
 C3235 C 0.74711 0.78038 0.95789
 C3236 C 0.73809 0.77325 0.94655
 H3237 H 0.69878 0.82339 0.90903
 H3238 H 0.70166 0.76407 0.90372
 H3239 H 0.68464 0.77985 0.88712
 H3240 H 0.72029 0.76231 0.92445
 H3241 H 0.71778 0.82168 0.93008
 H3242 H 0.73642 0.81946 0.95153
 H3243 H 0.75319 0.80290 0.96822
 H3244 H 0.73833 0.76031 0.94533
 C3245 C 0.18609 0.30554 0.90577
 C3246 C 0.19755 0.29793 0.91482
 C3247 C 0.21294 0.30360 0.91434
 C3248 C 0.21653 0.31699 0.90524
 C3249 C 0.20505 0.32461 0.89648
 C3250 C 0.18980 0.31888 0.89650
 C3251 C 0.22456 0.29574 0.92287
 C3252 C 0.22099 0.28239 0.93204
 C3253 C 0.20553 0.27698 0.93298
 C3254 C 0.19391 0.28473 0.92428
 C3255 C 0.20203 0.26385 0.94256
 C3256 C 0.21379 0.25602 0.95093
 C3257 C 0.22921 0.26106 0.94962
 C3258 C 0.23271 0.27431 0.94025
 H3259 H 0.17433 0.30114 0.90598
 H3260 H 0.22825 0.32151 0.90480
 H3261 H 0.20827 0.33475 0.88935
 H3262 H 0.23639 0.29999 0.92231
 H3263 H 0.18208 0.28047 0.92482
 H3264 H 0.19025 0.25958 0.94351
 H3265 H 0.21093 0.24581 0.95815
 H3266 H 0.24461 0.27832 0.93939
 C3267 C 0.18379 0.81667 0.41106
 C3268 C 0.19545 0.81149 0.42122
 C3269 C 0.21009 0.81893 0.42082
 C3270 C 0.21259 0.83184 0.41072
 C3271 C 0.20087 0.83704 0.40077
 C3272 C 0.18650 0.82932 0.40064
 C3273 C 0.22206 0.81319 0.43031
 C3274 C 0.21955 0.80019 0.44030
 C3275 C 0.20473 0.79315 0.44117
 C3276 C 0.19278 0.79881 0.43158
 C3277 C 0.20219 0.78037 0.45146
 C3278 C 0.21432 0.77438 0.46053
 C3279 C 0.22919 0.78092 0.45929
 C3280 C 0.23170 0.79393 0.44928
 H3281 H 0.17266 0.81079 0.41118
 H3282 H 0.22371 0.83775 0.41033
 H3283 H 0.20329 0.84675 0.39282
 H3284 H 0.23338 0.81869 0.42976
 H3285 H 0.18151 0.79321 0.43203
 H3286 H 0.19091 0.77486 0.45231
 H3287 H 0.21224 0.76430 0.46819
 H3288 H 0.24318 0.79904 0.44840
 C3289 C 0.67613 0.68729 0.58343
 C3290 C 0.68391 0.69800 0.57361
 C3291 C 0.70012 0.69991 0.57508
 C3292 C 0.70833 0.69062 0.58589
 C3293 C 0.70051 0.67995 0.59556
 C3294 C 0.68432 0.67844 0.59467
 C3295 C 0.70779 0.71134 0.56600
 C3296 C 0.69947 0.72089 0.55546
 C3297 C 0.68338 0.71856 0.55354
 C3298 C 0.67570 0.70711 0.56262
 C3299 C 0.67518 0.72800 0.54280
 C3300 C 0.68273 0.74002 0.53444
 C3301 C 0.69855 0.74285 0.53676
 C3302 C 0.70693 0.73303 0.54708
 H3303 H 0.66367 0.68605 0.58247
 H3304 H 0.72077 0.69185 0.58709
 H3305 H 0.70710 0.67334 0.60413
 H3306 H 0.72016 0.71304 0.56738
 H3307 H 0.66330 0.70555 0.56136
 H3308 H 0.66287 0.72631 0.54109
 H3309 H 0.67608 0.74751 0.52656
 H3310 H 0.71920 0.73504 0.54876
 C3311 C 0.68456 0.18307 0.09175
 C3312 C 0.69550 0.19034 0.08196
 C3313 C 0.71144 0.18628 0.08343
 C3314 C 0.71611 0.17467 0.09426
 C3315 C 0.70515 0.16729 0.10373
 C3316 C 0.68934 0.17156 0.10272
 C3317 C 0.72248 0.19396 0.07417
 C3318 C 0.71780 0.20553 0.06330
 C3319 C 0.70184 0.20922 0.06139
 C3320 C 0.69079 0.20167 0.07081
 C3321 C 0.69726 0.22055 0.05020
 C3322 C 0.70841 0.22838 0.04122
 C3323 C 0.72428 0.22521 0.04350
 C3324 C 0.72889 0.21363 0.05443
 H3325 H 0.67237 0.18631 0.09080
 H3326 H 0.72827 0.17139 0.09551
 H3327 H 0.70914 0.15855 0.11215
 H3328 H 0.73472 0.19102 0.07550
 H3329 H 0.67856 0.20467 0.06953
 H3330 H 0.68509 0.22348 0.04852
 H3331 H 0.70468 0.23727 0.03281
 H3332 H 0.74115 0.21102 0.05606
 C3333 C 0.19355 0.69518 0.08962
 C3334 C 0.20253 0.70405 0.07909
 C3335 C 0.21886 0.70418 0.08066
 C3336 C 0.22594 0.69539 0.09251
 C3337 C 0.21698 0.68665 0.10289
 C3338 C 0.20070 0.68648 0.10167
 C3339 C 0.22790 0.71318 0.07044
 C3340 C 0.22088 0.72213 0.05865
 C3341 C 0.20459 0.72196 0.05686
 C3342 C 0.19549 0.71289 0.06711
 C3343 C 0.19775 0.73092 0.04488
 C3344 C 0.20696 0.74006 0.03489
 C3345 C 0.22314 0.74044 0.03679
 C3346 C 0.22998 0.73131 0.04863
 H3347 H 0.18105 0.69511 0.08840
 H3348 H 0.23844 0.69536 0.09383
 H3349 H 0.22291 0.68026 0.11202
 H3350 H 0.24042 0.71331 0.07175
 H3351 H 0.18298 0.71278 0.06582
 H3352 H 0.18528 0.73092 0.04329
 H3353 H 0.20143 0.74702 0.02583
 H3354 H 0.24249 0.73125 0.04998
 C3355 C 0.17658 0.19821 0.58983
 C3356 C 0.18526 0.20910 0.58099
 C3357 C 0.20139 0.21037 0.58351
 C3358 C 0.20865 0.20037 0.59441
 C3359 C 0.19996 0.18951 0.60306
 C3360 C 0.18383 0.18851 0.60106
 C3361 C 0.20998 0.22179 0.57532
 C3362 C 0.20266 0.23194 0.56457
 C3363 C 0.18664 0.23031 0.56161
 C3364 C 0.17803 0.21891 0.56986
 C3365 C 0.17948 0.24031 0.55060
 C3366 C 0.18801 0.25209 0.54291
 C3367 C 0.20376 0.25416 0.54622
 C3368 C 0.21108 0.24389 0.55691
 H3369 H 0.16418 0.19741 0.58806
 H3370 H 0.22101 0.20113 0.59643
 H3371 H 0.20585 0.18228 0.61168
 H3372 H 0.22230 0.22294 0.57747
 H3373 H 0.16569 0.21784 0.56780
 H3374 H 0.16725 0.23917 0.54811
 H3375 H 0.18220 0.25992 0.53469
 H3376 H 0.22330 0.24533 0.55934
   
