data_POSCAR
  _audit_creation_date              2014-09-24
  _audit_creation_method            'ToBaCCo'
  _symmetry_space_group_name_H-M    'P1'
  _symmetry_Int_Tables_number       1
  _symmetry_cell_setting            triclinic
  loop_
  _symmetry_equiv_pos_as_xyz
 x,y,z
_cell_length_a 56.5707
_cell_length_b 56.5789
_cell_length_c 56.5766
_cell_angle_alpha 89.909700
_cell_angle_beta 90.094800
_cell_angle_gamma 89.878500
loop_
  _atom_site_label
  _atom_site_type_symbol
  _atom_site_fract_x
  _atom_site_fract_y
  _atom_site_fract_z
C1 C 0.24984 0.99462 -0.01989
 C2 C 0.25219 0.99427 0.00402
 C3 C 0.25307 0.97206 0.01791
 C4 C 0.25342 1.01627 0.01820
 C5 C 0.24889 1.01721 -0.03325
 C6 C 0.24837 0.97260 -0.03405
 C7 C 0.23352 0.95687 0.01904
 C8 C 0.23308 0.93842 0.03557
 C9 C 0.25215 0.93500 0.05124
 C10 C 0.27214 0.94954 0.04912
 C11 C 0.27253 0.96794 0.03273
 C12 C 0.23654 1.02017 0.03574
 C13 C 0.23832 1.03952 0.05082
 C14 C 0.25741 1.05568 0.04917
 C15 C 0.27394 1.05180 0.03066
 C16 C 0.27201 1.03231 0.01557
 C17 C 0.26575 1.02162 -0.05083
 C18 C 0.26534 1.04281 -0.06350
 C19 C 0.24793 1.05997 -0.05896
 C20 C 0.23080 1.05535 -0.04157
 C21 C 0.23124 1.03412 -0.02886
 C22 C 0.26630 0.95542 -0.03319
 C23 C 0.26518 0.93548 -0.04776
 C24 C 0.24615 0.93243 -0.06351
 C25 C 0.22820 0.94964 -0.06419
 C26 C 0.22936 0.96953 -0.04969
 H27 H 0.21818 0.96005 0.00800
 H28 H 0.21737 0.92760 0.03689
 H29 H 0.28729 0.94705 0.06059
 H30 H 0.28773 0.97953 0.03213
 H31 H 0.22185 1.00809 0.03780
 H32 H 0.22395 1.04186 0.06313
 H33 H 0.28548 1.02931 0.00232
 H34 H 0.27937 1.00869 -0.05461
 H35 H 0.27849 1.04563 -0.07710
 H36 H 0.21722 1.06826 -0.03761
 H37 H 0.21785 1.03087 -0.01560
 H38 H 0.28135 0.95765 -0.02156
 H39 H 0.27920 0.92247 -0.04674
 H40 H 0.21353 0.94804 -0.07640
 H41 H 0.21547 0.98270 -0.05078
 H42 H 0.28947 1.06262 0.02845
 C43 C 0.75085 0.49352 0.47950
 C44 C 0.75106 0.49350 0.50349
 C45 C 0.74911 0.47158 0.51771
 C46 C 0.75363 0.51553 0.51738
 C47 C 0.75201 0.51585 0.46571
 C48 C 0.74905 0.47143 0.46553
 C49 C 0.73063 0.46966 0.53407
 C50 C 0.73042 0.45134 0.55055
 C51 C 0.74886 0.43468 0.55122
 C52 C 0.76681 0.43595 0.53406
 C53 C 0.76696 0.45434 0.51743
 C54 C 0.73645 0.53344 0.51653
 C55 C 0.73830 0.55311 0.53138
 C56 C 0.75726 0.55502 0.54740
 C57 C 0.77467 0.53728 0.54771
 C58 C 0.77280 0.51770 0.53293
 C59 C 0.77125 0.53136 0.46780
 C60 C 0.77202 0.55211 0.45432
 C61 C 0.75371 0.55753 0.43834
 C62 C 0.73455 0.54188 0.43630
 C63 C 0.73377 0.52123 0.44978
 C64 C 0.76615 0.46672 0.44826
 C65 C 0.76383 0.44728 0.43333
 C66 C 0.74422 0.43220 0.43522
 C67 C 0.72732 0.43661 0.45290
 C68 C 0.72966 0.45615 0.46788
 H69 H 0.71674 0.48286 0.53455
 H70 H 0.71609 0.45056 0.56320
 H71 H 0.78133 0.42346 0.53423
 H72 H 0.78156 0.45578 0.50516
 H73 H 0.72134 0.53186 0.50487
 H74 H 0.72450 0.56640 0.53093
 H75 H 0.78621 0.50403 0.53380
 H76 H 0.78572 0.52728 0.47968
 H77 H 0.78716 0.56366 0.45603
 H78 H 0.72002 0.54570 0.42440
 H79 H 0.71880 0.50947 0.44791
 H80 H 0.78120 0.47834 0.44615
 H81 H 0.77735 0.44413 0.42017
 H82 H 0.71189 0.42545 0.45461
 H83 H 0.71601 0.45975 0.48079
 H84 H 0.78968 0.53845 0.55955
 C85 C 0.74930 0.97974 0.99332
 C86 C 0.74937 1.00373 0.99335
 C87 C 0.75074 1.01789 0.97134
 C88 C 0.74783 1.01765 1.01549
 C89 C 0.74837 0.96586 1.01559
 C90 C 0.75054 0.96580 0.97115
 C91 C 0.76908 1.03432 0.96888
 C92 C 0.76895 1.05047 0.95027
 C93 C 0.75031 1.05071 0.93383
 C94 C 0.73243 1.03353 0.93570
 C95 C 0.73261 1.01726 0.95438
 C96 C 0.76546 1.01625 1.03293
 C97 C 0.76475 1.03130 1.05254
 C98 C 0.74651 1.04809 1.05486
 C99 C 0.72861 1.04894 1.03763
 C100 C 0.72933 1.03395 1.01812
 C101 C 0.72950 0.96811 1.03144
 C102 C 0.72863 0.95419 1.05189
 C103 C 0.74652 0.93736 1.05688
 C104 C 0.76547 0.93550 1.04070
 C105 C 0.76627 0.94945 1.02039
 C106 C 0.73317 0.94873 0.96670
 C107 C 0.73505 0.93375 0.94724
 C108 C 0.75448 0.93538 0.93188
 C109 C 0.77163 0.95288 0.93603
 C110 C 0.76972 0.96791 0.95557
 H111 H 0.78319 1.03506 0.98183
 H112 H 0.78320 1.06315 0.94903
 H113 H 0.71776 1.03340 0.92338
 H114 H 0.71811 1.00493 0.95623
 H115 H 0.78008 1.00403 1.03099
 H116 H 0.77889 1.03040 1.06543
 H117 H 0.71558 1.03528 1.00483
 H118 H 0.71520 0.98034 1.02775
 H119 H 0.71323 0.95601 1.06301
 H120 H 0.78033 0.92388 1.04388
 H121 H 0.78108 0.94757 1.00841
 H122 H 0.71826 0.94681 0.97854
 H123 H 0.72135 0.92074 0.94431
 H124 H 0.78692 0.95439 0.92465
 H125 H 0.78357 0.98066 0.95897
 H126 H 0.71411 1.06137 1.03914
 C127 C 0.24815 0.48011 0.49340
 C128 C 0.24845 0.50412 0.49337
 C129 C 0.24705 0.51813 0.51548
 C130 C 0.24988 0.51818 0.47130
 C131 C 0.24932 0.46609 0.47127
 C132 C 0.24697 0.46630 0.51570
 C133 C 0.22879 0.53471 0.51803
 C134 C 0.22817 0.54969 0.53755
 C135 C 0.24595 0.54855 0.55489
 C136 C 0.26397 0.53152 0.55264
 C137 C 0.26457 0.51648 0.53301
 C138 C 0.23175 0.51754 0.45435
 C139 C 0.23164 0.53371 0.43558
 C140 C 0.24959 0.55079 0.43361
 C141 C 0.26823 0.55057 0.45005
 C142 C 0.26829 0.53452 0.46875
 C143 C 0.26856 0.46797 0.45574
 C144 C 0.27042 0.45282 0.43627
 C145 C 0.25316 0.43541 0.43217
 C146 C 0.23366 0.43403 0.44746
 C147 C 0.23183 0.44913 0.46684
 C148 C 0.26462 0.44954 0.52054
 C149 C 0.26349 0.43564 0.54087
 C150 C 0.24458 0.43810 0.55677
 C151 C 0.22695 0.45502 0.55199
 C152 C 0.22806 0.46892 0.53154
 H153 H 0.21512 0.53624 0.50467
 H154 H 0.21384 0.56232 0.53899
 H155 H 0.27802 0.53039 0.56561
 H156 H 0.27903 0.50404 0.53115
 H157 H 0.21719 0.50529 0.45627
 H158 H 0.21696 0.53357 0.42327
 H159 H 0.28240 0.53526 0.48170
 H160 H 0.28250 0.48063 0.45911
 H161 H 0.28577 0.45414 0.42495
 H162 H 0.21987 0.42111 0.44456
 H163 H 0.21688 0.44738 0.47864
 H164 H 0.27932 0.44725 0.50851
 H165 H 0.27752 0.42302 0.54423
 H166 H 0.21202 0.45709 0.56376
 H167 H 0.21402 0.48145 0.52788
 H168 H 0.28254 0.56318 0.44874
 C169 C 0.99393 0.24994 0.02134
 C170 C 0.99344 0.25213 -0.00256
 C171 C 0.97113 0.25325 -0.01627
 C172 C 1.01533 0.25315 -0.01688
 C173 C 1.01651 0.24998 0.03478
 C174 C 0.97205 0.24775 0.03561
 C175 C 0.95610 0.23370 -0.01799
 C176 C 0.93744 0.23372 -0.03430
 C177 C 0.93351 0.25329 -0.04950
 C178 C 0.94806 0.27335 -0.04639
 C179 C 0.96665 0.27319 -0.03020
 C180 C 1.01916 0.23587 -0.03410
 C181 C 1.03852 0.23729 -0.04920
 C182 C 1.05465 0.25629 -0.04776
 C183 C 1.05091 0.27331 -0.02980
 C184 C 1.03141 0.27180 -0.01468
 C185 C 1.02011 0.26716 0.05215
 C186 C 1.04089 0.26741 0.06545
 C187 C 1.05877 0.25026 0.06195
 C188 C 1.05490 0.23303 0.04422
 C189 C 1.03399 0.23285 0.03096
 C190 C 0.95463 0.26546 0.03549
 C191 C 0.93524 0.26395 0.05077
 C192 C 0.93307 0.24480 0.06654
 C193 C 0.95033 0.22690 0.06618
 C194 C 0.96964 0.22843 0.05096
 H195 H 0.95956 0.21798 -0.00759
 H196 H 0.92735 0.21761 -0.03595
 H197 H 0.94521 0.28947 -0.05626
 H198 H 0.97800 0.28854 -0.02893
 H199 H 1.00701 0.22120 -0.03589
 H200 H 1.04094 0.22295 -0.06157
 H201 H 1.02848 0.28555 -0.00170
 H202 H 1.00685 0.28065 0.05524
 H203 H 1.04302 0.28176 0.07785
 H204 H 1.06737 0.21888 0.04114
 H205 H 1.03129 0.21909 0.01794
 H206 H 0.95642 0.28076 0.02412
 H207 H 0.92238 0.27815 0.05083
 H208 H 0.94898 0.21174 0.07779
 H209 H 0.98292 0.21461 0.05133
 H210 H 1.06214 0.28865 -0.02808
 C211 C 0.49347 0.75167 0.49473
 C212 C 0.49374 0.74923 0.51860
 C213 C 0.51615 0.74930 0.53225
 C214 C 0.47177 0.74675 0.53266
 C215 C 0.47125 0.75256 0.48086
 C216 C 0.51550 0.75310 0.48062
 C217 C 0.53382 0.73227 0.52839
 C218 C 0.55451 0.73243 0.54197
 C219 C 0.55773 0.74945 0.55979
 C220 C 0.53997 0.76644 0.56352
 C221 C 0.51938 0.76630 0.54995
 C222 C 0.46935 0.72722 0.54773
 C223 C 0.45009 0.72553 0.56298
 C224 C 0.43291 0.74349 0.56367
 C225 C 0.43503 0.76281 0.54811
 C226 C 0.45437 0.76447 0.53278
 C227 C 0.46689 0.77230 0.46650
 C228 C 0.44826 0.77219 0.45035
 C229 C 0.43375 0.75221 0.44804
 C230 C 0.43747 0.73281 0.46322
 C231 C 0.45616 0.73296 0.47950
 C232 C 0.53163 0.77169 0.48356
 C233 C 0.55136 0.77349 0.46875
 C234 C 0.55506 0.75685 0.45065
 C235 C 0.53906 0.73806 0.44814
 C236 C 0.51946 0.73627 0.46290
 H237 H 0.53144 0.71875 0.51508
 H238 H 0.56775 0.71893 0.53891
 H239 H 0.54207 0.77997 0.57687
 H240 H 0.50593 0.77955 0.55318
 H241 H 0.48263 0.71339 0.54791
 H242 H 0.44876 0.71024 0.57443
 H243 H 0.45616 0.77992 0.52160
 H244 H 0.47841 0.78755 0.46730
 H245 H 0.44555 0.78758 0.43926
 H246 H 0.42669 0.71710 0.46172
 H247 H 0.45952 0.71743 0.49020
 H248 H 0.52864 0.78505 0.49691
 H249 H 0.56328 0.78826 0.47095
 H250 H 0.54166 0.72476 0.43464
 H251 H 0.50720 0.72181 0.46038
 H252 H 0.42222 0.77705 0.54841
 C253 C 0.00376 0.74905 0.00517
 C254 C -0.02016 0.75093 0.00482
 C255 C -0.03437 0.75286 0.02676
 C256 C -0.03368 0.75090 -0.01767
 C257 C 0.01798 0.74785 -0.01680
 C258 C 0.01757 0.74858 0.02743
 C259 C -0.03392 0.73515 0.04409
 C260 C -0.04916 0.73630 0.06353
 C261 C -0.06551 0.75513 0.06602
 C262 C -0.06517 0.77314 0.04865
 C263 C -0.04995 0.77190 0.02933
 C264 C -0.05103 0.73370 -0.02125
 C265 C -0.06459 0.73366 -0.04184
 C266 C -0.06138 0.75105 -0.05953
 C267 C -0.04361 0.76823 -0.05573
 C268 C -0.03008 0.76821 -0.03501
 C269 C 0.03524 0.76503 -0.02082
 C270 C 0.05035 0.76335 -0.04016
 C271 C 0.04888 0.74415 -0.05607
 C272 C 0.03084 0.72726 -0.05218
 C273 C 0.01571 0.72904 -0.03270
 C274 C 0.01829 0.76823 0.04252
 C275 C 0.03451 0.76890 0.06124
 C276 C 0.05028 0.74998 0.06499
 C277 C 0.04862 0.72991 0.05049
 C278 C 0.03252 0.72929 0.03184
 H279 H -0.02235 0.72000 0.04214
 H280 H -0.04887 0.72156 0.07570
 H281 H -0.07622 0.78868 0.05001
 H282 H -0.05043 0.78585 0.01620
 H283 H -0.05394 0.72009 -0.00809
 H284 H -0.07701 0.71933 -0.04399
 H285 H -0.01709 0.78198 -0.03230
 H286 H 0.03710 0.77982 -0.00881
 H287 H 0.06278 0.77760 -0.04272
 H288 H 0.02907 0.71180 -0.06324
 H289 H 0.00271 0.71536 -0.02962
 H290 H 0.00712 0.78343 0.03912
 H291 H 0.03550 0.78465 0.07203
 H292 H 0.06018 0.71488 0.05324
 H293 H 0.03222 0.71401 0.02033
 H294 H -0.04073 0.78254 -0.06808
 C295 C 0.50414 0.24794 0.50756
 C296 C 0.48026 0.25053 0.50748
 C297 C 0.46647 0.25110 0.48511
 C298 C 0.46634 0.25253 0.52961
 C299 C 0.51828 0.24748 0.52965
 C300 C 0.51799 0.24594 0.48538
 C301 C 0.47076 0.26821 0.46763
 C302 C 0.45706 0.26875 0.44701
 C303 C 0.43868 0.25237 0.44367
 C304 C 0.43450 0.23531 0.46124
 C305 C 0.44819 0.23475 0.48177
 C306 C 0.45083 0.27169 0.53239
 C307 C 0.43561 0.27275 0.55173
 C308 C 0.43540 0.25453 0.56864
 C309 C 0.45142 0.23563 0.56620
 C310 C 0.46671 0.23459 0.54678
 C311 C 0.53324 0.22816 0.53394
 C312 C 0.54976 0.22888 0.55223
 C313 C 0.55187 0.24909 0.56649
 C314 C 0.53608 0.26803 0.56290
 C315 C 0.51944 0.26726 0.54455
 C316 C 0.51435 0.22728 0.46945
 C317 C 0.52895 0.22480 0.44964
 C318 C 0.54755 0.24078 0.44566
 C319 C 0.55077 0.25965 0.46143
 C320 C 0.53621 0.26214 0.48111
 H321 H 0.48449 0.28128 0.47009
 H322 H 0.46049 0.28230 0.43393
 H323 H 0.42071 0.22225 0.45905
 H324 H 0.44459 0.22144 0.49507
 H325 H 0.45026 0.28568 0.51930
 H326 H 0.42380 0.28775 0.55331
 H327 H 0.47821 0.21941 0.54472
 H328 H 0.53263 0.21278 0.52258
 H329 H 0.56131 0.21382 0.55486
 H330 H 0.53739 0.28390 0.57349
 H331 H 0.50831 0.28251 0.54124
 H332 H 0.50062 0.21437 0.47267
 H333 H 0.52620 0.20997 0.43789
 H334 H 0.56468 0.27247 0.45861
 H335 H 0.53928 0.27664 0.49320
 H336 H 0.45149 0.22121 0.57880
 C337 C 1.00606 0.02043 0.25147
 C338 C 1.00594 -0.00356 0.25143
 C339 C 0.98384 -0.01740 0.25373
 C340 C 1.02782 -0.01783 0.24934
 C341 C 1.02829 0.03426 0.25021
 C342 C 0.98383 0.03440 0.25248
 C343 C 0.98148 -0.03303 0.27274
 C344 C 0.96197 -0.04792 0.27434
 C345 C 0.94422 -0.04791 0.25670
 C346 C 0.94648 -0.03145 0.23794
 C347 C 0.96612 -0.01650 0.23645
 C348 C 1.04501 -0.01790 0.26717
 C349 C 1.06361 -0.03427 0.26659
 C350 C 1.06531 -0.05118 0.24821
 C351 C 1.04846 -0.04987 0.22976
 C352 C 1.02996 -0.03360 0.23047
 C353 C 1.04379 0.03219 0.23096
 C354 C 1.06356 0.04695 0.22924
 C355 C 1.06800 0.06414 0.24664
 C356 C 1.05266 0.06576 0.26609
 C357 C 1.03299 0.05105 0.26778
 C358 C 0.97894 0.05069 0.23442
 C359 C 0.95855 0.06456 0.23518
 C360 C 0.94265 0.06256 0.25414
 C361 C 0.94753 0.04616 0.27224
 C362 C 0.96803 0.03229 0.27148
 H363 H 0.99492 -0.03378 0.28639
 H364 H 0.96080 -0.05903 0.28984
 H365 H 0.93396 -0.03087 0.22351
 H366 H 0.96788 -0.00478 0.22140
 H367 H 1.04339 -0.00605 0.28210
 H368 H 1.07553 -0.03450 0.28153
 H369 H 1.01692 -0.03362 0.21642
 H370 H 1.04022 0.01966 0.21696
 H371 H 1.07491 0.04547 0.21392
 H372 H 1.05581 0.07852 0.27998
 H373 H 1.02121 0.05293 0.28274
 H374 H 0.99094 0.05259 0.21963
 H375 H 0.95513 0.07677 0.22081
 H376 H 0.93577 0.04446 0.28722
 H377 H 0.97173 0.02014 0.28583
 H378 H 1.04945 -0.06120 0.21443
 C379 C 0.50691 0.49505 0.75115
 C380 C 0.50687 0.51904 0.75131
 C381 C 0.48456 0.53286 0.75216
 C382 C 0.52899 0.53304 0.75029
 C383 C 0.52894 0.48098 0.74932
 C384 C 0.48486 0.48106 0.75309
 C385 C 0.47976 0.54918 0.73410
 C386 C 0.45936 0.56303 0.73479
 C387 C 0.44338 0.56097 0.75367
 C388 C 0.44814 0.54451 0.77174
 C389 C 0.46865 0.53065 0.77105
 C390 C 0.54456 0.53131 0.73107
 C391 C 0.56408 0.54642 0.72945
 C392 C 0.56818 0.56362 0.74693
 C393 C 0.55282 0.56484 0.76639
 C394 C 0.53340 0.54979 0.76798
 C395 C 0.54611 0.48137 0.76725
 C396 C 0.56491 0.46523 0.76688
 C397 C 0.56668 0.44841 0.74864
 C398 C 0.54999 0.44887 0.73023
 C399 C 0.53126 0.46490 0.73065
 C400 C 0.48252 0.46497 0.77180
 C401 C 0.46296 0.45010 0.77307
 C402 C 0.44538 0.45085 0.75550
 C403 C 0.44746 0.46738 0.73701
 C404 C 0.46712 0.48232 0.73575
 H405 H 0.49184 0.55114 0.71940
 H406 H 0.45602 0.57528 0.72045
 H407 H 0.43630 0.54276 0.78665
 H408 H 0.47229 0.51846 0.78539
 H409 H 0.54120 0.51881 0.71700
 H410 H 0.57545 0.54523 0.71413
 H411 H 0.52155 0.55141 0.78292
 H412 H 0.54437 0.49343 0.78199
 H413 H 0.57741 0.46518 0.78139
 H414 H 0.55113 0.43648 0.71571
 H415 H 0.51813 0.46434 0.71670
 H416 H 0.49605 0.46377 0.78533
 H417 H 0.46166 0.43786 0.78774
 H418 H 0.43431 0.46819 0.72310
 H419 H 0.46883 0.49438 0.72098
 H420 H 0.55572 0.57760 0.78034
 C421 C 1.02063 1.00570 0.74998
 C422 C 0.99663 1.00570 0.74965
 C423 C 0.98273 0.98364 0.74736
 C424 C 0.98244 1.02765 0.75138
 C425 C 1.03453 1.02783 0.75188
 C426 C 1.03446 0.98341 0.74888
 C427 C 0.96696 0.98135 0.72837
 C428 C 0.95193 0.96193 0.72695
 C429 C 0.95220 0.94447 0.74463
 C430 C 0.96848 0.94644 0.76336
 C431 C 0.98358 0.96596 0.76476
 C432 C 0.98280 1.04473 0.73346
 C433 C 0.96637 1.06328 0.73350
 C434 C 0.94898 1.06502 0.75142
 C435 C 0.94989 1.04833 0.77003
 C436 C 0.96622 1.02988 0.76986
 C437 C 1.03196 1.04313 0.77124
 C438 C 1.04680 1.06276 0.77366
 C439 C 1.06457 1.06725 0.75688
 C440 C 1.06672 1.05213 0.73732
 C441 C 1.05192 1.03259 0.73492
 C442 C 1.05041 0.97814 0.76705
 C443 C 1.06407 0.95761 0.76629
 C444 C 1.06236 0.94169 0.74711
 C445 C 1.04607 0.94722 0.72889
 C446 C 1.03245 0.96787 0.72972
 H447 H 0.96607 0.99485 0.71479
 H448 H 0.93990 0.96069 0.71210
 H449 H 0.96892 0.93337 0.77735
 H450 H 0.99540 0.96764 0.77974
 H451 H 0.99501 1.04303 0.71883
 H452 H 0.96647 1.07510 0.71848
 H453 H 0.96587 1.01693 0.78398
 H454 H 1.01898 1.03948 0.78479
 H455 H 1.04490 1.07395 0.78905
 H456 H 1.07996 1.05533 0.72390
 H457 H 1.05421 1.02097 0.71989
 H458 H 1.05210 0.98986 0.78208
 H459 H 1.07529 0.95405 0.78137
 H460 H 1.04443 0.93633 0.71330
 H461 H 1.02059 0.97193 0.71522
 H462 H 0.93817 1.04940 0.78506
 C463 C 0.51978 0.50674 0.24874
 C464 C 0.49577 0.50703 0.24891
 C465 C 0.48159 0.48507 0.24714
 C466 C 0.48181 0.52917 0.25048
 C467 C 0.53401 0.52869 0.25051
 C468 C 0.53331 0.48426 0.24722
 C469 C 0.46523 0.48281 0.22866
 C470 C 0.45016 0.46339 0.22767
 C471 C 0.45099 0.44588 0.24529
 C472 C 0.46779 0.44786 0.26355
 C473 C 0.48292 0.46739 0.26453
 C474 C 0.48227 0.54604 0.23228
 C475 C 0.46575 0.56453 0.23197
 C476 C 0.44850 0.56628 0.24980
 C477 C 0.44902 0.55004 0.26861
 C478 C 0.46541 0.53162 0.26886
 C479 C 0.53181 0.54402 0.26988
 C480 C 0.54707 0.56333 0.27231
 C481 C 0.56491 0.56748 0.25550
 C482 C 0.56665 0.55236 0.23589
 C483 C 0.55143 0.53315 0.23348
 C484 C 0.54982 0.47877 0.26492
 C485 C 0.56311 0.45801 0.26372
 C486 C 0.56030 0.44234 0.24467
 C487 C 0.54373 0.44785 0.22691
 C488 C 0.53045 0.46871 0.22810
 H489 H 0.46395 0.49630 0.21510
 H490 H 0.43770 0.46215 0.21318
 H491 H 0.46867 0.43476 0.27749
 H492 H 0.49519 0.46904 0.27914
 H493 H 0.49457 0.54419 0.21775
 H494 H 0.46569 0.57669 0.21718
 H495 H 0.46478 0.51872 0.28302
 H496 H 0.51881 0.54061 0.28349
 H497 H 0.54547 0.57451 0.28774
 H498 H 0.57992 0.55531 0.22244
 H499 H 0.55344 0.52150 0.21844
 H500 H 0.55230 0.49055 0.27979
 H501 H 0.57547 0.45412 0.27783
 H502 H 0.54142 0.43628 0.21186
 H503 H 0.51813 0.47286 0.21402
 H504 H 0.43631 0.55121 0.28285
 O505 O 0.26688 0.18850 0.20229
 O506 O 0.29337 0.18231 0.23591
 O507 O 0.20470 0.21579 0.23591
 O508 O 0.19506 0.24641 0.25893
 O509 O 0.23345 0.24996 0.17373
 O510 O 0.26603 0.27638 0.16797
 O511 O 0.26491 0.28146 0.29712
 O512 O 0.23766 0.24978 0.30278
 O513 O 0.32620 0.25066 0.26912
 O514 O 0.33367 0.22370 0.23892
 O515 O 0.29732 0.31060 0.23765
 O516 O 0.26377 0.31787 0.21016
 O517 O 0.26493 0.31012 0.26885
 O518 O 0.23838 0.31736 0.23489
 O519 O 0.32612 0.28243 0.23773
 O520 O 0.33331 0.24885 0.20985
 O521 O 0.29739 0.25050 0.29718
 O522 O 0.26562 0.22278 0.30417
 O523 O 0.26716 0.21725 0.17406
 O524 O 0.29276 0.25055 0.16824
 O525 O 0.20468 0.24903 0.20184
 O526 O 0.19838 0.27636 0.23484
 O527 O 0.23339 0.18741 0.23481
 O528 O 0.26425 0.18215 0.26278
 Zr529 Zr 0.26501 0.20691 0.23464
 O530 O 0.28662 0.22730 0.25702
 Zr531 Zr 0.22304 0.24815 0.23422
 O532 O 0.24274 0.27013 0.25696
 Zr533 Zr 0.26516 0.24892 0.19334
 O534 O 0.28665 0.27106 0.21412
 Zr535 Zr 0.26557 0.24963 0.27795
 O536 O 0.24369 0.22740 0.25731
 Zr537 Zr 0.30751 0.25035 0.23694
 O538 O 0.28796 0.22795 0.21419
 Zr539 Zr 0.26542 0.29149 0.23670
 O540 O 0.24369 0.27136 0.21379
 O541 O 0.24320 0.22661 0.21247
 O542 O 0.28758 0.27216 0.25896
 C543 C 0.26776 0.19558 0.18073
 C544 C 0.21172 0.19416 0.23584
 C545 C 0.21172 0.24996 0.18030
 C546 C 0.26478 0.30314 0.29043
 C547 C 0.31910 0.25080 0.29066
 C548 C 0.31903 0.30397 0.23804
 H549 H 0.29673 0.21666 0.26656
 H550 H 0.29640 0.28104 0.20363
 H551 H 0.23334 0.21646 0.20219
 H552 H 0.23188 0.27957 0.26685
 H553 H 0.22609 0.23778 0.29747
 H554 H 0.20004 0.25536 0.27308
 H555 H 0.33082 0.26253 0.19923
 H556 H 0.30521 0.23953 0.17378
 H557 H 0.27769 0.21089 0.29988
 H558 H 0.25262 0.18798 0.27446
 H559 H 0.27676 0.31490 0.19887
 H560 H 0.25497 0.28873 0.17358
 H561 H 0.28740 0.16649 0.23127
 H562 H 0.32726 0.20986 0.23040
 H563 H 0.20328 0.28774 0.22249
 H564 H 0.22664 0.31365 0.24728
 O565 O 0.74807 0.82451 0.22976
 O566 O 0.72240 0.83099 0.26376
 O567 O 0.81109 0.79764 0.26230
 O568 O 0.82100 0.76764 0.28632
 O569 O 0.78126 0.76223 0.20171
 O570 O 0.74836 0.73628 0.19658
 O571 O 0.75216 0.73263 0.32599
 O572 O 0.77948 0.76437 0.33060
 O573 O 0.69040 0.76318 0.29839
 O574 O 0.68211 0.78947 0.26785
 O575 O 0.71858 0.70268 0.26691
 O576 O 0.75191 0.69517 0.23950
 O577 O 0.75149 0.70372 0.29807
 O578 O 0.77742 0.69592 0.26397
 O579 O 0.68976 0.73080 0.26708
 O580 O 0.68199 0.76418 0.23925
 O581 O 0.71963 0.76389 0.32609
 O582 O 0.75148 0.79136 0.33208
 O583 O 0.74755 0.79541 0.20200
 O584 O 0.72186 0.76207 0.19694
 O585 O 0.81061 0.76346 0.22929
 O586 O 0.81756 0.73713 0.26273
 O587 O 0.78229 0.82592 0.26136
 O588 O 0.75217 0.83143 0.29008
 Zr589 Zr 0.75075 0.80639 0.26228
 O590 O 0.72960 0.78624 0.28528
 Zr591 Zr 0.79276 0.76522 0.26187
 O592 O 0.77349 0.74348 0.28522
 Zr593 Zr 0.74987 0.76391 0.22166
 O594 O 0.72882 0.74200 0.24306
 Zr595 Zr 0.75104 0.76420 0.30628
 O596 O 0.77251 0.78622 0.28495
 Zr597 Zr 0.70836 0.76292 0.26590
 O598 O 0.72743 0.78509 0.24252
 Zr599 Zr 0.75045 0.72187 0.26564
 O600 O 0.77173 0.74174 0.24213
 O601 O 0.77218 0.78645 0.24005
 O602 O 0.72865 0.74138 0.28800
 C603 C 0.74685 0.81716 0.20833
 C604 C 0.80399 0.81925 0.26192
 C605 C 0.80311 0.76204 0.20792
 C606 C 0.75216 0.71089 0.31955
 C607 C 0.69783 0.76358 0.31983
 C608 C 0.69686 0.70926 0.26728
 H609 H 0.71967 0.79701 0.29479
 H610 H 0.71892 0.73190 0.23282
 H611 H 0.78182 0.79637 0.22936
 H612 H 0.78455 0.73416 0.29508
 H613 H 0.79086 0.77641 0.32498
 H614 H 0.81647 0.75849 0.30051
 H615 H 0.68454 0.75065 0.22850
 H616 H 0.70953 0.77319 0.20249
 H617 H 0.73971 0.80347 0.32748
 H618 H 0.76432 0.82590 0.30144
 H619 H 0.73882 0.69801 0.22824
 H620 H 0.75937 0.72386 0.20221
 H621 H 0.72827 0.84679 0.25889
 H622 H 0.68846 0.80335 0.25933
 H623 H 0.81226 0.72532 0.25098
 H624 H 0.78936 0.69977 0.27614
 O625 O 0.75030 0.18794 0.78104
 O626 O 0.72399 0.18285 0.74781
 O627 O 0.81243 0.21666 0.74845
 O628 O 0.82247 0.24795 0.72720
 O629 O 0.78331 0.24842 0.81182
 O630 O 0.75115 0.27422 0.81884
 O631 O 0.75173 0.28339 0.68893
 O632 O 0.77828 0.25221 0.68203
 O633 O 0.69050 0.25286 0.71718
 O634 O 0.68271 0.22578 0.74670
 O635 O 0.72035 0.31186 0.74994
 O636 O 0.75326 0.31888 0.77585
 O637 O 0.75212 0.31147 0.71768
 O638 O 0.77992 0.31680 0.75249
 O639 O 0.69127 0.28412 0.74950
 O640 O 0.68426 0.24915 0.77649
 O641 O 0.71885 0.25294 0.68868
 O642 O 0.75116 0.22462 0.68132
 O643 O 0.74980 0.21560 0.81024
 O644 O 0.72387 0.24933 0.81687
 O645 O 0.81226 0.24864 0.78390
 O646 O 0.81811 0.27733 0.75091
 O647 O 0.78393 0.18820 0.74868
 O648 O 0.75260 0.18429 0.72023
 Zr649 Zr 0.75208 0.20762 0.74952
 O650 O 0.73007 0.22879 0.72816
 Zr651 Zr 0.79395 0.24878 0.75130
 O652 O 0.77420 0.27115 0.72882
 Zr653 Zr 0.75182 0.24814 0.79213
 O654 O 0.73071 0.27140 0.77207
 Zr655 Zr 0.75103 0.25138 0.70756
 O656 O 0.77333 0.22881 0.72754
 Zr657 Zr 0.70953 0.25160 0.74899
 O658 O 0.72909 0.22803 0.77067
 Zr659 Zr 0.75188 0.29222 0.74970
 O660 O 0.77327 0.27131 0.77240
 O661 O 0.77386 0.22648 0.77233
 O662 O 0.72935 0.27373 0.72721
 C663 C 0.74925 0.19417 0.80280
 C664 C 0.80557 0.19506 0.74786
 C665 C 0.80504 0.24879 0.80543
 C666 C 0.75205 0.30489 0.69596
 C667 C 0.69723 0.25330 0.69557
 C668 C 0.69860 0.30558 0.74984
 H669 H 0.71979 0.21849 0.71850
 H670 H 0.72117 0.28121 0.78291
 H671 H 0.78375 0.21598 0.78228
 H672 H 0.78506 0.28069 0.71903
 H673 H 0.79044 0.24070 0.68725
 H674 H 0.81695 0.25564 0.71248
 H675 H 0.68649 0.26283 0.78713
 H676 H 0.71197 0.23767 0.81158
 H677 H 0.73794 0.21367 0.68453
 H678 H 0.76496 0.18997 0.70924
 H679 H 0.74247 0.31416 0.78874
 H680 H 0.76168 0.28709 0.81344
 H681 H 0.73031 0.16681 0.75124
 H682 H 0.68974 0.21091 0.75271
 H683 H 0.81405 0.28766 0.76442
 H684 H 0.79024 0.31480 0.73854
 O685 O 0.23609 0.79711 0.78268
 O686 O 0.26304 0.80329 0.74972
 O687 O 0.17518 0.76802 0.74738
 O688 O 0.16720 0.73696 0.72439
 O689 O 0.20273 0.73542 0.81093
 O690 O 0.23570 0.70987 0.81852
 O691 O 0.23953 0.70255 0.68953
 O692 O 0.21121 0.73321 0.68235
 O693 O 0.29850 0.73541 0.71903
 O694 O 0.30465 0.76236 0.74930
 O695 O 0.26999 0.67488 0.75126
 O696 O 0.23538 0.66764 0.77701
 O697 O 0.23923 0.67436 0.71826
 O698 O 0.21126 0.66715 0.75100
 O699 O 0.29810 0.70360 0.75127
 O700 O 0.30375 0.73793 0.77852
 O701 O 0.27067 0.73485 0.68993
 O702 O 0.23827 0.76110 0.68147
 O703 O 0.23601 0.76886 0.81139
 O704 O 0.26173 0.73603 0.81882
 O705 O 0.17480 0.73519 0.78189
 O706 O 0.17036 0.70734 0.74918
 O707 O 0.20325 0.79686 0.74913
 O708 O 0.23473 0.80234 0.72203
 Zr709 Zr 0.23530 0.77808 0.75063
 O710 O 0.25809 0.75776 0.72943
 Zr711 Zr 0.19428 0.73608 0.75022
 O712 O 0.21527 0.71409 0.72861
 Zr713 Zr 0.23506 0.73682 0.79260
 O714 O 0.25772 0.71475 0.77303
 Zr715 Zr 0.23830 0.73469 0.70812
 O716 O 0.21523 0.75682 0.72756
 Zr717 Zr 0.27886 0.73543 0.75059
 O718 O 0.25806 0.75784 0.77222
 Zr719 Zr 0.23774 0.69352 0.75005
 O720 O 0.21481 0.71363 0.77179
 O721 O 0.21320 0.75838 0.77236
 O722 O 0.26023 0.71286 0.72824
 C723 C 0.23664 0.79042 0.80437
 C724 C 0.18178 0.78976 0.74740
 C725 C 0.18123 0.73473 0.80365
 C726 C 0.23985 0.68099 0.69659
 C727 C 0.29213 0.73527 0.69724
 C728 C 0.29153 0.68193 0.75159
 H729 H 0.26821 0.76850 0.72009
 H730 H 0.26730 0.70516 0.78409
 H731 H 0.20285 0.76851 0.78217
 H732 H 0.20503 0.70425 0.71844
 H733 H 0.19913 0.74502 0.68696
 H734 H 0.17269 0.72753 0.71075
 H735 H 0.30116 0.72447 0.78937
 H736 H 0.27426 0.74698 0.81348
 H737 H 0.24949 0.77361 0.68620
 H738 H 0.22336 0.79623 0.71022
 H739 H 0.24770 0.67115 0.78893
 H740 H 0.22499 0.69727 0.81286
 H741 H 0.25656 0.81907 0.75385
 H742 H 0.29741 0.77645 0.75670
 H743 H 0.17527 0.69615 0.76174
 H744 H 0.20005 0.67033 0.73794
 O745 O 0.24724 0.32526 0.73046
 O746 O 0.22142 0.33229 0.76418
 O747 O 0.30969 0.29782 0.76382
 O748 O 0.31891 0.26790 0.78826
 O749 O 0.28018 0.26251 0.70317
 O750 O 0.24708 0.23681 0.69781
 O751 O 0.24877 0.23395 0.82724
 O752 O 0.27680 0.26513 0.83204
 O753 O 0.18812 0.26495 0.79873
 O754 O 0.18056 0.29130 0.76794
 O755 O 0.21600 0.20404 0.76787
 O756 O 0.24966 0.19601 0.74096
 O757 O 0.24815 0.20486 0.79951
 O758 O 0.27477 0.19655 0.76595
 O759 O 0.18749 0.23248 0.76763
 O760 O 0.18046 0.26580 0.73947
 O761 O 0.21705 0.26565 0.82676
 O762 O 0.24929 0.29279 0.83290
 O763 O 0.24673 0.29599 0.70286
 O764 O 0.22086 0.26287 0.69765
 O765 O 0.30920 0.26345 0.73111
 O766 O 0.31539 0.23722 0.76478
 O767 O 0.28125 0.32644 0.76234
 O768 O 0.25093 0.33248 0.79079
 Zr769 Zr 0.24945 0.30731 0.76310
 O770 O 0.22776 0.28757 0.78595
 Zr771 Zr 0.29097 0.26563 0.76345
 O772 O 0.27114 0.24427 0.78671
 Zr773 Zr 0.24856 0.26459 0.72272
 O774 O 0.22697 0.24307 0.74399
 Zr775 Zr 0.24869 0.26541 0.80733
 O776 O 0.27070 0.28702 0.78615
 Zr777 Zr 0.20647 0.26439 0.76644
 O778 O 0.22612 0.28617 0.74318
 Zr779 Zr 0.24809 0.22283 0.76696
 O780 O 0.26990 0.24229 0.74359
 O781 O 0.27090 0.28697 0.74126
 O782 O 0.22627 0.24277 0.78889
 C783 C 0.24613 0.31779 0.70907
 C784 C 0.30286 0.31951 0.76315
 C785 C 0.30195 0.26207 0.70965
 C786 C 0.24840 0.21216 0.82095
 C787 C 0.19532 0.26541 0.82025
 C788 C 0.19436 0.21087 0.76801
 H789 H 0.21784 0.29852 0.79529
 H790 H 0.21708 0.23304 0.73369
 H791 H 0.28076 0.29672 0.73060
 H792 H 0.28191 0.23486 0.79680
 H793 H 0.28846 0.27696 0.82654
 H794 H 0.31415 0.25878 0.80240
 H795 H 0.18293 0.25213 0.72888
 H796 H 0.20853 0.27408 0.70300
 H797 H 0.23761 0.30494 0.82818
 H798 H 0.26294 0.32690 0.80226
 H799 H 0.23673 0.19890 0.72952
 H800 H 0.25795 0.22435 0.70361
 H801 H 0.22754 0.34798 0.75929
 H802 H 0.18717 0.30503 0.75937
 H803 H 0.31003 0.22538 0.75309
 H804 H 0.28647 0.20026 0.77840
 O805 O 0.76427 0.68938 0.70125
 O806 O 0.79143 0.68285 0.73435
 O807 O 0.70319 0.71744 0.73572
 O808 O 0.69423 0.74823 0.75884
 O809 O 0.73163 0.75132 0.67317
 O810 O 0.76447 0.77725 0.66696
 O811 O 0.76502 0.78229 0.79611
 O812 O 0.73750 0.75097 0.80216
 O813 O 0.82556 0.75070 0.76725
 O814 O 0.83232 0.72373 0.73696
 O815 O 0.79705 0.81104 0.73632
 O816 O 0.76323 0.81876 0.70918
 O817 O 0.76501 0.81097 0.76787
 O818 O 0.73818 0.81860 0.73425
 O819 O 0.82547 0.78251 0.73594
 O820 O 0.83181 0.74886 0.70788
 O821 O 0.79713 0.75095 0.79569
 O822 O 0.76508 0.72359 0.80311
 O823 O 0.76459 0.71814 0.67303
 O824 O 0.79087 0.75099 0.66695
 O825 O 0.70318 0.75067 0.70161
 O826 O 0.69763 0.77811 0.73471
 O827 O 0.73152 0.68873 0.73431
 O828 O 0.76279 0.68305 0.76178
 Zr829 Zr 0.76336 0.70781 0.73363
 O830 O 0.78553 0.72789 0.75571
 Zr831 Zr 0.72191 0.74958 0.73378
 O832 O 0.74220 0.77129 0.75625
 Zr833 Zr 0.76353 0.74983 0.69236
 O834 O 0.78556 0.77169 0.71283
 Zr835 Zr 0.76504 0.75048 0.77692
 O836 O 0.74259 0.72855 0.75658
 Zr837 Zr 0.80644 0.75068 0.73535
 O838 O 0.78632 0.72852 0.71286
 Zr839 Zr 0.76489 0.79236 0.73570
 O840 O 0.74260 0.77253 0.71308
 O841 O 0.74152 0.72781 0.71178
 O842 O 0.78709 0.77272 0.75765
 C843 C 0.76483 0.69646 0.67968
 C844 C 0.70995 0.69573 0.73559
 C845 C 0.71000 0.75151 0.68000
 C846 C 0.76504 0.80398 0.78944
 C847 C 0.81875 0.75095 0.78887
 C848 C 0.81867 0.80413 0.73642
 H849 H 0.79563 0.71712 0.76511
 H850 H 0.79530 0.78155 0.70223
 H851 H 0.73135 0.71781 0.70167
 H852 H 0.73159 0.78086 0.76629
 H853 H 0.72567 0.73917 0.79698
 H854 H 0.69952 0.75707 0.77295
 H855 H 0.82938 0.76260 0.69732
 H856 H 0.80311 0.73963 0.67225
 H857 H 0.77705 0.71163 0.79874
 H858 H 0.75139 0.68900 0.77363
 H859 H 0.77614 0.81572 0.69780
 H860 H 0.75371 0.78979 0.67273
 H861 H 0.78516 0.66712 0.72980
 H862 H 0.82561 0.70995 0.72857
 H863 H 0.70249 0.78940 0.72226
 H864 H 0.72650 0.81499 0.74672
 O865 O 0.24839 0.68780 0.28040
 O866 O 0.22177 0.68260 0.24743
 O867 O 0.30992 0.71719 0.24722
 O868 O 0.31934 0.74861 0.22581
 O869 O 0.28128 0.74843 0.31097
 O870 O 0.24902 0.77394 0.31852
 O871 O 0.24770 0.78366 0.18871
 O872 O 0.27466 0.75284 0.18137
 O873 O 0.18730 0.75254 0.21755
 O874 O 0.18008 0.72519 0.24702
 O875 O 0.21702 0.81160 0.25021
 O876 O 0.25034 0.81867 0.27586
 O877 O 0.24817 0.81163 0.21758
 O878 O 0.27650 0.81712 0.25189
 O879 O 0.18816 0.78362 0.24994
 O880 O 0.18180 0.74847 0.27693
 O881 O 0.21533 0.75292 0.18872
 O882 O 0.24777 0.72493 0.18083
 O883 O 0.24801 0.71535 0.30971
 O884 O 0.22192 0.74882 0.31682
 O885 O 0.30987 0.74903 0.28269
 O886 O 0.31509 0.77788 0.24981
 O887 O 0.28167 0.68848 0.24768
 O888 O 0.25003 0.68443 0.21953
 Zr889 Zr 0.24965 0.70762 0.24893
 O890 O 0.22719 0.72871 0.22794
 Zr891 Zr 0.29117 0.74914 0.25034
 O892 O 0.27095 0.77147 0.22824
 Zr893 Zr 0.24955 0.74798 0.29170
 O894 O 0.22798 0.77114 0.27203
 Zr895 Zr 0.24771 0.75156 0.20720
 O896 O 0.27044 0.72908 0.22677
 Zr897 Zr 0.20670 0.75125 0.24913
 O898 O 0.22674 0.72775 0.27045
 Zr899 Zr 0.24871 0.79223 0.24950
 O900 O 0.27057 0.77140 0.27180
 O901 O 0.27153 0.72659 0.27154
 O902 O 0.22608 0.77362 0.22722
 C903 C 0.24754 0.69395 0.30219
 C904 C 0.30325 0.69552 0.24666
 C905 C 0.30292 0.74899 0.30431
 C906 C 0.24780 0.80514 0.19583
 C907 C 0.19380 0.75313 0.19586
 C908 C 0.19532 0.80515 0.25028
 H909 H 0.21688 0.71837 0.21836
 H910 H 0.21848 0.78081 0.28303
 H911 H 0.28162 0.71613 0.28134
 H912 H 0.28157 0.78115 0.21833
 H913 H 0.28695 0.74136 0.18633
 H914 H 0.31362 0.75652 0.21129
 H915 H 0.18399 0.76216 0.28755
 H916 H 0.21002 0.73713 0.31160
 H917 H 0.23472 0.71382 0.18417
 H918 H 0.26224 0.69023 0.20845
 H919 H 0.23948 0.81397 0.28871
 H920 H 0.25935 0.78693 0.31303
 H921 H 0.22826 0.66661 0.25073
 H922 H 0.18732 0.71037 0.25290
 H923 H 0.31101 0.78819 0.26333
 H924 H 0.28665 0.81523 0.23779
 O925 O 0.73156 0.29632 0.28264
 O926 O 0.75920 0.30306 0.25031
 O927 O 0.67191 0.26656 0.24627
 O928 O 0.66481 0.23545 0.22296
 O929 O 0.69897 0.23392 0.31008
 O930 O 0.73228 0.20896 0.31811
 O931 O 0.73816 0.20225 0.18920
 O932 O 0.70958 0.23252 0.18165
 O933 O 0.79620 0.23587 0.21978
 O934 O 0.80143 0.26280 0.25024
 O935 O 0.76811 0.17480 0.25122
 O936 O 0.73314 0.16700 0.27654
 O937 O 0.73781 0.17394 0.21782
 O938 O 0.70958 0.16609 0.25003
 O939 O 0.79577 0.20395 0.25186
 O940 O 0.80042 0.23824 0.27937
 O941 O 0.76886 0.23497 0.19023
 O942 O 0.73620 0.26083 0.18136
 O943 O 0.73144 0.26796 0.31124
 O944 O 0.75781 0.23566 0.31892
 O945 O 0.67147 0.23351 0.28063
 O946 O 0.66796 0.20578 0.24772
 O947 O 0.69956 0.29576 0.24848
 O948 O 0.73147 0.30182 0.22201
 Zr949 Zr 0.73183 0.27744 0.25051
 O950 O 0.75528 0.25757 0.22961
 Zr951 Zr 0.69143 0.23485 0.24926
 O952 O 0.71314 0.21327 0.22793
 Zr953 Zr 0.73154 0.23601 0.29229
 O954 O 0.75486 0.21437 0.27302
 Zr955 Zr 0.73619 0.23429 0.20788
 O956 O 0.71245 0.25599 0.22702
 Zr957 Zr 0.77604 0.23547 0.25102
 O958 O 0.75455 0.25747 0.27239
 Zr959 Zr 0.73558 0.19295 0.24965
 O960 O 0.71197 0.21261 0.27106
 O961 O 0.70968 0.25732 0.27178
 O962 O 0.75812 0.21272 0.22828
 C963 C 0.73174 0.28956 0.30432
 C964 C 0.67821 0.28840 0.24641
 C965 C 0.67760 0.23297 0.30248
 C966 C 0.73866 0.18067 0.19619
 C967 C 0.79020 0.23568 0.19789
 C968 C 0.78954 0.18217 0.25193
 H969 H 0.76539 0.26850 0.22048
 H970 H 0.76441 0.20488 0.28420
 H971 H 0.69897 0.26722 0.28144
 H972 H 0.70322 0.20332 0.21757
 H973 H 0.69723 0.24411 0.18612
 H974 H 0.67066 0.22613 0.20940
 H975 H 0.79784 0.22471 0.29014
 H976 H 0.77018 0.24692 0.31384
 H977 H 0.74724 0.27343 0.18627
 H978 H 0.72041 0.29561 0.20996
 H979 H 0.74541 0.17048 0.28850
 H980 H 0.72190 0.19619 0.31222
 H981 H 0.75239 0.31872 0.25439
 H982 H 0.79387 0.27674 0.25761
 H983 H 0.67286 0.19458 0.26028
 H984 H 0.69839 0.16928 0.23696
 C985 C 0.27665 0.11228 0.07655
 C986 C 0.26496 0.11122 0.09823
 C987 C 0.25084 0.09180 0.10353
 C988 C 0.24830 0.07344 0.08731
 C989 C 0.25986 0.07391 0.06502
 C990 C 0.27423 0.09392 0.06017
 C991 C 0.26713 0.13001 0.11519
 C992 C 0.26824 0.14536 0.12988
 C993 C 0.26877 0.16299 0.14746
 C994 C 0.26862 0.17789 0.16264
 H995 H 0.28748 0.12743 0.07218
 H996 H 0.24191 0.09067 0.12043
 H997 H 0.23815 0.05845 0.09329
 H998 H 0.28289 0.09640 0.04336
 C999 C 0.76663 0.58904 0.60424
 C1000 C 0.76113 0.61210 0.59720
 C1001 C 0.75424 0.61662 0.57384
 C1002 C 0.75290 0.59808 0.55754
 C1003 C 0.75852 0.57485 0.56447
 C1004 C 0.76532 0.57054 0.58802
 C1005 C 0.76236 0.63092 0.61419
 C1006 C 0.76335 0.64628 0.62887
 C1007 C 0.76432 0.66389 0.64642
 C1008 C 0.76481 0.67879 0.66159
 H1009 H 0.77183 0.58533 0.62231
 H1010 H 0.74992 0.63443 0.56824
 H1011 H 0.74778 0.60195 0.53949
 H1012 H 0.76933 0.55278 0.59400
 C1013 C 0.73209 0.91489 0.11773
 C1014 C 0.74389 0.89317 0.11779
 C1015 C 0.75633 0.88600 0.09777
 C1016 C 0.75715 0.90044 0.07777
 C1017 C 0.74549 0.92261 0.07727
 C1018 C 0.73280 0.92945 0.09772
 C1019 C 0.74342 0.87807 0.13827
 C1020 C 0.74356 0.86483 0.15498
 C1021 C 0.74426 0.84874 0.17405
 C1022 C 0.74526 0.83455 0.18992
 H1023 H 0.72250 0.92069 0.13324
 H1024 H 0.76533 0.86907 0.09752
 H1025 H 0.76623 0.89351 0.06248
 H1026 H 0.72413 0.94645 0.09889
 C1027 C 0.23583 0.41734 0.62005
 C1028 C 0.24201 0.39343 0.61822
 C1029 C 0.24852 0.38409 0.59630
 C1030 C 0.24910 0.39858 0.57632
 C1031 C 0.24320 0.42269 0.57797
 C1032 C 0.23637 0.43190 0.60003
 C1033 C 0.24210 0.37838 0.63875
 C1034 C 0.24259 0.36521 0.65551
 C1035 C 0.24355 0.34920 0.67463
 C1036 C 0.24463 0.33508 0.69056
 H1037 H 0.23080 0.42476 0.63696
 H1038 H 0.25325 0.36560 0.59467
 H1039 H 0.25405 0.39088 0.55953
 H1040 H 0.23194 0.45043 0.60187
 C1041 C 0.74099 0.08302 0.87557
 C1042 C 0.74693 0.10619 0.88193
 C1043 C 0.75368 0.11117 0.90516
 C1044 C 0.75467 0.09311 0.92196
 C1045 C 0.74897 0.06972 0.91577
 C1046 C 0.74194 0.06487 0.89241
 C1047 C 0.74654 0.12491 0.86469
 C1048 C 0.74664 0.14088 0.85057
 C1049 C 0.74719 0.15969 0.83417
 C1050 C 0.74797 0.17561 0.82003
 H1051 H 0.73579 0.07897 0.85759
 H1052 H 0.75823 0.12904 0.91030
 H1053 H 0.75969 0.09751 0.93990
 H1054 H 0.73758 0.04702 0.88711
 C1055 C 0.24022 0.58283 0.37520
 C1056 C 0.24624 0.60601 0.38142
 C1057 C 0.25313 0.61109 0.40460
 C1058 C 0.25414 0.59311 0.42148
 C1059 C 0.24832 0.56971 0.41543
 C1060 C 0.24119 0.56476 0.39213
 C1061 C 0.24572 0.62468 0.36412
 C1062 C 0.24567 0.64061 0.34996
 C1063 C 0.24601 0.65939 0.33352
 C1064 C 0.24657 0.67533 0.31939
 H1065 H 0.23490 0.57871 0.35728
 H1066 H 0.25774 0.62897 0.40963
 H1067 H 0.25924 0.59759 0.43938
 H1068 H 0.23674 0.54691 0.38694
 C1069 C 0.22263 0.88197 0.89910
 C1070 C 0.24306 0.87466 0.88725
 C1071 C 0.26468 0.88563 0.89213
 C1072 C 0.26581 0.90409 0.90851
 C1073 C 0.24528 0.91186 0.92020
 C1074 C 0.22371 0.90043 0.91547
 C1075 C 0.24170 0.85633 0.86966
 C1076 C 0.24047 0.84115 0.85476
 C1077 C 0.23902 0.82349 0.83720
 C1078 C 0.23785 0.80843 0.82218
 H1079 H 0.20581 0.87357 0.89552
 H1080 H 0.28060 0.88016 0.88301
 H1081 H 0.28260 0.91272 0.91154
 H1082 H 0.20766 0.90580 0.92440
 C1083 C 0.73079 0.37165 0.40948
 C1084 C 0.73628 0.37525 0.38561
 C1085 C 0.74396 0.39745 0.37798
 C1086 C 0.74635 0.41595 0.39410
 C1087 C 0.74114 0.41251 0.41817
 C1088 C 0.73315 0.39019 0.42569
 C1089 C 0.73447 0.35621 0.36886
 C1090 C 0.73338 0.34062 0.35440
 C1091 C 0.73250 0.32268 0.33712
 C1092 C 0.73204 0.30752 0.32218
 H1093 H 0.72487 0.35450 0.41559
 H1094 H 0.74817 0.40046 0.35954
 H1095 H 0.75213 0.43303 0.38769
 H1096 H 0.72917 0.38697 0.44412
 C1097 C 0.10048 0.26069 0.11252
 C1098 C 0.12125 0.25041 0.10409
 C1099 C 0.12149 0.24001 0.08171
 C1100 C 0.10101 0.23989 0.06778
 C1101 C 0.07973 0.25027 0.07596
 C1102 C 0.08000 0.26065 0.09873
 C1103 C 0.14206 0.25027 0.11879
 C1104 C 0.15895 0.25030 0.13184
 C1105 C 0.17806 0.25037 0.14793
 C1106 C 0.19378 0.25031 0.16234
 H1107 H 0.10000 0.26853 0.12998
 H1108 H 0.13756 0.23207 0.07495
 H1109 H 0.10236 0.23236 0.05029
 H1110 H 0.06421 0.26795 0.10663
 C1111 C 0.59763 0.75406 0.61344
 C1112 C 0.61991 0.75017 0.60350
 C1113 C 0.62194 0.74570 0.57925
 C1114 C 0.60171 0.74525 0.56497
 C1115 C 0.57925 0.74935 0.57482
 C1116 C 0.57744 0.75364 0.59923
 C1117 C 0.64052 0.75074 0.61842
 C1118 C 0.65725 0.75123 0.63160
 C1119 C 0.67623 0.75169 0.64779
 C1120 C 0.69193 0.75183 0.66221
 H1121 H 0.59584 0.75740 0.63221
 H1122 H 0.63913 0.74266 0.57139
 H1123 H 0.60367 0.74211 0.54620
 H1124 H 0.56037 0.75647 0.60740
 C1125 C 0.10428 0.74994 0.90811
 C1126 C 0.09842 0.73730 0.88780
 C1127 C 0.07618 0.72674 0.88594
 C1128 C 0.05981 0.72887 0.90436
 C1129 C 0.06534 0.74179 0.92506
 C1130 C 0.08805 0.75218 0.92650
 C1131 C 0.11537 0.73546 0.86896
 C1132 C 0.13007 0.73453 0.85360
 C1133 C 0.14771 0.73407 0.83600
 C1134 C 0.16297 0.73415 0.82118
 H1135 H 0.12157 0.75800 0.90984
 H1136 H 0.07140 0.71701 0.87017
 H1137 H 0.04257 0.72110 0.90172
 H1138 H 0.09397 0.76131 0.94219
 C1139 C 0.57163 0.22922 0.38407
 C1140 C 0.59583 0.23310 0.38762
 C1141 C 0.60420 0.23886 0.41014
 C1142 C 0.58850 0.24105 0.42900
 C1143 C 0.56412 0.23755 0.42561
 C1144 C 0.55584 0.23136 0.40300
 C1145 C 0.61220 0.23189 0.36822
 C1146 C 0.62655 0.23143 0.35251
 C1147 C 0.64393 0.23148 0.33467
 C1148 C 0.65916 0.23195 0.31980
 H1149 H 0.56496 0.22480 0.36668
 H1150 H 0.62289 0.24184 0.41310
 H1151 H 0.59546 0.24542 0.44629
 H1152 H 0.53715 0.22871 0.39985
 C1153 C 0.90562 0.74429 0.12487
 C1154 C 0.88444 0.75678 0.12217
 C1155 C 0.87986 0.76874 0.10107
 C1156 C 0.89629 0.76827 0.08269
 C1157 C 0.91790 0.75576 0.08494
 C1158 C 0.92216 0.74372 0.10650
 C1159 C 0.86728 0.75739 0.14094
 C1160 C 0.85264 0.75820 0.15638
 C1161 C 0.83533 0.75939 0.17430
 C1162 C 0.82055 0.76056 0.18959
 H1163 H 0.90943 0.73509 0.14125
 H1164 H 0.86339 0.77828 0.09869
 H1165 H 0.89128 0.77698 0.06642
 H1166 H 0.93859 0.73449 0.10980
 C1167 C 0.40732 0.24847 0.62939
 C1168 C 0.38414 0.25589 0.62474
 C1169 C 0.37774 0.26269 0.60183
 C1170 C 0.39440 0.26218 0.58365
 C1171 C 0.41780 0.25490 0.58812
 C1172 C 0.42406 0.24793 0.61119
 C1173 C 0.36683 0.25674 0.64337
 C1174 C 0.35205 0.25770 0.65868
 C1175 C 0.33455 0.25907 0.67641
 C1176 C 0.31961 0.26038 0.69153
 H1177 H 0.41248 0.24321 0.64708
 H1178 H 0.35983 0.26837 0.59799
 H1179 H 0.38889 0.26724 0.56602
 H1180 H 0.44196 0.24241 0.61521
 C1181 C 0.90235 0.26581 0.89320
 C1182 C 0.88308 0.25053 0.89456
 C1183 C 0.88017 0.23632 0.91457
 C1184 C 0.89657 0.23726 0.93312
 C1185 C 0.91630 0.25260 0.93209
 C1186 C 0.91873 0.26687 0.91163
 C1187 C 0.86644 0.24956 0.87530
 C1188 C 0.85268 0.24913 0.85900
 C1189 C 0.83652 0.24892 0.83994
 C1190 C 0.82243 0.24886 0.82393
 H1191 H 0.90490 0.27677 0.87769
 H1192 H 0.86516 0.22453 0.91589
 H1193 H 0.89312 0.22645 0.94849
 H1194 H 0.93386 0.27820 0.90902
 C1195 C 0.40477 0.75920 0.38800
 C1196 C 0.38243 0.74950 0.39200
 C1197 C 0.37676 0.74052 0.41437
 C1198 C 0.39340 0.74131 0.43271
 C1199 C 0.41586 0.75121 0.42885
 C1200 C 0.42137 0.76003 0.40624
 C1201 C 0.36540 0.74900 0.37309
 C1202 C 0.35134 0.74888 0.35707
 C1203 C 0.33487 0.74893 0.33832
 C1204 C 0.32054 0.74901 0.32254
 H1205 H 0.40938 0.76611 0.37074
 H1206 H 0.35948 0.73299 0.41766
 H1207 H 0.38862 0.73451 0.44994
 H1208 H 0.43866 0.76733 0.40257
 C1209 C 0.12909 0.08929 0.23444
 C1210 C 0.12580 0.11306 0.24053
 C1211 C 0.10365 0.12081 0.24830
 C1212 C 0.08490 0.10491 0.25014
 C1213 C 0.08801 0.08095 0.24427
 C1214 C 0.11029 0.07331 0.23625
 C1215 C 0.14504 0.12963 0.23904
 C1216 C 0.16075 0.14397 0.23809
 C1217 C 0.17876 0.16119 0.23721
 C1218 C 0.19390 0.17615 0.23657
 H1219 H 0.14618 0.08309 0.22843
 H1220 H 0.10087 0.13918 0.25296
 H1221 H 0.06787 0.11144 0.25596
 H1222 H 0.11327 0.05495 0.23177
 C1223 C 0.62862 0.59019 0.73468
 C1224 C 0.62480 0.61386 0.74082
 C1225 C 0.60250 0.62108 0.74866
 C1226 C 0.58413 0.60475 0.75052
 C1227 C 0.58779 0.58087 0.74459
 C1228 C 0.61022 0.57377 0.73650
 C1229 C 0.64364 0.63086 0.73929
 C1230 C 0.65909 0.64547 0.73827
 C1231 C 0.67690 0.66289 0.73729
 C1232 C 0.69200 0.67788 0.73653
 H1233 H 0.64584 0.58440 0.72860
 H1234 H 0.59931 0.63937 0.75336
 H1235 H 0.56697 0.61087 0.75639
 H1236 H 0.61361 0.55549 0.73198
 C1237 C 0.91489 0.12018 0.73642
 C1238 C 0.89340 0.11573 0.74773
 C1239 C 0.89037 0.09478 0.76035
 C1240 C 0.90865 0.07824 0.76170
 C1241 C 0.93062 0.08225 0.75040
 C1242 C 0.93330 0.10364 0.73767
 C1243 C 0.87439 0.13264 0.74667
 C1244 C 0.85829 0.14661 0.74628
 C1245 C 0.83948 0.16302 0.74636
 C1246 C 0.82370 0.17735 0.74684
 H1247 H 0.91749 0.13651 0.72675
 H1248 H 0.87371 0.09107 0.76902
 H1249 H 0.90485 0.06188 0.77080
 H1250 H 0.94981 0.10824 0.72926
 C1251 C 0.41479 0.62362 0.23943
 C1252 C 0.39176 0.61683 0.24541
 C1253 C 0.38733 0.59361 0.25259
 C1254 C 0.40580 0.57726 0.25394
 C1255 C 0.42906 0.58390 0.24818
 C1256 C 0.43336 0.60724 0.24074
 C1257 C 0.37262 0.63364 0.24467
 C1258 C 0.35641 0.64750 0.24451
 C1259 C 0.33745 0.66377 0.24480
 C1260 C 0.32155 0.67797 0.24544
 H1261 H 0.41843 0.64159 0.23390
 H1262 H 0.36958 0.58813 0.25719
 H1263 H 0.40182 0.55932 0.25926
 H1264 H 0.45108 0.61289 0.23631
 C1265 C 0.11262 0.89960 0.75766
 C1266 C 0.10536 0.87989 0.74478
 C1267 C 0.08394 0.88054 0.73247
 C1268 C 0.06976 0.90085 0.73309
 C1269 C 0.07671 0.92100 0.74619
 C1270 C 0.09856 0.91988 0.75839
 C1271 C 0.12017 0.85919 0.74428
 C1272 C 0.13328 0.84237 0.74437
 C1273 C 0.14942 0.82333 0.74501
 C1274 C 0.16385 0.80766 0.74593
 H1275 H 0.12933 0.89939 0.76705
 H1276 H 0.07808 0.86529 0.72252
 H1277 H 0.05296 0.90014 0.72400
 H1278 H 0.10558 0.93491 0.76783
 C1279 C 0.61271 0.40066 0.24894
 C1280 C 0.60264 0.37917 0.24208
 C1281 C 0.57876 0.37833 0.23559
 C1282 C 0.56496 0.39891 0.23615
 C1283 C 0.57491 0.42054 0.24331
 C1284 C 0.59898 0.42119 0.24954
 C1285 C 0.61699 0.35812 0.24208
 C1286 C 0.62981 0.34107 0.24253
 C1287 C 0.64574 0.32184 0.24351
 C1288 C 0.66013 0.30614 0.24467
 H1289 H 0.63119 0.40154 0.25391
 H1290 H 0.57077 0.36178 0.23029
 H1291 H 0.54643 0.39783 0.23146
 H1292 H 0.60725 0.43762 0.25475
 C1293 C 0.88500 0.92373 0.24677
 C1294 C 0.88789 0.90238 0.25891
 C1295 C 0.90919 0.89756 0.27039
 C1296 C 0.92761 0.91391 0.26978
 C1297 C 0.92520 0.93567 0.25758
 C1298 C 0.90341 0.94020 0.24606
 C1299 C 0.86924 0.88514 0.25942
 C1300 C 0.85402 0.87029 0.26004
 C1301 C 0.83651 0.85259 0.26084
 C1302 C 0.82167 0.83736 0.26144
 H1303 H 0.86847 0.92770 0.23791
 H1304 H 0.91172 0.88094 0.27963
 H1305 H 0.94405 0.90869 0.27806
 H1306 H 0.90003 0.95675 0.23710
 C1307 C 0.38370 0.42464 0.75165
 C1308 C 0.38811 0.40113 0.75813
 C1309 C 0.41116 0.39390 0.76347
 C1310 C 0.42973 0.41007 0.76249
 C1311 C 0.42552 0.43378 0.75618
 C1312 C 0.40231 0.44089 0.75064
 C1313 C 0.36915 0.38427 0.75932
 C1314 C 0.35367 0.36972 0.76041
 C1315 C 0.33586 0.35235 0.76165
 C1316 C 0.32079 0.33737 0.76252
 H1317 H 0.36591 0.43041 0.74748
 H1318 H 0.41479 0.37573 0.76837
 H1319 H 0.44745 0.40395 0.76643
 H1320 H 0.39851 0.45905 0.74589
 C1321 C 0.09055 0.24983 0.89697
 C1322 C 0.11099 0.26225 0.90286
 C1323 C 0.11291 0.27286 0.92506
 C1324 C 0.09443 0.27102 0.94138
 C1325 C 0.07359 0.25834 0.93583
 C1326 C 0.07209 0.24788 0.91316
 C1327 C 0.12985 0.26391 0.88593
 C1328 C 0.14524 0.26479 0.87126
 C1329 C 0.16287 0.26534 0.85367
 C1330 C 0.17773 0.26550 0.83845
 H1331 H 0.08877 0.24174 0.87971
 H1332 H 0.12878 0.28243 0.92985
 H1333 H 0.09711 0.27882 0.95860
 H1334 H 0.05631 0.23892 0.90722
 C1335 C 0.59026 0.75651 0.39378
 C1336 C 0.61286 0.76243 0.40183
 C1337 C 0.61658 0.76708 0.42585
 C1338 C 0.59775 0.76558 0.44182
 C1339 C 0.57503 0.75929 0.43388
 C1340 C 0.57148 0.75498 0.40965
 C1341 C 0.63211 0.76329 0.38528
 C1342 C 0.64773 0.76364 0.37083
 C1343 C 0.66552 0.76375 0.35339
 C1344 C 0.68040 0.76369 0.33818
 H1345 H 0.58716 0.75298 0.37521
 H1346 H 0.63403 0.77165 0.43227
 H1347 H 0.60102 0.76884 0.46039
 H1348 H 0.55412 0.75051 0.40295
 C1349 C 0.91782 0.76207 0.87828
 C1350 C 0.89541 0.75178 0.87883
 C1351 C 0.88728 0.74134 0.89963
 C1352 C 0.90144 0.74109 0.91984
 C1353 C 0.92426 0.75133 0.91978
 C1354 C 0.93211 0.76192 0.89850
 C1355 C 0.88043 0.75203 0.85826
 C1356 C 0.86719 0.75197 0.84155
 C1357 C 0.85097 0.75168 0.82260
 C1358 C 0.83654 0.75134 0.80692
 H1359 H 0.92434 0.77012 0.86217
 H1360 H 0.86981 0.73356 0.90032
 H1361 H 0.89379 0.73367 0.93569
 H1362 H 0.94962 0.76935 0.89692
 C1363 C 0.41922 0.25737 0.37951
 C1364 C 0.39486 0.25354 0.38150
 C1365 C 0.38483 0.24975 0.40376
 C1366 C 0.39907 0.24959 0.42395
 C1367 C 0.42360 0.25318 0.42217
 C1368 C 0.43353 0.25723 0.39973
 C1369 C 0.37998 0.25325 0.36083
 C1370 C 0.36688 0.25279 0.34400
 C1371 C 0.35087 0.25211 0.32485
 C1372 C 0.33665 0.25148 0.30897
 H1373 H 0.42717 0.26029 0.36234
 H1374 H 0.36599 0.24687 0.40552
 H1375 H 0.39084 0.24680 0.44099
 H1376 H 0.45238 0.25984 0.39778
 C1377 C 0.08345 0.76246 0.12209
 C1378 C 0.10609 0.75418 0.11642
 C1379 C 0.11046 0.74479 0.09401
 C1380 C 0.09229 0.74352 0.07736
 C1381 C 0.06941 0.75158 0.08289
 C1382 C 0.06519 0.76123 0.10539
 C1383 C 0.12488 0.75485 0.13356
 C1384 C 0.14086 0.75494 0.14767
 C1385 C 0.15961 0.75459 0.16413
 C1386 C 0.17544 0.75402 0.17840
 H1387 H 0.07988 0.76972 0.13943
 H1388 H 0.12793 0.73840 0.08941
 H1389 H 0.09623 0.73644 0.06003
 H1390 H 0.04773 0.76746 0.11018
 C1391 C 0.58644 0.26222 0.62266
 C1392 C 0.60890 0.25366 0.61666
 C1393 C 0.61268 0.24384 0.59432
 C1394 C 0.59413 0.24243 0.57809
 C1395 C 0.57142 0.25078 0.58396
 C1396 C 0.56780 0.26085 0.60639
 C1397 C 0.62807 0.25449 0.63342
 C1398 C 0.64426 0.25473 0.64730
 C1399 C 0.66316 0.25456 0.66364
 C1400 C 0.67900 0.25411 0.67792
 H1401 H 0.58330 0.26981 0.63995
 H1402 H 0.62999 0.23723 0.58945
 H1403 H 0.59762 0.23502 0.56081
 H1404 H 0.55051 0.26731 0.61146
 C1405 C 0.89941 0.23504 0.12366
 C1406 C 0.87644 0.24147 0.11710
 C1407 C 0.87191 0.24916 0.09398
 C1408 C 0.89029 0.25035 0.07748
 C1409 C 0.91343 0.24378 0.08391
 C1410 C 0.91777 0.23619 0.10723
 C1411 C 0.85764 0.24015 0.13418
 C1412 C 0.84213 0.23897 0.14873
 C1413 C 0.82411 0.23762 0.16592
 C1414 C 0.80870 0.23660 0.18059
 H1415 H 0.90316 0.22917 0.14153
 H1416 H 0.85417 0.25417 0.08870
 H1417 H 0.88636 0.25607 0.05963
 H1418 H 0.93545 0.23142 0.11287
 C1419 C 0.39998 0.73352 0.62116
 C1420 C 0.37697 0.74017 0.61497
 C1421 C 0.37215 0.74803 0.59196
 C1422 C 0.39030 0.74919 0.57520
 C1423 C 0.41348 0.74241 0.58127
 C1424 C 0.41811 0.73464 0.60447
 C1425 C 0.35845 0.73898 0.63235
 C1426 C 0.34319 0.73793 0.64717
 C1427 C 0.32549 0.73675 0.66469
 C1428 C 0.31034 0.73592 0.67963
 H1429 H 0.40394 0.72753 0.63894
 H1430 H 0.35439 0.75322 0.58698
 H1431 H 0.38616 0.75506 0.55745
 H1432 H 0.43583 0.72971 0.60983
 C1433 C 0.22595 0.11239 0.90513
 C1434 C 0.24722 0.12366 0.89947
 C1435 C 0.26860 0.11459 0.90806
 C1436 C 0.26879 0.09413 0.92193
 C1437 C 0.24756 0.08241 0.92737
 C1438 C 0.22610 0.09192 0.91904
 C1439 C 0.24725 0.14382 0.88390
 C1440 C 0.24746 0.16028 0.87034
 C1441 C 0.24782 0.17900 0.85381
 C1442 C 0.24813 0.19447 0.83913
 H1443 H 0.20931 0.11918 0.89846
 H1444 H 0.28516 0.12316 0.90378
 H1445 H 0.28555 0.08744 0.92837
 H1446 H 0.20950 0.08316 0.92270
 C1447 C 0.74774 0.59881 0.38581
 C1448 C 0.75505 0.62033 0.39546
 C1449 C 0.76235 0.62133 0.41910
 C1450 C 0.76216 0.60088 0.43307
 C1451 C 0.75459 0.57921 0.42354
 C1452 C 0.74750 0.57840 0.39970
 C1453 C 0.75492 0.64123 0.38091
 C1454 C 0.75450 0.65818 0.36797
 C1455 C 0.75377 0.67733 0.35197
 C1456 C 0.75304 0.69304 0.33757
 H1457 H 0.74217 0.59780 0.36750
 H1458 H 0.76804 0.63792 0.42676
 H1459 H 0.76750 0.60209 0.45142
 H1460 H 0.74195 0.56193 0.39174
 C1461 C 0.75179 0.07481 0.11622
 C1462 C 0.74555 0.09836 0.11170
 C1463 C 0.73999 0.10546 0.08868
 C1464 C 0.74047 0.08912 0.07024
 C1465 C 0.74648 0.06535 0.07457
 C1466 C 0.75231 0.05838 0.09774
 C1467 C 0.74454 0.11535 0.13056
 C1468 C 0.74340 0.13002 0.14594
 C1469 C 0.74182 0.14754 0.16358
 C1470 C 0.74037 0.16266 0.17849
 H1471 H 0.75610 0.06913 0.13401
 H1472 H 0.73524 0.12366 0.08496
 H1473 H 0.73632 0.09513 0.05253
 H1474 H 0.75684 0.04018 0.10162
 C1475 C 0.25125 0.57500 0.61640
 C1476 C 0.24530 0.59864 0.61195
 C1477 C 0.23991 0.60589 0.58893
 C1478 C 0.24028 0.58961 0.57043
 C1479 C 0.24602 0.56576 0.57468
 C1480 C 0.25166 0.55864 0.59786
 C1481 C 0.24448 0.61560 0.63088
 C1482 C 0.24354 0.63024 0.64630
 C1483 C 0.24226 0.64776 0.66398
 C1484 C 0.24113 0.66290 0.67890
 H1485 H 0.25544 0.56921 0.63418
 H1486 H 0.23538 0.62415 0.58527
 H1487 H 0.23627 0.59573 0.55272
 H1488 H 0.25598 0.54037 0.60169
 C1489 C 0.75381 0.87799 0.89737
 C1490 C 0.76142 0.88544 0.87507
 C1491 C 0.76710 0.90923 0.87132
 C1492 C 0.76503 0.92555 0.88980
 C1493 C 0.75715 0.91822 0.91222
 C1494 C 0.75171 0.89422 0.91581
 C1495 C 0.76299 0.86857 0.85610
 C1496 C 0.76392 0.85405 0.84056
 C1497 C 0.76461 0.83672 0.82264
 C1498 C 0.76492 0.82179 0.80746
 H1499 H 0.74944 0.85961 0.90050
 H1500 H 0.77297 0.91520 0.85410
 H1501 H 0.76919 0.94392 0.88646
 H1502 H 0.74601 0.88795 0.93296
 C1503 C 0.25222 0.37780 0.39798
 C1504 C 0.26009 0.38503 0.37569
 C1505 C 0.26600 0.40875 0.37184
 C1506 C 0.26391 0.42521 0.39020
 C1507 C 0.25578 0.41811 0.41261
 C1508 C 0.25010 0.39418 0.41629
 C1509 C 0.26177 0.36801 0.35686
 C1510 C 0.26283 0.35338 0.34141
 C1511 C 0.26374 0.33596 0.32357
 C1512 C 0.26430 0.32098 0.30844
 H1513 H 0.24768 0.35948 0.40119
 H1514 H 0.27207 0.41456 0.35464
 H1515 H 0.26825 0.44352 0.38677
 H1516 H 0.24421 0.38806 0.43344
 C1517 C 0.25786 0.90713 0.11197
 C1518 C 0.24828 0.88470 0.10816
 C1519 C 0.23979 0.87862 0.08571
 C1520 C 0.24095 0.89493 0.06710
 C1521 C 0.25075 0.91746 0.07075
 C1522 C 0.25907 0.92340 0.09344
 C1523 C 0.24755 0.86794 0.12731
 C1524 C 0.24730 0.85401 0.14346
 C1525 C 0.24732 0.83756 0.16224
 C1526 C 0.24750 0.82310 0.17791
 H1527 H 0.26442 0.91205 0.12927
 H1528 H 0.23238 0.86127 0.08256
 H1529 H 0.23452 0.88982 0.04981
 H1530 H 0.26627 0.94076 0.09695
 C1531 C 0.74512 0.40754 0.61240
 C1532 C 0.75186 0.38417 0.60803
 C1533 C 0.75781 0.37721 0.58504
 C1534 C 0.75692 0.39357 0.56645
 C1535 C 0.74996 0.41707 0.57069
 C1536 C 0.74420 0.42387 0.59391
 C1537 C 0.75239 0.36742 0.62720
 C1538 C 0.75256 0.35353 0.64338
 C1539 C 0.75252 0.33715 0.66223
 C1540 C 0.75235 0.32277 0.67796
 H1541 H 0.74057 0.41315 0.63013
 H1542 H 0.76302 0.35913 0.58146
 H1543 H 0.76133 0.38780 0.54876
 H1544 H 0.73923 0.44194 0.59784
 C1545 C 0.12147 0.10253 0.75741
 C1546 C 0.11356 0.12471 0.76493
 C1547 C 0.08962 0.12810 0.77026
 C1548 C 0.07362 0.10939 0.76787
 C1549 C 0.08141 0.08711 0.76002
 C1550 C 0.10555 0.08387 0.75498
 C1551 C 0.13010 0.14393 0.76666
 C1552 C 0.14441 0.15966 0.76762
 C1553 C 0.16158 0.17773 0.76821
 C1554 C 0.17647 0.19294 0.76832
 H1555 H 0.13996 0.09968 0.75330
 H1556 H 0.08330 0.14522 0.77605
 H1557 H 0.05513 0.11246 0.77172
 H1558 H 0.11217 0.06683 0.74931
 C1559 C 0.62265 0.60142 0.25606
 C1560 C 0.61531 0.62371 0.26382
 C1561 C 0.59147 0.62761 0.26925
 C1562 C 0.57502 0.60931 0.26676
 C1563 C 0.58223 0.58692 0.25869
 C1564 C 0.60628 0.58316 0.25353
 C1565 C 0.63229 0.64256 0.26566
 C1566 C 0.64686 0.65805 0.26671
 C1567 C 0.66421 0.67596 0.26741
 C1568 C 0.67912 0.69116 0.26758
 H1569 H 0.64106 0.59817 0.25186
 H1570 H 0.58557 0.64483 0.27522
 H1571 H 0.55661 0.61279 0.27071
 H1572 H 0.61248 0.56602 0.24769
 C1573 C 0.12080 0.91471 0.26194
 C1574 C 0.11644 0.89350 0.25009
 C1575 C 0.09544 0.89070 0.23746
 C1576 C 0.07878 0.90890 0.23669
 C1577 C 0.08269 0.93057 0.24860
 C1578 C 0.10414 0.93304 0.26128
 C1579 C 0.13338 0.87449 0.25077
 C1580 C 0.14734 0.85837 0.25100
 C1581 C 0.16367 0.83947 0.25095
 C1582 C 0.17787 0.82356 0.25072
 H1583 H 0.13714 0.91714 0.27164
 H1584 H 0.09178 0.87425 0.22838
 H1585 H 0.06240 0.90524 0.22757
 H1586 H 0.10868 0.94934 0.27011
 C1587 C 0.62527 0.41637 0.75681
 C1588 C 0.61903 0.39327 0.75053
 C1589 C 0.59580 0.38825 0.74381
 C1590 C 0.57886 0.40620 0.74325
 C1591 C 0.58492 0.42952 0.74937
 C1592 C 0.60829 0.43442 0.75629
 C1593 C 0.63635 0.37461 0.75078
 C1594 C 0.65054 0.35869 0.75074
 C1595 C 0.66703 0.33996 0.75049
 C1596 C 0.68126 0.32409 0.75020
 H1597 H 0.64324 0.42045 0.76202
 H1598 H 0.59075 0.37042 0.73902
 H1599 H 0.56091 0.40176 0.73830
 H1600 H 0.61350 0.45222 0.76096
 C1601 C 0.90258 0.11610 0.24856
 C1602 C 0.88076 0.10680 0.25544
 C1603 C 0.87917 0.08308 0.26236
 C1604 C 0.89933 0.06867 0.26221
 C1605 C 0.92129 0.07784 0.25504
 C1606 C 0.92270 0.10176 0.24836
 C1607 C 0.86012 0.12173 0.25515
 C1608 C 0.84327 0.13480 0.25461
 C1609 C 0.82405 0.15073 0.25375
 C1610 C 0.80806 0.16483 0.25292
 H1611 H 0.90405 0.13445 0.24327
 H1612 H 0.86235 0.07569 0.26771
 H1613 H 0.89766 0.05028 0.26724
 H1614 H 0.93941 0.10944 0.24313
 C1615 C 0.40368 0.61475 0.74828
 C1616 C 0.38177 0.60552 0.75495
 C1617 C 0.37999 0.58176 0.76168
 C1618 C 0.40006 0.56724 0.76153
 C1619 C 0.42211 0.57634 0.75457
 C1620 C 0.42371 0.60030 0.74809
 C1621 C 0.36125 0.62059 0.75466
 C1622 C 0.34455 0.63383 0.75412
 C1623 C 0.32554 0.65000 0.75327
 C1624 C 0.30977 0.66432 0.75248
 H1625 H 0.40529 0.63314 0.74315
 H1626 H 0.36309 0.57444 0.76686
 H1627 H 0.39826 0.54882 0.76641
 H1628 H 0.44050 0.60792 0.74302
 C1629 C 0.89471 0.91125 0.73644
 C1630 C 0.90146 0.88814 0.74210
 C1631 C 0.92482 0.88335 0.74881
 C1632 C 0.94142 0.90164 0.74977
 C1633 C 0.93479 0.92491 0.74392
 C1634 C 0.91122 0.92951 0.73736
 C1635 C 0.88425 0.86951 0.74094
 C1636 C 0.86944 0.85429 0.73983
 C1637 C 0.85181 0.83676 0.73848
 C1638 C 0.83665 0.82189 0.73742
 H1639 H 0.87665 0.91517 0.73134
 H1640 H 0.93022 0.86549 0.75322
 H1641 H 0.95947 0.89756 0.75472
 H1642 H 0.90547 0.94730 0.73318
 C1643 C 0.39361 0.41218 0.23834
 C1644 C 0.40073 0.38909 0.24360
 C1645 C 0.42429 0.38448 0.24973
 C1646 C 0.44072 0.40293 0.25045
 C1647 C 0.43373 0.42618 0.24495
 C1648 C 0.40996 0.43060 0.23902
 C1649 C 0.38373 0.37025 0.24257
 C1650 C 0.36911 0.35483 0.24152
 C1651 C 0.35172 0.33707 0.24021
 C1652 C 0.33677 0.32197 0.23913
 H1653 H 0.37540 0.41595 0.23369
 H1654 H 0.42998 0.36664 0.25383
 H1655 H 0.45893 0.39899 0.25491
 H1656 H 0.40394 0.44836 0.23512
   
