data_POSCAR
  _audit_creation_date              2014-09-24
  _audit_creation_method            'ToBaCCo'
  _symmetry_space_group_name_H-M    'P1'
  _symmetry_Int_Tables_number       1
  _symmetry_cell_setting            triclinic
  loop_
  _symmetry_equiv_pos_as_xyz
 x,y,z
_cell_length_a 88.4375
_cell_length_b 86.3844
_cell_length_c 86.2919
_cell_angle_alpha 89.496000
_cell_angle_beta 90.328800
_cell_angle_gamma 89.580800
loop_
  _atom_site_label
  _atom_site_type_symbol
  _atom_site_fract_x
  _atom_site_fract_y
  _atom_site_fract_z
C1 C 0.32424 0.43707 0.91461
 C2 C 0.31786 0.42370 0.92123
 C3 C 0.32413 0.41677 0.93451
 C4 C 0.33725 0.42305 0.94097
 C5 C 0.34477 0.43574 0.93410
 C6 C 0.33775 0.44294 0.92105
 H7 H 0.30807 0.41847 0.91588
 H8 H 0.34119 0.41820 0.95186
 H9 H 0.34285 0.45287 0.91558
 C10 C 0.43169 0.84014 0.43442
 C11 C 0.43647 0.83444 0.41991
 C12 C 0.42963 0.82139 0.41328
 C13 C 0.41792 0.81392 0.42118
 C14 C 0.41314 0.81909 0.43569
 C15 C 0.42025 0.83192 0.44229
 H16 H 0.44486 0.84052 0.41319
 H17 H 0.41249 0.80404 0.41596
 H18 H 0.41713 0.83507 0.45394
 C19 C 0.92305 0.90012 0.82830
 C20 C 0.90895 0.90513 0.82246
 C21 C 0.90147 0.91788 0.82891
 C22 C 0.90819 0.92565 0.84134
 C23 C 0.92222 0.92089 0.84767
 C24 C 0.92963 0.90814 0.84079
 H25 H 0.90356 0.89886 0.81314
 H26 H 0.90266 0.93602 0.84547
 H27 H 0.94032 0.90399 0.84539
 C28 C 0.42709 -0.08293 0.32183
 C29 C 0.41306 -0.07859 0.31528
 C30 C 0.40479 -0.06605 0.32127
 C31 C 0.41088 -0.05768 0.33371
 C32 C 0.42479 -0.06190 0.34045
 C33 C 0.43282 -0.07452 0.33440
 H34 H 0.40836 -0.08532 0.30590
 H35 H 0.40482 -0.04769 0.33807
 H36 H 0.44353 -0.07792 0.33959
 C37 C 0.81479 0.30931 0.33564
 C38 C 0.82806 0.30370 0.32875
 C39 C 0.83581 0.31250 0.31758
 C40 C 0.82964 0.32683 0.31275
 C41 C 0.81613 0.33244 0.31923
 C42 C 0.80888 0.32364 0.33070
 H43 H 0.83239 0.29241 0.33214
 H44 H 0.83560 0.33390 0.30439
 H45 H 0.79866 0.32811 0.33595
 C46 C -0.20093 0.81644 0.79776
 C47 C -0.20771 0.81160 0.81177
 C48 C -0.20162 0.79927 0.82062
 C49 C -0.18865 0.79155 0.81533
 C50 C -0.18195 0.79578 0.80126
 C51 C -0.18844 0.80781 0.79240
 H52 H -0.21725 0.81785 0.81642
 H53 H -0.18333 0.78272 0.82253
 H54 H -0.18367 0.81029 0.78114
 C55 C 0.92720 0.34194 0.43057
 C56 C 0.91530 0.33433 0.43820
 C57 C 0.90901 0.32068 0.43249
 C58 C 0.91513 0.31400 0.41916
 C59 C 0.92716 0.32114 0.41126
 C60 C 0.93307 0.33508 0.41706
 H61 H 0.91116 0.33862 0.44915
 H62 H 0.91041 0.30333 0.41486
 H63 H 0.94166 0.34100 0.41044
 C64 C 0.42523 0.42820 0.84954
 C65 C 0.41313 0.43574 0.84205
 C66 C 0.40610 0.42926 0.82903
 C67 C 0.41163 0.41515 0.82326
 C68 C 0.42398 0.40761 0.83044
 C69 C 0.43057 0.41412 0.84369
 H70 H 0.40949 0.44698 0.84612
 H71 H 0.40629 0.40995 0.81327
 H72 H 0.44007 0.40834 0.84928
 C73 C 0.82272 0.90552 0.93279
 C74 C 0.81554 0.91290 0.92000
 C75 C 0.82199 0.92587 0.91261
 C76 C 0.83590 0.93150 0.91808
 C77 C 0.84311 0.92467 0.93096
 C78 C 0.83634 0.91196 0.93829
 H79 H 0.80509 0.90845 0.91539
 H80 H 0.84128 0.94106 0.91214
 H81 H 0.84154 0.90760 0.94884
 C82 C 0.31121 0.83083 0.31354
 C83 C 0.30722 0.82339 0.32754
 C84 C 0.31485 0.81006 0.33285
 C85 C 0.32684 0.80410 0.32416
 C86 C 0.33114 0.81119 0.31018
 C87 C 0.32320 0.82440 0.30489
 H88 H 0.29786 0.82768 0.33430
 H89 H 0.33292 0.79396 0.32836
 H90 H 0.32687 0.82991 0.29427
 C91 C 0.81856 0.41254 0.43560
 C92 C 0.81368 0.41984 0.42182
 C93 C 0.82070 0.43332 0.41631
 C94 C 0.83315 0.43924 0.42448
 C95 C 0.83865 0.43205 0.43820
 C96 C 0.83086 0.41889 0.44376
 H97 H 0.80461 0.41484 0.41510
 H98 H 0.83875 0.44924 0.41968
 H99 H 0.83390 0.41388 0.45487
 C100 C 0.93765 0.82981 -0.06074
 C101 C 0.92460 0.82374 -0.05359
 C102 C 0.91692 0.81095 -0.05974
 C103 C 0.92275 0.80367 -0.07293
 C104 C 0.93587 0.80919 -0.08011
 C105 C 0.94299 0.82233 -0.07413
 H106 H 0.92056 0.82848 -0.04282
 H107 H 0.91701 0.79376 -0.07771
 H108 H 0.95228 0.82714 -0.08062
 C109 C 0.31872 0.33682 0.81295
 C110 C 0.31313 0.33044 0.82679
 C111 C 0.31938 0.31683 0.83322
 C112 C 0.33179 0.30987 0.82585
 C113 C 0.33786 0.31625 0.81221
 C114 C 0.33109 0.32960 0.80572
 H115 H 0.30407 0.33633 0.83278
 H116 H 0.33682 0.29949 0.83080
 H117 H 0.33530 0.33423 0.79489
 C118 C 0.16382 0.57011 0.56160
 C119 C 0.16956 0.56281 0.57502
 C120 C 0.18191 0.56907 0.58309
 C121 C 0.18835 0.58296 0.57773
 C122 C 0.18278 0.59036 0.56430
 C123 C 0.17083 0.58357 0.55612
 H124 H 0.16428 0.55236 0.57932
 H125 H 0.19733 0.58829 0.58434
 H126 H 0.16685 0.58890 0.54543
 C127 C 0.58449 0.68768 0.06402
 C128 C 0.57836 0.67406 0.05781
 C129 C 0.56475 0.66795 0.06354
 C130 C 0.55746 0.67550 0.07580
 C131 C 0.56322 0.68923 0.08198
 C132 C 0.57657 0.69536 0.07580
 H133 H 0.58425 0.66812 0.04864
 H134 H 0.54750 0.67038 0.08090
 H135 H 0.58081 0.70622 0.08017
 C136 C 0.69227 0.18797 0.67669
 C137 C 0.67994 0.19623 0.68266
 C138 C 0.67145 0.19031 0.69501
 C139 C 0.67595 0.17624 0.70199
 C140 C 0.68868 0.16785 0.69665
 C141 C 0.69659 0.17392 0.68378
 H142 H 0.67688 0.20733 0.67758
 H143 H 0.66954 0.17203 0.71175
 H144 H 0.70554 0.16728 0.67847
 C145 C 1.07850 0.06713 0.18710
 C146 C 1.06945 0.05927 0.17636
 C147 C 1.05656 0.06624 0.16946
 C148 C 1.05226 0.08103 0.17477
 C149 C 1.06085 0.08890 0.18594
 C150 C 1.07400 0.08188 0.19205
 H151 H 1.07255 0.04748 0.17366
 H152 H 1.04257 0.08696 0.16981
 H153 H 1.08103 0.08816 0.20013
 C154 C 0.06606 0.16529 1.06325
 C155 C 0.05798 0.17121 1.07593
 C156 C 0.06226 0.18515 1.08317
 C157 C 0.07503 0.19295 1.07728
 C158 C 0.08329 0.18715 1.06473
 C159 C 0.07868 0.17336 1.05776
 H160 H 0.04814 0.16498 1.07983
 H161 H 0.07906 0.20336 1.08272
 H162 H 0.08500 0.16883 1.04807
 C163 C 0.16192 0.69385 0.69206
 C164 C 0.16942 0.68105 0.69873
 C165 C 0.18148 0.67373 0.69115
 C166 C 0.18662 0.67995 0.67703
 C167 C 0.17960 0.69312 0.67039
 C168 C 0.16721 0.69991 0.67796
 H169 H 0.16580 0.67668 0.70989
 H170 H 0.19568 0.67421 0.67089
 H171 H 0.16153 0.70981 0.67274
 C172 C 1.18085 0.16524 0.18432
 C173 C 1.16866 0.17288 0.19126
 C174 C 1.16253 0.18654 0.18489
 C175 C 1.16952 0.19325 0.17190
 C176 C 1.18208 0.18603 0.16489
 C177 C 1.18754 0.17189 0.17115
 H178 H 1.16380 0.16806 0.20172
 H179 H 1.16500 0.20396 0.16715
 H180 H 1.19664 0.16576 0.16548
 C181 C 0.67725 1.04907 0.55235
 C182 C 0.68403 1.04264 0.56576
 C183 C 0.69680 1.04935 0.57261
 C184 C 0.70277 1.06296 0.56611
 C185 C 0.69614 1.06999 0.55287
 C186 C 0.68388 1.06237 0.54579
 H187 H 0.67882 1.03299 0.57167
 H188 H 0.71217 1.06832 0.57195
 H189 H 0.67990 1.06644 0.53461
 C190 C 0.56261 0.56832 0.17215
 C191 C 0.55519 0.58048 0.17979
 C192 C 0.56159 0.58743 0.19291
 C193 C 0.57533 0.58154 0.19881
 C194 C 0.58287 0.56920 0.19155
 C195 C 0.57643 0.56271 0.17816
 H196 H 0.54433 0.58457 0.17549
 H197 H 0.58031 0.58677 0.20896
 H198 H 0.58248 0.55370 0.17207
 C199 C 0.66228 0.68888 0.18666
 C200 C 0.66817 0.67536 0.19363
 C201 C 0.67925 0.66639 0.18621
 C202 C 0.68484 0.67142 0.17180
 C203 C 0.67938 0.68515 0.16480
 C204 C 0.66809 0.69375 0.17234
 H205 H 0.66416 0.67182 0.20494
 H206 H 0.69307 0.66439 0.16577
 H207 H 0.66365 0.70418 0.16691
 C208 C 0.16747 0.06420 1.05452
 C209 C 0.17461 0.07750 1.04840
 C210 C 0.18736 0.08398 1.05555
 C211 C 0.19345 0.07674 1.06879
 C212 C 0.18714 0.06314 1.07482
 C213 C 0.17420 0.05697 1.06766
 H214 H 0.17063 0.08270 1.03767
 H215 H 0.20289 0.08201 1.07475
 H216 H 0.16916 0.04685 1.07286
 C217 C 0.58918 0.18781 0.56718
 C218 C 0.58210 0.17567 0.55917
 C219 C 0.56864 0.16905 0.56468
 C220 C 0.56206 0.17508 0.57817
 C221 C 0.56906 0.18694 0.58657
 C222 C 0.58266 0.19315 0.58100
 H223 H 0.58713 0.17129 0.54868
 H224 H 0.55132 0.17062 0.58209
 H225 H 0.58841 0.20189 0.58768
 C226 C 0.08471 0.55526 0.69104
 C227 C 0.07654 0.54873 0.67870
 C228 C 0.06318 0.55572 0.67300
 C229 C 0.05772 0.56911 0.68025
 C230 C 0.06521 0.57543 0.69310
 C231 C 0.07877 0.56847 0.69833
 H232 H 0.08064 0.53816 0.67350
 H233 H 0.04787 0.57500 0.67550
 H234 H 0.08485 0.57353 0.70792
 C235 C 0.68178 0.54317 0.05030
 C236 C 0.68625 0.55730 0.04365
 C237 C 0.69752 0.56631 0.05063
 C238 C 0.70438 0.56097 0.06441
 C239 C 0.70021 0.54679 0.07113
 C240 C 0.68917 0.53781 0.06378
 H241 H 0.68059 0.56158 0.03330
 H242 H 0.71241 0.56826 0.07038
 H243 H 0.68608 0.52673 0.06876
 C244 C 0.06492 0.68933 0.58188
 C245 C 0.05932 0.67604 0.57455
 C246 C 0.06629 0.67014 0.56119
 C247 C 0.07872 0.67807 0.55493
 C248 C 0.08475 0.69113 0.56228
 C249 C 0.07783 0.69651 0.57583
 H250 H 0.04963 0.67019 0.57936
 H251 H 0.08367 0.67409 0.54422
 H252 H 0.08277 0.70612 0.58199
 C253 C 0.56759 1.07143 0.66475
 C254 C 0.58098 1.06553 0.67170
 C255 C 0.58718 1.07238 0.68506
 C256 C 0.57995 1.08535 0.69148
 C257 C 0.56664 1.09137 0.68487
 C258 C 0.56036 1.08404 0.67197
 H259 H 0.58723 1.05624 0.66631
 H260 H 0.58479 1.09088 0.70154
 H261 H 0.54945 1.08811 0.66784
 C262 C 0.42157 0.34411 0.93076
 C263 C 0.42825 0.33837 0.91706
 C264 C 0.42223 0.32555 0.90930
 C265 C 0.40950 0.31818 0.91546
 C266 C 0.40234 0.32374 0.92878
 C267 C 0.40840 0.33671 0.93627
 H268 H 0.43767 0.34431 0.91183
 H269 H 0.40528 0.30786 0.90992
 H270 H 0.40299 0.34068 0.94671
 C271 C 0.93955 0.45144 0.32600
 C272 C 0.92574 0.45545 0.31891
 C273 C 0.92062 0.44750 0.30576
 C274 C 0.92950 0.43541 0.29978
 C275 C 0.94333 0.43120 0.30675
 C276 C 0.94845 0.43964 0.31955
 H277 H 0.91859 0.46417 0.32413
 H278 H 0.92535 0.42894 0.28997
 H279 H 0.95928 0.43676 0.32478
 C280 C 0.32026 0.93799 0.41293
 C281 C 0.31385 0.92520 0.42086
 C282 C 0.32007 0.91956 0.43491
 C283 C 0.33265 0.92706 0.44130
 C284 C 0.33959 0.93938 0.43353
 C285 C 0.33348 0.94454 0.41935
 H286 H 0.30383 0.91968 0.41644
 H287 H 0.33700 0.92334 0.45249
 H288 H 0.33964 0.95328 0.41301
 O289 O 0.25516 0.54878 0.72778
 O290 O 0.28111 0.54469 0.72812
 O291 O 0.23643 0.50833 0.70794
 O292 O 0.23903 0.48042 0.71400
 O293 O 0.21769 0.52571 0.74961
 O294 O 0.22527 0.52484 0.77621
 O295 O 0.28078 0.46817 0.74759
 O296 O 0.27485 0.47162 0.72159
 O297 O 0.29935 0.50675 0.76529
 O298 O 0.29325 0.53530 0.76377
 O299 O 0.26399 0.48728 0.78812
 O300 O 0.23606 0.48759 0.78456
 O301 O 0.26374 0.46705 0.76725
 O302 O 0.23555 0.47135 0.76775
 O303 O 0.28121 0.50661 0.78677
 O304 O 0.27807 0.53493 0.78132
 O305 O 0.29891 0.48857 0.74642
 O306 O 0.29169 0.49380 0.71873
 O307 O 0.23814 0.54804 0.74752
 O308 O 0.24165 0.54237 0.77502
 O309 O 0.21722 0.50749 0.73074
 O310 O 0.22366 0.48042 0.73208
 O311 O 0.25421 0.52720 0.70657
 O312 O 0.28190 0.52478 0.71099
 Zr313 Zr 0.26506 0.52661 0.72833
 O314 O 0.28100 0.51353 0.74114
 Zr315 Zr 0.23943 0.49861 0.73025
 O316 O 0.25442 0.48423 0.74291
 Zr317 Zr 0.24037 0.52564 0.75734
 O318 O 0.25522 0.51231 0.77138
 Zr319 Zr 0.27681 0.48997 0.73756
 O320 O 0.26181 0.50302 0.72330
 Zr321 Zr 0.27763 0.51687 0.76490
 O322 O 0.26283 0.53147 0.75209
 Zr323 Zr 0.25235 0.48865 0.76671
 O324 O 0.23605 0.50192 0.75415
 O325 O 0.24265 0.52205 0.73376
 O326 O 0.27467 0.49337 0.76130
 C327 C 0.24478 0.55494 0.73616
 C328 C 0.24333 0.51931 0.70078
 C329 C 0.21087 0.51798 0.73902
 C330 C 0.27469 0.46137 0.75927
 C331 C 0.30541 0.49564 0.75762
 C332 C 0.27511 0.49503 0.79368
 H333 H 0.29136 0.51627 0.73791
 H334 H 0.25343 0.51465 0.78241
 H335 H 0.23548 0.52849 0.72761
 H336 H 0.25243 0.47327 0.74043
 H337 H 0.27128 0.47625 0.71169
 H338 H 0.24710 0.48252 0.70639
 H339 H 0.26980 0.53309 0.78877
 H340 H 0.25131 0.54790 0.77350
 H341 H 0.29905 0.48509 0.71859
 H342 H 0.28009 0.53297 0.70304
 H343 H 0.23735 0.49683 0.79110
 H344 H 0.22117 0.51421 0.77651
 H345 H 0.28172 0.54864 0.73883
 H346 H 0.29980 0.53362 0.75467
 H347 H 0.21966 0.48074 0.74276
 H348 H 0.23683 0.46459 0.75865
 O349 O 0.20387 0.01774 0.24932
 O350 O 0.21065 0.01517 0.27516
 O351 O 0.24344 0.03678 0.22780
 O352 O 0.26760 0.03040 0.22434
 O353 O 0.22017 -0.00204 0.20744
 O354 O 0.22026 -0.02908 0.21261
 O355 O 0.28322 -0.00878 0.26509
 O356 O 0.28066 0.01814 0.26193
 O357 O 0.24643 -0.02626 0.28670
 O358 O 0.21894 -0.02334 0.28388
 O359 O 0.26039 -0.04634 0.24580
 O360 O 0.25853 -0.04047 0.21880
 O361 O 0.28135 -0.02702 0.24629
 O362 O 0.27406 -0.02309 0.21726
 O363 O 0.24422 -0.04573 0.26617
 O364 O 0.21606 -0.03839 0.26597
 O365 O 0.26538 -0.00867 0.28576
 O366 O 0.26126 0.01994 0.28149
 O367 O 0.20139 -0.00048 0.23056
 O368 O 0.20567 -0.02876 0.23190
 O369 O 0.23926 0.01538 0.20576
 O370 O 0.26734 0.01062 0.21016
 O371 O 0.22572 0.03742 0.24683
 O372 O 0.23144 0.03079 0.27472
 Zr373 Zr 0.22638 0.01499 0.25676
 O374 O 0.23972 -0.00006 0.27058
 Zr375 Zr 0.25064 0.01358 0.22738
 O376 O 0.26548 -0.00072 0.24036
 Zr377 Zr 0.22265 -0.01180 0.22962
 O378 O 0.23653 -0.02771 0.24179
 Zr379 Zr 0.26236 0.00264 0.26421
 O380 O 0.24924 0.01875 0.25121
 Zr381 Zr 0.23478 -0.02325 0.26559
 O382 O 0.21982 -0.00819 0.25346
 Zr383 Zr 0.25945 -0.02383 0.23661
 O384 O 0.24531 -0.00957 0.22252
 O385 O 0.22804 0.01121 0.23310
 O386 O 0.25746 -0.02050 0.26030
 C387 C 0.19624 0.01076 0.23878
 C388 C 0.23330 0.04376 0.23580
 C389 C 0.22758 0.00848 0.20021
 C390 C 0.28836 -0.02041 0.25754
 C391 C 0.25829 -0.01985 0.29236
 C392 C 0.25408 -0.05254 0.25765
 H393 H 0.23828 0.00231 0.28167
 H394 H 0.23345 -0.03837 0.23924
 H395 H 0.22149 0.01837 0.22703
 H396 H 0.27608 0.00132 0.23743
 H397 H 0.27621 0.02835 0.25915
 H398 H 0.27497 0.02875 0.23286
 H399 H 0.21746 -0.04605 0.25764
 H400 H 0.20091 -0.02715 0.24212
 H401 H 0.27031 0.01870 0.28824
 H402 H 0.22401 0.03944 0.27422
 H403 H 0.24827 -0.04494 0.21894
 H404 H 0.22991 -0.02938 0.20687
 H405 H 0.20631 0.00466 0.27573
 H406 H 0.22072 -0.01402 0.29018
 H407 H 0.26397 0.00202 0.20349
 H408 H 0.28275 -0.01646 0.21993
 O409 O 0.48340 0.80242 0.24753
 O410 O 0.48784 0.79856 0.22124
 O411 O 0.45746 0.76361 0.26176
 O412 O 0.46073 0.73619 0.26172
 O413 O 0.49656 0.77692 0.28887
 O414 O 0.52282 0.77446 0.28588
 O415 O 0.49914 0.72054 0.22444
 O416 O 0.47369 0.72676 0.22500
 O417 O 0.52339 0.75775 0.20937
 O418 O 0.52432 0.78529 0.21534
 O419 O 0.53638 0.73497 0.24906
 O420 O 0.52852 0.73548 0.27644
 O421 O 0.51469 0.71726 0.24533
 O422 O 0.51022 0.72163 0.27401
 O423 O 0.54063 0.75455 0.23193
 O424 O 0.53724 0.78383 0.23495
 O425 O 0.50372 0.74131 0.20604
 O426 O 0.47635 0.74923 0.20806
 O427 O 0.49904 0.79964 0.26848
 O428 O 0.52600 0.79158 0.26874
 O429 O 0.47613 0.76132 0.28591
 O430 O 0.47643 0.73358 0.27911
 O431 O 0.46114 0.78347 0.24474
 O432 O 0.46969 0.78021 0.21729
 Zr433 Zr 0.48368 0.78046 0.23734
 O434 O 0.49763 0.76640 0.22354
 Zr435 Zr 0.47853 0.75230 0.26332
 O436 O 0.49156 0.73682 0.25016
 Zr437 Zr 0.50726 0.77660 0.26731
 O438 O 0.52185 0.76175 0.25509
 Zr439 Zr 0.49117 0.74329 0.22664
 O440 O 0.47617 0.75744 0.23945
 Zr441 Zr 0.52014 0.76719 0.23141
 O442 O 0.50656 0.78302 0.24380
 Zr443 Zr 0.51429 0.73875 0.25686
 O444 O 0.50108 0.75333 0.27109
 O445 O 0.48469 0.77525 0.26087
 O446 O 0.51375 0.74417 0.23339
 C447 C 0.48978 0.80756 0.25987
 C448 C 0.45290 0.77566 0.25419
 C449 C 0.48443 0.77056 0.29387
 C450 C 0.50847 0.71249 0.23273
 C451 C 0.51610 0.74761 0.20157
 C452 C 0.54464 0.74208 0.23914
 H453 H 0.49666 0.76958 0.21254
 H454 H 0.53230 0.76286 0.25902
 H455 H 0.47812 0.78208 0.26710
 H456 H 0.48769 0.72619 0.25155
 H457 H 0.46408 0.73234 0.22692
 H458 H 0.45652 0.73717 0.25112
 H459 H 0.54351 0.78036 0.24387
 H460 H 0.52582 0.79808 0.25923
 H461 H 0.47689 0.74080 0.20036
 H462 H 0.46249 0.78905 0.21779
 H463 H 0.53597 0.74396 0.27649
 H464 H 0.52218 0.76360 0.28958
 H465 H 0.49850 0.80163 0.22271
 H466 H 0.51553 0.78599 0.20823
 H467 H 0.48541 0.73385 0.28600
 H468 H 0.50147 0.71544 0.27059
 O469 O -0.00811 0.69897 0.73127
 O470 O -0.03428 0.70491 0.73108
 O471 O 0.01288 0.73812 0.71124
 O472 O 0.01135 0.76635 0.71674
 O473 O 0.02996 0.71970 0.75352
 O474 O 0.02213 0.72125 0.78021
 O475 O -0.02951 0.78112 0.74989
 O476 O -0.02347 0.77760 0.72398
 O477 O -0.05094 0.74279 0.76670
 O478 O -0.04601 0.71445 0.76614
 O479 O -0.01383 0.76007 0.79079
 O480 O 0.01408 0.75833 0.78730
 O481 O -0.01315 0.78037 0.77034
 O482 O 0.01493 0.77517 0.77080
 O483 O -0.03288 0.74266 0.78886
 O484 O -0.03102 0.71400 0.78408
 O485 O -0.04874 0.76159 0.74826
 O486 O -0.04146 0.75660 0.72067
 O487 O 0.00876 0.69884 0.75137
 O488 O 0.00507 0.70428 0.77855
 O489 O 0.03194 0.73852 0.73504
 O490 O 0.02677 0.76556 0.73484
 O491 O -0.00551 0.71986 0.71013
 O492 O -0.03307 0.72468 0.71318
 Zr493 Zr -0.01694 0.72170 0.73130
 O494 O -0.03223 0.73579 0.74349
 Zr495 Zr 0.01010 0.74823 0.73333
 O496 O -0.00404 0.76342 0.74566
 Zr497 Zr 0.00735 0.72117 0.76087
 O498 O -0.00691 0.73514 0.77439
 Zr499 Zr -0.02667 0.75915 0.73991
 O500 O -0.01243 0.74515 0.72605
 Zr501 Zr -0.02949 0.73201 0.76737
 O502 O -0.01533 0.71660 0.75516
 Zr503 Zr -0.00249 0.75853 0.76950
 O504 O 0.01311 0.74454 0.75736
 O505 O 0.00559 0.72504 0.73721
 O506 O -0.02504 0.75530 0.76368
 C507 C 0.00208 0.69238 0.73984
 C508 C 0.00584 0.72707 0.70440
 C509 C 0.03747 0.72741 0.74336
 C510 C -0.02356 0.78701 0.76213
 C511 C -0.05615 0.75437 0.75880
 C512 C -0.02572 0.75336 0.79599
 H513 H -0.04267 0.73370 0.73994
 H514 H -0.00536 0.73261 0.78548
 H515 H 0.01256 0.71825 0.73142
 H516 H -0.00141 0.77427 0.74321
 H517 H -0.01981 0.77294 0.71426
 H518 H 0.00358 0.76432 0.70874
 H519 H -0.02301 0.71562 0.79194
 H520 H -0.00501 0.69958 0.77709
 H521 H -0.04839 0.76568 0.72044
 H522 H -0.03174 0.71618 0.70564
 H523 H 0.01214 0.74926 0.79407
 H524 H 0.02745 0.73128 0.77990
 H525 H -0.03447 0.70013 0.74154
 H526 H -0.05170 0.71592 0.75633
 H527 H 0.02996 0.76586 0.74584
 H528 H 0.01364 0.78247 0.76199
 O529 O 0.00255 0.03939 0.01973
 O530 O -0.02313 0.03563 0.01831
 O531 O 0.01964 -0.00168 0.04209
 O532 O 0.01909 -0.02855 0.03708
 O533 O 0.04127 0.01612 0.00164
 O534 O 0.03600 0.01473 -0.02539
 O535 O -0.02110 -0.04133 0.00156
 O536 O -0.01830 -0.03645 0.02762
 O537 O -0.03909 -0.00148 -0.01956
 O538 O -0.03263 0.02587 -0.01966
 O539 O -0.00137 -0.02315 -0.03888
 O540 O 0.02511 -0.02394 -0.03382
 O541 O -0.00338 -0.04286 -0.01738
 O542 O 0.02557 -0.03846 -0.01493
 O543 O -0.01953 -0.00439 -0.03934
 O544 O -0.01513 0.02493 -0.03508
 O545 O -0.03930 -0.02093 -0.00165
 O546 O -0.03549 -0.01443 0.02675
 O547 O 0.02093 0.03831 0.00133
 O548 O 0.01891 0.03198 -0.02641
 O549 O 0.04084 -0.00233 0.02058
 O550 O 0.03388 -0.02999 0.01902
 O551 O 0.00257 0.01812 0.04176
 O552 O -0.02508 0.01553 0.03544
 Zr553 Zr -0.00713 0.01730 0.01931
 O554 O -0.02217 0.00449 0.00551
 Zr555 Zr 0.01860 -0.01106 0.01982
 O556 O 0.00427 -0.02542 0.00691
 Zr557 Zr 0.01937 0.01576 -0.00792
 O558 O 0.00577 0.00213 -0.02255
 Zr559 Zr -0.01846 -0.01906 0.01017
 O560 O -0.00425 -0.00628 0.02507
 Zr561 Zr -0.01703 0.00722 -0.01809
 O562 O -0.00340 0.02186 -0.00443
 Zr563 Zr 0.00825 -0.02148 -0.01671
 O564 O 0.02366 -0.00797 -0.00378
 O565 O 0.01558 0.01241 0.01554
 O566 O -0.01442 -0.01625 -0.01337
 C567 C 0.01342 0.04539 0.01193
 C568 C 0.01279 0.00972 0.04851
 C569 C 0.04753 0.00832 0.01273
 C570 C -0.01454 -0.04840 -0.00958
 C571 C -0.04532 -0.01312 -0.01289
 C572 C -0.01255 -0.01600 -0.04531
 H573 H -0.03274 0.00752 0.00775
 H574 H 0.00839 0.00414 -0.03350
 H575 H 0.02226 0.01883 0.02205
 H576 H 0.00605 -0.03633 0.01002
 H577 H -0.01585 -0.03129 0.03750
 H578 H 0.00903 -0.02847 0.04199
 H579 H -0.00819 0.02122 -0.04322
 H580 H 0.00946 0.03807 -0.02533
 H581 H -0.04295 -0.02292 0.02619
 H582 H -0.02368 0.02349 0.04354
 H583 H 0.02623 -0.01374 -0.03895
 H584 H 0.04039 0.00417 -0.02486
 H585 H -0.02333 0.03941 0.00745
 H586 H -0.03866 0.02583 -0.01004
 H587 H 0.03987 -0.02872 0.00944
 H588 H 0.02246 -0.04621 -0.00709
 O589 O 0.04120 0.52149 0.50082
 O590 O 0.03534 0.52155 0.47430
 O591 O 0.00228 0.54094 0.52223
 O592 O -0.02423 0.53442 0.52290
 O593 O 0.02255 0.49916 0.54015
 O594 O 0.02122 0.47270 0.53325
 O595 O -0.03884 0.50149 0.48071
 O596 O -0.03506 0.52742 0.48521
 O597 O -0.00113 0.48380 0.45867
 O598 O 0.02643 0.48535 0.46273
 O599 O -0.01799 0.46106 0.49588
 O600 O -0.01563 0.46402 0.52466
 O601 O -0.03798 0.48134 0.49786
 O602 O -0.03185 0.48072 0.52628
 O603 O 0.00018 0.46227 0.47741
 O604 O 0.02804 0.46836 0.47903
 O605 O -0.02005 0.50168 0.46013
 O606 O -0.01483 0.52976 0.46645
 O607 O 0.04239 0.50100 0.51762
 O608 O 0.03676 0.47353 0.51491
 O609 O 0.00434 0.51771 0.54249
 O610 O -0.02300 0.51556 0.53767
 O611 O 0.02023 0.54228 0.50350
 O612 O 0.01538 0.53856 0.47528
 Zr613 Zr 0.01899 0.52084 0.49213
 O614 O 0.00558 0.50796 0.47676
 Zr615 Zr -0.00634 0.51830 0.52041
 O616 O -0.02110 0.50582 0.50594
 Zr617 Zr 0.02052 0.49143 0.51732
 O618 O 0.00678 0.47745 0.50334
 Zr619 Zr -0.01724 0.51119 0.48248
 O620 O -0.00393 0.52542 0.49706
 Zr621 Zr 0.00974 0.48424 0.48019
 O622 O 0.02463 0.49714 0.49406
 Zr623 Zr -0.01615 0.48207 0.50790
 O624 O -0.00230 0.49442 0.52359
 O625 O 0.01630 0.51501 0.51533
 O626 O -0.01312 0.48755 0.48470
 C627 C 0.04825 0.51275 0.51067
 C628 C 0.01277 0.54808 0.51483
 C629 C 0.01556 0.50962 0.54785
 C630 C -0.04472 0.48963 0.48739
 C631 C -0.01281 0.49083 0.45314
 C632 C -0.01085 0.45550 0.48422
 H633 H 0.00750 0.51126 0.46595
 H634 H 0.00942 0.46643 0.50507
 H635 H 0.02298 0.52117 0.52210
 H636 H -0.03167 0.50824 0.50874
 H637 H -0.03037 0.53722 0.48851
 H638 H -0.02428 0.54101 0.51348
 H639 H 0.02643 0.46022 0.48698
 H640 H 0.04187 0.47537 0.50489
 H641 H -0.02365 0.52955 0.45931
 H642 H 0.02333 0.54650 0.47652
 H643 H -0.00678 0.45734 0.52245
 H644 H 0.01105 0.47218 0.53796
 H645 H 0.03972 0.51100 0.47362
 H646 H 0.02481 0.49506 0.45678
 H647 H -0.02135 0.50519 0.54238
 H648 H -0.03850 0.48996 0.52560
 O649 O 0.50340 0.04052 0.52409
 O650 O 0.47769 0.03360 0.52337
 O651 O 0.52737 0.00104 0.53926
 O652 O 0.52774 -0.02615 0.53105
 O653 O 0.54219 0.02477 0.49895
 O654 O 0.53383 0.02627 0.47262
 O655 O 0.48740 -0.03983 0.49674
 O656 O 0.49304 -0.03843 0.52295
 O657 O 0.46300 -0.00160 0.48322
 O658 O 0.46557 0.02663 0.48679
 O659 O 0.50074 -0.01413 0.45800
 O660 O 0.52833 -0.01113 0.46144
 O661 O 0.50351 -0.03647 0.47654
 O662 O 0.53110 -0.02898 0.47657
 O663 O 0.48066 0.00202 0.46147
 O664 O 0.48079 0.03027 0.46949
 O665 O 0.46667 -0.02204 0.49958
 O666 O 0.47351 -0.01904 0.52775
 O667 O 0.51948 0.04428 0.50388
 O668 O 0.51543 0.04143 0.47606
 O669 O 0.54579 0.00433 0.51540
 O670 O 0.54226 -0.02299 0.51269
 O671 O 0.50750 0.01753 0.54255
 O672 O 0.48008 0.01189 0.53870
 Zr673 Zr 0.49588 0.01770 0.52121
 O674 O 0.48135 0.00428 0.50745
 Zr675 Zr 0.52469 -0.00671 0.51626
 O676 O 0.51133 -0.02130 0.50255
 Zr677 Zr 0.51949 0.02300 0.49185
 O678 O 0.50618 0.00951 0.47686
 Zr679 Zr 0.48852 -0.01887 0.50865
 O680 O 0.50212 -0.00578 0.52391
 Zr681 Zr 0.48353 0.01057 0.48404
 O682 O 0.49664 0.02543 0.49801
 Zr683 Zr 0.51228 -0.01397 0.47933
 O684 O 0.52698 -0.00024 0.49279
 O685 O 0.51851 0.01644 0.51496
 O686 O 0.48963 -0.01265 0.48536
 C687 C 0.51278 0.04881 0.51631
 C688 C 0.51959 0.01063 0.54737
 C689 C 0.55046 0.01639 0.50807
 C690 C 0.49374 -0.04439 0.48420
 C691 C 0.45873 -0.01432 0.48964
 C692 C 0.48841 -0.00758 0.45340
 H693 H 0.47082 0.00537 0.51110
 H694 H 0.50740 0.01324 0.46609
 H695 H 0.52517 0.02290 0.52144
 H696 H 0.51475 -0.03216 0.50394
 H697 H 0.49630 -0.03445 0.53314
 H698 H 0.51958 -0.02580 0.53884
 H699 H 0.48846 0.02966 0.46121
 H700 H 0.50524 0.04558 0.47841
 H701 H 0.46725 -0.02848 0.52697
 H702 H 0.48112 0.01937 0.54730
 H703 H 0.52581 -0.00141 0.45583
 H704 H 0.53943 0.01641 0.47129
 H705 H 0.47675 0.03913 0.51331
 H706 H 0.46047 0.02414 0.49667
 H707 H 0.54581 -0.02135 0.50194
 H708 H 0.53045 -0.03726 0.48453
 O709 O 0.51229 0.53636 0.02342
 O710 O 0.48596 0.53469 0.01965
 O711 O 0.52440 0.49468 0.04705
 O712 O 0.51966 0.46715 0.04173
 O713 O 0.54992 0.50831 0.00760
 O714 O 0.54573 0.50828 -0.01971
 O715 O 0.48253 0.45801 0.00181
 O716 O 0.48466 0.46154 0.02853
 O717 O 0.46961 0.49916 -0.01885
 O718 O 0.47829 0.52616 -0.01746
 O719 O 0.50615 0.47451 -0.03551
 O720 O 0.53367 0.47271 -0.02789
 O721 O 0.50235 0.45501 -0.01462
 O722 O 0.53017 0.45638 -0.01129
 O723 O 0.49025 0.49528 -0.03708
 O724 O 0.49618 0.52377 -0.03219
 O725 O 0.46628 0.48044 -0.00055
 O726 O 0.46955 0.48522 0.02811
 O727 O 0.53175 0.53308 0.00651
 O728 O 0.53132 0.52754 -0.02088
 O729 O 0.54628 0.49068 0.02694
 O730 O 0.53716 0.46455 0.02605
 O731 O 0.50895 0.51577 0.04509
 O732 O 0.48173 0.51536 0.03742
 Zr733 Zr 0.50052 0.51526 0.02223
 O734 O 0.48534 0.50357 0.00755
 Zr735 Zr 0.52336 0.48461 0.02485
 O736 O 0.50914 0.47159 0.01038
 Zr737 Zr 0.52858 0.51096 -0.00297
 O738 O 0.51470 0.49906 -0.01868
 Zr739 Zr 0.48676 0.47966 0.01202
 O740 O 0.50070 0.49148 0.02813
 Zr741 Zr 0.49214 0.50614 -0.01555
 O742 O 0.50630 0.51936 -0.00108
 Zr743 Zr 0.51500 0.47540 -0.01287
 O744 O 0.53039 0.48705 0.00166
 O745 O 0.52291 0.50817 0.02015
 O746 O 0.49260 0.48249 -0.01108
 C747 C 0.52434 0.54103 0.01652
 C748 C 0.51818 0.50692 0.05267
 C749 C 0.55463 0.49997 0.01908
 C750 C 0.48991 0.45043 -0.00854
 C751 C 0.46174 0.48854 -0.01228
 C752 C 0.49618 0.48289 -0.04256
 H753 H 0.47493 0.50746 0.00919
 H754 H 0.51815 0.50093 -0.02940
 H755 H 0.52989 0.51391 0.02697
 H756 H 0.50981 0.46053 0.01337
 H757 H 0.48740 0.46594 0.03870
 H758 H 0.51082 0.47044 0.04789
 H759 H 0.50405 0.52000 -0.03936
 H760 H 0.52196 0.53389 -0.02112
 H761 H 0.46144 0.47743 0.02698
 H762 H 0.48319 0.52364 0.04517
 H763 H 0.53325 0.48119 -0.03567
 H764 H 0.54894 0.49728 -0.01921
 H765 H 0.48767 0.53897 0.00913
 H766 H 0.47122 0.52608 -0.00862
 H767 H 0.54270 0.46407 0.01613
 H768 H 0.52741 0.45019 -0.00204
 O769 O 0.76181 0.26174 0.46347
 O770 O 0.73572 0.26062 0.46602
 O771 O 0.77673 0.28519 0.50417
 O772 O 0.77339 0.28088 0.53179
 O773 O 0.79925 0.24419 0.49011
 O774 O 0.79403 0.21732 0.49246
 O775 O 0.73330 0.24532 0.54348
 O776 O 0.73667 0.27135 0.53826
 O777 O 0.71849 0.22334 0.50459
 O778 O 0.72557 0.22356 0.47704
 O779 O 0.75504 0.20472 0.52776
 O780 O 0.78153 0.21045 0.53019
 O781 O 0.75148 0.22680 0.54691
 O782 O 0.78014 0.22883 0.54450
 O783 O 0.73885 0.20350 0.50727
 O784 O 0.74304 0.20836 0.47859
 O785 O 0.71615 0.24296 0.52178
 O786 O 0.72100 0.27095 0.51501
 O787 O 0.78015 0.24328 0.46672
 O788 O 0.77829 0.21596 0.47410
 O789 O 0.79738 0.26407 0.50715
 O790 O 0.78930 0.26323 0.53443
 O791 O 0.76084 0.28441 0.48337
 O792 O 0.73298 0.27870 0.48505
 Zr793 Zr 0.75086 0.26218 0.48503
 O794 O 0.73518 0.24880 0.49761
 Zr795 Zr 0.77478 0.26338 0.51487
 O796 O 0.75981 0.25075 0.52890
 Zr797 Zr 0.77741 0.23483 0.48952
 O798 O 0.76312 0.22067 0.50275
 Zr799 Zr 0.73742 0.25392 0.52118
 O800 O 0.75220 0.26852 0.50852
 Zr801 Zr 0.74062 0.22516 0.49612
 O802 O 0.75505 0.23832 0.48179
 Zr803 Zr 0.76419 0.22704 0.52622
 O804 O 0.78024 0.23970 0.51324
 O805 O 0.77320 0.25834 0.49150
 O806 O 0.74177 0.23027 0.51957
 C807 C 0.77311 0.25369 0.45862
 C808 C 0.77081 0.29118 0.49185
 C809 C 0.80475 0.25584 0.49731
 C810 C 0.73981 0.23451 0.55142
 C811 C 0.71106 0.23096 0.51479
 C812 C 0.74529 0.19765 0.51938
 H813 H 0.72477 0.25105 0.49392
 H814 H 0.76604 0.20973 0.50122
 H815 H 0.78021 0.26451 0.48509
 H816 H 0.76090 0.25408 0.53978
 H817 H 0.73979 0.28109 0.53314
 H818 H 0.76423 0.28708 0.52936
 H819 H 0.75124 0.20115 0.48182
 H820 H 0.76927 0.21688 0.46730
 H821 H 0.71306 0.27082 0.52307
 H822 H 0.73479 0.28637 0.47665
 H823 H 0.78269 0.20445 0.52055
 H824 H 0.79790 0.21826 0.50320
 H825 H 0.73566 0.24962 0.46293
 H826 H 0.71896 0.23284 0.47702
 H827 H 0.79500 0.25333 0.53421
 H828 H 0.77708 0.23763 0.55108
 O829 O 0.77030 0.78316 -0.00452
 O830 O 0.76813 0.77878 0.02224
 O831 O 0.79190 0.74334 -0.02214
 O832 O 0.78689 0.71566 -0.02080
 O833 O 0.75181 0.76069 -0.04418
 O834 O 0.72546 0.75921 -0.03845
 O835 O 0.75268 0.70145 0.01864
 O836 O 0.77775 0.70634 0.01589
 O837 O 0.73200 0.74010 0.03783
 O838 O 0.73248 0.76818 0.03225
 O839 O 0.71273 0.72086 -0.00110
 O840 O 0.71805 0.72118 -0.02870
 O841 O 0.73397 0.70084 0.00043
 O842 O 0.73530 0.70585 -0.02849
 O843 O 0.71212 0.73963 0.01717
 O844 O 0.71704 0.76830 0.01485
 O845 O 0.75072 0.72194 0.03841
 O846 O 0.77793 0.72803 0.03359
 O847 O 0.75179 0.78264 -0.02298
 O848 O 0.72508 0.77646 -0.02132
 O849 O 0.77019 0.74211 -0.04386
 O850 O 0.77022 0.71509 -0.03715
 O851 O 0.79136 0.76243 -0.00415
 O852 O 0.78560 0.75908 0.02395
 Zr853 Zr 0.76961 0.76098 0.00559
 O854 O 0.75648 0.74741 0.02076
 Zr855 Zr 0.77025 0.73337 -0.02102
 O856 O 0.75753 0.71858 -0.00683
 Zr857 Zr 0.74291 0.76003 -0.02164
 O858 O 0.72878 0.74611 -0.00783
 Zr859 Zr 0.76102 0.72398 0.01658
 O860 O 0.77543 0.73751 0.00245
 Zr861 Zr 0.73340 0.75030 0.01566
 O862 O 0.74641 0.76547 0.00179
 Zr863 Zr 0.73440 0.72264 -0.01078
 O864 O 0.74712 0.73646 -0.02624
 O865 O 0.76586 0.75669 -0.01777
 O866 O 0.73789 0.72687 0.01263
 C867 C 0.76256 0.78942 -0.01562
 C868 C 0.79801 0.75457 -0.01475
 C869 C 0.76226 0.75269 -0.05071
 C870 C 0.74191 0.69463 0.01141
 C871 C 0.73945 0.72906 0.04451
 C872 C 0.70614 0.72832 0.00979
 H873 H 0.75887 0.75005 0.03163
 H874 H 0.71810 0.74830 -0.01053
 H875 H 0.77206 0.76325 -0.02467
 H876 H 0.76053 0.70775 -0.00891
 H877 H 0.78736 0.71139 0.01308
 H878 H 0.79324 0.71723 -0.01148
 H879 H 0.71011 0.76625 0.00608
 H880 H 0.72587 0.78193 -0.01132
 H881 H 0.77782 0.71924 0.04105
 H882 H 0.79310 0.76749 0.02279
 H883 H 0.71193 0.73080 -0.02853
 H884 H 0.72602 0.74880 -0.04312
 H885 H 0.75763 0.78282 0.02181
 H886 H 0.74178 0.76749 0.03865
 H887 H 0.76013 0.71521 -0.04217
 H888 H 0.74392 0.69881 -0.02621
 O889 O 1.04240 0.24085 0.24728
 O890 O 1.03743 0.24459 0.27390
 O891 O 1.00460 0.21850 0.22893
 O892 O 0.97704 0.22378 0.22974
 O893 O 1.02138 0.25803 0.20596
 O894 O 1.01949 0.28541 0.21023
 O895 O 0.96219 0.26150 0.26664
 O896 O 0.96660 0.23529 0.26474
 O897 O 0.99961 0.28202 0.28634
 O898 O 1.02693 0.28123 0.28154
 O899 O 0.98151 0.30061 0.24542
 O900 O 0.98279 0.29350 0.21778
 O901 O 0.96178 0.27935 0.24709
 O902 O 0.96710 0.27672 0.21883
 O903 O 0.99921 0.30159 0.26456
 O904 O 1.02729 0.29630 0.26353
 O905 O 0.98144 0.26356 0.28667
 O906 O 0.98730 0.23522 0.28336
 O907 O 1.04231 0.25930 0.22821
 O908 O 1.03595 0.28655 0.22777
 O909 O 1.00377 0.23896 0.20667
 O910 O 0.97710 0.24006 0.21181
 O911 O 1.02216 0.21949 0.24827
 O912 O 1.01836 0.22677 0.27569
 Zr913 Zr 1.02052 0.24227 0.25662
 O914 O 1.00678 0.25643 0.27052
 Zr915 Zr 0.99429 0.24060 0.22891
 O916 O 0.97938 0.25449 0.24174
 Zr917 Zr 1.02009 0.26837 0.22796
 O918 O 1.00620 0.28355 0.24059
 Zr919 Zr 0.98400 0.25197 0.26550
 O920 O 0.99769 0.23640 0.25277
 Zr921 Zr 1.00976 0.27975 0.26443
 O922 O 1.02491 0.26576 0.25175
 Zr923 Zr 0.98337 0.27794 0.23687
 O924 O 0.99725 0.26400 0.22262
 O925 O 1.01692 0.24513 0.23296
 O926 O 0.98698 0.27539 0.26058
 C927 C 1.04877 0.24847 0.23624
 C928 C 1.01525 0.21245 0.23728
 C929 C 1.01423 0.24666 0.19984
 C930 C 0.95565 0.27227 0.25862
 C931 C 0.98848 0.27498 0.29275
 C932 C 0.98847 0.30761 0.25639
 H933 H 1.00905 0.25442 0.28160
 H934 H 1.00841 0.29433 0.23747
 H935 H 1.02361 0.23845 0.22671
 H936 H 0.96884 0.25150 0.23942
 H937 H 0.97148 0.22528 0.26231
 H938 H 0.97911 0.21712 0.23891
 H939 H 1.02536 0.30314 0.25448
 H940 H 1.04087 0.28648 0.23810
 H941 H 0.97856 0.23593 0.29047
 H942 H 1.02678 0.21912 0.27537
 H943 H 0.99178 0.30020 0.21855
 H944 H 1.00954 0.28448 0.20503
 H945 H 1.04177 0.25505 0.27261
 H946 H 1.02637 0.27183 0.28813
 H947 H 0.97733 0.25021 0.20639
 H948 H 0.96078 0.26751 0.22077
 O949 O 0.70800 1.01644 0.74840
 O950 O 0.71145 1.01177 0.77512
 O951 O 0.74917 1.03602 0.73326
 O952 O 0.77596 1.02781 0.73544
 O953 O 0.73010 0.99883 0.70797
 O954 O 0.72924 0.97127 0.71193
 O955 O 0.78474 0.98738 0.77297
 O956 O 0.78335 1.01426 0.77057
 O957 O 0.74615 0.96953 0.78870
 O958 O 0.71837 0.97462 0.78304
 O959 O 0.76352 0.95157 0.74961
 O960 O 0.76415 0.95966 0.72169
 O961 O 0.78486 0.97070 0.75268
 O962 O 0.78156 0.97439 0.72439
 O963 O 0.74400 0.95139 0.76659
 O964 O 0.71720 0.95982 0.76496
 O965 O 0.76450 0.98761 0.79133
 O966 O 0.76157 1.01621 0.78784
 O967 O 0.70775 0.99878 0.72890
 O968 O 0.71166 0.97130 0.72794
 O969 O 0.74909 1.01630 0.71046
 O970 O 0.77518 1.01241 0.71721
 O971 O 0.72983 1.03587 0.75051
 O972 O 0.73189 1.02774 0.77821
 Zr973 Zr 0.72930 1.01292 0.75891
 O974 O 0.74097 0.99711 0.77351
 Zr975 Zr 0.75717 1.01296 0.73319
 O976 O 0.77001 0.99727 0.74669
 Zr977 Zr 0.72910 0.98780 0.72985
 O978 O 0.74072 0.97098 0.74316
 Zr979 Zr 0.76429 0.99957 0.77010
 O980 O 0.75275 1.01676 0.75681
 Zr981 Zr 0.73625 0.97438 0.76682
 O982 O 0.72318 0.99009 0.75330
 Zr983 Zr 0.76412 0.97448 0.74109
 O984 O 0.75249 0.99017 0.72621
 O985 O 0.73399 1.01048 0.73550
 O986 O 0.75946 0.97673 0.76452
 C987 C 0.70163 1.00967 0.73686
 C988 C 0.73832 1.04269 0.74056
 C989 C 0.73853 1.00973 0.70269
 C990 C 0.79070 0.97640 0.76505
 C991 C 0.75710 0.97582 0.79620
 C992 C 0.75488 0.94473 0.75941
 H993 H 0.73832 0.99900 0.78445
 H994 H 0.73767 0.96059 0.73967
 H995 H 0.72822 1.01792 0.72895
 H996 H 0.78090 0.99925 0.74516
 H997 H 0.77960 1.02486 0.76831
 H998 H 0.77414 1.03434 0.74462
 H999 H 0.71826 0.95385 0.75529
 H1000 H 0.70619 0.97139 0.73791
 H1001 H 0.76995 1.01469 0.79539
 H1002 H 0.72423 1.03617 0.77740
 H1003 H 0.75489 0.95333 0.72216
 H1004 H 0.73952 0.97140 0.70747
 H1005 H 0.70686 1.00142 0.77405
 H1006 H 0.72093 0.98210 0.79125
 H1007 H 0.77437 1.00248 0.71164
 H1008 H 0.78825 0.98325 0.72655
 O1009 O 0.76852 0.45844 0.25338
 O1010 O 0.76611 0.46242 0.22709
 O1011 O 0.78846 0.50113 0.26931
 O1012 O 0.78222 0.52613 0.27098
 O1013 O 0.74993 0.48053 0.29355
 O1014 O 0.72365 0.48036 0.28848
 O1015 O 0.74541 0.53856 0.22921
 O1016 O 0.77102 0.53494 0.23161
 O1017 O 0.72686 0.49817 0.21159
 O1018 O 0.72901 0.47042 0.21813
 O1019 O 0.70767 0.51837 0.24964
 O1020 O 0.71255 0.51893 0.27687
 O1021 O 0.72746 0.53902 0.24800
 O1022 O 0.73029 0.53394 0.27755
 O1023 O 0.70742 0.49857 0.23249
 O1024 O 0.71400 0.47029 0.23569
 O1025 O 0.74436 0.51726 0.21006
 O1026 O 0.77208 0.51298 0.21480
 O1027 O 0.75101 0.45839 0.27267
 O1028 O 0.72348 0.46336 0.27111
 O1029 O 0.76822 0.49885 0.29225
 O1030 O 0.76326 0.52718 0.28525
 O1031 O 0.78852 0.48071 0.25285
 O1032 O 0.78178 0.48307 0.22475
 Zr1033 Zr 0.76646 0.48056 0.24344
 O1034 O 0.75202 0.49292 0.22829
 Zr1035 Zr 0.76584 0.50851 0.26974
 O1036 O 0.75212 0.52247 0.25519
 Zr1037 Zr 0.74046 0.48046 0.27117
 O1038 O 0.72514 0.49355 0.25745
 Zr1039 Zr 0.75525 0.51662 0.23184
 O1040 O 0.77070 0.50433 0.24621
 Zr1041 Zr 0.72932 0.48895 0.23403
 O1042 O 0.74373 0.47480 0.24781
 Zr1043 Zr 0.72938 0.51739 0.25962
 O1044 O 0.74310 0.50431 0.27531
 O1045 O 0.76306 0.48492 0.26681
 O1046 O 0.73248 0.51266 0.23630
 C1047 C 0.76161 0.45193 0.26473
 C1048 C 0.79507 0.48985 0.26243
 C1049 C 0.76092 0.48816 0.29946
 C1050 C 0.73455 0.54517 0.23650
 C1051 C 0.73354 0.50920 0.20436
 C1052 C 0.70122 0.51025 0.23912
 H1053 H 0.75426 0.49007 0.21746
 H1054 H 0.71465 0.49101 0.26036
 H1055 H 0.77005 0.47874 0.27342
 H1056 H 0.75447 0.53349 0.25695
 H1057 H 0.78082 0.53046 0.23511
 H1058 H 0.78122 0.53224 0.26129
 H1059 H 0.70715 0.47234 0.24447
 H1060 H 0.72484 0.45734 0.26149
 H1061 H 0.77109 0.52135 0.20691
 H1062 H 0.79007 0.47535 0.22605
 H1063 H 0.70822 0.50848 0.27819
 H1064 H 0.72321 0.49102 0.29260
 H1065 H 0.75576 0.45813 0.22722
 H1066 H 0.73789 0.47151 0.21130
 H1067 H 0.75505 0.52436 0.29248
 H1068 H 0.73758 0.54201 0.27444
 O1069 O 0.54571 0.23672 0.75583
 O1070 O 0.53873 0.23954 0.78186
 O1071 O 0.50757 0.21698 0.73386
 O1072 O 0.48076 0.22397 0.73208
 O1073 O 0.52853 0.25616 0.71316
 O1074 O 0.52811 0.28329 0.71824
 O1075 O 0.46525 0.26143 0.76926
 O1076 O 0.46866 0.23481 0.76712
 O1077 O 0.50286 0.27895 0.79256
 O1078 O 0.53027 0.27713 0.78923
 O1079 O 0.48751 0.29945 0.75126
 O1080 O 0.49128 0.29367 0.72338
 O1081 O 0.46761 0.28005 0.75060
 O1082 O 0.47484 0.27712 0.72226
 O1083 O 0.50301 0.29847 0.77235
 O1084 O 0.53195 0.29290 0.77127
 O1085 O 0.48287 0.26268 0.79043
 O1086 O 0.48770 0.23385 0.78763
 O1087 O 0.54773 0.25509 0.73683
 O1088 O 0.54313 0.28291 0.73723
 O1089 O 0.51011 0.23794 0.71208
 O1090 O 0.48298 0.24090 0.71515
 O1091 O 0.52416 0.21640 0.75411
 O1092 O 0.51849 0.22314 0.78146
 Zr1093 Zr 0.52312 0.23896 0.76317
 O1094 O 0.50924 0.25363 0.77643
 Zr1095 Zr 0.49890 0.23971 0.73349
 O1096 O 0.48384 0.25407 0.74562
 Zr1097 Zr 0.52626 0.26580 0.73539
 O1098 O 0.51232 0.28155 0.74733
 Zr1099 Zr 0.48663 0.25068 0.76960
 O1100 O 0.50031 0.23467 0.75742
 Zr1101 Zr 0.51397 0.27684 0.77120
 O1102 O 0.52919 0.26223 0.75937
 Zr1103 Zr 0.48959 0.27729 0.74167
 O1104 O 0.50369 0.26298 0.72812
 O1105 O 0.52142 0.24268 0.73940
 O1106 O 0.49141 0.27379 0.76541
 C1107 C 0.55316 0.24399 0.74529
 C1108 C 0.51738 0.21007 0.74259
 C1109 C 0.52136 0.24528 0.70624
 C1110 C 0.46023 0.27312 0.76141
 C1111 C 0.49039 0.27323 0.79748
 C1112 C 0.49282 0.30506 0.76387
 H1113 H 0.51063 0.25127 0.78760
 H1114 H 0.51522 0.29231 0.74483
 H1115 H 0.52816 0.23574 0.73351
 H1116 H 0.47334 0.25180 0.74242
 H1117 H 0.47332 0.22453 0.76538
 H1118 H 0.48109 0.21757 0.74163
 H1119 H 0.52925 0.30152 0.76414
 H1120 H 0.54716 0.28219 0.74794
 H1121 H 0.47847 0.23510 0.79399
 H1122 H 0.52634 0.21486 0.78148
 H1123 H 0.50021 0.30017 0.72546
 H1124 H 0.51830 0.28361 0.71267
 H1125 H 0.54366 0.24979 0.78145
 H1126 H 0.52887 0.26765 0.79556
 H1127 H 0.48451 0.25097 0.70985
 H1128 H 0.46718 0.26902 0.72407
 O1129 O 0.29194 0.76169 0.48796
 O1130 O 0.28974 0.73494 0.49061
 O1131 O 0.25198 0.77567 0.46339
 O1132 O 0.22508 0.77381 0.46814
 O1133 O 0.26666 0.79993 0.50390
 O1134 O 0.26356 0.79511 0.53121
 O1135 O 0.21385 0.73301 0.50403
 O1136 O 0.21902 0.73613 0.47812
 O1137 O 0.25239 0.71724 0.52675
 O1138 O 0.27914 0.72503 0.52697
 O1139 O 0.22889 0.75421 0.54424
 O1140 O 0.22753 0.78212 0.53855
 O1141 O 0.21052 0.75183 0.52200
 O1142 O 0.21323 0.78094 0.52011
 O1143 O 0.24936 0.73826 0.54640
 O1144 O 0.27715 0.74258 0.54220
 O1145 O 0.23505 0.71552 0.50730
 O1146 O 0.24165 0.72003 0.47925
 O1147 O 0.28904 0.78041 0.50617
 O1148 O 0.28178 0.77911 0.53342
 O1149 O 0.24965 0.79809 0.48412
 O1150 O 0.22323 0.79029 0.48495
 O1151 O 0.27234 0.75950 0.46540
 O1152 O 0.27138 0.73150 0.47225
 Zr1153 Zr 0.27107 0.75024 0.48799
 O1154 O 0.25865 0.73442 0.50141
 Zr1155 Zr 0.24201 0.77501 0.48549
 O1156 O 0.22826 0.75995 0.49839
 Zr1157 Zr 0.26676 0.77783 0.51433
 O1158 O 0.25387 0.76325 0.52875
 Zr1159 Zr 0.23568 0.73701 0.49581
 O1160 O 0.24817 0.75181 0.48111
 Zr1161 Zr 0.26026 0.74013 0.52493
 O1162 O 0.27427 0.75485 0.51172
 Zr1163 Zr 0.23094 0.76442 0.52211
 O1164 O 0.24361 0.78071 0.50910
 O1165 O 0.26481 0.77324 0.49087
 O1166 O 0.23736 0.74145 0.51941
 C1167 C 0.29678 0.77327 0.49581
 C1168 C 0.26377 0.76900 0.45780
 C1169 C 0.25952 0.80556 0.49208
 C1170 C 0.20605 0.73986 0.51448
 C1171 C 0.24216 0.70998 0.51915
 C1172 C 0.23711 0.74426 0.55166
 H1173 H 0.26220 0.72374 0.49942
 H1174 H 0.25535 0.76622 0.53968
 H1175 H 0.27101 0.78018 0.48435
 H1176 H 0.21764 0.76114 0.49489
 H1177 H 0.22406 0.73897 0.46831
 H1178 H 0.22681 0.76405 0.46250
 H1179 H 0.27411 0.75122 0.54897
 H1180 H 0.28818 0.76966 0.53313
 H1181 H 0.23379 0.71191 0.47950
 H1182 H 0.27971 0.73311 0.46476
 H1183 H 0.23674 0.78266 0.54507
 H1184 H 0.25308 0.79899 0.52984
 H1185 H 0.29321 0.73573 0.50149
 H1186 H 0.27926 0.71832 0.51774
 H1187 H 0.22331 0.79593 0.49489
 H1188 H 0.20724 0.77843 0.51077
 O1189 O 0.28251 0.25851 0.97934
 O1190 O 0.27707 0.23185 0.98113
 O1191 O 0.24502 0.27907 0.95668
 O1192 O 0.21780 0.27965 0.96133
 O1193 O 0.26250 0.29836 0.99822
 O1194 O 0.25916 0.29229 1.02534
 O1195 O 0.20145 0.23937 0.99518
 O1196 O 0.20684 0.24339 0.96946
 O1197 O 0.23790 0.21715 1.01622
 O1198 O 0.26533 0.22132 1.01703
 O1199 O 0.21971 0.25646 1.03653
 O1200 O 0.22171 0.28433 1.03203
 O1201 O 0.20119 0.25679 1.01483
 O1202 O 0.20716 0.28577 1.01369
 O1203 O 0.23726 0.23713 1.03736
 O1204 O 0.26557 0.23806 1.03331
 O1205 O 0.22019 0.21894 0.99706
 O1206 O 0.22722 0.22422 0.96932
 O1207 O 0.28240 0.27595 0.99902
 O1208 O 0.27529 0.27397 1.02619
 O1209 O 0.24490 0.30000 0.97890
 O1210 O 0.21794 0.29551 0.97893
 O1211 O 0.26276 0.25986 0.95737
 O1212 O 0.25832 0.23188 0.96267
 Zr1213 Zr 0.26045 0.24957 0.97944
 O1214 O 0.24611 0.23488 0.99212
 Zr1215 Zr 0.23476 0.27800 0.97866
 O1216 O 0.21925 0.26433 0.99094
 Zr1217 Zr 0.25998 0.27585 1.00735
 O1218 O 0.24536 0.26242 1.02113
 Zr1219 Zr 0.22360 0.24081 0.98693
 O1220 O 0.23789 0.25452 0.97289
 Zr1221 Zr 0.24855 0.23890 1.01596
 O1222 O 0.26435 0.25227 1.00339
 Zr1223 Zr 0.22277 0.26709 1.01480
 O1224 O 0.23735 0.28214 1.00254
 O1225 O 0.25718 0.27295 0.98370
 O1226 O 0.22603 0.24366 1.01075
 C1227 C 0.28891 0.26883 0.98778
 C1228 C 0.25581 0.27117 0.95057
 C1229 C 0.25573 0.30563 0.98707
 C1230 C 0.19502 0.24616 1.00660
 C1231 C 0.22678 0.21174 1.00832
 C1232 C 0.22615 0.24478 1.04318
 H1233 H 0.24825 0.22396 0.98947
 H1234 H 0.24726 0.26455 1.03220
 H1235 H 0.26412 0.27947 0.97757
 H1236 H 0.20883 0.26713 0.98771
 H1237 H 0.21217 0.24603 0.95975
 H1238 H 0.21895 0.27047 0.95465
 H1239 H 0.26354 0.24650 1.04070
 H1240 H 0.28016 0.26365 1.02541
 H1241 H 0.21828 0.21735 0.96908
 H1242 H 0.26681 0.23277 0.95525
 H1243 H 0.23101 0.28341 1.03840
 H1244 H 0.24937 0.29783 1.02418
 H1245 H 0.28108 0.23204 0.99186
 H1246 H 0.26502 0.21567 1.00712
 H1247 H 0.21831 0.30017 0.98937
 H1248 H 0.20007 0.28385 1.00502
 C1249 C 0.28924 0.36699 0.80134
 C1250 C 0.29802 0.37888 0.79460
 C1251 C 0.31380 0.37619 0.79320
 C1252 C 0.32046 0.36254 0.79914
 C1253 C 0.31164 0.35109 0.80621
 C1254 C 0.29595 0.35339 0.80699
 C1255 C 0.32288 0.38718 0.78597
 C1256 C 0.31668 0.40075 0.77988
 C1257 C 0.30108 0.40409 0.78113
 C1258 C 0.29170 0.39324 0.78911
 C1259 C 0.27642 0.39727 0.79172
 C1260 C 0.27042 0.41129 0.78651
 C1261 C 0.27924 0.42170 0.77816
 C1262 C 0.29461 0.41813 0.77504
 C1263 C 0.30281 0.42876 0.76583
 C1264 C 0.29617 0.44252 0.76049
 C1265 C 0.28118 0.44625 0.76416
 C1266 C 0.27275 0.43574 0.77296
 H1267 H 0.27711 0.36769 0.80218
 H1268 H 0.33261 0.36099 0.79847
 H1269 H 0.28875 0.34455 0.81189
 H1270 H 0.33496 0.38523 0.78492
 H1271 H 0.32456 0.40864 0.77465
 H1272 H 0.26884 0.39002 0.79821
 H1273 H 0.25869 0.41396 0.78899
 H1274 H 0.31433 0.42674 0.76235
 H1275 H 0.30296 0.45043 0.75370
 H1276 H 0.26108 0.43844 0.77570
 C1277 C 0.28879 -0.13223 0.31433
 C1278 C 0.28730 -0.12836 0.29845
 C1279 C 0.29437 -0.13827 0.28764
 C1280 C 0.30221 -0.15164 0.29261
 C1281 C 0.30341 -0.15556 0.30846
 C1282 C 0.29661 -0.14549 0.31917
 C1283 C 0.29356 -0.13485 0.27184
 C1284 C 0.28626 -0.12156 0.26650
 C1285 C 0.27923 -0.11115 0.27679
 C1286 C 0.27932 -0.11488 0.29299
 C1287 C 0.27135 -0.10507 0.30316
 C1288 C 0.26413 -0.09173 0.29785
 C1289 C 0.26463 -0.08750 0.28225
 C1290 C 0.27216 -0.09711 0.27145
 C1291 C 0.27265 -0.09200 0.25582
 C1292 C 0.26631 -0.07782 0.25131
 C1293 C 0.25907 -0.06833 0.26209
 C1294 C 0.25797 -0.07343 0.27748
 H1295 H 0.28436 -0.12508 0.32342
 H1296 H 0.30683 -0.15925 0.28391
 H1297 H 0.29783 -0.14732 0.33153
 H1298 H 0.29880 -0.14246 0.26347
 H1299 H 0.28618 -0.11989 0.25412
 H1300 H 0.27033 -0.10743 0.31537
 H1301 H 0.25829 -0.08448 0.30613
 H1302 H 0.27828 -0.09837 0.24685
 H1303 H 0.26733 -0.07414 0.23933
 H1304 H 0.25255 -0.06609 0.28596
 C1305 C 0.80039 0.85307 0.77429
 C1306 C 0.78589 0.85955 0.77660
 C1307 C 0.77545 0.85082 0.78541
 C1308 C 0.77955 0.83631 0.79168
 C1309 C 0.79426 0.83021 0.78990
 C1310 C 0.80446 0.83882 0.78081
 C1311 C 0.76104 0.85674 0.78824
 C1312 C 0.75700 0.87153 0.78328
 C1313 C 0.76721 0.88098 0.77505
 C1314 C 0.78160 0.87459 0.77096
 C1315 C 0.79125 0.88349 0.76148
 C1316 C 0.78740 0.89845 0.75692
 C1317 C 0.77390 0.90523 0.76172
 C1318 C 0.76357 0.89663 0.77083
 C1319 C 0.75023 0.90425 0.77574
 C1320 C 0.74741 0.91970 0.77183
 C1321 C 0.75767 0.92813 0.76284
 C1322 C 0.77083 0.92072 0.75768
 H1323 H 0.80918 0.85900 0.76809
 H1324 H 0.77105 0.82981 0.79788
 H1325 H 0.81610 0.83522 0.77943
 H1326 H 0.75288 0.85002 0.79472
 H1327 H 0.74567 0.87519 0.78604
 H1328 H 0.80189 0.87921 0.75724
 H1329 H 0.79524 0.90489 0.74977
 H1330 H 0.74193 0.89878 0.78299
 H1331 H 0.73715 0.92509 0.77605
 H1332 H 0.77894 0.92713 0.75082
 C1333 C 0.45114 0.88062 0.32072
 C1334 C 0.45323 0.87831 0.30464
 C1335 C 0.44601 0.88889 0.29427
 C1336 C 0.43740 0.90137 0.29989
 C1337 C 0.43572 0.90360 0.31585
 C1338 C 0.44258 0.89304 0.32615
 C1339 C 0.44742 0.88701 0.27832
 C1340 C 0.45557 0.87467 0.27233
 C1341 C 0.46285 0.86368 0.28210
 C1342 C 0.46201 0.86579 0.29853
 C1343 C 0.47000 0.85531 0.30828
 C1344 C 0.47792 0.84281 0.30231
 C1345 C 0.47819 0.84013 0.28642
 C1346 C 0.47079 0.85057 0.27603
 C1347 C 0.47128 0.84710 0.26002
 C1348 C 0.47815 0.83355 0.25475
 C1349 C 0.48501 0.82309 0.26514
 C1350 C 0.48538 0.82671 0.28093
 H1351 H 0.45579 0.87297 0.32946
 H1352 H 0.43219 0.90952 0.29182
 H1353 H 0.44119 0.89431 0.33854
 H1354 H 0.44202 0.89512 0.27034
 H1355 H 0.45602 0.87416 0.25989
 H1356 H 0.47043 0.85644 0.32068
 H1357 H 0.48368 0.83496 0.31029
 H1358 H 0.46600 0.85429 0.25126
 H1359 H 0.47771 0.83104 0.24248
 H1360 H 0.49049 0.81860 0.28912
 C1361 C -0.05475 0.86244 0.82534
 C1362 C -0.05485 0.85949 0.80922
 C1363 C -0.06270 0.87017 0.79947
 C1364 C -0.06966 0.88342 0.80568
 C1365 C -0.06931 0.88624 0.82168
 C1366 C -0.06186 0.87552 0.83139
 C1367 C -0.06364 0.86755 0.78357
 C1368 C -0.05720 0.85441 0.77707
 C1369 C -0.04926 0.84340 0.78623
 C1370 C -0.04765 0.84624 0.80250
 C1371 C -0.03875 0.83586 0.81147
 C1372 C -0.03199 0.82295 0.80495
 C1373 C -0.03395 0.81967 0.78929
 C1374 C -0.04271 0.82970 0.77967
 C1375 C -0.04475 0.82538 0.76397
 C1376 C -0.03835 0.81174 0.75820
 C1377 C -0.02953 0.80204 0.76776
 C1378 C -0.02733 0.80619 0.78328
 H1379 H -0.04958 0.85470 0.83370
 H1380 H -0.07531 0.89162 0.79798
 H1381 H -0.06176 0.87707 0.84383
 H1382 H -0.06956 0.87571 0.77603
 H1383 H -0.05844 0.85337 0.76471
 H1384 H -0.03653 0.83751 0.82362
 H1385 H -0.02526 0.81533 0.81234
 H1386 H -0.05155 0.83206 0.75593
 H1387 H -0.04041 0.80873 0.74622
 H1388 H -0.02082 0.79864 0.79094
 C1389 C -0.03249 -0.14048 -0.05320
 C1390 C -0.04038 -0.12921 -0.04463
 C1391 C -0.05557 -0.13237 -0.04065
 C1392 C -0.06272 -0.14581 -0.04592
 C1393 C -0.05495 -0.15680 -0.05494
 C1394 C -0.03960 -0.15394 -0.05816
 C1395 C -0.06368 -0.12201 -0.03153
 C1396 C -0.05693 -0.10873 -0.02592
 C1397 C -0.04183 -0.10504 -0.02958
 C1398 C -0.03368 -0.11504 -0.03971
 C1399 C -0.01931 -0.11030 -0.04494
 C1400 C -0.01300 -0.09642 -0.04020
 C1401 C -0.02047 -0.08697 -0.02965
 C1402 C -0.03480 -0.09139 -0.02384
 C1403 C -0.04142 -0.08206 -0.01233
 C1404 C -0.03451 -0.06851 -0.00747
 C1405 C -0.02082 -0.06363 -0.01394
 C1406 C -0.01374 -0.07307 -0.02491
 H1407 H -0.02066 -0.13947 -0.05589
 H1408 H -0.07461 -0.14717 -0.04343
 H1409 H -0.03265 -0.16233 -0.06410
 H1410 H -0.07536 -0.12425 -0.02857
 H1411 H -0.06408 -0.10125 -0.01917
 H1412 H -0.01285 -0.11684 -0.05320
 H1413 H -0.00207 -0.09312 -0.04475
 H1414 H -0.05181 -0.08504 -0.00660
 H1415 H -0.04016 -0.06170 0.00128
 H1416 H -0.00301 -0.06960 -0.02980
 C1417 C -0.07072 0.37912 0.45228
 C1418 C -0.05536 0.38318 0.45086
 C1419 C -0.04615 0.37394 0.44119
 C1420 C -0.05197 0.36057 0.43417
 C1421 C -0.06707 0.35604 0.43653
 C1422 C -0.07638 0.36589 0.44532
 C1423 C -0.03110 0.37793 0.43877
 C1424 C -0.02495 0.39094 0.44567
 C1425 C -0.03357 0.40036 0.45566
 C1426 C -0.04891 0.39615 0.45862
 C1427 C -0.05720 0.40476 0.46957
 C1428 C -0.05092 0.41734 0.47702
 C1429 C -0.03625 0.42202 0.47376
 C1430 C -0.02734 0.41372 0.46298
 C1431 C -0.01266 0.41932 0.45983
 C1432 C -0.00720 0.43259 0.46702
 C1433 C -0.01607 0.44067 0.47771
 C1434 C -0.03053 0.43517 0.48114
 H1435 H -0.07880 0.38607 0.45847
 H1436 H -0.04436 0.35334 0.42757
 H1437 H -0.08835 0.36374 0.44655
 H1438 H -0.02395 0.37092 0.43139
 H1439 H -0.01322 0.39308 0.44323
 H1440 H -0.06852 0.40186 0.47299
 H1441 H -0.05770 0.42354 0.48538
 H1442 H -0.00522 0.41400 0.45156
 H1443 H 0.00398 0.43665 0.46403
 H1444 H -0.03762 0.44145 0.48918
 C1445 C 0.43528 -0.12405 0.45822
 C1446 C 0.45012 -0.11909 0.45504
 C1447 C 0.45854 -0.12756 0.44402
 C1448 C 0.45251 -0.14094 0.43720
 C1449 C 0.43788 -0.14618 0.44094
 C1450 C 0.42936 -0.13721 0.45136
 C1451 C 0.47299 -0.12267 0.43991
 C1452 C 0.47921 -0.10942 0.44631
 C1453 C 0.47133 -0.10067 0.45746
 C1454 C 0.45675 -0.10590 0.46225
 C1455 C 0.44937 -0.09798 0.47433
 C1456 C 0.45572 -0.08509 0.48115
 C1457 C 0.46957 -0.07942 0.47613
 C1458 C 0.47757 -0.08697 0.46414
 C1459 C 0.49134 -0.08027 0.45921
 C1460 C 0.49676 -0.06667 0.46589
 C1461 C 0.48881 -0.05942 0.47783
 C1462 C 0.47530 -0.06603 0.48298
 H1463 H 0.42770 -0.11778 0.46565
 H1464 H 0.45961 -0.14751 0.42944
 H1465 H 0.41769 -0.13987 0.45388
 H1466 H 0.47955 -0.12910 0.43152
 H1467 H 0.49042 -0.10653 0.44251
 H1468 H 0.43875 -0.10164 0.47911
 H1469 H 0.44961 -0.07939 0.49038
 H1470 H 0.49799 -0.08498 0.44993
 H1471 H 0.50717 -0.06174 0.46157
 H1472 H 0.46891 -0.06047 0.49207
 C1473 C 0.42533 0.37890 -0.04370
 C1474 C 0.44101 0.38198 -0.04426
 C1475 C 0.45000 0.37234 -0.05375
 C1476 C 0.44355 0.36006 -0.06201
 C1477 C 0.42796 0.35687 -0.06118
 C1478 C 0.41902 0.36664 -0.05191
 C1479 C 0.46550 0.37487 -0.05491
 C1480 C 0.47232 0.38689 -0.04702
 C1481 C 0.46392 0.39693 -0.03746
 C1482 C 0.44803 0.39431 -0.03587
 C1483 C 0.43973 0.40403 -0.02589
 C1484 C 0.44657 0.41614 -0.01809
 C1485 C 0.46191 0.41920 -0.01993
 C1486 C 0.47087 0.40956 -0.02950
 C1487 C 0.48639 0.41316 -0.03089
 C1488 C 0.49253 0.42601 -0.02358
 C1489 C 0.48354 0.43577 -0.01450
 C1490 C 0.46827 0.43207 -0.01245
 H1491 H 0.41752 0.38585 -0.03718
 H1492 H 0.45100 0.35258 -0.06852
 H1493 H 0.40688 0.36536 -0.05136
 H1494 H 0.47247 0.36750 -0.06209
 H1495 H 0.48432 0.38792 -0.04869
 H1496 H 0.42784 0.40258 -0.02375
 H1497 H 0.43972 0.42326 -0.01058
 H1498 H 0.49414 0.40651 -0.03779
 H1499 H 0.50439 0.42847 -0.02533
 H1500 H 0.46115 0.43953 -0.00551
 C1501 C 0.78824 0.38248 0.44428
 C1502 C 0.79638 0.37087 0.45254
 C1503 C 0.81192 0.37352 0.45552
 C1504 C 0.81907 0.38680 0.44968
 C1505 C 0.81090 0.39823 0.44145
 C1506 C 0.79536 0.39593 0.43899
 C1507 C 0.82031 0.36291 0.46438
 C1508 C 0.81351 0.34997 0.47083
 C1509 C 0.79807 0.34680 0.46822
 C1510 C 0.78959 0.35691 0.45820
 C1511 C 0.77482 0.35249 0.45385
 C1512 C 0.76849 0.33877 0.45930
 C1513 C 0.77629 0.32930 0.46987
 C1514 C 0.79098 0.33352 0.47490
 C1515 C 0.79791 0.32443 0.48666
 C1516 C 0.79095 0.31121 0.49246
 C1517 C 0.77694 0.30633 0.48664
 C1518 C 0.76956 0.31558 0.47543
 H1519 H 0.77624 0.38174 0.44217
 H1520 H 0.83111 0.38814 0.45155
 H1521 H 0.78853 0.40466 0.43315
 H1522 H 0.83224 0.36477 0.46656
 H1523 H 0.82083 0.34227 0.47736
 H1524 H 0.76807 0.35914 0.44571
 H1525 H 0.75726 0.33567 0.45536
 H1526 H 0.80858 0.32744 0.49190
 H1527 H 0.79681 0.30459 0.50137
 H1528 H 0.75857 0.31215 0.47107
 C1529 C 0.82050 0.86839 -0.04454
 C1530 C 0.80495 0.86489 -0.04507
 C1531 C 0.79538 0.87486 -0.05385
 C1532 C 0.80115 0.88828 -0.06100
 C1533 C 0.81666 0.89197 -0.06004
 C1534 C 0.82617 0.88152 -0.05188
 C1535 C 0.78006 0.87138 -0.05550
 C1536 C 0.77412 0.85797 -0.04899
 C1537 C 0.78321 0.84769 -0.04010
 C1538 C 0.79870 0.85163 -0.03750
 C1539 C 0.80738 0.84236 -0.02719
 C1540 C 0.80143 0.82921 -0.02030
 C1541 C 0.78672 0.82457 -0.02362
 C1542 C 0.77736 0.83365 -0.03359
 C1543 C 0.76270 0.82802 -0.03694
 C1544 C 0.75774 0.81392 -0.03079
 C1545 C 0.76708 0.80506 -0.02094
 C1546 C 0.78147 0.81066 -0.01721
 H1547 H 0.82874 0.86090 -0.03902
 H1548 H 0.79325 0.89600 -0.06684
 H1549 H 0.83831 0.88293 -0.05159
 H1550 H 0.77261 0.87898 -0.06212
 H1551 H 0.76222 0.85615 -0.05085
 H1552 H 0.81879 0.84516 -0.02387
 H1553 H 0.80853 0.82245 -0.01247
 H1554 H 0.75498 0.83395 -0.04470
 H1555 H 0.74660 0.80983 -0.03397
 H1556 H 0.78894 0.80382 -0.00980
 C1557 C 0.78520 0.29382 0.36333
 C1558 C 0.79414 0.28684 0.37517
 C1559 C 0.80998 0.28612 0.37288
 C1560 C 0.81656 0.29314 0.35987
 C1561 C 0.80761 0.30071 0.34864
 C1562 C 0.79186 0.30062 0.35033
 C1563 C 0.81928 0.27869 0.38375
 C1564 C 0.81327 0.27205 0.39701
 C1565 C 0.79764 0.27293 0.40017
 C1566 C 0.78795 0.28073 0.38923
 C1567 C 0.77254 0.28274 0.39299
 C1568 C 0.76682 0.27755 0.40704
 C1569 C 0.77606 0.26977 0.41772
 C1570 C 0.79147 0.26686 0.41424
 C1571 C 0.80010 0.25813 0.42514
 C1572 C 0.79393 0.25343 0.43923
 C1573 C 0.77898 0.25721 0.44298
 C1574 C 0.77001 0.26513 0.43202
 H1575 H 0.77303 0.29416 0.36367
 H1576 H 0.82876 0.29314 0.35879
 H1577 H 0.78460 0.30589 0.34159
 H1578 H 0.83141 0.27807 0.38203
 H1579 H 0.82133 0.26682 0.40489
 H1580 H 0.76466 0.28886 0.38557
 H1581 H 0.75501 0.27974 0.40960
 H1582 H 0.81166 0.25470 0.42315
 H1583 H 0.80108 0.24718 0.44741
 H1584 H 0.75833 0.26785 0.43469
 C1585 C 0.78124 0.80292 -0.13935
 C1586 C 0.78075 0.78735 -0.13412
 C1587 C 0.78616 0.77575 -0.14424
 C1588 C 0.79136 0.77965 -0.15910
 C1589 C 0.79187 0.79514 -0.16405
 C1590 C 0.78678 0.80669 -0.15399
 C1591 C 0.78659 0.76031 -0.13943
 C1592 C 0.78236 0.75614 -0.12451
 C1593 C 0.77712 0.76727 -0.11389
 C1594 C 0.77552 0.78298 -0.11906
 C1595 C 0.76864 0.79376 -0.10906
 C1596 C 0.76411 0.78953 -0.09426
 C1597 C 0.76659 0.77453 -0.08867
 C1598 C 0.77329 0.76320 -0.09831
 C1599 C 0.77628 0.74839 -0.09177
 C1600 C 0.77262 0.74503 -0.07640
 C1601 C 0.76571 0.75618 -0.06709
 C1602 C 0.76261 0.77088 -0.07335
 H1603 H 0.77798 0.81252 -0.13220
 H1604 H 0.79518 0.77058 -0.16678
 H1605 H 0.78748 0.81879 -0.15724
 H1606 H 0.79054 0.75135 -0.14718
 H1607 H 0.78301 0.74396 -0.12175
 H1608 H 0.76626 0.80556 -0.11247
 H1609 H 0.75886 0.79819 -0.08699
 H1610 H 0.78185 0.73928 -0.09804
 H1611 H 0.77522 0.73360 -0.07179
 H1612 H 0.75752 0.77969 -0.06613
 C1613 C 0.29359 0.45031 0.88626
 C1614 C 0.30188 0.45707 0.87404
 C1615 C 0.31776 0.45834 0.87599
 C1616 C 0.32504 0.45183 0.88909
 C1617 C 0.31668 0.44458 0.90088
 C1618 C 0.30085 0.44435 0.89943
 C1619 C 0.32629 0.46603 0.86480
 C1620 C 0.31937 0.47281 0.85188
 C1621 C 0.30364 0.47156 0.84930
 C1622 C 0.29492 0.46281 0.86011
 C1623 C 0.27970 0.45960 0.85636
 C1624 C 0.27314 0.46499 0.84263
 C1625 C 0.28123 0.47439 0.83245
 C1626 C 0.29642 0.47827 0.83595
 C1627 C 0.30369 0.48896 0.82606
 C1628 C 0.29646 0.49479 0.81281
 C1629 C 0.28187 0.48997 0.80871
 C1630 C 0.27424 0.47989 0.81875
 H1631 H 0.28141 0.44985 0.88617
 H1632 H 0.33725 0.45221 0.88991
 H1633 H 0.29393 0.43959 0.90859
 H1634 H 0.33844 0.46700 0.86613
 H1635 H 0.32677 0.47840 0.84371
 H1636 H 0.27272 0.45231 0.86353
 H1637 H 0.26153 0.46192 0.84006
 H1638 H 0.31483 0.49334 0.82849
 H1639 H 0.30247 0.50297 0.80562
 H1640 H 0.26281 0.47637 0.81595
 C1641 C 0.31070 -0.03418 0.38061
 C1642 C 0.30149 -0.04305 0.37073
 C1643 C 0.29797 -0.05830 0.37557
 C1644 C 0.30425 -0.06460 0.38930
 C1645 C 0.31380 -0.05581 0.39895
 C1646 C 0.31659 -0.04037 0.39435
 C1647 C 0.28817 -0.06723 0.36668
 C1648 C 0.28141 -0.06119 0.35333
 C1649 C 0.28458 -0.04605 0.34802
 C1650 C 0.29537 -0.03715 0.35645
 C1651 C 0.29996 -0.02280 0.35015
 C1652 C 0.29375 -0.01702 0.33644
 C1653 C 0.28248 -0.02508 0.32865
 C1654 C 0.27756 -0.03962 0.33440
 C1655 C 0.26563 -0.04697 0.32640
 C1656 C 0.25921 -0.04033 0.31308
 C1657 C 0.26447 -0.02621 0.30714
 C1658 C 0.27612 -0.01864 0.31506
 H1659 H 0.31312 -0.02216 0.37834
 H1660 H 0.30193 -0.07659 0.39200
 H1661 H 0.32286 -0.03254 0.40164
 H1662 H 0.28549 -0.07897 0.37020
 H1663 H 0.27403 -0.06889 0.34716
 H1664 H 0.30871 -0.01591 0.35533
 H1665 H 0.29772 -0.00601 0.33200
 H1666 H 0.26078 -0.05772 0.33028
 H1667 H 0.25017 -0.04644 0.30730
 H1668 H 0.28025 -0.00766 0.31069
 C1669 C -0.07493 -0.05513 -0.11648
 C1670 C -0.05917 -0.05411 -0.11403
 C1671 C -0.04964 -0.06231 -0.12429
 C1672 C -0.05574 -0.07067 -0.13676
 C1673 C -0.07147 -0.07116 -0.13944
 C1674 C -0.08088 -0.06341 -0.12885
 C1675 C -0.03400 -0.06206 -0.12216
 C1676 C -0.02757 -0.05406 -0.10993
 C1677 C -0.03655 -0.04571 -0.09934
 C1678 C -0.05259 -0.04540 -0.10168
 C1679 C -0.06150 -0.03625 -0.09171
 C1680 C -0.05509 -0.02810 -0.07958
 C1681 C -0.03958 -0.02880 -0.07674
 C1682 C -0.03005 -0.03764 -0.08651
 C1683 C -0.01443 -0.03831 -0.08274
 C1684 C -0.00872 -0.03082 -0.06971
 C1685 C -0.01824 -0.02219 -0.06013
 C1686 C -0.03363 -0.02100 -0.06389
 H1687 H -0.08309 -0.04992 -0.10887
 H1688 H -0.04802 -0.07615 -0.14474
 H1689 H -0.09307 -0.06413 -0.12963
 H1690 H -0.02661 -0.06823 -0.13001
 H1691 H -0.01542 -0.05447 -0.10925
 H1692 H -0.07355 -0.03493 -0.09305
 H1693 H -0.06243 -0.02132 -0.07218
 H1694 H -0.00637 -0.04491 -0.08930
 H1695 H 0.00321 -0.03201 -0.06697
 H1696 H -0.04115 -0.01461 -0.05634
 C1697 C -0.05359 0.48055 0.35806
 C1698 C -0.04733 0.47111 0.37004
 C1699 C -0.04548 0.45511 0.36699
 C1700 C -0.04990 0.44894 0.35274
 C1701 C -0.05594 0.45841 0.34099
 C1702 C -0.05782 0.47425 0.34380
 C1703 C -0.03924 0.44521 0.37814
 C1704 C -0.03420 0.45088 0.39217
 C1705 C -0.03533 0.46677 0.39570
 C1706 C -0.04265 0.47695 0.38480
 C1707 C -0.04516 0.49249 0.38913
 C1708 C -0.04036 0.49799 0.40345
 C1709 C -0.03244 0.48840 0.41381
 C1710 C -0.02956 0.47273 0.40991
 C1711 C -0.02068 0.46369 0.42027
 C1712 C -0.01531 0.46981 0.43404
 C1713 C -0.01852 0.48514 0.43812
 C1714 C -0.02720 0.49441 0.42799
 H1715 H -0.05509 0.49287 0.35923
 H1716 H -0.04873 0.43659 0.35086
 H1717 H -0.06239 0.48185 0.33485
 H1718 H -0.03807 0.43292 0.37595
 H1719 H -0.02977 0.44234 0.40018
 H1720 H -0.05112 0.50067 0.38179
 H1721 H -0.04266 0.50996 0.40632
 H1722 H -0.01732 0.45194 0.41797
 H1723 H -0.00867 0.46233 0.44164
 H1724 H -0.02961 0.50633 0.43100
 C1725 C 0.42654 -0.04117 0.37898
 C1726 C 0.44215 -0.03805 0.38070
 C1727 C 0.45194 -0.04289 0.36868
 C1728 C 0.44620 -0.05027 0.35549
 C1729 C 0.43073 -0.05338 0.35406
 C1730 C 0.42099 -0.04871 0.36591
 C1731 C 0.46746 -0.04049 0.36992
 C1732 C 0.47365 -0.03393 0.38310
 C1733 C 0.46447 -0.02925 0.39558
 C1734 C 0.44842 -0.03069 0.39407
 C1735 C 0.43918 -0.02470 0.40593
 C1736 C 0.44539 -0.01816 0.41913
 C1737 C 0.46102 -0.01757 0.42121
 C1738 C 0.47082 -0.02316 0.40953
 C1739 C 0.48658 -0.02290 0.41257
 C1740 C 0.49224 -0.01748 0.42662
 C1741 C 0.48248 -0.01191 0.43802
 C1742 C 0.46688 -0.01175 0.43513
 H1743 H 0.41832 -0.03835 0.38769
 H1744 H 0.45383 -0.05367 0.34632
 H1745 H 0.40903 -0.05124 0.36528
 H1746 H 0.47497 -0.04397 0.36067
 H1747 H 0.48573 -0.03248 0.38304
 H1748 H 0.42702 -0.02471 0.40531
 H1749 H 0.43784 -0.01381 0.42797
 H1750 H 0.49485 -0.02731 0.40460
 H1751 H 0.50434 -0.01783 0.42864
 H1752 H 0.45921 -0.00775 0.44404
 C1753 C 0.43044 0.45026 -0.11316
 C1754 C 0.44636 0.45055 -0.11142
 C1755 C 0.45518 0.44240 -0.12238
 C1756 C 0.44827 0.43512 -0.13501
 C1757 C 0.43252 0.43539 -0.13681
 C1758 C 0.42370 0.44281 -0.12564
 C1759 C 0.47085 0.44162 -0.12074
 C1760 C 0.47803 0.44848 -0.10825
 C1761 C 0.46978 0.45681 -0.09707
 C1762 C 0.45377 0.45843 -0.09907
 C1763 C 0.44573 0.46814 -0.08889
 C1764 C 0.45295 0.47553 -0.07678
 C1765 C 0.46836 0.47328 -0.07410
 C1766 C 0.47701 0.46374 -0.08403
 C1767 C 0.49245 0.46120 -0.08018
 C1768 C 0.49885 0.46778 -0.06698
 C1769 C 0.49022 0.47734 -0.05744
 C1770 C 0.47505 0.48023 -0.06122
 H1771 H 0.42284 0.45540 -0.10493
 H1772 H 0.45522 0.42945 -0.14361
 H1773 H 0.41147 0.44278 -0.12650
 H1774 H 0.47766 0.43549 -0.12915
 H1775 H 0.49017 0.44741 -0.10792
 H1776 H 0.43383 0.47060 -0.09019
 H1777 H 0.44632 0.48289 -0.06925
 H1778 H 0.49972 0.45369 -0.08675
 H1779 H 0.51055 0.46520 -0.06410
 H1780 H 0.46816 0.48728 -0.05362
 C1781 C 0.42841 0.80435 0.37299
 C1782 C 0.44391 0.80205 0.36960
 C1783 C 0.45466 0.80717 0.38067
 C1784 C 0.44995 0.81379 0.39467
 C1785 C 0.43457 0.81548 0.39801
 C1786 C 0.42388 0.81090 0.38696
 C1787 C 0.47006 0.80553 0.37784
 C1788 C 0.47516 0.79899 0.36420
 C1789 C 0.46500 0.79364 0.35278
 C1790 C 0.44911 0.79492 0.35565
 C1791 C 0.43896 0.78888 0.34457
 C1792 C 0.44408 0.78222 0.33097
 C1793 C 0.45948 0.78138 0.32774
 C1794 C 0.47019 0.78706 0.33857
 C1795 C 0.48567 0.78618 0.33454
 C1796 C 0.49018 0.78032 0.32030
 C1797 C 0.47953 0.77494 0.30959
 C1798 C 0.46420 0.77521 0.31352
 H1799 H 0.41945 0.80129 0.36512
 H1800 H 0.45830 0.81727 0.40319
 H1801 H 0.41191 0.81240 0.38912
 H1802 H 0.47832 0.80937 0.38629
 H1803 H 0.48725 0.79814 0.36309
 H1804 H 0.42689 0.78898 0.34608
 H1805 H 0.43584 0.77784 0.32279
 H1806 H 0.49462 0.79027 0.34190
 H1807 H 0.50212 0.78023 0.31754
 H1808 H 0.45586 0.77125 0.30521
 C1809 C -0.03613 0.79419 0.89043
 C1810 C -0.04559 0.78896 0.87831
 C1811 C -0.06143 0.78941 0.88072
 C1812 C -0.06744 0.79588 0.89426
 C1813 C -0.05789 0.80160 0.90587
 C1814 C -0.04221 0.80034 0.90393
 C1815 C -0.07122 0.78355 0.86954
 C1816 C -0.06566 0.77706 0.85604
 C1817 C -0.04999 0.77661 0.85294
 C1818 C -0.03985 0.78322 0.86399
 C1819 C -0.02440 0.78435 0.86015
 C1820 C -0.01895 0.77891 0.84616
 C1821 C -0.02855 0.77177 0.83560
 C1822 C -0.04415 0.77018 0.83896
 C1823 C -0.05321 0.76210 0.82819
 C1824 C -0.04710 0.75639 0.81448
 C1825 C -0.03182 0.75859 0.81098
 C1826 C -0.02259 0.76624 0.82164
 H1827 H -0.02398 0.79342 0.88999
 H1828 H -0.07960 0.79674 0.89558
 H1829 H -0.03454 0.80412 0.91294
 H1830 H -0.08335 0.78389 0.87128
 H1831 H -0.07402 0.77294 0.84797
 H1832 H -0.01624 0.78989 0.86753
 H1833 H -0.00703 0.78024 0.84362
 H1834 H -0.06501 0.75977 0.83009
 H1835 H -0.05449 0.75047 0.80645
 H1836 H -0.01070 0.76781 0.81912
 C1837 C 0.35945 0.78311 0.29296
 C1838 C 0.37061 0.79307 0.28679
 C1839 C 0.36782 0.80923 0.28740
 C1840 C 0.35486 0.81505 0.29476
 C1841 C 0.34429 0.80502 0.30143
 C1842 C 0.34658 0.78903 0.30014
 C1843 C 0.37810 0.81956 0.28092
 C1844 C 0.39127 0.81426 0.27401
 C1845 C 0.39490 0.79832 0.27359
 C1846 C 0.38447 0.78756 0.28025
 C1847 C 0.38850 0.77171 0.28069
 C1848 C 0.40231 0.76656 0.27514
 C1849 C 0.41257 0.77686 0.26864
 C1850 C 0.40888 0.79282 0.26729
 C1851 C 0.41951 0.80259 0.25991
 C1852 C 0.43351 0.79688 0.25505
 C1853 C 0.43739 0.78128 0.25734
 C1854 C 0.42669 0.77128 0.26380
 H1855 H 0.36023 0.77069 0.29238
 H1856 H 0.35327 0.82746 0.29569
 H1857 H 0.33837 0.78099 0.30475
 H1858 H 0.37598 0.83193 0.28129
 H1859 H 0.39864 0.82307 0.26954
 H1860 H 0.38145 0.76296 0.28577
 H1861 H 0.40506 0.75433 0.27611
 H1862 H 0.41743 0.81473 0.25780
 H1863 H 0.44153 0.80484 0.24997
 H1864 H 0.42948 0.75912 0.26537
 C1865 C -0.15075 0.76615 0.79445
 C1866 C -0.13924 0.77528 0.78770
 C1867 C -0.14243 0.79119 0.78504
 C1868 C -0.15627 0.79766 0.78954
 C1869 C -0.16749 0.78853 0.79634
 C1870 C -0.16462 0.77270 0.79867
 C1871 C -0.13180 0.80069 0.77799
 C1872 C -0.11805 0.79474 0.77320
 C1873 C -0.11422 0.77900 0.77555
 C1874 C -0.12474 0.76923 0.78344
 C1875 C -0.12026 0.75390 0.78712
 C1876 C -0.10607 0.74825 0.78312
 C1877 C -0.09594 0.75746 0.77491
 C1878 C -0.10002 0.77283 0.77066
 C1879 C -0.08971 0.78138 0.76156
 C1880 C -0.07573 0.77518 0.75754
 C1881 C -0.07146 0.76025 0.76236
 C1882 C -0.08170 0.75138 0.77096
 H1883 H -0.14953 0.75387 0.79639
 H1884 H -0.15819 0.80998 0.78792
 H1885 H -0.17318 0.76531 0.80366
 H1886 H -0.13417 0.81289 0.77606
 H1887 H -0.11044 0.80298 0.76807
 H1888 H -0.12734 0.74605 0.79352
 H1889 H -0.10303 0.73649 0.78642
 H1890 H -0.09214 0.79284 0.75715
 H1891 H -0.06811 0.78230 0.75080
 H1892 H -0.07860 0.73972 0.77457
 C1893 C 0.87262 0.31765 0.45504
 C1894 C 0.87179 0.30167 0.45858
 C1895 C 0.88284 0.29172 0.45207
 C1896 C 0.89483 0.29783 0.44332
 C1897 C 0.89587 0.31381 0.44063
 C1898 C 0.88443 0.32354 0.44624
 C1899 C 0.88192 0.27576 0.45441
 C1900 C 0.87006 0.26939 0.46278
 C1901 C 0.85885 0.27883 0.46959
 C1902 C 0.86018 0.29526 0.46808
 C1903 C 0.85005 0.30478 0.47635
 C1904 C 0.83842 0.29851 0.48502
 C1905 C 0.83620 0.28257 0.48555
 C1906 C 0.84633 0.27244 0.47786
 C1907 C 0.84310 0.25641 0.47827
 C1908 C 0.83002 0.25088 0.48538
 C1909 C 0.81996 0.26103 0.49267
 C1910 C 0.82346 0.27679 0.49320
 H1911 H 0.86417 0.32590 0.45864
 H1912 H 0.90354 0.29017 0.43892
 H1913 H 0.88462 0.33586 0.44382
 H1914 H 0.89036 0.26807 0.44956
 H1915 H 0.87020 0.25697 0.46404
 H1916 H 0.85099 0.31720 0.47661
 H1917 H 0.83083 0.30629 0.49104
 H1918 H 0.84998 0.24792 0.47250
 H1919 H 0.82751 0.23864 0.48472
 H1920 H 0.81566 0.28477 0.49862
 C1921 C 0.87847 0.81134 -0.04038
 C1922 C 0.87471 0.79545 -0.03963
 C1923 C 0.88521 0.78469 -0.04577
 C1924 C 0.89905 0.78971 -0.05190
 C1925 C 0.90259 0.80551 -0.05256
 C1926 C 0.89211 0.81621 -0.04678
 C1927 C 0.88181 0.76896 -0.04592
 C1928 C 0.86799 0.76365 -0.04058
 C1929 C 0.85706 0.77389 -0.03449
 C1930 C 0.86077 0.78995 -0.03334
 C1931 C 0.85051 0.79992 -0.02580
 C1932 C 0.83684 0.79456 -0.02012
 C1933 C 0.83266 0.77917 -0.02201
 C1934 C 0.84260 0.76861 -0.02935
 C1935 C 0.83746 0.75328 -0.03157
 C1936 C 0.82312 0.74874 -0.02668
 C1937 C 0.81348 0.75919 -0.01922
 C1938 C 0.81841 0.77436 -0.01679
 H1939 H 0.87093 0.82038 -0.03658
 H1940 H 0.90707 0.78124 -0.05619
 H1941 H 0.89427 0.82852 -0.04752
 H1942 H 0.88985 0.76064 -0.05047
 H1943 H 0.86633 0.75133 -0.04110
 H1944 H 0.85284 0.81196 -0.02379
 H1945 H 0.82936 0.80264 -0.01438
 H1946 H 0.84403 0.74463 -0.03748
 H1947 H 0.81954 0.73698 -0.02880
 H1948 H 0.81093 0.78263 -0.01129
 C1949 C -0.11790 -0.07403 -0.05062
 C1950 C -0.11536 -0.05797 -0.04897
 C1951 C -0.12631 -0.04764 -0.05537
 C1952 C -0.13967 -0.05328 -0.06214
 C1953 C -0.14232 -0.06925 -0.06296
 C1954 C -0.13111 -0.07950 -0.05748
 C1955 C -0.12399 -0.03171 -0.05479
 C1956 C -0.11101 -0.02573 -0.04803
 C1957 C -0.09993 -0.03549 -0.04116
 C1958 C -0.10236 -0.05186 -0.04125
 C1959 C -0.09197 -0.06155 -0.03323
 C1960 C -0.07951 -0.05554 -0.02560
 C1961 C -0.07667 -0.03970 -0.02590
 C1962 C -0.08664 -0.02943 -0.03390
 C1963 C -0.08271 -0.01355 -0.03447
 C1964 C -0.06954 -0.00822 -0.02734
 C1965 C -0.05996 -0.01842 -0.01918
 C1966 C -0.06370 -0.03412 -0.01841
 H1967 H -0.10983 -0.08272 -0.04691
 H1968 H -0.14819 -0.04520 -0.06640
 H1969 H -0.13258 -0.09189 -0.05847
 H1970 H -0.13231 -0.02373 -0.05965
 H1971 H -0.11024 -0.01330 -0.04796
 H1972 H -0.09335 -0.07389 -0.03223
 H1973 H -0.07192 -0.06343 -0.01950
 H1974 H -0.08931 -0.00501 -0.04072
 H1975 H -0.06676 0.00394 -0.02833
 H1976 H -0.05615 -0.04217 -0.01249
 C1977 C -0.12585 0.43290 0.46232
 C1978 C -0.12101 0.44839 0.46064
 C1979 C -0.13016 0.45847 0.45151
 C1980 C -0.14355 0.45319 0.44451
 C1981 C -0.14822 0.43766 0.44602
 C1982 C -0.13908 0.42771 0.45520
 C1983 C -0.12590 0.47384 0.44928
 C1984 C -0.11250 0.47937 0.45550
 C1985 C -0.10278 0.46975 0.46444
 C1986 C -0.10733 0.45414 0.46746
 C1987 C -0.09809 0.44483 0.47724
 C1988 C -0.08467 0.45037 0.48344
 C1989 C -0.07972 0.46529 0.48003
 C1990 C -0.08866 0.47523 0.47048
 C1991 C -0.08290 0.49014 0.46712
 C1992 C -0.06889 0.49483 0.47289
 C1993 C -0.06009 0.48495 0.48229
 C1994 C -0.06572 0.47022 0.48596
 H1995 H -0.11946 0.42430 0.46872
 H1996 H -0.15048 0.46151 0.43821
 H1997 H -0.14158 0.41552 0.45637
 H1998 H -0.13293 0.48168 0.44244
 H1999 H -0.11017 0.49137 0.45317
 H2000 H -0.10097 0.43317 0.48050
 H2001 H -0.07799 0.44278 0.49089
 H2002 H -0.08873 0.49839 0.45977
 H2003 H -0.06486 0.50625 0.46978
 H2004 H -0.05899 0.46236 0.49308
 C2005 C 0.36872 -0.03027 0.44406
 C2006 C 0.38009 -0.03907 0.45177
 C2007 C 0.37748 -0.05511 0.45398
 C2008 C 0.36442 -0.06205 0.44795
 C2009 C 0.35339 -0.05322 0.44005
 C2010 C 0.35564 -0.03723 0.43839
 C2011 C 0.38794 -0.06419 0.46219
 C2012 C 0.40082 -0.05767 0.46858
 C2013 C 0.40401 -0.04178 0.46663
 C2014 C 0.39381 -0.03248 0.45751
 C2015 C 0.39786 -0.01704 0.45410
 C2016 C 0.41121 -0.01077 0.45969
 C2017 C 0.42087 -0.01943 0.46926
 C2018 C 0.41727 -0.03495 0.47316
 C2019 C 0.42706 -0.04294 0.48356
 C2020 C 0.44014 -0.03602 0.48924
 C2021 C 0.44403 -0.02093 0.48476
 C2022 C 0.43421 -0.01265 0.47487
 H2023 H 0.36939 -0.01790 0.44255
 H2024 H 0.36295 -0.07444 0.44927
 H2025 H 0.34713 -0.02998 0.43281
 H2026 H 0.38607 -0.07648 0.46384
 H2027 H 0.40834 -0.06555 0.47461
 H2028 H 0.39114 -0.00959 0.44668
 H2029 H 0.41395 0.00106 0.45657
 H2030 H 0.42485 -0.05450 0.48772
 H2031 H 0.44736 -0.04267 0.49702
 H2032 H 0.43696 -0.00091 0.47141
 C2033 C 0.38128 0.43533 -0.04362
 C2034 C 0.38635 0.45068 -0.04512
 C2035 C 0.37815 0.46076 -0.05514
 C2036 C 0.36449 0.45594 -0.06208
 C2037 C 0.35889 0.44081 -0.05965
 C2038 C 0.36801 0.43053 -0.05078
 C2039 C 0.38360 0.47564 -0.05809
 C2040 C 0.39710 0.48062 -0.05145
 C2041 C 0.40538 0.47112 -0.04098
 C2042 C 0.39949 0.45619 -0.03724
 C2043 C 0.40655 0.44743 -0.02532
 C2044 C 0.41933 0.45275 -0.01776
 C2045 C 0.42589 0.46673 -0.02205
 C2046 C 0.41916 0.47611 -0.03381
 C2047 C 0.42669 0.48993 -0.03802
 C2048 C 0.44026 0.49414 -0.03083
 C2049 C 0.44673 0.48486 -0.01909
 C2050 C 0.43931 0.47125 -0.01468
 H2051 H 0.38763 0.42654 -0.03740
 H2052 H 0.35810 0.46433 -0.06884
 H2053 H 0.36533 0.41839 -0.04964
 H2054 H 0.37745 0.48347 -0.06577
 H2055 H 0.40051 0.49223 -0.05434
 H2056 H 0.40210 0.43660 -0.02114
 H2057 H 0.42420 0.44575 -0.00850
 H2058 H 0.42263 0.49747 -0.04718
 H2059 H 0.44582 0.50462 -0.03465
 H2060 H 0.44425 0.46381 -0.00580
 C2061 C 0.37174 0.45508 0.82336
 C2062 C 0.37053 0.45621 0.80705
 C2063 C 0.38032 0.44691 0.79804
 C2064 C 0.39176 0.43798 0.80519
 C2065 C 0.39333 0.43765 0.82138
 C2066 C 0.38289 0.44591 0.83034
 C2067 C 0.37869 0.44667 0.78196
 C2068 C 0.36729 0.45519 0.77462
 C2069 C 0.35747 0.46485 0.78310
 C2070 C 0.35972 0.46603 0.79946
 C2071 C 0.35143 0.47729 0.80765
 C2072 C 0.34063 0.48646 0.80027
 C2073 C 0.33727 0.48439 0.78464
 C2074 C 0.34552 0.47349 0.77580
 C2075 C 0.34101 0.47125 0.76021
 C2076 C 0.32847 0.47908 0.75398
 C2077 C 0.32030 0.48968 0.76291
 C2078 C 0.32522 0.49274 0.77800
 H2079 H 0.36400 0.46085 0.83104
 H2080 H 0.39966 0.43158 0.79809
 H2081 H 0.38336 0.44532 0.84287
 H2082 H 0.38617 0.43963 0.77497
 H2083 H 0.36678 0.45438 0.76217
 H2084 H 0.35335 0.47959 0.81975
 H2085 H 0.33451 0.49496 0.80701
 H2086 H 0.34637 0.46288 0.75282
 H2087 H 0.32486 0.47641 0.74229
 H2088 H 0.31901 0.50090 0.78502
 C2089 C 0.36412 -0.05216 0.31942
 C2090 C 0.36113 -0.05130 0.30330
 C2091 C 0.37251 -0.05673 0.29314
 C2092 C 0.38662 -0.06178 0.29898
 C2093 C 0.38963 -0.06175 0.31496
 C2094 C 0.37809 -0.05727 0.32507
 C2095 C 0.36981 -0.05690 0.27720
 C2096 C 0.35609 -0.05173 0.27105
 C2097 C 0.34458 -0.04575 0.28062
 C2098 C 0.34730 -0.04521 0.29699
 C2099 C 0.33633 -0.03814 0.30648
 C2100 C 0.32314 -0.03187 0.30029
 C2101 C 0.32016 -0.03263 0.28445
 C2102 C 0.33059 -0.03987 0.27437
 C2103 C 0.32647 -0.04093 0.25848
 C2104 C 0.31278 -0.03470 0.25294
 C2105 C 0.30294 -0.02701 0.26295
 C2106 C 0.30669 -0.02612 0.27870
 H2107 H 0.35587 -0.04916 0.32803
 H2108 H 0.39540 -0.06535 0.29103
 H2109 H 0.37985 -0.05772 0.33749
 H2110 H 0.37843 -0.06108 0.26935
 H2111 H 0.35503 -0.05211 0.25862
 H2112 H 0.33777 -0.03678 0.31879
 H2113 H 0.31516 -0.02637 0.30803
 H2114 H 0.33343 -0.04674 0.25010
 H2115 H 0.30996 -0.03577 0.24076
 H2116 H 0.29891 -0.02060 0.28663
 C2117 C 0.12407 0.53757 0.68834
 C2118 C 0.12932 0.53778 0.70386
 C2119 C 0.11946 0.54388 0.71522
 C2120 C 0.10482 0.54904 0.71114
 C2121 C 0.09981 0.54881 0.69566
 C2122 C 0.10966 0.54306 0.68437
 C2123 C 0.12431 0.54501 0.73057
 C2124 C 0.13891 0.54066 0.73488
 C2125 C 0.14922 0.53460 0.72402
 C2126 C 0.14410 0.53250 0.70841
 C2127 C 0.15386 0.52503 0.69790
 C2128 C 0.16830 0.52028 0.70229
 C2129 C 0.17376 0.52303 0.71719
 C2130 C 0.16441 0.53039 0.72825
 C2131 C 0.17084 0.53352 0.74298
 C2132 C 0.18580 0.52940 0.74649
 C2133 C 0.19483 0.52184 0.73558
 C2134 C 0.18865 0.51862 0.72098
 H2135 H 0.13098 0.53376 0.67886
 H2136 H 0.09736 0.55333 0.72007
 H2137 H 0.10642 0.54316 0.67225
 H2138 H 0.11680 0.54955 0.73935
 H2139 H 0.14170 0.54191 0.74697
 H2140 H 0.15057 0.52234 0.68621
 H2141 H 0.17535 0.51455 0.69382
 H2142 H 0.16475 0.53953 0.75191
 H2143 H 0.19033 0.53217 0.75781
 H2144 H 0.19560 0.51305 0.71231
 C2145 C 0.11548 0.04490 0.18571
 C2146 C 0.12041 0.04479 0.20133
 C2147 C 0.11169 0.05323 0.21217
 C2148 C 0.09813 0.06066 0.20758
 C2149 C 0.09311 0.06003 0.19216
 C2150 C 0.10212 0.05237 0.18128
 C2151 C 0.11652 0.05413 0.22755
 C2152 C 0.12991 0.04703 0.23241
 C2153 C 0.13891 0.03835 0.22210
 C2154 C 0.13378 0.03678 0.20644
 C2155 C 0.14202 0.02701 0.19646
 C2156 C 0.15513 0.01951 0.20136
 C2157 C 0.16072 0.02156 0.21631
 C2158 C 0.15280 0.03105 0.22692
 C2159 C 0.15934 0.03310 0.24178
 C2160 C 0.17318 0.02616 0.24575
 C2161 C 0.18088 0.01679 0.23519
 C2162 C 0.17442 0.01435 0.22057
 H2163 H 0.12179 0.03957 0.17652
 H2164 H 0.09134 0.06669 0.21607
 H2165 H 0.09885 0.05221 0.16917
 H2166 H 0.10991 0.06051 0.23593
 H2167 H 0.13274 0.04828 0.24448
 H2168 H 0.13847 0.02461 0.18477
 H2169 H 0.16108 0.01217 0.19325
 H2170 H 0.15433 0.04036 0.25046
 H2171 H 0.17797 0.02834 0.25710
 H2172 H 0.18039 0.00734 0.21219
 C2173 C 0.63599 0.72156 0.19879
 C2174 C 0.62398 0.71352 0.20598
 C2175 C 0.62547 0.69724 0.20764
 C2176 C 0.63797 0.68939 0.20149
 C2177 C 0.64953 0.69746 0.19393
 C2178 C 0.64851 0.71364 0.19292
 C2179 C 0.61437 0.68877 0.21525
 C2180 C 0.60177 0.69607 0.22136
 C2181 C 0.59954 0.71221 0.21976
 C2182 C 0.61059 0.72102 0.21152
 C2183 C 0.60762 0.73687 0.20862
 C2184 C 0.59433 0.74389 0.21358
 C2185 C 0.58367 0.73557 0.22201
 C2186 C 0.58632 0.71973 0.22563
 C2187 C 0.57558 0.71206 0.23498
 C2188 C 0.56241 0.71954 0.23970
 C2189 C 0.55942 0.73494 0.23535
 C2190 C 0.57024 0.74296 0.22667
 H2191 H 0.63617 0.73399 0.19771
 H2192 H 0.63848 0.67687 0.20226
 H2193 H 0.65747 0.72027 0.18759
 H2194 H 0.61544 0.67631 0.21652
 H2195 H 0.59367 0.68857 0.22682
 H2196 H 0.61513 0.74411 0.20203
 H2197 H 0.59239 0.75601 0.21077
 H2198 H 0.57703 0.70029 0.23898
 H2199 H 0.55436 0.71304 0.24651
 H2200 H 0.56817 0.75495 0.22341
 C2201 C 0.13139 0.72199 0.70508
 C2202 C 0.12062 0.71204 0.71195
 C2203 C 0.12429 0.69607 0.71300
 C2204 C 0.13771 0.69033 0.70659
 C2205 C 0.14806 0.70026 0.69940
 C2206 C 0.14485 0.71616 0.69894
 C2207 C 0.11448 0.68580 0.72026
 C2208 C 0.10098 0.69097 0.72653
 C2209 C 0.09654 0.70668 0.72544
 C2210 C 0.10635 0.71732 0.71770
 C2211 C 0.10132 0.73273 0.71545
 C2212 C 0.08715 0.73755 0.72039
 C2213 C 0.07758 0.72739 0.72814
 C2214 C 0.08232 0.71195 0.73127
 C2215 C 0.07250 0.70241 0.74000
 C2216 C 0.05824 0.70770 0.74444
 C2217 C 0.05325 0.72261 0.74037
 C2218 C 0.06314 0.73252 0.73252
 H2219 H 0.12989 0.73436 0.70442
 H2220 H 0.13990 0.67797 0.70690
 H2221 H 0.15280 0.72419 0.69388
 H2222 H 0.11725 0.67357 0.72110
 H2223 H 0.09399 0.68219 0.73168
 H2224 H 0.10785 0.74129 0.70935
 H2225 H 0.08361 0.74939 0.71803
 H2226 H 0.07546 0.69081 0.74361
 H2227 H 0.05092 0.69985 0.75070
 H2228 H 0.05951 0.74420 0.72959
 C2229 C 0.61950 0.21743 0.55764
 C2230 C 0.63075 0.20844 0.55025
 C2231 C 0.62777 0.19249 0.54809
 C2232 C 0.61442 0.18583 0.55378
 C2233 C 0.60345 0.19485 0.56126
 C2234 C 0.60612 0.21074 0.56295
 C2235 C 0.63812 0.18322 0.54026
 C2236 C 0.65129 0.18944 0.53422
 C2237 C 0.65487 0.20522 0.53611
 C2238 C 0.64473 0.21473 0.54479
 C2239 C 0.64907 0.23008 0.54804
 C2240 C 0.66273 0.23601 0.54283
 C2241 C 0.67243 0.22710 0.53380
 C2242 C 0.66848 0.21170 0.52999
 C2243 C 0.67831 0.20345 0.52009
 C2244 C 0.69175 0.20996 0.51486
 C2245 C 0.69600 0.22491 0.51928
 C2246 C 0.68616 0.23348 0.52865
 H2247 H 0.62049 0.22974 0.55917
 H2248 H 0.61268 0.17350 0.55247
 H2249 H 0.59773 0.21817 0.56822
 H2250 H 0.63596 0.17100 0.53864
 H2251 H 0.65869 0.18139 0.52849
 H2252 H 0.64234 0.23772 0.55504
 H2253 H 0.66568 0.24777 0.54584
 H2254 H 0.67588 0.19198 0.51600
 H2255 H 0.69901 0.20305 0.50755
 H2256 H 0.68919 0.24511 0.53204
 C2257 C 0.62334 0.70612 0.06468
 C2258 C 0.62796 0.70527 0.04905
 C2259 C 0.61812 0.69793 0.03841
 C2260 C 0.60392 0.69248 0.04321
 C2261 C 0.59940 0.69368 0.05872
 C2262 C 0.60939 0.70036 0.06938
 C2263 C 0.62253 0.69599 0.02306
 C2264 C 0.63665 0.70082 0.01806
 C2265 C 0.64683 0.70827 0.02817
 C2266 C 0.64211 0.71116 0.04372
 C2267 C 0.65154 0.72013 0.05332
 C2268 C 0.66533 0.72562 0.04813
 C2269 C 0.67053 0.72208 0.03336
 C2270 C 0.66148 0.71319 0.02320
 C2271 C 0.66763 0.70936 0.00859
 C2272 C 0.68201 0.71434 0.00428
 C2273 C 0.69073 0.72342 0.01425
 C2274 C 0.68483 0.72731 0.02876
 H2275 H 0.63043 0.71073 0.07370
 H2276 H 0.59638 0.68737 0.03478
 H2277 H 0.60656 0.70093 0.08155
 H2278 H 0.61504 0.69046 0.01483
 H2279 H 0.63911 0.69891 0.00601
 H2280 H 0.64837 0.72352 0.06484
 H2281 H 0.67209 0.73261 0.05586
 H2282 H 0.66179 0.70219 0.00037
 H2283 H 0.68632 0.71103 -0.00695
 H2284 H 0.69155 0.73412 0.03669
 C2285 C 0.13028 0.06363 0.03338
 C2286 C 0.12556 0.04814 0.03525
 C2287 C 0.13514 0.03799 0.04382
 C2288 C 0.14904 0.04316 0.04983
 C2289 C 0.15371 0.05865 0.04790
 C2290 C 0.14395 0.06871 0.03956
 C2291 C 0.13080 0.02271 0.04646
 C2292 C 0.11692 0.01735 0.04120
 C2293 C 0.10687 0.02704 0.03274
 C2294 C 0.11153 0.04251 0.02921
 C2295 C 0.10208 0.05180 0.01963
 C2296 C 0.08832 0.04643 0.01418
 C2297 C 0.08327 0.03170 0.01817
 C2298 C 0.09237 0.02178 0.02757
 C2299 C 0.08636 0.00714 0.03168
 C2300 C 0.07197 0.00269 0.02667
 C2301 C 0.06315 0.01253 0.01726
 C2302 C 0.06899 0.02697 0.01295
 H2303 H 0.12345 0.07233 0.02764
 H2304 H 0.15629 0.03479 0.05565
 H2305 H 0.14632 0.08092 0.03835
 H2306 H 0.13812 0.01481 0.05289
 H2307 H 0.11450 0.00541 0.04376
 H2308 H 0.10509 0.06328 0.01587
 H2309 H 0.08146 0.05402 0.00689
 H2310 H 0.09228 -0.00099 0.03909
 H2311 H 0.06771 -0.00849 0.03028
 H2312 H 0.06219 0.03483 0.00589
 C2313 C 0.12623 0.56979 0.54042
 C2314 C 0.12331 0.55382 0.53878
 C2315 C 0.13390 0.54316 0.54527
 C2316 C 0.14721 0.54843 0.55239
 C2317 C 0.15002 0.56432 0.55371
 C2318 C 0.13929 0.57488 0.54781
 C2319 C 0.13107 0.52731 0.54478
 C2320 C 0.11766 0.52180 0.53851
 C2321 C 0.10672 0.53196 0.53201
 C2322 C 0.11001 0.54814 0.53138
 C2323 C 0.09998 0.55810 0.52321
 C2324 C 0.08671 0.55263 0.51673
 C2325 C 0.08273 0.53714 0.51838
 C2326 C 0.09261 0.52654 0.52606
 C2327 C 0.08766 0.51107 0.52793
 C2328 C 0.07346 0.50651 0.52259
 C2329 C 0.06382 0.51709 0.51501
 C2330 C 0.06868 0.53231 0.51270
 H2331 H 0.11841 0.57868 0.53663
 H2332 H 0.15539 0.54012 0.55692
 H2333 H 0.14081 0.58722 0.54917
 H2334 H 0.13917 0.51908 0.54959
 H2335 H 0.11634 0.50941 0.53862
 H2336 H 0.10223 0.57020 0.52133
 H2337 H 0.07932 0.56071 0.51063
 H2338 H 0.09423 0.50237 0.53399
 H2339 H 0.06992 0.49469 0.52461
 H2340 H 0.06122 0.54068 0.50707
 C2341 C 0.64593 0.02152 0.54320
 C2342 C 0.63533 0.03116 0.53537
 C2343 C 0.63954 0.04666 0.53238
 C2344 C 0.65341 0.05235 0.53772
 C2345 C 0.66369 0.04287 0.54608
 C2346 C 0.65974 0.02727 0.54845
 C2347 C 0.62978 0.05663 0.52433
 C2348 C 0.61574 0.05166 0.51931
 C2349 C 0.61075 0.03646 0.52235
 C2350 C 0.62066 0.02604 0.53059
 C2351 C 0.61541 0.01105 0.53420
 C2352 C 0.60095 0.00643 0.53014
 C2353 C 0.59117 0.01643 0.52216
 C2354 C 0.59599 0.03146 0.51783
 C2355 C 0.58570 0.04092 0.50929
 C2356 C 0.57113 0.03587 0.50588
 C2357 C 0.56626 0.02124 0.51076
 C2358 C 0.57646 0.01149 0.51870
 H2359 H 0.64401 0.00941 0.54541
 H2360 H 0.65563 0.06456 0.53603
 H2361 H 0.66746 0.01918 0.55404
 H2362 H 0.63298 0.06851 0.52196
 H2363 H 0.60893 0.06024 0.51338
 H2364 H 0.62208 0.00263 0.54054
 H2365 H 0.59733 -0.00511 0.53342
 H2366 H 0.58848 0.05230 0.50507
 H2367 H 0.56355 0.04363 0.49961
 H2368 H 0.57292 0.00004 0.52235
 C2369 C 0.65174 0.52863 0.02258
 C2370 C 0.64058 0.52292 0.03283
 C2371 C 0.64419 0.52234 0.04884
 C2372 C 0.65785 0.52840 0.05434
 C2373 C 0.66836 0.53493 0.04413
 C2374 C 0.66534 0.53455 0.02819
 C2375 C 0.63399 0.51615 0.05941
 C2376 C 0.62000 0.51088 0.05455
 C2377 C 0.61546 0.51192 0.03885
 C2378 C 0.62589 0.51814 0.02782
 C2379 C 0.62103 0.52006 0.01230
 C2380 C 0.60641 0.51647 0.00777
 C2381 C 0.59612 0.51048 0.01838
 C2382 C 0.60061 0.50760 0.03395
 C2383 C 0.58988 0.50077 0.04400
 C2384 C 0.57515 0.49787 0.03900
 C2385 C 0.57058 0.50165 0.02388
 C2386 C 0.58124 0.50766 0.01354
 H2387 H 0.65032 0.52876 0.01018
 H2388 H 0.65995 0.52866 0.06672
 H2389 H 0.67346 0.53905 0.01998
 H2390 H 0.63677 0.51556 0.07165
 H2391 H 0.61275 0.50658 0.06356
 H2392 H 0.62809 0.52490 0.00340
 H2393 H 0.60306 0.51857 -0.00418
 H2394 H 0.59246 0.49753 0.05580
 H2395 H 0.56718 0.49305 0.04719
 H2396 H 0.57789 0.51031 0.00169
 C2397 C 0.02667 0.05696 0.13985
 C2398 C 0.03430 0.04647 0.13008
 C2399 C 0.04900 0.04163 0.13460
 C2400 C 0.05609 0.04797 0.14762
 C2401 C 0.04876 0.05901 0.15696
 C2402 C 0.03373 0.06303 0.15298
 C2403 C 0.05683 0.03072 0.12591
 C2404 C 0.05042 0.02446 0.11272
 C2405 C 0.03597 0.02921 0.10741
 C2406 C 0.02794 0.04071 0.11598
 C2407 C 0.01417 0.04653 0.10981
 C2408 C 0.00855 0.04142 0.09567
 C2409 C 0.01611 0.02999 0.08737
 C2410 C 0.02962 0.02331 0.09341
 C2411 C 0.03632 0.01104 0.08510
 C2412 C 0.03050 0.00645 0.07088
 C2413 C 0.01773 0.01378 0.06439
 C2414 C 0.01037 0.02534 0.07290
 H2415 H 0.01512 0.06053 0.13782
 H2416 H 0.06777 0.04478 0.14973
 H2417 H 0.02704 0.07062 0.16014
 H2418 H 0.06811 0.02698 0.12930
 H2419 H 0.05743 0.01637 0.10657
 H2420 H 0.00775 0.05555 0.11533
 H2421 H -0.00183 0.04654 0.09118
 H2422 H 0.04604 0.00465 0.08928
 H2423 H 0.03631 -0.00274 0.06480
 H2424 H 0.00031 0.03091 0.06818
 C2425 C 0.03224 0.54563 0.64399
 C2426 C 0.04053 0.53946 0.63147
 C2427 C 0.05640 0.53780 0.63340
 C2428 C 0.06362 0.54305 0.64687
 C2429 C 0.05532 0.54955 0.65902
 C2430 C 0.03952 0.55050 0.65750
 C2431 C 0.06507 0.53107 0.62181
 C2432 C 0.05836 0.52569 0.60836
 C2433 C 0.04264 0.52722 0.60574
 C2434 C 0.03367 0.53481 0.61717
 C2435 C 0.01831 0.53794 0.61370
 C2436 C 0.01192 0.53376 0.59957
 C2437 C 0.02037 0.52576 0.58858
 C2438 C 0.03571 0.52192 0.59177
 C2439 C 0.04351 0.51282 0.58085
 C2440 C 0.03668 0.50857 0.56699
 C2441 C 0.02182 0.51318 0.56339
 C2442 C 0.01363 0.52166 0.57435
 H2443 H 0.02008 0.54658 0.64383
 H2444 H 0.07584 0.54234 0.64770
 H2445 H 0.03269 0.55498 0.66685
 H2446 H 0.07722 0.52986 0.62318
 H2447 H 0.06596 0.52089 0.59993
 H2448 H 0.01102 0.54418 0.62147
 H2449 H 0.00018 0.53673 0.59727
 H2450 H 0.05486 0.50858 0.58273
 H2451 H 0.04330 0.50189 0.55887
 H2452 H 0.00205 0.52507 0.57183
 C2453 C 0.54603 0.06895 0.62747
 C2454 C 0.54804 0.05336 0.62319
 C2455 C 0.55784 0.04403 0.63243
 C2456 C 0.56438 0.04993 0.64608
 C2457 C 0.56159 0.06532 0.65074
 C2458 C 0.55265 0.07474 0.64083
 C2459 C 0.56099 0.02884 0.62801
 C2460 C 0.55484 0.02280 0.61448
 C2461 C 0.54481 0.03159 0.60505
 C2462 C 0.54088 0.04689 0.60989
 C2463 C 0.52963 0.05513 0.60150
 C2464 C 0.52296 0.04900 0.58840
 C2465 C 0.52734 0.03453 0.58297
 C2466 C 0.53839 0.02559 0.59107
 C2467 C 0.54275 0.01123 0.58456
 C2468 C 0.53646 0.00615 0.57058
 C2469 C 0.52545 0.01505 0.56280
 C2470 C 0.52083 0.02912 0.56924
 H2471 H 0.53979 0.07719 0.62045
 H2472 H 0.57113 0.04220 0.65327
 H2473 H 0.55111 0.08697 0.64294
 H2474 H 0.56845 0.02158 0.63499
 H2475 H 0.55786 0.01099 0.61192
 H2476 H 0.52538 0.06627 0.60501
 H2477 H 0.51439 0.05579 0.58232
 H2478 H 0.55134 0.00389 0.58970
 H2479 H 0.54034 -0.00470 0.56577
 H2480 H 0.51251 0.03627 0.56322
 C2481 C 0.54305 0.56656 0.13297
 C2482 C 0.54347 0.55058 0.12946
 C2483 C 0.55088 0.54051 0.14016
 C2484 C 0.55699 0.54624 0.15407
 C2485 C 0.55617 0.56208 0.15749
 C2486 C 0.54930 0.57213 0.14668
 C2487 C 0.55220 0.52476 0.13693
 C2488 C 0.54661 0.51879 0.12314
 C2489 C 0.53911 0.52831 0.11210
 C2490 C 0.53705 0.54437 0.11559
 C2491 C 0.52846 0.55364 0.10520
 C2492 C 0.52262 0.54768 0.09157
 C2493 C 0.52522 0.53230 0.08759
 C2494 C 0.53351 0.52234 0.09771
 C2495 C 0.53612 0.50694 0.09278
 C2496 C 0.53085 0.50183 0.07839
 C2497 C 0.52267 0.51178 0.06849
 C2498 C 0.51973 0.52695 0.07334
 H2499 H 0.53830 0.57516 0.12522
 H2500 H 0.56229 0.53832 0.16229
 H2501 H 0.54894 0.58448 0.14869
 H2502 H 0.55779 0.51697 0.14508
 H2503 H 0.54812 0.50652 0.12161
 H2504 H 0.52578 0.56560 0.10737
 H2505 H 0.51615 0.55530 0.08395
 H2506 H 0.54256 0.49865 0.09954
 H2507 H 0.53339 0.49008 0.07493
 H2508 H 0.51360 0.53488 0.06573
 C2509 C 0.18338 0.54780 0.62172
 C2510 C 0.19910 0.54685 0.62485
 C2511 C 0.20903 0.55359 0.61389
 C2512 C 0.20338 0.56058 0.60029
 C2513 C 0.18780 0.56138 0.59738
 C2514 C 0.17789 0.55496 0.60824
 C2515 C 0.22458 0.55343 0.61656
 C2516 C 0.23055 0.54720 0.63016
 C2517 C 0.22117 0.54061 0.64160
 C2518 C 0.20527 0.53980 0.63859
 C2519 C 0.19609 0.53187 0.64935
 C2520 C 0.20210 0.52556 0.66292
 C2521 C 0.21740 0.52715 0.66648
 C2522 C 0.22717 0.53476 0.65595
 C2523 C 0.24246 0.53664 0.66047
 C2524 C 0.24769 0.53130 0.67483
 C2525 C 0.23799 0.52373 0.68511
 C2526 C 0.22290 0.52146 0.68075
 H2527 H 0.17498 0.54350 0.62962
 H2528 H 0.21117 0.56540 0.59190
 H2529 H 0.16577 0.55573 0.60648
 H2530 H 0.23224 0.55839 0.60813
 H2531 H 0.24268 0.54751 0.63122
 H2532 H 0.18418 0.53011 0.64753
 H2533 H 0.19460 0.51963 0.67086
 H2534 H 0.25059 0.54266 0.65344
 H2535 H 0.25940 0.53327 0.67798
 H2536 H 0.21524 0.51584 0.68876
 C2537 C 0.21597 0.04939 0.10476
 C2538 C 0.20680 0.04357 0.11684
 C2539 C 0.19094 0.04339 0.11430
 C2540 C 0.18462 0.04965 0.10064
 C2541 C 0.19384 0.05583 0.08900
 C2542 C 0.20957 0.05536 0.09113
 C2543 C 0.18142 0.03711 0.12548
 C2544 C 0.18725 0.03080 0.13911
 C2545 C 0.20293 0.03088 0.14233
 C2546 C 0.21281 0.03788 0.13127
 C2547 C 0.22825 0.03939 0.13521
 C2548 C 0.23390 0.03410 0.14937
 C2549 C 0.22454 0.02669 0.16000
 C2550 C 0.20900 0.02461 0.15647
 C2551 C 0.20019 0.01621 0.16724
 C2552 C 0.20641 0.01077 0.18113
 C2553 C 0.22159 0.01350 0.18490
 C2554 C 0.23064 0.02140 0.17421
 H2555 H 0.22814 0.04926 0.10535
 H2556 H 0.17243 0.05001 0.09925
 H2557 H 0.21702 0.05960 0.08215
 H2558 H 0.16928 0.03700 0.12364
 H2559 H 0.17904 0.02640 0.14717
 H2560 H 0.23624 0.04511 0.12777
 H2561 H 0.24578 0.03577 0.15198
 H2562 H 0.18850 0.01344 0.16522
 H2563 H 0.19915 0.00460 0.18910
 H2564 H 0.24246 0.02338 0.17690
 C2565 C 0.72285 0.19662 0.64710
 C2566 C 0.71452 0.20337 0.63465
 C2567 C 0.69874 0.20548 0.63671
 C2568 C 0.69167 0.20044 0.65034
 C2569 C 0.70003 0.19357 0.66245
 C2570 C 0.71569 0.19184 0.66071
 C2571 C 0.69001 0.21252 0.62512
 C2572 C 0.69656 0.21775 0.61152
 C2573 C 0.71220 0.21588 0.60879
 C2574 C 0.72124 0.20814 0.62033
 C2575 C 0.73660 0.20510 0.61700
 C2576 C 0.74294 0.20956 0.60297
 C2577 C 0.73440 0.21757 0.59184
 C2578 C 0.71900 0.22116 0.59471
 C2579 C 0.71106 0.22998 0.58335
 C2580 C 0.71797 0.23447 0.56957
 C2581 C 0.73301 0.23037 0.56653
 C2582 C 0.74120 0.22197 0.57778
 H2583 H 0.73494 0.19508 0.64681
 H2584 H 0.67951 0.20167 0.65138
 H2585 H 0.72251 0.18687 0.66999
 H2586 H 0.67793 0.21408 0.62660
 H2587 H 0.68891 0.22286 0.60315
 H2588 H 0.74398 0.19888 0.62486
 H2589 H 0.75471 0.20677 0.60085
 H2590 H 0.69954 0.23380 0.58479
 H2591 H 0.71136 0.24099 0.56113
 H2592 H 0.75291 0.21891 0.57564
 C2593 C 0.68062 0.70295 0.12449
 C2594 C 0.69621 0.70240 0.12089
 C2595 C 0.70606 0.69496 0.13167
 C2596 C 0.70055 0.68924 0.14585
 C2597 C 0.68515 0.69046 0.14949
 C2598 C 0.67526 0.69707 0.13850
 C2599 C 0.72139 0.69335 0.12830
 C2600 C 0.72719 0.69879 0.11436
 C2601 C 0.71791 0.70651 0.10334
 C2602 C 0.70228 0.70883 0.10693
 C2603 C 0.69331 0.71786 0.09665
 C2604 C 0.69924 0.72400 0.08310
 C2605 C 0.71421 0.72114 0.07902
 C2606 C 0.72376 0.71222 0.08894
 C2607 C 0.73870 0.70920 0.08387
 C2608 C 0.74382 0.71485 0.06962
 C2609 C 0.73436 0.72384 0.06001
 C2610 C 0.71959 0.72705 0.06490
 H2611 H 0.67220 0.70757 0.11662
 H2612 H 0.70834 0.68409 0.15420
 H2613 H 0.66322 0.69764 0.14069
 H2614 H 0.72901 0.68770 0.13650
 H2615 H 0.73916 0.69714 0.11276
 H2616 H 0.68168 0.72078 0.09894
 H2617 H 0.69195 0.73097 0.07566
 H2618 H 0.74660 0.70216 0.09041
 H2619 H 0.75525 0.71207 0.06607
 H2620 H 0.71206 0.73377 0.05747
 C2621 C 0.53266 0.70345 0.10929
 C2622 C 0.54115 0.70996 0.12155
 C2623 C 0.55710 0.71025 0.12001
 C2624 C 0.56414 0.70355 0.10715
 C2625 C 0.55560 0.69679 0.09530
 C2626 C 0.53979 0.69703 0.09643
 C2627 C 0.56600 0.71712 0.13136
 C2628 C 0.55947 0.72390 0.14421
 C2629 C 0.54366 0.72376 0.14645
 C2630 C 0.53440 0.71620 0.13521
 C2631 C 0.51879 0.71474 0.13823
 C2632 C 0.51241 0.72056 0.15167
 C2633 C 0.52119 0.72844 0.16245
 C2634 C 0.53687 0.73052 0.15981
 C2635 C 0.54509 0.73934 0.17068
 C2636 C 0.53818 0.74516 0.18390
 C2637 C 0.52286 0.74244 0.18683
 C2638 C 0.51439 0.73417 0.17594
 H2639 H 0.52048 0.70337 0.10913
 H2640 H 0.57638 0.70335 0.10655
 H2641 H 0.53286 0.69231 0.08726
 H2642 H 0.57821 0.71732 0.13027
 H2643 H 0.56723 0.72873 0.15248
 H2644 H 0.51121 0.70868 0.13062
 H2645 H 0.50043 0.71890 0.15361
 H2646 H 0.55685 0.74213 0.16927
 H2647 H 0.54503 0.75156 0.19205
 H2648 H 0.50247 0.73216 0.17798
 C2649 C 0.05068 0.71787 0.61181
 C2650 C 0.04467 0.70811 0.62346
 C2651 C 0.04467 0.69195 0.62068
 C2652 C 0.05129 0.68589 0.60724
 C2653 C 0.05758 0.69570 0.59600
 C2654 C 0.05693 0.71175 0.59835
 C2655 C 0.03813 0.68188 0.63136
 C2656 C 0.03130 0.68747 0.64465
 C2657 C 0.03115 0.70343 0.64805
 C2658 C 0.03853 0.71384 0.63763
 C2659 C 0.03993 0.72951 0.64195
 C2660 C 0.03407 0.73489 0.65583
 C2661 C 0.02617 0.72506 0.66573
 C2662 C 0.02423 0.70928 0.66178
 C2663 C 0.01529 0.70002 0.67168
 C2664 C 0.00914 0.70602 0.68520
 C2665 C 0.01170 0.72141 0.68944
 C2666 C 0.02020 0.73091 0.67961
 H2667 H 0.05041 0.73031 0.61256
 H2668 H 0.05173 0.67346 0.60570
 H2669 H 0.06117 0.71969 0.58965
 H2670 H 0.03816 0.66950 0.62936
 H2671 H 0.02669 0.67885 0.65234
 H2672 H 0.04598 0.73785 0.63506
 H2673 H 0.03565 0.74695 0.65877
 H2674 H 0.01259 0.68816 0.66919
 H2675 H 0.00256 0.69842 0.69254
 H2676 H 0.02205 0.74289 0.68269
 C2677 C 0.54885 0.61726 0.22239
 C2678 C 0.54226 0.62901 0.21292
 C2679 C 0.54134 0.62623 0.19678
 C2680 C 0.54751 0.61269 0.19044
 C2681 C 0.55440 0.60136 0.19991
 C2682 C 0.55477 0.60372 0.21597
 C2683 C 0.53443 0.63706 0.18694
 C2684 C 0.52829 0.65063 0.19272
 C2685 C 0.52910 0.65414 0.20865
 C2686 C 0.53658 0.64336 0.21886
 C2687 C 0.53853 0.64749 0.23455
 C2688 C 0.53336 0.66162 0.24009
 C2689 C 0.52569 0.67205 0.23039
 C2690 C 0.52310 0.66831 0.21463
 C2691 C 0.51458 0.67895 0.20550
 C2692 C 0.50956 0.69297 0.21157
 C2693 C 0.51277 0.69695 0.22695
 C2694 C 0.52072 0.68631 0.23635
 H2695 H 0.54944 0.61806 0.23483
 H2696 H 0.54725 0.61117 0.17799
 H2697 H 0.55961 0.59502 0.22366
 H2698 H 0.53374 0.63501 0.17458
 H2699 H 0.52338 0.65839 0.18423
 H2700 H 0.54447 0.64023 0.24280
 H2701 H 0.53539 0.66440 0.25215
 H2702 H 0.51148 0.67680 0.19363
 H2703 H 0.50337 0.70087 0.20401
 H2704 H 0.52313 0.68915 0.24832
 C2705 C 0.06299 0.61444 0.71308
 C2706 C 0.04721 0.61702 0.71426
 C2707 C 0.03746 0.60561 0.70818
 C2708 C 0.04338 0.59196 0.70182
 C2709 C 0.05906 0.58958 0.70066
 C2710 C 0.06875 0.60102 0.70632
 C2711 C 0.02184 0.60793 0.70829
 C2712 C 0.01563 0.62162 0.71377
 C2713 C 0.02484 0.63341 0.71986
 C2714 C 0.04081 0.63070 0.72088
 C2715 C 0.04980 0.64164 0.72865
 C2716 C 0.04355 0.65508 0.73464
 C2717 C 0.02819 0.65838 0.73276
 C2718 C 0.01861 0.64774 0.72515
 C2719 C 0.00329 0.65217 0.72273
 C2720 C -0.00216 0.66651 0.72771
 C2721 C 0.00733 0.67674 0.73554
 C2722 C 0.02246 0.67249 0.73817
 H2723 H 0.07121 0.62281 0.71675
 H2724 H 0.03570 0.58318 0.69766
 H2725 H 0.08089 0.59983 0.70520
 H2726 H 0.01432 0.59917 0.70378
 H2727 H 0.00347 0.62248 0.71345
 H2728 H 0.06174 0.63997 0.73064
 H2729 H 0.05090 0.66314 0.74054
 H2730 H -0.00462 0.64507 0.71652
 H2731 H -0.01383 0.66966 0.72534
 H2732 H 0.02999 0.68053 0.74387
 C2733 C 0.06790 0.12596 0.04397
 C2734 C 0.05248 0.12256 0.04125
 C2735 C 0.04157 0.13354 0.04622
 C2736 C 0.04604 0.14742 0.05319
 C2737 C 0.06137 0.15062 0.05573
 C2738 C 0.07221 0.13972 0.05109
 C2739 C 0.02620 0.13062 0.04428
 C2740 C 0.02132 0.11680 0.03796
 C2741 C 0.03167 0.10535 0.03306
 C2742 C 0.04750 0.10856 0.03410
 C2743 C 0.05779 0.09773 0.02784
 C2744 C 0.05287 0.08396 0.02138
 C2745 C 0.03756 0.08024 0.02117
 C2746 C 0.02673 0.09081 0.02710
 C2747 C 0.01141 0.08613 0.02727
 C2748 C 0.00716 0.07159 0.02196
 C2749 C 0.01790 0.06127 0.01606
 C2750 C 0.03307 0.06578 0.01543
 H2751 H 0.07694 0.11809 0.04108
 H2752 H 0.03753 0.15582 0.05656
 H2753 H 0.08412 0.14170 0.05320
 H2754 H 0.01781 0.13904 0.04788
 H2755 H 0.00926 0.11558 0.03683
 H2756 H 0.06981 0.09965 0.02754
 H2757 H 0.06121 0.07599 0.01679
 H2758 H 0.00247 0.09317 0.03195
 H2759 H -0.00462 0.06832 0.02266
 H2760 H 0.04150 0.05772 0.01115
 C2761 C 0.06696 0.63097 0.54147
 C2762 C 0.05154 0.62672 0.54120
 C2763 C 0.04097 0.63705 0.54792
 C2764 C 0.04570 0.65130 0.55400
 C2765 C 0.06104 0.65538 0.55410
 C2766 C 0.07157 0.64496 0.54786
 C2767 C 0.02573 0.63307 0.54867
 C2768 C 0.02076 0.61885 0.54329
 C2769 C 0.03082 0.60813 0.53651
 C2770 C 0.04633 0.61244 0.53483
 C2771 C 0.05607 0.60246 0.52661
 C2772 C 0.05101 0.58853 0.52070
 C2773 C 0.03617 0.58376 0.52301
 C2774 C 0.02587 0.59334 0.53112
 C2775 C 0.01115 0.58753 0.53376
 C2776 C 0.00690 0.57294 0.52842
 C2777 C 0.01705 0.56373 0.52010
 C2778 C 0.03165 0.56930 0.51738
 H2779 H 0.07585 0.62354 0.53730
 H2780 H 0.03736 0.65920 0.55868
 H2781 H 0.08355 0.64744 0.54821
 H2782 H 0.01756 0.64094 0.55370
 H2783 H 0.00882 0.61673 0.54430
 H2784 H 0.06767 0.60527 0.52419
 H2785 H 0.05889 0.58131 0.51440
 H2786 H 0.00277 0.59377 0.54027
 H2787 H -0.00441 0.56885 0.53082
 H2788 H 0.03972 0.56214 0.51122
 C2789 C 0.55588 0.14132 0.53311
 C2790 C 0.54888 0.12931 0.54168
 C2791 C 0.54800 0.13105 0.55797
 C2792 C 0.55452 0.14386 0.56528
 C2793 C 0.56163 0.15558 0.55667
 C2794 C 0.56206 0.15420 0.54049
 C2795 C 0.54068 0.11996 0.56697
 C2796 C 0.53401 0.10719 0.56020
 C2797 C 0.53470 0.10475 0.54405
 C2798 C 0.54271 0.11571 0.53470
 C2799 C 0.54464 0.11245 0.51882
 C2800 C 0.53900 0.09899 0.51229
 C2801 C 0.53079 0.08844 0.52115
 C2802 C 0.52811 0.09140 0.53705
 C2803 C 0.51893 0.08083 0.54527
 C2804 C 0.51350 0.06748 0.53827
 C2805 C 0.51698 0.06407 0.52283
 C2806 C 0.52544 0.07480 0.51425
 H2807 H 0.55650 0.14129 0.52064
 H2808 H 0.55422 0.14455 0.57781
 H2809 H 0.56706 0.16320 0.53342
 H2810 H 0.54003 0.12119 0.57944
 H2811 H 0.52881 0.09911 0.56807
 H2812 H 0.55097 0.11987 0.51117
 H2813 H 0.54109 0.09683 0.50013
 H2814 H 0.51564 0.08256 0.55713
 H2815 H 0.50686 0.05956 0.54520
 H2816 H 0.52804 0.07245 0.50223
 C2817 C 0.53616 0.63806 0.05064
 C2818 C 0.54538 0.62533 0.04646
 C2819 C 0.56128 0.62733 0.04702
 C2820 C 0.56753 0.64116 0.05252
 C2821 C 0.55822 0.65348 0.05712
 C2822 C 0.54250 0.65184 0.05580
 C2823 C 0.57088 0.61547 0.04221
 C2824 C 0.56509 0.60169 0.03664
 C2825 C 0.54936 0.59900 0.03609
 C2826 C 0.53938 0.61078 0.04167
 C2827 C 0.52380 0.60745 0.04271
 C2828 C 0.51812 0.59321 0.03824
 C2829 C 0.52760 0.58188 0.03212
 C2830 C 0.54330 0.58473 0.03059
 C2831 C 0.55226 0.57320 0.02347
 C2832 C 0.54598 0.55927 0.01869
 C2833 C 0.53059 0.55624 0.02088
 C2834 C 0.52144 0.56766 0.02755
 H2835 H 0.52401 0.63788 0.04975
 H2836 H 0.57971 0.64218 0.05348
 H2837 H 0.53499 0.66133 0.05871
 H2838 H 0.58305 0.61690 0.04265
 H2839 H 0.57333 0.59310 0.03334
 H2840 H 0.51571 0.61546 0.04747
 H2841 H 0.50612 0.59110 0.03949
 H2842 H 0.56413 0.57466 0.02119
 H2843 H 0.55331 0.55069 0.01349
 H2844 H 0.50947 0.56553 0.02907
 C2845 C 0.69532 0.10905 0.53365
 C2846 C 0.70994 0.11477 0.53666
 C2847 C 0.72002 0.10519 0.54529
 C2848 C 0.71568 0.09031 0.55019
 C2849 C 0.70104 0.08465 0.54716
 C2850 C 0.69101 0.09443 0.53881
 C2851 C 0.73439 0.11054 0.54913
 C2852 C 0.73882 0.12541 0.54506
 C2853 C 0.72913 0.13547 0.53659
 C2854 C 0.71472 0.12981 0.53173
 C2855 C 0.70564 0.13927 0.52195
 C2856 C 0.71020 0.15397 0.51753
 C2857 C 0.72382 0.15997 0.52285
 C2858 C 0.73343 0.15094 0.53261
 C2859 C 0.74682 0.15791 0.53820
 C2860 C 0.75057 0.17303 0.53397
 C2861 C 0.74121 0.18169 0.52396
 C2862 C 0.72784 0.17506 0.51846
 H2863 H 0.68667 0.11580 0.52785
 H2864 H 0.72400 0.08313 0.55610
 H2865 H 0.67934 0.09131 0.53684
 H2866 H 0.74225 0.10323 0.55560
 H2867 H 0.75011 0.12857 0.54846
 H2868 H 0.69502 0.13552 0.51717
 H2869 H 0.70287 0.16079 0.50996
 H2870 H 0.75450 0.15214 0.54612
 H2871 H 0.76092 0.17791 0.53849
 H2872 H 0.72038 0.18174 0.51091
 C2873 C 0.69365 0.60627 0.03242
 C2874 C 0.70868 0.61178 0.03275
 C2875 C 0.72000 0.60189 0.03917
 C2876 C 0.71637 0.58700 0.04453
 C2877 C 0.70142 0.58175 0.04414
 C2878 C 0.69013 0.59156 0.03807
 C2879 C 0.73488 0.60694 0.04038
 C2880 C 0.73876 0.62183 0.03584
 C2881 C 0.72790 0.63221 0.02954
 C2882 C 0.71278 0.62685 0.02730
 C2883 C 0.70233 0.63665 0.01950
 C2884 C 0.70633 0.65138 0.01456
 C2885 C 0.72076 0.65709 0.01747
 C2886 C 0.73171 0.64770 0.02520
 C2887 C 0.74592 0.65437 0.02854
 C2888 C 0.74915 0.66954 0.02409
 C2889 C 0.73841 0.67857 0.01608
 C2890 C 0.72423 0.67224 0.01278
 H2891 H 0.68424 0.61319 0.02835
 H2892 H 0.72524 0.57950 0.04911
 H2893 H 0.67841 0.58804 0.03805
 H2894 H 0.74361 0.59938 0.04513
 H2895 H 0.75052 0.62474 0.03712
 H2896 H 0.69099 0.63314 0.01670
 H2897 H 0.69795 0.65846 0.00856
 H2898 H 0.75470 0.64833 0.03491
 H2899 H 0.76016 0.67420 0.02690
 H2900 H 0.71574 0.67923 0.00683
 C2901 C 0.18446 0.63465 0.71125
 C2902 C 0.20016 0.63142 0.71099
 C2903 C 0.20964 0.64220 0.70335
 C2904 C 0.20360 0.65599 0.69700
 C2905 C 0.18805 0.65917 0.69773
 C2906 C 0.17858 0.64822 0.70471
 C2907 C 0.22508 0.63915 0.70205
 C2908 C 0.23131 0.62542 0.70779
 C2909 C 0.22235 0.61430 0.71547
 C2910 C 0.20666 0.61770 0.71772
 C2911 C 0.19803 0.60740 0.72682
 C2912 C 0.20427 0.59385 0.73285
 C2913 C 0.21925 0.58984 0.72987
 C2914 C 0.22853 0.59993 0.72109
 C2915 C 0.24349 0.59495 0.71793
 C2916 C 0.24883 0.58055 0.72313
 C2917 C 0.23958 0.57071 0.73184
 C2918 C 0.22488 0.57558 0.73538
 H2919 H 0.17633 0.62674 0.71604
 H2920 H 0.21106 0.66431 0.69158
 H2921 H 0.16645 0.65003 0.70494
 H2922 H 0.23242 0.64738 0.69633
 H2923 H 0.24332 0.62401 0.70629
 H2924 H 0.18641 0.60964 0.72979
 H2925 H 0.19718 0.58628 0.73972
 H2926 H 0.25120 0.60165 0.71102
 H2927 H 0.26022 0.57703 0.72016
 H2928 H 0.21753 0.56794 0.74189
 C2929 C 0.17981 0.12545 0.20295
 C2930 C 0.19529 0.12170 0.20493
 C2931 C 0.20607 0.13213 0.19877
 C2932 C 0.20139 0.14622 0.19189
 C2933 C 0.18599 0.15004 0.19069
 C2934 C 0.17531 0.13933 0.19595
 C2935 C 0.22144 0.12849 0.19961
 C2936 C 0.22638 0.11457 0.20613
 C2937 C 0.21610 0.10386 0.21254
 C2938 C 0.20038 0.10783 0.21255
 C2939 C 0.19027 0.09799 0.22046
 C2940 C 0.19520 0.08433 0.22744
 C2941 C 0.21030 0.07975 0.22658
 C2942 C 0.22100 0.08935 0.21906
 C2943 C 0.23605 0.08376 0.21795
 C2944 C 0.24012 0.06919 0.22382
 C2945 C 0.22947 0.05984 0.23126
 C2946 C 0.21465 0.06534 0.23288
 H2947 H 0.17086 0.11778 0.20638
 H2948 H 0.20977 0.15434 0.18773
 H2949 H 0.16332 0.14167 0.19461
 H2950 H 0.22976 0.13643 0.19501
 H2951 H 0.23843 0.11271 0.20634
 H2952 H 0.17845 0.10070 0.22179
 H2953 H 0.18701 0.07712 0.23333
 H2954 H 0.24481 0.09006 0.21207
 H2955 H 0.25163 0.06511 0.22232
 H2956 H 0.20625 0.05803 0.23833
 C2957 C 0.68707 1.12983 0.71798
 C2958 C 0.70214 1.12436 0.71707
 C2959 C 0.71269 1.13383 0.70924
 C2960 C 0.70826 1.14817 0.70283
 C2961 C 0.69317 1.15351 0.70365
 C2962 C 0.68273 1.14403 0.71144
 C2963 C 0.72767 1.12896 0.70775
 C2964 C 0.73237 1.11462 0.71340
 C2965 C 0.72227 1.10456 0.72101
 C2966 C 0.70704 1.10975 0.72338
 C2967 C 0.69725 1.10018 0.73202
 C2968 C 0.70195 1.08582 0.73764
 C2969 C 0.71648 1.08027 0.73473
 C2970 C 0.72688 1.08949 0.72636
 C2971 C 0.74134 1.08303 0.72334
 C2972 C 0.74513 1.06806 0.72829
 C2973 C 0.73478 1.05903 0.73654
 C2974 C 0.72054 1.06535 0.73991
 H2975 H 0.67817 1.12323 0.72328
 H2976 H 0.71687 1.15532 0.69759
 H2977 H 0.67085 1.14705 0.71194
 H2978 H 0.73585 1.13623 0.70193
 H2979 H 0.74414 1.11185 0.71174
 H2980 H 0.68585 1.10350 0.73482
 H2981 H 0.69400 1.07887 0.74416
 H2982 H 0.74986 1.08901 0.71680
 H2983 H 0.75619 1.06345 0.72544
 H2984 H 0.71233 1.05842 0.74611
 C2985 C 0.67912 0.62802 0.20800
 C2986 C 0.69447 0.62330 0.20753
 C2987 C 0.70469 0.63293 0.19937
 C2988 C 0.69974 0.64693 0.19256
 C2989 C 0.68454 0.65155 0.19338
 C2990 C 0.67431 0.64185 0.20103
 C2991 C 0.71982 0.62855 0.19802
 C2992 C 0.72504 0.61463 0.20428
 C2993 C 0.71534 0.60458 0.21246
 C2994 C 0.69995 0.60927 0.21463
 C2995 C 0.69062 0.59991 0.22402
 C2996 C 0.69594 0.58618 0.23060
 C2997 C 0.71064 0.58100 0.22788
 C2998 C 0.72055 0.59005 0.21869
 C2999 C 0.73517 0.58398 0.21584
 C3000 C 0.73966 0.56961 0.22184
 C3001 C 0.72987 0.56079 0.23101
 C3002 C 0.71541 0.56667 0.23414
 H3003 H 0.67045 0.62115 0.21335
 H3004 H 0.70781 0.65432 0.18672
 H3005 H 0.66240 0.64483 0.20145
 H3006 H 0.72772 0.63591 0.19190
 H3007 H 0.73690 0.61225 0.20274
 H3008 H 0.67914 0.60302 0.22679
 H3009 H 0.68838 0.57944 0.23778
 H3010 H 0.74331 0.58979 0.20866
 H3011 H 0.75089 0.56535 0.21917
 H3012 H 0.70766 0.55987 0.24105
 C3013 C 0.54635 0.13008 0.68554
 C3014 C 0.54531 0.13327 0.70154
 C3015 C 0.55215 0.12264 0.71209
 C3016 C 0.55894 0.10892 0.70673
 C3017 C 0.55949 0.10576 0.69083
 C3018 C 0.55335 0.11663 0.68035
 C3019 C 0.55227 0.12580 0.72792
 C3020 C 0.54615 0.13952 0.73348
 C3021 C 0.53918 0.15046 0.72343
 C3022 C 0.53807 0.14686 0.70731
 C3023 C 0.52955 0.15682 0.69753
 C3024 C 0.52309 0.17032 0.70306
 C3025 C 0.52510 0.17462 0.71844
 C3026 C 0.53319 0.16483 0.72890
 C3027 C 0.53533 0.17012 0.74425
 C3028 C 0.52986 0.18459 0.74882
 C3029 C 0.52189 0.19415 0.73838
 C3030 C 0.51932 0.18891 0.72329
 H3031 H 0.54230 0.13796 0.67668
 H3032 H 0.56371 0.10068 0.71498
 H3033 H 0.55415 0.11486 0.66797
 H3034 H 0.55740 0.11769 0.73608
 H3035 H 0.54674 0.14108 0.74584
 H3036 H 0.52735 0.15433 0.68552
 H3037 H 0.51668 0.17764 0.69510
 H3038 H 0.54167 0.16364 0.75284
 H3039 H 0.53209 0.18841 0.76053
 H3040 H 0.51337 0.19628 0.71500
 C3041 C 1.04546 0.12985 0.18355
 C3042 C 1.04466 0.13421 0.19930
 C3043 C 1.05077 0.12381 0.21054
 C3044 C 1.05639 0.10921 0.20615
 C3045 C 1.05623 0.10477 0.19057
 C3046 C 1.05112 0.11541 0.17934
 C3047 C 1.05104 0.12793 0.22612
 C3048 C 1.04541 0.14218 0.23086
 C3049 C 1.03887 0.15279 0.22018
 C3050 C 1.03809 0.14853 0.20420
 C3051 C 1.03035 0.15848 0.19372
 C3052 C 1.02392 0.17229 0.19855
 C3053 C 1.02516 0.17694 0.21391
 C3054 C 1.03282 0.16742 0.22495
 C3055 C 1.03428 0.17311 0.24023
 C3056 C 1.02834 0.18754 0.24428
 C3057 C 1.02056 0.19670 0.23335
 C3058 C 1.01891 0.19123 0.21821
 H3059 H 1.04196 0.13738 0.17416
 H3060 H 1.06048 0.10113 0.21493
 H3061 H 1.05146 0.11254 0.16715
 H3062 H 1.05568 0.12004 0.23479
 H3063 H 1.04595 0.14433 0.24312
 H3064 H 1.02867 0.15573 0.18169
 H3065 H 1.01801 0.17948 0.19009
 H3066 H 1.04031 0.16691 0.24925
 H3067 H 1.02994 0.19160 0.25601
 H3068 H 1.01320 0.19839 0.20957
 C3069 C 0.18417 0.63079 0.54728
 C3070 C 0.19981 0.63406 0.54724
 C3071 C 0.20977 0.62309 0.55422
 C3072 C 0.20426 0.60888 0.55985
 C3073 C 0.18878 0.60553 0.55904
 C3074 C 0.17882 0.61682 0.55310
 C3075 C 0.22516 0.62633 0.55547
 C3076 C 0.23089 0.64032 0.55008
 C3077 C 0.22147 0.65143 0.54267
 C3078 C 0.20580 0.64793 0.54066
 C3079 C 0.19668 0.65813 0.53173
 C3080 C 0.20251 0.67157 0.52539
 C3081 C 0.21752 0.67559 0.52797
 C3082 C 0.22721 0.66580 0.53686
 C3083 C 0.24214 0.67099 0.53975
 C3084 C 0.24712 0.68524 0.53392
 C3085 C 0.23752 0.69455 0.52479
 C3086 C 0.22280 0.68955 0.52180
 H3087 H 0.17571 0.63893 0.54324
 H3088 H 0.21208 0.60034 0.56460
 H3089 H 0.16673 0.61490 0.55302
 H3090 H 0.23286 0.61801 0.56080
 H3091 H 0.24290 0.64189 0.55142
 H3092 H 0.18503 0.65581 0.52895
 H3093 H 0.19510 0.67901 0.51851
 H3094 H 0.25007 0.66456 0.54686
 H3095 H 0.25850 0.68898 0.53657
 H3096 H 0.21518 0.69682 0.51504
 C3097 C 0.21594 0.11491 1.04499
 C3098 C 0.20665 0.12717 1.03936
 C3099 C 0.19088 0.12450 1.03835
 C3100 C 0.18472 0.11048 1.04360
 C3101 C 0.19403 0.09861 1.04953
 C3102 C 0.20970 0.10092 1.04993
 C3103 C 0.18126 0.13587 1.03222
 C3104 C 0.18693 0.14982 1.02682
 C3105 C 0.20252 0.15316 1.02771
 C3106 C 0.21246 0.14189 1.03462
 C3107 C 0.22776 0.14587 1.03695
 C3108 C 0.23324 0.16025 1.03249
 C3109 C 0.22384 0.17110 1.02514
 C3110 C 0.20843 0.16759 1.02230
 C3111 C 0.19961 0.17866 1.01402
 C3112 C 0.20573 0.19276 1.00931
 C3113 C 0.22078 0.19640 1.01272
 C3114 C 0.22980 0.18548 1.02061
 H3115 H 0.22808 0.11563 1.04546
 H3116 H 0.17257 0.10896 1.04330
 H3117 H 0.21725 0.09181 1.05401
 H3118 H 0.16918 0.13392 1.03149
 H3119 H 0.17866 0.15799 1.02245
 H3120 H 0.23576 0.13826 1.04268
 H3121 H 0.24502 0.16287 1.03474
 H3122 H 0.18801 0.17673 1.01075
 H3123 H 0.19850 0.20098 1.00318
 H3124 H 0.24153 0.18811 1.02310
 C3125 C 0.17942 0.71146 0.63027
 C3126 C 0.19502 0.71310 0.62707
 C3127 C 0.20547 0.70736 0.63829
 C3128 C 0.20041 0.70081 0.65228
 C3129 C 0.18492 0.69962 0.65539
 C3130 C 0.17453 0.70485 0.64417
 C3131 C 0.22096 0.70823 0.63557
 C3132 C 0.22639 0.71447 0.62184
 C3133 C 0.21651 0.72036 0.61026
 C3134 C 0.20058 0.72008 0.61311
 C3135 C 0.19076 0.72697 0.60202
 C3136 C 0.19623 0.73354 0.58845
 C3137 C 0.21164 0.73334 0.58520
 C3138 C 0.22203 0.72666 0.59596
 C3139 C 0.23750 0.72630 0.59179
 C3140 C 0.24232 0.73226 0.57760
 C3141 C 0.23201 0.73896 0.56710
 C3142 C 0.21668 0.73960 0.57107
 H3143 H 0.17067 0.71494 0.62222
 H3144 H 0.20857 0.69685 0.66089
 H3145 H 0.16249 0.70370 0.64606
 H3146 H 0.22900 0.70394 0.64414
 H3147 H 0.23851 0.71476 0.62080
 H3148 H 0.17871 0.72773 0.60358
 H3149 H 0.18824 0.73869 0.58030
 H3150 H 0.24616 0.72114 0.59902
 H3151 H 0.25423 0.73153 0.57479
 H3152 H 0.20856 0.74451 0.56291
 C3153 C 0.21157 0.19739 1.13499
 C3154 C 0.20290 0.20530 1.12354
 C3155 C 0.18725 0.20739 1.12637
 C3156 C 0.18054 0.20098 1.13966
 C3157 C 0.18924 0.19290 1.15080
 C3158 C 0.20485 0.19141 1.14836
 C3159 C 0.17832 0.21584 1.11591
 C3160 C 0.18461 0.22258 1.10280
 C3161 C 0.20010 0.22072 1.09935
 C3162 C 0.20924 0.21135 1.10951
 C3163 C 0.22424 0.20796 1.10507
 C3164 C 0.23019 0.21369 1.09131
 C3165 C 0.22166 0.22348 1.08168
 C3166 C 0.20665 0.22752 1.08580
 C3167 C 0.19887 0.23835 1.07623
 C3168 C 0.20546 0.24426 1.06280
 C3169 C 0.21994 0.23948 1.05825
 C3170 C 0.22805 0.22919 1.06789
 H3171 H 0.22366 0.19597 1.13417
 H3172 H 0.16844 0.20215 1.14118
 H3173 H 0.21202 0.18573 1.15692
 H3174 H 0.16632 0.21740 1.11794
 H3175 H 0.17687 0.22876 1.09526
 H3176 H 0.23156 0.20039 1.11175
 H3177 H 0.24167 0.21052 1.08824
 H3178 H 0.18776 0.24274 1.07895
 H3179 H 0.19903 0.25246 1.05581
 H3180 H 0.23939 0.22563 1.06469
 C3181 C 0.72708 0.54094 0.10517
 C3182 C 0.71750 0.53467 0.11671
 C3183 C 0.70228 0.53171 0.11251
 C3184 C 0.69686 0.53551 0.09766
 C3185 C 0.70638 0.54205 0.08651
 C3186 C 0.72157 0.54456 0.09037
 C3187 C 0.69243 0.52512 0.12317
 C3188 C 0.69732 0.52120 0.13798
 C3189 C 0.71232 0.52397 0.14285
 C3190 C 0.72246 0.53124 0.13220
 C3191 C 0.73707 0.53515 0.13751
 C3192 C 0.74171 0.53190 0.15260
 C3193 C 0.73216 0.52431 0.16292
 C3194 C 0.71742 0.51999 0.15814
 C3195 C 0.70844 0.51170 0.16887
 C3196 C 0.71377 0.50823 0.18372
 C3197 C 0.72818 0.51289 0.18850
 C3198 C 0.73732 0.52097 0.17802
 H3199 H 0.73893 0.54304 0.10713
 H3200 H 0.68503 0.53370 0.09492
 H3201 H 0.72925 0.54932 0.08187
 H3202 H 0.68076 0.52291 0.12003
 H3203 H 0.68886 0.51635 0.14547
 H3204 H 0.74514 0.54111 0.13037
 H3205 H 0.75298 0.53526 0.15618
 H3206 H 0.69734 0.50746 0.16612
 H3207 H 0.70647 0.50194 0.19156
 H3208 H 0.74858 0.52444 0.18154
 C3209 C 0.70852 1.02020 0.60365
 C3210 C 0.71300 1.02976 0.61607
 C3211 C 0.71323 1.04597 0.61338
 C3212 C 0.70810 1.05226 0.59923
 C3213 C 0.70312 1.04265 0.58725
 C3214 C 0.70372 1.02657 0.58953
 C3215 C 0.71837 1.05588 0.62489
 C3216 C 0.72340 1.05009 0.63906
 C3217 C 0.72304 1.03409 0.64250
 C3218 C 0.71724 1.02382 0.63102
 C3219 C 0.71534 1.00807 0.63506
 C3220 C 0.71902 1.00252 0.64976
 C3221 C 0.72521 1.01227 0.66087
 C3222 C 0.72776 1.02808 0.65726
 C3223 C 0.73498 1.03722 0.66861
 C3224 C 0.73877 1.03107 0.68312
 C3225 C 0.73543 1.01568 0.68689
 C3226 C 0.72877 1.00629 0.67566
 H3227 H 0.70882 1.00774 0.60438
 H3228 H 0.70762 1.06473 0.59776
 H3229 H 0.70042 1.01883 0.58032
 H3230 H 0.71855 1.06829 0.62290
 H3231 H 0.72696 1.05859 0.64735
 H3232 H 0.71045 0.99980 0.62726
 H3233 H 0.71705 0.99042 0.65244
 H3234 H 0.73807 1.04911 0.66658
 H3235 H 0.74403 1.03855 0.69156
 H3236 H 0.72642 0.99427 0.67840
 C3237 C 0.54882 0.18731 0.62531
 C3238 C 0.54919 0.20312 0.62948
 C3239 C 0.55670 0.21350 0.61935
 C3240 C 0.56296 0.20824 0.60538
 C3241 C 0.56230 0.19256 0.60131
 C3242 C 0.55529 0.18219 0.61153
 C3243 C 0.55797 0.22907 0.62320
 C3244 C 0.55224 0.23460 0.63706
 C3245 C 0.54462 0.22479 0.64756
 C3246 C 0.54258 0.20892 0.64343
 C3247 C 0.53378 0.19944 0.65322
 C3248 C 0.52755 0.20510 0.66679
 C3249 C 0.53006 0.22030 0.67137
 C3250 C 0.53878 0.23035 0.66196
 C3251 C 0.54151 0.24546 0.66756
 C3252 C 0.53572 0.25030 0.68177
 C3253 C 0.52687 0.24040 0.69083
 C3254 C 0.52401 0.22542 0.68546
 H3255 H 0.54395 0.17850 0.63259
 H3256 H 0.56827 0.21646 0.59759
 H3257 H 0.55499 0.16994 0.60901
 H3258 H 0.56363 0.23709 0.61547
 H3259 H 0.55366 0.24680 0.63905
 H3260 H 0.53117 0.18760 0.65056
 H3261 H 0.52080 0.19740 0.67387
 H3262 H 0.54841 0.25370 0.66147
 H3263 H 0.53824 0.26188 0.68571
 H3264 H 0.51743 0.21753 0.69251
 C3265 C 1.03914 0.18687 0.11951
 C3266 C 1.03971 0.20274 0.12336
 C3267 C 1.04760 0.21271 0.11319
 C3268 C 1.05449 0.20696 0.09978
 C3269 C 1.05427 0.19105 0.09620
 C3270 C 1.04624 0.18120 0.10626
 C3271 C 1.04876 0.22843 0.11647
 C3272 C 1.04282 0.23444 0.13001
 C3273 C 1.03521 0.22495 0.14079
 C3274 C 1.03304 0.20898 0.13709
 C3275 C 1.02425 0.19984 0.14720
 C3276 C 1.01831 0.20587 0.16075
 C3277 C 1.02111 0.22112 0.16497
 C3278 C 1.02965 0.23090 0.15513
 C3279 C 1.03263 0.24612 0.16030
 C3280 C 1.02739 0.25126 0.17461
 C3281 C 1.01887 0.24156 0.18421
 C3282 C 1.01562 0.22655 0.17918
 H3283 H 1.03374 0.17836 0.12675
 H3284 H 1.05974 0.21517 0.09198
 H3285 H 1.04603 0.16882 0.10457
 H3286 H 1.05459 0.23618 0.10861
 H3287 H 1.04424 0.24669 0.13158
 H3288 H 1.02156 0.18794 0.14489
 H3289 H 1.01164 0.19839 0.16814
 H3290 H 1.03936 0.25421 0.15382
 H3291 H 1.03015 0.26289 0.17823
 H3292 H 1.00924 0.21882 0.18660
 C3293 C 0.63470 0.21318 0.69327
 C3294 C 0.63027 0.21384 0.70897
 C3295 C 0.63962 0.20625 0.72012
 C3296 C 0.65317 0.19896 0.71565
 C3297 C 0.65744 0.19853 0.70001
 C3298 C 0.64796 0.20561 0.68893
 C3299 C 0.63532 0.20582 0.73564
 C3300 C 0.62167 0.21231 0.74032
 C3301 C 0.61193 0.21995 0.72966
 C3302 C 0.61670 0.22139 0.71389
 C3303 C 0.60784 0.23050 0.70359
 C3304 C 0.59439 0.23730 0.70827
 C3305 C 0.58905 0.23507 0.72328
 C3306 C 0.59764 0.22630 0.73421
 C3307 C 0.59130 0.22390 0.74908
 C3308 C 0.57704 0.22987 0.75278
 C3309 C 0.56873 0.23863 0.74193
 C3310 C 0.57495 0.24135 0.72727
 H3311 H 0.62791 0.21792 0.68394
 H3312 H 0.66037 0.19359 0.72440
 H3313 H 0.65060 0.20502 0.67671
 H3314 H 0.64245 0.20014 0.74426
 H3315 H 0.61920 0.21144 0.75250
 H3316 H 0.61116 0.23290 0.69183
 H3317 H 0.58795 0.24415 0.69993
 H3318 H 0.59681 0.21701 0.75794
 H3319 H 0.57243 0.22749 0.76415
 H3320 H 0.56851 0.24786 0.71865
 C3321 C 1.12405 0.18858 0.20372
 C3322 C 1.12175 0.20462 0.20583
 C3323 C 1.13272 0.21488 0.19975
 C3324 C 1.14600 0.20907 0.19290
 C3325 C 1.14839 0.19306 0.19155
 C3326 C 1.13706 0.18299 0.19667
 C3327 C 1.13035 0.23084 0.20055
 C3328 C 1.11715 0.23686 0.20691
 C3329 C 1.10600 0.22710 0.21328
 C3330 C 1.10875 0.21076 0.21344
 C3331 C 1.09860 0.20110 0.22149
 C3332 C 1.08573 0.20704 0.22841
 C3333 C 1.08226 0.22277 0.22731
 C3334 C 1.09224 0.23306 0.21965
 C3335 C 1.08773 0.24879 0.21826
 C3336 C 1.07383 0.25390 0.22402
 C3337 C 1.06415 0.24363 0.23165
 C3338 C 1.06860 0.22814 0.23351
 H3339 H 1.11581 0.18005 0.20700
 H3340 H 1.15456 0.21703 0.18883
 H3341 H 1.13820 0.17060 0.19513
 H3342 H 1.13869 0.23878 0.19599
 H3343 H 1.11620 0.24930 0.20706
 H3344 H 1.10050 0.18885 0.22302
 H3345 H 1.07824 0.19916 0.23442
 H3346 H 1.09438 0.25730 0.21222
 H3347 H 1.07054 0.26590 0.22230
 H3348 H 1.06102 0.22003 0.23909
 C3349 C 0.11351 0.72228 0.55281
 C3350 C 0.12550 0.71373 0.54617
 C3351 C 0.12332 0.69766 0.54390
 C3352 C 0.11012 0.69040 0.54914
 C3353 C 0.09851 0.69895 0.55617
 C3354 C 0.10027 0.71501 0.55760
 C3355 C 0.13436 0.68888 0.53650
 C3356 C 0.14746 0.69572 0.53099
 C3357 C 0.15027 0.71163 0.53318
 C3358 C 0.13947 0.72059 0.54158
 C3359 C 0.14322 0.73592 0.54556
 C3360 C 0.15694 0.74237 0.54125
 C3361 C 0.16720 0.73406 0.53229
 C3362 C 0.16380 0.71874 0.52771
 C3363 C 0.17399 0.71124 0.51764
 C3364 C 0.18733 0.71837 0.51301
 C3365 C 0.19116 0.73311 0.51841
 C3366 C 0.18090 0.74097 0.52792
 H3367 H 0.11386 0.73467 0.55410
 H3368 H 0.10905 0.67798 0.54796
 H3369 H 0.09132 0.72208 0.56239
 H3370 H 0.13282 0.67657 0.53480
 H3371 H 0.15549 0.68807 0.52559
 H3372 H 0.13600 0.74307 0.55258
 H3373 H 0.15947 0.75406 0.54485
 H3374 H 0.17182 0.70000 0.51283
 H3375 H 0.19476 0.71215 0.50529
 H3376 H 0.18355 0.75251 0.53191
 C3377 C 0.11977 0.20997 1.06459
 C3378 C 0.12280 0.21176 1.04859
 C3379 C 0.11276 0.20470 1.03796
 C3380 C 0.09990 0.19684 1.04324
 C3381 C 0.09693 0.19544 1.05913
 C3382 C 0.10710 0.20193 1.06970
 C3383 C 0.11560 0.20547 1.02210
 C3384 C 0.12844 0.21273 1.01650
 C3385 C 0.13883 0.21990 1.02659
 C3386 C 0.13560 0.22001 1.04282
 C3387 C 0.14512 0.22855 1.05272
 C3388 C 0.15774 0.23615 1.04709
 C3389 C 0.16159 0.23530 1.03149
 C3390 C 0.15231 0.22706 1.02099
 C3391 C 0.15721 0.22595 1.00543
 C3392 C 0.17080 0.23256 1.00067
 C3393 C 0.17983 0.24074 1.01111
 C3394 C 0.17496 0.24232 1.02643
 H3395 H 0.12716 0.21429 1.07350
 H3396 H 0.09211 0.19189 1.03492
 H3397 H 0.10539 0.20060 1.08206
 H3398 H 0.10790 0.20021 1.01390
 H3399 H 0.12972 0.21284 1.00410
 H3400 H 0.14296 0.22986 1.06490
 H3401 H 0.16475 0.24252 1.05515
 H3402 H 0.15113 0.21954 0.99678
 H3403 H 0.17437 0.23104 0.98879
 H3404 H 0.18197 0.24842 1.03466
 C3405 C 0.62187 0.56872 0.21021
 C3406 C 0.62562 0.55277 0.21067
 C3407 C 0.61530 0.54233 0.20383
 C3408 C 0.60144 0.54768 0.19765
 C3409 C 0.59769 0.56350 0.19774
 C3410 C 0.60820 0.57393 0.20383
 C3411 C 0.61884 0.52659 0.20320
 C3412 C 0.63254 0.52096 0.20897
 C3413 C 0.64314 0.53084 0.21605
 C3414 C 0.63934 0.54690 0.21747
 C3415 C 0.64918 0.55649 0.22594
 C3416 C 0.66253 0.55076 0.23235
 C3417 C 0.66684 0.53538 0.23030
 C3418 C 0.65733 0.52518 0.22199
 C3419 C 0.66262 0.50984 0.21973
 C3420 C 0.67669 0.50495 0.22550
 C3421 C 0.68589 0.51505 0.23389
 C3422 C 0.68077 0.53022 0.23636
 H3423 H 0.62939 0.57755 0.21434
 H3424 H 0.59347 0.53946 0.19296
 H3425 H 0.60596 0.58626 0.20352
 H3426 H 0.61099 0.51852 0.19804
 H3427 H 0.63432 0.50865 0.20806
 H3428 H 0.64670 0.56848 0.22822
 H3429 H 0.66966 0.55855 0.23886
 H3430 H 0.65638 0.50145 0.21316
 H3431 H 0.68041 0.49321 0.22328
 H3432 H 0.68789 0.53825 0.24259
 C3433 C 0.62562 1.07098 0.70485
 C3434 C 0.62848 1.05490 0.70639
 C3435 C 0.61765 1.04465 0.70008
 C3436 C 0.60427 1.05038 0.69320
 C3437 C 0.60148 1.06634 0.69209
 C3438 C 0.61239 1.07654 0.69781
 C3439 C 0.62019 1.02872 0.70067
 C3440 C 0.63344 1.02266 0.70704
 C3441 C 0.64461 1.03234 0.71344
 C3442 C 0.64179 1.04868 0.71370
 C3443 C 0.65225 1.05820 0.72147
 C3444 C 0.66530 1.05210 0.72823
 C3445 C 0.66865 1.03635 0.72726
 C3446 C 0.65846 1.02624 0.71971
 C3447 C 0.66280 1.01049 0.71839
 C3448 C 0.67663 1.00514 0.72425
 C3449 C 0.68652 1.01516 0.73184
 C3450 C 0.68235 1.03073 0.73350
 H3451 H 0.63351 1.07962 0.70863
 H3452 H 0.59593 1.04235 0.68885
 H3453 H 0.61079 1.08894 0.69667
 H3454 H 0.61191 1.02081 0.69599
 H3455 H 0.63441 1.01023 0.70710
 H3456 H 0.65053 1.07047 0.72283
 H3457 H 0.67298 1.05987 0.73407
 H3458 H 0.65602 1.00208 0.71244
 H3459 H 0.67967 0.99308 0.72272
 H3460 H 0.69010 1.03864 0.73909
 C3461 C 0.88187 0.44241 0.28765
 C3462 C 0.87652 0.45783 0.28612
 C3463 C 0.88602 0.46984 0.29146
 C3464 C 0.90044 0.46644 0.29755
 C3465 C 0.90557 0.45111 0.29888
 C3466 C 0.89610 0.43917 0.29395
 C3467 C 0.88107 0.48518 0.29085
 C3468 C 0.86663 0.48889 0.28557
 C3469 C 0.85664 0.47735 0.28033
 C3470 C 0.86194 0.46168 0.27989
 C3471 C 0.85256 0.45041 0.27311
 C3472 C 0.83819 0.45414 0.26766
 C3473 C 0.83246 0.46913 0.26901
 C3474 C 0.84153 0.48096 0.27544
 C3475 C 0.83491 0.49582 0.27713
 C3476 C 0.81997 0.49869 0.27266
 C3477 C 0.81115 0.48697 0.26621
 C3478 C 0.81755 0.47225 0.26422
 H3479 H 0.87517 0.43253 0.28454
 H3480 H 0.90768 0.47579 0.30129
 H3481 H 0.89954 0.42717 0.29529
 H3482 H 0.88834 0.49443 0.29475
 H3483 H 0.86375 0.50102 0.28545
 H3484 H 0.85610 0.43857 0.27157
 H3485 H 0.83138 0.44509 0.26260
 H3486 H 0.84077 0.50536 0.28233
 H3487 H 0.81526 0.51015 0.27439
 H3488 H 0.81074 0.46303 0.25946
 C3489 C 0.86199 0.93505 0.82723
 C3490 C 0.85960 0.93742 0.81115
 C3491 C 0.87082 0.93176 0.80091
 C3492 C 0.88421 0.92493 0.80670
 C3493 C 0.88671 0.92349 0.82269
 C3494 C 0.87531 0.92827 0.83283
 C3495 C 0.86878 0.93323 0.78494
 C3496 C 0.85588 0.94027 0.77881
 C3497 C 0.84452 0.94642 0.78847
 C3498 C 0.84655 0.94524 0.80492
 C3499 C 0.83569 0.95228 0.81458
 C3500 C 0.82323 0.96009 0.80846
 C3501 C 0.82090 0.96102 0.79250
 C3502 C 0.83133 0.95399 0.78224
 C3503 C 0.82798 0.95471 0.76617
 C3504 C 0.81495 0.96217 0.76063
 C3505 C 0.80493 0.96937 0.77083
 C3506 C 0.80802 0.96881 0.78676
 H3507 H 0.85381 0.93826 0.83584
 H3508 H 0.89293 0.92123 0.79874
 H3509 H 0.87678 0.92686 0.84524
 H3510 H 0.87731 0.92894 0.77705
 H3511 H 0.85538 0.94106 0.76636
 H3512 H 0.83664 0.95230 0.82702
 H3513 H 0.81527 0.96541 0.81635
 H3514 H 0.83497 0.94933 0.75754
 H3515 H 0.81269 0.96229 0.74828
 H3516 H 0.80010 0.97402 0.79478
 C3517 C 0.36679 0.28633 0.79942
 C3518 C 0.37866 0.29558 0.79361
 C3519 C 0.37625 0.31182 0.79291
 C3520 C 0.36291 0.31843 0.79876
 C3521 C 0.35152 0.30913 0.80507
 C3522 C 0.35350 0.29302 0.80501
 C3523 C 0.38723 0.32142 0.78656
 C3524 C 0.40057 0.31530 0.78071
 C3525 C 0.40367 0.29925 0.78137
 C3526 C 0.39277 0.28929 0.78842
 C3527 C 0.39652 0.27349 0.79051
 C3528 C 0.41032 0.26754 0.78568
 C3529 C 0.42079 0.27694 0.77821
 C3530 C 0.41751 0.29286 0.77561
 C3531 C 0.42823 0.30168 0.76728
 C3532 C 0.44179 0.29509 0.76233
 C3533 C 0.44523 0.27953 0.76552
 C3534 C 0.43462 0.27050 0.77341
 H3535 H 0.36730 0.27387 0.79960
 H3536 H 0.36159 0.33092 0.79874
 H3537 H 0.34471 0.28547 0.80929
 H3538 H 0.38548 0.33386 0.78604
 H3539 H 0.40848 0.32359 0.77619
 H3540 H 0.38919 0.26544 0.79633
 H3541 H 0.41278 0.25538 0.78776
 H3542 H 0.42643 0.31368 0.76424
 H3543 H 0.44980 0.30237 0.75628
 H3544 H 0.43711 0.25840 0.77582
 C3545 C 0.87449 0.29334 0.31624
 C3546 C 0.87874 0.29521 0.30056
 C3547 C 0.86886 0.30378 0.29066
 C3548 C 0.85488 0.30932 0.29615
 C3549 C 0.85063 0.30688 0.31162
 C3550 C 0.86075 0.29911 0.32161
 C3551 C 0.87299 0.30677 0.27536
 C3552 C 0.88685 0.30173 0.26970
 C3553 C 0.89700 0.29299 0.27904
 C3554 C 0.89256 0.28912 0.29451
 C3555 C 0.90188 0.27899 0.30331
 C3556 C 0.91538 0.27333 0.29748
 C3557 C 0.92037 0.27780 0.28284
 C3558 C 0.91135 0.28776 0.27339
 C3559 C 0.91727 0.29227 0.25882
 C3560 C 0.93147 0.28708 0.25396
 C3561 C 0.94023 0.27712 0.26333
 C3562 C 0.93447 0.27243 0.27771
 H3563 H 0.88169 0.28783 0.32478
 H3564 H 0.84725 0.31539 0.28828
 H3565 H 0.85815 0.29762 0.33377
 H3566 H 0.86549 0.31328 0.26770
 H3567 H 0.88912 0.30453 0.25776
 H3568 H 0.89884 0.27482 0.31466
 H3569 H 0.92208 0.26546 0.30461
 H3570 H 0.91140 0.30013 0.25107
 H3571 H 0.93565 0.29100 0.24283
 H3572 H 0.94115 0.26486 0.28518
 C3573 C 0.38636 0.78811 0.45023
 C3574 C 0.37528 0.79687 0.45817
 C3575 C 0.37752 0.81305 0.45934
 C3576 C 0.38983 0.82013 0.45204
 C3577 C 0.40044 0.81136 0.44381
 C3578 C 0.39869 0.79527 0.44322
 C3579 C 0.36740 0.82216 0.46762
 C3580 C 0.35500 0.81561 0.47486
 C3581 C 0.35200 0.79963 0.47375
 C3582 C 0.36208 0.79017 0.46492
 C3583 C 0.35834 0.77449 0.46264
 C3584 C 0.34516 0.76827 0.46863
 C3585 C 0.33540 0.77725 0.47749
 C3586 C 0.33890 0.79291 0.48065
 C3587 C 0.32903 0.80120 0.49047
 C3588 C 0.31576 0.79453 0.49596
 C3589 C 0.31184 0.77943 0.49187
 C3590 C 0.32194 0.77072 0.48294
 H3591 H 0.38598 0.77569 0.44941
 H3592 H 0.39095 0.83261 0.45253
 H3593 H 0.40695 0.78812 0.43738
 H3594 H 0.36906 0.83454 0.46854
 H3595 H 0.34764 0.82356 0.48078
 H3596 H 0.36508 0.76679 0.45573
 H3597 H 0.34256 0.75628 0.46622
 H3598 H 0.33120 0.81285 0.49417
 H3599 H 0.30831 0.80146 0.50305
 H3600 H 0.31918 0.75890 0.47996
 C3601 C 0.36507 0.30220 0.92968
 C3602 C 0.36223 0.30052 0.94572
 C3603 C 0.37254 0.30738 0.95619
 C3604 C 0.38566 0.31468 0.95070
 C3605 C 0.38849 0.31596 0.93474
 C3606 C 0.37788 0.30985 0.92435
 C3607 C 0.36968 0.30698 0.97207
 C3608 C 0.35655 0.30031 0.97780
 C3609 C 0.34600 0.29321 0.96785
 C3610 C 0.34933 0.29260 0.95165
 C3611 C 0.33985 0.28381 0.94197
 C3612 C 0.32711 0.27653 0.94772
 C3613 C 0.32302 0.27807 0.96320
 C3614 C 0.33231 0.28651 0.97352
 C3615 C 0.32720 0.28828 0.98895
 C3616 C 0.31339 0.28211 0.99373
 C3617 C 0.30434 0.27375 0.98344
 C3618 C 0.30943 0.27153 0.96827
 H3619 H 0.35734 0.29818 0.92091
 H3620 H 0.39371 0.31927 0.95895
 H3621 H 0.37935 0.31116 0.91196
 H3622 H 0.37754 0.31214 0.98017
 H3623 H 0.35519 0.30052 0.99019
 H3624 H 0.34221 0.28196 0.92988
 H3625 H 0.32022 0.26983 0.93988
 H3626 H 0.33330 0.29491 0.99742
 H3627 H 0.30965 0.28416 1.00547
 H3628 H 0.30241 0.26534 0.96008
 C3629 C 0.81993 0.45484 0.37766
 C3630 C 0.80425 0.45656 0.37459
 C3631 C 0.79409 0.45004 0.38545
 C3632 C 0.79951 0.44261 0.39897
 C3633 C 0.81507 0.44116 0.40191
 C3634 C 0.82518 0.44727 0.39104
 C3635 C 0.77855 0.45093 0.38281
 C3636 C 0.77278 0.45780 0.36940
 C3637 C 0.78237 0.46434 0.35811
 C3638 C 0.79833 0.46424 0.36103
 C3639 C 0.80779 0.47195 0.35038
 C3640 C 0.80200 0.47898 0.33705
 C3641 C 0.78660 0.47840 0.33359
 C3642 C 0.77653 0.47103 0.34401
 C3643 C 0.76109 0.47025 0.33961
 C3644 C 0.75603 0.47629 0.32543
 C3645 C 0.76604 0.48353 0.31521
 C3646 C 0.78128 0.48481 0.31952
 H3647 H 0.82848 0.45891 0.36980
 H3648 H 0.79154 0.43804 0.40731
 H3649 H 0.83727 0.44599 0.39276
 H3650 H 0.77072 0.44610 0.39114
 H3651 H 0.76064 0.45801 0.36838
 H3652 H 0.81981 0.47298 0.35212
 H3653 H 0.80974 0.48469 0.32920
 H3654 H 0.75269 0.46458 0.34658
 H3655 H 0.74421 0.47504 0.32233
 H3656 H 0.78918 0.49013 0.31155
 C3657 C 0.80757 0.95714 0.88491
 C3658 C 0.79964 0.94862 0.87355
 C3659 C 0.79877 0.93236 0.87563
 C3660 C 0.80622 0.92500 0.88814
 C3661 C 0.81424 0.93359 0.89918
 C3662 C 0.81464 0.94974 0.89746
 C3663 C 0.79046 0.92350 0.86522
 C3664 C 0.78275 0.93043 0.85287
 C3665 C 0.78341 0.94655 0.85015
 C3666 C 0.79245 0.95571 0.86034
 C3667 C 0.79434 0.97155 0.85676
 C3668 C 0.78749 0.97830 0.84384
 C3669 C 0.77821 0.96968 0.83414
 C3670 C 0.77572 0.95377 0.83729
 C3671 C 0.76563 0.94581 0.82738
 C3672 C 0.75903 0.95316 0.81449
 C3673 C 0.76222 0.96866 0.81101
 C3674 C 0.77162 0.97690 0.82110
 H3675 H 0.80820 0.96958 0.88468
 H3676 H 0.80586 0.91249 0.88917
 H3677 H 0.82029 0.95678 0.90601
 H3678 H 0.78977 0.91106 0.86671
 H3679 H 0.77669 0.92271 0.84537
 H3680 H 0.80149 0.97902 0.86346
 H3681 H 0.78950 0.99045 0.84143
 H3682 H 0.76257 0.93389 0.82927
 H3683 H 0.75179 0.94651 0.80692
 H3684 H 0.77406 0.98896 0.81866
 C3685 C 0.31708 0.79135 0.37274
 C3686 C 0.30166 0.79029 0.37697
 C3687 C 0.29067 0.79547 0.36603
 C3688 C 0.29504 0.80128 0.35153
 C3689 C 0.31035 0.80261 0.34769
 C3690 C 0.32129 0.79746 0.35837
 C3691 C 0.27536 0.79510 0.36968
 C3692 C 0.27063 0.79033 0.38424
 C3693 C 0.28110 0.78545 0.39572
 C3694 C 0.29679 0.78469 0.39177
 C3695 C 0.30705 0.77833 0.40273
 C3696 C 0.30228 0.77347 0.41727
 C3697 C 0.28720 0.77505 0.42162
 C3698 C 0.27639 0.78120 0.41100
 C3699 C 0.26137 0.78324 0.41628
 C3700 C 0.25734 0.77920 0.43138
 C3701 C 0.26802 0.77287 0.44169
 C3702 C 0.28293 0.77072 0.43668
 H3703 H 0.32620 0.78808 0.38044
 H3704 H 0.28645 0.80498 0.34325
 H3705 H 0.33321 0.79858 0.35582
 H3706 H 0.26690 0.79884 0.36127
 H3707 H 0.25860 0.79037 0.38605
 H3708 H 0.31889 0.77669 0.40035
 H3709 H 0.31058 0.76866 0.42530
 H3710 H 0.25255 0.78834 0.40922
 H3711 H 0.24576 0.78107 0.43499
 H3712 H 0.29136 0.76607 0.44466
 C3713 C 0.31648 0.29600 0.87207
 C3714 C 0.30076 0.29642 0.87502
 C3715 C 0.29133 0.30432 0.86418
 C3716 C 0.29740 0.31064 0.85054
 C3717 C 0.31300 0.30993 0.84765
 C3718 C 0.32244 0.30271 0.85869
 C3719 C 0.27590 0.30595 0.86703
 C3720 C 0.26964 0.30036 0.88069
 C3721 C 0.27854 0.29237 0.89183
 C3722 C 0.29416 0.28963 0.88853
 C3723 C 0.30258 0.27990 0.89863
 C3724 C 0.29618 0.27368 0.91192
 C3725 C 0.28136 0.27734 0.91599
 C3726 C 0.27232 0.28682 0.90610
 C3727 C 0.25756 0.29070 0.91113
 C3728 C 0.25214 0.28539 0.92538
 C3729 C 0.26111 0.27591 0.93500
 C3730 C 0.27565 0.27175 0.93009
 H3731 H 0.32454 0.29101 0.88013
 H3732 H 0.28988 0.31607 0.84212
 H3733 H 0.33458 0.30245 0.85714
 H3734 H 0.26860 0.31189 0.85873
 H3735 H 0.25765 0.30212 0.88198
 H3736 H 0.31409 0.27647 0.89632
 H3737 H 0.30301 0.26610 0.91921
 H3738 H 0.25011 0.29825 0.90460
 H3739 H 0.24090 0.28887 0.92894
 H3740 H 0.28281 0.26462 0.93753
 C3741 C 0.42581 0.30880 0.86895
 C3742 C 0.44165 0.30750 0.86697
 C3743 C 0.45105 0.31319 0.87900
 C3744 C 0.44473 0.31920 0.89264
 C3745 C 0.42900 0.31986 0.89461
 C3746 C 0.41968 0.31484 0.88250
 C3747 C 0.46672 0.31270 0.87745
 C3748 C 0.47337 0.30661 0.86428
 C3749 C 0.46459 0.30047 0.85210
 C3750 C 0.44846 0.30074 0.85356
 C3751 C 0.43968 0.29389 0.84176
 C3752 C 0.44636 0.28698 0.82903
 C3753 C 0.46201 0.28678 0.82734
 C3754 C 0.47138 0.29377 0.83865
 C3755 C 0.48718 0.29379 0.83593
 C3756 C 0.49330 0.28695 0.82274
 C3757 C 0.48399 0.27969 0.81187
 C3758 C 0.46833 0.27967 0.81427
 H3759 H 0.41778 0.30537 0.86023
 H3760 H 0.45210 0.32304 0.90190
 H3761 H 0.40749 0.31565 0.88345
 H3762 H 0.47397 0.31705 0.88658
 H3763 H 0.48554 0.30655 0.86420
 H3764 H 0.42754 0.29333 0.84215
 H3765 H 0.43914 0.28174 0.82037
 H3766 H 0.49514 0.29922 0.84360
 H3767 H 0.50541 0.28736 0.82103
 H3768 H 0.46097 0.27448 0.80569
 C3769 C 0.92901 0.30093 0.37234
 C3770 C 0.94457 0.30163 0.36863
 C3771 C 0.95428 0.30926 0.37917
 C3772 C 0.94864 0.31528 0.39310
 C3773 C 0.93320 0.31436 0.39668
 C3774 C 0.92348 0.30723 0.38605
 C3775 C 0.96957 0.31094 0.37574
 C3776 C 0.97545 0.30553 0.36189
 C3777 C 0.96630 0.29778 0.35102
 C3778 C 0.95075 0.29525 0.35474
 C3779 C 0.94197 0.28619 0.34461
 C3780 C 0.94800 0.28016 0.33112
 C3781 C 0.96289 0.28318 0.32693
 C3782 C 0.97224 0.29222 0.33666
 C3783 C 0.98704 0.29552 0.33142
 C3784 C 0.99230 0.28987 0.31728
 C3785 C 0.98311 0.28062 0.30795
 C3786 C 0.96842 0.27729 0.31293
 H3787 H 0.92070 0.29599 0.36470
 H3788 H 0.95635 0.32066 0.40120
 H3789 H 0.91144 0.30677 0.38816
 H3790 H 0.97708 0.31670 0.38378
 H3791 H 0.98738 0.30726 0.36023
 H3792 H 0.93041 0.28317 0.34698
 H3793 H 0.94086 0.27314 0.32380
 H3794 H 0.99473 0.30275 0.33777
 H3795 H 1.00365 0.29278 0.31366
 H3796 H 0.96107 0.27039 0.30569
 C3797 C 0.44355 0.36871 0.82728
 C3798 C 0.44714 0.36808 0.81132
 C3799 C 0.44141 0.38007 0.80155
 C3800 C 0.43331 0.39256 0.80776
 C3801 C 0.43069 0.39344 0.82372
 C3802 C 0.43555 0.38123 0.83332
 C3803 C 0.44412 0.37977 0.78567
 C3804 C 0.45256 0.36792 0.77918
 C3805 C 0.45889 0.35592 0.78840
 C3806 C 0.45632 0.35612 0.80478
 C3807 C 0.46336 0.34463 0.81413
 C3808 C 0.47252 0.33330 0.80777
 C3809 C 0.47486 0.33275 0.79184
 C3810 C 0.46792 0.34385 0.78184
 C3811 C 0.47014 0.34218 0.76567
 C3812 C 0.47874 0.32996 0.75981
 C3813 C 0.48568 0.31924 0.76983
 C3814 C 0.48386 0.32085 0.78584
 H3815 H 0.44679 0.35980 0.83547
 H3816 H 0.42960 0.40198 0.80023
 H3817 H 0.43330 0.38145 0.84565
 H3818 H 0.43974 0.38890 0.77815
 H3819 H 0.45425 0.36877 0.76686
 H3820 H 0.46230 0.34422 0.82655
 H3821 H 0.47774 0.32477 0.81544
 H3822 H 0.46499 0.34978 0.75717
 H3823 H 0.47974 0.32873 0.74738
 H3824 H 0.48880 0.31228 0.79366
 C3825 C 0.96527 0.39337 0.30830
 C3826 C 0.96525 0.38863 0.29265
 C3827 C 0.95820 0.39854 0.28155
 C3828 C 0.95181 0.41274 0.28603
 C3829 C 0.95164 0.41710 0.30165
 C3830 C 0.95850 0.40727 0.31267
 C3831 C 0.95722 0.39407 0.26609
 C3832 C 0.96244 0.37963 0.26149
 C3833 C 0.96927 0.36921 0.27216
 C3834 C 0.97146 0.37416 0.28778
 C3835 C 0.97984 0.36451 0.29801
 C3836 C 0.98519 0.35016 0.29341
 C3837 C 0.98218 0.34469 0.27858
 C3838 C 0.97409 0.35404 0.26773
 C3839 C 0.97079 0.34758 0.25306
 C3840 C 0.97548 0.33259 0.24939
 C3841 C 0.98373 0.32359 0.26009
 C3842 C 0.98710 0.32979 0.27463
 H3843 H 0.96980 0.38631 0.31759
 H3844 H 0.94667 0.42026 0.27733
 H3845 H 0.95817 0.40999 0.32489
 H3846 H 0.95200 0.40166 0.25750
 H3847 H 0.96120 0.37706 0.24936
 H3848 H 0.98274 0.36785 0.30964
 H3849 H 0.99154 0.34313 0.30168
 H3850 H 0.96424 0.35364 0.24433
 H3851 H 0.97263 0.32803 0.23810
 H3852 H 0.99326 0.32283 0.28312
 C3853 C 0.31800 0.88207 0.45804
 C3854 C 0.30230 0.87919 0.45881
 C3855 C 0.29244 0.88957 0.45082
 C3856 C 0.29815 0.90276 0.44320
 C3857 C 0.31376 0.90564 0.44289
 C3858 C 0.32356 0.89498 0.45019
 C3859 C 0.27693 0.88669 0.45043
 C3860 C 0.27100 0.87353 0.45746
 C3861 C 0.28034 0.86290 0.46564
 C3862 C 0.29613 0.86619 0.46693
 C3863 C 0.30521 0.85656 0.47653
 C3864 C 0.29927 0.84375 0.48405
 C3865 C 0.28414 0.83978 0.48206
 C3866 C 0.27444 0.84915 0.47273
 C3867 C 0.25937 0.84404 0.47052
 C3868 C 0.25436 0.83015 0.47714
 C3869 C 0.26402 0.82110 0.48647
 C3870 C 0.27881 0.82618 0.48909
 H3871 H 0.32636 0.87433 0.46300
 H3872 H 0.29038 0.91084 0.43763
 H3873 H 0.33569 0.89648 0.44967
 H3874 H 0.26929 0.89460 0.44442
 H3875 H 0.25892 0.87219 0.45661
 H3876 H 0.31698 0.85883 0.47880
 H3877 H 0.30670 0.83668 0.49127
 H3878 H 0.25137 0.85018 0.46324
 H3879 H 0.24293 0.82637 0.47477
 H3880 H 0.28651 0.81910 0.49599
 C3881 C 0.31990 0.37810 0.95515
 C3882 C 0.30404 0.37664 0.95656
 C3883 C 0.29482 0.38841 0.94979
 C3884 C 0.30135 0.40142 0.94266
 C3885 C 0.31711 0.40286 0.94173
 C3886 C 0.32625 0.39095 0.94785
 C3887 C 0.27911 0.38714 0.95017
 C3888 C 0.27230 0.37425 0.95677
 C3889 C 0.28096 0.36222 0.96367
 C3890 C 0.29706 0.36378 0.96417
 C3891 C 0.30563 0.35259 0.97247
 C3892 C 0.29883 0.33991 0.97943
 C3893 C 0.28329 0.33767 0.97816
 C3894 C 0.27409 0.34870 0.97019
 C3895 C 0.25847 0.34542 0.96867
 C3896 C 0.25242 0.33170 0.97458
 C3897 C 0.26161 0.32095 0.98248
 C3898 C 0.27699 0.32418 0.98448
 H3899 H 0.32774 0.36936 0.95922
 H3900 H 0.29413 0.41054 0.93799
 H3901 H 0.33844 0.39147 0.94686
 H3902 H 0.27199 0.39614 0.94512
 H3903 H 0.26012 0.37424 0.95660
 H3904 H 0.31768 0.35344 0.97409
 H3905 H 0.30590 0.33158 0.98562
 H3906 H 0.25072 0.35290 0.96244
 H3907 H 0.24053 0.32937 0.97274
 H3908 H 0.28427 0.31575 0.99027
 C3909 C 0.79654 0.37155 0.32079
 C3910 C 0.79501 0.37566 0.30494
 C3911 C 0.80154 0.36558 0.29389
 C3912 C 0.80868 0.35172 0.29861
 C3913 C 0.80958 0.34759 0.31432
 C3914 C 0.80366 0.35777 0.32533
 C3915 C 0.80079 0.36928 0.27816
 C3916 C 0.79385 0.38286 0.27306
 C3917 C 0.78713 0.39330 0.28354
 C3918 C 0.78734 0.38943 0.29970
 C3919 C 0.77970 0.39932 0.31006
 C3920 C 0.77253 0.41278 0.30493
 C3921 C 0.77280 0.41708 0.28933
 C3922 C 0.78013 0.40746 0.27839
 C3923 C 0.78044 0.41264 0.26278
 C3924 C 0.77400 0.42681 0.25839
 C3925 C 0.76686 0.43625 0.26927
 C3926 C 0.76605 0.43118 0.28470
 H3927 H 0.79251 0.37876 0.33003
 H3928 H 0.81322 0.34392 0.28999
 H3929 H 0.80458 0.35506 0.33758
 H3930 H 0.80569 0.36158 0.26966
 H3931 H 0.79374 0.38468 0.26071
 H3932 H 0.77885 0.39690 0.32228
 H3933 H 0.76687 0.42002 0.31333
 H3934 H 0.78594 0.40630 0.25370
 H3935 H 0.77482 0.43049 0.24639
 H3936 H 0.76075 0.43854 0.29325
   
