data_POSCAR
  _audit_creation_date              2014-09-24
  _audit_creation_method            'ToBaCCo'
  _symmetry_space_group_name_H-M    'P1'
  _symmetry_Int_Tables_number       1
  _symmetry_cell_setting            triclinic
  loop_
  _symmetry_equiv_pos_as_xyz
 x,y,z
_cell_length_a 105.2872
_cell_length_b 105.2229
_cell_length_c 106.7550
_cell_angle_alpha 89.949100
_cell_angle_beta 89.993700
_cell_angle_gamma 89.966100
loop_
  _atom_site_label
  _atom_site_type_symbol
  _atom_site_fract_x
  _atom_site_fract_y
  _atom_site_fract_z
N1 N 0.35937 0.32410 0.33401
 N2 N 0.35899 0.33274 0.32513
 C3 C 0.36876 0.33079 0.31721
 C4 C 0.37565 0.32034 0.32132
 C5 C 0.36935 0.31637 0.33204
 H6 H 0.37067 0.33656 0.30905
 H7 H 0.37180 0.30845 0.33802
 Cu8 Cu 0.34581 0.34573 0.32481
 Cu9 Cu 0.34692 0.32349 0.34748
 Cu10 Cu 0.32377 0.34688 0.34766
 N11 N 0.33293 0.35901 0.32530
 N12 N 0.32439 0.35942 0.33425
 C13 C 0.31672 0.36948 0.33237
 C14 C 0.32063 0.37578 0.32163
 C15 C 0.33098 0.36882 0.31741
 H16 H 0.30888 0.37196 0.33841
 H17 H 0.33667 0.37071 0.30920
 N18 N 0.32472 0.33335 0.36041
 N19 N 0.33352 0.32444 0.36032
 C20 C 0.33161 0.31660 0.37012
 C21 C 0.32109 0.32076 0.37676
 C22 C 0.31698 0.33143 0.37028
 H23 H 0.33745 0.30843 0.37221
 H24 H 0.30895 0.33738 0.37256
 H25 H 0.33230 0.33228 0.33785
 H26 H 0.34295 0.34275 0.34729
 N27 N 0.36004 0.82443 -0.16603
 N28 N 0.35996 0.83341 -0.17458
 C29 C 0.36963 0.83142 -0.18260
 C30 C 0.37620 0.82058 -0.17890
 C31 C 0.36975 0.81644 -0.16829
 H32 H 0.37167 0.83746 -0.19054
 H33 H 0.37187 0.80824 -0.16258
 Cu34 Cu 0.34716 0.84678 -0.17440
 Cu35 Cu 0.34756 0.82366 -0.15262
 Cu36 Cu 0.32432 0.84699 -0.15235
 N37 N 0.33384 0.85963 -0.17430
 N38 N 0.32496 0.85964 -0.16566
 C39 C 0.31699 0.86942 -0.16774
 C40 C 0.32105 0.87599 -0.17831
 C41 C 0.33182 0.86941 -0.18219
 H42 H 0.30886 0.87150 -0.16193
 H43 H 0.33776 0.87152 -0.19016
 N44 N 0.32528 0.83337 -0.13969
 N45 N 0.33412 0.82449 -0.13981
 C46 C 0.33224 0.81661 -0.13005
 C47 C 0.32170 0.82069 -0.12339
 C48 C 0.31755 0.83137 -0.12982
 H49 H 0.33813 0.80846 -0.12798
 H50 H 0.30950 0.83728 -0.12752
 H51 H 0.33327 0.83281 -0.16241
 H52 H 0.34351 0.84288 -0.15216
 N53 N 0.85975 0.32489 -0.16578
 N54 N 0.85972 0.33391 -0.17429
 C55 C 0.86951 0.33201 -0.18220
 C56 C 0.87606 0.32121 -0.17845
 C57 C 0.86953 0.31696 -0.16797
 H58 H 0.87170 0.33807 -0.19008
 H59 H 0.87165 0.30870 -0.16234
 Cu60 Cu 0.84687 0.34723 -0.17418
 Cu61 Cu 0.84714 0.32403 -0.15249
 Cu62 Cu 0.82386 0.34732 -0.15230
 N63 N 0.83352 0.36004 -0.17414
 N64 N 0.82459 0.36002 -0.16556
 C65 C 0.81663 0.36980 -0.16766
 C66 C 0.82075 0.37640 -0.17818
 C67 C 0.83155 0.36985 -0.18201
 H68 H 0.80846 0.37185 -0.16189
 H69 H 0.83755 0.37198 -0.18994
 N70 N 0.82474 0.33365 -0.13969
 N71 N 0.83359 0.32477 -0.13979
 C72 C 0.83166 0.31685 -0.13007
 C73 C 0.82108 0.32092 -0.12346
 C74 C 0.81696 0.33162 -0.12988
 H75 H 0.83754 0.30871 -0.12799
 H76 H 0.80891 0.33753 -0.12758
 H77 H 0.83289 0.33319 -0.16235
 H78 H 0.84304 0.34325 -0.15198
 N79 N 0.85970 0.82487 0.33432
 N80 N 0.85958 0.83383 0.32575
 C81 C 0.86933 0.83193 0.31779
 C82 C 0.87596 0.82119 0.32158
 C83 C 0.86952 0.81699 0.33213
 H84 H 0.87141 0.83793 0.30984
 H85 H 0.87175 0.80880 0.33783
 Cu86 Cu 0.84667 0.84709 0.32584
 Cu87 Cu 0.84714 0.82404 0.34767
 Cu88 Cu 0.82376 0.84725 0.34779
 N89 N 0.83332 0.85990 0.32587
 N90 N 0.82442 0.85990 0.33448
 C91 C 0.81644 0.86967 0.33237
 C92 C 0.82053 0.87625 0.32182
 C93 C 0.83132 0.86969 0.31797
 H94 H 0.80829 0.87174 0.33816
 H95 H 0.83729 0.87181 0.31002
 N96 N 0.82472 0.83365 0.36045
 N97 N 0.83361 0.82481 0.36040
 C98 C 0.83170 0.81694 0.37017
 C99 C 0.82110 0.82100 0.37675
 C100 C 0.81694 0.83164 0.37027
 H101 H 0.83762 0.80883 0.37230
 H102 H 0.80885 0.83751 0.37251
 H103 H 0.83282 0.83306 0.33783
 H104 H 0.84297 0.84323 0.34808
 N105 N 0.64078 0.67587 0.33405
 N106 N 0.64113 0.66721 0.32520
 C107 C 0.63133 0.66914 0.31731
 C108 C 0.62446 0.67960 0.32140
 C109 C 0.63080 0.68360 0.33208
 H110 H 0.62938 0.66334 0.30919
 H111 H 0.62839 0.69154 0.33803
 Cu112 Cu 0.65434 0.65424 0.32488
 Cu113 Cu 0.65327 0.67653 0.34746
 Cu114 Cu 0.67643 0.65316 0.34769
 N115 N 0.66722 0.64096 0.32540
 N116 N 0.67579 0.64058 0.33434
 C117 C 0.68347 0.63054 0.33248
 C118 C 0.67955 0.62421 0.32178
 C119 C 0.66918 0.63114 0.31755
 H120 H 0.69133 0.62808 0.33852
 H121 H 0.66349 0.62922 0.30935
 N122 N 0.67550 0.66671 0.36038
 N123 N 0.66669 0.67562 0.36027
 C124 C 0.66858 0.68345 0.37006
 C125 C 0.67911 0.67931 0.37671
 C126 C 0.68323 0.66865 0.37025
 H127 H 0.66271 0.69160 0.37215
 H128 H 0.69127 0.66270 0.37255
 H129 H 0.66787 0.66771 0.33783
 H130 H 0.65724 0.65726 0.34733
 N131 N 0.64074 0.17539 -0.16584
 N132 N 0.64085 0.16652 -0.17449
 C133 C 0.63103 0.16845 -0.18235
 C134 C 0.62439 0.17913 -0.17844
 C135 C 0.63089 0.18326 -0.16791
 H136 H 0.62889 0.16249 -0.19030
 H137 H 0.62868 0.19139 -0.16213
 Cu138 Cu 0.65384 0.15334 -0.17456
 Cu139 Cu 0.65333 0.17611 -0.15250
 Cu140 Cu 0.67653 0.15271 -0.15242
 N141 N 0.66693 0.14027 -0.17443
 N142 N 0.67576 0.14009 -0.16575
 C143 C 0.68357 0.13018 -0.16779
 C144 C 0.67945 0.12369 -0.17837
 C145 C 0.66881 0.13045 -0.18230
 H146 H 0.69164 0.12796 -0.16193
 H147 H 0.66285 0.12844 -0.19029
 N148 N 0.67569 0.16630 -0.13974
 N149 N 0.66687 0.17521 -0.13979
 C150 C 0.66882 0.18303 -0.13001
 C151 C 0.67938 0.17888 -0.12342
 C152 C 0.68348 0.16823 -0.12991
 H153 H 0.66296 0.19117 -0.12788
 H154 H 0.69152 0.16228 -0.12765
 H155 H 0.66769 0.16711 -0.16228
 H156 H 0.65736 0.15689 -0.15226
 N157 N 0.14035 0.67532 -0.16563
 N158 N 0.14036 0.66630 -0.17413
 C159 C 0.13059 0.66822 -0.18205
 C160 C 0.12406 0.67903 -0.17833
 C161 C 0.13059 0.68327 -0.16785
 H162 H 0.12840 0.66216 -0.18993
 H163 H 0.12848 0.69154 -0.16224
 Cu164 Cu 0.15318 0.65296 -0.17406
 Cu165 Cu 0.15298 0.67613 -0.15233
 Cu166 Cu 0.17628 0.65285 -0.15226
 N167 N 0.16658 0.64021 -0.17408
 N168 N 0.17556 0.64022 -0.16554
 C169 C 0.18358 0.63052 -0.16775
 C170 C 0.17946 0.62402 -0.17829
 C171 C 0.16861 0.63049 -0.18204
 H172 H 0.19183 0.62843 -0.16209
 H173 H 0.16265 0.62835 -0.18999
 N174 N 0.17541 0.66644 -0.13961
 N175 N 0.16656 0.67532 -0.13965
 C176 C 0.16853 0.68318 -0.12990
 C177 C 0.17915 0.67908 -0.12336
 C178 C 0.18324 0.66843 -0.12984
 H179 H 0.16266 0.69131 -0.12776
 H180 H 0.19132 0.66251 -0.12762
 H181 H 0.16716 0.66701 -0.16228
 H182 H 0.15707 0.65692 -0.15187
 N183 N 0.14036 0.17548 0.33418
 N184 N 0.14030 0.16639 0.32575
 C185 C 0.13050 0.16828 0.31786
 C186 C 0.12402 0.17915 0.32153
 C187 C 0.13061 0.18344 0.33195
 H188 H 0.12824 0.16216 0.31006
 H189 H 0.12855 0.19176 0.33750
 Cu190 Cu 0.15306 0.15300 0.32592
 Cu191 Cu 0.15301 0.17634 0.34744
 Cu192 Cu 0.17618 0.15294 0.34770
 N193 N 0.16636 0.14013 0.32601
 N194 N 0.17535 0.14017 0.33453
 C195 C 0.18328 0.13037 0.33243
 C196 C 0.17907 0.12376 0.32199
 C197 C 0.16828 0.13028 0.31818
 H198 H 0.19153 0.12830 0.33809
 H199 H 0.16226 0.12806 0.31029
 N200 N 0.17540 0.16668 0.36022
 N201 N 0.16659 0.17559 0.36010
 C202 C 0.16855 0.18350 0.36981
 C203 C 0.17913 0.17941 0.37642
 C204 C 0.18320 0.16869 0.37002
 H205 H 0.16268 0.19165 0.37189
 H206 H 0.19123 0.16274 0.37232
 H207 H 0.16715 0.16705 0.33758
 H208 H 0.15701 0.15710 0.34807
 N209 N 0.64076 0.32420 0.66594
 N210 N 0.64111 0.33288 0.67477
 C211 C 0.63133 0.33097 0.68268
 C212 C 0.62446 0.32050 0.67862
 C213 C 0.63078 0.31648 0.66794
 H214 H 0.62938 0.33679 0.69079
 H215 H 0.62836 0.30853 0.66202
 Cu216 Cu 0.65429 0.34584 0.67504
 Cu217 Cu 0.65323 0.32350 0.65251
 Cu218 Cu 0.67640 0.34685 0.65227
 N219 N 0.66718 0.35909 0.67453
 N220 N 0.67576 0.35943 0.66560
 C221 C 0.68346 0.36945 0.66747
 C222 C 0.67953 0.37579 0.67818
 C223 C 0.66913 0.36890 0.68238
 H224 H 0.69133 0.37189 0.66145
 H225 H 0.66342 0.37083 0.69057
 N226 N 0.67547 0.33328 0.63959
 N227 N 0.66666 0.32439 0.63970
 C228 C 0.66858 0.31652 0.62994
 C229 C 0.67913 0.32063 0.62332
 C230 C 0.68323 0.33131 0.62975
 H231 H 0.66273 0.30837 0.62787
 H232 H 0.69129 0.33722 0.62748
 H233 H 0.66782 0.33230 0.66215
 H234 H 0.65720 0.34275 0.65261
 N235 N 0.64088 0.82397 1.16600
 N236 N 0.64121 0.83265 1.17482
 C237 C 0.63141 0.83076 1.18271
 C238 C 0.62454 0.82030 1.17863
 C239 C 0.63089 0.81626 1.16797
 H240 H 0.62943 0.83660 1.19079
 H241 H 0.62847 0.80831 1.16204
 Cu242 Cu 0.65437 0.84564 1.17510
 Cu243 Cu 0.65332 0.82332 1.15255
 Cu244 Cu 0.67642 0.84674 1.15225
 N245 N 0.66722 0.85892 1.17455
 N246 N 0.67577 0.85931 1.16560
 C247 C 0.68344 0.86936 1.16745
 C248 C 0.67951 0.87568 1.17817
 C249 C 0.66916 0.86874 1.18240
 H250 H 0.69129 0.87183 1.16141
 H251 H 0.66347 0.87064 1.19061
 N252 N 0.67550 0.83318 1.13956
 N253 N 0.66672 0.82424 1.13971
 C254 C 0.66860 0.81641 1.12992
 C255 C 0.67909 0.82059 1.12323
 C256 C 0.68320 0.83126 1.12967
 H257 H 0.66275 0.80825 1.12785
 H258 H 0.69120 0.83722 1.12734
 H259 H 0.66792 0.83216 1.16214
 H260 H 0.65724 0.84259 1.15264
 N261 N 0.14040 0.32427 1.16564
 N262 N 0.14076 0.33287 1.17454
 C263 C 0.13093 0.33096 1.18239
 C264 C 0.12401 0.32057 1.17821
 C265 C 0.13037 0.31659 1.16753
 H266 H 0.12899 0.33670 1.19055
 H267 H 0.12794 0.30869 1.16154
 Cu268 Cu 0.15405 0.34573 1.17502
 Cu269 Cu 0.15297 0.32358 1.15228
 Cu270 Cu 0.17632 0.34674 1.15242
 N271 N 0.16704 0.35890 1.17469
 N272 N 0.17569 0.35923 1.16583
 C273 C 0.18343 0.36919 1.16779
 C274 C 0.17946 0.37553 1.17848
 C275 C 0.16899 0.36868 1.18259
 H276 H 0.19137 0.37159 1.16183
 H277 H 0.16322 0.37064 1.19072
 N278 N 0.17540 0.33330 1.13963
 N279 N 0.16651 0.32448 1.13956
 C280 C 0.16844 0.31672 1.12971
 C281 C 0.17909 0.32083 1.12323
 C282 C 0.18323 0.33138 1.12984
 H283 H 0.16251 0.30868 1.12745
 H284 H 0.19137 0.33723 1.12773
 H285 H 0.16752 0.33216 1.16210
 H286 H 0.15707 0.34278 1.15257
 N287 N 0.14053 0.82432 0.66566
 N288 N 0.14085 0.83295 0.67453
 C289 C 0.13102 0.83105 0.68237
 C290 C 0.12412 0.82064 0.67822
 C291 C 0.13050 0.81664 0.66755
 H292 H 0.12905 0.83683 0.69050
 H293 H 0.12810 0.80871 0.66159
 Cu294 Cu 0.15409 0.84586 0.67499
 Cu295 Cu 0.15315 0.82363 0.65233
 Cu296 Cu 0.17646 0.84684 0.65250
 N297 N 0.16704 0.85905 0.67468
 N298 N 0.17573 0.85937 0.66586
 C299 C 0.18346 0.86934 0.66784
 C300 C 0.17943 0.87569 0.67850
 C301 C 0.16895 0.86884 0.68257
 H302 H 0.19143 0.87174 0.66192
 H303 H 0.16314 0.87080 0.69069
 N304 N 0.17562 0.83336 0.63974
 N305 N 0.16674 0.82452 0.63966
 C306 C 0.16875 0.81674 0.62984
 C307 C 0.17943 0.82085 0.62340
 C308 C 0.18351 0.83143 0.63000
 H309 H 0.16285 0.80867 0.62758
 H310 H 0.19165 0.83729 0.62792
 H311 H 0.16764 0.83226 0.66218
 H312 H 0.15721 0.84283 0.65257
 N313 N 0.35920 0.67579 0.66631
 N314 N 0.35783 0.66830 0.67607
 C315 C 0.36765 0.67009 0.68395
 C316 C 0.37562 0.67927 0.67890
 C317 C 0.36991 0.68263 0.66766
 H318 H 0.36874 0.66526 0.69282
 H319 H 0.37315 0.68967 0.66103
 Cu320 Cu 0.34319 0.65716 0.67775
 Cu321 Cu 0.34653 0.67688 0.65305
 Cu322 Cu 0.31985 0.65786 0.65638
 N323 N 0.33068 0.64359 0.67660
 N324 N 0.32156 0.64393 0.66822
 C325 C 0.31397 0.63378 0.66977
 C326 C 0.31856 0.62659 0.67969
 C327 C 0.32922 0.63316 0.68377
 H328 H 0.30560 0.63196 0.66419
 H329 H 0.33543 0.63064 0.69144
 N330 N 0.32225 0.66962 0.64225
 N331 N 0.33251 0.67667 0.64080
 C332 C 0.33132 0.68351 0.63019
 C333 C 0.31979 0.68058 0.62464
 C334 C 0.31432 0.67172 0.63258
 H335 H 0.33836 0.69012 0.62675
 H336 H 0.30520 0.66716 0.63148
 H337 H 0.33153 0.67195 0.66405
 H338 H 0.33928 0.65866 0.65537
 N339 N 0.35925 0.17593 1.16592
 N340 N 0.35883 0.16730 1.17480
 C341 C 0.36854 0.16925 1.18279
 C342 C 0.37544 0.17969 1.17871
 C343 C 0.36921 0.18366 1.16795
 H344 H 0.37039 0.16351 1.19098
 H345 H 0.37172 0.19156 1.16196
 Cu346 Cu 0.34566 0.15432 1.17505
 Cu347 Cu 0.34689 0.17650 1.15237
 Cu348 Cu 0.32366 0.15317 1.15223
 N349 N 0.33273 0.14112 1.17466
 N350 N 0.32418 0.14072 1.16572
 C351 C 0.31644 0.13073 1.16767
 C352 C 0.32034 0.12447 1.17845
 C353 C 0.33073 0.13138 1.18261
 H354 H 0.30860 0.12823 1.16164
 H355 H 0.33639 0.12952 1.19085
 N356 N 0.32473 0.16660 1.13939
 N357 N 0.33355 0.17548 1.13946
 C358 C 0.33172 0.18325 1.12959
 C359 C 0.32121 0.17908 1.12294
 C360 C 0.31704 0.16848 1.12948
 H361 H 0.33759 0.19138 1.12747
 H362 H 0.30900 0.16255 1.12721
 H363 H 0.33222 0.16780 1.16198
 H364 H 0.34285 0.15727 1.15257
 N365 N 0.85935 0.67590 1.16569
 N366 N 0.85897 0.66726 1.17457
 C367 C 0.86874 0.66919 1.18249
 C368 C 0.87563 0.67963 1.17837
 C369 C 0.86933 0.68361 1.16765
 H370 H 0.87064 0.66343 1.19066
 H371 H 0.87177 0.69154 1.16169
 Cu372 Cu 0.84573 0.65435 1.17492
 Cu373 Cu 0.84688 0.67658 1.15226
 Cu374 Cu 0.82363 0.65332 1.15213
 N375 N 0.83279 0.64113 1.17447
 N376 N 0.82423 0.64078 1.16553
 C377 C 0.81652 0.63077 1.16742
 C378 C 0.82042 0.62443 1.17815
 C379 C 0.83081 0.63133 1.18235
 H380 H 0.80865 0.62833 1.16139
 H381 H 0.83650 0.62941 1.19056
 N382 N 0.82461 0.66684 1.13938
 N383 N 0.83345 0.67571 1.13945
 C384 C 0.83155 0.68356 1.12967
 C385 C 0.82098 0.67946 1.12306
 C386 C 0.81685 0.66881 1.12954
 H387 H 0.83742 0.69169 1.12756
 H388 H 0.80878 0.66291 1.12729
 H389 H 0.83224 0.66786 1.16193
 H390 H 0.84282 0.65733 1.15246
 N391 N 0.86022 0.17533 0.66571
 N392 N 0.85973 0.16668 0.67458
 C393 C 0.86952 0.16846 0.68251
 C394 C 0.87655 0.17881 0.67840
 C395 C 0.87031 0.18290 0.66769
 H396 H 0.87130 0.16270 0.69070
 H397 H 0.87281 0.19085 0.66177
 Cu398 Cu 0.84643 0.15389 0.67472
 Cu399 Cu 0.84749 0.17647 0.65250
 Cu400 Cu 0.82161 0.15624 0.65517
 N401 N 0.83281 0.14142 0.67491
 N402 N 0.82315 0.14238 0.66719
 C403 C 0.81506 0.13271 0.66928
 C404 C 0.81991 0.12521 0.67884
 C405 C 0.83122 0.13107 0.68217
 H406 H 0.80626 0.13137 0.66424
 H407 H 0.83782 0.12804 0.68932
 N408 N 0.82349 0.16864 0.64146
 N409 N 0.83345 0.17616 0.64031
 C410 C 0.83202 0.18335 0.62997
 C411 C 0.82062 0.18022 0.62427
 C412 C 0.81550 0.17081 0.63184
 H413 H 0.83881 0.19035 0.62683
 H414 H 0.80658 0.16592 0.63052
 H415 H 0.83344 0.16956 0.66376
 H416 H 0.84097 0.15776 0.65298
 N417 N 0.32473 0.35965 0.66518
 N418 N 0.33372 0.35968 0.67371
 C419 C 0.33177 0.36948 0.68158
 C420 C 0.32097 0.37599 0.67780
 C421 C 0.31677 0.36942 0.66733
 H422 H 0.33778 0.37169 0.68948
 H423 H 0.30851 0.37149 0.66169
 Cu424 Cu 0.34707 0.34687 0.67374
 Cu425 Cu 0.32394 0.34689 0.65199
 Cu426 Cu 0.34719 0.32356 0.65219
 N427 N 0.35990 0.33354 0.67385
 N428 N 0.35989 0.32446 0.66543
 C429 C 0.36968 0.31655 0.66765
 C430 C 0.37625 0.32088 0.67807
 C431 C 0.36971 0.33171 0.68174
 H432 H 0.37179 0.30825 0.66208
 H433 H 0.37190 0.33781 0.68957
 N434 N 0.33357 0.32428 0.63955
 N435 N 0.32474 0.33318 0.63944
 C436 C 0.31691 0.33114 0.62968
 C437 C 0.32097 0.32041 0.62328
 C438 C 0.33157 0.31634 0.62986
 H439 H 0.30886 0.33706 0.62740
 H440 H 0.33744 0.30820 0.62777
 H441 H 0.33303 0.33278 0.66208
 H442 H 0.34313 0.34277 0.65159
 N443 N 0.32434 0.85963 0.16516
 N444 N 0.33330 0.85970 0.17372
 C445 C 0.33128 0.86951 0.18157
 C446 C 0.32048 0.87598 0.17773
 C447 C 0.31635 0.86938 0.16725
 H448 H 0.33727 0.87176 0.18948
 H449 H 0.30813 0.87145 0.16155
 Cu450 Cu 0.34671 0.84697 0.17377
 Cu451 Cu 0.32369 0.84694 0.15192
 Cu452 Cu 0.34717 0.82383 0.15206
 N453 N 0.35965 0.83375 0.17389
 N454 N 0.35978 0.82476 0.16537
 C455 C 0.36962 0.81691 0.16759
 C456 C 0.37607 0.82118 0.17810
 C457 C 0.36941 0.83192 0.18183
 H458 H 0.37186 0.80870 0.16194
 H459 H 0.37148 0.83795 0.18975
 N460 N 0.33360 0.82451 0.13937
 N461 N 0.32467 0.83330 0.13932
 C462 C 0.31687 0.83123 0.12954
 C463 C 0.32107 0.82060 0.12307
 C464 C 0.33172 0.81662 0.12963
 H465 H 0.30873 0.83706 0.12730
 H466 H 0.33769 0.80856 0.12750
 H467 H 0.33286 0.83283 0.16194
 H468 H 0.34291 0.84301 0.15158
 N469 N 0.82435 0.35969 0.16519
 N470 N 0.83332 0.35974 0.17373
 C471 C 0.83135 0.36954 0.18160
 C472 C 0.82055 0.37604 0.17778
 C473 C 0.81638 0.36946 0.16731
 H474 H 0.83735 0.37177 0.18949
 H475 H 0.80815 0.37155 0.16162
 Cu476 Cu 0.84670 0.34697 0.17375
 Cu477 Cu 0.82363 0.34700 0.15194
 Cu478 Cu 0.84704 0.32383 0.15205
 N479 N 0.85959 0.33371 0.17385
 N480 N 0.85967 0.32471 0.16533
 C481 C 0.86948 0.31682 0.16753
 C482 C 0.87597 0.32107 0.17803
 C483 C 0.86937 0.33183 0.18178
 H484 H 0.87167 0.30860 0.16188
 H485 H 0.87149 0.33786 0.18968
 N486 N 0.83345 0.32454 0.13939
 N487 N 0.82454 0.33336 0.13934
 C488 C 0.81673 0.33130 0.12956
 C489 C 0.82089 0.32066 0.12310
 C490 C 0.83154 0.31665 0.12965
 H491 H 0.80862 0.33716 0.12733
 H492 H 0.83748 0.30857 0.12752
 H493 H 0.83277 0.33288 0.16196
 H494 H 0.84283 0.34302 0.15157
 N495 N 0.82390 0.85944 0.66570
 N496 N 0.83244 0.85903 0.67466
 C497 C 0.83040 0.86876 0.68261
 C498 C 0.82000 0.87566 0.67842
 C499 C 0.81614 0.86942 0.66764
 H500 H 0.83604 0.87061 0.69085
 H501 H 0.80832 0.87194 0.66158
 Cu502 Cu 0.84542 0.84586 0.67508
 Cu503 Cu 0.82346 0.84704 0.65218
 Cu504 Cu 0.84683 0.82382 0.65231
 N505 N 0.85867 0.83295 0.67480
 N506 N 0.85917 0.82439 0.66587
 C507 C 0.86917 0.81669 0.66790
 C508 C 0.87534 0.82061 0.67871
 C509 C 0.86835 0.83099 0.68281
 H510 H 0.87175 0.80884 0.66189
 H511 H 0.87013 0.83667 0.69105
 N512 N 0.83351 0.82482 0.63938
 N513 N 0.82462 0.83365 0.63933
 C514 C 0.81694 0.83175 0.62942
 C515 C 0.82117 0.82120 0.62287
 C516 C 0.83172 0.81707 0.62950
 H517 H 0.80883 0.83763 0.62719
 H518 H 0.83764 0.80898 0.62737
 H519 H 0.83208 0.83242 0.66192
 H520 H 0.84267 0.84305 0.65258
 N521 N 0.67562 0.64027 0.66551
 N522 N 0.66678 0.64034 0.67419
 C523 C 0.66873 0.63048 0.68202
 C524 C 0.67938 0.62385 0.67804
 C525 C 0.68348 0.63040 0.66751
 H526 H 0.66283 0.62834 0.69002
 H527 H 0.69159 0.62821 0.66170
 Cu528 Cu 0.65365 0.65337 0.67445
 Cu529 Cu 0.67635 0.65300 0.65229
 Cu530 Cu 0.65308 0.67632 0.65252
 N531 N 0.64064 0.66653 0.67446
 N532 N 0.64049 0.67547 0.66586
 C533 C 0.63066 0.68334 0.66803
 C534 C 0.62423 0.67914 0.67858
 C535 C 0.63087 0.66843 0.68240
 H536 H 0.62846 0.69154 0.66234
 H537 H 0.62877 0.66242 0.69034
 N538 N 0.66663 0.67556 0.63980
 N539 N 0.67548 0.66669 0.63971
 C540 C 0.68327 0.66872 0.62990
 C541 C 0.67914 0.67940 0.62346
 C542 C 0.66855 0.68346 0.63005
 H543 H 0.69134 0.66282 0.62763
 H544 H 0.66266 0.69159 0.62795
 H545 H 0.66746 0.66728 0.66227
 H546 H 0.65716 0.65710 0.65217
 N547 N 0.67534 0.13995 0.16523
 N548 N 0.66641 0.14006 0.17381
 C549 C 0.66831 0.13029 0.18175
 C550 C 0.67902 0.12364 0.17793
 C551 C 0.68321 0.13011 0.16738
 H552 H 0.66235 0.12822 0.18972
 H553 H 0.69137 0.12787 0.16166
 Cu554 Cu 0.65318 0.15299 0.17383
 Cu555 Cu 0.67619 0.15262 0.15194
 Cu556 Cu 0.65314 0.17614 0.15208
 N557 N 0.64048 0.16645 0.17392
 N558 N 0.64053 0.17545 0.16539
 C559 C 0.63082 0.18347 0.16757
 C560 C 0.62425 0.17930 0.17805
 C561 C 0.63071 0.16845 0.18183
 H562 H 0.62875 0.19172 0.16190
 H563 H 0.62847 0.16242 0.18971
 N564 N 0.66668 0.17523 0.13938
 N565 N 0.67544 0.16627 0.13930
 C566 C 0.68325 0.16822 0.12950
 C567 C 0.67924 0.17894 0.12305
 C568 C 0.66868 0.18311 0.12964
 H569 H 0.69127 0.16224 0.12723
 H570 H 0.66288 0.19131 0.12755
 H571 H 0.66730 0.16686 0.16197
 H572 H 0.65706 0.15689 0.15162
 N573 N 0.17552 0.64056 0.16544
 N574 N 0.16702 0.64107 0.17443
 C575 C 0.16892 0.63129 0.18235
 C576 C 0.17920 0.62424 0.17812
 C577 C 0.18313 0.63046 0.16734
 H578 H 0.16329 0.62951 0.19062
 H579 H 0.19092 0.62786 0.16127
 Cu580 Cu 0.15427 0.65447 0.17494
 Cu581 Cu 0.17619 0.65307 0.15201
 Cu582 Cu 0.15327 0.67670 0.15228
 N583 N 0.14121 0.66758 0.17468
 N584 N 0.14088 0.67622 0.16581
 C585 C 0.13097 0.68403 0.16781
 C586 C 0.12467 0.68010 0.17854
 C587 C 0.13149 0.66959 0.18263
 H588 H 0.12856 0.69197 0.16184
 H589 H 0.12953 0.66381 0.19077
 N590 N 0.16659 0.67560 0.13937
 N591 N 0.17530 0.66659 0.13924
 C592 C 0.18302 0.66844 0.12935
 C593 C 0.17899 0.67915 0.12289
 C594 C 0.16854 0.68341 0.12957
 H595 H 0.19099 0.66242 0.12704
 H596 H 0.16278 0.69165 0.12752
 H597 H 0.16785 0.66776 0.16184
 H598 H 0.15705 0.65740 0.15246
 N599 N 0.17574 0.14033 0.66600
 N600 N 0.16709 0.14070 0.67486
 C601 C 0.16904 0.13093 0.68280
 C602 C 0.17950 0.12405 0.67872
 C603 C 0.18348 0.13036 0.66800
 H604 H 0.16327 0.12901 0.69095
 H605 H 0.19141 0.12793 0.66206
 Cu606 Cu 0.15415 0.15392 0.67517
 Cu607 Cu 0.17639 0.15281 0.65255
 Cu608 Cu 0.15310 0.17607 0.65242
 N609 N 0.14094 0.16688 0.67475
 N610 N 0.14059 0.17548 0.66583
 C611 C 0.13063 0.18324 0.66776
 C612 C 0.12430 0.17933 0.67848
 C613 C 0.13116 0.16888 0.68265
 H614 H 0.12823 0.19116 0.66176
 H615 H 0.12922 0.16315 0.69083
 N616 N 0.16658 0.17510 0.63966
 N617 N 0.17546 0.16626 0.63972
 C618 C 0.18327 0.16817 0.62991
 C619 C 0.17913 0.17875 0.62330
 C620 C 0.16850 0.18286 0.62981
 H621 H 0.19141 0.16232 0.62779
 H622 H 0.16257 0.19093 0.62756
 H623 H 0.16766 0.16743 0.66221
 H624 H 0.15717 0.15686 0.65271
 N625 N 0.32431 0.64053 0.33402
 N626 N 0.33316 0.64065 0.32535
 C627 C 0.33117 0.63091 0.31741
 C628 C 0.32047 0.62429 0.32130
 C629 C 0.31639 0.63073 0.33190
 H630 H 0.33710 0.62880 0.30942
 H631 H 0.30827 0.62852 0.33768
 Cu632 Cu 0.34640 0.65356 0.32534
 Cu633 Cu 0.32369 0.65301 0.34746
 Cu634 Cu 0.34720 0.67607 0.34766
 N635 N 0.35953 0.66657 0.32555
 N636 N 0.35978 0.67533 0.33429
 C637 C 0.36970 0.68312 0.33225
 C638 C 0.37608 0.67904 0.32162
 C639 C 0.36931 0.66848 0.31763
 H640 H 0.37205 0.69114 0.33811
 H641 H 0.37129 0.66264 0.30956
 N642 N 0.33363 0.67521 0.36037
 N643 N 0.32469 0.66644 0.36027
 C644 C 0.31687 0.66837 0.37007
 C645 C 0.32105 0.67888 0.37670
 C646 C 0.33173 0.68295 0.37024
 H647 H 0.30869 0.66256 0.37216
 H648 H 0.33770 0.69096 0.37252
 H649 H 0.33275 0.66741 0.33776
 H650 H 0.34293 0.65692 0.34768
 N651 N 0.32478 0.13994 0.83470
 N652 N 0.33378 0.13986 0.82617
 C653 C 0.33185 0.13001 0.81836
 C654 C 0.32105 0.12352 0.82219
 C655 C 0.31684 0.13015 0.83262
 H656 H 0.33788 0.12774 0.81049
 H657 H 0.30860 0.12810 0.83828
 Cu658 Cu 0.34711 0.15270 0.82610
 Cu659 Cu 0.32395 0.15273 0.84784
 Cu660 Cu 0.34716 0.17605 0.84761
 N661 N 0.35990 0.16606 0.82595
 N662 N 0.35984 0.17514 0.83438
 C663 C 0.36958 0.18309 0.83215
 C664 C 0.37617 0.17881 0.82173
 C665 C 0.36971 0.16795 0.81805
 H666 H 0.37164 0.19141 0.83772
 H667 H 0.37196 0.16184 0.81023
 N668 N 0.33353 0.17535 0.86025
 N669 N 0.32471 0.16647 0.86036
 C670 C 0.31686 0.16853 0.87011
 C671 C 0.32091 0.17925 0.87650
 C672 C 0.33153 0.18330 0.86993
 H673 H 0.30881 0.16261 0.87239
 H674 H 0.33738 0.19145 0.87200
 H675 H 0.33303 0.16682 0.83772
 H676 H 0.34313 0.15685 0.84824
 N677 N 0.82459 0.64012 0.83453
 N678 N 0.83352 0.64012 0.82594
 C679 C 0.83154 0.63032 0.81807
 C680 C 0.82078 0.62378 0.82193
 C681 C 0.81665 0.63034 0.83244
 H682 H 0.83750 0.62813 0.81012
 H683 H 0.80846 0.62823 0.83816
 Cu684 Cu 0.84683 0.65294 0.82586
 Cu685 Cu 0.82387 0.65282 0.84777
 Cu686 Cu 0.84714 0.67611 0.84755
 N687 N 0.85968 0.66623 0.82572
 N688 N 0.85974 0.67524 0.83422
 C689 C 0.86953 0.68314 0.83199
 C690 C 0.87602 0.67888 0.82149
 C691 C 0.86944 0.66810 0.81778
 H692 H 0.87172 0.69136 0.83763
 H693 H 0.87156 0.66205 0.80988
 N694 N 0.83358 0.67535 0.86027
 N695 N 0.82474 0.66648 0.86036
 C696 C 0.81693 0.66851 0.87015
 C697 C 0.82102 0.67920 0.87657
 C698 C 0.83162 0.68326 0.86999
 H699 H 0.80886 0.66261 0.87241
 H700 H 0.83750 0.69140 0.87208
 H701 H 0.83290 0.66700 0.83772
 H702 H 0.84307 0.65692 0.84807
 N703 N 0.82428 0.14021 0.33445
 N704 N 0.83304 0.14034 0.32568
 C705 C 0.83104 0.13052 0.31785
 C706 C 0.82045 0.12384 0.32190
 C707 C 0.81643 0.13033 0.33249
 H708 H 0.83687 0.12843 0.30978
 H709 H 0.80838 0.12809 0.33837
 Cu710 Cu 0.84620 0.15332 0.32544
 Cu711 Cu 0.82367 0.15286 0.34776
 Cu712 Cu 0.84700 0.17610 0.34748
 N713 N 0.85926 0.16640 0.32540
 N714 N 0.85952 0.17527 0.33406
 C715 C 0.86942 0.18303 0.33192
 C716 C 0.87580 0.17885 0.32132
 C717 C 0.86902 0.16824 0.31746
 H718 H 0.87177 0.19113 0.33769
 H719 H 0.87100 0.16231 0.30944
 N720 N 0.83353 0.17533 0.36028
 N721 N 0.82467 0.16647 0.36040
 C722 C 0.81694 0.16849 0.37026
 C723 C 0.82111 0.17914 0.37670
 C724 C 0.83167 0.18320 0.37004
 H725 H 0.80888 0.16259 0.37257
 H726 H 0.83759 0.19130 0.37213
 H727 H 0.83252 0.16718 0.33782
 H728 H 0.84286 0.15690 0.34778
 N729 N 0.67520 0.35996 0.33478
 N730 N 0.66621 0.36003 0.32625
 C731 C 0.66814 0.36988 0.31840
 C732 C 0.67894 0.37638 0.32222
 C733 C 0.68313 0.36975 0.33267
 H734 H 0.66214 0.37211 0.31050
 H735 H 0.69138 0.37181 0.33833
 Cu736 Cu 0.65291 0.34716 0.32618
 Cu737 Cu 0.67604 0.34717 0.34794
 Cu738 Cu 0.65288 0.32379 0.34771
 N739 N 0.64014 0.33378 0.32602
 N740 N 0.64020 0.32468 0.33446
 C741 C 0.63047 0.31672 0.33223
 C742 C 0.62388 0.32102 0.32180
 C743 C 0.63034 0.33189 0.31813
 H744 H 0.62842 0.30839 0.33779
 H745 H 0.62809 0.33801 0.31030
 N746 N 0.66648 0.32451 0.36037
 N747 N 0.67529 0.33342 0.36047
 C748 C 0.68312 0.33138 0.37024
 C749 C 0.67908 0.32065 0.37665
 C750 C 0.66849 0.31657 0.37007
 H751 H 0.69116 0.33731 0.37252
 H752 H 0.66264 0.30842 0.37216
 H753 H 0.66701 0.33308 0.33784
 H754 H 0.65687 0.34301 0.34833
 N755 N 0.67514 0.86033 0.83453
 N756 N 0.66613 0.86041 0.82602
 C757 C 0.66803 0.87027 0.81820
 C758 C 0.67882 0.87678 0.82200
 C759 C 0.68306 0.87014 0.83243
 H760 H 0.66201 0.87251 0.81031
 H761 H 0.69132 0.87220 0.83807
 Cu762 Cu 0.65284 0.84757 0.82592
 Cu763 Cu 0.67602 0.84751 0.84766
 Cu764 Cu 0.65292 0.82408 0.84730
 N765 N 0.64009 0.83417 0.82573
 N766 N 0.64023 0.82500 0.83409
 C767 C 0.63049 0.81706 0.83189
 C768 C 0.62380 0.82144 0.82156
 C769 C 0.63023 0.83234 0.81790
 H770 H 0.62849 0.80868 0.83740
 H771 H 0.62787 0.83853 0.81016
 N772 N 0.66652 0.82475 0.85994
 N773 N 0.67528 0.83369 0.86013
 C774 C 0.68306 0.83163 0.86994
 C775 C 0.67902 0.82085 0.87627
 C776 C 0.66849 0.81677 0.86961
 H777 H 0.69105 0.83760 0.87232
 H778 H 0.66265 0.80859 0.87163
 H779 H 0.66704 0.83350 0.83746
 H780 H 0.65689 0.84334 0.84804
 N781 N 0.17514 0.36016 0.83474
 N782 N 0.16615 0.36026 0.82621
 C783 C 0.16807 0.37017 0.81843
 C784 C 0.17885 0.37666 0.82230
 C785 C 0.18306 0.36998 0.83271
 H786 H 0.16206 0.37246 0.81055
 H787 H 0.19130 0.37200 0.83838
 Cu788 Cu 0.15288 0.34738 0.82608
 Cu789 Cu 0.17598 0.34731 0.84785
 Cu790 Cu 0.15288 0.32389 0.84753
 N791 N 0.14016 0.33395 0.82587
 N792 N 0.14023 0.32482 0.83426
 C793 C 0.13050 0.31686 0.83202
 C794 C 0.12390 0.32120 0.82162
 C795 C 0.13035 0.33209 0.81797
 H796 H 0.12846 0.30851 0.83755
 H797 H 0.12808 0.33824 0.81019
 N798 N 0.16647 0.32460 0.86019
 N799 N 0.17525 0.33353 0.86032
 C800 C 0.18307 0.33148 0.87010
 C801 C 0.17904 0.32074 0.87649
 C802 C 0.16847 0.31665 0.86989
 H803 H 0.19108 0.33744 0.87241
 H804 H 0.16262 0.30848 0.87196
 H805 H 0.16695 0.33321 0.83767
 H806 H 0.15679 0.34308 0.84821
 N807 N 0.17508 0.85994 0.33480
 N808 N 0.16607 0.86002 0.32630
 C809 C 0.16797 0.86989 0.31848
 C810 C 0.17877 0.87639 0.32228
 C811 C 0.18300 0.86975 0.33270
 H812 H 0.16194 0.87214 0.31060
 H813 H 0.19127 0.87179 0.33834
 Cu814 Cu 0.15279 0.84714 0.32623
 Cu815 Cu 0.17596 0.84712 0.34794
 Cu816 Cu 0.15280 0.82374 0.34773
 N817 N 0.14003 0.83375 0.32608
 N818 N 0.14011 0.82465 0.33450
 C819 C 0.13037 0.81669 0.33228
 C820 C 0.12376 0.82100 0.32188
 C821 C 0.13022 0.83187 0.31820
 H822 H 0.12833 0.80836 0.33785
 H823 H 0.12795 0.83800 0.31038
 N824 N 0.16644 0.82445 0.36036
 N825 N 0.17524 0.83336 0.36044
 C826 C 0.18309 0.83131 0.37020
 C827 C 0.17906 0.82058 0.37661
 C828 C 0.16846 0.81650 0.37005
 H829 H 0.19112 0.83726 0.37248
 H830 H 0.16262 0.80834 0.37214
 H831 H 0.16691 0.83304 0.33784
 H832 H 0.15679 0.84296 0.34837
 O833 O 0.23376 0.98756 0.25139
 O834 O 0.25086 1.01244 0.23392
 O835 O 0.25081 0.98763 0.23379
 O836 O 0.23376 1.01237 0.25145
 O837 O 0.24890 1.01230 0.26573
 O838 O 0.26590 0.98748 0.24813
 O839 O 0.26600 1.01228 0.24820
 O840 O 0.24885 0.98752 0.26571
 Cu841 Cu 0.24078 1.00000 0.24120
 Cu842 Cu 0.25893 0.99988 0.25837
 C843 C 0.23842 0.98323 0.26152
 C844 C 0.26132 1.01669 0.23812
 C845 C 0.26123 0.98325 0.23798
 C846 C 0.23846 1.01664 0.26157
 O847 O 0.25059 0.51250 0.73352
 O848 O 0.23405 0.48750 0.75131
 O849 O 0.23388 0.51228 0.75139
 O850 O 0.25113 0.48766 0.73374
 O851 O 0.26633 0.48786 0.74794
 O852 O 0.24910 0.51247 0.76557
 O853 O 0.24925 0.48771 0.76553
 O854 O 0.26580 0.51274 0.74773
 Cu855 Cu 0.24090 0.49995 0.74106
 Cu856 Cu 0.25917 0.50020 0.75809
 C857 C 0.26095 0.51703 0.73767
 C858 C 0.23882 0.48328 0.76143
 C859 C 0.23859 0.51666 0.76146
 C860 C 0.26163 0.48344 0.73789
 O861 O 0.73367 0.01210 0.24864
 O862 O 0.75082 -0.01271 0.26611
 O863 O 0.75076 0.01208 0.26619
 O864 O 0.73373 -0.01270 0.24860
 O865 O 0.74883 -0.01259 0.23428
 O866 O 0.76586 0.01217 0.25187
 O867 O 0.76593 -0.01263 0.25180
 O868 O 0.74877 0.01221 0.23433
 Cu869 Cu 0.74073 -0.00031 0.25882
 Cu870 Cu 0.75886 -0.00020 0.24163
 C871 C 0.73832 0.01647 0.23854
 C872 C 0.76127 -0.01699 0.26191
 C873 C 0.76118 0.01643 0.26201
 C874 C 0.73841 -0.01696 0.23846
 O875 O 0.73398 0.51219 0.74837
 O876 O 0.75110 0.48743 0.76595
 O877 O 0.75104 0.51222 0.76594
 O878 O 0.73401 0.48740 0.74842
 O879 O 0.74914 0.48740 0.73413
 O880 O 0.76615 0.51225 0.75163
 O881 O 0.76624 0.48745 0.75167
 O882 O 0.74909 0.51217 0.73406
 Cu883 Cu 0.74102 0.49981 0.75860
 Cu884 Cu 0.75917 0.49982 0.74144
 C885 C 0.73865 0.51648 0.73824
 C886 C 0.76155 0.48313 0.76178
 C887 C 0.76146 0.51656 0.76174
 C888 C 0.73870 0.48308 0.73832
 O889 O 0.25108 0.48765 0.26579
 O890 O 0.23373 0.51228 0.24825
 O891 O 0.23389 0.48748 0.24836
 O892 O 0.25093 0.51244 0.26568
 O893 O 0.26597 0.51247 0.25130
 O894 O 0.24889 0.48756 0.23393
 O895 O 0.24877 0.51238 0.23387
 O896 O 0.26609 0.48765 0.25137
 Cu897 Cu 0.24090 0.49996 0.25846
 Cu898 Cu 0.25893 0.50002 0.24117
 C899 C 0.26150 0.48336 0.26154
 C900 C 0.23833 0.51663 0.23812
 C901 C 0.23852 0.48318 0.23822
 C902 C 0.26132 0.51679 0.26142
 O903 O 0.75067 1.01274 0.73361
 O904 O 0.73359 0.98796 0.75116
 O905 O 0.73354 1.01275 0.75114
 O906 O 0.75064 0.98792 0.73361
 O907 O 0.76577 0.98798 0.74790
 O908 O 0.74864 1.01271 0.76546
 O909 O 0.74871 0.98795 0.76546
 O910 O 0.76575 1.01277 0.74794
 Cu911 Cu 0.74060 1.00035 0.74094
 Cu912 Cu 0.75874 1.00035 0.75812
 C913 C 0.76109 1.01707 0.73782
 C914 C 0.73827 0.98365 0.76128
 C915 C 0.73819 1.01702 0.76128
 C916 C 0.76109 0.98363 0.73781
 O917 O 0.75100 0.51249 0.23399
 O918 O 0.73398 0.48765 0.25154
 O919 O 0.73395 0.51246 0.25157
 O920 O 0.75102 0.48771 0.23396
 O921 O 0.76616 0.48766 0.24824
 O922 O 0.74910 0.51243 0.26583
 O923 O 0.74911 0.48764 0.26583
 O924 O 0.76615 0.51247 0.24825
 Cu925 Cu 0.74097 0.50008 0.24133
 Cu926 Cu 0.75915 0.50005 0.25847
 C927 C 0.76144 0.51681 0.23815
 C928 C 0.73867 0.48333 0.26165
 C929 C 0.73865 0.51675 0.26167
 C930 C 0.76147 0.48337 0.23812
 O931 O 0.24894 -0.01271 0.73456
 O932 O 0.26612 0.01202 0.75206
 O933 O 0.26614 -0.01278 0.75199
 O934 O 0.24895 0.01208 0.73461
 O935 O 0.23392 0.01207 0.74899
 O936 O 0.25109 -0.01284 0.76637
 O937 O 0.25109 0.01196 0.76646
 O938 O 0.23389 -0.01275 0.74893
 Cu939 Cu 0.25904 -0.00035 0.74186
 Cu940 Cu 0.24099 -0.00039 0.75913
 C941 C 0.23852 -0.01703 0.73878
 C942 C 0.26150 0.01629 0.76221
 C943 C 0.26152 -0.01714 0.76212
 C944 C 0.23855 0.01642 0.73887
 O945 O 0.24871 0.26634 0.98763
 O946 O 0.26629 0.24891 1.01202
 O947 O 0.26620 0.24896 0.98758
 O948 O 0.24877 0.26633 1.01208
 O949 O 0.23404 0.25143 1.01218
 O950 O 0.25143 0.23410 0.98760
 O951 O 0.25155 0.23403 1.01207
 O952 O 0.23393 0.25149 0.98774
 Cu953 Cu 0.25897 0.25912 0.99983
 Cu954 Cu 0.24126 0.24127 0.99991
 C955 C 0.23835 0.26184 0.98344
 C956 C 0.26189 0.23853 1.01628
 C957 C 0.26174 0.23862 0.98331
 C958 C 0.23847 0.26182 1.01639
 O959 O 0.24882 0.76608 0.48774
 O960 O 0.26643 0.74854 0.51206
 O961 O 0.26625 0.74861 0.48761
 O962 O 0.24903 0.76605 0.51221
 O963 O 0.23422 0.75124 0.51238
 O964 O 0.25138 0.73385 0.48769
 O965 O 0.25161 0.73373 0.51211
 O966 O 0.23396 0.75132 0.48791
 Cu967 Cu 0.25911 0.75881 0.49990
 Cu968 Cu 0.24130 0.74106 0.50003
 C969 C 0.23842 0.76165 0.48359
 C970 C 0.26199 0.73816 0.51631
 C971 C 0.26172 0.73828 0.48336
 C972 C 0.23873 0.76158 0.51659
 O973 O 0.26679 0.75075 -0.01245
 O974 O 0.24909 0.73351 0.01199
 O975 O 0.24916 0.73351 -0.01248
 O976 O 0.26666 0.75083 0.01200
 O977 O 0.25198 0.76579 0.01192
 O978 O 0.23449 0.74848 -0.01254
 O979 O 0.23442 0.74848 0.01189
 O980 O 0.25211 0.76572 -0.01254
 Cu981 Cu 0.25940 0.74065 -0.00022
 Cu982 Cu 0.24178 0.75862 -0.00033
 C983 C 0.26243 0.76114 -0.01675
 C984 C 0.23877 0.73809 0.01619
 C985 C 0.23887 0.73808 -0.01677
 C986 C 0.26227 0.76123 0.01622
 O987 O 0.23379 0.24856 0.48779
 O988 O 0.25142 0.26583 0.51222
 O989 O 0.25134 0.26590 0.48774
 O990 O 0.23387 0.24850 0.51225
 O991 O 0.24857 0.23355 0.51212
 O992 O 0.26608 0.25100 0.48772
 O993 O 0.26612 0.25089 0.51216
 O994 O 0.24854 0.23366 0.48767
 Cu995 Cu 0.24113 0.25869 0.50001
 Cu996 Cu 0.25880 0.24078 0.49991
 C997 C 0.23820 0.23821 0.48347
 C998 C 0.26173 0.26127 0.51645
 C999 C 0.26167 0.26138 0.48347
 C1000 C 0.23827 0.23808 0.51644
 O1001 O 0.73356 0.75114 1.01194
 O1002 O 0.75118 0.73383 0.98751
 O1003 O 0.75117 0.73384 1.01198
 O1004 O 0.73352 0.75107 0.98750
 O1005 O 0.74817 0.76605 0.98745
 O1006 O 0.76581 0.74883 1.01192
 O1007 O 0.76582 0.74881 0.98748
 O1008 O 0.74820 0.76612 1.01189
 Cu1009 Cu 0.74089 0.74096 0.99974
 Cu1010 Cu 0.75847 0.75895 0.99968
 C1011 C 0.73790 0.76155 1.01616
 C1012 C 0.76147 0.73841 0.98324
 C1013 C 0.76147 0.73844 1.01622
 C1014 C 0.73787 0.76146 0.98322
 O1015 O 0.74883 0.26610 0.48778
 O1016 O 0.76641 0.24885 0.51230
 O1017 O 0.76646 0.24881 0.48785
 O1018 O 0.74882 0.26614 0.51225
 O1019 O 0.73416 0.25117 0.51226
 O1020 O 0.75179 0.23385 0.48786
 O1021 O 0.75175 0.23389 0.51232
 O1022 O 0.73417 0.25113 0.48781
 Cu1023 Cu 0.75910 0.25897 0.50004
 Cu1024 Cu 0.74150 0.24101 0.50006
 C1025 C 0.73854 0.26152 0.48352
 C1026 C 0.76204 0.23847 0.51659
 C1027 C 0.76210 0.23841 0.48360
 C1028 C 0.73852 0.26157 0.51651
 O1029 O 0.76646 0.25095 -0.01246
 O1030 O 0.74899 0.23359 0.01204
 O1031 O 0.74896 0.23356 -0.01242
 O1032 O 0.76646 0.25099 0.01198
 O1033 O 0.75169 0.26586 0.01196
 O1034 O 0.73419 0.24844 -0.01243
 O1035 O 0.73422 0.24847 0.01200
 O1036 O 0.75169 0.26582 -0.01250
 Cu1037 Cu 0.75920 0.24078 -0.00022
 Cu1038 Cu 0.74147 0.25864 -0.00025
 C1039 C 0.76202 0.26131 -0.01675
 C1040 C 0.73866 0.23811 0.01629
 C1041 C 0.73862 0.23806 -0.01667
 C1042 C 0.76202 0.26136 0.01622
 O1043 O 0.76603 0.75131 0.48770
 O1044 O 0.74854 0.73408 0.51227
 O1045 O 0.74848 0.73398 0.48780
 O1046 O 0.76608 0.75142 0.51212
 O1047 O 0.75137 0.76635 0.51211
 O1048 O 0.73377 0.74891 0.48778
 O1049 O 0.73383 0.74900 0.51223
 O1050 O 0.75132 0.76625 0.48766
 Cu1051 Cu 0.75876 0.74120 0.49998
 Cu1052 Cu 0.74110 0.75912 0.49994
 C1053 C 0.76163 0.76169 0.48341
 C1054 C 0.73823 0.73863 0.51653
 C1055 C 0.73816 0.73851 0.48355
 C1056 C 0.76171 0.76183 0.51635
 O1057 O 1.01232 0.23369 0.25111
 O1058 O 0.98739 0.25097 0.23387
 O1059 O 1.01216 0.25098 0.23374
 O1060 O 0.98753 0.23356 0.25114
 O1061 O 0.98745 0.24850 0.26562
 O1062 O 1.01223 0.26587 0.24828
 O1063 O 0.98744 0.26591 0.24836
 O1064 O 1.01223 0.24857 0.26565
 Cu1065 Cu 0.99985 0.24081 0.24101
 Cu1066 Cu 0.99984 0.25871 0.25843
 C1067 C 1.01660 0.23822 0.26130
 C1068 C 0.98309 0.26137 0.23821
 C1069 C 1.01649 0.26135 0.23807
 C1070 C 0.98320 0.23808 0.26131
 O1071 O 0.51258 0.26608 0.74873
 O1072 O 0.48770 0.24882 0.76601
 O1073 O 0.51247 0.24878 0.76609
 O1074 O 0.48779 0.26613 0.74864
 O1075 O 0.48779 0.25118 0.73418
 O1076 O 0.51252 0.23384 0.75161
 O1077 O 0.48772 0.23387 0.75154
 O1078 O 0.51256 0.25114 0.73425
 Cu1079 Cu 0.50013 0.25895 0.75881
 Cu1080 Cu 0.50015 0.24101 0.74145
 C1081 C 0.51690 0.26151 0.73857
 C1082 C 0.48339 0.23844 0.76169
 C1083 C 0.51679 0.23838 0.76180
 C1084 C 0.48349 0.26159 0.73847
 O1085 O 0.01249 0.24915 0.73397
 O1086 O -0.01242 0.26633 0.75125
 O1087 O 0.01238 0.26644 0.75131
 O1088 O -0.01228 0.24891 0.73402
 O1089 O -0.01211 0.23399 0.74855
 O1090 O 0.01244 0.25154 0.76585
 O1091 O -0.01231 0.25141 0.76578
 O1092 O 0.01266 0.23427 0.74853
 Cu1093 Cu 0.00003 0.25921 0.74118
 Cu1094 Cu 0.00018 0.24131 0.75863
 C1095 C 0.01691 0.23882 0.73833
 C1096 C -0.01669 0.26177 0.76144
 C1097 C 0.01670 0.26194 0.76150
 C1098 C -0.01646 0.23847 0.73836
 O1099 O 0.48769 0.26613 0.25131
 O1100 O 0.51243 0.24894 0.23379
 O1101 O 0.48763 0.24894 0.23388
 O1102 O 0.51249 0.26615 0.25123
 O1103 O 0.51251 0.25114 0.26566
 O1104 O 0.48776 0.23388 0.24827
 O1105 O 0.51256 0.23394 0.24823
 O1106 O 0.48774 0.25108 0.26569
 Cu1107 Cu 0.50006 0.25905 0.24110
 Cu1108 Cu 0.50015 0.24100 0.25840
 C1109 C 0.48340 0.26150 0.26145
 C1110 C 0.51682 0.23855 0.23806
 C1111 C 0.48337 0.23850 0.23816
 C1112 C 0.51682 0.26155 0.26138
 O1113 O 0.98745 0.75107 0.73398
 O1114 O 1.01246 0.73385 0.75118
 O1115 O 0.98767 0.73371 0.75127
 O1116 O 1.01224 0.75114 0.73380
 O1117 O 1.01233 0.76603 0.74832
 O1118 O 0.98760 0.74866 0.76573
 O1119 O 1.01238 0.74874 0.76571
 O1120 O 0.98753 0.76603 0.74844
 Cu1121 Cu 0.99996 0.74095 0.74110
 Cu1122 Cu 0.99996 0.75886 0.75850
 C1123 C 0.98314 0.76146 0.73831
 C1124 C 1.01675 0.73839 0.76136
 C1125 C 0.98334 0.73824 0.76143
 C1126 C 1.01658 0.76151 0.73811
 O1127 O 0.51240 0.76633 0.24862
 O1128 O 0.48759 0.74904 0.26600
 O1129 O 0.51237 0.74907 0.26602
 O1130 O 0.48760 0.76639 0.24868
 O1131 O 0.48753 0.75143 0.23423
 O1132 O 0.51243 0.73416 0.25152
 O1133 O 0.48765 0.73407 0.25155
 O1134 O 0.51230 0.75141 0.23412
 Cu1135 Cu 0.49999 0.75921 0.25878
 Cu1136 Cu 0.49998 0.74127 0.24141
 C1137 C 0.51666 0.76178 0.23842
 C1138 C 0.48332 0.73862 0.26171
 C1139 C 0.51672 0.73870 0.26170
 C1140 C 0.48324 0.76183 0.23854
 O1141 O 0.01229 0.75132 0.26574
 O1142 O -0.01247 0.73410 0.24833
 O1143 O 0.01235 0.73414 0.24830
 O1144 O -0.01249 0.75138 0.26569
 O1145 O -0.01243 0.76640 0.25127
 O1146 O 0.01231 0.74914 0.23386
 O1147 O -0.01247 0.74913 0.23391
 O1148 O 0.01236 0.76631 0.25129
 Cu1149 Cu -0.00008 0.74122 0.25846
 Cu1150 Cu -0.00006 0.75925 0.24113
 C1151 C 0.01664 0.76172 0.26146
 C1152 C -0.01680 0.73872 0.23819
 C1153 C 0.01666 0.73874 0.23814
 C1154 C -0.01677 0.76180 0.26141
 O1155 O 0.48761 0.76606 0.75153
 O1156 O 0.51246 0.74872 0.73431
 O1157 O 0.48765 0.74880 0.73416
 O1158 O 0.51240 0.76614 0.75154
 O1159 O 0.51230 0.75128 0.76612
 O1160 O 0.48768 0.73386 0.74866
 O1161 O 0.51251 0.73386 0.74889
 O1162 O 0.48754 0.75111 0.76603
 Cu1163 Cu 0.50004 0.75892 0.74143
 Cu1164 Cu 0.50001 0.74102 0.75887
 C1165 C 0.48324 0.76150 0.76168
 C1166 C 0.51683 0.73839 0.73871
 C1167 C 0.48335 0.73841 0.73849
 C1168 C 0.51663 0.76166 0.76178
 C1169 C 0.40890 0.30353 0.30435
 C1170 C 0.40325 0.31438 0.29909
 C1171 C 0.39251 0.31985 0.30459
 C1172 C 0.38715 0.31461 0.31551
 C1173 C 0.39289 0.30378 0.32080
 C1174 C 0.40361 0.29831 0.31529
 C1175 C 0.42019 0.29758 0.29840
 C1176 C 0.42124 0.28428 0.29763
 C1177 C 0.43178 0.27866 0.29195
 C1178 C 0.44155 0.28619 0.28689
 C1179 C 0.44052 0.29949 0.28769
 C1180 C 0.42997 0.30512 0.29338
 C1181 C 0.45263 0.28017 0.28065
 C1182 C 0.45764 0.28531 0.26954
 C1183 C 0.46776 0.27937 0.26341
 C1184 C 0.47310 0.26815 0.26826
 C1185 C 0.46824 0.26313 0.27948
 C1186 C 0.45812 0.26907 0.28561
 H1187 H 0.40701 0.31854 0.29058
 H1188 H 0.38842 0.32816 0.30020
 H1189 H 0.38914 0.29944 0.32920
 H1190 H 0.40785 0.29005 0.31967
 H1191 H 0.41377 0.27822 0.30123
 H1192 H 0.43217 0.26840 0.29129
 H1193 H 0.44797 0.30555 0.28404
 H1194 H 0.42953 0.31538 0.29399
 H1195 H 0.45353 0.29377 0.26541
 H1196 H 0.47126 0.28346 0.25477
 H1197 H 0.47217 0.25452 0.28349
 H1198 H 0.45461 0.26499 0.29425
 C1199 C 0.40851 0.80374 0.80392
 C1200 C 0.40313 0.79836 0.81472
 C1201 C 0.39252 0.80389 0.82038
 C1202 C 0.38695 0.81499 0.81539
 C1203 C 0.39242 0.82034 0.80454
 C1204 C 0.40303 0.81478 0.79890
 C1205 C 0.41978 0.79782 0.79791
 C1206 C 0.42065 0.79703 0.78480
 C1207 C 0.43122 0.79141 0.77914
 C1208 C 0.44116 0.78646 0.78645
 C1209 C 0.44029 0.78725 0.79957
 C1210 C 0.42972 0.79287 0.80523
 C1211 C 0.45230 0.78035 0.78040
 C1212 C 0.45755 0.76915 0.78538
 C1213 C 0.46773 0.76314 0.77943
 C1214 C 0.47290 0.76821 0.76835
 C1215 C 0.46780 0.77954 0.76350
 C1216 C 0.45761 0.78553 0.76946
 H1217 H 0.40703 0.78974 0.81872
 H1218 H 0.38875 0.79931 0.82865
 H1219 H 0.38861 0.82886 0.80030
 H1220 H 0.40705 0.81924 0.79066
 H1221 H 0.41306 0.80056 0.77891
 H1222 H 0.43150 0.79074 0.76902
 H1223 H 0.44787 0.78368 0.80545
 H1224 H 0.42942 0.79351 0.81535
 H1225 H 0.45358 0.76485 0.79373
 H1226 H 0.47143 0.75442 0.78340
 H1227 H 0.47160 0.78372 0.75502
 H1228 H 0.45391 0.79426 0.76550
 C1229 C -0.09093 0.30420 0.80436
 C1230 C -0.09678 0.31486 0.79893
 C1231 C -0.10745 0.32039 0.80450
 C1232 C -0.11253 0.31541 0.81566
 C1233 C -0.10659 0.30478 0.82112
 C1234 C -0.09594 0.29924 0.81554
 C1235 C -0.07972 0.29818 0.79836
 C1236 C -0.07860 0.28488 0.79786
 C1237 C -0.06811 0.27920 0.79213
 C1238 C -0.05848 0.28668 0.78678
 C1239 C -0.05957 0.29998 0.78731
 C1240 C -0.07007 0.30567 0.79303
 C1241 C -0.04743 0.28059 0.78053
 C1242 C -0.04257 0.28554 0.76928
 C1243 C -0.03246 0.27954 0.76317
 C1244 C -0.02700 0.26845 0.76818
 C1245 C -0.03174 0.26362 0.77954
 C1246 C -0.04183 0.26962 0.78564
 H1247 H -0.09324 0.31879 0.79023
 H1248 H -0.11174 0.32851 0.79994
 H1249 H -0.11009 0.30068 0.82974
 H1250 H -0.09153 0.29114 0.82005
 H1251 H -0.08597 0.27886 0.80170
 H1252 H -0.06767 0.26893 0.79168
 H1253 H -0.05221 0.30600 0.78343
 H1254 H -0.07057 0.31594 0.79342
 H1255 H -0.04677 0.29389 0.76502
 H1256 H -0.02906 0.28350 0.75443
 H1257 H -0.02770 0.25513 0.78368
 H1258 H -0.04522 0.26569 0.79440
 C1259 C -0.09099 0.80439 0.30423
 C1260 C -0.09644 0.79887 0.31494
 C1261 C -0.10711 0.80433 0.32057
 C1262 C -0.11261 0.81545 0.31564
 C1263 C -0.10709 0.82098 0.30494
 C1264 C -0.09643 0.81552 0.29931
 C1265 C -0.07976 0.79849 0.29814
 C1266 C -0.07890 0.79785 0.28501
 C1267 C -0.06841 0.79218 0.27927
 C1268 C -0.05853 0.78701 0.28651
 C1269 C -0.05936 0.78767 0.29963
 C1270 C -0.06985 0.79335 0.30538
 C1271 C -0.04749 0.78081 0.28036
 C1272 C -0.04237 0.76949 0.28521
 C1273 C -0.03227 0.76341 0.27917
 C1274 C -0.02706 0.76854 0.26815
 C1275 C -0.03204 0.77997 0.26341
 C1276 C -0.04214 0.78603 0.26945
 H1277 H -0.09257 0.79020 0.31886
 H1278 H -0.11104 0.79972 0.32875
 H1279 H -0.11095 0.82956 0.30086
 H1280 H -0.09235 0.82009 0.29116
 H1281 H -0.08647 0.80153 0.27917
 H1282 H -0.06816 0.79162 0.26914
 H1283 H -0.05182 0.78393 0.30546
 H1284 H -0.07015 0.79386 0.31551
 H1285 H -0.04637 0.76515 0.29352
 H1286 H -0.02867 0.75461 0.28305
 H1287 H -0.02821 0.78419 0.25496
 H1288 H -0.04574 0.79484 0.26559
 C1289 C 0.59117 0.69643 0.30452
 C1290 C 0.59630 0.70145 0.31560
 C1291 C 0.60703 0.69597 0.32109
 C1292 C 0.61294 0.68533 0.31562
 C1293 C 0.60775 0.68029 0.30455
 C1294 C 0.59699 0.68577 0.29907
 C1295 C 0.57987 0.70240 0.29858
 C1296 C 0.57021 0.69488 0.29335
 C1297 C 0.55966 0.70052 0.28766
 C1298 C 0.55854 0.71383 0.28708
 C1299 C 0.56819 0.72134 0.29235
 C1300 C 0.57872 0.71570 0.29804
 C1301 C 0.54746 0.71988 0.28084
 C1302 C 0.54185 0.73085 0.28592
 C1303 C 0.53176 0.73684 0.27980
 C1304 C 0.52702 0.73200 0.26847
 C1305 C 0.53248 0.72090 0.26349
 C1306 C 0.54258 0.71491 0.26961
 H1307 H 0.59193 0.70956 0.32012
 H1308 H 0.61064 0.70014 0.32962
 H1309 H 0.61198 0.67215 0.30000
 H1310 H 0.59336 0.68178 0.29044
 H1311 H 0.57074 0.68461 0.29379
 H1312 H 0.55230 0.69448 0.28385
 H1313 H 0.56772 0.73161 0.29186
 H1314 H 0.58610 0.72175 0.30181
 H1315 H 0.54526 0.73480 0.29466
 H1316 H 0.52774 0.74535 0.28392
 H1317 H 0.52907 0.71694 0.25475
 H1318 H 0.54678 0.70656 0.26537
 C1319 C 0.59114 0.19603 0.80467
 C1320 C 0.59627 0.20102 0.81577
 C1321 C 0.60699 0.19553 0.82125
 C1322 C 0.61290 0.18490 0.81577
 C1323 C 0.60772 0.17989 0.80467
 C1324 C 0.59697 0.18538 0.79920
 C1325 C 0.57986 0.20201 0.79875
 C1326 C 0.57019 0.19450 0.79350
 C1327 C 0.55965 0.20016 0.78781
 C1328 C 0.55853 0.21346 0.78724
 C1329 C 0.56817 0.22097 0.79254
 C1330 C 0.57871 0.21531 0.79823
 C1331 C 0.54746 0.21952 0.78100
 C1332 C 0.54186 0.23050 0.78607
 C1333 C 0.53178 0.23650 0.77994
 C1334 C 0.52705 0.23166 0.76860
 C1335 C 0.53250 0.22055 0.76363
 C1336 C 0.54259 0.21455 0.76976
 H1337 H 0.59190 0.20912 0.82030
 H1338 H 0.61059 0.19966 0.82981
 H1339 H 0.61197 0.17177 0.80010
 H1340 H 0.59335 0.18142 0.79055
 H1341 H 0.57072 0.18423 0.79392
 H1342 H 0.55229 0.19412 0.78399
 H1343 H 0.56771 0.23124 0.79206
 H1344 H 0.58609 0.22136 0.80200
 H1345 H 0.54527 0.23445 0.79481
 H1346 H 0.52777 0.24501 0.78405
 H1347 H 0.52910 0.21659 0.75489
 H1348 H 0.54679 0.20620 0.76554
 C1349 C 1.09107 0.69602 0.80436
 C1350 C 1.09604 0.70097 0.81554
 C1351 C 1.10668 0.69545 0.82116
 C1352 C 1.11266 0.68483 0.81573
 C1353 C 1.10763 0.67986 0.80456
 C1354 C 1.09696 0.68537 0.79895
 C1355 C 1.07986 0.70201 0.79831
 C1356 C 1.07026 0.69452 0.79292
 C1357 C 1.05975 0.70020 0.78717
 C1358 C 1.05862 0.71350 0.78667
 C1359 C 1.06822 0.72099 0.79207
 C1360 C 1.07870 0.71531 0.79782
 C1361 C 1.04756 0.71958 0.78042
 C1362 C 1.04191 0.73051 0.78555
 C1363 C 1.03180 0.73650 0.77946
 C1364 C 1.02709 0.73170 0.76809
 C1365 C 1.03259 0.72065 0.76306
 C1366 C 1.04272 0.71467 0.76915
 H1367 H 1.09160 0.70905 0.82004
 H1368 H 1.11015 0.69954 0.82979
 H1369 H 1.11194 0.67175 0.80002
 H1370 H 1.09345 0.68143 0.79025
 H1371 H 1.07078 0.68425 0.79329
 H1372 H 1.05244 0.69417 0.78325
 H1373 H 1.06775 0.73126 0.79164
 H1374 H 1.08604 0.72135 0.80170
 H1375 H 1.04529 0.73441 0.79432
 H1376 H 1.02774 0.74496 0.78362
 H1377 H 1.02921 0.71673 0.75430
 H1378 H 1.04695 0.70635 0.76487
 C1379 C 1.09098 0.19607 0.30430
 C1380 C 1.09595 0.20103 0.31548
 C1381 C 1.10662 0.19553 0.32108
 C1382 C 1.11261 0.18494 0.31562
 C1383 C 1.10759 0.17997 0.30444
 C1384 C 1.09690 0.18546 0.29886
 C1385 C 1.07973 0.20202 0.29828
 C1386 C 1.07015 0.19449 0.29292
 C1387 C 1.05962 0.20012 0.28718
 C1388 C 1.05845 0.21342 0.28666
 C1389 C 1.06803 0.22095 0.29204
 C1390 C 1.07854 0.21531 0.29779
 C1391 C 1.04737 0.21946 0.28041
 C1392 C 1.04170 0.23037 0.28554
 C1393 C 1.03159 0.23634 0.27943
 C1394 C 1.02691 0.23153 0.26805
 C1395 C 1.03244 0.22049 0.26303
 C1396 C 1.04256 0.21452 0.26914
 H1397 H 1.09150 0.20909 0.32000
 H1398 H 1.11009 0.19961 0.32971
 H1399 H 1.11192 0.17189 0.29987
 H1400 H 1.09339 0.18153 0.29015
 H1401 H 1.07071 0.18422 0.29332
 H1402 H 1.05231 0.19406 0.28328
 H1403 H 1.06753 0.23121 0.29160
 H1404 H 1.08586 0.22138 0.30165
 H1405 H 1.04506 0.23429 0.29431
 H1406 H 1.02751 0.24480 0.28358
 H1407 H 1.02908 0.21657 0.25426
 H1408 H 1.04682 0.20622 0.26487
 C1409 C 0.59122 0.30375 0.69563
 C1410 C 0.59701 0.31447 0.70099
 C1411 C 0.60774 0.31993 0.69547
 C1412 C 0.61295 0.31481 0.68443
 C1413 C 0.60706 0.30414 0.67903
 C1414 C 0.59634 0.29868 0.68456
 C1415 C 0.57998 0.29778 0.70162
 C1416 C 0.57888 0.28448 0.70223
 C1417 C 0.56838 0.27883 0.70796
 C1418 C 0.55871 0.28634 0.71322
 C1419 C 0.55979 0.29965 0.71259
 C1420 C 0.57030 0.30530 0.70686
 C1421 C 0.54766 0.28029 0.71947
 C1422 C 0.54274 0.28529 0.73067
 C1423 C 0.53263 0.27931 0.73678
 C1424 C 0.52721 0.26819 0.73182
 C1425 C 0.53200 0.26330 0.72052
 C1426 C 0.54210 0.26928 0.71441
 H1427 H 0.59339 0.31850 0.70961
 H1428 H 0.61196 0.32810 0.69996
 H1429 H 0.61067 0.29992 0.67052
 H1430 H 0.59199 0.29053 0.68010
 H1431 H 0.58628 0.27843 0.69847
 H1432 H 0.56795 0.26857 0.70849
 H1433 H 0.55241 0.30569 0.71640
 H1434 H 0.57079 0.31557 0.70638
 H1435 H 0.54691 0.29366 0.73488
 H1436 H 0.52918 0.28330 0.74549
 H1437 H 0.52801 0.25478 0.71642
 H1438 H 0.54554 0.26531 0.70570
 C1439 C 0.59115 0.80370 0.19549
 C1440 C 0.59701 0.81433 0.20093
 C1441 C 0.60779 0.81974 0.19546
 C1442 C 0.61298 0.81465 0.18440
 C1443 C 0.60703 0.80405 0.17893
 C1444 C 0.59626 0.79864 0.18441
 C1445 C 0.57984 0.79779 0.20143
 C1446 C 0.57864 0.78450 0.20198
 C1447 C 0.56809 0.77891 0.20768
 C1448 C 0.55847 0.78648 0.21296
 C1449 C 0.55964 0.79977 0.21237
 C1450 C 0.57021 0.80537 0.20667
 C1451 C 0.54738 0.78049 0.21921
 C1452 C 0.54254 0.78548 0.23045
 C1453 C 0.53243 0.77954 0.23659
 C1454 C 0.52693 0.76846 0.23162
 C1455 C 0.53163 0.76359 0.22027
 C1456 C 0.54173 0.76954 0.21414
 H1457 H 0.59339 0.81835 0.20955
 H1458 H 0.61206 0.82786 0.20001
 H1459 H 0.61063 0.79985 0.17040
 H1460 H 0.59185 0.79056 0.17989
 H1461 H 0.58599 0.77841 0.19821
 H1462 H 0.56758 0.76865 0.20817
 H1463 H 0.55231 0.80586 0.21619
 H1464 H 0.57077 0.81563 0.20622
 H1465 H 0.54678 0.79381 0.23467
 H1466 H 0.52905 0.78351 0.24533
 H1467 H 0.52758 0.75511 0.21617
 H1468 H 0.54511 0.76557 0.20540
 C1469 C 1.09070 0.30377 0.19506
 C1470 C 1.09584 0.29875 0.18398
 C1471 C 1.10658 0.30422 0.17849
 C1472 C 1.11247 0.31486 0.18396
 C1473 C 1.10724 0.31993 0.19502
 C1474 C 1.09649 0.31445 0.20049
 C1475 C 1.07944 0.29778 0.20101
 C1476 C 1.06977 0.30528 0.20630
 C1477 C 1.05926 0.29960 0.21202
 C1478 C 1.05817 0.28630 0.21259
 C1479 C 1.06783 0.27881 0.20727
 C1480 C 1.07833 0.28448 0.20155
 C1481 C 1.04713 0.28022 0.21886
 C1482 C 1.04155 0.26924 0.21379
 C1483 C 1.03148 0.26324 0.21993
 C1484 C 1.02675 0.26808 0.23128
 C1485 C 1.03219 0.27918 0.23625
 C1486 C 1.04227 0.28519 0.23011
 H1487 H 1.09149 0.29063 0.17947
 H1488 H 1.11021 0.30004 0.16997
 H1489 H 1.11145 0.32808 0.19956
 H1490 H 1.09285 0.31845 0.20912
 H1491 H 1.07027 0.31555 0.20587
 H1492 H 1.05190 0.30564 0.21587
 H1493 H 1.06739 0.26854 0.20776
 H1494 H 1.08571 0.27844 0.19776
 H1495 H 1.04494 0.26530 0.20505
 H1496 H 1.02747 0.25473 0.21583
 H1497 H 1.02879 0.28314 0.24499
 H1498 H 1.04646 0.29354 0.23433
 C1499 C 1.09078 0.80390 0.69507
 C1500 C 1.09594 0.79885 0.68401
 C1501 C 1.10669 0.80430 0.67853
 C1502 C 1.11257 0.81496 0.68396
 C1503 C 1.10732 0.82006 0.69499
 C1504 C 1.09656 0.81461 0.70047
 C1505 C 1.07952 0.79792 0.70104
 C1506 C 1.06984 0.80543 0.70630
 C1507 C 1.05933 0.79976 0.71202
 C1508 C 1.05825 0.78646 0.71262
 C1509 C 1.06791 0.77896 0.70733
 C1510 C 1.07842 0.78463 0.70161
 C1511 C 1.04721 0.78039 0.71888
 C1512 C 1.04163 0.76940 0.71382
 C1513 C 1.03157 0.76339 0.71996
 C1514 C 1.02683 0.76824 0.73131
 C1515 C 1.03226 0.77935 0.73626
 C1516 C 1.04234 0.78536 0.73012
 H1517 H 1.09160 0.79071 0.67953
 H1518 H 1.11033 0.80009 0.67003
 H1519 H 1.11152 0.82823 0.69951
 H1520 H 1.09291 0.81864 0.70908
 H1521 H 1.07033 0.81570 0.70585
 H1522 H 1.05196 0.80580 0.71585
 H1523 H 1.06749 0.76869 0.70784
 H1524 H 1.08581 0.77858 0.69784
 H1525 H 1.04504 0.76545 0.70508
 H1526 H 1.02757 0.75487 0.71587
 H1527 H 1.02886 0.78331 0.74501
 H1528 H 1.04652 0.79372 0.73434
 C1529 C 0.40905 0.69572 0.69579
 C1530 C 0.40360 0.70119 0.68505
 C1531 C 0.39286 0.69579 0.67951
 C1532 C 0.38727 0.68478 0.68458
 C1533 C 0.39282 0.67924 0.69525
 C1534 C 0.40357 0.68464 0.70079
 C1535 C 0.42028 0.70166 0.70187
 C1536 C 0.42112 0.70237 0.71499
 C1537 C 0.43158 0.70810 0.72073
 C1538 C 0.44147 0.71326 0.71348
 C1539 C 0.44065 0.71255 0.70036
 C1540 C 0.43018 0.70681 0.69462
 C1541 C 0.45252 0.71947 0.71962
 C1542 C 0.45772 0.73072 0.71469
 C1543 C 0.46786 0.73676 0.72070
 C1544 C 0.47302 0.73169 0.73178
 C1545 C 0.46794 0.72035 0.73660
 C1546 C 0.45781 0.71432 0.73060
 H1547 H 0.40748 0.70982 0.68107
 H1548 H 0.38884 0.70042 0.67138
 H1549 H 0.38892 0.67069 0.69935
 H1550 H 0.40767 0.68009 0.70894
 H1551 H 0.41356 0.69870 0.72084
 H1552 H 0.43181 0.70871 0.73085
 H1553 H 0.44818 0.71628 0.69452
 H1554 H 0.42990 0.70627 0.68449
 H1555 H 0.45377 0.73501 0.70633
 H1556 H 0.47153 0.74550 0.71675
 H1557 H 0.47172 0.71618 0.74510
 H1558 H 0.45414 0.70557 0.73453
 C1559 C 0.40869 0.19629 0.19583
 C1560 C 0.40296 0.20206 0.18539
 C1561 C 0.39221 0.19668 0.17983
 C1562 C 0.38692 0.18538 0.18457
 C1563 C 0.39271 0.17959 0.19500
 C1564 C 0.40345 0.18498 0.20056
 C1565 C 0.42001 0.20210 0.20183
 C1566 C 0.42114 0.20240 0.21494
 C1567 C 0.43169 0.20802 0.22061
 C1568 C 0.44138 0.21346 0.21330
 C1569 C 0.44028 0.21311 0.20018
 C1570 C 0.42971 0.20750 0.19451
 C1571 C 0.45248 0.21962 0.21937
 C1572 C 0.45745 0.23106 0.21463
 C1573 C 0.46761 0.23708 0.22060
 C1574 C 0.47303 0.23181 0.23146
 C1575 C 0.46820 0.22028 0.23609
 C1576 C 0.45805 0.21425 0.23011
 H1577 H 0.40667 0.21087 0.18163
 H1578 H 0.38804 0.20150 0.17189
 H1579 H 0.38904 0.17085 0.19890
 H1580 H 0.40775 0.18021 0.20849
 H1581 H 0.41373 0.19851 0.22084
 H1582 H 0.43214 0.20833 0.23074
 H1583 H 0.44766 0.21706 0.19429
 H1584 H 0.42921 0.20725 0.18439
 H1585 H 0.45328 0.23552 0.20646
 H1586 H 0.47108 0.24597 0.21681
 H1587 H 0.47219 0.21594 0.24441
 H1588 H 0.45457 0.20536 0.23389
 C1589 C -0.09122 0.69653 0.19540
 C1590 C -0.09684 0.68565 0.20065
 C1591 C -0.10754 0.68015 0.19512
 C1592 C -0.11289 0.68538 0.18419
 C1593 C -0.10719 0.69623 0.17892
 C1594 C -0.09650 0.70173 0.18445
 C1595 C -0.07997 0.70251 0.20138
 C1596 C -0.07898 0.71580 0.20214
 C1597 C -0.06847 0.72146 0.20784
 C1598 C -0.05868 0.71396 0.21291
 C1599 C -0.05965 0.70066 0.21212
 C1600 C -0.07018 0.69500 0.20642
 C1601 C -0.04761 0.72001 0.21913
 C1602 C -0.04256 0.71489 0.23023
 C1603 C -0.03243 0.72085 0.23631
 C1604 C -0.02712 0.73206 0.23143
 C1605 C -0.03203 0.73707 0.22022
 C1606 C -0.04216 0.73111 0.21414
 H1607 H -0.09309 0.68151 0.20917
 H1608 H -0.11161 0.67183 0.19951
 H1609 H -0.11093 0.70056 0.17051
 H1610 H -0.09229 0.71000 0.18008
 H1611 H -0.08646 0.72185 0.19853
 H1612 H -0.06812 0.73172 0.20849
 H1613 H -0.05219 0.69462 0.21578
 H1614 H -0.07058 0.68473 0.20581
 H1615 H -0.04664 0.70644 0.23438
 H1616 H -0.02889 0.71676 0.24495
 H1617 H -0.02813 0.74567 0.21619
 H1618 H -0.04571 0.73518 0.20551
 C1619 C -0.09019 0.19521 0.69562
 C1620 C -0.09565 0.18408 0.70050
 C1621 C -0.10638 0.17873 0.69489
 C1622 C -0.11193 0.18439 0.68427
 C1623 C -0.10639 0.19550 0.67937
 C1624 C -0.09565 0.20083 0.68497
 C1625 C -0.07893 0.20104 0.70170
 C1626 C -0.06904 0.20617 0.69445
 C1627 C -0.05857 0.21189 0.70019
 C1628 C -0.05777 0.21261 0.71331
 C1629 C -0.06763 0.20740 0.72056
 C1630 C -0.07808 0.20167 0.71482
 C1631 C -0.04683 0.21896 0.71943
 C1632 C -0.04145 0.21388 0.73040
 C1633 C -0.03147 0.22011 0.73643
 C1634 C -0.02664 0.23157 0.73164
 C1635 C -0.03187 0.23656 0.72056
 C1636 C -0.04186 0.23032 0.71453
 H1637 H -0.09155 0.17943 0.70860
 H1638 H -0.11026 0.17014 0.69893
 H1639 H -0.11035 0.20020 0.67126
 H1640 H -0.09176 0.20950 0.68109
 H1641 H -0.06933 0.20564 0.68432
 H1642 H -0.05104 0.21565 0.69435
 H1643 H -0.06739 0.20799 0.73068
 H1644 H -0.08564 0.19798 0.72066
 H1645 H -0.04495 0.20505 0.73430
 H1646 H -0.02761 0.21599 0.74492
 H1647 H -0.02838 0.24538 0.71664
 H1648 H -0.04589 0.23455 0.70618
 C1649 C 0.30386 0.40914 0.30475
 C1650 C 0.31467 0.40346 0.29945
 C1651 C 0.32014 0.39270 0.30493
 C1652 C 0.31493 0.38734 0.31587
 C1653 C 0.30415 0.39311 0.32120
 C1654 C 0.29870 0.40386 0.31571
 C1655 C 0.29788 0.42042 0.29878
 C1656 C 0.28459 0.42145 0.29805
 C1657 C 0.27894 0.43196 0.29232
 C1658 C 0.28643 0.44170 0.28716
 C1659 C 0.29972 0.44071 0.28792
 C1660 C 0.30538 0.43018 0.29367
 C1661 C 0.28036 0.45275 0.28087
 C1662 C 0.28543 0.45770 0.26971
 C1663 C 0.27943 0.46777 0.26353
 C1664 C 0.26822 0.47311 0.26838
 C1665 C 0.26327 0.46830 0.27966
 C1666 C 0.26928 0.45824 0.28583
 H1667 H 0.31879 0.40721 0.29092
 H1668 H 0.32840 0.38859 0.30050
 H1669 H 0.29985 0.38936 0.32962
 H1670 H 0.29047 0.40812 0.32012
 H1671 H 0.27855 0.41399 0.30171
 H1672 H 0.26868 0.43232 0.29169
 H1673 H 0.30575 0.44814 0.28420
 H1674 H 0.31564 0.42976 0.29424
 H1675 H 0.29387 0.45359 0.26557
 H1676 H 0.28347 0.47124 0.25485
 H1677 H 0.25468 0.47223 0.28368
 H1678 H 0.26524 0.45477 0.29451
 C1679 C 0.30414 -0.09146 0.80493
 C1680 C 0.29882 -0.09698 0.81569
 C1681 C 0.30439 -0.10765 0.82122
 C1682 C 0.31547 -0.11315 0.81614
 C1683 C 0.32079 -0.10752 0.80536
 C1684 C 0.31521 -0.09682 0.79985
 C1685 C 0.29808 -0.08022 0.79896
 C1686 C 0.30551 -0.07022 0.79422
 C1687 C 0.29978 -0.05970 0.78853
 C1688 C 0.28649 -0.05895 0.78746
 C1689 C 0.27908 -0.06895 0.79223
 C1690 C 0.28480 -0.07945 0.79791
 C1691 C 0.28037 -0.04790 0.78124
 C1692 C 0.26907 -0.04270 0.78603
 C1693 C 0.26306 -0.03260 0.77993
 C1694 C 0.26820 -0.02745 0.76889
 C1695 C 0.27961 -0.03251 0.76420
 C1696 C 0.28563 -0.04261 0.77031
 H1697 H 0.29039 -0.09296 0.81993
 H1698 H 0.29989 -0.11149 0.82949
 H1699 H 0.32926 -0.11129 0.80102
 H1700 H 0.31945 -0.09288 0.79147
 H1701 H 0.31576 -0.07044 0.79506
 H1702 H 0.30575 -0.05207 0.78511
 H1703 H 0.26883 -0.06877 0.79134
 H1704 H 0.27882 -0.08710 0.80128
 H1705 H 0.26488 -0.04644 0.79454
 H1706 H 0.25430 -0.02890 0.78382
 H1707 H 0.28382 -0.02878 0.75570
 H1708 H 0.29425 -0.04649 0.76630
 C1709 C 0.80394 0.40900 0.80506
 C1710 C 0.79857 0.40346 0.81579
 C1711 C 0.80411 0.39278 0.82132
 C1712 C 0.81521 0.38727 0.81628
 C1713 C 0.82058 0.39293 0.80553
 C1714 C 0.81503 0.40364 0.80002
 C1715 C 0.79791 0.42023 0.79908
 C1716 C 0.80536 0.43023 0.79436
 C1717 C 0.79966 0.44073 0.78861
 C1718 C 0.78638 0.44145 0.78744
 C1719 C 0.77894 0.43147 0.79220
 C1720 C 0.78464 0.42099 0.79795
 C1721 C 0.78030 0.45247 0.78114
 C1722 C 0.76897 0.45769 0.78585
 C1723 C 0.76300 0.46776 0.77968
 C1724 C 0.76821 0.47285 0.76864
 C1725 C 0.77964 0.46777 0.76403
 C1726 C 0.78562 0.45770 0.77021
 H1727 H 0.79012 0.40748 0.82000
 H1728 H 0.79957 0.38892 0.82957
 H1729 H 0.82907 0.38915 0.80122
 H1730 H 0.81931 0.40759 0.79166
 H1731 H 0.81561 0.43002 0.79525
 H1732 H 0.80564 0.44835 0.78519
 H1733 H 0.76870 0.43164 0.79126
 H1734 H 0.77865 0.41335 0.80130
 H1735 H 0.76474 0.45399 0.79435
 H1736 H 0.75422 0.47148 0.78350
 H1737 H 0.78389 0.47146 0.75553
 H1738 H 0.79425 0.45380 0.76626
 C1739 C 0.80367 -0.09121 0.30503
 C1740 C 0.81475 -0.09658 0.29997
 C1741 C 0.82032 -0.10726 0.30549
 C1742 C 0.81496 -0.11290 0.31627
 C1743 C 0.80387 -0.10740 0.32132
 C1744 C 0.79832 -0.09672 0.31577
 C1745 C 0.79764 -0.07998 0.29904
 C1746 C 0.78436 -0.07921 0.29792
 C1747 C 0.77867 -0.06872 0.29218
 C1748 C 0.78611 -0.05874 0.28743
 C1749 C 0.79939 -0.05948 0.28858
 C1750 C 0.80509 -0.06998 0.29432
 C1751 C 0.78003 -0.04770 0.28116
 C1752 C 0.78534 -0.04245 0.27024
 C1753 C 0.77935 -0.03236 0.26409
 C1754 C 0.76793 -0.02729 0.26872
 C1755 C 0.76273 -0.03240 0.27975
 C1756 C 0.76871 -0.04249 0.28590
 H1757 H 0.81901 -0.09263 0.29160
 H1758 H 0.82880 -0.11104 0.30118
 H1759 H 0.79935 -0.11124 0.32958
 H1760 H 0.78987 -0.09270 0.31999
 H1761 H 0.77837 -0.08685 0.30128
 H1762 H 0.76843 -0.06855 0.29125
 H1763 H 0.80538 -0.05186 0.28517
 H1764 H 0.81534 -0.07020 0.29520
 H1765 H 0.79397 -0.04634 0.26628
 H1766 H 0.78359 -0.02865 0.25560
 H1767 H 0.75396 -0.02869 0.28359
 H1768 H 0.76448 -0.04621 0.29439
 C1769 C 0.30193 0.59266 0.69550
 C1770 C 0.31225 0.59864 0.70139
 C1771 C 0.31771 0.60957 0.69623
 C1772 C 0.31297 0.61479 0.68503
 C1773 C 0.30271 0.60872 0.67909
 C1774 C 0.29725 0.59780 0.68427
 C1775 C 0.29601 0.58117 0.70112
 C1776 C 0.28274 0.57971 0.70123
 C1777 C 0.27716 0.56904 0.70678
 C1778 C 0.28473 0.55957 0.71232
 C1779 C 0.29801 0.56096 0.71207
 C1780 C 0.30358 0.57164 0.70655
 C1781 C 0.27881 0.54841 0.71859
 C1782 C 0.28385 0.54366 0.72986
 C1783 C 0.27817 0.53335 0.73592
 C1784 C 0.26729 0.52756 0.73090
 C1785 C 0.26229 0.53223 0.71958
 C1786 C 0.26799 0.54253 0.71349
 H1787 H 0.31597 0.59501 0.71015
 H1788 H 0.32552 0.61396 0.70116
 H1789 H 0.29885 0.61233 0.67040
 H1790 H 0.28943 0.59331 0.67940
 H1791 H 0.27664 0.58697 0.69728
 H1792 H 0.26690 0.56836 0.70698
 H1793 H 0.30412 0.55374 0.71606
 H1794 H 0.31383 0.57239 0.70643
 H1795 H 0.29204 0.54809 0.73415
 H1796 H 0.28221 0.53005 0.74467
 H1797 H 0.25392 0.52798 0.71545
 H1798 H 0.26397 0.54585 0.70475
 C1799 C 0.30359 1.09126 0.19552
 C1800 C 0.29776 1.09713 0.18519
 C1801 C 0.30320 1.10787 0.17964
 C1802 C 0.31461 1.11299 0.18428
 C1803 C 0.32045 1.10704 0.19458
 C1804 C 0.31501 1.09632 0.20013
 C1805 C 0.29771 1.07997 0.20154
 C1806 C 0.29756 1.07877 0.21466
 C1807 C 0.29193 1.06823 0.22035
 C1808 C 0.28632 1.05862 0.21307
 C1809 C 0.28649 1.05980 0.19995
 C1810 C 0.29212 1.07036 0.19426
 C1811 C 0.28016 1.04752 0.21918
 C1812 C 0.26864 1.04267 0.21458
 C1813 C 0.26262 1.03252 0.22060
 C1814 C 0.26799 1.02701 0.23136
 C1815 C 0.27962 1.03172 0.23584
 C1816 C 0.28564 1.04186 0.22981
 H1817 H 0.28887 1.09356 0.18153
 H1818 H 0.29833 1.11217 0.17180
 H1819 H 0.32928 1.11058 0.19838
 H1820 H 0.31982 1.09189 0.20797
 H1821 H 0.30160 1.08611 0.22053
 H1822 H 0.29175 1.06772 0.23048
 H1823 H 0.28241 1.05248 0.19408
 H1824 H 0.29225 1.07092 0.18413
 H1825 H 0.26410 1.04692 0.20649
 H1826 H 0.25365 1.02914 0.21693
 H1827 H 0.28404 1.02766 0.24408
 H1828 H 0.29461 1.04524 0.23347
 C1829 C 0.80356 0.59112 0.19497
 C1830 C 0.81456 0.59657 0.20011
 C1831 C 0.82005 0.60733 0.19465
 C1832 C 0.81468 0.61290 0.18390
 C1833 C 0.80371 0.60737 0.17872
 C1834 C 0.79823 0.59662 0.18419
 C1835 C 0.79758 0.57984 0.20091
 C1836 C 0.78429 0.57896 0.20189
 C1837 C 0.77864 0.56845 0.20762
 C1838 C 0.78612 0.55857 0.21251
 C1839 C 0.79941 0.55941 0.21150
 C1840 C 0.80507 0.56993 0.20576
 C1841 C 0.78008 0.54753 0.21882
 C1842 C 0.78533 0.54241 0.22983
 C1843 C 0.77939 0.53232 0.23601
 C1844 C 0.76805 0.52711 0.23131
 C1845 C 0.76291 0.53210 0.22020
 C1846 C 0.76885 0.54219 0.21403
 H1847 H 0.81882 0.59265 0.20850
 H1848 H 0.82848 0.61125 0.19894
 H1849 H 0.79926 0.61130 0.17046
 H1850 H 0.78985 0.59254 0.17990
 H1851 H 0.77826 0.58653 0.19843
 H1852 H 0.76839 0.56820 0.20845
 H1853 H 0.80543 0.55186 0.21501
 H1854 H 0.81532 0.57023 0.20498
 H1855 H 0.79388 0.54641 0.23384
 H1856 H 0.78358 0.52872 0.24457
 H1857 H 0.75421 0.52828 0.21631
 H1858 H 0.76467 0.54580 0.20546
 C1859 C 0.80309 1.09169 0.69519
 C1860 C 0.79787 1.09720 0.68436
 C1861 C 0.80335 1.10802 0.67903
 C1862 C 0.81419 1.11360 0.68440
 C1863 C 0.81945 1.10802 0.69520
 C1864 C 0.81397 1.09719 0.70052
 C1865 C 0.79712 1.08035 0.70100
 C1866 C 0.80464 1.07045 0.70583
 C1867 C 0.79900 1.05988 0.71148
 C1868 C 0.78571 1.05897 0.71241
 C1869 C 0.77820 1.06884 0.70753
 C1870 C 0.78384 1.07940 0.70188
 C1871 C 0.77969 1.04788 0.71864
 C1872 C 0.76853 1.04250 0.71376
 C1873 C 0.76260 1.03236 0.71988
 C1874 C 0.76771 1.02738 0.73101
 C1875 C 0.77899 1.03262 0.73577
 C1876 C 0.78492 1.04276 0.72966
 H1877 H 0.78959 1.09307 0.67993
 H1878 H 0.79907 1.11192 0.67066
 H1879 H 0.82772 1.11204 0.69969
 H1880 H 0.81811 1.09327 0.70896
 H1881 H 0.81489 1.07082 0.70513
 H1882 H 0.80503 1.05234 0.71500
 H1883 H 0.76795 1.06853 0.70830
 H1884 H 0.77779 1.08697 0.69843
 H1885 H 0.76438 1.04611 0.70519
 H1886 H 0.75394 1.02851 0.71593
 H1887 H 0.78316 1.02902 0.74435
 H1888 H 0.79343 1.04679 0.73373
 C1889 C 0.69642 0.59089 0.30498
 C1890 C 0.68541 0.59636 0.29984
 C1891 C 0.67992 0.60711 0.30530
 C1892 C 0.68528 0.61266 0.31605
 C1893 C 0.69625 0.60711 0.32122
 C1894 C 0.70174 0.59637 0.31576
 C1895 C 0.70242 0.57963 0.29902
 C1896 C 0.71570 0.57876 0.29804
 C1897 C 0.72137 0.56827 0.29229
 C1898 C 0.71389 0.55839 0.28739
 C1899 C 0.70061 0.55923 0.28843
 C1900 C 0.69494 0.56973 0.29418
 C1901 C 0.71996 0.54738 0.28107
 C1902 C 0.71471 0.54230 0.27005
 C1903 C 0.72067 0.53224 0.26385
 C1904 C 0.73201 0.52702 0.26854
 C1905 C 0.73715 0.53197 0.27966
 C1906 C 0.73119 0.54203 0.28585
 H1907 H 0.68117 0.59246 0.29144
 H1908 H 0.67149 0.61104 0.30100
 H1909 H 0.70069 0.61102 0.32949
 H1910 H 0.71012 0.59227 0.32005
 H1911 H 0.72172 0.58633 0.30149
 H1912 H 0.73162 0.56802 0.29145
 H1913 H 0.69460 0.55168 0.28491
 H1914 H 0.68469 0.57002 0.29496
 H1915 H 0.70615 0.54631 0.26605
 H1916 H 0.71648 0.52867 0.25529
 H1917 H 0.74586 0.52814 0.28354
 H1918 H 0.73537 0.54561 0.29442
 C1919 C 0.69596 1.09096 0.80490
 C1920 C 0.70125 1.09630 0.81575
 C1921 C 0.69581 1.10703 0.82129
 C1922 C 0.68488 1.11276 0.81611
 C1923 C 0.67957 1.10728 0.80525
 C1924 C 0.68504 1.09654 0.79974
 C1925 C 0.70193 1.07972 0.79889
 C1926 C 0.69443 1.06987 0.79397
 C1927 C 0.70008 1.05938 0.78817
 C1928 C 0.71337 1.05852 0.78715
 C1929 C 0.72086 1.06835 0.79212
 C1930 C 0.71522 1.07882 0.79792
 C1931 C 0.71942 1.04752 0.78080
 C1932 C 0.73065 1.04215 0.78557
 C1933 C 0.73663 1.03213 0.77934
 C1934 C 0.73152 1.02725 0.76817
 C1935 C 0.72018 1.03246 0.76350
 C1936 C 0.71419 1.04249 0.76975
 H1937 H 0.70957 1.09211 0.82005
 H1938 H 0.70028 1.11073 0.82962
 H1939 H 0.67122 1.11124 0.80084
 H1940 H 0.68083 1.09273 0.79129
 H1941 H 0.68418 1.07020 0.79474
 H1942 H 0.69406 1.05188 0.78460
 H1943 H 0.73111 1.06808 0.79130
 H1944 H 0.72125 1.08635 0.80143
 H1945 H 0.73481 1.04568 0.79417
 H1946 H 0.74533 1.02829 0.78322
 H1947 H 0.71600 1.02892 0.75492
 H1948 H 0.70563 1.04651 0.76575
 C1949 C 0.19667 0.59121 0.80432
 C1950 C 0.20211 0.59669 0.81504
 C1951 C 0.19654 0.60731 0.82068
 C1952 C 0.18538 0.61271 0.81574
 C1953 C 0.17994 0.60718 0.80501
 C1954 C 0.18552 0.59657 0.79938
 C1955 C 0.20262 0.57998 0.79827
 C1956 C 0.20322 0.57908 0.78515
 C1957 C 0.20879 0.56852 0.77944
 C1958 C 0.21390 0.55861 0.78671
 C1959 C 0.21332 0.55952 0.79983
 C1960 C 0.20774 0.57008 0.80555
 C1961 C 0.21992 0.54747 0.78058
 C1962 C 0.23122 0.54226 0.78535
 C1963 C 0.23716 0.53211 0.77927
 C1964 C 0.23192 0.52693 0.76829
 C1965 C 0.22048 0.53197 0.76367
 C1966 C 0.21455 0.54212 0.76974
 H1967 H 0.21079 0.59289 0.81898
 H1968 H 0.20107 0.61126 0.82888
 H1969 H 0.17136 0.61097 0.80090
 H1970 H 0.18101 0.59246 0.79122
 H1971 H 0.19957 0.58664 0.77929
 H1972 H 0.20931 0.56822 0.76931
 H1973 H 0.21703 0.55197 0.80568
 H1974 H 0.20727 0.57042 0.81568
 H1975 H 0.23566 0.54625 0.79361
 H1976 H 0.24598 0.52846 0.78307
 H1977 H 0.21617 0.52816 0.75526
 H1978 H 0.20574 0.54579 0.76595
 C1979 C 0.19614 1.09071 0.30491
 C1980 C 0.20128 1.09595 0.31589
 C1981 C 0.19573 1.10662 0.32144
 C1982 C 0.18489 1.11233 0.31615
 C1983 C 0.17974 1.10702 0.30518
 C1984 C 0.18529 1.09634 0.29964
 C1985 C 0.20217 1.07949 0.29891
 C1986 C 0.19469 1.06969 0.29385
 C1987 C 0.20039 1.05920 0.28811
 C1988 C 0.21368 1.05828 0.28728
 C1989 C 0.22115 1.06806 0.29238
 C1990 C 0.21546 1.07853 0.29813
 C1991 C 0.21976 1.04727 0.28096
 C1992 C 0.23090 1.04181 0.28583
 C1993 C 0.23687 1.03175 0.27964
 C1994 C 0.23183 1.02691 0.26843
 C1995 C 0.22058 1.03224 0.26365
 C1996 C 0.21461 1.04230 0.26984
 H1997 H 0.20954 1.09172 0.32027
 H1998 H 0.19998 1.11031 0.32990
 H1999 H 0.17145 1.11111 0.30075
 H2000 H 0.18120 1.09262 0.29108
 H2001 H 0.18443 1.07006 0.29447
 H2002 H 0.19438 1.05173 0.28443
 H2003 H 0.23140 1.06774 0.29171
 H2004 H 0.22147 1.08602 0.30176
 H2005 H 0.23500 1.04530 0.29447
 H2006 H 0.24550 1.02783 0.28359
 H2007 H 0.21646 1.02875 0.25501
 H2008 H 0.20613 1.04640 0.26576
 C2009 C 0.69643 0.40903 0.69503
 C2010 C 0.68543 0.40356 0.70018
 C2011 C 0.67992 0.39285 0.69469
 C2012 C 0.68527 0.38732 0.68391
 C2013 C 0.69622 0.39288 0.67873
 C2014 C 0.70173 0.40359 0.68422
 C2015 C 0.70245 0.42026 0.70101
 C2016 C 0.71573 0.42110 0.70197
 C2017 C 0.72141 0.43157 0.70772
 C2018 C 0.71394 0.44145 0.71265
 C2019 C 0.70066 0.44064 0.71165
 C2020 C 0.69497 0.43016 0.70589
 C2021 C 0.72002 0.45245 0.71897
 C2022 C 0.71479 0.45752 0.73001
 C2023 C 0.72075 0.46759 0.73619
 C2024 C 0.73208 0.47280 0.73148
 C2025 C 0.73721 0.46785 0.72035
 C2026 C 0.73124 0.45779 0.71417
 H2027 H 0.68121 0.40744 0.70860
 H2028 H 0.67150 0.38890 0.69900
 H2029 H 0.70065 0.38898 0.67044
 H2030 H 0.71011 0.40768 0.67994
 H2031 H 0.72175 0.41354 0.69849
 H2032 H 0.73166 0.43181 0.70855
 H2033 H 0.69465 0.44818 0.71520
 H2034 H 0.68472 0.42987 0.70512
 H2035 H 0.70624 0.45352 0.73402
 H2036 H 0.71657 0.47116 0.74476
 H2037 H 0.74589 0.47168 0.71645
 H2038 H 0.73540 0.45421 0.70559
 C2039 C 0.69633 -0.09105 0.19506
 C2040 C 0.70162 -0.09645 0.18422
 C2041 C 0.69614 -0.10717 0.17872
 C2042 C 0.68522 -0.11279 0.18392
 C2043 C 0.67988 -0.10731 0.19473
 C2044 C 0.68537 -0.09658 0.20022
 C2045 C 0.70231 -0.07981 0.20104
 C2046 C 0.69481 -0.06996 0.20598
 C2047 C 0.70047 -0.05948 0.21176
 C2048 C 0.71376 -0.05861 0.21272
 C2049 C 0.72125 -0.06844 0.20774
 C2050 C 0.71560 -0.07891 0.20196
 C2051 C 0.71980 -0.04760 0.21907
 C2052 C 0.73099 -0.04220 0.21425
 C2053 C 0.73693 -0.03214 0.22045
 C2054 C 0.73180 -0.02724 0.23161
 C2055 C 0.72051 -0.03251 0.23632
 C2056 C 0.71457 -0.04258 0.23012
 H2057 H 0.70996 -0.09231 0.17991
 H2058 H 0.70056 -0.11103 0.17040
 H2059 H 0.67149 -0.11128 0.19904
 H2060 H 0.68114 -0.09273 0.20866
 H2061 H 0.68456 -0.07029 0.20525
 H2062 H 0.69445 -0.05197 0.21535
 H2063 H 0.73150 -0.06816 0.20852
 H2064 H 0.72163 -0.08644 0.19844
 H2065 H 0.73515 -0.04574 0.20566
 H2066 H 0.74560 -0.02826 0.21655
 H2067 H 0.71634 -0.02898 0.24491
 H2068 H 0.70605 -0.04663 0.23415
 C2069 C 0.19638 0.40874 0.19539
 C2070 C 0.18557 0.40308 0.20071
 C2071 C 0.18006 0.39236 0.19522
 C2072 C 0.18522 0.38703 0.18426
 C2073 C 0.19600 0.39278 0.17891
 C2074 C 0.20151 0.40348 0.18441
 C2075 C 0.20238 0.42000 0.20134
 C2076 C 0.21567 0.42101 0.20204
 C2077 C 0.22133 0.43152 0.20774
 C2078 C 0.21384 0.44127 0.21288
 C2079 C 0.20055 0.44029 0.21214
 C2080 C 0.19488 0.42977 0.20643
 C2081 C 0.21990 0.45233 0.21912
 C2082 C 0.21479 0.45733 0.23025
 C2083 C 0.22073 0.46746 0.23635
 C2084 C 0.23191 0.47282 0.23146
 C2085 C 0.23692 0.46794 0.22025
 C2086 C 0.23098 0.45782 0.21415
 H2087 H 0.18148 0.40681 0.20926
 H2088 H 0.17179 0.38826 0.19967
 H2089 H 0.20027 0.38906 0.17047
 H2090 H 0.20973 0.40773 0.17998
 H2091 H 0.22170 0.41355 0.19838
 H2092 H 0.23159 0.43188 0.20835
 H2093 H 0.19452 0.44773 0.21584
 H2094 H 0.18462 0.42935 0.20587
 H2095 H 0.20636 0.45321 0.23440
 H2096 H 0.21665 0.47097 0.24499
 H2097 H 0.24549 0.47188 0.21622
 H2098 H 0.23504 0.45431 0.20550
 C2099 C 0.19630 -0.09117 0.69556
 C2100 C 0.18540 -0.09677 0.70077
 C2101 C 0.17991 -0.10747 0.69523
 C2102 C 0.18516 -0.11283 0.68432
 C2103 C 0.19603 -0.10713 0.67908
 C2104 C 0.20152 -0.09645 0.68464
 C2105 C 0.20228 -0.07994 0.70157
 C2106 C 0.21557 -0.07898 0.70238
 C2107 C 0.22123 -0.06849 0.70813
 C2108 C 0.21373 -0.05871 0.71320
 C2109 C 0.20044 -0.05964 0.71236
 C2110 C 0.19478 -0.07014 0.70661
 C2111 C 0.21979 -0.04768 0.71949
 C2112 C 0.21464 -0.04267 0.73059
 C2113 C 0.22060 -0.03259 0.73675
 C2114 C 0.23186 -0.02730 0.73195
 C2115 C 0.23689 -0.03217 0.72075
 C2116 C 0.23092 -0.04224 0.71459
 H2117 H 0.18125 -0.09302 0.70928
 H2118 H 0.17157 -0.11152 0.69959
 H2119 H 0.20037 -0.11088 0.67069
 H2120 H 0.20981 -0.09224 0.68029
 H2121 H 0.22161 -0.08647 0.69878
 H2122 H 0.23148 -0.06817 0.70882
 H2123 H 0.19442 -0.05218 0.71602
 H2124 H 0.18453 -0.07052 0.70597
 H2125 H 0.20615 -0.04674 0.73468
 H2126 H 0.21649 -0.02907 0.74538
 H2127 H 0.24552 -0.02828 0.71678
 H2128 H 0.23502 -0.04576 0.70596
 C2129 C 0.30453 0.30388 0.40986
 C2130 C 0.29884 0.31448 0.40415
 C2131 C 0.30421 0.31997 0.39346
 C2132 C 0.31542 0.31500 0.38821
 C2133 C 0.32114 0.30443 0.39401
 C2134 C 0.31576 0.29894 0.40468
 C2135 C 0.29868 0.29787 0.42106
 C2136 C 0.29824 0.28457 0.42220
 C2137 C 0.29256 0.27889 0.43262
 C2138 C 0.28719 0.28636 0.44216
 C2139 C 0.28770 0.29967 0.44106
 C2140 C 0.29337 0.30536 0.43062
 C2141 C 0.28092 0.28027 0.45310
 C2142 C 0.26954 0.28523 0.45797
 C2143 C 0.26339 0.27922 0.46796
 C2144 C 0.26848 0.26811 0.47330
 C2145 C 0.27996 0.26328 0.46857
 C2146 C 0.28611 0.26929 0.45859
 H2147 H 0.29009 0.31840 0.40782
 H2148 H 0.29945 0.32804 0.38930
 H2149 H 0.32981 0.30034 0.39037
 H2150 H 0.32047 0.29089 0.40897
 H2151 H 0.30206 0.27854 0.41490
 H2152 H 0.29213 0.26862 0.43308
 H2153 H 0.28382 0.30569 0.44834
 H2154 H 0.29373 0.31563 0.43010
 H2155 H 0.26521 0.29358 0.45386
 H2156 H 0.25454 0.28317 0.47136
 H2157 H 0.28417 0.25477 0.47250
 H2158 H 0.29496 0.26534 0.45518
 C2159 C 0.30525 0.80361 -0.09036
 C2160 C 0.31633 0.79856 -0.09573
 C2161 C 0.32168 0.80411 -0.10639
 C2162 C 0.31608 0.81486 -0.11197
 C2163 C 0.30501 0.81994 -0.10652
 C2164 C 0.29968 0.81439 -0.09585
 C2165 C 0.29945 0.79757 -0.07915
 C2166 C 0.29440 0.80504 -0.06944
 C2167 C 0.28876 0.79934 -0.05901
 C2168 C 0.28803 0.78603 -0.05804
 C2169 C 0.29315 0.77857 -0.06772
 C2170 C 0.29880 0.78427 -0.07815
 C2171 C 0.28176 0.77994 -0.04712
 C2172 C 0.28682 0.76883 -0.04175
 C2173 C 0.28066 0.76284 -0.03177
 C2174 C 0.26929 0.76782 -0.02692
 C2175 C 0.26433 0.77904 -0.03215
 C2176 C 0.27049 0.78502 -0.04214
 H2177 H 0.32095 0.79036 -0.09162
 H2178 H 0.33022 0.79991 -0.11020
 H2179 H 0.30035 0.82816 -0.11050
 H2180 H 0.29104 0.81841 -0.09202
 H2181 H 0.29493 0.81531 -0.06985
 H2182 H 0.28507 0.80534 -0.05162
 H2183 H 0.29255 0.76830 -0.06737
 H2184 H 0.30242 0.77826 -0.08556
 H2185 H 0.29559 0.76479 -0.04526
 H2186 H 0.28476 0.75424 -0.02792
 H2187 H 0.25557 0.78310 -0.02866
 H2188 H 0.26626 0.79347 -0.04616
 C2189 C 0.80458 0.30385 -0.09045
 C2190 C 0.79890 0.31450 -0.09607
 C2191 C 0.80424 0.32004 -0.10674
 C2192 C 0.81542 0.31508 -0.11206
 C2193 C 0.82112 0.30444 -0.10636
 C2194 C 0.81576 0.29890 -0.09570
 C2195 C 0.79879 0.29783 -0.07924
 C2196 C 0.79829 0.28453 -0.07814
 C2197 C 0.79266 0.27884 -0.06770
 C2198 C 0.78742 0.28632 -0.05809
 C2199 C 0.78799 0.29962 -0.05914
 C2200 C 0.79361 0.30532 -0.06960
 C2201 C 0.78120 0.28022 -0.04714
 C2202 C 0.76986 0.28520 -0.04220
 C2203 C 0.76374 0.27918 -0.03221
 C2204 C 0.76882 0.26804 -0.02692
 C2205 C 0.78026 0.26318 -0.03172
 C2206 C 0.78638 0.26920 -0.04171
 H2207 H 0.79018 0.31843 -0.09233
 H2208 H 0.79950 0.32817 -0.11082
 H2209 H 0.82975 0.30034 -0.11006
 H2210 H 0.82046 0.29080 -0.09149
 H2211 H 0.80201 0.27851 -0.08550
 H2212 H 0.79218 0.26857 -0.06727
 H2213 H 0.78421 0.30564 -0.05181
 H2214 H 0.79403 0.31559 -0.07009
 H2215 H 0.76554 0.29358 -0.04627
 H2216 H 0.75492 0.28315 -0.02876
 H2217 H 0.78445 0.25464 -0.02784
 H2218 H 0.79520 0.26524 -0.04517
 C2219 C 0.80450 0.80402 0.40976
 C2220 C 0.81561 0.79895 0.40445
 C2221 C 0.82100 0.80446 0.39379
 C2222 C 0.81542 0.81519 0.38816
 C2223 C 0.80433 0.82029 0.39354
 C2224 C 0.79895 0.81477 0.40420
 C2225 C 0.79865 0.79803 0.42095
 C2226 C 0.79355 0.80553 0.43062
 C2227 C 0.78787 0.79986 0.44105
 C2228 C 0.78716 0.78656 0.44206
 C2229 C 0.79231 0.77906 0.43242
 C2230 C 0.79799 0.78473 0.42199
 C2231 C 0.78089 0.78049 0.45300
 C2232 C 0.78599 0.76941 0.45839
 C2233 C 0.77984 0.76342 0.46838
 C2234 C 0.76846 0.76838 0.47322
 C2235 C 0.76347 0.77958 0.46797
 C2236 C 0.76962 0.78556 0.45798
 H2237 H 0.82021 0.79077 0.40861
 H2238 H 0.82956 0.80025 0.39003
 H2239 H 0.79969 0.82850 0.38952
 H2240 H 0.79030 0.81881 0.40798
 H2241 H 0.79409 0.81580 0.43017
 H2242 H 0.78415 0.80589 0.44840
 H2243 H 0.79171 0.76880 0.43280
 H2244 H 0.80165 0.77869 0.41461
 H2245 H 0.79477 0.76538 0.45490
 H2246 H 0.78396 0.75484 0.47224
 H2247 H 0.75470 0.78362 0.47146
 H2248 H 0.76537 0.79400 0.45394
 C2249 C 0.69574 0.30368 0.59031
 C2250 C 0.68472 0.29853 0.59571
 C2251 C 0.67932 0.30403 0.60636
 C2252 C 0.68482 0.31483 0.61192
 C2253 C 0.69584 0.32000 0.60646
 C2254 C 0.70122 0.31449 0.59580
 C2255 C 0.70158 0.29772 0.57910
 C2256 C 0.70657 0.30525 0.56939
 C2257 C 0.71223 0.29962 0.55893
 C2258 C 0.71302 0.28632 0.55794
 C2259 C 0.70798 0.27879 0.56762
 C2260 C 0.70232 0.28443 0.57807
 C2261 C 0.71926 0.28029 0.54696
 C2262 C 0.71422 0.26918 0.54161
 C2263 C 0.72035 0.26323 0.53160
 C2264 C 0.73167 0.26825 0.52669
 C2265 C 0.73661 0.27948 0.53188
 C2266 C 0.73047 0.28543 0.54190
 H2267 H 0.68017 0.29030 0.59160
 H2268 H 0.67083 0.29976 0.61018
 H2269 H 0.70043 0.32826 0.61042
 H2270 H 0.70982 0.31859 0.59196
 H2271 H 0.70597 0.31552 0.56982
 H2272 H 0.71585 0.30567 0.55155
 H2273 H 0.70864 0.26853 0.56725
 H2274 H 0.69875 0.27837 0.58548
 H2275 H 0.70550 0.26509 0.54517
 H2276 H 0.71628 0.25461 0.52779
 H2277 H 0.74533 0.28358 0.52834
 H2278 H 0.73468 0.29389 0.54590
 C2279 C 0.69540 0.80381 1.09000
 C2280 C 0.70096 0.81458 1.09551
 C2281 C 0.69567 0.82003 1.10625
 C2282 C 0.68468 0.81486 1.11174
 C2283 C 0.67910 0.80412 1.10616
 C2284 C 0.68439 0.79867 1.09543
 C2285 C 0.70116 0.79786 1.07874
 C2286 C 0.70185 0.78456 1.07769
 C2287 C 0.70742 0.77892 1.06720
 C2288 C 0.71244 0.78645 1.05750
 C2289 C 0.71169 0.79975 1.05851
 C2290 C 0.70612 0.80539 1.06902
 C2291 C 0.71864 0.78041 1.04651
 C2292 C 0.72985 0.78552 1.04144
 C2293 C 0.73598 0.77953 1.03145
 C2294 C 0.73105 0.76828 1.02630
 C2295 C 0.71971 0.76329 1.03121
 C2296 C 0.71357 0.76929 1.04119
 H2297 H 0.70954 0.81867 1.09164
 H2298 H 0.70031 0.82825 1.11023
 H2299 H 0.67061 0.79986 1.11000
 H2300 H 0.67979 0.79048 1.09131
 H2301 H 0.69831 0.77850 1.08511
 H2302 H 0.70805 0.76866 1.06681
 H2303 H 0.71530 0.80580 1.05112
 H2304 H 0.70556 0.81565 1.06947
 H2305 H 0.73407 0.79399 1.04541
 H2306 H 0.74472 0.78360 1.02790
 H2307 H 0.71562 0.75467 1.02742
 H2308 H 0.70484 0.76523 1.04475
 C2309 C 0.19596 0.30429 1.09015
 C2310 C 0.20085 0.31556 1.09529
 C2311 C 0.19536 0.32093 1.10596
 C2312 C 0.18484 0.31517 1.11179
 C2313 C 0.17993 0.30392 1.10658
 C2314 C 0.18541 0.29856 1.09589
 C2315 C 0.20195 0.29847 1.07893
 C2316 C 0.19446 0.29313 1.06940
 C2317 C 0.20013 0.28753 1.05892
 C2318 C 0.21343 0.28712 1.05776
 C2319 C 0.22091 0.29251 1.06728
 C2320 C 0.21524 0.29812 1.07774
 C2321 C 0.21951 0.28093 1.04679
 C2322 C 0.23043 0.28621 1.04127
 C2323 C 0.23646 0.28011 1.03128
 C2324 C 0.23171 0.26859 1.02656
 C2325 C 0.22066 0.26343 1.03192
 C2326 C 0.21463 0.26952 1.04192
 H2327 H 0.20886 0.32030 1.09098
 H2328 H 0.19941 0.32962 1.10957
 H2329 H 0.17190 0.29913 1.11077
 H2330 H 0.18153 0.28978 1.09225
 H2331 H 0.18419 0.29342 1.06996
 H2332 H 0.19411 0.28363 1.05167
 H2333 H 0.23117 0.29216 1.06678
 H2334 H 0.22127 0.30197 1.08502
 H2335 H 0.23431 0.29509 1.04467
 H2336 H 0.24492 0.28438 1.02733
 H2337 H 0.21676 0.25456 1.02851
 H2338 H 0.20633 0.26513 1.04604
 C2339 C 0.19650 0.80426 0.59043
 C2340 C 0.20148 0.81542 0.59570
 C2341 C 0.19594 0.82081 0.60634
 C2342 C 0.18527 0.81517 0.61201
 C2343 C 0.18027 0.80401 0.60668
 C2344 C 0.18581 0.79864 0.59603
 C2345 C 0.20251 0.79843 0.57923
 C2346 C 0.21580 0.79790 0.57813
 C2347 C 0.22148 0.79223 0.56771
 C2348 C 0.21400 0.78697 0.55812
 C2349 C 0.20070 0.78757 0.55918
 C2350 C 0.19502 0.79323 0.56961
 C2351 C 0.22006 0.78071 0.54716
 C2352 C 0.21504 0.76940 0.54222
 C2353 C 0.22098 0.76329 0.53218
 C2354 C 0.23209 0.76836 0.52685
 C2355 C 0.23702 0.77976 0.53167
 C2356 C 0.23107 0.78587 0.54170
 H2357 H 0.20961 0.82008 0.59151
 H2358 H 0.20007 0.82942 0.61006
 H2359 H 0.17212 0.79931 0.61074
 H2360 H 0.18185 0.78994 0.59229
 H2361 H 0.22183 0.80164 0.58547
 H2362 H 0.23174 0.79173 0.56728
 H2363 H 0.19468 0.78378 0.55186
 H2364 H 0.18476 0.79368 0.57009
 H2365 H 0.20667 0.76510 0.54631
 H2366 H 0.21697 0.75450 0.52872
 H2367 H 0.24554 0.78394 0.52775
 H2368 H 0.23507 0.79467 0.54517
 C2369 C 0.30379 0.69613 0.59071
 C2370 C 0.29869 0.68508 0.59614
 C2371 C 0.30392 0.68002 0.60709
 C2372 C 0.31439 0.68585 0.61288
 C2373 C 0.31957 0.69683 0.60737
 C2374 C 0.31433 0.70192 0.59643
 C2375 C 0.29799 0.70173 0.57927
 C2376 C 0.30563 0.70691 0.56975
 C2377 C 0.30012 0.71240 0.55912
 C2378 C 0.28684 0.71282 0.55777
 C2379 C 0.27922 0.70756 0.56726
 C2380 C 0.28472 0.70208 0.57787
 C2381 C 0.28092 0.71895 0.54667
 C2382 C 0.27008 0.71363 0.54106
 C2383 C 0.26409 0.71974 0.53105
 C2384 C 0.26880 0.73132 0.52641
 C2385 C 0.27981 0.73650 0.53182
 C2386 C 0.28580 0.73038 0.54184
 H2387 H 0.29071 0.68028 0.59185
 H2388 H 0.29977 0.67146 0.61093
 H2389 H 0.32755 0.70168 0.61161
 H2390 H 0.31836 0.71054 0.59258
 H2391 H 0.31589 0.70661 0.57046
 H2392 H 0.30625 0.71622 0.55190
 H2393 H 0.26896 0.70793 0.56661
 H2394 H 0.27856 0.69837 0.58513
 H2395 H 0.26622 0.70472 0.54443
 H2396 H 0.25567 0.71545 0.52704
 H2397 H 0.28367 0.74541 0.52847
 H2398 H 0.29405 0.73479 0.54604
 C2399 C 0.30472 0.19589 1.08979
 C2400 C 0.29909 0.18522 1.09544
 C2401 C 0.30445 0.17974 1.10614
 C2402 C 0.31559 0.18479 1.11146
 C2403 C 0.32125 0.19541 1.10571
 C2404 C 0.31588 0.20088 1.09503
 C2405 C 0.29886 0.20190 1.07860
 C2406 C 0.29835 0.21520 1.07751
 C2407 C 0.29269 0.22089 1.06708
 C2408 C 0.28742 0.21342 1.05749
 C2409 C 0.28799 0.20012 1.05855
 C2410 C 0.29364 0.19442 1.06899
 C2411 C 0.28118 0.21953 1.04655
 C2412 C 0.26983 0.21457 1.04164
 C2413 C 0.26368 0.22061 1.03168
 C2414 C 0.26874 0.23176 1.02640
 C2415 C 0.28020 0.23660 1.03117
 C2416 C 0.28635 0.23055 1.04112
 H2417 H 0.29039 0.18124 1.09172
 H2418 H 0.29974 0.17162 1.11024
 H2419 H 0.32986 0.19956 1.10941
 H2420 H 0.32055 0.20899 1.09079
 H2421 H 0.30209 0.22122 1.08485
 H2422 H 0.29220 0.23116 1.06666
 H2423 H 0.28417 0.19410 1.05124
 H2424 H 0.29406 0.18415 1.06948
 H2425 H 0.26552 0.20618 1.04571
 H2426 H 0.25485 0.21665 1.02824
 H2427 H 0.28438 0.24514 1.02728
 H2428 H 0.29518 0.23449 1.04456
 C2429 C 0.80443 0.69638 1.08999
 C2430 C 0.79889 0.68562 1.09554
 C2431 C 0.80426 0.68012 1.10623
 C2432 C 0.81532 0.68525 1.11163
 C2433 C 0.82087 0.69599 1.10601
 C2434 C 0.81549 0.70149 1.09533
 C2435 C 0.79860 0.70234 1.07876
 C2436 C 0.79792 0.71564 1.07767
 C2437 C 0.79223 0.72126 1.06722
 C2438 C 0.78711 0.71373 1.05760
 C2439 C 0.78787 0.70044 1.05864
 C2440 C 0.79355 0.69481 1.06910
 C2441 C 0.78082 0.71975 1.04664
 C2442 C 0.76958 0.71462 1.04167
 C2443 C 0.76340 0.72056 1.03166
 C2444 C 0.76833 0.73177 1.02640
 C2445 C 0.77969 0.73679 1.03123
 C2446 C 0.78586 0.73084 1.04123
 H2447 H 0.79026 0.68156 1.09174
 H2448 H 0.79963 0.67191 1.11024
 H2449 H 0.82940 0.70023 1.10979
 H2450 H 0.82008 0.70968 1.09118
 H2451 H 0.80154 0.72170 1.08504
 H2452 H 0.79161 0.73153 1.06681
 H2453 H 0.78418 0.69438 1.05130
 H2454 H 0.79411 0.68454 1.06957
 H2455 H 0.76537 0.70618 1.04572
 H2456 H 0.75466 0.71647 1.02817
 H2457 H 0.78377 0.74538 1.02736
 H2458 H 0.79461 0.73492 1.04472
 C2459 C 0.80432 0.19669 0.59089
 C2460 C 0.79892 0.18582 0.59636
 C2461 C 0.80422 0.18045 0.60714
 C2462 C 0.81507 0.18581 0.61272
 C2463 C 0.82050 0.19665 0.60717
 C2464 C 0.81520 0.20202 0.59640
 C2465 C 0.79853 0.20258 0.57959
 C2466 C 0.79775 0.21586 0.57848
 C2467 C 0.79217 0.22143 0.56794
 C2468 C 0.78725 0.21384 0.55827
 C2469 C 0.78806 0.20055 0.55935
 C2470 C 0.79365 0.19498 0.56989
 C2471 C 0.78110 0.21981 0.54721
 C2472 C 0.76988 0.21471 0.54217
 C2473 C 0.76381 0.22064 0.53210
 C2474 C 0.76883 0.23181 0.52682
 C2475 C 0.78018 0.23678 0.53171
 C2476 C 0.78624 0.23085 0.54178
 H2477 H 0.79044 0.18158 0.59244
 H2478 H 0.79976 0.17209 0.61107
 H2479 H 0.82881 0.20113 0.61117
 H2480 H 0.81969 0.21030 0.59232
 H2481 H 0.80121 0.22198 0.58588
 H2482 H 0.79148 0.23169 0.56749
 H2483 H 0.78450 0.19446 0.55198
 H2484 H 0.79429 0.18472 0.57039
 H2485 H 0.76561 0.20630 0.54623
 H2486 H 0.75506 0.21658 0.52857
 H2487 H 0.78433 0.24534 0.52783
 H2488 H 0.79499 0.23490 0.54533
 C2489 C 0.69551 0.69614 0.40987
 C2490 C 0.70109 0.68540 0.40432
 C2491 C 0.69578 0.67993 0.39361
 C2492 C 0.68472 0.68505 0.38817
 C2493 C 0.67912 0.69577 0.39380
 C2494 C 0.68445 0.70123 0.40450
 C2495 C 0.70131 0.70211 0.42110
 C2496 C 0.70194 0.71541 0.42215
 C2497 C 0.70756 0.72106 0.43260
 C2498 C 0.71268 0.71356 0.44227
 C2499 C 0.71199 0.70025 0.44125
 C2500 C 0.70637 0.69460 0.43078
 C2501 C 0.71890 0.71962 0.45323
 C2502 C 0.73016 0.71455 0.45825
 C2503 C 0.73630 0.72055 0.46823
 C2504 C 0.73132 0.73177 0.47342
 C2505 C 0.71993 0.73671 0.46855
 C2506 C 0.71380 0.73070 0.45858
 H2507 H 0.70972 0.68134 0.40814
 H2508 H 0.70044 0.67174 0.38959
 H2509 H 0.67059 0.69999 0.39000
 H2510 H 0.67982 0.70940 0.40865
 H2511 H 0.69832 0.72146 0.41476
 H2512 H 0.70814 0.73133 0.43299
 H2513 H 0.71567 0.69421 0.44862
 H2514 H 0.70585 0.68433 0.43033
 H2515 H 0.73442 0.70610 0.45425
 H2516 H 0.74507 0.71651 0.47174
 H2517 H 0.71581 0.74531 0.47237
 H2518 H 0.70503 0.73474 0.45506
 C2519 C 0.69596 0.19570 -0.09035
 C2520 C 0.68481 0.20073 -0.09559
 C2521 C 0.67942 0.19526 -0.10626
 C2522 C 0.68505 0.18462 -0.11198
 C2523 C 0.69619 0.17955 -0.10667
 C2524 C 0.70157 0.18502 -0.09598
 C2525 C 0.70181 0.20166 -0.07914
 C2526 C 0.70696 0.19414 -0.06951
 C2527 C 0.71260 0.19979 -0.05905
 C2528 C 0.71322 0.21309 -0.05799
 C2529 C 0.70802 0.22060 -0.06760
 C2530 C 0.70238 0.21496 -0.07805
 C2531 C 0.71942 0.21915 -0.04701
 C2532 C 0.71424 0.23016 -0.04159
 C2533 C 0.72036 0.23618 -0.03162
 C2534 C 0.73180 0.23131 -0.02681
 C2535 C 0.73687 0.22016 -0.03207
 C2536 C 0.73074 0.21415 -0.04206
 H2537 H 0.68016 0.20885 -0.09136
 H2538 H 0.67081 0.19943 -0.10995
 H2539 H 0.70088 0.17141 -0.11076
 H2540 H 0.71026 0.18102 -0.09225
 H2541 H 0.70650 0.18387 -0.07000
 H2542 H 0.71636 0.19374 -0.05172
 H2543 H 0.70855 0.23087 -0.06718
 H2544 H 0.69869 0.22101 -0.08540
 H2545 H 0.70543 0.23413 -0.04507
 H2546 H 0.71618 0.24472 -0.02775
 H2547 H 0.74568 0.21618 -0.02861
 H2548 H 0.73505 0.20576 -0.04611
 C2549 C 0.19598 0.69598 -0.09045
 C2550 C 0.18482 0.70105 -0.09566
 C2551 C 0.17935 0.69556 -0.10628
 C2552 C 0.18491 0.68486 -0.11198
 C2553 C 0.19606 0.67978 -0.10670
 C2554 C 0.20151 0.68526 -0.09607
 C2555 C 0.20189 0.70193 -0.07927
 C2556 C 0.20702 0.69439 -0.06964
 C2557 C 0.21272 0.70003 -0.05921
 C2558 C 0.21342 0.71332 -0.05817
 C2559 C 0.20825 0.72085 -0.06779
 C2560 C 0.20255 0.71523 -0.07821
 C2561 C 0.21967 0.71935 -0.04721
 C2562 C 0.21453 0.73038 -0.04178
 C2563 C 0.22065 0.73634 -0.03177
 C2564 C 0.23206 0.73140 -0.02695
 C2565 C 0.23709 0.72025 -0.03224
 C2566 C 0.23096 0.71429 -0.04225
 H2567 H 0.18024 0.70920 -0.09144
 H2568 H 0.17075 0.69975 -0.10996
 H2569 H 0.20069 0.67160 -0.11078
 H2570 H 0.21021 0.68123 -0.09237
 H2571 H 0.20649 0.68413 -0.07011
 H2572 H 0.21645 0.69397 -0.05187
 H2573 H 0.20884 0.73112 -0.06738
 H2574 H 0.19887 0.72129 -0.08557
 H2575 H 0.20574 0.73440 -0.04525
 H2576 H 0.21650 0.74488 -0.02788
 H2577 H 0.24588 0.71622 -0.02877
 H2578 H 0.23524 0.70589 -0.04632
 C2579 C 0.19561 0.19628 0.40951
 C2580 C 0.18450 0.20134 0.40420
 C2581 C 0.17915 0.19587 0.39351
 C2582 C 0.18479 0.18519 0.38784
 C2583 C 0.19591 0.18013 0.39320
 C2584 C 0.20124 0.18560 0.40390
 C2585 C 0.20139 0.20221 0.42077
 C2586 C 0.20648 0.19465 0.43040
 C2587 C 0.21208 0.20025 0.44090
 C2588 C 0.21274 0.21355 0.44200
 C2589 C 0.20759 0.22110 0.43239
 C2590 C 0.20198 0.21550 0.42191
 C2591 C 0.21896 0.21954 0.45300
 C2592 C 0.21384 0.23057 0.45845
 C2593 C 0.21996 0.23650 0.46847
 C2594 C 0.23136 0.23154 0.47329
 C2595 C 0.23637 0.22039 0.46799
 C2596 C 0.23025 0.21446 0.45796
 H2597 H 0.17984 0.20946 0.40840
 H2598 H 0.17057 0.20004 0.38977
 H2599 H 0.20060 0.17198 0.38913
 H2600 H 0.20991 0.18159 0.40767
 H2601 H 0.20599 0.18438 0.42989
 H2602 H 0.21580 0.19417 0.44823
 H2603 H 0.20814 0.23137 0.43285
 H2604 H 0.19833 0.22159 0.41455
 H2605 H 0.20506 0.23461 0.45497
 H2606 H 0.21582 0.24505 0.47237
 H2607 H 0.24515 0.21634 0.47146
 H2608 H 0.23452 0.20606 0.45388
 C2609 C 0.30389 0.40899 0.69502
 C2610 C 0.31462 0.40320 0.70038
 C2611 C 0.32016 0.39254 0.69480
 C2612 C 0.31513 0.38740 0.68370
 C2613 C 0.30442 0.39326 0.67831
 C2614 C 0.29888 0.40391 0.68390
 C2615 C 0.29789 0.42021 0.70104
 C2616 C 0.28459 0.42130 0.70161
 C2617 C 0.27892 0.43180 0.70735
 C2618 C 0.28640 0.44147 0.71264
 C2619 C 0.29970 0.44039 0.71205
 C2620 C 0.30537 0.42988 0.70632
 C2621 C 0.28033 0.45256 0.71886
 C2622 C 0.28539 0.45757 0.72999
 C2623 C 0.27945 0.46774 0.73605
 C2624 C 0.26830 0.47312 0.73112
 C2625 C 0.26333 0.46824 0.71990
 C2626 C 0.26929 0.45809 0.71383
 H2627 H 0.31861 0.40679 0.70902
 H2628 H 0.32834 0.38833 0.69930
 H2629 H 0.30028 0.38969 0.66975
 H2630 H 0.29072 0.40826 0.67944
 H2631 H 0.27856 0.41392 0.69782
 H2632 H 0.26866 0.43222 0.70786
 H2633 H 0.30572 0.44776 0.71587
 H2634 H 0.31564 0.42940 0.70587
 H2635 H 0.29379 0.45343 0.73420
 H2636 H 0.28350 0.47124 0.74471
 H2637 H 0.25478 0.47219 0.71583
 H2638 H 0.26525 0.45458 0.70517
 C2639 C 0.30337 0.90908 0.19467
 C2640 C 0.29828 0.90383 0.18368
 C2641 C 0.30383 0.89314 0.17817
 C2642 C 0.31462 0.88741 0.18354
 C2643 C 0.31972 0.89272 0.19453
 C2644 C 0.31417 0.90342 0.20002
 C2645 C 0.29737 0.92034 0.20061
 C2646 C 0.30487 0.93010 0.20571
 C2647 C 0.29920 0.94060 0.21146
 C2648 C 0.28591 0.94158 0.21224
 C2649 C 0.27842 0.93184 0.20709
 C2650 C 0.28408 0.92135 0.20134
 C2651 C 0.27986 0.95259 0.21858
 C2652 C 0.26875 0.95810 0.21369
 C2653 C 0.26280 0.96817 0.21988
 C2654 C 0.26784 0.97297 0.23111
 C2655 C 0.27907 0.96760 0.23590
 C2656 C 0.28500 0.95752 0.22971
 H2657 H 0.29006 0.90808 0.17924
 H2658 H 0.29962 0.88943 0.16970
 H2659 H 0.32797 0.88861 0.19901
 H2660 H 0.31822 0.90714 0.20859
 H2661 H 0.31513 0.92969 0.20513
 H2662 H 0.30523 0.94803 0.21517
 H2663 H 0.26816 0.93220 0.20773
 H2664 H 0.27805 0.91390 0.19768
 H2665 H 0.26466 0.95464 0.20503
 H2666 H 0.25420 0.97212 0.21592
 H2667 H 0.28318 0.97106 0.24455
 H2668 H 0.29346 0.95339 0.23380
 C2669 C 0.80354 0.40916 0.19482
 C2670 C 0.79836 0.40387 0.18388
 C2671 C 0.80388 0.39318 0.17834
 C2672 C 0.81473 0.38748 0.18362
 C2673 C 0.81993 0.39283 0.19455
 C2674 C 0.81441 0.40353 0.20007
 C2675 C 0.79756 0.42041 0.20079
 C2676 C 0.80507 0.43020 0.20581
 C2677 C 0.79942 0.44071 0.21157
 C2678 C 0.78613 0.44165 0.21244
 C2679 C 0.77863 0.43188 0.20738
 C2680 C 0.78427 0.42138 0.20162
 C2681 C 0.78009 0.45268 0.21876
 C2682 C 0.76895 0.45815 0.21390
 C2683 C 0.76301 0.46823 0.22008
 C2684 C 0.76809 0.47309 0.23127
 C2685 C 0.77935 0.46777 0.23603
 C2686 C 0.78528 0.45768 0.22985
 H2687 H 0.79008 0.40809 0.17951
 H2688 H 0.79959 0.38945 0.16992
 H2689 H 0.82823 0.38875 0.19896
 H2690 H 0.81853 0.40728 0.20859
 H2691 H 0.81532 0.42981 0.20516
 H2692 H 0.80545 0.44816 0.21522
 H2693 H 0.76837 0.43221 0.20810
 H2694 H 0.77823 0.41390 0.19803
 H2695 H 0.76483 0.45464 0.20527
 H2696 H 0.75438 0.47215 0.21613
 H2697 H 0.78349 0.47127 0.24465
 H2698 H 0.79377 0.45358 0.23391
 C2699 C 0.80324 0.90891 0.69540
 C2700 C 0.79737 0.90298 0.68515
 C2701 C 0.80281 0.89223 0.67963
 C2702 C 0.81426 0.88715 0.68422
 C2703 C 0.82015 0.89316 0.69446
 C2704 C 0.81471 0.90389 0.69998
 C2705 C 0.79737 0.92022 0.70139
 C2706 C 0.79729 0.92148 0.71449
 C2707 C 0.79167 0.93204 0.72015
 C2708 C 0.78600 0.94161 0.71284
 C2709 C 0.78612 0.94037 0.69973
 C2710 C 0.79173 0.92979 0.69406
 C2711 C 0.77988 0.95274 0.71891
 C2712 C 0.76832 0.95758 0.71434
 C2713 C 0.76233 0.96775 0.72034
 C2714 C 0.76774 0.97329 0.73106
 C2715 C 0.77940 0.96859 0.73550
 C2716 C 0.78540 0.95844 0.72949
 H2717 H 0.78844 0.90651 0.68151
 H2718 H 0.79790 0.88787 0.67184
 H2719 H 0.82902 0.88966 0.69822
 H2720 H 0.81956 0.90836 0.70776
 H2721 H 0.80137 0.91417 0.72039
 H2722 H 0.79154 0.93260 0.73027
 H2723 H 0.78200 0.94767 0.69383
 H2724 H 0.79181 0.92918 0.68394
 H2725 H 0.76375 0.95331 0.70629
 H2726 H 0.75334 0.97113 0.71670
 H2727 H 0.78385 0.97267 0.74370
 H2728 H 0.79439 0.95506 0.73312
 C2729 C 0.69637 0.59064 0.69494
 C2730 C 0.70155 0.59597 0.68401
 C2731 C 0.69602 0.60669 0.67852
 C2732 C 0.68518 0.61236 0.68382
 C2733 C 0.67998 0.60696 0.69474
 C2734 C 0.68550 0.59623 0.70022
 C2735 C 0.70238 0.57938 0.70090
 C2736 C 0.69489 0.56956 0.70591
 C2737 C 0.70057 0.55905 0.71165
 C2738 C 0.71386 0.55813 0.71251
 C2739 C 0.72134 0.56794 0.70745
 C2740 C 0.71566 0.57843 0.70172
 C2741 C 0.71993 0.54711 0.71883
 C2742 C 0.73108 0.54167 0.71396
 C2743 C 0.73704 0.53160 0.72015
 C2744 C 0.73199 0.52674 0.73136
 C2745 C 0.72073 0.53204 0.73613
 C2746 C 0.71476 0.54211 0.72993
 H2747 H 0.70982 0.59178 0.67963
 H2748 H 0.70032 0.61047 0.67011
 H2749 H 0.67168 0.61101 0.69916
 H2750 H 0.68139 0.59244 0.70873
 H2751 H 0.68463 0.56993 0.70527
 H2752 H 0.69455 0.55156 0.71529
 H2753 H 0.73159 0.56762 0.70816
 H2754 H 0.72168 0.58594 0.69813
 H2755 H 0.73518 0.54518 0.70532
 H2756 H 0.74568 0.52770 0.71621
 H2757 H 0.71660 0.52853 0.74476
 H2758 H 0.70627 0.54619 0.73400
 C2759 C 0.69580 0.09057 0.19532
 C2760 C 0.68456 0.09590 0.20010
 C2761 C 0.67911 0.10657 0.19445
 C2762 C 0.68475 0.11220 0.18387
 C2763 C 0.69597 0.10680 0.17906
 C2764 C 0.70141 0.09612 0.18471
 C2765 C 0.70170 0.07936 0.20147
 C2766 C 0.70703 0.06952 0.19428
 C2767 C 0.71270 0.05904 0.20009
 C2768 C 0.71318 0.05817 0.21322
 C2769 C 0.70782 0.06800 0.22040
 C2770 C 0.70215 0.07847 0.21460
 C2771 C 0.71938 0.04716 0.21943
 C2772 C 0.71408 0.04176 0.23028
 C2773 C 0.72013 0.03168 0.23638
 C2774 C 0.73162 0.02676 0.23176
 C2775 C 0.73683 0.03203 0.22080
 C2776 C 0.73077 0.04212 0.21470
 H2777 H 0.67991 0.09173 0.20817
 H2778 H 0.67045 0.11033 0.19843
 H2779 H 0.70066 0.11083 0.17097
 H2780 H 0.71017 0.09234 0.18090
 H2781 H 0.70666 0.06984 0.18415
 H2782 H 0.71658 0.05154 0.19430
 H2783 H 0.70824 0.06773 0.23053
 H2784 H 0.69833 0.08599 0.22040
 H2785 H 0.70521 0.04531 0.23405
 H2786 H 0.71583 0.02781 0.24477
 H2787 H 0.74569 0.02848 0.21701
 H2788 H 0.73518 0.04616 0.20645
 C2789 C 0.19573 0.59090 0.19522
 C2790 C 0.18438 0.59610 0.19988
 C2791 C 0.17900 0.60685 0.19431
 C2792 C 0.18483 0.61269 0.18394
 C2793 C 0.19615 0.60741 0.17924
 C2794 C 0.20152 0.59665 0.18481
 C2795 C 0.20158 0.57962 0.20130
 C2796 C 0.20708 0.56992 0.19406
 C2797 C 0.21275 0.55940 0.19981
 C2798 C 0.21304 0.55836 0.21294
 C2799 C 0.20748 0.56804 0.22017
 C2800 C 0.20182 0.57854 0.21442
 C2801 C 0.21927 0.54732 0.21910
 C2802 C 0.21391 0.54176 0.22985
 C2803 C 0.22000 0.53168 0.23590
 C2804 C 0.23158 0.52691 0.23134
 C2805 C 0.23684 0.53233 0.22048
 C2806 C 0.23075 0.54242 0.21443
 H2807 H 0.17959 0.59177 0.20778
 H2808 H 0.17023 0.61051 0.19816
 H2809 H 0.20101 0.61162 0.17134
 H2810 H 0.21036 0.59297 0.18111
 H2811 H 0.20688 0.57039 0.18393
 H2812 H 0.21677 0.55202 0.19398
 H2813 H 0.20775 0.56763 0.23030
 H2814 H 0.19784 0.58594 0.22027
 H2815 H 0.20498 0.54519 0.23357
 H2816 H 0.21567 0.52769 0.24423
 H2817 H 0.24577 0.52890 0.21675
 H2818 H 0.23521 0.54659 0.20626
 C2819 C 0.19640 0.09088 0.69584
 C2820 C 0.20164 0.09620 0.68493
 C2821 C 0.19614 0.10689 0.67937
 C2822 C 0.18525 0.11257 0.68457
 C2823 C 0.17998 0.10719 0.69546
 C2824 C 0.18548 0.09648 0.70102
 C2825 C 0.20238 0.07964 0.70186
 C2826 C 0.19488 0.06983 0.70688
 C2827 C 0.20054 0.05930 0.71262
 C2828 C 0.21383 0.05836 0.71349
 C2829 C 0.22132 0.06816 0.70844
 C2830 C 0.21567 0.07867 0.70270
 C2831 C 0.21988 0.04728 0.71974
 C2832 C 0.23101 0.04185 0.71482
 C2833 C 0.23695 0.03171 0.72092
 C2834 C 0.23191 0.02676 0.73210
 C2835 C 0.22066 0.03206 0.73692
 C2836 C 0.21472 0.04220 0.73081
 H2837 H 0.20995 0.09200 0.68061
 H2838 H 0.20050 0.11066 0.67099
 H2839 H 0.17162 0.11122 0.69980
 H2840 H 0.18130 0.09271 0.70951
 H2841 H 0.18462 0.07020 0.70621
 H2842 H 0.19451 0.05183 0.71626
 H2843 H 0.23157 0.06782 0.70915
 H2844 H 0.22171 0.08616 0.69912
 H2845 H 0.23511 0.04542 0.70620
 H2846 H 0.24558 0.02783 0.71693
 H2847 H 0.21655 0.02849 0.74553
 H2848 H 0.20624 0.04627 0.73492
 C2849 C 0.30347 0.59120 0.30427
 C2850 C 0.29836 0.59642 0.31527
 C2851 C 0.30388 0.60710 0.32080
 C2852 C 0.31466 0.61286 0.31545
 C2853 C 0.31979 0.60758 0.30445
 C2854 C 0.31427 0.59688 0.29894
 C2855 C 0.29748 0.57995 0.29831
 C2856 C 0.30498 0.57019 0.29320
 C2857 C 0.29932 0.55966 0.28750
 C2858 C 0.28603 0.55867 0.28677
 C2859 C 0.27853 0.56841 0.29191
 C2860 C 0.28419 0.57892 0.29762
 C2861 C 0.27997 0.54761 0.28052
 C2862 C 0.26890 0.54212 0.28550
 C2863 C 0.26295 0.53200 0.27940
 C2864 C 0.26794 0.52713 0.26817
 C2865 C 0.27912 0.53250 0.26329
 C2866 C 0.28507 0.54262 0.26939
 H2867 H 0.29015 0.59216 0.31970
 H2868 H 0.29965 0.61078 0.32928
 H2869 H 0.32803 0.61171 0.29999
 H2870 H 0.31833 0.59318 0.29036
 H2871 H 0.31524 0.57061 0.29376
 H2872 H 0.30535 0.55222 0.28379
 H2873 H 0.26827 0.56804 0.29131
 H2874 H 0.27816 0.58638 0.30129
 H2875 H 0.26484 0.54562 0.29416
 H2876 H 0.25438 0.52805 0.28344
 H2877 H 0.28319 0.52899 0.25464
 H2878 H 0.29349 0.54674 0.26523
 C2879 C 0.30399 0.09038 0.80528
 C2880 C 0.31475 0.09606 0.79990
 C2881 C 0.32030 0.10677 0.80538
 C2882 C 0.31523 0.11205 0.81640
 C2883 C 0.30449 0.10628 0.82182
 C2884 C 0.29894 0.09560 0.81632
 C2885 C 0.29795 0.07915 0.79934
 C2886 C 0.28465 0.07817 0.79867
 C2887 C 0.27895 0.06769 0.79295
 C2888 C 0.28640 0.05793 0.78776
 C2889 C 0.29970 0.05888 0.78848
 C2890 C 0.30541 0.06937 0.79420
 C2891 C 0.28030 0.04693 0.78147
 C2892 C 0.28536 0.04198 0.77031
 C2893 C 0.27937 0.03191 0.76416
 C2894 C 0.26818 0.02656 0.76903
 C2895 C 0.26322 0.03138 0.78029
 C2896 C 0.26921 0.04144 0.78644
 H2897 H 0.31876 0.09237 0.79130
 H2898 H 0.32850 0.11091 0.80086
 H2899 H 0.30031 0.10996 0.83032
 H2900 H 0.29075 0.09133 0.82079
 H2901 H 0.27864 0.08563 0.80236
 H2902 H 0.26869 0.06736 0.79235
 H2903 H 0.30569 0.05144 0.78473
 H2904 H 0.31567 0.06976 0.79473
 H2905 H 0.29379 0.04610 0.76615
 H2906 H 0.28341 0.02845 0.75548
 H2907 H 0.25464 0.02744 0.78432
 H2908 H 0.26519 0.04491 0.79512
 C2909 C 0.80371 0.59072 0.80491
 C2910 C 0.79856 0.59600 0.81587
 C2911 C 0.80411 0.60668 0.82140
 C2912 C 0.81495 0.61236 0.81610
 C2913 C 0.82012 0.60700 0.80515
 C2914 C 0.81458 0.59632 0.79963
 C2915 C 0.79769 0.57950 0.79893
 C2916 C 0.80517 0.56968 0.79389
 C2917 C 0.79948 0.55919 0.78815
 C2918 C 0.78619 0.55829 0.78731
 C2919 C 0.77872 0.56809 0.79238
 C2920 C 0.78440 0.57857 0.79813
 C2921 C 0.78011 0.54727 0.78101
 C2922 C 0.76898 0.54183 0.78590
 C2923 C 0.76303 0.53175 0.77975
 C2924 C 0.76808 0.52686 0.76856
 C2925 C 0.77932 0.53217 0.76376
 C2926 C 0.78527 0.54226 0.76991
 H2927 H 0.79029 0.59180 0.82025
 H2928 H 0.79984 0.61041 0.82984
 H2929 H 0.82842 0.61106 0.80073
 H2930 H 0.81868 0.59257 0.79110
 H2931 H 0.81542 0.57003 0.79453
 H2932 H 0.80549 0.55171 0.78449
 H2933 H 0.76846 0.56779 0.79169
 H2934 H 0.77839 0.58607 0.80174
 H2935 H 0.76487 0.54536 0.79453
 H2936 H 0.75440 0.52784 0.78372
 H2937 H 0.78344 0.52865 0.75514
 H2938 H 0.79375 0.54634 0.76582
 C2939 C 0.80345 0.09062 0.30509
 C2940 C 0.81435 0.09616 0.29983
 C2941 C 0.81988 0.10689 0.30528
 C2942 C 0.81464 0.11236 0.31614
 C2943 C 0.80376 0.10674 0.32143
 C2944 C 0.79824 0.09602 0.31597
 C2945 C 0.79744 0.07935 0.29918
 C2946 C 0.78415 0.07843 0.29834
 C2947 C 0.77848 0.06793 0.29264
 C2948 C 0.78595 0.05809 0.28764
 C2949 C 0.79924 0.05897 0.28853
 C2950 C 0.80492 0.06949 0.29423
 C2951 C 0.77988 0.04706 0.28135
 C2952 C 0.78506 0.04203 0.27028
 C2953 C 0.77910 0.03196 0.26410
 C2954 C 0.76782 0.02670 0.26886
 C2955 C 0.76275 0.03159 0.28004
 C2956 C 0.76872 0.04166 0.28622
 H2957 H 0.81851 0.09231 0.29136
 H2958 H 0.82822 0.11089 0.30088
 H2959 H 0.79943 0.11057 0.32979
 H2960 H 0.78994 0.09186 0.32035
 H2961 H 0.77814 0.08597 0.30187
 H2962 H 0.76822 0.06764 0.29191
 H2963 H 0.80525 0.05146 0.28493
 H2964 H 0.81518 0.06983 0.29489
 H2965 H 0.79357 0.04608 0.26620
 H2966 H 0.78323 0.02844 0.25549
 H2967 H 0.75410 0.02772 0.28399
 H2968 H 0.76460 0.04520 0.29483
 C2969 C 0.69611 0.40939 0.30509
 C2970 C 0.70120 0.40414 0.31610
 C2971 C 0.69562 0.39349 0.32167
 C2972 C 0.68479 0.38780 0.31636
 C2973 C 0.67967 0.39312 0.30537
 C2974 C 0.68526 0.40378 0.29981
 C2975 C 0.70218 0.42058 0.29908
 C2976 C 0.69475 0.43039 0.29395
 C2977 C 0.70048 0.44085 0.28817
 C2978 C 0.71378 0.44173 0.28738
 C2979 C 0.72121 0.43194 0.29256
 C2980 C 0.71548 0.42149 0.29834
 C2981 C 0.71991 0.45270 0.28103
 C2982 C 0.73106 0.45812 0.28591
 C2983 C 0.73705 0.46817 0.27972
 C2984 C 0.73203 0.47304 0.26850
 C2985 C 0.72077 0.46775 0.26371
 C2986 C 0.71479 0.45770 0.26991
 H2987 H 0.70946 0.40834 0.32050
 H2988 H 0.69984 0.38979 0.33015
 H2989 H 0.67139 0.38905 0.30093
 H2990 H 0.68120 0.40751 0.29124
 H2991 H 0.68449 0.43006 0.29453
 H2992 H 0.69450 0.44832 0.28444
 H2993 H 0.73147 0.43222 0.29191
 H2994 H 0.72146 0.41400 0.30201
 H2995 H 0.73513 0.45462 0.29456
 H2996 H 0.74568 0.47206 0.28368
 H2997 H 0.71667 0.47126 0.25507
 H2998 H 0.70630 0.45363 0.26582
 C2999 C 0.69585 0.90982 0.80486
 C3000 C 0.68492 0.90427 0.79967
 C3001 C 0.67938 0.89360 0.80524
 C3002 C 0.68462 0.88822 0.81615
 C3003 C 0.69551 0.89386 0.82137
 C3004 C 0.70105 0.90452 0.81579
 C3005 C 0.70188 0.92100 0.79881
 C3006 C 0.71517 0.92184 0.79789
 C3007 C 0.72087 0.93227 0.79208
 C3008 C 0.71342 0.94212 0.78705
 C3009 C 0.70013 0.94131 0.78800
 C3010 C 0.69442 0.93087 0.79382
 C3011 C 0.71951 0.95309 0.78070
 C3012 C 0.71435 0.95810 0.76960
 C3013 C 0.72034 0.96813 0.76338
 C3014 C 0.73163 0.97339 0.76814
 C3015 C 0.73668 0.96850 0.77933
 C3016 C 0.73069 0.95847 0.78554
 H3017 H 0.68078 0.90804 0.79116
 H3018 H 0.67104 0.88957 0.80087
 H3019 H 0.69982 0.89012 0.82979
 H3020 H 0.70937 0.90869 0.82011
 H3021 H 0.72116 0.91430 0.80146
 H3022 H 0.73112 0.93251 0.79129
 H3023 H 0.69414 0.94883 0.78438
 H3024 H 0.68417 0.93058 0.79454
 H3025 H 0.70584 0.95406 0.76555
 H3026 H 0.71623 0.97165 0.75476
 H3027 H 0.74534 0.97237 0.78327
 H3028 H 0.73479 0.95495 0.79417
 C3029 C 0.19608 0.40977 0.80543
 C3030 C 0.18538 0.40406 0.79995
 C3031 C 0.17976 0.39338 0.80542
 C3032 C 0.18470 0.38814 0.81654
 C3033 C 0.19535 0.39395 0.82205
 C3034 C 0.20097 0.40461 0.81656
 C3035 C 0.20222 0.42096 0.79947
 C3036 C 0.21552 0.42188 0.79889
 C3037 C 0.22132 0.43227 0.79308
 C3038 C 0.21395 0.44200 0.78771
 C3039 C 0.20064 0.44113 0.78839
 C3040 C 0.19484 0.43073 0.79419
 C3041 C 0.22013 0.45286 0.78120
 C3042 C 0.21504 0.45767 0.76999
 C3043 C 0.22102 0.46764 0.76366
 C3044 C 0.23226 0.47302 0.76838
 C3045 C 0.23729 0.46830 0.77967
 C3046 C 0.23129 0.45834 0.78600
 H3047 H 0.18148 0.40772 0.79128
 H3048 H 0.17163 0.38920 0.80083
 H3049 H 0.19942 0.39033 0.83064
 H3050 H 0.20910 0.40891 0.82111
 H3051 H 0.22147 0.41442 0.80271
 H3052 H 0.23159 0.43254 0.79253
 H3053 H 0.19470 0.44857 0.78454
 H3054 H 0.18458 0.43039 0.79466
 H3055 H 0.20656 0.45355 0.76594
 H3056 H 0.21692 0.47101 0.75497
 H3057 H 0.24590 0.47227 0.78358
 H3058 H 0.23535 0.45497 0.79471
 C3059 C 0.19587 0.90942 0.30515
 C3060 C 0.20088 0.90428 0.31625
 C3061 C 0.19531 0.89363 0.32182
 C3062 C 0.18459 0.88783 0.31643
 C3063 C 0.17955 0.89304 0.30535
 C3064 C 0.18511 0.90371 0.29979
 C3065 C 0.20192 0.92061 0.29912
 C3066 C 0.19447 0.93034 0.29386
 C3067 C 0.20020 0.94078 0.28804
 C3068 C 0.21350 0.94172 0.28735
 C3069 C 0.22094 0.93202 0.29266
 C3070 C 0.21522 0.92159 0.29848
 C3071 C 0.21961 0.95268 0.28096
 C3072 C 0.23069 0.95819 0.28590
 C3073 C 0.23669 0.96821 0.27967
 C3074 C 0.23175 0.97297 0.26837
 C3075 C 0.22057 0.96759 0.26352
 C3076 C 0.21457 0.95755 0.26975
 H3077 H 0.20906 0.90858 0.32070
 H3078 H 0.19946 0.89002 0.33037
 H3079 H 0.17136 0.88887 0.30085
 H3080 H 0.18112 0.90734 0.29115
 H3081 H 0.18421 0.92995 0.29436
 H3082 H 0.19421 0.94819 0.28420
 H3083 H 0.23120 0.93235 0.29209
 H3084 H 0.22121 0.91416 0.30227
 H3085 H 0.23470 0.95479 0.29462
 H3086 H 0.24526 0.97218 0.28369
 H3087 H 0.21654 0.97100 0.25482
 H3088 H 0.20614 0.95342 0.26562
 C3089 C 0.40933 0.30414 0.69546
 C3090 C 0.40370 0.31510 0.70050
 C3091 C 0.39302 0.32054 0.69486
 C3092 C 0.38768 0.31515 0.68402
 C3093 C 0.39338 0.30420 0.67895
 C3094 C 0.40406 0.29877 0.68459
 C3095 C 0.42057 0.29826 0.70157
 C3096 C 0.43059 0.29332 0.69436
 C3097 C 0.44109 0.28767 0.70014
 C3098 C 0.44180 0.28683 0.71326
 C3099 C 0.43179 0.29180 0.72047
 C3100 C 0.42130 0.29745 0.71469
 C3101 C 0.45284 0.28064 0.71943
 C3102 C 0.45803 0.28575 0.73046
 C3103 C 0.46812 0.27968 0.73652
 C3104 C 0.47323 0.26835 0.73170
 C3105 C 0.46817 0.26334 0.72056
 C3106 C 0.45809 0.26942 0.71449
 H3107 H 0.40763 0.31958 0.70877
 H3108 H 0.38899 0.32896 0.69908
 H3109 H 0.38961 0.29972 0.67063
 H3110 H 0.40809 0.29023 0.68056
 H3111 H 0.43040 0.29398 0.68424
 H3112 H 0.44873 0.28409 0.69433
 H3113 H 0.43195 0.29110 0.73059
 H3114 H 0.41365 0.30096 0.72051
 H3115 H 0.45432 0.29447 0.73439
 H3116 H 0.47182 0.28380 0.74506
 H3117 H 0.47188 0.25462 0.71662
 H3118 H 0.45421 0.26517 0.70609
 C3119 C 0.40914 0.80452 0.19556
 C3120 C 0.40355 0.81554 0.20053
 C3121 C 0.39287 0.82095 0.19486
 C3122 C 0.38750 0.81548 0.18407
 C3123 C 0.39316 0.80448 0.17907
 C3124 C 0.40384 0.79907 0.18474
 C3125 C 0.42037 0.79865 0.20170
 C3126 C 0.43037 0.79365 0.19450
 C3127 C 0.44084 0.78797 0.20029
 C3128 C 0.44155 0.78717 0.21342
 C3129 C 0.43158 0.79222 0.22061
 C3130 C 0.42111 0.79789 0.21482
 C3131 C 0.45255 0.78092 0.21960
 C3132 C 0.45779 0.78603 0.23060
 C3133 C 0.46788 0.77994 0.23664
 C3134 C 0.47294 0.76859 0.23183
 C3135 C 0.46782 0.76357 0.22072
 C3136 C 0.45774 0.76968 0.21468
 H3137 H 0.40751 0.82006 0.20876
 H3138 H 0.38888 0.82943 0.19901
 H3139 H 0.38936 0.79994 0.17081
 H3140 H 0.40783 0.79049 0.18077
 H3141 H 0.43017 0.79426 0.18437
 H3142 H 0.44846 0.78433 0.19450
 H3143 H 0.43174 0.79156 0.23073
 H3144 H 0.41347 0.80147 0.22062
 H3145 H 0.45412 0.79478 0.23453
 H3146 H 0.47163 0.78408 0.24516
 H3147 H 0.47149 0.75483 0.21678
 H3148 H 0.45382 0.76542 0.20630
 C3149 C 0.90901 0.30424 0.19540
 C3150 C 0.90366 0.29884 0.18459
 C3151 C 0.89300 0.30430 0.17895
 C3152 C 0.88739 0.31532 0.18397
 C3153 C 0.89281 0.32075 0.19476
 C3154 C 0.90347 0.31528 0.20040
 C3155 C 0.92022 0.29832 0.20151
 C3156 C 0.92098 0.29754 0.21463
 C3157 C 0.93144 0.29183 0.22039
 C3158 C 0.94139 0.28676 0.21317
 C3159 C 0.94066 0.28759 0.20005
 C3160 C 0.93019 0.29330 0.19428
 C3161 C 0.95239 0.28050 0.21932
 C3162 C 0.95756 0.26925 0.21438
 C3163 C 0.96764 0.26313 0.22041
 C3164 C 0.97279 0.26813 0.23151
 C3165 C 0.96774 0.27948 0.23635
 C3166 C 0.95766 0.28559 0.23032
 H3167 H 0.90760 0.29023 0.18061
 H3168 H 0.88916 0.29978 0.17069
 H3169 H 0.88886 0.32924 0.19892
 H3170 H 0.90747 0.31977 0.20862
 H3171 H 0.91336 0.30112 0.22045
 H3172 H 0.93162 0.29114 0.23051
 H3173 H 0.94826 0.28394 0.19423
 H3174 H 0.92997 0.29393 0.18416
 H3175 H 0.95362 0.26501 0.20600
 H3176 H 0.97129 0.25439 0.21645
 H3177 H 0.97152 0.28361 0.24486
 H3178 H 0.95401 0.29435 0.23426
 C3179 C 0.90854 0.80396 0.69593
 C3180 C 0.90329 0.81527 0.70063
 C3181 C 0.89257 0.82068 0.69504
 C3182 C 0.88680 0.81491 0.68461
 C3183 C 0.89210 0.80360 0.67990
 C3184 C 0.90284 0.79821 0.68548
 C3185 C 0.91984 0.79812 0.70196
 C3186 C 0.92956 0.79271 0.69467
 C3187 C 0.94010 0.78705 0.70037
 C3188 C 0.94116 0.78666 0.71349
 C3189 C 0.93146 0.79212 0.72077
 C3190 C 0.92094 0.79779 0.71508
 C3191 C 0.95223 0.78044 0.71958
 C3192 C 0.95777 0.78574 0.73035
 C3193 C 0.96792 0.77968 0.73632
 C3194 C 0.97277 0.76817 0.73165
 C3195 C 0.96736 0.76296 0.72077
 C3196 C 0.95721 0.76902 0.71481
 H3197 H 0.90758 0.82003 0.70857
 H3198 H 0.88889 0.82943 0.69891
 H3199 H 0.88795 0.79879 0.67195
 H3200 H 0.90655 0.78939 0.68174
 H3201 H 0.92909 0.79299 0.68454
 H3202 H 0.94749 0.78310 0.69449
 H3203 H 0.93188 0.79178 0.73090
 H3204 H 0.91352 0.80169 0.72096
 H3205 H 0.95429 0.79462 0.73415
 H3206 H 0.97189 0.78397 0.74466
 H3207 H 0.97085 0.75409 0.71696
 H3208 H 0.95305 0.76461 0.70662
 C3209 C 0.59092 0.30400 0.30452
 C3210 C 0.59594 0.29902 0.31568
 C3211 C 0.60657 0.30455 0.32129
 C3212 C 0.61248 0.31521 0.31588
 C3213 C 0.60740 0.32022 0.30473
 C3214 C 0.59675 0.31469 0.29913
 C3215 C 0.57972 0.29798 0.29847
 C3216 C 0.57008 0.30546 0.29311
 C3217 C 0.55960 0.29976 0.28736
 C3218 C 0.55854 0.28645 0.28682
 C3219 C 0.56817 0.27898 0.29221
 C3220 C 0.57864 0.28468 0.29797
 C3221 C 0.54752 0.28035 0.28054
 C3222 C 0.54193 0.26937 0.28562
 C3223 C 0.53185 0.26337 0.27949
 C3224 C 0.52711 0.26823 0.26815
 C3225 C 0.53256 0.27934 0.26317
 C3226 C 0.54265 0.28532 0.26929
 H3227 H 0.59155 0.29090 0.32017
 H3228 H 0.61008 0.30043 0.32990
 H3229 H 0.61166 0.32836 0.30020
 H3230 H 0.59320 0.31866 0.29044
 H3231 H 0.57056 0.31573 0.29351
 H3232 H 0.55225 0.30578 0.28345
 H3233 H 0.56776 0.26871 0.29176
 H3234 H 0.58600 0.27865 0.30183
 H3235 H 0.54533 0.26541 0.29437
 H3236 H 0.52784 0.25487 0.28361
 H3237 H 0.52916 0.28331 0.25443
 H3238 H 0.54684 0.29368 0.26506
 C3239 C 0.59064 0.80453 0.80461
 C3240 C 0.59546 0.79984 0.81598
 C3241 C 0.60616 0.80535 0.82148
 C3242 C 0.61233 0.81569 0.81575
 C3243 C 0.60744 0.82042 0.80440
 C3244 C 0.59672 0.81491 0.79891
 C3245 C 0.57941 0.79849 0.79867
 C3246 C 0.56990 0.80594 0.79305
 C3247 C 0.55938 0.80021 0.78739
 C3248 C 0.55815 0.78690 0.78721
 C3249 C 0.56766 0.77947 0.79286
 C3250 C 0.57815 0.78519 0.79853
 C3251 C 0.54713 0.78076 0.78097
 C3252 C 0.54141 0.76992 0.78621
 C3253 C 0.53139 0.76383 0.78008
 C3254 C 0.52684 0.76846 0.76857
 C3255 C 0.53239 0.77943 0.76344
 C3256 C 0.54243 0.78551 0.76956
 H3257 H 0.59087 0.79198 0.82070
 H3258 H 0.60950 0.80149 0.83027
 H3259 H 0.61193 0.82830 0.79963
 H3260 H 0.59332 0.81864 0.79006
 H3261 H 0.57051 0.81621 0.79316
 H3262 H 0.55213 0.80620 0.78328
 H3263 H 0.56713 0.76920 0.79268
 H3264 H 0.58543 0.77919 0.80260
 H3265 H 0.54468 0.76615 0.79509
 H3266 H 0.52728 0.75544 0.78433
 H3267 H 0.52913 0.78322 0.75457
 H3268 H 0.54672 0.79374 0.76519
 C3269 C 0.09085 0.30434 0.80442
 C3270 C 0.09679 0.31493 0.79894
 C3271 C 0.10748 0.32041 0.80452
 C3272 C 0.11248 0.31544 0.81572
 C3273 C 0.10647 0.30488 0.82121
 C3274 C 0.09580 0.29940 0.81563
 C3275 C 0.07963 0.29837 0.79839
 C3276 C 0.07847 0.28508 0.79795
 C3277 C 0.06797 0.27943 0.79222
 C3278 C 0.05839 0.28694 0.78681
 C3279 C 0.05954 0.30024 0.78726
 C3280 C 0.07005 0.30589 0.79299
 C3281 C 0.04733 0.28087 0.78058
 C3282 C 0.04252 0.28575 0.76928
 C3283 C 0.03243 0.27974 0.76318
 C3284 C 0.02694 0.26871 0.76826
 C3285 C 0.03160 0.26396 0.77967
 C3286 C 0.04167 0.26998 0.78577
 H3287 H 0.09330 0.31885 0.79021
 H3288 H 0.11183 0.32846 0.79993
 H3289 H 0.10991 0.30081 0.82987
 H3290 H 0.09132 0.29136 0.82017
 H3291 H 0.08579 0.27903 0.80185
 H3292 H 0.06749 0.26916 0.79182
 H3293 H 0.05222 0.30628 0.78332
 H3294 H 0.07059 0.31616 0.79334
 H3295 H 0.04676 0.29405 0.76497
 H3296 H 0.02908 0.28362 0.75438
 H3297 H 0.02754 0.25551 0.78387
 H3298 H 0.04502 0.26611 0.79457
 C3299 C 0.09076 0.80401 0.30466
 C3300 C 0.09580 0.79902 0.31581
 C3301 C 0.10644 0.80454 0.32140
 C3302 C 0.11235 0.81520 0.31598
 C3303 C 0.10726 0.82022 0.30483
 C3304 C 0.09659 0.81469 0.29925
 C3305 C 0.07956 0.79801 0.29863
 C3306 C 0.06992 0.80551 0.29329
 C3307 C 0.05944 0.79983 0.28753
 C3308 C 0.05837 0.78653 0.28695
 C3309 C 0.06800 0.77904 0.29231
 C3310 C 0.07847 0.78471 0.29809
 C3311 C 0.04734 0.78045 0.28066
 C3312 C 0.04175 0.76946 0.28572
 C3313 C 0.03167 0.76349 0.27958
 C3314 C 0.02693 0.76838 0.26825
 C3315 C 0.03239 0.77949 0.26329
 C3316 C 0.04249 0.78545 0.26942
 H3317 H 0.09141 0.79090 0.32030
 H3318 H 0.10996 0.80042 0.33001
 H3319 H 0.11152 0.82835 0.30030
 H3320 H 0.09304 0.81866 0.29057
 H3321 H 0.07039 0.81578 0.29372
 H3322 H 0.05209 0.80586 0.28364
 H3323 H 0.06758 0.76877 0.29183
 H3324 H 0.08584 0.77867 0.30193
 H3325 H 0.04514 0.76549 0.29446
 H3326 H 0.02764 0.75498 0.28368
 H3327 H 0.02899 0.78348 0.25455
 H3328 H 0.04668 0.79381 0.26520
 C3329 C 0.59125 0.69607 0.69591
 C3330 C 0.59597 0.70080 0.68452
 C3331 C 0.60661 0.69529 0.67889
 C3332 C 0.61282 0.68491 0.68451
 C3333 C 0.60803 0.68014 0.69589
 C3334 C 0.59737 0.68565 0.70151
 C3335 C 0.58006 0.70207 0.70198
 C3336 C 0.57063 0.69458 0.70768
 C3337 C 0.56013 0.70027 0.71342
 C3338 C 0.55884 0.71356 0.71361
 C3339 C 0.56827 0.72104 0.70791
 C3340 C 0.57875 0.71536 0.70215
 C3341 C 0.54777 0.71965 0.71983
 C3342 C 0.54196 0.73042 0.71453
 C3343 C 0.53181 0.73639 0.72058
 C3344 C 0.52721 0.73171 0.73205
 C3345 C 0.53289 0.72083 0.73726
 C3346 C 0.54306 0.71488 0.73123
 H3347 H 0.59135 0.70870 0.67988
 H3348 H 0.60989 0.69921 0.67010
 H3349 H 0.61253 0.67223 0.70058
 H3350 H 0.59405 0.68189 0.71037
 H3351 H 0.57129 0.68431 0.70754
 H3352 H 0.55294 0.69423 0.71757
 H3353 H 0.56768 0.73131 0.70809
 H3354 H 0.58595 0.72139 0.69802
 H3355 H 0.54522 0.73422 0.70567
 H3356 H 0.52761 0.74472 0.71628
 H3357 H 0.52961 0.71702 0.74611
 H3358 H 0.54743 0.70670 0.73564
 C3359 C 0.59119 0.19638 0.19509
 C3360 C 0.59696 0.18567 0.20052
 C3361 C 0.60766 0.18013 0.19501
 C3362 C 0.61284 0.18515 0.18391
 C3363 C 0.60700 0.19585 0.17847
 C3364 C 0.59632 0.20139 0.18399
 C3365 C 0.57993 0.20238 0.20104
 C3366 C 0.57882 0.21567 0.20160
 C3367 C 0.56831 0.22133 0.20732
 C3368 C 0.55865 0.21383 0.21260
 C3369 C 0.55973 0.20053 0.21199
 C3370 C 0.57025 0.19487 0.20627
 C3371 C 0.54760 0.21989 0.21887
 C3372 C 0.54270 0.21484 0.23007
 C3373 C 0.53257 0.22078 0.23619
 C3374 C 0.52713 0.23191 0.23126
 C3375 C 0.53190 0.23685 0.21997
 C3376 C 0.54202 0.23091 0.21385
 H3377 H 0.59333 0.18170 0.20917
 H3378 H 0.61187 0.17197 0.19955
 H3379 H 0.61060 0.19999 0.16990
 H3380 H 0.59198 0.20953 0.17949
 H3381 H 0.58621 0.22172 0.19782
 H3382 H 0.56788 0.23160 0.20783
 H3383 H 0.55235 0.19449 0.21581
 H3384 H 0.57074 0.18460 0.20582
 H3385 H 0.54688 0.20645 0.23427
 H3386 H 0.52914 0.21675 0.24490
 H3387 H 0.52789 0.24539 0.21590
 H3388 H 0.54545 0.23492 0.20514
 C3389 C 0.09139 0.69692 0.19546
 C3390 C 0.09667 0.70211 0.18451
 C3391 C 0.10742 0.69665 0.17902
 C3392 C 0.11318 0.68585 0.18435
 C3393 C 0.10785 0.68065 0.19530
 C3394 C 0.09709 0.68611 0.20078
 C3395 C 0.08007 0.70283 0.20138
 C3396 C 0.07034 0.69526 0.20644
 C3397 C 0.05976 0.70085 0.21212
 C3398 C 0.05867 0.71415 0.21286
 C3399 C 0.06839 0.72171 0.20777
 C3400 C 0.07896 0.71612 0.20210
 C3401 C 0.04754 0.72013 0.21907
 C3402 C 0.04200 0.73118 0.21406
 C3403 C 0.03185 0.73710 0.22015
 C3404 C 0.02699 0.73210 0.23138
 C3405 C 0.03238 0.72093 0.23628
 C3406 C 0.04255 0.71501 0.23019
 H3407 H 0.09240 0.71033 0.18009
 H3408 H 0.11115 0.70096 0.17060
 H3409 H 0.11196 0.67238 0.19974
 H3410 H 0.09335 0.68198 0.20931
 H3411 H 0.07083 0.68500 0.20587
 H3412 H 0.05235 0.69477 0.21580
 H3413 H 0.06794 0.73197 0.20839
 H3414 H 0.08639 0.72221 0.19847
 H3415 H 0.04551 0.73525 0.20541
 H3416 H 0.02788 0.74566 0.21609
 H3417 H 0.02889 0.71685 0.24494
 H3418 H 0.04670 0.70660 0.23437
 C3419 C 0.09115 0.19637 0.69540
 C3420 C 0.09689 0.18565 0.70083
 C3421 C 0.10760 0.18010 0.69534
 C3422 C 0.11282 0.18513 0.68426
 C3423 C 0.10699 0.19582 0.67880
 C3424 C 0.09630 0.20137 0.68430
 C3425 C 0.07991 0.20241 0.70135
 C3426 C 0.07886 0.21572 0.70190
 C3427 C 0.06838 0.22142 0.70763
 C3428 C 0.05870 0.21396 0.71294
 C3429 C 0.05973 0.20065 0.71234
 C3430 C 0.07022 0.19494 0.70661
 C3431 C 0.04768 0.22006 0.71921
 C3432 C 0.04279 0.21507 0.73044
 C3433 C 0.03269 0.22105 0.73655
 C3434 C 0.02725 0.23216 0.73158
 C3435 C 0.03201 0.23705 0.72026
 C3436 C 0.04211 0.23107 0.71415
 H3437 H 0.09324 0.18167 0.70946
 H3438 H 0.11177 0.17192 0.69988
 H3439 H 0.11063 0.19998 0.67026
 H3440 H 0.09199 0.20952 0.67979
 H3441 H 0.08627 0.22173 0.69811
 H3442 H 0.06798 0.23169 0.70813
 H3443 H 0.05234 0.19465 0.71617
 H3444 H 0.07066 0.18467 0.70617
 H3445 H 0.04697 0.20669 0.73466
 H3446 H 0.02926 0.21706 0.74528
 H3447 H 0.02801 0.24557 0.71616
 H3448 H 0.04553 0.23504 0.70542
 C3449 C 0.40925 0.69576 0.30446
 C3450 C 0.40367 0.70136 0.31505
 C3451 C 0.39295 0.69594 0.32062
 C3452 C 0.38755 0.68475 0.31575
 C3453 C 0.39321 0.67913 0.30518
 C3454 C 0.40392 0.68457 0.29961
 C3455 C 0.42050 0.70166 0.29840
 C3456 C 0.42144 0.70220 0.28528
 C3457 C 0.43193 0.70789 0.27956
 C3458 C 0.44173 0.71317 0.28681
 C3459 C 0.44082 0.71258 0.29994
 C3460 C 0.43032 0.70689 0.30567
 C3461 C 0.45274 0.71943 0.28069
 C3462 C 0.45775 0.73080 0.28550
 C3463 C 0.46780 0.73694 0.27945
 C3464 C 0.47307 0.73184 0.26846
 C3465 C 0.46821 0.72036 0.26376
 C3466 C 0.45816 0.71422 0.26981
 H3467 H 0.40745 0.71009 0.31891
 H3468 H 0.38890 0.70062 0.32869
 H3469 H 0.38945 0.67049 0.30116
 H3470 H 0.40811 0.67993 0.29155
 H3471 H 0.41394 0.69844 0.27942
 H3472 H 0.43224 0.70839 0.26943
 H3473 H 0.44831 0.71640 0.30579
 H3474 H 0.42996 0.70645 0.31580
 H3475 H 0.45368 0.73513 0.29378
 H3476 H 0.47131 0.74579 0.28330
 H3477 H 0.47209 0.71614 0.25533
 H3478 H 0.45466 0.70537 0.26597
 C3479 C 0.40916 0.19586 0.80452
 C3480 C 0.40333 0.18519 0.79909
 C3481 C 0.39267 0.17965 0.80467
 C3482 C 0.38758 0.18462 0.81583
 C3483 C 0.39350 0.19526 0.82127
 C3484 C 0.40414 0.20080 0.81568
 C3485 C 0.42036 0.20189 0.79850
 C3486 C 0.42144 0.21520 0.79799
 C3487 C 0.43192 0.22090 0.79228
 C3488 C 0.44159 0.21345 0.78695
 C3489 C 0.44054 0.20014 0.78748
 C3490 C 0.43003 0.19443 0.79318
 C3491 C 0.45264 0.21956 0.78072
 C3492 C 0.45755 0.21463 0.76949
 C3493 C 0.46766 0.22064 0.76341
 C3494 C 0.47308 0.23173 0.76843
 C3495 C 0.46830 0.23655 0.77976
 C3496 C 0.45820 0.23053 0.78584
 H3497 H 0.40688 0.18126 0.79040
 H3498 H 0.38839 0.17153 0.80013
 H3499 H 0.38998 0.19935 0.82988
 H3500 H 0.40852 0.20891 0.82018
 H3501 H 0.41405 0.22121 0.80181
 H3502 H 0.43234 0.23118 0.79182
 H3503 H 0.44791 0.19413 0.78361
 H3504 H 0.42956 0.18415 0.79359
 H3505 H 0.45338 0.20628 0.76523
 H3506 H 0.47110 0.21670 0.75468
 H3507 H 0.47230 0.24504 0.78390
 H3508 H 0.45477 0.23445 0.79458
 C3509 C 0.90910 0.69559 0.80412
 C3510 C 0.90370 0.70108 0.81486
 C3511 C 0.89301 0.69566 0.82049
 C3512 C 0.88744 0.68460 0.81553
 C3513 C 0.89290 0.67910 0.80479
 C3514 C 0.90359 0.68453 0.79916
 C3515 C 0.92036 0.70144 0.79804
 C3516 C 0.92122 0.70214 0.78492
 C3517 C 0.93173 0.70780 0.77920
 C3518 C 0.94163 0.71290 0.78646
 C3519 C 0.94080 0.71215 0.79958
 C3520 C 0.93029 0.70649 0.80531
 C3521 C 0.95267 0.71912 0.78034
 C3522 C 0.95780 0.73040 0.78525
 C3523 C 0.96789 0.73650 0.77923
 C3524 C 0.97308 0.73146 0.76817
 C3525 C 0.96809 0.72007 0.76338
 C3526 C 0.95800 0.71398 0.76939
 H3527 H 0.90761 0.70970 0.81880
 H3528 H 0.88913 0.70024 0.82870
 H3529 H 0.88898 0.67058 0.80067
 H3530 H 0.90762 0.67998 0.79098
 H3531 H 0.91364 0.69853 0.77907
 H3532 H 0.93198 0.70842 0.76908
 H3533 H 0.94836 0.71583 0.80542
 H3534 H 0.93000 0.70592 0.81543
 H3535 H 0.95381 0.73468 0.79359
 H3536 H 0.97150 0.74527 0.78315
 H3537 H 0.97190 0.71591 0.75490
 H3538 H 0.95439 0.70520 0.76548
 C3539 C 0.90898 0.19542 0.30402
 C3540 C 0.90352 0.20099 0.31468
 C3541 C 0.89280 0.19562 0.32030
 C3542 C 0.88726 0.18452 0.31539
 C3543 C 0.89279 0.17892 0.30474
 C3544 C 0.90351 0.18431 0.29912
 C3545 C 0.92027 0.20123 0.29795
 C3546 C 0.92118 0.20185 0.28483
 C3547 C 0.93169 0.20749 0.27911
 C3548 C 0.94156 0.21265 0.28637
 C3549 C 0.94069 0.21198 0.29949
 C3550 C 0.93016 0.20634 0.30522
 C3551 C 0.95259 0.21889 0.28026
 C3552 C 0.95766 0.23021 0.28513
 C3553 C 0.96773 0.23634 0.27909
 C3554 C 0.97295 0.23128 0.26805
 C3555 C 0.96803 0.21985 0.26330
 C3556 C 0.95796 0.21372 0.26933
 H3557 H 0.90741 0.20965 0.31858
 H3558 H 0.88886 0.20028 0.32844
 H3559 H 0.88891 0.17036 0.30068
 H3560 H 0.90760 0.17969 0.29101
 H3561 H 0.91362 0.19819 0.27898
 H3562 H 0.93197 0.20806 0.26898
 H3563 H 0.94821 0.21571 0.30534
 H3564 H 0.92983 0.20584 0.31534
 H3565 H 0.95364 0.23451 0.29345
 H3566 H 0.97129 0.24515 0.28298
 H3567 H 0.97186 0.21567 0.25484
 H3568 H 0.95440 0.20492 0.26546
 C3569 C 0.30433 0.30342 0.59031
 C3570 C 0.29881 0.31420 0.59583
 C3571 C 0.30419 0.31971 0.60649
 C3572 C 0.31526 0.31459 0.61190
 C3573 C 0.32080 0.30382 0.60631
 C3574 C 0.31540 0.29831 0.59566
 C3575 C 0.29851 0.29745 0.57908
 C3576 C 0.29785 0.28416 0.57802
 C3577 C 0.29224 0.27852 0.56754
 C3578 C 0.28716 0.28605 0.55788
 C3579 C 0.28787 0.29935 0.55891
 C3580 C 0.29348 0.30498 0.56939
 C3581 C 0.28095 0.28002 0.54689
 C3582 C 0.26970 0.28511 0.54187
 C3583 C 0.26358 0.27915 0.53185
 C3584 C 0.26857 0.26795 0.52663
 C3585 C 0.27993 0.26298 0.53150
 C3586 C 0.28605 0.26894 0.54151
 H3587 H 0.29018 0.31826 0.59202
 H3588 H 0.29957 0.32794 0.61048
 H3589 H 0.32933 0.29958 0.61009
 H3590 H 0.31998 0.29010 0.59153
 H3591 H 0.30146 0.27810 0.58541
 H3592 H 0.29164 0.26826 0.56714
 H3593 H 0.28420 0.30540 0.55154
 H3594 H 0.29402 0.31525 0.56985
 H3595 H 0.26544 0.29355 0.54589
 H3596 H 0.25482 0.28321 0.52834
 H3597 H 0.28406 0.25439 0.52766
 H3598 H 0.29481 0.26489 0.54504
 C3599 C 0.30457 0.80358 0.09007
 C3600 C 0.29904 0.81437 0.09554
 C3601 C 0.30438 0.81990 0.10621
 C3602 C 0.31541 0.81477 0.11168
 C3603 C 0.32096 0.80398 0.10614
 C3604 C 0.31561 0.79846 0.09548
 C3605 C 0.29879 0.79759 0.07885
 C3606 C 0.29810 0.78429 0.07783
 C3607 C 0.29252 0.77864 0.06736
 C3608 C 0.28750 0.78614 0.05765
 C3609 C 0.28823 0.79944 0.05864
 C3610 C 0.29381 0.80510 0.06912
 C3611 C 0.28134 0.78009 0.04666
 C3612 C 0.27012 0.78517 0.04157
 C3613 C 0.26404 0.77917 0.03156
 C3614 C 0.26905 0.76795 0.02639
 C3615 C 0.28040 0.76299 0.03133
 C3616 C 0.28647 0.76900 0.04134
 H3617 H 0.29043 0.81844 0.09169
 H3618 H 0.29976 0.82815 0.11015
 H3619 H 0.32947 0.79974 0.10997
 H3620 H 0.32020 0.79024 0.09139
 H3621 H 0.30166 0.77825 0.08526
 H3622 H 0.29190 0.76837 0.06699
 H3623 H 0.28460 0.80548 0.05124
 H3624 H 0.29436 0.81537 0.06955
 H3625 H 0.26585 0.79362 0.04555
 H3626 H 0.25530 0.78322 0.02799
 H3627 H 0.28453 0.75439 0.02754
 H3628 H 0.29521 0.76496 0.04492
 C3629 C 0.80434 0.30366 0.09011
 C3630 C 0.81546 0.29862 0.09542
 C3631 C 0.82084 0.30413 0.10608
 C3632 C 0.81522 0.31484 0.11171
 C3633 C 0.80410 0.31989 0.10635
 C3634 C 0.79874 0.31437 0.09568
 C3635 C 0.79855 0.29769 0.07888
 C3636 C 0.79346 0.30522 0.06923
 C3637 C 0.78787 0.29958 0.05873
 C3638 C 0.78725 0.28628 0.05767
 C3639 C 0.79239 0.27876 0.06731
 C3640 C 0.79798 0.28440 0.07779
 C3641 C 0.78110 0.28023 0.04666
 C3642 C 0.78629 0.26921 0.04126
 C3643 C 0.78022 0.26321 0.03125
 C3644 C 0.76881 0.26810 0.02639
 C3645 C 0.76373 0.27925 0.03163
 C3646 C 0.76981 0.28525 0.04165
 H3647 H 0.82011 0.29047 0.09125
 H3648 H 0.82941 0.29996 0.10982
 H3649 H 0.79942 0.32807 0.11037
 H3650 H 0.79006 0.31837 0.09191
 H3651 H 0.79392 0.31549 0.06971
 H3652 H 0.78416 0.30563 0.05139
 H3653 H 0.79187 0.26849 0.06688
 H3654 H 0.80163 0.27834 0.08516
 H3655 H 0.79508 0.26522 0.04478
 H3656 H 0.78440 0.25466 0.02740
 H3657 H 0.75494 0.28324 0.02813
 H3658 H 0.76549 0.29364 0.04569
 C3659 C 0.80470 0.80437 0.58974
 C3660 C 0.79913 0.81510 0.59531
 C3661 C 0.80448 0.82058 0.60599
 C3662 C 0.81556 0.81547 0.61139
 C3663 C 0.82118 0.80478 0.60573
 C3664 C 0.81581 0.79930 0.59505
 C3665 C 0.79885 0.79837 0.57855
 C3666 C 0.79825 0.78507 0.57751
 C3667 C 0.79257 0.77940 0.56709
 C3668 C 0.78736 0.78689 0.55746
 C3669 C 0.78803 0.80019 0.55847
 C3670 C 0.79371 0.80587 0.56889
 C3671 C 0.78108 0.78080 0.54654
 C3672 C 0.76978 0.78584 0.54159
 C3673 C 0.76359 0.77980 0.53165
 C3674 C 0.76858 0.76859 0.52644
 C3675 C 0.78000 0.76369 0.53125
 C3676 C 0.78618 0.76973 0.54117
 H3677 H 0.79047 0.81913 0.59153
 H3678 H 0.79981 0.82876 0.61003
 H3679 H 0.82973 0.80057 0.60950
 H3680 H 0.82043 0.79114 0.59089
 H3681 H 0.80194 0.77904 0.58488
 H3682 H 0.79201 0.76913 0.56672
 H3683 H 0.78427 0.80622 0.55112
 H3684 H 0.79420 0.81614 0.56934
 H3685 H 0.76553 0.79428 0.54560
 H3686 H 0.75479 0.78382 0.52818
 H3687 H 0.78412 0.75510 0.52742
 H3688 H 0.79498 0.76572 0.54464
 C3689 C 0.30416 0.69552 0.40972
 C3690 C 0.31487 0.70110 0.40412
 C3691 C 0.32037 0.69570 0.39345
 C3692 C 0.31530 0.68457 0.38813
 C3693 C 0.30463 0.67896 0.39383
 C3694 C 0.29913 0.68437 0.40448
 C3695 C 0.29815 0.70140 0.42090
 C3696 C 0.28486 0.70200 0.42195
 C3697 C 0.27918 0.70766 0.43237
 C3698 C 0.28665 0.71285 0.44200
 C3699 C 0.29995 0.71220 0.44099
 C3700 C 0.30564 0.70654 0.43055
 C3701 C 0.28056 0.71910 0.45295
 C3702 C 0.28557 0.73040 0.45790
 C3703 C 0.27956 0.73653 0.46790
 C3704 C 0.26841 0.73149 0.47316
 C3705 C 0.26351 0.72008 0.46833
 C3706 C 0.26952 0.71395 0.45834
 H3707 H 0.31887 0.70978 0.40785
 H3708 H 0.32853 0.70036 0.38938
 H3709 H 0.30046 0.67036 0.39013
 H3710 H 0.29100 0.67975 0.40869
 H3711 H 0.27884 0.69832 0.41458
 H3712 H 0.26892 0.70822 0.43276
 H3713 H 0.30596 0.71595 0.44833
 H3714 H 0.31590 0.70605 0.43010
 H3715 H 0.29397 0.73469 0.45386
 H3716 H 0.28357 0.74533 0.47137
 H3717 H 0.25496 0.71592 0.47219
 H3718 H 0.26553 0.70516 0.45486
 C3719 C 0.30417 0.19635 0.90937
 C3720 C 0.31540 0.20128 0.90419
 C3721 C 0.32083 0.19573 0.89357
 C3722 C 0.31516 0.18511 0.88785
 C3723 C 0.30393 0.18017 0.89308
 C3724 C 0.29851 0.18572 0.90371
 C3725 C 0.29832 0.20233 0.92057
 C3726 C 0.29307 0.19482 0.93016
 C3727 C 0.28745 0.20048 0.94063
 C3728 C 0.28694 0.21378 0.94175
 C3729 C 0.29223 0.22128 0.93218
 C3730 C 0.29786 0.21563 0.92172
 C3731 C 0.28075 0.21984 0.95274
 C3732 C 0.28599 0.23079 0.95822
 C3733 C 0.27993 0.23677 0.96826
 C3734 C 0.26849 0.23192 0.97308
 C3735 C 0.26335 0.22085 0.96774
 C3736 C 0.26941 0.21488 0.95769
 H3737 H 0.32008 0.20936 0.90843
 H3738 H 0.32950 0.19980 0.88994
 H3739 H 0.29921 0.17207 0.88897
 H3740 H 0.28976 0.18180 0.90738
 H3741 H 0.29345 0.18455 0.92963
 H3742 H 0.28363 0.19443 0.94792
 H3743 H 0.29179 0.23155 0.93265
 H3744 H 0.30164 0.22168 0.91441
 H3745 H 0.29482 0.23473 0.95475
 H3746 H 0.28416 0.24525 0.97218
 H3747 H 0.25453 0.21689 0.97120
 H3748 H 0.26505 0.20654 0.95359
 C3749 C 0.80429 0.69622 0.90950
 C3750 C 0.81534 0.70136 0.90413
 C3751 C 0.82077 0.69584 0.89350
 C3752 C 0.81529 0.68503 0.88795
 C3753 C 0.80425 0.67988 0.89337
 C3754 C 0.79883 0.68540 0.90401
 C3755 C 0.79842 0.70220 0.92069
 C3756 C 0.79343 0.69468 0.93041
 C3757 C 0.78776 0.70033 0.94086
 C3758 C 0.78695 0.71363 0.94182
 C3759 C 0.79198 0.72114 0.93212
 C3760 C 0.79765 0.71550 0.92169
 C3761 C 0.78071 0.71967 0.95279
 C3762 C 0.78576 0.73078 0.95813
 C3763 C 0.77964 0.73674 0.96815
 C3764 C 0.76831 0.73173 0.97306
 C3765 C 0.76337 0.72050 0.96787
 C3766 C 0.76950 0.71454 0.95785
 H3767 H 0.81987 0.70960 0.90824
 H3768 H 0.82928 0.70010 0.88970
 H3769 H 0.79968 0.67161 0.88941
 H3770 H 0.79022 0.68131 0.90783
 H3771 H 0.79405 0.68442 0.93000
 H3772 H 0.78414 0.69429 0.94826
 H3773 H 0.79130 0.73141 0.93248
 H3774 H 0.80121 0.72154 0.91427
 H3775 H 0.79449 0.73486 0.95458
 H3776 H 0.78372 0.74535 0.97196
 H3777 H 0.75464 0.71641 0.97141
 H3778 H 0.76528 0.70608 0.95386
 C3779 C 0.80477 0.19607 0.40985
 C3780 C 0.81581 0.20116 0.40443
 C3781 C 0.82112 0.19566 0.39373
 C3782 C 0.81552 0.18493 0.38816
 C3783 C 0.80449 0.17981 0.39364
 C3784 C 0.79919 0.18531 0.40436
 C3785 C 0.79900 0.20207 0.42109
 C3786 C 0.79399 0.19456 0.43081
 C3787 C 0.78837 0.20023 0.44128
 C3788 C 0.78763 0.21353 0.44227
 C3789 C 0.79270 0.22103 0.43259
 C3790 C 0.79832 0.21537 0.42213
 C3791 C 0.78139 0.21958 0.45324
 C3792 C 0.78646 0.23068 0.45858
 C3793 C 0.78031 0.23667 0.46857
 C3794 C 0.76895 0.23170 0.47345
 C3795 C 0.76400 0.22048 0.46825
 C3796 C 0.77014 0.21449 0.45826
 H3797 H 0.82043 0.20935 0.40854
 H3798 H 0.82963 0.19988 0.38990
 H3799 H 0.79983 0.17160 0.38967
 H3800 H 0.79058 0.18127 0.40821
 H3801 H 0.79454 0.18429 0.43038
 H3802 H 0.78472 0.19419 0.44867
 H3803 H 0.79209 0.23129 0.43296
 H3804 H 0.80191 0.22141 0.41472
 H3805 H 0.79521 0.23473 0.45505
 H3806 H 0.78441 0.24527 0.47239
 H3807 H 0.75525 0.21642 0.47177
 H3808 H 0.76591 0.20604 0.45426
 C3809 C 0.69578 0.30364 0.40963
 C3810 C 0.68471 0.29853 0.40430
 C3811 C 0.67929 0.30405 0.39365
 C3812 C 0.68481 0.31482 0.38803
 C3813 C 0.69588 0.31994 0.39342
 C3814 C 0.70129 0.31442 0.40408
 C3815 C 0.70163 0.29767 0.42085
 C3816 C 0.70667 0.30520 0.43052
 C3817 C 0.71233 0.29956 0.44099
 C3818 C 0.71308 0.28626 0.44203
 C3819 C 0.70799 0.27874 0.43238
 C3820 C 0.70233 0.28438 0.42192
 C3821 C 0.71931 0.28023 0.45302
 C3822 C 0.71423 0.26915 0.45842
 C3823 C 0.72035 0.26320 0.46845
 C3824 C 0.73171 0.26819 0.47332
 C3825 C 0.73667 0.27939 0.46807
 C3826 C 0.73055 0.28534 0.45803
 H3827 H 0.68014 0.29033 0.40845
 H3828 H 0.67075 0.29982 0.38988
 H3829 H 0.70048 0.32817 0.38941
 H3830 H 0.70992 0.31849 0.40787
 H3831 H 0.70611 0.31546 0.43006
 H3832 H 0.71599 0.30561 0.44835
 H3833 H 0.70861 0.26847 0.43279
 H3834 H 0.69872 0.27832 0.41454
 H3835 H 0.70549 0.26509 0.45489
 H3836 H 0.71625 0.25462 0.47231
 H3837 H 0.74542 0.28346 0.47158
 H3838 H 0.73479 0.29377 0.45399
 C3839 C 0.69537 0.80377 0.90935
 C3840 C 0.68430 0.79873 0.90396
 C3841 C 0.67900 0.80427 0.89327
 C3842 C 0.68464 0.81499 0.88768
 C3843 C 0.69571 0.82004 0.89313
 C3844 C 0.70100 0.81450 0.90384
 C3845 C 0.70109 0.79776 0.92062
 C3846 C 0.70606 0.80527 0.93033
 C3847 C 0.71162 0.79959 0.94083
 C3848 C 0.71234 0.78629 0.94185
 C3849 C 0.70729 0.77880 0.93216
 C3850 C 0.70172 0.78446 0.92168
 C3851 C 0.71857 0.78024 0.95282
 C3852 C 0.71351 0.76914 0.95819
 C3853 C 0.71966 0.76316 0.96818
 C3854 C 0.73101 0.76814 0.97305
 C3855 C 0.73596 0.77936 0.96782
 C3856 C 0.72981 0.78534 0.95782
 H3857 H 0.67965 0.79056 0.90809
 H3858 H 0.67046 0.80010 0.88946
 H3859 H 0.70041 0.82823 0.88914
 H3860 H 0.70963 0.81850 0.90768
 H3861 H 0.70553 0.81553 0.92988
 H3862 H 0.71525 0.80563 0.94822
 H3863 H 0.70789 0.76853 0.93256
 H3864 H 0.69815 0.77843 0.91426
 H3865 H 0.70476 0.76508 0.95466
 H3866 H 0.71556 0.75456 0.97203
 H3867 H 0.74471 0.78343 0.97133
 H3868 H 0.73404 0.79379 0.95380
 C3869 C 0.19567 0.30384 0.90952
 C3870 C 0.18456 0.29877 0.90425
 C3871 C 0.17916 0.30425 0.89357
 C3872 C 0.18475 0.31494 0.88788
 C3873 C 0.19587 0.32001 0.89321
 C3874 C 0.20125 0.31454 0.90389
 C3875 C 0.20151 0.29792 0.92076
 C3876 C 0.20657 0.30550 0.93039
 C3877 C 0.21222 0.29990 0.94088
 C3878 C 0.21293 0.28661 0.94199
 C3879 C 0.20782 0.27904 0.93238
 C3880 C 0.20217 0.28464 0.92190
 C3881 C 0.21914 0.28061 0.95300
 C3882 C 0.21399 0.26961 0.95846
 C3883 C 0.22011 0.26364 0.96848
 C3884 C 0.23152 0.26856 0.97328
 C3885 C 0.23655 0.27971 0.96798
 C3886 C 0.23042 0.28567 0.95795
 H3887 H 0.17994 0.29062 0.90846
 H3888 H 0.17058 0.30006 0.88986
 H3889 H 0.20053 0.32818 0.88913
 H3890 H 0.20992 0.31856 0.90763
 H3891 H 0.20603 0.31576 0.92987
 H3892 H 0.21591 0.30598 0.94820
 H3893 H 0.20842 0.26878 0.93285
 H3894 H 0.19854 0.27855 0.91455
 H3895 H 0.20520 0.26559 0.95499
 H3896 H 0.21595 0.25510 0.97238
 H3897 H 0.24534 0.28372 0.97144
 H3898 H 0.23470 0.29406 0.95387
 C3899 C 0.19577 0.80367 0.40961
 C3900 C 0.18449 0.79877 0.40452
 C3901 C 0.17907 0.80425 0.39385
 C3902 C 0.18480 0.81477 0.38799
 C3903 C 0.19609 0.81966 0.39312
 C3904 C 0.20150 0.81419 0.40380
 C3905 C 0.20160 0.79776 0.42086
 C3906 C 0.20697 0.80533 0.43032
 C3907 C 0.21260 0.79974 0.44083
 C3908 C 0.21300 0.78645 0.44212
 C3909 C 0.20758 0.77888 0.43268
 C3910 C 0.20194 0.78447 0.42218
 C3911 C 0.21921 0.78046 0.45314
 C3912 C 0.21392 0.76959 0.45877
 C3913 C 0.22004 0.76363 0.46879
 C3914 C 0.23158 0.76840 0.47344
 C3915 C 0.23674 0.77941 0.46799
 C3916 C 0.23062 0.78537 0.45795
 H3917 H 0.17975 0.79078 0.40887
 H3918 H 0.17035 0.80022 0.39028
 H3919 H 0.20087 0.82768 0.38890
 H3920 H 0.21029 0.81807 0.40740
 H3921 H 0.20669 0.81560 0.42967
 H3922 H 0.21653 0.80583 0.44803
 H3923 H 0.20793 0.76862 0.43327
 H3924 H 0.19807 0.77838 0.41496
 H3925 H 0.20504 0.76569 0.45542
 H3926 H 0.21578 0.75519 0.47281
 H3927 H 0.24563 0.78331 0.47133
 H3928 H 0.23501 0.79364 0.45374
 C3929 C 0.69566 0.69637 0.59040
 C3930 C 0.70124 0.68563 0.59595
 C3931 C 0.69589 0.68012 0.60664
 C3932 C 0.68480 0.68520 0.61204
 C3933 C 0.67920 0.69592 0.60640
 C3934 C 0.68456 0.70143 0.59573
 C3935 C 0.70147 0.70235 0.57917
 C3936 C 0.70211 0.71565 0.57810
 C3937 C 0.70774 0.72130 0.56764
 C3938 C 0.71285 0.71380 0.55799
 C3939 C 0.71215 0.70050 0.55902
 C3940 C 0.70652 0.69484 0.56949
 C3941 C 0.71907 0.71985 0.54701
 C3942 C 0.73033 0.71478 0.54200
 C3943 C 0.73644 0.72076 0.53198
 C3944 C 0.73143 0.73195 0.52673
 C3945 C 0.72006 0.73690 0.53160
 C3946 C 0.71394 0.73092 0.54162
 H3947 H 0.70988 0.68159 0.59216
 H3948 H 0.70055 0.67192 0.61066
 H3949 H 0.67064 0.70012 0.61017
 H3950 H 0.67993 0.70960 0.59156
 H3951 H 0.69849 0.72169 0.58549
 H3952 H 0.70834 0.73157 0.56724
 H3953 H 0.71583 0.69446 0.55166
 H3954 H 0.70599 0.68457 0.56995
 H3955 H 0.73460 0.70635 0.54603
 H3956 H 0.74521 0.71671 0.52847
 H3957 H 0.71591 0.74547 0.52774
 H3958 H 0.70518 0.73495 0.54513
 C3959 C 0.69595 0.19587 0.09008
 C3960 C 0.68472 0.20082 0.09522
 C3961 C 0.67929 0.19532 0.10587
 C3962 C 0.68497 0.18473 0.11166
 C3963 C 0.69621 0.17976 0.10646
 C3964 C 0.70162 0.18526 0.09580
 C3965 C 0.70181 0.20183 0.07887
 C3966 C 0.70707 0.19430 0.06931
 C3967 C 0.71273 0.19994 0.05885
 C3968 C 0.71326 0.21324 0.05771
 C3969 C 0.70795 0.22076 0.06725
 C3970 C 0.70229 0.21512 0.07770
 C3971 C 0.71949 0.21929 0.04673
 C3972 C 0.71428 0.23026 0.04123
 C3973 C 0.72040 0.23625 0.03123
 C3974 C 0.73186 0.23140 0.02647
 C3975 C 0.73696 0.22030 0.03182
 C3976 C 0.73085 0.21431 0.04184
 H3977 H 0.68003 0.20888 0.09093
 H3978 H 0.67061 0.19941 0.10947
 H3979 H 0.70094 0.17168 0.11063
 H3980 H 0.71038 0.18133 0.09216
 H3981 H 0.70668 0.18403 0.06986
 H3982 H 0.71656 0.19389 0.05157
 H3983 H 0.70841 0.23103 0.06677
 H3984 H 0.69851 0.22118 0.08500
 H3985 H 0.70544 0.23421 0.04465
 H3986 H 0.71619 0.24475 0.02729
 H3987 H 0.74580 0.21634 0.02840
 H3988 H 0.73518 0.20596 0.04596
 C3989 C 0.19567 0.69597 0.08983
 C3990 C 0.18449 0.70099 0.09503
 C3991 C 0.17906 0.69552 0.10569
 C3992 C 0.18469 0.68488 0.11145
 C3993 C 0.19586 0.67983 0.10619
 C3994 C 0.20127 0.68530 0.09551
 C3995 C 0.20155 0.70192 0.07863
 C3996 C 0.20675 0.69438 0.06905
 C3997 C 0.21243 0.70002 0.05859
 C3998 C 0.21305 0.71332 0.05749
 C3999 C 0.20779 0.72085 0.06704
 C4000 C 0.20210 0.71522 0.07748
 C4001 C 0.21935 0.71935 0.04654
 C4002 C 0.21425 0.73038 0.04105
 C4003 C 0.22045 0.73635 0.03108
 C4004 C 0.23189 0.73141 0.02634
 C4005 C 0.23688 0.72026 0.03168
 C4006 C 0.23068 0.71430 0.04166
 H4007 H 0.17985 0.70910 0.09077
 H4008 H 0.17044 0.69967 0.10934
 H4009 H 0.20055 0.67171 0.11033
 H4010 H 0.20999 0.68131 0.09183
 H4011 H 0.20630 0.68412 0.06957
 H4012 H 0.21623 0.69396 0.05130
 H4013 H 0.20831 0.73111 0.06658
 H4014 H 0.19836 0.72128 0.08480
 H4015 H 0.20544 0.73439 0.04447
 H4016 H 0.21632 0.74490 0.02716
 H4017 H 0.24569 0.71623 0.02827
 H4018 H 0.23494 0.70590 0.04577
 C4019 C 0.19595 0.19545 0.59026
 C4020 C 0.20086 0.18417 0.59537
 C4021 C 0.19539 0.17874 0.60603
 C4022 C 0.18487 0.18446 0.61188
 C4023 C 0.17993 0.19573 0.60670
 C4024 C 0.18539 0.20114 0.59602
 C4025 C 0.20190 0.20133 0.57905
 C4026 C 0.19439 0.20671 0.56954
 C4027 C 0.20003 0.21236 0.55907
 C4028 C 0.21332 0.21276 0.55788
 C4029 C 0.22083 0.20734 0.56737
 C4030 C 0.21519 0.20169 0.57783
 C4031 C 0.21937 0.21896 0.54688
 C4032 C 0.23026 0.21366 0.54133
 C4033 C 0.23626 0.21975 0.53132
 C4034 C 0.23152 0.23130 0.52662
 C4035 C 0.22050 0.23649 0.53201
 C4036 C 0.21450 0.23039 0.54203
 H4037 H 0.20888 0.17945 0.59104
 H4038 H 0.19947 0.17003 0.60962
 H4039 H 0.17189 0.20049 0.61090
 H4040 H 0.18149 0.20994 0.59241
 H4041 H 0.18412 0.20642 0.57013
 H4042 H 0.19398 0.21629 0.55184
 H4043 H 0.23109 0.20770 0.56685
 H4044 H 0.22125 0.19782 0.58509
 H4045 H 0.23413 0.20476 0.54472
 H4046 H 0.24470 0.21546 0.52734
 H4047 H 0.21661 0.24538 0.52862
 H4048 H 0.20621 0.23480 0.54619
   
