data_POSCAR
  _audit_creation_date              2014-09-24
  _audit_creation_method            'ToBaCCo'
  _symmetry_space_group_name_H-M    'P1'
  _symmetry_Int_Tables_number       1
  _symmetry_cell_setting            triclinic
  loop_
  _symmetry_equiv_pos_as_xyz
 x,y,z
_cell_length_a 51.2194
_cell_length_b 51.2176
_cell_length_c 51.2495
_cell_angle_alpha 89.973100
_cell_angle_beta 90.074000
_cell_angle_gamma 89.980600
loop_
  _atom_site_label
  _atom_site_type_symbol
  _atom_site_fract_x
  _atom_site_fract_y
  _atom_site_fract_z
C1 C 0.25007 1.07047 0.00008
 C2 C 0.25392 1.05665 0.02325
 C3 C 0.25451 1.02931 0.02294
 C4 C 0.24977 1.01529 -0.00039
 C5 C 0.24523 1.02975 -0.02350
 C6 C 0.24609 1.05710 -0.02333
 C7 C 0.24950 0.98593 -0.00060
 C8 C 0.25382 0.97176 -0.02392
 C9 C 0.25292 0.94442 -0.02408
 C10 C 0.24911 0.93076 -0.00082
 C11 C 0.24547 0.94429 0.02251
 C12 C 0.24493 0.97160 0.02256
 H13 H 0.25016 1.09168 0.00025
 H14 H 0.25882 1.01927 0.04101
 H15 H 0.24086 1.02007 -0.04172
 H16 H 0.25805 0.98161 -0.04207
 H17 H 0.24901 0.90958 -0.00089
 H18 H 0.24079 0.98133 0.04080
 C19 C 0.75133 0.56826 0.49937
 C20 C 0.75519 0.55445 0.52252
 C21 C 0.75548 0.52712 0.52227
 C22 C 0.75048 0.51311 0.49898
 C23 C 0.74597 0.52759 0.47588
 C24 C 0.74708 0.55490 0.47603
 C25 C 0.74993 0.48374 0.49881
 C26 C 0.75388 0.46951 0.47547
 C27 C 0.75272 0.44218 0.47534
 C28 C 0.74899 0.42858 0.49864
 C29 C 0.74569 0.44216 0.52200
 C30 C 0.74544 0.46949 0.52203
 H31 H 0.75163 0.58944 0.49951
 H32 H 0.75976 0.51715 0.54036
 H33 H 0.74142 0.51800 0.45766
 H34 H 0.75804 0.47930 0.45726
 H35 H 0.74867 0.40740 0.49860
 H36 H 0.74159 0.47927 0.54030
 C37 C 0.74922 0.99862 1.06937
 C38 C 0.74582 0.97522 1.05581
 C39 C 0.74519 0.97525 1.02847
 C40 C 0.74940 0.99857 1.01422
 C41 C 0.75357 1.02188 1.02845
 C42 C 0.75273 1.02197 1.05576
 C43 C 0.74947 0.99862 0.98486
 C44 C 0.74478 1.02186 0.97064
 C45 C 0.74567 1.02202 0.94334
 C46 C 0.74979 0.99880 0.92973
 C47 C 0.75373 0.97549 0.94328
 C48 C 0.75427 0.97546 0.97060
 H49 H 0.74912 0.99865 1.09057
 H50 H 0.74125 0.95701 1.01862
 H51 H 0.75763 1.04010 1.01861
 H52 H 0.74028 1.04000 0.98041
 H53 H 0.74995 0.99887 0.90856
 H54 H 0.75863 0.95727 0.98036
 C55 C 0.24937 0.49985 0.56899
 C56 C 0.24566 0.47650 0.55548
 C57 C 0.24485 0.47650 0.52815
 C58 C 0.24914 0.49977 0.51386
 C59 C 0.25360 0.52305 0.52805
 C60 C 0.25299 0.52314 0.55535
 C61 C 0.24899 0.49981 0.48450
 C62 C 0.24447 0.52309 0.47029
 C63 C 0.24516 0.52322 0.44298
 C64 C 0.24891 0.49994 0.42936
 C65 C 0.25268 0.47660 0.44291
 C66 C 0.25342 0.47659 0.47022
 H67 H 0.24943 0.49990 0.59016
 H68 H 0.24071 0.45825 0.51843
 H69 H 0.25770 0.54127 0.51825
 H70 H 0.24026 0.54129 0.48008
 H71 H 0.24891 0.49999 0.40819
 H72 H 0.25763 0.45835 0.47996
 C73 C 1.06832 0.24938 0.00114
 C74 C 1.05467 0.25284 0.02445
 C75 C 1.02730 0.25330 0.02430
 C76 C 1.01316 0.24887 0.00095
 C77 C 1.02750 0.24465 -0.02224
 C78 C 1.05479 0.24563 -0.02220
 C79 C 0.98379 0.24862 0.00072
 C80 C 0.96963 0.25318 -0.02260
 C81 C 0.94229 0.25208 -0.02291
 C82 C 0.92861 0.24790 0.00027
 C83 C 0.94213 0.24410 0.02363
 C84 C 0.96946 0.24375 0.02379
 H85 H 1.08952 0.24960 0.00110
 H86 H 1.01735 0.25728 0.04246
 H87 H 1.01781 0.24044 -0.04050
 H88 H 0.97955 0.25774 -0.04065
 H89 H 0.90742 0.24760 0.00019
 H90 H 0.97919 0.23951 0.04202
 C91 C 0.56992 0.74944 0.50018
 C92 C 0.55654 0.75300 0.52360
 C93 C 0.52920 0.75364 0.52377
 C94 C 0.51476 0.74935 0.50059
 C95 C 0.52883 0.74504 0.47723
 C96 C 0.55614 0.74581 0.47698
 C97 C 0.48539 0.74940 0.50074
 C98 C 0.47103 0.75403 0.47758
 C99 C 0.44371 0.75330 0.47760
 C100 C 0.43022 0.74937 0.50090
 C101 C 0.44392 0.74549 0.52414
 C102 C 0.47126 0.74480 0.52401
 H103 H 0.59111 0.74951 0.50001
 H104 H 0.51957 0.75768 0.54207
 H105 H 0.51891 0.74094 0.45906
 H106 H 0.48072 0.75838 0.45937
 H107 H 0.40904 0.74935 0.50096
 H108 H 0.48113 0.74052 0.54216
 C109 C 0.00045 0.75070 -0.06901
 C110 C 0.02351 0.74691 -0.05501
 C111 C 0.02302 0.74643 -0.02770
 C112 C -0.00043 0.75121 -0.01388
 C113 C -0.02343 0.75568 -0.02854
 C114 C -0.02306 0.75473 -0.05586
 C115 C -0.00085 0.75161 0.01546
 C116 C -0.02428 0.74737 0.02948
 C117 C -0.02462 0.74842 0.05683
 C118 C -0.00138 0.75228 0.07060
 C119 C 0.02204 0.75585 0.05719
 C120 C 0.02224 0.75625 0.02990
 H121 H 0.00085 0.75052 -0.09019
 H122 H 0.04106 0.74218 -0.01759
 H123 H -0.04174 0.76009 -0.01902
 H124 H -0.04237 0.74308 0.01947
 H125 H -0.00147 0.75249 0.09178
 H126 H 0.04055 0.76032 0.02028
 C127 C 0.49899 0.24982 0.43107
 C128 C 0.52219 0.24583 0.44479
 C129 C 0.52204 0.24539 0.47210
 C130 C 0.49881 0.25036 0.48619
 C131 C 0.47566 0.25500 0.47181
 C132 C 0.47570 0.25404 0.44450
 C133 C 0.49878 0.25071 0.51554
 C134 C 0.47547 0.24667 0.52981
 C135 C 0.47547 0.24759 0.55712
 C136 C 0.49884 0.25117 0.57068
 C137 C 0.52217 0.25455 0.55706
 C138 C 0.52208 0.25504 0.52975
 H139 H 0.49906 0.24963 0.40990
 H140 H 0.54017 0.24100 0.48199
 H141 H 0.45747 0.25952 0.48147
 H142 H 0.45721 0.24263 0.52005
 H143 H 0.49888 0.25130 0.59185
 H144 H 0.54033 0.25895 0.51995
 C145 C 1.07038 0.00187 0.24705
 C146 C 1.05647 0.02500 0.25100
 C147 C 1.02912 0.02446 0.25211
 C148 C 1.01523 0.00092 0.24790
 C149 C 1.02979 -0.02204 0.24319
 C150 C 1.05709 -0.02164 0.24349
 C151 C 0.98589 0.00025 0.24836
 C152 C 0.97223 -0.02326 0.25339
 C153 C 0.94487 -0.02395 0.25291
 C154 C 0.93075 -0.00098 0.24885
 C155 C 0.94380 0.02253 0.24458
 C156 C 0.97110 0.02309 0.24365
 H157 H 1.09157 0.00211 0.24679
 H158 H 1.01897 0.04246 0.25643
 H159 H 1.02025 -0.04042 0.23914
 H160 H 0.98255 -0.04114 0.25783
 H161 H 0.90956 -0.00136 0.24901
 H162 H 0.98045 0.04144 0.23908
 C163 C 0.57119 0.50040 0.74772
 C164 C 0.55775 0.52378 0.75163
 C165 C 0.53043 0.52386 0.75272
 C166 C 0.51605 0.50065 0.74856
 C167 C 0.53012 0.47733 0.74390
 C168 C 0.55745 0.47715 0.74419
 C169 C 0.48670 0.50071 0.74917
 C170 C 0.47258 0.47754 0.75434
 C171 C 0.44526 0.47747 0.75418
 C172 C 0.43157 0.50069 0.75026
 C173 C 0.44504 0.52394 0.74583
 C174 C 0.47235 0.52391 0.74462
 H175 H 0.59237 0.50030 0.74746
 H176 H 0.52075 0.54211 0.75700
 H177 H 0.52018 0.45916 0.73991
 H178 H 0.48248 0.45941 0.75865
 H179 H 0.41039 0.50066 0.75064
 H180 H 0.48206 0.54205 0.73997
 C181 C 1.00061 1.07098 0.75240
 C182 C 0.97743 1.05724 0.74822
 C183 C 0.97777 1.02988 0.74733
 C184 C 1.00112 1.01581 0.75205
 C185 C 1.02416 1.03021 0.75691
 C186 C 1.02397 1.05752 0.75639
 C187 C 1.00142 0.98645 0.75202
 C188 C 1.02479 0.97236 0.74754
 C189 C 1.02502 0.94498 0.74825
 C190 C 1.00176 0.93129 0.75206
 C191 C 0.97841 0.94478 0.75587
 C192 C 0.97830 0.97208 0.75656
 H193 H 1.00052 1.09217 0.75255
 H194 H 0.95974 1.01987 0.74281
 H195 H 1.04240 1.02052 0.76128
 H196 H 1.04289 0.98235 0.74331
 H197 H 1.00177 0.91010 0.75204
 H198 H 0.96004 0.98177 0.76080
 C199 C 0.50125 0.57083 0.25082
 C200 C 0.47782 0.55751 0.24686
 C201 C 0.47756 0.53019 0.24621
 C202 C 0.50060 0.51567 0.25093
 C203 C 0.52400 0.52963 0.25554
 C204 C 0.52438 0.55697 0.25480
 C205 C 0.50018 0.48631 0.25100
 C206 C 0.52321 0.47172 0.24652
 C207 C 0.52282 0.44439 0.24714
 C208 C 0.49931 0.43117 0.25090
 C209 C 0.47624 0.44511 0.25473
 C210 C 0.47671 0.47243 0.25549
 H211 H 0.50148 0.59201 0.25079
 H212 H 0.45927 0.52061 0.24186
 H213 H 0.54206 0.51960 0.25988
 H214 H 0.54156 0.48124 0.24234
 H215 H 0.49898 0.40998 0.25083
 H216 H 0.45866 0.48249 0.25972
 O217 O 0.25145 0.18287 0.21181
 O218 O 0.27965 0.17527 0.24837
 O219 O 0.18279 0.21400 0.24966
 O220 O 0.17335 0.24791 0.27525
 O221 O 0.21445 0.25123 0.18070
 O222 O 0.25077 0.27967 0.17336
 O223 O 0.25158 0.28673 0.31574
 O224 O 0.22086 0.25169 0.32254
 O225 O 0.31837 0.25144 0.28389
 O226 O 0.32580 0.22128 0.24804
 O227 O 0.28637 0.31807 0.24971
 O228 O 0.24918 0.32555 0.21905
 O229 O 0.25154 0.31781 0.28413
 O230 O 0.22144 0.32580 0.24717
 O231 O 0.31754 0.28660 0.25108
 O232 O 0.32316 0.25169 0.21679
 O233 O 0.28717 0.25271 0.31540
 O234 O 0.25557 0.22243 0.32412
 O235 O 0.25153 0.21447 0.18068
 O236 O 0.27943 0.25102 0.17307
 O237 O 0.18294 0.25069 0.21187
 O238 O 0.17676 0.28061 0.24875
 O239 O 0.21431 0.18282 0.24832
 O240 O 0.25196 0.17463 0.27667
 Zr241 Zr 0.24968 0.20364 0.24732
 O242 O 0.27388 0.22616 0.27171
 Zr243 Zr 0.20376 0.24932 0.24741
 O244 O 0.22613 0.27384 0.27187
 Zr245 Zr 0.24972 0.24962 0.20164
 O246 O 0.27409 0.27405 0.22396
 Zr247 Zr 0.25150 0.25132 0.29489
 O248 O 0.22671 0.22633 0.27291
 Zr249 Zr 0.29708 0.25112 0.24893
 O250 O 0.27497 0.22639 0.22434
 Zr251 Zr 0.25105 0.29699 0.24888
 O252 O 0.22644 0.27466 0.22430
 O253 O 0.22539 0.22522 0.22303
 O254 O 0.27558 0.27563 0.27318
 C255 C 0.25235 0.19045 0.18788
 C256 C 0.19032 0.19003 0.24977
 C257 C 0.19044 0.25175 0.18794
 C258 C 0.25189 0.31066 0.30815
 C259 C 0.31114 0.25255 0.30787
 C260 C 0.31029 0.31060 0.25104
 H261 H 0.28444 0.21442 0.28284
 H262 H 0.28515 0.28469 0.21226
 H263 H 0.21426 0.21404 0.21184
 H264 H 0.21442 0.28449 0.28290
 H265 H 0.20922 0.23688 0.31819
 H266 H 0.17990 0.25657 0.29120
 H267 H 0.34036 0.25826 0.22282
 H268 H 0.29353 0.23929 0.17918
 H269 H 0.24505 0.20734 0.31839
 H270 H 0.23697 0.17725 0.28855
 H271 H 0.26394 0.32248 0.20701
 H272 H 0.23881 0.29352 0.17957
 H273 H 0.29349 0.18143 0.23638
 H274 H 0.32159 0.20841 0.26179
 H275 H 0.18208 0.29323 0.23512
 H276 H 0.20886 0.32215 0.26133
 O277 O 0.75013 0.81879 0.21520
 O278 O 0.72228 0.82668 0.25152
 O279 O 0.81861 0.78725 0.25275
 O280 O 0.82827 0.75324 0.27799
 O281 O 0.78683 0.75052 0.18346
 O282 O 0.75041 0.72221 0.17623
 O283 O 0.74930 0.71553 0.31882
 O284 O 0.78008 0.74919 0.32616
 O285 O 0.68285 0.75040 0.28709
 O286 O 0.67559 0.78071 0.25065
 O287 O 0.71463 0.68370 0.25277
 O288 O 0.75158 0.67574 0.22273
 O289 O 0.74926 0.68397 0.28771
 O290 O 0.77977 0.67602 0.25051
 O291 O 0.68357 0.71527 0.25418
 O292 O 0.67798 0.74994 0.21981
 O293 O 0.71449 0.74976 0.31826
 O294 O 0.75070 0.78053 0.32654
 O295 O 0.74980 0.78761 0.18367
 O296 O 0.72153 0.75089 0.17621
 O297 O 0.81812 0.75069 0.21494
 O298 O 0.82419 0.72035 0.25136
 O299 O 0.78720 0.81858 0.25215
 O300 O 0.75080 0.82623 0.28041
 Zr301 Zr 0.75184 0.79789 0.25046
 O302 O 0.72734 0.77568 0.27469
 Zr303 Zr 0.79755 0.75198 0.25038
 O304 O 0.77516 0.72778 0.27503
 Zr305 Zr 0.75153 0.75218 0.20455
 O306 O 0.72715 0.72777 0.22706
 Zr307 Zr 0.75004 0.75067 0.29784
 O308 O 0.77491 0.77509 0.27576
 Zr309 Zr 0.70412 0.75069 0.25197
 O310 O 0.72639 0.77534 0.22741
 Zr311 Zr 0.75002 0.70467 0.25217
 O312 O 0.77457 0.72686 0.22734
 O313 O 0.77602 0.77634 0.22608
 O314 O 0.72570 0.72632 0.27636
 C315 C 0.74912 0.81156 0.19120
 C316 C 0.81117 0.81125 0.25332
 C317 C 0.81082 0.74982 0.19095
 C318 C 0.74881 0.69152 0.31163
 C319 C 0.69044 0.74966 0.31102
 C320 C 0.69073 0.69125 0.25406
 H321 H 0.71657 0.78754 0.28539
 H322 H 0.71605 0.71713 0.21537
 H323 H 0.78717 0.78756 0.21499
 H324 H 0.78679 0.71711 0.28615
 H325 H 0.79362 0.76181 0.32059
 H326 H 0.82245 0.74339 0.29353
 H327 H 0.66072 0.74362 0.22591
 H328 H 0.70766 0.76289 0.18229
 H329 H 0.73615 0.79273 0.32304
 H330 H 0.76246 0.81982 0.29444
 H331 H 0.73749 0.67947 0.21005
 H332 H 0.76213 0.70821 0.18258
 H333 H 0.70806 0.82040 0.24003
 H334 H 0.67925 0.79321 0.26488
 H335 H 0.81866 0.70788 0.23767
 H336 H 0.79190 0.67917 0.26521
 O337 O 0.74880 0.18175 0.78543
 O338 O 0.72533 0.17114 0.75054
 O339 O 0.81843 0.21415 0.74839
 O340 O 0.82879 0.24842 0.72472
 O341 O 0.78574 0.25004 0.81784
 O342 O 0.74979 0.27742 0.82562
 O343 O 0.74868 0.28461 0.68197
 O344 O 0.77829 0.25110 0.67401
 O345 O 0.68218 0.25061 0.71465
 O346 O 0.67570 0.22010 0.74776
 O347 O 0.71483 0.31700 0.74816
 O348 O 0.75122 0.32592 0.77702
 O349 O 0.74900 0.31638 0.71286
 O350 O 0.78053 0.32369 0.75056
 O351 O 0.68311 0.28606 0.74712
 O352 O 0.67791 0.25266 0.78162
 O353 O 0.71323 0.25087 0.68296
 O354 O 0.74997 0.21884 0.67563
 O355 O 0.74929 0.21269 0.81718
 O356 O 0.72010 0.24969 0.82394
 O357 O 0.81755 0.25021 0.78700
 O358 O 0.82294 0.28127 0.74956
 O359 O 0.78760 0.18232 0.74934
 O360 O 0.74998 0.17661 0.71852
 Zr361 Zr 0.75178 0.20277 0.75043
 O362 O 0.72658 0.22505 0.72674
 Zr363 Zr 0.79715 0.24900 0.75114
 O364 O 0.77472 0.27258 0.72586
 Zr365 Zr 0.75085 0.24827 0.79647
 O366 O 0.72706 0.27319 0.77398
 Zr367 Zr 0.74921 0.24970 0.70322
 O368 O 0.77476 0.22583 0.72543
 Zr369 Zr 0.70372 0.25045 0.74933
 O370 O 0.72589 0.22515 0.77341
 Zr371 Zr 0.74995 0.29595 0.74864
 O372 O 0.77400 0.27387 0.77408
 O373 O 0.77568 0.22432 0.77511
 O374 O 0.72529 0.27442 0.72466
 C375 C 0.74811 0.18880 0.80947
 C376 C 0.81146 0.19007 0.74805
 C377 C 0.80980 0.25092 0.81088
 C378 C 0.74837 0.30866 0.68898
 C379 C 0.68928 0.25117 0.69062
 C380 C 0.69080 0.30997 0.74705
 H381 H 0.71533 0.21327 0.71638
 H382 H 0.71620 0.28405 0.78566
 H383 H 0.78677 0.21307 0.78628
 H384 H 0.78637 0.28307 0.71460
 H385 H 0.79257 0.23946 0.67987
 H386 H 0.82209 0.25504 0.70788
 H387 H 0.66007 0.25589 0.77480
 H388 H 0.70709 0.23651 0.81844
 H389 H 0.73406 0.20815 0.67792
 H390 H 0.76467 0.18105 0.70679
 H391 H 0.73872 0.32126 0.79095
 H392 H 0.76041 0.29214 0.81900
 H393 H 0.70786 0.17867 0.74733
 H394 H 0.67911 0.20865 0.76296
 H395 H 0.81866 0.29271 0.76451
 H396 H 0.79141 0.32166 0.73475
 O397 O 0.24990 0.81674 0.78641
 O398 O 0.27751 0.82490 0.74861
 O399 O 0.18140 0.78524 0.74834
 O400 O 0.17162 0.75137 0.72322
 O401 O 0.21315 0.74843 0.81764
 O402 O 0.24964 0.72001 0.82481
 O403 O 0.24983 0.71298 0.68234
 O404 O 0.21905 0.74814 0.67563
 O405 O 0.31696 0.74757 0.71394
 O406 O 0.32324 0.77891 0.74591
 O407 O 0.28475 0.68170 0.74857
 O408 O 0.24786 0.67372 0.77870
 O409 O 0.25005 0.68187 0.71393
 O410 O 0.21969 0.67405 0.75108
 O411 O 0.31638 0.71274 0.74729
 O412 O 0.32202 0.74654 0.78094
 O413 O 0.28526 0.74692 0.68282
 O414 O 0.25392 0.77724 0.67409
 O415 O 0.25024 0.78517 0.81754
 O416 O 0.27840 0.74870 0.82490
 O417 O 0.18185 0.74873 0.78617
 O418 O 0.17552 0.71877 0.74927
 O419 O 0.21249 0.81678 0.75001
 O420 O 0.25004 0.82484 0.72130
 Zr421 Zr 0.24809 0.79601 0.75084
 O422 O 0.27229 0.77333 0.72653
 Zr423 Zr 0.20241 0.75013 0.75071
 O424 O 0.22454 0.72570 0.72617
 Zr425 Zr 0.24843 0.75005 0.79653
 O426 O 0.27259 0.72558 0.77407
 Zr427 Zr 0.24978 0.74833 0.70327
 O428 O 0.22509 0.77329 0.72526
 Zr429 Zr 0.29568 0.74825 0.74899
 O430 O 0.27373 0.77322 0.77374
 Zr431 Zr 0.24948 0.70264 0.74921
 O432 O 0.22510 0.72493 0.77393
 O433 O 0.22395 0.77435 0.77512
 O434 O 0.27392 0.72389 0.72483
 C435 C 0.25092 0.80918 0.81033
 C436 C 0.18858 0.80927 0.74841
 C437 C 0.18916 0.74778 0.81016
 C438 C 0.25031 0.68904 0.68991
 C439 C 0.30933 0.74674 0.69002
 C440 C 0.30878 0.68882 0.74741
 H441 H 0.28310 0.78505 0.71563
 H442 H 0.28362 0.71488 0.78578
 H443 H 0.21282 0.78550 0.78630
 H444 H 0.21279 0.71509 0.71513
 H445 H 0.20754 0.76306 0.67994
 H446 H 0.17828 0.74345 0.70695
 H447 H 0.33983 0.74393 0.77382
 H448 H 0.29252 0.76024 0.81854
 H449 H 0.24354 0.79240 0.67986
 H450 H 0.23479 0.82232 0.70969
 H451 H 0.26210 0.67727 0.79125
 H452 H 0.23765 0.70617 0.81864
 H453 H 0.29048 0.82085 0.76234
 H454 H 0.32125 0.78986 0.76168
 H455 H 0.18072 0.70626 0.76306
 H456 H 0.20750 0.67723 0.73643
 O457 O 0.24928 0.31946 0.71633
 O458 O 0.22133 0.32743 0.75260
 O459 O 0.31767 0.28803 0.75413
 O460 O 0.32738 0.25409 0.77936
 O461 O 0.28599 0.25106 0.68486
 O462 O 0.24957 0.22277 0.67765
 O463 O 0.24838 0.21653 0.82029
 O464 O 0.27914 0.25024 0.82755
 O465 O 0.18194 0.25127 0.78837
 O466 O 0.17473 0.28151 0.75182
 O467 O 0.21378 0.18451 0.75435
 O468 O 0.25070 0.17642 0.72434
 O469 O 0.24838 0.18488 0.78927
 O470 O 0.27893 0.17683 0.75209
 O471 O 0.18272 0.21609 0.75563
 O472 O 0.17712 0.25059 0.72111
 O473 O 0.21355 0.25069 0.81956
 O474 O 0.24973 0.28155 0.82781
 O475 O 0.24899 0.28818 0.68490
 O476 O 0.22069 0.25144 0.67755
 O477 O 0.31725 0.25138 0.71636
 O478 O 0.32329 0.22114 0.75288
 O479 O 0.28625 0.31936 0.75338
 O480 O 0.24982 0.32713 0.78149
 Zr481 Zr 0.25092 0.29866 0.75166
 O482 O 0.22643 0.27654 0.77595
 Zr483 Zr 0.29665 0.25276 0.75178
 O484 O 0.27426 0.22864 0.77649
 Zr485 Zr 0.25068 0.25282 0.70590
 O486 O 0.22629 0.22847 0.72846
 Zr487 Zr 0.24912 0.25160 0.79920
 O488 O 0.27398 0.27596 0.77705
 Zr489 Zr 0.20325 0.25149 0.75328
 O490 O 0.22551 0.27606 0.72864
 Zr491 Zr 0.24915 0.20547 0.75367
 O492 O 0.27370 0.22757 0.72878
 O493 O 0.27514 0.27705 0.72738
 O494 O 0.22481 0.22719 0.77776
 C495 C 0.24831 0.31215 0.69235
 C496 C 0.31021 0.31202 0.75464
 C497 C 0.30997 0.25040 0.69238
 C498 C 0.24790 0.19249 0.81317
 C499 C 0.18952 0.25055 0.81230
 C500 C 0.18988 0.19208 0.75562
 H501 H 0.21565 0.28842 0.78662
 H502 H 0.21520 0.21779 0.71681
 H503 H 0.28631 0.28824 0.71628
 H504 H 0.28589 0.21801 0.78765
 H505 H 0.29267 0.26286 0.82194
 H506 H 0.32153 0.24436 0.79497
 H507 H 0.15985 0.24432 0.72724
 H508 H 0.20683 0.26347 0.68357
 H509 H 0.23512 0.29369 0.82430
 H510 H 0.26139 0.32074 0.79560
 H511 H 0.23662 0.18011 0.71164
 H512 H 0.26125 0.20877 0.68408
 H513 H 0.20716 0.32113 0.74106
 H514 H 0.17833 0.29401 0.76607
 H515 H 0.31780 0.20865 0.73920
 H516 H 0.29102 0.18000 0.76682
 O517 O 0.75433 0.68197 0.71195
 O518 O 0.78258 0.67439 0.74852
 O519 O 0.68573 0.71318 0.74976
 O520 O 0.67619 0.74712 0.77520
 O521 O 0.71750 0.75039 0.68078
 O522 O 0.75384 0.77874 0.67345
 O523 O 0.75435 0.78584 0.81588
 O524 O 0.72366 0.75075 0.82263
 O525 O 0.82122 0.75054 0.78409
 O526 O 0.82870 0.72037 0.74826
 O527 O 0.78927 0.81715 0.74996
 O528 O 0.75221 0.82471 0.71922
 O529 O 0.75439 0.81692 0.78427
 O530 O 0.72432 0.82487 0.74720
 O531 O 0.82043 0.78566 0.75135
 O532 O 0.82610 0.75080 0.71701
 O533 O 0.78998 0.75191 0.81555
 O534 O 0.75841 0.72156 0.82426
 O535 O 0.75448 0.71355 0.68081
 O536 O 0.78252 0.75010 0.67328
 O537 O 0.68595 0.74985 0.71191
 O538 O 0.67972 0.77978 0.74879
 O539 O 0.71723 0.68198 0.74846
 O540 O 0.75485 0.67372 0.77678
 Zr541 Zr 0.75259 0.70276 0.74745
 O542 O 0.77676 0.72526 0.77188
 Zr543 Zr 0.70670 0.74847 0.74747
 O544 O 0.72901 0.77297 0.77198
 Zr545 Zr 0.75272 0.74872 0.70176
 O546 O 0.77704 0.77315 0.72413
 Zr547 Zr 0.75434 0.75043 0.79502
 O548 O 0.72959 0.72546 0.77300
 Zr549 Zr 0.79998 0.75020 0.74911
 O550 O 0.77792 0.72548 0.72449
 Zr551 Zr 0.75396 0.79610 0.74901
 O552 O 0.72941 0.77378 0.72438
 O553 O 0.72834 0.72435 0.72312
 O554 O 0.77845 0.77472 0.77333
 C555 C 0.75524 0.68954 0.68802
 C556 C 0.69325 0.68921 0.74991
 C557 C 0.69348 0.75093 0.68798
 C558 C 0.75468 0.80977 0.80829
 C559 C 0.81396 0.75173 0.80805
 C560 C 0.81318 0.80966 0.75135
 H561 H 0.78730 0.71352 0.78303
 H562 H 0.78813 0.78379 0.71245
 H563 H 0.71721 0.71318 0.71194
 H564 H 0.71728 0.78362 0.78299
 H565 H 0.71205 0.73593 0.81826
 H566 H 0.68276 0.75561 0.79123
 H567 H 0.84330 0.75736 0.72308
 H568 H 0.79654 0.73827 0.67937
 H569 H 0.74793 0.70644 0.81852
 H570 H 0.73989 0.67636 0.78868
 H571 H 0.76697 0.82160 0.70718
 H572 H 0.74196 0.79265 0.67967
 H573 H 0.79639 0.68052 0.73649
 H574 H 0.82446 0.70749 0.76200
 H575 H 0.68503 0.79238 0.73513
 H576 H 0.71178 0.82131 0.76143
 O577 O 0.24869 0.68326 0.28530
 O578 O 0.22509 0.67276 0.25047
 O579 O 0.31820 0.71575 0.24812
 O580 O 0.32862 0.75008 0.22466
 O581 O 0.28569 0.75145 0.31780
 O582 O 0.24977 0.77881 0.32574
 O583 O 0.24840 0.78636 0.18208
 O584 O 0.27799 0.75284 0.17399
 O585 O 0.18197 0.75232 0.21483
 O586 O 0.17551 0.72176 0.24791
 O587 O 0.21476 0.81860 0.24837
 O588 O 0.25114 0.82748 0.27718
 O589 O 0.24883 0.81805 0.21305
 O590 O 0.28048 0.82521 0.25074
 O591 O 0.18301 0.78770 0.24727
 O592 O 0.17782 0.75429 0.28179
 O593 O 0.21295 0.75266 0.18307
 O594 O 0.24964 0.72060 0.17558
 O595 O 0.24922 0.71411 0.31713
 O596 O 0.22005 0.75113 0.32401
 O597 O 0.31743 0.75167 0.28689
 O598 O 0.32276 0.78284 0.24950
 O599 O 0.28736 0.68392 0.24909
 O600 O 0.24966 0.67826 0.21839
 Zr601 Zr 0.25156 0.70437 0.25035
 O602 O 0.22635 0.72671 0.22675
 Zr603 Zr 0.29696 0.75058 0.25108
 O604 O 0.27453 0.77422 0.22588
 Zr605 Zr 0.25076 0.74974 0.29650
 O606 O 0.22697 0.77474 0.27411
 Zr607 Zr 0.24897 0.75140 0.20325
 O608 O 0.27452 0.72746 0.22536
 Zr609 Zr 0.20357 0.75207 0.24946
 O610 O 0.22575 0.72669 0.27344
 Zr611 Zr 0.24984 0.79753 0.24878
 O612 O 0.27389 0.77539 0.27414
 O613 O 0.27553 0.72584 0.27502
 O614 O 0.22511 0.77608 0.22480
 C615 C 0.24804 0.69025 0.30936
 C616 C 0.31121 0.69168 0.24772
 C617 C 0.30973 0.75234 0.31078
 C618 C 0.24814 0.81039 0.18915
 C619 C 0.18902 0.75295 0.19080
 C620 C 0.19073 0.81159 0.24723
 H621 H 0.21507 0.71497 0.21639
 H622 H 0.21613 0.78559 0.28583
 H623 H 0.28664 0.71456 0.28614
 H624 H 0.28617 0.78471 0.21462
 H625 H 0.29227 0.74116 0.17979
 H626 H 0.32187 0.75658 0.20779
 H627 H 0.15997 0.75756 0.27500
 H628 H 0.20703 0.73795 0.31851
 H629 H 0.23372 0.70993 0.17787
 H630 H 0.26430 0.68273 0.20662
 H631 H 0.23872 0.82276 0.29117
 H632 H 0.26036 0.79356 0.31913
 H633 H 0.20762 0.68032 0.24730
 H634 H 0.17893 0.71029 0.26309
 H635 H 0.31858 0.79421 0.26455
 H636 H 0.29126 0.82328 0.23486
 O637 O 0.74811 0.31454 0.28576
 O638 O 0.77575 0.32265 0.24790
 O639 O 0.67961 0.28301 0.24766
 O640 O 0.66975 0.24913 0.22266
 O641 O 0.71139 0.24625 0.31700
 O642 O 0.74788 0.21781 0.32415
 O643 O 0.74799 0.21077 0.18168
 O644 O 0.71714 0.24593 0.17501
 O645 O 0.81509 0.24542 0.21323
 O646 O 0.82138 0.27676 0.24521
 O647 O 0.78291 0.17954 0.24784
 O648 O 0.74609 0.17152 0.27802
 O649 O 0.74820 0.17967 0.21328
 O650 O 0.71784 0.17189 0.25047
 O651 O 0.81453 0.21059 0.24651
 O652 O 0.82023 0.24433 0.28021
 O653 O 0.78337 0.24471 0.18214
 O654 O 0.75201 0.27503 0.17340
 O655 O 0.74847 0.28296 0.31688
 O656 O 0.77665 0.24649 0.32422
 O657 O 0.68008 0.24655 0.28555
 O658 O 0.67372 0.21655 0.24867
 O659 O 0.71070 0.31456 0.24934
 O660 O 0.74820 0.32271 0.22071
 Zr661 Zr 0.74629 0.29381 0.25019
 O662 O 0.77043 0.27114 0.22584
 Zr663 Zr 0.70061 0.24792 0.25009
 O664 O 0.72269 0.22350 0.22551
 Zr665 Zr 0.74665 0.24786 0.29588
 O666 O 0.77078 0.22339 0.27339
 Zr667 Zr 0.74791 0.24613 0.20260
 O668 O 0.72325 0.27109 0.22462
 Zr669 Zr 0.79384 0.24608 0.24830
 O670 O 0.77193 0.27104 0.27307
 Zr671 Zr 0.74764 0.20045 0.24855
 O672 O 0.72330 0.22273 0.27330
 O673 O 0.72216 0.27215 0.27447
 O674 O 0.77206 0.22172 0.22415
 C675 C 0.74916 0.30698 0.30969
 C676 C 0.68680 0.30703 0.24771
 C677 C 0.68740 0.24560 0.30953
 C678 C 0.74848 0.18684 0.18926
 C679 C 0.80743 0.24456 0.18932
 C680 C 0.80692 0.18668 0.24661
 H681 H 0.78124 0.28287 0.21493
 H682 H 0.78183 0.21269 0.28508
 H683 H 0.71104 0.28330 0.28566
 H684 H 0.71093 0.21288 0.21449
 H685 H 0.70564 0.26086 0.17932
 H686 H 0.67641 0.24128 0.20635
 H687 H 0.83803 0.24174 0.27305
 H688 H 0.79077 0.25803 0.31785
 H689 H 0.74166 0.29020 0.17920
 H690 H 0.73302 0.32012 0.20903
 H691 H 0.76033 0.17508 0.29057
 H692 H 0.73589 0.20397 0.31799
 H693 H 0.78866 0.31868 0.26170
 H694 H 0.81942 0.28767 0.26101
 H695 H 0.67890 0.20406 0.26249
 H696 H 0.70567 0.17502 0.23580
 C697 C 0.25545 0.12482 0.15329
 C698 C 0.25705 0.13270 0.12717
 C699 C 0.25727 0.15929 0.12100
 C700 C 0.25580 0.17797 0.14075
 C701 C 0.25621 0.07006 0.04611
 C702 C 0.25400 0.14353 0.17316
 C703 C 0.25778 0.11382 0.10639
 C704 C 0.25793 0.09901 0.08811
 C705 C 0.25741 0.08286 0.06582
 C706 C 0.25408 0.17037 0.16710
 H707 H 0.25517 0.10427 0.15827
 H708 H 0.25842 0.16561 0.10085
 H709 H 0.25596 0.19840 0.13529
 H710 H 0.25269 0.13699 0.19321
 C711 C 0.75994 0.65826 0.62117
 C712 C 0.75953 0.63168 0.62738
 C713 C 0.75791 0.62385 0.65350
 C714 C 0.75662 0.64260 0.67336
 C715 C 0.75789 0.56867 0.54660
 C716 C 0.75864 0.67698 0.64089
 C717 C 0.76004 0.61275 0.60663
 C718 C 0.76000 0.59786 0.58841
 C719 C 0.75927 0.58158 0.56621
 C720 C 0.75688 0.66943 0.66726
 H721 H 0.76111 0.66454 0.60101
 H722 H 0.75747 0.60331 0.65852
 H723 H 0.75527 0.63609 0.69341
 H724 H 0.75893 0.69740 0.63541
 C725 C 0.74536 0.84587 0.12545
 C726 C 0.74423 0.87207 0.13315
 C727 C 0.74462 0.87841 0.15968
 C728 C 0.74619 0.85875 0.17849
 C729 C 0.74394 0.95246 0.06949
 C730 C 0.74691 0.82609 0.14427
 C731 C 0.74326 0.89272 0.11410
 C732 C 0.74287 0.91083 0.09906
 C733 C 0.74306 0.93291 0.08257
 C734 C 0.74740 0.83231 0.17105
 H735 H 0.74516 0.84075 0.10495
 H736 H 0.74384 0.89863 0.16587
 H737 H 0.74649 0.86432 0.19886
 H738 H 0.74782 0.80597 0.13784
 C739 C 0.24473 0.34624 0.62649
 C740 C 0.24360 0.37247 0.63409
 C741 C 0.24393 0.37890 0.66060
 C742 C 0.24544 0.35930 0.67947
 C743 C 0.24354 0.45252 0.57000
 C744 C 0.24622 0.32652 0.64537
 C745 C 0.24270 0.39304 0.61496
 C746 C 0.24236 0.41107 0.59983
 C747 C 0.24262 0.43306 0.58321
 C748 C 0.24665 0.33284 0.67213
 H749 H 0.24457 0.34104 0.60600
 H750 H 0.24315 0.39914 0.66671
 H751 H 0.24570 0.36494 0.69983
 H752 H 0.24712 0.30638 0.63902
 C753 C 0.74485 0.15362 0.87480
 C754 C 0.74290 0.12758 0.86672
 C755 C 0.74245 0.12166 0.84010
 C756 C 0.74406 0.14158 0.82159
 C757 C 0.74332 0.04612 0.92902
 C758 C 0.74643 0.17367 0.85626
 C759 C 0.74207 0.10660 0.88542
 C760 C 0.74184 0.08820 0.90009
 C761 C 0.74224 0.06582 0.91618
 C762 C 0.74615 0.16786 0.82939
 H763 H 0.74531 0.15841 0.89538
 H764 H 0.74104 0.10158 0.83362
 H765 H 0.74374 0.13631 0.80113
 H766 H 0.74803 0.19366 0.86296
 C767 C 0.24247 0.62303 0.33984
 C768 C 0.24285 0.62889 0.36647
 C769 C 0.24475 0.65492 0.37461
 C770 C 0.24634 0.67501 0.35612
 C771 C 0.24295 0.54733 0.42867
 C772 C 0.24408 0.64299 0.32137
 C773 C 0.24197 0.60788 0.38513
 C774 C 0.24167 0.58945 0.39978
 C775 C 0.24197 0.56705 0.41583
 C776 C 0.24611 0.66926 0.32924
 H777 H 0.24108 0.60295 0.33331
 H778 H 0.24516 0.65967 0.39521
 H779 H 0.24789 0.69499 0.36286
 H780 H 0.24380 0.63776 0.30091
 C781 C 0.25576 0.84040 0.87723
 C782 C 0.25551 0.86699 0.87105
 C783 C 0.25391 0.87484 0.84492
 C784 C 0.25250 0.85611 0.82505
 C785 C 0.25511 0.93008 0.95185
 C786 C 0.25434 0.82170 0.85749
 C787 C 0.25626 0.88591 0.89182
 C788 C 0.25648 0.90079 0.91005
 C789 C 0.25611 0.91710 0.93225
 C790 C 0.25262 0.82928 0.83112
 H791 H 0.25692 0.83410 0.89739
 H792 H 0.25361 0.89539 0.83992
 H793 H 0.25119 0.86264 0.80499
 H794 H 0.25452 0.80128 0.86296
 C795 C 0.75409 0.33816 0.37660
 C796 C 0.75405 0.36475 0.37043
 C797 C 0.75251 0.37262 0.34429
 C798 C 0.75097 0.35390 0.32441
 C799 C 0.75459 0.42780 0.45126
 C800 C 0.75254 0.31947 0.35685
 C801 C 0.75502 0.38365 0.39120
 C802 C 0.75544 0.39852 0.40944
 C803 C 0.75534 0.41482 0.43165
 C804 C 0.75091 0.32707 0.33048
 H805 H 0.75520 0.33184 0.39675
 H806 H 0.75238 0.39317 0.33930
 H807 H 0.74974 0.36045 0.30436
 H808 H 0.75257 0.29904 0.36231
 C809 C 0.15871 0.25616 0.12117
 C810 C 0.13217 0.25586 0.12752
 C811 C 0.12454 0.25434 0.15370
 C812 C 0.14342 0.25307 0.17345
 C813 C 0.06831 0.25499 0.04722
 C814 C 0.17758 0.25487 0.14081
 C815 C 0.11305 0.25649 0.10690
 C816 C 0.09795 0.25661 0.08882
 C817 C 0.08141 0.25611 0.06676
 C818 C 0.17021 0.25325 0.16722
 H819 H 0.16485 0.25725 0.10097
 H820 H 0.10403 0.25400 0.15883
 H821 H 0.13704 0.25183 0.19355
 H822 H 0.19797 0.25509 0.13523
 C823 C 0.62765 0.75389 0.65370
 C824 C 0.63532 0.75539 0.62754
 C825 C 0.66186 0.75552 0.62120
 C826 C 0.68071 0.75410 0.64085
 C827 C 0.57119 0.75516 0.54750
 C828 C 0.64650 0.75248 0.67347
 C829 C 0.61622 0.75620 0.60692
 C830 C 0.60110 0.75646 0.58888
 C831 C 0.58446 0.75613 0.56692
 C832 C 0.67329 0.75252 0.66725
 H833 H 0.60713 0.75369 0.65882
 H834 H 0.66802 0.75660 0.60101
 H835 H 0.70110 0.75420 0.63529
 H836 H 0.64010 0.75128 0.69356
 C837 C 0.12233 0.74350 0.84158
 C838 C 0.12863 0.74349 0.86812
 C839 C 0.15482 0.74475 0.87589
 C840 C 0.17464 0.74608 0.85711
 C841 C 0.04775 0.74443 0.93098
 C842 C 0.14201 0.74484 0.82282
 C843 C 0.10792 0.74282 0.88708
 C844 C 0.08970 0.74271 0.90195
 C845 C 0.06744 0.74324 0.91817
 C846 C 0.16844 0.74621 0.83031
 H847 H 0.10212 0.74261 0.83534
 H848 H 0.15992 0.74485 0.89641
 H849 H 0.19475 0.74711 0.86357
 H850 H 0.13645 0.74487 0.80243
 C851 C 0.65310 0.24285 0.37526
 C852 C 0.62691 0.24149 0.36749
 C853 C 0.62060 0.24131 0.34095
 C854 C 0.64028 0.24258 0.32219
 C855 C 0.54623 0.24313 0.43053
 C856 C 0.67290 0.24409 0.35647
 C857 C 0.60622 0.24098 0.38645
 C858 C 0.58802 0.24102 0.40133
 C859 C 0.56583 0.24175 0.41761
 C860 C 0.66670 0.24406 0.32968
 H861 H 0.65819 0.24309 0.39578
 H862 H 0.60040 0.24035 0.33472
 H863 H 0.63471 0.24247 0.30180
 H864 H 0.69301 0.24522 0.36293
 C865 C 0.84529 0.74699 0.12525
 C866 C 0.87148 0.74573 0.13305
 C867 C 0.87772 0.74567 0.15962
 C868 C 0.85800 0.74695 0.17834
 C869 C 0.95250 0.74639 0.07027
 C870 C 0.82544 0.74825 0.14400
 C871 C 0.89225 0.74507 0.11413
 C872 C 0.91051 0.74492 0.09929
 C873 C 0.93279 0.74535 0.08309
 C874 C 0.83158 0.74831 0.17081
 H875 H 0.84024 0.74713 0.10472
 H876 H 0.89792 0.74477 0.16590
 H877 H 0.86353 0.74692 0.19874
 H878 H 0.80534 0.74929 0.13750
 C879 C 0.34446 0.24702 0.62675
 C880 C 0.37064 0.24585 0.63458
 C881 C 0.37688 0.24608 0.66114
 C882 C 0.35715 0.24753 0.67984
 C883 C 0.45142 0.24564 0.57154
 C884 C 0.32460 0.24845 0.64547
 C885 C 0.39139 0.24496 0.61567
 C886 C 0.40962 0.24462 0.60081
 C887 C 0.43182 0.24482 0.58452
 C888 C 0.33073 0.24878 0.67227
 H889 H 0.33941 0.24693 0.60621
 H890 H 0.39707 0.24525 0.66743
 H891 H 0.36267 0.24770 0.70024
 H892 H 0.30450 0.24939 0.63895
 C893 C 0.87508 0.25375 0.84635
 C894 C 0.86692 0.25512 0.87238
 C895 C 0.84026 0.25524 0.87820
 C896 C 0.82180 0.25393 0.85819
 C897 C 0.92882 0.25426 0.95421
 C898 C 0.85659 0.25246 0.82620
 C899 C 0.88556 0.25577 0.89344
 C900 C 0.90015 0.25589 0.91193
 C901 C 0.91610 0.25539 0.93442
 C902 C 0.82969 0.25246 0.83192
 H903 H 0.89569 0.25356 0.84163
 H904 H 0.83371 0.25621 0.89827
 H905 H 0.80132 0.25401 0.86340
 H906 H 0.86336 0.25135 0.80622
 C907 C 0.34033 0.75655 0.37801
 C908 C 0.36697 0.75651 0.37212
 C909 C 0.37507 0.75522 0.34606
 C910 C 0.35654 0.75392 0.32597
 C911 C 0.42928 0.75567 0.45358
 C912 C 0.32183 0.75524 0.35806
 C913 C 0.38566 0.75717 0.39311
 C914 C 0.40032 0.75730 0.41153
 C915 C 0.41640 0.75680 0.43391
 C916 C 0.32966 0.75385 0.33177
 H917 H 0.33384 0.75747 0.39811
 H918 H 0.39567 0.75509 0.34129
 H919 H 0.36325 0.75287 0.30597
 H920 H 0.30136 0.75526 0.36332
 C921 C 0.12467 0.15535 0.25309
 C922 C 0.13252 0.12916 0.25384
 C923 C 0.15911 0.12298 0.25341
 C924 C 0.17780 0.14277 0.25215
 C925 C 0.06981 0.04797 0.25306
 C926 C 0.14339 0.17527 0.25185
 C927 C 0.11361 0.10835 0.25448
 C928 C 0.09878 0.09005 0.25460
 C929 C 0.08260 0.06772 0.25413
 C930 C 0.17022 0.16919 0.25129
 H931 H 0.10413 0.16036 0.25333
 H932 H 0.16543 0.10279 0.25392
 H933 H 0.19822 0.13729 0.25179
 H934 H 0.13685 0.19537 0.25120
 C935 C 0.62763 0.65464 0.75347
 C936 C 0.63548 0.62846 0.75427
 C937 C 0.66204 0.62224 0.75377
 C938 C 0.68074 0.64199 0.75240
 C939 C 0.57227 0.54775 0.75380
 C940 C 0.64635 0.67453 0.75212
 C941 C 0.61656 0.60770 0.75501
 C942 C 0.60167 0.58948 0.75520
 C943 C 0.58533 0.56731 0.75481
 C944 C 0.67316 0.66841 0.75151
 H945 H 0.60709 0.65967 0.75377
 H946 H 0.66834 0.60204 0.75431
 H947 H 0.70115 0.63650 0.75200
 H948 H 0.63983 0.69463 0.75145
 C949 C 0.87871 0.15948 0.74314
 C950 C 0.87288 0.13283 0.74404
 C951 C 0.84684 0.12472 0.74601
 C952 C 0.82673 0.14326 0.74717
 C953 C 0.95455 0.07069 0.74583
 C954 C 0.85874 0.17798 0.74432
 C955 C 0.89391 0.11415 0.74365
 C956 C 0.91235 0.09949 0.74374
 C957 C 0.93479 0.08345 0.74449
 C958 C 0.83247 0.17015 0.74644
 H959 H 0.89879 0.16599 0.74169
 H960 H 0.84210 0.10413 0.74681
 H961 H 0.80676 0.13653 0.74881
 H962 H 0.86396 0.19846 0.74368
 C963 C 0.37840 0.66116 0.24224
 C964 C 0.37256 0.63452 0.24309
 C965 C 0.34655 0.62638 0.24521
 C966 C 0.32645 0.64489 0.24659
 C967 C 0.45391 0.57210 0.24436
 C968 C 0.35844 0.67964 0.24364
 C969 C 0.39357 0.61587 0.24252
 C970 C 0.41197 0.60120 0.24249
 C971 C 0.43431 0.58507 0.24312
 C972 C 0.33219 0.67178 0.24592
 H973 H 0.39846 0.66768 0.24068
 H974 H 0.34182 0.60578 0.24598
 H975 H 0.30649 0.63816 0.24834
 H976 H 0.36365 0.70012 0.24302
 C977 C 0.15429 0.87516 0.74650
 C978 C 0.12812 0.86752 0.74456
 C979 C 0.12179 0.84097 0.74371
 C980 C 0.14144 0.82210 0.74489
 C981 C 0.04780 0.93138 0.74598
 C982 C 0.17406 0.85628 0.74766
 C983 C 0.10748 0.88663 0.74409
 C984 C 0.08940 0.90173 0.74410
 C985 C 0.06735 0.91829 0.74475
 C986 C 0.16785 0.82948 0.74694
 H987 H 0.15941 0.89566 0.74726
 H988 H 0.10160 0.83482 0.74229
 H989 H 0.13588 0.80172 0.74426
 H990 H 0.19415 0.86267 0.74924
 C991 C 0.62005 0.33870 0.24281
 C992 C 0.62641 0.36523 0.24356
 C993 C 0.65257 0.37288 0.24553
 C994 C 0.67232 0.35401 0.24680
 C995 C 0.54659 0.42958 0.24473
 C996 C 0.63969 0.31983 0.24409
 C997 C 0.60581 0.38434 0.24300
 C998 C 0.58781 0.39950 0.24295
 C999 C 0.56592 0.41622 0.24353
 C1000 C 0.66609 0.32723 0.24617
 H1001 H 0.59986 0.33256 0.24137
 H1002 H 0.65769 0.39339 0.24622
 H1003 H 0.69241 0.36040 0.24839
 H1004 H 0.63412 0.29945 0.24353
 C1005 C 0.87697 0.84565 0.25611
 C1006 C 0.86920 0.87183 0.25763
 C1007 C 0.84263 0.87808 0.25800
 C1008 C 0.82386 0.85837 0.25673
 C1009 C 0.93173 0.95304 0.25553
 C1010 C 0.85817 0.82581 0.25486
 C1011 C 0.88815 0.89259 0.25804
 C1012 C 0.90297 0.91089 0.25789
 C1013 C 0.91907 0.93325 0.25702
 C1014 C 0.83135 0.83197 0.25505
 H1015 H 0.89750 0.84059 0.25571
 H1016 H 0.83639 0.89827 0.25909
 H1017 H 0.80346 0.86391 0.25697
 H1018 H 0.86463 0.80572 0.25356
 C1019 C 0.37594 0.34643 0.75765
 C1020 C 0.36813 0.37258 0.75918
 C1021 C 0.34157 0.37883 0.75949
 C1022 C 0.32283 0.35913 0.75813
 C1023 C 0.43098 0.45345 0.75707
 C1024 C 0.35717 0.32658 0.75632
 C1025 C 0.38705 0.39333 0.75963
 C1026 C 0.40188 0.41159 0.75949
 C1027 C 0.41809 0.43383 0.75860
 C1028 C 0.33036 0.33274 0.75643
 H1029 H 0.39648 0.34139 0.75730
 H1030 H 0.33531 0.39902 0.76058
 H1031 H 0.30242 0.36464 0.75831
 H1032 H 0.36364 0.30650 0.75502
 C1033 C 0.15841 0.24600 0.87915
 C1034 C 0.13185 0.24534 0.87291
 C1035 C 0.12395 0.24652 0.84677
 C1036 C 0.14263 0.24835 0.82692
 C1037 C 0.06918 0.24378 0.95378
 C1038 C 0.17706 0.24784 0.85944
 C1039 C 0.11300 0.24399 0.89364
 C1040 C 0.09823 0.24329 0.91190
 C1041 C 0.08207 0.24315 0.93415
 C1042 C 0.16944 0.24907 0.83306
 H1043 H 0.16472 0.24516 0.89932
 H1044 H 0.10340 0.24608 0.84174
 H1045 H 0.13609 0.24915 0.80683
 H1046 H 0.19748 0.24824 0.86495
 C1047 C 0.62487 0.74616 0.34560
 C1048 C 0.63279 0.74480 0.37173
 C1049 C 0.65937 0.74511 0.37792
 C1050 C 0.67802 0.74680 0.35818
 C1051 C 0.57031 0.74385 0.45282
 C1052 C 0.64355 0.74783 0.32573
 C1053 C 0.61396 0.74363 0.39251
 C1054 C 0.59921 0.74308 0.41080
 C1055 C 0.58310 0.74310 0.43312
 C1056 C 0.67038 0.74824 0.33182
 H1057 H 0.60431 0.74598 0.34061
 H1058 H 0.66572 0.74412 0.39808
 H1059 H 0.69845 0.74695 0.36366
 H1060 H 0.63698 0.74880 0.30566
 C1061 C 0.84820 0.75574 0.87378
 C1062 C 0.87439 0.75680 0.86609
 C1063 C 0.88077 0.75622 0.83959
 C1064 C 0.86112 0.75451 0.82078
 C1065 C 0.95442 0.75685 0.93013
 C1066 C 0.82843 0.75406 0.85495
 C1067 C 0.89499 0.75783 0.88516
 C1068 C 0.91304 0.75819 0.90026
 C1069 C 0.93501 0.75789 0.91687
 C1070 C 0.83469 0.75333 0.82820
 H1071 H 0.84306 0.75612 0.89427
 H1072 H 0.90099 0.75698 0.83343
 H1073 H 0.86671 0.75414 0.80041
 H1074 H 0.80831 0.75327 0.86136
 C1075 C 0.37801 0.25668 0.33940
 C1076 C 0.37166 0.25712 0.36592
 C1077 C 0.34546 0.25612 0.37361
 C1078 C 0.32568 0.25462 0.35478
 C1079 C 0.45178 0.25651 0.42992
 C1080 C 0.35834 0.25516 0.32059
 C1081 C 0.39229 0.25794 0.38499
 C1082 C 0.41035 0.25814 0.40009
 C1083 C 0.43234 0.25767 0.41670
 C1084 C 0.33190 0.25402 0.32802
 H1085 H 0.39822 0.25740 0.33323
 H1086 H 0.34034 0.25638 0.39411
 H1087 H 0.30555 0.25386 0.36120
 H1088 H 0.36390 0.25488 0.30021
 C1089 C 0.12176 0.75749 0.16031
 C1090 C 0.12765 0.75782 0.13370
 C1091 C 0.15371 0.75655 0.12555
 C1092 C 0.17382 0.75491 0.14404
 C1093 C 0.04603 0.75806 0.07167
 C1094 C 0.14172 0.75583 0.17877
 C1095 C 0.10664 0.75884 0.11508
 C1096 C 0.08817 0.75924 0.10049
 C1097 C 0.06574 0.75901 0.08451
 C1098 C 0.16802 0.75445 0.17090
 H1099 H 0.10166 0.75841 0.16683
 H1100 H 0.15847 0.75673 0.10496
 H1101 H 0.19383 0.75398 0.13732
 H1102 H 0.13647 0.75566 0.19923
 C1103 C 0.62205 0.25539 0.65997
 C1104 C 0.62800 0.25587 0.63337
 C1105 C 0.65409 0.25477 0.62529
 C1106 C 0.67416 0.25317 0.64383
 C1107 C 0.54632 0.25653 0.57135
 C1108 C 0.64198 0.25378 0.67847
 C1109 C 0.60701 0.25694 0.61469
 C1110 C 0.58855 0.25742 0.60009
 C1111 C 0.56608 0.25732 0.58412
 C1112 C 0.66831 0.25259 0.67067
 H1113 H 0.60193 0.25618 0.66644
 H1114 H 0.65890 0.25507 0.60471
 H1115 H 0.69420 0.25238 0.63714
 H1116 H 0.63668 0.25350 0.69892
 C1117 C 0.87294 0.24209 0.15455
 C1118 C 0.86497 0.24012 0.12848
 C1119 C 0.83837 0.23946 0.12240
 C1120 C 0.81976 0.24089 0.14219
 C1121 C 0.92768 0.24147 0.04756
 C1122 C 0.85430 0.24350 0.17447
 C1123 C 0.88377 0.23952 0.10765
 C1124 C 0.89854 0.23949 0.08936
 C1125 C 0.91473 0.24016 0.06713
 C1126 C 0.82745 0.24304 0.16849
 H1127 H 0.89351 0.24269 0.15945
 H1128 H 0.83199 0.23800 0.10228
 H1129 H 0.79931 0.24034 0.13680
 H1130 H 0.86091 0.24505 0.19449
 C1131 C 0.37489 0.74410 0.65530
 C1132 C 0.36695 0.74227 0.62921
 C1133 C 0.34035 0.74179 0.62310
 C1134 C 0.32171 0.74324 0.64287
 C1135 C 0.42964 0.74309 0.54821
 C1136 C 0.35622 0.74553 0.67521
 C1137 C 0.38578 0.74157 0.60839
 C1138 C 0.40056 0.74143 0.59010
 C1139 C 0.41675 0.74194 0.56784
 C1140 C 0.32937 0.74523 0.66920
 H1141 H 0.39545 0.74455 0.66024
 H1142 H 0.33398 0.74043 0.60297
 H1143 H 0.30127 0.74283 0.63746
 H1144 H 0.36281 0.74696 0.69524
 C1145 C 0.24312 0.16118 0.88001
 C1146 C 0.24335 0.13462 0.87377
 C1147 C 0.24504 0.12682 0.84765
 C1148 C 0.24654 0.14559 0.82783
 C1149 C 0.24389 0.07094 0.95406
 C1150 C 0.24464 0.17994 0.86032
 C1151 C 0.24253 0.11562 0.89445
 C1152 C 0.24232 0.10060 0.91255
 C1153 C 0.24276 0.08409 0.93458
 C1154 C 0.24646 0.17240 0.83396
 H1155 H 0.24187 0.16743 0.90018
 H1156 H 0.24530 0.10628 0.84262
 H1157 H 0.24783 0.13909 0.80777
 H1158 H 0.24438 0.20036 0.86579
 C1159 C 0.74592 0.62576 0.34594
 C1160 C 0.74428 0.63349 0.37209
 C1161 C 0.74410 0.66004 0.37840
 C1162 C 0.74561 0.67884 0.35875
 C1163 C 0.74471 0.56955 0.45216
 C1164 C 0.74742 0.64458 0.32617
 C1165 C 0.74345 0.61444 0.39271
 C1166 C 0.74321 0.59936 0.41077
 C1167 C 0.74362 0.58278 0.43275
 C1168 C 0.74738 0.67137 0.33237
 H1169 H 0.74614 0.60523 0.34085
 H1170 H 0.74289 0.66623 0.39858
 H1171 H 0.74539 0.69924 0.36428
 H1172 H 0.74867 0.63814 0.30609
 C1173 C 0.75226 0.15212 0.12379
 C1174 C 0.75323 0.12598 0.13173
 C1175 C 0.75250 0.11981 0.15829
 C1176 C 0.75081 0.13960 0.17689
 C1177 C 0.75444 0.04479 0.06930
 C1178 C 0.75058 0.17205 0.14243
 C1179 C 0.75446 0.10517 0.11293
 C1180 C 0.75508 0.08685 0.09820
 C1181 C 0.75514 0.06451 0.08210
 C1182 C 0.74979 0.16599 0.16923
 H1183 H 0.75276 0.15710 0.10325
 H1184 H 0.75318 0.09964 0.16464
 H1185 H 0.75036 0.13415 0.19731
 H1186 H 0.74995 0.19214 0.13586
 C1187 C 0.25422 0.62204 0.65887
 C1188 C 0.25471 0.62823 0.63231
 C1189 C 0.25367 0.65438 0.62440
 C1190 C 0.25213 0.67429 0.64306
 C1191 C 0.25511 0.54722 0.56965
 C1192 C 0.25267 0.64182 0.67751
 C1193 C 0.25574 0.60744 0.61347
 C1194 C 0.25616 0.58915 0.59869
 C1195 C 0.25599 0.56688 0.58253
 C1196 C 0.25156 0.66821 0.66987
 H1197 H 0.25496 0.60186 0.66520
 H1198 H 0.25398 0.65937 0.60386
 H1199 H 0.25142 0.69438 0.63651
 H1200 H 0.25238 0.63636 0.69792
 C1201 C 0.75690 0.84451 0.87384
 C1202 C 0.75795 0.87066 0.86594
 C1203 C 0.75795 0.87682 0.83936
 C1204 C 0.75684 0.85702 0.82071
 C1205 C 0.75634 0.95151 0.92887
 C1206 C 0.75580 0.82458 0.85516
 C1207 C 0.75842 0.89147 0.88480
 C1208 C 0.75838 0.90973 0.89963
 C1209 C 0.75767 0.93194 0.91590
 C1210 C 0.75568 0.83063 0.82834
 H1211 H 0.75682 0.83954 0.89439
 H1212 H 0.75870 0.89700 0.83303
 H1213 H 0.75689 0.86246 0.80029
 H1214 H 0.75501 0.80450 0.86172
 C1215 C 0.25462 0.34545 0.37365
 C1216 C 0.25555 0.37160 0.36572
 C1217 C 0.25525 0.37774 0.33915
 C1218 C 0.25399 0.35793 0.32052
 C1219 C 0.25496 0.45258 0.42850
 C1220 C 0.25337 0.32550 0.35500
 C1221 C 0.25626 0.39243 0.38455
 C1222 C 0.25644 0.41072 0.39935
 C1223 C 0.25602 0.43297 0.41556
 C1224 C 0.25297 0.33153 0.32818
 H1225 H 0.25478 0.34050 0.39421
 H1226 H 0.25591 0.39791 0.33279
 H1227 H 0.25382 0.36336 0.30010
 H1228 H 0.25270 0.30542 0.36158
 C1229 C 0.24346 0.84108 0.12203
 C1230 C 0.24340 0.86770 0.12800
 C1231 C 0.24488 0.87578 0.15406
 C1232 C 0.24646 0.85722 0.17409
 C1233 C 0.24327 0.92989 0.04655
 C1234 C 0.24506 0.82255 0.14192
 C1235 C 0.24243 0.88640 0.10705
 C1236 C 0.24206 0.90104 0.08863
 C1237 C 0.24231 0.91706 0.06624
 C1238 C 0.24666 0.83035 0.16823
 H1239 H 0.24237 0.83461 0.10193
 H1240 H 0.24491 0.89637 0.15888
 H1241 H 0.24757 0.86390 0.19411
 H1242 H 0.24503 0.80209 0.13662
 C1243 C 0.74514 0.37396 0.65371
 C1244 C 0.74374 0.36582 0.62767
 C1245 C 0.74384 0.33918 0.62177
 C1246 C 0.74542 0.32070 0.64171
 C1247 C 0.74355 0.42782 0.54607
 C1248 C 0.74670 0.35545 0.67380
 C1249 C 0.74278 0.38446 0.60667
 C1250 C 0.74241 0.39905 0.58822
 C1251 C 0.74264 0.41503 0.56579
 C1252 C 0.74693 0.32857 0.66800
 H1253 H 0.74513 0.39457 0.65848
 H1254 H 0.74281 0.33266 0.60168
 H1255 H 0.74543 0.30023 0.63646
 H1256 H 0.74774 0.36219 0.69380
 C1257 C 0.12305 0.16112 0.76205
 C1258 C 0.12903 0.13454 0.76056
 C1259 C 0.15502 0.12658 0.75770
 C1260 C 0.17497 0.14522 0.75618
 C1261 C 0.04790 0.07201 0.75905
 C1262 C 0.14286 0.17973 0.76051
 C1263 C 0.10814 0.11579 0.76113
 C1264 C 0.08980 0.10107 0.76113
 C1265 C 0.06750 0.08493 0.76041
 C1266 C 0.16907 0.17205 0.75742
 H1267 H 0.10299 0.16750 0.76421
 H1268 H 0.15985 0.10602 0.75645
 H1269 H 0.19493 0.13863 0.75388
 H1270 H 0.13755 0.20017 0.76169
 C1271 C 0.62385 0.66016 0.25997
 C1272 C 0.62986 0.63357 0.25859
 C1273 C 0.65590 0.62566 0.25594
 C1274 C 0.67584 0.64434 0.25455
 C1275 C 0.54857 0.57110 0.25729
 C1276 C 0.64365 0.67881 0.25855
 C1277 C 0.60898 0.61476 0.25914
 C1278 C 0.59064 0.60001 0.25916
 C1279 C 0.56829 0.58389 0.25853
 C1280 C 0.66991 0.67118 0.25570
 H1281 H 0.60376 0.66652 0.26197
 H1282 H 0.66077 0.60511 0.25478
 H1283 H 0.69582 0.63778 0.25243
 H1284 H 0.63830 0.69924 0.25964
 C1285 C 0.16038 0.87886 0.24263
 C1286 C 0.13376 0.87295 0.24162
 C1287 C 0.12558 0.84688 0.24242
 C1288 C 0.14403 0.82677 0.24427
 C1289 C 0.07169 0.95446 0.24121
 C1290 C 0.17880 0.85890 0.24450
 C1291 C 0.11516 0.89396 0.24046
 C1292 C 0.10058 0.91241 0.24001
 C1293 C 0.08458 0.93481 0.24023
 C1294 C 0.17089 0.83258 0.24542
 H1295 H 0.16692 0.89898 0.24209
 H1296 H 0.10498 0.84212 0.24172
 H1297 H 0.13728 0.80675 0.24484
 H1298 H 0.19926 0.86416 0.24522
 C1299 C 0.66027 0.37723 0.74264
 C1300 C 0.63365 0.37130 0.74189
 C1301 C 0.62552 0.34521 0.74275
 C1302 C 0.64403 0.32512 0.74442
 C1303 C 0.57165 0.45299 0.74190
 C1304 C 0.67874 0.35729 0.74434
 C1305 C 0.61498 0.39230 0.74091
 C1306 C 0.60037 0.41076 0.74057
 C1307 C 0.58440 0.43322 0.74088
 C1308 C 0.67090 0.33095 0.74534
 H1309 H 0.66678 0.39736 0.74204
 H1310 H 0.60493 0.34040 0.74223
 H1311 H 0.63731 0.30508 0.74506
 H1312 H 0.69921 0.36258 0.74488
 C1313 C 0.87251 0.15225 0.24245
 C1314 C 0.86471 0.12608 0.24149
 C1315 C 0.83817 0.11977 0.24213
 C1316 C 0.81943 0.13947 0.24382
 C1317 C 0.92887 0.04620 0.24204
 C1318 C 0.85376 0.17207 0.24412
 C1319 C 0.88372 0.10544 0.24058
 C1320 C 0.89882 0.08740 0.24035
 C1321 C 0.91549 0.06550 0.24084
 C1322 C 0.82697 0.16588 0.24493
 H1323 H 0.89303 0.15733 0.24204
 H1324 H 0.83194 0.09957 0.24145
 H1325 H 0.79903 0.13396 0.24426
 H1326 H 0.86025 0.19218 0.24485
 C1327 C 0.37441 0.65431 0.74359
 C1328 C 0.36663 0.62812 0.74274
 C1329 C 0.34007 0.62185 0.74332
 C1330 C 0.32132 0.64157 0.74485
 C1331 C 0.43049 0.54788 0.74339
 C1332 C 0.35565 0.67415 0.74510
 C1333 C 0.38564 0.60744 0.74193
 C1334 C 0.40071 0.58935 0.74174
 C1335 C 0.41729 0.56734 0.74222
 C1336 C 0.32885 0.66799 0.74585
 H1337 H 0.39494 0.65938 0.74322
 H1338 H 0.33382 0.60164 0.74272
 H1339 H 0.30091 0.63607 0.74527
 H1340 H 0.36214 0.69426 0.74576
 C1341 C 0.87981 0.84090 0.75843
 C1342 C 0.87364 0.86746 0.75750
 C1343 C 0.84760 0.87531 0.75467
 C1344 C 0.82780 0.85658 0.75268
 C1345 C 0.95444 0.93034 0.75808
 C1346 C 0.86014 0.82219 0.75641
 C1347 C 0.89437 0.88634 0.75867
 C1348 C 0.91262 0.90116 0.75916
 C1349 C 0.93484 0.91738 0.75900
 C1350 C 0.83388 0.82976 0.75340
 H1351 H 0.89991 0.83461 0.76056
 H1352 H 0.84264 0.89586 0.75386
 H1353 H 0.80780 0.86308 0.75047
 H1354 H 0.86558 0.80177 0.75720
 C1355 C 0.37700 0.34190 0.25761
 C1356 C 0.37085 0.36847 0.25665
 C1357 C 0.34478 0.37630 0.25398
 C1358 C 0.32495 0.35755 0.25218
 C1359 C 0.45198 0.43106 0.25692
 C1360 C 0.35731 0.32318 0.25579
 C1361 C 0.39162 0.38737 0.25767
 C1362 C 0.40991 0.40216 0.25807
 C1363 C 0.43224 0.41829 0.25785
 C1364 C 0.33102 0.33073 0.25294
 H1365 H 0.39711 0.33561 0.25961
 H1366 H 0.33981 0.39685 0.25315
 H1367 H 0.30493 0.36405 0.25009
 H1368 H 0.36276 0.30276 0.25659
   
