data_POSCAR
  _audit_creation_date              2014-09-24
  _audit_creation_method            'ToBaCCo'
  _symmetry_space_group_name_H-M    'P1'
  _symmetry_Int_Tables_number       1
  _symmetry_cell_setting            triclinic
  loop_
  _symmetry_equiv_pos_as_xyz
 x,y,z
_cell_length_a 111.7805
_cell_length_b 111.8155
_cell_length_c 112.1113
_cell_angle_alpha 89.968500
_cell_angle_beta 89.931000
_cell_angle_gamma 90.051900
loop_
  _atom_site_label
  _atom_site_type_symbol
  _atom_site_fract_x
  _atom_site_fract_y
  _atom_site_fract_z
N1 N 0.35226 0.31969 0.32752
 N2 N 0.35153 0.32749 0.31876
 C3 C 0.36119 0.32636 0.31166
 C4 C 0.36826 0.31739 0.31627
 C5 C 0.36239 0.31331 0.32629
 H6 H 0.36292 0.33162 0.30374
 H7 H 0.36526 0.30624 0.33222
 Cu8 Cu 0.33799 0.33827 0.31736
 Cu9 Cu 0.34008 0.31842 0.33986
 Cu10 Cu 0.31763 0.33971 0.33950
 N11 N 0.32656 0.35130 0.31841
 N12 N 0.31854 0.35174 0.32699
 C13 C 0.31188 0.36168 0.32568
 C14 C 0.31601 0.36773 0.31579
 C15 C 0.32531 0.36097 0.31135
 H16 H 0.30470 0.36438 0.33156
 H17 H 0.33080 0.36300 0.30365
 N18 N 0.31835 0.32678 0.35142
 N19 N 0.32694 0.31867 0.35158
 C20 C 0.32538 0.31152 0.36113
 C21 C 0.31538 0.31536 0.36720
 C22 C 0.31110 0.32499 0.36086
 H23 H 0.33123 0.30425 0.36367
 H24 H 0.30346 0.33046 0.36315
 H25 H 0.32587 0.32579 0.33057
 H26 H 0.33580 0.33640 0.33885
 N27 N 0.35225 0.81960 -0.17297
 N28 N 0.35202 0.82789 -0.18131
 C29 C 0.36174 0.82669 -0.18833
 C30 C 0.36828 0.81714 -0.18412
 C31 C 0.36207 0.81279 -0.17442
 H32 H 0.36396 0.83236 -0.19584
 H33 H 0.36455 0.80534 -0.16879
 Cu34 Cu 0.33916 0.83957 -0.18167
 Cu35 Cu 0.34001 0.81842 -0.16057
 Cu36 Cu 0.31738 0.83968 -0.16120
 N37 N 0.32677 0.85175 -0.18192
 N38 N 0.31820 0.85165 -0.17385
 C39 C 0.31109 0.86122 -0.17550
 C40 C 0.31552 0.86761 -0.18505
 C41 C 0.32546 0.86145 -0.18894
 H42 H 0.30351 0.86354 -0.16996
 H43 H 0.33145 0.86403 -0.19608
 N44 N 0.31818 0.82686 -0.14911
 N45 N 0.32682 0.81880 -0.14884
 C46 C 0.32528 0.81176 -0.13919
 C47 C 0.31526 0.81562 -0.13318
 C48 C 0.31093 0.82516 -0.13964
 H49 H 0.33117 0.80458 -0.13652
 H50 H 0.30329 0.83064 -0.13739
 H51 H 0.32638 0.82630 -0.17009
 H52 H 0.33556 0.83635 -0.16050
 N53 N 0.85215 0.31985 -0.17236
 N54 N 0.85170 0.32791 -0.18089
 C55 C 0.86142 0.32677 -0.18792
 C56 C 0.86824 0.31751 -0.18350
 C57 C 0.86216 0.31328 -0.17366
 H58 H 0.86336 0.33221 -0.19567
 H59 H 0.86480 0.30597 -0.16793
 Cu60 Cu 0.83843 0.33903 -0.18211
 Cu61 Cu 0.83984 0.31859 -0.16010
 Cu62 Cu 0.81792 0.34047 -0.16015
 N63 N 0.82730 0.35230 -0.18093
 N64 N 0.81920 0.35275 -0.17242
 C65 C 0.81264 0.36276 -0.17372
 C66 C 0.81693 0.36883 -0.18353
 C67 C 0.82621 0.36202 -0.18795
 H68 H 0.80533 0.36541 -0.16798
 H69 H 0.83170 0.36397 -0.19567
 N70 N 0.81824 0.32729 -0.14849
 N71 N 0.82661 0.31895 -0.14846
 C72 C 0.82485 0.31168 -0.13903
 C73 C 0.81495 0.31569 -0.13290
 C74 C 0.81093 0.32554 -0.13908
 H75 H 0.83053 0.30426 -0.13657
 H76 H 0.80348 0.33121 -0.13668
 H77 H 0.82594 0.32655 -0.16931
 H78 H 0.83606 0.33671 -0.16069
 N79 N 0.85201 0.81927 0.32769
 N80 N 0.85174 0.82751 0.31932
 C81 C 0.86146 0.82631 0.31231
 C82 C 0.86808 0.81685 0.31656
 C83 C 0.86189 0.81253 0.32628
 H84 H 0.86362 0.83194 0.30475
 H85 H 0.86441 0.80510 0.33193
 Cu86 Cu 0.83892 0.83920 0.31836
 Cu87 Cu 0.83973 0.81810 0.33994
 Cu88 Cu 0.81787 0.83995 0.33999
 N89 N 0.82721 0.85200 0.31935
 N90 N 0.81899 0.85225 0.32776
 C91 C 0.81220 0.86209 0.32637
 C92 C 0.81646 0.86827 0.31662
 C93 C 0.82595 0.86170 0.31233
 H94 H 0.80478 0.86458 0.33206
 H95 H 0.83155 0.86386 0.30475
 N96 N 0.81823 0.82679 0.35166
 N97 N 0.82658 0.81843 0.35163
 C98 C 0.82484 0.81115 0.36107
 C99 C 0.81499 0.81518 0.36725
 C100 C 0.81097 0.82505 0.36111
 H101 H 0.83050 0.80369 0.36347
 H102 H 0.80352 0.83071 0.36355
 H103 H 0.82609 0.82636 0.33056
 H104 H 0.83598 0.83623 0.33971
 N105 N 0.64784 0.68101 0.32793
 N106 N 0.64775 0.67240 0.31993
 C107 C 0.63803 0.67366 0.31293
 C108 C 0.63178 0.68354 0.31683
 C109 C 0.63819 0.68803 0.32632
 H110 H 0.63564 0.66787 0.30559
 H111 H 0.63595 0.69573 0.33170
 Cu112 Cu 0.66021 0.66026 0.31987
 Cu113 Cu 0.66012 0.68219 0.34020
 Cu114 Cu 0.68222 0.66033 0.34010
 N115 N 0.67245 0.64790 0.31987
 N116 N 0.68111 0.64806 0.32781
 C117 C 0.68817 0.63845 0.32618
 C118 C 0.68366 0.63200 0.31674
 C119 C 0.67373 0.63818 0.31288
 H120 H 0.69590 0.63625 0.33154
 H121 H 0.66790 0.63572 0.30559
 N122 N 0.68173 0.67347 0.35181
 N123 N 0.67331 0.68177 0.35187
 C124 C 0.67496 0.68895 0.36138
 C125 C 0.68484 0.68494 0.36752
 C126 C 0.68894 0.67517 0.36128
 H127 H 0.66919 0.69629 0.36389
 H128 H 0.69638 0.66949 0.36371
 H129 H 0.67342 0.67364 0.33084
 H130 H 0.66412 0.66419 0.34093
 N131 N 0.64902 0.18151 -0.17383
 N132 N 0.64912 0.17313 -0.18207
 C133 C 0.63946 0.17446 -0.18914
 C134 C 0.63307 0.18418 -0.18506
 C135 C 0.63932 0.18846 -0.17539
 H136 H 0.63705 0.16868 -0.19649
 H137 H 0.63684 0.19588 -0.16972
 Cu138 Cu 0.66144 0.16086 -0.18210
 Cu139 Cu 0.66092 0.18231 -0.16113
 Cu140 Cu 0.68292 0.16046 -0.16118
 N141 N 0.67378 0.14861 -0.18209
 N142 N 0.68218 0.14857 -0.17388
 C143 C 0.68921 0.13892 -0.17544
 C144 C 0.68493 0.13265 -0.18511
 C145 C 0.67515 0.13895 -0.18916
 H146 H 0.69664 0.13649 -0.16977
 H147 H 0.66934 0.13649 -0.19648
 N148 N 0.68213 0.17325 -0.14908
 N149 N 0.67374 0.18157 -0.14905
 C150 C 0.67520 0.18855 -0.13935
 C151 C 0.68492 0.18439 -0.13307
 C152 C 0.68914 0.17473 -0.13941
 H153 H 0.66945 0.19591 -0.13685
 H154 H 0.69656 0.16903 -0.13696
 H155 H 0.67442 0.17396 -0.17039
 H156 H 0.66484 0.16429 -0.16081
 N157 N 0.14872 0.68175 -0.17351
 N158 N 0.14880 0.67332 -0.18170
 C159 C 0.13915 0.67466 -0.18877
 C160 C 0.13277 0.68440 -0.18473
 C161 C 0.13904 0.68872 -0.17508
 H162 H 0.13676 0.66886 -0.19611
 H163 H 0.13657 0.69617 -0.16944
 Cu164 Cu 0.16119 0.66113 -0.18172
 Cu165 Cu 0.16065 0.68260 -0.16086
 Cu166 Cu 0.18269 0.66074 -0.16090
 N167 N 0.17347 0.64884 -0.18172
 N168 N 0.18192 0.64881 -0.17355
 C169 C 0.18892 0.63915 -0.17511
 C170 C 0.18460 0.63284 -0.18474
 C171 C 0.17484 0.63917 -0.18877
 H172 H 0.19635 0.63669 -0.16945
 H173 H 0.16900 0.63672 -0.19605
 N174 N 0.18189 0.67356 -0.14885
 N175 N 0.17350 0.68188 -0.14883
 C176 C 0.17500 0.68892 -0.13919
 C177 C 0.18474 0.68480 -0.13292
 C178 C 0.18895 0.67511 -0.13923
 H179 H 0.16928 0.69633 -0.13674
 H180 H 0.19641 0.66946 -0.13681
 H181 H 0.17415 0.67422 -0.17017
 H182 H 0.16455 0.66454 -0.16053
 N183 N 0.14898 0.18202 0.32676
 N184 N 0.14900 0.17356 0.31861
 C185 C 0.13932 0.17489 0.31157
 C186 C 0.13300 0.18468 0.31557
 C187 C 0.13931 0.18901 0.32519
 H188 H 0.13687 0.16905 0.30430
 H189 H 0.13684 0.19647 0.33081
 Cu190 Cu 0.16127 0.16124 0.31853
 Cu191 Cu 0.16093 0.18286 0.33936
 Cu192 Cu 0.18292 0.16091 0.33929
 N193 N 0.17359 0.14899 0.31856
 N194 N 0.18207 0.14897 0.32668
 C195 C 0.18907 0.13931 0.32509
 C196 C 0.18472 0.13300 0.31548
 C197 C 0.17492 0.13931 0.31150
 H198 H 0.19654 0.13685 0.33069
 H199 H 0.16906 0.13686 0.30424
 N200 N 0.18221 0.17379 0.35130
 N201 N 0.17384 0.18214 0.35133
 C202 C 0.17535 0.18915 0.36099
 C203 C 0.18507 0.18497 0.36725
 C204 C 0.18924 0.17528 0.36094
 H205 H 0.16961 0.19652 0.36350
 H206 H 0.19663 0.16955 0.36340
 H207 H 0.17433 0.17435 0.33007
 H208 H 0.16474 0.16472 0.33977
 N209 N 0.64871 0.31833 0.67316
 N210 N 0.64878 0.32679 0.68131
 C211 C 0.63915 0.32543 0.68843
 C212 C 0.63284 0.31561 0.68450
 C213 C 0.63909 0.31127 0.67483
 H214 H 0.63676 0.33127 0.69574
 H215 H 0.63667 0.30374 0.66928
 Cu216 Cu 0.66101 0.33917 0.68128
 Cu217 Cu 0.66061 0.31753 0.66050
 Cu218 Cu 0.68248 0.33955 0.66029
 N219 N 0.67334 0.35145 0.68107
 N220 N 0.68173 0.35154 0.67284
 C221 C 0.68878 0.36118 0.67443
 C222 C 0.68452 0.36740 0.68414
 C223 C 0.67475 0.36106 0.68818
 H224 H 0.69629 0.36359 0.66881
 H225 H 0.66900 0.36341 0.69557
 N226 N 0.68173 0.32667 0.64836
 N227 N 0.67340 0.31828 0.64843
 C228 C 0.67496 0.31114 0.63887
 C229 C 0.68469 0.31529 0.63256
 C230 C 0.68880 0.32509 0.63875
 H231 H 0.66930 0.30367 0.63651
 H232 H 0.69622 0.33079 0.63627
 H233 H 0.67409 0.32609 0.66979
 H234 H 0.66440 0.33564 0.66012
 N235 N 0.64842 0.81830 1.17308
 N236 N 0.64855 0.82671 1.18128
 C237 C 0.63896 0.82533 1.18846
 C238 C 0.63261 0.81554 1.18450
 C239 C 0.63878 0.81128 1.17476
 H240 H 0.63661 0.83112 1.19582
 H241 H 0.63629 0.80381 1.16917
 Cu242 Cu 0.66091 0.83893 1.18129
 Cu243 Cu 0.66034 0.81745 1.16041
 Cu244 Cu 0.68249 0.83925 1.16049
 N245 N 0.67328 0.85116 1.18130
 N246 N 0.68175 0.85117 1.17314
 C247 C 0.68881 0.86079 1.17475
 C248 C 0.68451 0.86708 1.18439
 C249 C 0.67467 0.86081 1.18838
 H250 H 0.69633 0.86319 1.16916
 H251 H 0.66884 0.86327 1.19568
 N252 N 0.68165 0.82644 1.14845
 N253 N 0.67320 0.81816 1.14839
 C254 C 0.67468 0.81115 1.13873
 C255 C 0.68449 0.81524 1.13250
 C256 C 0.68872 0.82490 1.13883
 H257 H 0.66890 0.80380 1.13624
 H258 H 0.69621 0.83054 1.13643
 H259 H 0.67393 0.82571 1.16975
 H260 H 0.66443 0.83541 1.16012
 N261 N 0.14857 0.31871 1.17314
 N262 N 0.14872 0.32709 1.18137
 C263 C 0.13910 0.32574 1.18851
 C264 C 0.13270 0.31601 1.18448
 C265 C 0.13889 0.31173 1.17476
 H266 H 0.13677 0.33150 1.19591
 H267 H 0.13641 0.30427 1.16915
 Cu268 Cu 0.16119 0.33920 1.18141
 Cu269 Cu 0.16051 0.31781 1.16049
 Cu270 Cu 0.18267 0.33965 1.16054
 N271 N 0.17348 0.35150 1.18141
 N272 N 0.18190 0.35157 1.17319
 C273 C 0.18893 0.36121 1.17477
 C274 C 0.18464 0.36746 1.18445
 C275 C 0.17486 0.36114 1.18849
 H276 H 0.19641 0.36365 1.16914
 H277 H 0.16906 0.36357 1.19583
 N278 N 0.18183 0.32681 1.14852
 N279 N 0.17339 0.31851 1.14849
 C280 C 0.17491 0.31143 1.13888
 C281 C 0.18473 0.31550 1.13266
 C282 C 0.18894 0.32521 1.13893
 H283 H 0.16917 0.30405 1.13643
 H284 H 0.19643 0.33083 1.13653
 H285 H 0.17413 0.32611 1.16972
 H286 H 0.16456 0.33585 1.16019
 N287 N 0.14840 0.81872 0.67297
 N288 N 0.14887 0.82672 0.68156
 C289 C 0.13923 0.82540 0.68867
 C290 C 0.13246 0.81609 0.68425
 C291 C 0.13847 0.81203 0.67432
 H292 H 0.13722 0.83087 0.69637
 H293 H 0.13574 0.80488 0.66843
 Cu294 Cu 0.16185 0.83825 0.68252
 Cu295 Cu 0.16033 0.81792 0.66037
 Cu296 Cu 0.18171 0.84030 0.65997
 N297 N 0.17285 0.85166 0.68117
 N298 N 0.18063 0.85237 0.67239
 C299 C 0.18715 0.86242 0.67365
 C300 C 0.18321 0.86825 0.68374
 C301 C 0.17415 0.86124 0.68834
 H302 H 0.19422 0.86527 0.66769
 H303 H 0.16893 0.86299 0.69628
 N304 N 0.18129 0.82727 0.64817
 N305 N 0.17315 0.81870 0.64834
 C306 C 0.17489 0.81146 0.63890
 C307 C 0.18455 0.81573 0.63256
 C308 C 0.18843 0.82571 0.63861
 H309 H 0.16939 0.80384 0.63662
 H310 H 0.19574 0.83153 0.63607
 H311 H 0.17428 0.82614 0.66929
 H312 H 0.16372 0.83608 0.66099
 N313 N 0.35179 0.68144 0.67242
 N314 N 0.35129 0.67337 0.68095
 C315 C 0.36094 0.67458 0.68804
 C316 C 0.36776 0.68387 0.68366
 C317 C 0.36175 0.68807 0.67379
 H318 H 0.36289 0.66906 0.69572
 H319 H 0.36447 0.69533 0.66800
 Cu320 Cu 0.33826 0.66191 0.68193
 Cu321 Cu 0.33977 0.68243 0.65994
 Cu322 Cu 0.31836 0.66005 0.65946
 N323 N 0.32734 0.64848 0.68049
 N324 N 0.31954 0.64782 0.67174
 C325 C 0.31308 0.63773 0.67294
 C326 C 0.31709 0.63180 0.68294
 C327 C 0.32612 0.63881 0.68757
 H328 H 0.30598 0.63493 0.66702
 H329 H 0.33136 0.63703 0.69547
 N330 N 0.31870 0.67324 0.64784
 N331 N 0.32684 0.68181 0.64806
 C332 C 0.32505 0.68917 0.63872
 C333 C 0.31536 0.68500 0.63240
 C334 C 0.31151 0.67493 0.63835
 H335 H 0.33057 0.69680 0.63648
 H336 H 0.30423 0.66911 0.63575
 H337 H 0.32582 0.67414 0.66883
 H338 H 0.33638 0.66425 0.66045
 N339 N 0.35149 0.18196 1.17315
 N340 N 0.35151 0.17348 1.18129
 C341 C 0.36116 0.17489 1.18837
 C342 C 0.36741 0.18474 1.18439
 C343 C 0.36109 0.18905 1.17477
 H344 H 0.36363 0.16905 1.19565
 H345 H 0.36348 0.19658 1.16919
 Cu346 Cu 0.33932 0.16106 1.18126
 Cu347 Cu 0.33955 0.18269 1.16052
 Cu348 Cu 0.31782 0.16046 1.16041
 N349 N 0.32713 0.14865 1.18122
 N350 N 0.31872 0.14852 1.17302
 C351 C 0.31169 0.13889 1.17471
 C352 C 0.31595 0.13272 1.18445
 C353 C 0.32573 0.13908 1.18841
 H354 H 0.30418 0.13642 1.16914
 H355 H 0.33149 0.13677 1.19581
 N356 N 0.31849 0.17334 1.14842
 N357 N 0.32673 0.18182 1.14849
 C358 C 0.32512 0.18892 1.13891
 C359 C 0.31546 0.18467 1.13260
 C360 C 0.31143 0.17483 1.13880
 H361 H 0.33071 0.19646 1.13654
 H362 H 0.30407 0.16905 1.13634
 H363 H 0.32608 0.17405 1.16979
 H364 H 0.33580 0.16461 1.16011
 N365 N 0.85210 0.68090 1.17221
 N366 N 0.85205 0.67254 1.18048
 C367 C 0.86169 0.67400 1.18754
 C368 C 0.86801 0.68376 1.18342
 C369 C 0.86175 0.68796 1.17371
 H370 H 0.86406 0.66834 1.19499
 H371 H 0.86410 0.69547 1.16809
 Cu372 Cu 0.83956 0.66044 1.18082
 Cu373 Cu 0.83993 0.68177 1.15980
 Cu374 Cu 0.81774 0.66003 1.16036
 N375 N 0.82722 0.64818 1.18112
 N376 N 0.81867 0.64815 1.17306
 C377 C 0.81157 0.63859 1.17484
 C378 C 0.81592 0.63236 1.18450
 C379 C 0.82585 0.63859 1.18830
 H380 H 0.80399 0.63619 1.16934
 H381 H 0.83176 0.63614 1.19554
 N382 N 0.81841 0.67280 1.14825
 N383 N 0.82686 0.68107 1.14805
 C384 C 0.82518 0.68816 1.13848
 C385 C 0.81526 0.68410 1.13244
 C386 C 0.81114 0.67440 1.13881
 H387 H 0.83085 0.69557 1.13594
 H388 H 0.80355 0.66882 1.13660
 H389 H 0.82645 0.67353 1.16943
 H390 H 0.83581 0.66374 1.15970
 N391 N 0.85170 0.18137 0.67282
 N392 N 0.85113 0.17334 0.68139
 C393 C 0.86076 0.17453 0.68851
 C394 C 0.86764 0.18378 0.68412
 C395 C 0.86169 0.18796 0.67421
 H396 H 0.86266 0.16903 0.69622
 H397 H 0.86448 0.19515 0.66838
 Cu398 Cu 0.83800 0.16200 0.68234
 Cu399 Cu 0.83973 0.18236 0.66028
 Cu400 Cu 0.81808 0.16024 0.65991
 N401 N 0.82691 0.14871 0.68103
 N402 N 0.81908 0.14809 0.67230
 C403 C 0.81257 0.13802 0.67353
 C404 C 0.81660 0.13209 0.68352
 C405 C 0.82568 0.13905 0.68810
 H406 H 0.80549 0.13520 0.66759
 H407 H 0.83101 0.13720 0.69593
 N408 N 0.81862 0.17332 0.64816
 N409 N 0.82687 0.18179 0.64833
 C410 C 0.82525 0.18904 0.63887
 C411 C 0.81557 0.18489 0.63253
 C412 C 0.81154 0.17496 0.63858
 H413 H 0.83089 0.19655 0.63656
 H414 H 0.80422 0.16919 0.63600
 H415 H 0.82568 0.17424 0.66920
 H416 H 0.83612 0.16419 0.66086
 N417 N 0.31849 0.35189 0.67298
 N418 N 0.32720 0.35211 0.68086
 C419 C 0.32576 0.36170 0.68798
 C420 C 0.31560 0.36765 0.68440
 C421 C 0.31118 0.36126 0.67487
 H422 H 0.33163 0.36415 0.69522
 H423 H 0.30338 0.36343 0.66958
 Cu424 Cu 0.33965 0.33997 0.68099
 Cu425 Cu 0.31761 0.33983 0.66052
 Cu426 Cu 0.34005 0.31845 0.65998
 N427 N 0.35232 0.32809 0.68029
 N428 N 0.35235 0.31960 0.67217
 C429 C 0.36195 0.31253 0.67385
 C430 C 0.36822 0.31689 0.68349
 C431 C 0.36195 0.32675 0.68736
 H432 H 0.36426 0.30484 0.66845
 H433 H 0.36413 0.33238 0.69487
 N434 N 0.32688 0.31883 0.64833
 N435 N 0.31832 0.32696 0.64854
 C436 C 0.31109 0.32526 0.63908
 C437 C 0.31534 0.31564 0.63270
 C438 C 0.32533 0.31175 0.63874
 H439 H 0.30348 0.33078 0.63681
 H440 H 0.33118 0.30451 0.63614
 H441 H 0.32658 0.32655 0.66980
 H442 H 0.33574 0.33641 0.65990
 N443 N 0.31877 0.85224 0.17237
 N444 N 0.32674 0.85170 0.18097
 C445 C 0.32556 0.86138 0.18803
 C446 C 0.31638 0.86826 0.18356
 C447 C 0.31223 0.86226 0.17366
 H448 H 0.33100 0.86329 0.19578
 H449 H 0.30505 0.86502 0.16781
 Cu450 Cu 0.33792 0.83849 0.18212
 Cu451 Cu 0.31768 0.84011 0.15996
 Cu452 Cu 0.33985 0.81852 0.15974
 N453 N 0.35139 0.82763 0.18075
 N454 N 0.35207 0.81978 0.17204
 C455 C 0.36219 0.81338 0.17326
 C456 C 0.36811 0.81751 0.18322
 C457 C 0.36107 0.82652 0.18780
 H458 H 0.36502 0.80626 0.16738
 H459 H 0.36285 0.83182 0.19567
 N460 N 0.32669 0.81884 0.14807
 N461 N 0.31822 0.82707 0.14815
 C462 C 0.31094 0.82529 0.13875
 C463 C 0.31508 0.81551 0.13252
 C464 C 0.32503 0.81160 0.13861
 H465 H 0.30339 0.83085 0.13640
 H466 H 0.33078 0.80424 0.13614
 H467 H 0.32571 0.82611 0.16897
 H468 H 0.33581 0.83655 0.16066
 N469 N 0.81955 0.35223 0.17175
 N470 N 0.82765 0.35181 0.18024
 C471 C 0.82657 0.36156 0.18720
 C472 C 0.81730 0.36837 0.18280
 C473 C 0.81301 0.36225 0.17303
 H474 H 0.83206 0.36354 0.19490
 H475 H 0.80570 0.36489 0.16730
 Cu476 Cu 0.83874 0.33852 0.18148
 Cu477 Cu 0.81822 0.33988 0.15957
 Cu478 Cu 0.84012 0.31798 0.15959
 N479 N 0.85201 0.32741 0.18028
 N480 N 0.85244 0.31930 0.17179
 C481 C 0.86246 0.31275 0.17309
 C482 C 0.86856 0.31703 0.18287
 C483 C 0.86175 0.32631 0.18726
 H484 H 0.86511 0.30544 0.16736
 H485 H 0.86372 0.33181 0.19496
 N486 N 0.82688 0.31827 0.14799
 N487 N 0.81853 0.32662 0.14798
 C488 C 0.81124 0.32485 0.13858
 C489 C 0.81526 0.31497 0.13243
 C490 C 0.82513 0.31097 0.13859
 H491 H 0.80379 0.33052 0.13615
 H492 H 0.83080 0.30352 0.13618
 H493 H 0.82619 0.32600 0.16877
 H494 H 0.83630 0.33609 0.16006
 N495 N 0.81933 0.85273 0.67189
 N496 N 0.82734 0.85231 0.68046
 C497 C 0.82610 0.86201 0.68748
 C498 C 0.81682 0.86878 0.68302
 C499 C 0.81269 0.86270 0.67316
 H500 H 0.83148 0.86399 0.69524
 H501 H 0.80543 0.86531 0.66736
 Cu502 Cu 0.83856 0.83912 0.68175
 Cu503 Cu 0.81817 0.84044 0.65966
 Cu504 Cu 0.84014 0.81863 0.65980
 N505 N 0.85186 0.82801 0.68059
 N506 N 0.85238 0.81995 0.67207
 C507 C 0.86237 0.81338 0.67342
 C508 C 0.86838 0.81760 0.68329
 C509 C 0.86154 0.82687 0.68766
 H510 H 0.86507 0.80609 0.66769
 H511 H 0.86344 0.83232 0.69540
 N512 N 0.82701 0.81891 0.64813
 N513 N 0.81863 0.82724 0.64804
 C514 C 0.81135 0.82537 0.63865
 C515 C 0.81539 0.81543 0.63262
 C516 C 0.82528 0.81152 0.63880
 H517 H 0.80388 0.83098 0.63618
 H518 H 0.83096 0.80406 0.63648
 H519 H 0.82614 0.82658 0.66894
 H520 H 0.83630 0.83673 0.66033
 N521 N 0.68174 0.64858 0.67352
 N522 N 0.67333 0.64864 0.68175
 C523 C 0.67467 0.63897 0.68880
 C524 C 0.68444 0.63264 0.68475
 C525 C 0.68874 0.63893 0.67508
 H526 H 0.66890 0.63657 0.69618
 H527 H 0.69623 0.63653 0.66945
 Cu528 Cu 0.66114 0.66104 0.68180
 Cu529 Cu 0.68255 0.66053 0.66087
 Cu530 Cu 0.66055 0.68247 0.66092
 N531 N 0.64871 0.67320 0.68180
 N532 N 0.64862 0.68162 0.67359
 C533 C 0.63896 0.68861 0.67519
 C534 C 0.63270 0.68429 0.68486
 C535 C 0.63905 0.67453 0.68888
 H536 H 0.63654 0.69609 0.66958
 H537 H 0.63668 0.66876 0.69627
 N538 N 0.67339 0.68173 0.64887
 N539 N 0.68175 0.67339 0.64884
 C540 C 0.68878 0.67493 0.63918
 C541 C 0.68459 0.68465 0.63291
 C542 C 0.67487 0.68879 0.63923
 H543 H 0.69619 0.66923 0.63670
 H544 H 0.66915 0.69619 0.63681
 H545 H 0.67416 0.67407 0.67015
 H546 H 0.66452 0.66442 0.66059
 N547 N 0.68203 0.14849 0.17340
 N548 N 0.67359 0.14855 0.18158
 C549 C 0.67489 0.13886 0.18864
 C550 C 0.68465 0.13251 0.18461
 C551 C 0.68900 0.13882 0.17498
 H552 H 0.66908 0.13644 0.19598
 H553 H 0.69652 0.13640 0.16940
 Cu554 Cu 0.66129 0.16082 0.18158
 Cu555 Cu 0.68285 0.16043 0.16075
 Cu556 Cu 0.66084 0.18236 0.16075
 N557 N 0.64898 0.17309 0.18158
 N558 N 0.64890 0.18152 0.17340
 C559 C 0.63924 0.18851 0.17503
 C560 C 0.63298 0.18418 0.18469
 C561 C 0.63933 0.17442 0.18870
 H562 H 0.63683 0.19604 0.16948
 H563 H 0.63696 0.16865 0.19608
 N564 N 0.67369 0.18163 0.14870
 N565 N 0.68207 0.17329 0.14870
 C566 C 0.68910 0.17482 0.13904
 C567 C 0.68490 0.18453 0.13275
 C568 C 0.67518 0.18867 0.13906
 H569 H 0.69653 0.16914 0.13659
 H570 H 0.66945 0.19606 0.13661
 H571 H 0.67442 0.17393 0.17002
 H572 H 0.66486 0.16434 0.16038
 N573 N 0.18167 0.64861 0.17323
 N574 N 0.17356 0.64899 0.18173
 C575 C 0.17484 0.63934 0.18882
 C576 C 0.18424 0.63266 0.18449
 C577 C 0.18841 0.63874 0.17464
 H578 H 0.16924 0.63720 0.19640
 H579 H 0.19567 0.63609 0.16882
 Cu580 Cu 0.16169 0.66168 0.18256
 Cu581 Cu 0.18250 0.66057 0.16067
 Cu582 Cu 0.16069 0.68244 0.16068
 N583 N 0.14902 0.67358 0.18173
 N584 N 0.14871 0.68168 0.17323
 C585 C 0.13887 0.68847 0.17459
 C586 C 0.13272 0.68435 0.18443
 C587 C 0.13934 0.67492 0.18878
 H588 H 0.13626 0.69572 0.16876
 H589 H 0.13715 0.66934 0.19637
 N590 N 0.17353 0.68177 0.14867
 N591 N 0.18187 0.67341 0.14866
 C592 C 0.18896 0.67496 0.13904
 C593 C 0.18483 0.68471 0.13277
 C594 C 0.17510 0.68887 0.13907
 H595 H 0.19640 0.66928 0.13660
 H596 H 0.16945 0.69633 0.13665
 H597 H 0.17443 0.67430 0.17003
 H598 H 0.16439 0.66430 0.16115
 N599 N 0.18111 0.14769 0.67292
 N600 N 0.17382 0.14869 0.68209
 C601 C 0.17541 0.13928 0.68943
 C602 C 0.18414 0.13208 0.68454
 C603 C 0.18761 0.13763 0.67412
 H604 H 0.17049 0.13770 0.69760
 H605 H 0.19424 0.13451 0.66782
 Cu606 Cu 0.16254 0.16185 0.68322
 Cu607 Cu 0.18144 0.15929 0.65995
 Cu608 Cu 0.16096 0.18251 0.66158
 N609 N 0.14860 0.17209 0.68149
 N610 N 0.14802 0.18014 0.67295
 C611 C 0.13774 0.18630 0.67401
 C612 C 0.13160 0.18184 0.68372
 C613 C 0.13869 0.17285 0.68830
 H614 H 0.13504 0.19359 0.66827
 H615 H 0.13689 0.16745 0.69612
 N616 N 0.17258 0.18088 0.64846
 N617 N 0.18033 0.17199 0.64778
 C618 C 0.18689 0.17329 0.63777
 C619 C 0.18302 0.18341 0.63195
 C620 C 0.17398 0.18805 0.63890
 H621 H 0.19399 0.16737 0.63493
 H622 H 0.16882 0.19603 0.63711
 H623 H 0.17522 0.17357 0.66948
 H624 H 0.16370 0.16445 0.66170
 N625 N 0.31837 0.64845 0.32716
 N626 N 0.32694 0.64850 0.31911
 C627 C 0.32560 0.63895 0.31192
 C628 C 0.31569 0.63267 0.31569
 C629 C 0.31129 0.63886 0.32536
 H630 H 0.33139 0.63673 0.30452
 H631 H 0.30364 0.63646 0.33078
 Cu632 Cu 0.33907 0.66094 0.31880
 Cu633 Cu 0.31743 0.66044 0.33965
 Cu634 Cu 0.33933 0.68246 0.33974
 N635 N 0.35143 0.67317 0.31922
 N636 N 0.35142 0.68168 0.32732
 C637 C 0.36099 0.68881 0.32559
 C638 C 0.36724 0.68448 0.31592
 C639 C 0.36101 0.67459 0.31208
 H640 H 0.36335 0.69641 0.33107
 H641 H 0.36330 0.66885 0.30467
 N642 N 0.32637 0.68169 0.35162
 N643 N 0.31804 0.67330 0.35159
 C644 C 0.31092 0.67480 0.36119
 C645 C 0.31501 0.68456 0.36745
 C646 C 0.32478 0.68874 0.36123
 H647 H 0.30353 0.66905 0.36362
 H648 H 0.33046 0.69616 0.36371
 H649 H 0.32591 0.67395 0.33018
 H650 H 0.33551 0.66434 0.33991
 N651 N 0.31855 0.14851 0.82715
 N652 N 0.32644 0.14913 0.81846
 C653 C 0.32522 0.13950 0.81135
 C654 C 0.31609 0.13255 0.81588
 C655 C 0.31202 0.13846 0.82587
 H656 H 0.33063 0.13763 0.80357
 H657 H 0.30496 0.13561 0.83184
 Cu658 Cu 0.33769 0.16233 0.81731
 Cu659 Cu 0.31764 0.16047 0.83970
 Cu660 Cu 0.33953 0.18241 0.83960
 N661 N 0.35088 0.17360 0.81836
 N662 N 0.35149 0.18151 0.82702
 C663 C 0.36153 0.18805 0.82570
 C664 C 0.36746 0.18395 0.81572
 C665 C 0.36052 0.17481 0.81124
 H666 H 0.36438 0.19513 0.83162
 H667 H 0.36241 0.16939 0.80348
 N668 N 0.32664 0.18176 0.85158
 N669 N 0.31829 0.17338 0.85163
 C670 C 0.31120 0.17496 0.86123
 C671 C 0.31533 0.18476 0.86743
 C672 C 0.32508 0.18889 0.86114
 H673 H 0.30380 0.16925 0.86373
 H674 H 0.33078 0.19631 0.86354
 H675 H 0.32544 0.17456 0.83059
 H676 H 0.33574 0.16430 0.83883
 N677 N 0.81832 0.64839 0.82686
 N678 N 0.82671 0.64852 0.81862
 C679 C 0.82535 0.63891 0.81149
 C680 C 0.81558 0.63253 0.81552
 C681 C 0.81133 0.63872 0.82526
 H682 H 0.83111 0.63658 0.80410
 H683 H 0.80387 0.63624 0.83089
 Cu684 Cu 0.83888 0.66095 0.81851
 Cu685 Cu 0.81748 0.66035 0.83946
 Cu686 Cu 0.83918 0.68259 0.83923
 N687 N 0.85106 0.67336 0.81841
 N688 N 0.85108 0.68186 0.82653
 C689 C 0.86072 0.68890 0.82488
 C690 C 0.86701 0.68454 0.81524
 C691 C 0.86072 0.67469 0.81133
 H692 H 0.86318 0.69637 0.83047
 H693 H 0.86320 0.66878 0.80411
 N694 N 0.82638 0.68174 0.85132
 N695 N 0.81814 0.67325 0.85141
 C696 C 0.81117 0.67465 0.86112
 C697 C 0.81523 0.68445 0.86735
 C698 C 0.82485 0.68876 0.86098
 H699 H 0.80392 0.66878 0.86369
 H700 H 0.83052 0.69620 0.86341
 H701 H 0.82574 0.67392 0.83009
 H702 H 0.83548 0.66451 0.83973
 N703 N 0.81904 0.14799 0.32733
 N704 N 0.82729 0.14827 0.31896
 C705 C 0.82599 0.13861 0.31189
 C706 C 0.81644 0.13204 0.31610
 C707 C 0.81221 0.13818 0.32588
 H708 H 0.83160 0.13644 0.30433
 H709 H 0.80482 0.13564 0.33158
 Cu710 Cu 0.83915 0.16098 0.31825
 Cu711 Cu 0.81800 0.16010 0.33972
 Cu712 Cu 0.83940 0.18249 0.33934
 N713 N 0.85140 0.17335 0.31862
 N714 N 0.85139 0.18176 0.32682
 C715 C 0.86105 0.18880 0.32529
 C716 C 0.86738 0.18453 0.31565
 C717 C 0.86109 0.17475 0.31160
 H718 H 0.86344 0.19628 0.33092
 H719 H 0.86354 0.16896 0.30427
 N720 N 0.82655 0.18170 0.35132
 N721 N 0.81842 0.17313 0.35150
 C722 C 0.81133 0.17463 0.36111
 C723 C 0.81524 0.18459 0.36719
 C724 C 0.82486 0.18889 0.36081
 H725 H 0.80409 0.16876 0.36370
 H726 H 0.83040 0.19647 0.36313
 H727 H 0.82599 0.17371 0.33012
 H728 H 0.83602 0.16426 0.33955
 N729 N 0.68149 0.35138 0.32713
 N730 N 0.67378 0.35060 0.31830
 C731 C 0.67500 0.36023 0.31117
 C732 C 0.68394 0.36732 0.31582
 C733 C 0.68790 0.36151 0.32591
 H734 H 0.66973 0.36199 0.30328
 H735 H 0.69481 0.36449 0.33197
 Cu736 Cu 0.66279 0.33721 0.31703
 Cu737 Cu 0.68238 0.33941 0.33968
 Cu738 Cu 0.66058 0.31739 0.33954
 N739 N 0.64946 0.32613 0.31816
 N740 N 0.64869 0.31832 0.32690
 C741 C 0.63856 0.31192 0.32563
 C742 C 0.63275 0.31598 0.31559
 C743 C 0.63983 0.32499 0.31103
 H744 H 0.63556 0.30498 0.33166
 H745 H 0.63805 0.33040 0.30323
 N746 N 0.67341 0.31807 0.35155
 N747 N 0.68172 0.32648 0.35160
 C748 C 0.68883 0.32489 0.36116
 C749 C 0.68476 0.31505 0.36734
 C750 C 0.67501 0.31090 0.36108
 H751 H 0.69623 0.33061 0.36363
 H752 H 0.66936 0.30342 0.36347
 H753 H 0.67482 0.32515 0.33062
 H754 H 0.66434 0.33546 0.33858
 N755 N 0.68135 0.85171 0.82735
 N756 N 0.67308 0.85158 0.81902
 C757 C 0.67467 0.86109 0.81180
 C758 C 0.68440 0.86744 0.81591
 C759 C 0.68848 0.86130 0.82575
 H760 H 0.66911 0.86334 0.80425
 H761 H 0.69591 0.86373 0.83142
 Cu762 Cu 0.66075 0.83931 0.81877
 Cu763 Cu 0.68191 0.83979 0.84002
 Cu764 Cu 0.66000 0.81780 0.83971
 N765 N 0.64849 0.82697 0.81867
 N766 N 0.64828 0.81856 0.82687
 C767 C 0.63868 0.81150 0.82512
 C768 C 0.63261 0.81576 0.81531
 C769 C 0.63901 0.82555 0.81139
 H770 H 0.63613 0.80404 0.83072
 H771 H 0.63677 0.83131 0.80398
 N772 N 0.67260 0.81861 0.85196
 N773 N 0.68094 0.82700 0.85208
 C774 C 0.68797 0.82537 0.86170
 C775 C 0.68382 0.81556 0.86785
 C776 C 0.67411 0.81143 0.86151
 H777 H 0.69546 0.83097 0.86415
 H778 H 0.66851 0.80388 0.86378
 H779 H 0.67369 0.82622 0.83050
 H780 H 0.66389 0.83584 0.83999
 N781 N 0.18078 0.35187 0.82746
 N782 N 0.17281 0.35140 0.81885
 C783 C 0.17423 0.36100 0.81170
 C784 C 0.18358 0.36772 0.81612
 C785 C 0.18755 0.36173 0.82609
 H786 H 0.16883 0.36302 0.80396
 H787 H 0.19475 0.36441 0.83195
 Cu788 Cu 0.16113 0.33852 0.81786
 Cu789 Cu 0.18163 0.33986 0.83995
 Cu790 Cu 0.15998 0.31780 0.83982
 N791 N 0.14846 0.32661 0.81871
 N792 N 0.14808 0.31855 0.82726
 C793 C 0.13828 0.31170 0.82584
 C794 C 0.13224 0.31572 0.81592
 C795 C 0.13887 0.32517 0.81157
 H796 H 0.13564 0.30446 0.83168
 H797 H 0.13677 0.33067 0.80392
 N798 N 0.17278 0.31852 0.85182
 N799 N 0.18105 0.32696 0.85187
 C800 C 0.18821 0.32537 0.86140
 C801 C 0.18421 0.31550 0.86757
 C802 C 0.17445 0.31133 0.86133
 H803 H 0.19562 0.33109 0.86383
 H804 H 0.16887 0.30379 0.86370
 H805 H 0.17373 0.32602 0.83058
 H806 H 0.16352 0.33598 0.83932
 N807 N 0.18133 0.85190 0.32738
 N808 N 0.17284 0.85194 0.31926
 C809 C 0.17428 0.86156 0.31217
 C810 C 0.18415 0.86779 0.31611
 C811 C 0.18845 0.86148 0.32575
 H812 H 0.16849 0.86399 0.30484
 H813 H 0.19601 0.86382 0.33130
 Cu814 Cu 0.16050 0.83967 0.31906
 Cu815 Cu 0.18218 0.83979 0.33982
 Cu816 Cu 0.16029 0.81782 0.33966
 N817 N 0.14827 0.82729 0.31906
 N818 N 0.14830 0.81873 0.32712
 C819 C 0.13875 0.81160 0.32540
 C820 C 0.13247 0.81595 0.31578
 C821 C 0.13868 0.82589 0.31192
 H822 H 0.13639 0.80399 0.33089
 H823 H 0.13627 0.83175 0.30464
 N824 N 0.17316 0.81844 0.35162
 N825 N 0.18151 0.82681 0.35167
 C826 C 0.18862 0.82518 0.36123
 C827 C 0.18449 0.81537 0.36742
 C828 C 0.17473 0.81127 0.36116
 H829 H 0.19604 0.83086 0.36371
 H830 H 0.16904 0.80382 0.36356
 H831 H 0.17367 0.82646 0.33029
 H832 H 0.16409 0.83591 0.34016
 C833 C 0.25041 1.03227 0.25053
 C834 C 0.25722 1.02608 0.24219
 C835 C 0.25712 1.01357 0.24204
 C836 C 0.25060 1.00699 0.25071
 C837 C 0.24398 1.01358 0.25931
 C838 C 0.24368 1.02609 0.25897
 C839 C 0.25060 0.99348 0.25072
 C840 C 0.24188 0.98692 0.25721
 C841 C 0.24200 0.97440 0.25730
 C842 C 0.25037 0.96821 0.25052
 C843 C 0.25885 0.97437 0.24382
 C844 C 0.25921 0.98689 0.24411
 H845 H 0.25028 1.04198 0.25041
 H846 H 0.26206 1.00920 0.23501
 H847 H 0.23902 1.00922 0.26634
 H848 H 0.23482 0.99129 0.26212
 H849 H 0.25020 0.95850 0.25036
 H850 H 0.26624 0.99124 0.23913
 C851 C 0.24930 0.53210 0.75035
 C852 C 0.25788 0.52612 0.74362
 C853 C 0.25824 0.51360 0.74361
 C854 C 0.24954 0.50685 0.74995
 C855 C 0.24071 0.51322 0.75646
 C856 C 0.24084 0.52573 0.75687
 C857 C 0.24970 0.49335 0.74985
 C858 C 0.24340 0.48665 0.75859
 C859 C 0.24333 0.47413 0.75828
 C860 C 0.25001 0.46809 0.74972
 C861 C 0.25655 0.47441 0.74123
 C862 C 0.25619 0.48693 0.74105
 H863 H 0.24925 0.54181 0.75056
 H864 H 0.26542 0.50935 0.73876
 H865 H 0.23365 0.50869 0.76123
 H866 H 0.23859 0.49093 0.76577
 H867 H 0.25015 0.45838 0.74969
 H868 H 0.26094 0.49144 0.73397
 C869 C 0.75033 -0.03238 0.24924
 C870 C 0.75828 -0.02631 0.25659
 C871 C 0.75863 -0.01378 0.25651
 C872 C 0.75064 -0.00705 0.24926
 C873 C 0.74249 -0.01359 0.24203
 C874 C 0.74250 -0.02611 0.24194
 C875 C 0.75070 0.00653 0.24932
 C876 C 0.74364 0.01322 0.24114
 C877 C 0.74342 0.02573 0.24148
 C878 C 0.75052 0.03187 0.24960
 C879 C 0.75772 0.02565 0.25757
 C880 C 0.75770 0.01311 0.25762
 H881 H 0.75013 -0.04209 0.24930
 H882 H 0.76517 -0.00959 0.26218
 H883 H 0.73593 -0.00926 0.23649
 H884 H 0.73822 0.00901 0.23440
 H885 H 0.75038 0.04158 0.24977
 H886 H 0.76312 0.00880 0.26430
 C887 C 0.75008 0.46794 0.74936
 C888 C 0.75856 0.47399 0.75613
 C889 C 0.75899 0.48651 0.75596
 C890 C 0.75043 0.49321 0.74941
 C891 C 0.74168 0.48676 0.74286
 C892 C 0.74174 0.47424 0.74264
 C893 C 0.75053 0.50673 0.74946
 C894 C 0.74405 0.51339 0.74084
 C895 C 0.74380 0.52590 0.74122
 C896 C 0.75048 0.53201 0.74972
 C897 C 0.75721 0.52575 0.75808
 C898 C 0.75702 0.51323 0.75820
 H899 H 0.74989 0.45823 0.74939
 H900 H 0.76604 0.49079 0.76096
 H901 H 0.73466 0.49122 0.73799
 H902 H 0.73916 0.50909 0.73374
 H903 H 0.75039 0.54172 0.74987
 H904 H 0.76188 0.50879 0.76523
 C905 C 0.25008 0.46797 0.24999
 C906 C 0.25772 0.47417 0.25756
 C907 C 0.25781 0.48669 0.25755
 C908 C 0.25009 0.49332 0.24993
 C909 C 0.24238 0.48665 0.24234
 C910 C 0.24247 0.47414 0.24239
 C911 C 0.25008 0.50691 0.24989
 C912 C 0.24260 0.51353 0.24204
 C913 C 0.24260 0.52605 0.24210
 C914 C 0.25005 0.53226 0.24985
 C915 C 0.25751 0.52610 0.25761
 C916 C 0.25754 0.51358 0.25772
 H917 H 0.25006 0.45826 0.25003
 H918 H 0.26398 0.49093 0.26358
 H919 H 0.23620 0.49086 0.23631
 H920 H 0.23667 0.50929 0.23578
 H921 H 0.25001 0.54197 0.24985
 H922 H 0.26345 0.50938 0.26403
 C923 C 0.74959 1.03228 0.75012
 C924 C 0.75677 1.02612 0.74206
 C925 C 0.75656 1.01360 0.74175
 C926 C 0.74953 1.00699 0.75001
 C927 C 0.74256 1.01356 0.75834
 C928 C 0.74239 1.02608 0.75814
 C929 C 0.74949 0.99346 0.74997
 C930 C 0.74061 0.98690 0.75627
 C931 C 0.74083 0.97439 0.75655
 C932 C 0.74943 0.96818 0.75009
 C933 C 0.75805 0.97431 0.74355
 C934 C 0.75832 0.98684 0.74368
 H935 H 0.74963 1.04199 0.75018
 H936 H 0.76189 1.00926 0.73500
 H937 H 0.73727 1.00920 0.76512
 H938 H 0.73341 0.99127 0.76097
 H939 H 0.74945 0.95847 0.75021
 H940 H 0.76553 0.99116 0.73894
 C941 C 0.75081 0.53178 0.25001
 C942 C 0.75760 0.52539 0.24180
 C943 C 0.75734 0.51287 0.24184
 C944 C 0.75066 0.50651 0.25057
 C945 C 0.74404 0.51332 0.25901
 C946 C 0.74391 0.52583 0.25846
 C947 C 0.75049 0.49299 0.25079
 C948 C 0.74172 0.48662 0.25741
 C949 C 0.74170 0.47410 0.25770
 C950 C 0.74997 0.46771 0.25098
 C951 C 0.75849 0.47367 0.24416
 C952 C 0.75900 0.48619 0.24426
 H953 H 0.75083 0.54149 0.24974
 H954 H 0.76229 0.50834 0.23493
 H955 H 0.73896 0.50915 0.26606
 H956 H 0.73473 0.49115 0.26228
 H957 H 0.74969 0.45800 0.25097
 H958 H 0.76607 0.49036 0.23919
 C959 C 0.25045 -0.03208 0.75074
 C960 C 0.25714 -0.02580 0.75911
 C961 C 0.25684 -0.01328 0.75928
 C962 C 0.25029 -0.00680 0.75057
 C963 C 0.24380 -0.01348 0.74196
 C964 C 0.24370 -0.02601 0.74228
 C965 C 0.25028 0.00672 0.75041
 C966 C 0.24162 0.01323 0.74380
 C967 C 0.24185 0.02575 0.74348
 C968 C 0.25026 0.03201 0.75016
 C969 C 0.25867 0.02589 0.75697
 C970 C 0.25893 0.01337 0.75688
 H971 H 0.25059 -0.04179 0.75075
 H972 H 0.26174 -0.00884 0.76629
 H973 H 0.23889 -0.00919 0.73487
 H974 H 0.23458 0.00879 0.73893
 H975 H 0.25024 0.04172 0.75009
 H976 H 0.26597 0.00906 0.76185
 C977 C 0.24953 0.24976 1.03205
 C978 C 0.24250 0.25790 1.02584
 C979 C 0.24263 0.25803 1.01335
 C980 C 0.24951 0.24960 1.00679
 C981 C 0.25640 0.24125 1.01343
 C982 C 0.25656 0.24155 1.02592
 C983 C 0.24957 0.24958 0.99326
 C984 C 0.25791 0.24260 0.98670
 C985 C 0.25779 0.24250 0.97420
 C986 C 0.24977 0.24967 0.96800
 C987 C 0.24164 0.25679 0.97412
 C988 C 0.24131 0.25659 0.98662
 H989 H 0.24959 0.24986 1.04173
 H990 H 0.23740 0.26487 1.00904
 H991 H 0.26170 0.23442 1.00918
 H992 H 0.26466 0.23726 0.99101
 H993 H 0.24989 0.24974 0.95831
 H994 H 0.23453 0.26195 0.99087
 C995 C 0.24951 0.74996 0.53192
 C996 C 0.24248 0.75812 0.52574
 C997 C 0.24258 0.75828 0.51325
 C998 C 0.24940 0.74982 0.50668
 C999 C 0.25627 0.74143 0.51328
 C1000 C 0.25649 0.74174 0.52576
 C1001 C 0.24943 0.74981 0.49317
 C1002 C 0.25789 0.74299 0.48660
 C1003 C 0.25773 0.74287 0.47411
 C1004 C 0.24957 0.74991 0.46793
 C1005 C 0.24134 0.75689 0.47409
 C1006 C 0.24103 0.75667 0.48657
 H1007 H 0.24962 0.75007 0.54160
 H1008 H 0.23740 0.76515 0.50895
 H1009 H 0.26152 0.73457 0.50900
 H1010 H 0.26475 0.73778 0.49090
 H1011 H 0.24966 0.74999 0.45824
 H1012 H 0.23416 0.76188 0.49086
 C1013 C 0.25035 0.75001 -0.03241
 C1014 C 0.25806 0.75755 -0.02625
 C1015 C 0.25808 0.75762 -0.01374
 C1016 C 0.25019 0.75013 -0.00711
 C1017 C 0.24239 0.74259 -0.01375
 C1018 C 0.24256 0.74254 -0.02625
 C1019 C 0.25009 0.75019 0.00647
 C1020 C 0.24251 0.74240 0.01311
 C1021 C 0.24244 0.74255 0.02560
 C1022 C 0.24992 0.75031 0.03177
 C1023 C 0.25749 0.75800 0.02561
 C1024 C 0.25758 0.75804 0.01311
 H1025 H 0.25040 0.74998 -0.04210
 H1026 H 0.26435 0.76357 -0.00953
 H1027 H 0.23606 0.73669 -0.00953
 H1028 H 0.23661 0.73608 0.00889
 H1029 H 0.24987 0.75033 0.04146
 H1030 H 0.26358 0.76428 0.00890
 C1031 C 0.24999 0.24985 0.46797
 C1032 C 0.25706 0.25807 0.47403
 C1033 C 0.25693 0.25842 0.48652
 C1034 C 0.25001 0.25013 0.49324
 C1035 C 0.24303 0.24173 0.48675
 C1036 C 0.24289 0.24179 0.47425
 C1037 C 0.25006 0.25030 0.50678
 C1038 C 0.24184 0.24332 0.51354
 C1039 C 0.24213 0.24336 0.52604
 C1040 C 0.25021 0.25065 0.53204
 C1041 C 0.25825 0.25772 0.52573
 C1042 C 0.25839 0.25741 0.51324
 H1043 H 0.24997 0.24976 0.45828
 H1044 H 0.26222 0.26529 0.49069
 H1045 H 0.23765 0.23503 0.49112
 H1046 H 0.23513 0.23780 0.50939
 H1047 H 0.25031 0.25075 0.54173
 H1048 H 0.26515 0.26270 0.50886
 C1049 C 0.74960 0.74960 1.03193
 C1050 C 0.74132 0.75648 1.02574
 C1051 C 0.74105 0.75619 1.01325
 C1052 C 0.74954 0.74939 1.00670
 C1053 C 0.75807 0.74271 1.01330
 C1054 C 0.75785 0.74262 1.02579
 C1055 C 0.74959 0.74936 0.99320
 C1056 C 0.75618 0.74070 0.98667
 C1057 C 0.75654 0.74100 0.97418
 C1058 C 0.74988 0.74945 0.96797
 C1059 C 0.74307 0.75786 0.97410
 C1060 C 0.74311 0.75805 0.98659
 H1061 H 0.74969 0.74975 1.04162
 H1062 H 0.73415 0.76132 1.00889
 H1063 H 0.76504 0.73763 1.00899
 H1064 H 0.76107 0.73363 0.99103
 H1065 H 0.75004 0.74953 0.95829
 H1066 H 0.73816 0.76511 0.99090
 C1067 C 0.74979 0.24955 0.53198
 C1068 C 0.74238 0.25737 0.52582
 C1069 C 0.74237 0.25745 0.51333
 C1070 C 0.74973 0.24948 0.50670
 C1071 C 0.75711 0.24154 0.51332
 C1072 C 0.75717 0.24169 0.52581
 C1073 C 0.74975 0.24949 0.49315
 C1074 C 0.75763 0.24203 0.48652
 C1075 C 0.75756 0.24207 0.47403
 C1076 C 0.74986 0.24961 0.46786
 C1077 C 0.74210 0.25707 0.47404
 C1078 C 0.74192 0.25700 0.48653
 H1079 H 0.74986 0.24961 0.54166
 H1080 H 0.73657 0.26387 0.50912
 H1081 H 0.76292 0.23513 0.50910
 H1082 H 0.76396 0.23614 0.49072
 H1083 H 0.74993 0.24969 0.45818
 H1084 H 0.73559 0.26288 0.49074
 C1085 C 0.74980 0.24986 -0.03230
 C1086 C 0.75688 0.25801 -0.02614
 C1087 C 0.75673 0.25823 -0.01364
 C1088 C 0.74981 0.24985 -0.00703
 C1089 C 0.74288 0.24148 -0.01363
 C1090 C 0.74271 0.24171 -0.02613
 C1091 C 0.74984 0.24985 0.00651
 C1092 C 0.74144 0.24295 0.01313
 C1093 C 0.74169 0.24277 0.02563
 C1094 C 0.74988 0.24982 0.03178
 C1095 C 0.75805 0.25688 0.02560
 C1096 C 0.75826 0.25673 0.01310
 H1097 H 0.74980 0.24987 -0.04198
 H1098 H 0.76203 0.26504 -0.00936
 H1099 H 0.73760 0.23465 -0.00933
 H1100 H 0.73460 0.23770 0.00885
 H1101 H 0.74989 0.24981 0.04146
 H1102 H 0.76509 0.26200 0.00880
 C1103 C 0.75012 0.74981 0.46824
 C1104 C 0.75680 0.75832 0.47437
 C1105 C 0.75652 0.75865 0.48686
 C1106 C 0.74993 0.75001 0.49347
 C1107 C 0.74343 0.74129 0.48694
 C1108 C 0.74332 0.74143 0.47444
 C1109 C 0.74983 0.75012 0.50695
 C1110 C 0.74110 0.74364 0.51354
 C1111 C 0.74130 0.74350 0.52603
 C1112 C 0.74973 0.75027 0.53218
 C1113 C 0.75823 0.75692 0.52599
 C1114 C 0.75851 0.75665 0.51350
 H1115 H 0.75017 0.74974 0.45856
 H1116 H 0.76141 0.76574 0.49120
 H1117 H 0.73845 0.73429 0.49133
 H1118 H 0.73406 0.73868 0.50919
 H1119 H 0.74971 0.75030 0.54186
 H1120 H 0.76562 0.76150 0.50913
 C1121 C 1.03234 0.25037 0.25018
 C1122 C 1.02625 0.24299 0.25810
 C1123 C 1.01373 0.24302 0.25839
 C1124 C 1.00699 0.25032 0.25047
 C1125 C 1.01353 0.25766 0.24241
 C1126 C 1.02605 0.25773 0.24240
 C1127 C 0.99340 0.25021 0.25056
 C1128 C 0.98663 0.25802 0.24315
 C1129 C 0.97410 0.25769 0.24317
 C1130 C 0.96805 0.24984 0.25067
 C1131 C 0.97437 0.24217 0.25810
 C1132 C 0.98689 0.24222 0.25801
 H1133 H 1.04205 0.25036 0.25002
 H1134 H 1.00959 0.23724 0.26488
 H1135 H 1.00921 0.26337 0.23599
 H1136 H 0.99076 0.26441 0.23726
 H1137 H 0.95834 0.24964 0.25067
 H1138 H 0.99121 0.23588 0.26380
 C1139 C 0.53230 0.24989 0.74996
 C1140 C 0.52620 0.24292 0.75825
 C1141 C 0.51368 0.24308 0.75861
 C1142 C 0.50698 0.24983 0.75020
 C1143 C 0.51350 0.25665 0.74170
 C1144 C 0.52603 0.25686 0.74181
 C1145 C 0.49343 0.24977 0.75034
 C1146 C 0.48669 0.25816 0.74359
 C1147 C 0.47415 0.25782 0.74360
 C1148 C 0.46812 0.24955 0.75067
 C1149 C 0.47444 0.24138 0.75755
 C1150 C 0.48695 0.24126 0.75722
 H1151 H 0.54202 0.24993 0.74989
 H1152 H 0.50944 0.23797 0.76559
 H1153 H 0.50911 0.26184 0.73488
 H1154 H 0.49090 0.26502 0.73828
 H1155 H 0.45841 0.24942 0.75074
 H1156 H 0.49137 0.23438 0.76231
 C1157 C -0.03198 0.24939 0.74954
 C1158 C -0.02599 0.25770 0.75658
 C1159 C -0.01346 0.25812 0.75652
 C1160 C -0.00670 0.24971 0.74982
 C1161 C -0.01310 0.24114 0.74299
 C1162 C -0.02562 0.24123 0.74266
 C1163 C 0.00682 0.24987 0.74994
 C1164 C 0.01357 0.24360 0.74121
 C1165 C 0.02610 0.24352 0.74158
 C1166 C 0.03211 0.25012 0.75021
 C1167 C 0.02576 0.25661 0.75870
 C1168 C 0.01324 0.25628 0.75880
 H1169 H -0.04169 0.24928 0.74940
 H1170 H -0.00924 0.26510 0.76165
 H1171 H -0.00860 0.23430 0.73791
 H1172 H 0.00934 0.23880 0.73401
 H1173 H 0.04182 0.25021 0.75032
 H1174 H 0.00874 0.26099 0.76590
 C1175 C 0.46813 0.24983 0.24958
 C1176 C 0.47419 0.25759 0.25713
 C1177 C 0.48672 0.25785 0.25718
 C1178 C 0.49349 0.25012 0.24968
 C1179 C 0.48695 0.24221 0.24216
 C1180 C 0.47443 0.24217 0.24211
 C1181 C 0.50709 0.25021 0.24977
 C1182 C 0.51382 0.24276 0.24199
 C1183 C 0.52635 0.24274 0.24222
 C1184 C 0.53246 0.25023 0.25001
 C1185 C 0.52619 0.25771 0.25769
 C1186 C 0.51365 0.25770 0.25767
 H1187 H 0.45842 0.24967 0.24958
 H1188 H 0.49086 0.26413 0.26317
 H1189 H 0.49126 0.23593 0.23629
 H1190 H 0.50968 0.23687 0.23563
 H1191 H 0.54217 0.25022 0.25011
 H1192 H 0.50935 0.26359 0.26393
 C1193 C 1.03208 0.75054 0.75005
 C1194 C 1.02601 0.74350 0.75831
 C1195 C 1.01349 0.74357 0.75865
 C1196 C 1.00676 0.75029 0.75025
 C1197 C 1.01325 0.75716 0.74176
 C1198 C 1.02578 0.75746 0.74189
 C1199 C 0.99320 0.75007 0.75032
 C1200 C 0.98641 0.75829 0.74341
 C1201 C 0.97388 0.75782 0.74333
 C1202 C 0.96789 0.74960 0.75048
 C1203 C 0.97424 0.74161 0.75753
 C1204 C 0.98676 0.74160 0.75729
 H1205 H 1.04180 0.75059 0.74994
 H1206 H 1.00929 0.73835 0.76557
 H1207 H 1.00884 0.76228 0.73491
 H1208 H 0.99058 0.76515 0.73807
 H1209 H 0.95817 0.74942 0.75055
 H1210 H 0.99120 0.73487 0.76255
 C1211 C 0.53178 0.75115 0.24983
 C1212 C 0.52586 0.74417 0.25824
 C1213 C 0.51334 0.74422 0.25879
 C1214 C 0.50650 0.75084 0.25039
 C1215 C 0.51283 0.75760 0.24171
 C1216 C 0.52534 0.75794 0.24167
 C1217 C 0.49298 0.75061 0.25060
 C1218 C 0.48614 0.75912 0.24410
 C1219 C 0.47362 0.75856 0.24400
 C1220 C 0.46770 0.75000 0.25081
 C1221 C 0.47412 0.74174 0.25749
 C1222 C 0.48664 0.74180 0.25720
 H1223 H 0.54149 0.75124 0.24958
 H1224 H 0.50920 0.73909 0.26582
 H1225 H 0.50828 0.76257 0.23483
 H1226 H 0.49028 0.76622 0.23907
 H1227 H 0.45799 0.74968 0.25080
 H1228 H 0.49120 0.73483 0.26205
 C1229 C -0.03185 0.75046 0.24944
 C1230 C -0.02571 0.75898 0.25608
 C1231 C -0.01318 0.75931 0.25582
 C1232 C -0.00658 0.75061 0.24934
 C1233 C -0.01313 0.74182 0.24294
 C1234 C -0.02566 0.74199 0.24280
 C1235 C 0.00693 0.75058 0.24938
 C1236 C 0.01352 0.74402 0.24076
 C1237 C 0.02604 0.74370 0.24111
 C1238 C 0.03221 0.75038 0.24958
 C1239 C 0.02601 0.75715 0.25795
 C1240 C 0.01348 0.75704 0.25810
 H1241 H -0.04156 0.75032 0.24958
 H1242 H -0.00883 0.76639 0.26072
 H1243 H -0.00874 0.73469 0.23817
 H1244 H 0.00916 0.73915 0.23368
 H1245 H 0.04192 0.75026 0.24969
 H1246 H 0.00908 0.76195 0.26513
 C1247 C 0.46776 0.75007 0.74962
 C1248 C 0.47384 0.75819 0.75678
 C1249 C 0.48637 0.75854 0.75668
 C1250 C 0.49309 0.75037 0.74962
 C1251 C 0.48656 0.74203 0.74261
 C1252 C 0.47404 0.74206 0.74251
 C1253 C 0.50667 0.75047 0.74964
 C1254 C 0.51336 0.74338 0.74150
 C1255 C 0.52588 0.74325 0.74179
 C1256 C 0.53201 0.75050 0.74979
 C1257 C 0.52577 0.75774 0.75771
 C1258 C 0.51324 0.75761 0.75784
 H1259 H 0.45805 0.74990 0.74966
 H1260 H 0.49056 0.76525 0.76215
 H1261 H 0.49090 0.73533 0.73723
 H1262 H 0.50915 0.73789 0.73482
 H1263 H 0.54173 0.75047 0.74987
 H1264 H 0.50891 0.76308 0.76447
 C1265 C 0.37927 0.31289 0.31143
 C1266 C 0.38841 0.30890 0.30736
 C1267 C 0.39915 0.30385 0.30240
 C1268 C 0.39832 0.29588 0.29283
 C1269 C 0.40863 0.29059 0.28819
 C1270 C 0.41993 0.29320 0.29305
 C1271 C 0.42071 0.30136 0.30256
 C1272 C 0.41036 0.30663 0.30724
 C1273 C 0.43077 0.28727 0.28823
 C1274 C 0.44133 0.29379 0.28604
 C1275 C 0.45121 0.28825 0.28068
 C1276 C 0.45065 0.27613 0.27760
 C1277 C 0.44031 0.26953 0.28010
 C1278 C 0.43045 0.27504 0.28538
 C1279 C 0.46012 0.27047 0.27099
 C1280 C 0.46714 0.26499 0.26493
 H1281 H 0.38970 0.29369 0.28901
 H1282 H 0.40776 0.28449 0.28074
 H1283 H 0.42929 0.30346 0.30653
 H1284 H 0.41108 0.31275 0.31469
 H1285 H 0.44180 0.30324 0.28811
 H1286 H 0.45914 0.29346 0.27869
 H1287 H 0.43977 0.26015 0.27770
 H1288 H 0.42253 0.26974 0.28715
 C1289 C 0.37871 0.81283 0.81137
 C1290 C 0.38787 0.80888 0.80731
 C1291 C 0.39865 0.80391 0.80233
 C1292 C 0.40985 0.80695 0.80702
 C1293 C 0.42026 0.80181 0.80231
 C1294 C 0.41953 0.79352 0.79290
 C1295 C 0.40822 0.79065 0.78818
 C1296 C 0.39787 0.79581 0.79286
 C1297 C 0.43042 0.78773 0.78803
 C1298 C 0.43030 0.77546 0.78535
 C1299 C 0.44018 0.77007 0.77999
 C1300 C 0.45035 0.77683 0.77722
 C1301 C 0.45073 0.78900 0.78016
 C1302 C 0.44083 0.79442 0.78561
 C1303 C 0.45981 0.77125 0.77052
 C1304 C 0.46681 0.76576 0.76446
 H1305 H 0.41054 0.81320 0.81437
 H1306 H 0.42883 0.80410 0.80618
 H1307 H 0.40740 0.78443 0.78082
 H1308 H 0.38925 0.79344 0.78913
 H1309 H 0.42250 0.77004 0.78731
 H1310 H 0.43978 0.76065 0.77774
 H1311 H 0.45853 0.79433 0.77798
 H1312 H 0.44115 0.80390 0.78754
 C1313 C -0.12079 0.31293 0.81163
 C1314 C -0.11168 0.30895 0.80746
 C1315 C -0.10099 0.30396 0.80231
 C1316 C -0.08975 0.30624 0.80736
 C1317 C -0.07946 0.30109 0.80242
 C1318 C -0.08032 0.29356 0.79241
 C1319 C -0.09164 0.29145 0.78734
 C1320 C -0.10188 0.29662 0.79225
 C1321 C -0.06955 0.28770 0.78731
 C1322 C -0.07011 0.27566 0.78374
 C1323 C -0.06030 0.27022 0.77830
 C1324 C -0.04975 0.27669 0.77635
 C1325 C -0.04897 0.28860 0.78012
 C1326 C -0.05881 0.29407 0.78564
 C1327 C -0.04020 0.27104 0.76985
 C1328 C -0.03311 0.26544 0.76398
 H1329 H -0.08897 0.31189 0.81516
 H1330 H -0.07088 0.30277 0.80657
 H1331 H -0.09257 0.28583 0.77953
 H1332 H -0.11052 0.29484 0.78825
 H1333 H -0.07817 0.27045 0.78511
 H1334 H -0.06101 0.26100 0.77542
 H1335 H -0.04086 0.29371 0.77860
 H1336 H -0.05814 0.30337 0.78827
 C1337 C -0.12089 0.81235 0.31178
 C1338 C -0.11172 0.80848 0.30764
 C1339 C -0.10097 0.80364 0.30251
 C1340 C -0.10175 0.79599 0.29268
 C1341 C -0.09141 0.79107 0.28774
 C1342 C -0.08010 0.79374 0.29256
 C1343 C -0.07936 0.80155 0.30237
 C1344 C -0.08976 0.80645 0.30733
 C1345 C -0.06921 0.78820 0.28741
 C1346 C -0.05878 0.79497 0.28533
 C1347 C -0.04885 0.78977 0.27971
 C1348 C -0.04925 0.77775 0.27624
 C1349 C -0.05946 0.77090 0.27862
 C1350 C -0.06935 0.77607 0.28416
 C1351 C -0.03970 0.77234 0.26953
 C1352 C -0.03267 0.76681 0.26353
 H1353 H -0.11038 0.79380 0.28885
 H1354 H -0.09224 0.78523 0.28008
 H1355 H -0.07078 0.80367 0.30632
 H1356 H -0.08906 0.81234 0.31497
 H1357 H -0.05845 0.80435 0.28770
 H1358 H -0.04101 0.79516 0.27785
 H1359 H -0.05988 0.76159 0.27595
 H1360 H -0.07717 0.77059 0.28582
 C1361 C 0.62087 0.68824 0.31199
 C1362 C 0.61179 0.69232 0.30789
 C1363 C 0.60111 0.69746 0.30292
 C1364 C 0.58999 0.69186 0.30442
 C1365 C 0.57968 0.69692 0.29946
 C1366 C 0.58042 0.70762 0.29289
 C1367 C 0.59162 0.71321 0.29153
 C1368 C 0.60188 0.70816 0.29651
 C1369 C 0.56966 0.71290 0.28723
 C1370 C 0.57043 0.71759 0.27562
 C1371 C 0.56060 0.72319 0.27042
 C1372 C 0.54982 0.72418 0.27669
 C1373 C 0.54882 0.71929 0.28816
 C1374 C 0.55869 0.71362 0.29339
 C1375 C 0.54018 0.73076 0.27130
 C1376 C 0.53304 0.73670 0.26586
 H1377 H 0.58931 0.68355 0.30936
 H1378 H 0.57119 0.69237 0.30054
 H1379 H 0.59244 0.72154 0.28666
 H1380 H 0.61042 0.71259 0.29532
 H1381 H 0.57867 0.71698 0.27058
 H1382 H 0.56146 0.72692 0.26154
 H1383 H 0.54053 0.72004 0.29310
 H1384 H 0.55787 0.71012 0.30236
 C1385 C 0.62179 0.18846 0.81055
 C1386 C 0.61229 0.19206 0.80695
 C1387 C 0.60096 0.19643 0.80273
 C1388 C 0.59748 0.19440 0.79092
 C1389 C 0.58666 0.19902 0.78670
 C1390 C 0.57919 0.20574 0.79426
 C1391 C 0.58266 0.20752 0.80618
 C1392 C 0.59348 0.20289 0.81038
 C1393 C 0.56817 0.21144 0.78952
 C1394 C 0.56525 0.22324 0.79276
 C1395 C 0.55554 0.22905 0.78749
 C1396 C 0.54858 0.22315 0.77897
 C1397 C 0.55119 0.21129 0.77594
 C1398 C 0.56090 0.20545 0.78121
 C1399 C 0.53977 0.22973 0.77232
 C1400 C 0.53311 0.23559 0.76623
 H1401 H 0.60321 0.18941 0.78491
 H1402 H 0.58434 0.19765 0.77742
 H1403 H 0.57704 0.21254 0.81225
 H1404 H 0.59606 0.20447 0.81955
 H1405 H 0.57078 0.22818 0.79898
 H1406 H 0.55375 0.23831 0.78973
 H1407 H 0.54597 0.20668 0.76922
 H1408 H 0.56286 0.19633 0.77862
 C1409 C 1.12153 0.68874 0.81083
 C1410 C 1.11212 0.69251 0.80718
 C1411 C 1.10094 0.69723 0.80289
 C1412 C 1.09237 0.68964 0.79784
 C1413 C 1.08157 0.69432 0.79359
 C1414 C 1.07922 0.70666 0.79433
 C1415 C 1.08788 0.71419 0.79950
 C1416 C 1.09866 0.70950 0.80373
 C1417 C 1.06806 0.71180 0.78928
 C1418 C 1.06212 0.72126 0.79507
 C1419 C 1.05237 0.72691 0.78967
 C1420 C 1.04837 0.72311 0.77847
 C1421 C 1.05393 0.71342 0.77285
 C1422 C 1.06369 0.70777 0.77822
 C1423 C 1.03958 0.72999 0.77209
 C1424 C 1.03294 0.73603 0.76615
 H1425 H 1.09403 0.68012 0.79717
 H1426 H 1.07504 0.68827 0.78976
 H1427 H 1.08644 0.72375 0.80004
 H1428 H 1.10524 0.71546 0.80760
 H1429 H 1.06517 0.72446 0.80366
 H1430 H 1.04820 0.73447 0.79404
 H1431 H 1.05103 0.71054 0.76409
 H1432 H 1.06813 0.70061 0.77347
 C1433 C 1.12174 0.18898 0.31118
 C1434 C 1.11228 0.19265 0.30757
 C1435 C 1.10101 0.19714 0.30327
 C1436 C 1.09791 0.20911 0.30517
 C1437 C 1.08711 0.21357 0.30076
 C1438 C 1.07926 0.20612 0.29436
 C1439 C 1.08238 0.19405 0.29263
 C1440 C 1.09319 0.18960 0.29706
 C1441 C 1.06817 0.21109 0.28902
 C1442 C 1.06479 0.20788 0.27736
 C1443 C 1.05507 0.21344 0.27185
 C1444 C 1.04856 0.22223 0.27790
 C1445 C 1.05157 0.22518 0.28965
 C1446 C 1.06129 0.21962 0.29520
 C1447 C 1.03980 0.22914 0.27155
 C1448 C 1.03317 0.23529 0.26571
 H1449 H 1.10390 0.21503 0.30995
 H1450 H 1.08505 0.22294 0.30210
 H1451 H 1.07646 0.18805 0.28787
 H1452 H 1.09550 0.18031 0.29558
 H1453 H 1.06999 0.20147 0.27231
 H1454 H 1.05293 0.21121 0.26269
 H1455 H 1.04664 0.23204 0.29438
 H1456 H 1.06357 0.22217 0.30423
 C1457 C 0.62167 0.31119 0.68906
 C1458 C 0.61228 0.30741 0.69278
 C1459 C 0.60109 0.30277 0.69712
 C1460 C 0.59268 0.31041 0.70235
 C1461 C 0.58182 0.30585 0.70659
 C1462 C 0.57925 0.29356 0.70567
 C1463 C 0.58775 0.28597 0.70033
 C1464 C 0.59859 0.29055 0.69611
 C1465 C 0.56803 0.28853 0.71073
 C1466 C 0.56189 0.27925 0.70485
 C1467 C 0.55205 0.27369 0.71023
 C1468 C 0.54817 0.27739 0.72151
 C1469 C 0.55394 0.28690 0.72723
 C1470 C 0.56377 0.29247 0.72187
 C1471 C 0.53939 0.27050 0.72791
 C1472 C 0.53280 0.26441 0.73388
 H1473 H 0.59453 0.31989 0.70318
 H1474 H 0.57542 0.31193 0.71056
 H1475 H 0.58615 0.27644 0.69968
 H1476 H 0.60507 0.28454 0.69213
 H1477 H 0.56485 0.27612 0.69619
 H1478 H 0.54773 0.26625 0.70578
 H1479 H 0.55114 0.28970 0.73606
 H1480 H 0.56838 0.29947 0.72671
 C1481 C 0.62144 0.81112 0.18906
 C1482 C 0.61203 0.80732 0.19271
 C1483 C 0.60079 0.80266 0.19692
 C1484 C 0.59149 0.81043 0.20002
 C1485 C 0.58058 0.80587 0.20412
 C1486 C 0.57882 0.79344 0.20513
 C1487 C 0.58822 0.78571 0.20192
 C1488 C 0.59912 0.79029 0.19783
 C1489 C 0.56744 0.78851 0.20990
 C1490 C 0.56246 0.77801 0.20507
 C1491 C 0.55250 0.77264 0.21041
 C1492 C 0.54732 0.77774 0.22056
 C1493 C 0.55191 0.78844 0.22516
 C1494 C 0.56187 0.79383 0.21984
 C1495 C 0.53851 0.77117 0.22724
 C1496 C 0.53196 0.76530 0.23345
 H1497 H 0.59267 0.82002 0.19925
 H1498 H 0.57349 0.81205 0.20643
 H1499 H 0.58725 0.77611 0.20279
 H1500 H 0.60625 0.78420 0.19543
 H1501 H 0.56644 0.77380 0.19733
 H1502 H 0.54913 0.76427 0.20689
 H1503 H 0.54812 0.79233 0.23316
 H1504 H 0.56557 0.80181 0.22386
 C1505 C 1.12157 0.31156 0.18907
 C1506 C 1.11222 0.30772 0.19281
 C1507 C 1.10111 0.30293 0.19719
 C1508 C 1.09127 0.31045 0.19907
 C1509 C 1.08048 0.30571 0.20330
 C1510 C 1.07940 0.29340 0.20566
 C1511 C 1.08936 0.28594 0.20372
 C1512 C 1.10013 0.29069 0.19952
 C1513 C 1.06811 0.28833 0.21049
 C1514 C 1.06394 0.27714 0.20655
 C1515 C 1.05406 0.27176 0.21200
 C1516 C 1.04816 0.27752 0.22138
 C1517 C 1.05194 0.28888 0.22505
 C1518 C 1.06183 0.29429 0.21960
 C1519 C 1.03937 0.27110 0.22823
 C1520 C 1.03280 0.26524 0.23443
 H1521 H 1.09195 0.31994 0.19727
 H1522 H 1.07294 0.31165 0.20460
 H1523 H 1.08888 0.27646 0.20564
 H1524 H 1.10771 0.28482 0.19813
 H1525 H 1.06850 0.27241 0.19945
 H1526 H 1.05131 0.26290 0.20919
 H1527 H 1.04757 0.29333 0.23244
 H1528 H 1.06489 0.30285 0.22291
 C1529 C 1.12128 0.81170 0.68879
 C1530 C 1.11189 0.80787 0.69248
 C1531 C 1.10075 0.80306 0.69678
 C1532 C 1.09128 0.81068 0.69975
 C1533 C 1.08047 0.80594 0.70394
 C1534 C 1.07901 0.79349 0.70518
 C1535 C 1.08859 0.78592 0.70211
 C1536 C 1.09937 0.79069 0.69795
 C1537 C 1.06776 0.78838 0.71008
 C1538 C 1.06301 0.77769 0.70543
 C1539 C 1.05314 0.77222 0.71084
 C1540 C 1.04784 0.77738 0.72090
 C1541 C 1.05221 0.78825 0.72532
 C1542 C 1.06207 0.79374 0.71992
 C1543 C 1.03907 0.77078 0.72761
 C1544 C 1.03250 0.76487 0.73380
 H1545 H 1.09225 0.82029 0.69886
 H1546 H 1.07323 0.81198 0.70612
 H1547 H 1.08784 0.77633 0.70316
 H1548 H 1.10667 0.78472 0.69572
 H1549 H 1.06708 0.77343 0.69777
 H1550 H 1.04992 0.76374 0.70743
 H1551 H 1.04831 0.79221 0.73323
 H1552 H 1.06558 0.80189 0.72379
 C1553 C 0.37888 0.68823 0.68836
 C1554 C 0.38817 0.69192 0.69238
 C1555 C 0.39917 0.69636 0.69735
 C1556 C 0.39954 0.69998 0.70928
 C1557 C 0.41018 0.70428 0.71419
 C1558 C 0.42063 0.70504 0.70720
 C1559 C 0.42018 0.70141 0.69520
 C1560 C 0.40950 0.69708 0.69031
 C1561 C 0.43184 0.70988 0.71242
 C1562 C 0.43896 0.71806 0.70601
 C1563 C 0.44884 0.72351 0.71142
 C1564 C 0.45178 0.72075 0.72324
 C1565 C 0.44503 0.71228 0.72951
 C1566 C 0.43516 0.70685 0.72414
 C1567 C 0.46064 0.72766 0.72948
 C1568 C 0.46727 0.73394 0.73520
 H1569 H 0.39157 0.69952 0.71479
 H1570 H 0.41019 0.70720 0.72340
 H1571 H 0.42809 0.70181 0.68964
 H1572 H 0.40931 0.69431 0.68106
 H1573 H 0.43657 0.72065 0.69701
 H1574 H 0.45388 0.73020 0.70655
 H1575 H 0.44715 0.71018 0.73871
 H1576 H 0.42996 0.70046 0.72924
 C1577 C 0.37864 0.18910 0.18880
 C1578 C 0.38812 0.19271 0.19245
 C1579 C 0.39943 0.19700 0.19681
 C1580 C 0.40314 0.20868 0.19427
 C1581 C 0.41400 0.21294 0.19875
 C1582 C 0.42129 0.20556 0.20586
 C1583 C 0.41755 0.19377 0.20821
 C1584 C 0.40669 0.18953 0.20372
 C1585 C 0.43240 0.21036 0.21131
 C1586 C 0.43527 0.20762 0.22322
 C1587 C 0.44507 0.21301 0.22876
 C1588 C 0.45217 0.22119 0.22248
 C1589 C 0.44965 0.22368 0.21051
 C1590 C 0.43985 0.21828 0.20494
 C1591 C 0.46102 0.22805 0.22879
 C1592 C 0.46766 0.23424 0.23459
 H1593 H 0.39757 0.21454 0.18895
 H1594 H 0.41652 0.22211 0.19692
 H1595 H 0.42302 0.18783 0.21353
 H1596 H 0.40391 0.18047 0.20572
 H1597 H 0.42962 0.20172 0.22843
 H1598 H 0.44682 0.21117 0.23808
 H1599 H 0.45502 0.23008 0.20560
 H1600 H 0.43795 0.22046 0.19572
 C1601 C -0.12104 0.68845 0.18817
 C1602 C -0.11188 0.69235 0.19229
 C1603 C -0.10107 0.69704 0.19742
 C1604 C -0.10174 0.70598 0.20611
 C1605 C -0.09130 0.71037 0.21137
 C1606 C -0.08004 0.70586 0.20803
 C1607 C -0.07943 0.69699 0.19915
 C1608 C -0.08990 0.69258 0.19391
 C1609 C -0.06904 0.71037 0.21392
 C1610 C -0.05875 0.71321 0.20724
 C1611 C -0.04876 0.71832 0.21281
 C1612 C -0.04892 0.72049 0.22511
 C1613 C -0.05897 0.71730 0.23184
 C1614 C -0.06895 0.71227 0.22631
 C1615 C -0.03952 0.72721 0.23076
 C1616 C -0.03258 0.73354 0.23601
 H1617 H -0.11033 0.70953 0.20884
 H1618 H -0.09204 0.71736 0.21801
 H1619 H -0.07089 0.69333 0.19643
 H1620 H -0.08930 0.68565 0.18719
 H1621 H -0.05860 0.71190 0.19767
 H1622 H -0.04108 0.72090 0.20749
 H1623 H -0.05924 0.71905 0.24135
 H1624 H -0.07666 0.70999 0.23170
 C1625 C -0.12121 0.18812 0.68875
 C1626 C -0.11185 0.19191 0.69253
 C1627 C -0.10073 0.19662 0.69697
 C1628 C -0.09983 0.20875 0.69985
 C1629 C -0.08909 0.21337 0.70425
 C1630 C -0.07907 0.20590 0.70582
 C1631 C -0.08006 0.19372 0.70285
 C1632 C -0.09082 0.18912 0.69843
 C1633 C -0.06780 0.21082 0.71084
 C1634 C -0.06142 0.20449 0.71963
 C1635 C -0.05151 0.20970 0.72523
 C1636 C -0.04781 0.22123 0.72202
 C1637 C -0.05383 0.22739 0.71297
 C1638 C -0.06373 0.22221 0.70739
 C1639 C -0.03893 0.22740 0.72896
 C1640 C -0.03231 0.23330 0.73508
 H1641 H -0.10745 0.21464 0.69877
 H1642 H -0.08869 0.22274 0.70667
 H1643 H -0.07249 0.18777 0.70388
 H1644 H -0.09142 0.17972 0.69616
 H1645 H -0.06440 0.19576 0.72256
 H1646 H -0.04705 0.20495 0.73237
 H1647 H -0.05116 0.23638 0.71053
 H1648 H -0.06835 0.22723 0.70053
 C1649 C 0.31164 0.37891 0.31124
 C1650 C 0.30784 0.38826 0.30750
 C1651 C 0.30305 0.39935 0.30308
 C1652 C 0.29075 0.40039 0.30105
 C1653 C 0.28600 0.41110 0.29675
 C1654 C 0.29351 0.42095 0.29440
 C1655 C 0.30586 0.41983 0.29650
 C1656 C 0.31060 0.40909 0.30083
 C1657 C 0.28843 0.43215 0.28942
 C1658 C 0.29427 0.43818 0.28005
 C1659 C 0.28887 0.44800 0.27452
 C1660 C 0.27763 0.45197 0.27834
 C1661 C 0.27198 0.44632 0.28796
 C1662 C 0.27735 0.43650 0.29349
 C1663 C 0.27122 0.46074 0.27149
 C1664 C 0.26534 0.46735 0.26535
 H1665 H 0.28484 0.39289 0.30273
 H1666 H 0.27648 0.41161 0.29505
 H1667 H 0.31184 0.42729 0.29489
 H1668 H 0.32013 0.40839 0.30242
 H1669 H 0.30275 0.43497 0.27664
 H1670 H 0.29324 0.45218 0.26696
 H1671 H 0.26322 0.44924 0.29091
 H1672 H 0.27271 0.43214 0.30078
 C1673 C 0.31143 -0.12172 0.81084
 C1674 C 0.30771 -0.11224 0.80731
 C1675 C 0.30313 -0.10095 0.80319
 C1676 C 0.29101 -0.09824 0.80471
 C1677 C 0.28645 -0.08736 0.80059
 C1678 C 0.29397 -0.07903 0.79488
 C1679 C 0.30617 -0.08179 0.79349
 C1680 C 0.31072 -0.09269 0.79763
 C1681 C 0.28892 -0.06780 0.78989
 C1682 C 0.29251 -0.06374 0.77856
 C1683 C 0.28688 -0.05391 0.77330
 C1684 C 0.27764 -0.04797 0.77930
 C1685 C 0.27431 -0.05165 0.79076
 C1686 C 0.27994 -0.06148 0.79605
 C1687 C 0.27069 -0.03915 0.77304
 C1688 C 0.26460 -0.03255 0.76711
 H1689 H 0.28505 -0.10458 0.80899
 H1690 H 0.27698 -0.08561 0.80161
 H1691 H 0.31221 -0.07553 0.78922
 H1692 H 0.32013 -0.09468 0.79645
 H1693 H 0.29928 -0.06848 0.77353
 H1694 H 0.28941 -0.05124 0.76435
 H1695 H 0.26711 -0.04718 0.79544
 H1696 H 0.27710 -0.06429 0.80486
 C1697 C 0.81263 0.37922 0.81188
 C1698 C 0.80869 0.38835 0.80774
 C1699 C 0.80375 0.39906 0.80263
 C1700 C 0.80680 0.41033 0.80716
 C1701 C 0.80177 0.42067 0.80221
 C1702 C 0.79359 0.41982 0.79273
 C1703 C 0.79068 0.40845 0.78820
 C1704 C 0.79573 0.39816 0.79311
 C1705 C 0.78795 0.43065 0.78758
 C1706 C 0.77571 0.43056 0.78473
 C1707 C 0.77046 0.44040 0.77916
 C1708 C 0.77733 0.45048 0.77636
 C1709 C 0.78946 0.45083 0.77943
 C1710 C 0.79475 0.44097 0.78508
 C1711 C 0.77184 0.45995 0.76961
 C1712 C 0.76631 0.46696 0.76360
 H1713 H 0.81298 0.41112 0.81455
 H1714 H 0.80407 0.42930 0.80595
 H1715 H 0.78453 0.40752 0.78079
 H1716 H 0.79334 0.38949 0.78951
 H1717 H 0.77021 0.42283 0.78672
 H1718 H 0.76107 0.44003 0.77681
 H1719 H 0.79487 0.45856 0.77724
 H1720 H 0.80421 0.44125 0.78713
 C1721 C 0.81212 -0.12133 0.31209
 C1722 C 0.80815 -0.11218 0.30799
 C1723 C 0.80319 -0.10143 0.30296
 C1724 C 0.79530 -0.10223 0.29333
 C1725 C 0.79019 -0.09189 0.28855
 C1726 C 0.79292 -0.08059 0.29335
 C1727 C 0.80097 -0.07983 0.30294
 C1728 C 0.80606 -0.09021 0.30774
 C1729 C 0.78721 -0.06971 0.28836
 C1730 C 0.79390 -0.05926 0.28615
 C1731 C 0.78856 -0.04936 0.28063
 C1732 C 0.77647 -0.04979 0.27740
 C1733 C 0.76969 -0.06001 0.27994
 C1734 C 0.77500 -0.06988 0.28537
 C1735 C 0.77102 -0.04034 0.27060
 C1736 C 0.76566 -0.03334 0.26443
 H1737 H 0.79306 -0.11085 0.28952
 H1738 H 0.78416 -0.09274 0.28105
 H1739 H 0.80315 -0.07126 0.30687
 H1740 H 0.81214 -0.08950 0.31523
 H1741 H 0.80333 -0.05890 0.28832
 H1742 H 0.79390 -0.04152 0.27863
 H1743 H 0.76034 -0.06046 0.27745
 H1744 H 0.76958 -0.07772 0.28715
 C1745 C 0.31247 0.62084 0.68779
 C1746 C 0.30844 0.61175 0.69196
 C1747 C 0.30344 0.60108 0.69716
 C1748 C 0.29318 0.60188 0.70427
 C1749 C 0.28846 0.59164 0.70965
 C1750 C 0.29394 0.58043 0.70802
 C1751 C 0.30413 0.57966 0.70068
 C1752 C 0.30887 0.58995 0.69531
 C1753 C 0.28911 0.56970 0.71417
 C1754 C 0.28794 0.55870 0.70818
 C1755 C 0.28275 0.54883 0.71393
 C1756 C 0.27880 0.54985 0.72574
 C1757 C 0.28022 0.56067 0.73183
 C1758 C 0.28533 0.57052 0.72611
 C1759 C 0.27230 0.54033 0.73147
 C1760 C 0.26614 0.53325 0.73678
 H1761 H 0.28886 0.61043 0.70570
 H1762 H 0.28048 0.59248 0.71507
 H1763 H 0.30857 0.57117 0.69931
 H1764 H 0.31682 0.58924 0.68982
 H1765 H 0.29068 0.55784 0.69895
 H1766 H 0.28157 0.54053 0.70909
 H1767 H 0.27713 0.56158 0.74095
 H1768 H 0.28627 0.57880 0.73102
 C1769 C 0.31141 1.12164 0.18909
 C1770 C 0.30746 1.11233 0.19282
 C1771 C 0.30254 1.10125 0.19713
 C1772 C 0.29027 1.10038 0.19944
 C1773 C 0.28539 1.08964 0.20356
 C1774 C 0.29273 1.07959 0.20544
 C1775 C 0.30506 1.08054 0.20309
 C1776 C 0.30993 1.09131 0.19894
 C1777 C 0.28752 1.06832 0.21018
 C1778 C 0.29344 1.06187 0.21920
 C1779 C 0.28795 1.05199 0.22455
 C1780 C 0.27654 1.04836 0.22089
 C1781 C 0.27079 1.05443 0.21162
 C1782 C 0.27626 1.06432 0.20626
 C1783 C 0.27010 1.03954 0.22768
 C1784 C 0.26437 1.03291 0.23395
 H1785 H 0.28448 1.10803 0.19807
 H1786 H 0.27590 1.08927 0.20549
 H1787 H 0.31092 1.07294 0.20436
 H1788 H 0.31943 1.09188 0.19713
 H1789 H 0.30205 1.06481 0.22250
 H1790 H 0.29239 1.04749 0.23187
 H1791 H 0.26189 1.05180 0.20883
 H1792 H 0.27155 1.06899 0.19923
 C1793 C 0.81141 0.62127 0.18913
 C1794 C 0.80750 0.61195 0.19288
 C1795 C 0.80263 0.60086 0.19723
 C1796 C 0.80989 0.59071 0.19822
 C1797 C 0.80505 0.57990 0.20228
 C1798 C 0.79287 0.57912 0.20537
 C1799 C 0.78567 0.58940 0.20438
 C1800 C 0.79053 0.60018 0.20035
 C1801 C 0.78768 0.56777 0.20993
 C1802 C 0.77612 0.56419 0.20648
 C1803 C 0.77073 0.55419 0.21171
 C1804 C 0.77683 0.54759 0.22038
 C1805 C 0.78852 0.55079 0.22353
 C1806 C 0.79394 0.56079 0.21830
 C1807 C 0.77050 0.53869 0.22718
 C1808 C 0.76480 0.53207 0.23349
 H1809 H 0.81927 0.59115 0.19582
 H1810 H 0.81079 0.57213 0.20287
 H1811 H 0.77632 0.58915 0.20690
 H1812 H 0.78485 0.60800 0.19967
 H1813 H 0.77115 0.56927 0.19993
 H1814 H 0.76162 0.55188 0.20931
 H1815 H 0.79325 0.54587 0.23038
 H1816 H 0.80280 0.56338 0.22121
 C1817 C 0.81214 1.12101 0.68826
 C1818 C 0.80834 1.11177 0.69233
 C1819 C 0.80369 1.10088 0.69738
 C1820 C 0.80500 1.08999 0.69134
 C1821 C 0.80042 1.07944 0.69630
 C1822 C 0.79452 1.07967 0.70739
 C1823 C 0.79326 1.09066 0.71337
 C1824 C 0.79781 1.10118 0.70839
 C1825 C 0.78944 1.06858 0.71266
 C1826 C 0.79039 1.06644 0.72499
 C1827 C 0.78469 1.05661 0.73017
 C1828 C 0.77801 1.04873 0.72313
 C1829 C 0.77734 1.05052 0.71079
 C1830 C 0.78308 1.06036 0.70556
 C1831 C 0.77087 1.03972 0.72890
 C1832 C 0.76457 1.03299 0.73448
 H1833 H 0.80954 1.08966 0.68280
 H1834 H 0.80160 1.07110 0.69155
 H1835 H 0.78858 1.09117 0.72182
 H1836 H 0.79670 1.10957 0.71310
 H1837 H 0.79537 1.07249 0.73065
 H1838 H 0.78517 1.05537 0.73975
 H1839 H 0.77206 1.04456 0.70529
 H1840 H 0.78213 1.06181 0.69606
 C1841 C 0.68835 0.62106 0.31195
 C1842 C 0.69239 0.61193 0.30791
 C1843 C 0.69742 0.60119 0.30297
 C1844 C 0.69232 0.59001 0.30546
 C1845 C 0.69724 0.57962 0.30051
 C1846 C 0.70728 0.58035 0.29296
 C1847 C 0.71237 0.59162 0.29061
 C1848 C 0.70747 0.60195 0.29558
 C1849 C 0.71240 0.56949 0.28736
 C1850 C 0.71596 0.56979 0.27534
 C1851 C 0.72155 0.55994 0.27016
 C1852 C 0.72364 0.54960 0.27687
 C1853 C 0.71985 0.54905 0.28877
 C1854 C 0.71419 0.55893 0.29398
 C1855 C 0.73036 0.54005 0.27149
 C1856 C 0.73639 0.53296 0.26607
 H1857 H 0.68451 0.58933 0.31116
 H1858 H 0.69308 0.57107 0.30237
 H1859 H 0.72019 0.59244 0.28496
 H1860 H 0.71151 0.61055 0.29363
 H1861 H 0.71450 0.57771 0.26996
 H1862 H 0.72446 0.56048 0.26095
 H1863 H 0.72150 0.54111 0.29406
 H1864 H 0.71156 0.55848 0.30327
 C1865 C 0.68898 1.12197 0.81079
 C1866 C 0.69260 1.11246 0.80723
 C1867 C 0.69700 1.10114 0.80304
 C1868 C 0.68932 1.09318 0.79719
 C1869 C 0.69369 1.08229 0.79287
 C1870 C 0.70581 1.07924 0.79436
 C1871 C 0.71341 1.08725 0.80039
 C1872 C 0.70902 1.09811 0.80470
 C1873 C 0.71070 1.06805 0.78915
 C1874 C 0.71940 1.06136 0.79529
 C1875 C 0.72493 1.05157 0.78983
 C1876 C 0.72176 1.04828 0.77822
 C1877 C 0.71276 1.05457 0.77223
 C1878 C 0.70724 1.06437 0.77766
 C1879 C 0.72866 1.03949 0.77187
 C1880 C 0.73478 1.03288 0.76595
 H1881 H 0.67998 1.09541 0.79592
 H1882 H 0.68761 1.07627 0.78836
 H1883 H 0.72282 1.08526 0.80151
 H1884 H 0.71503 1.10422 0.80922
 H1885 H 0.72211 1.06386 0.80422
 H1886 H 0.73194 1.04682 0.79452
 H1887 H 0.71035 1.05221 0.76317
 H1888 H 0.70066 1.06939 0.77265
 C1889 C 0.18885 0.62153 0.81093
 C1890 C 0.19241 0.61203 0.80731
 C1891 C 0.19671 0.60072 0.80293
 C1892 C 0.20897 0.59821 0.80306
 C1893 C 0.21320 0.58733 0.79861
 C1894 C 0.20521 0.57879 0.79394
 C1895 C 0.19288 0.58135 0.79397
 C1896 C 0.18868 0.59225 0.79844
 C1897 C 0.20980 0.56755 0.78856
 C1898 C 0.20502 0.56328 0.77775
 C1899 C 0.21015 0.55344 0.77201
 C1900 C 0.22004 0.54767 0.77703
 C1901 C 0.22457 0.55156 0.78800
 C1902 C 0.21947 0.56141 0.79375
 C1903 C 0.22653 0.53892 0.77021
 C1904 C 0.23265 0.53238 0.76423
 H1905 H 0.21527 0.60472 0.80651
 H1906 H 0.22275 0.58572 0.79856
 H1907 H 0.18649 0.57492 0.79057
 H1908 H 0.17916 0.59408 0.79835
 H1909 H 0.19769 0.56790 0.77345
 H1910 H 0.20671 0.55064 0.76342
 H1911 H 0.23232 0.54725 0.79188
 H1912 H 0.22325 0.56437 0.80213
 C1913 C 0.18903 1.12173 0.31111
 C1914 C 0.19274 1.11225 0.30756
 C1915 C 0.19730 1.10097 0.30339
 C1916 C 0.20907 1.09761 0.30600
 C1917 C 0.21361 1.08678 0.30174
 C1918 C 0.20644 1.07915 0.29478
 C1919 C 0.19456 1.08253 0.29234
 C1920 C 0.19004 1.09337 0.29662
 C1921 C 0.21155 1.06805 0.28958
 C1922 C 0.20892 1.06484 0.27773
 C1923 C 0.21460 1.05509 0.27241
 C1924 C 0.22297 1.04838 0.27883
 C1925 C 0.22535 1.05122 0.29075
 C1926 C 0.21965 1.06097 0.29611
 C1927 C 0.23002 1.03956 0.27270
 C1928 C 0.23617 1.03292 0.26685
 H1929 H 0.21478 1.10343 0.31122
 H1930 H 0.22284 1.08454 0.30364
 H1931 H 0.18876 1.07679 0.28714
 H1932 H 0.18091 1.09587 0.29457
 H1933 H 0.20288 1.07020 0.27240
 H1934 H 0.21282 1.05308 0.26312
 H1935 H 0.23187 1.04613 0.29577
 H1936 H 0.22175 1.06312 0.30529
 C1937 C 0.68898 0.37849 0.68882
 C1938 C 0.69261 0.38780 0.69284
 C1939 C 0.69687 0.39889 0.69777
 C1940 C 0.69805 0.40902 0.69052
 C1941 C 0.70215 0.41980 0.69537
 C1942 C 0.70509 0.42057 0.70754
 C1943 C 0.70388 0.41032 0.71474
 C1944 C 0.69980 0.39956 0.70988
 C1945 C 0.70975 0.43188 0.71271
 C1946 C 0.70619 0.43553 0.72418
 C1947 C 0.71146 0.44550 0.72956
 C1948 C 0.72029 0.45200 0.72353
 C1949 C 0.72356 0.44873 0.71193
 C1950 C 0.71829 0.43877 0.70651
 C1951 C 0.72710 0.46088 0.72986
 C1952 C 0.73342 0.46750 0.73553
 H1953 H 0.69582 0.40858 0.68113
 H1954 H 0.70292 0.42755 0.68963
 H1955 H 0.70629 0.41056 0.72409
 H1956 H 0.69901 0.39175 0.71555
 H1957 H 0.69951 0.43053 0.72909
 H1958 H 0.70897 0.44785 0.73861
 H1959 H 0.73054 0.45358 0.70726
 H1960 H 0.72130 0.43613 0.69772
 C1961 C 0.68888 -0.12169 0.18880
 C1962 C 0.69254 -0.11222 0.19241
 C1963 C 0.69689 -0.10091 0.19672
 C1964 C 0.70861 -0.09731 0.19420
 C1965 C 0.71294 -0.08646 0.19865
 C1966 C 0.70558 -0.07907 0.20570
 C1967 C 0.69374 -0.08269 0.20799
 C1968 C 0.68943 -0.09354 0.20353
 C1969 C 0.71045 -0.06800 0.21116
 C1970 C 0.70765 -0.06509 0.22305
 C1971 C 0.71310 -0.05534 0.22862
 C1972 C 0.72138 -0.04831 0.22239
 C1973 C 0.72394 -0.05088 0.21044
 C1974 C 0.71849 -0.06064 0.20484
 C1975 C 0.72825 -0.03949 0.22873
 C1976 C 0.73447 -0.03288 0.23452
 H1977 H 0.71445 -0.10295 0.18893
 H1978 H 0.72215 -0.08402 0.19685
 H1979 H 0.68780 -0.07714 0.21324
 H1980 H 0.68033 -0.09623 0.20548
 H1981 H 0.70166 -0.07067 0.22823
 H1982 H 0.71120 -0.05356 0.23793
 H1983 H 0.73044 -0.04559 0.20558
 H1984 H 0.72073 -0.06257 0.19564
 C1985 C 0.18898 0.37867 0.18893
 C1986 C 0.19259 0.38811 0.19266
 C1987 C 0.19690 0.39936 0.19712
 C1988 C 0.20257 0.40743 0.18943
 C1989 C 0.20702 0.41826 0.19381
 C1990 C 0.20585 0.42113 0.20598
 C1991 C 0.20000 0.41300 0.21361
 C1992 C 0.19557 0.40219 0.20920
 C1993 C 0.21120 0.43226 0.21083
 C1994 C 0.20526 0.43886 0.21973
 C1995 C 0.21086 0.44862 0.22516
 C1996 C 0.22243 0.45196 0.22170
 C1997 C 0.22822 0.44573 0.21255
 C1998 C 0.22264 0.43597 0.20711
 C1999 C 0.22893 0.46070 0.22851
 C2000 C 0.23484 0.46729 0.23462
 H2001 H 0.20363 0.40532 0.18005
 H2002 H 0.21136 0.42438 0.18770
 H2003 H 0.19912 0.41486 0.22305
 H2004 H 0.19124 0.39597 0.21524
 H2005 H 0.19638 0.43631 0.22266
 H2006 H 0.20634 0.45330 0.23232
 H2007 H 0.23726 0.44811 0.20994
 H2008 H 0.22751 0.43100 0.20040
 C2009 C 0.18784 -0.12080 0.68858
 C2010 C 0.19195 -0.11168 0.69258
 C2011 C 0.19718 -0.10093 0.69735
 C2012 C 0.19261 -0.08968 0.69427
 C2013 C 0.19799 -0.07928 0.69869
 C2014 C 0.20806 -0.08001 0.70618
 C2015 C 0.21249 -0.09137 0.70930
 C2016 C 0.20709 -0.10174 0.70490
 C2017 C 0.21398 -0.06905 0.71077
 C2018 C 0.22654 -0.06837 0.71121
 C2019 C 0.23218 -0.05849 0.71634
 C2020 C 0.22539 -0.04912 0.72106
 C2021 C 0.21288 -0.04953 0.72037
 C2022 C 0.20720 -0.05941 0.71518
 C2023 C 0.23132 -0.03990 0.72778
 C2024 C 0.23675 -0.03301 0.73403
 H2025 H 0.18498 -0.08896 0.68837
 H2026 H 0.19443 -0.07066 0.69609
 H2027 H 0.22009 -0.09224 0.71522
 H2028 H 0.21070 -0.11039 0.70735
 H2029 H 0.23200 -0.07556 0.70772
 H2030 H 0.24186 -0.05834 0.71696
 H2031 H 0.20753 -0.04242 0.72418
 H2032 H 0.19752 -0.05973 0.71504
 C2033 C 0.31095 0.31090 0.37838
 C2034 C 0.30727 0.30723 0.38781
 C2035 C 0.30287 0.30289 0.39907
 C2036 C 0.29678 0.31061 0.40680
 C2037 C 0.29226 0.30635 0.41763
 C2038 C 0.29375 0.29428 0.42086
 C2039 C 0.30004 0.28663 0.41310
 C2040 C 0.30455 0.29092 0.40228
 C2041 C 0.28824 0.28952 0.43195
 C2042 C 0.29423 0.28091 0.43889
 C2043 C 0.28854 0.27560 0.44866
 C2044 C 0.27683 0.27887 0.45166
 C2045 C 0.27096 0.28771 0.44506
 C2046 C 0.27663 0.29303 0.43529
 C2047 C 0.27029 0.27216 0.46046
 C2048 C 0.26443 0.26603 0.46711
 H2049 H 0.29546 0.31991 0.40442
 H2050 H 0.28759 0.31248 0.42347
 H2051 H 0.30120 0.27726 0.41524
 H2052 H 0.30924 0.28486 0.39635
 H2053 H 0.30322 0.27812 0.43662
 H2054 H 0.29312 0.26867 0.45363
 H2055 H 0.26182 0.29015 0.44717
 H2056 H 0.27170 0.29948 0.43003
 C2057 C 0.31085 0.81128 -0.12194
 C2058 C 0.30724 0.80769 -0.11246
 C2059 C 0.30297 0.80338 -0.10112
 C2060 C 0.29120 0.80569 -0.09755
 C2061 C 0.28694 0.80123 -0.08669
 C2062 C 0.29443 0.79439 -0.07926
 C2063 C 0.30631 0.79231 -0.08284
 C2064 C 0.31055 0.79677 -0.09370
 C2065 C 0.28963 0.78888 -0.06819
 C2066 C 0.29265 0.77704 -0.06521
 C2067 C 0.28726 0.77139 -0.05547
 C2068 C 0.27883 0.77750 -0.04854
 C2069 C 0.27607 0.78942 -0.05117
 C2070 C 0.28146 0.79510 -0.06092
 C2071 C 0.27202 0.77104 -0.03974
 C2072 C 0.26590 0.76514 -0.03310
 H2073 H 0.28526 0.81080 -0.10323
 H2074 H 0.27770 0.80286 -0.08428
 H2075 H 0.31233 0.78720 -0.07725
 H2076 H 0.31970 0.79499 -0.09634
 H2077 H 0.29875 0.77195 -0.07073
 H2078 H 0.28933 0.76211 -0.05364
 H2079 H 0.26948 0.79420 -0.04593
 H2080 H 0.27906 0.80426 -0.06291
 C2081 C 0.81046 0.31125 -0.12174
 C2082 C 0.80675 0.30760 -0.11231
 C2083 C 0.80233 0.30329 -0.10104
 C2084 C 0.79052 0.30564 -0.09762
 C2085 C 0.78613 0.30127 -0.08678
 C2086 C 0.79351 0.29447 -0.07920
 C2087 C 0.80543 0.29233 -0.08264
 C2088 C 0.80980 0.29670 -0.09349
 C2089 C 0.78858 0.28914 -0.06810
 C2090 C 0.79151 0.27733 -0.06491
 C2091 C 0.78597 0.27184 -0.05516
 C2092 C 0.77747 0.27808 -0.04843
 C2093 C 0.77480 0.28997 -0.05126
 C2094 C 0.78034 0.29549 -0.06101
 C2095 C 0.77055 0.27177 -0.03961
 C2096 C 0.76445 0.26586 -0.03298
 H2097 H 0.78465 0.31073 -0.10340
 H2098 H 0.77687 0.30294 -0.08448
 H2099 H 0.81137 0.28726 -0.07693
 H2100 H 0.81898 0.29488 -0.09601
 H2101 H 0.79766 0.27212 -0.07028
 H2102 H 0.78798 0.26258 -0.05316
 H2103 H 0.76815 0.29485 -0.04618
 H2104 H 0.77800 0.30463 -0.06317
 C2105 C 0.81053 0.81073 0.37843
 C2106 C 0.80682 0.80711 0.38787
 C2107 C 0.80237 0.80287 0.39915
 C2108 C 0.79627 0.81066 0.40679
 C2109 C 0.79172 0.80651 0.41765
 C2110 C 0.79321 0.79447 0.42100
 C2111 C 0.79953 0.78675 0.41334
 C2112 C 0.80407 0.79093 0.40249
 C2113 C 0.78772 0.78983 0.43215
 C2114 C 0.79371 0.78130 0.43917
 C2115 C 0.78802 0.77609 0.44901
 C2116 C 0.77631 0.77939 0.45199
 C2117 C 0.77045 0.78818 0.44531
 C2118 C 0.77611 0.79339 0.43548
 C2119 C 0.76978 0.77270 0.46083
 C2120 C 0.76399 0.76650 0.46750
 H2121 H 0.79496 0.81994 0.40432
 H2122 H 0.78704 0.81270 0.42342
 H2123 H 0.80070 0.77741 0.41559
 H2124 H 0.80878 0.78482 0.39665
 H2125 H 0.80269 0.77847 0.43691
 H2126 H 0.79261 0.76921 0.45404
 H2127 H 0.76131 0.79066 0.44740
 H2128 H 0.77120 0.79980 0.43016
 C2129 C 0.68919 0.31080 0.62144
 C2130 C 0.69304 0.30711 0.61209
 C2131 C 0.69778 0.30275 0.60098
 C2132 C 0.71002 0.30036 0.59993
 C2133 C 0.71469 0.29613 0.58917
 C2134 C 0.70718 0.29422 0.57929
 C2135 C 0.69488 0.29666 0.58041
 C2136 C 0.69022 0.30092 0.59119
 C2137 C 0.71215 0.28934 0.56803
 C2138 C 0.70610 0.28025 0.56180
 C2139 C 0.71142 0.27476 0.55192
 C2140 C 0.72278 0.27837 0.54809
 C2141 C 0.72865 0.28774 0.55393
 C2142 C 0.72336 0.29323 0.56380
 C2143 C 0.72911 0.27150 0.53927
 C2144 C 0.73491 0.26530 0.53265
 H2145 H 0.71594 0.30171 0.60746
 H2146 H 0.72416 0.29415 0.58866
 H2147 H 0.68891 0.29538 0.57293
 H2148 H 0.68074 0.30277 0.59189
 H2149 H 0.69751 0.27699 0.56490
 H2150 H 0.70688 0.26738 0.54759
 H2151 H 0.73750 0.29052 0.55112
 H2152 H 0.72815 0.30033 0.56831
 C2153 C 0.68900 0.81081 1.12135
 C2154 C 0.69284 0.80716 1.11199
 C2155 C 0.69752 0.80280 1.10085
 C2156 C 0.68995 0.80128 1.09103
 C2157 C 0.69450 0.79690 1.08025
 C2158 C 0.70670 0.79401 1.07917
 C2159 C 0.71425 0.79565 1.08908
 C2160 C 0.70968 0.80000 1.09984
 C2161 C 0.71152 0.78889 1.06793
 C2162 C 0.72289 0.79227 1.06374
 C2163 C 0.72795 0.78656 1.05387
 C2164 C 0.72170 0.77744 1.04802
 C2165 C 0.71019 0.77432 1.05184
 C2166 C 0.70510 0.78004 1.06170
 C2167 C 0.72776 0.77035 1.03917
 C2168 C 0.73353 0.76413 1.03254
 H2169 H 0.68053 0.80343 1.09171
 H2170 H 0.68851 0.79583 1.07275
 H2171 H 0.72364 0.79332 1.08860
 H2172 H 0.71562 0.80109 1.10740
 H2173 H 0.72799 0.79915 1.06825
 H2174 H 0.73692 0.78896 1.05108
 H2175 H 0.70535 0.76714 1.04750
 H2176 H 0.69638 0.77715 1.06479
 C2177 C 0.18925 0.31103 1.12153
 C2178 C 0.19312 0.30736 1.11218
 C2179 C 0.19790 0.30305 1.10107
 C2180 C 0.21010 0.30043 1.10013
 C2181 C 0.21482 0.29629 1.08936
 C2182 C 0.20738 0.29469 1.07937
 C2183 C 0.19512 0.29732 1.08039
 C2184 C 0.19042 0.30150 1.09118
 C2185 C 0.21242 0.28993 1.06808
 C2186 C 0.20630 0.28104 1.06163
 C2187 C 0.21165 0.27564 1.05172
 C2188 C 0.22313 0.27914 1.04808
 C2189 C 0.22906 0.28831 1.05415
 C2190 C 0.22374 0.29370 1.06406
 C2191 C 0.22946 0.27229 1.03925
 C2192 C 0.23521 0.26603 1.03264
 H2193 H 0.21596 0.30154 1.10774
 H2194 H 0.22425 0.29413 1.08892
 H2195 H 0.18921 0.29625 1.07282
 H2196 H 0.18096 0.30352 1.09180
 H2197 H 0.19763 0.27786 1.06457
 H2198 H 0.20706 0.26840 1.04721
 H2199 H 0.23799 0.29100 1.05151
 H2200 H 0.22859 0.30063 1.06876
 C2201 C 0.18915 0.81120 0.62149
 C2202 C 0.19306 0.80749 0.61217
 C2203 C 0.19785 0.80313 0.60109
 C2204 C 0.21005 0.80051 0.60017
 C2205 C 0.21478 0.79634 0.58941
 C2206 C 0.20736 0.79472 0.57941
 C2207 C 0.19509 0.79735 0.58041
 C2208 C 0.19038 0.80155 0.59119
 C2209 C 0.21241 0.78997 0.56812
 C2210 C 0.20632 0.78108 0.56164
 C2211 C 0.21168 0.77573 0.55171
 C2212 C 0.22313 0.77927 0.54807
 C2213 C 0.22904 0.78845 0.55416
 C2214 C 0.22372 0.79379 0.56410
 C2215 C 0.22947 0.77247 0.53921
 C2216 C 0.23521 0.76624 0.53257
 H2217 H 0.21590 0.80164 0.60779
 H2218 H 0.22421 0.79419 0.58898
 H2219 H 0.18919 0.79627 0.57284
 H2220 H 0.18092 0.80357 0.59181
 H2221 H 0.19766 0.77786 0.56459
 H2222 H 0.20710 0.76849 0.54718
 H2223 H 0.23797 0.79117 0.55151
 H2224 H 0.22856 0.80072 0.56881
 C2225 C 0.31084 0.68964 0.62136
 C2226 C 0.30712 0.69350 0.61204
 C2227 C 0.30272 0.69814 0.60091
 C2228 C 0.30009 0.71032 0.59982
 C2229 C 0.29573 0.71485 0.58905
 C2230 C 0.29393 0.70724 0.57922
 C2231 C 0.29666 0.69501 0.58038
 C2232 C 0.30103 0.69050 0.59117
 C2233 C 0.28881 0.71201 0.56797
 C2234 C 0.27981 0.70568 0.56187
 C2235 C 0.27412 0.71076 0.55199
 C2236 C 0.27743 0.72216 0.54803
 C2237 C 0.28670 0.72831 0.55373
 C2238 C 0.29239 0.72326 0.56362
 C2239 C 0.27037 0.72823 0.53920
 C2240 C 0.26415 0.73400 0.53258
 H2241 H 0.30131 0.71630 0.60733
 H2242 H 0.29354 0.72426 0.58850
 H2243 H 0.29548 0.68897 0.57293
 H2244 H 0.30307 0.68106 0.59192
 H2245 H 0.27679 0.69705 0.56507
 H2246 H 0.26682 0.70600 0.54774
 H2247 H 0.28926 0.73719 0.55081
 H2248 H 0.29941 0.72827 0.56801
 C2249 C 0.31095 0.18918 1.12149
 C2250 C 0.30723 0.19301 1.11216
 C2251 C 0.30279 0.19768 1.10104
 C2252 C 0.30110 0.19007 1.09127
 C2253 C 0.29669 0.19462 1.08051
 C2254 C 0.29393 0.20684 1.07939
 C2255 C 0.29574 0.21441 1.08926
 C2256 C 0.30013 0.20985 1.10000
 C2257 C 0.28881 0.21167 1.06816
 C2258 C 0.29234 0.22297 1.06389
 C2259 C 0.28666 0.22805 1.05403
 C2260 C 0.27741 0.22192 1.04827
 C2261 C 0.27412 0.21048 1.05216
 C2262 C 0.27983 0.20535 1.06202
 C2263 C 0.27037 0.22802 1.03943
 C2264 C 0.26419 0.23380 1.03278
 H2265 H 0.30316 0.18063 1.09198
 H2266 H 0.29549 0.18859 1.07304
 H2267 H 0.29352 0.22383 1.08875
 H2268 H 0.30135 0.21581 1.10752
 H2269 H 0.29934 0.22797 1.06833
 H2270 H 0.28918 0.23697 1.05118
 H2271 H 0.26685 0.20574 1.04789
 H2272 H 0.27682 0.19670 1.06517
 C2273 C 0.81059 0.68871 1.12143
 C2274 C 0.80681 0.69267 1.11217
 C2275 C 0.80239 0.69757 1.10115
 C2276 C 0.79905 0.70961 1.10059
 C2277 C 0.79493 0.71448 1.08988
 C2278 C 0.79407 0.70737 1.07957
 C2279 C 0.79739 0.69525 1.08022
 C2280 C 0.80155 0.69040 1.09095
 C2281 C 0.78947 0.71257 1.06830
 C2282 C 0.78116 0.70626 1.06128
 C2283 C 0.77590 0.71170 1.05134
 C2284 C 0.77898 0.72344 1.04825
 C2285 C 0.78759 0.72959 1.05490
 C2286 C 0.79283 0.72419 1.06483
 C2287 C 0.77221 0.72974 1.03934
 C2288 C 0.76599 0.73543 1.03266
 H2289 H 0.79961 0.71524 1.10844
 H2290 H 0.79223 0.72378 1.08971
 H2291 H 0.79691 0.68959 1.07241
 H2292 H 0.80413 0.68107 1.09128
 H2293 H 0.77832 0.69734 1.06378
 H2294 H 0.76910 0.70692 1.04638
 H2295 H 0.78993 0.73873 1.05267
 H2296 H 0.79933 0.72920 1.06996
 C2297 C 0.81121 0.18939 0.62136
 C2298 C 0.80761 0.19312 0.61194
 C2299 C 0.80333 0.19757 0.60069
 C2300 C 0.79901 0.18963 0.59207
 C2301 C 0.79463 0.19397 0.58122
 C2302 C 0.79452 0.20633 0.57887
 C2303 C 0.79903 0.21423 0.58756
 C2304 C 0.80339 0.20987 0.59839
 C2305 C 0.78920 0.21106 0.56769
 C2306 C 0.79439 0.22089 0.56178
 C2307 C 0.78868 0.22610 0.55198
 C2308 C 0.77776 0.22152 0.54793
 C2309 C 0.77276 0.21148 0.55347
 C2310 C 0.77845 0.20625 0.56326
 C2311 C 0.77096 0.22802 0.53919
 C2312 C 0.76486 0.23397 0.53261
 H2313 H 0.79897 0.18008 0.59375
 H2314 H 0.79134 0.18767 0.57467
 H2315 H 0.79891 0.22380 0.58610
 H2316 H 0.80671 0.21609 0.60502
 H2317 H 0.80274 0.22470 0.56488
 H2318 H 0.79257 0.23396 0.54784
 H2319 H 0.76421 0.20799 0.55054
 H2320 H 0.77415 0.19880 0.56770
 C2321 C 0.68927 0.68930 0.37873
 C2322 C 0.69299 0.69284 0.38819
 C2323 C 0.69748 0.69701 0.39948
 C2324 C 0.69024 0.70398 0.40692
 C2325 C 0.69467 0.70819 0.41779
 C2326 C 0.70643 0.70550 0.42136
 C2327 C 0.71357 0.69832 0.41390
 C2328 C 0.70913 0.69414 0.40302
 C2329 C 0.71149 0.71070 0.43244
 C2330 C 0.71944 0.70409 0.43960
 C2331 C 0.72506 0.70943 0.44939
 C2332 C 0.72278 0.72142 0.45215
 C2333 C 0.71457 0.72793 0.44532
 C2334 C 0.70895 0.72261 0.43555
 C2335 C 0.72978 0.72756 0.46100
 C2336 C 0.73588 0.73344 0.46764
 H2337 H 0.68120 0.70624 0.40429
 H2338 H 0.68890 0.71356 0.42341
 H2339 H 0.72270 0.69620 0.41631
 H2340 H 0.71484 0.68879 0.39732
 H2341 H 0.72148 0.69487 0.43750
 H2342 H 0.73143 0.70432 0.45458
 H2343 H 0.71284 0.73726 0.44727
 H2344 H 0.70304 0.72801 0.43012
 C2345 C 0.68924 0.18866 -0.12177
 C2346 C 0.69285 0.19218 -0.11227
 C2347 C 0.69722 0.19640 -0.10096
 C2348 C 0.70890 0.19371 -0.09737
 C2349 C 0.71329 0.19810 -0.08655
 C2350 C 0.70605 0.20528 -0.07918
 C2351 C 0.69426 0.20776 -0.08277
 C2352 C 0.68988 0.20335 -0.09359
 C2353 C 0.71102 0.21066 -0.06814
 C2354 C 0.70839 0.22260 -0.06520
 C2355 C 0.71392 0.22807 -0.05546
 C2356 C 0.72213 0.22171 -0.04850
 C2357 C 0.72449 0.20969 -0.05110
 C2358 C 0.71897 0.20419 -0.06085
 C2359 C 0.72905 0.22797 -0.03965
 C2360 C 0.73514 0.23386 -0.03298
 H2361 H 0.71468 0.18836 -0.10299
 H2362 H 0.72246 0.19616 -0.08412
 H2363 H 0.68843 0.21313 -0.07722
 H2364 H 0.68081 0.20545 -0.09624
 H2365 H 0.70248 0.22788 -0.07074
 H2366 H 0.71213 0.23742 -0.05365
 H2367 H 0.73088 0.20468 -0.04583
 H2368 H 0.72107 0.19495 -0.06284
 C2369 C 0.18907 0.68912 -0.12165
 C2370 C 0.19266 0.69268 -0.11216
 C2371 C 0.19696 0.69693 -0.10083
 C2372 C 0.18965 0.70408 -0.09363
 C2373 C 0.19398 0.70855 -0.08282
 C2374 C 0.20569 0.70593 -0.07906
 C2375 C 0.21287 0.69850 -0.08624
 C2376 C 0.20853 0.69406 -0.09706
 C2377 C 0.21065 0.71145 -0.06807
 C2378 C 0.21870 0.70514 -0.06076
 C2379 C 0.22419 0.71077 -0.05105
 C2380 C 0.22167 0.72277 -0.04852
 C2381 C 0.21341 0.72900 -0.05551
 C2382 C 0.20791 0.72339 -0.06519
 C2383 C 0.22855 0.72914 -0.03972
 C2384 C 0.23471 0.73499 -0.03310
 H2385 H 0.18065 0.70631 -0.09642
 H2386 H 0.18817 0.71410 -0.07744
 H2387 H 0.22197 0.69641 -0.08370
 H2388 H 0.21428 0.68854 -0.10256
 H2389 H 0.22093 0.69591 -0.06266
 H2390 H 0.23066 0.70589 -0.04578
 H2391 H 0.21154 0.73835 -0.05378
 H2392 H 0.20192 0.72858 -0.07073
 C2393 C 0.18940 0.18924 0.37853
 C2394 C 0.19303 0.19276 0.38802
 C2395 C 0.19738 0.19696 0.39934
 C2396 C 0.20905 0.19427 0.40294
 C2397 C 0.21339 0.19859 0.41379
 C2398 C 0.20611 0.20569 0.42120
 C2399 C 0.19432 0.20817 0.41759
 C2400 C 0.18999 0.20383 0.40672
 C2401 C 0.21104 0.21099 0.43231
 C2402 C 0.20843 0.22291 0.43533
 C2403 C 0.21396 0.22831 0.44511
 C2404 C 0.22215 0.22188 0.45204
 C2405 C 0.22451 0.20989 0.44936
 C2406 C 0.21897 0.20446 0.43957
 C2407 C 0.22911 0.22809 0.46087
 C2408 C 0.23525 0.23395 0.46749
 H2409 H 0.21484 0.18894 0.39729
 H2410 H 0.22256 0.19664 0.41624
 H2411 H 0.18844 0.21346 0.42316
 H2412 H 0.18091 0.20590 0.40405
 H2413 H 0.20254 0.22825 0.42983
 H2414 H 0.21221 0.23766 0.44699
 H2415 H 0.23091 0.20486 0.45459
 H2416 H 0.22105 0.19523 0.43755
 C2417 C 0.31103 0.37872 0.68903
 C2418 C 0.30713 0.38806 0.69274
 C2419 C 0.30228 0.39919 0.69701
 C2420 C 0.28989 0.40062 0.69794
 C2421 C 0.28510 0.41143 0.70198
 C2422 C 0.29266 0.42098 0.70517
 C2423 C 0.30513 0.41946 0.70418
 C2424 C 0.30989 0.40863 0.70012
 C2425 C 0.28751 0.43228 0.70988
 C2426 C 0.29271 0.43799 0.71978
 C2427 C 0.28716 0.44791 0.72499
 C2428 C 0.27641 0.45229 0.72033
 C2429 C 0.27143 0.44697 0.71020
 C2430 C 0.27695 0.43705 0.70498
 C2431 C 0.26973 0.46110 0.72689
 C2432 C 0.26383 0.46769 0.73304
 H2433 H 0.28391 0.39338 0.69556
 H2434 H 0.27548 0.41224 0.70282
 H2435 H 0.31118 0.42668 0.70645
 H2436 H 0.31950 0.40764 0.69936
 H2437 H 0.30074 0.43446 0.72386
 H2438 H 0.29100 0.45183 0.73296
 H2439 H 0.26304 0.45021 0.70660
 H2440 H 0.27282 0.43296 0.69726
 C2441 C 0.31196 0.87936 0.18826
 C2442 C 0.30809 0.88861 0.19220
 C2443 C 0.30323 0.89952 0.19696
 C2444 C 0.30940 0.91035 0.19567
 C2445 C 0.30458 0.92092 0.20034
 C2446 C 0.29350 0.92076 0.20630
 C2447 C 0.28738 0.90982 0.20752
 C2448 C 0.29222 0.89929 0.20289
 C2449 C 0.28833 0.93187 0.21139
 C2450 C 0.27599 0.93411 0.21043
 C2451 C 0.27088 0.94396 0.21613
 C2452 C 0.27800 0.95173 0.22285
 C2453 C 0.29035 0.94984 0.22353
 C2454 C 0.29551 0.93999 0.21778
 C2455 C 0.27227 0.96076 0.22999
 C2456 C 0.26664 0.96750 0.23622
 H2457 H 0.31791 0.91063 0.19104
 H2458 H 0.30943 0.92922 0.19916
 H2459 H 0.27892 0.90937 0.21222
 H2460 H 0.28739 0.89095 0.20397
 H2461 H 0.27026 0.92812 0.20543
 H2462 H 0.26129 0.94529 0.21560
 H2463 H 0.29593 0.95573 0.22882
 H2464 H 0.30502 0.93845 0.21874
 C2465 C 0.81276 0.37936 0.18765
 C2466 C 0.80882 0.38847 0.19184
 C2467 C 0.80389 0.39913 0.19706
 C2468 C 0.79596 0.39813 0.20667
 C2469 C 0.79087 0.40836 0.21167
 C2470 C 0.79366 0.41977 0.20715
 C2471 C 0.80177 0.42073 0.19759
 C2472 C 0.80684 0.41045 0.19256
 C2473 C 0.78796 0.43054 0.21239
 C2474 C 0.79468 0.44090 0.21487
 C2475 C 0.78935 0.45068 0.22061
 C2476 C 0.77725 0.45021 0.22380
 C2477 C 0.77045 0.44008 0.22102
 C2478 C 0.77574 0.43033 0.21535
 C2479 C 0.77172 0.45960 0.23062
 C2480 C 0.76619 0.46659 0.23668
 H2481 H 0.79367 0.38943 0.21026
 H2482 H 0.78478 0.40735 0.21912
 H2483 H 0.80397 0.42940 0.19386
 H2484 H 0.81296 0.41132 0.18511
 H2485 H 0.80412 0.44128 0.21272
 H2486 H 0.79472 0.45845 0.22280
 H2487 H 0.76107 0.43962 0.22347
 H2488 H 0.77029 0.42257 0.21338
 C2489 C 0.81220 0.87973 0.68786
 C2490 C 0.80828 0.88884 0.69207
 C2491 C 0.80351 0.89957 0.69733
 C2492 C 0.79499 0.89869 0.70642
 C2493 C 0.79050 0.90901 0.71181
 C2494 C 0.79448 0.92039 0.70818
 C2495 C 0.80291 0.92121 0.69888
 C2496 C 0.80743 0.91085 0.69352
 C2497 C 0.78984 0.93127 0.71418
 C2498 C 0.78643 0.94140 0.70754
 C2499 C 0.78125 0.95128 0.71322
 C2500 C 0.77954 0.95118 0.72560
 C2501 C 0.78327 0.94131 0.73229
 C2502 C 0.78838 0.93143 0.72664
 C2503 C 0.77278 0.96045 0.73140
 C2504 C 0.76645 0.96735 0.73673
 H2505 H 0.79183 0.89001 0.70938
 H2506 H 0.78384 0.90809 0.71878
 H2507 H 0.80617 0.92985 0.69593
 H2508 H 0.81403 0.91162 0.68647
 H2509 H 0.78736 0.94149 0.69792
 H2510 H 0.77828 0.95883 0.70794
 H2511 H 0.78193 0.94110 0.74187
 H2512 H 0.79106 0.92384 0.73201
 C2513 C 0.68884 0.62143 0.68920
 C2514 C 0.69262 0.61201 0.69281
 C2515 C 0.69732 0.60079 0.69699
 C2516 C 0.70951 0.59830 0.69566
 C2517 C 0.71418 0.58749 0.69981
 C2518 C 0.70671 0.57900 0.70535
 C2519 C 0.69444 0.58154 0.70654
 C2520 C 0.68978 0.59237 0.70238
 C2521 C 0.71188 0.56784 0.71039
 C2522 C 0.70816 0.56365 0.72163
 C2523 C 0.71388 0.55391 0.72695
 C2524 C 0.72332 0.54817 0.72109
 C2525 C 0.72680 0.55198 0.70971
 C2526 C 0.72109 0.56172 0.70437
 C2527 C 0.73030 0.53940 0.72738
 C2528 C 0.73638 0.53277 0.73330
 H2529 H 0.71542 0.60477 0.69153
 H2530 H 0.72370 0.58591 0.69894
 H2531 H 0.68844 0.57515 0.71068
 H2532 H 0.68031 0.59421 0.70343
 H2533 H 0.70121 0.56823 0.72657
 H2534 H 0.71124 0.55115 0.73585
 H2535 H 0.73418 0.54767 0.70515
 H2536 H 0.72403 0.56462 0.69562
 C2537 C 0.68895 0.12122 0.18898
 C2538 C 0.69261 0.11173 0.19253
 C2539 C 0.69706 0.10042 0.19675
 C2540 C 0.68973 0.09295 0.20361
 C2541 C 0.69417 0.08212 0.20800
 C2542 C 0.70602 0.07862 0.20556
 C2543 C 0.71324 0.08612 0.19848
 C2544 C 0.70878 0.09694 0.19411
 C2545 C 0.71105 0.06756 0.21089
 C2546 C 0.71908 0.06035 0.20441
 C2547 C 0.72476 0.05066 0.20989
 C2548 C 0.72242 0.04799 0.22186
 C2549 C 0.71411 0.05483 0.22824
 C2550 C 0.70844 0.06452 0.22279
 C2551 C 0.72947 0.03922 0.22806
 C2552 C 0.73570 0.03260 0.23383
 H2553 H 0.68062 0.09553 0.20564
 H2554 H 0.68834 0.07650 0.21332
 H2555 H 0.72246 0.08380 0.19660
 H2556 H 0.71453 0.10265 0.18879
 H2557 H 0.72113 0.06235 0.19518
 H2558 H 0.73125 0.04548 0.20490
 H2559 H 0.71236 0.05295 0.23756
 H2560 H 0.70242 0.06996 0.22807
 C2561 C 0.18844 0.62138 0.18896
 C2562 C 0.19197 0.61190 0.19269
 C2563 C 0.19626 0.60062 0.19716
 C2564 C 0.20146 0.59233 0.18938
 C2565 C 0.20597 0.58153 0.19378
 C2566 C 0.20534 0.57889 0.20604
 C2567 C 0.19994 0.58722 0.21376
 C2568 C 0.19545 0.59801 0.20934
 C2569 C 0.21079 0.56779 0.21089
 C2570 C 0.20520 0.56143 0.22020
 C2571 C 0.21094 0.55170 0.22555
 C2572 C 0.22228 0.54816 0.22162
 C2573 C 0.22772 0.55416 0.21209
 C2574 C 0.22201 0.56388 0.20672
 C2575 C 0.22896 0.53944 0.22828
 C2576 C 0.23497 0.53286 0.23432
 H2577 H 0.20211 0.59425 0.17993
 H2578 H 0.20996 0.57525 0.18760
 H2579 H 0.19949 0.58555 0.22326
 H2580 H 0.19148 0.60439 0.21545
 H2581 H 0.19650 0.56412 0.22349
 H2582 H 0.20671 0.54720 0.23301
 H2583 H 0.23658 0.55161 0.20911
 H2584 H 0.22661 0.56866 0.19968
 C2585 C 0.18841 0.12085 0.68908
 C2586 C 0.19200 0.11141 0.69285
 C2587 C 0.19634 0.10018 0.69737
 C2588 C 0.20815 0.09668 0.69518
 C2589 C 0.21247 0.08592 0.69983
 C2590 C 0.20503 0.07851 0.70679
 C2591 C 0.19310 0.08202 0.70877
 C2592 C 0.18880 0.09279 0.70411
 C2593 C 0.20987 0.06751 0.71243
 C2594 C 0.20682 0.06461 0.72427
 C2595 C 0.21219 0.05491 0.72999
 C2596 C 0.22064 0.04793 0.72398
 C2597 C 0.22346 0.05049 0.71208
 C2598 C 0.21809 0.06020 0.70632
 C2599 C 0.22743 0.03915 0.73047
 C2600 C 0.23366 0.03254 0.73626
 H2601 H 0.21407 0.10235 0.69000
 H2602 H 0.22174 0.08356 0.69826
 H2603 H 0.18711 0.07644 0.71395
 H2604 H 0.17963 0.09539 0.70584
 H2605 H 0.20068 0.07016 0.72929
 H2606 H 0.21007 0.05311 0.73926
 H2607 H 0.23007 0.04521 0.70736
 H2608 H 0.22052 0.06212 0.69716
 C2609 C 0.31122 0.62162 0.31096
 C2610 C 0.30739 0.61230 0.30714
 C2611 C 0.30261 0.60120 0.30272
 C2612 C 0.29037 0.60024 0.30030
 C2613 C 0.28564 0.58949 0.29607
 C2614 C 0.29309 0.57952 0.29421
 C2615 C 0.30538 0.58055 0.29668
 C2616 C 0.31010 0.59133 0.30093
 C2617 C 0.28805 0.56825 0.28935
 C2618 C 0.29405 0.56196 0.28027
 C2619 C 0.28866 0.55208 0.27481
 C2620 C 0.27728 0.54832 0.27845
 C2621 C 0.27147 0.55421 0.28780
 C2622 C 0.27682 0.56409 0.29325
 C2623 C 0.27089 0.53954 0.27161
 C2624 C 0.26503 0.53294 0.26545
 H2625 H 0.28449 0.60783 0.30163
 H2626 H 0.27618 0.58904 0.29404
 H2627 H 0.31132 0.57301 0.29542
 H2628 H 0.31958 0.59197 0.30284
 H2629 H 0.30264 0.56502 0.27699
 H2630 H 0.29314 0.54770 0.26744
 H2631 H 0.26260 0.55147 0.29058
 H2632 H 0.27206 0.56865 0.30032
 C2633 C 0.31187 0.12133 0.81128
 C2634 C 0.30834 0.11193 0.80737
 C2635 C 0.30411 0.10075 0.80259
 C2636 C 0.29977 0.09182 0.81021
 C2637 C 0.29546 0.08106 0.80550
 C2638 C 0.29544 0.07909 0.79310
 C2639 C 0.29992 0.08811 0.78554
 C2640 C 0.30421 0.09885 0.79026
 C2641 C 0.29035 0.06792 0.78799
 C2642 C 0.29572 0.06242 0.77803
 C2643 C 0.29025 0.05264 0.77250
 C2644 C 0.27941 0.04816 0.77688
 C2645 C 0.27424 0.05329 0.78704
 C2646 C 0.27968 0.06307 0.79259
 C2647 C 0.27284 0.03939 0.77016
 C2648 C 0.26674 0.03278 0.76425
 H2649 H 0.29969 0.09319 0.81978
 H2650 H 0.29219 0.07425 0.81157
 H2651 H 0.29985 0.08697 0.77595
 H2652 H 0.30753 0.10572 0.78428
 H2653 H 0.30402 0.06583 0.77439
 H2654 H 0.29425 0.04883 0.76455
 H2655 H 0.26573 0.05004 0.79038
 H2656 H 0.27525 0.06717 0.80014
 C2657 C 0.81105 0.62143 0.81092
 C2658 C 0.80711 0.61210 0.80725
 C2659 C 0.80222 0.60096 0.80304
 C2660 C 0.78994 0.60000 0.80083
 C2661 C 0.78512 0.58923 0.79676
 C2662 C 0.79252 0.57922 0.79486
 C2663 C 0.80486 0.58026 0.79715
 C2664 C 0.80966 0.59106 0.80124
 C2665 C 0.78739 0.56793 0.79013
 C2666 C 0.79332 0.56151 0.78109
 C2667 C 0.78786 0.55161 0.77576
 C2668 C 0.77647 0.54794 0.77945
 C2669 C 0.77071 0.55398 0.78875
 C2670 C 0.77614 0.56388 0.79408
 C2671 C 0.77004 0.53913 0.77266
 C2672 C 0.76433 0.53252 0.76636
 H2673 H 0.78410 0.60761 0.80219
 H2674 H 0.77564 0.58880 0.79483
 H2675 H 0.81076 0.57270 0.79582
 H2676 H 0.81917 0.59169 0.80299
 H2677 H 0.80192 0.56448 0.77775
 H2678 H 0.79231 0.54713 0.76842
 H2679 H 0.76182 0.55132 0.79157
 H2680 H 0.77143 0.56854 0.80113
 C2681 C 0.81189 0.12100 0.31140
 C2682 C 0.80792 0.11177 0.30750
 C2683 C 0.80292 0.10085 0.30288
 C2684 C 0.79185 0.10111 0.29709
 C2685 C 0.78678 0.09054 0.29278
 C2686 C 0.79272 0.07954 0.29419
 C2687 C 0.80390 0.07937 0.29994
 C2688 C 0.80895 0.08997 0.30428
 C2689 C 0.78726 0.06837 0.28953
 C2690 C 0.79419 0.05993 0.28329
 C2691 C 0.78877 0.04999 0.27796
 C2692 C 0.77639 0.04832 0.27892
 C2693 C 0.76951 0.05643 0.28549
 C2694 C 0.77489 0.06637 0.29078
 C2695 C 0.77044 0.03926 0.27202
 C2696 C 0.76491 0.03250 0.26572
 H2697 H 0.78712 0.10949 0.29592
 H2698 H 0.77826 0.09101 0.28821
 H2699 H 0.80863 0.07102 0.30124
 H2700 H 0.81752 0.08967 0.30879
 H2701 H 0.80371 0.06129 0.28210
 H2702 H 0.79415 0.04387 0.27273
 H2703 H 0.75991 0.05529 0.28619
 H2704 H 0.76935 0.07260 0.29568
 C2705 C 0.68813 0.37855 0.31119
 C2706 C 0.69165 0.38794 0.30724
 C2707 C 0.69588 0.39908 0.30236
 C2708 C 0.69855 0.39989 0.29019
 C2709 C 0.70275 0.41064 0.28539
 C2710 C 0.70436 0.42074 0.29271
 C2711 C 0.70164 0.41984 0.30494
 C2712 C 0.69742 0.40907 0.30972
 C2713 C 0.70918 0.43202 0.28760
 C2714 C 0.71799 0.43861 0.29371
 C2715 C 0.72340 0.44853 0.28833
 C2716 C 0.72001 0.45205 0.27684
 C2717 C 0.71092 0.44585 0.27090
 C2718 C 0.70551 0.43593 0.27625
 C2719 C 0.72692 0.46088 0.27052
 C2720 C 0.73331 0.46745 0.26484
 H2721 H 0.69747 0.39219 0.28443
 H2722 H 0.70496 0.41098 0.27599
 H2723 H 0.70269 0.42749 0.31077
 H2724 H 0.69538 0.40853 0.31916
 H2725 H 0.72109 0.43576 0.30241
 H2726 H 0.73057 0.45313 0.29293
 H2727 H 0.70833 0.44841 0.26194
 H2728 H 0.69863 0.43116 0.27140
 C2729 C 0.68890 0.87851 0.81122
 C2730 C 0.69253 0.88781 0.80718
 C2731 C 0.69674 0.89890 0.80219
 C2732 C 0.69910 0.89968 0.78996
 C2733 C 0.70310 0.91044 0.78503
 C2734 C 0.70478 0.92059 0.79226
 C2735 C 0.70239 0.91971 0.80456
 C2736 C 0.69838 0.90893 0.80948
 C2737 C 0.70935 0.93190 0.78699
 C2738 C 0.71826 0.93858 0.79284
 C2739 C 0.72341 0.94854 0.78729
 C2740 C 0.71967 0.95200 0.77588
 C2741 C 0.71049 0.94568 0.77020
 C2742 C 0.70534 0.93572 0.77573
 C2743 C 0.72631 0.96091 0.76939
 C2744 C 0.73253 0.96758 0.76365
 H2745 H 0.69792 0.89196 0.78425
 H2746 H 0.70507 0.91076 0.77557
 H2747 H 0.70353 0.92738 0.81034
 H2748 H 0.69655 0.90841 0.81896
 H2749 H 0.72162 0.93580 0.80146
 H2750 H 0.73065 0.95325 0.79168
 H2751 H 0.70763 0.94818 0.76132
 H2752 H 0.69837 0.93086 0.77109
 C2753 C 0.18820 0.37875 0.81144
 C2754 C 0.19228 0.38797 0.80762
 C2755 C 0.19745 0.39888 0.80313
 C2756 C 0.19123 0.40971 0.80401
 C2757 C 0.19643 0.42030 0.79979
 C2758 C 0.20795 0.42017 0.79471
 C2759 C 0.21408 0.40922 0.79384
 C2760 C 0.20887 0.39867 0.79802
 C2761 C 0.21355 0.43133 0.79014
 C2762 C 0.22581 0.43350 0.79197
 C2763 C 0.23137 0.44340 0.78676
 C2764 C 0.22475 0.45131 0.77970
 C2765 C 0.21246 0.44948 0.77817
 C2766 C 0.20687 0.43958 0.78341
 C2767 C 0.23090 0.46034 0.77288
 C2768 C 0.23641 0.46713 0.76657
 H2769 H 0.18241 0.40998 0.80802
 H2770 H 0.19153 0.42861 0.80067
 H2771 H 0.22287 0.40879 0.78978
 H2772 H 0.21376 0.39034 0.79730
 H2773 H 0.23115 0.42741 0.79726
 H2774 H 0.24091 0.44467 0.78791
 H2775 H 0.20729 0.45545 0.77258
 H2776 H 0.19744 0.43809 0.78176
 C2777 C 0.18869 0.87884 0.31140
 C2778 C 0.19242 0.88809 0.30734
 C2779 C 0.19683 0.89908 0.30231
 C2780 C 0.19649 0.90969 0.30893
 C2781 C 0.20066 0.92038 0.30392
 C2782 C 0.20521 0.92056 0.29221
 C2783 C 0.20556 0.90982 0.28567
 C2784 C 0.20141 0.89917 0.29070
 C2785 C 0.20981 0.93180 0.28685
 C2786 C 0.20747 0.93450 0.27482
 C2787 C 0.21274 0.94445 0.26941
 C2788 C 0.22036 0.95189 0.27595
 C2789 C 0.22240 0.94956 0.28805
 C2790 C 0.21711 0.93960 0.29350
 C2791 C 0.22726 0.96086 0.26983
 C2792 C 0.23364 0.96756 0.26429
 H2793 H 0.19297 0.90971 0.31794
 H2794 H 0.20020 0.92851 0.30913
 H2795 H 0.20921 0.90964 0.27672
 H2796 H 0.20181 0.89098 0.28554
 H2797 H 0.20176 0.92876 0.26952
 H2798 H 0.21122 0.94610 0.26001
 H2799 H 0.22844 0.95515 0.29315
 H2800 H 0.21916 0.93770 0.30274
 C2801 C 0.37909 0.31218 0.68843
 C2802 C 0.38817 0.30817 0.69261
 C2803 C 0.39889 0.30319 0.69771
 C2804 C 0.39805 0.29550 0.70752
 C2805 C 0.40836 0.29041 0.71237
 C2806 C 0.41969 0.29294 0.70747
 C2807 C 0.42048 0.30080 0.69770
 C2808 C 0.41012 0.30586 0.69282
 C2809 C 0.43054 0.28722 0.71253
 C2810 C 0.44107 0.29386 0.71453
 C2811 C 0.45096 0.28853 0.72006
 C2812 C 0.45045 0.27650 0.72352
 C2813 C 0.44014 0.26979 0.72124
 C2814 C 0.43027 0.27508 0.71579
 C2815 C 0.46000 0.27100 0.73014
 C2816 C 0.46707 0.26549 0.73610
 H2817 H 0.38941 0.29339 0.71139
 H2818 H 0.40748 0.28453 0.71999
 H2819 H 0.42906 0.30280 0.69367
 H2820 H 0.41085 0.31175 0.68518
 H2821 H 0.44150 0.30324 0.71217
 H2822 H 0.45888 0.29382 0.72186
 H2823 H 0.43965 0.26048 0.72390
 H2824 H 0.42238 0.26970 0.71419
 C2825 C 0.37910 0.81300 0.18807
 C2826 C 0.38820 0.80905 0.19224
 C2827 C 0.39887 0.80407 0.19741
 C2828 C 0.41015 0.80667 0.19261
 C2829 C 0.42043 0.80158 0.19760
 C2830 C 0.41951 0.79378 0.20740
 C2831 C 0.40813 0.79131 0.21220
 C2832 C 0.39790 0.79642 0.20724
 C2833 C 0.43028 0.78805 0.21260
 C2834 C 0.42992 0.77593 0.21588
 C2835 C 0.43969 0.77061 0.22148
 C2836 C 0.44999 0.77730 0.22388
 C2837 C 0.45060 0.78931 0.22038
 C2838 C 0.44080 0.79466 0.21470
 C2839 C 0.45945 0.77177 0.23060
 C2840 C 0.46649 0.76625 0.23658
 H2841 H 0.41098 0.81255 0.18497
 H2842 H 0.42907 0.80354 0.19366
 H2843 H 0.40716 0.78546 0.21984
 H2844 H 0.38922 0.79436 0.21104
 H2845 H 0.42202 0.77057 0.21419
 H2846 H 0.43912 0.76131 0.22416
 H2847 H 0.45852 0.79458 0.22224
 H2848 H 0.44130 0.80402 0.21229
 C2849 C 0.87954 0.31250 0.18770
 C2850 C 0.88867 0.30856 0.19186
 C2851 C 0.89937 0.30363 0.19700
 C2852 C 0.89852 0.29655 0.20725
 C2853 C 0.90876 0.29135 0.21212
 C2854 C 0.92002 0.29318 0.20680
 C2855 C 0.92085 0.30048 0.19661
 C2856 C 0.91055 0.30565 0.19172
 C2857 C 0.93076 0.28724 0.21182
 C2858 C 0.94161 0.29350 0.21323
 C2859 C 0.95143 0.28799 0.21872
 C2860 C 0.95052 0.27615 0.22270
 C2861 C 0.93988 0.26979 0.22098
 C2862 C 0.93008 0.27527 0.21558
 C2863 C 0.96000 0.27055 0.22933
 C2864 C 0.96703 0.26510 0.23539
 H2865 H 0.88991 0.29497 0.21143
 H2866 H 0.90786 0.28591 0.22006
 H2867 H 0.92939 0.30193 0.19228
 H2868 H 0.91130 0.31109 0.18376
 H2869 H 0.94236 0.30274 0.21045
 H2870 H 0.95960 0.29302 0.22008
 H2871 H 0.93906 0.26063 0.22405
 H2872 H 0.92192 0.27017 0.21442
 C2873 C 0.87932 0.81301 0.68817
 C2874 C 0.88842 0.80900 0.69232
 C2875 C 0.89910 0.80397 0.69741
 C2876 C 0.89818 0.79644 0.70733
 C2877 C 0.90841 0.79121 0.71217
 C2878 C 0.91974 0.79343 0.70715
 C2879 C 0.92063 0.80113 0.69726
 C2880 C 0.91034 0.80634 0.69240
 C2881 C 0.93050 0.78756 0.71220
 C2882 C 0.94118 0.79399 0.71402
 C2883 C 0.95100 0.78853 0.71956
 C2884 C 0.95025 0.77657 0.72320
 C2885 C 0.93978 0.77005 0.72109
 C2886 C 0.92999 0.77547 0.71563
 C2887 C 0.95974 0.77096 0.72982
 C2888 C 0.96678 0.76543 0.73579
 H2889 H 0.88953 0.79455 0.71129
 H2890 H 0.90747 0.78545 0.71988
 H2891 H 0.92922 0.80290 0.69316
 H2892 H 0.91114 0.81212 0.68467
 H2893 H 0.94179 0.80332 0.71151
 H2894 H 0.95904 0.79368 0.72121
 H2895 H 0.93910 0.76079 0.72389
 H2896 H 0.92197 0.77024 0.71416
 C2897 C 0.62146 0.31189 0.31105
 C2898 C 0.61199 0.30838 0.30729
 C2899 C 0.60072 0.30406 0.30281
 C2900 C 0.59250 0.29865 0.31054
 C2901 C 0.58173 0.29409 0.30612
 C2902 C 0.57903 0.29490 0.29389
 C2903 C 0.58729 0.30051 0.28621
 C2904 C 0.59806 0.30505 0.29065
 C2905 C 0.56794 0.28942 0.28904
 C2906 C 0.56149 0.29509 0.27986
 C2907 C 0.55174 0.28936 0.27452
 C2908 C 0.54828 0.27795 0.27831
 C2909 C 0.55436 0.27243 0.28773
 C2910 C 0.56410 0.27813 0.29309
 C2911 C 0.53955 0.27130 0.27161
 C2912 C 0.53297 0.26533 0.26552
 H2913 H 0.59446 0.29785 0.31997
 H2914 H 0.57550 0.28994 0.31226
 H2915 H 0.58558 0.30111 0.27673
 H2916 H 0.60438 0.30919 0.28459
 H2917 H 0.56412 0.30384 0.27666
 H2918 H 0.54717 0.29367 0.26716
 H2919 H 0.55187 0.26352 0.29062
 H2920 H 0.56895 0.27346 0.30002
 C2921 C 0.62144 0.81145 0.81070
 C2922 C 0.61202 0.80787 0.80691
 C2923 C 0.60076 0.80355 0.80244
 C2924 C 0.59253 0.79821 0.81022
 C2925 C 0.58171 0.79374 0.80585
 C2926 C 0.57897 0.79456 0.79363
 C2927 C 0.58723 0.80010 0.78591
 C2928 C 0.59806 0.80456 0.79030
 C2929 C 0.56782 0.78915 0.78885
 C2930 C 0.56134 0.79485 0.77971
 C2931 C 0.55151 0.78919 0.77446
 C2932 C 0.54799 0.77781 0.77831
 C2933 C 0.55412 0.77225 0.78766
 C2934 C 0.56394 0.77789 0.79293
 C2935 C 0.53919 0.77120 0.77168
 C2936 C 0.53257 0.76526 0.76561
 H2937 H 0.59452 0.79741 0.81964
 H2938 H 0.57548 0.78963 0.81202
 H2939 H 0.58549 0.80070 0.77643
 H2940 H 0.60438 0.80866 0.78421
 H2941 H 0.56401 0.80359 0.77648
 H2942 H 0.54693 0.79351 0.76712
 H2943 H 0.55162 0.76334 0.79055
 H2944 H 0.56883 0.77319 0.79982
 C2945 C 0.12112 0.31120 0.81138
 C2946 C 0.11178 0.30725 0.80772
 C2947 C 0.10069 0.30229 0.80347
 C2948 C 0.09990 0.29004 0.80109
 C2949 C 0.08915 0.28511 0.79706
 C2950 C 0.07902 0.29237 0.79534
 C2951 C 0.07991 0.30469 0.79775
 C2952 C 0.09068 0.30961 0.80181
 C2953 C 0.06774 0.28710 0.79070
 C2954 C 0.06113 0.29302 0.78180
 C2955 C 0.05124 0.28746 0.77653
 C2956 C 0.04778 0.27598 0.78014
 C2957 C 0.05399 0.27024 0.78933
 C2958 C 0.06388 0.27576 0.79460
 C2959 C 0.03901 0.26948 0.77336
 C2960 C 0.03245 0.26373 0.76705
 H2961 H 0.10761 0.28430 0.80231
 H2962 H 0.08884 0.27563 0.79508
 H2963 H 0.07225 0.31050 0.79660
 H2964 H 0.09120 0.31911 0.80366
 H2965 H 0.06394 0.30168 0.77851
 H2966 H 0.04661 0.29191 0.76930
 H2967 H 0.05147 0.26130 0.79210
 H2968 H 0.06868 0.27105 0.80154
 C2969 C 0.12140 0.81139 0.31116
 C2970 C 0.11212 0.80742 0.30741
 C2971 C 0.10108 0.80248 0.30303
 C2972 C 0.09111 0.80984 0.30124
 C2973 C 0.08037 0.80495 0.29707
 C2974 C 0.07949 0.79263 0.29466
 C2975 C 0.08958 0.78534 0.29647
 C2976 C 0.10029 0.79024 0.30061
 C2977 C 0.06823 0.78741 0.28993
 C2978 C 0.06429 0.77610 0.29381
 C2979 C 0.05441 0.77063 0.28848
 C2980 C 0.04828 0.77641 0.27926
 C2981 C 0.05184 0.78786 0.27565
 C2982 C 0.06172 0.79336 0.28098
 C2983 C 0.03947 0.76997 0.27247
 C2984 C 0.03284 0.76426 0.26620
 H2985 H 0.09163 0.81933 0.30309
 H2986 H 0.07274 0.81077 0.29585
 H2987 H 0.08925 0.77586 0.29448
 H2988 H 0.10798 0.78448 0.30190
 H2989 H 0.06902 0.77137 0.30080
 H2990 H 0.05181 0.76171 0.29126
 H2991 H 0.04728 0.79234 0.26839
 H2992 H 0.06460 0.80201 0.27771
 C2993 C 0.62151 0.68868 0.68937
 C2994 C 0.61210 0.69245 0.69303
 C2995 C 0.60089 0.69709 0.69731
 C2996 C 0.59232 0.68941 0.70227
 C2997 C 0.58149 0.69400 0.70654
 C2998 C 0.57910 0.70634 0.70588
 C2999 C 0.58774 0.71395 0.70076
 C3000 C 0.59854 0.70935 0.69652
 C3001 C 0.56791 0.71139 0.71097
 C3002 C 0.56193 0.72084 0.70521
 C3003 C 0.55214 0.72641 0.71063
 C3004 C 0.54815 0.72256 0.72182
 C3005 C 0.55375 0.71289 0.72742
 C3006 C 0.56354 0.70730 0.72202
 C3007 C 0.53938 0.72944 0.72822
 C3008 C 0.53276 0.73558 0.73410
 H3009 H 0.59403 0.67989 0.70289
 H3010 H 0.57498 0.68791 0.71033
 H3011 H 0.58627 0.72351 0.70031
 H3012 H 0.60513 0.71537 0.69272
 H3013 H 0.56497 0.72408 0.69662
 H3014 H 0.54795 0.73399 0.70628
 H3015 H 0.55087 0.70997 0.73619
 H3016 H 0.56802 0.70015 0.72675
 C3017 C 0.62177 0.18857 0.18916
 C3018 C 0.61233 0.19233 0.19276
 C3019 C 0.60108 0.19694 0.19698
 C3020 C 0.59256 0.18921 0.20193
 C3021 C 0.58174 0.19373 0.20628
 C3022 C 0.57931 0.20607 0.20570
 C3023 C 0.58787 0.21373 0.20054
 C3024 C 0.59867 0.20918 0.19620
 C3025 C 0.56816 0.21104 0.21094
 C3026 C 0.56210 0.22051 0.20531
 C3027 C 0.55237 0.22603 0.21089
 C3028 C 0.54852 0.22209 0.22210
 C3029 C 0.55420 0.21239 0.22757
 C3030 C 0.56393 0.20686 0.22201
 C3031 C 0.53981 0.22891 0.22865
 C3032 C 0.53323 0.23502 0.23459
 H3033 H 0.59430 0.17969 0.20247
 H3034 H 0.57528 0.18760 0.21010
 H3035 H 0.58637 0.22329 0.20013
 H3036 H 0.60519 0.21524 0.19235
 H3037 H 0.56504 0.22382 0.19671
 H3038 H 0.54813 0.23363 0.20665
 H3039 H 0.55143 0.20941 0.23634
 H3040 H 0.56849 0.19969 0.22664
 C3041 C 0.12147 0.68868 0.18884
 C3042 C 0.11201 0.69242 0.19243
 C3043 C 0.10078 0.69709 0.19662
 C3044 C 0.09806 0.70918 0.19491
 C3045 C 0.08727 0.71384 0.19914
 C3046 C 0.07902 0.70647 0.20514
 C3047 C 0.08177 0.69428 0.20670
 C3048 C 0.09258 0.68963 0.20246
 C3049 C 0.06790 0.71164 0.21024
 C3050 C 0.06403 0.70826 0.22170
 C3051 C 0.05430 0.71398 0.22704
 C3052 C 0.04826 0.72312 0.22100
 C3053 C 0.05176 0.72626 0.20943
 C3054 C 0.06150 0.72054 0.20406
 C3055 C 0.03949 0.73012 0.22727
 C3056 C 0.03288 0.73623 0.23318
 H3057 H 0.10435 0.71504 0.19043
 H3058 H 0.08553 0.72330 0.19798
 H3059 H 0.07556 0.68835 0.21119
 H3060 H 0.09458 0.68024 0.20379
 H3061 H 0.06886 0.70158 0.22676
 H3062 H 0.05178 0.71160 0.23607
 H3063 H 0.04722 0.73339 0.20472
 H3064 H 0.06416 0.72322 0.19516
 C3065 C 0.12056 0.18633 0.68851
 C3066 C 0.11140 0.19042 0.69248
 C3067 C 0.10068 0.19576 0.69722
 C3068 C 0.10157 0.20599 0.70432
 C3069 C 0.09126 0.21156 0.70863
 C3070 C 0.07986 0.20698 0.70588
 C3071 C 0.07903 0.19658 0.69886
 C3072 C 0.08939 0.19102 0.69452
 C3073 C 0.06895 0.21311 0.71036
 C3074 C 0.05934 0.20652 0.71514
 C3075 C 0.04953 0.21241 0.72024
 C3076 C 0.04916 0.22492 0.72050
 C3077 C 0.05849 0.23152 0.71540
 C3078 C 0.06830 0.22567 0.71035
 C3079 C 0.04002 0.23107 0.72715
 C3080 C 0.03315 0.23659 0.73335
 H3081 H 0.11026 0.20971 0.70648
 H3082 H 0.09221 0.21942 0.71419
 H3083 H 0.07038 0.19289 0.69653
 H3084 H 0.08860 0.18313 0.68897
 H3085 H 0.05962 0.19684 0.71536
 H3086 H 0.04242 0.20721 0.72431
 H3087 H 0.05835 0.24121 0.71564
 H3088 H 0.07547 0.23099 0.70656
 C3089 C 0.37834 0.68890 0.31119
 C3090 C 0.38768 0.69249 0.30717
 C3091 C 0.39881 0.69673 0.30226
 C3092 C 0.40896 0.69772 0.30949
 C3093 C 0.41979 0.70176 0.30467
 C3094 C 0.42057 0.70486 0.29253
 C3095 C 0.41030 0.70384 0.28534
 C3096 C 0.39950 0.69982 0.29019
 C3097 C 0.43192 0.70948 0.28738
 C3098 C 0.43553 0.70604 0.27585
 C3099 C 0.44550 0.71133 0.27048
 C3100 C 0.45206 0.72005 0.27658
 C3101 C 0.44883 0.72320 0.28823
 C3102 C 0.43886 0.71790 0.29363
 C3103 C 0.46091 0.72694 0.27028
 C3104 C 0.46749 0.73333 0.26462
 H3105 H 0.40851 0.69536 0.31886
 H3106 H 0.42756 0.70235 0.31039
 H3107 H 0.41056 0.70636 0.27601
 H3108 H 0.39168 0.69917 0.28452
 H3109 H 0.43047 0.69945 0.27089
 H3110 H 0.44782 0.70895 0.26140
 H3111 H 0.45371 0.73011 0.29294
 H3112 H 0.43624 0.72083 0.30246
 C3113 C 0.37871 0.18813 0.81114
 C3114 C 0.38815 0.19165 0.80729
 C3115 C 0.39938 0.19587 0.80264
 C3116 C 0.40148 0.19574 0.79034
 C3117 C 0.41229 0.20004 0.78576
 C3118 C 0.42117 0.20455 0.79343
 C3119 C 0.41901 0.20456 0.80580
 C3120 C 0.40819 0.20024 0.81037
 C3121 C 0.43240 0.20964 0.78847
 C3122 C 0.43716 0.22033 0.79309
 C3123 C 0.44702 0.22578 0.78766
 C3124 C 0.45232 0.22059 0.77760
 C3125 C 0.44793 0.20974 0.77320
 C3126 C 0.43807 0.20427 0.77862
 C3127 C 0.46113 0.22718 0.77093
 C3128 C 0.46772 0.23331 0.76499
 H3129 H 0.39471 0.19241 0.78427
 H3130 H 0.41359 0.20008 0.77618
 H3131 H 0.42572 0.20785 0.81195
 H3132 H 0.40666 0.20035 0.81991
 H3133 H 0.43292 0.22478 0.80056
 H3134 H 0.45020 0.23430 0.79101
 H3135 H 0.45185 0.20572 0.76531
 H3136 H 0.43472 0.19595 0.77496
 C3137 C 0.87830 0.68880 0.81081
 C3138 C 0.88783 0.69232 0.80718
 C3139 C 0.89922 0.69648 0.80285
 C3140 C 0.90675 0.70310 0.81032
 C3141 C 0.91770 0.70740 0.80603
 C3142 C 0.92124 0.70512 0.79420
 C3143 C 0.91369 0.69826 0.78684
 C3144 C 0.90276 0.69397 0.79115
 C3145 C 0.93240 0.71044 0.78931
 C3146 C 0.93960 0.70402 0.78123
 C3147 C 0.94938 0.70952 0.77568
 C3148 C 0.95214 0.72146 0.77821
 C3149 C 0.94529 0.72777 0.78655
 C3150 C 0.93551 0.72231 0.79209
 C3151 C 0.96096 0.72775 0.77128
 C3152 C 0.96755 0.73369 0.76515
 H3153 H 0.90413 0.70502 0.81943
 H3154 H 0.92337 0.71253 0.81194
 H3155 H 0.91606 0.69650 0.77764
 H3156 H 0.89701 0.68883 0.78531
 H3157 H 0.93753 0.69481 0.77905
 H3158 H 0.95454 0.70458 0.76915
 H3159 H 0.94722 0.73709 0.78842
 H3160 H 0.93008 0.72755 0.79813
 C3161 C 0.87862 0.18892 0.31126
 C3162 C 0.88808 0.19263 0.30767
 C3163 C 0.89936 0.19712 0.30342
 C3164 C 0.90803 0.18925 0.29903
 C3165 C 0.91892 0.19366 0.29472
 C3166 C 0.92127 0.20602 0.29477
 C3167 C 0.91254 0.21385 0.29934
 C3168 C 0.90166 0.20942 0.30363
 C3169 C 0.93252 0.21084 0.28958
 C3170 C 0.93840 0.22059 0.29493
 C3171 C 0.94825 0.22592 0.28936
 C3172 C 0.95239 0.22154 0.27842
 C3173 C 0.94688 0.21157 0.27325
 C3174 C 0.93703 0.20622 0.27880
 C3175 C 0.96113 0.22821 0.27175
 C3176 C 0.96766 0.23430 0.26574
 H3177 H 0.90634 0.17970 0.29887
 H3178 H 0.92551 0.18741 0.29137
 H3179 H 0.91398 0.22343 0.29932
 H3180 H 0.89499 0.21559 0.30699
 H3181 H 0.93523 0.22425 0.30329
 H3182 H 0.95234 0.23374 0.29335
 H3183 H 0.94987 0.20825 0.26467
 H3184 H 0.93261 0.19884 0.27438
 C3185 C 0.31082 0.31109 0.62161
 C3186 C 0.30713 0.30721 0.61227
 C3187 C 0.30281 0.30245 0.60115
 C3188 C 0.30029 0.29023 0.60016
 C3189 C 0.29619 0.28554 0.58937
 C3190 C 0.29453 0.29301 0.57940
 C3191 C 0.29707 0.30529 0.58048
 C3192 C 0.30120 0.30997 0.59129
 C3193 C 0.28984 0.28800 0.56808
 C3194 C 0.28095 0.29409 0.56160
 C3195 C 0.27565 0.28875 0.55164
 C3196 C 0.27925 0.27733 0.54797
 C3197 C 0.28843 0.27145 0.55407
 C3198 C 0.29372 0.27675 0.56404
 C3199 C 0.27249 0.27098 0.53908
 C3200 C 0.26631 0.26516 0.53245
 H3201 H 0.30144 0.28434 0.60775
 H3202 H 0.29411 0.27609 0.58888
 H3203 H 0.29597 0.31123 0.57293
 H3204 H 0.30315 0.31944 0.59194
 H3205 H 0.27771 0.30271 0.56456
 H3206 H 0.26842 0.29331 0.54710
 H3207 H 0.29121 0.26256 0.55140
 H3208 H 0.30066 0.27193 0.56875
 C3209 C 0.31062 0.81100 0.12139
 C3210 C 0.30698 0.80725 0.11198
 C3211 C 0.30268 0.80279 0.10073
 C3212 C 0.30344 0.79057 0.09815
 C3213 C 0.29914 0.78619 0.08729
 C3214 C 0.29401 0.79399 0.07886
 C3215 C 0.29340 0.80627 0.08150
 C3216 C 0.29772 0.81064 0.09236
 C3217 C 0.28881 0.78920 0.06765
 C3218 C 0.27775 0.79347 0.06346
 C3219 C 0.27222 0.78814 0.05363
 C3220 C 0.27770 0.77852 0.04781
 C3221 C 0.28893 0.77451 0.05160
 C3222 C 0.29447 0.77983 0.06144
 C3223 C 0.27111 0.77183 0.03904
 C3224 C 0.26514 0.76577 0.03244
 H3225 H 0.30725 0.78442 0.10457
 H3226 H 0.29957 0.77667 0.08562
 H3227 H 0.28961 0.81250 0.07515
 H3228 H 0.29714 0.82012 0.09425
 H3229 H 0.27308 0.80056 0.06811
 H3230 H 0.26345 0.79119 0.05088
 H3231 H 0.29320 0.76700 0.04724
 H3232 H 0.30306 0.77646 0.06436
 C3233 C 0.81081 0.31049 0.12127
 C3234 C 0.80718 0.30679 0.11184
 C3235 C 0.80289 0.30239 0.10056
 C3236 C 0.80571 0.29076 0.09690
 C3237 C 0.80141 0.28641 0.08603
 C3238 C 0.79419 0.29362 0.07869
 C3239 C 0.79155 0.30535 0.08237
 C3240 C 0.79587 0.30970 0.09324
 C3241 C 0.78891 0.28867 0.06759
 C3242 C 0.77699 0.29128 0.06456
 C3243 C 0.77158 0.28573 0.05481
 C3244 C 0.77800 0.27752 0.04790
 C3245 C 0.79000 0.27517 0.05056
 C3246 C 0.79544 0.28072 0.06034
 C3247 C 0.77179 0.27055 0.03906
 C3248 C 0.76591 0.26444 0.03243
 H3249 H 0.81112 0.28501 0.10249
 H3250 H 0.80349 0.27729 0.08353
 H3251 H 0.78614 0.31117 0.07686
 H3252 H 0.79369 0.31874 0.09594
 H3253 H 0.77166 0.29721 0.07005
 H3254 H 0.76225 0.28750 0.05294
 H3255 H 0.79505 0.26879 0.04532
 H3256 H 0.80467 0.27863 0.06236
 C3257 C 0.81089 0.81071 0.62159
 C3258 C 0.80727 0.80673 0.61228
 C3259 C 0.80305 0.80188 0.60116
 C3260 C 0.80138 0.78953 0.59998
 C3261 C 0.79733 0.78477 0.58920
 C3262 C 0.79489 0.79229 0.57943
 C3263 C 0.79663 0.80469 0.58069
 C3264 C 0.80069 0.80944 0.59150
 C3265 C 0.79013 0.78721 0.56815
 C3266 C 0.78069 0.79289 0.56211
 C3267 C 0.77535 0.78745 0.55222
 C3268 C 0.77945 0.77633 0.54819
 C3269 C 0.78916 0.77085 0.55385
 C3270 C 0.79449 0.77627 0.56374
 C3271 C 0.77271 0.76985 0.53939
 C3272 C 0.76646 0.76408 0.53278
 H3273 H 0.80315 0.78360 0.60741
 H3274 H 0.79588 0.77521 0.58858
 H3275 H 0.79491 0.81069 0.57331
 H3276 H 0.80199 0.81901 0.59231
 H3277 H 0.77704 0.80125 0.56536
 H3278 H 0.76771 0.79168 0.54803
 H3279 H 0.79231 0.76219 0.55090
 H3280 H 0.80187 0.77177 0.56810
 C3281 C 0.31053 0.68903 0.37859
 C3282 C 0.30687 0.69287 0.38795
 C3283 C 0.30260 0.69761 0.39909
 C3284 C 0.30139 0.70998 0.40052
 C3285 C 0.29726 0.71466 0.41131
 C3286 C 0.29425 0.70702 0.42084
 C3287 C 0.29551 0.69459 0.41933
 C3288 C 0.29967 0.68992 0.40851
 C3289 C 0.28940 0.71205 0.43211
 C3290 C 0.27952 0.70667 0.43777
 C3291 C 0.27413 0.71215 0.44762
 C3292 C 0.27860 0.72300 0.45198
 C3293 C 0.28871 0.72815 0.44671
 C3294 C 0.29411 0.72270 0.43687
 C3295 C 0.27191 0.72959 0.46074
 C3296 C 0.26576 0.73549 0.46732
 H3297 H 0.30359 0.71600 0.39327
 H3298 H 0.29619 0.72425 0.41212
 H3299 H 0.29336 0.68849 0.42653
 H3300 H 0.30059 0.68033 0.40750
 H3301 H 0.27561 0.69855 0.43425
 H3302 H 0.26618 0.70819 0.45150
 H3303 H 0.29216 0.73662 0.44993
 H3304 H 0.30181 0.72696 0.43281
 C3305 C 0.31095 0.18921 0.87862
 C3306 C 0.30736 0.19295 0.88805
 C3307 C 0.30312 0.19748 0.89929
 C3308 C 0.30381 0.20972 0.90173
 C3309 C 0.29954 0.21419 0.91256
 C3310 C 0.29450 0.20646 0.92111
 C3311 C 0.29395 0.19413 0.91862
 C3312 C 0.29825 0.18968 0.90778
 C3313 C 0.28935 0.21135 0.93231
 C3314 C 0.27833 0.20707 0.93664
 C3315 C 0.27285 0.21251 0.94644
 C3316 C 0.27833 0.22223 0.95209
 C3317 C 0.28951 0.22626 0.94814
 C3318 C 0.29501 0.22083 0.93834
 C3319 C 0.27178 0.22898 0.96084
 C3320 C 0.26573 0.23498 0.96742
 H3321 H 0.30756 0.21584 0.89521
 H3322 H 0.29992 0.22374 0.91411
 H3323 H 0.29024 0.18794 0.92507
 H3324 H 0.29772 0.18017 0.90599
 H3325 H 0.27366 0.19990 0.93211
 H3326 H 0.26410 0.20945 0.94930
 H3327 H 0.29377 0.23385 0.95237
 H3328 H 0.30357 0.22422 0.93531
 C3329 C 0.81081 0.68874 0.87860
 C3330 C 0.80703 0.69228 0.88804
 C3331 C 0.80240 0.69646 0.89927
 C3332 C 0.79019 0.69534 0.90180
 C3333 C 0.78561 0.69950 0.91264
 C3334 C 0.79320 0.70488 0.92109
 C3335 C 0.80548 0.70587 0.91851
 C3336 C 0.81004 0.70169 0.90767
 C3337 C 0.78817 0.70990 0.93229
 C3338 C 0.79207 0.72109 0.93652
 C3339 C 0.78647 0.72643 0.94631
 C3340 C 0.77696 0.72064 0.95205
 C3341 C 0.77332 0.70931 0.94821
 C3342 C 0.77891 0.70395 0.93841
 C3343 C 0.77005 0.72702 0.96081
 C3344 C 0.76399 0.73301 0.96740
 H3345 H 0.78418 0.69132 0.89537
 H3346 H 0.77610 0.69874 0.91429
 H3347 H 0.81157 0.70982 0.92491
 H3348 H 0.81952 0.70255 0.90583
 H3349 H 0.79906 0.72598 0.93191
 H3350 H 0.78925 0.73528 0.94909
 H3351 H 0.76590 0.70480 0.95252
 H3352 H 0.77581 0.69526 0.93546
 C3353 C 0.81085 0.18902 0.37838
 C3354 C 0.80725 0.19275 0.38781
 C3355 C 0.80300 0.19723 0.39906
 C3356 C 0.80372 0.20946 0.40159
 C3357 C 0.79941 0.21387 0.41243
 C3358 C 0.79431 0.20609 0.42091
 C3359 C 0.79375 0.19379 0.41834
 C3360 C 0.79807 0.18940 0.40748
 C3361 C 0.78908 0.21092 0.43210
 C3362 C 0.77801 0.20664 0.43630
 C3363 C 0.77245 0.21201 0.44609
 C3364 C 0.77791 0.22167 0.45187
 C3365 C 0.78913 0.22571 0.44805
 C3366 C 0.79471 0.22035 0.43825
 C3367 C 0.77131 0.22837 0.46062
 C3368 C 0.76530 0.23440 0.46720
 H3369 H 0.80751 0.21561 0.39513
 H3370 H 0.79981 0.22341 0.41406
 H3371 H 0.79000 0.18756 0.42473
 H3372 H 0.79752 0.17990 0.40563
 H3373 H 0.77337 0.19952 0.43167
 H3374 H 0.76367 0.20896 0.44885
 H3375 H 0.79336 0.23327 0.45237
 H3376 H 0.80330 0.22374 0.43532
 C3377 C 0.68925 0.31060 0.37847
 C3378 C 0.69306 0.30698 0.38785
 C3379 C 0.69771 0.30271 0.39903
 C3380 C 0.68994 0.30004 0.40847
 C3381 C 0.69448 0.29578 0.41929
 C3382 C 0.70686 0.29416 0.42080
 C3383 C 0.71460 0.29697 0.41128
 C3384 C 0.71004 0.30121 0.40048
 C3385 C 0.71173 0.28912 0.43205
 C3386 C 0.72251 0.29347 0.43685
 C3387 C 0.72776 0.28787 0.44668
 C3388 C 0.72226 0.27792 0.45190
 C3389 C 0.71129 0.27381 0.44751
 C3390 C 0.70602 0.27940 0.43768
 C3391 C 0.72863 0.27103 0.46066
 C3392 C 0.73448 0.26486 0.46724
 H3393 H 0.68037 0.30122 0.40745
 H3394 H 0.68832 0.29381 0.42649
 H3395 H 0.72416 0.29564 0.41209
 H3396 H 0.71613 0.30323 0.39322
 H3397 H 0.72703 0.30105 0.43283
 H3398 H 0.73633 0.29102 0.44992
 H3399 H 0.70707 0.26598 0.45136
 H3400 H 0.69778 0.27577 0.43413
 C3401 C 0.68846 0.81087 0.87884
 C3402 C 0.69249 0.80703 0.88804
 C3403 C 0.69756 0.80250 0.89893
 C3404 C 0.70830 0.79611 0.89856
 C3405 C 0.71346 0.79192 0.90910
 C3406 C 0.70794 0.79407 0.92018
 C3407 C 0.69706 0.80038 0.92047
 C3408 C 0.69192 0.80460 0.90990
 C3409 C 0.71356 0.78963 0.93132
 C3410 C 0.70666 0.78399 0.94020
 C3411 C 0.71221 0.77881 0.95014
 C3412 C 0.72466 0.77934 0.95134
 C3413 C 0.73152 0.78535 0.94278
 C3414 C 0.72601 0.79048 0.93285
 C3415 C 0.73064 0.77250 0.96042
 C3416 C 0.73611 0.76617 0.96720
 H3417 H 0.71271 0.79439 0.89012
 H3418 H 0.72172 0.78691 0.90857
 H3419 H 0.69265 0.80222 0.92888
 H3420 H 0.68361 0.80957 0.91028
 H3421 H 0.69706 0.78314 0.93922
 H3422 H 0.70683 0.77404 0.95663
 H3423 H 0.74117 0.78573 0.94357
 H3424 H 0.73153 0.79493 0.92625
 C3425 C 0.18881 0.31096 0.87864
 C3426 C 0.19270 0.30723 0.88794
 C3427 C 0.19743 0.30279 0.89903
 C3428 C 0.20963 0.30018 0.89999
 C3429 C 0.21427 0.29581 0.91070
 C3430 C 0.20675 0.29397 0.92062
 C3431 C 0.19450 0.29667 0.91959
 C3432 C 0.18988 0.30106 0.90885
 C3433 C 0.21165 0.28890 0.93183
 C3434 C 0.20539 0.27992 0.93806
 C3435 C 0.21057 0.27428 0.94792
 C3436 C 0.22201 0.27762 0.95175
 C3437 C 0.22810 0.28686 0.94589
 C3438 C 0.22295 0.29249 0.93603
 C3439 C 0.22816 0.27063 0.96060
 C3440 C 0.23394 0.26446 0.96726
 H3441 H 0.21555 0.30145 0.89243
 H3442 H 0.22370 0.29365 0.91115
 H3443 H 0.18853 0.29546 0.92710
 H3444 H 0.18043 0.30309 0.90822
 H3445 H 0.19673 0.27688 0.93498
 H3446 H 0.20585 0.26701 0.95227
 H3447 H 0.23701 0.28944 0.94869
 H3448 H 0.22791 0.29949 0.93152
 C3449 C 0.18894 0.81091 0.37857
 C3450 C 0.19270 0.80725 0.38796
 C3451 C 0.19724 0.80293 0.39915
 C3452 C 0.20957 0.80166 0.40080
 C3453 C 0.21402 0.79733 0.41161
 C3454 C 0.20617 0.79419 0.42093
 C3455 C 0.19378 0.79559 0.41922
 C3456 C 0.18935 0.79995 0.40840
 C3457 C 0.21091 0.78898 0.43216
 C3458 C 0.20528 0.77905 0.43746
 C3459 C 0.21046 0.77333 0.44727
 C3460 C 0.22126 0.77754 0.45196
 C3461 C 0.22668 0.78770 0.44705
 C3462 C 0.22153 0.79342 0.43724
 C3463 C 0.22759 0.77059 0.46071
 C3464 C 0.23350 0.76446 0.46728
 H3465 H 0.21575 0.80391 0.39369
 H3466 H 0.22359 0.79617 0.41258
 H3467 H 0.18753 0.79337 0.42627
 H3468 H 0.17979 0.80093 0.40722
 H3469 H 0.19717 0.77535 0.43368
 H3470 H 0.20630 0.76536 0.45088
 H3471 H 0.23513 0.79094 0.45053
 H3472 H 0.22598 0.80115 0.43346
 C3473 C 0.68886 0.68903 0.62163
 C3474 C 0.69234 0.69274 0.61213
 C3475 C 0.69647 0.69725 0.60082
 C3476 C 0.70353 0.69009 0.59339
 C3477 C 0.70782 0.69462 0.58256
 C3478 C 0.70512 0.70639 0.57904
 C3479 C 0.69784 0.71344 0.58649
 C3480 C 0.69356 0.70890 0.59730
 C3481 C 0.71040 0.71155 0.56801
 C3482 C 0.70380 0.71944 0.56077
 C3483 C 0.70921 0.72515 0.55104
 C3484 C 0.72126 0.72300 0.54841
 C3485 C 0.72777 0.71487 0.55532
 C3486 C 0.72239 0.70917 0.56503
 C3487 C 0.72741 0.73001 0.53956
 C3488 C 0.73331 0.73609 0.53289
 H3489 H 0.70580 0.68104 0.59599
 H3490 H 0.71329 0.68892 0.57697
 H3491 H 0.69574 0.72259 0.58413
 H3492 H 0.68810 0.71453 0.60298
 H3493 H 0.69451 0.72136 0.56275
 H3494 H 0.70411 0.73150 0.54581
 H3495 H 0.73715 0.71326 0.55347
 H3496 H 0.72779 0.70331 0.57052
 C3497 C 0.68918 0.18885 0.12146
 C3498 C 0.69268 0.19248 0.11195
 C3499 C 0.69684 0.19689 0.10061
 C3500 C 0.69407 0.20856 0.09705
 C3501 C 0.69837 0.21299 0.08620
 C3502 C 0.70553 0.20580 0.07876
 C3503 C 0.70809 0.19401 0.08233
 C3504 C 0.70377 0.18959 0.09319
 C3505 C 0.71084 0.21083 0.06770
 C3506 C 0.72280 0.20830 0.06471
 C3507 C 0.72823 0.21390 0.05497
 C3508 C 0.72180 0.22208 0.04804
 C3509 C 0.70978 0.22437 0.05068
 C3510 C 0.70432 0.21877 0.06044
 C3511 C 0.72801 0.22905 0.03917
 C3512 C 0.73386 0.23518 0.03250
 H3513 H 0.68873 0.21429 0.10273
 H3514 H 0.69639 0.22216 0.08380
 H3515 H 0.71347 0.18822 0.07675
 H3516 H 0.70593 0.18053 0.09583
 H3517 H 0.72812 0.20239 0.07021
 H3518 H 0.73759 0.21217 0.05312
 H3519 H 0.70473 0.23075 0.04544
 H3520 H 0.69506 0.22079 0.06244
 C3521 C 0.18916 0.68906 0.12151
 C3522 C 0.19274 0.69267 0.11201
 C3523 C 0.19702 0.69699 0.10069
 C3524 C 0.20463 0.68992 0.09375
 C3525 C 0.20903 0.69423 0.08288
 C3526 C 0.20597 0.70577 0.07881
 C3527 C 0.19812 0.71272 0.08583
 C3528 C 0.19369 0.70835 0.09666
 C3529 C 0.21138 0.71076 0.06768
 C3530 C 0.20518 0.71920 0.06066
 C3531 C 0.21076 0.72471 0.05091
 C3532 C 0.22255 0.72176 0.04792
 C3533 C 0.22864 0.71308 0.05452
 C3534 C 0.22313 0.70762 0.06430
 C3535 C 0.22895 0.72860 0.03910
 C3536 C 0.23483 0.73473 0.03245
 H3537 H 0.20724 0.68109 0.09678
 H3538 H 0.21484 0.68850 0.07769
 H3539 H 0.19563 0.72168 0.08315
 H3540 H 0.18779 0.71390 0.10197
 H3541 H 0.19609 0.72174 0.06281
 H3542 H 0.20601 0.73153 0.04595
 H3543 H 0.23784 0.71086 0.05239
 H3544 H 0.22831 0.70134 0.06951
 C3545 C 0.18767 0.18826 0.62102
 C3546 C 0.19170 0.19238 0.61193
 C3547 C 0.19671 0.19741 0.60122
 C3548 C 0.20465 0.20705 0.60202
 C3549 C 0.20979 0.21184 0.59172
 C3550 C 0.20704 0.20707 0.58044
 C3551 C 0.19892 0.19748 0.57968
 C3552 C 0.19381 0.19266 0.59003
 C3553 C 0.21278 0.21206 0.56960
 C3554 C 0.20611 0.21428 0.55919
 C3555 C 0.21148 0.21976 0.54929
 C3556 C 0.22358 0.22297 0.54969
 C3557 C 0.23034 0.22045 0.55988
 C3558 C 0.22500 0.21504 0.56976
 C3559 C 0.22911 0.22966 0.54019
 C3560 C 0.23457 0.23571 0.53313
 H3561 H 0.20691 0.21083 0.61063
 H3562 H 0.21588 0.21933 0.59257
 H3563 H 0.19672 0.19357 0.57112
 H3564 H 0.18767 0.18519 0.58932
 H3565 H 0.19666 0.21214 0.55886
 H3566 H 0.20614 0.22174 0.54148
 H3567 H 0.23971 0.22291 0.56030
 H3568 H 0.23041 0.21328 0.57757
   
