data_POSCAR
  _audit_creation_date              2014-09-24
  _audit_creation_method            'ToBaCCo'
  _symmetry_space_group_name_H-M    'P1'
  _symmetry_Int_Tables_number       1
  _symmetry_cell_setting            triclinic
  loop_
  _symmetry_equiv_pos_as_xyz
 x,y,z
_cell_length_a 44.6455
_cell_length_b 44.6968
_cell_length_c 44.9131
_cell_angle_alpha 89.944300
_cell_angle_beta 89.946800
_cell_angle_gamma 89.933600
loop_
  _atom_site_label
  _atom_site_type_symbol
  _atom_site_fract_x
  _atom_site_fract_y
  _atom_site_fract_z
N1 N 0.38382 0.30119 0.32234
 N2 N 0.38319 0.32169 0.30132
 C3 C 0.40376 0.31476 0.28047
 C4 C 0.41802 0.28869 0.28895
 C5 C 0.40464 0.28051 0.31543
 H6 H 0.40643 0.32620 0.25942
 H7 H 0.40790 0.25966 0.32722
 Cu8 Cu 0.35198 0.35214 0.30025
 Cu9 Cu 0.35405 0.29956 0.35401
 Cu10 Cu 0.29921 0.35424 0.35388
 N11 N 0.32174 0.38355 0.30146
 N12 N 0.30105 0.38408 0.32232
 C13 C 0.28041 0.40491 0.31535
 C14 C 0.28877 0.41835 0.28897
 C15 C 0.31496 0.40420 0.28065
 H16 H 0.25944 0.40810 0.32700
 H17 H 0.32656 0.40696 0.25969
 N18 N 0.30104 0.32228 0.38401
 N19 N 0.32208 0.30151 0.38416
 C20 C 0.31514 0.28078 0.40483
 C21 C 0.28872 0.28907 0.41849
 C22 C 0.28020 0.31525 0.40456
 H23 H 0.32682 0.25979 0.40786
 H24 H 0.25904 0.32671 0.40736
 H25 H 0.32016 0.32035 0.33087
 H26 H 0.34489 0.34521 0.35357
 N27 N 0.38404 0.80147 -0.17874
 N28 N 0.38285 0.82149 -0.20016
 C29 C 0.40369 0.81477 -0.22080
 C30 C 0.41931 0.78972 -0.21150
 C31 C 0.40566 0.78144 -0.18511
 H32 H 0.40590 0.82579 -0.24214
 H33 H 0.40933 0.76084 -0.17299
 Cu34 Cu 0.35136 0.85161 -0.20162
 Cu35 Cu 0.35421 0.79973 -0.14715
 Cu36 Cu 0.29921 0.85417 -0.14724
 N37 N 0.32148 0.88326 -0.19979
 N38 N 0.30113 0.88407 -0.17865
 C39 C 0.28104 0.90560 -0.18502
 C40 C 0.28964 0.91962 -0.21109
 C41 C 0.31498 0.90436 -0.22019
 H42 H 0.26023 0.90902 -0.17312
 H43 H 0.32625 0.90690 -0.24138
 N44 N 0.30111 0.82219 -0.11721
 N45 N 0.32225 0.80153 -0.11702
 C46 C 0.31555 0.78096 -0.09612
 C47 C 0.28920 0.78927 -0.08235
 C48 C 0.28045 0.81527 -0.09645
 H49 H 0.32737 0.76007 -0.09296
 H50 H 0.25927 0.82668 -0.09359
 H51 H 0.31978 0.82018 -0.17035
 H52 H 0.34469 0.84542 -0.14820
 N53 N 0.88332 0.30152 -0.17810
 N54 N 0.88235 0.32192 -0.19919
 C55 C 0.90276 0.31512 -0.22024
 C56 C 0.91742 0.28929 -0.21174
 C57 C 0.90435 0.28107 -0.18508
 H58 H 0.90512 0.32653 -0.24134
 H59 H 0.90801 0.26036 -0.17315
 Cu60 Cu 0.85150 0.35263 -0.19916
 Cu61 Cu 0.85370 0.29994 -0.14612
 Cu62 Cu 0.79862 0.35495 -0.14618
 N63 N 0.82085 0.38351 -0.19912
 N64 N 0.80049 0.38463 -0.17799
 C65 C 0.78041 0.40609 -0.18470
 C66 C 0.78901 0.41967 -0.21103
 C67 C 0.81427 0.40415 -0.21997
 H68 H 0.75966 0.40978 -0.17281
 H69 H 0.82558 0.40637 -0.24115
 N70 N 0.80069 0.32298 -0.11597
 N71 N 0.82174 0.30217 -0.11585
 C72 C 0.81473 0.28140 -0.09525
 C73 C 0.78828 0.28966 -0.08168
 C74 C 0.77981 0.31591 -0.09548
 H75 H 0.82635 0.26038 -0.09226
 H76 H 0.75864 0.32735 -0.09268
 H77 H 0.81956 0.32087 -0.16872
 H78 H 0.84406 0.34543 -0.14574
 N79 N 0.88330 0.80146 0.32203
 N80 N 0.88230 0.82183 0.30090
 C81 C 0.90276 0.81504 0.27990
 C82 C 0.91745 0.78923 0.28843
 C83 C 0.90435 0.78103 0.31509
 H84 H 0.90512 0.82641 0.25877
 H85 H 0.90805 0.76035 0.32707
 Cu86 Cu 0.85126 0.85235 0.30087
 Cu87 Cu 0.85369 0.79987 0.35405
 Cu88 Cu 0.79841 0.85476 0.35375
 N89 N 0.82075 0.88340 0.30083
 N90 N 0.80026 0.88440 0.32185
 C91 C 0.78013 0.90578 0.31504
 C92 C 0.78886 0.91947 0.28880
 C93 C 0.81426 0.90411 0.28001
 H94 H 0.75934 0.90947 0.32689
 H95 H 0.82575 0.90649 0.25894
 N96 N 0.80054 0.82285 0.38408
 N97 N 0.82167 0.80213 0.38433
 C98 C 0.81479 0.78148 0.40509
 C99 C 0.78833 0.78973 0.41868
 C100 C 0.77973 0.81583 0.40466
 H101 H 0.82650 0.76053 0.40823
 H102 H 0.75851 0.82719 0.40741
 H103 H 0.81952 0.82058 0.33150
 H104 H 0.84394 0.84533 0.35433
 N105 N 0.61628 0.69905 0.32249
 N106 N 0.61725 0.67861 0.30149
 C107 C 0.59693 0.68546 0.28037
 C108 C 0.58240 0.71141 0.28871
 C109 C 0.59541 0.71962 0.31535
 H110 H 0.59454 0.67397 0.25932
 H111 H 0.59183 0.74038 0.32719
 Cu112 Cu 0.64777 0.64753 0.30165
 Cu113 Cu 0.64585 0.70065 0.35441
 Cu114 Cu 0.70101 0.64575 0.35436
 N115 N 0.67860 0.61676 0.30182
 N116 N 0.69923 0.61599 0.32267
 C117 C 0.71976 0.59508 0.31558
 C118 C 0.71135 0.58183 0.28912
 C119 C 0.68528 0.59624 0.28087
 H120 H 0.74068 0.59168 0.32725
 H121 H 0.67367 0.59371 0.25990
 N122 N 0.69891 0.67775 0.38454
 N123 N 0.67781 0.69850 0.38468
 C124 C 0.68475 0.71927 0.40526
 C125 C 0.71121 0.71106 0.41883
 C126 C 0.71975 0.68486 0.40501
 H127 H 0.67305 0.74025 0.40827
 H128 H 0.74095 0.67346 0.40780
 H129 H 0.67984 0.67964 0.33179
 H130 H 0.65548 0.65513 0.35505
 N131 N 0.61655 0.19825 -0.17813
 N132 N 0.61762 0.17793 -0.19926
 C133 C 0.59708 0.18465 -0.22019
 C134 C 0.58225 0.21034 -0.21157
 C135 C 0.59535 0.21855 -0.18497
 H136 H 0.59476 0.17333 -0.24133
 H137 H 0.59162 0.23922 -0.17303
 Cu138 Cu 0.64870 0.14748 -0.19918
 Cu139 Cu 0.64625 0.20004 -0.14629
 Cu140 Cu 0.70177 0.14545 -0.14655
 N141 N 0.67916 0.11644 -0.19908
 N142 N 0.69975 0.11565 -0.17820
 C143 C 0.71983 0.09421 -0.18488
 C144 C 0.71097 0.08026 -0.21088
 C145 C 0.68552 0.09551 -0.21967
 H146 H 0.74071 0.09068 -0.17318
 H147 H 0.67398 0.09296 -0.24067
 N148 N 0.69962 0.17750 -0.11644
 N149 N 0.67834 0.19806 -0.11615
 C150 C 0.68508 0.21872 -0.09541
 C151 C 0.71160 0.21063 -0.08187
 C152 C 0.72039 0.18463 -0.09590
 H153 H 0.67318 0.23956 -0.09223
 H154 H 0.74166 0.17337 -0.09315
 H155 H 0.68062 0.17936 -0.16897
 H156 H 0.65639 0.15455 -0.14588
 N157 N 0.11602 0.69874 -0.17728
 N158 N 0.11632 0.67799 -0.19801
 C159 C 0.09547 0.68470 -0.21864
 C160 C 0.08150 0.71100 -0.21039
 C161 C 0.09525 0.71944 -0.18422
 H162 H 0.09250 0.67302 -0.23951
 H163 H 0.09239 0.74052 -0.17277
 Cu164 Cu 0.14776 0.64779 -0.19951
 Cu165 Cu 0.14608 0.70056 -0.14601
 Cu166 Cu 0.20068 0.64574 -0.14606
 N167 N 0.17785 0.61626 -0.19809
 N168 N 0.19864 0.61581 -0.17738
 C169 C 0.21931 0.59506 -0.18444
 C170 C 0.21081 0.58152 -0.21069
 C171 C 0.18450 0.59553 -0.21884
 H172 H 0.24043 0.59209 -0.17303
 H173 H 0.17277 0.59268 -0.23970
 N174 N 0.19908 0.67782 -0.11617
 N175 N 0.17822 0.69876 -0.11616
 C176 C 0.18532 0.71959 -0.09572
 C177 C 0.21167 0.71116 -0.08206
 C178 C 0.22000 0.68482 -0.09575
 H179 H 0.17379 0.74068 -0.09283
 H180 H 0.24107 0.67322 -0.09290
 H181 H 0.17981 0.67950 -0.16917
 H182 H 0.15496 0.65481 -0.14628
 N183 N 0.11630 0.19896 0.32231
 N184 N 0.11719 0.17848 0.30133
 C185 C 0.09688 0.18537 0.28023
 C186 C 0.08238 0.21132 0.28860
 C187 C 0.09543 0.21954 0.31522
 H188 H 0.09450 0.17392 0.25918
 H189 H 0.09184 0.24029 0.32706
 Cu190 Cu 0.14794 0.14765 0.30141
 Cu191 Cu 0.14587 0.20054 0.35424
 Cu192 Cu 0.20101 0.14563 0.35412
 N193 N 0.17861 0.11672 0.30148
 N194 N 0.19927 0.11597 0.32232
 C195 C 0.21984 0.09511 0.31520
 C196 C 0.21145 0.08193 0.28870
 C197 C 0.18537 0.09632 0.28045
 H198 H 0.24071 0.09162 0.32691
 H199 H 0.17378 0.09383 0.25948
 N200 N 0.19887 0.17754 0.38437
 N201 N 0.17781 0.19832 0.38451
 C202 C 0.18475 0.21905 0.40513
 C203 C 0.21119 0.21079 0.41871
 C204 C 0.21971 0.18459 0.40487
 H205 H 0.17309 0.24005 0.40815
 H206 H 0.24089 0.17318 0.40765
 H207 H 0.17985 0.17958 0.33158
 H208 H 0.15546 0.15504 0.35479
 N209 N 0.61620 0.30152 0.67785
 N210 N 0.61659 0.32231 0.69854
 C211 C 0.59634 0.31529 0.71969
 C212 C 0.58236 0.28898 0.71158
 C213 C 0.59571 0.28068 0.68512
 H214 H 0.59371 0.32696 0.74062
 H215 H 0.59265 0.25969 0.67355
 Cu216 Cu 0.64657 0.35396 0.69855
 Cu217 Cu 0.64584 0.29991 0.64610
 Cu218 Cu 0.70105 0.35407 0.64642
 N219 N 0.67870 0.38347 0.69876
 N220 N 0.69974 0.38354 0.67825
 C221 C 0.72077 0.40379 0.68561
 C222 C 0.71230 0.41734 0.71191
 C223 C 0.68571 0.40370 0.71985
 H224 H 0.74188 0.40667 0.67414
 H225 H 0.67375 0.40662 0.74061
 N226 N 0.69879 0.32251 0.61594
 N227 N 0.67769 0.30185 0.61580
 C228 C 0.68458 0.28108 0.59516
 C229 C 0.71108 0.28920 0.58156
 C230 C 0.71962 0.31538 0.59540
 H231 H 0.67283 0.26016 0.59215
 H232 H 0.74081 0.32674 0.59259
 H233 H 0.67901 0.32104 0.66990
 H234 H 0.65533 0.34531 0.64546
 N235 N 0.61598 0.80173 1.17780
 N236 N 0.61654 0.82233 1.19869
 C237 C 0.59591 0.81555 1.21953
 C238 C 0.58174 0.78944 1.21119
 C239 C 0.59517 0.78112 1.18478
 H240 H 0.59326 0.82702 1.24057
 H241 H 0.59205 0.76019 1.17314
 Cu242 Cu 0.64799 0.85247 1.19976
 Cu243 Cu 0.64581 0.79983 1.14621
 Cu244 Cu 0.70102 0.85408 1.14656
 N245 N 0.67876 0.88336 1.19911
 N246 N 0.69954 0.88371 1.17834
 C247 C 0.72039 0.90422 1.18546
 C248 C 0.71202 0.91772 1.21182
 C249 C 0.68564 0.90384 1.22001
 H250 H 0.74140 0.90724 1.17383
 H251 H 0.67392 0.90668 1.24092
 N252 N 0.69891 0.82236 1.11622
 N253 N 0.67786 0.80164 1.11611
 C254 C 0.68482 0.78085 1.09554
 C255 C 0.71126 0.78904 1.08189
 C256 C 0.71976 0.81525 1.09570
 H257 H 0.67313 0.75988 1.09257
 H258 H 0.74093 0.82663 1.09287
 H259 H 0.67950 0.82027 1.16933
 H260 H 0.65506 0.84525 1.14642
 N261 N 0.11588 0.30160 1.17756
 N262 N 0.11647 0.32214 1.19850
 C263 C 0.09590 0.31526 1.21937
 C264 C 0.08171 0.28920 1.21095
 C265 C 0.09508 0.28097 1.18450
 H266 H 0.09325 0.32666 1.24042
 H267 H 0.09192 0.26007 1.17282
 Cu268 Cu 0.14773 0.35244 1.19955
 Cu269 Cu 0.14565 0.29980 1.14594
 Cu270 Cu 0.20043 0.35444 1.14597
 N271 N 0.17814 0.38364 1.19854
 N272 N 0.19876 0.38420 1.17761
 C273 C 0.21943 0.40495 1.18456
 C274 C 0.21114 0.41837 1.21099
 C275 C 0.18499 0.40419 1.21938
 H276 H 0.24039 0.40809 1.17288
 H277 H 0.17346 0.40687 1.24039
 N278 N 0.19853 0.32256 1.11580
 N279 N 0.17762 0.30171 1.11581
 C280 C 0.18468 0.28086 1.09532
 C281 C 0.21107 0.28916 1.08163
 C282 C 0.21941 0.31548 1.09532
 H283 H 0.17311 0.25982 1.09246
 H284 H 0.24050 0.32699 1.09243
 H285 H 0.17933 0.32049 1.16896
 H286 H 0.15454 0.34532 1.14620
 N287 N 0.11613 0.80116 0.67775
 N288 N 0.11694 0.82172 0.69866
 C289 C 0.09672 0.81481 0.71986
 C290 C 0.08241 0.78873 0.71167
 C291 C 0.09543 0.78050 0.68501
 H292 H 0.09433 0.82632 0.74089
 H293 H 0.09198 0.75967 0.67327
 Cu294 Cu 0.14786 0.85238 0.69891
 Cu295 Cu 0.14566 0.79955 0.64578
 Cu296 Cu 0.20092 0.85416 0.64594
 N297 N 0.17922 0.88261 0.69914
 N298 N 0.19981 0.88336 0.67820
 C299 C 0.22069 0.90381 0.68552
 C300 C 0.21252 0.91679 0.71223
 C301 C 0.18633 0.90260 0.72043
 H302 H 0.24150 0.90726 0.67366
 H303 H 0.17473 0.90507 0.74144
 N304 N 0.19842 0.82262 0.61533
 N305 N 0.17750 0.80174 0.61539
 C306 C 0.18459 0.78086 0.59494
 C307 C 0.21100 0.78910 0.58128
 C308 C 0.21929 0.81549 0.59484
 H309 H 0.17307 0.75978 0.59213
 H310 H 0.24041 0.82695 0.59195
 H311 H 0.17955 0.82025 0.66852
 H312 H 0.15516 0.84491 0.64542
 N313 N 0.38353 0.69946 0.67841
 N314 N 0.38341 0.67851 0.69901
 C315 C 0.40359 0.68567 0.72015
 C316 C 0.41715 0.71226 0.71217
 C317 C 0.40369 0.72056 0.68579
 H318 H 0.40649 0.67390 0.74100
 H319 H 0.40653 0.74163 0.67429
 Cu320 Cu 0.35302 0.64720 0.69920
 Cu321 Cu 0.35403 0.70087 0.64653
 Cu322 Cu 0.29970 0.64582 0.64620
 N323 N 0.32227 0.61627 0.69853
 N324 N 0.30141 0.61602 0.67786
 C325 C 0.28051 0.59558 0.68509
 C326 C 0.28882 0.58211 0.71148
 C327 C 0.31524 0.59592 0.71957
 H328 H 0.25944 0.59266 0.67360
 H329 H 0.32686 0.59317 0.74051
 N330 N 0.30163 0.67774 0.61598
 N331 N 0.32244 0.69870 0.61606
 C332 C 0.31542 0.71949 0.59547
 C333 C 0.28917 0.71108 0.58164
 C334 C 0.28087 0.68471 0.59534
 H335 H 0.32690 0.74059 0.59263
 H336 H 0.25987 0.67307 0.59236
 H337 H 0.32058 0.67931 0.66976
 H338 H 0.34521 0.65523 0.64606
 N339 N 0.38424 0.19867 1.17756
 N340 N 0.38370 0.17801 1.19843
 C341 C 0.40417 0.18489 1.21935
 C342 C 0.41821 0.21110 1.21107
 C343 C 0.40489 0.21939 1.18462
 H344 H 0.40683 0.17335 1.24036
 H345 H 0.40801 0.24035 1.17297
 Cu346 Cu 0.35252 0.14760 1.19938
 Cu347 Cu 0.35452 0.20046 1.14589
 Cu348 Cu 0.29989 0.14568 1.14581
 N349 N 0.32218 0.11633 1.19832
 N350 N 0.30160 0.11583 1.17740
 C351 C 0.28091 0.09507 1.18435
 C352 C 0.28916 0.08160 1.21076
 C353 C 0.31530 0.09574 1.21915
 H354 H 0.25997 0.09196 1.17266
 H355 H 0.32676 0.09305 1.24018
 N356 N 0.30177 0.17765 1.11568
 N357 N 0.32261 0.19857 1.11572
 C358 C 0.31549 0.21947 1.09528
 C359 C 0.28915 0.21115 1.08158
 C360 C 0.28089 0.18473 1.09520
 H361 H 0.32700 0.24056 1.09244
 H362 H 0.25984 0.17317 1.09230
 H363 H 0.32081 0.17955 1.16887
 H364 H 0.34568 0.15487 1.14605
 N365 N 0.88408 0.69859 1.17770
 N366 N 0.88355 0.67797 1.19860
 C367 C 0.90401 0.68490 1.21952
 C368 C 0.91806 0.71109 1.21118
 C369 C 0.90471 0.71933 1.18473
 H370 H 0.90674 0.67338 1.24052
 H371 H 0.90774 0.74031 1.17312
 Cu372 Cu 0.85253 0.64745 1.19935
 Cu373 Cu 0.85440 0.70034 1.14600
 Cu374 Cu 0.79976 0.64555 1.14606
 N375 N 0.82212 0.61628 1.19858
 N376 N 0.80149 0.61577 1.17770
 C377 C 0.78080 0.59503 1.18472
 C378 C 0.78909 0.58159 1.21112
 C379 C 0.81526 0.59571 1.21945
 H380 H 0.75980 0.59200 1.17315
 H381 H 0.82679 0.59295 1.24043
 N382 N 0.80163 0.67744 1.11588
 N383 N 0.82250 0.69834 1.11584
 C384 C 0.81542 0.71917 1.09532
 C385 C 0.78907 0.71081 1.08166
 C386 C 0.78077 0.68447 1.09537
 H387 H 0.82695 0.74023 1.09241
 H388 H 0.75971 0.67290 1.09251
 H389 H 0.82076 0.67952 1.16916
 H390 H 0.84555 0.65487 1.14617
 N391 N 0.88403 0.19860 0.67747
 N392 N 0.88384 0.17773 0.69815
 C393 C 0.90424 0.18472 0.71910
 C394 C 0.91798 0.21117 0.71096
 C395 C 0.90444 0.21952 0.68463
 H396 H 0.90693 0.17313 0.74007
 H397 H 0.90724 0.24062 0.67314
 Cu398 Cu 0.85292 0.14699 0.69897
 Cu399 Cu 0.85424 0.20030 0.64588
 Cu400 Cu 0.79939 0.14579 0.64619
 N401 N 0.82159 0.11663 0.69886
 N402 N 0.80074 0.11635 0.67818
 C403 C 0.77965 0.09617 0.68559
 C404 C 0.78788 0.08286 0.71208
 C405 C 0.81441 0.09653 0.72008
 H406 H 0.75860 0.09325 0.67403
 H407 H 0.82607 0.09385 0.74101
 N408 N 0.80154 0.17739 0.61570
 N409 N 0.82237 0.19831 0.61570
 C410 C 0.81527 0.21918 0.59523
 C411 C 0.78891 0.21085 0.58157
 C412 C 0.78066 0.18444 0.59520
 H413 H 0.82678 0.24026 0.59235
 H414 H 0.75960 0.17287 0.59233
 H415 H 0.82079 0.17934 0.66943
 H416 H 0.84513 0.15490 0.64580
 N417 N 0.30100 0.38393 0.67761
 N418 N 0.32165 0.38336 0.69848
 C419 C 0.31483 0.40397 0.71928
 C420 C 0.28869 0.41819 0.71091
 C421 C 0.28036 0.40476 0.68454
 H422 H 0.32635 0.40662 0.74027
 H423 H 0.25940 0.40794 0.67288
 Cu424 Cu 0.35205 0.35208 0.69950
 Cu425 Cu 0.29922 0.35414 0.64605
 Cu426 Cu 0.35400 0.29936 0.64606
 N427 N 0.38331 0.32163 0.69850
 N428 N 0.38385 0.30104 0.67760
 C429 C 0.40473 0.28041 0.68446
 C430 C 0.41825 0.28870 0.71081
 C431 C 0.40399 0.31479 0.71925
 H432 H 0.40790 0.25951 0.67276
 H433 H 0.40668 0.32626 0.74027
 N434 N 0.32204 0.30130 0.61596
 N435 N 0.30111 0.32218 0.61596
 C436 C 0.28025 0.31514 0.59548
 C437 C 0.28864 0.28880 0.58180
 C438 C 0.31501 0.28047 0.59548
 H439 H 0.25916 0.32669 0.59259
 H440 H 0.32660 0.25941 0.59258
 H441 H 0.32008 0.32031 0.66914
 H442 H 0.34483 0.34499 0.64622
 N443 N 0.30110 0.88392 0.17720
 N444 N 0.32175 0.88322 0.19806
 C445 C 0.31482 0.90348 0.21915
 C446 C 0.28870 0.91778 0.21089
 C447 C 0.28040 0.90465 0.18435
 H448 H 0.32633 0.90589 0.24018
 H449 H 0.25951 0.90804 0.17263
 Cu450 Cu 0.35253 0.85240 0.19814
 Cu451 Cu 0.29946 0.85435 0.14537
 Cu452 Cu 0.35446 0.79937 0.14541
 N453 N 0.38336 0.82163 0.19811
 N454 N 0.38406 0.80098 0.17727
 C455 C 0.40475 0.78026 0.18450
 C456 C 0.41786 0.78856 0.21107
 C457 C 0.40359 0.81470 0.21924
 H458 H 0.40814 0.75939 0.17280
 H459 H 0.40602 0.82624 0.24025
 N460 N 0.32257 0.80157 0.11511
 N461 N 0.30165 0.82249 0.11510
 C462 C 0.28084 0.81549 0.09457
 C463 C 0.28921 0.78916 0.08088
 C464 C 0.31555 0.78079 0.09458
 H465 H 0.25974 0.82703 0.09166
 H466 H 0.32709 0.75970 0.09169
 H467 H 0.32052 0.82047 0.16815
 H468 H 0.34499 0.84487 0.14482
 N469 N 0.80087 0.38379 0.17730
 N470 N 0.82147 0.38302 0.19821
 C471 C 0.81464 0.40340 0.21920
 C472 C 0.78856 0.41776 0.21094
 C473 C 0.78022 0.40458 0.18442
 H474 H 0.82618 0.40581 0.24018
 H475 H 0.75930 0.40797 0.17275
 Cu476 Cu 0.85249 0.35246 0.19827
 Cu477 Cu 0.79927 0.35420 0.14548
 Cu478 Cu 0.85426 0.29925 0.14558
 N479 N 0.88306 0.32144 0.19831
 N480 N 0.88383 0.30084 0.17743
 C481 C 0.90461 0.28020 0.18461
 C482 C 0.91777 0.28854 0.21114
 C483 C 0.90342 0.31463 0.21933
 H484 H 0.90802 0.25929 0.17296
 H485 H 0.90585 0.32621 0.24029
 N486 N 0.82239 0.30139 0.11527
 N487 N 0.80145 0.32230 0.11523
 C488 C 0.78063 0.31522 0.09473
 C489 C 0.78901 0.28886 0.08111
 C490 C 0.81538 0.28055 0.09480
 H491 H 0.75953 0.32675 0.09181
 H492 H 0.82693 0.25947 0.09195
 H493 H 0.82037 0.32044 0.16830
 H494 H 0.84480 0.34477 0.14492
 N495 N 0.80122 0.88461 0.67745
 N496 N 0.82202 0.88423 0.69816
 C497 C 0.81529 0.90494 0.71890
 C498 C 0.78900 0.91897 0.71069
 C499 C 0.78051 0.90534 0.68447
 H500 H 0.82694 0.90775 0.73982
 H501 H 0.75941 0.90829 0.67301
 Cu502 Cu 0.85238 0.85293 0.69926
 Cu503 Cu 0.79933 0.85468 0.64602
 Cu504 Cu 0.85411 0.79994 0.64606
 N505 N 0.88363 0.82250 0.69826
 N506 N 0.88402 0.80177 0.67750
 C507 C 0.90477 0.78106 0.68448
 C508 C 0.91839 0.78945 0.71073
 C509 C 0.90434 0.81570 0.71901
 H510 H 0.90774 0.76003 0.67295
 H511 H 0.90715 0.82731 0.73994
 N512 N 0.82208 0.80174 0.61604
 N513 N 0.80113 0.82261 0.61604
 C514 C 0.78027 0.81551 0.59558
 C515 C 0.78870 0.78918 0.58190
 C516 C 0.81508 0.78089 0.59558
 H517 H 0.75917 0.82706 0.59268
 H518 H 0.82672 0.75986 0.59270
 H519 H 0.82037 0.82101 0.66916
 H520 H 0.84504 0.84561 0.64604
 N521 N 0.69884 0.61594 0.67774
 N522 N 0.67817 0.61665 0.69866
 C523 C 0.68489 0.59612 0.71956
 C524 C 0.71090 0.58164 0.71122
 C525 C 0.71933 0.59498 0.68476
 H526 H 0.67336 0.59370 0.74059
 H527 H 0.74027 0.59161 0.67308
 Cu528 Cu 0.64729 0.64741 0.69894
 Cu529 Cu 0.70055 0.64568 0.64605
 Cu530 Cu 0.64556 0.70062 0.64614
 N531 N 0.61659 0.67835 0.69882
 N532 N 0.61584 0.69899 0.67789
 C533 C 0.59488 0.71947 0.68495
 C534 C 0.58156 0.71106 0.71143
 C535 C 0.59608 0.68508 0.71975
 H536 H 0.59147 0.74037 0.67326
 H537 H 0.59367 0.67355 0.74078
 N538 N 0.67751 0.69855 0.61588
 N539 N 0.69848 0.67768 0.61588
 C540 C 0.71933 0.68477 0.59538
 C541 C 0.71094 0.71111 0.58170
 C542 C 0.68454 0.71940 0.59537
 H543 H 0.74045 0.67327 0.59247
 H544 H 0.67296 0.74046 0.59245
 H545 H 0.67947 0.67941 0.66892
 H546 H 0.65505 0.65506 0.64561
 N547 N 0.69924 0.11579 0.17760
 N548 N 0.67853 0.11647 0.19842
 C549 C 0.68531 0.09609 0.21949
 C550 C 0.71146 0.08180 0.21128
 C551 C 0.71989 0.09503 0.18479
 H552 H 0.67374 0.09363 0.24052
 H553 H 0.74083 0.09169 0.17312
 Cu554 Cu 0.64773 0.14725 0.19841
 Cu555 Cu 0.70096 0.14542 0.14571
 Cu556 Cu 0.64584 0.20032 0.14567
 N557 N 0.61688 0.17799 0.19840
 N558 N 0.61616 0.19862 0.17751
 C559 C 0.59533 0.21921 0.18463
 C560 C 0.58212 0.21085 0.21116
 C561 C 0.59648 0.18479 0.21945
 H562 H 0.59192 0.24007 0.17288
 H563 H 0.59404 0.17330 0.24051
 N564 N 0.67780 0.19822 0.11542
 N565 N 0.69879 0.17737 0.11545
 C566 C 0.71964 0.18447 0.09494
 C567 C 0.71120 0.21078 0.08123
 C568 C 0.68479 0.21905 0.09488
 H569 H 0.74078 0.17300 0.09206
 H570 H 0.67319 0.24009 0.09194
 H571 H 0.67983 0.17924 0.16839
 H572 H 0.65545 0.15482 0.14509
 N573 N 0.19895 0.61631 0.17740
 N574 N 0.17831 0.61712 0.19829
 C575 C 0.18511 0.59682 0.21943
 C576 C 0.21121 0.58244 0.21122
 C577 C 0.21958 0.59554 0.18464
 H578 H 0.17353 0.59439 0.24045
 H579 H 0.24048 0.59209 0.17293
 Cu580 Cu 0.14736 0.64778 0.19819
 Cu581 Cu 0.20069 0.64590 0.14547
 Cu582 Cu 0.14578 0.70100 0.14544
 N583 N 0.11669 0.67872 0.19810
 N584 N 0.11604 0.69935 0.17723
 C585 C 0.09523 0.71998 0.18432
 C586 C 0.08192 0.71163 0.21081
 C587 C 0.09622 0.68552 0.21910
 H588 H 0.09189 0.74087 0.17260
 H589 H 0.09365 0.67396 0.24011
 N590 N 0.17778 0.69884 0.11520
 N591 N 0.19864 0.67785 0.11516
 C592 C 0.21950 0.68485 0.09462
 C593 C 0.21123 0.71125 0.08095
 C594 C 0.18490 0.71966 0.09468
 H595 H 0.24056 0.67325 0.09169
 H596 H 0.17342 0.74078 0.09181
 H597 H 0.17965 0.67981 0.16817
 H598 H 0.15518 0.65552 0.14485
 N599 N 0.19891 0.11540 0.67786
 N600 N 0.17829 0.11612 0.69880
 C601 C 0.18509 0.09563 0.71976
 C602 C 0.21112 0.08121 0.71136
 C603 C 0.21945 0.09451 0.68487
 H604 H 0.17366 0.09314 0.74086
 H605 H 0.24034 0.09114 0.67313
 Cu606 Cu 0.14753 0.14695 0.69884
 Cu607 Cu 0.20064 0.14510 0.64603
 Cu608 Cu 0.14564 0.20010 0.64615
 N609 N 0.11682 0.17787 0.69907
 N610 N 0.11605 0.19845 0.67811
 C611 C 0.09523 0.21904 0.68520
 C612 C 0.08205 0.21080 0.71179
 C613 C 0.09644 0.18476 0.72014
 H614 H 0.09178 0.23985 0.67339
 H615 H 0.09394 0.17329 0.74121
 N616 N 0.17756 0.19797 0.61581
 N617 N 0.19853 0.17710 0.61581
 C618 C 0.21940 0.18423 0.59531
 C619 C 0.21100 0.21058 0.58164
 C620 C 0.18459 0.21883 0.59532
 H621 H 0.24053 0.17275 0.59243
 H622 H 0.17301 0.23990 0.59245
 H623 H 0.17956 0.17894 0.66875
 H624 H 0.15511 0.15459 0.64548
 N625 N 0.30127 0.61603 0.32233
 N626 N 0.32197 0.61654 0.30148
 C627 C 0.31518 0.59598 0.28064
 C628 C 0.28899 0.58187 0.28896
 C629 C 0.28062 0.59529 0.31535
 H630 H 0.32675 0.59330 0.25966
 H631 H 0.25963 0.59216 0.32698
 Cu632 Cu 0.35239 0.64767 0.30055
 Cu633 Cu 0.29944 0.64579 0.35390
 Cu634 Cu 0.35429 0.70038 0.35396
 N635 N 0.38357 0.67803 0.30148
 N636 N 0.38413 0.69860 0.32239
 C637 C 0.40493 0.71922 0.31544
 C638 C 0.41834 0.71095 0.28901
 C639 C 0.40415 0.68488 0.28062
 H640 H 0.40808 0.74014 0.32711
 H641 H 0.40678 0.67344 0.25958
 N642 N 0.32228 0.69851 0.38406
 N643 N 0.30133 0.67770 0.38401
 C644 C 0.28048 0.68474 0.40454
 C645 C 0.28889 0.71098 0.41831
 C646 C 0.31526 0.71929 0.40463
 H647 H 0.25937 0.67326 0.40742
 H648 H 0.32686 0.74030 0.40759
 H649 H 0.32039 0.67963 0.33080
 H650 H 0.34503 0.65485 0.35377
 N651 N 0.30109 0.11583 0.82259
 N652 N 0.32171 0.11655 0.80168
 C653 C 0.31489 0.09619 0.78066
 C654 C 0.28883 0.08187 0.78901
 C655 C 0.28049 0.09504 0.81553
 H656 H 0.32645 0.09366 0.75965
 H657 H 0.25965 0.09158 0.82734
 Cu658 Cu 0.35245 0.14735 0.80157
 Cu659 Cu 0.29932 0.14547 0.85438
 Cu660 Cu 0.35432 0.20036 0.85427
 N661 N 0.38321 0.17812 0.80146
 N662 N 0.38398 0.19870 0.82236
 C663 C 0.40476 0.21928 0.81519
 C664 C 0.41791 0.21099 0.78860
 C665 C 0.40353 0.18498 0.78034
 H666 H 0.40824 0.24010 0.82695
 H667 H 0.40598 0.17346 0.75932
 N668 N 0.32235 0.19826 0.88457
 N669 N 0.30141 0.17741 0.88456
 C670 C 0.28049 0.18452 0.90501
 C671 C 0.28881 0.21084 0.91866
 C672 C 0.31524 0.21911 0.90504
 H673 H 0.25937 0.17305 0.90786
 H674 H 0.32678 0.24016 0.90793
 H675 H 0.32035 0.17930 0.83166
 H676 H 0.34479 0.15484 0.85492
 N677 N 0.80108 0.61614 0.82245
 N678 N 0.82169 0.61686 0.80150
 C679 C 0.81480 0.59658 0.78045
 C680 C 0.78877 0.58221 0.78882
 C681 C 0.78048 0.59535 0.81539
 H682 H 0.82632 0.59410 0.75941
 H683 H 0.75963 0.59193 0.82718
 Cu684 Cu 0.85243 0.64765 0.80138
 Cu685 Cu 0.79941 0.64574 0.85431
 Cu686 Cu 0.85439 0.70064 0.85416
 N687 N 0.88316 0.67843 0.80127
 N688 N 0.88393 0.69900 0.82220
 C689 C 0.90462 0.71966 0.81498
 C690 C 0.91763 0.71147 0.78831
 C691 C 0.90332 0.68542 0.78006
 H692 H 0.90806 0.74048 0.82674
 H693 H 0.90576 0.67392 0.75903
 N694 N 0.82252 0.69852 0.88451
 N695 N 0.80157 0.67767 0.88455
 C696 C 0.78071 0.68479 0.90505
 C697 C 0.78907 0.71113 0.91868
 C698 C 0.81546 0.71938 0.90498
 H699 H 0.75960 0.67332 0.90796
 H700 H 0.82701 0.74044 0.90782
 H701 H 0.82041 0.67963 0.83154
 H702 H 0.84490 0.65516 0.85476
 N703 N 0.80149 0.11598 0.32250
 N704 N 0.82204 0.11664 0.30150
 C705 C 0.81517 0.09615 0.28063
 C706 C 0.78911 0.08191 0.28909
 C707 C 0.78087 0.09519 0.31557
 H708 H 0.82662 0.09354 0.25957
 H709 H 0.75998 0.09193 0.32734
 Cu710 Cu 0.85240 0.14781 0.30048
 Cu711 Cu 0.79973 0.14565 0.35417
 Cu712 Cu 0.85444 0.20031 0.35413
 N713 N 0.88365 0.17808 0.30157
 N714 N 0.88424 0.19859 0.32253
 C715 C 0.90504 0.21922 0.31559
 C716 C 0.91841 0.21099 0.28914
 C717 C 0.90421 0.18495 0.28071
 H718 H 0.90821 0.24011 0.32728
 H719 H 0.90683 0.17358 0.25963
 N720 N 0.82250 0.19841 0.38429
 N721 N 0.80164 0.17751 0.38433
 C722 C 0.78077 0.18454 0.40485
 C723 C 0.78908 0.21087 0.41853
 C724 C 0.81542 0.21923 0.40479
 H725 H 0.75970 0.17299 0.40775
 H726 H 0.82694 0.24030 0.40765
 H727 H 0.82049 0.17947 0.33107
 H728 H 0.84534 0.15465 0.35378
 N729 N 0.69868 0.38375 0.32235
 N730 N 0.67811 0.38299 0.30144
 C731 C 0.68488 0.40341 0.28041
 C732 C 0.71086 0.41785 0.28877
 C733 C 0.71920 0.40463 0.31529
 H734 H 0.67340 0.40585 0.25936
 H735 H 0.74004 0.40809 0.32706
 Cu736 Cu 0.64741 0.35219 0.30142
 Cu737 Cu 0.70046 0.35407 0.35418
 Cu738 Cu 0.64553 0.29913 0.35418
 N739 N 0.61671 0.32143 0.30139
 N740 N 0.61592 0.30085 0.32233
 C741 C 0.59514 0.28029 0.31523
 C742 C 0.58203 0.28860 0.28866
 C743 C 0.59639 0.31461 0.28032
 H744 H 0.59167 0.25946 0.32702
 H745 H 0.59397 0.32611 0.25927
 N746 N 0.67745 0.30122 0.38443
 N747 N 0.69836 0.32210 0.38440
 C748 C 0.71921 0.31503 0.40490
 C749 C 0.71087 0.28869 0.41859
 C750 C 0.68451 0.28038 0.40494
 H751 H 0.74030 0.32653 0.40776
 H752 H 0.67299 0.25931 0.40785
 H753 H 0.67948 0.32020 0.33149
 H754 H 0.65497 0.34461 0.35475
 N755 N 0.69893 0.88393 0.82238
 N756 N 0.67833 0.88319 0.80149
 C757 C 0.68518 0.90349 0.78037
 C758 C 0.71129 0.91776 0.78859
 C759 C 0.71958 0.90466 0.81519
 H760 H 0.67364 0.90599 0.75936
 H761 H 0.74040 0.90812 0.82697
 Cu762 Cu 0.64756 0.85243 0.80155
 Cu763 Cu 0.70058 0.85439 0.85436
 Cu764 Cu 0.64556 0.79953 0.85445
 N765 N 0.61675 0.82173 0.80160
 N766 N 0.61598 0.80118 0.82256
 C767 C 0.59517 0.78060 0.81549
 C768 C 0.58201 0.78890 0.78894
 C769 C 0.59637 0.81492 0.78057
 H770 H 0.59171 0.75980 0.82732
 H771 H 0.59391 0.82640 0.75951
 N772 N 0.67743 0.80166 0.88475
 N773 N 0.69837 0.82252 0.88470
 C774 C 0.71924 0.81540 0.90516
 C775 C 0.71090 0.78906 0.91885
 C776 C 0.68451 0.78080 0.90524
 H777 H 0.74037 0.82684 0.90798
 H778 H 0.67298 0.75973 0.90814
 H779 H 0.67958 0.82051 0.83178
 H780 H 0.65506 0.84503 0.85491
 N781 N 0.19847 0.38396 0.82227
 N782 N 0.17790 0.38337 0.80134
 C783 C 0.18478 0.40389 0.78044
 C784 C 0.21089 0.41807 0.78880
 C785 C 0.21914 0.40473 0.81528
 H786 H 0.17329 0.40656 0.75943
 H787 H 0.24004 0.40793 0.82698
 Cu788 Cu 0.14752 0.35216 0.80040
 Cu789 Cu 0.20022 0.35420 0.85395
 Cu790 Cu 0.14547 0.29956 0.85404
 N791 N 0.11630 0.32178 0.80144
 N792 N 0.11569 0.30129 0.82247
 C793 C 0.09489 0.28065 0.81563
 C794 C 0.08152 0.28881 0.78917
 C795 C 0.09575 0.31484 0.78062
 H796 H 0.09171 0.25978 0.82741
 H797 H 0.09313 0.32620 0.75952
 N798 N 0.17738 0.30141 0.88416
 N799 N 0.19831 0.32225 0.88413
 C800 C 0.21914 0.31515 0.90464
 C801 C 0.21074 0.28884 0.91839
 C802 C 0.18439 0.28056 0.90469
 H803 H 0.24023 0.32665 0.90751
 H804 H 0.17279 0.25954 0.90760
 H805 H 0.17938 0.32039 0.83092
 H806 H 0.15457 0.34519 0.85370
 N807 N 0.19864 0.88393 0.32223
 N808 N 0.17803 0.88317 0.30133
 C809 C 0.18484 0.90352 0.28025
 C810 C 0.21084 0.91794 0.28856
 C811 C 0.21918 0.90478 0.31511
 H812 H 0.17331 0.90597 0.25924
 H813 H 0.24004 0.90821 0.32684
 Cu814 Cu 0.14728 0.85242 0.30140
 Cu815 Cu 0.20040 0.85429 0.35410
 Cu816 Cu 0.14541 0.79940 0.35420
 N817 N 0.11650 0.82172 0.30146
 N818 N 0.11573 0.80115 0.32240
 C819 C 0.09488 0.78061 0.31536
 C820 C 0.08173 0.78893 0.28880
 C821 C 0.09616 0.81490 0.28042
 H822 H 0.09143 0.75977 0.32714
 H823 H 0.09372 0.82641 0.25937
 N824 N 0.17739 0.80145 0.38440
 N825 N 0.19830 0.82234 0.38436
 C826 C 0.21916 0.81526 0.40485
 C827 C 0.21085 0.78892 0.41855
 C828 C 0.18447 0.78061 0.40491
 H829 H 0.24026 0.82677 0.40770
 H830 H 0.17295 0.75954 0.40782
 H831 H 0.17938 0.82043 0.33146
 H832 H 0.15493 0.84487 0.35473
 C833 C 0.25016 1.08033 0.24961
 C834 C 0.26921 1.06472 0.23058
 C835 C 0.26917 1.03339 0.23052
 C836 C 0.25003 1.01684 0.24971
 C837 C 0.23101 1.03353 0.26891
 C838 C 0.23114 1.06487 0.26878
 C839 C 0.24992 0.98281 0.24973
 C840 C 0.23054 0.96624 0.26867
 C841 C 0.23061 0.93490 0.26867
 C842 C 0.24972 0.91932 0.24969
 C843 C 0.26894 0.93480 0.23074
 C844 C 0.26921 0.96613 0.23079
 H845 H 0.25017 1.10460 0.24955
 H846 H 0.28436 1.02278 0.21520
 H847 H 0.21580 1.02303 0.28429
 H848 H 0.21506 0.97684 0.28371
 H849 H 0.24964 0.89504 0.24967
 H850 H 0.28477 0.97664 0.21577
 C851 C 0.24980 0.58048 0.75041
 C852 C 0.26896 0.56507 0.73131
 C853 C 0.26899 0.53372 0.73105
 C854 C 0.24980 0.51700 0.75005
 C855 C 0.23061 0.53350 0.76920
 C856 C 0.23067 0.56480 0.76932
 C857 C 0.24979 0.48300 0.74995
 C858 C 0.23079 0.46634 0.76919
 C859 C 0.23077 0.43502 0.76898
 C860 C 0.24978 0.41953 0.74983
 C861 C 0.26881 0.43511 0.73074
 C862 C 0.26880 0.46643 0.73065
 H863 H 0.24974 0.60476 0.75054
 H864 H 0.28431 0.52322 0.71580
 H865 H 0.21524 0.52287 0.78432
 H866 H 0.21569 0.47682 0.78467
 H867 H 0.24978 0.39525 0.74979
 H868 H 0.28389 0.47704 0.71523
 C869 C 0.75114 -0.08060 0.25052
 C870 C 0.76987 -0.06490 0.26979
 C871 C 0.76944 -0.03355 0.26995
 C872 C 0.75025 -0.01708 0.25076
 C873 C 0.73127 -0.03385 0.23167
 C874 C 0.73177 -0.06520 0.23162
 C875 C 0.75013 0.01694 0.25063
 C876 C 0.73104 0.03350 0.23138
 C877 C 0.73117 0.06485 0.23126
 C878 C 0.75022 0.08043 0.25024
 C879 C 0.76924 0.06495 0.26937
 C880 C 0.76925 0.03364 0.26965
 H881 H 0.75146 -0.10489 0.25038
 H882 H 0.78453 -0.02280 0.28523
 H883 H 0.71579 -0.02338 0.21654
 H884 H 0.71579 0.02287 0.21617
 H885 H 0.75025 0.10471 0.25013
 H886 H 0.78452 0.02320 0.28499
 C887 C 0.75135 0.41933 0.75065
 C888 C 0.76990 0.43517 0.77000
 C889 C 0.76920 0.46652 0.77021
 C890 C 0.75010 0.48287 0.75083
 C891 C 0.73131 0.46596 0.73166
 C892 C 0.73191 0.43459 0.73171
 C893 C 0.74991 0.51692 0.75058
 C894 C 0.73056 0.53339 0.73151
 C895 C 0.73070 0.56475 0.73120
 C896 C 0.74986 0.58044 0.75000
 C897 C 0.76903 0.56507 0.76908
 C898 C 0.76923 0.53374 0.76933
 H899 H 0.75186 0.39505 0.75051
 H900 H 0.78401 0.47738 0.78568
 H901 H 0.71598 0.47634 0.71634
 H902 H 0.71510 0.52266 0.71659
 H903 H 0.74985 0.60471 0.74981
 H904 H 0.78480 0.52337 0.78441
 C905 C 0.24998 0.41976 0.24996
 C906 C 0.26893 0.43528 0.26911
 C907 C 0.26888 0.46659 0.26926
 C908 C 0.24995 0.48325 0.24995
 C909 C 0.23102 0.46666 0.23064
 C910 C 0.23100 0.43531 0.23080
 C911 C 0.24996 0.51726 0.24998
 C912 C 0.23072 0.53398 0.23103
 C913 C 0.23088 0.56533 0.23112
 C914 C 0.24997 0.58074 0.25020
 C915 C 0.26912 0.56509 0.26909
 C916 C 0.26925 0.53378 0.26898
 H917 H 0.25003 0.39548 0.25000
 H918 H 0.28390 0.47711 0.28475
 H919 H 0.21598 0.47726 0.21518
 H920 H 0.21529 0.52348 0.21591
 H921 H 0.24998 0.60502 0.25031
 H922 H 0.28474 0.52318 0.28401
 C923 C 0.74874 1.08080 0.75086
 C924 C 0.76815 1.06561 0.73184
 C925 C 0.76861 1.03426 0.73161
 C926 C 0.74972 1.01728 0.75067
 C927 C 0.73054 1.03353 0.77003
 C928 C 0.73001 1.06486 0.77003
 C929 C 0.74991 0.98327 0.75035
 C930 C 0.73079 0.96632 0.76925
 C931 C 0.73094 0.93500 0.76879
 C932 C 0.75000 0.91978 0.74947
 C933 C 0.76910 0.93563 0.73069
 C934 C 0.76916 0.96695 0.73107
 H935 H 0.74832 1.10508 0.75086
 H936 H 0.78397 1.02397 0.71624
 H937 H 0.71559 1.02260 0.78537
 H938 H 0.71542 0.97658 0.78461
 H939 H 0.75003 0.89550 0.74911
 H940 H 0.78449 0.97777 0.71603
 C941 C 0.75012 0.58030 0.25005
 C942 C 0.76918 0.56471 0.23099
 C943 C 0.76915 0.53338 0.23091
 C944 C 0.74998 0.51680 0.25005
 C945 C 0.73093 0.53347 0.26924
 C946 C 0.73107 0.56481 0.26918
 C947 C 0.74988 0.48277 0.24999
 C948 C 0.73059 0.46617 0.26900
 C949 C 0.73062 0.43484 0.26891
 C950 C 0.74966 0.41928 0.24984
 C951 C 0.76883 0.43477 0.23085
 C952 C 0.76910 0.46610 0.23094
 H953 H 0.75012 0.60458 0.25002
 H954 H 0.78437 0.52278 0.21562
 H955 H 0.71565 0.52294 0.28452
 H956 H 0.71521 0.47676 0.28416
 H957 H 0.74955 0.39500 0.24980
 H958 H 0.78458 0.47663 0.21587
 C959 C 0.25150 -0.08099 0.75104
 C960 C 0.27035 -0.06504 0.77002
 C961 C 0.26983 -0.03373 0.76995
 C962 C 0.25051 -0.01747 0.75075
 C963 C 0.23155 -0.03445 0.73178
 C964 C 0.23213 -0.06582 0.73196
 C965 C 0.25031 0.01656 0.75052
 C966 C 0.23105 0.03300 0.73136
 C967 C 0.23098 0.06435 0.73125
 C968 C 0.24998 0.08005 0.75017
 C969 C 0.26915 0.06471 0.76925
 C970 C 0.26944 0.03339 0.76945
 H971 H 0.25183 -0.10527 0.75115
 H972 H 0.28495 -0.02286 0.78511
 H973 H 0.21607 -0.02410 0.71657
 H974 H 0.21578 0.02225 0.71624
 H975 H 0.24984 0.10432 0.75007
 H976 H 0.28490 0.02306 0.78468
 C977 C 0.25015 0.25021 1.08020
 C978 C 0.23095 0.26926 1.06475
 C979 C 0.23073 0.26921 1.03356
 C980 C 0.24985 0.24999 1.01700
 C981 C 0.26909 0.23083 1.03354
 C982 C 0.26919 0.23103 1.06473
 C983 C 0.24976 0.24993 0.98313
 C984 C 0.26899 0.23079 0.96661
 C985 C 0.26887 0.23075 0.93544
 C986 C 0.24969 0.24977 0.91993
 C987 C 0.23058 0.26892 0.93534
 C988 C 0.23050 0.26903 0.96655
 H989 H 0.25025 0.25029 1.10436
 H990 H 0.21537 0.28447 1.02304
 H991 H 0.28431 0.21544 1.02303
 H992 H 0.28440 0.21559 0.97713
 H993 H 0.24967 0.24968 0.89576
 H994 H 0.21514 0.28430 0.97705
 C995 C 0.25008 0.75007 0.58009
 C996 C 0.23096 0.76913 0.56456
 C997 C 0.23091 0.76912 0.53340
 C998 C 0.25014 0.74997 0.51689
 C999 C 0.26936 0.73084 0.53348
 C1000 C 0.26925 0.73093 0.56468
 C1001 C 0.25009 0.74996 0.48303
 C1002 C 0.26922 0.73078 0.46645
 C1003 C 0.26904 0.73083 0.43525
 C1004 C 0.24984 0.74990 0.41984
 C1005 C 0.23079 0.76902 0.43535
 C1006 C 0.23086 0.76915 0.46652
 H1007 H 0.25005 0.75012 0.60425
 H1008 H 0.21555 0.78436 0.52288
 H1009 H 0.28473 0.71558 0.52296
 H1010 H 0.28456 0.71548 0.47694
 H1011 H 0.24974 0.74987 0.39567
 H1012 H 0.21562 0.78452 0.47703
 C1013 C 0.25051 0.75017 -0.08072
 C1014 C 0.26951 0.76934 -0.06531
 C1015 C 0.26959 0.76942 -0.03412
 C1016 C 0.25053 0.75013 -0.01753
 C1017 C 0.23149 0.73087 -0.03405
 C1018 C 0.23155 0.73098 -0.06522
 C1019 C 0.25045 0.75013 0.01633
 C1020 C 0.23124 0.73097 0.03288
 C1021 C 0.23118 0.73110 0.06407
 C1022 C 0.25018 0.75026 0.07952
 C1023 C 0.26935 0.76931 0.06405
 C1024 C 0.26955 0.76930 0.03287
 H1025 H 0.25047 0.75021 -0.10489
 H1026 H 0.28476 0.78484 -0.02363
 H1027 H 0.21629 0.71548 -0.02354
 H1028 H 0.21600 0.71565 0.02238
 H1029 H 0.25007 0.75034 0.10369
 H1030 H 0.28492 0.78453 0.02235
 C1031 C 0.24997 0.24992 0.42004
 C1032 C 0.26892 0.26915 0.43546
 C1033 C 0.26897 0.26924 0.46666
 C1034 C 0.24993 0.24993 0.48324
 C1035 C 0.23091 0.23065 0.46671
 C1036 C 0.23099 0.23072 0.43554
 C1037 C 0.24990 0.24987 0.51711
 C1038 C 0.23080 0.23059 0.53363
 C1039 C 0.23085 0.23056 0.56482
 C1040 C 0.24982 0.24971 0.58031
 C1041 C 0.26883 0.26894 0.56488
 C1042 C 0.26896 0.26907 0.53369
 H1043 H 0.24997 0.24990 0.39588
 H1044 H 0.28413 0.28464 0.47717
 H1045 H 0.21571 0.21525 0.47722
 H1046 H 0.21555 0.21529 0.52312
 H1047 H 0.24979 0.24965 0.60448
 H1048 H 0.28423 0.28441 0.52318
 C1049 C 0.75010 0.74985 1.08037
 C1050 C 0.73106 0.76909 1.06496
 C1051 C 0.73100 0.76925 1.03377
 C1052 C 0.75005 0.74997 1.01718
 C1053 C 0.76914 0.73065 1.03367
 C1054 C 0.76913 0.73070 1.06485
 C1055 C 0.75003 0.75001 0.98332
 C1056 C 0.76934 0.73098 0.96674
 C1057 C 0.76920 0.73104 0.93556
 C1058 C 0.75001 0.75012 0.92013
 C1059 C 0.73082 0.76913 0.93564
 C1060 C 0.73071 0.76908 0.96682
 H1061 H 0.75012 0.74980 1.10453
 H1062 H 0.71583 0.78472 1.02330
 H1063 H 0.78434 0.71525 1.02313
 H1064 H 0.78480 0.71580 0.97721
 H1065 H 0.75001 0.75018 0.89596
 H1066 H 0.71524 0.78420 0.97736
 C1067 C 0.74997 0.25001 0.58020
 C1068 C 0.73089 0.26916 0.56471
 C1069 C 0.73078 0.26913 0.53352
 C1070 C 0.74986 0.24981 0.51700
 C1071 C 0.76896 0.23057 0.53356
 C1072 C 0.76897 0.23075 0.56474
 C1073 C 0.74988 0.24974 0.48315
 C1074 C 0.76916 0.23062 0.46661
 C1075 C 0.76914 0.23072 0.43542
 C1076 C 0.74999 0.24980 0.41995
 C1077 C 0.73078 0.26881 0.43542
 C1078 C 0.73063 0.26883 0.46659
 H1079 H 0.75003 0.25009 0.60436
 H1080 H 0.71556 0.28451 0.52300
 H1081 H 0.78416 0.21515 0.52307
 H1082 H 0.78451 0.21537 0.47713
 H1083 H 0.75003 0.24985 0.39579
 H1084 H 0.71521 0.28404 0.47708
 C1085 C 0.74984 0.25023 -0.08037
 C1086 C 0.76849 0.26968 -0.06488
 C1087 C 0.76842 0.26981 -0.03372
 C1088 C 0.74980 0.25010 -0.01720
 C1089 C 0.73118 0.23044 -0.03375
 C1090 C 0.73117 0.23069 -0.06494
 C1091 C 0.74988 0.25002 0.01663
 C1092 C 0.73070 0.23089 0.03320
 C1093 C 0.73101 0.23073 0.06437
 C1094 C 0.75017 0.24974 0.07981
 C1095 C 0.76916 0.26895 0.06431
 C1096 C 0.76916 0.26907 0.03314
 H1097 H 0.74988 0.25027 -0.10454
 H1098 H 0.78320 0.28558 -0.02322
 H1099 H 0.71643 0.21460 -0.02324
 H1100 H 0.71519 0.21583 0.02270
 H1101 H 0.75028 0.24963 0.10398
 H1102 H 0.78453 0.28429 0.02262
 C1103 C 0.74972 0.75046 0.42017
 C1104 C 0.76858 0.76977 0.43560
 C1105 C 0.76866 0.76985 0.46679
 C1106 C 0.74988 0.75031 0.48336
 C1107 C 0.73106 0.73081 0.46684
 C1108 C 0.73097 0.73104 0.43567
 C1109 C 0.74990 0.75027 0.51721
 C1110 C 0.73068 0.73114 0.53374
 C1111 C 0.73080 0.73105 0.56490
 C1112 C 0.74987 0.75011 0.58041
 C1113 C 0.76893 0.76928 0.56497
 C1114 C 0.76910 0.76936 0.53378
 H1115 H 0.74966 0.75051 0.39601
 H1116 H 0.78364 0.78544 0.47729
 H1117 H 0.71617 0.71512 0.47736
 H1118 H 0.71525 0.71601 0.52323
 H1119 H 0.74985 0.75002 0.60457
 H1120 H 0.78451 0.78456 0.52327
 C1121 C 1.08062 0.25012 0.24964
 C1122 C 1.06522 0.23104 0.26879
 C1123 C 1.03384 0.23091 0.26899
 C1124 C 1.01707 0.25009 0.24999
 C1125 C 1.03358 0.26931 0.23088
 C1126 C 1.06492 0.26925 0.23078
 C1127 C 0.98303 0.25006 0.25008
 C1128 C 0.96626 0.26907 0.23091
 C1129 C 0.93488 0.26891 0.23107
 C1130 C 0.91948 0.24988 0.25026
 C1131 C 0.93519 0.23092 0.26930
 C1132 C 0.96653 0.23098 0.26932
 H1133 H 1.10493 0.25011 0.24947
 H1134 H 1.02338 0.21555 0.28422
 H1135 H 1.02292 0.28467 0.21578
 H1136 H 0.97672 0.28430 0.21554
 H1137 H 0.89518 0.24977 0.25035
 H1138 H 0.97719 0.21582 0.28462
 C1139 C 0.58081 0.24962 0.75001
 C1140 C 0.56522 0.23025 0.76871
 C1141 C 0.53384 0.23015 0.76868
 C1142 C 0.51723 0.24976 0.75000
 C1143 C 0.53394 0.26935 0.73138
 C1144 C 0.56532 0.26914 0.73138
 C1145 C 0.48315 0.24977 0.74989
 C1146 C 0.46657 0.26884 0.73063
 C1147 C 0.43520 0.26877 0.73059
 C1148 C 0.41958 0.24963 0.74951
 C1149 C 0.43504 0.23069 0.76874
 C1150 C 0.46642 0.23072 0.76904
 H1151 H 0.60512 0.24949 0.74997
 H1152 H 0.52322 0.21445 0.78347
 H1153 H 0.52340 0.28506 0.71654
 H1154 H 0.47720 0.28402 0.71533
 H1155 H 0.39527 0.24953 0.74934
 H1156 H 0.47695 0.21566 0.78453
 C1157 C -0.08087 0.25047 0.74940
 C1158 C -0.06543 0.26952 0.76849
 C1159 C -0.03405 0.26946 0.76879
 C1160 C -0.01730 0.25002 0.75005
 C1161 C -0.03385 0.23070 0.73111
 C1162 C -0.06521 0.23105 0.73081
 C1163 C 0.01677 0.24986 0.75024
 C1164 C 0.03352 0.23073 0.73118
 C1165 C 0.06491 0.23060 0.73155
 C1166 C 0.08034 0.24964 0.75065
 C1167 C 0.06467 0.26882 0.76948
 C1168 C 0.03331 0.26888 0.76947
 H1169 H -0.10517 0.25070 0.74912
 H1170 H -0.02355 0.28489 0.78388
 H1171 H -0.02320 0.21509 0.71627
 H1172 H 0.02303 0.21566 0.71573
 H1173 H 0.10464 0.24958 0.75082
 H1174 H 0.02267 0.28407 0.78475
 C1175 C 0.41949 0.24988 0.25004
 C1176 C 0.43502 0.26879 0.26920
 C1177 C 0.46638 0.26867 0.26942
 C1178 C 0.48304 0.24977 0.25008
 C1179 C 0.46644 0.23093 0.23074
 C1180 C 0.43509 0.23091 0.23091
 C1181 C 0.51708 0.24972 0.25004
 C1182 C 0.53373 0.23034 0.23117
 C1183 C 0.56510 0.23059 0.23103
 C1184 C 0.58063 0.24977 0.24989
 C1185 C 0.56506 0.26888 0.26885
 C1186 C 0.53370 0.26907 0.26887
 H1187 H 0.39519 0.24994 0.25001
 H1188 H 0.47693 0.28361 0.28496
 H1189 H 0.47702 0.21597 0.21519
 H1190 H 0.52318 0.21473 0.21630
 H1191 H 0.60493 0.24983 0.24984
 H1192 H 0.52313 0.28463 0.28383
 C1193 C 1.08057 0.75001 0.75080
 C1194 C 1.06479 0.73093 0.76966
 C1195 C 1.03343 0.73091 0.76941
 C1196 C 1.01702 0.75015 0.75022
 C1197 C 1.03388 0.76923 0.73123
 C1198 C 1.06525 0.76906 0.73154
 C1199 C 0.98297 0.75027 0.74996
 C1200 C 0.96653 0.76954 0.73081
 C1201 C 0.93517 0.76951 0.73061
 C1202 C 0.91942 0.75031 0.74936
 C1203 C 0.93477 0.73120 0.76852
 C1204 C 0.96613 0.73112 0.76890
 H1205 H 1.10488 0.74995 0.75103
 H1206 H 1.02269 0.71557 0.78447
 H1207 H 1.02347 0.78457 0.71594
 H1208 H 0.97726 0.78488 0.71573
 H1209 H 0.89512 0.75031 0.74911
 H1210 H 0.97653 0.71583 0.78424
 C1211 C 0.58065 0.75033 0.24986
 C1212 C 0.56524 0.73115 0.26890
 C1213 C 0.53386 0.73095 0.26903
 C1214 C 0.51709 0.75020 0.25010
 C1215 C 0.53360 0.76955 0.23112
 C1216 C 0.56495 0.76951 0.23104
 C1217 C 0.48305 0.75012 0.25012
 C1218 C 0.46631 0.76911 0.23093
 C1219 C 0.43493 0.76888 0.23097
 C1220 C 0.41949 0.74979 0.25007
 C1221 C 0.43516 0.73086 0.26917
 C1222 C 0.46651 0.73098 0.26930
 H1223 H 0.60495 0.75036 0.24973
 H1224 H 0.52338 0.71547 0.28413
 H1225 H 0.52295 0.78499 0.21609
 H1226 H 0.47679 0.78438 0.21561
 H1227 H 0.39518 0.74967 0.25007
 H1228 H 0.47714 0.71585 0.28466
 C1229 C -0.08082 0.75027 0.24973
 C1230 C -0.06538 0.76945 0.26869
 C1231 C -0.03399 0.76960 0.26878
 C1232 C -0.01726 0.75022 0.24996
 C1233 C -0.03381 0.73085 0.23110
 C1234 C -0.06515 0.73100 0.23098
 C1235 C 0.01680 0.75021 0.24993
 C1236 C 0.03348 0.73123 0.23067
 C1237 C 0.06485 0.73136 0.23068
 C1238 C 0.08035 0.75037 0.24974
 C1239 C 0.06476 0.76922 0.26895
 C1240 C 0.03340 0.76919 0.26916
 H1241 H -0.10512 0.75034 0.24961
 H1242 H -0.02348 0.78516 0.28374
 H1243 H -0.02318 0.71529 0.21618
 H1244 H 0.02295 0.71605 0.21534
 H1245 H 0.10465 0.75047 0.24966
 H1246 H 0.02279 0.78424 0.28460
 C1247 C 0.41902 0.75164 0.75058
 C1248 C 0.43485 0.77035 0.76980
 C1249 C 0.46623 0.76948 0.77022
 C1250 C 0.48263 0.75026 0.75099
 C1251 C 0.46573 0.73142 0.73189
 C1252 C 0.43434 0.73200 0.73189
 C1253 C 0.51671 0.75005 0.75076
 C1254 C 0.53321 0.73065 0.73175
 C1255 C 0.56462 0.73082 0.73141
 C1256 C 0.58029 0.75000 0.75018
 C1257 C 0.56489 0.76919 0.76919
 C1258 C 0.53353 0.76942 0.76943
 H1259 H 0.39471 0.75215 0.75031
 H1260 H 0.47707 0.78430 0.78569
 H1261 H 0.47614 0.71604 0.71664
 H1262 H 0.52250 0.71514 0.71688
 H1263 H 0.60460 0.74999 0.74998
 H1264 H 0.52313 0.78504 0.78444
   
