data_POSCAR
  _audit_creation_date              2014-09-24
  _audit_creation_method            'ToBaCCo'
  _symmetry_space_group_name_H-M    'P1'
  _symmetry_Int_Tables_number       1
  _symmetry_cell_setting            triclinic
  loop_
  _symmetry_equiv_pos_as_xyz
 x,y,z
_cell_length_a 36.3409
_cell_length_b 36.6619
_cell_length_c 31.8086
_cell_angle_alpha 89.680700
_cell_angle_beta 89.776400
_cell_angle_gamma 89.306000
loop_
  _atom_site_label
  _atom_site_type_symbol
  _atom_site_fract_x
  _atom_site_fract_y
  _atom_site_fract_z
C1 C 0.35354 -0.00003 0.25607
 C2 C 0.15502 0.00277 0.76153
 C3 C 0.65078 0.48812 0.24586
 C4 C 0.85157 0.50454 0.74858
 C5 C 0.24930 0.39755 1.00554
 C6 C 0.74307 0.10323 0.99580
 C7 C 0.23442 0.60893 0.49958
 C8 C 0.75715 0.90216 0.49459
 C9 C 0.00216 0.24511 0.38153
 C10 C -0.00547 0.75020 0.12321
 C11 C 0.50283 0.25504 0.61931
 C12 C 0.50296 0.75168 0.87707
 C13 C -0.25503 0.60512 0.99422
 C14 C -0.26004 0.39455 0.49526
 C15 C 0.24203 -0.09981 0.00130
 C16 C 0.26098 1.10553 0.50647
 C17 C 0.15775 0.50166 0.25523
 C18 C -0.15150 0.98694 0.25142
 C19 C 0.34918 0.50046 -0.24473
 C20 C 0.65965 0.00589 -0.25213
 C21 C 0.00260 0.25708 0.88437
 C22 C 0.50405 0.24342 0.11878
 C23 C 0.00616 0.75042 0.61332
 C24 C 0.49881 0.74921 0.37984
 B25 B -0.03196 0.02434 1.03497
 B26 B -0.04556 0.01688 0.98524
 B27 B -0.01077 0.04576 0.99428
 B28 B 0.01449 0.02939 1.03509
 B29 B -0.00504 -0.01045 1.05043
 B30 B -0.04240 -0.01827 1.01950
 B31 B 0.01874 -0.01843 0.96919
 B32 B 0.03223 -0.01105 1.01890
 B33 B -0.00261 -0.03983 1.00989
 B34 B -0.02770 -0.02354 0.96895
 B35 B -0.00824 0.01640 0.95357
 B36 B 0.02911 0.02419 0.98457
 B37 B 0.46575 0.51497 0.52907
 B38 B 0.44480 0.51141 0.48229
 B39 B 0.47925 0.54113 0.48781
 B40 B 0.51094 0.52282 0.52063
 B41 B 0.49606 0.48040 0.53463
 B42 B 0.45477 0.47360 0.51070
 B43 B 0.50667 0.48099 0.44934
 B44 B 0.52788 0.48578 0.49635
 B45 B 0.49355 0.45509 0.49046
 B46 B 0.46135 0.47358 0.45778
 B47 B 0.47623 0.51578 0.44393
 B48 B 0.51759 0.52290 0.46730
 B49 B 0.53335 0.97920 0.53399
 B50 B 0.54724 0.98752 0.48433
 B51 B 0.51244 0.95843 0.49300
 B52 B 0.48688 0.97413 0.53392
 B53 B 0.50627 1.01373 0.54968
 B54 B 0.54389 1.02209 0.51895
 B55 B 0.48324 1.02306 0.46832
 B56 B 0.46931 1.01486 0.51793
 B57 B 0.50419 1.04381 0.50937
 B58 B 0.52962 1.02819 0.46841
 B59 B 0.51029 0.98848 0.45262
 B60 B 0.47266 0.98019 0.48338
 B61 B 0.01766 0.48288 1.05049
 B62 B 0.03843 0.48796 1.00296
 B63 B 0.00478 0.45658 1.01019
 B64 B -0.02754 0.47455 1.04298
 B65 B -0.01348 0.51697 1.05583
 B66 B 0.02753 0.52497 1.03164
 B67 B -0.02453 0.51573 0.97081
 B68 B -0.04500 0.51179 1.01801
 B69 B -0.01138 0.54237 1.01166
 B70 B 0.02049 0.52472 0.97840
 B71 B 0.00652 0.48180 0.96538
 B72 B -0.03435 0.47419 0.99016
 B73 B 0.01134 0.52129 0.45505
 B74 B 0.02856 0.51334 0.50373
 B75 B -0.00718 0.54290 0.49706
 B76 B -0.03509 0.52648 0.45911
 B77 B -0.01625 0.48623 0.44279
 B78 B 0.02343 0.47846 0.46989
 B79 B -0.03360 0.47891 0.52614
 B80 B -0.05100 0.48605 0.47779
 B81 B -0.01512 0.45719 0.48408
 B82 B 0.01257 0.47350 0.52192
 B83 B -0.00634 0.51375 0.53842
 B84 B -0.04603 0.52125 0.51073
 B85 B 0.51401 0.01848 -0.04978
 B86 B 0.53458 0.01275 -0.00239
 B87 B 0.50055 0.04452 -0.00901
 B88 B 0.46868 0.02723 -0.04203
 B89 B 0.48341 -0.01528 -0.05549
 B90 B 0.52442 -0.02386 -0.03148
 B91 B 0.47193 -0.01479 0.02955
 B92 B 0.45163 -0.01016 -0.01759
 B93 B 0.48571 -0.04109 -0.01155
 B94 B 0.51714 -0.02400 0.02175
 B95 B 0.50239 0.01883 0.03538
 B96 B 0.46150 0.02705 0.01082
 B97 B 0.47500 0.47647 -0.03152
 B98 B 0.45986 0.48477 0.01760
 B99 B 0.49581 0.45599 0.01009
 B100 B 0.52160 0.47176 -0.03047
 B101 B 0.50120 0.51112 -0.04728
 B102 B 0.46284 0.51935 -0.01751
 B103 B 0.52271 0.52077 0.03442
 B104 B 0.53766 0.51265 -0.01484
 B105 B 0.50177 0.54138 -0.00745
 B106 B 0.47608 0.52567 0.03327
 B107 B 0.49632 0.48607 0.05005
 B108 B 0.53476 0.47798 0.02021
 B109 B -0.00783 0.98538 0.45633
 B110 B -0.03002 0.98849 0.50289
 B111 B 0.00330 0.95659 0.49652
 B112 B 0.03678 0.97443 0.46530
 B113 B 0.02367 1.01809 0.45382
 B114 B -0.01802 1.02656 0.47739
 B115 B 0.03218 1.01287 0.53893
 B116 B 0.05393 1.00998 0.49238
 B117 B 0.02050 1.04160 0.49912
 B118 B -0.01264 1.02371 0.53034
 B119 B 0.00050 0.98020 0.54197
 B120 B 0.04201 0.97155 0.51833
 B121 B 0.77463 0.21379 0.21763
 B122 B 0.76524 0.19772 0.26616
 B123 B 0.79562 0.23173 0.26017
 B124 B 0.78099 0.25955 0.22066
 B125 B 0.74072 0.24227 0.20302
 B126 B 0.73093 0.20381 0.23123
 B127 B 0.73102 0.26134 0.28545
 B128 B 0.74022 0.27733 0.23694
 B129 B 0.71002 0.24325 0.24286
 B130 B 0.72454 0.21564 0.28251
 B131 B 0.76493 0.23281 0.30020
 B132 B 0.77472 0.27126 0.27188
 B133 B 0.73396 0.78091 0.71428
 B134 B 0.74338 0.79574 0.76302
 B135 B 0.71267 0.76210 0.75671
 B136 B 0.72716 0.73511 0.71662
 B137 B 0.76763 0.75236 0.69897
 B138 B 0.77776 0.79009 0.72773
 B139 B 0.77706 0.73147 0.78122
 B140 B 0.76775 0.71656 0.73246
 B141 B 0.79837 0.75021 0.73859
 B142 B 0.78396 0.77717 0.77875
 B143 B 0.74332 0.76001 0.79641
 B144 B 0.73330 0.72223 0.76765
 B145 B 0.27401 0.27618 0.78716
 B146 B 0.26468 0.29229 0.73865
 B147 B 0.29546 0.25790 0.74439
 B148 B 0.28104 0.23033 0.78407
 B149 B 0.24038 0.24804 0.80187
 B150 B 0.23025 0.28661 0.77367
 B151 B 0.23124 0.22915 0.71938
 B152 B 0.24050 0.21299 0.76790
 B153 B 0.20987 0.24744 0.76200
 B154 B 0.22429 0.27495 0.72244
 B155 B 0.26486 0.25723 0.70464
 B156 B 0.27501 0.21862 0.73283
 B157 B 0.22618 0.72971 0.28039
 B158 B 0.23676 0.71325 0.23252
 B159 B 0.20657 0.74834 0.23701
 B160 B 0.22042 0.77567 0.27668
 B161 B 0.26000 0.75699 0.29603
 B162 B 0.27017 0.71825 0.26864
 B163 B 0.27212 0.77575 0.21360
 B164 B 0.26185 0.79206 0.26168
 B165 B 0.29181 0.75694 0.25714
 B166 B 0.27802 0.72982 0.21743
 B167 B 0.23829 0.74831 0.19815
 B168 B 0.22821 0.78720 0.22557
 B169 B 0.27346 0.72894 0.71446
 B170 B 0.26494 0.71265 0.76318
 B171 B 0.29559 0.74630 0.75677
 B172 B 0.28059 0.77460 0.71795
 B173 B 0.23969 0.75813 0.70115
 B174 B 0.22997 0.71947 0.72917
 B175 B 0.23178 0.77639 0.78402
 B176 B 0.24045 0.79283 0.73561
 B177 B 0.20976 0.75908 0.74170
 B178 B 0.22471 0.73083 0.78066
 B179 B 0.26562 0.74738 0.79760
 B180 B 0.27543 0.78588 0.76955
 B181 B 0.23157 0.27373 0.22097
 B182 B 0.24185 0.28978 0.26897
 B183 B 0.21164 0.25553 0.26430
 B184 B 0.22559 0.22793 0.22468
 B185 B 0.26530 0.24544 0.20532
 B186 B 0.27550 0.28394 0.23273
 B187 B 0.27692 0.22637 0.28767
 B188 B 0.26667 0.21031 0.23973
 B189 B 0.29689 0.24451 0.24404
 B190 B 0.28305 0.27210 0.28387
 B191 B 0.24311 0.25469 0.30328
 B192 B 0.23300 0.21619 0.27584
 B193 B 0.77007 0.75647 0.29872
 B194 B 0.76214 0.77766 0.25205
 B195 B 0.79416 0.74358 0.25597
 B196 B 0.77807 0.71164 0.29001
 B197 B 0.73604 0.72641 0.30679
 B198 B 0.72661 0.76744 0.28378
 B199 B 0.73225 0.71631 0.22182
 B200 B 0.73902 0.69548 0.26840
 B201 B 0.70793 0.72962 0.26487
 B202 B 0.72384 0.76107 0.23059
 B203 B 0.76615 0.74630 0.21363
 B204 B 0.77522 0.70530 0.23721
 B205 B 0.73081 0.23391 0.78412
 B206 B 0.74118 0.21778 0.73603
 B207 B 0.71034 0.25219 0.74096
 B208 B 0.72389 0.27973 0.78047
 B209 B 0.76409 0.26203 0.79927
 B210 B 0.77491 0.22348 0.77173
 B211 B 0.77497 0.28100 0.71663
 B212 B 0.76466 0.29712 0.76479
 B213 B 0.79554 0.26275 0.76005
 B214 B 0.78199 0.23519 0.72047
 B215 B 0.74166 0.25281 0.70172
 B216 B 0.73093 0.29142 0.72922
 C217 C 0.41436 1.03426 0.35701
 C218 C 0.39811 1.02730 0.39582
 C219 C 0.41887 1.02868 0.43232
 C220 C 0.37656 1.01283 0.29074
 C221 C 0.47153 1.04912 0.39242
 C222 C 0.45070 1.04672 0.35533
 C223 C 0.39462 1.02359 0.31989
 C224 C 0.45655 1.03803 0.43140
 H225 H 0.37012 1.01746 0.39761
 H226 H 0.40588 1.01783 0.46005
 H227 H 0.50036 1.05592 0.38983
 H228 H 0.46365 1.05227 0.32529
 C229 C -0.08570 0.52745 0.85156
 C230 C -0.10207 0.51226 0.88694
 C231 C -0.08335 0.51075 0.92469
 C232 C -0.12358 0.51550 0.78243
 C233 C -0.03193 0.54248 0.89354
 C234 C -0.05075 0.54322 0.85479
 C235 C -0.10472 0.52276 0.81235
 C236 C -0.04780 0.52560 0.92906
 H237 H -0.12882 0.49960 0.88488
 H238 H -0.09659 0.49593 0.94985
 H239 H -0.00441 0.55335 0.89512
 H240 H -0.03760 0.55482 0.82729
 C241 C 0.09153 -0.03212 0.86054
 C242 C 0.05505 -0.04405 0.85783
 C243 C 0.03269 -0.04510 0.89408
 C244 C 0.13186 -0.01109 0.79576
 C245 C 0.08397 -0.02369 0.93489
 C246 C 0.10625 -0.02396 0.89949
 C247 C 0.11279 -0.02205 0.82415
 C248 C 0.04636 -0.03316 0.93305
 H249 H 0.04323 -0.05022 0.82752
 H250 H 0.00391 -0.05176 0.89073
 H251 H 0.09596 -0.01161 0.96221
 H252 H 0.13420 -0.01417 0.90197
 C253 C 0.57516 0.46361 0.33747
 C254 C 0.54216 0.48321 0.33421
 C255 C 0.51810 0.48503 0.36834
 C256 C 0.62534 0.47684 0.27923
 C257 C 0.55764 0.44394 0.40756
 C258 C 0.58211 0.44252 0.37342
 C259 C 0.60304 0.46923 0.30596
 C260 C 0.52690 0.46768 0.40685
 H261 H 0.53610 0.49913 0.30620
 H262 H 0.49399 0.50235 0.36503
 H263 H 0.56484 0.42900 0.43554
 H264 H 0.60740 0.42674 0.37609
 C265 C 0.59103 0.52879 0.14600
 C266 C 0.60766 0.52405 0.10703
 C267 C 0.58691 0.52668 0.07060
 C268 C 0.62878 0.50323 0.21106
 C269 C 0.53337 0.54460 0.11109
 C270 C 0.55421 0.54070 0.14813
 C271 C 0.61088 0.51589 0.18243
 C272 C 0.54881 0.53535 0.07169
 H273 H 0.63599 0.51458 0.10488
 H274 H 0.60045 0.51681 0.04278
 H275 H 0.50425 0.55078 0.11388
 H276 H 0.54093 0.54451 0.17836
 C277 C 0.09289 1.02479 0.65784
 C278 C 0.05864 1.04261 0.65347
 C279 C 0.03961 1.04092 0.61501
 C280 C 0.13089 1.01435 0.72713
 C281 C 0.08937 1.00391 0.58664
 C282 C 0.10828 1.00625 0.62405
 C283 C 0.11208 1.02137 0.69700
 C284 C 0.05463 1.02104 0.58115
 H285 H 0.04631 1.05678 0.67988
 H286 H 0.01280 1.05391 0.61228
 H287 H 0.10215 0.98757 0.56231
 H288 H 0.13452 0.99208 0.62712
 C289 C -0.09366 0.46751 0.64397
 C290 C -0.11282 0.47524 0.60717
 C291 C -0.09482 0.47417 0.56866
 C292 C -0.12678 0.49004 0.71331
 C293 C -0.03923 0.45242 0.60259
 C294 C -0.05724 0.45457 0.64171
 C295 C -0.11052 0.47848 0.68295
 C296 C -0.05718 0.46427 0.56559
 H297 H -0.14090 0.48552 0.60851
 H298 H -0.10983 0.48550 0.54245
 H299 H -0.01027 0.44514 0.60200
 H300 H -0.04207 0.44852 0.67020
 C301 C 0.41287 -0.02559 0.15023
 C302 C 0.39513 -0.01169 0.11488
 C303 C 0.41306 -0.01090 0.07639
 C304 C 0.37722 -0.01166 0.22097
 C305 C 0.46626 -0.04106 0.10690
 C306 C 0.44826 -0.04107 0.14625
 C307 C 0.39499 -0.01968 0.19014
 C308 C 0.44916 -0.02514 0.07144
 H309 H 0.36799 0.00074 0.11752
 H310 H 0.39897 0.00332 0.05125
 H311 H 0.49422 -0.05145 0.10483
 H312 H 0.46245 -0.05169 0.17366
 C313 C 0.34635 0.44549 0.03612
 C314 C 0.35509 0.48108 0.04838
 C315 C 0.39188 0.49287 0.04657
 C316 C 0.28063 0.41890 0.02046
 C317 C 0.41039 0.43341 0.02103
 C318 C 0.37438 0.42159 0.02397
 C319 C 0.30918 0.43330 0.02983
 C320 C 0.42007 0.46943 0.03158
 H321 H 0.33348 0.50009 0.05741
 H322 H 0.39776 0.52095 0.05410
 H323 H 0.42941 0.41493 0.00597
 H324 H 0.36801 0.39430 0.01345
 C325 C -0.14676 0.95569 0.50879
 C326 C -0.13571 0.98645 0.53132
 C327 C -0.09871 0.99747 0.52964
 C328 C -0.21185 0.92561 0.50468
 C329 C -0.08493 0.94711 0.48327
 C330 C -0.12122 0.93638 0.48478
 C331 C -0.18353 0.94186 0.50913
 C332 C -0.07268 0.97763 0.50560
 H333 H -0.15543 1.00167 0.55012
 H334 H -0.09054 1.02120 0.54724
 H335 H -0.06634 0.93005 0.46580
 H336 H -0.12927 0.91237 0.46747
 C337 C -0.15940 0.05572 0.96372
 C338 C -0.13270 0.07938 0.97821
 C339 C -0.09655 0.06765 0.98244
 C340 C -0.22584 0.08175 0.97919
 C341 C -0.11210 0.00896 0.95351
 C342 C -0.14912 0.02058 0.95049
 C343 C -0.19702 0.06744 0.96936
 C344 C -0.08536 0.03211 0.97074
 H345 H -0.14037 0.10626 0.98958
 H346 H -0.07864 0.08573 0.99903
 H347 H -0.10498 -0.01880 0.94504
 H348 H -0.16975 0.00175 0.93978
 C349 C 0.32986 0.55348 0.47577
 C350 C 0.35703 0.57257 0.49666
 C351 C 0.39288 0.55944 0.49763
 C352 C 0.26480 0.58478 0.48619
 C353 C 0.37573 0.50769 0.45547
 C354 C 0.33911 0.52097 0.45483
 C355 C 0.29297 0.56813 0.47887
 C356 C 0.40319 0.52675 0.47723
 H357 H 0.35029 0.59750 0.51338
 H358 H 0.41216 0.57470 0.51609
 H359 H 0.38233 0.48231 0.43979
 H360 H 0.31815 0.50576 0.43867
 C361 C 0.14064 0.55239 0.52704
 C362 C 0.11067 0.56974 0.54662
 C363 C 0.07526 0.55550 0.54276
 C364 C 0.20272 0.58765 0.51381
 C365 C 0.10017 0.50514 0.50238
 C366 C 0.13549 0.51925 0.50651
 C367 C 0.17503 0.57109 0.52194
 C368 C 0.06922 0.52453 0.51786
 H369 H 0.11433 0.59526 0.56300
 H370 H 0.05257 0.56987 0.55753
 H371 H 0.09709 0.48051 0.48422
 H372 H 0.15845 0.50546 0.49132
 C373 C 0.65055 0.04288 0.01507
 C374 C 0.62469 0.05140 0.04635
 C375 C 0.58835 0.03956 0.04264
 C376 C 0.71220 0.07966 0.00692
 C377 C 0.60449 0.00856 -0.02192
 C378 C 0.64072 0.02016 -0.01806
 C379 C 0.68489 0.06190 0.01266
 C380 C 0.57715 0.02062 0.00650
 H381 H 0.63203 0.06884 0.07230
 H382 H 0.56851 0.04786 0.06630
 H383 H 0.59756 -0.00785 -0.04888
 H384 H 0.66054 0.01313 -0.04232
 C385 C 0.66053 0.94930 0.46100
 C386 C 0.65035 0.98469 0.44837
 C387 C 0.61341 0.99620 0.45194
 C388 C 0.72642 0.92350 0.47757
 C389 C 0.59794 0.93692 0.48035
 C390 C 0.63396 0.92526 0.47534
 C391 C 0.69792 0.93780 0.46711
 C392 C 0.58683 0.97269 0.46929
 H393 H 0.67102 1.00376 0.43787
 H394 H 0.60627 1.02413 0.44393
 H395 H 0.58013 0.91855 0.49706
 H396 H 0.64168 0.89816 0.48631
 C397 C 0.15546 0.45772 0.98503
 C398 C 0.14499 0.48116 1.01755
 C399 C 0.10838 0.49261 1.02158
 C400 C 0.21827 0.42135 0.99354
 C401 C 0.09295 0.45986 0.95840
 C402 C 0.12967 0.44817 0.95453
 C403 C 0.19049 0.43900 0.98751
 C404 C 0.08127 0.47968 0.99399
 H405 H 0.16468 0.48896 1.04126
 H406 H 0.10107 0.50967 1.04806
 H407 H 0.07329 0.45090 0.93527
 H408 H 0.13743 0.43014 0.92905
 C409 C -0.01090 0.34263 0.44258
 C410 C 0.00425 0.35177 0.48159
 C411 C 0.00142 0.38775 0.49639
 C412 C -0.00205 0.27875 0.40578
 C413 C -0.03220 0.40465 0.43344
 C414 C -0.02967 0.36902 0.41914
 C415 C -0.00575 0.30720 0.42424
 C416 C -0.01636 0.41484 0.47206
 H417 H 0.01900 0.33142 0.49996
 H418 H 0.01413 0.39455 0.52601
 H419 H -0.04617 0.42434 0.41348
 H420 H -0.04147 0.36230 0.38894
 C421 C 0.48874 -0.15528 -0.05293
 C422 C 0.50918 -0.14525 -0.01759
 C423 C 0.50553 -0.10989 -0.00106
 C424 C 0.49953 -0.21613 -0.09585
 C425 C 0.46004 -0.09561 -0.05423
 C426 C 0.46332 -0.13074 -0.07009
 C427 C 0.49538 -0.18908 -0.07477
 C428 C 0.48168 -0.08409 -0.02006
 H429 H 0.52907 -0.16410 -0.00404
 H430 H 0.52310 -0.10211 0.02471
 H431 H 0.44209 -0.07683 -0.07093
 H432 H 0.44743 -0.13807 -0.09749
 C433 C -0.00481 -0.15345 1.05737
 C434 C -0.01744 -0.14600 1.01647
 C435 C -0.01583 -0.11025 1.00010
 C436 C -0.00684 -0.21692 1.09682
 C437 C 0.01127 -0.09045 1.06547
 C438 C 0.00985 -0.12563 1.08133
 C439 C -0.00681 -0.18890 1.07676
 C440 C -0.00164 -0.08186 1.02464
 H441 H -0.02888 -0.16754 0.99759
 H442 H -0.02623 -0.10472 0.96883
 H443 H 0.02272 -0.06998 1.08580
 H444 H 0.01985 -0.13103 1.11286
 C445 C 0.49992 0.34276 0.53776
 C446 C 0.53240 0.36026 0.52625
 C447 C 0.53097 0.39396 0.50545
 C448 C 0.50189 0.28632 0.59021
 C449 C 0.46474 0.39099 0.50371
 C450 C 0.46616 0.35730 0.52454
 C451 C 0.50105 0.31174 0.56586
 C452 C 0.49705 0.41135 0.49676
 H453 H 0.55887 0.34879 0.53523
 H454 H 0.55663 0.40672 0.49856
 H455 H 0.43788 0.40230 0.49629
 H456 H 0.44075 0.34364 0.53239
 C457 C 0.50326 1.15744 0.55641
 C458 C 0.49027 1.12890 0.58106
 C459 C 0.49010 1.09367 0.56551
 C460 C 0.50372 1.22141 0.59444
 C461 C 0.51528 1.11476 0.49922
 C462 C 0.51561 1.15054 0.51524
 C463 C 0.50406 1.19306 0.57527
 C464 C 0.50269 1.08571 0.52437
 H465 H 0.48053 1.13380 0.61281
 H466 H 0.47969 1.07271 0.58627
 H467 H 0.52527 1.10978 0.46763
 H468 H 0.52579 1.17260 0.49580
 C469 C -0.01352 0.65683 1.05312
 C470 C 0.00829 0.64702 1.01833
 C471 C 0.00661 0.61150 1.00191
 C472 C -0.00705 0.71797 1.09610
 C473 C -0.03934 0.59661 1.05434
 C474 C -0.03806 0.63182 1.06999
 C475 C -0.00923 0.69085 1.07491
 C476 C -0.01662 0.58538 1.02046
 H477 H 0.02762 0.66623 1.00510
 H478 H 0.02505 0.60392 0.97653
 H479 H -0.05680 0.57765 1.07092
 H480 H -0.05490 0.63891 1.09701
 C481 C 0.50337 0.65505 -0.05660
 C482 C 0.51564 0.62593 -0.08088
 C483 C 0.51522 0.59072 -0.06484
 C484 C 0.50321 0.71868 -0.09640
 C485 C 0.49067 0.61284 0.00127
 C486 C 0.49092 0.64865 -0.01529
 C487 C 0.50298 0.69063 -0.07623
 C488 C 0.50270 0.58325 -0.02349
 H489 H 0.52537 0.63037 -0.11275
 H490 H 0.52538 0.56944 -0.08538
 H491 H 0.48085 0.60830 0.03302
 H492 H 0.48119 0.67113 0.00386
 C493 C 0.01828 1.15565 0.45792
 C494 C 0.04596 1.13220 0.44367
 C495 C 0.04941 1.09724 0.46036
 C496 C 0.00620 1.21420 0.41075
 C497 C -0.00010 1.10997 0.50942
 C498 C -0.00399 1.14509 0.49187
 C499 C 0.01089 1.18827 0.43377
 C500 C 0.02564 1.08485 0.49259
 H501 H 0.06326 1.13994 0.41732
 H502 H 0.06867 1.07905 0.44489
 H503 H -0.01931 1.10157 0.53360
 H504 H -0.02565 1.16312 0.50317
 C505 C 0.78474 0.66527 0.89506
 C506 C 0.79834 0.70093 0.89561
 C507 C 0.80214 0.72068 0.85774
 C508 C 0.75985 0.62871 0.96096
 C509 C 0.78048 0.66833 0.81971
 C510 C 0.77803 0.64857 0.85684
 C511 C 0.77231 0.64660 0.93238
 C512 C 0.79111 0.70536 0.81919
 H513 H 0.80369 0.71423 0.92524
 H514 H 0.80980 0.74909 0.85931
 H515 H 0.76907 0.65521 0.79273
 H516 H 0.76723 0.62113 0.85594
 C517 C 0.29424 0.16237 0.40201
 C518 C 0.28402 0.14504 0.36523
 C519 C 0.28278 0.16429 0.32767
 C520 C 0.27458 0.12749 0.47117
 C521 C 0.30741 0.21740 0.36182
 C522 C 0.30737 0.19818 0.40025
 C523 C 0.28508 0.14447 0.44092
 C524 C 0.29319 0.20131 0.32518
 H525 H 0.27339 0.11753 0.36622
 H526 H 0.26926 0.15074 0.30223
 H527 H 0.31499 0.24587 0.36180
 H528 H 0.31523 0.21198 0.42879
 C529 C 0.71307 0.32860 0.39715
 C530 C 0.72466 0.34446 0.35978
 C531 C 0.72684 0.32395 0.32353
 C532 C 0.72871 0.36854 0.46314
 C533 C 0.70099 0.27212 0.35999
 C534 C 0.70008 0.29269 0.39728
 C535 C 0.72004 0.34879 0.43478
 C536 C 0.71580 0.28708 0.32271
 H537 H 0.73527 0.37199 0.35936
 H538 H 0.74103 0.33663 0.29766
 H539 H 0.69315 0.24374 0.36127
 H540 H 0.69124 0.28001 0.42639
 C541 C 0.21318 0.84163 0.89754
 C542 C 0.19899 0.80621 0.89592
 C543 C 0.20049 0.78645 0.85808
 C544 C 0.22905 0.87785 0.96642
 C545 C 0.22938 0.83806 0.82438
 C546 C 0.22671 0.85784 0.86120
 C547 C 0.21992 0.86027 0.93635
 C548 C 0.21703 0.80168 0.82195
 H549 H 0.18876 0.79319 0.92422
 H550 H 0.19154 0.75839 0.85812
 H551 H 0.24458 0.85078 0.79927
 H552 H 0.23834 0.88493 0.86214
 C553 C 0.28342 0.83976 0.09930
 C554 C 0.29568 0.80334 0.09925
 C555 C 0.29872 0.78395 0.13743
 C556 C 0.25762 0.87628 0.03390
 C557 C 0.27899 0.83811 0.17461
 C558 C 0.27755 0.85750 0.13719
 C559 C 0.27062 0.85825 0.06210
 C560 C 0.28798 0.80045 0.17566
 H561 H 0.30032 0.78926 0.06983
 H562 H 0.30521 0.75507 0.13633
 H563 H 0.26778 0.85229 0.20126
 H564 H 0.26774 0.88556 0.13763
 C565 C 0.78067 0.34250 0.60032
 C566 C 0.77465 0.36103 0.63773
 C567 C 0.77857 0.34295 0.67591
 C568 C 0.75408 0.37454 0.53199
 C569 C 0.80046 0.28890 0.64006
 C570 C 0.79538 0.30696 0.60133
 C571 C 0.76693 0.35905 0.56225
 C572 C 0.78952 0.30577 0.67799
 H573 H 0.76329 0.38852 0.63740
 H574 H 0.76772 0.35732 0.70264
 H575 H 0.80865 0.26041 0.63976
 H576 H 0.80045 0.29236 0.57234
 C577 C 0.22107 0.16546 0.60515
 C578 C 0.22862 0.14785 0.64295
 C579 C 0.22723 0.16703 0.68030
 C580 C 0.24553 0.12945 0.53897
 C581 C 0.20484 0.22065 0.64343
 C582 C 0.20765 0.20149 0.60530
 C583 C 0.23302 0.14729 0.56749
 C584 C 0.21672 0.20429 0.68140
 H585 H 0.23936 0.12012 0.64323
 H586 H 0.23917 0.15317 0.70690
 H587 H 0.19725 0.24929 0.64241
 H588 H 0.20176 0.21547 0.57597
 C589 C 0.71729 0.66052 0.10126
 C590 C 0.73055 0.64153 0.13606
 C591 C 0.73231 0.65840 0.17481
 C592 C 0.73236 0.62745 0.02970
 C593 C 0.70369 0.71285 0.14582
 C594 C 0.70291 0.69597 0.10615
 C595 C 0.72366 0.64408 0.06089
 C596 C 0.71950 0.69461 0.18061
 H597 H 0.74224 0.61434 0.13265
 H598 H 0.74673 0.64352 0.19914
 H599 H 0.69441 0.74092 0.14850
 H600 H 0.69285 0.71112 0.07913
 C601 C 0.20375 0.59837 0.22133
 C602 C 0.17753 0.62545 0.22942
 C603 C 0.18733 0.66190 0.22955
 C604 C 0.17952 0.53277 0.24053
 C605 C 0.24944 0.64530 0.20907
 C606 C 0.23963 0.60825 0.21003
 C607 C 0.19320 0.56131 0.23010
 C608 C 0.22365 0.67274 0.22034
 H609 H 0.14986 0.61823 0.23895
 H610 H 0.16695 0.68064 0.24162
 H611 H 0.27779 0.65217 0.20258
 H612 H 0.26034 0.58744 0.20396
 C613 C 0.70673 0.10348 0.72023
 C614 C 0.74237 0.11346 0.70791
 C615 C 0.75278 0.15037 0.70918
 C616 C 0.68133 0.03751 0.73468
 C617 C 0.69186 0.16643 0.73436
 C618 C 0.68144 0.13029 0.73207
 C619 C 0.69551 0.06625 0.72611
 C620 C 0.72782 0.17740 0.72356
 H621 H 0.76241 0.09277 0.69905
 H622 H 0.78088 0.15734 0.70147
 H623 H 0.67227 0.18476 0.74881
 H624 H 0.65406 0.12294 0.74252
 C625 C 0.80034 0.08296 0.28374
 C626 C 0.82521 0.10910 0.27018
 C627 C 0.81455 0.14538 0.26696
 C628 C 0.82592 0.01706 0.26796
 C629 C 0.75437 0.13082 0.29468
 C630 C 0.76495 0.09375 0.29677
 C631 C 0.81144 0.04555 0.27784
 C632 C 0.77886 0.15713 0.27868
 H633 H 0.85235 0.10107 0.25903
 H634 H 0.83367 0.16327 0.25147
 H635 H 0.72645 0.13845 0.30315
 H636 H 0.74520 0.07356 0.30678
 C637 C 0.30149 0.59839 0.78186
 C638 C 0.32544 0.62435 0.76593
 C639 C 0.31427 0.66041 0.76210
 C640 C 0.32751 0.53208 0.76936
 C641 C 0.25540 0.64604 0.79349
 C642 C 0.26651 0.60915 0.79634
 C643 C 0.31309 0.56097 0.77761
 C644 C 0.27898 0.67215 0.77542
 H645 H 0.35223 0.61631 0.75372
 H646 H 0.33261 0.67812 0.74512
 H647 H 0.22782 0.65368 0.80330
 H648 H 0.24749 0.58904 0.80829
 C649 C 0.29933 0.40640 0.72392
 C650 C 0.32435 0.37947 0.73615
 C651 C 0.31386 0.34342 0.73818
 C652 C 0.32564 0.47103 0.74065
 C653 C 0.25361 0.35978 0.71141
 C654 C 0.26401 0.39670 0.71065
 C655 C 0.31057 0.44327 0.73081
 C656 C 0.27822 0.33263 0.72637
 H657 H 0.35146 0.38666 0.74736
 H658 H 0.33303 0.32498 0.75324
 H659 H 0.22572 0.35289 0.70299
 H660 H 0.24420 0.41754 0.70151
 C661 C 0.79087 0.89313 0.23431
 C662 C 0.79931 0.86802 0.20259
 C663 C 0.78793 0.83179 0.20646
 C664 C 0.82615 0.95523 0.24140
 C665 C 0.75766 0.84657 0.27220
 C666 C 0.76873 0.88266 0.26814
 C667 C 0.80920 0.92759 0.23619
 C668 C 0.76964 0.82000 0.24317
 H669 H 0.81628 0.87591 0.17607
 H670 H 0.79605 0.81251 0.18239
 H671 H 0.74179 0.83920 0.29976
 H672 H 0.76176 0.90192 0.29273
 C673 C 0.70876 0.91029 0.78043
 C674 C 0.68355 0.88418 0.76831
 C675 C 0.69404 0.84790 0.76544
 C676 C 0.68285 0.97592 0.76369
 C677 C 0.75470 0.86234 0.79115
 C678 C 0.74430 0.89946 0.79275
 C679 C 0.69766 0.94762 0.77377
 C680 C 0.72989 0.83607 0.77624
 H681 H 0.65628 0.89226 0.75774
 H682 H 0.67467 0.83020 0.75054
 H683 H 0.78273 0.85464 0.79883
 H684 H 0.76428 0.91964 0.80169
 C685 C 0.20672 0.40465 0.28521
 C686 C 0.18129 0.37809 0.27499
 C687 C 0.19190 0.34172 0.27271
 C688 C 0.18061 0.47071 0.26951
 C689 C 0.25333 0.35708 0.29491
 C690 C 0.24273 0.39418 0.29610
 C691 C 0.19526 0.44203 0.27871
 C692 C 0.22823 0.33030 0.28193
 H693 H 0.15360 0.38581 0.26559
 H694 H 0.17212 0.32362 0.25925
 H695 H 0.28170 0.34976 0.30140
 H696 H 0.26288 0.41462 0.30365
 C697 C 0.09713 0.24977 0.81400
 C698 C 0.10370 0.26564 0.77443
 C699 C 0.13894 0.26327 0.75609
 C700 C 0.03519 0.25577 0.85716
 C701 C 0.16006 0.22872 0.81669
 C702 C 0.12522 0.23078 0.83444
 C703 C 0.06263 0.25377 0.83584
 C704 C 0.16782 0.24516 0.77737
 H705 H 0.08197 0.28053 0.75835
 H706 H 0.14387 0.27664 0.72620
 H707 H 0.18116 0.21472 0.83470
 H708 H 0.12052 0.21840 0.86500
 C709 C 0.59368 0.73309 0.31109
 C710 C 0.60287 0.75244 0.27443
 C711 C 0.63826 0.74885 0.25685
 C712 C 0.53201 0.74436 0.35392
 C713 C 0.65432 0.70551 0.31168
 C714 C 0.61915 0.70883 0.32872
 C715 C 0.55959 0.73967 0.33323
 C716 C 0.66492 0.72609 0.27602
 H717 H 0.58328 0.77139 0.26049
 H718 H 0.64530 0.76547 0.22983
 H719 H 0.67380 0.68812 0.32815
 H720 H 0.61244 0.69372 0.35706
 C721 C 0.59799 0.24397 0.18957
 C722 C 0.60392 0.22757 0.22903
 C723 C 0.63894 0.22874 0.24773
 C724 C 0.53644 0.24191 0.14599
 C725 C 0.66101 0.26309 0.18763
 C726 C 0.62647 0.26218 0.16955
 C727 C 0.56366 0.24188 0.16753
 C728 C 0.66816 0.24624 0.22694
 H729 H 0.58184 0.21331 0.24481
 H730 H 0.64341 0.21508 0.27757
 H731 H 0.68233 0.27670 0.16991
 H732 H 0.62225 0.27500 0.13911
 C733 C 0.09860 0.75735 0.68652
 C734 C 0.10491 0.73928 0.72494
 C735 C 0.13934 0.74180 0.74481
 C736 C 0.03851 0.75138 0.64065
 C737 C 0.16004 0.78099 0.68817
 C738 C 0.12599 0.77880 0.66897
 C739 C 0.06524 0.75323 0.66289
 C740 C 0.16771 0.76229 0.72626
 H741 H 0.08373 0.72246 0.73881
 H742 H 0.14425 0.72647 0.77348
 H743 H 0.18085 0.79651 0.67185
 H744 H 0.12152 0.79287 0.63931
 C745 C 0.91080 0.74892 0.68371
 C746 C 0.88186 0.73170 0.66376
 C747 C 0.84723 0.73106 0.68223
 C748 C 0.97308 0.75098 0.64016
 C749 C 0.86993 0.76383 0.74247
 C750 C 0.90504 0.76472 0.72343
 C751 C 0.94545 0.75074 0.66149
 C752 C 0.84033 0.74720 0.72188
 H753 H 0.88582 0.71936 0.63315
 H754 H 0.82567 0.71808 0.66462
 H755 H 0.86574 0.77698 0.77253
 H756 H 0.92736 0.77826 0.73922
 C757 C 0.40895 0.24074 0.18901
 C758 C 0.40367 0.25654 0.22879
 C759 C 0.36855 0.25669 0.24771
 C760 C 0.47107 0.24248 0.14550
 C761 C 0.34488 0.22503 0.18710
 C762 C 0.37953 0.22463 0.16877
 C763 C 0.44352 0.24201 0.16681
 C764 C 0.33850 0.24119 0.22683
 H765 H 0.42641 0.26928 0.24471
 H766 H 0.36475 0.26964 0.27795
 H767 H 0.32297 0.21264 0.16947
 H768 H 0.38317 0.21237 0.13807
 C769 C 0.40452 0.75675 0.30947
 C770 C 0.37528 0.77280 0.33114
 C771 C 0.34035 0.77358 0.31376
 C772 C 0.46671 0.75196 0.35210
 C773 C 0.36340 0.74333 0.25131
 C774 C 0.39877 0.74224 0.26926
 C775 C 0.43929 0.75389 0.33086
 C776 C 0.33354 0.75871 0.27363
 H777 H 0.37928 0.78405 0.36222
 H778 H 0.31860 0.78589 0.33238
 H779 H 0.35927 0.73141 0.22064
 H780 H 0.42133 0.72953 0.25224
 C781 C 0.90771 0.26444 0.81433
 C782 C 0.87827 0.28162 0.83444
 C783 C 0.84362 0.28201 0.81625
 C784 C 0.96970 0.26013 0.85776
 C785 C 0.86734 0.24910 0.75599
 C786 C 0.90242 0.24844 0.77476
 C787 C 0.94219 0.26194 0.83655
 C788 C 0.83725 0.26562 0.77678
 H789 H 0.88184 0.29401 0.86500
 H790 H 0.82165 0.29502 0.83389
 H791 H 0.86358 0.23586 0.72600
 H792 H 0.92511 0.23480 0.75893
 C793 C 0.60200 0.96895 0.64552
 C794 C 0.61839 0.97551 0.60669
 C795 C 0.59777 0.97365 0.57008
 C796 C 0.63842 0.99190 0.71221
 C797 C 0.54503 0.95347 0.61001
 C798 C 0.56572 0.95632 0.64716
 C799 C 0.62128 0.98041 0.68269
 C800 C 0.56008 0.96429 0.57096
 H801 H 0.64633 0.98548 0.60490
 H802 H 0.61081 0.98426 0.54226
 H803 H 0.51621 0.94663 0.61258
 H804 H 0.55264 0.95108 0.67720
 C805 C 0.08650 0.47102 1.16214
 C806 C 0.09569 0.45075 1.12629
 C807 C 0.07121 0.44959 1.09227
 C808 C 0.13423 0.48895 1.22094
 C809 C 0.02748 0.48611 1.13157
 C810 C 0.05150 0.48676 1.16555
 C811 C 0.11335 0.47941 1.19377
 C812 C 0.03830 0.47026 1.09299
 H813 H 0.12245 0.43760 1.12365
 H814 H 0.07964 0.43517 1.06432
 H815 H 0.00159 0.50068 1.13494
 H816 H 0.04361 0.50171 1.19354
 C817 C -0.09899 0.02861 1.14729
 C818 C -0.06325 0.04251 1.14871
 C819 C -0.04338 0.04809 1.11128
 C820 C -0.13242 0.00113 1.21417
 C821 C -0.09622 0.02867 1.07168
 C822 C -0.11607 0.02405 1.10869
 C823 C -0.11682 0.01424 1.18422
 C824 C -0.05867 0.03854 1.07218
 H825 H -0.04980 0.04647 1.17864
 H826 H -0.01472 0.05556 1.11348
 H827 H -0.10948 0.01928 1.04366
 H828 H -0.14373 0.01339 1.10716
 C829 C 0.40814 0.52665 0.65007
 C830 C 0.44368 0.54086 0.64582
 C831 C 0.46127 0.54072 0.60628
 C832 C 0.37297 0.51212 0.72060
 C833 C 0.40733 0.51294 0.57633
 C834 C 0.38979 0.51399 0.61495
 C835 C 0.39069 0.52042 0.68999
 C836 C 0.44358 0.52584 0.57105
 H837 H 0.45828 0.55048 0.67314
 H838 H 0.48935 0.55005 0.60390
 H839 H 0.39283 0.49946 0.55140
 H840 H 0.36252 0.50253 0.61789
 C841 C 0.40880 0.46313 -0.14375
 C842 C 0.39152 0.47024 -0.10561
 C843 C 0.41163 0.46969 -0.06868
 C844 C 0.37200 0.48603 -0.21043
 C845 C 0.46572 0.44918 -0.10669
 C846 C 0.44555 0.45099 -0.14431
 C847 C 0.38976 0.47433 -0.18128
 C848 C 0.44961 0.46073 -0.06848
 H849 H 0.36321 0.47995 -0.10479
 H850 H 0.39780 0.48104 -0.04177
 H851 H 0.49481 0.44263 -0.10837
 H852 H 0.45928 0.44543 -0.17390
 C853 C -0.07310 0.97145 0.34104
 C854 C -0.05908 0.94006 0.36118
 C855 C -0.03562 0.94357 0.39610
 C856 C -0.12384 0.97633 0.28260
 C857 C -0.03988 1.00922 0.38869
 C858 C -0.06212 1.00570 0.35394
 C859 C -0.10053 0.97093 0.30878
 C860 C -0.02796 0.97840 0.41216
 H861 H -0.06693 0.91320 0.35072
 H862 H -0.02525 0.91927 0.41174
 H863 H -0.03321 1.03678 0.39760
 H864 H -0.07205 1.03013 0.33805
 C865 C 0.08517 0.53428 0.34801
 C866 C 0.04789 0.52762 0.34114
 C867 C 0.02275 0.52971 0.37446
 C868 C 0.13336 0.51421 0.28941
 C869 C 0.07108 0.54953 0.42043
 C870 C 0.09631 0.54731 0.38711
 C871 C 0.11195 0.52422 0.31633
 C872 C 0.03465 0.53737 0.41571
 H873 H 0.03862 0.51842 0.31070
 H874 H -0.00533 0.52177 0.36843
 H875 H 0.08111 0.55879 0.45017
 H876 H 0.12489 0.55383 0.39258
 C877 C 0.58353 0.03286 -0.16125
 C878 C 0.59112 0.05317 -0.12522
 C879 C 0.56639 0.05307 -0.09123
 C880 C 0.63364 0.01744 -0.21923
 C881 C 0.52542 0.01504 -0.13081
 C882 C 0.54973 0.01556 -0.16477
 C883 C 0.61131 0.02584 -0.19269
 C884 C 0.53476 0.03130 -0.09216
 H885 H 0.61699 0.06730 -0.12239
 H886 H 0.57392 0.06738 -0.06318
 H887 H 0.50058 -0.00058 -0.13432
 H888 H 0.54313 0.00039 -0.19284
 C889 C 0.64929 0.55548 -0.03668
 C890 C 0.62114 0.57806 -0.02214
 C891 C 0.58589 0.56489 -0.01755
 C892 C 0.71399 0.58394 -0.02148
 C893 C 0.60506 0.50681 -0.04650
 C894 C 0.64133 0.51988 -0.04969
 C895 C 0.68599 0.56878 -0.03108
 C896 C 0.57685 0.52896 -0.02923
 H897 H 0.62704 0.60522 -0.01081
 H898 H 0.56715 0.58225 -0.00042
 H899 H 0.59968 0.47881 -0.05489
 H900 H 0.66320 0.50186 -0.06040
 C901 C 0.16832 1.04913 0.48501
 C902 C 0.14225 1.06646 0.51018
 C903 C 0.10672 1.05378 0.51213
 C904 C 0.23178 1.08138 0.49272
 C905 C 0.12230 1.00555 0.46325
 C906 C 0.15861 1.01852 0.46138
 C907 C 0.20446 1.06420 0.48598
 C908 C 0.09581 1.02316 0.48880
 H909 H 0.14943 1.09007 0.52872
 H910 H 0.08784 1.06852 0.53229
 H911 H 0.11503 0.98194 0.44491
 H912 H 0.17887 1.00481 0.44182
 C913 C 0.14572 -0.05160 1.03755
 C914 C 0.13643 -0.01616 1.05073
 C915 C 0.09946 -0.00404 1.04930
 C916 C 0.21102 -0.07855 1.01833
 C917 C 0.08223 -0.06281 1.02199
 C918 C 0.11823 -0.07508 1.02501
 C919 C 0.18280 -0.06388 1.02958
 C920 C 0.07186 -0.02693 1.03343
 H921 H 0.15773 0.00253 1.05998
 H922 H 0.09304 0.02397 1.05741
 H923 H 0.06396 -0.08075 1.00584
 H924 H 0.12509 -0.10219 1.01368
 C925 C 0.64446 0.45323 0.51272
 C926 C 0.61897 0.44563 0.54463
 C927 C 0.58245 0.45803 0.54106
 C928 C 0.70775 0.41728 0.50596
 C929 C 0.59754 0.48749 0.47509
 C930 C 0.63393 0.47534 0.47881
 C931 C 0.67955 0.43450 0.51109
 C932 C 0.57064 0.47666 0.50451
 H933 H 0.62681 0.42869 0.57121
 H934 H 0.56298 0.45057 0.56537
 H935 H 0.59020 0.50363 0.44772
 H936 H 0.65343 0.48172 0.45406
 C937 C -0.16457 0.44521 0.46411
 C938 C -0.15610 0.48011 0.44871
 C939 C -0.11952 0.49255 0.44999
 C940 C -0.22975 0.41699 0.47920
 C941 C -0.10079 0.43521 0.48168
 C942 C -0.13655 0.42274 0.47948
 C943 C -0.20158 0.43224 0.46973
 C944 C -0.09132 0.47041 0.46735
 H945 H -0.17774 0.49805 0.43719
 H946 H -0.11372 0.52002 0.43947
 H947 H -0.08152 0.41785 0.49820
 H948 H -0.14273 0.39606 0.49241
 C949 C 0.33647 -0.04702 -0.02466
 C950 C 0.34624 -0.01467 -0.04544
 C951 C 0.38306 -0.00307 -0.04477
 C952 C 0.27153 -0.07594 -0.01312
 C953 C 0.39919 -0.05620 -0.00289
 C954 C 0.36317 -0.06770 -0.00397
 C955 C 0.29949 -0.05999 -0.02119
 C956 C 0.41004 -0.02370 -0.02310
 H957 H 0.32555 0.00172 -0.06140
 H958 H 0.39017 0.02226 -0.06024
 H959 H 0.41816 -0.07252 0.01552
 H960 H 0.35592 -0.09254 0.01263
 C961 C 0.35673 1.05623 0.54050
 C962 C 0.38397 1.07930 0.52586
 C963 C 0.41957 1.06653 0.52092
 C964 C 0.29166 1.08408 0.52358
 C965 C 0.40257 1.00802 0.55016
 C966 C 0.36590 1.02063 0.55350
 C967 C 0.31972 1.06898 0.53421
 C968 C 0.42984 1.03063 0.53260
 H969 H 0.37706 1.10648 0.51449
 H970 H 0.43760 1.08422 0.50363
 H971 H 0.40898 0.98000 0.55852
 H972 H 0.34468 1.00225 0.56419
 C973 C -0.16067 0.55047 1.02159
 C974 C -0.13361 0.57049 1.00139
 C975 C -0.09752 0.55845 1.00158
 C976 C -0.22532 0.58080 1.00832
 C977 C -0.11425 0.50607 1.04386
 C978 C -0.15121 0.51824 1.04325
 C979 C -0.19754 0.56421 1.01697
 C980 C -0.08686 0.52605 1.02265
 H981 H -0.14058 0.59524 0.98418
 H982 H -0.07833 0.57430 0.98332
 H983 H -0.10732 0.48080 1.05989
 H984 H -0.17221 0.50239 1.05888
 C985 C 0.00085 0.65562 0.54519
 C986 C -0.02631 0.63224 0.55968
 C987 C -0.02996 0.59783 0.54231
 C988 C 0.00669 0.71718 0.58767
 C989 C 0.01942 0.61022 0.49328
 C990 C 0.02331 0.64499 0.51126
 C991 C 0.00537 0.68963 0.56706
 C992 C -0.00641 0.58549 0.50965
 H993 H -0.04410 0.64017 0.58559
 H994 H -0.05052 0.58047 0.55636
 H995 H 0.03758 0.60237 0.46798
 H996 H 0.04430 0.66311 0.49942
 C997 C 0.50517 0.15666 0.03694
 C998 C 0.47187 0.14276 0.02274
 C999 C 0.47119 0.10915 0.00228
 C1000 C 0.50466 0.21259 0.08944
 C1001 C 0.53738 0.10500 0.00595
 C1002 C 0.53808 0.13865 0.02654
 C1003 C 0.50513 0.18743 0.06502
 C1004 C 0.50377 0.08817 -0.00331
 H1005 H 0.44618 0.15683 0.02964
 H1006 H 0.44457 0.09836 -0.00587
 H1007 H 0.56323 0.09181 -0.00049
 H1008 H 0.56424 0.14969 0.03617
 C1009 C -0.00607 0.15958 0.94784
 C1010 C 0.00707 0.15129 0.98830
 C1011 C 0.00415 0.11562 1.00453
 C1012 C 0.00066 0.22332 0.90933
 C1013 C -0.02546 0.09735 0.94004
 C1014 C -0.02281 0.13260 0.92429
 C1015 C -0.00179 0.19494 0.92855
 C1016 C -0.01183 0.08799 0.98031
 H1017 H 0.02017 0.17210 1.00686
 H1018 H 0.01528 0.10948 1.03532
 H1019 H -0.03795 0.07730 0.91994
 H1020 H -0.03314 0.13859 0.89304
 C1021 C 0.48239 0.65636 0.44962
 C1022 C 0.45736 0.63285 0.43126
 C1023 C 0.45412 0.59728 0.44596
 C1024 C 0.49436 0.71750 0.40763
 C1025 C 0.49881 0.60907 0.50033
 C1026 C 0.50245 0.64486 0.48496
 C1027 C 0.48955 0.69041 0.42857
 C1028 C 0.47543 0.58434 0.48009
 H1029 H 0.44181 0.64134 0.40380
 H1030 H 0.43639 0.57935 0.42858
 H1031 H 0.51603 0.60018 0.52622
 H1032 H 0.52208 0.66288 0.49936
 C1033 C 0.50847 0.84533 0.44491
 C1034 C 0.52504 0.87293 0.42166
 C1035 C 0.52739 0.90789 0.43787
 C1036 C 0.50162 0.78238 0.40536
 C1037 C 0.49776 0.88818 0.50226
 C1038 C 0.49514 0.85278 0.48555
 C1039 C 0.50429 0.81034 0.42505
 C1040 C 0.51362 0.91642 0.47836
 H1041 H 0.53547 0.86764 0.39028
 H1042 H 0.53980 0.92840 0.41796
 H1043 H 0.48652 0.89364 0.53319
 H1044 H 0.48210 0.83154 0.50389
 C1045 C 0.00813 0.34413 0.96557
 C1046 C -0.02461 0.35877 0.98160
 C1047 C -0.02463 0.39245 1.00189
 C1048 C 0.00495 0.28811 0.91331
 C1049 C 0.04138 0.39511 0.99484
 C1050 C 0.04141 0.36136 0.97426
 C1051 C 0.00686 0.31332 0.93754
 C1052 C 0.00807 0.41278 1.00543
 H1053 H -0.05052 0.34528 0.97619
 H1054 H -0.05098 0.40386 1.01133
 H1055 H 0.06737 0.40773 1.00044
 H1056 H 0.06723 0.34963 0.96340
 C1057 C 0.50001 0.34207 0.05691
 C1058 C 0.51255 0.34979 0.01601
 C1059 C 0.51027 0.38563 -0.00003
 C1060 C 0.50394 0.27755 0.09438
 C1061 C 0.48260 0.40523 0.06560
 C1062 C 0.48471 0.36986 0.08120
 C1063 C 0.50287 0.30627 0.07562
 C1064 C 0.49552 0.41397 0.02481
 H1065 H 0.52444 0.32833 -0.00316
 H1066 H 0.52061 0.39125 -0.03134
 H1067 H 0.47071 0.42575 0.08602
 H1068 H 0.47476 0.36428 0.11273
 C1069 C -0.00023 0.84235 0.53869
 C1070 C -0.02714 0.86715 0.55176
 C1071 C -0.02827 0.90222 0.53503
 C1072 C 0.00560 0.78228 0.58500
 C1073 C 0.02243 0.88735 0.48846
 C1074 C 0.02396 0.85202 0.50606
 C1075 C 0.00389 0.80892 0.56247
 C1076 C -0.00299 0.91351 0.50376
 H1077 H -0.04585 0.86021 0.57712
 H1078 H -0.04723 0.92121 0.54968
 H1079 H 0.04287 0.89493 0.46526
 H1080 H 0.04510 0.83299 0.49571
 C1081 C 0.21543 0.33750 0.10688
 C1082 C 0.20290 0.30149 0.10806
 C1083 C 0.20210 0.28228 0.14645
 C1084 C 0.23621 0.37354 0.03915
 C1085 C 0.22463 0.33586 0.18158
 C1086 C 0.22404 0.35508 0.14403
 C1087 C 0.22542 0.35567 0.06850
 C1088 C 0.21511 0.29861 0.18356
 H1089 H 0.19617 0.28756 0.07920
 H1090 H 0.19513 0.25366 0.14613
 H1091 H 0.23728 0.34966 0.20737
 H1092 H 0.23410 0.38282 0.14346
 C1093 C 0.72256 0.84776 0.60092
 C1094 C 0.73150 0.86411 0.63875
 C1095 C 0.73051 0.84413 0.67591
 C1096 C 0.74398 0.88248 0.53200
 C1097 C 0.70655 0.79221 0.63891
 C1098 C 0.70860 0.81221 0.60106
 C1099 C 0.73310 0.86618 0.56265
 C1100 C 0.71941 0.80723 0.67680
 H1101 H 0.74265 0.89141 0.63911
 H1102 H 0.74297 0.85696 0.70252
 H1103 H 0.69847 0.76391 0.63766
 H1104 H 0.70161 0.79915 0.57175
 C1105 C 0.27572 0.66632 0.59901
 C1106 C 0.27111 0.64833 0.63715
 C1107 C 0.27580 0.66682 0.67461
 C1108 C 0.24870 0.63178 0.53343
 C1109 C 0.29556 0.72034 0.63647
 C1110 C 0.28960 0.70187 0.59844
 C1111 C 0.26170 0.64883 0.56204
 C1112 C 0.28638 0.70386 0.67533
 H1113 H 0.26033 0.62088 0.63807
 H1114 H 0.26589 0.65281 0.70206
 H1115 H 0.30321 0.74877 0.63512
 H1116 H 0.29352 0.71608 0.56886
 C1117 C 0.78197 0.15345 0.10147
 C1118 C 0.77537 0.13467 0.13875
 C1119 C 0.77870 0.15228 0.17703
 C1120 C 0.75661 0.12282 0.03256
 C1121 C 0.80096 0.20621 0.14153
 C1122 C 0.79658 0.18864 0.10275
 C1123 C 0.76892 0.13768 0.06309
 C1124 C 0.78949 0.18918 0.17921
 H1125 H 0.76410 0.10742 0.13817
 H1126 H 0.76771 0.13792 0.20376
 H1127 H 0.80913 0.23452 0.14140
 H1128 H 0.80209 0.20340 0.07386
 C1129 C 0.71255 0.16824 0.89707
 C1130 C 0.69944 0.20439 0.89623
 C1131 C 0.70011 0.22443 0.85833
 C1132 C 0.73027 0.12927 0.96387
 C1133 C 0.72582 0.17160 0.82319
 C1134 C 0.72376 0.15158 0.86004
 C1135 C 0.72051 0.14870 0.93524
 C1136 C 0.71497 0.20874 0.82147
 H1137 H 0.69088 0.21767 0.92503
 H1138 H 0.69231 0.25302 0.85891
 H1139 H 0.74010 0.15833 0.79774
 H1140 H 0.73446 0.12382 0.86038
 C1141 C 0.20535 0.66720 0.39462
 C1142 C 0.21668 0.64929 0.35838
 C1143 C 0.21916 0.66821 0.32071
 C1144 C 0.22243 0.63195 0.46439
 C1145 C 0.19363 0.72224 0.35361
 C1146 C 0.19238 0.70333 0.39216
 C1147 C 0.21311 0.64932 0.43390
 C1148 C 0.20896 0.70545 0.31764
 H1149 H 0.22715 0.62149 0.35998
 H1150 H 0.23334 0.65413 0.29577
 H1151 H 0.18608 0.75089 0.35307
 H1152 H 0.18363 0.71753 0.42031
 C1153 C 0.78745 0.82467 0.40821
 C1154 C 0.80647 0.83285 0.37109
 C1155 C 0.80614 0.80829 0.33754
 C1156 C 0.76961 0.87531 0.46359
 C1157 C 0.77116 0.76614 0.37989
 C1158 C 0.77188 0.79037 0.41344
 C1159 C 0.77907 0.85256 0.43843
 C1160 C 0.78528 0.77627 0.34009
 H1161 H 0.81931 0.85916 0.36697
 H1162 H 0.81906 0.81641 0.30859
 H1163 H 0.75657 0.74090 0.38455
 H1164 H 0.75778 0.78337 0.44242
 C1165 C 0.28384 0.34013 0.90173
 C1166 C 0.29791 0.30430 0.90127
 C1167 C 0.30058 0.28514 0.86310
 C1168 C 0.26212 0.37548 0.96988
 C1169 C 0.27691 0.33839 0.82662
 C1170 C 0.27539 0.35753 0.86406
 C1171 C 0.27306 0.35833 0.93994
 C1172 C 0.28817 0.30131 0.82525
 H1173 H 0.30459 0.29047 0.93048
 H1174 H 0.30874 0.25665 0.86399
 H1175 H 0.26462 0.35210 0.80013
 H1176 H 0.26423 0.38510 0.86396
 C1177 C 0.80035 0.41085 0.78035
 C1178 C 0.82515 0.38380 0.76804
 C1179 C 0.81420 0.34795 0.76550
 C1180 C 0.82775 0.47532 0.76389
 C1181 C 0.75377 0.36461 0.79178
 C1182 C 0.76465 0.40138 0.79302
 C1183 C 0.81222 0.44768 0.77378
 C1184 C 0.77827 0.33737 0.77693
 H1185 H 0.85252 0.39081 0.75717
 H1186 H 0.83334 0.32956 0.75039
 H1187 H 0.72568 0.35791 0.79988
 H1188 H 0.74498 0.42233 0.80211
 C1189 C 0.30222 0.90411 0.28186
 C1190 C 0.32579 0.87656 0.26803
 C1191 C 0.31331 0.84128 0.26382
 C1192 C 0.33114 0.96892 0.26958
 C1193 C 0.25362 0.85938 0.29093
 C1194 C 0.26610 0.89558 0.29403
 C1195 C 0.31555 0.94079 0.27755
 C1196 C 0.27694 0.83171 0.27482
 H1197 H 0.35343 0.88283 0.25746
 H1198 H 0.33169 0.82269 0.24786
 H1199 H 0.22529 0.85355 0.29884
 H1200 H 0.24733 0.91692 0.30428
 C1201 C 0.20545 0.90818 0.72728
 C1202 C 0.24067 0.89822 0.71273
 C1203 C 0.25112 0.86107 0.71124
 C1204 C 0.17875 0.97288 0.74666
 C1205 C 0.19110 0.84500 0.73820
 C1206 C 0.18057 0.88133 0.73846
 C1207 C 0.19399 0.94504 0.73592
 C1208 C 0.22666 0.83386 0.72515
 H1209 H 0.26036 0.91897 0.70428
 H1210 H 0.27896 0.85390 0.70197
 H1211 H 0.17199 0.82642 0.75252
 H1212 H 0.15352 0.88863 0.75051
 C1213 C 0.70067 0.39094 0.21887
 C1214 C 0.67725 0.36409 0.23369
 C1215 C 0.68942 0.32836 0.23718
 C1216 C 0.67262 0.45645 0.23206
 C1217 C 0.74837 0.34465 0.20746
 C1218 C 0.73623 0.38131 0.20503
 C1219 C 0.68782 0.42795 0.22365
 C1220 C 0.72525 0.31763 0.22450
 H1221 H 0.65004 0.37120 0.24542
 H1222 H 0.67125 0.31011 0.25358
 H1223 H 0.77633 0.33788 0.19827
 H1224 H 0.75488 0.40212 0.19396
 C1225 C 0.70237 0.58132 0.27570
 C1226 C 0.67970 0.60851 0.25904
 C1227 C 0.69108 0.64429 0.25818
 C1228 C 0.67434 0.51715 0.26115
 C1229 C 0.74782 0.62691 0.29300
 C1230 C 0.73644 0.59033 0.29316
 C1231 C 0.68998 0.54469 0.27039
 C1232 C 0.72533 0.65438 0.27492
 H1233 H 0.65359 0.60181 0.24478
 H1234 H 0.67349 0.66353 0.24185
 H1235 H 0.77457 0.63343 0.30556
 H1236 H 0.75440 0.56923 0.30579
 C1237 C 0.20315 0.09971 0.78742
 C1238 C 0.23852 0.10929 0.80075
 C1239 C 0.24994 0.14586 0.79775
 C1240 C 0.17652 0.03414 0.77522
 C1241 C 0.19063 0.16226 0.76850
 C1242 C 0.17917 0.12657 0.77251
 C1243 C 0.19111 0.06266 0.78323
 C1244 C 0.22627 0.17286 0.78067
 H1245 H 0.25760 0.08851 0.81187
 H1246 H 0.27777 0.15255 0.80660
 H1247 H 0.17212 0.18055 0.75214
 H1248 H 0.15209 0.11948 0.76114
 C1249 C 0.30305 0.09582 0.22540
 C1250 C 0.32793 0.12262 0.23624
 C1251 C 0.31686 0.15878 0.23807
 C1252 C 0.33028 0.03058 0.24200
 C1253 C 0.25615 0.14278 0.21391
 C1254 C 0.26719 0.10578 0.21332
 C1255 C 0.31502 0.05879 0.23242
 C1256 C 0.28069 0.16983 0.22749
 H1257 H 0.35547 0.11526 0.24655
 H1258 H 0.33614 0.17705 0.25217
 H1259 H 0.22790 0.14983 0.20646
 H1260 H 0.24748 0.08507 0.20526
 C1261 C 0.80402 0.60211 0.71762
 C1262 C 0.82875 0.62869 0.72946
 C1263 C 0.81777 0.66487 0.73133
 C1264 C 0.83000 0.53635 0.73453
 C1265 C 0.75761 0.64940 0.70503
 C1266 C 0.76851 0.61235 0.70445
 C1267 C 0.81557 0.56496 0.72482
 C1268 C 0.78189 0.67620 0.71973
 H1269 H 0.85598 0.62113 0.74060
 H1270 H 0.83674 0.68288 0.74640
 H1271 H 0.72957 0.65664 0.69683
 H1272 H 0.74891 0.59178 0.69559
 C1273 C 0.90667 0.74913 0.20550
 C1274 C 0.89243 0.71570 0.21851
 C1275 C 0.85867 0.71446 0.23966
 C1276 C 0.96338 0.75027 0.15283
 C1277 C 0.85493 0.78018 0.23856
 C1278 C 0.88871 0.78144 0.21732
 C1279 C 0.93787 0.75002 0.17733
 C1280 C 0.83792 0.74667 0.24731
 H1281 H 0.90641 0.69043 0.21038
 H1282 H 0.84773 0.68786 0.24713
 H1283 H 0.84186 0.80565 0.24601
 H1284 H 0.89994 0.80763 0.20844
 C1285 C 0.40803 0.25856 0.69039
 C1286 C 0.37912 0.27680 0.67058
 C1287 C 0.34441 0.27763 0.68882
 C1288 C 0.47009 0.25546 0.64660
 C1289 C 0.36702 0.24305 0.74862
 C1290 C 0.40220 0.24195 0.72977
 C1291 C 0.44262 0.25623 0.66812
 C1292 C 0.33742 0.26067 0.72810
 H1293 H 0.38314 0.28972 0.64019
 H1294 H 0.32283 0.29135 0.67127
 H1295 H 0.36276 0.22927 0.77839
 H1296 H 0.42452 0.22756 0.74540
 C1297 C 0.40924 0.74547 0.80590
 C1298 C 0.40203 0.76211 0.76685
 C1299 C 0.36654 0.76067 0.74933
 C1300 C 0.47115 0.75057 0.84877
 C1301 C 0.34635 0.72557 0.80967
 C1302 C 0.38144 0.72666 0.82658
 C1303 C 0.44387 0.74890 0.82733
 C1304 C 0.33797 0.74276 0.77091
 H1305 H 0.42343 0.77696 0.75059
 H1306 H 0.36116 0.77467 0.71990
 H1307 H 0.32550 0.71181 0.82799
 H1308 H 0.38654 0.71377 0.85679
 C1309 C 0.90843 0.23237 0.31145
 C1310 C 0.90161 0.24853 0.27206
 C1311 C 0.86643 0.24657 0.25390
 C1312 C 0.96987 0.24048 0.35459
 C1313 C 0.84573 0.21180 0.31428
 C1314 C 0.88057 0.21342 0.33186
 C1315 C 0.94263 0.23696 0.33344
 C1316 C 0.83775 0.22864 0.27519
 H1317 H 0.92306 0.26352 0.25604
 H1318 H 0.86136 0.26025 0.22420
 H1319 H 0.82473 0.19798 0.33230
 H1320 H 0.88537 0.20093 0.36235
 C1321 C 0.09822 0.25420 0.31431
 C1322 C 0.10524 0.24050 0.27392
 C1323 C 0.14080 0.24248 0.25656
 C1324 C 0.03516 0.24759 0.35507
 C1325 C 0.16154 0.27242 0.31975
 C1326 C 0.12632 0.27070 0.33664
 C1327 C 0.06317 0.25019 0.33486
 C1328 C 0.16961 0.25797 0.27963
 H1329 H 0.08355 0.22759 0.25635
 H1330 H 0.14593 0.23090 0.22582
 H1331 H 0.18260 0.28473 0.33879
 H1332 H 0.12125 0.28145 0.36784
 C1333 C 0.59975 0.75985 0.80971
 C1334 C 0.62780 0.77807 0.83024
 C1335 C 0.66260 0.78027 0.81218
 C1336 C 0.53686 0.75360 0.85168
 C1337 C 0.64166 0.74730 0.75124
 C1338 C 0.60649 0.74487 0.76980
 C1339 C 0.56496 0.75590 0.83134
 C1340 C 0.67046 0.76467 0.77250
 H1341 H 0.62307 0.78983 0.86101
 H1342 H 0.68364 0.79368 0.83019
 H1343 H 0.64659 0.73453 0.72110
 H1344 H 0.58491 0.73061 0.75352
 C1345 C 0.59811 0.25323 0.68808
 C1346 C 0.62693 0.23545 0.66748
 C1347 C 0.66164 0.23390 0.68539
 C1348 C 0.53571 0.25627 0.64580
 C1349 C 0.63905 0.26681 0.74627
 C1350 C 0.60391 0.26857 0.72783
 C1351 C 0.56339 0.25582 0.66663
 C1352 C 0.66857 0.24977 0.72496
 H1353 H 0.62281 0.22336 0.63685
 H1354 H 0.68321 0.22054 0.66747
 H1355 H 0.64332 0.27965 0.77640
 H1356 H 0.58160 0.28242 0.74411
 C1357 C 0.09313 0.74731 0.18656
 C1358 C 0.12240 0.73231 0.16392
 C1359 C 0.15763 0.73185 0.18068
 C1360 C 0.02889 0.74960 0.14746
 C1361 C 0.13490 0.76060 0.24420
 C1362 C 0.09924 0.76121 0.22699
 C1363 C 0.05755 0.74894 0.16664
 C1364 C 0.16472 0.74619 0.22101
 H1365 H 0.11811 0.72137 0.13275
 H1366 H 0.17936 0.72014 0.16152
 H1367 H 0.13921 0.77199 0.27510
 H1368 H 0.07666 0.77295 0.24488
   
