data_POSCAR
  _audit_creation_date              2014-09-24
  _audit_creation_method            'ToBaCCo'
  _symmetry_space_group_name_H-M    'P1'
  _symmetry_Int_Tables_number       1
  _symmetry_cell_setting            triclinic
  loop_
  _symmetry_equiv_pos_as_xyz
 x,y,z
_cell_length_a 71.5395
_cell_length_b 72.3059
_cell_length_c 73.3285
_cell_angle_alpha 89.670900
_cell_angle_beta 90.110900
_cell_angle_gamma 89.759900
loop_
  _atom_site_label
  _atom_site_type_symbol
  _atom_site_fract_x
  _atom_site_fract_y
  _atom_site_fract_z
N1 N 0.16557 0.22145 0.20881
 N2 N 0.17273 0.21158 0.22222
 C3 C 0.16069 0.21139 0.23628
 C4 C 0.14505 0.22172 0.23146
 C5 C 0.14867 0.22785 0.21385
 H6 H 0.16324 0.20435 0.24909
 H7 H 0.13973 0.23626 0.20524
 Cu8 Cu 0.19691 0.19960 0.21984
 Cu9 Cu 0.17869 0.22490 0.18578
 Cu10 Cu 0.22607 0.21450 0.18741
 N11 N 0.21962 0.18607 0.21402
 N12 N 0.23124 0.19207 0.20149
 C13 C 0.24587 0.18038 0.20044
 C14 C 0.24323 0.16612 0.21293
 C15 C 0.22636 0.17029 0.22130
 H16 H 0.25744 0.18214 0.19114
 H17 H 0.21933 0.16241 0.23178
 N18 N 0.21489 0.23068 0.16867
 N19 N 0.19674 0.23377 0.16746
 C20 C 0.19333 0.24445 0.15271
 C21 C 0.21017 0.24833 0.14429
 C22 C 0.22355 0.23938 0.15481
 H23 H 0.17964 0.24939 0.14866
 H24 H 0.23844 0.23886 0.15234
 H25 H 0.19974 0.20480 0.18707
 H26 H 0.20271 0.22652 0.20036
 N27 N 0.67524 0.72053 0.72615
 N28 N 0.67595 0.70362 0.73281
 C29 C 0.66310 0.70187 0.74607
 C30 C 0.65392 0.71864 0.74792
 C31 C 0.66202 0.73017 0.73508
 H32 H 0.66070 0.68937 0.75388
 H33 H 0.65818 0.74435 0.73208
 Cu34 Cu 0.69362 0.68545 0.72372
 Cu35 Cu 0.69045 0.72822 0.70550
 Cu36 Cu 0.72595 0.69846 0.69285
 N37 N 0.71602 0.67088 0.71936
 N38 N 0.72865 0.67599 0.70740
 C39 C 0.74258 0.66343 0.70727
 C40 C 0.73851 0.64965 0.71988
 C41 C 0.72148 0.65492 0.72728
 H42 H 0.75478 0.66438 0.69866
 H43 H 0.71356 0.64776 0.73765
 N44 N 0.72074 0.72190 0.67995
 N45 N 0.70726 0.73331 0.68486
 C46 C 0.70662 0.74760 0.67303
 C47 C 0.72037 0.74510 0.65997
 C48 C 0.72906 0.72863 0.66488
 H49 H 0.69645 0.75866 0.67357
 H50 H 0.74038 0.72182 0.65783
 H51 H 0.69734 0.70242 0.69520
 H52 H 0.71239 0.71153 0.71408
 N53 N 0.32560 0.78076 0.72009
 N54 N 0.31850 0.79076 0.73329
 C55 C 0.33012 0.79018 0.74774
 C56 C 0.34537 0.77915 0.74337
 C57 C 0.34200 0.77349 0.72563
 H58 H 0.32757 0.79715 0.76050
 H59 H 0.35080 0.76484 0.71725
 Cu60 Cu 0.29492 0.80382 0.73006
 Cu61 Cu 0.31320 0.77826 0.69656
 Cu62 Cu 0.26627 0.79040 0.69656
 N63 N 0.27291 0.81827 0.72345
 N64 N 0.26152 0.81283 0.71050
 C65 C 0.24741 0.82509 0.70885
 C66 C 0.25013 0.83921 0.72139
 C67 C 0.26654 0.83424 0.73044
 H68 H 0.23624 0.82379 0.69901
 H69 H 0.27354 0.84166 0.74120
 N70 N 0.27743 0.77407 0.67814
 N71 N 0.29549 0.77034 0.67758
 C72 C 0.29903 0.75981 0.66291
 C73 C 0.28238 0.75667 0.65383
 C74 C 0.26895 0.76591 0.66391
 H75 H 0.31268 0.75446 0.65935
 H76 H 0.25419 0.76702 0.66087
 H77 H 0.29292 0.79913 0.69719
 H78 H 0.28871 0.77737 0.71032
 N79 N 0.82170 0.27939 0.21896
 N80 N 0.81773 0.29362 0.22930
 C81 C 0.82980 0.29397 0.24343
 C82 C 0.84216 0.27913 0.24181
 C83 C 0.83642 0.27022 0.22602
 H84 H 0.82966 0.30444 0.25388
 H85 H 0.84253 0.25812 0.21980
 Cu86 Cu 0.79778 0.31087 0.22274
 Cu87 Cu 0.80831 0.27433 0.19650
 Cu88 Cu 0.76596 0.29717 0.19162
 N89 N 0.77431 0.32410 0.21909
 N90 N 0.76183 0.31842 0.20726
 C91 C 0.74720 0.33014 0.20723
 C92 C 0.75060 0.34404 0.21974
 C93 C 0.76800 0.33967 0.22705
 H94 H 0.73517 0.32877 0.19843
 H95 H 0.77568 0.34735 0.23718
 N96 N 0.77301 0.27555 0.17691
 N97 N 0.78932 0.26714 0.17850
 C98 C 0.79037 0.25353 0.16609
 C99 C 0.77395 0.25343 0.15604
 C100 C 0.76328 0.26760 0.16333
 H101 H 0.80239 0.24463 0.16427
 H102 H 0.74953 0.27198 0.15893
 H103 H 0.79431 0.29931 0.19142
 H104 H 0.78439 0.28340 0.20901
 N105 N 0.82002 0.72977 0.26778
 N106 N 0.81524 0.71548 0.25787
 C107 C 0.82829 0.71267 0.24499
 C108 C 0.84206 0.72600 0.24683
 C109 C 0.83623 0.73665 0.26149
 H110 H 0.82774 0.70166 0.23511
 H111 H 0.84318 0.74850 0.26725
 Cu112 Cu 0.79237 0.70197 0.26262
 Cu113 Cu 0.80463 0.73840 0.28792
 Cu114 Cu 0.77220 0.70653 0.30373
 N115 N 0.77441 0.68412 0.27158
 N116 N 0.76670 0.68580 0.28773
 C117 C 0.75508 0.67148 0.29056
 C118 C 0.75560 0.66014 0.27539
 C119 C 0.76807 0.66865 0.26361
 H120 H 0.74703 0.66941 0.30286
 H121 H 0.77224 0.66401 0.25023
 N122 N 0.77961 0.72860 0.31765
 N123 N 0.79168 0.74087 0.31148
 C124 C 0.79365 0.75435 0.32392
 C125 C 0.78221 0.75046 0.33868
 C126 C 0.77353 0.73400 0.33415
 H127 H 0.80280 0.76609 0.32229
 H128 H 0.76357 0.72641 0.34230
 H129 H 0.79890 0.71131 0.29372
 H130 H 0.77921 0.72494 0.28369
 N131 N 0.32907 0.22407 -0.22245
 N132 N 0.32382 0.21183 -0.23455
 C133 C 0.33699 0.21046 -0.24755
 C134 C 0.35140 0.22263 -0.24348
 C135 C 0.34575 0.23102 -0.22736
 H136 H 0.33601 0.20125 -0.25905
 H137 H 0.35309 0.24142 -0.21968
 Cu138 Cu 0.30043 0.19860 -0.23212
 Cu139 Cu 0.31370 0.23038 -0.20144
 Cu140 Cu 0.27189 0.20663 -0.19684
 N141 N 0.28124 0.18103 -0.22512
 N142 N 0.27004 0.18424 -0.21132
 C143 C 0.25785 0.17022 -0.20973
 C144 C 0.26165 0.15738 -0.22324
 C145 C 0.27665 0.16478 -0.23273
 H146 H 0.24711 0.16947 -0.19941
 H147 H 0.28362 0.15896 -0.24445
 N148 N 0.27999 0.22592 -0.17975
 N149 N 0.29599 0.23478 -0.18130
 C150 C 0.29750 0.24687 -0.16747
 C151 C 0.28172 0.24552 -0.15662
 C152 C 0.27095 0.23204 -0.16487
 H153 H 0.30929 0.25591 -0.16541
 H154 H 0.25746 0.22707 -0.16045
 H155 H 0.30032 0.20500 -0.19964
 H156 H 0.28861 0.22384 -0.21289
 N157 N 0.67868 0.27234 -0.21885
 N158 N 0.68275 0.28709 -0.22855
 C159 C 0.67032 0.28873 -0.24232
 C160 C 0.65768 0.27417 -0.24117
 C161 C 0.66359 0.26410 -0.22603
 H162 H 0.67046 0.29976 -0.25231
 H163 H 0.65744 0.25170 -0.22044
 Cu164 Cu 0.70385 0.30270 -0.22191
 Cu165 Cu 0.69290 0.26481 -0.19746
 Cu166 Cu 0.73097 0.29163 -0.18577
 N167 N 0.72568 0.31733 -0.21543
 N168 N 0.73615 0.31290 -0.20131
 C169 C 0.75008 0.32522 -0.19977
 C170 C 0.74835 0.33818 -0.21368
 C171 C 0.73265 0.33267 -0.22336
 H172 H 0.76058 0.32480 -0.18917
 H173 H 0.72671 0.33931 -0.23527
 N174 N 0.72343 0.26955 -0.17176
 N175 N 0.70892 0.25936 -0.17627
 C176 C 0.70723 0.24545 -0.16412
 C177 C 0.72136 0.24689 -0.15128
 C178 C 0.73136 0.26238 -0.15660
 H179 H 0.69632 0.23518 -0.16448
 H180 H 0.74353 0.26803 -0.14995
 H181 H 0.70261 0.29083 -0.19072
 H182 H 0.71786 0.27652 -0.20579
 N183 N 0.18307 0.77999 0.28060
 N184 N 0.18670 0.79397 0.26969
 C185 C 0.17361 0.79473 0.25649
 C186 C 0.16105 0.78043 0.25926
 C187 C 0.16758 0.77137 0.27473
 H188 H 0.17305 0.80517 0.24590
 H189 H 0.16150 0.75944 0.28134
 Cu190 Cu 0.20776 0.81032 0.27401
 Cu191 Cu 0.19832 0.77436 0.30189
 Cu192 Cu 0.23512 0.80386 0.31105
 N193 N 0.22795 0.82716 0.28000
 N194 N 0.23862 0.82460 0.29439
 C195 C 0.25110 0.83843 0.29538
 C196 C 0.24811 0.85049 0.28081
 C197 C 0.23324 0.84275 0.27137
 H198 H 0.26138 0.83963 0.30611
 H199 H 0.22654 0.84808 0.25921
 N200 N 0.22932 0.78210 0.32631
 N201 N 0.21530 0.77089 0.32279
 C202 C 0.21469 0.75765 0.33574
 C203 C 0.22903 0.76061 0.34810
 C204 C 0.23802 0.77627 0.34162
 H205 H 0.20433 0.74685 0.33631
 H206 H 0.24997 0.78299 0.34764
 H207 H 0.20677 0.80140 0.30611
 H208 H 0.22275 0.78631 0.29254
 N209 N 0.47077 0.42434 0.47577
 N210 N 0.45469 0.42698 0.48400
 C211 C 0.45202 0.41331 0.49626
 C212 C 0.46734 0.40158 0.49580
 C213 C 0.47900 0.40905 0.48268
 H214 H 0.43989 0.41195 0.50492
 H215 H 0.49223 0.40345 0.47813
 Cu216 Cu 0.43868 0.44788 0.47780
 Cu217 Cu 0.47922 0.44026 0.45597
 Cu218 Cu 0.45220 0.47911 0.44645
 N219 N 0.42263 0.46843 0.47063
 N220 N 0.42790 0.48066 0.45838
 C221 C 0.41446 0.49364 0.45655
 C222 C 0.39990 0.48933 0.46832
 C223 C 0.40566 0.47318 0.47697
 H224 H 0.41539 0.50544 0.44749
 H225 H 0.39825 0.46559 0.48739
 N226 N 0.47508 0.47282 0.43277
 N227 N 0.48535 0.45807 0.43648
 C228 C 0.49957 0.45720 0.42454
 C229 C 0.49823 0.47206 0.41262
 C230 C 0.48248 0.48167 0.41827
 H231 H 0.50983 0.44620 0.42420
 H232 H 0.47667 0.49407 0.41216
 H233 H 0.46645 0.46341 0.46594
 H234 H 0.45322 0.45064 0.44803
 N235 N -0.02173 -0.07436 0.97106
 N236 N -0.03841 -0.07223 0.97824
 C237 C -0.04190 -0.08648 0.98958
 C238 C -0.02645 -0.09803 0.98975
 C239 C -0.01383 -0.08986 0.97791
 H240 H -0.05454 -0.08809 0.99748
 H241 H -0.00009 -0.09493 0.97430
 Cu242 Cu -0.05338 -0.05036 0.97314
 Cu243 Cu -0.01192 -0.05686 0.95314
 Cu244 Cu -0.04637 -0.02937 0.93307
 N245 N -0.06881 -0.02962 0.96540
 N246 N -0.06599 -0.02133 0.94967
 C247 C -0.07886 -0.00788 0.94738
 C248 C -0.09038 -0.00767 0.96258
 C249 C -0.08352 -0.02171 0.97372
 H250 H -0.07988 0.00084 0.93540
 H251 H -0.08881 -0.02591 0.98689
 N252 N -0.02177 -0.03382 0.92188
 N253 N -0.00849 -0.04380 0.92970
 C254 C 0.00654 -0.04414 0.91868
 C255 C 0.00257 -0.03378 0.90316
 C256 C -0.01553 -0.02743 0.90575
 H257 H 0.01933 -0.05158 0.92170
 H258 H -0.02371 -0.01898 0.89650
 H259 H -0.02992 -0.03385 0.95516
 H260 H -0.03841 -0.05522 0.94375
 N261 N 1.01800 0.57154 0.97732
 N262 N 1.03111 0.56646 0.98888
 C263 C 1.03263 0.57934 1.00198
 C264 C 1.01970 0.59330 0.99847
 C265 C 1.01068 0.58777 0.98266
 H266 H 1.04256 0.57862 1.01308
 H267 H 0.99957 0.59494 0.97551
 Cu268 Cu 1.04526 0.54379 0.98541
 Cu269 Cu 1.01115 0.55663 0.95636
 Cu270 Cu 1.03661 0.51633 0.94963
 N271 N 1.06336 0.52552 0.97728
 N272 N 1.05995 0.51478 0.96329
 C273 C 1.07452 0.50323 0.96088
 C274 C 1.08793 0.50698 0.97405
 C275 C 1.08029 0.52126 0.98420
 H276 H 1.07523 0.49295 0.95026
 H277 H 1.08641 0.52799 0.99588
 N278 N 1.01580 0.52410 0.93363
 N279 N 1.00628 0.53955 0.93610
 C280 C 0.99323 0.54112 0.92295
 C281 C 0.99456 0.52597 0.91156
 C282 C 1.00910 0.51548 0.91877
 H283 H 0.98358 0.55259 0.92165
 H284 H 1.01442 0.50251 0.91362
 H285 H 1.01941 0.53165 0.96689
 H286 H 1.03724 0.54432 0.95322
 N287 N 0.53038 0.06583 0.47804
 N288 N 0.54370 0.05983 0.48895
 C289 C 0.54522 0.07145 0.50316
 C290 C 0.53213 0.08552 0.50109
 C291 C 0.52297 0.08141 0.48494
 H292 H 0.55525 0.06983 0.51408
 H293 H 0.51188 0.08925 0.47848
 Cu294 Cu 0.55813 0.03767 0.48337
 Cu295 Cu 0.52383 0.05328 0.45552
 Cu296 Cu 0.54986 0.01449 0.44452
 N297 N 0.57308 0.01626 0.47642
 N298 N 0.56965 0.00725 0.46129
 C299 C 0.58206 -0.00663 0.45957
 C300 C 0.59406 -0.00637 0.47441
 C301 C 0.58791 0.00841 0.48483
 H302 H 0.58257 -0.01593 0.44810
 H303 H 0.59383 0.01316 0.49752
 N304 N 0.52929 0.02389 0.42921
 N305 N 0.51935 0.03868 0.43334
 C306 C 0.50659 0.04166 0.42010
 C307 C 0.50861 0.02810 0.40696
 C308 C 0.52314 0.01708 0.41327
 H309 H 0.49673 0.05302 0.41992
 H310 H 0.52882 0.00494 0.40676
 H311 H 0.53286 0.02738 0.46349
 H312 H 0.55015 0.04231 0.45133
 N313 N -0.02350 0.07175 0.52260
 N314 N -0.03738 0.06696 0.51190
 C315 C -0.03858 0.07903 0.49792
 C316 C -0.02470 0.09218 0.49986
 C317 C -0.01539 0.08709 0.51576
 H318 H -0.04902 0.07842 0.48729
 H319 H -0.00366 0.09401 0.52199
 Cu320 Cu -0.05289 0.04569 0.51746
 Cu321 Cu -0.01725 0.05780 0.54473
 Cu322 Cu -0.04490 0.01958 0.55450
 N323 N -0.06838 0.02437 0.52301
 N324 N -0.06513 0.01417 0.53756
 C325 C -0.07795 0.00063 0.53850
 C326 C -0.08997 0.00243 0.52373
 C327 C -0.08340 0.01768 0.51420
 H328 H -0.07868 -0.00949 0.54937
 H329 H -0.08917 0.02353 0.50181
 N330 N -0.02381 0.02727 0.56998
 N331 N -0.01330 0.04180 0.56639
 C332 C -0.00035 0.04342 0.57967
 C333 C -0.00285 0.02925 0.59226
 C334 C -0.01785 0.01931 0.58557
 H335 H 0.01000 0.05424 0.58023
 H336 H -0.02399 0.00711 0.59158
 H337 H -0.02762 0.03281 0.53595
 H338 H -0.04376 0.04776 0.54939
 N339 N 0.47697 0.57362 0.02704
 N340 N 0.46215 0.56919 0.01742
 C341 C 0.45997 0.58154 0.00377
 C342 C 0.47418 0.59447 0.00484
 C343 C 0.48471 0.58894 0.01983
 H344 H 0.44869 0.58130 -0.00603
 H345 H 0.49706 0.59555 0.02518
 Cu346 Cu 0.44693 0.54794 0.02397
 Cu347 Cu 0.48485 0.55941 0.04841
 Cu348 Cu 0.45798 0.52125 0.06006
 N349 N 0.43206 0.52644 0.03046
 N350 N 0.43646 0.51604 0.04459
 C351 C 0.42385 0.50236 0.04619
 C352 C 0.41076 0.50425 0.03231
 C353 C 0.41651 0.51972 0.02259
 H354 H 0.42410 0.49198 0.05685
 H355 H 0.40986 0.52570 0.01070
 N356 N 0.48028 0.52882 0.07397
 N357 N 0.49050 0.54330 0.06954
 C358 C 0.50442 0.54503 0.08180
 C359 C 0.50293 0.53096 0.09463
 C360 C 0.48744 0.52096 0.08916
 H361 H 0.51468 0.55594 0.08158
 H362 H 0.48170 0.50888 0.09579
 H363 H 0.47350 0.53454 0.04023
 H364 H 0.45871 0.54942 0.05515
 N365 N 0.51998 -0.06884 0.03014
 N366 N 0.53462 -0.06490 0.02007
 C367 C 0.53646 -0.07791 0.00709
 C368 C 0.52221 -0.09071 0.00917
 C369 C 0.51204 -0.08441 0.02396
 H370 H 0.54753 -0.07820 -0.00291
 H371 H 0.49975 -0.09066 0.02986
 Cu372 Cu 0.54997 -0.04335 0.02531
 Cu373 Cu 0.51239 -0.05385 0.05081
 Cu374 Cu 0.53934 -0.01543 0.06037
 N375 N 0.56502 -0.02169 0.03093
 N376 N 0.56069 -0.01086 0.04462
 C377 C 0.57336 0.00275 0.04580
 C378 C 0.58647 0.00043 0.03211
 C379 C 0.58067 -0.01528 0.02292
 H380 H 0.57318 0.01334 0.05613
 H381 H 0.58739 -0.02166 0.01136
 N382 N 0.51721 -0.02235 0.07475
 N383 N 0.50696 -0.03699 0.07113
 C384 C 0.49318 -0.03824 0.08356
 C385 C 0.49480 -0.02367 0.09565
 C386 C 0.51022 -0.01389 0.08957
 H387 H 0.48293 -0.04915 0.08394
 H388 H 0.51603 -0.00156 0.09555
 H389 H 0.52362 -0.02940 0.04125
 H390 H 0.53869 -0.04376 0.05666
 N391 N 1.01771 0.43141 0.52137
 N392 N 1.03204 0.43562 0.51101
 C393 C 1.03472 0.42199 0.49882
 C394 C 1.02128 0.40850 0.50172
 C395 C 1.01073 0.41505 0.51615
 H396 H 1.04575 0.42188 0.48877
 H397 H 0.99873 0.40854 0.52237
 Cu398 Cu 1.04582 0.45844 0.51461
 Cu399 Cu 1.00883 0.44758 0.54056
 Cu400 Cu 1.03859 0.48318 0.55262
 N401 N 1.06389 0.47648 0.52309
 N402 N 1.06119 0.48592 0.53811
 C403 C 1.07571 0.49740 0.54067
 C404 C 1.08829 0.49501 0.52648
 C405 C 1.08025 0.48156 0.51560
 H406 H 1.07692 0.50680 0.55201
 H407 H 1.08572 0.47595 0.50306
 N408 N 1.01685 0.47589 0.56750
 N409 N 1.00544 0.46248 0.56267
 C410 C 0.99216 0.46053 0.57547
 C411 C 0.99524 0.47334 0.58910
 C412 C 1.01107 0.48284 0.58357
 H413 H 0.98131 0.45019 0.57505
 H414 H 1.01793 0.49395 0.59070
 H415 H 1.02098 0.47243 0.53336
 H416 H 1.03586 0.45555 0.54610
 C417 C 0.35386 -0.00538 0.25772
 C418 C 0.36242 0.01154 0.25375
 C419 C 0.35146 0.02720 0.25003
 C420 C 0.33187 0.02610 0.25033
 C421 C 0.32341 0.00900 0.25419
 C422 C 0.33430 -0.00682 0.25788
 C423 C 0.38289 0.01286 0.25353
 C424 C 0.39261 0.01113 0.23708
 C425 C 0.41221 0.01207 0.23678
 C426 C 0.42193 0.01491 0.25320
 C427 C 0.41229 0.01668 0.26980
 C428 C 0.39270 0.01560 0.26982
 H429 H 0.36249 -0.01746 0.26037
 H430 H 0.35825 0.04029 0.24728
 H431 H 0.38485 0.00913 0.22454
 H432 H 0.38503 0.01662 0.28251
 H433 H 0.30831 0.00800 0.25436
 H434 H 0.43705 0.01562 0.25309
 C435 C 0.14937 -0.01525 0.74760
 C436 C 0.13957 0.00144 0.74931
 C437 C 0.14927 0.01786 0.75255
 C438 C 0.16884 0.01776 0.75416
 C439 C 0.17857 0.00093 0.75235
 C440 C 0.16896 -0.01567 0.74908
 C441 C 0.11907 0.00169 0.74816
 C442 C 0.10841 -0.00129 0.76388
 C443 C 0.08880 -0.00072 0.76309
 C444 C 0.08002 0.00280 0.74624
 C445 C 0.09058 0.00580 0.73034
 C446 C 0.11019 0.00524 0.73146
 H447 H 0.14167 -0.02793 0.74541
 H448 H 0.14152 0.03071 0.75372
 H449 H 0.11546 -0.00369 0.77678
 H450 H 0.11859 0.00736 0.71935
 H451 H 0.19366 0.00074 0.75357
 H452 H 0.06491 0.00329 0.74553
 C453 C 0.64481 0.48564 0.25403
 C454 C 0.63458 0.50200 0.25651
 C455 C 0.64393 0.51863 0.25975
 C456 C 0.66355 0.51910 0.26039
 C457 C 0.67367 0.50259 0.25797
 C458 C 0.66444 0.48576 0.25488
 C459 C 0.61404 0.50174 0.25584
 C460 C 0.60376 0.50102 0.27206
 C461 C 0.58412 0.50092 0.27163
 C462 C 0.57493 0.50170 0.25467
 C463 C 0.58511 0.50254 0.23830
 C464 C 0.60473 0.50250 0.23902
 H465 H 0.63742 0.47279 0.25181
 H466 H 0.63590 0.53124 0.26143
 H467 H 0.61110 0.50069 0.28500
 H468 H 0.61281 0.50297 0.22655
 H469 H 0.68880 0.50286 0.25850
 H470 H 0.55980 0.50168 0.25421
 C471 C 0.85466 0.47920 0.75278
 C472 C 0.86482 0.49547 0.74984
 C473 C 0.85541 0.51206 0.74595
 C474 C 0.83580 0.51257 0.74514
 C475 C 0.82576 0.49614 0.74797
 C476 C 0.83505 0.47936 0.75168
 C477 C 0.88536 0.49509 0.75048
 C478 C 0.89558 0.49466 0.73423
 C479 C 0.91522 0.49434 0.73459
 C480 C 0.92448 0.49470 0.75151
 C481 C 0.91435 0.49532 0.76792
 C482 C 0.89472 0.49537 0.76726
 H483 H 0.86209 0.46637 0.75544
 H484 H 0.86340 0.52460 0.74387
 H485 H 0.88818 0.49472 0.72132
 H486 H 0.88668 0.49565 0.77977
 H487 H 0.81064 0.49641 0.74723
 H488 H 0.93961 0.49458 0.75192
 C489 C 0.25575 0.36074 -0.02214
 C490 C 0.25221 0.37052 -0.00606
 C491 C 0.24880 0.36091 0.01021
 C492 C 0.24862 0.34151 0.01047
 C493 C 0.25202 0.33180 -0.00574
 C494 C 0.25575 0.34130 -0.02211
 C495 C 0.25159 0.39084 -0.00638
 C496 C 0.23458 0.39999 -0.00940
 C497 C 0.23373 0.41941 -0.00976
 C498 C 0.25023 0.42952 -0.00697
 C499 C 0.26741 0.42046 -0.00389
 C500 C 0.26793 0.40103 -0.00364
 H501 H 0.25820 0.36833 -0.03469
 H502 H 0.24597 0.36855 0.02258
 H503 H 0.22198 0.39193 -0.01126
 H504 H 0.28105 0.39378 -0.00152
 H505 H 0.25229 0.31682 -0.00544
 H506 H 0.24971 0.44449 -0.00720
 C507 C 0.75083 0.13934 -0.01236
 C508 C 0.75235 0.12873 0.00361
 C509 C 0.75445 0.13744 0.02050
 C510 C 0.75495 0.15683 0.02155
 C511 C 0.75340 0.16734 0.00543
 C512 C 0.75136 0.15874 -0.01160
 C513 C 0.75175 0.10845 0.00259
 C514 C 0.76826 0.09836 -0.00003
 C515 C 0.76782 0.07898 -0.00110
 C516 C 0.75057 0.06986 0.00037
 C517 C 0.73388 0.07985 0.00286
 C518 C 0.73463 0.09922 0.00402
 H519 H 0.74947 0.13243 -0.02537
 H520 H 0.75546 0.12911 0.03279
 H521 H 0.78145 0.10561 -0.00101
 H522 H 0.72190 0.10720 0.00574
 H523 H 0.75378 0.18230 0.00614
 H524 H 0.75016 0.05491 -0.00044
 C525 C 0.24599 0.64566 0.48549
 C526 C 0.24700 0.63602 0.50208
 C527 C 0.24848 0.64575 0.51846
 C528 C 0.24939 0.66515 0.51832
 C529 C 0.24825 0.67471 0.50161
 C530 C 0.24631 0.66509 0.48511
 C531 C 0.24682 0.61568 0.50214
 C532 C 0.26285 0.60585 0.49698
 C533 C 0.26276 0.58644 0.49651
 C534 C 0.24622 0.57702 0.50102
 C535 C 0.22999 0.58673 0.50608
 C536 C 0.23049 0.60614 0.50678
 H537 H 0.24497 0.63797 0.47290
 H538 H 0.24946 0.63820 0.53124
 H539 H 0.27545 0.61340 0.49364
 H540 H 0.21805 0.61390 0.51036
 H541 H 0.24834 0.68970 0.50156
 H542 H 0.24595 0.56206 0.50051
 C543 C 0.75560 0.84743 0.48463
 C544 C 0.75404 0.85665 0.50131
 C545 C 0.75204 0.84652 0.51750
 C546 C 0.75154 0.82711 0.51720
 C547 C 0.75305 0.81799 0.50038
 C548 C 0.75509 0.82802 0.48402
 C549 C 0.75451 0.87696 0.50190
 C550 C 0.73785 0.88714 0.50074
 C551 C 0.73810 0.90654 0.50174
 C552 C 0.75533 0.91558 0.50382
 C553 C 0.77214 0.90550 0.50499
 C554 C 0.77158 0.88611 0.50404
 H555 H 0.75696 0.85542 0.47216
 H556 H 0.75113 0.85382 0.53034
 H557 H 0.72470 0.87989 0.49939
 H558 H 0.78440 0.87810 0.50481
 H559 H 0.75265 0.80302 0.50002
 H560 H 0.75565 0.93053 0.50458
 C561 C -0.01873 0.25369 0.35534
 C562 C -0.00152 0.24971 0.36369
 C563 C 0.01406 0.24534 0.35300
 C564 C 0.01265 0.24502 0.33391
 C565 C -0.00471 0.24885 0.32568
 C566 C -0.02051 0.25312 0.33626
 C567 C 0.00032 0.25027 0.38366
 C568 C 0.00018 0.23382 0.39384
 C569 C 0.00222 0.23420 0.41291
 C570 C 0.00462 0.25132 0.42159
 C571 C 0.00492 0.26791 0.41149
 C572 C 0.00264 0.26724 0.39247
 H573 H -0.03075 0.25688 0.36374
 H574 H 0.02737 0.24262 0.35960
 H575 H -0.00137 0.22076 0.38685
 H576 H 0.00263 0.27989 0.38447
 H577 H -0.00592 0.24853 0.31096
 H578 H 0.00625 0.25174 0.43626
 C579 C -0.01160 0.75214 0.14630
 C580 C 0.00506 0.75411 0.13649
 C581 C 0.02185 0.75742 0.14572
 C582 C 0.02215 0.75869 0.16483
 C583 C 0.00533 0.75679 0.17453
 C584 C -0.01163 0.75356 0.16540
 C585 C 0.00492 0.75272 0.11650
 C586 C 0.00365 0.76876 0.10576
 C587 C 0.00300 0.76750 0.08669
 C588 C 0.00396 0.75004 0.07846
 C589 C 0.00562 0.73387 0.08909
 C590 C 0.00593 0.73536 0.10819
 H591 H -0.02455 0.74982 0.13899
 H592 H 0.03469 0.75867 0.13801
 H593 H 0.00280 0.78216 0.11227
 H594 H 0.00684 0.72304 0.11663
 H595 H 0.00544 0.75783 0.18926
 H596 H 0.00399 0.74915 0.06371
 C597 C 0.48933 0.24185 0.64283
 C598 C 0.50548 0.24614 0.63293
 C599 C 0.52195 0.25085 0.64213
 C600 C 0.52246 0.25097 0.66128
 C601 C 0.50612 0.24680 0.67106
 C602 C 0.48943 0.24234 0.66197
 C603 C 0.50500 0.24585 0.61288
 C604 C 0.50377 0.26247 0.60305
 C605 C 0.50205 0.26226 0.58400
 C606 C 0.50208 0.24528 0.57482
 C607 C 0.50382 0.22852 0.58450
 C608 C 0.50506 0.22894 0.60363
 H609 H 0.47657 0.23861 0.63554
 H610 H 0.53444 0.25395 0.63436
 H611 H 0.50353 0.27550 0.61027
 H612 H 0.50594 0.21615 0.61136
 H613 H 0.50640 0.24701 0.68583
 H614 H 0.50123 0.24520 0.56006
 C615 C 0.48301 0.75499 0.85986
 C616 C 0.50000 0.75151 0.86882
 C617 C 0.51585 0.74658 0.85875
 C618 C 0.51477 0.74486 0.83975
 C619 C 0.49766 0.74815 0.83089
 C620 C 0.48168 0.75330 0.84081
 C621 C 0.50109 0.75247 0.88882
 C622 C 0.50015 0.73620 0.89923
 C623 C 0.50123 0.73685 0.91834
 C624 C 0.50344 0.75407 0.92687
 C625 C 0.50450 0.77050 0.91656
 C626 C 0.50323 0.76955 0.89746
 H627 H 0.47078 0.75861 0.86779
 H628 H 0.52895 0.74384 0.86575
 H629 H 0.49872 0.72304 0.89237
 H630 H 0.50380 0.78207 0.88928
 H631 H 0.49697 0.74717 0.81616
 H632 H 0.50435 0.75469 0.94160
 C633 C 0.11531 0.23924 0.23750
 C634 C 0.09965 0.24295 0.24827
 C635 C 0.09661 0.23304 0.26442
 C636 C 0.10943 0.21924 0.26970
 C637 C 0.12511 0.21553 0.25897
 C638 C 0.12828 0.22551 0.24274
 N639 N 0.08050 0.23729 0.27519
 N640 N 0.07688 0.22878 0.29000
 C641 C 0.06078 0.23309 0.30078
 C642 C 0.05752 0.22299 0.31678
 C643 C 0.04192 0.22685 0.32759
 C644 C 0.02928 0.24093 0.32252
 C645 C 0.03265 0.25109 0.30646
 C646 C 0.04824 0.24722 0.29567
 H647 H 0.11730 0.24731 0.22519
 H648 H 0.08988 0.25363 0.24406
 H649 H 0.10736 0.21135 0.28212
 H650 H 0.13464 0.20475 0.26339
 H651 H 0.06707 0.21205 0.32084
 H652 H 0.03959 0.21865 0.33977
 H653 H 0.02334 0.26221 0.30234
 H654 H 0.05051 0.25529 0.28340
 C655 C 0.63532 0.74131 0.76618
 C656 C 0.62033 0.74554 0.77765
 C657 C 0.60787 0.73173 0.78312
 C658 C 0.61081 0.71345 0.77735
 C659 C 0.62600 0.70914 0.76617
 C660 C 0.63829 0.72307 0.76032
 N661 N 0.59228 0.73661 0.79436
 N662 N 0.57843 0.72584 0.79649
 C663 C 0.56285 0.73059 0.80778
 C664 C 0.54629 0.72051 0.80611
 C665 C 0.53063 0.72515 0.81650
 C666 C 0.53147 0.73972 0.82905
 C667 C 0.54822 0.74957 0.83104
 C668 C 0.56377 0.74516 0.82037
 H669 H 0.64467 0.75229 0.76202
 H670 H 0.61824 0.75966 0.78206
 H671 H 0.60141 0.70252 0.78149
 H672 H 0.62789 0.69498 0.76178
 H673 H 0.54544 0.70923 0.79649
 H674 H 0.51787 0.71731 0.81484
 H675 H 0.54912 0.76091 0.84059
 H676 H 0.57647 0.75306 0.82196
 C677 C 0.37377 0.75982 0.75022
 C678 C 0.38924 0.75541 0.76107
 C679 C 0.39303 0.76546 0.77687
 C680 C 0.38102 0.78000 0.78184
 C681 C 0.36547 0.78440 0.77102
 C682 C 0.36171 0.77441 0.75502
 N683 N 0.40927 0.76076 0.78738
 N684 N 0.41408 0.76962 0.80157
 C685 C 0.43057 0.76485 0.81171
 C686 C 0.43583 0.77582 0.82651
 C687 C 0.45228 0.77194 0.83617
 C688 C 0.46375 0.75696 0.83117
 C689 C 0.45819 0.74575 0.81653
 C690 C 0.44179 0.74965 0.80687
 H691 H 0.37125 0.75168 0.73814
 H692 H 0.39839 0.74416 0.75712
 H693 H 0.38368 0.78799 0.79401
 H694 H 0.35658 0.79578 0.77511
 H695 H 0.42732 0.78758 0.83035
 H696 H 0.45627 0.78094 0.84726
 H697 H 0.46654 0.73392 0.81255
 H698 H 0.43796 0.74087 0.79557
 C699 C -0.13118 0.25897 0.24925
 C700 C -0.11569 0.25463 0.26008
 C701 C -0.11110 0.26550 0.27509
 C702 C -0.12237 0.28080 0.27937
 C703 C -0.13794 0.28522 0.26854
 C704 C -0.14253 0.27446 0.25317
 N705 N -0.09470 0.26084 0.28538
 N706 N -0.08932 0.26994 0.29922
 C707 C -0.07253 0.26506 0.30887
 C708 C -0.06698 0.27561 0.32387
 C709 C -0.05025 0.27158 0.33303
 C710 C -0.03875 0.25693 0.32724
 C711 C -0.04456 0.24615 0.31239
 C712 C -0.06126 0.25016 0.30329
 H713 H -0.13398 0.25012 0.23776
 H714 H -0.10709 0.24279 0.25665
 H715 H -0.11908 0.28942 0.29095
 H716 H -0.14615 0.29719 0.27226
 H717 H -0.07552 0.28713 0.32831
 H718 H -0.04607 0.28021 0.34433
 H719 H -0.03618 0.23458 0.30780
 H720 H -0.06525 0.24172 0.29179
 C721 C -0.13733 0.71680 0.22059
 C722 C -0.12112 0.71890 0.21018
 C723 C -0.10803 0.73246 0.21457
 C724 C -0.11133 0.74402 0.22957
 C725 C -0.12753 0.74195 0.24000
 C726 C -0.14076 0.72829 0.23568
 N727 N -0.09150 0.73414 0.20369
 N728 N -0.07910 0.74626 0.20693
 C729 C -0.06250 0.74794 0.19617
 C730 C -0.04953 0.76161 0.20063
 C731 C -0.03307 0.76352 0.19058
 C732 C -0.02929 0.75173 0.17584
 C733 C -0.04242 0.73807 0.17131
 C734 C -0.05888 0.73617 0.18139
 H735 H -0.14712 0.70617 0.21672
 H736 H -0.11874 0.70991 0.19865
 H737 H -0.10140 0.75462 0.23326
 H738 H -0.12955 0.75105 0.25148
 H739 H -0.05219 0.77080 0.21195
 H740 H -0.02337 0.77434 0.19425
 H741 H -0.03980 0.72865 0.16016
 H742 H -0.06869 0.72545 0.17770
 C743 C 0.38109 0.23907 0.75231
 C744 C 0.39741 0.24228 0.74235
 C745 C 0.40111 0.23233 0.72648
 C746 C 0.38824 0.21903 0.72059
 C747 C 0.37186 0.21582 0.73047
 C748 C 0.36797 0.22580 0.74653
 N749 N 0.41794 0.23608 0.71661
 N750 N 0.42246 0.22726 0.70230
 C751 C 0.43927 0.23121 0.69246
 C752 C 0.44373 0.22061 0.67715
 C753 C 0.46002 0.22417 0.66723
 C754 C 0.47214 0.23846 0.67248
 C755 C 0.46758 0.24911 0.68785
 C756 C 0.45132 0.24552 0.69777
 H757 H 0.37891 0.24717 0.76446
 H758 H 0.40723 0.25258 0.74703
 H759 H 0.39080 0.21116 0.70833
 H760 H 0.36239 0.20545 0.72538
 H761 H 0.43458 0.20953 0.67294
 H762 H 0.46325 0.21559 0.65559
 H763 H 0.47645 0.26040 0.69208
 H764 H 0.44814 0.25398 0.70950
 C765 C 0.63067 0.25501 0.75090
 C766 C 0.61521 0.25138 0.73990
 C767 C 0.61080 0.26291 0.72519
 C768 C 0.62214 0.27826 0.72145
 C769 C 0.63768 0.28200 0.73247
 C770 C 0.64219 0.27044 0.74746
 N771 N 0.59459 0.25871 0.71455
 N772 N 0.58949 0.26814 0.70070
 C773 C 0.57295 0.26345 0.69069
 C774 C 0.56789 0.27396 0.67534
 C775 C 0.55159 0.26984 0.66560
 C776 C 0.54004 0.25516 0.67116
 C777 C 0.54528 0.24454 0.68646
 C778 C 0.56155 0.24862 0.69612
 H779 H 0.63334 0.24561 0.76210
 H780 H 0.60655 0.23950 0.74290
 H781 H 0.61895 0.28740 0.71011
 H782 H 0.64601 0.29399 0.72916
 H783 H 0.57652 0.28543 0.67102
 H784 H 0.54782 0.27834 0.65394
 H785 H 0.53682 0.23297 0.69089
 H786 H 0.56515 0.24022 0.70789
 C787 C 0.13094 0.76323 0.25483
 C788 C 0.11479 0.75947 0.24479
 C789 C 0.11141 0.76851 0.22820
 C790 C 0.12447 0.78137 0.22164
 C791 C 0.14064 0.78515 0.23166
 C792 C 0.14405 0.77618 0.24843
 N793 N 0.09456 0.76454 0.21844
 N794 N 0.09045 0.77245 0.20341
 C795 C 0.07348 0.76854 0.19381
 C796 C 0.06964 0.77800 0.17753
 C797 C 0.05303 0.77475 0.16801
 C798 C 0.03996 0.76192 0.17469
 C799 C 0.04395 0.75231 0.19097
 C800 C 0.06055 0.75559 0.20046
 H801 H 0.13295 0.75610 0.26769
 H802 H 0.10481 0.74955 0.25000
 H803 H 0.12217 0.78852 0.20882
 H804 H 0.15042 0.79508 0.22617
 H805 H 0.07948 0.78804 0.17229
 H806 H 0.05026 0.78250 0.15562
 H807 H 0.03429 0.74214 0.19630
 H808 H 0.06323 0.74803 0.21299
 C809 C 0.27124 0.14643 0.20540
 C810 C 0.28253 0.13088 0.20850
 C811 C 0.27831 0.11842 0.22254
 C812 C 0.26265 0.12173 0.23359
 C813 C 0.25136 0.13725 0.23053
 C814 C 0.25545 0.14979 0.21634
 N815 N 0.29002 0.10252 0.22525
 N816 N 0.28665 0.09058 0.23762
 C817 C 0.29819 0.07460 0.24048
 C818 C 0.29342 0.06211 0.25432
 C819 C 0.30432 0.04635 0.25751
 C820 C 0.32025 0.04281 0.24685
 C821 C 0.32502 0.05540 0.23295
 C822 C 0.31408 0.07116 0.22976
 H823 H 0.27488 0.15566 0.19433
 H824 H 0.29457 0.12849 0.19989
 H825 H 0.25910 0.11232 0.24457
 H826 H 0.23946 0.13933 0.23935
 H827 H 0.28123 0.06465 0.26269
 H828 H 0.30044 0.03706 0.26848
 H829 H 0.33709 0.05293 0.22439
 H830 H 0.31802 0.08061 0.21894
 C831 C 0.74441 0.62102 0.73870
 C832 C 0.75492 0.60522 0.74285
 C833 C 0.77101 0.60099 0.73291
 C834 C 0.77658 0.61282 0.71870
 C835 C 0.76608 0.62864 0.71450
 C836 C 0.74981 0.63294 0.72442
 N837 N 0.78124 0.58452 0.73741
 N838 N 0.79611 0.57983 0.72910
 C839 C 0.80607 0.56318 0.73360
 C840 C 0.82236 0.55880 0.72398
 C841 C 0.83216 0.54245 0.72781
 C842 C 0.82574 0.53017 0.74134
 C843 C 0.80947 0.53471 0.75109
 C844 C 0.79972 0.55106 0.74727
 H845 H 0.73209 0.62382 0.74675
 H846 H 0.75049 0.59620 0.75385
 H847 H 0.78897 0.60981 0.71078
 H848 H 0.77071 0.63736 0.70338
 H849 H 0.82737 0.56801 0.71339
 H850 H 0.84454 0.53923 0.71995
 H851 H 0.80434 0.52566 0.76177
 H852 H 0.78719 0.55416 0.75495
 C853 C 0.77667 0.35743 0.79332
 C854 C 0.78790 0.37290 0.79023
 C855 C 0.78325 0.38571 0.77660
 C856 C 0.76719 0.38284 0.76595
 C857 C 0.75591 0.36738 0.76904
 C858 C 0.76047 0.35448 0.78281
 N859 N 0.79490 0.40158 0.77403
 N860 N 0.79152 0.41365 0.76175
 C861 C 0.80293 0.42969 0.75926
 C862 C 0.79828 0.44227 0.74542
 C863 C 0.80880 0.45830 0.74285
 C864 C 0.82420 0.46206 0.75417
 C865 C 0.82899 0.44928 0.76795
 C866 C 0.81844 0.43323 0.77050
 H867 H 0.78078 0.34785 0.80398
 H868 H 0.80025 0.37495 0.79852
 H869 H 0.76327 0.39257 0.75533
 H870 H 0.74358 0.36571 0.76067
 H871 H 0.78641 0.43966 0.73663
 H872 H 0.80494 0.46771 0.73192
 H873 H 0.84067 0.45188 0.77698
 H874 H 0.82230 0.42371 0.78133
 C875 C 0.25254 -0.12198 0.26153
 C876 C 0.26183 -0.10547 0.25766
 C877 C 0.27650 -0.09952 0.26872
 C878 C 0.28192 -0.11035 0.28379
 C879 C 0.27264 -0.12687 0.28775
 C880 C 0.25771 -0.13297 0.27672
 N881 N 0.28545 -0.08237 0.26445
 N882 N 0.29915 -0.07622 0.27367
 C883 C 0.30784 -0.05892 0.26938
 C884 C 0.32320 -0.05320 0.27970
 C885 C 0.33188 -0.03631 0.27595
 C886 C 0.32523 -0.02482 0.26180
 C887 C 0.30980 -0.03063 0.25144
 C888 C 0.30119 -0.04753 0.25516
 H889 H 0.24127 -0.12590 0.25255
 H890 H 0.25753 -0.09723 0.24600
 H891 H 0.29325 -0.10601 0.29256
 H892 H 0.27727 -0.13470 0.29952
 H893 H 0.32842 -0.06182 0.29072
 H894 H 0.34362 -0.03210 0.28428
 H895 H 0.30453 -0.02218 0.24031
 H896 H 0.28935 -0.05167 0.24695
 C897 C 0.22285 -0.14156 0.71343
 C898 C 0.21215 -0.12554 0.71582
 C899 C 0.21722 -0.11245 0.72884
 C900 C 0.23313 -0.11562 0.73966
 C901 C 0.24389 -0.13161 0.73731
 C902 C 0.23902 -0.14484 0.72406
 N903 N 0.20622 -0.09595 0.73059
 N904 N 0.21012 -0.08356 0.74224
 C905 C 0.19939 -0.06688 0.74388
 C906 C 0.20443 -0.05405 0.75719
 C907 C 0.19453 -0.03746 0.75896
 C908 C 0.17935 -0.03340 0.74736
 C909 C 0.17424 -0.04639 0.73406
 C910 C 0.18416 -0.06299 0.73232
 H911 H 0.21838 -0.15120 0.70311
 H912 H 0.19989 -0.12326 0.70740
 H913 H 0.23735 -0.10570 0.74985
 H914 H 0.25605 -0.13336 0.74592
 H915 H 0.21611 -0.05692 0.76621
 H916 H 0.19863 -0.02789 0.76952
 H917 H 0.16277 -0.04358 0.72478
 H918 H 0.18003 -0.07268 0.72188
 C919 C 0.72199 0.36352 0.21379
 C920 C 0.71089 0.37905 0.21720
 C921 C 0.71605 0.39175 0.23055
 C922 C 0.73249 0.38869 0.24066
 C923 C 0.74364 0.37314 0.23727
 C924 C 0.73859 0.36037 0.22372
 N925 N 0.70451 0.40773 0.23331
 N926 N 0.70822 0.41985 0.24528
 C927 C 0.69676 0.43595 0.24774
 C928 C 0.70164 0.44868 0.26120
 C929 C 0.69106 0.46476 0.26364
 C930 C 0.67536 0.46841 0.25259
 C931 C 0.67036 0.45549 0.23920
 C932 C 0.68097 0.43940 0.23677
 H933 H 0.71754 0.35413 0.20324
 H934 H 0.69826 0.38127 0.20930
 H935 H 0.73677 0.39834 0.25109
 H936 H 0.75623 0.37124 0.24527
 H937 H 0.71374 0.44615 0.26978
 H938 H 0.69510 0.47430 0.27426
 H939 H 0.65847 0.45800 0.23035
 H940 H 0.67693 0.42978 0.22623
 C941 C 0.75059 0.63048 0.25847
 C942 C 0.74090 0.61399 0.25572
 C943 C 0.72571 0.60936 0.26677
 C944 C 0.72027 0.62144 0.28075
 C945 C 0.72999 0.63792 0.28357
 C946 C 0.74526 0.64265 0.27244
 N947 N 0.71615 0.59233 0.26353
 N948 N 0.70189 0.58743 0.27269
 C949 C 0.69249 0.57032 0.26936
 C950 C 0.67653 0.56600 0.27950
 C951 C 0.66706 0.54940 0.27658
 C952 C 0.67348 0.53679 0.26345
 C953 C 0.68952 0.54118 0.25328
 C954 C 0.69894 0.55779 0.25618
 H955 H 0.76236 0.63353 0.24974
 H956 H 0.74525 0.60477 0.24493
 H957 H 0.70855 0.61816 0.28948
 H958 H 0.72538 0.64700 0.29436
 H959 H 0.67146 0.57552 0.28973
 H960 H 0.65487 0.54631 0.28475
 H961 H 0.69465 0.53185 0.24291
 H962 H 0.71123 0.56082 0.24813
 C963 C 0.25895 0.12693 0.76060
 C964 C 0.24949 0.11045 0.75706
 C965 C 0.23266 0.10648 0.76588
 C966 C 0.22535 0.11921 0.77842
 C967 C 0.23479 0.13569 0.78199
 C968 C 0.25170 0.13979 0.77310
 N969 N 0.22328 0.08952 0.76183
 N970 N 0.20789 0.08512 0.76935
 C971 C 0.19843 0.06821 0.76530
 C972 C 0.18161 0.06433 0.77417
 C973 C 0.17198 0.04797 0.77056
 C974 C 0.17906 0.03517 0.75793
 C975 C 0.19600 0.03911 0.74902
 C976 C 0.20560 0.05549 0.75265
 H977 H 0.27197 0.12946 0.75358
 H978 H 0.25529 0.10073 0.74739
 H979 H 0.21234 0.11646 0.78542
 H980 H 0.22867 0.14523 0.79161
 H981 H 0.17597 0.07401 0.78397
 H982 H 0.15913 0.04522 0.77783
 H983 H 0.20169 0.02963 0.73907
 H984 H 0.21857 0.05821 0.74556
 C985 C 0.19890 0.26149 0.11456
 C986 C 0.20185 0.27184 0.09868
 C987 C 0.21895 0.28066 0.09572
 C988 C 0.23325 0.27887 0.10879
 C989 C 0.23042 0.26827 0.12454
 C990 C 0.21320 0.25952 0.12761
 N991 N 0.22156 0.29102 0.07923
 N992 N 0.23537 0.30183 0.07699
 C993 C 0.23823 0.31178 0.06029
 C994 C 0.25150 0.32595 0.05980
 C995 C 0.25473 0.33580 0.04366
 C996 C 0.24494 0.33135 0.02766
 C997 C 0.23172 0.31706 0.02813
 C998 C 0.22827 0.30742 0.04435
 H999 H 0.18554 0.25477 0.11646
 H1000 H 0.19076 0.27305 0.08867
 H1001 H 0.24663 0.28549 0.10674
 H1002 H 0.24165 0.26710 0.13440
 H1003 H 0.25930 0.32938 0.07198
 H1004 H 0.26509 0.34667 0.04357
 H1005 H 0.22394 0.31347 0.01597
 H1006 H 0.21801 0.29646 0.04438
 C1007 C 0.71509 0.77407 0.64148
 C1008 C 0.71810 0.78481 0.62586
 C1009 C 0.73015 0.77863 0.61218
 C1010 C 0.73941 0.76160 0.61438
 C1011 C 0.73642 0.75082 0.62998
 C1012 C 0.72410 0.75685 0.64369
 N1013 N 0.73245 0.78972 0.59610
 N1014 N 0.74325 0.78493 0.58317
 C1015 C 0.74530 0.79586 0.56695
 C1016 C 0.75772 0.78991 0.55348
 C1017 C 0.75983 0.80007 0.53734
 C1018 C 0.74946 0.81639 0.53441
 C1019 C 0.73703 0.82236 0.54802
 C1020 C 0.73496 0.81220 0.56415
 H1021 H 0.70566 0.77931 0.65174
 H1022 H 0.71091 0.79794 0.62434
 H1023 H 0.74881 0.75651 0.60398
 H1024 H 0.74359 0.73767 0.63108
 H1025 H 0.76579 0.77736 0.55550
 H1026 H 0.76971 0.79525 0.52725
 H1027 H 0.72867 0.83474 0.54606
 H1028 H 0.72520 0.81704 0.57434
 C1029 C 0.79141 0.77666 0.35927
 C1030 C 0.78927 0.78680 0.37532
 C1031 C 0.77560 0.78194 0.38806
 C1032 C 0.76395 0.76678 0.38452
 C1033 C 0.76605 0.75663 0.36849
 C1034 C 0.77986 0.76139 0.35565
 N1035 N 0.77393 0.79247 0.40448
 N1036 N 0.76196 0.78854 0.41670
 C1037 C 0.76028 0.79888 0.43323
 C1038 C 0.74708 0.79335 0.44618
 C1039 C 0.74529 0.80287 0.46262
 C1040 C 0.75670 0.81818 0.46637
 C1041 C 0.76983 0.82383 0.45324
 C1042 C 0.77164 0.81425 0.43682
 H1043 H 0.80225 0.78076 0.34983
 H1044 H 0.79836 0.79844 0.37789
 H1045 H 0.75323 0.76275 0.39414
 H1046 H 0.75677 0.74511 0.36622
 H1047 H 0.73820 0.78156 0.44354
 H1048 H 0.73487 0.79834 0.47234
 H1049 H 0.77895 0.83545 0.45583
 H1050 H 0.78197 0.81879 0.42701
 C1051 C 0.26256 0.25071 -0.12839
 C1052 C 0.25836 0.26078 -0.11270
 C1053 C 0.26870 0.27647 -0.10820
 C1054 C 0.28343 0.28202 -0.11960
 C1055 C 0.28768 0.27196 -0.13529
 C1056 C 0.27728 0.25617 -0.13991
 N1057 N 0.26399 0.28646 -0.09201
 N1058 N 0.27266 0.30100 -0.08726
 C1059 C 0.26801 0.31094 -0.07104
 C1060 C 0.27814 0.32684 -0.06672
 C1061 C 0.27410 0.33677 -0.05091
 C1062 C 0.25981 0.33092 -0.03908
 C1063 C 0.24960 0.31498 -0.04349
 C1064 C 0.25364 0.30507 -0.05933
 H1065 H 0.25434 0.23857 -0.13136
 H1066 H 0.24701 0.25632 -0.10399
 H1067 H 0.29164 0.29413 -0.11642
 H1068 H 0.29901 0.27670 -0.14385
 H1069 H 0.28927 0.33147 -0.07561
 H1070 H 0.28237 0.34886 -0.04777
 H1071 H 0.23837 0.31026 -0.03477
 H1072 H 0.24557 0.29284 -0.06239
 C1073 C 0.71479 0.21804 -0.13317
 C1074 C 0.71763 0.20674 -0.11790
 C1075 C 0.73041 0.21177 -0.10440
 C1076 C 0.74051 0.22827 -0.10638
 C1077 C 0.73769 0.23963 -0.12165
 C1078 C 0.72471 0.23470 -0.13522
 N1079 N 0.73261 0.20003 -0.08875
 N1080 N 0.74408 0.20363 -0.07599
 C1081 C 0.74597 0.19196 -0.06023
 C1082 C 0.75898 0.19664 -0.04679
 C1083 C 0.76086 0.18579 -0.03105
 C1084 C 0.74969 0.17003 -0.02850
 C1085 C 0.73673 0.16527 -0.04211
 C1086 C 0.73487 0.17613 -0.05784
 H1087 H 0.70482 0.21362 -0.14333
 H1088 H 0.70978 0.19404 -0.11653
 H1089 H 0.75047 0.23247 -0.09608
 H1090 H 0.74553 0.25234 -0.12264
 H1091 H 0.76764 0.20878 -0.04850
 H1092 H 0.77115 0.18967 -0.02094
 H1093 H 0.72777 0.15335 -0.04044
 H1094 H 0.72466 0.17225 -0.06803
 C1095 C 0.24617 0.75630 0.37784
 C1096 C 0.24981 0.74622 0.39380
 C1097 C 0.24075 0.72944 0.39711
 C1098 C 0.22809 0.72268 0.38411
 C1099 C 0.22445 0.73271 0.36815
 C1100 C 0.23334 0.74973 0.36484
 N1101 N 0.24436 0.71970 0.41383
 N1102 N 0.23601 0.70470 0.41779
 C1103 C 0.23922 0.69489 0.43453
 C1104 C 0.22893 0.67887 0.43803
 C1105 C 0.23132 0.66914 0.45438
 C1106 C 0.24415 0.67527 0.46757
 C1107 C 0.25460 0.69132 0.46395
 C1108 C 0.25215 0.70107 0.44757
 H1109 H 0.25325 0.76935 0.37588
 H1110 H 0.25959 0.75160 0.40372
 H1111 H 0.22094 0.70969 0.38630
 H1112 H 0.21466 0.72704 0.35845
 H1113 H 0.21887 0.67402 0.42811
 H1114 H 0.22285 0.65701 0.45685
 H1115 H 0.26475 0.69627 0.47373
 H1116 H 0.26032 0.71341 0.44514
 C1117 C 0.29442 0.74362 0.62455
 C1118 C 0.29185 0.73355 0.60854
 C1119 C 0.27462 0.72534 0.60476
 C1120 C 0.25978 0.72750 0.61712
 C1121 C 0.26225 0.73783 0.63302
 C1122 C 0.27963 0.74591 0.63693
 N1123 N 0.27252 0.71514 0.58821
 N1124 N 0.25848 0.70485 0.58516
 C1125 C 0.25643 0.69504 0.56836
 C1126 C 0.24274 0.68134 0.56698
 C1127 C 0.24050 0.67147 0.55077
 C1128 C 0.25175 0.67544 0.53556
 C1129 C 0.26535 0.68932 0.53691
 C1130 C 0.26777 0.69896 0.55320
 H1131 H 0.30791 0.74983 0.62709
 H1132 H 0.30335 0.73206 0.59908
 H1133 H 0.24630 0.72135 0.61443
 H1134 H 0.25063 0.73926 0.64235
 H1135 H 0.23388 0.67822 0.57855
 H1136 H 0.22983 0.66092 0.55001
 H1137 H 0.27428 0.69253 0.52541
 H1138 H 0.27841 0.70954 0.55390
 C1139 C 0.75447 0.24621 0.12848
 C1140 C 0.75054 0.23538 0.11324
 C1141 C 0.76123 0.21962 0.10952
 C1142 C 0.77585 0.21462 0.12140
 C1143 C 0.77984 0.22547 0.13663
 C1144 C 0.76928 0.24149 0.14029
 N1145 N 0.75729 0.20934 0.09333
 N1146 N 0.76631 0.19478 0.08909
 C1147 C 0.76261 0.18499 0.07255
 C1148 C 0.77293 0.16900 0.06869
 C1149 C 0.77024 0.15962 0.05227
 C1150 C 0.75719 0.16618 0.03938
 C1151 C 0.74662 0.18206 0.04344
 C1152 C 0.74928 0.19138 0.05987
 H1153 H 0.74611 0.25848 0.13072
 H1154 H 0.73927 0.23940 0.10415
 H1155 H 0.78430 0.20246 0.11882
 H1156 H 0.79121 0.22127 0.14550
 H1157 H 0.78327 0.16396 0.07833
 H1158 H 0.77870 0.14752 0.04944
 H1159 H 0.73627 0.18728 0.03389
 H1160 H 0.74108 0.20368 0.06254
 C1161 C 0.45482 0.37407 0.51250
 C1162 C 0.45751 0.35769 0.52236
 C1163 C 0.47555 0.35161 0.52675
 C1164 C 0.49102 0.36199 0.52094
 C1165 C 0.48836 0.37820 0.51074
 C1166 C 0.47023 0.38444 0.50651
 N1167 N 0.47777 0.33474 0.53684
 N1168 N 0.49309 0.33027 0.54456
 C1169 C 0.49518 0.31313 0.55424
 C1170 C 0.51024 0.31084 0.56628
 C1171 C 0.51243 0.29434 0.57612
 C1172 C 0.49980 0.27974 0.57368
 C1173 C 0.48489 0.28194 0.56138
 C1174 C 0.48249 0.29856 0.55184
 H1175 H 0.44070 0.37843 0.50927
 H1176 H 0.44549 0.34974 0.52669
 H1177 H 0.50511 0.35748 0.52409
 H1178 H 0.50047 0.38598 0.50637
 H1179 H 0.52014 0.32194 0.56820
 H1180 H 0.52409 0.29287 0.58547
 H1181 H 0.47495 0.27087 0.55936
 H1182 H 0.47082 0.29997 0.54251
 C1183 C -0.03960 0.87400 0.00512
 C1184 C -0.03744 0.85794 0.01561
 C1185 C -0.01978 0.85266 0.02203
 C1186 C -0.00412 0.86339 0.01746
 C1187 C -0.00621 0.87926 0.00663
 C1188 C -0.02401 0.88481 0.00054
 N1189 N -0.01817 0.83636 0.03310
 N1190 N -0.00372 0.83289 0.04270
 C1191 C -0.00222 0.81640 0.05353
 C1192 C 0.01164 0.81524 0.06699
 C1193 C 0.01324 0.79942 0.07796
 C1194 C 0.00121 0.78436 0.07531
 C1195 C -0.01252 0.78545 0.06163
 C1196 C -0.01434 0.80140 0.05091
 H1197 H -0.05345 0.87786 0.00046
 H1198 H -0.04959 0.84972 0.01896
 H1199 H 0.00970 0.85947 0.02219
 H1200 H 0.00602 0.88740 0.00335
 H1201 H 0.02109 0.82669 0.06910
 H1202 H 0.02402 0.79881 0.08834
 H1203 H -0.02199 0.77403 0.05941
 H1204 H -0.02510 0.80194 0.04052
 C1205 C 0.00334 0.62379 0.00292
 C1206 C 0.00029 0.64000 0.01276
 C1207 C 0.01010 0.64328 0.02890
 C1208 C 0.02306 0.63006 0.03521
 C1209 C 0.02613 0.61380 0.02539
 C1210 C 0.01635 0.61046 0.00907
 N1211 N 0.00682 0.66022 0.03840
 N1212 N 0.01538 0.66431 0.05305
 C1213 C 0.01216 0.68145 0.06226
 C1214 C 0.02255 0.68543 0.07793
 C1215 C 0.02023 0.70232 0.08683
 C1216 C 0.00742 0.71555 0.08018
 C1217 C -0.00323 0.71137 0.06461
 C1218 C -0.00088 0.69449 0.05572
 H1219 H -0.00447 0.62186 -0.00955
 H1220 H -0.00971 0.65011 0.00774
 H1221 H 0.03083 0.63230 0.04768
 H1222 H 0.03620 0.60393 0.03065
 H1223 H 0.03267 0.67551 0.08308
 H1224 H 0.02880 0.70522 0.09866
 H1225 H -0.01340 0.72116 0.05932
 H1226 H -0.00916 0.69170 0.04368
 C1227 C 0.54026 0.10451 0.52864
 C1228 C 0.53756 0.11997 0.53971
 C1229 C 0.52359 0.13292 0.53558
 C1230 C 0.51212 0.13012 0.52029
 C1231 C 0.51478 0.11467 0.50922
 C1232 C 0.52898 0.10170 0.51316
 N1233 N 0.52162 0.14893 0.54685
 N1234 N 0.50945 0.16141 0.54357
 C1235 C 0.50771 0.17765 0.55454
 C1236 C 0.49450 0.19110 0.54962
 C1237 C 0.49299 0.20750 0.55951
 C1238 C 0.50470 0.21070 0.57458
 C1239 C 0.51772 0.19700 0.57972
 C1240 C 0.51925 0.18062 0.56978
 H1241 H 0.55132 0.09492 0.53222
 H1242 H 0.54651 0.12198 0.55146
 H1243 H 0.50118 0.13993 0.51682
 H1244 H 0.50571 0.11305 0.49754
 H1245 H 0.48550 0.18895 0.53794
 H1246 H 0.48267 0.21770 0.55536
 H1247 H 0.52707 0.19916 0.59114
 H1248 H 0.52959 0.17043 0.57384
 C1249 C -0.03102 0.11048 0.47125
 C1250 C -0.02816 0.12591 0.46009
 C1251 C -0.01539 0.13952 0.46507
 C1252 C -0.00522 0.13747 0.48138
 C1253 C -0.00808 0.12201 0.49262
 C1254 C -0.02114 0.10837 0.48776
 N1255 N -0.01344 0.15543 0.45352
 N1256 N -0.00194 0.16837 0.45683
 C1257 C -0.00064 0.18437 0.44527
 C1258 C 0.01252 0.19799 0.44937
 C1259 C 0.01367 0.21406 0.43873
 C1260 C 0.00158 0.21680 0.42379
 C1261 C -0.01147 0.20297 0.41957
 C1262 C -0.01258 0.18690 0.43019
 H1263 H -0.04105 0.10029 0.46683
 H1264 H -0.03604 0.12734 0.44753
 H1265 H 0.00476 0.14785 0.48553
 H1266 H -0.00022 0.12094 0.50519
 H1267 H 0.02182 0.19618 0.46091
 H1268 H 0.02406 0.22431 0.44218
 H1269 H -0.02113 0.20476 0.40831
 H1270 H -0.02293 0.17661 0.42676
 C1271 C 0.46670 0.61309 0.97669
 C1272 C 0.46914 0.62867 0.96561
 C1273 C 0.48200 0.64232 0.97039
 C1274 C 0.49258 0.64015 0.98643
 C1275 C 0.49015 0.62456 0.99755
 C1276 C 0.47711 0.61086 0.99287
 N1277 N 0.48380 0.65829 0.95889
 N1278 N 0.49530 0.67120 0.96231
 C1279 C 0.49682 0.68728 0.95089
 C1280 C 0.50988 0.70086 0.95537
 C1281 C 0.51145 0.71690 0.94474
 C1282 C 0.49991 0.71962 0.92940
 C1283 C 0.48689 0.70586 0.92485
 C1284 C 0.48535 0.68984 0.93549
 H1285 H 0.45665 0.60282 0.97247
 H1286 H 0.46093 0.63017 0.95326
 H1287 H 0.50261 0.65055 0.99045
 H1288 H 0.49836 0.62344 1.00991
 H1289 H 0.51884 0.69903 0.96717
 H1290 H 0.52179 0.72710 0.94846
 H1291 H 0.47764 0.70766 0.91326
 H1292 H 0.47509 0.67956 0.93176
 C1293 C 0.50594 0.87899 1.00450
 C1294 C 0.50271 0.86297 0.99445
 C1295 C 0.51215 0.85991 0.97808
 C1296 C 0.52496 0.87315 0.97176
 C1297 C 0.52823 0.88922 0.98182
 C1298 C 0.51876 0.89234 0.99834
 N1299 N 0.50859 0.84317 0.96836
 N1300 N 0.51658 0.83925 0.95338
 C1301 C 0.51293 0.82227 0.94406
 C1302 C 0.52240 0.81848 0.92782
 C1303 C 0.51951 0.80178 0.91872
 C1304 C 0.50706 0.78855 0.92578
 C1305 C 0.49737 0.79252 0.94196
 C1306 C 0.50027 0.80921 0.95103
 H1307 H 0.49849 0.88072 1.01719
 H1308 H 0.49285 0.85284 0.99949
 H1309 H 0.53243 0.87108 0.95911
 H1310 H 0.53810 0.89920 0.97656
 H1311 H 0.53221 0.82841 0.92231
 H1312 H 0.52732 0.79904 0.90639
 H1313 H 0.48748 0.78275 0.94759
 H1314 H 0.49269 0.81183 0.96352
 C1315 C 0.00680 0.37712 0.49870
 C1316 C 0.00405 0.36067 0.48921
 C1317 C 0.01299 0.35765 0.47256
 C1318 C 0.02488 0.37132 0.46545
 C1319 C 0.02767 0.38782 0.47494
 C1320 C 0.01861 0.39094 0.49167
 N1321 N 0.00971 0.34061 0.46325
 N1322 N 0.01718 0.33681 0.44799
 C1323 C 0.01371 0.31964 0.43895
 C1324 C 0.02247 0.31612 0.42228
 C1325 C 0.01952 0.29940 0.41325
 C1326 C 0.00772 0.28587 0.42081
 C1327 C -0.00117 0.28951 0.43750
 C1328 C 0.00179 0.30623 0.44650
 H1329 H -0.00026 0.37887 0.51160
 H1330 H -0.00509 0.35021 0.49485
 H1331 H 0.03194 0.36929 0.45257
 H1332 H 0.03676 0.39816 0.46905
 H1333 H 0.03172 0.32632 0.41634
 H1334 H 0.02673 0.29691 0.40052
 H1335 H -0.01055 0.27949 0.44353
 H1336 H -0.00522 0.30863 0.45934
 C1337 C 0.36880 0.49306 0.48377
 C1338 C 0.35265 0.50324 0.48748
 C1339 C 0.34963 0.52043 0.47921
 C1340 C 0.36296 0.52737 0.46693
 C1341 C 0.37921 0.51722 0.46321
 C1342 C 0.38241 0.49996 0.47169
 N1343 N 0.33308 0.53057 0.48380
 N1344 N 0.32888 0.54608 0.47657
 C1345 C 0.31231 0.55596 0.48169
 C1346 C 0.30766 0.57238 0.47253
 C1347 C 0.29158 0.58231 0.47728
 C1348 C 0.27988 0.57597 0.49139
 C1349 C 0.28467 0.55952 0.50062
 C1350 C 0.30069 0.54959 0.49581
 H1351 H 0.37054 0.47983 0.49050
 H1352 H 0.34245 0.49773 0.49694
 H1353 H 0.36092 0.54068 0.46036
 H1354 H 0.38929 0.52303 0.45385
 H1355 H 0.31649 0.57744 0.46162
 H1356 H 0.28817 0.59480 0.46975
 H1357 H 0.27617 0.55443 0.51175
 H1358 H 0.30403 0.53700 0.50320
 C1359 C 0.89017 0.02048 -0.04464
 C1360 C 0.87468 0.03186 -0.04139
 C1361 C 0.86204 0.02752 -0.02749
 C1362 C 0.86511 0.01164 -0.01676
 C1363 C 0.88058 0.00028 -0.01995
 C1364 C 0.89329 0.00453 -0.03396
 N1365 N 0.84613 0.03925 -0.02467
 N1366 N 0.83394 0.03560 -0.01257
 C1367 C 0.81783 0.04701 -0.00964
 C1368 C 0.80468 0.04143 0.00334
 C1369 C 0.78852 0.05189 0.00624
 C1370 C 0.78527 0.06822 -0.00381
 C1371 C 0.79864 0.07396 -0.01665
 C1372 C 0.81478 0.06342 -0.01960
 H1373 H 0.89971 0.02429 -0.05544
 H1374 H 0.87248 0.04407 -0.04975
 H1375 H 0.85552 0.00794 -0.00594
 H1376 H 0.88238 -0.01193 -0.01154
 H1377 H 0.80692 0.02885 0.01114
 H1378 H 0.77858 0.04727 0.01639
 H1379 H 0.79642 0.08639 -0.02469
 H1380 H 0.82477 0.06800 -0.02971
 C1381 C 0.60621 0.02840 0.03827
 C1382 C 0.62229 0.03891 0.03541
 C1383 C 0.63578 0.03323 0.02286
 C1384 C 0.63292 0.01689 0.01296
 C1385 C 0.61684 0.00633 0.01582
 C1386 C 0.60331 0.01188 0.02861
 N1387 N 0.65236 0.04405 0.02073
 N1388 N 0.66509 0.03986 0.00937
 C1389 C 0.68186 0.05047 0.00758
 C1390 C 0.69513 0.04517 -0.00538
 C1391 C 0.71191 0.05483 -0.00708
 C1392 C 0.71575 0.06999 0.00425
 C1393 C 0.70228 0.07544 0.01711
 C1394 C 0.68548 0.06577 0.01878
 H1395 H 0.59612 0.03330 0.04810
 H1396 H 0.62432 0.05149 0.04311
 H1397 H 0.64318 0.01219 0.00318
 H1398 H 0.61521 -0.00628 0.00813
 H1399 H 0.69248 0.03344 -0.01412
 H1400 H 0.72187 0.05048 -0.01731
 H1401 H 0.70491 0.08692 0.02616
 H1402 H 0.67546 0.07010 0.02895
 C1403 C 0.11843 0.49935 0.50945
 C1404 C 0.13506 0.50889 0.50628
 C1405 C 0.13981 0.52418 0.51688
 C1406 C 0.12772 0.52982 0.53088
 C1407 C 0.11106 0.52029 0.53408
 C1408 C 0.10615 0.50496 0.52335
 N1409 N 0.15684 0.53376 0.51301
 N1410 N 0.16214 0.54777 0.52206
 C1411 C 0.17916 0.55728 0.51791
 C1412 C 0.18441 0.57242 0.52854
 C1413 C 0.20091 0.58202 0.52475
 C1414 C 0.21246 0.57659 0.51021
 C1415 C 0.20710 0.56140 0.49954
 C1416 C 0.19063 0.55182 0.50335
 H1417 H 0.11530 0.48756 0.50098
 H1418 H 0.14429 0.50439 0.49547
 H1419 H 0.13109 0.54162 0.53927
 H1420 H 0.10200 0.52511 0.54485
 H1421 H 0.17571 0.57676 0.53981
 H1422 H 0.20474 0.59355 0.53333
 H1423 H 0.21551 0.55707 0.48806
 H1424 H 0.18685 0.54022 0.49486
 C1425 C 0.11933 0.50458 -0.01060
 C1426 C 0.13648 0.49566 -0.00783
 C1427 C 0.14097 0.47965 -0.01751
 C1428 C 0.12806 0.47262 -0.03013
 C1429 C 0.11089 0.48152 -0.03292
 C1430 C 0.10627 0.49761 -0.02316
 N1431 N 0.15861 0.47078 -0.01419
 N1432 N 0.16363 0.45623 -0.02258
 C1433 C 0.18124 0.44733 -0.01917
 C1434 C 0.18593 0.43153 -0.02912
 C1435 C 0.20296 0.42247 -0.02610
 C1436 C 0.21564 0.42908 -0.01301
 C1437 C 0.21089 0.44497 -0.00303
 C1438 C 0.19385 0.45403 -0.00608
 H1439 H 0.11643 0.51697 -0.00290
 H1440 H 0.14633 0.50124 0.00191
 H1441 H 0.13119 0.46023 -0.03778
 H1442 H 0.10123 0.47564 -0.04263
 H1443 H 0.17635 0.42625 -0.03927
 H1444 H 0.20631 0.41041 -0.03417
 H1445 H 0.22023 0.45026 0.00732
 H1446 H 0.19052 0.46619 0.00185
 C1447 C 0.61265 0.96497 0.46763
 C1448 C 0.62828 0.95363 0.47032
 C1449 C 0.64185 0.95825 0.48323
 C1450 C 0.63949 0.97430 0.49371
 C1451 C 0.62384 0.98567 0.49105
 C1452 C 0.61031 0.98124 0.47784
 N1453 N 0.65804 0.94666 0.48507
 N1454 N 0.67108 0.95011 0.49636
 C1455 C 0.68742 0.93868 0.49783
 C1456 C 0.70122 0.94331 0.51053
 C1457 C 0.71759 0.93277 0.51195
 C1458 C 0.72045 0.91739 0.50062
 C1459 C 0.70646 0.91264 0.48801
 C1460 C 0.69009 0.92319 0.48661
 H1461 H 0.60246 0.96093 0.45751
 H1462 H 0.62991 0.94127 0.46220
 H1463 H 0.64981 0.97816 0.50379
 H1464 H 0.62258 0.99809 0.49912
 H1465 H 0.69932 0.95518 0.51928
 H1466 H 0.72797 0.93661 0.52199
 H1467 H 0.70834 0.90100 0.47897
 H1468 H 0.67965 0.91936 0.47664
 C1469 C 0.88031 0.99689 0.50630
 C1470 C 0.86446 0.98631 0.50262
 C1471 C 0.86138 0.96969 0.51195
 C1472 C 0.87449 0.96359 0.52496
 C1473 C 0.89035 0.97415 0.52867
 C1474 C 0.89342 0.99099 0.51946
 N1475 N 0.84467 0.95954 0.50821
 N1476 N 0.84084 0.94440 0.51630
 C1477 C 0.82390 0.93455 0.51276
 C1478 C 0.82043 0.91812 0.52231
 C1479 C 0.80374 0.90851 0.51964
 C1480 C 0.79019 0.91526 0.50734
 C1481 C 0.79384 0.93165 0.49758
 C1482 C 0.81053 0.94122 0.50026
 H1483 H 0.88206 1.00979 0.49899
 H1484 H 0.85442 0.99115 0.49258
 H1485 H 0.87243 0.95075 0.53233
 H1486 H 0.90019 0.96904 0.53874
 H1487 H 0.83061 0.91288 0.53202
 H1488 H 0.80125 0.89604 0.52749
 H1489 H 0.78379 0.93703 0.48782
 H1490 H 0.81290 0.95387 0.49266
 C1491 C 0.39110 0.47619 0.03885
 C1492 C 0.37530 0.46535 0.03566
 C1493 C 0.36218 0.47060 0.02243
 C1494 C 0.36508 0.48689 0.01231
 C1495 C 0.38085 0.49775 0.01548
 C1496 C 0.39408 0.49257 0.02882
 N1497 N 0.34603 0.45930 0.01963
 N1498 N 0.33368 0.46332 0.00772
 C1499 C 0.31739 0.45222 0.00493
 C1500 C 0.30451 0.45757 -0.00849
 C1501 C 0.28833 0.44723 -0.01144
 C1502 C 0.28475 0.43130 -0.00094
 C1503 C 0.29778 0.42589 0.01247
 C1504 C 0.31396 0.43625 0.01540
 H1505 H 0.40095 0.47164 0.04916
 H1506 H 0.37324 0.45282 0.04355
 H1507 H 0.35512 0.49128 0.00201
 H1508 H 0.38250 0.51026 0.00751
 H1509 H 0.30702 0.46982 -0.01668
 H1510 H 0.27871 0.45161 -0.02204
 H1511 H 0.29531 0.41381 0.02091
 H1512 H 0.32370 0.43186 0.02589
 C1513 C 0.52776 0.46696 0.39490
 C1514 C 0.53896 0.47006 0.37961
 C1515 C 0.53315 0.48227 0.36588
 C1516 C 0.51604 0.49168 0.36772
 C1517 C 0.50480 0.48861 0.38304
 C1518 C 0.51045 0.47606 0.39674
 N1519 N 0.54468 0.48446 0.35007
 N1520 N 0.54030 0.49516 0.33689
 C1521 C 0.55179 0.49684 0.32097
 C1522 C 0.54621 0.50887 0.30696
 C1523 C 0.55679 0.51038 0.29101
 C1524 C 0.57319 0.49982 0.28881
 C1525 C 0.57887 0.48790 0.30301
 C1526 C 0.56827 0.48641 0.31895
 H1527 H 0.53274 0.45739 0.40523
 H1528 H 0.55214 0.46277 0.37837
 H1529 H 0.51124 0.50120 0.35726
 H1530 H 0.49155 0.49581 0.38392
 H1531 H 0.53356 0.51701 0.30837
 H1532 H 0.55219 0.51988 0.28044
 H1533 H 0.59129 0.47941 0.30164
 H1534 H 0.57286 0.47695 0.32956
 C1535 C 0.03087 -0.04135 0.88427
 C1536 C 0.04195 -0.03864 0.86880
 C1537 C 0.03712 -0.02517 0.85583
 C1538 C 0.02107 -0.01429 0.85857
 C1539 C 0.00997 -0.01700 0.87400
 C1540 C 0.01467 -0.03063 0.88702
 N1541 N 0.04859 -0.02293 0.83997
 N1542 N 0.04484 -0.01095 0.82770
 C1543 C 0.05610 -0.00865 0.81172
 C1544 C 0.05111 0.00497 0.79899
 C1545 C 0.06169 0.00755 0.78319
 C1546 C 0.07752 -0.00352 0.77985
 C1547 C 0.08251 -0.01721 0.79269
 C1548 C 0.07190 -0.01977 0.80850
 H1549 H 0.03489 -0.05205 0.89390
 H1550 H 0.05428 -0.04713 0.86683
 H1551 H 0.01705 -0.00374 0.84877
 H1552 H -0.00225 -0.00832 0.87569
 H1553 H 0.03899 0.01365 0.80134
 H1554 H 0.05763 0.01837 0.77370
 H1555 H 0.09448 -0.02610 0.79040
 H1556 H 0.07601 -0.03044 0.81813
 C1557 C 0.00145 0.01238 0.62202
 C1558 C 0.01149 0.00873 0.63799
 C1559 C 0.02811 0.01809 0.64164
 C1560 C 0.03466 0.03129 0.62908
 C1561 C 0.02461 0.03497 0.61304
 C1562 C 0.00788 0.02553 0.60928
 N1563 N 0.03791 0.01390 0.65822
 N1564 N 0.05303 0.02187 0.66278
 C1565 C 0.06245 0.01740 0.67953
 C1566 C 0.07867 0.02704 0.68422
 C1567 C 0.08794 0.02319 0.70064
 C1568 C 0.08109 0.00959 0.71266
 C1569 C 0.06491 -0.00020 0.70779
 C1570 C 0.05566 0.00367 0.69141
 H1571 H -0.01141 0.00493 0.61982
 H1572 H 0.00627 -0.00142 0.64760
 H1573 H 0.04750 0.03872 0.63163
 H1574 H 0.03007 0.04511 0.60357
 H1575 H 0.08404 0.03768 0.67522
 H1576 H 0.10026 0.03110 0.70409
 H1577 H 0.05947 -0.01096 0.71661
 H1578 H 0.04320 -0.00405 0.68807
 C1579 C 0.53154 0.53772 0.11344
 C1580 C 0.54253 0.53497 0.12902
 C1581 C 0.53716 0.52222 0.14240
 C1582 C 0.52067 0.51204 0.13996
 C1583 C 0.50966 0.51477 0.12440
 C1584 C 0.51489 0.52772 0.11096
 N1585 N 0.54844 0.52014 0.15847
 N1586 N 0.54424 0.50883 0.17116
 C1587 C 0.55518 0.50696 0.18746
 C1588 C 0.54935 0.49450 0.20093
 C1589 C 0.55921 0.49285 0.21732
 C1590 C 0.57515 0.50367 0.22053
 C1591 C 0.58120 0.51595 0.20683
 C1592 C 0.57128 0.51761 0.19043
 H1593 H 0.53616 0.54770 0.10340
 H1594 H 0.55522 0.54289 0.13074
 H1595 H 0.51619 0.50211 0.15013
 H1596 H 0.49694 0.50686 0.12310
 H1597 H 0.53700 0.48617 0.19877
 H1598 H 0.55437 0.48308 0.22750
 H1599 H 0.59331 0.52460 0.20898
 H1600 H 0.57606 0.52737 0.18022
 C1601 C 0.46662 -0.02994 0.11515
 C1602 C 0.45579 -0.02654 0.13062
 C1603 C 0.46108 -0.01297 0.14309
 C1604 C 0.47733 -0.00264 0.13983
 C1605 C 0.48818 -0.00601 0.12438
 C1606 C 0.48303 -0.01978 0.11186
 N1607 N 0.44991 -0.01016 0.15903
 N1608 N 0.45393 0.00201 0.17086
 C1609 C 0.44297 0.00461 0.18697
 C1610 C 0.44823 0.01829 0.19935
 C1611 C 0.43815 0.02088 0.21544
 C1612 C 0.42258 0.00976 0.21942
 C1613 C 0.41721 -0.00386 0.20686
 C1614 C 0.42732 -0.00643 0.19077
 H1615 H 0.46206 -0.04054 0.10582
 H1616 H 0.44328 -0.03459 0.13297
 H1617 H 0.48172 0.00794 0.14929
 H1618 H 0.50071 0.00207 0.12244
 H1619 H 0.46025 0.02690 0.19655
 H1620 H 0.44247 0.03163 0.22474
 H1621 H 0.40544 -0.01279 0.20965
 H1622 H 0.42301 -0.01714 0.18143
 C1623 C 0.96688 0.46692 0.60819
 C1624 C 0.95664 0.46887 0.62424
 C1625 C 0.96338 0.47977 0.63846
 C1626 C 0.98055 0.48890 0.63642
 C1627 C 0.99086 0.48696 0.62034
 C1628 C 0.98420 0.47585 0.60605
 N1629 N 0.95261 0.48106 0.65483
 N1630 N 0.95762 0.49084 0.66834
 C1631 C 0.94671 0.49172 0.68468
 C1632 C 0.95265 0.50307 0.69893
 C1633 C 0.94241 0.50403 0.71512
 C1634 C 0.92602 0.49356 0.71733
 C1635 C 0.92008 0.48220 0.70296
 C1636 C 0.93031 0.48129 0.68679
 H1637 H 0.96112 0.45843 0.59749
 H1638 H 0.94340 0.46181 0.62565
 H1639 H 0.98606 0.49740 0.64726
 H1640 H 1.00414 0.49398 0.61926
 H1641 H 0.96524 0.51120 0.69747
 H1642 H 0.94721 0.51310 0.72584
 H1643 H 0.90768 0.47378 0.70434
 H1644 H 0.92546 0.47233 0.67600
 C1645 C 0.96645 0.53207 0.89186
 C1646 C 0.95585 0.52883 0.87620
 C1647 C 0.96159 0.51564 0.86351
 C1648 C 0.97806 0.50546 0.86676
 C1649 C 0.98869 0.50866 0.88246
 C1650 C 0.98308 0.52211 0.89514
 N1651 N 0.95066 0.51319 0.84734
 N1652 N 0.95516 0.50174 0.83497
 C1653 C 0.94429 0.49976 0.81866
 C1654 C 0.95032 0.48736 0.80531
 C1655 C 0.94046 0.48567 0.78893
 C1656 C 0.92433 0.49639 0.78565
 C1657 C 0.91813 0.50860 0.79923
 C1658 C 0.92802 0.51029 0.81558
 H1659 H 0.96152 0.54236 0.90138
 H1660 H 0.94317 0.53673 0.87387
 H1661 H 0.98279 0.49519 0.85711
 H1662 H 1.00143 0.50079 0.88445
 H1663 H 0.96281 0.47913 0.80754
 H1664 H 0.94545 0.47598 0.77882
 H1665 H 0.90589 0.51719 0.79702
 H1666 H 0.92308 0.52001 0.82568
 C1667 C 0.50408 0.01369 0.37622
 C1668 C 0.49396 0.01156 0.36007
 C1669 C 0.47746 0.02154 0.35713
 C1670 C 0.47112 0.03382 0.37057
 C1671 C 0.48123 0.03599 0.38675
 C1672 C 0.49784 0.02592 0.38979
 N1673 N 0.46747 0.01888 0.34042
 N1674 N 0.45238 0.02748 0.33669
 C1675 C 0.44257 0.02458 0.31990
 C1676 C 0.42610 0.03452 0.31648
 C1677 C 0.41622 0.03197 0.30023
 C1678 C 0.42271 0.01940 0.28709
 C1679 C 0.43925 0.00941 0.29059
 C1680 C 0.44910 0.01198 0.30683
 H1681 H 0.51686 0.00583 0.37790
 H1682 H 0.49901 0.00209 0.34978
 H1683 H 0.45836 0.04168 0.36860
 H1684 H 0.47591 0.04542 0.39690
 H1685 H 0.42095 0.04430 0.32643
 H1686 H 0.40364 0.04000 0.29783
 H1687 H 0.44445 -0.00057 0.28086
 H1688 H 0.46177 0.00406 0.30918
   
