data_POSCAR
  _audit_creation_date              2014-09-24
  _audit_creation_method            'ToBaCCo'
  _symmetry_space_group_name_H-M    'P1'
  _symmetry_Int_Tables_number       1
  _symmetry_cell_setting            triclinic
  loop_
  _symmetry_equiv_pos_as_xyz
 x,y,z
_cell_length_a 45.7900
_cell_length_b 45.7911
_cell_length_c 39.9724
_cell_angle_alpha 89.999400
_cell_angle_beta 90.000800
_cell_angle_gamma 89.999900
loop_
  _atom_site_label
  _atom_site_type_symbol
  _atom_site_fract_x
  _atom_site_fract_y
  _atom_site_fract_z
C1 C 0.35131 0.00000 0.24999
 C2 C 0.14866 -0.00000 0.75002
 C3 C 0.64866 0.50001 0.25001
 C4 C 0.85131 0.50000 0.74997
 C5 C 0.24999 0.39866 1.00001
 C6 C 0.75000 0.10133 0.99999
 C7 C 0.25002 0.60132 0.49998
 C8 C 0.75001 0.89866 0.50003
 C9 C -0.00002 0.25004 0.37501
 C10 C 0.00002 0.74995 0.12499
 C11 C 0.50003 0.24996 0.62500
 C12 C 0.49997 0.75005 0.87501
 C13 C -0.25000 0.60133 1.00003
 C14 C -0.24999 0.39866 0.49998
 C15 C 0.25000 -0.10134 -0.00003
 C16 C 0.25001 1.10132 0.50002
 C17 C 0.14866 0.50001 0.24998
 C18 C -0.14869 1.00001 0.25002
 C19 C 0.35131 0.49999 -0.24999
 C20 C 0.64867 -0.00001 -0.24999
 C21 C 0.00003 0.24995 0.87501
 C22 C 0.49998 0.25005 0.12499
 C23 C -0.00003 0.75004 0.62499
 C24 C 0.50003 0.74997 0.37501
 B25 B -0.01749 0.01589 1.02849
 B26 B -0.03249 0.00815 0.99158
 B27 B -0.00641 0.03349 0.99426
 B28 B 0.01827 0.02295 1.02322
 B29 B 0.00675 -0.01014 1.03826
 B30 B -0.02519 -0.01903 1.01859
 B31 B 0.01747 -0.01597 0.97153
 B32 B 0.03247 -0.00823 1.00844
 B33 B 0.00638 -0.03357 1.00575
 B34 B -0.01829 -0.02303 0.97680
 B35 B -0.00677 0.01006 0.96176
 B36 B 0.02517 0.01895 0.98143
 B37 B 0.48253 0.51590 0.52850
 B38 B 0.46753 0.50816 0.49159
 B39 B 0.49362 0.53350 0.49427
 B40 B 0.51829 0.52296 0.52323
 B41 B 0.50677 0.48987 0.53827
 B42 B 0.47483 0.48098 0.51860
 B43 B 0.51749 0.48404 0.47154
 B44 B 0.53249 0.49178 0.50845
 B45 B 0.50640 0.46644 0.50577
 B46 B 0.48173 0.47698 0.47681
 B47 B 0.49326 0.51007 0.46177
 B48 B 0.52519 0.51896 0.48144
 B49 B 0.51749 0.98404 0.52847
 B50 B 0.53249 0.99178 0.49156
 B51 B 0.50640 0.96644 0.49425
 B52 B 0.48173 0.97698 0.52321
 B53 B 0.49325 1.01007 0.53824
 B54 B 0.52519 1.01896 0.51857
 B55 B 0.48252 1.01590 0.47151
 B56 B 0.46753 1.00816 0.50842
 B57 B 0.49361 1.03350 0.50574
 B58 B 0.51828 1.02296 0.47678
 B59 B 0.50676 0.98987 0.46174
 B60 B 0.47482 0.98098 0.48142
 B61 B 0.01747 0.48403 1.02847
 B62 B 0.03246 0.49177 0.99155
 B63 B 0.00638 0.46643 0.99425
 B64 B -0.01829 0.47697 1.02321
 B65 B -0.00677 0.51006 1.03824
 B66 B 0.02517 0.51895 1.01856
 B67 B -0.01750 0.51589 0.97151
 B68 B -0.03250 0.50815 1.00843
 B69 B -0.00641 0.53349 1.00574
 B70 B 0.01826 0.52295 0.97677
 B71 B 0.00673 0.48986 0.96174
 B72 B -0.02520 0.48097 0.98142
 B73 B 0.01746 0.51599 0.47148
 B74 B 0.03246 0.50825 0.50839
 B75 B 0.00638 0.53358 0.50571
 B76 B -0.01830 0.52305 0.47675
 B77 B -0.00677 0.48996 0.46171
 B78 B 0.02517 0.48107 0.48138
 B79 B -0.01750 0.48412 0.52844
 B80 B -0.03250 0.49186 0.49153
 B81 B -0.00641 0.46653 0.49421
 B82 B 0.01826 0.47707 0.52317
 B83 B 0.00674 0.51015 0.53821
 B84 B -0.02520 0.51904 0.51854
 B85 B 0.51745 0.01600 -0.02851
 B86 B 0.53244 0.00826 0.00840
 B87 B 0.50636 0.03359 0.00571
 B88 B 0.48169 0.02305 -0.02325
 B89 B 0.49321 -0.01003 -0.03829
 B90 B 0.52515 -0.01892 -0.01861
 B91 B 0.48248 -0.01587 0.02844
 B92 B 0.46749 -0.00813 -0.00847
 B93 B 0.49357 -0.03346 -0.00578
 B94 B 0.51824 -0.02292 0.02318
 B95 B 0.50672 0.01016 0.03821
 B96 B 0.47478 0.01905 0.01854
 B97 B 0.48248 0.48413 -0.02843
 B98 B 0.46748 0.49187 0.00847
 B99 B 0.49356 0.46654 0.00579
 B100 B 0.51824 0.47708 -0.02316
 B101 B 0.50672 0.51016 -0.03821
 B102 B 0.47478 0.51906 -0.01854
 B103 B 0.51744 0.51600 0.02852
 B104 B 0.53244 0.50826 -0.00838
 B105 B 0.50635 0.53359 -0.00570
 B106 B 0.48168 0.52306 0.02326
 B107 B 0.49320 0.48997 0.03830
 B108 B 0.52514 0.48108 0.01863
 B109 B -0.01750 0.98412 0.47156
 B110 B -0.03250 0.99186 0.50847
 B111 B -0.00641 0.96653 0.50579
 B112 B 0.01826 0.97707 0.47683
 B113 B 0.00674 1.01015 0.46179
 B114 B -0.02520 1.01904 0.48146
 B115 B 0.01747 1.01599 0.52852
 B116 B 0.03246 1.00825 0.49160
 B117 B 0.00638 1.03358 0.49429
 B118 B -0.01829 1.02305 0.52325
 B119 B -0.00677 0.98996 0.53829
 B120 B 0.02517 0.98107 0.51862
 B121 B 0.76593 0.23254 0.22149
 B122 B 0.75819 0.21754 0.25840
 B123 B 0.78353 0.24363 0.25571
 B124 B 0.77299 0.26830 0.22675
 B125 B 0.73990 0.25678 0.21171
 B126 B 0.73101 0.22484 0.23138
 B127 B 0.73406 0.26750 0.27844
 B128 B 0.74181 0.28250 0.24153
 B129 B 0.71647 0.25642 0.24421
 B130 B 0.72701 0.23174 0.27317
 B131 B 0.76009 0.24327 0.28822
 B132 B 0.76899 0.27520 0.26854
 B133 B 0.73406 0.76748 0.72156
 B134 B 0.74180 0.78248 0.75847
 B135 B 0.71646 0.75640 0.75578
 B136 B 0.72700 0.73173 0.72682
 B137 B 0.76009 0.74325 0.71178
 B138 B 0.76898 0.77518 0.73146
 B139 B 0.76592 0.73252 0.77851
 B140 B 0.75818 0.71752 0.74160
 B141 B 0.78352 0.74361 0.74429
 B142 B 0.77298 0.76828 0.77325
 B143 B 0.73989 0.75675 0.78829
 B144 B 0.73100 0.72482 0.76861
 B145 B 0.26599 0.26744 0.77853
 B146 B 0.25824 0.28244 0.74162
 B147 B 0.28358 0.25636 0.74430
 B148 B 0.27305 0.23169 0.77326
 B149 B 0.23996 0.24321 0.78831
 B150 B 0.23106 0.27514 0.76863
 B151 B 0.23412 0.23248 0.72158
 B152 B 0.24186 0.21748 0.75849
 B153 B 0.21652 0.24357 0.75580
 B154 B 0.22706 0.26824 0.72684
 B155 B 0.26015 0.25672 0.71180
 B156 B 0.26904 0.22478 0.73147
 B157 B 0.23412 0.73249 0.27843
 B158 B 0.24186 0.71750 0.24152
 B159 B 0.21652 0.74358 0.24420
 B160 B 0.22706 0.76825 0.27316
 B161 B 0.26014 0.75673 0.28820
 B162 B 0.26904 0.72479 0.26853
 B163 B 0.26598 0.76746 0.22147
 B164 B 0.25824 0.78245 0.25838
 B165 B 0.28358 0.75637 0.25570
 B166 B 0.27304 0.73170 0.22674
 B167 B 0.23995 0.74322 0.21170
 B168 B 0.23106 0.77515 0.23137
 B169 B 0.26592 0.73252 0.72149
 B170 B 0.25818 0.71752 0.75840
 B171 B 0.28352 0.74361 0.75572
 B172 B 0.27298 0.76828 0.72677
 B173 B 0.23989 0.75676 0.71172
 B174 B 0.23100 0.72482 0.73139
 B175 B 0.23406 0.76748 0.77845
 B176 B 0.24180 0.78248 0.74154
 B177 B 0.21646 0.75640 0.74422
 B178 B 0.22700 0.73172 0.77318
 B179 B 0.26008 0.74324 0.78822
 B180 B 0.26898 0.77518 0.76856
 B181 B 0.23406 0.26750 0.22155
 B182 B 0.24181 0.28249 0.25846
 B183 B 0.21647 0.25641 0.25578
 B184 B 0.22700 0.23174 0.22682
 B185 B 0.26009 0.24326 0.21178
 B186 B 0.26899 0.27519 0.23145
 B187 B 0.26593 0.23254 0.27851
 B188 B 0.25819 0.21754 0.24160
 B189 B 0.28353 0.24362 0.24429
 B190 B 0.27299 0.26829 0.27324
 B191 B 0.23990 0.25678 0.28829
 B192 B 0.23101 0.22484 0.26862
 B193 B 0.76598 0.76746 0.27853
 B194 B 0.75824 0.78246 0.24162
 B195 B 0.78358 0.75638 0.24430
 B196 B 0.77304 0.73170 0.27326
 B197 B 0.73995 0.74322 0.28830
 B198 B 0.73106 0.77516 0.26863
 B199 B 0.73411 0.73250 0.22157
 B200 B 0.74186 0.71750 0.25848
 B201 B 0.71652 0.74359 0.25580
 B202 B 0.72706 0.76826 0.22684
 B203 B 0.76014 0.75674 0.21180
 B204 B 0.76904 0.72480 0.23147
 B205 B 0.73412 0.23248 0.77843
 B206 B 0.74186 0.21748 0.74152
 B207 B 0.71653 0.24356 0.74420
 B208 B 0.72706 0.26824 0.77316
 B209 B 0.76015 0.25672 0.78820
 B210 B 0.76904 0.22478 0.76853
 B211 B 0.76599 0.26744 0.72147
 B212 B 0.75824 0.28244 0.75837
 B213 B 0.78358 0.25636 0.75569
 B214 B 0.77305 0.23168 0.72674
 B215 B 0.73996 0.24320 0.71170
 B216 B 0.73106 0.27514 0.73136
 C217 C 0.36952 1.00851 0.27842
 C218 C 0.38372 1.01616 0.30222
 C219 C 0.40012 1.02504 0.33110
 C220 C 0.38616 1.02745 0.36216
 C221 C 0.40254 1.03292 0.39098
 C222 C 0.43289 1.03614 0.38876
 C223 C 0.44666 1.03504 0.35748
 C224 C 0.43028 1.02956 0.32866
 C225 C 0.45023 1.03438 0.41856
 C226 C 0.46474 1.02905 0.44285
 H227 H 0.36283 1.02392 0.36428
 H228 H 0.39177 1.03305 0.41513
 H229 H 0.47020 1.03684 0.35560
 H230 H 0.44126 1.02767 0.30475
 C231 C -0.13049 0.50851 0.77841
 C232 C -0.11629 0.51616 0.80221
 C233 C -0.09990 0.52503 0.83109
 C234 C -0.11386 0.52744 0.86215
 C235 C -0.09749 0.53290 0.89098
 C236 C -0.06713 0.53613 0.88876
 C237 C -0.05336 0.53504 0.85748
 C238 C -0.06974 0.52956 0.82866
 C239 C -0.04980 0.53438 0.91856
 C240 C -0.03528 0.52904 0.94285
 H241 H -0.13719 0.52391 0.86427
 H242 H -0.10825 0.53303 0.91512
 H243 H -0.02982 0.53685 0.85560
 H244 H -0.05875 0.52768 0.80475
 C245 C 0.13046 -0.00853 0.77845
 C246 C 0.11626 -0.01619 0.80224
 C247 C 0.09987 -0.02508 0.83111
 C248 C 0.11382 -0.02750 0.86218
 C249 C 0.09745 -0.03298 0.89100
 C250 C 0.06709 -0.03620 0.88877
 C251 C 0.05332 -0.03510 0.85750
 C252 C 0.06970 -0.02960 0.82868
 C253 C 0.04975 -0.03445 0.91857
 C254 C 0.03524 -0.02912 0.94287
 H255 H 0.13715 -0.02397 0.86430
 H256 H 0.10821 -0.03312 0.91514
 H257 H 0.02979 -0.03690 0.85561
 H258 H 0.05872 -0.02770 0.80477
 C259 C 0.63047 0.49149 0.27844
 C260 C 0.61627 0.48383 0.30224
 C261 C 0.59988 0.47494 0.33112
 C262 C 0.56972 0.47040 0.32869
 C263 C 0.55335 0.46491 0.35751
 C264 C 0.56712 0.46381 0.38879
 C265 C 0.59747 0.46705 0.39100
 C266 C 0.61385 0.47253 0.36218
 C267 C 0.54978 0.46556 0.41858
 C268 C 0.53527 0.47089 0.44288
 H269 H 0.55874 0.47229 0.30478
 H270 H 0.52981 0.46310 0.35563
 H271 H 0.60824 0.46692 0.41515
 H272 H 0.63717 0.47607 0.36430
 C273 C 0.63045 0.50854 0.22159
 C274 C 0.61625 0.51621 0.19780
 C275 C 0.59985 0.52510 0.16893
 C276 C 0.56969 0.52962 0.17137
 C277 C 0.55331 0.53512 0.14256
 C278 C 0.56707 0.53623 0.11128
 C279 C 0.59743 0.53301 0.10905
 C280 C 0.61381 0.52753 0.13787
 C281 C 0.54973 0.53448 0.08148
 C282 C 0.53522 0.52915 0.05719
 H283 H 0.55871 0.52772 0.19529
 H284 H 0.52977 0.53691 0.14444
 H285 H 0.60819 0.53316 0.08490
 H286 H 0.63713 0.52401 0.13574
 C287 C 0.13046 1.00853 0.72160
 C288 C 0.11627 1.01619 0.69780
 C289 C 0.09987 1.02509 0.66893
 C290 C 0.06971 1.02962 0.67137
 C291 C 0.05333 1.03512 0.64254
 C292 C 0.06710 1.03622 0.61127
 C293 C 0.09745 1.03298 0.60904
 C294 C 0.11383 1.02750 0.63786
 C295 C 0.04976 1.03447 0.58147
 C296 C 0.03525 1.02914 0.55717
 H297 H 0.05873 1.02773 0.69528
 H298 H 0.02980 1.03693 0.64443
 H299 H 0.10822 1.03311 0.58490
 H300 H 0.13716 1.02397 0.63574
 C301 C -0.13049 0.49149 0.72154
 C302 C -0.11629 0.48385 0.69774
 C303 C -0.09989 0.47497 0.66886
 C304 C -0.11385 0.47256 0.63780
 C305 C -0.09748 0.46710 0.60897
 C306 C -0.06712 0.46388 0.61119
 C307 C -0.05335 0.46497 0.64247
 C308 C -0.06973 0.47045 0.67129
 C309 C -0.04979 0.46564 0.58140
 C310 C -0.03528 0.47097 0.55710
 H311 H -0.13718 0.47609 0.63568
 H312 H -0.10824 0.46697 0.58483
 H313 H -0.02981 0.46317 0.64435
 H314 H -0.05875 0.47234 0.69520
 C315 C 0.36951 -0.00850 0.22156
 C316 C 0.38370 -0.01615 0.19775
 C317 C 0.40009 -0.02502 0.16887
 C318 C 0.38613 -0.02742 0.13780
 C319 C 0.40250 -0.03288 0.10898
 C320 C 0.43285 -0.03611 0.11119
 C321 C 0.44663 -0.03503 0.14247
 C322 C 0.43025 -0.02955 0.17130
 C323 C 0.45019 -0.03435 0.08140
 C324 C 0.46470 -0.02902 0.05710
 H325 H 0.36280 -0.02388 0.13569
 H326 H 0.39173 -0.03300 0.08483
 H327 H 0.47017 -0.03684 0.14435
 H328 H 0.44124 -0.02767 0.19521
 C329 C 0.27496 0.41681 0.00911
 C330 C 0.29680 0.43047 0.01504
 C331 C 0.32407 0.44517 0.02005
 C332 C 0.34455 0.43366 0.04250
 C333 C 0.37290 0.44491 0.04337
 C334 C 0.38076 0.46766 0.02178
 C335 C 0.36000 0.47985 0.00018
 C336 C 0.33167 0.46861 -0.00069
 C337 C 0.41067 0.47658 0.01927
 C338 C 0.43575 0.48352 0.01556
 H339 H 0.33897 0.41524 0.05826
 H340 H 0.38894 0.43516 0.05988
 H341 H 0.36602 0.49723 -0.01687
 H342 H 0.31610 0.47733 -0.01849
 C343 C -0.22501 0.91680 0.50913
 C344 C -0.20318 0.93045 0.51506
 C345 C -0.17590 0.94516 0.52008
 C346 C -0.15540 0.93361 0.54248
 C347 C -0.12705 0.94486 0.54335
 C348 C -0.11921 0.96764 0.52180
 C349 C -0.13999 0.97987 0.50025
 C350 C -0.16832 0.96862 0.49938
 C351 C -0.08931 0.97656 0.51929
 C352 C -0.06422 0.98351 0.51556
 H353 H -0.16097 0.91516 0.55821
 H354 H -0.11100 0.93508 0.55982
 H355 H -0.13398 0.99728 0.48323
 H356 H -0.18390 0.97738 0.48162
 C357 C -0.22503 0.08318 0.99091
 C358 C -0.20319 0.06952 0.98499
 C359 C -0.17591 0.05482 0.97999
 C360 C -0.16830 0.03140 1.00075
 C361 C -0.13997 0.02017 0.99988
 C362 C -0.11921 0.03235 0.97828
 C363 C -0.12708 0.05508 0.95666
 C364 C -0.15544 0.06632 0.95753
 C365 C -0.08931 0.02344 0.98078
 C366 C -0.06422 0.01650 0.98450
 H367 H -0.18387 0.02268 1.01856
 H368 H -0.13394 0.00280 1.01695
 H369 H -0.11105 0.06483 0.94014
 H370 H -0.16102 0.08474 0.94175
 C371 C 0.27499 0.58318 0.49089
 C372 C 0.29683 0.56953 0.48497
 C373 C 0.32412 0.55484 0.47997
 C374 C 0.33171 0.53140 0.50070
 C375 C 0.36004 0.52016 0.49984
 C376 C 0.38081 0.53237 0.47826
 C377 C 0.37296 0.55512 0.45668
 C378 C 0.34460 0.56636 0.45754
 C379 C 0.41072 0.52346 0.48078
 C380 C 0.43581 0.51651 0.48450
 H381 H 0.31614 0.52265 0.51848
 H382 H 0.36606 0.50277 0.51688
 H383 H 0.38900 0.56489 0.44019
 H384 H 0.33903 0.58480 0.44179
 C385 C 0.22503 0.58320 0.50908
 C386 C 0.20318 0.56957 0.51500
 C387 C 0.17589 0.55488 0.52001
 C388 C 0.15540 0.56645 0.54241
 C389 C 0.12704 0.55522 0.54327
 C390 C 0.11918 0.53244 0.52172
 C391 C 0.13996 0.52020 0.50018
 C392 C 0.16829 0.53142 0.49931
 C393 C 0.08928 0.52354 0.51920
 C394 C 0.06419 0.51660 0.51548
 H395 H 0.16097 0.58490 0.55813
 H396 H 0.11099 0.56501 0.55974
 H397 H 0.13394 0.50279 0.48316
 H398 H 0.18387 0.52265 0.48155
 C399 C 0.72501 0.08321 0.00909
 C400 C 0.70316 0.06958 0.01502
 C401 C 0.67587 0.05490 0.02004
 C402 C 0.65536 0.06649 0.04240
 C403 C 0.62700 0.05526 0.04326
 C404 C 0.61916 0.03246 0.02174
 C405 C 0.63994 0.02019 0.00023
 C406 C 0.66828 0.03141 -0.00063
 C407 C 0.58925 0.02355 0.01922
 C408 C 0.56417 0.01661 0.01549
 H409 H 0.66093 0.08496 0.05810
 H410 H 0.61095 0.06507 0.05970
 H411 H 0.63394 0.00276 -0.01676
 H412 H 0.68387 0.02262 -0.01837
 C413 C 0.72503 0.91679 0.49092
 C414 C 0.70319 0.93042 0.48498
 C415 C 0.67590 0.94511 0.47996
 C416 C 0.66832 0.96860 0.50062
 C417 C 0.63999 0.97983 0.49975
 C418 C 0.61920 0.96757 0.47824
 C419 C 0.62705 0.94477 0.45671
 C420 C 0.65540 0.93353 0.45758
 C421 C 0.58930 0.97648 0.48075
 C422 C 0.56421 0.98343 0.48447
 H423 H 0.68390 0.97738 0.51837
 H424 H 0.63398 0.99726 0.51675
 H425 H 0.61099 0.93496 0.44026
 H426 H 0.66097 0.91506 0.44188
 C427 C 0.22501 0.41678 0.99090
 C428 C 0.20316 0.43041 0.98496
 C429 C 0.17587 0.44510 0.97993
 C430 C 0.16830 0.46860 1.00058
 C431 C 0.13996 0.47983 0.99971
 C432 C 0.11917 0.46756 0.97822
 C433 C 0.12701 0.44474 0.95671
 C434 C 0.15536 0.43350 0.95758
 C435 C 0.08927 0.47647 0.98074
 C436 C 0.06418 0.48341 0.98446
 H437 H 0.18389 0.47739 1.01831
 H438 H 0.13396 0.49727 1.01670
 H439 H 0.11095 0.43492 0.94028
 H440 H 0.16093 0.41502 0.94189
 C441 C -0.00384 0.27618 0.39612
 C442 C -0.00685 0.29813 0.41267
 C443 C -0.01010 0.32493 0.43153
 C444 C 0.01112 0.33308 0.45505
 C445 C 0.00929 0.36017 0.47126
 C446 C -0.01380 0.37933 0.46416
 C447 C -0.03540 0.37088 0.44124
 C448 C -0.03357 0.34378 0.42503
 C449 C -0.01344 0.40872 0.47742
 C450 C -0.01163 0.43384 0.48655
 H451 H 0.02947 0.31885 0.46020
 H452 H 0.02636 0.36654 0.48855
 H453 H -0.05316 0.38559 0.43515
 H454 H -0.05005 0.33787 0.40679
 C455 C 0.49615 -0.22382 -0.10388
 C456 C 0.49314 -0.20186 -0.08733
 C457 C 0.48990 -0.17506 -0.06847
 C458 C 0.46641 -0.15621 -0.07496
 C459 C 0.46458 -0.12912 -0.05875
 C460 C 0.48619 -0.12066 -0.03584
 C461 C 0.50928 -0.13982 -0.02875
 C462 C 0.51111 -0.16691 -0.04496
 C463 C 0.48654 -0.09127 -0.02258
 C464 C 0.48835 -0.06615 -0.01344
 H465 H 0.44994 -0.16213 -0.09320
 H466 H 0.44682 -0.11441 -0.06483
 H467 H 0.52636 -0.13345 -0.01146
 H468 H 0.52947 -0.18114 -0.03981
 C469 C 0.00383 -0.22391 1.10388
 C470 C 0.00684 -0.20196 1.08732
 C471 C 0.01008 -0.17517 1.06845
 C472 C -0.01115 -0.16700 1.04496
 C473 C -0.00933 -0.13992 1.02875
 C474 C 0.01377 -0.12077 1.03581
 C475 C 0.03539 -0.12922 1.05870
 C476 C 0.03357 -0.15632 1.07492
 C477 C 0.01342 -0.09137 1.02255
 C478 C 0.01160 -0.06625 1.01342
 H479 H -0.02952 -0.18123 1.03983
 H480 H -0.02641 -0.13354 1.01148
 H481 H 0.05316 -0.11452 1.06477
 H482 H 0.05006 -0.16224 1.09314
 C483 C 0.50385 0.27610 0.60388
 C484 C 0.50685 0.29805 0.58733
 C485 C 0.51009 0.32484 0.56846
 C486 C 0.53358 0.34369 0.57494
 C487 C 0.53541 0.37079 0.55872
 C488 C 0.51379 0.37924 0.53582
 C489 C 0.49069 0.36009 0.52875
 C490 C 0.48887 0.33301 0.54496
 C491 C 0.51344 0.40864 0.52257
 C492 C 0.51163 0.43376 0.51343
 H493 H 0.55007 0.33778 0.59316
 H494 H 0.55317 0.38549 0.56479
 H495 H 0.47361 0.36647 0.51147
 H496 H 0.47050 0.31878 0.53983
 C497 C 0.49620 1.22383 0.60388
 C498 C 0.49319 1.20188 0.58732
 C499 C 0.48994 1.17509 0.56845
 C500 C 0.46645 1.15624 0.57493
 C501 C 0.46462 1.12915 0.55871
 C502 C 0.48623 1.12069 0.53580
 C503 C 0.50933 1.13985 0.52872
 C504 C 0.51116 1.16693 0.54494
 C505 C 0.48658 1.09130 0.52254
 C506 C 0.48839 1.06618 0.51340
 H507 H 0.44998 1.16215 0.59317
 H508 H 0.44686 1.11444 0.56479
 H509 H 0.52640 1.13348 0.51143
 H510 H 0.52952 1.18116 0.53979
 C511 C -0.00381 0.72382 1.10388
 C512 C -0.00682 0.70187 1.08732
 C513 C -0.01007 0.67508 1.06845
 C514 C 0.01114 0.66692 1.04494
 C515 C 0.00931 0.63984 1.02872
 C516 C -0.01379 0.62068 1.03580
 C517 C -0.03539 0.62914 1.05872
 C518 C -0.03356 0.65623 1.07494
 C519 C -0.01344 0.59129 1.02254
 C520 C -0.01163 0.56617 1.01340
 H521 H 0.02950 0.68115 1.03979
 H522 H 0.02638 0.63347 1.01143
 H523 H -0.05315 0.61443 1.06480
 H524 H -0.05003 0.66214 1.09317
 C525 C 0.50379 0.72392 -0.10386
 C526 C 0.50680 0.70197 -0.08730
 C527 C 0.51004 0.67518 -0.06842
 C528 C 0.48881 0.66702 -0.04493
 C529 C 0.49064 0.63994 -0.02871
 C530 C 0.51374 0.62079 -0.03577
 C531 C 0.53536 0.62924 -0.05867
 C532 C 0.53353 0.65633 -0.07489
 C533 C 0.51339 0.59140 -0.02251
 C534 C 0.51158 0.56628 -0.01336
 H535 H 0.47045 0.68125 -0.03980
 H536 H 0.47356 0.63357 -0.01143
 H537 H 0.55313 0.61454 -0.06473
 H538 H 0.55002 0.66225 -0.09312
 C539 C 0.00380 1.22391 0.39613
 C540 C 0.00681 1.20196 0.41269
 C541 C 0.01005 1.17517 0.43157
 C542 C -0.01117 1.16701 0.45507
 C543 C -0.00934 1.13993 0.47129
 C544 C 0.01376 1.12078 0.46422
 C545 C 0.03537 1.12923 0.44132
 C546 C 0.03355 1.15633 0.42510
 C547 C 0.01341 1.09139 0.47748
 C548 C 0.01160 1.06627 0.48663
 H549 H -0.02954 1.18124 0.46020
 H550 H -0.02642 1.13356 0.48856
 H551 H 0.05314 1.11453 0.43525
 H552 H 0.05003 1.16224 0.40687
 C553 C 0.75852 0.61953 0.97160
 C554 C 0.76617 0.63372 0.94780
 C555 C 0.77506 0.65012 0.91893
 C556 C 0.77747 0.63616 0.88786
 C557 C 0.78294 0.65253 0.85904
 C558 C 0.78617 0.68289 0.86126
 C559 C 0.78507 0.69666 0.89254
 C560 C 0.77958 0.68028 0.92136
 C561 C 0.78441 0.70022 0.83146
 C562 C 0.77908 0.71474 0.80717
 H563 H 0.77394 0.61283 0.88574
 H564 H 0.78307 0.64177 0.83489
 H565 H 0.78687 0.72019 0.89442
 H566 H 0.77769 0.69126 0.94527
 C567 C 0.25853 0.11953 0.47160
 C568 C 0.26619 0.13373 0.44780
 C569 C 0.27507 0.15013 0.41893
 C570 C 0.27958 0.18029 0.42136
 C571 C 0.28507 0.19668 0.39254
 C572 C 0.28618 0.18291 0.36127
 C573 C 0.28296 0.15256 0.35904
 C574 C 0.27749 0.13618 0.38786
 C575 C 0.28442 0.20025 0.33147
 C576 C 0.27908 0.21476 0.30717
 H577 H 0.27769 0.19127 0.44528
 H578 H 0.28687 0.22021 0.39443
 H579 H 0.28310 0.14179 0.33489
 H580 H 0.27397 0.11285 0.38574
 C581 C 0.74149 0.38047 0.47155
 C582 C 0.73383 0.36627 0.44774
 C583 C 0.72494 0.34989 0.41887
 C584 C 0.72253 0.36385 0.38780
 C585 C 0.71706 0.34748 0.35898
 C586 C 0.71382 0.31713 0.36120
 C587 C 0.71492 0.30335 0.39247
 C588 C 0.72041 0.31972 0.42130
 C589 C 0.71558 0.29979 0.33140
 C590 C 0.72091 0.28528 0.30710
 H591 H 0.72607 0.38717 0.38569
 H592 H 0.71693 0.35825 0.33484
 H593 H 0.71311 0.27981 0.39435
 H594 H 0.72230 0.30874 0.44521
 C595 C 0.24148 0.88046 0.97154
 C596 C 0.23382 0.86626 0.94775
 C597 C 0.22493 0.84987 0.91887
 C598 C 0.22252 0.86383 0.88781
 C599 C 0.21704 0.84745 0.85899
 C600 C 0.21382 0.81710 0.86121
 C601 C 0.21492 0.80333 0.89248
 C602 C 0.22041 0.81971 0.92131
 C603 C 0.21557 0.79976 0.83141
 C604 C 0.22090 0.78526 0.80711
 H605 H 0.22605 0.88716 0.88569
 H606 H 0.21691 0.85822 0.83484
 H607 H 0.21311 0.77979 0.89437
 H608 H 0.22230 0.80873 0.94522
 C609 C 0.25853 0.88046 0.02840
 C610 C 0.26620 0.86626 0.05219
 C611 C 0.27509 0.84987 0.08106
 C612 C 0.27751 0.86382 0.11213
 C613 C 0.28298 0.84744 0.14095
 C614 C 0.28621 0.81709 0.13872
 C615 C 0.28511 0.80332 0.10744
 C616 C 0.27962 0.81970 0.07862
 C617 C 0.28446 0.79975 0.16852
 C618 C 0.27913 0.78524 0.19281
 H619 H 0.27397 0.88715 0.11425
 H620 H 0.28312 0.85821 0.16510
 H621 H 0.28692 0.77979 0.10556
 H622 H 0.27773 0.80872 0.05471
 C623 C 0.75854 0.38045 0.52840
 C624 C 0.76621 0.36625 0.55219
 C625 C 0.77510 0.34985 0.58106
 C626 C 0.77962 0.31969 0.57862
 C627 C 0.78511 0.30330 0.60743
 C628 C 0.78622 0.31707 0.63871
 C629 C 0.78300 0.34742 0.64094
 C630 C 0.77753 0.36380 0.61212
 C631 C 0.78447 0.29973 0.66851
 C632 C 0.77914 0.28522 0.69281
 H633 H 0.77771 0.30871 0.55470
 H634 H 0.78690 0.27977 0.60555
 H635 H 0.78315 0.35819 0.66509
 H636 H 0.77400 0.38713 0.61425
 C637 C 0.24150 0.11952 0.52846
 C638 C 0.23385 0.13371 0.55226
 C639 C 0.22498 0.15010 0.58114
 C640 C 0.22258 0.13614 0.61221
 C641 C 0.21711 0.15251 0.64103
 C642 C 0.21387 0.18286 0.63882
 C643 C 0.21496 0.19663 0.60754
 C644 C 0.22044 0.18026 0.57872
 C645 C 0.21563 0.20019 0.66862
 C646 C 0.22097 0.21470 0.69292
 H647 H 0.22611 0.11281 0.61432
 H648 H 0.21699 0.14174 0.66518
 H649 H 0.21315 0.22017 0.60567
 H650 H 0.22232 0.19125 0.55481
 C651 C 0.74149 0.61953 0.02846
 C652 C 0.73384 0.63373 0.05226
 C653 C 0.72496 0.65012 0.08114
 C654 C 0.72044 0.68028 0.07871
 C655 C 0.71496 0.69665 0.10754
 C656 C 0.71386 0.68288 0.13881
 C657 C 0.71709 0.65253 0.14103
 C658 C 0.72256 0.63616 0.11221
 C659 C 0.71562 0.70022 0.16861
 C660 C 0.72096 0.71473 0.19291
 H661 H 0.72233 0.69126 0.05480
 H662 H 0.71316 0.72019 0.10566
 H663 H 0.71696 0.64176 0.16518
 H664 H 0.72609 0.61283 0.11432
 C665 C 0.16680 0.52498 0.24087
 C666 C 0.18045 0.54682 0.23494
 C667 C 0.19515 0.57410 0.22992
 C668 C 0.18360 0.59459 0.20752
 C669 C 0.19485 0.62294 0.20665
 C670 C 0.21764 0.63079 0.22819
 C671 C 0.22987 0.61000 0.24973
 C672 C 0.21863 0.58168 0.25060
 C673 C 0.22656 0.66069 0.23071
 C674 C 0.23351 0.68577 0.23443
 H675 H 0.16514 0.58903 0.19180
 H676 H 0.18506 0.63900 0.19019
 H677 H 0.24729 0.61601 0.26675
 H678 H 0.22739 0.56609 0.26836
 C679 C 0.66681 0.02496 0.74090
 C680 C 0.68047 0.04680 0.73497
 C681 C 0.69518 0.07407 0.72996
 C682 C 0.71861 0.08167 0.75069
 C683 C 0.72985 0.11000 0.74982
 C684 C 0.71766 0.13076 0.72823
 C685 C 0.69491 0.12290 0.70664
 C686 C 0.68366 0.09455 0.70751
 C687 C 0.72657 0.16067 0.73073
 C688 C 0.73351 0.18575 0.73444
 H689 H 0.72734 0.06611 0.76850
 H690 H 0.74724 0.11602 0.76687
 H691 H 0.68515 0.13894 0.69013
 H692 H 0.66523 0.08897 0.69175
 C693 C 0.83318 0.02499 0.25910
 C694 C 0.81953 0.04684 0.26502
 C695 C 0.80484 0.07412 0.27001
 C696 C 0.81635 0.09460 0.29246
 C697 C 0.80512 0.12296 0.29332
 C698 C 0.78238 0.13082 0.27171
 C699 C 0.77019 0.11006 0.25012
 C700 C 0.78142 0.08173 0.24926
 C701 C 0.77348 0.16073 0.26920
 C702 C 0.76654 0.18582 0.26548
 H703 H 0.83477 0.08901 0.30823
 H704 H 0.81487 0.13899 0.30983
 H705 H 0.75281 0.11609 0.23306
 H706 H 0.77268 0.06616 0.23146
 C707 C 0.33317 0.52497 0.75908
 C708 C 0.31952 0.54681 0.76500
 C709 C 0.30482 0.57410 0.76999
 C710 C 0.28142 0.58172 0.74921
 C711 C 0.27020 0.61005 0.75007
 C712 C 0.28237 0.63080 0.77170
 C713 C 0.30508 0.62292 0.79333
 C714 C 0.31631 0.59456 0.79247
 C715 C 0.27346 0.66071 0.76919
 C716 C 0.26653 0.68580 0.76548
 H717 H 0.27271 0.56616 0.73139
 H718 H 0.25284 0.61609 0.73299
 H719 H 0.31482 0.63894 0.80986
 H720 H 0.33471 0.58897 0.80826
 C721 C 0.33319 0.47501 0.74091
 C722 C 0.31955 0.45316 0.73499
 C723 C 0.30487 0.42587 0.72999
 C724 C 0.28141 0.41827 0.75069
 C725 C 0.27019 0.38993 0.74984
 C726 C 0.28243 0.36916 0.72829
 C727 C 0.30520 0.37702 0.70673
 C728 C 0.31643 0.40538 0.70758
 C729 C 0.27353 0.33925 0.73081
 C730 C 0.26659 0.31417 0.73453
 H731 H 0.27265 0.43385 0.76846
 H732 H 0.25279 0.38391 0.76686
 H733 H 0.31498 0.36097 0.69025
 H734 H 0.33487 0.41096 0.69185
 C735 C 0.83318 0.97503 0.24093
 C736 C 0.81955 0.95318 0.23501
 C737 C 0.80486 0.92589 0.23001
 C738 C 0.81640 0.90541 0.20758
 C739 C 0.80517 0.87705 0.20672
 C740 C 0.78242 0.86918 0.22831
 C741 C 0.77021 0.88995 0.24988
 C742 C 0.78143 0.91828 0.25074
 C743 C 0.77352 0.83928 0.23082
 C744 C 0.76659 0.81419 0.23454
 H745 H 0.83483 0.91100 0.19183
 H746 H 0.81494 0.86101 0.19023
 H747 H 0.75282 0.88392 0.26693
 H748 H 0.77268 0.93385 0.26853
 C749 C 0.66679 0.97501 0.75912
 C750 C 0.68043 0.95317 0.76506
 C751 C 0.69511 0.92589 0.77009
 C752 C 0.71862 0.91831 0.74944
 C753 C 0.72985 0.88998 0.75031
 C754 C 0.71758 0.86919 0.77181
 C755 C 0.69476 0.87702 0.79331
 C756 C 0.68352 0.90538 0.79245
 C757 C 0.72650 0.83929 0.76929
 C758 C 0.73345 0.81420 0.76556
 H759 H 0.72741 0.93390 0.73171
 H760 H 0.74729 0.88398 0.73332
 H761 H 0.68495 0.86096 0.80975
 H762 H 0.66504 0.91093 0.80813
 C763 C 0.16680 0.47503 0.25909
 C764 C 0.18044 0.45319 0.26503
 C765 C 0.19513 0.42591 0.27005
 C766 C 0.21860 0.41832 0.24935
 C767 C 0.22983 0.38998 0.25022
 C768 C 0.21760 0.36921 0.27177
 C769 C 0.19482 0.37706 0.29332
 C770 C 0.18358 0.40542 0.29245
 C771 C 0.22651 0.33931 0.26926
 C772 C 0.23345 0.31422 0.26554
 H773 H 0.22736 0.43389 0.23158
 H774 H 0.24724 0.38397 0.23320
 H775 H 0.18504 0.36102 0.30980
 H776 H 0.16513 0.41099 0.30818
 C777 C 0.02617 0.24613 0.85390
 C778 C 0.04813 0.24312 0.83735
 C779 C 0.07492 0.23988 0.81849
 C780 C 0.08307 0.26107 0.79495
 C781 C 0.11015 0.25924 0.77874
 C782 C 0.12933 0.23617 0.78586
 C783 C 0.12089 0.21459 0.80881
 C784 C 0.09379 0.21641 0.82502
 C785 C 0.15872 0.23653 0.77261
 C786 C 0.18384 0.23834 0.76347
 H787 H 0.06882 0.27942 0.78978
 H788 H 0.11651 0.27630 0.76143
 H789 H 0.13561 0.19684 0.81491
 H790 H 0.08789 0.19995 0.84328
 C791 C 0.52616 0.74615 0.35390
 C792 C 0.54812 0.74314 0.33735
 C793 C 0.57492 0.73989 0.31848
 C794 C 0.58307 0.76111 0.29497
 C795 C 0.61016 0.75928 0.27876
 C796 C 0.62932 0.73619 0.28585
 C797 C 0.62087 0.71459 0.30876
 C798 C 0.59377 0.71641 0.32498
 C799 C 0.65871 0.73655 0.27260
 C800 C 0.68383 0.73836 0.26346
 H801 H 0.56884 0.77947 0.28982
 H802 H 0.61653 0.77636 0.26147
 H803 H 0.63558 0.69683 0.31485
 H804 H 0.58786 0.69994 0.34322
 C805 C 0.52611 0.25386 0.14610
 C806 C 0.54807 0.25687 0.16266
 C807 C 0.57487 0.26011 0.18152
 C808 C 0.58302 0.23889 0.20503
 C809 C 0.61011 0.24071 0.22124
 C810 C 0.62927 0.26380 0.21415
 C811 C 0.62082 0.28542 0.19125
 C812 C 0.59372 0.28359 0.17503
 C813 C 0.65866 0.26345 0.22741
 C814 C 0.68378 0.26164 0.23655
 H815 H 0.56879 0.22053 0.21017
 H816 H 0.61648 0.22364 0.23852
 H817 H 0.63552 0.30318 0.18517
 H818 H 0.58781 0.30007 0.15680
 C819 C 0.02611 0.75385 0.64611
 C820 C 0.04807 0.75686 0.66266
 C821 C 0.07486 0.76010 0.68153
 C822 C 0.08301 0.73888 0.70504
 C823 C 0.11010 0.74070 0.72125
 C824 C 0.12926 0.76379 0.71416
 C825 C 0.12081 0.78540 0.69125
 C826 C 0.09371 0.78358 0.67504
 C827 C 0.15866 0.76344 0.72742
 C828 C 0.18378 0.76162 0.73656
 H829 H 0.06878 0.72052 0.71018
 H830 H 0.11647 0.72363 0.73853
 H831 H 0.13552 0.80316 0.68517
 H832 H 0.08780 0.80006 0.65680
 C833 C 0.97384 0.74621 0.64611
 C834 C 0.95189 0.74319 0.66268
 C835 C 0.92510 0.73994 0.68155
 C836 C 0.91695 0.76116 0.70507
 C837 C 0.88987 0.75932 0.72129
 C838 C 0.87071 0.73623 0.71421
 C839 C 0.87916 0.71463 0.69129
 C840 C 0.90625 0.71646 0.67506
 C841 C 0.84132 0.73658 0.72747
 C842 C 0.81620 0.73839 0.73662
 H843 H 0.93118 0.77951 0.71021
 H844 H 0.88350 0.77639 0.73858
 H845 H 0.86445 0.69687 0.68521
 H846 H 0.91216 0.69999 0.65682
 C847 C 0.47385 0.24622 0.14612
 C848 C 0.45190 0.24320 0.16268
 C849 C 0.42511 0.23995 0.18155
 C850 C 0.41696 0.26116 0.20507
 C851 C 0.38988 0.25933 0.22130
 C852 C 0.37072 0.23624 0.21421
 C853 C 0.37916 0.21464 0.19129
 C854 C 0.40626 0.21647 0.17506
 C855 C 0.34133 0.23659 0.22748
 C856 C 0.31621 0.23840 0.23662
 H857 H 0.43119 0.27952 0.21022
 H858 H 0.38351 0.27640 0.23859
 H859 H 0.36446 0.19688 0.18521
 H860 H 0.41216 0.20000 0.15682
 C861 C 0.47390 0.75379 0.35388
 C862 C 0.45195 0.75680 0.33732
 C863 C 0.42516 0.76004 0.31844
 C864 C 0.41701 0.73882 0.29493
 C865 C 0.38993 0.74066 0.27871
 C866 C 0.37077 0.76375 0.28578
 C867 C 0.37922 0.78536 0.30869
 C868 C 0.40631 0.78353 0.32492
 C869 C 0.34138 0.76340 0.27251
 C870 C 0.31626 0.76159 0.26337
 H871 H 0.43124 0.72046 0.28980
 H872 H 0.38356 0.72358 0.26142
 H873 H 0.36451 0.80312 0.31476
 H874 H 0.41222 0.80001 0.34315
 C875 C 0.97390 0.25377 0.85388
 C876 C 0.95195 0.25679 0.83731
 C877 C 0.92517 0.26003 0.81843
 C878 C 0.90632 0.28352 0.82491
 C879 C 0.87923 0.28535 0.80868
 C880 C 0.87078 0.26374 0.78577
 C881 C 0.88993 0.24064 0.77870
 C882 C 0.91701 0.23881 0.79493
 C883 C 0.84138 0.26339 0.77250
 C884 C 0.81627 0.26158 0.76336
 H885 H 0.91223 0.30000 0.84314
 H886 H 0.86452 0.30311 0.81475
 H887 H 0.88356 0.22357 0.76142
 H888 H 0.93124 0.22045 0.78979
 C889 C 0.63047 0.99147 0.72157
 C890 C 0.61627 0.98382 0.69777
 C891 C 0.59988 0.97493 0.66890
 C892 C 0.56972 0.97040 0.67133
 C893 C 0.55335 0.96490 0.64250
 C894 C 0.56712 0.96381 0.61123
 C895 C 0.59747 0.96705 0.60901
 C896 C 0.61385 0.97252 0.63783
 C897 C 0.54978 0.96556 0.58143
 C898 C 0.53527 0.97089 0.55713
 H899 H 0.55874 0.97228 0.69524
 H900 H 0.52981 0.96309 0.64439
 H901 H 0.60824 0.96692 0.58486
 H902 H 0.63717 0.97606 0.63571
 C903 C 0.13046 0.49148 1.22155
 C904 C 0.11626 0.48382 1.19776
 C905 C 0.09987 0.47493 1.16888
 C906 C 0.06971 0.47040 1.17132
 C907 C 0.05333 0.46490 1.14250
 C908 C 0.06710 0.46380 1.11122
 C909 C 0.09745 0.46704 1.10900
 C910 C 0.11383 0.47251 1.13782
 C911 C 0.04976 0.46555 1.08142
 C912 C 0.03525 0.47088 1.05713
 H913 H 0.05873 0.47229 1.19523
 H914 H 0.02980 0.46310 1.14438
 H915 H 0.10822 0.46690 1.08485
 H916 H 0.13716 0.47605 1.13570
 C917 C -0.13048 0.00852 1.22159
 C918 C -0.11628 0.01617 1.19779
 C919 C -0.09989 0.02504 1.16891
 C920 C -0.06973 0.02956 1.17134
 C921 C -0.05335 0.03504 1.14252
 C922 C -0.06712 0.03614 1.11124
 C923 C -0.09747 0.03292 1.10902
 C924 C -0.11385 0.02745 1.13785
 C925 C -0.04978 0.03438 1.08145
 C926 C -0.03527 0.02904 1.05715
 H927 H -0.05874 0.02768 1.19526
 H928 H -0.02981 0.03684 1.14440
 H929 H -0.10824 0.03305 1.08488
 H930 H -0.13717 0.02393 1.13573
 C931 C 0.36952 0.50851 0.72158
 C932 C 0.38372 0.51616 0.69778
 C933 C 0.40012 0.52504 0.66891
 C934 C 0.43028 0.52956 0.67135
 C935 C 0.44666 0.53504 0.64252
 C936 C 0.43289 0.53614 0.61124
 C937 C 0.40254 0.53292 0.60902
 C938 C 0.38616 0.52745 0.63784
 C939 C 0.45023 0.53439 0.58145
 C940 C 0.46475 0.52905 0.55716
 H941 H 0.44126 0.52767 0.69526
 H942 H 0.47020 0.53684 0.64441
 H943 H 0.39177 0.53305 0.58487
 H944 H 0.36283 0.52392 0.63572
 C945 C 0.36951 0.49149 -0.22156
 C946 C 0.38370 0.48385 -0.19775
 C947 C 0.40009 0.47497 -0.16887
 C948 C 0.38613 0.47258 -0.13780
 C949 C 0.40250 0.46712 -0.10898
 C950 C 0.43286 0.46388 -0.11119
 C951 C 0.44663 0.46496 -0.14247
 C952 C 0.43025 0.47044 -0.17129
 C953 C 0.45019 0.46564 -0.08139
 C954 C 0.46470 0.47098 -0.05709
 H955 H 0.36281 0.47611 -0.13569
 H956 H 0.39173 0.46700 -0.08483
 H957 H 0.47017 0.46316 -0.14434
 H958 H 0.44124 0.47232 -0.19521
 C959 C -0.13049 0.99150 0.27846
 C960 C -0.11629 0.98386 0.30226
 C961 C -0.09990 0.97498 0.33114
 C962 C -0.06974 0.97045 0.32871
 C963 C -0.05336 0.96496 0.35753
 C964 C -0.06713 0.96388 0.38881
 C965 C -0.09748 0.96712 0.39103
 C966 C -0.11386 0.97258 0.36220
 C967 C -0.04979 0.96564 0.41861
 C968 C -0.03528 0.97097 0.44290
 H969 H -0.05875 0.97233 0.30480
 H970 H -0.02982 0.96316 0.35565
 H971 H -0.10825 0.96699 0.41518
 H972 H -0.13718 0.97612 0.36432
 C973 C 0.13046 0.50854 0.27840
 C974 C 0.11626 0.51620 0.30220
 C975 C 0.09987 0.52509 0.33107
 C976 C 0.11383 0.52751 0.36213
 C977 C 0.09745 0.53299 0.39095
 C978 C 0.06710 0.53622 0.38873
 C979 C 0.05333 0.53512 0.35745
 C980 C 0.06971 0.52962 0.32863
 C981 C 0.04976 0.53447 0.41852
 C982 C 0.03524 0.52914 0.44282
 H983 H 0.13715 0.52398 0.36426
 H984 H 0.10821 0.53313 0.41510
 H985 H 0.02979 0.53692 0.35557
 H986 H 0.05873 0.52773 0.30472
 C987 C 0.63046 0.00853 -0.22158
 C988 C 0.61626 0.01620 -0.19778
 C989 C 0.59986 0.02509 -0.16892
 C990 C 0.56970 0.02961 -0.17136
 C991 C 0.55332 0.03511 -0.14254
 C992 C 0.56708 0.03623 -0.11126
 C993 C 0.59744 0.03300 -0.10904
 C994 C 0.61382 0.02752 -0.13785
 C995 C 0.54974 0.03448 -0.08147
 C996 C 0.53523 0.02915 -0.05717
 H997 H 0.55872 0.02771 -0.19527
 H998 H 0.52978 0.03691 -0.14443
 H999 H 0.60820 0.03315 -0.08489
 H1000 H 0.63714 0.02400 -0.13573
 C1001 C 0.72501 0.58320 -0.00906
 C1002 C 0.70316 0.56957 -0.01499
 C1003 C 0.67587 0.55488 -0.01999
 C1004 C 0.66827 0.53144 0.00072
 C1005 C 0.63993 0.52022 -0.00014
 C1006 C 0.61916 0.53244 -0.02170
 C1007 C 0.62702 0.55521 -0.04327
 C1008 C 0.65538 0.56643 -0.04241
 C1009 C 0.58925 0.52354 -0.01919
 C1010 C 0.56417 0.51661 -0.01547
 H1011 H 0.68384 0.52268 0.01850
 H1012 H 0.63391 0.50282 0.01689
 H1013 H 0.61098 0.56499 -0.05975
 H1014 H 0.66097 0.58487 -0.05815
 C1015 C 0.22503 1.08320 0.49092
 C1016 C 0.20318 1.06957 0.48499
 C1017 C 0.17589 1.05489 0.47998
 C1018 C 0.16830 1.03142 0.50067
 C1019 C 0.13996 1.02019 0.49981
 C1020 C 0.11918 1.03244 0.47827
 C1021 C 0.12703 1.05523 0.45673
 C1022 C 0.15539 1.06646 0.45759
 C1023 C 0.08927 1.02354 0.48079
 C1024 C 0.06419 1.01660 0.48452
 H1025 H 0.18388 1.02264 0.51842
 H1026 H 0.13395 1.00278 0.51682
 H1027 H 0.11098 1.06502 0.44027
 H1028 H 0.16096 1.08491 0.44187
 C1029 C 0.22502 -0.08321 1.00908
 C1030 C 0.20317 -0.06958 1.01502
 C1031 C 0.17589 -0.05489 1.02004
 C1032 C 0.15539 -0.06646 1.04242
 C1033 C 0.12703 -0.05523 1.04329
 C1034 C 0.11918 -0.03244 1.02176
 C1035 C 0.13996 -0.02019 1.00023
 C1036 C 0.16830 -0.03141 0.99936
 C1037 C 0.08928 -0.02353 1.01924
 C1038 C 0.06419 -0.01658 1.01552
 H1039 H 0.16096 -0.08492 1.05814
 H1040 H 0.11098 -0.06503 1.05975
 H1041 H 0.13395 -0.00277 0.98322
 H1042 H 0.18388 -0.02264 0.98160
 C1043 C 0.72503 0.41679 0.50909
 C1044 C 0.70319 0.43042 0.51503
 C1045 C 0.67590 0.44511 0.52006
 C1046 C 0.66832 0.46860 0.49940
 C1047 C 0.63999 0.47983 0.50027
 C1048 C 0.61920 0.46757 0.52178
 C1049 C 0.62705 0.44476 0.54330
 C1050 C 0.65540 0.43353 0.54243
 C1051 C 0.58930 0.47649 0.51927
 C1052 C 0.56421 0.48343 0.51554
 H1053 H 0.68391 0.47739 0.48166
 H1054 H 0.63398 0.49727 0.48327
 H1055 H 0.61099 0.43496 0.55975
 H1056 H 0.66097 0.41506 0.55813
 C1057 C -0.22501 0.41680 0.49088
 C1058 C -0.20318 0.43045 0.48495
 C1059 C -0.17590 0.44516 0.47993
 C1060 C -0.16831 0.46861 0.50064
 C1061 C -0.13998 0.47986 0.49977
 C1062 C -0.11921 0.46764 0.47821
 C1063 C -0.12706 0.44487 0.45665
 C1064 C -0.15541 0.43362 0.45752
 C1065 C -0.08931 0.47656 0.48072
 C1066 C -0.06422 0.48351 0.48444
 H1067 H -0.18389 0.47736 0.51842
 H1068 H -0.13397 0.49726 0.51680
 H1069 H -0.11101 0.43510 0.44017
 H1070 H -0.16098 0.41518 0.44178
 C1071 C 0.27497 -0.08320 -0.00913
 C1072 C 0.29681 -0.06955 -0.01506
 C1073 C 0.32409 -0.05484 -0.02008
 C1074 C 0.33167 -0.03137 0.00061
 C1075 C 0.36000 -0.02013 -0.00025
 C1076 C 0.38078 -0.03235 -0.02180
 C1077 C 0.37293 -0.05514 -0.04335
 C1078 C 0.34458 -0.06639 -0.04248
 C1079 C 0.41068 -0.02343 -0.01929
 C1080 C 0.43576 -0.01648 -0.01556
 H1081 H 0.31609 -0.02262 0.01838
 H1082 H 0.36600 -0.00272 0.01677
 H1083 H 0.38898 -0.06492 -0.05982
 H1084 H 0.33902 -0.08484 -0.05821
 C1085 C 0.27499 1.08318 0.50911
 C1086 C 0.29683 1.06953 0.51503
 C1087 C 0.32411 1.05483 0.52003
 C1088 C 0.34460 1.06636 0.54246
 C1089 C 0.37295 1.05512 0.54333
 C1090 C 0.38081 1.03236 0.52174
 C1091 C 0.36004 1.02016 0.50016
 C1092 C 0.33171 1.03140 0.49930
 C1093 C 0.41071 1.02345 0.51923
 C1094 C 0.43580 1.01651 0.51551
 H1095 H 0.33902 1.08479 0.55822
 H1096 H 0.38899 1.06488 0.55982
 H1097 H 0.36606 1.00278 0.48311
 H1098 H 0.31614 1.02266 0.48151
 C1099 C -0.22503 0.58318 1.00912
 C1100 C -0.20319 0.56953 1.01505
 C1101 C -0.17591 0.55484 1.02006
 C1102 C -0.16832 0.53138 0.99935
 C1103 C -0.13999 0.52014 1.00021
 C1104 C -0.11921 0.53236 1.02176
 C1105 C -0.12706 0.55514 1.04332
 C1106 C -0.15541 0.56638 1.04246
 C1107 C -0.08931 0.52345 1.01924
 C1108 C -0.06422 0.51651 1.01552
 H1109 H -0.18390 0.52263 0.98157
 H1110 H -0.13398 0.50274 0.98318
 H1111 H -0.11101 0.56491 1.05980
 H1112 H -0.16098 0.58482 1.05820
 C1113 C 0.00379 0.72391 0.60387
 C1114 C 0.00680 0.70196 0.58731
 C1115 C 0.01005 0.67517 0.56843
 C1116 C -0.01118 0.66701 0.54493
 C1117 C -0.00935 0.63993 0.52871
 C1118 C 0.01376 0.62078 0.53578
 C1119 C 0.03537 0.62923 0.55868
 C1120 C 0.03354 0.65633 0.57490
 C1121 C 0.01341 0.59139 0.52251
 C1122 C 0.01160 0.56627 0.51337
 H1123 H -0.02954 0.68124 0.53980
 H1124 H -0.02643 0.63356 0.51143
 H1125 H 0.05314 0.61453 0.56474
 H1126 H 0.05002 0.66224 0.59313
 C1127 C 0.50379 0.22392 0.10387
 C1128 C 0.50680 0.20197 0.08730
 C1129 C 0.51004 0.17518 0.06843
 C1130 C 0.48881 0.16702 0.04494
 C1131 C 0.49063 0.13994 0.02872
 C1132 C 0.51374 0.12079 0.03578
 C1133 C 0.53536 0.12924 0.05866
 C1134 C 0.53354 0.15634 0.07489
 C1135 C 0.51339 0.09140 0.02251
 C1136 C 0.51158 0.06628 0.01337
 H1137 H 0.47044 0.18124 0.03981
 H1138 H 0.47355 0.13356 0.01145
 H1139 H 0.55313 0.11454 0.06472
 H1140 H 0.55003 0.16225 0.09311
 C1141 C -0.00380 0.22382 0.89613
 C1142 C -0.00682 0.20187 0.91268
 C1143 C -0.01007 0.17508 0.93155
 C1144 C 0.01114 0.16692 0.95507
 C1145 C 0.00931 0.13984 0.97129
 C1146 C -0.01378 0.12068 0.96420
 C1147 C -0.03539 0.12914 0.94128
 C1148 C -0.03355 0.15623 0.92506
 C1149 C -0.01344 0.09129 0.97746
 C1150 C -0.01163 0.06617 0.98660
 H1151 H 0.02950 0.18115 0.96022
 H1152 H 0.02638 0.13347 0.98858
 H1153 H -0.05315 0.11443 0.93520
 H1154 H -0.05003 0.16214 0.90682
 C1155 C 0.49620 0.72383 0.39613
 C1156 C 0.49319 0.70188 0.41269
 C1157 C 0.48994 0.67509 0.43156
 C1158 C 0.51116 0.66693 0.45506
 C1159 C 0.50933 0.63985 0.47128
 C1160 C 0.48623 0.62070 0.46420
 C1161 C 0.46463 0.62915 0.44129
 C1162 C 0.46646 0.65624 0.42507
 C1163 C 0.48658 0.59130 0.47747
 C1164 C 0.48839 0.56618 0.48661
 H1165 H 0.52952 0.68116 0.46021
 H1166 H 0.52641 0.63348 0.48857
 H1167 H 0.44686 0.61444 0.43522
 H1168 H 0.44998 0.66215 0.40684
 C1169 C 0.50384 0.77610 0.39613
 C1170 C 0.50685 0.79805 0.41268
 C1171 C 0.51009 0.82485 0.43155
 C1172 C 0.53358 0.84369 0.42508
 C1173 C 0.53541 0.87079 0.44130
 C1174 C 0.51379 0.87924 0.46419
 C1175 C 0.49069 0.86009 0.47126
 C1176 C 0.48886 0.83301 0.45505
 C1177 C 0.51344 0.90864 0.47745
 C1178 C 0.51162 0.93376 0.48659
 H1179 H 0.55007 0.83778 0.40686
 H1180 H 0.55317 0.88549 0.43523
 H1181 H 0.47361 0.86647 0.48853
 H1182 H 0.47050 0.81878 0.46018
 C1183 C 0.00384 0.27609 0.89613
 C1184 C 0.00685 0.29804 0.91268
 C1185 C 0.01008 0.32483 0.93155
 C1186 C 0.03357 0.34368 0.92508
 C1187 C 0.03539 0.37078 0.94130
 C1188 C 0.01377 0.37923 0.96419
 C1189 C -0.00933 0.36008 0.97125
 C1190 C -0.01115 0.33300 0.95504
 C1191 C 0.01341 0.40863 0.97745
 C1192 C 0.01160 0.43375 0.98659
 H1193 H 0.05006 0.33777 0.90687
 H1194 H 0.05316 0.38548 0.93524
 H1195 H -0.02642 0.36645 0.98852
 H1196 H -0.02952 0.31877 0.96017
 C1197 C 0.49615 0.27618 0.10388
 C1198 C 0.49314 0.29814 0.08733
 C1199 C 0.48989 0.32494 0.06847
 C1200 C 0.46641 0.34379 0.07498
 C1201 C 0.46458 0.37089 0.05877
 C1202 C 0.48618 0.37934 0.03585
 C1203 C 0.50926 0.36018 0.02874
 C1204 C 0.51110 0.33309 0.04495
 C1205 C 0.48653 0.40873 0.02259
 C1206 C 0.48834 0.43385 0.01345
 H1207 H 0.44995 0.33788 0.09323
 H1208 H 0.44683 0.38560 0.06487
 H1209 H 0.52633 0.36655 0.01144
 H1210 H 0.52945 0.31885 0.03979
 C1211 C -0.00385 0.77617 0.60388
 C1212 C -0.00686 0.79813 0.58733
 C1213 C -0.01010 0.82493 0.56847
 C1214 C -0.03358 0.84378 0.57497
 C1215 C -0.03541 0.87088 0.55875
 C1216 C -0.01380 0.87933 0.53584
 C1217 C 0.00929 0.86017 0.52875
 C1218 C 0.01111 0.83308 0.54496
 C1219 C -0.01345 0.90872 0.52259
 C1220 C -0.01163 0.93384 0.51345
 H1221 H -0.05006 0.83787 0.59320
 H1222 H -0.05316 0.88559 0.56484
 H1223 H 0.02636 0.86654 0.51146
 H1224 H 0.02947 0.81885 0.53981
 C1225 C 0.24148 0.38046 0.02844
 C1226 C 0.23382 0.36627 0.05225
 C1227 C 0.22494 0.34988 0.08113
 C1228 C 0.22253 0.36384 0.11219
 C1229 C 0.21706 0.34747 0.14101
 C1230 C 0.21382 0.31712 0.13880
 C1231 C 0.21492 0.30335 0.10752
 C1232 C 0.22041 0.31972 0.07869
 C1233 C 0.21558 0.29978 0.16859
 C1234 C 0.22091 0.28527 0.19289
 H1235 H 0.22607 0.38717 0.11430
 H1236 H 0.21693 0.35824 0.16516
 H1237 H 0.21311 0.27981 0.10564
 H1238 H 0.22229 0.30874 0.05478
 C1239 C 0.74149 0.88046 0.52846
 C1240 C 0.73383 0.86627 0.55226
 C1241 C 0.72494 0.84988 0.58114
 C1242 C 0.72041 0.81972 0.57870
 C1243 C 0.71492 0.80334 0.60753
 C1244 C 0.71382 0.81711 0.63880
 C1245 C 0.71706 0.84746 0.64102
 C1246 C 0.72253 0.86384 0.61220
 C1247 C 0.71557 0.79978 0.66860
 C1248 C 0.72091 0.78527 0.69290
 H1249 H 0.72231 0.80873 0.55479
 H1250 H 0.71311 0.77980 0.60565
 H1251 H 0.71692 0.85823 0.66517
 H1252 H 0.72606 0.88716 0.61432
 C1253 C 0.25853 0.61953 0.52840
 C1254 C 0.26619 0.63373 0.55220
 C1255 C 0.27507 0.65013 0.58108
 C1256 C 0.27749 0.63617 0.61214
 C1257 C 0.28295 0.65255 0.64096
 C1258 C 0.28617 0.68290 0.63874
 C1259 C 0.28507 0.69667 0.60746
 C1260 C 0.27959 0.68029 0.57864
 C1261 C 0.28441 0.70024 0.66853
 C1262 C 0.27908 0.71475 0.69283
 H1263 H 0.27396 0.61284 0.61426
 H1264 H 0.28309 0.64178 0.66511
 H1265 H 0.28687 0.72021 0.60558
 H1266 H 0.27769 0.69127 0.55473
 C1267 C 0.75852 0.11953 0.02841
 C1268 C 0.76618 0.13374 0.05221
 C1269 C 0.77507 0.15013 0.08108
 C1270 C 0.77958 0.18029 0.07864
 C1271 C 0.78507 0.19668 0.10746
 C1272 C 0.78618 0.18291 0.13874
 C1273 C 0.78296 0.15256 0.14096
 C1274 C 0.77749 0.13618 0.11214
 C1275 C 0.78442 0.20025 0.16853
 C1276 C 0.77909 0.21476 0.19283
 H1277 H 0.77769 0.19127 0.05473
 H1278 H 0.78687 0.22021 0.10557
 H1279 H 0.78310 0.14179 0.16511
 H1280 H 0.77396 0.11285 0.11427
 C1281 C 0.74149 0.11952 0.97155
 C1282 C 0.73385 0.13372 0.94775
 C1283 C 0.72497 0.15010 0.91886
 C1284 C 0.72257 0.13614 0.88780
 C1285 C 0.71711 0.15251 0.85898
 C1286 C 0.71387 0.18286 0.86119
 C1287 C 0.71496 0.19664 0.89246
 C1288 C 0.72044 0.18026 0.92129
 C1289 C 0.71563 0.20020 0.83139
 C1290 C 0.72097 0.21471 0.80709
 H1291 H 0.72611 0.11282 0.88569
 H1292 H 0.71699 0.14174 0.83483
 H1293 H 0.71315 0.22017 0.89434
 H1294 H 0.72232 0.19125 0.94520
 C1295 C 0.24151 0.61952 0.47154
 C1296 C 0.23386 0.63372 0.44774
 C1297 C 0.22498 0.65011 0.41886
 C1298 C 0.22257 0.63614 0.38779
 C1299 C 0.21711 0.65252 0.35897
 C1300 C 0.21387 0.68287 0.36118
 C1301 C 0.21496 0.69664 0.39246
 C1302 C 0.22045 0.68027 0.42129
 C1303 C 0.21563 0.70020 0.33139
 C1304 C 0.22096 0.71471 0.30709
 H1305 H 0.22611 0.61282 0.38568
 H1306 H 0.21698 0.64175 0.33482
 H1307 H 0.21315 0.72018 0.39434
 H1308 H 0.22233 0.69125 0.44520
 C1309 C 0.75854 0.88046 0.47161
 C1310 C 0.76621 0.86625 0.44781
 C1311 C 0.77510 0.84986 0.41894
 C1312 C 0.77752 0.86382 0.38788
 C1313 C 0.78300 0.84744 0.35906
 C1314 C 0.78622 0.81709 0.36128
 C1315 C 0.78511 0.80332 0.39256
 C1316 C 0.77962 0.81970 0.42138
 C1317 C 0.78447 0.79975 0.33149
 C1318 C 0.77913 0.78524 0.30719
 H1319 H 0.77399 0.88714 0.38576
 H1320 H 0.78314 0.85820 0.33491
 H1321 H 0.78691 0.77978 0.39445
 H1322 H 0.77772 0.80872 0.44529
 C1323 C 0.25853 0.38045 0.97159
 C1324 C 0.26619 0.36625 0.94780
 C1325 C 0.27509 0.34986 0.91893
 C1326 C 0.27751 0.36381 0.88787
 C1327 C 0.28299 0.34743 0.85905
 C1328 C 0.28622 0.31708 0.86128
 C1329 C 0.28511 0.30331 0.89256
 C1330 C 0.27961 0.31970 0.92137
 C1331 C 0.28447 0.29974 0.83148
 C1332 C 0.27914 0.28523 0.80719
 H1333 H 0.27398 0.38714 0.88574
 H1334 H 0.28313 0.35820 0.83490
 H1335 H 0.28691 0.27978 0.89444
 H1336 H 0.27771 0.30872 0.94529
 C1337 C 0.83318 0.47501 0.75906
 C1338 C 0.81954 0.45316 0.76498
 C1339 C 0.80486 0.42587 0.76997
 C1340 C 0.81639 0.40540 0.79242
 C1341 C 0.80516 0.37704 0.79328
 C1342 C 0.78242 0.36917 0.77168
 C1343 C 0.77022 0.38992 0.75009
 C1344 C 0.78143 0.41826 0.74923
 C1345 C 0.77352 0.33926 0.76917
 C1346 C 0.76659 0.31417 0.76545
 H1347 H 0.83481 0.41099 0.80818
 H1348 H 0.81493 0.36101 0.80978
 H1349 H 0.75284 0.38389 0.73303
 H1350 H 0.77269 0.43383 0.73143
 C1351 C 0.33318 0.97502 0.25908
 C1352 C 0.31955 0.95317 0.26500
 C1353 C 0.30486 0.92588 0.27001
 C1354 C 0.28142 0.91828 0.24929
 C1355 C 0.27020 0.88994 0.25015
 C1356 C 0.28242 0.86917 0.27171
 C1357 C 0.30518 0.87704 0.29328
 C1358 C 0.31641 0.90539 0.29242
 C1359 C 0.27352 0.83927 0.26919
 C1360 C 0.26659 0.81418 0.26547
 H1361 H 0.27266 0.93385 0.23151
 H1362 H 0.25280 0.88392 0.23311
 H1363 H 0.31496 0.86099 0.30976
 H1364 H 0.33485 0.91098 0.30817
 C1365 C 0.16679 0.97502 0.74092
 C1366 C 0.18044 0.95318 0.73498
 C1367 C 0.19513 0.92590 0.72997
 C1368 C 0.18359 0.90541 0.70755
 C1369 C 0.19483 0.87706 0.70668
 C1370 C 0.21760 0.86920 0.72824
 C1371 C 0.22981 0.88997 0.74981
 C1372 C 0.21858 0.91830 0.75068
 C1373 C 0.22651 0.83930 0.73075
 C1374 C 0.23345 0.81421 0.73446
 H1375 H 0.16515 0.91099 0.69181
 H1376 H 0.18505 0.86102 0.69019
 H1377 H 0.24722 0.88395 0.76684
 H1378 H 0.22733 0.93387 0.76846
 C1379 C 0.66679 0.47503 0.24090
 C1380 C 0.68043 0.45319 0.23496
 C1381 C 0.69512 0.42591 0.22993
 C1382 C 0.68354 0.40541 0.20755
 C1383 C 0.69479 0.37705 0.20668
 C1384 C 0.71759 0.36921 0.22821
 C1385 C 0.72984 0.39000 0.24973
 C1386 C 0.71861 0.41833 0.25060
 C1387 C 0.72651 0.33931 0.23072
 C1388 C 0.73345 0.31422 0.23444
 H1389 H 0.66508 0.41097 0.19185
 H1390 H 0.68499 0.36100 0.19023
 H1391 H 0.74727 0.38399 0.26673
 H1392 H 0.72739 0.43391 0.26835
 C1393 C 0.66680 0.52498 0.25911
 C1394 C 0.68046 0.54682 0.26504
 C1395 C 0.69516 0.57410 0.27006
 C1396 C 0.71861 0.58169 0.24934
 C1397 C 0.72985 0.61002 0.25021
 C1398 C 0.71764 0.63079 0.27178
 C1399 C 0.69487 0.62293 0.29335
 C1400 C 0.68363 0.59458 0.29248
 C1401 C 0.72656 0.66069 0.26928
 C1402 C 0.73350 0.68578 0.26556
 H1403 H 0.72735 0.56612 0.23156
 H1404 H 0.74725 0.61603 0.23318
 H1405 H 0.68511 0.63898 0.30984
 H1406 H 0.66519 0.58901 0.30823
 C1407 C 0.16680 0.02497 0.75913
 C1408 C 0.18045 0.04681 0.76507
 C1409 C 0.19516 0.07408 0.77009
 C1410 C 0.18360 0.09458 0.79249
 C1411 C 0.19485 0.12293 0.79335
 C1412 C 0.21764 0.13077 0.77181
 C1413 C 0.22987 0.10999 0.75027
 C1414 C 0.21863 0.08166 0.74940
 C1415 C 0.22656 0.16067 0.76930
 C1416 C 0.23351 0.18576 0.76557
 H1417 H 0.16514 0.08902 0.80820
 H1418 H 0.18507 0.13898 0.80982
 H1419 H 0.24729 0.11600 0.73326
 H1420 H 0.22739 0.06608 0.73164
 C1421 C 0.33317 0.02498 0.24091
 C1422 C 0.31952 0.04683 0.23500
 C1423 C 0.30483 0.07411 0.23000
 C1424 C 0.28142 0.08172 0.25076
 C1425 C 0.27019 0.11006 0.24990
 C1426 C 0.28238 0.13082 0.22830
 C1427 C 0.30510 0.12294 0.20668
 C1428 C 0.31634 0.09459 0.20754
 C1429 C 0.27347 0.16072 0.23081
 C1430 C 0.26654 0.18581 0.23452
 H1431 H 0.27269 0.06616 0.26857
 H1432 H 0.25282 0.11609 0.26697
 H1433 H 0.31485 0.13897 0.19017
 H1434 H 0.33475 0.08900 0.19177
 C1435 C 0.83317 0.52498 0.74089
 C1436 C 0.81953 0.54682 0.73497
 C1437 C 0.80483 0.57410 0.72997
 C1438 C 0.81637 0.59459 0.70754
 C1439 C 0.80513 0.62295 0.70668
 C1440 C 0.78238 0.63081 0.72827
 C1441 C 0.77017 0.61004 0.74984
 C1442 C 0.78140 0.58170 0.75070
 C1443 C 0.77347 0.66071 0.73078
 C1444 C 0.76653 0.68580 0.73451
 H1445 H 0.83480 0.58901 0.69179
 H1446 H 0.81490 0.63899 0.69019
 H1447 H 0.75278 0.61606 0.76688
 H1448 H 0.77265 0.56613 0.76848
 C1449 C 0.97389 0.75377 0.14612
 C1450 C 0.95194 0.75679 0.16269
 C1451 C 0.92516 0.76004 0.18156
 C1452 C 0.90631 0.78353 0.17508
 C1453 C 0.87922 0.78536 0.19131
 C1454 C 0.87077 0.76375 0.21422
 C1455 C 0.88992 0.74065 0.22130
 C1456 C 0.91700 0.73882 0.20507
 C1457 C 0.84138 0.76340 0.22749
 C1458 C 0.81626 0.76160 0.23664
 H1459 H 0.91222 0.80000 0.15685
 H1460 H 0.86451 0.80312 0.18524
 H1461 H 0.88355 0.72358 0.23859
 H1462 H 0.93123 0.72046 0.21021
 C1463 C 0.47390 0.25378 0.64612
 C1464 C 0.45195 0.25679 0.66269
 C1465 C 0.42516 0.26004 0.68156
 C1466 C 0.40631 0.28352 0.67509
 C1467 C 0.37922 0.28535 0.69131
 C1468 C 0.37078 0.26374 0.71422
 C1469 C 0.38993 0.24065 0.72130
 C1470 C 0.41701 0.23882 0.70507
 C1471 C 0.34138 0.26339 0.72749
 C1472 C 0.31627 0.26158 0.73664
 H1473 H 0.41222 0.30000 0.65685
 H1474 H 0.36451 0.30311 0.68524
 H1475 H 0.38356 0.22357 0.73858
 H1476 H 0.43124 0.22046 0.71021
 C1477 C 0.47384 0.74622 0.85389
 C1478 C 0.45189 0.74320 0.83733
 C1479 C 0.42510 0.73995 0.81845
 C1480 C 0.41695 0.76116 0.79493
 C1481 C 0.38987 0.75932 0.77871
 C1482 C 0.37071 0.73623 0.78580
 C1483 C 0.37916 0.71464 0.80873
 C1484 C 0.40625 0.71647 0.82495
 C1485 C 0.34132 0.73658 0.77253
 C1486 C 0.31620 0.73839 0.76339
 H1487 H 0.43119 0.77951 0.78977
 H1488 H 0.38351 0.77638 0.76140
 H1489 H 0.36445 0.69688 0.81482
 H1490 H 0.41216 0.70000 0.84320
 C1491 C 0.97385 0.24622 0.35388
 C1492 C 0.95190 0.24320 0.33732
 C1493 C 0.92511 0.23996 0.31845
 C1494 C 0.91696 0.26117 0.29493
 C1495 C 0.88988 0.25934 0.27871
 C1496 C 0.87072 0.23625 0.28579
 C1497 C 0.87917 0.21464 0.30871
 C1498 C 0.90626 0.21647 0.32493
 C1499 C 0.84133 0.23660 0.27252
 C1500 C 0.81621 0.23841 0.26338
 H1501 H 0.93119 0.27953 0.28979
 H1502 H 0.88351 0.27641 0.26142
 H1503 H 0.86446 0.19688 0.31479
 H1504 H 0.91217 0.20000 0.34317
 C1505 C 0.02612 0.25386 0.35389
 C1506 C 0.04808 0.25687 0.33734
 C1507 C 0.07487 0.26011 0.31847
 C1508 C 0.08302 0.23889 0.29497
 C1509 C 0.11011 0.24071 0.27875
 C1510 C 0.12927 0.26380 0.28584
 C1511 C 0.12082 0.28541 0.30875
 C1512 C 0.09372 0.28359 0.32496
 C1513 C 0.15866 0.26345 0.27258
 C1514 C 0.18378 0.26163 0.26344
 H1515 H 0.06879 0.22053 0.28982
 H1516 H 0.11648 0.22364 0.26147
 H1517 H 0.13553 0.30317 0.31483
 H1518 H 0.08781 0.30007 0.34319
 C1519 C 0.52611 0.75386 0.85390
 C1520 C 0.54807 0.75687 0.83734
 C1521 C 0.57486 0.76010 0.81848
 C1522 C 0.59371 0.78359 0.82495
 C1523 C 0.62081 0.78541 0.80874
 C1524 C 0.62926 0.76379 0.78584
 C1525 C 0.61011 0.74069 0.77877
 C1526 C 0.58302 0.73887 0.79498
 C1527 C 0.65866 0.76343 0.77258
 C1528 C 0.68378 0.76162 0.76344
 H1529 H 0.58780 0.80007 0.84318
 H1530 H 0.63552 0.80317 0.81481
 H1531 H 0.61648 0.72361 0.76149
 H1532 H 0.56879 0.72051 0.78984
 C1533 C 0.52617 0.24614 0.64611
 C1534 C 0.54813 0.24312 0.66266
 C1535 C 0.57492 0.23988 0.68152
 C1536 C 0.58308 0.26109 0.70504
 C1537 C 0.61016 0.25926 0.72125
 C1538 C 0.62932 0.23617 0.71415
 C1539 C 0.62088 0.21457 0.69123
 C1540 C 0.59378 0.21640 0.67502
 C1541 C 0.65872 0.23653 0.72740
 C1542 C 0.68384 0.23834 0.73654
 H1543 H 0.56884 0.27944 0.71019
 H1544 H 0.61653 0.27633 0.73854
 H1545 H 0.63559 0.19682 0.68514
 H1546 H 0.58787 0.19993 0.65677
 C1547 C 0.02616 0.74613 0.14610
 C1548 C 0.04812 0.74312 0.16265
 C1549 C 0.07491 0.73988 0.18151
 C1550 C 0.08307 0.76110 0.20502
 C1551 C 0.11016 0.75927 0.22123
 C1552 C 0.12932 0.73619 0.21414
 C1553 C 0.12087 0.71458 0.19123
 C1554 C 0.09377 0.71640 0.17502
 C1555 C 0.15871 0.73654 0.22740
 C1556 C 0.18383 0.73835 0.23654
 H1557 H 0.06884 0.77946 0.21017
 H1558 H 0.11653 0.77635 0.23852
 H1559 H 0.13558 0.69682 0.18515
 H1560 H 0.08786 0.69993 0.15679
   
