data_POSCAR
  _audit_creation_date              2014-09-24
  _audit_creation_method            'ToBaCCo'
  _symmetry_space_group_name_H-M    'P1'
  _symmetry_Int_Tables_number       1
  _symmetry_cell_setting            triclinic
  loop_
  _symmetry_equiv_pos_as_xyz
 x,y,z
_cell_length_a 51.3031
_cell_length_b 51.3031
_cell_length_c 51.3031
_cell_angle_alpha 90.085000
_cell_angle_beta 90.085000
_cell_angle_gamma 90.085100
loop_
  _atom_site_label
  _atom_site_type_symbol
  _atom_site_fract_x
  _atom_site_fract_y
  _atom_site_fract_z
N1 N 0.37088 1.37074 0.37089
 N2 N 0.37088 0.87088 0.87074
 N3 N 0.87286 1.37286 0.87287
 N4 N 0.87074 0.87088 0.37089
 N5 N 0.62744 0.62727 0.37219
 N6 N 0.62720 0.12719 0.87178
 N7 N 1.12904 0.62904 0.87178
 N8 N 1.12727 0.12743 0.37219
 N9 N 0.62720 1.37178 0.62720
 N10 N 0.62744 0.87219 1.12728
 N11 N 1.12904 1.37178 1.12904
 N12 N 1.12727 0.87219 0.62744
 N13 N 0.37219 0.62727 0.62744
 N14 N 0.37219 0.12743 1.12728
 N15 N 0.87178 0.62904 1.12904
 N16 N 0.87178 0.12720 0.62720
 N17 N 1.37174 0.37141 0.62745
 N18 N 1.37124 0.87124 1.12723
 N19 N 0.87255 0.37255 1.12778
 N20 N 0.87141 0.87174 0.62745
 N21 N 0.62709 0.62747 0.62710
 N22 N 0.62709 1.12709 1.12748
 N23 N 0.18233 0.68233 1.18234
 N24 N 0.12747 1.12709 0.62710
 N25 N 1.37124 0.62722 0.37124
 N26 N 1.37174 1.12744 0.87142
 N27 N 0.87255 0.62778 0.87255
 N28 N 0.87141 1.12744 0.37174
 N29 N 0.62744 0.37141 0.37174
 N30 N 0.62744 0.87174 0.87142
 N31 N 0.12778 0.37255 0.87256
 N32 N 0.12722 0.87124 0.37124
 O33 O 0.97403 0.90626 0.86959
 O34 O 0.97391 0.87593 0.83907
 C35 C 0.96513 0.89717 0.84831
 C36 C 0.94412 0.91132 0.83451
 C37 C 0.93655 0.90404 0.80920
 H38 H 0.94645 0.88825 0.79926
 O39 O 1.02484 1.09467 0.86953
 O40 O 1.02480 1.12496 0.83906
 C41 C 1.03361 1.10373 0.84824
 C42 C 1.05455 1.08955 0.83436
 C43 C 1.06197 1.09676 0.80901
 H44 H 1.05201 1.11252 0.79910
 O45 O 0.86963 0.97489 0.90529
 O46 O 0.83907 0.97479 0.87500
 C47 C 0.84833 0.96602 0.89623
 C48 C 0.83451 0.94502 0.91040
 C49 C 0.80920 0.93745 0.90312
 H50 H 0.79927 0.94735 0.88732
 O51 O 1.12921 1.02614 0.90506
 O52 O 1.15967 1.02626 0.87476
 C53 C 1.15047 1.03503 0.89603
 C54 C 1.16432 1.05601 0.91029
 C55 C 1.18963 1.06355 0.90308
 H56 H 1.19952 1.05366 0.88725
 O57 O 0.90532 0.87069 0.97408
 O58 O 0.87508 0.84008 0.97398
 C59 C 0.89631 0.84937 0.96522
 C60 C 0.91054 0.83555 0.94425
 C61 C 0.90337 0.81017 0.93679
 H62 H 0.88762 0.80020 0.94674
 O63 O 1.09372 1.13027 0.97420
 O64 O 1.12397 1.16087 0.97424
 C65 C 1.10274 1.15158 0.96541
 C66 C 1.08852 1.16539 0.94443
 C67 C 1.09576 1.19072 0.93697
 H68 H 1.11155 1.20067 0.94694
 O69 O 0.90530 1.02569 0.86965
 O70 O 0.87502 1.02566 0.83909
 C71 C 0.89625 1.03450 0.84837
 C72 C 0.91044 1.05550 0.83457
 C73 C 0.90322 1.06294 0.80923
 H74 H 0.88745 1.05295 0.79927
 O75 O 1.09349 0.97526 0.86939
 O76 O 1.12364 0.97529 0.83878
 C77 C 1.10246 0.96642 0.84809
 C78 C 1.08825 0.94533 0.83432
 C79 C 1.09547 0.93772 0.80903
 H80 H 1.11123 0.94766 0.79908
 O81 O 1.02487 0.87067 0.90521
 O82 O 1.02486 0.84007 0.87497
 C83 C 1.03370 0.84938 0.89619
 C84 C 1.05475 0.83566 0.91039
 C85 C 1.06243 0.81040 0.90311
 H86 H 1.05257 0.80041 0.88727
 O87 O 0.97415 1.13023 0.90539
 O88 O 0.97406 1.16080 0.87520
 C89 C 0.96531 1.15152 0.89642
 C90 C 0.94438 1.16534 0.91068
 C91 C 0.93699 1.19071 0.90358
 H92 H 0.94697 1.20068 0.88786
 O93 O 0.86968 1.09453 0.97405
 O94 O 0.83921 1.12481 0.97394
 C95 C 0.84843 1.10356 0.96516
 C96 C 0.83460 1.08931 0.94416
 C97 C 0.80926 1.09646 0.93664
 H98 H 0.79932 1.11224 0.94657
 O99 O 1.12944 0.90712 0.97346
 O100 O 1.15981 0.87674 0.97350
 C101 C 1.15065 0.89794 0.96462
 C102 C 1.16447 0.91193 0.94353
 C103 C 1.18964 0.90443 0.93585
 H104 H 1.19948 0.88858 0.94574
 O105 O 0.97405 1.09453 0.86969
 O106 O 0.97393 1.12481 0.83921
 C107 C 0.96516 1.10356 0.84843
 C108 C 0.94415 1.08931 0.83460
 C109 C 0.93664 1.09647 0.80926
 H110 H 0.94657 1.11224 0.79933
 O111 O 1.02483 0.90633 0.86956
 O112 O 1.02478 0.87601 0.83904
 C113 C 1.03362 0.89727 0.84827
 C114 C 1.05458 0.91148 0.83442
 C115 C 1.06209 0.90416 0.80912
 H116 H 1.05218 0.88829 0.79923
 O117 O 1.12949 0.97538 0.90475
 O118 O 1.15992 0.97539 0.87443
 C119 C 1.15074 0.96656 0.89565
 C120 C 1.16454 0.94554 0.90976
 C121 C 1.18972 0.93778 0.90235
 H122 H 1.19961 0.94756 0.88647
 O123 O 0.86965 1.02569 0.90530
 O124 O 0.83909 1.02566 0.87502
 C125 C 0.84836 1.03450 0.89626
 C126 C 0.83456 1.05550 0.91045
 C127 C 0.80922 1.06294 0.90322
 H128 H 0.79926 1.05295 0.88745
 O129 O 0.90539 1.13023 0.97415
 O130 O 0.87520 1.16080 0.97406
 C131 C 0.89642 1.15152 0.96531
 C132 C 0.91068 1.16534 0.94439
 C133 C 0.90357 1.19071 0.93700
 H134 H 0.88785 1.20068 0.94697
 O135 O 1.09377 0.87130 0.97372
 O136 O 1.12390 0.84069 0.97399
 C137 C 1.10271 0.84989 0.96509
 C138 C 1.08849 0.83591 0.94416
 C139 C 1.09588 0.81065 0.93660
 H140 H 1.11176 0.80085 0.94650
 O141 O 1.09356 1.02605 0.86932
 O142 O 1.12372 1.02617 0.83873
 C143 C 1.10252 1.03491 0.84803
 C144 C 1.08826 1.05586 0.83427
 C145 C 1.09539 1.06334 0.80894
 H146 H 1.11113 1.05341 0.79896
 O147 O 0.90528 0.97489 0.86963
 O148 O 0.87499 0.97479 0.83907
 C149 C 0.89623 0.96602 0.84833
 C150 C 0.91040 0.94502 0.83452
 C151 C 0.90312 0.93745 0.80920
 H152 H 0.88732 0.94735 0.79927
 O153 O 1.02494 1.13023 0.90539
 O154 O 1.02493 1.16079 0.87520
 C155 C 1.03377 1.15153 0.89640
 C156 C 1.05478 1.16536 0.91065
 C157 C 1.06231 1.19069 0.90348
 H158 H 1.05238 1.20063 0.88770
 O159 O 0.97407 0.87069 0.90532
 O160 O 0.97398 0.84008 0.87509
 C161 C 0.96521 0.84937 0.89631
 C162 C 0.94425 0.83555 0.91054
 C163 C 0.93679 0.81017 0.90337
 H164 H 0.94674 0.80020 0.88763
 O165 O 1.12942 1.09467 0.97410
 O166 O 1.15995 1.12499 0.97413
 C167 C 1.15068 1.10376 0.96527
 C168 C 1.16444 1.08963 0.94420
 C169 C 1.18976 1.09689 0.93669
 H170 H 1.19975 1.11263 0.94669
 O171 O 0.86958 0.90626 0.97404
 O172 O 0.83907 0.87593 0.97391
 C173 C 0.84831 0.89717 0.96514
 C174 C 0.83451 0.91132 0.94412
 C175 C 0.80919 0.90404 0.93655
 H176 H 0.79926 0.88825 0.94646
 Cu177 Cu 0.99946 0.89152 0.89045
 Cu178 Cu 0.99937 0.85495 0.85398
 Cu179 Cu 0.99950 1.10938 0.89052
 Cu180 Cu 0.99942 1.14591 0.85412
 Cu181 Cu 0.89050 1.00030 0.89050
 Cu182 Cu 0.85398 1.00022 0.85398
 Cu183 Cu 1.10842 1.00070 0.89017
 Cu184 Cu 1.14478 1.00080 0.85360
 C185 C 0.93106 0.93198 0.84691
 H186 H 0.93662 0.93753 0.86653
 C187 C 0.91624 0.91715 0.79655
 C188 C 1.06768 1.06894 0.84672
 H189 H 1.06224 1.06344 0.86635
 C190 C 1.08220 1.08360 0.79632
 C191 C 0.84690 0.93198 0.93107
 H192 H 0.86652 0.93753 0.93663
 C193 C 0.79655 0.91715 0.91624
 C194 C 1.15199 1.06903 0.93101
 H195 H 1.13238 1.06349 0.93652
 C196 C 1.20235 1.08380 0.91633
 C197 C 0.93114 0.84798 0.93115
 H198 H 0.93662 0.86764 0.93662
 C199 C 0.91654 0.79749 0.91655
 C200 C 1.06787 1.15297 0.93129
 H201 H 1.06235 1.13334 0.93676
 C202 C 1.08261 1.20336 0.91669
 C203 C 0.93107 1.06866 0.84699
 H204 H 0.93659 1.06320 0.86663
 C205 C 0.91636 1.08323 0.79658
 C206 C 1.06764 0.93223 0.84675
 H207 H 1.06214 0.93782 0.86635
 C208 C 1.08234 0.91733 0.79644
 C209 C 1.06777 0.84814 0.93108
 H210 H 1.06214 0.86772 0.93662
 C211 C 1.08281 0.79790 0.91626
 C212 C 0.93125 1.15291 0.93125
 H213 H 0.93667 1.13325 0.93667
 C214 C 0.91678 1.20339 0.91678
 C215 C 0.84699 1.06866 0.93107
 H216 H 0.86662 1.06320 0.93659
 C217 C 0.79658 1.08323 0.91637
 C218 C 1.15219 0.93263 0.93050
 H219 H 1.13268 0.93833 0.93615
 C220 C 1.20227 0.91740 0.91545
 O221 O 1.02429 0.90734 1.12968
 O222 O 1.02429 0.87715 1.16025
 C223 C 1.03312 0.89835 1.15100
 C224 C 1.05423 0.91246 1.16480
 C225 C 1.06187 0.90509 1.19004
 H226 H 1.05184 0.88938 1.19997
 O227 O 0.97410 1.09467 1.12942
 O228 O 0.97413 1.12499 1.15995
 C229 C 0.96527 1.10376 1.15069
 C230 C 0.94420 1.08963 1.16445
 C231 C 0.93669 1.09689 1.18977
 H232 H 0.94669 1.11263 1.19975
 O233 O 0.86931 1.02605 1.09356
 O234 O 0.83872 1.02617 1.12373
 C235 C 0.84803 1.03491 1.10252
 C236 C 0.83426 1.05586 1.08826
 C237 C 0.80893 1.06334 1.09539
 H238 H 0.79896 1.05341 1.11113
 O239 O 1.12947 0.97539 1.09378
 O240 O 1.16003 0.97539 1.12406
 C241 C 1.15079 0.96661 1.10278
 C242 C 1.16466 0.94576 1.08844
 C243 C 1.18991 0.93810 1.09579
 H244 H 1.19975 0.94779 1.11182
 O245 O 1.09354 0.87215 1.02457
 O246 O 1.12398 0.84183 1.02494
 C247 C 1.10283 0.85118 1.03382
 C248 C 1.08944 0.83803 1.05572
 C249 C 1.10025 0.81552 1.06689
 H250 H 1.11789 0.80708 1.05892
 O251 O 0.90539 1.13023 1.02494
 O252 O 0.87519 1.16079 1.02493
 C253 C 0.89640 1.15153 1.03377
 C254 C 0.91064 1.16536 1.05479
 C255 C 0.90347 1.19069 1.06231
 H256 H 0.88769 1.20063 1.05239
 O257 O 0.90475 0.97538 1.12949
 O258 O 0.87442 0.97539 1.15992
 C259 C 0.89564 0.96656 1.15074
 C260 C 0.90976 0.94554 1.16454
 C261 C 0.90234 0.93778 1.18972
 H262 H 0.88646 0.94756 1.19962
 O263 O 1.09379 1.02615 1.12943
 O264 O 1.12407 1.02625 1.16001
 C265 C 1.10283 1.03501 1.15074
 C266 C 1.08860 1.05595 1.16458
 C267 C 1.09579 1.06343 1.18994
 H268 H 1.11157 1.05353 1.19988
 O269 O 0.97372 0.87130 1.09377
 O270 O 0.97399 0.84068 1.12390
 C271 C 0.96508 0.84989 1.10271
 C272 C 0.94416 0.83591 1.08850
 C273 C 0.93660 0.81064 1.09588
 H274 H 0.94650 0.80084 1.11176
 O275 O 1.02500 1.13022 1.09377
 O276 O 1.02512 1.16079 1.12404
 C277 C 1.03391 1.15150 1.10282
 C278 C 1.05496 1.16528 1.08868
 C279 C 1.06265 1.19053 1.09607
 H280 H 1.05281 1.20043 1.11192
 O281 O 0.86956 0.90633 1.02483
 O282 O 0.83904 0.87601 1.02479
 C283 C 0.84826 0.89727 1.03362
 C284 C 0.83441 0.91148 1.05458
 C285 C 0.80912 0.90416 1.06209
 H286 H 0.79922 0.88829 1.05219
 O287 O 1.12950 1.09464 1.02493
 O288 O 1.16003 1.12495 1.02502
 C289 C 1.15079 1.10371 1.03379
 C290 C 1.16461 1.08955 1.05479
 C291 C 1.18998 1.09675 1.06226
 H292 H 1.19996 1.11247 1.05228
 O293 O 1.02492 1.09464 1.12950
 O294 O 1.02501 1.12495 1.16004
 C295 C 1.03379 1.10371 1.15079
 C296 C 1.05479 1.08955 1.16462
 C297 C 1.06226 1.09675 1.18999
 H298 H 1.05228 1.11247 1.19996
 O299 O 0.97345 0.90712 1.12944
 O300 O 0.97349 0.87674 1.15982
 C301 C 0.96461 0.89794 1.15065
 C302 C 0.94353 0.91193 1.16447
 C303 C 0.93585 0.90443 1.18965
 H304 H 0.94574 0.88858 1.19949
 O305 O 1.12943 1.02615 1.09380
 O306 O 1.16000 1.02625 1.12407
 C307 C 1.15074 1.03501 1.10283
 C308 C 1.16457 1.05595 1.08860
 C309 C 1.18994 1.06343 1.09579
 H310 H 1.19988 1.05353 1.11158
 O311 O 0.86939 0.97526 1.09349
 O312 O 0.83878 0.97529 1.12364
 C313 C 0.84808 0.96642 1.10246
 C314 C 0.83432 0.94533 1.08826
 C315 C 0.80903 0.93772 1.09547
 H316 H 0.79907 0.94766 1.11123
 O317 O 1.09377 1.13022 1.02501
 O318 O 1.12404 1.16079 1.02512
 C319 C 1.10282 1.15150 1.03391
 C320 C 1.08867 1.16528 1.05496
 C321 C 1.09607 1.19053 1.06265
 H322 H 1.11192 1.20043 1.05281
 O323 O 0.90521 0.87067 1.02488
 O324 O 0.87497 0.84007 1.02486
 C325 C 0.89619 0.84938 1.03371
 C326 C 0.91039 0.83566 1.05475
 C327 C 0.90310 0.81040 1.06243
 H328 H 0.88727 0.80041 1.05257
 O329 O 1.09377 0.97539 1.12947
 O330 O 1.12405 0.97539 1.16003
 C331 C 1.10278 0.96661 1.15079
 C332 C 1.08844 0.94576 1.16466
 C333 C 1.09579 0.93810 1.18991
 H334 H 1.11182 0.94779 1.19976
 O335 O 0.90506 1.02614 1.12922
 O336 O 0.87476 1.02626 1.15967
 C337 C 0.89603 1.03503 1.15047
 C338 C 0.91029 1.05601 1.16433
 C339 C 0.90308 1.06355 1.18964
 H340 H 0.88725 1.05366 1.19953
 O341 O 0.97419 1.13027 1.09372
 O342 O 0.97424 1.16087 1.12397
 C343 C 0.96540 1.15158 1.10274
 C344 C 0.94443 1.16538 1.08852
 C345 C 0.93697 1.19071 1.09576
 H346 H 0.94694 1.20066 1.11155
 O347 O 1.02457 0.87215 1.09355
 O348 O 1.02494 0.84183 1.12398
 C349 C 1.03381 0.85118 1.10283
 C350 C 1.05572 0.83803 1.08945
 C351 C 1.06689 0.81552 1.10025
 H352 H 1.05892 0.80708 1.11790
 O353 O 1.12968 0.90734 1.02429
 O354 O 1.16024 0.87715 1.02429
 C355 C 1.15100 0.89835 1.03312
 C356 C 1.16480 0.91246 1.05423
 C357 C 1.19004 0.90509 1.06187
 H358 H 1.19997 0.88938 1.05184
 O359 O 0.86953 1.09467 1.02484
 O360 O 0.83906 1.12496 1.02480
 C361 C 0.84824 1.10373 1.03362
 C362 C 0.83436 1.08955 1.05455
 C363 C 0.80901 1.09676 1.06197
 H364 H 0.79910 1.11252 1.05201
 Cu365 Cu 0.99893 0.89252 1.10858
 Cu366 Cu 0.99916 0.85600 1.14500
 Cu367 Cu 0.99955 1.10941 1.10858
 Cu368 Cu 0.99963 1.14597 1.14506
 Cu369 Cu 0.89045 0.89152 0.99947
 Cu370 Cu 0.85398 0.85495 0.99937
 Cu371 Cu 1.10857 0.89252 0.99894
 Cu372 Cu 1.14500 0.85600 0.99916
 Cu373 Cu 0.89052 1.10938 0.99951
 Cu374 Cu 0.85411 1.14591 0.99942
 Cu375 Cu 1.10857 1.10941 0.99955
 Cu376 Cu 1.14505 1.14597 0.99964
 Cu377 Cu 0.89017 1.00070 1.10842
 Cu378 Cu 0.85360 1.00080 1.14479
 Cu379 Cu 1.10858 1.00075 1.10859
 Cu380 Cu 1.14510 1.00082 1.14511
 C381 C 1.06749 0.93296 1.15238
 H382 H 1.06189 0.93856 1.13281
 C383 C 1.08246 0.91794 1.20259
 C384 C 0.93101 1.06903 1.15199
 H385 H 0.93652 1.06349 1.13238
 C386 C 0.91632 1.08379 1.20235
 C387 C 0.84671 1.06894 1.06768
 H388 H 0.86635 1.06344 1.06224
 C389 C 0.79631 1.08360 1.08221
 C390 C 1.15238 0.93296 1.06749
 H391 H 1.13281 0.93856 1.06189
 C392 C 1.20259 0.91794 1.08246
 C393 C 1.06698 0.84901 1.06699
 H394 H 1.05882 0.86667 1.05882
 C395 C 1.08910 0.80444 1.08910
 C396 C 0.93128 1.15297 1.06788
 H397 H 0.93676 1.13334 1.06235
 C398 C 0.91668 1.20336 1.08261
 C399 C 0.93050 0.93263 1.15219
 H400 H 0.93615 0.93833 1.13268
 C401 C 0.91544 0.91740 1.20227
 C402 C 1.06794 1.06899 1.15218
 H403 H 1.06246 1.06349 1.13252
 C404 C 1.08257 1.08364 1.20264
 C405 C 0.93107 0.84814 1.06777
 H406 H 0.93662 0.86772 1.06214
 C407 C 0.91626 0.79790 1.08282
 C408 C 1.06795 1.15292 1.06796
 H409 H 1.06231 1.13335 1.06231
 C410 C 1.08301 1.20314 1.08302
 C411 C 0.84675 0.93223 1.06765
 H412 H 0.86635 0.93782 1.06214
 C413 C 0.79644 0.91733 1.08235
 C414 C 1.15217 1.06899 1.06794
 H415 H 1.13252 1.06349 1.06246
 C416 C 1.20264 1.08364 1.08257
 O417 O 0.97408 0.40532 0.37070
 O418 O 0.97398 0.37508 0.34008
 C419 C 0.96521 0.39631 0.34938
 C420 C 0.94425 0.41054 0.33555
 C421 C 0.93679 0.40337 0.31017
 H422 H 0.94674 0.38762 0.30021
 O423 O 1.02457 0.59354 0.37215
 O424 O 1.02494 0.62397 0.34184
 C425 C 1.03381 0.60283 0.35118
 C426 C 1.05572 0.58944 0.33803
 C427 C 1.06688 0.60025 0.31552
 H428 H 1.05891 0.61789 0.30709
 O429 O 0.86958 0.47403 0.40626
 O430 O 0.83907 0.47391 0.37593
 C431 C 0.84831 0.46513 0.39717
 C432 C 0.83451 0.44412 0.41133
 C433 C 0.80919 0.43655 0.40404
 H434 H 0.79926 0.44645 0.38825
 O435 O 1.12968 0.52429 0.40735
 O436 O 1.16024 0.52429 0.37715
 C437 C 1.15099 0.53311 0.39836
 C438 C 1.16480 0.55423 0.41247
 C439 C 1.19004 0.56186 0.40510
 H440 H 1.19997 0.55183 0.38938
 O441 O 0.90528 0.36963 0.47490
 O442 O 0.87499 0.33907 0.47480
 C443 C 0.89623 0.34833 0.46602
 C444 C 0.91040 0.33451 0.44503
 C445 C 0.90312 0.30920 0.43746
 H446 H 0.88732 0.29927 0.44735
 O447 O 1.09377 0.62947 0.47540
 O448 O 1.12405 0.66003 0.47539
 C449 C 1.10278 0.65078 0.46662
 C450 C 1.08844 0.66466 0.44577
 C451 C 1.09579 0.68991 0.43810
 H452 H 1.11182 0.69975 0.44780
 O453 O 0.90521 0.52487 0.37067
 O454 O 0.87497 0.52486 0.34007
 C455 C 0.89619 0.53370 0.34938
 C456 C 0.91039 0.55475 0.33566
 C457 C 0.90310 0.56242 0.31040
 H458 H 0.88727 0.55257 0.30041
 O459 O 1.09377 0.47371 0.37130
 O460 O 1.12390 0.47399 0.34069
 C461 C 1.10271 0.46508 0.34989
 C462 C 1.08849 0.44415 0.33591
 C463 C 1.09588 0.43660 0.31065
 H464 H 1.11176 0.44650 0.30085
 O465 O 1.02483 0.36956 0.40634
 O466 O 1.02478 0.33903 0.37601
 C467 C 1.03362 0.34826 0.39727
 C468 C 1.05458 0.33441 0.41148
 C469 C 1.06209 0.30911 0.40417
 H470 H 1.05218 0.29922 0.38830
 O471 O 0.97345 0.62944 0.40712
 O472 O 0.97349 0.65981 0.37674
 C473 C 0.96461 0.65065 0.39795
 C474 C 0.94353 0.66447 0.41193
 C475 C 0.93585 0.68964 0.40444
 H476 H 0.94574 0.69948 0.38859
 O477 O 0.86938 0.59348 0.47526
 O478 O 0.83878 0.62363 0.47529
 C479 C 0.84808 0.60245 0.46642
 C480 C 0.83432 0.58825 0.44534
 C481 C 0.80903 0.59547 0.43773
 H482 H 0.79907 0.61123 0.44766
 O483 O 1.12949 0.40475 0.47538
 O484 O 1.15992 0.37442 0.47540
 C485 C 1.15074 0.39564 0.46657
 C486 C 1.16454 0.40975 0.44555
 C487 C 1.18972 0.40234 0.43778
 H488 H 1.19961 0.38646 0.44757
 O489 O 0.97372 0.59376 0.37130
 O490 O 0.97399 0.62390 0.34069
 C491 C 0.96508 0.60271 0.34989
 C492 C 0.94416 0.58849 0.33591
 C493 C 0.93660 0.59588 0.31065
 H494 H 0.94650 0.61176 0.30085
 O495 O 1.02487 0.40521 0.37067
 O496 O 1.02486 0.37497 0.34007
 C497 C 1.03370 0.39618 0.34938
 C498 C 1.05475 0.41039 0.33566
 C499 C 1.06243 0.40310 0.31040
 H500 H 1.05257 0.38727 0.30041
 O501 O 1.12944 0.47345 0.40712
 O502 O 1.15981 0.47349 0.37674
 C503 C 1.15065 0.46461 0.39795
 C504 C 1.16447 0.44353 0.41193
 C505 C 1.18964 0.43585 0.40444
 H506 H 1.19948 0.44573 0.38859
 O507 O 0.86956 0.52483 0.40634
 O508 O 0.83904 0.52478 0.37601
 C509 C 0.84827 0.53362 0.39727
 C510 C 0.83441 0.55457 0.41148
 C511 C 0.80912 0.56209 0.40416
 H512 H 0.79922 0.55218 0.38830
 O513 O 0.90475 0.62949 0.47538
 O514 O 0.87442 0.65992 0.47539
 C515 C 0.89564 0.65074 0.46657
 C516 C 0.90975 0.66454 0.44555
 C517 C 0.90234 0.68972 0.43778
 H518 H 0.88646 0.69961 0.44757
 O519 O 1.09349 0.36938 0.47526
 O520 O 1.12364 0.33878 0.47529
 C521 C 1.10246 0.34808 0.46642
 C522 C 1.08825 0.33432 0.44534
 C523 C 1.09547 0.30903 0.43773
 H524 H 1.11123 0.29907 0.44766
 O525 O 1.09354 0.52457 0.37215
 O526 O 1.12398 0.52493 0.34184
 C527 C 1.10283 0.53381 0.35118
 C528 C 1.08944 0.55572 0.33803
 C529 C 1.10025 0.56688 0.31552
 H530 H 1.11789 0.55891 0.30709
 O531 O 0.90532 0.47407 0.37070
 O532 O 0.87508 0.47398 0.34008
 C533 C 0.89631 0.46521 0.34938
 C534 C 0.91054 0.44425 0.33555
 C535 C 0.90337 0.43679 0.31017
 H536 H 0.88762 0.44674 0.30021
 O537 O 1.02429 0.62968 0.40735
 O538 O 1.02429 0.66024 0.37715
 C539 C 1.03312 0.65099 0.39836
 C540 C 1.05423 0.66479 0.41247
 C541 C 1.06187 0.69003 0.40510
 H542 H 1.05183 0.69997 0.38938
 O543 O 0.97403 0.36958 0.40626
 O544 O 0.97391 0.33906 0.37593
 C545 C 0.96514 0.34831 0.39717
 C546 C 0.94412 0.33451 0.41133
 C547 C 0.93655 0.30919 0.40404
 H548 H 0.94645 0.29926 0.38825
 O549 O 1.12947 0.59377 0.47540
 O550 O 1.16003 0.62405 0.47539
 C551 C 1.15079 0.60277 0.46662
 C552 C 1.16466 0.58844 0.44577
 C553 C 1.18991 0.59579 0.43810
 H554 H 1.19975 0.61182 0.44780
 O555 O 0.86963 0.40528 0.47490
 O556 O 0.83907 0.37499 0.47479
 C557 C 0.84833 0.39623 0.46602
 C558 C 0.83451 0.41040 0.44503
 C559 C 0.80920 0.40312 0.43746
 H560 H 0.79927 0.38732 0.44735
 Cu561 Cu 0.99947 0.39045 0.39153
 Cu562 Cu 0.99937 0.35398 0.35496
 Cu563 Cu 0.99893 0.60857 0.39253
 Cu564 Cu 0.99916 0.64499 0.35601
 Cu565 Cu 0.89045 0.49946 0.39153
 Cu566 Cu 0.85398 0.49937 0.35496
 Cu567 Cu 1.10857 0.49893 0.39253
 Cu568 Cu 1.14500 0.49915 0.35601
 C569 C 0.93114 0.43114 0.34798
 H570 H 0.93662 0.43662 0.36765
 C571 C 0.91654 0.41654 0.29749
 C572 C 1.06698 0.56698 0.34902
 H573 H 1.05882 0.55882 0.36668
 C574 C 1.08910 0.58909 0.30444
 C575 C 0.84690 0.43106 0.43198
 H576 H 0.86652 0.43662 0.43754
 C577 C 0.79655 0.41624 0.41716
 C578 C 1.15238 0.56749 0.43297
 H579 H 1.13281 0.56188 0.43857
 C580 C 1.20259 0.58246 0.41794
 C581 C 0.93106 0.34690 0.43198
 H582 H 0.93662 0.36652 0.43754
 C583 C 0.91624 0.29655 0.41716
 C584 C 1.06749 0.65238 0.43297
 H585 H 1.06189 0.63281 0.43857
 C586 C 1.08246 0.70258 0.41795
 C587 C 0.93107 0.56776 0.34814
 H588 H 0.93662 0.56214 0.36772
 C589 C 0.91626 0.58281 0.29790
 C590 C 1.06777 0.43107 0.34814
 H591 H 1.06214 0.43662 0.36772
 C592 C 1.08281 0.41625 0.29790
 C593 C 1.06764 0.34675 0.43223
 H594 H 1.06214 0.36635 0.43782
 C595 C 1.08235 0.29643 0.41733
 C596 C 0.93050 0.65219 0.43264
 H597 H 0.93615 0.63267 0.43834
 C598 C 0.91544 0.70227 0.41740
 C599 C 0.84675 0.56764 0.43223
 H600 H 0.86635 0.56214 0.43782
 C601 C 0.79644 0.58234 0.41733
 C602 C 1.15219 0.43050 0.43264
 H603 H 1.13268 0.43615 0.43834
 C604 C 1.20227 0.41544 0.41740
 O605 O 1.02494 0.40538 0.63024
 O606 O 1.02493 0.37519 0.66080
 C607 C 1.03377 0.39640 0.65154
 C608 C 1.05478 0.41064 0.66537
 C609 C 1.06231 0.40347 0.69070
 H610 H 1.05238 0.38769 0.70063
 O611 O 0.97419 0.59372 0.63028
 O612 O 0.97424 0.62397 0.66087
 C613 C 0.96540 0.60274 0.65159
 C614 C 0.94443 0.58852 0.66539
 C615 C 0.93697 0.59576 0.69072
 H616 H 0.94694 0.61155 0.70067
 O617 O 0.86953 0.52484 0.59468
 O618 O 0.83906 0.52479 0.62496
 C619 C 0.84824 0.53361 0.60374
 C620 C 0.83436 0.55454 0.58956
 C621 C 0.80901 0.56197 0.59677
 H622 H 0.79910 0.55201 0.61253
 O623 O 1.12942 0.47410 0.59467
 O624 O 1.15995 0.47413 0.62500
 C625 C 1.15068 0.46526 0.60376
 C626 C 1.16444 0.44419 0.58963
 C627 C 1.18976 0.43669 0.59689
 H628 H 1.19975 0.44669 0.61264
 O629 O 1.09356 0.36931 0.52606
 O630 O 1.12372 0.33872 0.52617
 C631 C 1.10252 0.34802 0.53492
 C632 C 1.08826 0.33426 0.55586
 C633 C 1.09539 0.30893 0.56335
 H634 H 1.11113 0.29896 0.55342
 O635 O 0.90506 0.62921 0.52615
 O636 O 0.87476 0.65967 0.52626
 C637 C 0.89603 0.65047 0.53503
 C638 C 0.91029 0.66432 0.55601
 C639 C 0.90308 0.68963 0.56355
 H640 H 0.88725 0.69952 0.55367
 O641 O 0.90539 0.47414 0.63023
 O642 O 0.87520 0.47406 0.66080
 C643 C 0.89642 0.46530 0.65153
 C644 C 0.91068 0.44438 0.66534
 C645 C 0.90358 0.43699 0.69072
 H646 H 0.88785 0.44697 0.70068
 O647 O 1.09377 0.52500 0.63022
 O648 O 1.12404 0.52511 0.66080
 C649 C 1.10282 0.53390 0.65151
 C650 C 1.08867 0.55495 0.66528
 C651 C 1.09607 0.56265 0.69053
 H652 H 1.11192 0.55281 0.70044
 O653 O 0.97405 0.36968 0.59453
 O654 O 0.97393 0.33921 0.62481
 C655 C 0.96516 0.34843 0.60356
 C656 C 0.94415 0.33460 0.58931
 C657 C 0.93664 0.30926 0.59647
 H658 H 0.94657 0.29932 0.61225
 O659 O 1.02492 0.62949 0.59464
 O660 O 1.02501 0.66003 0.62495
 C661 C 1.03379 0.65079 0.60371
 C662 C 1.05479 0.66461 0.58955
 C663 C 1.06226 0.68998 0.59675
 H664 H 1.05228 0.69995 0.61247
 O665 O 0.86965 0.40530 0.52570
 O666 O 0.83909 0.37501 0.52566
 C667 C 0.84836 0.39625 0.53451
 C668 C 0.83456 0.41044 0.55550
 C669 C 0.80923 0.40322 0.56295
 H670 H 0.79927 0.38745 0.55295
 O671 O 1.12943 0.59379 0.52615
 O672 O 1.16000 0.62407 0.52625
 C673 C 1.15074 0.60283 0.53501
 C674 C 1.16457 0.58860 0.55595
 C675 C 1.18994 0.59578 0.56343
 H676 H 1.19988 0.61157 0.55353
 O677 O 1.02500 0.59377 0.63022
 O678 O 1.02512 0.62403 0.66080
 C679 C 1.03391 0.60282 0.65151
 C680 C 1.05496 0.58867 0.66528
 C681 C 1.06265 0.59606 0.69053
 H682 H 1.05281 0.61192 0.70044
 O683 O 0.97415 0.40539 0.63023
 O684 O 0.97406 0.37520 0.66080
 C685 C 0.96531 0.39642 0.65153
 C686 C 0.94439 0.41068 0.66534
 C687 C 0.93699 0.40357 0.69072
 H688 H 0.94697 0.38785 0.70068
 O689 O 1.12950 0.52492 0.59464
 O690 O 1.16003 0.52501 0.62495
 C691 C 1.15079 0.53379 0.60371
 C692 C 1.16462 0.55478 0.58955
 C693 C 1.18998 0.56226 0.59675
 H694 H 1.19996 0.55227 0.61247
 O695 O 0.86968 0.47405 0.59453
 O696 O 0.83921 0.47393 0.62481
 C697 C 0.84843 0.46516 0.60356
 C698 C 0.83460 0.44415 0.58931
 C699 C 0.80926 0.43664 0.59647
 H700 H 0.79932 0.44657 0.61225
 O701 O 1.09379 0.62943 0.52615
 O702 O 1.12407 0.66000 0.52625
 C703 C 1.10283 0.65073 0.53501
 C704 C 1.08860 0.66457 0.55595
 C705 C 1.09579 0.68994 0.56344
 H706 H 1.11157 0.69988 0.55353
 O707 O 0.90530 0.36965 0.52570
 O708 O 0.87502 0.33909 0.52566
 C709 C 0.89625 0.34836 0.53451
 C710 C 0.91044 0.33456 0.55550
 C711 C 0.90322 0.30922 0.56295
 H712 H 0.88745 0.29926 0.55295
 O713 O 1.09372 0.47419 0.63028
 O714 O 1.12397 0.47424 0.66087
 C715 C 1.10274 0.46540 0.65159
 C716 C 1.08852 0.44443 0.66539
 C717 C 1.09576 0.43697 0.69072
 H718 H 1.11155 0.44694 0.70067
 O719 O 0.90539 0.52494 0.63024
 O720 O 0.87519 0.52493 0.66080
 C721 C 0.89640 0.53377 0.65154
 C722 C 0.91064 0.55478 0.66537
 C723 C 0.90347 0.56231 0.69070
 H724 H 0.88769 0.55238 0.70063
 O725 O 0.97410 0.62942 0.59467
 O726 O 0.97413 0.65994 0.62500
 C727 C 0.96526 0.65068 0.60376
 C728 C 0.94419 0.66444 0.58963
 C729 C 0.93669 0.68976 0.59689
 H730 H 0.94669 0.69975 0.61264
 O731 O 1.02484 0.36952 0.59468
 O732 O 1.02480 0.33905 0.62496
 C733 C 1.03362 0.34824 0.60374
 C734 C 1.05455 0.33435 0.58956
 C735 C 1.06197 0.30901 0.59677
 H736 H 1.05201 0.29910 0.61253
 O737 O 1.12922 0.40506 0.52615
 O738 O 1.15967 0.37476 0.52627
 C739 C 1.15047 0.39603 0.53503
 C740 C 1.16432 0.41029 0.55601
 C741 C 1.18963 0.40308 0.56356
 H742 H 1.19952 0.38724 0.55367
 O743 O 0.86931 0.59356 0.52606
 O744 O 0.83872 0.62372 0.52617
 C745 C 0.84803 0.60252 0.53492
 C746 C 0.83426 0.58826 0.55586
 C747 C 0.80893 0.59539 0.56335
 H748 H 0.79896 0.61113 0.55342
 Cu749 Cu 0.99950 0.39052 0.60938
 Cu750 Cu 0.99942 0.35411 0.64591
 Cu751 Cu 0.99955 0.60857 0.60941
 Cu752 Cu 0.99963 0.64505 0.64597
 Cu753 Cu 0.89050 0.39050 0.50030
 Cu754 Cu 0.85398 0.35398 0.50022
 Cu755 Cu 1.10842 0.39017 0.50071
 Cu756 Cu 1.14478 0.35359 0.50080
 Cu757 Cu 0.89017 0.60841 0.50070
 Cu758 Cu 0.85359 0.64478 0.50080
 Cu759 Cu 1.10858 0.60858 0.50075
 Cu760 Cu 1.14510 0.64510 0.50082
 Cu761 Cu 0.89052 0.49950 0.60938
 Cu762 Cu 0.85411 0.49942 0.64591
 Cu763 Cu 1.10857 0.49955 0.60941
 Cu764 Cu 1.14505 0.49963 0.64597
 C765 C 1.06787 0.43128 0.65298
 H766 H 1.06235 0.43676 0.63335
 C767 C 1.08261 0.41668 0.70337
 C768 C 0.93128 0.56787 0.65298
 H769 H 0.93676 0.56235 0.63335
 C770 C 0.91668 0.58261 0.70337
 C771 C 0.84671 0.56767 0.56895
 H772 H 0.86635 0.56224 0.56345
 C773 C 0.79631 0.58220 0.58360
 C774 C 1.15199 0.43101 0.56903
 H775 H 1.13238 0.43651 0.56349
 C776 C 1.20235 0.41632 0.58380
 C777 C 1.06768 0.34671 0.56895
 H778 H 1.06224 0.36635 0.56345
 C779 C 1.08220 0.29631 0.58360
 C780 C 0.93101 0.65199 0.56903
 H781 H 0.93652 0.63237 0.56349
 C782 C 0.91632 0.70235 0.58380
 C783 C 0.93125 0.43125 0.65291
 H784 H 0.93667 0.43667 0.63325
 C785 C 0.91678 0.41678 0.70340
 C786 C 1.06795 0.56795 0.65292
 H787 H 1.06231 0.56231 0.63335
 C788 C 1.08302 0.58301 0.70314
 C789 C 0.93107 0.34699 0.56867
 H790 H 0.93659 0.36662 0.56320
 C791 C 0.91636 0.29658 0.58324
 C792 C 1.06794 0.65217 0.56899
 H793 H 1.06246 0.63252 0.56350
 C794 C 1.08257 0.70263 0.58364
 C795 C 0.84699 0.43107 0.56867
 H796 H 0.86662 0.43659 0.56320
 C797 C 0.79658 0.41636 0.58324
 C798 C 1.15217 0.56794 0.56899
 H799 H 1.13252 0.56245 0.56350
 C800 C 1.20264 0.58256 0.58364
 O801 O 0.47389 0.90517 0.36953
 O802 O 0.47378 0.87489 0.33896
 C803 C 0.46501 0.89612 0.34823
 C804 C 0.44401 0.91029 0.33442
 C805 C 0.43644 0.90302 0.30910
 H806 H 0.44635 0.88723 0.29917
 O807 O 0.52481 1.09349 0.36963
 O808 O 0.52484 1.12374 0.33912
 C809 C 0.53365 1.10252 0.34836
 C810 C 0.55464 1.08835 0.33455
 C811 C 0.56220 1.09562 0.30927
 H812 H 0.55230 1.11142 0.29935
 O813 O 0.36952 0.97388 0.40518
 O814 O 0.33896 0.97378 0.37489
 C815 C 0.34823 0.96501 0.39612
 C816 C 0.33442 0.94401 0.41030
 C817 C 0.30910 0.93644 0.40303
 H818 H 0.29916 0.94634 0.38723
 O819 O 0.62918 1.02485 0.40535
 O820 O 0.65970 1.02486 0.37512
 C821 C 0.65047 1.03369 0.39634
 C822 C 0.66431 1.05471 0.41056
 C823 C 0.68961 1.06227 0.40332
 H824 H 0.69952 1.05234 0.38752
 O825 O 0.40517 0.86952 0.47389
 O826 O 0.37489 0.83896 0.47379
 C827 C 0.39612 0.84823 0.46501
 C828 C 0.41030 0.83442 0.44401
 C829 C 0.40302 0.80910 0.43645
 H830 H 0.38723 0.79916 0.44635
 O831 O 0.59363 1.12928 0.47412
 O832 O 0.62391 1.15984 0.47415
 C833 C 0.60267 1.15057 0.46531
 C834 C 0.58848 1.16436 0.44431
 C835 C 0.59575 1.18966 0.43678
 H836 H 0.61157 1.19961 0.44671
 O837 O 0.40518 1.02468 0.36952
 O838 O 0.37489 1.02466 0.33896
 C839 C 0.39613 1.03349 0.34823
 C840 C 0.41034 1.05448 0.33443
 C841 C 0.40309 1.06200 0.30912
 H842 H 0.38728 1.05207 0.29917
 O843 O 0.59341 0.97401 0.36961
 O844 O 0.62366 0.97396 0.33910
 C845 C 0.60243 0.96515 0.34833
 C846 C 0.58821 0.94413 0.33449
 C847 C 0.59544 0.93659 0.30918
 H848 H 0.61123 0.94654 0.29927
 O849 O 0.52469 0.86952 0.40518
 O850 O 0.52466 0.83895 0.37490
 C851 C 0.53349 0.84822 0.39614
 C852 C 0.55448 0.83443 0.41035
 C853 C 0.56200 0.80911 0.40309
 H854 H 0.55208 0.79916 0.38728
 O855 O 0.47404 1.12910 0.40533
 O856 O 0.47399 1.15962 0.37509
 C857 C 0.46519 1.15037 0.39630
 C858 C 0.44419 1.16415 0.41048
 C859 C 0.43658 1.18940 0.40316
 H860 H 0.44645 1.19931 0.38734
 O861 O 0.36960 1.09341 0.47401
 O862 O 0.33910 1.12366 0.47397
 C863 C 0.34832 1.10243 0.46516
 C864 C 0.33448 1.08821 0.44414
 C865 C 0.30917 1.09544 0.43660
 H866 H 0.29927 1.11123 0.44654
 O867 O 0.62910 0.90532 0.47405
 O868 O 0.65962 0.87508 0.47399
 C869 C 0.65037 0.89630 0.46519
 C870 C 0.66416 0.91047 0.44419
 C871 C 0.68941 0.90315 0.43658
 H872 H 0.69931 0.88734 0.44645
 O873 O 0.47401 1.09341 0.36961
 O874 O 0.47396 1.12366 0.33910
 C875 C 0.46515 1.10243 0.34833
 C876 C 0.44413 1.08821 0.33449
 C877 C 0.43660 1.09544 0.30918
 H878 H 0.44654 1.11123 0.29927
 O879 O 0.52469 0.90517 0.36952
 O880 O 0.52466 0.87489 0.33896
 C881 C 0.53349 0.89613 0.34823
 C882 C 0.55448 0.91034 0.33443
 C883 C 0.56200 0.90309 0.30912
 H884 H 0.55208 0.88727 0.29917
 O885 O 0.62910 0.97404 0.40533
 O886 O 0.65962 0.97399 0.37509
 C887 C 0.65037 0.96519 0.39630
 C888 C 0.66416 0.94418 0.41048
 C889 C 0.68941 0.93657 0.40316
 H890 H 0.69931 0.94645 0.38734
 O891 O 0.36952 1.02468 0.40518
 O892 O 0.33896 1.02466 0.37490
 C893 C 0.34823 1.03349 0.39614
 C894 C 0.33443 1.05448 0.41035
 C895 C 0.30912 1.06200 0.40309
 H896 H 0.29916 1.05207 0.38728
 O897 O 0.40532 1.12910 0.47405
 O898 O 0.37509 1.15962 0.47399
 C899 C 0.39630 1.15037 0.46519
 C900 C 0.41047 1.16415 0.44419
 C901 C 0.40315 1.18940 0.43658
 H902 H 0.38734 1.19931 0.44645
 O903 O 0.59341 0.86960 0.47401
 O904 O 0.62366 0.83909 0.47397
 C905 C 0.60243 0.84832 0.46516
 C906 C 0.58821 0.83448 0.44414
 C907 C 0.59544 0.80917 0.43660
 H908 H 0.61123 0.79926 0.44654
 O909 O 0.59349 1.02481 0.36963
 O910 O 0.62374 1.02484 0.33912
 C911 C 0.60253 1.03365 0.34836
 C912 C 0.58835 1.05464 0.33455
 C913 C 0.59563 1.06220 0.30927
 H914 H 0.61142 1.05230 0.29935
 O915 O 0.40517 0.97388 0.36953
 O916 O 0.37489 0.97378 0.33896
 C917 C 0.39612 0.96501 0.34823
 C918 C 0.41030 0.94401 0.33442
 C919 C 0.40302 0.93644 0.30910
 H920 H 0.38723 0.94634 0.29917
 O921 O 0.52485 1.12918 0.40535
 O922 O 0.52486 1.15970 0.37512
 C923 C 0.53369 1.15047 0.39634
 C924 C 0.55471 1.16431 0.41056
 C925 C 0.56227 1.18961 0.40332
 H926 H 0.55235 1.19951 0.38752
 O927 O 0.47389 0.86952 0.40518
 O928 O 0.47378 0.83896 0.37489
 C929 C 0.46501 0.84823 0.39612
 C930 C 0.44401 0.83442 0.41030
 C931 C 0.43644 0.80910 0.40303
 H932 H 0.44634 0.79916 0.38723
 O933 O 0.62928 1.09362 0.47412
 O934 O 0.65984 1.12391 0.47415
 C935 C 0.65057 1.10267 0.46531
 C936 C 0.66436 1.08848 0.44431
 C937 C 0.68966 1.09575 0.43678
 H938 H 0.69961 1.11157 0.44671
 O939 O 0.36952 0.90517 0.47389
 O940 O 0.33896 0.87489 0.47379
 C941 C 0.34823 0.89612 0.46501
 C942 C 0.33442 0.91029 0.44401
 C943 C 0.30910 0.90302 0.43645
 H944 H 0.29916 0.88723 0.44635
 Cu945 Cu 0.49930 0.89038 0.39038
 Cu946 Cu 0.49921 0.85386 0.35386
 Cu947 Cu 0.49943 1.10826 0.39051
 Cu948 Cu 0.49941 1.14474 0.35405
 Cu949 Cu 0.39038 0.99930 0.39038
 Cu950 Cu 0.35386 0.99921 0.35386
 Cu951 Cu 0.60826 0.99943 0.39051
 Cu952 Cu 0.64474 0.99941 0.35405
 C953 C 0.43095 0.93095 0.34682
 H954 H 0.43650 0.93650 0.36644
 C955 C 0.41614 0.91614 0.29645
 C956 C 0.56770 1.06770 0.34692
 H957 H 0.56215 1.06215 0.36651
 C958 C 0.58251 1.08250 0.29664
 C959 C 0.34682 0.93095 0.43096
 H960 H 0.36644 0.93650 0.43651
 C961 C 0.29645 0.91614 0.41615
 C962 C 0.65195 1.06779 0.43122
 H963 H 0.63234 1.06224 0.43674
 C964 C 0.70228 1.08260 0.41647
 C965 C 0.43095 0.84681 0.43096
 H966 H 0.43650 0.86643 0.43651
 C967 C 0.41614 0.79645 0.41615
 C968 C 0.56779 1.15195 0.43122
 H969 H 0.56224 1.13234 0.43674
 C970 C 0.58260 1.20228 0.41647
 C971 C 0.43103 1.06757 0.34685
 H972 H 0.43656 1.06206 0.36647
 C973 C 0.41627 1.08229 0.29650
 C974 C 0.56757 0.93102 0.34685
 H975 H 0.56206 0.93656 0.36647
 C976 C 0.58230 0.91626 0.29650
 C977 C 0.56757 0.84685 0.43103
 H978 H 0.56206 0.86646 0.43656
 C979 C 0.58230 0.79650 0.41627
 C980 C 0.43115 1.15179 0.43116
 H981 H 0.43673 1.13222 0.43674
 C982 C 0.41625 1.20202 0.41625
 C983 C 0.34685 1.06757 0.43103
 H984 H 0.36646 1.06206 0.43656
 C985 C 0.29650 1.08229 0.41627
 C986 C 0.65179 0.93115 0.43115
 H987 H 0.63222 0.93673 0.43674
 C988 C 0.70202 0.91625 0.41625
 O989 O 0.52485 0.90535 0.62918
 O990 O 0.52486 0.87512 0.65970
 C991 C 0.53369 0.89634 0.65047
 C992 C 0.55471 0.91056 0.66431
 C993 C 0.56227 0.90331 0.68961
 H994 H 0.55235 0.88752 0.69952
 O995 O 0.47412 1.09362 0.62928
 O996 O 0.47415 1.12391 0.65984
 C997 C 0.46531 1.10267 0.65057
 C998 C 0.44431 1.08848 0.66436
 C999 C 0.43678 1.09575 0.68967
 H1000 H 0.44671 1.11157 0.69961
 O1001 O 0.36962 1.02481 0.59349
 O1002 O 0.33912 1.02484 0.62374
 C1003 C 0.34836 1.03365 0.60253
 C1004 C 0.33455 1.05464 0.58836
 C1005 C 0.30927 1.06220 0.59563
 H1006 H 0.29935 1.05230 0.61142
 O1007 O 0.62928 0.97412 0.59363
 O1008 O 0.65984 0.97415 0.62391
 C1009 C 0.65057 0.96531 0.60268
 C1010 C 0.66436 0.94431 0.58848
 C1011 C 0.68966 0.93678 0.59576
 H1012 H 0.69961 0.94671 0.61157
 O1013 O 0.59349 0.86962 0.52482
 O1014 O 0.62374 0.83912 0.52484
 C1015 C 0.60252 0.84835 0.53365
 C1016 C 0.58835 0.83455 0.55465
 C1017 C 0.59563 0.80927 0.56221
 H1018 H 0.61142 0.79935 0.55230
 O1019 O 0.40535 1.12917 0.52485
 O1020 O 0.37512 1.15970 0.52487
 C1021 C 0.39634 1.15047 0.53369
 C1022 C 0.41056 1.16431 0.55471
 C1023 C 0.40332 1.18961 0.56227
 H1024 H 0.38752 1.19951 0.55235
 O1025 O 0.40532 0.97404 0.62911
 O1026 O 0.37508 0.97399 0.65963
 C1027 C 0.39630 0.96519 0.65037
 C1028 C 0.41047 0.94418 0.66416
 C1029 C 0.40315 0.93657 0.68941
 H1030 H 0.38734 0.94645 0.69931
 O1031 O 0.59363 1.02492 0.62928
 O1032 O 0.62391 1.02502 0.65985
 C1033 C 0.60268 1.03379 0.65058
 C1034 C 0.58849 1.05478 0.66440
 C1035 C 0.59572 1.06230 0.68974
 H1036 H 0.61149 1.05238 0.69969
 O1037 O 0.47401 0.86960 0.59342
 O1038 O 0.47396 0.83909 0.62366
 C1039 C 0.46515 0.84832 0.60243
 C1040 C 0.44413 0.83448 0.58822
 C1041 C 0.43659 0.80917 0.59545
 H1042 H 0.44654 0.79926 0.61123
 O1043 O 0.52492 1.12928 0.59363
 O1044 O 0.52502 1.15984 0.62391
 C1045 C 0.53379 1.15057 0.60268
 C1046 C 0.55478 1.16439 0.58849
 C1047 C 0.56230 1.18974 0.59572
 H1048 H 0.55238 1.19968 0.61150
 O1049 O 0.36952 0.90517 0.52469
 O1050 O 0.33896 0.87489 0.52466
 C1051 C 0.34823 0.89613 0.53350
 C1052 C 0.33443 0.91034 0.55449
 C1053 C 0.30912 0.90309 0.56201
 H1054 H 0.29916 0.88727 0.55208
 O1055 O 0.62928 1.09363 0.52492
 O1056 O 0.65984 1.12391 0.52503
 C1057 C 0.65058 1.10267 0.53380
 C1058 C 0.66439 1.08849 0.55478
 C1059 C 0.68974 1.09572 0.56230
 H1060 H 0.69968 1.11149 0.55238
 O1061 O 0.52492 1.09363 0.62928
 O1062 O 0.52502 1.12391 0.65985
 C1063 C 0.53379 1.10267 0.65058
 C1064 C 0.55478 1.08849 0.66440
 C1065 C 0.56230 1.09572 0.68974
 H1066 H 0.55238 1.11149 0.69969
 O1067 O 0.47404 0.90532 0.62911
 O1068 O 0.47399 0.87508 0.65963
 C1069 C 0.46519 0.89630 0.65037
 C1070 C 0.44419 0.91047 0.66416
 C1071 C 0.43658 0.90315 0.68941
 H1072 H 0.44645 0.88733 0.69931
 O1073 O 0.62928 1.02492 0.59363
 O1074 O 0.65984 1.02502 0.62391
 C1075 C 0.65058 1.03379 0.60268
 C1076 C 0.66439 1.05478 0.58849
 C1077 C 0.68974 1.06230 0.59572
 H1078 H 0.69968 1.05238 0.61150
 O1079 O 0.36960 0.97401 0.59342
 O1080 O 0.33910 0.97396 0.62366
 C1081 C 0.34832 0.96515 0.60243
 C1082 C 0.33448 0.94413 0.58822
 C1083 C 0.30917 0.93659 0.59545
 H1084 H 0.29926 0.94654 0.61123
 O1085 O 0.59363 1.12928 0.52492
 O1086 O 0.62391 1.15984 0.52503
 C1087 C 0.60268 1.15057 0.53380
 C1088 C 0.58849 1.16439 0.55478
 C1089 C 0.59572 1.18974 0.56230
 H1090 H 0.61149 1.19968 0.55238
 O1091 O 0.40518 0.86952 0.52469
 O1092 O 0.37489 0.83895 0.52466
 C1093 C 0.39613 0.84822 0.53350
 C1094 C 0.41034 0.83443 0.55449
 C1095 C 0.40309 0.80911 0.56201
 H1096 H 0.38728 0.79916 0.55208
 O1097 O 0.59363 0.97412 0.62928
 O1098 O 0.62391 0.97415 0.65984
 C1099 C 0.60267 0.96531 0.65057
 C1100 C 0.58848 0.94431 0.66436
 C1101 C 0.59575 0.93678 0.68967
 H1102 H 0.61157 0.94671 0.69961
 O1103 O 0.40535 1.02485 0.62918
 O1104 O 0.37512 1.02486 0.65970
 C1105 C 0.39634 1.03369 0.65047
 C1106 C 0.41056 1.05471 0.66431
 C1107 C 0.40332 1.06227 0.68961
 H1108 H 0.38752 1.05235 0.69952
 O1109 O 0.47412 1.12928 0.59363
 O1110 O 0.47415 1.15984 0.62391
 C1111 C 0.46531 1.15057 0.60268
 C1112 C 0.44431 1.16436 0.58848
 C1113 C 0.43678 1.18966 0.59576
 H1114 H 0.44671 1.19961 0.61157
 O1115 O 0.52481 0.86962 0.59349
 O1116 O 0.52484 0.83912 0.62374
 C1117 C 0.53365 0.84835 0.60253
 C1118 C 0.55464 0.83455 0.58836
 C1119 C 0.56220 0.80927 0.59563
 H1120 H 0.55230 0.79935 0.61142
 O1121 O 0.62918 0.90535 0.52485
 O1122 O 0.65970 0.87512 0.52487
 C1123 C 0.65047 0.89634 0.53369
 C1124 C 0.66431 0.91056 0.55471
 C1125 C 0.68961 0.90331 0.56227
 H1126 H 0.69952 0.88752 0.55235
 O1127 O 0.36962 1.09348 0.52482
 O1128 O 0.33912 1.12374 0.52484
 C1129 C 0.34836 1.10252 0.53365
 C1130 C 0.33455 1.08835 0.55465
 C1131 C 0.30927 1.09562 0.56220
 H1132 H 0.29935 1.11142 0.55230
 Cu1133 Cu 0.49943 0.89050 0.60827
 Cu1134 Cu 0.49941 0.85405 0.64474
 Cu1135 Cu 0.49951 1.10842 0.60842
 Cu1136 Cu 0.49960 1.14494 0.64494
 Cu1137 Cu 0.39038 0.89038 0.49930
 Cu1138 Cu 0.35386 0.85386 0.49922
 Cu1139 Cu 0.60826 0.89050 0.49944
 Cu1140 Cu 0.64474 0.85405 0.49941
 Cu1141 Cu 0.39050 1.10826 0.49944
 Cu1142 Cu 0.35405 1.14474 0.49942
 Cu1143 Cu 0.60842 1.10842 0.49951
 Cu1144 Cu 0.64494 1.14494 0.49960
 Cu1145 Cu 0.39050 0.99943 0.60827
 Cu1146 Cu 0.35405 0.99941 0.64474
 Cu1147 Cu 0.60842 0.99951 0.60842
 Cu1148 Cu 0.64494 0.99960 0.64494
 C1149 C 0.56779 0.93121 0.65195
 H1150 H 0.56224 0.93674 0.63234
 C1151 C 0.58260 0.91647 0.70228
 C1152 C 0.43122 1.06779 0.65195
 H1153 H 0.43674 1.06224 0.63234
 C1154 C 0.41647 1.08260 0.70228
 C1155 C 0.34692 1.06770 0.56771
 H1156 H 0.36651 1.06215 0.56216
 C1157 C 0.29663 1.08250 0.58251
 C1158 C 0.65195 0.93121 0.56780
 H1159 H 0.63234 0.93674 0.56225
 C1160 C 0.70228 0.91647 0.58261
 C1161 C 0.56770 0.84692 0.56771
 H1162 H 0.56215 0.86651 0.56216
 C1163 C 0.58250 0.79663 0.58251
 C1164 C 0.43122 1.15195 0.56780
 H1165 H 0.43674 1.13234 0.56225
 C1166 C 0.41647 1.20228 0.58261
 C1167 C 0.43115 0.93115 0.65180
 H1168 H 0.43673 0.93673 0.63223
 C1169 C 0.41625 0.91625 0.70202
 C1170 C 0.56785 1.06785 0.65199
 H1171 H 0.56233 1.06233 0.63235
 C1172 C 0.58258 1.08258 0.70240
 C1173 C 0.43103 0.84685 0.56758
 H1174 H 0.43656 0.86646 0.56207
 C1175 C 0.41627 0.79650 0.58230
 C1176 C 0.56786 1.15198 0.56786
 H1177 H 0.56234 1.13234 0.56234
 C1178 C 0.58258 1.20240 0.58258
 C1179 C 0.34685 0.93102 0.56758
 H1180 H 0.36646 0.93656 0.56207
 C1181 C 0.29650 0.91626 0.58230
 C1182 C 0.65198 1.06785 0.56786
 H1183 H 0.63234 1.06233 0.56234
 C1184 C 0.70240 1.08258 0.58258
 O1185 O 0.47489 0.40528 0.86963
 O1186 O 0.47479 0.37499 0.83907
 C1187 C 0.46602 0.39622 0.84833
 C1188 C 0.44502 0.41040 0.83452
 C1189 C 0.43745 0.40312 0.80920
 H1190 H 0.44735 0.38732 0.79927
 O1191 O 0.52605 0.59356 0.86932
 O1192 O 0.52617 0.62372 0.83873
 C1193 C 0.53491 0.60252 0.84803
 C1194 C 0.55586 0.58826 0.83427
 C1195 C 0.56334 0.59539 0.80894
 H1196 H 0.55341 0.61113 0.79896
 O1197 O 0.37069 0.47407 0.90532
 O1198 O 0.34008 0.47398 0.87509
 C1199 C 0.34937 0.46521 0.89631
 C1200 C 0.33555 0.44425 0.91054
 C1201 C 0.31017 0.43679 0.90337
 H1202 H 0.30021 0.44674 0.88763
 O1203 O 0.63023 0.52494 0.90539
 O1204 O 0.66080 0.52493 0.87520
 C1205 C 0.65154 0.53377 0.89640
 C1206 C 0.66536 0.55478 0.91065
 C1207 C 0.69070 0.56231 0.90347
 H1208 H 0.70063 0.55238 0.88770
 O1209 O 0.40626 0.36958 0.97403
 O1210 O 0.37593 0.33906 0.97391
 C1211 C 0.39717 0.34831 0.96514
 C1212 C 0.41132 0.33451 0.94412
 C1213 C 0.40404 0.30919 0.93655
 H1214 H 0.38825 0.29926 0.94646
 O1215 O 0.59467 0.62942 0.97410
 O1216 O 0.62499 0.65994 0.97413
 C1217 C 0.60376 0.65068 0.96527
 C1218 C 0.58963 0.66444 0.94420
 C1219 C 0.59689 0.68976 0.93669
 H1220 H 0.61264 0.69974 0.94669
 O1221 O 0.40633 0.52483 0.86956
 O1222 O 0.37601 0.52478 0.83904
 C1223 C 0.39727 0.53362 0.84827
 C1224 C 0.41148 0.55457 0.83442
 C1225 C 0.40416 0.56208 0.80912
 H1226 H 0.38830 0.55218 0.79922
 O1227 O 0.59453 0.47405 0.86969
 O1228 O 0.62481 0.47393 0.83921
 C1229 C 0.60356 0.46516 0.84843
 C1230 C 0.58931 0.44415 0.83460
 C1231 C 0.59647 0.43664 0.80926
 H1232 H 0.61224 0.44657 0.79933
 O1233 O 0.52570 0.36965 0.90530
 O1234 O 0.52566 0.33909 0.87502
 C1235 C 0.53450 0.34836 0.89626
 C1236 C 0.55550 0.33456 0.91044
 C1237 C 0.56294 0.30922 0.90322
 H1238 H 0.55295 0.29926 0.88745
 O1239 O 0.47538 0.62949 0.90475
 O1240 O 0.47539 0.65992 0.87443
 C1241 C 0.46656 0.65074 0.89565
 C1242 C 0.44554 0.66454 0.90976
 C1243 C 0.43778 0.68972 0.90235
 H1244 H 0.44756 0.69961 0.88647
 O1245 O 0.37130 0.59376 0.97372
 O1246 O 0.34069 0.62390 0.97399
 C1247 C 0.34989 0.60271 0.96509
 C1248 C 0.33591 0.58849 0.94416
 C1249 C 0.31065 0.59588 0.93660
 H1250 H 0.30085 0.61176 0.94650
 O1251 O 0.63023 0.40539 0.97415
 O1252 O 0.66080 0.37520 0.97406
 C1253 C 0.65152 0.39642 0.96531
 C1254 C 0.66534 0.41067 0.94439
 C1255 C 0.69071 0.40357 0.93700
 H1256 H 0.70068 0.38785 0.94697
 O1257 O 0.47526 0.59348 0.86939
 O1258 O 0.47529 0.62363 0.83878
 C1259 C 0.46642 0.60245 0.84809
 C1260 C 0.44533 0.58825 0.83432
 C1261 C 0.43773 0.59547 0.80903
 H1262 H 0.44766 0.61123 0.79908
 O1263 O 0.52570 0.40530 0.86965
 O1264 O 0.52566 0.37501 0.83909
 C1265 C 0.53450 0.39625 0.84837
 C1266 C 0.55550 0.41044 0.83457
 C1267 C 0.56294 0.40321 0.80923
 H1268 H 0.55295 0.38745 0.79927
 O1269 O 0.63023 0.47414 0.90539
 O1270 O 0.66080 0.47406 0.87520
 C1271 C 0.65152 0.46530 0.89642
 C1272 C 0.66534 0.44438 0.91068
 C1273 C 0.69071 0.43699 0.90358
 H1274 H 0.70068 0.44696 0.88786
 O1275 O 0.37067 0.52487 0.90521
 O1276 O 0.34007 0.52486 0.87497
 C1277 C 0.34938 0.53370 0.89619
 C1278 C 0.33566 0.55475 0.91039
 C1279 C 0.31040 0.56242 0.90311
 H1280 H 0.30041 0.55257 0.88727
 O1281 O 0.40712 0.62944 0.97346
 O1282 O 0.37674 0.65981 0.97350
 C1283 C 0.39794 0.65065 0.96462
 C1284 C 0.41193 0.66447 0.94353
 C1285 C 0.40444 0.68964 0.93585
 H1286 H 0.38858 0.69948 0.94574
 O1287 O 0.59453 0.36968 0.97405
 O1288 O 0.62481 0.33921 0.97394
 C1289 C 0.60356 0.34842 0.96516
 C1290 C 0.58931 0.33460 0.94416
 C1291 C 0.59647 0.30926 0.93664
 H1292 H 0.61224 0.29932 0.94657
 O1293 O 0.59467 0.52484 0.86953
 O1294 O 0.62496 0.52479 0.83906
 C1295 C 0.60373 0.53361 0.84824
 C1296 C 0.58956 0.55454 0.83436
 C1297 C 0.59676 0.56196 0.80901
 H1298 H 0.61252 0.55200 0.79910
 O1299 O 0.40626 0.47403 0.86959
 O1300 O 0.37593 0.47390 0.83907
 C1301 C 0.39717 0.46513 0.84831
 C1302 C 0.41132 0.44412 0.83451
 C1303 C 0.40404 0.43655 0.80920
 H1304 H 0.38825 0.44645 0.79926
 O1305 O 0.52614 0.62921 0.90506
 O1306 O 0.52626 0.65967 0.87476
 C1307 C 0.53503 0.65047 0.89603
 C1308 C 0.55601 0.66432 0.91029
 C1309 C 0.56355 0.68963 0.90308
 H1310 H 0.55366 0.69952 0.88725
 O1311 O 0.47489 0.36963 0.90529
 O1312 O 0.47479 0.33907 0.87500
 C1313 C 0.46602 0.34833 0.89623
 C1314 C 0.44502 0.33451 0.91040
 C1315 C 0.43745 0.30920 0.90312
 H1316 H 0.44735 0.29927 0.88732
 O1317 O 0.63027 0.59372 0.97420
 O1318 O 0.66087 0.62397 0.97424
 C1319 C 0.65158 0.60273 0.96541
 C1320 C 0.66539 0.58852 0.94443
 C1321 C 0.69072 0.59575 0.93697
 H1322 H 0.70067 0.61154 0.94694
 O1323 O 0.37069 0.40532 0.97408
 O1324 O 0.34008 0.37508 0.97398
 C1325 C 0.34937 0.39631 0.96522
 C1326 C 0.33555 0.41054 0.94425
 C1327 C 0.31017 0.40337 0.93679
 H1328 H 0.30021 0.38762 0.94674
 Cu1329 Cu 0.50030 0.39050 0.89050
 Cu1330 Cu 0.50022 0.35398 0.85398
 Cu1331 Cu 0.50070 0.60841 0.89017
 Cu1332 Cu 0.50080 0.64478 0.85360
 Cu1333 Cu 0.39152 0.49946 0.89045
 Cu1334 Cu 0.35495 0.49937 0.85398
 Cu1335 Cu 0.60938 0.49950 0.89052
 Cu1336 Cu 0.64591 0.49942 0.85412
 C1337 C 0.43198 0.43106 0.84691
 H1338 H 0.43754 0.43662 0.86653
 C1339 C 0.41715 0.41624 0.79655
 C1340 C 0.56894 0.56767 0.84672
 H1341 H 0.56344 0.56224 0.86635
 C1342 C 0.58360 0.58220 0.79632
 C1343 C 0.34798 0.43114 0.93115
 H1344 H 0.36764 0.43662 0.93662
 C1345 C 0.29749 0.41654 0.91655
 C1346 C 0.65297 0.56787 0.93129
 H1347 H 0.63334 0.56235 0.93676
 C1348 C 0.70336 0.58261 0.91669
 C1349 C 0.43198 0.34690 0.93107
 H1350 H 0.43753 0.36652 0.93663
 C1351 C 0.41715 0.29655 0.91624
 C1352 C 0.56903 0.65199 0.93101
 H1353 H 0.56349 0.63237 0.93652
 C1354 C 0.58380 0.70235 0.91632
 C1355 C 0.43223 0.56764 0.84675
 H1356 H 0.43782 0.56214 0.86635
 C1357 C 0.41733 0.58234 0.79644
 C1358 C 0.56867 0.43107 0.84699
 H1359 H 0.56320 0.43658 0.86663
 C1360 C 0.58323 0.41636 0.79658
 C1361 C 0.56867 0.34699 0.93107
 H1362 H 0.56320 0.36662 0.93659
 C1363 C 0.58323 0.29658 0.91637
 C1364 C 0.43263 0.65219 0.93050
 H1365 H 0.43834 0.63267 0.93615
 C1366 C 0.41740 0.70227 0.91545
 C1367 C 0.34814 0.56776 0.93108
 H1368 H 0.36772 0.56214 0.93662
 C1369 C 0.29790 0.58281 0.91626
 C1370 C 0.65291 0.43125 0.93125
 H1371 H 0.63325 0.43667 0.93667
 C1372 C 0.70339 0.41678 0.91678
 O1373 O 0.52614 0.40506 1.12922
 O1374 O 0.52626 0.37476 1.15967
 C1375 C 0.53503 0.39603 1.15047
 C1376 C 0.55601 0.41029 1.16433
 C1377 C 0.56355 0.40308 1.18964
 H1378 H 0.55366 0.38725 1.19953
 O1379 O 0.47540 0.59377 1.12947
 O1380 O 0.47539 0.62405 1.16003
 C1381 C 0.46661 0.60278 1.15079
 C1382 C 0.44576 0.58844 1.16466
 C1383 C 0.43810 0.59579 1.18991
 H1384 H 0.44779 0.61182 1.19976
 O1385 O 0.37215 0.52457 1.09355
 O1386 O 0.34184 0.52494 1.12398
 C1387 C 0.35118 0.53381 1.10283
 C1388 C 0.33803 0.55572 1.08945
 C1389 C 0.31552 0.56688 1.10025
 H1390 H 0.30708 0.55891 1.11790
 O1391 O 0.63027 0.47419 1.09372
 O1392 O 0.66087 0.47424 1.12397
 C1393 C 0.65158 0.46540 1.10274
 C1394 C 0.66539 0.44443 1.08852
 C1395 C 0.69072 0.43697 1.09576
 H1396 H 0.70067 0.44694 1.11155
 O1397 O 0.59467 0.36952 1.02484
 O1398 O 0.62496 0.33905 1.02480
 C1399 C 0.60373 0.34824 1.03362
 C1400 C 0.58956 0.33435 1.05455
 C1401 C 0.59676 0.30901 1.06197
 H1402 H 0.61252 0.29910 1.05201
 O1403 O 0.40735 0.62968 1.02429
 O1404 O 0.37715 0.66024 1.02429
 C1405 C 0.39836 0.65099 1.03312
 C1406 C 0.41246 0.66479 1.05423
 C1407 C 0.40509 0.69003 1.06187
 H1408 H 0.38938 0.69997 1.05184
 O1409 O 0.40712 0.47345 1.12944
 O1410 O 0.37674 0.47349 1.15982
 C1411 C 0.39794 0.46461 1.15065
 C1412 C 0.41193 0.44353 1.16447
 C1413 C 0.40444 0.43585 1.18965
 H1414 H 0.38858 0.44574 1.19949
 O1415 O 0.59464 0.52492 1.12950
 O1416 O 0.62495 0.52501 1.16004
 C1417 C 0.60371 0.53379 1.15079
 C1418 C 0.58955 0.55478 1.16462
 C1419 C 0.59675 0.56226 1.18999
 H1420 H 0.61247 0.55227 1.19996
 O1421 O 0.47526 0.36938 1.09349
 O1422 O 0.47529 0.33878 1.12364
 C1423 C 0.46642 0.34808 1.10246
 C1424 C 0.44533 0.33432 1.08826
 C1425 C 0.43773 0.30903 1.09547
 H1426 H 0.44766 0.29907 1.11123
 O1427 O 0.52615 0.62943 1.09380
 O1428 O 0.52625 0.66000 1.12407
 C1429 C 0.53501 0.65073 1.10283
 C1430 C 0.55595 0.66457 1.08860
 C1431 C 0.56343 0.68994 1.09579
 H1432 H 0.55353 0.69988 1.11158
 O1433 O 0.37067 0.40521 1.02488
 O1434 O 0.34007 0.37497 1.02486
 C1435 C 0.34938 0.39618 1.03371
 C1436 C 0.33566 0.41039 1.05475
 C1437 C 0.31040 0.40310 1.06243
 H1438 H 0.30041 0.38727 1.05257
 O1439 O 0.63022 0.59377 1.02501
 O1440 O 0.66080 0.62403 1.02512
 C1441 C 0.65150 0.60282 1.03391
 C1442 C 0.66528 0.58867 1.05496
 C1443 C 0.69053 0.59606 1.06265
 H1444 H 0.70043 0.61191 1.05281
 O1445 O 0.52615 0.59379 1.12943
 O1446 O 0.52625 0.62407 1.16001
 C1447 C 0.53501 0.60283 1.15074
 C1448 C 0.55595 0.58860 1.16458
 C1449 C 0.56343 0.59578 1.18994
 H1450 H 0.55353 0.61157 1.19988
 O1451 O 0.47538 0.40475 1.12949
 O1452 O 0.47539 0.37442 1.15992
 C1453 C 0.46656 0.39564 1.15074
 C1454 C 0.44554 0.40975 1.16454
 C1455 C 0.43778 0.40234 1.18972
 H1456 H 0.44756 0.38646 1.19962
 O1457 O 0.63022 0.52500 1.09377
 O1458 O 0.66080 0.52511 1.12404
 C1459 C 0.65150 0.53390 1.10282
 C1460 C 0.66528 0.55495 1.08868
 C1461 C 0.69053 0.56264 1.09607
 H1462 H 0.70043 0.55280 1.11192
 O1463 O 0.37130 0.47372 1.09377
 O1464 O 0.34069 0.47399 1.12390
 C1465 C 0.34989 0.46508 1.10271
 C1466 C 0.33591 0.44415 1.08850
 C1467 C 0.31065 0.43660 1.09588
 H1468 H 0.30085 0.44650 1.11176
 O1469 O 0.59464 0.62949 1.02493
 O1470 O 0.62495 0.66003 1.02502
 C1471 C 0.60371 0.65079 1.03379
 C1472 C 0.58955 0.66461 1.05479
 C1473 C 0.59675 0.68998 1.06226
 H1474 H 0.61247 0.69995 1.05228
 O1475 O 0.40633 0.36956 1.02483
 O1476 O 0.37601 0.33903 1.02479
 C1477 C 0.39727 0.34826 1.03362
 C1478 C 0.41148 0.33441 1.05458
 C1479 C 0.40416 0.30911 1.06209
 H1480 H 0.38830 0.29922 1.05219
 O1481 O 0.59467 0.47410 1.12942
 O1482 O 0.62499 0.47413 1.15995
 C1483 C 0.60376 0.46526 1.15069
 C1484 C 0.58963 0.44419 1.16445
 C1485 C 0.59689 0.43669 1.18977
 H1486 H 0.61264 0.44669 1.19975
 O1487 O 0.40735 0.52429 1.12968
 O1488 O 0.37715 0.52429 1.16025
 C1489 C 0.39836 0.53311 1.15100
 C1490 C 0.41246 0.55423 1.16480
 C1491 C 0.40509 0.56187 1.19004
 H1492 H 0.38938 0.55183 1.19997
 O1493 O 0.47540 0.62947 1.09378
 O1494 O 0.47539 0.66003 1.12406
 C1495 C 0.46661 0.65079 1.10278
 C1496 C 0.44576 0.66466 1.08844
 C1497 C 0.43810 0.68991 1.09580
 H1498 H 0.44779 0.69975 1.11182
 O1499 O 0.52606 0.36931 1.09356
 O1500 O 0.52617 0.33872 1.12373
 C1501 C 0.53492 0.34802 1.10252
 C1502 C 0.55586 0.33426 1.08826
 C1503 C 0.56334 0.30893 1.09539
 H1504 H 0.55341 0.29896 1.11113
 O1505 O 0.63023 0.40538 1.02494
 O1506 O 0.66080 0.37519 1.02493
 C1507 C 0.65153 0.39640 1.03377
 C1508 C 0.66536 0.41064 1.05479
 C1509 C 0.69069 0.40347 1.06231
 H1510 H 0.70063 0.38769 1.05239
 O1511 O 0.37215 0.59354 1.02457
 O1512 O 0.34184 0.62397 1.02494
 C1513 C 0.35118 0.60283 1.03382
 C1514 C 0.33803 0.58944 1.05572
 C1515 C 0.31552 0.60025 1.06689
 H1516 H 0.30708 0.61789 1.05892
 Cu1517 Cu 0.50070 0.39017 1.10842
 Cu1518 Cu 0.50080 0.35359 1.14479
 Cu1519 Cu 0.50075 0.60858 1.10859
 Cu1520 Cu 0.50082 0.64510 1.14511
 Cu1521 Cu 0.39152 0.39045 0.99947
 Cu1522 Cu 0.35495 0.35398 0.99937
 Cu1523 Cu 0.60938 0.39052 0.99951
 Cu1524 Cu 0.64591 0.35411 0.99942
 Cu1525 Cu 0.39252 0.60857 0.99894
 Cu1526 Cu 0.35600 0.64499 0.99916
 Cu1527 Cu 0.60941 0.60857 0.99955
 Cu1528 Cu 0.64597 0.64505 0.99964
 Cu1529 Cu 0.39252 0.49893 1.10858
 Cu1530 Cu 0.35600 0.49915 1.14500
 Cu1531 Cu 0.60941 0.49955 1.10858
 Cu1532 Cu 0.64597 0.49963 1.14506
 C1533 C 0.56903 0.43101 1.15199
 H1534 H 0.56349 0.43651 1.13238
 C1535 C 0.58380 0.41632 1.20235
 C1536 C 0.43296 0.56749 1.15238
 H1537 H 0.43856 0.56188 1.13281
 C1538 C 0.41794 0.58246 1.20259
 C1539 C 0.34902 0.56698 1.06699
 H1540 H 0.36668 0.55882 1.05882
 C1541 C 0.30444 0.58910 1.08910
 C1542 C 0.65297 0.43128 1.06788
 H1543 H 0.63334 0.43676 1.06235
 C1544 C 0.70336 0.41668 1.08261
 C1545 C 0.56894 0.34671 1.06768
 H1546 H 0.56344 0.36635 1.06224
 C1547 C 0.58360 0.29631 1.08221
 C1548 C 0.43296 0.65238 1.06749
 H1549 H 0.43856 0.63281 1.06189
 C1550 C 0.41794 0.70259 1.08246
 C1551 C 0.43263 0.43050 1.15219
 H1552 H 0.43834 0.43615 1.13268
 C1553 C 0.41740 0.41544 1.20227
 C1554 C 0.56899 0.56794 1.15218
 H1555 H 0.56350 0.56245 1.13252
 C1556 C 0.58364 0.58256 1.20264
 C1557 C 0.43223 0.34675 1.06765
 H1558 H 0.43782 0.36635 1.06214
 C1559 C 0.41733 0.29643 1.08235
 C1560 C 0.56899 0.65217 1.06794
 H1561 H 0.56349 0.63252 1.06246
 C1562 C 0.58364 0.70263 1.08257
 C1563 C 0.34814 0.43107 1.06777
 H1564 H 0.36772 0.43662 1.06214
 C1565 C 0.29790 0.41625 1.08282
 C1566 C 0.65292 0.56795 1.06796
 H1567 H 0.63335 0.56231 1.06231
 C1568 C 0.70314 0.58301 1.08302
 C1569 C 1.12087 1.12121 1.34665
 C1570 C 1.11521 1.11573 1.32448
 C1571 C 1.10850 1.10921 1.29859
 C1572 C 1.10269 1.10354 1.27653
 C1573 C 1.09578 1.09677 1.25075
 C1574 C 1.08980 1.09086 1.22879
 C1575 C 1.12252 0.62252 0.84634
 C1576 C 1.11674 0.61674 0.82427
 C1577 C 1.10985 0.60985 0.79852
 C1578 C 1.10386 0.60386 0.77659
 C1579 C 1.09672 0.59672 0.75097
 C1580 C 1.09053 0.59052 0.72914
 C1581 C 0.62084 1.12084 0.84625
 C1582 C 0.61523 1.11522 0.82410
 C1583 C 0.60856 1.10855 0.79824
 C1584 C 0.60276 1.10276 0.77620
 C1585 C 0.59586 1.09586 0.75046
 C1586 C 0.58986 1.08986 0.72853
 C1587 C 0.62122 0.62086 1.34665
 C1588 C 0.61573 0.61521 1.32448
 C1589 C 0.60921 0.60850 1.29859
 C1590 C 0.60354 0.60269 1.27653
 C1591 C 0.59677 0.59578 1.25075
 C1592 C 0.59086 0.58980 1.22879
 C1593 C 0.87706 0.87727 1.34539
 C1594 C 0.88262 0.88303 1.32329
 C1595 C 0.88925 0.89001 1.29753
 C1596 C 0.89502 0.89613 1.27560
 C1597 C 0.90193 0.90345 1.25001
 C1598 C 0.90799 0.90978 1.22822
 C1599 C 0.87916 0.37916 0.84735
 C1600 C 0.88471 0.38471 0.82520
 C1601 C 0.89128 0.39128 0.79933
 C1602 C 0.89698 0.39698 0.77728
 C1603 C 0.90375 0.40375 0.75151
 C1604 C 0.90963 0.40963 0.72955
 C1605 C 0.37730 0.87730 0.84529
 C1606 C 0.38299 0.88299 0.82321
 C1607 C 0.38978 0.88977 0.79744
 C1608 C 0.39568 0.89568 0.77550
 C1609 C 0.40272 0.90272 0.74987
 C1610 C 0.40883 0.90883 0.72803
 C1611 C 0.37728 0.37705 1.34539
 C1612 C 0.38303 0.38262 1.32329
 C1613 C 0.39001 0.38924 1.29753
 C1614 C 0.39613 0.39501 1.27560
 C1615 C 0.40345 0.40193 1.25001
 C1616 C 0.40978 0.40799 1.22822
 C1617 C 0.87812 1.12090 0.65272
 C1618 C 0.88372 1.11536 0.67487
 C1619 C 0.89040 1.10879 0.70074
 C1620 C 0.89619 1.10310 0.72277
 C1621 C 0.90310 1.09632 0.74852
 C1622 C 0.90909 1.09042 0.77046
 C1623 C 0.87808 0.62267 0.15456
 C1624 C 0.88364 0.61694 0.17668
 C1625 C 0.89025 0.61000 0.20248
 C1626 C 0.89600 0.60392 0.22443
 C1627 C 0.90287 0.59665 0.25006
 C1628 C 0.90889 0.59037 0.27189
 C1629 C 0.37846 1.12106 0.15280
 C1630 C 0.38398 1.11539 0.17494
 C1631 C 0.39053 1.10861 0.20078
 C1632 C 0.39622 1.10271 0.22280
 C1633 C 0.40303 1.09569 0.24851
 C1634 C 0.40898 1.08961 0.27041
 C1635 C 0.37868 0.62095 0.65292
 C1636 C 0.38437 0.61533 0.67503
 C1637 C 0.39111 0.60859 0.70084
 C1638 C 0.39694 0.60272 0.72282
 C1639 C 0.40389 0.59572 0.74850
 C1640 C 0.40994 0.58966 0.77038
 C1641 C 1.12096 0.87868 0.65292
 C1642 C 1.11533 0.88437 0.67503
 C1643 C 1.10859 0.89111 0.70084
 C1644 C 1.10272 0.89694 0.72282
 C1645 C 1.09572 0.90389 0.74850
 C1646 C 1.08966 0.90994 0.77038
 C1647 C 1.12267 0.37808 0.15456
 C1648 C 1.11694 0.38364 0.17668
 C1649 C 1.11000 0.39024 0.20248
 C1650 C 1.10392 0.39599 0.22443
 C1651 C 1.09665 0.40287 0.25006
 C1652 C 1.09037 0.40889 0.27189
 C1653 C 0.62106 0.87846 0.15280
 C1654 C 0.61540 0.88398 0.17494
 C1655 C 0.60861 0.89053 0.20078
 C1656 C 0.60271 0.89622 0.22280
 C1657 C 0.59569 0.90303 0.24851
 C1658 C 0.58962 0.90897 0.27041
 C1659 C 0.62090 0.37812 0.65272
 C1660 C 0.61536 0.38372 0.67487
 C1661 C 0.60879 0.39039 0.70074
 C1662 C 0.60310 0.39619 0.72277
 C1663 C 0.59632 0.40309 0.74852
 C1664 C 0.59042 0.40909 0.77046
 C1665 C 1.34664 1.12122 1.12087
 C1666 C 1.32447 1.11573 1.11522
 C1667 C 1.29858 1.10921 1.10851
 C1668 C 1.27652 1.10354 1.10269
 C1669 C 1.25075 1.09677 1.09579
 C1670 C 1.22879 1.09086 1.08981
 C1671 C 1.34665 0.62086 0.62122
 C1672 C 1.32447 0.61521 0.61573
 C1673 C 1.29858 0.60850 0.60921
 C1674 C 1.27652 0.60269 0.60354
 C1675 C 1.25075 0.59578 0.59677
 C1676 C 1.22879 0.58980 0.59086
 C1677 C 0.84625 1.12084 0.62085
 C1678 C 0.82410 1.11523 0.61523
 C1679 C 0.79823 1.10856 0.60856
 C1680 C 0.77620 1.10276 0.60277
 C1681 C 0.75045 1.09586 0.59587
 C1682 C 0.72852 1.08987 0.58987
 C1683 C 0.84634 0.62252 1.12252
 C1684 C 0.82427 0.61674 1.11674
 C1685 C 0.79851 0.60985 1.10985
 C1686 C 0.77658 0.60386 1.10386
 C1687 C 0.75097 0.59672 1.09672
 C1688 C 0.72914 0.59052 1.09053
 C1689 C 1.34539 0.87727 0.87706
 C1690 C 1.32329 0.88303 0.88263
 C1691 C 1.29752 0.89001 0.88925
 C1692 C 1.27560 0.89613 0.89502
 C1693 C 1.25001 0.90345 0.90194
 C1694 C 1.22822 0.90978 0.90800
 C1695 C 1.34539 0.37705 0.37728
 C1696 C 1.32329 0.38262 0.38304
 C1697 C 1.29752 0.38924 0.39001
 C1698 C 1.27560 0.39501 0.39614
 C1699 C 1.25001 0.40193 0.40345
 C1700 C 1.22822 0.40799 0.40979
 C1701 C 0.84528 0.87730 0.37731
 C1702 C 0.82320 0.88299 0.38299
 C1703 C 0.79743 0.88978 0.38978
 C1704 C 0.77549 0.89568 0.39568
 C1705 C 0.74986 0.90272 0.40272
 C1706 C 0.72803 0.90883 0.40883
 C1707 C 0.84735 0.37916 0.87916
 C1708 C 0.82520 0.38471 0.88471
 C1709 C 0.79932 0.39128 0.89128
 C1710 C 0.77727 0.39697 0.89698
 C1711 C 0.75150 0.40375 0.90375
 C1712 C 0.72955 0.40963 0.90964
 C1713 C 0.65292 0.87867 1.12096
 C1714 C 0.67503 0.88437 1.11534
 C1715 C 0.70083 0.89111 1.10860
 C1716 C 0.72281 0.89694 1.10273
 C1717 C 0.74850 0.90389 1.09573
 C1718 C 0.77037 0.90994 1.08967
 C1719 C 0.65272 0.37812 0.62090
 C1720 C 0.67487 0.38372 0.61536
 C1721 C 0.70073 0.39040 0.60880
 C1722 C 0.72277 0.39619 0.60310
 C1723 C 0.74852 0.40309 0.59632
 C1724 C 0.77045 0.40909 0.59042
 C1725 C 0.15279 0.87846 0.62107
 C1726 C 0.17493 0.88398 0.61540
 C1727 C 0.20078 0.89053 0.60862
 C1728 C 0.22279 0.89622 0.60271
 C1729 C 0.24850 0.90303 0.59569
 C1730 C 0.27041 0.90897 0.58962
 C1731 C 0.15456 0.37808 1.12268
 C1732 C 0.17668 0.38364 1.11694
 C1733 C 0.20248 0.39024 1.11000
 C1734 C 0.22443 0.39599 1.10392
 C1735 C 0.25006 0.40287 1.09665
 C1736 C 0.27189 0.40889 1.09037
 C1737 C 0.65272 1.12090 0.87812
 C1738 C 0.67487 1.11536 0.88373
 C1739 C 0.70073 1.10879 0.89040
 C1740 C 0.72277 1.10310 0.89620
 C1741 C 0.74852 1.09632 0.90310
 C1742 C 0.77045 1.09042 0.90909
 C1743 C 0.65292 0.62095 0.37868
 C1744 C 0.67502 0.61533 0.38438
 C1745 C 0.70083 0.60859 0.39111
 C1746 C 0.72281 0.60272 0.39695
 C1747 C 0.74850 0.59572 0.40390
 C1748 C 0.77037 0.58966 0.40995
 C1749 C 0.15279 1.12106 0.37846
 C1750 C 0.17494 1.11539 0.38398
 C1751 C 0.20078 1.10861 0.39053
 C1752 C 0.22279 1.10271 0.39622
 C1753 C 0.24851 1.09568 0.40303
 C1754 C 0.27041 1.08961 0.40898
 C1755 C 0.15456 0.62267 0.87808
 C1756 C 0.17668 0.61694 0.88364
 C1757 C 0.20248 0.61000 0.89025
 C1758 C 0.22443 0.60392 0.89600
 C1759 C 0.25006 0.59665 0.90288
 C1760 C 0.27189 0.59037 0.90889
 C1761 C 1.12252 1.34634 1.12252
 C1762 C 1.11674 1.32427 1.11674
 C1763 C 1.10985 1.29851 1.10985
 C1764 C 1.10386 1.27658 1.10386
 C1765 C 1.09672 1.25096 1.09672
 C1766 C 1.09053 1.22914 1.09053
 C1767 C 1.12087 0.84664 0.62122
 C1768 C 1.11521 0.82447 0.61573
 C1769 C 1.10850 0.79858 0.60922
 C1770 C 1.10269 0.77652 0.60355
 C1771 C 1.09578 0.75075 0.59677
 C1772 C 1.08980 0.72879 0.59086
 C1773 C 0.62084 1.34625 0.62084
 C1774 C 0.61523 1.32410 0.61523
 C1775 C 0.60856 1.29823 0.60856
 C1776 C 0.60276 1.27620 0.60277
 C1777 C 0.59586 1.25045 0.59586
 C1778 C 0.58987 1.22852 0.58987
 C1779 C 0.62122 0.84664 1.12087
 C1780 C 0.61573 0.82447 1.11522
 C1781 C 0.60921 0.79858 1.10851
 C1782 C 0.60354 0.77652 1.10269
 C1783 C 0.59677 0.75075 1.09579
 C1784 C 0.59086 0.72879 1.08981
 C1785 C 0.87916 1.34735 0.87916
 C1786 C 0.88471 1.32520 0.88471
 C1787 C 0.89128 1.29932 0.89128
 C1788 C 0.89698 1.27727 0.89698
 C1789 C 0.90375 1.25150 0.90375
 C1790 C 0.90963 1.22955 0.90964
 C1791 C 0.87706 0.84539 0.37728
 C1792 C 0.88262 0.82329 0.38304
 C1793 C 0.88925 0.79752 0.39001
 C1794 C 0.89502 0.77560 0.39614
 C1795 C 0.90193 0.75001 0.40345
 C1796 C 0.90799 0.72822 0.40978
 C1797 C 0.37730 1.34528 0.37731
 C1798 C 0.38299 1.32320 0.38299
 C1799 C 0.38978 1.29743 0.38978
 C1800 C 0.39568 1.27549 0.39568
 C1801 C 0.40272 1.24986 0.40272
 C1802 C 0.40883 1.22803 0.40883
 C1803 C 0.37728 0.84539 0.87706
 C1804 C 0.38303 0.82329 0.88263
 C1805 C 0.39001 0.79752 0.88925
 C1806 C 0.39613 0.77560 0.89502
 C1807 C 0.40345 0.75001 0.90194
 C1808 C 0.40978 0.72822 0.90800
 C1809 C 1.12267 0.65456 0.87808
 C1810 C 1.11694 0.67668 0.88364
 C1811 C 1.11000 0.70248 0.89025
 C1812 C 1.10392 0.72443 0.89600
 C1813 C 1.09665 0.75006 0.90288
 C1814 C 1.09037 0.77189 0.90889
 C1815 C 1.12096 0.15292 0.37868
 C1816 C 1.11533 0.17502 0.38438
 C1817 C 1.10859 0.20083 0.39111
 C1818 C 1.10272 0.22281 0.39695
 C1819 C 1.09572 0.24849 0.40390
 C1820 C 1.08966 0.27037 0.40995
 C1821 C 0.62106 0.65279 0.37846
 C1822 C 0.61540 0.67493 0.38398
 C1823 C 0.60861 0.70078 0.39053
 C1824 C 0.60271 0.72279 0.39622
 C1825 C 0.59569 0.74850 0.40303
 C1826 C 0.58962 0.77041 0.40898
 C1827 C 0.62090 0.15272 0.87812
 C1828 C 0.61536 0.17486 0.88373
 C1829 C 0.60879 0.20073 0.89040
 C1830 C 0.60310 0.22277 0.89620
 C1831 C 0.59632 0.24852 0.90310
 C1832 C 0.59042 0.27045 0.90909
 C1833 C 0.87808 0.65456 1.12268
 C1834 C 0.88364 0.67668 1.11694
 C1835 C 0.89025 0.70247 1.11000
 C1836 C 0.89600 0.72443 1.10392
 C1837 C 0.90287 0.75006 1.09665
 C1838 C 0.90889 0.77189 1.09037
 C1839 C 0.87812 0.15272 0.62091
 C1840 C 0.88372 0.17487 0.61536
 C1841 C 0.89040 0.20073 0.60880
 C1842 C 0.89619 0.22277 0.60310
 C1843 C 0.90310 0.24852 0.59632
 C1844 C 0.90909 0.27045 0.59042
 C1845 C 0.37846 0.65279 0.62107
 C1846 C 0.38398 0.67493 0.61540
 C1847 C 0.39053 0.70078 0.60862
 C1848 C 0.39622 0.72279 0.60271
 C1849 C 0.40303 0.74850 0.59569
 C1850 C 0.40898 0.77041 0.58962
 C1851 C 0.37868 0.15292 1.12096
 C1852 C 0.38437 0.17502 1.11534
 C1853 C 0.39111 0.20083 1.10860
 C1854 C 0.39694 0.22281 1.10273
 C1855 C 0.40389 0.24849 1.09573
 C1856 C 0.40994 0.27037 1.08967
 C1857 C 1.12107 1.12079 0.65259
 C1858 C 1.11536 1.11530 0.67471
 C1859 C 1.10852 1.10886 0.70054
 C1860 C 1.10257 1.10329 0.72256
 C1861 C 1.09551 1.09664 0.74828
 C1862 C 1.08945 1.09081 0.77020
 C1863 C 1.16742 0.66742 0.19917
 C1864 C 1.15456 0.65456 0.21396
 C1865 C 1.13976 0.63975 0.23167
 C1866 C 1.12742 0.62742 0.24730
 C1867 C 1.11345 0.61345 0.26632
 C1868 C 1.10202 0.60202 0.28328
 C1869 C 0.62083 1.12082 0.15301
 C1870 C 0.61526 1.11526 0.17516
 C1871 C 0.60861 1.10861 0.20100
 C1872 C 0.60281 1.10281 0.22300
 C1873 C 0.59587 1.09587 0.24870
 C1874 C 0.58984 1.08984 0.27058
 C1875 C 0.62079 0.62107 0.65259
 C1876 C 0.61530 0.61536 0.67471
 C1877 C 0.60886 0.60852 0.70054
 C1878 C 0.60329 0.60257 0.72256
 C1879 C 0.59664 0.59551 0.74828
 C1880 C 0.59081 0.58945 0.77020
 C1881 C 0.87777 0.87826 0.65293
 C1882 C 0.88339 0.88401 0.67504
 C1883 C 0.89008 0.89083 0.70086
 C1884 C 0.89590 0.89672 0.72286
 C1885 C 0.90285 0.90373 0.74857
 C1886 C 0.90889 0.90980 0.77047
 C1887 C 0.87879 0.37879 0.15337
 C1888 C 0.88431 0.38430 0.17557
 C1889 C 0.89088 0.39087 0.20149
 C1890 C 0.89659 0.39659 0.22356
 C1891 C 0.90340 0.40340 0.24936
 C1892 C 0.90933 0.40933 0.27133
 C1893 C 0.37762 0.87761 0.15274
 C1894 C 0.38325 0.88325 0.17488
 C1895 C 0.38997 0.88996 0.20073
 C1896 C 0.39580 0.89580 0.22274
 C1897 C 0.40276 0.90275 0.24845
 C1898 C 0.40880 0.90880 0.27036
 C1899 C 0.37827 0.37777 0.65293
 C1900 C 0.38402 0.38339 0.67504
 C1901 C 0.39083 0.39008 0.70086
 C1902 C 0.39672 0.39590 0.72286
 C1903 C 0.40373 0.40285 0.74857
 C1904 C 0.40980 0.40889 0.77047
 C1905 C 1.12084 0.87765 1.34576
 C1906 C 1.11523 0.88344 1.32366
 C1907 C 1.10860 0.89048 1.29790
 C1908 C 1.10284 0.89666 1.27598
 C1909 C 1.09595 0.90403 1.25038
 C1910 C 1.08990 0.91037 1.22857
 C1911 C 1.12134 0.37888 0.84707
 C1912 C 1.11564 0.38444 0.82495
 C1913 C 1.10886 0.39103 0.79911
 C1914 C 1.10298 0.39674 0.77710
 C1915 C 1.09598 0.40354 0.75138
 C1916 C 1.08993 0.40946 0.72947
 C1917 C 0.62104 0.87802 0.84591
 C1918 C 0.61540 0.88361 0.82378
 C1919 C 0.60870 0.89030 0.79794
 C1920 C 0.60289 0.89614 0.77594
 C1921 C 0.59596 0.90310 0.75025
 C1922 C 0.58994 0.90914 0.72836
 C1923 C 0.62126 0.37776 1.34619
 C1924 C 0.61582 0.38340 1.32403
 C1925 C 0.60935 0.39014 1.29815
 C1926 C 0.60372 0.39602 1.27612
 C1927 C 0.59697 0.40300 1.25038
 C1928 C 0.59106 0.40904 1.22846
 C1929 C 0.87776 1.12126 1.34619
 C1930 C 0.88340 1.11582 1.32403
 C1931 C 0.89015 1.10935 1.29815
 C1932 C 0.89602 1.10372 1.27612
 C1933 C 0.90300 1.09697 1.25038
 C1934 C 0.90904 1.09106 1.22846
 C1935 C 0.87888 0.62134 0.84706
 C1936 C 0.88444 0.61564 0.82494
 C1937 C 0.89103 0.60886 0.79911
 C1938 C 0.89674 0.60298 0.77710
 C1939 C 0.90354 0.59598 0.75138
 C1940 C 0.90946 0.58993 0.72947
 C1941 C 0.37802 1.12104 0.84590
 C1942 C 0.38361 1.11540 0.82377
 C1943 C 0.39030 1.10870 0.79794
 C1944 C 0.39614 1.10289 0.77594
 C1945 C 0.40310 1.09596 0.75025
 C1946 C 0.40914 1.08994 0.72836
 C1947 C 0.37765 0.62083 1.34576
 C1948 C 0.38344 0.61523 1.32367
 C1949 C 0.39049 0.60860 1.29790
 C1950 C 0.39666 0.60284 1.27598
 C1951 C 0.40403 0.59595 1.25038
 C1952 C 0.41037 0.58990 1.22857
 C1953 C 1.12134 1.34706 0.87888
 C1954 C 1.11564 1.32494 0.88445
 C1955 C 1.10886 1.29911 0.89103
 C1956 C 1.10298 1.27710 0.89674
 C1957 C 1.09598 1.25138 0.90354
 C1958 C 1.08993 1.22947 0.90946
 C1959 C 1.12084 0.84575 0.37765
 C1960 C 1.11523 0.82366 0.38345
 C1961 C 1.10860 0.79790 0.39049
 C1962 C 1.10284 0.77597 0.39667
 C1963 C 1.09595 0.75037 0.40403
 C1964 C 1.08990 0.72857 0.41037
 C1965 C 0.62104 1.34590 0.37803
 C1966 C 0.61540 1.32377 0.38362
 C1967 C 0.60870 1.29794 0.39031
 C1968 C 0.60289 1.27594 0.39614
 C1969 C 0.59596 1.25024 0.40310
 C1970 C 0.58994 1.22835 0.40915
 C1971 C 0.62126 0.84619 0.87776
 C1972 C 0.61582 0.82402 0.88340
 C1973 C 0.60935 0.79815 0.89015
 C1974 C 0.60372 0.77611 0.89602
 C1975 C 0.59697 0.75037 0.90300
 C1976 C 0.59106 0.72845 0.90904
 C1977 C 0.87888 1.34706 1.12135
 C1978 C 0.88444 1.32494 1.11565
 C1979 C 0.89103 1.29911 1.10887
 C1980 C 0.89674 1.27710 1.10298
 C1981 C 0.90354 1.25138 1.09599
 C1982 C 0.90946 1.22946 1.08993
 C1983 C 0.87776 0.84619 0.62127
 C1984 C 0.88340 0.82402 0.61582
 C1985 C 0.89015 0.79815 0.60935
 C1986 C 0.89602 0.77611 0.60372
 C1987 C 0.90300 0.75037 0.59698
 C1988 C 0.90904 0.72845 0.59106
 C1989 C 0.37803 1.34590 0.62104
 C1990 C 0.38361 1.32377 0.61540
 C1991 C 0.39030 1.29794 0.60871
 C1992 C 0.39614 1.27594 0.60289
 C1993 C 0.40310 1.25024 0.59597
 C1994 C 0.40914 1.22835 0.58994
 C1995 C 0.37765 0.84575 1.12084
 C1996 C 0.38345 0.82366 1.11523
 C1997 C 0.39049 0.79790 1.10860
 C1998 C 0.39666 0.77597 1.10284
 C1999 C 0.40403 0.75037 1.09595
 C2000 C 0.41037 0.72857 1.08991
 C2001 C 0.87879 0.65336 0.87879
 C2002 C 0.88431 0.67556 0.88431
 C2003 C 0.89088 0.70148 0.89088
 C2004 C 0.89659 0.72356 0.89659
 C2005 C 0.90340 0.74935 0.90341
 C2006 C 0.90933 0.77132 0.90933
 C2007 C 0.87777 0.15293 0.37827
 C2008 C 0.88339 0.17504 0.38402
 C2009 C 0.89008 0.20086 0.39083
 C2010 C 0.89590 0.22286 0.39673
 C2011 C 0.90285 0.24856 0.40373
 C2012 C 0.90889 0.27046 0.40980
 C2013 C 0.37762 0.65274 0.37762
 C2014 C 0.38325 0.67488 0.38326
 C2015 C 0.38997 0.70072 0.38997
 C2016 C 0.39580 0.72273 0.39580
 C2017 C 0.40276 0.74845 0.40276
 C2018 C 0.40880 0.77035 0.40880
 C2019 C 0.37827 0.15293 0.87777
 C2020 C 0.38401 0.17504 0.88339
 C2021 C 0.39083 0.20086 0.89009
 C2022 C 0.39672 0.22286 0.89591
 C2023 C 0.40373 0.24856 0.90285
 C2024 C 0.40980 0.27046 0.90889
 C2025 C 1.16742 0.69916 1.16743
 C2026 C 1.15456 0.71396 1.15456
 C2027 C 1.13976 0.73166 1.13976
 C2028 C 1.12742 0.74730 1.12742
 C2029 C 1.11345 0.76631 1.11346
 C2030 C 1.10202 0.78328 1.10203
 C2031 C 1.12107 0.15258 0.62079
 C2032 C 1.11536 0.17470 0.61530
 C2033 C 1.10852 0.20054 0.60886
 C2034 C 1.10257 0.22255 0.60330
 C2035 C 1.09551 0.24828 0.59665
 C2036 C 1.08945 0.27020 0.59081
 C2037 C 0.62083 0.65301 0.62083
 C2038 C 0.61526 0.67516 0.61527
 C2039 C 0.60861 0.70100 0.60861
 C2040 C 0.60281 0.72300 0.60281
 C2041 C 0.59587 0.74869 0.59588
 C2042 C 0.58984 0.77057 0.58985
 C2043 C 0.62079 0.15258 1.12108
 C2044 C 0.61530 0.17470 1.11537
 C2045 C 0.60886 0.20054 1.10852
 C2046 C 0.60329 0.22255 1.10257
 C2047 C 0.59664 0.24828 1.09551
 C2048 C 0.59081 0.27020 1.08945
 C2049 C 1.34619 1.12126 0.87776
 C2050 C 1.32402 1.11582 0.88340
 C2051 C 1.29815 1.10935 0.89015
 C2052 C 1.27611 1.10372 0.89602
 C2053 C 1.25038 1.09697 0.90300
 C2054 C 1.22845 1.09106 0.90904
 C2055 C 1.34575 0.62083 0.37765
 C2056 C 1.32366 0.61523 0.38345
 C2057 C 1.29790 0.60860 0.39049
 C2058 C 1.27598 0.60284 0.39667
 C2059 C 1.25037 0.59595 0.40403
 C2060 C 1.22857 0.58990 0.41037
 C2061 C 0.84590 1.12104 0.37803
 C2062 C 0.82377 1.11540 0.38362
 C2063 C 0.79794 1.10870 0.39031
 C2064 C 0.77594 1.10289 0.39614
 C2065 C 0.75024 1.09596 0.40310
 C2066 C 0.72835 1.08994 0.40915
 C2067 C 0.84706 0.62134 0.87888
 C2068 C 0.82494 0.61564 0.88444
 C2069 C 0.79911 0.60886 0.89103
 C2070 C 0.77710 0.60298 0.89674
 C2071 C 0.75138 0.59598 0.90354
 C2072 C 0.72947 0.58993 0.90946
 C2073 C 1.34575 0.87765 1.12084
 C2074 C 1.32366 0.88344 1.11523
 C2075 C 1.29790 0.89049 1.10860
 C2076 C 1.27598 0.89666 1.10284
 C2077 C 1.25037 0.90403 1.09595
 C2078 C 1.22857 0.91037 1.08991
 C2079 C 1.34619 0.37776 0.62127
 C2080 C 1.32402 0.38340 0.61582
 C2081 C 1.29815 0.39014 0.60935
 C2082 C 1.27611 0.39601 0.60372
 C2083 C 1.25038 0.40300 0.59698
 C2084 C 1.22845 0.40904 0.59107
 C2085 C 0.84590 0.87802 0.62104
 C2086 C 0.82377 0.88361 0.61540
 C2087 C 0.79794 0.89030 0.60870
 C2088 C 0.77594 0.89614 0.60289
 C2089 C 0.75024 0.90310 0.59597
 C2090 C 0.72835 0.90914 0.58994
 C2091 C 0.84706 0.37887 1.12135
 C2092 C 0.82494 0.38444 1.11565
 C2093 C 0.79911 0.39102 1.10887
 C2094 C 0.77710 0.39673 1.10298
 C2095 C 0.75138 0.40354 1.09599
 C2096 C 0.72947 0.40946 1.08993
 C2097 C 0.65258 1.12079 1.12108
 C2098 C 0.67471 1.11530 1.11537
 C2099 C 0.70054 1.10886 1.10852
 C2100 C 0.72256 1.10329 1.10257
 C2101 C 0.74828 1.09664 1.09551
 C2102 C 0.77020 1.09081 1.08945
 C2103 C 0.65258 0.62107 0.62079
 C2104 C 0.67471 0.61536 0.61530
 C2105 C 0.70054 0.60852 0.60886
 C2106 C 0.72256 0.60257 0.60330
 C2107 C 0.74828 0.59551 0.59665
 C2108 C 0.77020 0.58945 0.59081
 C2109 C 0.15301 1.12082 0.62083
 C2110 C 0.17516 1.11526 0.61527
 C2111 C 0.20100 1.10861 0.60861
 C2112 C 0.22300 1.10280 0.60281
 C2113 C 0.24869 1.09587 0.59588
 C2114 C 0.27057 1.08984 0.58984
 C2115 C 0.19916 0.66742 1.16743
 C2116 C 0.21396 0.65456 1.15456
 C2117 C 0.23167 0.63975 1.13976
 C2118 C 0.24730 0.62742 1.12742
 C2119 C 0.26632 0.61345 1.11346
 C2120 C 0.28328 0.60202 1.10203
 C2121 C 0.65293 0.87826 0.87777
 C2122 C 0.67504 0.88401 0.88339
 C2123 C 0.70086 0.89082 0.89009
 C2124 C 0.72286 0.89672 0.89591
 C2125 C 0.74856 0.90373 0.90285
 C2126 C 0.77046 0.90980 0.90889
 C2127 C 0.65293 0.37777 0.37827
 C2128 C 0.67504 0.38339 0.38402
 C2129 C 0.70086 0.39008 0.39083
 C2130 C 0.72286 0.39590 0.39673
 C2131 C 0.74856 0.40285 0.40373
 C2132 C 0.77046 0.40889 0.40980
 C2133 C 0.15274 0.87761 0.37762
 C2134 C 0.17488 0.88325 0.38325
 C2135 C 0.20072 0.88996 0.38997
 C2136 C 0.22274 0.89580 0.39580
 C2137 C 0.24845 0.90275 0.40276
 C2138 C 0.27036 0.90880 0.40880
 C2139 C 0.15336 0.37879 0.87880
 C2140 C 0.17556 0.38431 0.88431
 C2141 C 0.20148 0.39088 0.89088
 C2142 C 0.22356 0.39659 0.89659
 C2143 C 0.24935 0.40340 0.90341
 C2144 C 0.27132 0.40933 0.90933
   
