data_POSCAR
  _audit_creation_date              2014-09-24
  _audit_creation_method            'ToBaCCo'
  _symmetry_space_group_name_H-M    'P1'
  _symmetry_Int_Tables_number       1
  _symmetry_cell_setting            triclinic
  loop_
  _symmetry_equiv_pos_as_xyz
 x,y,z
_cell_length_a 62.5142
_cell_length_b 62.7692
_cell_length_c 62.9497
_cell_angle_alpha 90.020300
_cell_angle_beta 89.997000
_cell_angle_gamma 89.971600
loop_
  _atom_site_label
  _atom_site_type_symbol
  _atom_site_fract_x
  _atom_site_fract_y
  _atom_site_fract_z
N1 N 0.37331 0.31388 0.33070
 N2 N 0.37366 0.32887 0.31613
 C3 C 0.39041 0.32540 0.30307
 C4 C 0.40109 0.30730 0.30985
 C5 C 0.38972 0.30045 0.32745
 H6 H 0.39446 0.33507 0.28943
 H7 H 0.39285 0.28660 0.33712
 Cu8 Cu 0.35186 0.35108 0.31557
 Cu9 Cu 0.35159 0.31238 0.35278
 Cu10 Cu 0.31277 0.35160 0.35219
 N11 N 0.32977 0.37305 0.31552
 N12 N 0.31462 0.37293 0.32998
 C13 C 0.30125 0.38929 0.32654
 C14 C 0.30825 0.40044 0.30891
 C15 C 0.32645 0.38966 0.30230
 H16 H 0.28735 0.39254 0.33616
 H17 H 0.33628 0.39353 0.28870
 N18 N 0.31350 0.32874 0.37349
 N19 N 0.32823 0.31370 0.37379
 C20 C 0.32429 0.30056 0.39028
 C21 C 0.30628 0.30774 0.40088
 C22 C 0.29986 0.32561 0.38970
 H23 H 0.33375 0.28672 0.39436
 H24 H 0.28620 0.33560 0.39296
 H25 H 0.32812 0.32759 0.33554
 H26 H 0.34509 0.34451 0.35318
 N27 N 0.37239 0.81301 -0.17060
 N28 N 0.37260 0.82765 -0.18553
 C29 C 0.38933 0.82387 -0.19858
 C30 C 0.40020 0.80592 -0.19138
 C31 C 0.38882 0.79951 -0.17357
 H32 H 0.39335 0.83332 -0.21237
 H33 H 0.39194 0.78596 -0.16350
 Cu34 Cu 0.35072 0.85007 -0.18618
 Cu35 Cu 0.35097 0.81206 -0.14816
 Cu36 Cu 0.31224 0.85129 -0.14889
 N37 N 0.32852 0.87221 -0.18622
 N38 N 0.31365 0.87225 -0.17146
 C39 C 0.30029 0.88868 -0.17463
 C40 C 0.30698 0.89988 -0.19239
 C41 C 0.32500 0.88886 -0.19939
 H42 H 0.28664 0.89193 -0.16468
 H43 H 0.33468 0.89272 -0.21310
 N44 N 0.31321 0.82887 -0.12717
 N45 N 0.32794 0.81383 -0.12678
 C46 C 0.32417 0.80098 -0.11002
 C47 C 0.30625 0.80834 -0.09935
 C48 C 0.29974 0.82603 -0.11074
 H49 H 0.33362 0.78718 -0.10583
 H50 H 0.28611 0.83606 -0.10749
 H51 H 0.32735 0.82694 -0.16535
 H52 H 0.34462 0.84419 -0.14831
 N53 N 0.87283 0.31567 -0.17075
 N54 N 0.87247 0.33074 -0.18526
 C55 C 0.88878 0.32764 -0.19889
 C56 C 0.90005 0.30968 -0.19259
 C57 C 0.88940 0.30251 -0.17468
 H58 H 0.89205 0.33766 -0.21243
 H59 H 0.89343 0.28865 -0.16530
 Cu60 Cu 0.85066 0.35298 -0.18507
 Cu61 Cu 0.85178 0.31420 -0.14787
 Cu62 Cu 0.81280 0.35343 -0.14738
 N63 N 0.82859 0.37501 -0.18442
 N64 N 0.81385 0.37485 -0.16956
 C65 C 0.80034 0.39120 -0.17259
 C66 C 0.80682 0.40242 -0.19043
 C67 C 0.82491 0.39166 -0.19749
 H68 H 0.78674 0.39439 -0.16254
 H69 H 0.83438 0.39556 -0.21133
 N70 N 0.81418 0.33059 -0.12613
 N71 N 0.82900 0.31562 -0.12610
 C72 C 0.82534 0.30243 -0.10957
 C73 C 0.80733 0.30943 -0.09877
 C74 C 0.80075 0.32733 -0.10977
 H75 H 0.83484 0.28855 -0.10575
 H76 H 0.78710 0.33725 -0.10631
 H77 H 0.82782 0.32931 -0.16438
 H78 H 0.84528 0.34632 -0.14729
 N79 N 0.87404 0.81561 0.32962
 N80 N 0.87339 0.83008 0.31454
 C81 C 0.88976 0.82692 0.30106
 C82 C 0.90139 0.80948 0.30792
 C83 C 0.89092 0.80269 0.32613
 H84 H 0.89274 0.83651 0.28715
 H85 H 0.89516 0.78916 0.33590
 Cu86 Cu 0.85109 0.85147 0.31380
 Cu87 Cu 0.85256 0.81473 0.35228
 Cu88 Cu 0.81301 0.85392 0.35087
 N89 N 0.82955 0.87366 0.31315
 N90 N 0.81454 0.87458 0.32772
 C91 C 0.80176 0.89136 0.32365
 C92 C 0.80925 0.90160 0.30559
 C93 C 0.82692 0.88981 0.29936
 H94 H 0.78799 0.89585 0.33305
 H95 H 0.83707 0.89256 0.28577
 N96 N 0.81435 0.83161 0.37294
 N97 N 0.82934 0.81678 0.37362
 C98 C 0.82558 0.80402 0.39044
 C99 C 0.80737 0.81110 0.40080
 C100 C 0.80072 0.82863 0.38923
 H101 H 0.83513 0.79032 0.39475
 H102 H 0.78686 0.83843 0.39222
 H103 H 0.82808 0.82895 0.33551
 H104 H 0.84533 0.84682 0.35175
 N105 N 0.62677 0.68565 0.32853
 N106 N 0.62742 0.67051 0.31412
 C107 C 0.61119 0.67322 0.30038
 C108 C 0.59965 0.69103 0.30645
 C109 C 0.61004 0.69853 0.32439
 H110 H 0.60818 0.66307 0.28687
 H111 H 0.60575 0.71243 0.33362
 Cu112 Cu 0.64950 0.64884 0.31461
 Cu113 Cu 0.64780 0.68728 0.35137
 Cu114 Cu 0.68751 0.64835 0.35226
 N115 N 0.67159 0.62719 0.31506
 N116 N 0.68656 0.62696 0.32972
 C117 C 0.69974 0.61035 0.32605
 C118 C 0.69255 0.59958 0.30820
 C119 C 0.67469 0.61082 0.30167
 H120 H 0.71359 0.60639 0.33556
 H121 H 0.66476 0.60757 0.28804
 N122 N 0.68553 0.67139 0.37361
 N123 N 0.67046 0.68613 0.37317
 C124 C 0.67344 0.69961 0.38953
 C125 C 0.69123 0.69311 0.40091
 C126 C 0.69847 0.67516 0.39034
 H127 H 0.66344 0.71325 0.39270
 H128 H 0.71235 0.66575 0.39448
 H129 H 0.67249 0.67226 0.33537
 H130 H 0.65520 0.65514 0.35237
 N131 N 0.62532 0.18429 -0.17045
 N132 N 0.62584 0.16945 -0.18514
 C133 C 0.60951 0.17248 -0.19871
 C134 C 0.59804 0.19020 -0.19220
 C135 C 0.60856 0.19727 -0.17417
 H136 H 0.60643 0.16264 -0.21243
 H137 H 0.60444 0.21105 -0.16469
 Cu138 Cu 0.64806 0.14784 -0.18540
 Cu139 Cu 0.64672 0.18569 -0.14800
 Cu140 Cu 0.68661 0.14695 -0.14825
 N141 N 0.67024 0.12621 -0.18557
 N142 N 0.68537 0.12579 -0.17109
 C143 C 0.69848 0.10920 -0.17511
 C144 C 0.69112 0.09862 -0.19307
 C145 C 0.67317 0.11001 -0.19924
 H146 H 0.71240 0.10510 -0.16575
 H147 H 0.66298 0.10694 -0.21273
 N148 N 0.68489 0.16978 -0.12656
 N149 N 0.66971 0.18442 -0.12662
 C150 C 0.67285 0.19779 -0.11022
 C151 C 0.69086 0.19135 -0.09917
 C152 C 0.69807 0.17351 -0.11000
 H153 H 0.66279 0.21132 -0.10679
 H154 H 0.71207 0.16417 -0.10614
 H155 H 0.67127 0.17098 -0.16456
 H156 H 0.65430 0.15353 -0.14758
 N157 N 0.12815 0.68625 -0.17049
 N158 N 0.12831 0.67182 -0.18564
 C159 C 0.11161 0.67543 -0.19874
 C160 C 0.10043 0.69303 -0.19138
 C161 C 0.11148 0.69944 -0.17342
 H162 H 0.10787 0.66613 -0.21271
 H163 H 0.10793 0.71282 -0.16324
 Cu164 Cu 0.15054 0.64995 -0.18673
 Cu165 Cu 0.14948 0.68731 -0.14801
 Cu166 Cu 0.18809 0.64798 -0.14852
 N167 N 0.17214 0.62742 -0.18608
 N168 N 0.18665 0.62699 -0.17099
 C169 C 0.19973 0.61031 -0.17402
 C170 C 0.19320 0.59949 -0.19201
 C171 C 0.17561 0.61084 -0.19930
 H172 H 0.21316 0.60663 -0.16391
 H173 H 0.16624 0.60731 -0.21331
 N174 N 0.18715 0.67047 -0.12693
 N175 N 0.17248 0.68556 -0.12661
 C176 C 0.17627 0.69847 -0.10990
 C177 C 0.19416 0.69108 -0.09921
 C178 C 0.20062 0.67333 -0.11053
 H179 H 0.16686 0.71232 -0.10577
 H180 H 0.21421 0.66326 -0.10725
 H181 H 0.17342 0.67269 -0.16494
 H182 H 0.15564 0.65517 -0.14868
 N183 N 0.12568 0.18474 0.32875
 N184 N 0.12641 0.16982 0.31410
 C185 C 0.11007 0.17260 0.30047
 C186 C 0.09843 0.19023 0.30687
 C187 C 0.10882 0.19752 0.32489
 H188 H 0.10713 0.16268 0.28678
 H189 H 0.10451 0.21128 0.33431
 Cu190 Cu 0.14869 0.14824 0.31399
 Cu191 Cu 0.14692 0.18666 0.35142
 Cu192 Cu 0.18674 0.14816 0.35135
 N193 N 0.17112 0.12678 0.31415
 N194 N 0.18590 0.12694 0.32897
 C195 C 0.19941 0.11062 0.32580
 C196 C 0.19274 0.09943 0.30805
 C197 C 0.17475 0.11020 0.30101
 H198 H 0.21309 0.10732 0.33573
 H199 H 0.16518 0.10623 0.28725
 N200 N 0.18502 0.17088 0.37271
 N201 N 0.16998 0.18563 0.37292
 C202 C 0.17344 0.19868 0.38962
 C203 C 0.19142 0.19168 0.40045
 C204 C 0.19833 0.17409 0.38915
 H205 H 0.16371 0.21232 0.39368
 H206 H 0.21215 0.16438 0.39247
 H207 H 0.17121 0.17219 0.33476
 H208 H 0.15422 0.15473 0.35179
 N209 N 0.62587 0.31525 0.67027
 N210 N 0.62556 0.33016 0.68489
 C211 C 0.60878 0.32670 0.69793
 C212 C 0.59810 0.30861 0.69106
 C213 C 0.60947 0.30184 0.67342
 H214 H 0.60473 0.33634 0.71160
 H215 H 0.60642 0.28801 0.66371
 Cu216 Cu 0.64772 0.35198 0.68557
 Cu217 Cu 0.64759 0.31385 0.64832
 Cu218 Cu 0.68663 0.35294 0.64832
 N219 N 0.66945 0.37416 0.68506
 N220 N 0.68465 0.37446 0.67064
 C221 C 0.69764 0.39116 0.67439
 C222 C 0.69021 0.40189 0.69215
 C223 C 0.67225 0.39063 0.69847
 H224 H 0.71172 0.39501 0.66519
 H225 H 0.66208 0.39392 0.71192
 N226 N 0.68568 0.32974 0.62710
 N227 N 0.67071 0.31494 0.62728
 C228 C 0.67399 0.30146 0.61102
 C229 C 0.69186 0.30803 0.59987
 C230 C 0.69894 0.32598 0.61059
 H231 H 0.66409 0.28781 0.60770
 H232 H 0.71274 0.33553 0.60655
 H233 H 0.67168 0.32912 0.66516
 H234 H 0.65443 0.34622 0.64793
 N235 N 0.62736 0.81455 1.17213
 N236 N 0.62813 0.82936 1.18684
 C237 C 0.61173 0.82662 1.20041
 C238 C 0.60001 0.80911 1.19387
 C239 C 0.61044 0.80183 1.17587
 H240 H 0.60873 0.83654 1.21409
 H241 H 0.60605 0.78817 1.16635
 Cu242 Cu 0.65047 0.85080 1.18707
 Cu243 Cu 0.64845 0.81299 1.14944
 Cu244 Cu 0.68816 0.85170 1.14883
 N245 N 0.67238 0.87263 1.18617
 N246 N 0.68715 0.87304 1.17134
 C247 C 0.70013 0.88983 1.17479
 C248 C 0.69302 0.90054 1.19271
 C249 C 0.67539 0.88909 1.19949
 H250 H 0.71380 0.89395 1.16511
 H251 H 0.66553 0.89228 1.21319
 N252 N 0.68630 0.82872 1.12747
 N253 N 0.67115 0.81409 1.12777
 C254 C 0.67405 0.80072 1.11132
 C255 C 0.69188 0.80720 1.09999
 C256 C 0.69926 0.82498 1.11075
 H257 H 0.66397 0.78718 1.10802
 H258 H 0.71315 0.83437 1.10664
 H259 H 0.67325 0.82769 1.16562
 H260 H 0.65577 0.84523 1.14911
 N261 N 0.12553 0.31449 1.16901
 N262 N 0.12561 0.32893 1.18410
 C263 C 0.10895 0.32524 1.19721
 C264 C 0.09797 0.30750 1.18991
 C265 C 0.10900 0.30117 1.17195
 H266 H 0.10520 0.33447 1.21124
 H267 H 0.10555 0.28774 1.16181
 Cu268 Cu 0.14791 0.35062 1.18517
 Cu269 Cu 0.14693 0.31355 1.14682
 Cu270 Cu 0.18598 0.35263 1.14701
 N271 N 0.16958 0.37288 1.18462
 N272 N 0.18435 0.37368 1.16978
 C273 C 0.19727 0.39044 1.17354
 C274 C 0.19024 0.40071 1.19172
 C275 C 0.17260 0.38909 1.19829
 H276 H 0.21099 0.39471 1.16399
 H277 H 0.16280 0.39195 1.21211
 N278 N 0.18468 0.32982 1.12538
 N279 N 0.16975 0.31498 1.12554
 C280 C 0.17302 0.30155 1.10924
 C281 C 0.19089 0.30814 1.09814
 C282 C 0.19789 0.32615 1.10883
 H283 H 0.16315 0.28787 1.10591
 H284 H 0.21177 0.33564 1.10490
 H285 H 0.17146 0.32847 1.16353
 H286 H 0.15380 0.34603 1.14717
 N287 N 0.12784 0.81340 0.67052
 N288 N 0.12782 0.82835 0.68513
 C289 C 0.11121 0.82488 0.69841
 C290 C 0.10029 0.80685 0.69160
 C291 C 0.11145 0.80004 0.67390
 H292 H 0.10728 0.83463 0.71203
 H293 H 0.10814 0.78629 0.66417
 Cu294 Cu 0.14967 0.85067 0.68472
 Cu295 Cu 0.14882 0.81193 0.64792
 Cu296 Cu 0.18823 0.85049 0.64718
 N297 N 0.17237 0.87209 0.68441
 N298 N 0.18723 0.87180 0.66963
 C299 C 0.20080 0.88810 0.67278
 C300 C 0.19418 0.89937 0.69050
 C301 C 0.17609 0.88869 0.69752
 H302 H 0.21453 0.89128 0.66289
 H303 H 0.16647 0.89277 0.71121
 N304 N 0.18642 0.82754 0.62584
 N305 N 0.17131 0.81290 0.62621
 C306 C 0.17415 0.79949 0.60979
 C307 C 0.19191 0.80595 0.59842
 C308 C 0.19933 0.82377 0.60909
 H309 H 0.16409 0.78592 0.60655
 H310 H 0.21320 0.83315 0.60491
 H311 H 0.17310 0.82718 0.66447
 H312 H 0.15598 0.84419 0.64701
 N313 N 0.37280 0.68603 0.67034
 N314 N 0.37249 0.67158 0.68542
 C315 C 0.38912 0.67512 0.69862
 C316 C 0.40036 0.69272 0.69132
 C317 C 0.38945 0.69916 0.67335
 H318 H 0.39275 0.66581 0.71262
 H319 H 0.39305 0.71255 0.66323
 Cu320 Cu 0.35003 0.64997 0.68614
 Cu321 Cu 0.35170 0.68735 0.64790
 Cu322 Cu 0.31247 0.64872 0.64749
 N323 N 0.32823 0.62774 0.68508
 N324 N 0.31371 0.62753 0.66996
 C325 C 0.30056 0.61088 0.67290
 C326 C 0.30709 0.59990 0.69083
 C327 C 0.32472 0.61110 0.69817
 H328 H 0.28713 0.60731 0.66274
 H329 H 0.33410 0.60740 0.71213
 N330 N 0.31402 0.67156 0.62609
 N331 N 0.32909 0.68623 0.62638
 C332 C 0.32617 0.69957 0.60995
 C333 C 0.30840 0.69302 0.59862
 C334 C 0.30105 0.67523 0.60936
 H335 H 0.33621 0.71314 0.60667
 H336 H 0.28720 0.66577 0.60524
 H337 H 0.32706 0.67267 0.66441
 H338 H 0.34474 0.65503 0.64811
 N339 N 0.37412 0.18451 1.17037
 N340 N 0.37318 0.16985 1.18525
 C341 C 0.38945 0.17273 1.19894
 C342 C 0.40131 0.19014 1.19235
 C343 C 0.39109 0.19721 1.17413
 H344 H 0.39224 0.16299 1.21277
 H345 H 0.39553 0.21082 1.16457
 Cu346 Cu 0.35069 0.14849 1.18582
 Cu347 Cu 0.35299 0.18619 1.14754
 Cu348 Cu 0.31332 0.14765 1.14764
 N349 N 0.32863 0.12665 1.18514
 N350 N 0.31410 0.12654 1.17009
 C351 C 0.30076 0.11006 1.17310
 C352 C 0.30723 0.09909 1.19105
 C353 C 0.32496 0.11013 1.19833
 H354 H 0.28724 0.10661 1.16302
 H355 H 0.33434 0.10637 1.21224
 N356 N 0.31499 0.17022 1.12614
 N357 N 0.33003 0.18495 1.12587
 C358 C 0.32645 0.19802 1.10922
 C359 C 0.30831 0.19115 1.09855
 C360 C 0.30154 0.17349 1.10980
 H361 H 0.33610 0.21173 1.10520
 H362 H 0.28770 0.16377 1.10656
 H363 H 0.32854 0.17200 1.16410
 H364 H 0.34592 0.15419 1.14776
 N365 N 0.87363 0.68588 1.16984
 N366 N 0.87403 0.67094 1.18442
 C367 C 0.89082 0.67447 1.19741
 C368 C 0.90142 0.69260 1.19051
 C369 C 0.88998 0.69935 1.17297
 H370 H 0.89495 0.66484 1.21105
 H371 H 0.89304 0.71317 1.16324
 Cu372 Cu 0.85216 0.64882 1.18478
 Cu373 Cu 0.85195 0.68718 1.14794
 Cu374 Cu 0.81242 0.64848 1.14842
 N375 N 0.82971 0.62738 1.18523
 N376 N 0.81423 0.62726 1.17108
 C377 C 0.80104 0.61080 1.17519
 C378 C 0.80866 0.59999 1.19281
 C379 C 0.82687 0.61105 1.19877
 H380 H 0.78687 0.60694 1.16611
 H381 H 0.83727 0.60763 1.21202
 N382 N 0.81371 0.67146 1.12689
 N383 N 0.82886 0.68608 1.12695
 C384 C 0.82578 0.69946 1.11059
 C385 C 0.80785 0.69306 1.09950
 C386 C 0.80053 0.67525 1.11033
 H387 H 0.83588 0.71296 1.10719
 H388 H 0.78660 0.66586 1.10636
 H389 H 0.82791 0.67191 1.16507
 H390 H 0.84455 0.65483 1.14727
 N391 N 0.87300 0.18581 0.67249
 N392 N 0.87263 0.17057 0.68676
 C393 C 0.88900 0.17328 0.70036
 C394 C 0.90033 0.19120 0.69430
 C395 C 0.88968 0.19878 0.67654
 H396 H 0.89222 0.16305 0.71375
 H397 H 0.89375 0.21278 0.66739
 Cu398 Cu 0.85069 0.14879 0.68635
 Cu399 Cu 0.85168 0.18750 0.64990
 Cu400 Cu 0.81211 0.14845 0.64927
 N401 N 0.82870 0.12708 0.68613
 N402 N 0.81352 0.12688 0.67170
 C403 C 0.80044 0.11023 0.67552
 C404 C 0.80790 0.09946 0.69328
 C405 C 0.82585 0.11068 0.69955
 H406 H 0.78645 0.10629 0.66622
 H407 H 0.83601 0.10738 0.71300
 N408 N 0.81370 0.17170 0.62803
 N409 N 0.82877 0.18643 0.62837
 C410 C 0.82574 0.19986 0.61199
 C411 C 0.80791 0.19335 0.60067
 C412 C 0.80066 0.17548 0.61137
 H413 H 0.83575 0.21346 0.60872
 H414 H 0.78683 0.16600 0.60723
 H415 H 0.82724 0.17224 0.66612
 H416 H 0.84435 0.15531 0.64871
 N417 N 0.31381 0.37341 0.66873
 N418 N 0.32855 0.37361 0.68362
 C419 C 0.32503 0.39044 0.69648
 C420 C 0.30711 0.40126 0.68927
 C421 C 0.30047 0.38995 0.67159
 H422 H 0.33449 0.39442 0.71030
 H423 H 0.28684 0.39321 0.66161
 Cu424 Cu 0.35045 0.35148 0.68493
 Cu425 Cu 0.31242 0.35169 0.64678
 Cu426 Cu 0.35183 0.31316 0.64756
 N427 N 0.37295 0.32989 0.68456
 N428 N 0.37317 0.31509 0.66980
 C429 C 0.38977 0.30196 0.67308
 C430 C 0.40073 0.30871 0.69094
 C431 C 0.38959 0.32657 0.69782
 H432 H 0.39327 0.28833 0.66325
 H433 H 0.39321 0.33611 0.71166
 N434 N 0.32893 0.31376 0.62623
 N435 N 0.31380 0.32839 0.62588
 C436 C 0.30059 0.32439 0.60943
 C437 C 0.30783 0.30642 0.59889
 C438 C 0.32579 0.30010 0.61007
 H439 H 0.28668 0.33376 0.60532
 H440 H 0.33582 0.28648 0.60685
 H441 H 0.32740 0.32812 0.66399
 H442 H 0.34479 0.34541 0.64707
 N443 N 0.31415 0.87362 0.17114
 N444 N 0.32937 0.87328 0.18549
 C445 C 0.32660 0.88970 0.19895
 C446 C 0.30867 0.90101 0.19265
 C447 C 0.30115 0.89029 0.17495
 H448 H 0.33676 0.89296 0.21242
 H449 H 0.28714 0.89429 0.16570
 Cu450 Cu 0.35110 0.85124 0.18544
 Cu451 Cu 0.31243 0.85232 0.14875
 Cu452 Cu 0.35145 0.81274 0.14836
 N453 N 0.37287 0.82926 0.18523
 N454 N 0.37304 0.81413 0.17082
 C455 C 0.38970 0.80104 0.17463
 C456 C 0.40053 0.80841 0.19240
 C457 C 0.38932 0.82634 0.19868
 H458 H 0.39361 0.78708 0.16534
 H459 H 0.39270 0.83646 0.21212
 N460 N 0.32816 0.81439 0.12711
 N461 N 0.31343 0.82947 0.12739
 C462 C 0.29991 0.82647 0.11106
 C463 C 0.30636 0.80866 0.09983
 C464 C 0.32431 0.80137 0.11050
 H465 H 0.28631 0.83651 0.10774
 H466 H 0.33375 0.78753 0.10639
 H467 H 0.32762 0.82794 0.16512
 H468 H 0.34478 0.84488 0.14776
 N469 N 0.81339 0.37345 0.16973
 N470 N 0.82833 0.37376 0.18439
 C471 C 0.82476 0.39036 0.19752
 C472 C 0.80667 0.40105 0.19063
 C473 C 0.79986 0.38978 0.17297
 H474 H 0.83447 0.39443 0.21114
 H475 H 0.78601 0.39295 0.16323
 Cu476 Cu 0.85081 0.35234 0.18452
 Cu477 Cu 0.81235 0.35195 0.14755
 Cu478 Cu 0.85206 0.31330 0.14772
 N479 N 0.87289 0.33056 0.18470
 N480 N 0.87343 0.31539 0.17031
 C481 C 0.89016 0.30249 0.17436
 C482 C 0.90064 0.30994 0.19227
 C483 C 0.88920 0.32781 0.19837
 H484 H 0.89428 0.28849 0.16521
 H485 H 0.89228 0.33794 0.21188
 N486 N 0.82892 0.31418 0.12627
 N487 N 0.81391 0.32898 0.12637
 C488 C 0.80050 0.32557 0.11003
 C489 C 0.80729 0.30778 0.09894
 C490 C 0.82534 0.30092 0.10975
 H491 H 0.78671 0.33532 0.10665
 H492 H 0.83505 0.28721 0.10582
 H493 H 0.82799 0.32815 0.16438
 H494 H 0.84485 0.34526 0.14687
 N495 N 0.81439 0.87384 0.67173
 N496 N 0.82949 0.87317 0.68623
 C497 C 0.82670 0.88938 0.69995
 C498 C 0.80886 0.90089 0.69376
 C499 C 0.80144 0.89051 0.67579
 H500 H 0.83684 0.89241 0.71349
 H501 H 0.78756 0.89479 0.66646
 Cu502 Cu 0.85126 0.85113 0.68566
 Cu503 Cu 0.81281 0.85289 0.64883
 Cu504 Cu 0.85227 0.81365 0.64777
 N505 N 0.87348 0.82957 0.68502
 N506 N 0.87393 0.81485 0.67019
 C507 C 0.89077 0.80189 0.67370
 C508 C 0.90142 0.80889 0.69172
 C509 C 0.88994 0.82652 0.69842
 H510 H 0.89484 0.78818 0.66410
 H511 H 0.89308 0.83630 0.71216
 N512 N 0.82894 0.81534 0.62658
 N513 N 0.81406 0.83028 0.62703
 C514 C 0.80054 0.82723 0.61068
 C515 C 0.80716 0.80954 0.59929
 C516 C 0.82518 0.80239 0.60989
 H517 H 0.78678 0.83711 0.60750
 H518 H 0.83473 0.78865 0.60569
 H519 H 0.82798 0.82827 0.66458
 H520 H 0.84510 0.84580 0.64783
 N521 N 0.68675 0.62792 0.67099
 N522 N 0.67194 0.62810 0.68580
 C523 C 0.67540 0.61149 0.69902
 C524 C 0.69330 0.60039 0.69200
 C525 C 0.70003 0.61142 0.67420
 H526 H 0.66576 0.60771 0.71276
 H527 H 0.71370 0.60798 0.66432
 Cu528 Cu 0.64986 0.65026 0.68581
 Cu529 Cu 0.68822 0.64892 0.64844
 Cu530 Cu 0.64957 0.68832 0.64791
 N531 N 0.62805 0.67266 0.68532
 N532 N 0.62818 0.68735 0.67044
 C533 C 0.61171 0.70080 0.67356
 C534 C 0.60046 0.69426 0.69137
 C535 C 0.61136 0.67634 0.69845
 H536 H 0.60838 0.71439 0.66360
 H537 H 0.60736 0.66681 0.71217
 N538 N 0.67260 0.68651 0.62647
 N539 N 0.68725 0.67140 0.62678
 C540 C 0.70071 0.67424 0.61035
 C541 C 0.69428 0.69201 0.59903
 C542 C 0.67641 0.69941 0.60976
 H543 H 0.71431 0.66419 0.60705
 H544 H 0.66703 0.71328 0.60564
 H545 H 0.67328 0.67334 0.66500
 H546 H 0.65588 0.65618 0.64794
 N547 N 0.68511 0.12558 0.17066
 N548 N 0.67005 0.12632 0.18517
 C549 C 0.67278 0.11005 0.19885
 C550 C 0.69052 0.09846 0.19254
 C551 C 0.69791 0.10878 0.17455
 H552 H 0.66273 0.10711 0.21246
 H553 H 0.71184 0.10453 0.16529
 Cu554 Cu 0.64863 0.14868 0.18500
 Cu555 Cu 0.68714 0.14683 0.14817
 Cu556 Cu 0.64885 0.18713 0.14790
 N557 N 0.62724 0.17106 0.18484
 N558 N 0.62727 0.18617 0.17042
 C559 C 0.61074 0.19947 0.17418
 C560 C 0.59978 0.19224 0.19193
 C561 C 0.61080 0.17419 0.19824
 H562 H 0.60697 0.21342 0.16485
 H563 H 0.60729 0.16409 0.21163
 N564 N 0.67205 0.18508 0.12659
 N565 N 0.68650 0.16972 0.12678
 C566 C 0.70005 0.17256 0.11042
 C567 C 0.69389 0.19054 0.09928
 C568 C 0.67610 0.19809 0.11003
 H569 H 0.71347 0.16229 0.10702
 H570 H 0.66689 0.21211 0.10601
 H571 H 0.67250 0.17151 0.16456
 H572 H 0.65494 0.15485 0.14730
 N573 N 0.18508 0.62485 0.17014
 N574 N 0.17018 0.62551 0.18482
 C575 C 0.17302 0.60916 0.19833
 C576 C 0.19071 0.59759 0.19181
 C577 C 0.19793 0.60802 0.17381
 H578 H 0.16308 0.60616 0.21201
 H579 H 0.21176 0.60382 0.16438
 Cu580 Cu 0.14864 0.64778 0.18524
 Cu581 Cu 0.18687 0.64629 0.14791
 Cu582 Cu 0.14808 0.68599 0.14768
 N583 N 0.12674 0.66966 0.18463
 N584 N 0.12638 0.68460 0.17002
 C585 C 0.10962 0.69761 0.17377
 C586 C 0.09896 0.69042 0.19171
 C587 C 0.11032 0.67263 0.19810
 H588 H 0.10562 0.71148 0.16439
 H589 H 0.10711 0.66266 0.21168
 N590 N 0.17145 0.68444 0.12649
 N591 N 0.18609 0.66928 0.12670
 C592 C 0.19977 0.67241 0.11051
 C593 C 0.19351 0.69040 0.09944
 C594 C 0.17551 0.69764 0.11007
 H595 H 0.21335 0.66234 0.10718
 H596 H 0.16617 0.71158 0.10608
 H597 H 0.17197 0.67084 0.16438
 H598 H 0.15447 0.65379 0.14742
 N599 N 0.18632 0.12630 0.67062
 N600 N 0.17150 0.12594 0.68544
 C601 C 0.17533 0.10932 0.69851
 C602 C 0.19344 0.09870 0.69141
 C603 C 0.19995 0.11003 0.67369
 H604 H 0.16577 0.10519 0.71221
 H605 H 0.21366 0.10691 0.66375
 Cu606 Cu 0.14884 0.14745 0.68601
 Cu607 Cu 0.18726 0.14768 0.64828
 Cu608 Cu 0.14747 0.18589 0.64889
 N609 N 0.12644 0.16925 0.68602
 N610 N 0.12628 0.18412 0.67134
 C611 C 0.10978 0.19736 0.67474
 C612 C 0.09878 0.19062 0.69259
 C613 C 0.10985 0.17266 0.69936
 H614 H 0.10638 0.21106 0.66497
 H615 H 0.10616 0.16305 0.71314
 N616 N 0.17019 0.18517 0.62733
 N617 N 0.18543 0.17064 0.62700
 C618 C 0.19842 0.17453 0.61035
 C619 C 0.19096 0.19231 0.59967
 C620 C 0.17306 0.19864 0.61096
 H621 H 0.21238 0.16523 0.60622
 H622 H 0.16291 0.21214 0.60769
 H623 H 0.17195 0.17106 0.66545
 H624 H 0.15492 0.15374 0.64823
 N625 N 0.31436 0.62575 0.33024
 N626 N 0.32887 0.62546 0.31513
 C627 C 0.32506 0.60878 0.30219
 C628 C 0.30716 0.59809 0.30950
 C629 C 0.30081 0.60936 0.32737
 H630 H 0.33437 0.60476 0.28827
 H631 H 0.28725 0.60614 0.33749
 Cu632 Cu 0.35103 0.64716 0.31392
 Cu633 Cu 0.31390 0.64746 0.35243
 Cu634 Cu 0.35338 0.68627 0.35018
 N635 N 0.37305 0.66898 0.31269
 N636 N 0.37385 0.68424 0.32698
 C637 C 0.39047 0.69711 0.32260
 C638 C 0.40070 0.68953 0.30466
 C639 C 0.38917 0.67164 0.29876
 H640 H 0.39484 0.71105 0.33172
 H641 H 0.39219 0.66135 0.28534
 N642 N 0.33123 0.68555 0.37242
 N643 N 0.31623 0.67079 0.37338
 C644 C 0.30359 0.67480 0.39026
 C645 C 0.31094 0.69295 0.40037
 C646 C 0.32849 0.69932 0.38859
 H647 H 0.28982 0.66544 0.39481
 H648 H 0.33845 0.71307 0.39138
 H649 H 0.32850 0.67107 0.33480
 H650 H 0.34618 0.65422 0.35170
 N651 N 0.31294 0.12637 0.83064
 N652 N 0.32752 0.12599 0.81560
 C653 C 0.32353 0.10943 0.80255
 C654 C 0.30555 0.09882 0.80983
 C655 C 0.29924 0.11010 0.82770
 H656 H 0.33294 0.10527 0.78874
 H657 H 0.28568 0.10690 0.83782
 Cu658 Cu 0.35031 0.14718 0.81488
 Cu659 Cu 0.31275 0.14782 0.85308
 Cu660 Cu 0.35298 0.18583 0.85164
 N661 N 0.37269 0.16879 0.81411
 N662 N 0.37363 0.18377 0.82867
 C663 C 0.39038 0.19657 0.82459
 C664 C 0.40052 0.18933 0.80647
 C665 C 0.38882 0.17163 0.80021
 H666 H 0.39477 0.21037 0.83392
 H667 H 0.39168 0.16164 0.78653
 N668 N 0.33067 0.18528 0.87366
 N669 N 0.31537 0.17082 0.87433
 C670 C 0.30264 0.17495 0.89112
 C671 C 0.31025 0.19288 0.90144
 C672 C 0.32806 0.19897 0.88991
 H673 H 0.28861 0.16585 0.89544
 H674 H 0.33827 0.21250 0.89290
 H675 H 0.32801 0.17121 0.83575
 H676 H 0.34518 0.15382 0.85272
 N677 N 0.81489 0.62684 0.82950
 N678 N 0.82955 0.62721 0.81454
 C679 C 0.82605 0.61075 0.80115
 C680 C 0.80828 0.59952 0.80819
 C681 C 0.80168 0.61032 0.82621
 H682 H 0.83555 0.60720 0.78724
 H683 H 0.78815 0.60671 0.83621
 Cu684 Cu 0.85140 0.64948 0.81429
 Cu685 Cu 0.81350 0.64767 0.85224
 Cu686 Cu 0.85255 0.68652 0.85324
 N687 N 0.87379 0.67116 0.81565
 N688 N 0.87392 0.68551 0.83087
 C689 C 0.89049 0.69881 0.82796
 C690 C 0.90148 0.69257 0.80992
 C691 C 0.89044 0.67489 0.80254
 H692 H 0.89400 0.71215 0.83820
 H693 H 0.89414 0.66575 0.78845
 N694 N 0.82956 0.68488 0.87456
 N695 N 0.81466 0.67003 0.87406
 C696 C 0.80108 0.67313 0.89035
 C697 C 0.80772 0.69080 0.90174
 C698 C 0.82584 0.69783 0.89125
 H699 H 0.78727 0.66333 0.89346
 H700 H 0.83537 0.71158 0.89540
 H701 H 0.82844 0.67219 0.83608
 H702 H 0.84591 0.65435 0.85234
 N703 N 0.81522 0.12620 0.33047
 N704 N 0.83000 0.12655 0.31565
 C705 C 0.82678 0.10995 0.30239
 C706 C 0.80901 0.09869 0.30933
 C707 C 0.80218 0.10954 0.32723
 H708 H 0.83633 0.10645 0.28849
 H709 H 0.78856 0.10594 0.33712
 Cu710 Cu 0.85147 0.14914 0.31517
 Cu711 Cu 0.81323 0.14747 0.35273
 Cu712 Cu 0.85161 0.18702 0.35330
 N713 N 0.87349 0.17115 0.31632
 N714 N 0.87327 0.18581 0.33123
 C715 C 0.88972 0.19924 0.32826
 C716 C 0.90098 0.19274 0.31048
 C717 C 0.89023 0.17481 0.30332
 H718 H 0.89294 0.21285 0.33823
 H719 H 0.89418 0.16544 0.28944
 N720 N 0.82836 0.18547 0.37433
 N721 N 0.81377 0.17031 0.37406
 C722 C 0.80016 0.17335 0.39033
 C723 C 0.80648 0.19127 0.40148
 C724 C 0.82438 0.19859 0.39082
 H725 H 0.78659 0.16327 0.39365
 H726 H 0.83372 0.21249 0.39487
 H727 H 0.82797 0.17193 0.33624
 H728 H 0.84558 0.15475 0.35306
 N729 N 0.68703 0.37282 0.32922
 N730 N 0.67243 0.37282 0.31423
 C731 C 0.67600 0.38946 0.30113
 C732 C 0.69379 0.40046 0.30835
 C733 C 0.70036 0.38933 0.32620
 H734 H 0.66652 0.39336 0.28728
 H735 H 0.71392 0.39274 0.33625
 Cu736 Cu 0.65030 0.35100 0.31371
 Cu737 Cu 0.68788 0.35144 0.35156
 Cu738 Cu 0.64866 0.31231 0.35090
 N739 N 0.62832 0.32910 0.31342
 N740 N 0.62768 0.31402 0.32790
 C741 C 0.61091 0.30118 0.32386
 C742 C 0.60041 0.30863 0.30595
 C743 C 0.61197 0.32639 0.29976
 H744 H 0.60662 0.28737 0.33319
 H745 H 0.60886 0.33653 0.28625
 N746 N 0.67142 0.31359 0.37279
 N747 N 0.68623 0.32858 0.37287
 C748 C 0.69939 0.32544 0.38946
 C749 C 0.69266 0.30762 0.40054
 C750 C 0.67488 0.30048 0.38945
 H751 H 0.71300 0.33536 0.39300
 H752 H 0.66530 0.28667 0.39328
 H753 H 0.67292 0.32719 0.33469
 H754 H 0.65545 0.34428 0.35161
 N755 N 0.68524 0.87317 0.82877
 N756 N 0.67045 0.87222 0.81395
 C757 C 0.67327 0.88846 0.80027
 C758 C 0.69077 0.90028 0.80681
 C759 C 0.69799 0.89005 0.82494
 H760 H 0.66337 0.89127 0.78650
 H761 H 0.71160 0.89457 0.83454
 Cu762 Cu 0.64887 0.84990 0.81359
 Cu763 Cu 0.68677 0.85245 0.85189
 Cu764 Cu 0.64772 0.81335 0.85238
 N765 N 0.62672 0.82809 0.81468
 N766 N 0.62655 0.81388 0.82998
 C767 C 0.60998 0.80057 0.82717
 C768 C 0.59901 0.80671 0.80911
 C769 C 0.61011 0.82426 0.80156
 H770 H 0.60642 0.78733 0.83751
 H771 H 0.60636 0.83337 0.78747
 N772 N 0.67032 0.81516 0.87383
 N773 N 0.68531 0.82994 0.87388
 C774 C 0.69839 0.82643 0.89059
 C775 C 0.69124 0.80857 0.90146
 C776 C 0.67340 0.80195 0.89032
 H777 H 0.71230 0.83589 0.89447
 H778 H 0.66343 0.78838 0.89374
 H779 H 0.67234 0.82803 0.83562
 H780 H 0.65461 0.84581 0.85167
 N781 N 0.18509 0.37510 0.82968
 N782 N 0.16999 0.37451 0.81519
 C783 C 0.17290 0.39065 0.80144
 C784 C 0.19083 0.40203 0.80762
 C785 C 0.19813 0.39169 0.82565
 H786 H 0.16282 0.39367 0.78786
 H787 H 0.21210 0.39581 0.83490
 Cu788 Cu 0.14817 0.35254 0.81553
 Cu789 Cu 0.18670 0.35403 0.85235
 Cu790 Cu 0.14755 0.31461 0.85315
 N791 N 0.12637 0.33058 0.81587
 N792 N 0.12602 0.31574 0.83059
 C793 C 0.10938 0.30261 0.82683
 C794 C 0.09881 0.30959 0.80874
 C795 C 0.11009 0.32740 0.80229
 H796 H 0.10539 0.28881 0.83630
 H797 H 0.10688 0.33729 0.78864
 N798 N 0.17078 0.31644 0.87448
 N799 N 0.18561 0.33141 0.87401
 C800 C 0.19930 0.32831 0.89020
 C801 C 0.19288 0.31054 0.90152
 C802 C 0.17472 0.30344 0.89108
 H803 H 0.21306 0.33820 0.89331
 H804 H 0.16532 0.28959 0.89521
 H805 H 0.17153 0.32943 0.83628
 H806 H 0.15437 0.34671 0.85330
 N807 N 0.18516 0.87372 0.32808
 N808 N 0.16967 0.87320 0.31398
 C809 C 0.17236 0.88935 0.30016
 C810 C 0.19052 0.90063 0.30596
 C811 C 0.19822 0.89018 0.32372
 H812 H 0.16192 0.89254 0.28688
 H813 H 0.21234 0.89432 0.33274
 Cu814 Cu 0.14748 0.85148 0.31511
 Cu815 Cu 0.18720 0.85313 0.35109
 Cu816 Cu 0.14832 0.81383 0.35305
 N817 N 0.12602 0.82902 0.31614
 N818 N 0.12659 0.81436 0.33103
 C819 C 0.11038 0.80062 0.32809
 C820 C 0.09893 0.80695 0.31037
 C821 C 0.10932 0.82506 0.30320
 H822 H 0.10742 0.78694 0.33805
 H823 H 0.10510 0.83439 0.28938
 N824 N 0.17160 0.81597 0.37395
 N825 N 0.18643 0.83090 0.37316
 C826 C 0.20017 0.82800 0.38936
 C827 C 0.19366 0.81041 0.40093
 C828 C 0.17551 0.80321 0.39069
 H829 H 0.21399 0.83786 0.39228
 H830 H 0.16608 0.78945 0.39506
 H831 H 0.17173 0.82875 0.33526
 H832 H 0.15497 0.84607 0.35274
 O833 O 0.25173 1.02061 0.22234
 O834 O 0.22196 0.97952 0.25094
 O835 O 0.22301 1.02134 0.25169
 O836 O 0.25209 0.97892 0.22300
 O837 O 0.27706 0.97949 0.24780
 O838 O 0.24761 1.02043 0.27683
 O839 O 0.24693 0.97865 0.27571
 O840 O 0.27634 1.02120 0.24748
 Cu841 Cu 0.23470 1.00012 0.23450
 Cu842 Cu 0.26445 0.99992 0.26448
 C843 C 0.26872 1.02837 0.23017
 C844 C 0.22960 0.97157 0.26783
 C845 C 0.23071 1.02838 0.26902
 C846 C 0.26942 0.97176 0.23081
 O847 O 0.22269 0.47985 0.75136
 O848 O 0.25181 0.52120 0.72229
 O849 O 0.25132 0.47956 0.72192
 O850 O 0.22319 0.52155 0.75163
 O851 O 0.24858 0.52064 0.77599
 O852 O 0.27704 0.47904 0.74594
 O853 O 0.27730 0.52102 0.74654
 O854 O 0.24819 0.47882 0.77558
 Cu855 Cu 0.23472 0.50056 0.73436
 Cu856 Cu 0.26535 0.49979 0.76346
 C857 C 0.23061 0.47190 0.76814
 C858 C 0.26917 0.52862 0.72966
 C859 C 0.26870 0.47183 0.72900
 C860 C 0.23137 0.52857 0.76870
 O861 O 0.72364 0.02076 0.24869
 O862 O 0.75384 -0.02122 0.27623
 O863 O 0.75356 0.02046 0.27685
 O864 O 0.72428 -0.02084 0.24793
 O865 O 0.74865 -0.02049 0.22256
 O866 O 0.77793 0.02167 0.25151
 O867 O 0.77832 -0.02022 0.25097
 O868 O 0.74779 0.02141 0.22311
 Cu869 Cu 0.73640 -0.00024 0.26496
 Cu870 Cu 0.76564 0.00071 0.23448
 C871 C 0.73069 0.02850 0.23142
 C872 C 0.77099 -0.02824 0.26800
 C873 C 0.77044 0.02850 0.26901
 C874 C 0.73169 -0.02817 0.23065
 O875 O 0.75150 0.47966 0.77713
 O876 O 0.72321 0.52180 0.74776
 O877 O 0.72263 0.48001 0.74790
 O878 O 0.75232 0.52129 0.77662
 O879 O 0.77759 0.52096 0.75213
 O880 O 0.74791 0.47883 0.72346
 O881 O 0.74835 0.52080 0.72315
 O882 O 0.77701 0.47898 0.75291
 Cu883 Cu 0.73491 0.50073 0.76479
 Cu884 Cu 0.76523 0.49979 0.73542
 C885 C 0.76880 0.47185 0.76994
 C886 C 0.73128 0.52886 0.73064
 C887 C 0.73038 0.47197 0.73107
 C888 C 0.76968 0.52861 0.76910
 O889 O 0.22292 0.51978 0.24782
 O890 O 0.25220 0.47826 0.27650
 O891 O 0.25156 0.51981 0.27710
 O892 O 0.22274 0.47825 0.24802
 O893 O 0.24761 0.47807 0.22315
 O894 O 0.27669 0.52029 0.25249
 O895 O 0.27740 0.47823 0.25196
 O896 O 0.24774 0.52007 0.22289
 Cu897 Cu 0.23490 0.49899 0.26482
 Cu898 Cu 0.26490 0.49918 0.23512
 C899 C 0.23048 0.52737 0.23071
 C900 C 0.26950 0.47078 0.26901
 C901 C 0.26873 0.52755 0.26963
 C902 C 0.23034 0.47070 0.23091
 O903 O 0.75237 1.02099 0.72344
 O904 O 0.72240 0.97913 0.75141
 O905 O 0.72266 1.02094 0.75183
 O906 O 0.75287 0.97913 0.72382
 O907 O 0.77679 0.97928 0.74963
 O908 O 0.74658 1.02105 0.77762
 O909 O 0.74630 0.97908 0.77722
 O910 O 0.77631 1.02102 0.74922
 Cu911 Cu 0.73515 1.00004 0.73507
 Cu912 Cu 0.76390 1.00012 0.76601
 C913 C 0.76922 1.02849 0.73182
 C914 C 0.72946 0.97158 0.76876
 C915 C 0.72971 1.02850 0.76920
 C916 C 0.76978 0.97173 0.73225
 O917 O 0.77715 0.47908 0.24745
 O918 O 0.74872 0.52140 0.27697
 O919 O 0.74871 0.47960 0.27710
 O920 O 0.77783 0.52093 0.24797
 O921 O 0.75241 0.52183 0.22366
 O922 O 0.72364 0.47917 0.25242
 O923 O 0.72329 0.52098 0.25264
 O924 O 0.75206 0.48002 0.22279
 Cu925 Cu 0.76564 0.50022 0.26482
 Cu926 Cu 0.73532 0.50054 0.23542
 C927 C 0.76913 0.47206 0.23025
 C928 C 0.73128 0.52866 0.26951
 C929 C 0.73158 0.47186 0.26952
 C930 C 0.76987 0.52891 0.23122
 O931 O 0.22326 0.01977 0.74674
 O932 O 0.25175 -0.02222 0.77634
 O933 O 0.25076 0.01961 0.77726
 O934 O 0.22328 -0.02222 0.74666
 O935 O 0.24943 -0.02175 0.72310
 O936 O 0.27691 0.02019 0.75370
 O937 O 0.27790 -0.02184 0.75279
 O938 O 0.24940 0.02007 0.72317
 Cu939 Cu 0.23467 -0.00133 0.76412
 Cu940 Cu 0.26601 -0.00078 0.73583
 C941 C 0.23181 0.02745 0.73011
 C942 C 0.26938 -0.02957 0.76939
 C943 C 0.26819 0.02744 0.77046
 C944 C 0.23193 -0.02949 0.72991
 O945 O 0.25356 0.22420 0.97842
 O946 O 0.22352 0.25257 1.01997
 O947 O 0.22418 0.25329 0.97832
 O948 O 0.25270 0.22354 1.02009
 O949 O 0.27770 0.24832 1.02132
 O950 O 0.24916 0.27809 0.97955
 O951 O 0.24839 0.27749 1.02123
 O952 O 0.27844 0.24911 0.97962
 Cu953 Cu 0.23600 0.23590 0.99910
 Cu954 Cu 0.26592 0.26574 1.00052
 C955 C 0.27093 0.23211 0.97159
 C956 C 0.23100 0.26956 1.02803
 C957 C 0.23210 0.27061 0.97149
 C958 C 0.26974 0.23102 1.02818
 O959 O 0.22356 0.75142 0.51909
 O960 O 0.25417 0.72352 0.47762
 O961 O 0.25338 0.72311 0.51945
 O962 O 0.22469 0.75266 0.47741
 O963 O 0.24919 0.77793 0.47892
 O964 O 0.27794 0.74836 0.51999
 O965 O 0.27845 0.74903 0.47845
 O966 O 0.24820 0.77658 0.52045
 Cu967 Cu 0.23648 0.73512 0.49823
 Cu968 Cu 0.26591 0.76548 0.49952
 C969 C 0.23094 0.76839 0.52727
 C970 C 0.27130 0.73179 0.47059
 C971 C 0.27035 0.73109 0.52723
 C972 C 0.23234 0.77021 0.47077
 O973 O 0.22321 0.74637 -0.02048
 O974 O 0.25103 0.77665 0.02119
 O975 O 0.25099 0.77664 -0.02045
 O976 O 0.22318 0.74640 0.02132
 O977 O 0.24940 0.72282 0.02124
 O978 O 0.27721 0.75306 -0.02053
 O979 O 0.27725 0.75307 0.02128
 O980 O 0.24943 0.72279 -0.02040
 Cu981 Cu 0.23448 0.76389 0.00040
 Cu982 Cu 0.26595 0.73556 0.00041
 C983 C 0.23189 0.72967 -0.02793
 C984 C 0.26858 0.76979 0.02871
 C985 C 0.26853 0.76975 -0.02800
 C986 C 0.23183 0.72968 0.02875
 O987 O 0.27554 0.25145 0.47872
 O988 O 0.24667 0.22263 0.52113
 O989 O 0.24650 0.22235 0.47942
 O990 O 0.27618 0.25123 0.52039
 O991 O 0.25114 0.27603 0.52119
 O992 O 0.22179 0.24747 0.47894
 O993 O 0.22161 0.24742 0.52068
 O994 O 0.25083 0.27658 0.47952
 Cu995 Cu 0.26371 0.23440 0.49989
 Cu996 Cu 0.23384 0.26438 0.50010
 C997 C 0.26780 0.26879 0.47163
 C998 C 0.22939 0.23043 0.52842
 C999 C 0.22950 0.23020 0.47168
 C1000 C 0.26850 0.26820 0.52825
 O1001 O 0.74762 0.77771 0.97925
 O1002 O 0.77714 0.74860 1.02066
 O1003 O 0.77670 0.74818 0.97891
 O1004 O 0.74761 0.77729 1.02114
 O1005 O 0.72282 0.75225 1.02101
 O1006 O 0.75194 0.72314 0.97973
 O1007 O 0.75224 0.72368 1.02131
 O1008 O 0.72308 0.75244 0.97945
 Cu1009 Cu 0.76477 0.76547 0.99994
 Cu1010 Cu 0.73504 0.73540 1.00035
 C1011 C 0.73051 0.76970 0.97191
 C1012 C 0.76950 0.73157 1.02847
 C1013 C 0.76897 0.73081 0.97187
 C1014 C 0.73046 0.76936 1.02860
 O1015 O 0.74761 0.27689 0.47984
 O1016 O 0.77701 0.24804 0.52125
 O1017 O 0.77647 0.24757 0.47948
 O1018 O 0.74785 0.27709 0.52159
 O1019 O 0.72261 0.25252 0.52126
 O1020 O 0.75156 0.22267 0.48041
 O1021 O 0.75178 0.22347 0.52216
 O1022 O 0.72272 0.25198 0.47951
 Cu1023 Cu 0.76475 0.26487 0.50050
 Cu1024 Cu 0.73466 0.23518 0.50089
 C1025 C 0.73054 0.26913 0.47211
 C1026 C 0.76917 0.23120 0.52926
 C1027 C 0.76857 0.23029 0.47246
 C1028 C 0.73050 0.26950 0.52889
 O1029 O 0.77721 0.25214 -0.02153
 O1030 O 0.74895 0.22183 0.01998
 O1031 O 0.74829 0.22245 -0.02186
 O1032 O 0.77738 0.25161 0.02035
 O1033 O 0.75183 0.27588 0.02059
 O1034 O 0.72274 0.24669 -0.02070
 O1035 O 0.72351 0.24622 0.02097
 O1036 O 0.75143 0.27617 -0.02095
 Cu1037 Cu 0.76551 0.23455 -0.00086
 Cu1038 Cu 0.73483 0.26365 0.00000
 C1039 C 0.76884 0.26913 -0.02868
 C1040 C 0.73179 0.22914 0.02800
 C1041 C 0.73070 0.22992 -0.02875
 C1042 C 0.76922 0.26853 0.02797
 O1043 O 0.77743 0.75429 0.47840
 O1044 O 0.74940 0.72375 0.51991
 O1045 O 0.74859 0.72450 0.47812
 O1046 O 0.77753 0.75382 0.52034
 O1047 O 0.75188 0.77798 0.52059
 O1048 O 0.72294 0.74863 0.47930
 O1049 O 0.72384 0.74802 0.52093
 O1050 O 0.75154 0.77820 0.47898
 Cu1051 Cu 0.76583 0.73667 0.49909
 Cu1052 Cu 0.73501 0.76561 0.49999
 C1053 C 0.76896 0.77123 0.47123
 C1054 C 0.73219 0.73095 0.52792
 C1055 C 0.73095 0.73188 0.47125
 C1056 C 0.76928 0.77068 0.52800
 O1057 O 1.02098 0.27668 0.24731
 O1058 O 0.97923 0.24850 0.27742
 O1059 O 1.02111 0.24738 0.27627
 O1060 O 0.97907 0.27753 0.24840
 O1061 O 0.97757 0.25271 0.22359
 O1062 O 1.01961 0.22260 0.25141
 O1063 O 0.97772 0.22357 0.25272
 O1064 O 1.01947 0.25178 0.22258
 Cu1065 Cu 1.00023 0.26501 0.26484
 Cu1066 Cu 0.99845 0.23518 0.23509
 C1067 C 1.02768 0.26875 0.22999
 C1068 C 0.97105 0.23151 0.27006
 C1069 C 1.02785 0.23003 0.26831
 C1070 C 0.97085 0.27008 0.23149
 O1071 O 0.52044 0.27684 0.74810
 O1072 O 0.47812 0.24676 0.77632
 O1073 O 0.52028 0.24728 0.77700
 O1074 O 0.47827 0.27712 0.74825
 O1075 O 0.47867 0.25253 0.72319
 O1076 O 0.52028 0.22300 0.75163
 O1077 O 0.47861 0.22250 0.75094
 O1078 O 0.52034 0.25223 0.72306
 Cu1079 Cu 0.49925 0.26446 0.76500
 Cu1080 Cu 0.49950 0.23517 0.73469
 C1081 C 0.52789 0.26928 0.73087
 C1082 C 0.47088 0.22968 0.76814
 C1083 C 0.52773 0.23026 0.76894
 C1084 C 0.47101 0.26958 0.73096
 O1085 O -0.02107 0.27696 0.75244
 O1086 O 0.02053 0.24691 0.72436
 O1087 O -0.02134 0.24691 0.72465
 O1088 O 0.02079 0.27671 0.75256
 O1089 O 0.02092 0.25288 0.77833
 O1090 O -0.02083 0.22273 0.75010
 O1091 O 0.02123 0.22287 0.74990
 O1092 O -0.02127 0.25291 0.77800
 Cu1093 Cu -0.00024 0.26427 0.73596
 Cu1094 Cu 0.00005 0.23544 0.76667
 C1095 C -0.02872 0.26984 0.76970
 C1096 C 0.02837 0.23009 0.73241
 C1097 C -0.02859 0.22993 0.73289
 C1098 C 0.02834 0.26973 0.76996
 O1099 O 0.52081 0.24798 0.22265
 O1100 O 0.47847 0.27677 0.25207
 O1101 O 0.52056 0.27756 0.25110
 O1102 O 0.47870 0.24726 0.22311
 O1103 O 0.47950 0.22302 0.24850
 O1104 O 0.52173 0.25301 0.27618
 O1105 O 0.47984 0.25232 0.27720
 O1106 O 0.52129 0.22353 0.24784
 Cu1107 Cu 0.49950 0.26487 0.23471
 Cu1108 Cu 0.50064 0.23554 0.26494
 C1109 C 0.52858 0.23103 0.23057
 C1110 C 0.47167 0.26914 0.26951
 C1111 C 0.52872 0.27017 0.26805
 C1112 C 0.47163 0.23016 0.23130
 O1113 O 1.02178 0.77690 0.74765
 O1114 O 0.97962 0.74870 0.77717
 O1115 O 1.02145 0.74835 0.77695
 O1116 O 0.97986 0.77713 0.74762
 O1117 O 0.97904 0.75176 0.72336
 O1118 O 1.02141 0.72294 0.75270
 O1119 O 0.97925 0.72312 0.75311
 O1120 O 1.02109 0.75160 0.72329
 Cu1121 Cu 1.00067 0.76529 0.76477
 Cu1122 Cu 1.00014 0.73480 0.73567
 C1123 C 1.02896 0.76876 0.73061
 C1124 C 0.97196 0.73136 0.77007
 C1125 C 1.02896 0.73105 0.76962
 C1126 C 0.97196 0.76923 0.73079
 O1127 O 0.52134 0.72272 0.24999
 O1128 O 0.47935 0.75277 0.22207
 O1129 O 0.52139 0.75315 0.22249
 O1130 O 0.47947 0.72219 0.24935
 O1131 O 0.47891 0.74564 0.27551
 O1132 O 0.52087 0.77657 0.24867
 O1133 O 0.47900 0.77622 0.24822
 O1134 O 0.52089 0.74617 0.27615
 Cu1135 Cu 0.50045 0.73535 0.23334
 Cu1136 Cu 0.49985 0.76351 0.26476
 C1137 C 0.52861 0.72955 0.26757
 C1138 C 0.47167 0.76940 0.23067
 C1139 C 0.52864 0.76988 0.23126
 C1140 C 0.47169 0.72888 0.26675
 O1141 O -0.02002 0.77714 0.25220
 O1142 O 0.02185 0.74756 0.22352
 O1143 O -0.02005 0.74822 0.22311
 O1144 O 0.02188 0.77622 0.25315
 O1145 O 0.02061 0.75109 0.27764
 O1146 O -0.02127 0.72309 0.24760
 O1147 O 0.02065 0.72254 0.24812
 O1148 O -0.02130 0.75214 0.27681
 Cu1149 Cu 0.00102 0.76481 0.23554
 Cu1150 Cu -0.00042 0.73469 0.26500
 C1151 C -0.02814 0.76954 0.26907
 C1152 C 0.02871 0.73015 0.23121
 C1153 C -0.02813 0.73116 0.23041
 C1154 C 0.02871 0.76814 0.27036
 O1155 O 0.47826 0.77689 0.75316
 O1156 O 0.52076 0.74909 0.72340
 O1157 O 0.47880 0.74850 0.72350
 O1158 O 0.52037 0.77696 0.75348
 O1159 O 0.52038 0.75108 0.77721
 O1160 O 0.47886 0.72261 0.74723
 O1161 O 0.52102 0.72321 0.74713
 O1162 O 0.47846 0.75101 0.77689
 Cu1163 Cu 0.49952 0.76543 0.73598
 Cu1164 Cu 0.49968 0.73440 0.76450
 C1165 C 0.47078 0.76842 0.76991
 C1166 C 0.52852 0.73174 0.73040
 C1167 C 0.47138 0.73100 0.73046
 C1168 C 0.52784 0.76854 0.77025
 C1169 C 0.42024 0.29695 0.29947
 C1170 C 0.44004 0.31147 0.29825
 C1171 C 0.45722 0.30232 0.28842
 C1172 C 0.45305 0.27949 0.28069
 C1173 C 0.44539 0.26744 0.30059
 C1174 C 0.42832 0.27652 0.31037
 C1175 C 0.41594 0.29030 0.27638
 C1176 C 0.43307 0.28120 0.26659
 H1177 H 0.44053 0.32751 0.30466
 H1178 H 0.47236 0.31052 0.28645
 H1179 H 0.45272 0.25297 0.30662
 H1180 H 0.42148 0.26958 0.32458
 H1181 H 0.40076 0.29268 0.26835
 H1182 H 0.43252 0.27601 0.25018
 C1183 C 0.41863 0.79604 0.79913
 C1184 C 0.43796 0.81109 0.79688
 C1185 C 0.45533 0.80197 0.78737
 C1186 C 0.45191 0.77860 0.78093
 C1187 C 0.44494 0.76743 0.80152
 C1188 C 0.42766 0.77647 0.81104
 C1189 C 0.41437 0.78791 0.77648
 C1190 C 0.43171 0.77883 0.76700
 H1191 H 0.43804 0.82747 0.80241
 H1192 H 0.47017 0.81056 0.78481
 H1193 H 0.45305 0.75376 0.80834
 H1194 H 0.42154 0.77022 0.82587
 H1195 H 0.39898 0.78909 0.76856
 H1196 H 0.43109 0.77229 0.75104
 C1197 C -0.08065 0.29948 0.79707
 C1198 C -0.08499 0.27668 0.78932
 C1199 C -0.06771 0.26702 0.78031
 C1200 C -0.04752 0.28097 0.77982
 C1201 C -0.05460 0.30152 0.76844
 C1202 C -0.07185 0.31117 0.77742
 C1203 C -0.06128 0.29740 0.81202
 C1204 C -0.04396 0.28773 0.80300
 H1205 H -0.10040 0.26882 0.79068
 H1206 H -0.06839 0.25093 0.77400
 H1207 H -0.04668 0.30813 0.75459
 H1208 H -0.07828 0.32586 0.77103
 H1209 H -0.06117 0.30315 0.82829
 H1210 H -0.02909 0.28522 0.81154
 C1211 C -0.07948 0.79925 0.29735
 C1212 C -0.07178 0.81020 0.27681
 C1213 C -0.05474 0.80052 0.26753
 C1214 C -0.04673 0.78071 0.27951
 C1215 C -0.04232 0.78857 0.30220
 C1216 C -0.05946 0.79827 0.31154
 C1217 C -0.08363 0.77605 0.29084
 C1218 C -0.06655 0.76637 0.28156
 H1219 H -0.07884 0.82435 0.26992
 H1220 H -0.04767 0.80656 0.25298
 H1221 H -0.02703 0.78678 0.31018
 H1222 H -0.05880 0.80477 0.32751
 H1223 H -0.09870 0.76786 0.29345
 H1224 H -0.06701 0.74989 0.27647
 C1225 C 0.58039 0.70079 0.29575
 C1226 C 0.57210 0.68884 0.27598
 C1227 C 0.55486 0.69817 0.26667
 C1228 C 0.54732 0.71862 0.27787
 C1229 C 0.54345 0.71192 0.30102
 C1230 C 0.56076 0.70260 0.31038
 C1231 C 0.58452 0.72360 0.28797
 C1232 C 0.56726 0.73292 0.27864
 H1233 H 0.57885 0.67423 0.26976
 H1234 H 0.54724 0.69140 0.25273
 H1235 H 0.52839 0.71419 0.30929
 H1236 H 0.56047 0.69692 0.32666
 H1237 H 0.59978 0.73170 0.28954
 H1238 H 0.56779 0.74897 0.27223
 C1239 C 0.57897 0.20047 0.79723
 C1240 C 0.55895 0.20150 0.81143
 C1241 C 0.54183 0.21125 0.80210
 C1242 C 0.54627 0.21910 0.77942
 C1243 C 0.56610 0.23339 0.78146
 C1244 C 0.58318 0.22367 0.79072
 C1245 C 0.57127 0.18952 0.77670
 C1246 C 0.55425 0.19924 0.76744
 H1247 H 0.55828 0.19504 0.82741
 H1248 H 0.52656 0.21311 0.81009
 H1249 H 0.56662 0.24985 0.77629
 H1250 H 0.59827 0.23181 0.79329
 H1251 H 0.57834 0.17537 0.76982
 H1252 H 0.54717 0.19319 0.75290
 C1253 C 1.08101 0.70330 0.79858
 C1254 C 1.06177 0.68819 0.79620
 C1255 C 1.04437 0.69731 0.78675
 C1256 C 1.04778 0.72072 0.78048
 C1257 C 1.05474 0.73178 0.80117
 C1258 C 1.07202 0.72272 0.81061
 C1259 C 1.08531 0.71153 0.77599
 C1260 C 1.06797 0.72063 0.76655
 H1261 H 1.06179 0.67177 0.80161
 H1262 H 1.02956 0.68871 0.78409
 H1263 H 1.04668 0.74545 0.80808
 H1264 H 1.07829 0.72888 0.82542
 H1265 H 1.10072 0.71037 0.76812
 H1266 H 1.06859 0.72725 0.75062
 C1267 C 1.07929 0.20029 0.29624
 C1268 C 1.08337 0.22350 0.28975
 C1269 C 1.06625 0.23315 0.28056
 C1270 C 1.04646 0.21878 0.27854
 C1271 C 1.05449 0.19900 0.26648
 C1272 C 1.07160 0.18934 0.27570
 C1273 C 1.05930 0.20120 0.31049
 C1274 C 1.04212 0.21087 0.30122
 H1275 H 1.09843 0.23173 0.29233
 H1276 H 1.06666 0.24965 0.27554
 H1277 H 1.04739 0.19300 0.25193
 H1278 H 1.07878 0.17524 0.26879
 H1279 H 1.05869 0.19465 0.32644
 H1280 H 1.02684 0.21260 0.30924
 C1281 C 0.57908 0.29802 0.70143
 C1282 C 0.58327 0.29164 0.72461
 C1283 C 0.56623 0.28227 0.73430
 C1284 C 0.54645 0.28002 0.71998
 C1285 C 0.54188 0.30271 0.71204
 C1286 C 0.55897 0.31214 0.70233
 C1287 C 0.57156 0.27733 0.69060
 C1288 C 0.55461 0.26798 0.70026
 H1289 H 0.59831 0.29441 0.73279
 H1290 H 0.56669 0.27726 0.75077
 H1291 H 0.52656 0.31065 0.71387
 H1292 H 0.55823 0.32814 0.69585
 H1293 H 0.57874 0.27032 0.67659
 H1294 H 0.54775 0.25327 0.69429
 C1295 C 0.58064 0.79925 0.20423
 C1296 C 0.56123 0.79755 0.18931
 C1297 C 0.54385 0.78804 0.19831
 C1298 C 0.54743 0.78107 0.22142
 C1299 C 0.56744 0.76687 0.22077
 C1300 C 0.58478 0.77636 0.21179
 C1301 C 0.57204 0.81093 0.22401
 C1302 C 0.55470 0.80142 0.23298
 H1303 H 0.56112 0.80348 0.17311
 H1304 H 0.52890 0.78585 0.18981
 H1305 H 0.56799 0.75076 0.22703
 H1306 H 0.60011 0.76835 0.21038
 H1307 H 0.57865 0.82551 0.23046
 H1308 H 0.54685 0.80798 0.24690
 C1309 C 1.07889 0.29691 0.20015
 C1310 C 1.05899 0.31128 0.20143
 C1311 C 1.04188 0.30195 0.21114
 C1312 C 1.04620 0.27909 0.21872
 C1313 C 1.05394 0.26719 0.19879
 C1314 C 1.07097 0.27646 0.18909
 C1315 C 1.08322 0.29012 0.22317
 C1316 C 1.06616 0.28086 0.23287
 H1317 H 1.05839 0.32736 0.19512
 H1318 H 1.02665 0.31003 0.21311
 H1319 H 1.04675 0.25268 0.19273
 H1320 H 1.07797 0.26958 0.17492
 H1321 H 1.09838 0.29253 0.23124
 H1322 H 1.06675 0.27557 0.24923
 C1323 C 1.08091 0.79656 0.70166
 C1324 C 1.08525 0.78831 0.72422
 C1325 C 1.06794 0.77914 0.73363
 C1326 C 1.04774 0.77901 0.71970
 C1327 C 1.04427 0.80243 0.71346
 C1328 C 1.06163 0.81161 0.70403
 C1329 C 1.07195 0.77711 0.68959
 C1330 C 1.05470 0.76799 0.69902
 H1331 H 1.10066 0.78948 0.73208
 H1332 H 1.06860 0.77245 0.74952
 H1333 H 1.02941 0.81099 0.71607
 H1334 H 1.06159 0.82803 0.69861
 H1335 H 1.07813 0.77103 0.67472
 H1336 H 1.04663 0.75435 0.69209
 C1337 C 0.41966 0.70308 0.70138
 C1338 C 0.43899 0.68810 0.70370
 C1339 C 0.45630 0.69732 0.71317
 C1340 C 0.45270 0.72070 0.71949
 C1341 C 0.44571 0.73177 0.69886
 C1342 C 0.42851 0.72261 0.68940
 C1343 C 0.41526 0.71124 0.72397
 C1344 C 0.43251 0.72044 0.73343
 H1345 H 0.43908 0.67169 0.69826
 H1346 H 0.47118 0.68881 0.71580
 H1347 H 0.45369 0.74552 0.69203
 H1348 H 0.42222 0.72880 0.67461
 H1349 H 0.39985 0.70997 0.73183
 H1350 H 0.43183 0.72704 0.74937
 C1351 C 0.42039 0.20028 0.20307
 C1352 C 0.42793 0.18944 0.22373
 C1353 C 0.44496 0.19915 0.23304
 C1354 C 0.45308 0.21887 0.22096
 C1355 C 0.45760 0.21082 0.19835
 C1356 C 0.44050 0.20109 0.18900
 C1357 C 0.41625 0.22354 0.20942
 C1358 C 0.43330 0.23324 0.21871
 H1359 H 0.42073 0.17536 0.23065
 H1360 H 0.45195 0.19323 0.24768
 H1361 H 0.47292 0.21253 0.19043
 H1362 H 0.44124 0.19447 0.17308
 H1363 H 0.40120 0.23174 0.20672
 H1364 H 0.43283 0.24974 0.22371
 C1365 C -0.07947 0.70312 0.20071
 C1366 C -0.07171 0.72371 0.18981
 C1367 C -0.05465 0.73295 0.19947
 C1368 C -0.04671 0.72087 0.21921
 C1369 C -0.06654 0.71888 0.23350
 C1370 C -0.08364 0.70964 0.22384
 C1371 C -0.05951 0.68881 0.20166
 C1372 C -0.04235 0.69811 0.21134
 H1373 H -0.07877 0.73067 0.17572
 H1374 H -0.04752 0.74752 0.19349
 H1375 H -0.06701 0.72401 0.24993
 H1376 H -0.09872 0.70707 0.23200
 H1377 H -0.05889 0.67280 0.19517
 H1378 H -0.02708 0.69007 0.21309
 C1379 C -0.08039 0.20102 0.70491
 C1380 C -0.08467 0.22371 0.71298
 C1381 C -0.06741 0.23308 0.72225
 C1382 C -0.04732 0.21896 0.72265
 C1383 C -0.05454 0.19832 0.73369
 C1384 C -0.07178 0.18894 0.72445
 C1385 C -0.06094 0.20317 0.69010
 C1386 C -0.04363 0.21254 0.69938
 H1387 H -0.10002 0.23170 0.71165
 H1388 H -0.06803 0.24906 0.72883
 H1389 H -0.04672 0.19148 0.74749
 H1390 H -0.07833 0.17421 0.73058
 H1391 H -0.06077 0.19765 0.67376
 H1392 H -0.02868 0.21503 0.69098
 C1393 C 0.29786 0.41952 0.29850
 C1394 C 0.31220 0.43943 0.29770
 C1395 C 0.30290 0.45656 0.28801
 C1396 C 0.28011 0.45223 0.27997
 C1397 C 0.28228 0.43254 0.26560
 C1398 C 0.29151 0.41546 0.27528
 C1399 C 0.27710 0.42720 0.30925
 C1400 C 0.26789 0.44419 0.29960
 H1401 H 0.32825 0.44001 0.30425
 H1402 H 0.31098 0.47176 0.28628
 H1403 H 0.27734 0.43217 0.24911
 H1404 H 0.29425 0.40049 0.26707
 H1405 H 0.26997 0.42016 0.32325
 H1406 H 0.25321 0.45121 0.30558
 C1407 C 0.29717 -0.08168 0.79815
 C1408 C 0.28908 -0.08575 0.77544
 C1409 C 0.27996 -0.06841 0.76610
 C1410 C 0.27968 -0.04840 0.78020
 C1411 C 0.26843 -0.05550 0.80070
 C1412 C 0.27748 -0.07276 0.81008
 C1413 C 0.31229 -0.06241 0.79608
 C1414 C 0.30313 -0.04503 0.78672
 H1415 H 0.29032 -0.10101 0.76740
 H1416 H 0.27343 -0.06890 0.75012
 H1417 H 0.25469 -0.04748 0.80758
 H1418 H 0.27114 -0.07887 0.82486
 H1419 H 0.32872 -0.06237 0.80164
 H1420 H 0.31173 -0.03021 0.78431
 C1421 C 0.79678 0.42051 0.79982
 C1422 C 0.81112 0.44045 0.79910
 C1423 C 0.80189 0.45757 0.78934
 C1424 C 0.77916 0.45327 0.78115
 C1425 C 0.78138 0.43356 0.76683
 C1426 C 0.79052 0.41647 0.77655
 C1427 C 0.77591 0.42826 0.81044
 C1428 C 0.76678 0.44528 0.80070
 H1429 H 0.82710 0.44111 0.80581
 H1430 H 0.80996 0.47279 0.78773
 H1431 H 0.77650 0.43317 0.75032
 H1432 H 0.79317 0.40149 0.76833
 H1433 H 0.76856 0.42121 0.82434
 H1434 H 0.75203 0.45232 0.80649
 C1435 C 0.80001 -0.08010 0.29555
 C1436 C 0.81218 -0.07133 0.27607
 C1437 C 0.80274 -0.05408 0.26697
 C1438 C 0.78201 -0.04699 0.27806
 C1439 C 0.76784 -0.06699 0.27825
 C1440 C 0.77722 -0.08427 0.28738
 C1441 C 0.79783 -0.06080 0.31050
 C1442 C 0.78841 -0.04350 0.30135
 H1443 H 0.82706 -0.07764 0.26990
 H1444 H 0.80964 -0.04615 0.25328
 H1445 H 0.75182 -0.06756 0.27161
 H1446 H 0.76919 -0.09956 0.28851
 H1447 H 0.80338 -0.06068 0.32685
 H1448 H 0.78590 -0.02866 0.30985
 C1449 C 0.29689 0.58054 0.70086
 C1450 C 0.31213 0.56142 0.70318
 C1451 C 0.30303 0.54406 0.71261
 C1452 C 0.27952 0.54738 0.71888
 C1453 C 0.27955 0.56746 0.73286
 C1454 C 0.28862 0.58477 0.72345
 C1455 C 0.27742 0.57157 0.68881
 C1456 C 0.26839 0.55432 0.69821
 H1457 H 0.32862 0.56151 0.69780
 H1458 H 0.31173 0.52933 0.71526
 H1459 H 0.27295 0.56803 0.74881
 H1460 H 0.28976 0.60010 0.73137
 H1461 H 0.27121 0.57780 0.67401
 H1462 H 0.25471 0.54627 0.69128
 C1463 C 0.29689 1.07987 0.20116
 C1464 C 0.27771 1.07066 0.18885
 C1465 C 0.26852 1.05356 0.19834
 C1466 C 0.27924 1.04699 0.21935
 C1467 C 0.30287 1.04361 0.21361
 C1468 C 0.31212 1.06083 0.20408
 C1469 C 0.28815 1.08445 0.22351
 C1470 C 0.27892 1.06728 0.23301
 H1471 H 0.27186 1.07659 0.17378
 H1472 H 0.25503 1.04535 0.19123
 H1473 H 0.31154 1.02893 0.21664
 H1474 H 0.32871 1.06086 0.19900
 H1475 H 0.28909 1.09991 0.23120
 H1476 H 0.27196 1.06809 0.24880
 C1477 C 0.79872 0.58073 0.20329
 C1478 C 0.81110 0.57178 0.22247
 C1479 C 0.80170 0.55457 0.23163
 C1480 C 0.78069 0.54767 0.22088
 C1481 C 0.76670 0.56782 0.22102
 C1482 C 0.77611 0.58507 0.21183
 C1483 C 0.79610 0.56157 0.18826
 C1484 C 0.78667 0.54428 0.19746
 H1485 H 0.82605 0.57809 0.22846
 H1486 H 0.80877 0.54659 0.24521
 H1487 H 0.75078 0.56849 0.22789
 H1488 H 0.76822 0.60045 0.21086
 H1489 H 0.80134 0.56156 0.17182
 H1490 H 0.78384 0.52953 0.18890
 C1491 C 0.79803 1.08020 0.70381
 C1492 C 0.81016 1.07166 0.72339
 C1493 C 0.80080 1.05446 0.73262
 C1494 C 0.78014 1.04718 0.72155
 C1495 C 0.76588 1.06714 0.72112
 C1496 C 0.77522 1.08437 0.71185
 C1497 C 0.79598 1.06081 0.68901
 C1498 C 0.78663 1.04353 0.69829
 H1499 H 0.82493 1.07819 0.72957
 H1500 H 0.80770 1.04671 0.74643
 H1501 H 0.74983 1.06770 0.72770
 H1502 H 0.76715 1.09963 0.71051
 H1503 H 0.80154 1.06066 0.67267
 H1504 H 0.78421 1.02861 0.68989
 C1505 C 0.70256 0.58032 0.29780
 C1506 C 0.72518 0.58466 0.28933
 C1507 C 0.73457 0.56744 0.28005
 C1508 C 0.72055 0.54733 0.28006
 C1509 C 0.71455 0.54382 0.30346
 C1510 C 0.70513 0.56109 0.31275
 C1511 C 0.69018 0.57145 0.27856
 C1512 C 0.69957 0.55430 0.26933
 H1513 H 0.73311 0.60000 0.29046
 H1514 H 0.75053 0.56809 0.27324
 H1515 H 0.71733 0.52901 0.31193
 H1516 H 0.69987 0.56103 0.32918
 H1517 H 0.67514 0.57763 0.27267
 H1518 H 0.69242 0.54632 0.25578
 C1519 C 0.70055 1.08034 0.79693
 C1520 C 0.70255 1.06094 0.81178
 C1521 C 0.71204 1.04365 0.80260
 C1522 C 0.71870 1.04724 0.77939
 C1523 C 0.69811 1.05446 0.76815
 C1524 C 0.68861 1.07166 0.77725
 C1525 C 0.72344 1.08448 0.78903
 C1526 C 0.73290 1.06722 0.77989
 H1527 H 0.69687 1.06075 0.82808
 H1528 H 0.71445 1.02877 0.81104
 H1529 H 0.69134 1.04664 0.75432
 H1530 H 0.67385 1.07803 0.77087
 H1531 H 0.73152 1.09974 0.79038
 H1532 H 0.74901 1.06778 0.77345
 C1533 C 0.20353 0.58021 0.79790
 C1534 C 0.22292 0.57108 0.81004
 C1535 C 0.23207 0.55392 0.80054
 C1536 C 0.22112 0.54723 0.77972
 C1537 C 0.19755 0.54385 0.78577
 C1538 C 0.18834 0.56112 0.79526
 C1539 C 0.21202 0.58466 0.77544
 C1540 C 0.22121 0.56745 0.76596
 H1541 H 0.22898 0.57713 0.82498
 H1542 H 0.24570 0.54577 0.80748
 H1543 H 0.18891 0.52912 0.78298
 H1544 H 0.17182 0.56113 0.80057
 H1545 H 0.21098 0.60008 0.76770
 H1546 H 0.22804 0.56820 0.75011
 C1547 C 0.20300 1.08015 0.29799
 C1548 C 0.18770 1.06112 0.29534
 C1549 C 0.19682 1.04382 0.28583
 C1550 C 0.22040 1.04710 0.27985
 C1551 C 0.22064 1.06730 0.26607
 C1552 C 0.21153 1.08455 0.27554
 C1553 C 0.22228 1.07099 0.31019
 C1554 C 0.23135 1.05378 0.30072
 H1555 H 0.17117 1.06122 0.30061
 H1556 H 0.18812 1.02913 0.28300
 H1557 H 0.22749 1.06798 0.25022
 H1558 H 0.21059 1.09997 0.26778
 H1559 H 0.22828 1.07702 0.32516
 H1560 H 0.24490 1.04558 0.30774
 C1561 C 0.70050 0.42088 0.70278
 C1562 C 0.70197 0.44066 0.68842
 C1563 C 0.71174 0.45771 0.69775
 C1564 C 0.71918 0.45346 0.72061
 C1565 C 0.69898 0.44580 0.73232
 C1566 C 0.68924 0.42885 0.72304
 C1567 C 0.72365 0.41653 0.70973
 C1568 C 0.73339 0.43353 0.71901
 H1569 H 0.69578 0.44122 0.67232
 H1570 H 0.71388 0.47282 0.68965
 H1571 H 0.69280 0.45297 0.74676
 H1572 H 0.67492 0.42190 0.72980
 H1573 H 0.73174 0.40139 0.70747
 H1574 H 0.74982 0.43292 0.72447
 C1575 C 0.70296 -0.08010 0.20294
 C1576 C 0.70501 -0.06085 0.18795
 C1577 C 0.71441 -0.04348 0.19706
 C1578 C 0.72093 -0.04694 0.22033
 C1579 C 0.70025 -0.05413 0.23148
 C1580 C 0.69087 -0.07138 0.22243
 C1581 C 0.72580 -0.08421 0.21096
 C1582 C 0.73518 -0.06689 0.22005
 H1583 H 0.69942 -0.06085 0.17163
 H1584 H 0.71685 -0.02865 0.18854
 H1585 H 0.69329 -0.04623 0.24518
 H1586 H 0.67604 -0.07776 0.22862
 H1587 H 0.73387 -0.09948 0.20970
 H1588 H 0.75126 -0.06739 0.22656
 C1589 C 0.20053 0.41969 0.20237
 C1590 C 0.22380 0.41545 0.20898
 C1591 C 0.23355 0.43243 0.21831
 C1592 C 0.21922 0.45222 0.22031
 C1593 C 0.21144 0.45667 0.19760
 C1594 C 0.20166 0.43965 0.18821
 C1595 C 0.18947 0.42736 0.22285
 C1596 C 0.19921 0.44428 0.23218
 H1597 H 0.23197 0.40040 0.20644
 H1598 H 0.25006 0.43188 0.22354
 H1599 H 0.21336 0.47188 0.18963
 H1600 H 0.19523 0.44035 0.17221
 H1601 H 0.17520 0.42036 0.22963
 H1602 H 0.19307 0.45133 0.24670
 C1603 C 0.20453 -0.08132 0.70055
 C1604 C 0.21252 -0.08558 0.72322
 C1605 C 0.22158 -0.06833 0.73274
 C1606 C 0.22188 -0.04823 0.71878
 C1607 C 0.23324 -0.05521 0.69825
 C1608 C 0.22420 -0.07244 0.68872
 C1609 C 0.18939 -0.06211 0.70269
 C1610 C 0.19846 -0.04480 0.71222
 H1611 H 0.21129 -0.10093 0.73108
 H1612 H 0.22809 -0.06896 0.74872
 H1613 H 0.24706 -0.04720 0.69154
 H1614 H 0.23051 -0.07876 0.67399
 H1615 H 0.17296 -0.06209 0.69709
 H1616 H 0.18980 -0.03002 0.71475
 C1617 C 0.29583 0.29773 0.42007
 C1618 C 0.31097 0.29518 0.43919
 C1619 C 0.30174 0.28570 0.45640
 C1620 C 0.27819 0.27963 0.45298
 C1621 C 0.26725 0.30050 0.44613
 C1622 C 0.27643 0.30994 0.42901
 C1623 C 0.28739 0.27517 0.41570
 C1624 C 0.27817 0.26572 0.43288
 H1625 H 0.32750 0.30047 0.43921
 H1626 H 0.31035 0.28290 0.47111
 H1627 H 0.25357 0.30750 0.45414
 H1628 H 0.27039 0.32488 0.42284
 H1629 H 0.28848 0.26733 0.40036
 H1630 H 0.27137 0.24982 0.43218
 C1631 C 0.29590 0.79854 -0.07998
 C1632 C 0.31102 0.79672 -0.06078
 C1633 C 0.30195 0.78738 -0.04341
 C1634 C 0.27857 0.78068 -0.04679
 C1635 C 0.26714 0.80113 -0.05403
 C1636 C 0.27617 0.81047 -0.07133
 C1637 C 0.28800 0.77572 -0.08394
 C1638 C 0.27895 0.76640 -0.06662
 H1639 H 0.32741 0.80242 -0.06081
 H1640 H 0.31057 0.78512 -0.02862
 H1641 H 0.25327 0.80791 -0.04617
 H1642 H 0.26979 0.82511 -0.07785
 H1643 H 0.28927 0.76763 -0.09914
 H1644 H 0.27249 0.75034 -0.06705
 C1645 C 0.79682 0.29909 -0.07976
 C1646 C 0.81113 0.29836 -0.05989
 C1647 C 0.80188 0.28860 -0.04283
 C1648 C 0.77915 0.28041 -0.04716
 C1649 C 0.76679 0.30003 -0.05516
 C1650 C 0.77597 0.30977 -0.07213
 C1651 C 0.79058 0.27579 -0.08383
 C1652 C 0.78141 0.26604 -0.06681
 H1653 H 0.82713 0.30506 -0.05928
 H1654 H 0.80995 0.28697 -0.02765
 H1655 H 0.75203 0.30586 -0.04818
 H1656 H 0.76875 0.32372 -0.07928
 H1657 H 0.79330 0.26758 -0.09877
 H1658 H 0.77654 0.24949 -0.06721
 C1659 C 0.79681 0.80097 0.41990
 C1660 C 0.81113 0.80041 0.43978
 C1661 C 0.80191 0.79074 0.45691
 C1662 C 0.77919 0.78247 0.45265
 C1663 C 0.76679 0.80202 0.44451
 C1664 C 0.77596 0.81167 0.42745
 C1665 C 0.79061 0.77762 0.41602
 C1666 C 0.78147 0.76798 0.43310
 H1667 H 0.82711 0.80713 0.44036
 H1668 H 0.81000 0.78922 0.47209
 H1669 H 0.75204 0.80787 0.45149
 H1670 H 0.76880 0.82561 0.42022
 H1671 H 0.79334 0.76931 0.40113
 H1672 H 0.77663 0.75141 0.43281
 C1673 C 0.70186 0.29768 0.58058
 C1674 C 0.70444 0.31277 0.56148
 C1675 C 0.71382 0.30352 0.54420
 C1676 C 0.71979 0.28002 0.54757
 C1677 C 0.73383 0.27988 0.56761
 C1678 C 0.72447 0.28912 0.58484
 C1679 C 0.68945 0.27846 0.57164
 C1680 C 0.69880 0.26927 0.55448
 H1681 H 0.69922 0.32927 0.56151
 H1682 H 0.71663 0.31209 0.52949
 H1683 H 0.74978 0.27303 0.56821
 H1684 H 0.73242 0.29017 0.60013
 H1685 H 0.67438 0.27257 0.57775
 H1686 H 0.69160 0.25576 0.54643
 C1687 C 0.70178 0.79695 1.08062
 C1688 C 0.72456 0.78870 1.08466
 C1689 C 0.73391 0.77965 1.06734
 C1690 C 0.71971 0.77963 1.04741
 C1691 C 0.69893 0.76856 1.05448
 C1692 C 0.68958 0.77757 1.07176
 C1693 C 0.70399 0.81211 1.06152
 C1694 C 0.71337 0.80304 1.04415
 H1695 H 0.73261 0.78979 1.09990
 H1696 H 0.74995 0.77301 1.06780
 H1697 H 0.69191 0.75491 1.04651
 H1698 H 0.67471 0.77142 1.07811
 H1699 H 0.69853 0.82853 1.06163
 H1700 H 0.71591 0.81169 1.02943
 C1701 C 0.20117 0.29762 1.07913
 C1702 C 0.22445 0.29102 1.08325
 C1703 C 0.23416 0.28180 1.06623
 C1704 C 0.21977 0.27990 1.04652
 C1705 C 0.19986 0.26786 1.05436
 C1706 C 0.19016 0.27707 1.07134
 C1707 C 0.20219 0.31197 1.05934
 C1708 C 0.21192 0.30269 1.04227
 H1709 H 0.23266 0.29350 1.09824
 H1710 H 0.25069 0.27664 1.06668
 H1711 H 0.19382 0.25330 1.04728
 H1712 H 0.17600 0.27008 1.07836
 H1713 H 0.19570 0.32800 1.05878
 H1714 H 0.21372 0.31076 1.02713
 C1715 C 0.20178 0.79563 0.57910
 C1716 C 0.22452 0.78738 0.58328
 C1717 C 0.23396 0.77835 0.56601
 C1718 C 0.21986 0.77836 0.54600
 C1719 C 0.19907 0.76723 0.55291
 C1720 C 0.18961 0.77624 0.57016
 C1721 C 0.20406 0.81081 0.56005
 C1722 C 0.21352 0.80177 0.54273
 H1723 H 0.23246 0.78838 0.59859
 H1724 H 0.24996 0.77163 0.56659
 H1725 H 0.19217 0.75357 0.54486
 H1726 H 0.17473 0.77009 0.57646
 H1727 H 0.19852 0.82721 0.56013
 H1728 H 0.21606 0.81042 0.52802
 C1729 C 0.29859 0.70327 0.57924
 C1730 C 0.29652 0.68817 0.56009
 C1731 C 0.28727 0.69730 0.54268
 C1732 C 0.28092 0.72070 0.54602
 C1733 C 0.26656 0.72062 0.56584
 C1734 C 0.27579 0.71151 0.58319
 C1735 C 0.31086 0.72268 0.57054
 C1736 C 0.30164 0.73175 0.55326
 H1737 H 0.30194 0.67174 0.56018
 H1738 H 0.28479 0.68870 0.52793
 H1739 H 0.25051 0.72724 0.56621
 H1740 H 0.26763 0.71035 0.59837
 H1741 H 0.32569 0.72882 0.57696
 H1742 H 0.30874 0.74540 0.54538
 C1743 C 0.29780 0.20138 1.07946
 C1744 C 0.27711 0.19049 1.07172
 C1745 C 0.26791 0.20014 1.05470
 C1746 C 0.28009 0.21987 1.04675
 C1747 C 0.28210 0.23427 1.06641
 C1748 C 0.29130 0.22463 1.08347
 C1749 C 0.31221 0.20223 1.05966
 C1750 C 0.30294 0.21190 1.04255
 H1751 H 0.27004 0.17643 1.07876
 H1752 H 0.25327 0.19414 1.04762
 H1753 H 0.27708 0.25079 1.06677
 H1754 H 0.29388 0.23287 1.09842
 H1755 H 0.32826 0.19568 1.05912
 H1756 H 0.31107 0.21359 1.02741
 C1757 C 0.79801 0.70349 1.08021
 C1758 C 0.79560 0.68846 1.06105
 C1759 C 0.78632 0.69774 1.04375
 C1760 C 0.78027 0.72122 1.04717
 C1761 C 0.76610 0.72127 1.06713
 C1762 C 0.77536 0.71200 1.08437
 C1763 C 0.81043 0.72280 1.07140
 C1764 C 0.80116 0.73202 1.05420
 H1765 H 0.80089 0.67199 1.06105
 H1766 H 0.78370 0.68922 1.02898
 H1767 H 0.75017 0.72816 1.06769
 H1768 H 0.76734 0.71095 1.09964
 H1769 H 0.82540 0.72876 1.07767
 H1770 H 0.80830 0.74561 1.04626
 C1771 C 0.79797 0.20363 0.58128
 C1772 C 0.77528 0.21207 0.58541
 C1773 C 0.76590 0.22113 0.56810
 C1774 C 0.77999 0.22097 0.54809
 C1775 C 0.80089 0.23192 0.55502
 C1776 C 0.81027 0.22289 0.57229
 C1777 C 0.79556 0.18843 0.56224
 C1778 C 0.78615 0.19750 0.54488
 H1779 H 0.76730 0.21111 0.60070
 H1780 H 0.74993 0.22793 0.56864
 H1781 H 0.80796 0.24549 0.54697
 H1782 H 0.82521 0.22895 0.57854
 H1783 H 0.80091 0.17197 0.56236
 H1784 H 0.78349 0.18882 0.53021
 C1785 C 0.70142 0.70362 0.42000
 C1786 C 0.70266 0.68917 0.43973
 C1787 C 0.71234 0.69845 0.45684
 C1788 C 0.71992 0.72135 0.45270
 C1789 C 0.73428 0.71969 0.43296
 C1790 C 0.72463 0.71048 0.41590
 C1791 C 0.69018 0.72397 0.42790
 C1792 C 0.69981 0.73318 0.44491
 H1793 H 0.69637 0.67306 0.44021
 H1794 H 0.71432 0.69030 0.47191
 H1795 H 0.75078 0.72493 0.43253
 H1796 H 0.73287 0.70810 0.40090
 H1797 H 0.67587 0.73076 0.42097
 H1798 H 0.69355 0.74762 0.45209
 C1799 C 0.70113 0.20180 -0.08007
 C1800 C 0.70244 0.18728 -0.06041
 C1801 C 0.71213 0.19652 -0.04328
 C1802 C 0.71966 0.21945 -0.04734
 C1803 C 0.73398 0.21790 -0.06712
 C1804 C 0.72431 0.20874 -0.08420
 C1805 C 0.68987 0.22212 -0.07206
 C1806 C 0.69952 0.23128 -0.05504
 H1807 H 0.69619 0.17116 -0.05998
 H1808 H 0.71415 0.18831 -0.02825
 H1809 H 0.75045 0.22323 -0.06757
 H1810 H 0.73251 0.20647 -0.09924
 H1811 H 0.67558 0.22898 -0.07896
 H1812 H 0.69327 0.24570 -0.04781
 C1813 C 0.20451 0.70087 -0.07987
 C1814 C 0.21248 0.72366 -0.08385
 C1815 C 0.22153 0.73299 -0.06654
 C1816 C 0.22184 0.71873 -0.04669
 C1817 C 0.19844 0.71210 -0.04333
 C1818 C 0.18937 0.70277 -0.06069
 C1819 C 0.22420 0.68890 -0.07118
 C1820 C 0.23323 0.69824 -0.05389
 H1821 H 0.21125 0.73173 -0.09906
 H1822 H 0.22804 0.74902 -0.06698
 H1823 H 0.18981 0.71442 -0.02854
 H1824 H 0.17296 0.69712 -0.06073
 H1825 H 0.23055 0.67423 -0.07768
 H1826 H 0.24707 0.69143 -0.04601
 C1827 C 0.20164 0.20165 0.41980
 C1828 C 0.21023 0.22419 0.41560
 C1829 C 0.21936 0.23352 0.43289
 C1830 C 0.21910 0.21953 0.45293
 C1831 C 0.19550 0.21356 0.45614
 C1832 C 0.18636 0.20420 0.43879
 C1833 C 0.22090 0.18931 0.42887
 C1834 C 0.22999 0.19864 0.44609
 H1835 H 0.20929 0.23211 0.40030
 H1836 H 0.22623 0.24940 0.43235
 H1837 H 0.18678 0.21632 0.47080
 H1838 H 0.16981 0.19898 0.43864
 H1839 H 0.22686 0.17430 0.42281
 H1840 H 0.24350 0.19146 0.45423
 C1841 C 0.29663 0.42041 0.69941
 C1842 C 0.27589 0.42811 0.68862
 C1843 C 0.26672 0.44520 0.69824
 C1844 C 0.27900 0.45324 0.71785
 C1845 C 0.28109 0.43359 0.73225
 C1846 C 0.29024 0.41645 0.72263
 C1847 C 0.31103 0.44028 0.70015
 C1848 C 0.30180 0.45746 0.70979
 H1849 H 0.26877 0.42093 0.67467
 H1850 H 0.25203 0.45226 0.69232
 H1851 H 0.27612 0.43326 0.74873
 H1852 H 0.29287 0.40149 0.73088
 H1853 H 0.32707 0.44079 0.69357
 H1854 H 0.30993 0.47265 0.71143
 C1855 C 0.29867 0.92021 0.20303
 C1856 C 0.29617 0.93939 0.18801
 C1857 C 0.28660 0.95663 0.19717
 C1858 C 0.28040 0.95314 0.22051
 C1859 C 0.26644 0.93300 0.22045
 C1860 C 0.27598 0.91580 0.21132
 C1861 C 0.31085 0.92910 0.22235
 C1862 C 0.30132 0.94626 0.23146
 H1863 H 0.30158 0.93943 0.17163
 H1864 H 0.28384 0.97141 0.18864
 H1865 H 0.25044 0.93231 0.22713
 H1866 H 0.26813 0.90042 0.21020
 H1867 H 0.32580 0.92284 0.22841
 H1868 H 0.30827 0.95427 0.24509
 C1869 C 0.79647 0.42032 0.20081
 C1870 C 0.77701 0.42946 0.18889
 C1871 C 0.76806 0.44666 0.19849
 C1872 C 0.77928 0.45335 0.21922
 C1873 C 0.77926 0.43314 0.23298
 C1874 C 0.78825 0.41589 0.22337
 C1875 C 0.81177 0.43936 0.20327
 C1876 C 0.80277 0.45665 0.21291
 H1877 H 0.77079 0.42337 0.17403
 H1878 H 0.75436 0.45483 0.19170
 H1879 H 0.77263 0.43243 0.24892
 H1880 H 0.78931 0.40047 0.23110
 H1881 H 0.82825 0.43928 0.19783
 H1882 H 0.81152 0.47132 0.21569
 C1883 C 0.79896 0.92010 0.70437
 C1884 C 0.81088 0.92851 0.72410
 C1885 C 0.80142 0.94570 0.73331
 C1886 C 0.78086 0.95307 0.72204
 C1887 C 0.78760 0.95681 0.69888
 C1888 C 0.79707 0.93956 0.68963
 C1889 C 0.77606 0.91593 0.71214
 C1890 C 0.76661 0.93313 0.72137
 H1891 H 0.82555 0.92185 0.73040
 H1892 H 0.80813 0.95337 0.74725
 H1893 H 0.78526 0.97175 0.69052
 H1894 H 0.80280 0.93978 0.67336
 H1895 H 0.76801 0.90068 0.71067
 H1896 H 0.75049 0.93255 0.72779
 C1897 C 0.70357 0.58096 0.70198
 C1898 C 0.68829 0.56192 0.70451
 C1899 C 0.69744 0.54452 0.71383
 C1900 C 0.72106 0.54770 0.71982
 C1901 C 0.73196 0.55451 0.69903
 C1902 C 0.72287 0.57180 0.68971
 C1903 C 0.71215 0.58517 0.72445
 C1904 C 0.72129 0.56783 0.73375
 H1905 H 0.67174 0.56207 0.69931
 H1906 H 0.68871 0.52983 0.71656
 H1907 H 0.74552 0.54634 0.69197
 H1908 H 0.72891 0.57792 0.67479
 H1909 H 0.71123 0.60053 0.73233
 H1910 H 0.72820 0.56841 0.74958
 C1911 C 0.70066 0.07949 0.20329
 C1912 C 0.72401 0.08362 0.20963
 C1913 C 0.73375 0.06663 0.21891
 C1914 C 0.71932 0.04695 0.22114
 C1915 C 0.69952 0.05504 0.23324
 C1916 C 0.68978 0.07201 0.22394
 C1917 C 0.70150 0.05948 0.18919
 C1918 C 0.71126 0.04245 0.19853
 H1919 H 0.73224 0.09861 0.20699
 H1920 H 0.75030 0.06711 0.22398
 H1921 H 0.69362 0.04813 0.24792
 H1922 H 0.67571 0.07928 0.23090
 H1923 H 0.69485 0.05874 0.17328
 H1924 H 0.71295 0.02717 0.19063
 C1925 C 0.20088 0.57854 0.20239
 C1926 C 0.22424 0.58257 0.20879
 C1927 C 0.23391 0.56551 0.21803
 C1928 C 0.21940 0.54588 0.22020
 C1929 C 0.19959 0.55404 0.23225
 C1930 C 0.18993 0.57104 0.22298
 C1931 C 0.20170 0.55856 0.18824
 C1932 C 0.21139 0.54146 0.19756
 H1933 H 0.23255 0.59751 0.20608
 H1934 H 0.25051 0.56586 0.22296
 H1935 H 0.19356 0.54713 0.24687
 H1936 H 0.17585 0.57827 0.22994
 H1937 H 0.19516 0.55791 0.17228
 H1938 H 0.21314 0.52622 0.18960
 C1939 C 0.20391 0.07938 0.70133
 C1940 C 0.18893 0.06004 0.70327
 C1941 C 0.19814 0.04271 0.71262
 C1942 C 0.22153 0.04624 0.71924
 C1943 C 0.23284 0.05352 0.69879
 C1944 C 0.22367 0.07077 0.68944
 C1945 C 0.21186 0.08348 0.72406
 C1946 C 0.22106 0.06619 0.73340
 H1947 H 0.17250 0.05998 0.69769
 H1948 H 0.18960 0.02784 0.71500
 H1949 H 0.24676 0.04572 0.69202
 H1950 H 0.23001 0.07731 0.67482
 H1951 H 0.21051 0.09874 0.73207
 H1952 H 0.22756 0.06671 0.74939
 C1953 C 0.29667 0.57898 0.29929
 C1954 C 0.28999 0.58309 0.27616
 C1955 C 0.28088 0.56596 0.26647
 C1956 C 0.27911 0.54617 0.28072
 C1957 C 0.30203 0.54204 0.28848
 C1958 C 0.31122 0.55920 0.29819
 C1959 C 0.27615 0.57107 0.31023
 C1960 C 0.26701 0.55400 0.30057
 H1961 H 0.29239 0.59814 0.26801
 H1962 H 0.27572 0.56639 0.25005
 H1963 H 0.31027 0.52694 0.28658
 H1964 H 0.32734 0.55875 0.30457
 H1965 H 0.26915 0.57811 0.32433
 H1966 H 0.25245 0.54680 0.30662
 C1967 C 0.29521 0.07947 0.79985
 C1968 C 0.31041 0.06027 0.79789
 C1969 C 0.30145 0.04291 0.78836
 C1970 C 0.27808 0.04626 0.78161
 C1971 C 0.26655 0.05332 0.80205
 C1972 C 0.27548 0.07063 0.81158
 C1973 C 0.28737 0.08362 0.77710
 C1974 C 0.27843 0.06630 0.76758
 H1975 H 0.32677 0.06029 0.80364
 H1976 H 0.31014 0.02813 0.78598
 H1977 H 0.25267 0.04534 0.80866
 H1978 H 0.26903 0.07709 0.82620
 H1979 H 0.28860 0.09893 0.76919
 H1980 H 0.27203 0.06685 0.75155
 C1981 C 0.79797 0.58026 0.79799
 C1982 C 0.78958 0.58466 0.77547
 C1983 C 0.78034 0.56745 0.76600
 C1984 C 0.78027 0.54728 0.77985
 C1985 C 0.80381 0.54379 0.78596
 C1986 C 0.81307 0.56106 0.79544
 C1987 C 0.77851 0.57129 0.81008
 C1988 C 0.76933 0.55417 0.80064
 H1989 H 0.79079 0.60002 0.76763
 H1990 H 0.77365 0.56813 0.75009
 H1991 H 0.81241 0.52903 0.78314
 H1992 H 0.82961 0.56103 0.80070
 H1993 H 0.77242 0.57740 0.82498
 H1994 H 0.75566 0.54614 0.80763
 C1995 C 0.79867 0.07962 0.29886
 C1996 C 0.81327 0.05991 0.29741
 C1997 C 0.80400 0.04283 0.28760
 C1998 C 0.78099 0.04699 0.28011
 C1999 C 0.76907 0.05452 0.30014
 C2000 C 0.77825 0.07147 0.30990
 C2001 C 0.79177 0.08398 0.27585
 C2002 C 0.78257 0.06695 0.26607
 H2003 H 0.82944 0.05941 0.30366
 H2004 H 0.81223 0.02774 0.28549
 H2005 H 0.75461 0.04721 0.30628
 H2006 H 0.77133 0.07818 0.32418
 H2007 H 0.79411 0.09912 0.26785
 H2008 H 0.77726 0.06755 0.24970
 C2009 C 0.70399 0.41985 0.29835
 C2010 C 0.68865 0.43887 0.29580
 C2011 C 0.69771 0.45625 0.28637
 C2012 C 0.72130 0.45306 0.28032
 C2013 C 0.73228 0.44629 0.30114
 C2014 C 0.72327 0.42902 0.31054
 C2015 C 0.71251 0.41558 0.27585
 C2016 C 0.72154 0.43291 0.26645
 H2017 H 0.67211 0.43871 0.30105
 H2018 H 0.68893 0.47090 0.28357
 H2019 H 0.74581 0.45450 0.30818
 H2020 H 0.72933 0.42291 0.32546
 H2021 H 0.71156 0.40021 0.26801
 H2022 H 0.72831 0.43231 0.25057
 C2023 C 0.70058 0.91962 0.79635
 C2024 C 0.72357 0.91565 0.78868
 C2025 C 0.73292 0.93295 0.77956
 C2026 C 0.71851 0.95278 0.77887
 C2027 C 0.69808 0.94529 0.76748
 C2028 C 0.68871 0.92801 0.77658
 C2029 C 0.70223 0.93907 0.81115
 C2030 C 0.71161 0.95641 0.80200
 H2031 H 0.73174 0.90046 0.79016
 H2032 H 0.74908 0.93251 0.77323
 H2033 H 0.69134 0.95297 0.75355
 H2034 H 0.67407 0.92131 0.77024
 H2035 H 0.69638 0.93922 0.82738
 H2036 H 0.71377 0.97136 0.81041
 C2037 C 0.20100 0.42096 0.79685
 C2038 C 0.18975 0.42863 0.77647
 C2039 C 0.19940 0.44555 0.76707
 C2040 C 0.21953 0.45345 0.77877
 C2041 C 0.21198 0.45791 0.80155
 C2042 C 0.20229 0.44090 0.81102
 C2043 C 0.22419 0.41668 0.79002
 C2044 C 0.23386 0.43364 0.78062
 H2045 H 0.17546 0.42156 0.76976
 H2046 H 0.19320 0.45255 0.75256
 H2047 H 0.21401 0.47312 0.80950
 H2048 H 0.19602 0.44161 0.82709
 H2049 H 0.23237 0.40163 0.79251
 H2050 H 0.25034 0.43309 0.77531
 C2051 C 0.20042 0.91984 0.29543
 C2052 C 0.18829 0.92862 0.27604
 C2053 C 0.19778 0.94583 0.26694
 C2054 C 0.21861 0.95285 0.27799
 C2055 C 0.21226 0.95634 0.30129
 C2056 C 0.20275 0.93908 0.31042
 C2057 C 0.22318 0.91553 0.28725
 C2058 C 0.23267 0.93276 0.27814
 H2059 H 0.17348 0.92214 0.26987
 H2060 H 0.19092 0.95373 0.25320
 H2061 H 0.21488 0.97115 0.30982
 H2062 H 0.19724 0.93915 0.32677
 H2063 H 0.23109 0.90017 0.28837
 H2064 H 0.24868 0.93212 0.27149
 C2065 C 0.41981 0.29825 0.70139
 C2066 C 0.43978 0.31254 0.70262
 C2067 C 0.45689 0.30313 0.71235
 C2068 C 0.45248 0.28031 0.71999
 C2069 C 0.43256 0.28223 0.73418
 C2070 C 0.41550 0.29157 0.72447
 C2071 C 0.42766 0.27774 0.69040
 C2072 C 0.44463 0.26844 0.70008
 H2073 H 0.44042 0.32862 0.69634
 H2074 H 0.47213 0.31117 0.71436
 H2075 H 0.43203 0.27707 0.75059
 H2076 H 0.40039 0.29417 0.73257
 H2077 H 0.42074 0.27082 0.67624
 H2078 H 0.45172 0.25389 0.69397
 C2079 C 0.41982 0.79845 0.20288
 C2080 C 0.41562 0.77565 0.21065
 C2081 C 0.43290 0.76621 0.21984
 C2082 C 0.45293 0.78039 0.22047
 C2083 C 0.45665 0.78711 0.19730
 C2084 C 0.43932 0.79655 0.18809
 C2085 C 0.42835 0.81030 0.22260
 C2086 C 0.44560 0.80086 0.23176
 H2087 H 0.40030 0.76764 0.20920
 H2088 H 0.43233 0.75016 0.22623
 H2089 H 0.47164 0.78478 0.18892
 H2090 H 0.43951 0.80227 0.17183
 H2091 H 0.42176 0.82494 0.22894
 H2092 H 0.45335 0.80757 0.24567
 C2093 C 0.91968 0.29986 0.20309
 C2094 C 0.91537 0.27679 0.20995
 C2095 C 0.93239 0.26713 0.21932
 C2096 C 0.95231 0.28135 0.22113
 C2097 C 0.95674 0.28887 0.19833
 C2098 C 0.93966 0.29855 0.18889
 C2099 C 0.92745 0.31106 0.22347
 C2100 C 0.94447 0.30139 0.23287
 H2101 H 0.90022 0.26868 0.20755
 H2102 H 0.93179 0.25076 0.22474
 H2103 H 0.97202 0.28690 0.19037
 H2104 H 0.94037 0.30484 0.17285
 H2105 H 0.92038 0.32532 0.23017
 H2106 H 0.95159 0.30753 0.24735
 C2107 C 0.92057 0.79866 0.70227
 C2108 C 0.91642 0.77550 0.70894
 C2109 C 0.93353 0.76586 0.71825
 C2110 C 0.95335 0.78020 0.72017
 C2111 C 0.95773 0.78789 0.69741
 C2112 C 0.94057 0.79755 0.68804
 C2113 C 0.92831 0.80974 0.72271
 C2114 C 0.94535 0.80013 0.73201
 H2115 H 0.90136 0.76728 0.70636
 H2116 H 0.93309 0.74940 0.72338
 H2117 H 0.97298 0.78598 0.68940
 H2118 H 0.94119 0.80389 0.67201
 H2119 H 0.92126 0.82394 0.72954
 H2120 H 0.95242 0.80629 0.74651
 C2121 C 0.58097 0.29890 0.29550
 C2122 C 0.58505 0.27617 0.28741
 C2123 C 0.56765 0.26688 0.27831
 C2124 C 0.54762 0.28109 0.27808
 C2125 C 0.54419 0.28755 0.30137
 C2126 C 0.56164 0.29687 0.31048
 C2127 C 0.57224 0.31099 0.27602
 C2128 C 0.55485 0.30168 0.26695
 H2129 H 0.60038 0.26812 0.28859
 H2130 H 0.56815 0.25090 0.27171
 H2131 H 0.52930 0.28515 0.30991
 H2132 H 0.56163 0.30241 0.32681
 H2133 H 0.57885 0.32567 0.26980
 H2134 H 0.54696 0.30852 0.25319
 C2135 C 0.57970 0.79630 0.79919
 C2136 C 0.56037 0.81132 0.79697
 C2137 C 0.54301 0.80214 0.78756
 C2138 C 0.54656 0.77877 0.78120
 C2139 C 0.56669 0.77901 0.76718
 C2140 C 0.58399 0.78816 0.77658
 C2141 C 0.57089 0.77678 0.81121
 C2142 C 0.55362 0.76765 0.80180
 H2143 H 0.56032 0.82772 0.80243
 H2144 H 0.52813 0.81067 0.78500
 H2145 H 0.56730 0.77242 0.75124
 H2146 H 0.59938 0.78938 0.76867
 H2147 H 0.57733 0.77055 0.82592
 H2148 H 0.54568 0.75389 0.80862
 C2149 C 0.07972 0.29936 0.79812
 C2150 C 0.08372 0.27603 0.79196
 C2151 C 0.06660 0.26639 0.78271
 C2152 C 0.04694 0.28090 0.78031
 C2153 C 0.04244 0.28914 0.80285
 C2154 C 0.05960 0.29879 0.81217
 C2155 C 0.07229 0.31008 0.77735
 C2156 C 0.05521 0.30045 0.76810
 H2157 H 0.09871 0.26774 0.79474
 H2158 H 0.06697 0.24985 0.77778
 H2159 H 0.02708 0.28759 0.81074
 H2160 H 0.05888 0.30548 0.82806
 H2161 H 0.07968 0.32394 0.77021
 H2162 H 0.04837 0.30627 0.75336
 C2163 C 0.07990 0.79626 0.30021
 C2164 C 0.07220 0.77567 0.31111
 C2165 C 0.05516 0.76639 0.30141
 C2166 C 0.04723 0.77844 0.28163
 C2167 C 0.04280 0.80118 0.28947
 C2168 C 0.05990 0.81052 0.29919
 C2169 C 0.08415 0.78972 0.27708
 C2170 C 0.06709 0.78045 0.26739
 H2171 H 0.07934 0.76875 0.32519
 H2172 H 0.04808 0.75178 0.30736
 H2173 H 0.02752 0.80920 0.28765
 H2174 H 0.05923 0.82653 0.30567
 H2175 H 0.09925 0.79228 0.26897
 H2176 H 0.06762 0.77529 0.25097
 C2177 C 0.58095 0.70450 0.70140
 C2178 C 0.56169 0.68938 0.70340
 C2179 C 0.54421 0.69838 0.71283
 C2180 C 0.54751 0.72171 0.71945
 C2181 C 0.56760 0.72143 0.73354
 C2182 C 0.58503 0.71245 0.72412
 C2183 C 0.57204 0.72409 0.68956
 C2184 C 0.55464 0.73304 0.69898
 H2185 H 0.56177 0.67302 0.69781
 H2186 H 0.52939 0.68970 0.71525
 H2187 H 0.56810 0.72789 0.74954
 H2188 H 0.60038 0.71124 0.73210
 H2189 H 0.57849 0.73046 0.67491
 H2190 H 0.54663 0.74681 0.69224
 C2191 C 0.58047 0.20230 0.20236
 C2192 C 0.57181 0.19026 0.22188
 C2193 C 0.55459 0.19965 0.23109
 C2194 C 0.54735 0.22030 0.22007
 C2195 C 0.56744 0.23441 0.21969
 C2196 C 0.58473 0.22501 0.21043
 C2197 C 0.56103 0.20449 0.18752
 C2198 C 0.54369 0.21390 0.19679
 H2199 H 0.57829 0.17553 0.22810
 H2200 H 0.54682 0.19277 0.24489
 H2201 H 0.56805 0.25039 0.22626
 H2202 H 0.60008 0.23297 0.20910
 H2203 H 0.56088 0.19901 0.17117
 H2204 H 0.52875 0.21645 0.18838
 C2205 C 0.07989 0.70059 0.20247
 C2206 C 0.07219 0.68941 0.22290
 C2207 C 0.05519 0.69903 0.23234
 C2208 C 0.04723 0.71902 0.22063
 C2209 C 0.06710 0.73331 0.21871
 C2210 C 0.08413 0.72369 0.20927
 C2211 C 0.05984 0.70182 0.18834
 C2212 C 0.04275 0.71146 0.19785
 H2213 H 0.07925 0.67517 0.22961
 H2214 H 0.04813 0.69285 0.24683
 H2215 H 0.06763 0.74972 0.22401
 H2216 H 0.09922 0.73187 0.20672
 H2217 H 0.05911 0.69554 0.17229
 H2218 H 0.02745 0.71340 0.18993
 C2219 C 0.07965 0.20115 0.70301
 C2220 C 0.05973 0.18682 0.70451
 C2221 C 0.04261 0.19629 0.71418
 C2222 C 0.04694 0.21925 0.72151
 C2223 C 0.06694 0.21760 0.73563
 C2224 C 0.08400 0.20818 0.72598
 C2225 C 0.07165 0.22147 0.69179
 C2226 C 0.05468 0.23085 0.70141
 H2227 H 0.05912 0.17066 0.69842
 H2228 H 0.02741 0.18824 0.71633
 H2229 H 0.06754 0.22305 0.75195
 H2230 H 0.09916 0.20578 0.73405
 H2231 H 0.07844 0.22818 0.67746
 H2232 H 0.04748 0.24526 0.69510
 C2233 C 0.41991 0.69939 0.29405
 C2234 C 0.42840 0.68771 0.27423
 C2235 C 0.44567 0.69726 0.26515
 C2236 C 0.45297 0.71764 0.27665
 C2237 C 0.43292 0.73180 0.27739
 C2238 C 0.41567 0.72227 0.28648
 C2239 C 0.43941 0.70118 0.30884
 C2240 C 0.45671 0.71072 0.29974
 H2241 H 0.42166 0.67318 0.26779
 H2242 H 0.45341 0.69074 0.25115
 H2243 H 0.43231 0.74791 0.27113
 H2244 H 0.40032 0.73025 0.28797
 H2245 H 0.43962 0.69532 0.32506
 H2246 H 0.47169 0.71299 0.30816
 C2247 C 0.41958 0.19954 0.79588
 C2248 C 0.41535 0.22279 0.78951
 C2249 C 0.43244 0.23260 0.78041
 C2250 C 0.45231 0.21836 0.77837
 C2251 C 0.45666 0.21035 0.80100
 C2252 C 0.43954 0.20051 0.81017
 C2253 C 0.42734 0.18874 0.77534
 C2254 C 0.44441 0.19855 0.76621
 H2255 H 0.40021 0.23090 0.79202
 H2256 H 0.43190 0.24909 0.77533
 H2257 H 0.47190 0.21216 0.80907
 H2258 H 0.44017 0.19392 0.82610
 H2259 H 0.42022 0.17463 0.76838
 H2260 H 0.45155 0.19264 0.75164
 C2261 C 0.92059 0.70316 0.79970
 C2262 C 0.92832 0.72375 0.81063
 C2263 C 0.94539 0.73301 0.80099
 C2264 C 0.95337 0.72097 0.78122
 C2265 C 0.95773 0.69820 0.78905
 C2266 C 0.94057 0.68888 0.79870
 C2267 C 0.91643 0.70973 0.77657
 C2268 C 0.93354 0.71898 0.76693
 H2269 H 0.92114 0.73075 0.82465
 H2270 H 0.95245 0.74762 0.80698
 H2271 H 0.97299 0.69015 0.78723
 H2272 H 0.94118 0.67284 0.80512
 H2273 H 0.90135 0.70718 0.76840
 H2274 H 0.93308 0.72412 0.75051
 C2275 C 0.92001 0.20334 0.30018
 C2276 C 0.92784 0.22390 0.31107
 C2277 C 0.94482 0.23317 0.30128
 C2278 C 0.95259 0.22115 0.28141
 C2279 C 0.95703 0.19838 0.28916
 C2280 C 0.93997 0.18905 0.29898
 C2281 C 0.91562 0.20993 0.27710
 C2282 C 0.93262 0.21919 0.26731
 H2283 H 0.92086 0.23082 0.32523
 H2284 H 0.95198 0.24775 0.30723
 H2285 H 0.97230 0.19035 0.28725
 H2286 H 0.94066 0.17303 0.30543
 H2287 H 0.90047 0.20738 0.26907
 H2288 H 0.93200 0.22435 0.25090
 C2289 C 0.29775 0.29600 0.57974
 C2290 C 0.27506 0.28772 0.58413
 C2291 C 0.26552 0.27857 0.56697
 C2292 C 0.27948 0.27849 0.54687
 C2293 C 0.28571 0.30189 0.54341
 C2294 C 0.29527 0.31106 0.56061
 C2295 C 0.30992 0.27660 0.57084
 C2296 C 0.30038 0.26748 0.55373
 H2297 H 0.26721 0.28884 0.59947
 H2298 H 0.24952 0.27187 0.56767
 H2299 H 0.28296 0.31046 0.52868
 H2300 H 0.30069 0.32749 0.56056
 H2301 H 0.32486 0.27050 0.57707
 H2302 H 0.30732 0.25380 0.54574
 C2303 C 0.29601 0.79877 0.08053
 C2304 C 0.27628 0.81067 0.07185
 C2305 C 0.26724 0.80126 0.05460
 C2306 C 0.27865 0.78078 0.04743
 C2307 C 0.30204 0.78745 0.04401
 C2308 C 0.31112 0.79685 0.06134
 C2309 C 0.28809 0.77597 0.08459
 C2310 C 0.27903 0.76658 0.06732
 H2311 H 0.26989 0.82534 0.07831
 H2312 H 0.25337 0.80803 0.04671
 H2313 H 0.31065 0.78511 0.02922
 H2314 H 0.32752 0.80253 0.06134
 H2315 H 0.28938 0.76794 0.09981
 H2316 H 0.27257 0.75053 0.06780
 C2317 C 0.79703 0.29760 0.07968
 C2318 C 0.77740 0.30953 0.07084
 C2319 C 0.76833 0.30003 0.05369
 C2320 C 0.77958 0.27939 0.04668
 C2321 C 0.80302 0.28588 0.04323
 C2322 C 0.81215 0.29540 0.06050
 C2323 C 0.78897 0.27488 0.08391
 C2324 C 0.77986 0.26537 0.06669
 H2325 H 0.77112 0.32435 0.07706
 H2326 H 0.75454 0.30689 0.04575
 H2327 H 0.81163 0.28333 0.02848
 H2328 H 0.82859 0.30097 0.06048
 H2329 H 0.79023 0.26697 0.09920
 H2330 H 0.77333 0.24935 0.06730
 C2331 C 0.79687 0.79956 0.57995
 C2332 C 0.81202 0.79753 0.56078
 C2333 C 0.80296 0.78809 0.54343
 C2334 C 0.77954 0.78151 0.54680
 C2335 C 0.77983 0.76735 0.56672
 C2336 C 0.78888 0.77677 0.58401
 C2337 C 0.77722 0.81149 0.57119
 C2338 C 0.76820 0.80208 0.55395
 H2339 H 0.82845 0.80312 0.56082
 H2340 H 0.81162 0.78562 0.52870
 H2341 H 0.77338 0.75130 0.56720
 H2342 H 0.79014 0.76876 0.59924
 H2343 H 0.77089 0.82621 0.57760
 H2344 H 0.75438 0.80891 0.54605
 C2345 C 0.30095 0.70369 0.41941
 C2346 C 0.27755 0.71003 0.41552
 C2347 C 0.26795 0.71929 0.43256
 C2348 C 0.28254 0.72153 0.45207
 C2349 C 0.29068 0.69886 0.45644
 C2350 C 0.30031 0.68953 0.43935
 C2351 C 0.31187 0.72440 0.42684
 C2352 C 0.30225 0.73370 0.44387
 H2353 H 0.26918 0.70733 0.40065
 H2354 H 0.25135 0.72425 0.43226
 H2355 H 0.28913 0.69090 0.47166
 H2356 H 0.30698 0.67357 0.43999
 H2357 H 0.32590 0.73137 0.41954
 H2358 H 0.30821 0.74838 0.45078
 C2359 C 0.30033 0.20370 0.92046
 C2360 C 0.27710 0.21051 0.91644
 C2361 C 0.26757 0.21986 0.93347
 C2362 C 0.28207 0.22171 0.95309
 C2363 C 0.28974 0.19887 0.95739
 C2364 C 0.29929 0.18944 0.94032
 C2365 C 0.31161 0.22415 0.92807
 C2366 C 0.30207 0.23354 0.94508
 H2367 H 0.26877 0.20804 0.90151
 H2368 H 0.25108 0.22514 0.93309
 H2369 H 0.28792 0.19086 0.97256
 H2370 H 0.30564 0.17335 0.94092
 H2371 H 0.32581 0.23091 0.92089
 H2372 H 0.30826 0.24808 0.95210
 C2373 C 0.79719 0.70107 0.92076
 C2374 C 0.81165 0.70217 0.94053
 C2375 C 0.80237 0.71193 0.95760
 C2376 C 0.77947 0.71971 0.95337
 C2377 C 0.78132 0.73397 0.93363
 C2378 C 0.79053 0.72425 0.91661
 C2379 C 0.77663 0.69009 0.92859
 C2380 C 0.76741 0.69980 0.94555
 H2381 H 0.82777 0.69576 0.94107
 H2382 H 0.81053 0.71384 0.97269
 H2383 H 0.77617 0.75044 0.93316
 H2384 H 0.79302 0.73240 0.90160
 H2385 H 0.76969 0.67590 0.92164
 H2386 H 0.75283 0.69372 0.95269
 C2387 C 0.79613 0.20126 0.42072
 C2388 C 0.77674 0.18911 0.42972
 C2389 C 0.76769 0.19857 0.44693
 C2390 C 0.77877 0.21938 0.45375
 C2391 C 0.80230 0.21319 0.45703
 C2392 C 0.81138 0.20370 0.43974
 C2393 C 0.78774 0.22386 0.41644
 C2394 C 0.77867 0.23332 0.43368
 H2395 H 0.77057 0.17426 0.42347
 H2396 H 0.75401 0.19165 0.45498
 H2397 H 0.81102 0.21592 0.47169
 H2398 H 0.82789 0.19833 0.43965
 H2399 H 0.78874 0.23171 0.40110
 H2400 H 0.77191 0.24925 0.43307
 C2401 C 0.70282 0.29764 0.41999
 C2402 C 0.72218 0.30987 0.42902
 C2403 C 0.73120 0.30056 0.44629
 C2404 C 0.72019 0.27979 0.45325
 C2405 C 0.69662 0.28596 0.45641
 C2406 C 0.68753 0.29529 0.43901
 C2407 C 0.71126 0.27501 0.41592
 C2408 C 0.72034 0.26570 0.43326
 H2409 H 0.72830 0.32475 0.42283
 H2410 H 0.74481 0.30763 0.45435
 H2411 H 0.68788 0.28332 0.47107
 H2412 H 0.67101 0.30062 0.43884
 H2413 H 0.71024 0.26701 0.40066
 H2414 H 0.72707 0.24976 0.43279
 C2415 C 0.70137 0.79806 0.92058
 C2416 C 0.69037 0.77739 0.92806
 C2417 C 0.69986 0.76812 0.94510
 C2418 C 0.71957 0.78021 0.95334
 C2419 C 0.73425 0.78234 0.93387
 C2420 C 0.72475 0.79162 0.91677
 C2421 C 0.70201 0.81228 0.94048
 C2422 C 0.71152 0.80293 0.95764
 H2423 H 0.67638 0.77031 0.92079
 H2424 H 0.69379 0.75347 0.95197
 H2425 H 0.75084 0.77738 0.93367
 H2426 H 0.73319 0.79431 0.90194
 H2427 H 0.69547 0.82830 0.94105
 H2428 H 0.71311 0.81093 0.97285
 C2429 C 0.20362 0.30034 0.92049
 C2430 C 0.22428 0.31131 0.92814
 C2431 C 0.23365 0.30164 0.94507
 C2432 C 0.22163 0.28180 0.95302
 C2433 C 0.19876 0.28963 0.95740
 C2434 C 0.18933 0.29932 0.94039
 C2435 C 0.21022 0.27715 0.91635
 C2436 C 0.21958 0.26748 0.93331
 H2437 H 0.23121 0.32544 0.92105
 H2438 H 0.24833 0.30765 0.95205
 H2439 H 0.19072 0.28778 0.97257
 H2440 H 0.17322 0.30575 0.94106
 H2441 H 0.20759 0.26895 0.90139
 H2442 H 0.22469 0.25100 0.93283
 C2443 C 0.20425 0.80020 0.41988
 C2444 C 0.21110 0.77711 0.41554
 C2445 C 0.22030 0.76732 0.43250
 C2446 C 0.22194 0.78145 0.45236
 C2447 C 0.23390 0.80151 0.44478
 C2448 C 0.22468 0.81130 0.42786
 C2449 C 0.18971 0.79885 0.43957
 C2450 C 0.19898 0.78902 0.45657
 H2451 H 0.20875 0.76906 0.40045
 H2452 H 0.22560 0.75090 0.43191
 H2453 H 0.24839 0.80764 0.45206
 H2454 H 0.23147 0.82562 0.42104
 H2455 H 0.17355 0.80516 0.44011
 H2456 H 0.19078 0.78694 0.47163
 C2457 C 0.70469 0.70186 0.57971
 C2458 C 0.68952 0.70409 0.56059
 C2459 C 0.69864 0.71351 0.54329
 C2460 C 0.72212 0.71989 0.54664
 C2461 C 0.72200 0.73394 0.56665
 C2462 C 0.71289 0.72453 0.58389
 C2463 C 0.72423 0.68979 0.57084
 C2464 C 0.73332 0.69921 0.55361
 H2465 H 0.67308 0.69855 0.56059
 H2466 H 0.69001 0.71601 0.52854
 H2467 H 0.72868 0.74990 0.56725
 H2468 H 0.71179 0.73246 0.59919
 H2469 H 0.73044 0.67498 0.57717
 H2470 H 0.74709 0.69236 0.54562
 C2471 C 0.70431 0.20035 0.07995
 C2472 C 0.71259 0.22301 0.08405
 C2473 C 0.72168 0.23234 0.06675
 C2474 C 0.72172 0.21822 0.04679
 C2475 C 0.73287 0.19753 0.05380
 C2476 C 0.72381 0.18820 0.07109
 C2477 C 0.68911 0.20257 0.06086
 C2478 C 0.69821 0.21190 0.04351
 H2479 H 0.71152 0.23101 0.09931
 H2480 H 0.72837 0.24829 0.06726
 H2481 H 0.74662 0.19063 0.04583
 H2482 H 0.73004 0.17344 0.07750
 H2483 H 0.67263 0.19713 0.06095
 H2484 H 0.68953 0.21443 0.02880
 C2485 C 0.20405 0.70044 0.08029
 C2486 C 0.18910 0.70244 0.06098
 C2487 C 0.19831 0.71193 0.04378
 C2488 C 0.22166 0.71861 0.04740
 C2489 C 0.22111 0.73271 0.06736
 C2490 C 0.21192 0.72323 0.08453
 C2491 C 0.22387 0.68861 0.07169
 C2492 C 0.23304 0.69810 0.05456
 H2493 H 0.17270 0.69676 0.06083
 H2494 H 0.18980 0.71435 0.02894
 H2495 H 0.22759 0.74875 0.06799
 H2496 H 0.21053 0.73117 0.09979
 H2497 H 0.23027 0.67396 0.07818
 H2498 H 0.24702 0.69144 0.04679
 C2499 C 0.20081 0.20266 0.58033
 C2500 C 0.22352 0.21103 0.58443
 C2501 C 0.23284 0.22016 0.56714
 C2502 C 0.21866 0.22013 0.54719
 C2503 C 0.21247 0.19669 0.54387
 C2504 C 0.20313 0.18755 0.56121
 C2505 C 0.18849 0.22200 0.57150
 C2506 C 0.19780 0.23109 0.55426
 H2507 H 0.23156 0.20996 0.59968
 H2508 H 0.24883 0.22690 0.56764
 H2509 H 0.21511 0.18807 0.52915
 H2510 H 0.19778 0.17110 0.56128
 H2511 H 0.17360 0.22808 0.57787
 H2512 H 0.19074 0.24474 0.54633
   
