data_POSCAR
  _audit_creation_date              2014-09-24
  _audit_creation_method            'ToBaCCo'
  _symmetry_space_group_name_H-M    'P1'
  _symmetry_Int_Tables_number       1
  _symmetry_cell_setting            triclinic
  loop_
  _symmetry_equiv_pos_as_xyz
 x,y,z
_cell_length_a 55.8331
_cell_length_b 47.0335
_cell_length_c 40.7816
_cell_angle_alpha 90.929200
_cell_angle_beta 89.779400
_cell_angle_gamma 89.515700
loop_
  _atom_site_label
  _atom_site_type_symbol
  _atom_site_fract_x
  _atom_site_fract_y
  _atom_site_fract_z
C1 C 1.21238 0.26095 0.29291
 H2 H 1.21104 0.23812 0.29509
 C3 C 1.19624 0.27872 0.30973
 H4 H 1.18257 0.26942 0.32500
 C5 C 1.23198 0.30071 0.27047
 H6 H 1.24602 0.30920 0.25531
 C7 C 1.21629 0.31933 0.28712
 H8 H 1.21814 0.34204 0.28411
 N9 N 1.22939 0.27207 0.27305
 C10 C 1.24196 0.20221 0.20299
 H11 H 1.26121 0.19983 0.20457
 C12 C 1.22877 0.18331 0.18357
 H13 H 1.23797 0.16625 0.17043
 C14 C 1.20653 0.22679 0.21921
 H15 H 1.19791 0.24392 0.23279
 C16 C 1.19267 0.20844 0.20012
 H17 H 1.17346 0.21169 0.19929
 Zn18 Zn 1.24922 0.24560 0.24990
 N19 N 1.23063 0.22284 0.22113
 C20 C 1.26056 0.19402 0.28207
 N21 N 1.26418 0.22251 0.28152
 C22 C 1.27837 0.23547 0.30402
 C23 C 1.29097 0.21950 0.32685
 C24 C 1.27267 0.17714 0.30456
 C25 C 1.26488 0.28230 0.20087
 C26 C 1.28136 0.29721 0.18205
 C27 C 1.31345 0.27352 0.21065
 C28 C 1.29635 0.25920 0.22905
 N29 N 1.27258 0.26428 0.22441
 H30 H 1.24858 0.18413 0.26469
 H31 H 1.28020 0.25836 0.30386
 H32 H 1.30148 0.23122 0.34456
 H33 H 1.27013 0.15448 0.30215
 H34 H 1.24587 0.28543 0.19711
 H35 H 1.27490 0.31181 0.16376
 H36 H 1.33228 0.26984 0.21540
 H37 H 1.30217 0.24413 0.24711
 C38 C 1.20371 0.18593 0.18260
 C39 C 1.19786 0.30832 0.30657
 C40 C 1.30602 0.29316 0.18715
 C41 C 1.28899 0.18945 0.32715
 C42 C 0.71992 -0.23434 0.29217
 H43 H 0.71972 -0.25720 0.29461
 C44 C 0.70392 -0.21743 0.31032
 H45 H 0.69161 -0.22740 0.32710
 C46 C 0.73584 -0.19370 0.26656
 H47 H 0.74815 -0.18458 0.24925
 C48 C 0.72018 -0.17594 0.28438
 H49 H 0.72037 -0.15325 0.28027
 N50 N 0.73482 -0.22240 0.26994
 C51 C 0.73804 -0.29028 0.19615
 H52 H 0.75694 -0.29552 0.19506
 C53 C 0.72175 -0.30587 0.17724
 H54 H 0.72819 -0.32325 0.16178
 C55 C 0.70666 -0.26098 0.21714
 H56 H 0.70077 -0.24319 0.23222
 C57 C 0.68986 -0.27574 0.19844
 H58 H 0.67115 -0.26963 0.20019
 Zn59 Zn 0.75227 -0.24795 0.24247
 N60 N 0.73020 -0.26880 0.21631
 C61 C 0.76907 -0.30077 0.26933
 N62 N 0.77061 -0.27189 0.27019
 C63 C 0.78561 -0.25844 0.29142
 C64 C 0.80080 -0.27405 0.31155
 C65 C 0.78397 -0.31727 0.28915
 C66 C 0.76264 -0.21011 0.19165
 C67 C 0.77706 -0.19469 0.17032
 C68 C 0.81189 -0.21681 0.19428
 C69 C 0.79683 -0.23177 0.21510
 N70 N 0.77270 -0.22789 0.21380
 H71 H 0.75658 -0.31114 0.25301
 H72 H 0.78613 -0.23545 0.29214
 H73 H 0.81283 -0.26284 0.32791
 H74 H 0.78310 -0.34023 0.28731
 H75 H 0.74336 -0.20780 0.19070
 H76 H 0.76873 -0.18067 0.15285
 H77 H 0.83108 -0.21976 0.19634
 H78 H 0.80454 -0.24644 0.23227
 C79 C 0.69726 -0.29875 0.17850
 C80 C 0.70346 -0.18791 0.30582
 C81 C 0.80208 -0.19788 0.17156
 C82 C 0.80046 -0.30390 0.31015
 C83 C 0.71212 0.25271 -0.20519
 H84 H 0.71379 0.22982 -0.20732
 C85 C 0.69545 0.26483 -0.18343
 H86 H 0.68447 0.25115 -0.16860
 C87 C 0.72474 0.29829 -0.22175
 H88 H 0.73626 0.31124 -0.23660
 C89 C 0.70843 0.31132 -0.20008
 H90 H 0.70733 0.33431 -0.19880
 N91 N 0.72603 0.26946 -0.22423
 C92 C 0.74100 0.21165 -0.30651
 H93 H 0.76037 0.21162 -0.30740
 C94 C 0.72819 0.19266 -0.32636
 H95 H 0.73782 0.17795 -0.34240
 C96 C 0.70496 0.22991 -0.28330
 H97 H 0.69589 0.24456 -0.26672
 C98 C 0.69149 0.21144 -0.30268
 H99 H 0.67215 0.21209 -0.30073
 Zn100 Zn 0.74720 0.25042 -0.25375
 N101 N 0.72929 0.22887 -0.28451
 C102 C 0.76506 0.19701 -0.23211
 N103 N 0.76633 0.22574 -0.22806
 C104 C 0.78031 0.23756 -0.20434
 C105 C 0.79457 0.22039 -0.18458
 C106 C 0.77892 0.17905 -0.21280
 C107 C 0.75568 0.29569 -0.29683
 C108 C 0.76930 0.31484 -0.31489
 C109 C 0.80504 0.29353 -0.29273
 C110 C 0.79070 0.27494 -0.27515
 N111 N 0.76648 0.27644 -0.27719
 H112 H 0.75319 0.18784 -0.25013
 H113 H 0.78049 0.26042 -0.20096
 H114 H 0.80571 0.23020 -0.16599
 H115 H 0.77807 0.15628 -0.21695
 H116 H 0.73635 0.29602 -0.29871
 H117 H 0.75955 0.32878 -0.33093
 H118 H 0.82405 0.29199 -0.28839
 H119 H 0.79909 0.25926 -0.25983
 C120 C 0.70313 0.19181 -0.32372
 C121 C 0.69338 0.29451 -0.18078
 C122 C 0.79469 0.31423 -0.31347
 C123 C 0.79412 0.19070 -0.18888
 C124 C 1.22692 -0.24161 -0.20057
 H125 H 1.22797 -0.26431 -0.19686
 C126 C 1.21062 -0.22506 -0.18240
 H127 H 1.19926 -0.23514 -0.16450
 C128 C 1.24033 -0.20100 -0.22871
 H129 H 1.25191 -0.19168 -0.24678
 C130 C 1.22439 -0.18360 -0.21090
 H131 H 1.22358 -0.16107 -0.21590
 N132 N 1.24078 -0.22957 -0.22396
 C133 C 1.25097 -0.29842 -0.29634
 H134 H 1.27028 -0.29914 -0.29874
 C135 C 1.23692 -0.31735 -0.31464
 H136 H 1.24560 -0.33286 -0.33070
 C137 C 1.21629 -0.27739 -0.27237
 H138 H 1.20817 -0.26142 -0.25653
 C139 C 1.20162 -0.29578 -0.29020
 H140 H 1.18237 -0.29366 -0.28767
 Zn141 Zn 1.26020 -0.25429 -0.25014
 N142 N 1.24054 -0.27937 -0.27512
 C143 C 1.28234 -0.30346 -0.22321
 N144 N 1.28067 -0.27463 -0.22158
 C145 C 1.29408 -0.25929 -0.19996
 C146 C 1.31066 -0.27286 -0.17979
 C147 C 1.29879 -0.31786 -0.20369
 C148 C 1.26774 -0.21762 -0.30316
 C149 C 1.28117 -0.20198 -0.32545
 C150 C 1.31725 -0.21993 -0.30030
 C151 C 1.30318 -0.23506 -0.27848
 N152 N 1.27889 -0.23339 -0.27996
 H153 H 1.27130 -0.31539 -0.24005
 H154 H 1.29220 -0.23638 -0.19889
 H155 H 1.32121 -0.26021 -0.16288
 H156 H 1.30043 -0.34072 -0.20645
 H157 H 1.24838 -0.21709 -0.30420
 H158 H 1.27206 -0.18948 -0.34372
 H159 H 1.33656 -0.22113 -0.29822
 H160 H 1.31177 -0.24818 -0.26045
 C161 C 1.21187 -0.31639 -0.31137
 C162 C 1.20887 -0.19574 -0.18797
 C163 C 1.30629 -0.20305 -0.32412
 C164 C 1.31343 -0.30255 -0.18178
 C165 C 0.25495 0.21351 0.70197
 H166 H 0.23560 0.21366 0.70360
 C167 C 0.26658 0.19551 0.67925
 H168 H 0.25605 0.18200 0.66323
 C169 C 0.29216 0.23110 0.72078
 H170 H 0.30217 0.24512 0.73668
 C171 C 0.30447 0.21350 0.69859
 H172 H 0.32385 0.21376 0.69855
 N173 N 0.26787 0.23030 0.72272
 C174 C 0.22203 0.24207 0.80866
 H175 H 0.22285 0.26492 0.81181
 C176 C 0.20758 0.22618 0.82935
 H177 H 0.19808 0.23739 0.84883
 C178 C 0.23464 0.20041 0.78009
 H179 H 0.24524 0.19039 0.76089
 C180 C 0.22061 0.18360 0.80038
 H181 H 0.22024 0.16101 0.79512
 Zn182 Zn 0.25176 0.25271 0.75508
 N183 N 0.23453 0.22916 0.78392
 C184 C 0.20641 0.27566 0.73841
 N185 N 0.23041 0.27780 0.73329
 C186 C 0.23935 0.29704 0.71199
 C187 C 0.22403 0.31606 0.69615
 C188 C 0.19049 0.29406 0.72296
 C189 C 0.29011 0.25727 0.79862
 C190 C 0.30897 0.27036 0.81524
 C191 C 0.29438 0.31578 0.79658
 C192 C 0.27583 0.30180 0.78026
 N193 N 0.27451 0.27295 0.78063
 H194 H 0.19946 0.25952 0.75427
 H195 H 0.25846 0.29789 0.70768
 H196 H 0.23159 0.33178 0.68010
 H197 H 0.17147 0.29173 0.72728
 H198 H 0.28846 0.23436 0.79885
 H199 H 0.32186 0.25733 0.82804
 H200 H 0.29539 0.33872 0.79549
 H201 H 0.26284 0.31403 0.76680
 C202 C 0.20608 0.19637 0.82504
 C203 C 0.29172 0.19512 0.67765
 C204 C 0.31163 0.29996 0.81366
 C205 C 0.19921 0.31493 0.70185
 C206 C 0.74994 0.70579 0.71466
 H207 H 0.73062 0.70541 0.71281
 C208 C 0.76384 0.68632 0.69638
 H209 H 0.75503 0.67115 0.68035
 C210 C 0.78481 0.72696 0.73671
 H211 H 0.79302 0.74313 0.75188
 C212 C 0.79935 0.70786 0.71905
 H213 H 0.81859 0.70921 0.72169
 N214 N 0.76056 0.72552 0.73445
 C215 C 0.70576 0.75150 0.80604
 H216 H 0.70657 0.77433 0.80344
 C217 C 0.68906 0.73974 0.82733
 H218 H 0.67781 0.75414 0.84159
 C219 C 0.72045 0.70581 0.79094
 H220 H 0.73257 0.69265 0.77647
 C221 C 0.70424 0.69310 0.81221
 H222 H 0.70398 0.67013 0.81254
 Zn223 Zn 0.74062 0.75240 0.75702
 N224 N 0.72054 0.73448 0.78772
 C225 C 0.69730 0.76759 0.72629
 N226 N 0.72149 0.77055 0.72525
 C227 C 0.73223 0.78579 0.70133
 C228 C 0.71839 0.79998 0.67813
 C229 C 0.68284 0.78127 0.70361
 C230 C 0.77366 0.76948 0.80465
 C231 C 0.78826 0.78811 0.82233
 C232 C 0.77157 0.82711 0.79182
 C233 C 0.75745 0.80768 0.77447
 N234 N 0.75914 0.77938 0.78062
 H235 H 0.68906 0.75465 0.74472
 H236 H 0.75155 0.78726 0.70061
 H237 H 0.72717 0.81232 0.65947
 H238 H 0.66358 0.77929 0.70555
 H239 H 0.77419 0.74697 0.80965
 H240 H 0.80004 0.77979 0.84097
 H241 H 0.77050 0.84947 0.78602
 H242 H 0.74524 0.81531 0.75607
 C243 C 0.68771 0.70997 0.83054
 C244 C 0.78895 0.68727 0.69831
 C245 C 0.78752 0.81729 0.81570
 C246 C 0.69332 0.79794 0.67930
 C247 C 0.75584 0.20581 0.20286
 H248 H 0.73656 0.20433 0.20468
 C249 C 0.76845 0.18710 0.18203
 H250 H 0.75865 0.17175 0.16739
 C251 C 0.79194 0.22743 0.22001
 H252 H 0.80112 0.24283 0.23523
 C253 C 0.80524 0.20911 0.19961
 H254 H 0.82458 0.21063 0.19958
 N255 N 0.76766 0.22561 0.22122
 C256 C 0.71853 0.24188 0.30316
 H257 H 0.71813 0.26477 0.30455
 C258 C 0.70335 0.22654 0.32335
 H259 H 0.69134 0.23790 0.33995
 C260 C 0.73484 0.19926 0.28047
 H261 H 0.74715 0.18861 0.26383
 C262 C 0.71989 0.18305 0.30020
 H263 H 0.72053 0.16009 0.29790
 Zn264 Zn 0.75021 0.25025 0.25035
 N265 N 0.73329 0.22817 0.28137
 C266 C 0.71668 0.29431 0.24387
 N267 N 0.72754 0.27258 0.22700
 C268 C 0.72160 0.26668 0.19527
 C269 C 0.70309 0.28170 0.18013
 C270 C 0.69806 0.30974 0.22980
 C271 C 0.77555 0.27266 0.30511
 C272 C 0.79112 0.29126 0.32125
 C273 C 0.79794 0.31481 0.26989
 C274 C 0.78213 0.29589 0.25477
 N275 N 0.77142 0.27524 0.27243
 H276 H 0.72235 0.29960 0.26849
 H277 H 0.73090 0.25013 0.18164
 H278 H 0.69851 0.27650 0.15499
 H279 H 0.68912 0.32615 0.24431
 H280 H 0.76698 0.25598 0.31865
 H281 H 0.79451 0.28859 0.34715
 H282 H 0.80626 0.33115 0.25543
 H283 H 0.77841 0.29756 0.22885
 C284 C 0.70336 0.19674 0.32125
 C285 C 0.79351 0.18862 0.18018
 C286 C 0.80266 0.31259 0.30357
 C287 C 0.69073 0.30322 0.19766
 C288 C 0.27373 0.73070 0.19000
 H289 H 0.26136 0.74453 0.17745
 C290 C 0.29275 0.71802 0.17261
 H291 H 0.29463 0.72218 0.14671
 C292 C 0.28762 0.71093 0.23956
 H293 H 0.28596 0.70911 0.26588
 C294 C 0.30661 0.69749 0.22310
 H295 H 0.31891 0.68451 0.23696
 N296 N 0.27172 0.72724 0.22295
 C297 C 0.21424 0.74095 0.29491
 H298 H 0.21343 0.76394 0.29508
 C299 C 0.19787 0.72566 0.31349
 H300 H 0.18476 0.73710 0.32837
 C301 C 0.23193 0.69820 0.27456
 H302 H 0.24470 0.68755 0.25853
 C303 C 0.21594 0.68206 0.29286
 H304 H 0.21669 0.65909 0.29080
 Zn305 Zn 0.25009 0.74966 0.24833
 N306 N 0.23079 0.72712 0.27588
 C307 C 0.21402 0.75589 0.20122
 N308 N 0.22926 0.77048 0.22108
 C309 C 0.22870 0.79937 0.22299
 C310 C 0.21242 0.81477 0.20429
 C311 C 0.19735 0.77046 0.18217
 C312 C 0.26877 0.77857 0.30559
 C313 C 0.28448 0.79743 0.32125
 C314 C 0.30128 0.80841 0.26836
 C315 C 0.28521 0.78964 0.25393
 N316 N 0.26941 0.77517 0.27249
 H317 H 0.21467 0.73289 0.20049
 H318 H 0.24048 0.81059 0.23956
 H319 H 0.21191 0.83773 0.20670
 H320 H 0.18534 0.75854 0.16646
 H321 H 0.25638 0.76637 0.32000
 H322 H 0.28385 0.79835 0.34772
 H323 H 0.31244 0.82024 0.25184
 H324 H 0.28519 0.78666 0.22757
 C325 C 0.19840 0.69579 0.31233
 C326 C 0.30982 0.70155 0.18927
 C327 C 0.30160 0.81271 0.30283
 C328 C 0.19636 0.80031 0.18369
 O329 O 1.03278 0.04423 0.05905
 O330 O 1.06032 0.02015 0.02695
 C331 C 1.05461 0.03713 0.05121
 O332 O 0.96470 -0.05414 0.04105
 O333 O 0.93952 -0.02394 0.01378
 C334 C 0.94352 -0.04558 0.03242
 O335 O 1.03139 -0.05411 0.04908
 O336 O 1.05951 -0.02764 0.02247
 C337 C 1.05341 -0.04731 0.04273
 O338 O 0.96659 0.05133 0.04981
 O339 O 0.94043 0.02633 0.01729
 C340 C 0.94522 0.04575 0.03927
 Zr341 Zr 1.00002 0.03359 0.03631
 O342 O 0.99512 0.03255 0.08776
 O343 O 1.00244 0.07844 0.03660
 Zr344 Zr 0.99886 -0.03765 0.03038
 O345 O 0.99398 -0.03810 0.08192
 O346 O 1.00068 -0.08262 0.02896
 O347 O 1.02065 -0.00318 0.04124
 O348 O 0.97815 -0.00154 0.03790
 O349 O 0.97101 0.05637 -0.06155
 O350 O 0.94262 0.02866 -0.03716
 C351 C 0.94894 0.04972 -0.05547
 O352 O 1.03623 -0.04826 -0.06880
 O353 O 1.06185 -0.02474 -0.03421
 C354 C 1.05756 -0.04231 -0.05826
 O355 O 0.96945 -0.04886 -0.07026
 O356 O 0.94188 -0.02223 -0.04113
 C357 C 0.94758 -0.04173 -0.06276
 O358 O 1.03768 0.05140 -0.06047
 O359 O 1.06263 0.02342 -0.02986
 C360 C 1.05880 0.04332 -0.05097
 Zr361 Zr 1.00335 0.03786 -0.04561
 O362 O 1.00319 0.04194 -0.09721
 O363 O 1.00485 0.08233 -0.03758
 Zr364 Zr 1.00230 -0.03342 -0.05227
 O365 O 1.00163 -0.02822 -0.10377
 O366 O 1.00429 -0.07808 -0.05894
 Zr367 Zr 1.03698 -0.00135 -0.00541
 Zr368 Zr 0.96515 0.00117 -0.01032
 O369 O 0.98202 0.00323 -0.05642
 O370 O 1.02458 0.00177 -0.05399
 O371 O 0.98037 0.04186 -0.00568
 O372 O 1.02116 -0.04167 -0.00999
 O373 O 1.02279 0.04013 -0.00270
 O374 O 0.97927 -0.04057 -0.01291
 H375 H 0.96645 -0.00187 0.05623
 H376 H 1.03140 -0.05898 -0.01075
 H377 H 0.97183 0.00456 -0.07619
 H378 H 1.03384 0.05640 -0.00029
 H379 H 0.98961 -0.08924 0.01164
 H380 H 0.99309 -0.08647 -0.04304
 H381 H 1.01727 -0.02043 -0.11049
 H382 H 1.01543 0.02860 -0.10618
 H383 H 1.00611 0.09089 -0.05956
 H384 H 1.00195 0.08458 0.05996
 H385 H 1.00611 0.01781 0.09619
 H386 H 1.00881 -0.03089 0.09219
 O387 O 1.03307 0.55092 0.56792
 O388 O 1.05961 0.52773 0.53348
 C389 C 1.05466 0.54465 0.55812
 O390 O 0.96756 0.44949 0.55949
 O391 O 0.93986 0.47770 0.53401
 C392 C 0.94566 0.45665 0.55278
 O393 O 1.03420 0.45311 0.56157
 O394 O 1.06014 0.47942 0.53093
 C395 C 1.05563 0.46052 0.55290
 O396 O 0.96635 0.55484 0.56544
 O397 O 0.93934 0.52837 0.53595
 C398 C 0.94464 0.54821 0.55723
 Zr399 Zr 0.99954 0.53848 0.54873
 O400 O 0.99746 0.53857 0.60056
 O401 O 1.00046 0.58337 0.54735
 Zr402 Zr 1.00036 0.46712 0.54479
 O403 O 0.99799 0.46690 0.59665
 O404 O 1.00373 0.42226 0.54359
 O405 O 1.02153 0.50272 0.55256
 O406 O 0.97896 0.50249 0.55344
 O407 O 0.96470 0.55744 0.45281
 O408 O 0.93860 0.52883 0.48037
 C409 C 0.94321 0.54958 0.46067
 O410 O 1.03265 0.45615 0.44230
 O411 O 1.05942 0.48070 0.47418
 C412 C 1.05432 0.46282 0.45071
 O413 O 0.96589 0.45349 0.44649
 O414 O 0.93921 0.47881 0.47867
 C415 C 0.94428 0.45991 0.45606
 O416 O 1.03149 0.55542 0.44763
 O417 O 1.05879 0.52938 0.47674
 C418 C 1.05332 0.54836 0.45517
 Zr419 Zr 0.99845 0.54110 0.46669
 O420 O 0.99556 0.54475 0.41521
 O421 O 0.99888 0.58569 0.47398
 Zr422 Zr 0.99926 0.46958 0.46206
 O423 O 0.99600 0.47226 0.41047
 O424 O 1.00226 0.42474 0.45838
 Zr425 Zr 1.03537 0.50411 0.50440
 Zr426 Zr 0.96331 0.50359 0.50662
 O427 O 0.97783 0.50534 0.45897
 O428 O 1.02025 0.50565 0.45715
 O429 O 0.97739 0.54503 0.50862
 O430 O 1.02063 0.46308 0.50253
 O431 O 1.02004 0.54505 0.50741
 O432 O 0.97852 0.46242 0.50371
 H433 H 0.96831 0.50201 0.57291
 H434 H 1.03144 0.44628 0.50139
 H435 H 0.96687 0.50583 0.43993
 H436 H 1.03068 0.56180 0.50818
 H437 H 0.99183 0.41493 0.52775
 H438 H 0.98967 0.41664 0.47248
 H439 H 1.01022 0.48233 0.40216
 H440 H 1.00685 0.53076 0.40525
 H441 H 0.99880 0.59400 0.45181
 H442 H 1.00103 0.59007 0.57050
 H443 H 1.00935 0.52453 0.60832
 H444 H 1.01244 0.47627 0.60549
 O445 O 0.53341 0.04410 0.56467
 O446 O 0.55954 0.02175 0.52891
 C447 C 0.55487 0.03759 0.55452
 O448 O 0.46479 -0.05412 0.54536
 O449 O 0.43855 -0.02277 0.52190
 C450 C 0.44329 -0.04530 0.53870
 O451 O 0.53166 -0.05400 0.54854
 O452 O 0.55858 -0.02593 0.52184
 C453 C 0.55335 -0.04666 0.54108
 O454 O 0.46678 0.05101 0.56135
 O455 O 0.43955 0.02756 0.52907
 C456 C 0.44504 0.04587 0.55193
 Zr457 Zr 0.49971 0.03427 0.54404
 O458 O 0.49705 0.03067 0.59559
 O459 O 0.50198 0.07909 0.54701
 Zr460 Zr 0.49842 -0.03669 0.53362
 O461 O 0.49561 -0.03934 0.58530
 O462 O 0.50021 -0.08156 0.52974
 O463 O 0.52057 -0.00264 0.54502
 O464 O 0.47799 -0.00106 0.54506
 O465 O 0.46660 0.06174 0.45049
 O466 O 0.43944 0.03241 0.47494
 C467 C 0.44487 0.05449 0.45780
 O468 O 0.53172 -0.04225 0.43127
 O469 O 0.55857 -0.02038 0.46553
 C470 C 0.55341 -0.03669 0.44068
 O471 O 0.46474 -0.04285 0.43458
 O472 O 0.43864 -0.01792 0.46794
 C473 C 0.44328 -0.03616 0.44456
 O474 O 0.53328 0.05645 0.44526
 O475 O 0.55937 0.02715 0.47220
 C476 C 0.55475 0.04780 0.45243
 Zr477 Zr 0.49963 0.04245 0.46237
 O478 O 0.49710 0.04913 0.41131
 O479 O 0.50163 0.08651 0.47303
 Zr480 Zr 0.49841 -0.02852 0.45130
 O481 O 0.49565 -0.02123 0.40032
 O482 O 0.50023 -0.07293 0.44231
 Zr483 Zr 0.53490 0.00153 0.49743
 Zr484 Zr 0.46309 0.00394 0.49820
 O485 O 0.47797 0.00826 0.45109
 O486 O 0.52050 0.00685 0.45018
 O487 O 0.47837 0.04446 0.50422
 O488 O 0.51901 -0.03865 0.49146
 O489 O 0.52080 0.04280 0.50376
 O490 O 0.47709 -0.03760 0.49182
 H491 H 0.46698 -0.00242 0.56408
 H492 H 0.52923 -0.05586 0.48882
 H493 H 0.46699 0.01056 0.43226
 H494 H 0.53196 0.05897 0.50615
 H495 H 0.48948 -0.08736 0.51166
 H496 H 0.48856 -0.08188 0.45714
 H497 H 0.51083 -0.01265 0.39299
 H498 H 0.50861 0.03593 0.40043
 H499 H 0.50198 0.09610 0.45157
 H500 H 0.50242 0.08409 0.57070
 H501 H 0.50850 0.01567 0.60215
 H502 H 0.51098 -0.03296 0.59480
 O503 O 0.46435 0.45467 -0.05783
 O504 O 0.48124 0.42365 -0.02147
 C505 C 0.46810 0.42928 -0.04684
 O506 O 0.55249 0.52941 -0.04164
 O507 O 0.52778 0.56435 -0.02039
 C508 C 0.54698 0.55586 -0.03596
 O509 O 0.54761 0.45113 -0.04250
 O510 O 0.52228 0.42172 -0.01461
 C511 C 0.54058 0.42623 -0.03359
 O512 O 0.46358 0.53360 -0.05839
 O513 O 0.48428 0.56628 -0.02753
 C514 C 0.46888 0.55954 -0.05018
 Zr515 Zr 0.47520 0.49464 -0.03922
 O516 O 0.47913 0.49447 -0.09087
 O517 O 0.43738 0.49514 -0.04178
 Zr518 Zr 0.53446 0.49187 -0.02987
 O519 O 0.53434 0.49057 -0.08166
 O520 O 0.57225 0.48858 -0.03016
 O521 O 0.50465 0.46716 -0.03957
 O522 O 0.50627 0.51820 -0.04187
 O523 O 0.45453 0.54030 0.05458
 O524 O 0.48003 0.56943 0.02647
 C525 C 0.46177 0.56510 0.04555
 O526 O 0.53657 0.45758 0.07410
 O527 O 0.51710 0.42492 0.04166
 C528 C 0.53112 0.43168 0.06587
 O529 O 0.54186 0.53591 0.06701
 O530 O 0.52317 0.56733 0.03290
 C531 C 0.53822 0.56131 0.05609
 O532 O 0.45362 0.46169 0.06133
 O533 O 0.47623 0.42700 0.03552
 C534 C 0.45903 0.43525 0.05515
 Zr535 Zr 0.46792 0.49943 0.04246
 O536 O 0.46183 0.50491 0.09343
 O537 O 0.43090 0.50012 0.03181
 Zr538 Zr 0.52731 0.49655 0.05247
 O539 O 0.52104 0.50298 0.10335
 O540 O 0.56452 0.49216 0.06098
 Zr541 Zr 0.50003 0.45280 0.00877
 Zr542 Zr 0.50281 0.53843 0.00425
 O543 O 0.49800 0.52339 0.05211
 O544 O 0.49623 0.47274 0.05526
 O545 O 0.46778 0.52264 -0.00042
 O546 O 0.53471 0.46951 0.01335
 O547 O 0.46640 0.47229 0.00223
 O548 O 0.53657 0.51894 0.01083
 H549 H 0.50845 0.53033 -0.06129
 H550 H 0.54860 0.45663 0.01652
 H551 H 0.49692 0.53740 0.07049
 H552 H 0.45195 0.46026 0.00059
 H553 H 0.57727 0.48687 -0.00708
 H554 H 0.57285 0.50396 0.04470
 H555 H 0.51305 0.48585 0.11174
 H556 H 0.47256 0.49145 0.10473
 H557 H 0.42252 0.50120 0.05327
 H558 H 0.43332 0.49377 -0.06539
 H559 H 0.49106 0.47952 -0.09669
 H560 H 0.55138 0.49030 -0.08849
 C561 C 1.19601 0.15407 0.13358
 C562 C 1.18167 0.13445 0.11673
 C563 C 1.16020 0.12515 0.13062
 C564 C 1.15337 0.13543 0.16186
 C565 C 1.16761 0.15500 0.17864
 C566 C 1.18898 0.16476 0.16460
 N567 N 1.14513 0.10621 0.11230
 N568 N 1.12513 0.09827 0.12388
 C569 C 1.10885 0.08046 0.10623
 C570 C 1.08631 0.07577 0.12000
 C571 C 1.06895 0.06087 0.10247
 C572 C 1.07396 0.05007 0.07083
 C573 C 1.09701 0.05365 0.05753
 C574 C 1.11433 0.06894 0.07504
 H575 H 1.21233 0.16132 0.12209
 H576 H 1.18711 0.12678 0.09263
 H577 H 1.13691 0.12855 0.17327
 H578 H 1.16196 0.16237 0.20276
 H579 H 1.08194 0.08451 0.14404
 H580 H 1.05143 0.05827 0.11346
 H581 H 1.10131 0.04564 0.03314
 H582 H 1.13171 0.07228 0.06398
 C583 C 1.20136 0.65548 0.63755
 C584 C 1.18587 0.63751 0.62013
 C585 C 1.16514 0.62716 0.63507
 C586 C 1.16040 0.63441 0.66805
 C587 C 1.17584 0.65223 0.68546
 C588 C 1.19632 0.66335 0.67033
 N589 N 1.14871 0.61028 0.61621
 N590 N 1.12866 0.60296 0.62823
 C591 C 1.11118 0.58688 0.61047
 C592 C 1.08880 0.58299 0.62509
 C593 C 1.07064 0.56892 0.60818
 C594 C 1.07461 0.55810 0.57627
 C595 C 1.09736 0.56124 0.56186
 C596 C 1.11552 0.57573 0.57877
 H597 H 1.21688 0.66383 0.62510
 H598 H 1.18975 0.63214 0.59473
 H599 H 1.14462 0.62655 0.68033
 H600 H 1.17170 0.65734 0.71085
 H601 H 1.08529 0.59143 0.64952
 H602 H 1.05341 0.56665 0.62010
 H603 H 1.10090 0.55319 0.53726
 H604 H 1.13274 0.57845 0.56702
 C605 C 0.69413 0.16182 0.62613
 C606 C 0.68016 0.14138 0.60995
 C607 C 0.66113 0.12844 0.62628
 C608 C 0.65652 0.13571 0.65927
 C609 C 0.67037 0.15605 0.67536
 C610 C 0.68910 0.16964 0.65888
 N611 N 0.64593 0.10913 0.60873
 N612 N 0.62762 0.09860 0.62249
 C613 C 0.61105 0.08048 0.60586
 C614 C 0.58984 0.07358 0.62206
 C615 C 0.57189 0.05870 0.60567
 C616 C 0.57505 0.05008 0.57280
 C617 C 0.59690 0.05570 0.55699
 C618 C 0.61476 0.07103 0.57335
 H619 H 0.70844 0.17199 0.61283
 H620 H 0.68387 0.13603 0.58450
 H621 H 0.64202 0.12595 0.67257
 H622 H 0.66642 0.16112 0.70082
 H623 H 0.58685 0.08074 0.64713
 H624 H 0.55530 0.05450 0.61850
 H625 H 0.59973 0.04941 0.53159
 H626 H 0.63110 0.07610 0.56040
 C627 C 0.68041 0.65422 0.16135
 C628 C 0.66226 0.63789 0.14728
 C629 C 0.64282 0.65095 0.13187
 C630 C 0.64189 0.68072 0.13001
 C631 C 0.65996 0.69714 0.14439
 C632 C 0.67926 0.68403 0.16055
 N633 N 0.62385 0.63336 0.11996
 N634 N 0.60637 0.64243 0.10295
 C635 C 0.58768 0.62341 0.09307
 C636 C 0.57250 0.63036 0.06702
 C637 C 0.55549 0.61077 0.05557
 C638 C 0.55331 0.58410 0.07042
 C639 C 0.56774 0.57802 0.09768
 C640 C 0.58475 0.59733 0.10875
 H641 H 0.69487 0.64355 0.17396
 H642 H 0.66309 0.61495 0.14894
 H643 H 0.62698 0.69124 0.11824
 H644 H 0.65873 0.72009 0.14321
 H645 H 0.57445 0.65050 0.05483
 H646 H 0.54474 0.61606 0.03445
 H647 H 0.56645 0.55786 0.11000
 H648 H 0.59591 0.59163 0.12932
 C649 C 0.83876 -0.19433 0.13621
 C650 C 0.85471 -0.17856 0.11753
 C651 C 0.85023 -0.14981 0.11163
 C652 C 0.82917 -0.13701 0.12401
 C653 C 0.81317 -0.15278 0.14286
 C654 C 0.81800 -0.18153 0.14960
 N655 N 0.86811 -0.13401 0.09473
 N656 N 0.86549 -0.10812 0.08670
 C657 C 0.88470 -0.09307 0.07147
 C658 C 0.88079 -0.06553 0.05986
 C659 C 0.89971 -0.05007 0.04638
 C660 C 0.92293 -0.06189 0.04486
 C661 C 0.92665 -0.08966 0.05615
 C662 C 0.90777 -0.10510 0.06916
 H663 H 0.84279 -0.21654 0.14037
 H664 H 0.87087 -0.18866 0.10806
 H665 H 0.82542 -0.11473 0.11988
 H666 H 0.79746 -0.14222 0.15306
 H667 H 0.86311 -0.05595 0.06154
 H668 H 0.89632 -0.02872 0.03789
 H669 H 0.94424 -0.09951 0.05504
 H670 H 0.91137 -0.12629 0.07798
 C671 C 0.79921 0.35807 0.65541
 C672 C 0.81377 0.37685 0.63807
 C673 C 0.83808 0.37095 0.63328
 C674 C 0.84765 0.34568 0.64569
 C675 C 0.83331 0.32689 0.66295
 C676 C 0.80863 0.33256 0.66878
 N677 N 0.85294 0.39080 0.61630
 N678 N 0.87533 0.38607 0.61331
 C679 C 0.89186 0.40442 0.59730
 C680 C 0.91600 0.39661 0.59765
 C681 C 0.93318 0.41362 0.58315
 C682 C 0.92663 0.43905 0.56765
 C683 C 0.90221 0.44684 0.56685
 C684 C 0.88488 0.42965 0.58173
 H685 H 0.78090 0.36483 0.65946
 H686 H 0.80610 0.39636 0.62882
 H687 H 0.86635 0.34021 0.64191
 H688 H 0.84190 0.30733 0.67016
 H689 H 0.92156 0.37720 0.60948
 H690 H 0.95169 0.40666 0.58408
 H691 H 0.89657 0.46623 0.55506
 H692 H 0.86622 0.43603 0.58114
 C693 C 0.34229 -0.19852 0.63967
 C694 C 0.35764 -0.18224 0.62072
 C695 C 0.35225 -0.15375 0.61461
 C696 C 0.33076 -0.14182 0.62674
 C697 C 0.31532 -0.15813 0.64578
 C698 C 0.32121 -0.18649 0.65301
 N699 N 0.36977 -0.13718 0.59808
 N700 N 0.36660 -0.11121 0.59079
 C701 C 0.38552 -0.09529 0.57617
 C702 C 0.38107 -0.06759 0.56550
 C703 C 0.39970 -0.05128 0.55272
 C704 C 0.42314 -0.06241 0.55095
 C705 C 0.42742 -0.09033 0.56135
 C706 C 0.40883 -0.10662 0.57369
 H707 H 0.34709 -0.22044 0.64433
 H708 H 0.37415 -0.19164 0.61143
 H709 H 0.32630 -0.11976 0.62239
 H710 H 0.29928 -0.14825 0.65593
 H711 H 0.36320 -0.05856 0.56736
 H712 H 0.39586 -0.02984 0.54486
 H713 H 0.44521 -0.09967 0.56002
 H714 H 0.41283 -0.12792 0.58184
 C715 C 0.31981 0.33959 0.16518
 C716 C 0.33698 0.35629 0.14996
 C717 C 0.35839 0.34416 0.13833
 C718 C 0.36246 0.31486 0.14178
 C719 C 0.34530 0.29808 0.15726
 C720 C 0.32383 0.31034 0.16925
 N721 N 0.37579 0.36251 0.12423
 N722 N 0.39525 0.35389 0.11088
 C723 C 0.41193 0.37398 0.09808
 C724 C 0.43117 0.36465 0.07837
 C725 C 0.44695 0.38434 0.06470
 C726 C 0.44377 0.41367 0.07091
 C727 C 0.42480 0.42271 0.09148
 C728 C 0.40908 0.40318 0.10478
 H729 H 0.30365 0.34973 0.17458
 H730 H 0.33374 0.37889 0.14756
 H731 H 0.37894 0.30508 0.13299
 H732 H 0.34880 0.27555 0.15987
 H733 H 0.43365 0.34218 0.07309
 H734 H 0.46136 0.37668 0.04897
 H735 H 0.42175 0.44505 0.09700
 H736 H 0.39456 0.41102 0.12020
 C737 C 0.80154 0.14604 -0.15713
 C738 C 0.81685 0.12803 -0.13979
 C739 C 0.84073 0.13556 -0.13443
 C740 C 0.84903 0.16170 -0.14609
 C741 C 0.83375 0.17974 -0.16324
 C742 C 0.80989 0.17203 -0.16921
 N743 N 0.85643 0.11621 -0.11796
 N744 N 0.87864 0.12152 -0.11514
 C745 C 0.89540 0.10305 -0.09949
 C746 C 0.91951 0.11057 -0.09994
 C747 C 0.93673 0.09318 -0.08569
 C748 C 0.93016 0.06778 -0.07040
 C749 C 0.90580 0.06031 -0.06959
 C750 C 0.88850 0.07780 -0.08418
 H751 H 0.78317 0.13968 -0.16104
 H752 H 0.81020 0.10801 -0.13089
 H753 H 0.86741 0.16808 -0.14230
 H754 H 0.84080 0.19942 -0.17256
 H755 H 0.92500 0.13000 -0.11163
 H756 H 0.95524 0.09980 -0.08660
 H757 H 0.90016 0.04092 -0.05797
 H758 H 0.86987 0.07162 -0.08354
 C759 C 0.84184 0.68833 0.33194
 C760 C 0.85860 0.67263 0.34956
 C761 C 0.85198 0.64760 0.36510
 C762 C 0.82818 0.63828 0.36280
 C763 C 0.81132 0.65397 0.34499
 C764 C 0.81798 0.67925 0.32941
 N765 N 0.87004 0.63214 0.38239
 N766 N 0.86610 0.60957 0.39832
 C767 C 0.88529 0.59502 0.41462
 C768 C 0.88053 0.57065 0.43282
 C769 C 0.89919 0.55591 0.44829
 C770 C 0.92298 0.56530 0.44558
 C771 C 0.92756 0.58993 0.42753
 C772 C 0.90899 0.60460 0.41229
 H773 H 0.84770 0.70736 0.31977
 H774 H 0.87692 0.67993 0.35098
 H775 H 0.82268 0.61893 0.37460
 H776 H 0.79305 0.64652 0.34366
 H777 H 0.86236 0.56299 0.43487
 H778 H 0.89504 0.53703 0.46198
 H779 H 0.94559 0.59793 0.42499
 H780 H 0.91326 0.62335 0.39846
 C781 C 0.29685 0.14443 0.35437
 C782 C 0.31211 0.12716 0.37268
 C783 C 0.33374 0.13764 0.38453
 C784 C 0.33951 0.16614 0.37925
 C785 C 0.32432 0.18358 0.36125
 C786 C 0.30279 0.17304 0.34739
 N787 N 0.35021 0.11873 0.40019
 N788 N 0.37140 0.12658 0.40686
 C789 C 0.38892 0.10834 0.42124
 C790 C 0.41238 0.11815 0.42367
 C791 C 0.43045 0.10063 0.43567
 C792 C 0.42531 0.07292 0.44586
 C793 C 0.40155 0.06327 0.44423
 C794 C 0.38346 0.08082 0.43176
 H795 H 0.28015 0.13509 0.34669
 H796 H 0.30725 0.10530 0.37705
 H797 H 0.35619 0.17482 0.38823
 H798 H 0.33085 0.20465 0.35649
 H799 H 0.41675 0.13934 0.41565
 H800 H 0.44850 0.10884 0.43695
 H801 H 0.39706 0.04204 0.45196
 H802 H 0.36536 0.07286 0.43012
 C803 C 0.32726 0.65507 -0.15008
 C804 C 0.34514 0.63979 -0.13410
 C805 C 0.36774 0.65158 -0.12902
 C806 C 0.37223 0.67931 -0.13949
 C807 C 0.35440 0.69459 -0.15594
 C808 C 0.33180 0.68243 -0.16191
 N809 N 0.38604 0.63394 -0.11539
 N810 N 0.40614 0.64293 -0.10504
 C811 C 0.42364 0.62294 -0.09358
 C812 C 0.44113 0.63132 -0.07086
 C813 C 0.45678 0.61107 -0.05746
 C814 C 0.45528 0.58224 -0.06707
 C815 C 0.43865 0.57448 -0.09140
 C816 C 0.42298 0.59448 -0.10430
 H817 H 0.30996 0.64527 -0.15351
 H818 H 0.34149 0.61842 -0.12607
 H819 H 0.38970 0.68871 -0.13605
 H820 H 0.35863 0.71546 -0.16502
 H821 H 0.44198 0.65327 -0.06256
 H822 H 0.46940 0.61776 -0.03884
 H823 H 0.43706 0.55263 -0.09982
 H824 H 0.41001 0.58756 -0.12234
 C825 C 1.16658 -0.18869 -0.16894
 C826 C 1.14844 -0.17200 -0.15469
 C827 C 1.15336 -0.14477 -0.14238
 C828 C 1.17681 -0.13429 -0.14436
 C829 C 1.19500 -0.15091 -0.15891
 C830 C 1.19003 -0.17829 -0.17137
 N831 N 1.13405 -0.12821 -0.12867
 N832 N 1.13699 -0.10418 -0.11451
 C833 C 1.11701 -0.08825 -0.10152
 C834 C 1.12108 -0.06433 -0.08150
 C835 C 1.10181 -0.04908 -0.06763
 C836 C 1.07809 -0.05737 -0.07400
 C837 C 1.07411 -0.08102 -0.09474
 C838 C 1.09334 -0.09636 -0.10824
 H839 H 1.16213 -0.20950 -0.17877
 H840 H 1.13041 -0.18023 -0.15340
 H841 H 1.18101 -0.11324 -0.13502
 H842 H 1.21294 -0.14244 -0.16033
 H843 H 1.13923 -0.05778 -0.07622
 H844 H 1.10549 -0.03093 -0.05182
 H845 H 1.05611 -0.08806 -0.10010
 H846 H 1.08968 -0.11466 -0.12382
 C847 C 1.15544 0.32031 0.32141
 C848 C 1.13827 0.33794 0.33640
 C849 C 1.14506 0.36279 0.35303
 C850 C 1.16940 0.37012 0.35425
 C851 C 1.18666 0.35256 0.33894
 C852 C 1.17983 0.32736 0.32257
 N853 N 1.12675 0.37989 0.36840
 N854 N 1.13100 0.40171 0.38626
 C855 C 1.11179 0.41782 0.40115
 C856 C 1.11693 0.43957 0.42386
 C857 C 1.09834 0.45463 0.43975
 C858 C 1.07426 0.44822 0.43293
 C859 C 1.06927 0.42680 0.40953
 C860 C 1.08778 0.41175 0.39390
 H861 H 1.14960 0.30128 0.30856
 H862 H 1.11955 0.33216 0.33520
 H863 H 1.17504 0.38930 0.36695
 H864 H 1.20535 0.35842 0.34033
 H865 H 1.13535 0.44453 0.42966
 H866 H 1.10283 0.47102 0.45758
 H867 H 1.05099 0.42126 0.40358
 H868 H 1.08326 0.39516 0.37633
 C869 C 0.66072 -0.17965 0.32191
 C870 C 0.64254 -0.16276 0.33569
 C871 C 0.64773 -0.13618 0.34957
 C872 C 0.67148 -0.12648 0.34950
 C873 C 0.68973 -0.14331 0.33545
 C874 C 0.68451 -0.17011 0.32160
 N875 N 0.62848 -0.11967 0.36344
 N876 N 0.63164 -0.09618 0.37865
 C877 C 0.61185 -0.08041 0.39238
 C878 C 0.61628 -0.05711 0.41315
 C879 C 0.59729 -0.04243 0.42841
 C880 C 0.57347 -0.05073 0.42278
 C881 C 0.56908 -0.07358 0.40105
 C882 C 0.58807 -0.08836 0.38611
 H883 H 0.65609 -0.19997 0.31091
 H884 H 0.62429 -0.17039 0.33553
 H885 H 0.67589 -0.10595 0.36011
 H886 H 0.70792 -0.13550 0.33561
 H887 H 0.63452 -0.05071 0.41810
 H888 H 0.60128 -0.02483 0.44489
 H889 H 0.55098 -0.08056 0.39622
 H890 H 0.58415 -0.10621 0.36997
 C891 C 0.68215 0.33161 -0.13868
 C892 C 0.66540 0.34484 -0.11791
 C893 C 0.64194 0.33480 -0.11606
 C894 C 0.63539 0.31084 -0.13484
 C895 C 0.65222 0.29741 -0.15555
 C896 C 0.67571 0.30790 -0.15795
 N897 N 0.62512 0.35043 -0.09615
 N898 N 0.60301 0.34435 -0.09350
 C899 C 0.58731 0.36242 -0.07432
 C900 C 0.56248 0.35777 -0.07434
 C901 C 0.54680 0.37761 -0.05929
 C902 C 0.55597 0.40234 -0.04446
 C903 C 0.58083 0.40601 -0.04287
 C904 C 0.59634 0.38627 -0.05746
 H905 H 0.70017 0.33990 -0.13964
 H906 H 0.67061 0.36332 -0.10353
 H907 H 0.61728 0.30282 -0.13387
 H908 H 0.64673 0.27928 -0.17032
 H909 H 0.55525 0.33945 -0.08717
 H910 H 0.52763 0.37448 -0.06081
 H911 H 0.58829 0.42479 -0.03118
 H912 H 0.61538 0.39034 -0.05663
 C913 C 1.16871 0.19258 -0.14298
 C914 C 1.15173 0.17622 -0.12689
 C915 C 1.15535 0.14709 -0.12303
 C916 C 1.17652 0.13436 -0.13488
 C917 C 1.19352 0.15060 -0.15135
 C918 C 1.18982 0.18006 -0.15620
 N919 N 1.13655 0.13090 -0.10871
 N920 N 1.13872 0.10477 -0.10153
 C921 C 1.11874 0.08942 -0.08881
 C922 C 1.12236 0.06263 -0.07503
 C923 C 1.10295 0.04744 -0.06256
 C924 C 1.07957 0.05869 -0.06434
 C925 C 1.07605 0.08541 -0.07856
 C926 C 1.09541 0.10067 -0.09049
 H927 H 1.16426 0.21471 -0.14665
 H928 H 1.13532 0.18619 -0.11806
 H929 H 1.17974 0.11181 -0.13198
 H930 H 1.20972 0.13991 -0.15962
 H931 H 1.14025 0.05365 -0.07372
 H932 H 1.10619 0.02688 -0.05177
 H933 H 1.05832 0.09480 -0.08011
 H934 H 1.09207 0.12121 -0.10124
 C935 C 1.15592 0.68813 0.33004
 C936 C 1.13839 0.67222 0.34573
 C937 C 1.14450 0.64713 0.36174
 C938 C 1.16854 0.63803 0.36196
 C939 C 1.18614 0.65389 0.34610
 C940 C 1.18000 0.67914 0.32995
 N941 N 1.12584 0.63135 0.37712
 N942 N 1.12971 0.60888 0.39337
 C943 C 1.11046 0.59362 0.40821
 C944 C 1.11564 0.57036 0.42807
 C945 C 1.09714 0.55545 0.44325
 C946 C 1.07307 0.56349 0.43858
 C947 C 1.06797 0.58667 0.41830
 C948 C 1.08644 0.60161 0.40334
 H949 H 1.15053 0.70720 0.31739
 H950 H 1.11991 0.67939 0.34528
 H951 H 1.17369 0.61868 0.37421
 H952 H 1.20456 0.64654 0.34665
 H953 H 1.13406 0.56393 0.43199
 H954 H 1.10172 0.53768 0.45866
 H955 H 1.04968 0.59354 0.41418
 H956 H 1.08190 0.61944 0.38803
 C957 C 0.66125 0.19019 0.34037
 C958 C 0.64355 0.17424 0.35546
 C959 C 0.64922 0.14817 0.36953
 C960 C 0.67301 0.13820 0.36875
 C961 C 0.69082 0.15415 0.35353
 C962 C 0.68507 0.18028 0.33906
 N963 N 0.63026 0.13217 0.38364
 N964 N 0.63352 0.10848 0.39764
 C965 C 0.61372 0.09318 0.41084
 C966 C 0.61798 0.06847 0.42863
 C967 C 0.59886 0.05347 0.44207
 C968 C 0.57512 0.06295 0.43763
 C969 C 0.57097 0.08759 0.41939
 C970 C 0.59004 0.10258 0.40620
 H971 H 0.65615 0.20994 0.32892
 H972 H 0.62523 0.18202 0.35582
 H973 H 0.67777 0.11805 0.37953
 H974 H 0.70904 0.14609 0.35306
 H975 H 0.63615 0.06097 0.43231
 H976 H 0.60267 0.03454 0.45597
 H977 H 0.55296 0.09555 0.41553
 H978 H 0.58623 0.12155 0.39241
 C979 C 0.64794 0.71122 -0.14230
 C980 C 0.62999 0.69776 -0.12435
 C981 C 0.63365 0.67036 -0.11256
 C982 C 0.65583 0.65680 -0.11819
 C983 C 0.67370 0.67001 -0.13623
 C984 C 0.67005 0.69733 -0.14926
 N985 N 0.61447 0.65600 -0.09638
 N986 N 0.61767 0.63088 -0.08608
 C987 C 0.59955 0.61405 -0.07125
 C988 C 0.60579 0.58635 -0.06297
 C989 C 0.58864 0.56792 -0.05108
 C990 C 0.56471 0.57686 -0.04698
 C991 C 0.55848 0.60515 -0.05402
 C992 C 0.57583 0.62368 -0.06641
 H993 H 0.64369 0.73183 -0.15219
 H994 H 0.61294 0.70844 -0.12035
 H995 H 0.65934 0.63570 -0.10901
 H996 H 0.69057 0.65877 -0.13914
 H997 H 0.62401 0.57879 -0.06651
 H998 H 0.59418 0.54645 -0.04529
 H999 H 0.54020 0.61260 -0.05087
 H1000 H 0.57070 0.64516 -0.07267
 C1001 C 0.79598 -0.13626 -0.15531
 C1002 C 0.81195 -0.11746 -0.14007
 C1003 C 0.83620 -0.12477 -0.13715
 C1004 C 0.84424 -0.15141 -0.14909
 C1005 C 0.82830 -0.17028 -0.16393
 C1006 C 0.80404 -0.16286 -0.16739
 N1007 N 0.85247 -0.10498 -0.12230
 N1008 N 0.87497 -0.10928 -0.12402
 C1009 C 0.89234 -0.09091 -0.10939
 C1010 C 0.91648 -0.09673 -0.11571
 C1011 C 0.93426 -0.08030 -0.10115
 C1012 C 0.92825 -0.05767 -0.07957
 C1013 C 0.90388 -0.05156 -0.07348
 C1014 C 0.88600 -0.06805 -0.08838
 H1015 H 0.77732 -0.13012 -0.15748
 H1016 H 0.80549 -0.09706 -0.13089
 H1017 H 0.86287 -0.15768 -0.14704
 H1018 H 0.83505 -0.19048 -0.17332
 H1019 H 0.92154 -0.11432 -0.13183
 H1020 H 0.95277 -0.08576 -0.10643
 H1021 H 0.89865 -0.03434 -0.05694
 H1022 H 0.86738 -0.06326 -0.08310
 C1023 C 0.84168 0.33856 0.30435
 C1024 C 0.85833 0.35610 0.31996
 C1025 C 0.85363 0.36751 0.35123
 C1026 C 0.83189 0.36123 0.36688
 C1027 C 0.81523 0.34348 0.35137
 C1028 C 0.81998 0.33192 0.31993
 N1029 N 0.87158 0.38465 0.36665
 N1030 N 0.86851 0.39736 0.39419
 C1031 C 0.88734 0.41364 0.40902
 C1032 C 0.88284 0.42914 0.43807
 C1033 C 0.90117 0.44463 0.45330
 C1034 C 0.92439 0.44458 0.43977
 C1035 C 0.92874 0.42910 0.41052
 C1036 C 0.91044 0.41390 0.39526
 H1037 H 0.84600 0.32969 0.28036
 H1038 H 0.87509 0.36067 0.30774
 H1039 H 0.82789 0.36977 0.39112
 H1040 H 0.79858 0.33893 0.36385
 H1041 H 0.86513 0.42909 0.44900
 H1042 H 0.89727 0.45623 0.47588
 H1043 H 0.94636 0.42869 0.39931
 H1044 H 0.91446 0.40210 0.37288
 C1045 C 0.33925 -0.16168 0.30095
 C1046 C 0.35576 -0.14342 0.31548
 C1047 C 0.35169 -0.13197 0.34669
 C1048 C 0.33082 -0.13919 0.36370
 C1049 C 0.31420 -0.15774 0.34941
 C1050 C 0.31784 -0.16936 0.31738
 N1051 N 0.36946 -0.11372 0.36055
 N1052 N 0.36684 -0.10049 0.38781
 C1053 C 0.38563 -0.08310 0.40082
 C1054 C 0.38187 -0.06779 0.43014
 C1055 C 0.40037 -0.05172 0.44398
 C1056 C 0.42301 -0.05095 0.42872
 C1057 C 0.42654 -0.06593 0.39899
 C1058 C 0.40804 -0.08176 0.38511
 H1059 H 0.34438 -0.17076 0.27745
 H1060 H 0.37207 -0.13838 0.30239
 H1061 H 0.32732 -0.13048 0.38801
 H1062 H 0.29806 -0.16154 0.36330
 H1063 H 0.36471 -0.06866 0.44251
 H1064 H 0.39715 -0.04057 0.46705
 H1065 H 0.44371 -0.06571 0.38657
 H1066 H 0.41144 -0.09335 0.36240
 C1067 C 0.34435 0.33597 -0.18873
 C1068 C 0.36448 0.34923 -0.17554
 C1069 C 0.37362 0.34096 -0.14526
 C1070 C 0.36243 0.31899 -0.12817
 C1071 C 0.34222 0.30563 -0.14139
 C1072 C 0.33288 0.31411 -0.17177
 N1073 N 0.39360 0.35617 -0.13215
 N1074 N 0.40347 0.35044 -0.10492
 C1075 C 0.42262 0.36761 -0.09242
 C1076 C 0.43156 0.36281 -0.06090
 C1077 C 0.44784 0.38181 -0.04656
 C1078 C 0.45523 0.40596 -0.06366
 C1079 C 0.44739 0.40965 -0.09602
 C1080 C 0.43131 0.39068 -0.11028
 H1081 H 0.33794 0.34263 -0.21245
 H1082 H 0.37295 0.36615 -0.18890
 H1083 H 0.36912 0.31239 -0.10458
 H1084 H 0.33370 0.28899 -0.12763
 H1085 H 0.42507 0.34509 -0.04686
 H1086 H 0.45348 0.37857 -0.02151
 H1087 H 0.45293 0.42792 -0.10989
 H1088 H 0.42493 0.39478 -0.13480
 C1089 C 1.15437 -0.19325 0.16334
 C1090 C 1.13688 -0.17731 0.14730
 C1091 C 1.14278 -0.15164 0.13256
 C1092 C 1.16656 -0.14215 0.13360
 C1093 C 1.18406 -0.15802 0.14973
 C1094 C 1.17812 -0.18364 0.16499
 N1095 N 1.12419 -0.13541 0.11740
 N1096 N 1.12820 -0.11213 0.10297
 C1097 C 1.10928 -0.09596 0.08841
 C1098 C 1.11491 -0.07171 0.07061
 C1099 C 1.09680 -0.05569 0.05589
 C1100 C 1.07266 -0.06362 0.05901
 C1101 C 1.06709 -0.08783 0.07726
 C1102 C 1.08520 -0.10388 0.09175
 H1103 H 1.14918 -0.21269 0.17521
 H1104 H 1.11860 -0.18479 0.14671
 H1105 H 1.17155 -0.12239 0.12229
 H1106 H 1.20226 -0.15025 0.15031
 H1107 H 1.13340 -0.06534 0.06796
 H1108 H 1.10172 -0.03715 0.04206
 H1109 H 1.04872 -0.09462 0.08010
 H1110 H 1.08037 -0.12248 0.10552
 C1111 C 1.16222 0.34565 0.70355
 C1112 C 1.14572 0.36370 0.68862
 C1113 C 1.14907 0.37210 0.65623
 C1114 C 1.16943 0.36247 0.63883
 C1115 C 1.18594 0.34418 0.65369
 C1116 C 1.18239 0.33530 0.68617
 N1117 N 1.13096 0.38935 0.64145
 N1118 N 1.13308 0.40004 0.61311
 C1119 C 1.11391 0.41616 0.59893
 C1120 C 1.11770 0.43038 0.56945
 C1121 C 1.09895 0.44542 0.55467
 C1122 C 1.07598 0.44606 0.56901
 C1123 C 1.07234 0.43195 0.59872
 C1124 C 1.09110 0.41728 0.61360
 H1125 H 1.15916 0.33980 0.72878
 H1126 H 1.13013 0.37104 0.70229
 H1127 H 1.17230 0.36857 0.61365
 H1128 H 1.20112 0.33641 0.63948
 H1129 H 1.13516 0.42965 0.55781
 H1130 H 1.10227 0.45597 0.53171
 H1131 H 1.05492 0.43216 0.61051
 H1132 H 1.08762 0.40643 0.63631
 C1133 C 0.65708 -0.19879 0.64355
 C1134 C 0.64104 -0.18292 0.62497
 C1135 C 0.64556 -0.15437 0.61854
 C1136 C 0.66687 -0.14199 0.62985
 C1137 C 0.68295 -0.15785 0.64855
 C1138 C 0.67792 -0.18624 0.65622
 N1139 N 0.62743 -0.13811 0.60255
 N1140 N 0.63015 -0.11222 0.59489
 C1141 C 0.61096 -0.09627 0.58073
 C1142 C 0.61542 -0.06920 0.56843
 C1143 C 0.59675 -0.05299 0.55530
 C1144 C 0.57325 -0.06354 0.55481
 C1145 C 0.56886 -0.09067 0.56732
 C1146 C 0.58753 -0.10693 0.57999
 H1147 H 0.65293 -0.22075 0.64857
 H1148 H 0.62470 -0.19267 0.61628
 H1149 H 0.67068 -0.11988 0.62521
 H1150 H 0.69876 -0.14755 0.65820
 H1151 H 0.63337 -0.06069 0.56904
 H1152 H 0.60065 -0.03211 0.54591
 H1153 H 0.55100 -0.09947 0.56709
 H1154 H 0.58357 -0.12771 0.58957
 C1155 C 0.66650 0.34774 0.18965
 C1156 C 0.64662 0.36198 0.17712
 C1157 C 0.63013 0.34762 0.15732
 C1158 C 0.63377 0.31865 0.14993
 C1159 C 0.65362 0.30424 0.16269
 C1160 C 0.67017 0.31861 0.18287
 N1161 N 0.61011 0.36329 0.14506
 N1162 N 0.59508 0.35321 0.12464
 C1163 C 0.57582 0.37068 0.11303
 C1164 C 0.56364 0.36288 0.08431
 C1165 C 0.54750 0.38191 0.06985
 C1166 C 0.54335 0.40893 0.08417
 C1167 C 0.55414 0.41561 0.11437
 C1168 C 0.57023 0.39676 0.12860
 H1169 H 0.67907 0.35961 0.20454
 H1170 H 0.64407 0.38439 0.18273
 H1171 H 0.62120 0.30714 0.13466
 H1172 H 0.65573 0.28174 0.15734
 H1173 H 0.56767 0.34277 0.07214
 H1174 H 0.53952 0.37622 0.04652
 H1175 H 0.55107 0.43609 0.12626
 H1176 H 0.57904 0.40310 0.15114
 C1177 C 0.80117 0.13998 0.15519
 C1178 C 0.81541 0.12110 0.13650
 C1179 C 0.83625 0.13062 0.12113
 C1180 C 0.84218 0.15958 0.12359
 C1181 C 0.82793 0.17843 0.14201
 C1182 C 0.80752 0.16879 0.15859
 N1183 N 0.85185 0.11056 0.10471
 N1184 N 0.87272 0.11796 0.09584
 C1185 C 0.88981 0.09930 0.08035
 C1186 C 0.91320 0.10906 0.07703
 C1187 C 0.93098 0.09150 0.06365
 C1188 C 0.92564 0.06378 0.05273
 C1189 C 0.90193 0.05411 0.05509
 C1190 C 0.88409 0.07171 0.06919
 H1191 H 0.78566 0.13181 0.16784
 H1192 H 0.81063 0.09886 0.13487
 H1193 H 0.85803 0.16761 0.11165
 H1194 H 0.83302 0.20058 0.14345
 H1195 H 0.91775 0.13029 0.08544
 H1196 H 0.94898 0.09973 0.06171
 H1197 H 0.89737 0.03286 0.04675
 H1198 H 0.86601 0.06384 0.07145
 C1199 C 0.79781 0.63888 0.67307
 C1200 C 0.81289 0.62024 0.65526
 C1201 C 0.83474 0.62973 0.64271
 C1202 C 0.84102 0.65840 0.64740
 C1203 C 0.82595 0.67702 0.66490
 C1204 C 0.80432 0.66746 0.67842
 N1205 N 0.85067 0.61003 0.62620
 N1206 N 0.87200 0.61727 0.61939
 C1207 C 0.88928 0.59914 0.60336
 C1208 C 0.91283 0.60868 0.60169
 C1209 C 0.93061 0.59195 0.58686
 C1210 C 0.92516 0.56526 0.57288
 C1211 C 0.90133 0.55574 0.57402
 C1212 C 0.88347 0.57251 0.58944
 H1213 H 0.78137 0.63075 0.68331
 H1214 H 0.80780 0.59823 0.65188
 H1215 H 0.85765 0.66645 0.63765
 H1216 H 0.83127 0.69900 0.66775
 H1217 H 0.91747 0.62919 0.61221
 H1218 H 0.94866 0.60016 0.58611
 H1219 H 0.89661 0.53531 0.56339
 H1220 H 0.86527 0.56481 0.59036
 C1221 C 0.29726 0.14681 0.65096
 C1222 C 0.31159 0.12704 0.63369
 C1223 C 0.33384 0.13509 0.62111
 C1224 C 0.34086 0.16364 0.62393
 C1225 C 0.32648 0.18342 0.64070
 C1226 C 0.30492 0.17506 0.65546
 N1227 N 0.34982 0.11395 0.60758
 N1228 N 0.37219 0.11879 0.60648
 C1229 C 0.38962 0.09916 0.59361
 C1230 C 0.41372 0.10521 0.59893
 C1231 C 0.43158 0.08733 0.58627
 C1232 C 0.42566 0.06308 0.56748
 C1233 C 0.40133 0.05681 0.56230
 C1234 C 0.38337 0.07467 0.57549
 H1235 H 0.28081 0.13964 0.66214
 H1236 H 0.30592 0.10512 0.63158
 H1237 H 0.35776 0.17052 0.61381
 H1238 H 0.33257 0.20517 0.64285
 H1239 H 0.41868 0.12406 0.61284
 H1240 H 0.45007 0.09301 0.59056
 H1241 H 0.39622 0.03834 0.54784
 H1242 H 0.36476 0.06969 0.57105
 C1243 C 0.35339 0.68762 0.18859
 C1244 C 0.37343 0.67552 0.17312
 C1245 C 0.37217 0.66584 0.14063
 C1246 C 0.35054 0.66860 0.12345
 C1247 C 0.33027 0.68030 0.13908
 C1248 C 0.33137 0.68969 0.17203
 N1249 N 0.39245 0.65117 0.12679
 N1250 N 0.39488 0.64612 0.09619
 C1251 C 0.41438 0.62893 0.08394
 C1252 C 0.41887 0.62727 0.05010
 C1253 C 0.43585 0.60785 0.03742
 C1254 C 0.44807 0.58954 0.05854
 C1255 C 0.44420 0.59192 0.09244
 C1256 C 0.42771 0.61166 0.10511
 H1257 H 0.35522 0.69534 0.21359
 H1258 H 0.39001 0.67344 0.18661
 H1259 H 0.34909 0.66086 0.09840
 H1260 H 0.31362 0.68124 0.12563
 H1261 H 0.40864 0.64032 0.03349
 H1262 H 0.43832 0.60589 0.01114
 H1263 H 0.45333 0.57772 0.10902
 H1264 H 0.42450 0.61235 0.13131
   
