data_POSCAR
  _audit_creation_date              2014-09-24
  _audit_creation_method            'ToBaCCo'
  _symmetry_space_group_name_H-M    'P1'
  _symmetry_Int_Tables_number       1
  _symmetry_cell_setting            triclinic
  loop_
  _symmetry_equiv_pos_as_xyz
 x,y,z
_cell_length_a 45.7162
_cell_length_b 47.6253
_cell_length_c 46.5871
_cell_angle_alpha 90.341600
_cell_angle_beta 89.927400
_cell_angle_gamma 89.814600
loop_
  _atom_site_label
  _atom_site_type_symbol
  _atom_site_fract_x
  _atom_site_fract_y
  _atom_site_fract_z
C1 C 0.36366 0.34085 0.33455
 N2 N 0.35023 0.36395 0.32379
 C3 C 0.32613 0.37473 0.33685
 N4 N 0.31583 0.36267 0.36116
 C5 C 0.32962 0.34006 0.37260
 N6 N 0.35333 0.32899 0.35896
 C7 C 0.36485 0.83216 -0.18116
 N8 N 0.35199 0.81857 -0.15887
 C9 C 0.33004 0.83066 -0.14346
 N10 N 0.32090 0.85696 -0.15017
 C11 C 0.33401 0.87142 -0.17170
 N12 N 0.35590 0.85875 -0.18678
 C13 C 0.86983 0.33818 -0.15849
 N14 N 0.85600 0.36012 -0.17121
 C15 C 0.82970 0.36953 -0.16133
 N16 N 0.81776 0.35715 -0.13788
 C17 C 0.83162 0.33560 -0.12456
 N18 N 0.85736 0.32578 -0.13532
 C19 C 0.87835 0.84025 0.33520
 N20 N 0.86501 0.82911 0.35862
 C21 C 0.83848 0.83878 0.36757
 N22 N 0.82431 0.85847 0.35174
 C23 C 0.83705 0.86934 0.32793
 N24 N 0.86423 0.86056 0.32031
 C25 C 0.64146 0.66334 0.33781
 N26 N 0.65207 0.63817 0.32871
 C27 C 0.67578 0.62645 0.34148
 N28 N 0.68934 0.64048 0.36314
 C29 C 0.67884 0.66567 0.37251
 N30 N 0.65474 0.67695 0.35993
 C31 C 0.62976 0.17243 -0.17287
 N32 N 0.63638 0.14546 -0.18040
 C33 C 0.65563 0.12993 -0.16476
 N34 N 0.66804 0.14177 -0.14109
 C35 C 0.66048 0.16802 -0.13244
 N36 N 0.64157 0.18329 -0.14848
 C37 C 0.13321 0.66320 -0.16214
 N38 N 0.13933 0.63585 -0.16803
 C39 C 0.16106 0.62206 -0.15411
 N40 N 0.17653 0.63619 -0.13382
 C41 C 0.17068 0.66348 -0.12748
 N42 N 0.14879 0.67695 -0.14158
 C43 C 0.13266 0.16448 0.32736
 N44 N 0.14644 0.14301 0.31346
 C45 C 0.17254 0.13281 0.32273
 N46 N 0.18459 0.14396 0.34688
 C47 C 0.17190 0.16623 0.36037
 N48 N 0.14605 0.17643 0.35048
 C49 C 0.64062 0.33596 0.66141
 N50 N 0.65498 0.32358 0.63910
 C51 C 0.68171 0.33297 0.63084
 N52 N 0.69406 0.35495 0.64505
 C53 C 0.67990 0.36722 0.66753
 N54 N 0.65334 0.35760 0.67570
 C55 C 0.62604 0.82804 1.16807
 N56 N 0.63551 0.82123 1.14125
 C57 C 0.65545 0.83723 1.12740
 N58 N 0.66634 0.86028 1.14068
 C59 C 0.65661 0.86794 1.16708
 N60 N 0.63644 0.85189 1.18073
 C61 C 0.13057 0.33225 1.16635
 N62 N 0.14462 0.35407 1.17925
 C63 C 0.17118 0.36293 1.16976
 N64 N 0.18302 0.35051 1.14612
 C65 C 0.16909 0.32908 1.13263
 N66 N 0.14338 0.31952 1.14329
 C67 C 0.13487 0.83623 0.67563
 N68 N 0.14780 0.82546 0.65173
 C69 C 0.16933 0.83954 0.63813
 N70 N 0.17783 0.86496 0.64820
 C71 C 0.16443 0.87689 0.67139
 N72 N 0.14290 0.86229 0.68495
 C73 C 0.35938 0.66313 0.66605
 N74 N 0.34566 0.67527 0.64344
 C75 C 0.31839 0.66718 0.63569
 N76 N 0.30460 0.64667 0.65068
 C77 C 0.31800 0.63443 0.67351
 N78 N 0.34534 0.64282 0.68113
 C79 C 0.37035 0.17484 1.17113
 N80 N 0.36235 0.14915 1.18114
 C81 C 0.34250 0.13304 1.16676
 N82 N 0.33047 0.14312 1.14216
 C83 C 0.33927 0.16801 1.13129
 N84 N 0.35901 0.18359 1.14586
 C85 C 0.86970 0.67249 1.17059
 N86 N 0.85893 0.64764 1.18010
 C87 C 0.83434 0.63620 1.16860
 N88 N 0.81956 0.65077 1.14828
 C89 C 0.82916 0.67617 1.13933
 N90 N 0.85428 0.68686 1.15038
 C91 C 0.85542 0.16760 0.67644
 N92 N 0.84554 0.17774 0.65109
 C93 C 0.82128 0.16683 0.63883
 N94 N 0.80663 0.14585 0.65211
 C95 C 0.81626 0.13531 0.67747
 N96 N 0.84112 0.14608 0.68930
 C97 C 0.32425 0.37096 0.66688
 N98 N 0.31257 0.35998 0.64258
 C99 C 0.32693 0.33976 0.62749
 N100 N 0.35304 0.33005 0.63736
 C101 C 0.36511 0.34106 0.66159
 N102 N 0.35046 0.36140 0.67636
 C103 C 0.34396 0.86840 0.16703
 N104 N 0.33359 0.85817 0.14173
 C105 C 0.34399 0.83357 0.13074
 N106 N 0.36382 0.81856 0.14616
 C107 C 0.37347 0.82809 0.17199
 N108 N 0.36373 0.85319 0.18212
 C109 C 0.83528 0.37450 0.15758
 N110 N 0.82340 0.36079 0.13481
 C111 C 0.83347 0.33499 0.12690
 N112 N 0.85451 0.32230 0.14291
 C113 C 0.86600 0.33554 0.16622
 N114 N 0.85659 0.36179 0.17308
 C115 C 0.83080 0.87331 0.67453
 N116 N 0.82245 0.86239 0.64885
 C117 C 0.83704 0.84024 0.63710
 N118 N 0.85945 0.82835 0.65191
 C119 C 0.86777 0.83893 0.67781
 N120 N 0.85367 0.86174 0.68880
 C121 C 0.67555 0.62813 0.66336
 N122 N 0.65202 0.64046 0.67620
 C123 C 0.64201 0.66573 0.66699
 N124 N 0.65570 0.67870 0.64483
 C125 C 0.67963 0.66688 0.63234
 N126 N 0.68944 0.64160 0.64167
 C127 C 0.66296 0.12975 0.16900
 N128 N 0.64235 0.14414 0.18415
 C129 C 0.63243 0.16937 0.17481
 N130 N 0.64289 0.17998 0.14986
 C131 C 0.66346 0.16581 0.13445
 N132 N 0.67388 0.14096 0.14446
 C133 C 0.16920 0.63002 0.15885
 N134 N 0.14666 0.64311 0.17248
 C135 C 0.13789 0.66912 0.16428
 N136 N 0.15204 0.68231 0.14256
 C137 C 0.17509 0.66964 0.12930
 N138 N 0.18355 0.64354 0.13751
 C139 C 0.16862 0.13548 0.67040
 N140 N 0.17990 0.14718 0.64627
 C141 C 0.16535 0.16809 0.63259
 N142 N 0.13930 0.17728 0.64304
 C143 C 0.12748 0.16538 0.66682
 N144 N 0.14239 0.14469 0.68057
 C145 C 0.32032 0.63655 0.32822
 N146 N 0.34781 0.64485 0.32129
 C147 C 0.36101 0.66592 0.33617
 N148 N 0.34627 0.67888 0.35789
 C149 C 0.31871 0.67085 0.36493
 N150 N 0.30585 0.64952 0.35014
 C151 C 0.34149 0.13336 0.83020
 N152 N 0.36182 0.14810 0.81523
 C153 C 0.37085 0.17365 0.82469
 N154 N 0.35989 0.18422 0.84957
 C155 C 0.33977 0.16970 0.86485
 N156 N 0.33010 0.14460 0.85470
 C157 C 0.83247 0.63445 0.83398
 N158 N 0.85823 0.64557 0.82524
 C159 C 0.86991 0.66793 0.83936
 N160 N 0.85513 0.67956 0.86185
 C161 C 0.82915 0.66872 0.87053
 N162 N 0.81803 0.64601 0.85663
 C163 C 0.83555 0.12204 0.33007
 N164 N 0.82419 0.13155 0.35531
 C165 C 0.83516 0.15495 0.36804
 N166 N 0.85678 0.16947 0.35487
 C167 C 0.86762 0.16066 0.32922
 N168 N 0.85708 0.13685 0.31693
 C169 C 0.67867 0.36836 0.32801
 N170 N 0.65161 0.35908 0.32067
 C171 C 0.63903 0.33757 0.33513
 N172 N 0.65411 0.32491 0.35658
 C173 C 0.68121 0.33394 0.36399
 N174 N 0.69326 0.35597 0.34994
 C175 C 0.66795 0.85840 0.82689
 N176 N 0.64240 0.84848 0.81613
 C177 C 0.62928 0.82581 0.82805
 N178 N 0.64209 0.81284 0.85073
 C179 C 0.66766 0.82258 0.86159
 N180 N 0.68052 0.84541 0.84968
 C181 C 0.16731 0.36242 0.83280
 N182 N 0.14245 0.35113 0.82192
 C183 C 0.12952 0.32907 0.83513
 N184 N 0.14179 0.31812 0.85914
 C185 C 0.16625 0.32978 0.87058
 N186 N 0.17907 0.35177 0.85716
 C187 C 0.17786 0.87260 0.32931
 N188 N 0.15532 0.85967 0.31575
 C189 C 0.14181 0.83740 0.32805
 N190 N 0.15047 0.82859 0.35437
 C191 C 0.17259 0.84179 0.36837
 N192 N 0.18649 0.86356 0.35558
 O193 O 0.22579 0.97347 0.24916
 O194 O 0.26702 1.02763 0.20980
 O195 O 0.26571 0.97353 0.21012
 O196 O 0.22312 1.02873 0.24604
 O197 O 0.25600 1.03171 0.28039
 O198 O 0.29844 0.97508 0.24484
 O199 O 0.29902 1.02972 0.24498
 O200 O 0.25815 0.97613 0.28420
 Cu201 Cu 0.24191 1.00085 0.22553
 Cu202 Cu 0.28091 1.00325 0.26729
 C203 C 0.23585 0.96479 0.27294
 C204 C 0.29047 1.03761 0.22047
 C205 C 0.28937 0.96484 0.22117
 C206 C 0.23280 1.04069 0.26843
 O207 O 0.24128 0.52918 0.72065
 O208 O 0.20661 0.46994 0.75780
 O209 O 0.20352 0.52403 0.76224
 O210 O 0.24324 0.47376 0.71643
 O211 O 0.27988 0.47333 0.74729
 O212 O 0.23898 0.52206 0.79409
 O213 O 0.24359 0.46849 0.78830
 O214 O 0.27731 0.52881 0.75216
 Cu215 Cu 0.22021 0.49962 0.73593
 Cu216 Cu 0.26386 0.49860 0.77339
 C217 C 0.26480 0.53953 0.73051
 C218 C 0.21973 0.45856 0.77878
 C219 C 0.21385 0.53080 0.78655
 C220 C 0.26747 0.46375 0.72493
 O221 O 0.78370 0.02425 0.24628
 O222 O 0.74153 -0.03154 0.21012
 O223 O 0.74182 0.02359 0.20825
 O224 O 0.78621 -0.02979 0.24426
 O225 O 0.75371 -0.03234 0.27895
 O226 O 0.71090 0.02423 0.24464
 O227 O 0.70881 -0.03062 0.24507
 O228 O 0.75289 0.02232 0.28276
 Cu229 Cu 0.76627 -0.00318 0.22350
 Cu230 Cu 0.72841 -0.00397 0.26644
 C231 C 0.77583 0.03209 0.27125
 C232 C 0.71832 -0.04091 0.22170
 C233 C 0.71902 0.03330 0.22028
 C234 C 0.77735 -0.04093 0.26726
 O235 O 0.75428 0.47588 0.79059
 O236 O 0.71731 0.52666 0.74399
 O237 O 0.71921 0.47247 0.74725
 O238 O 0.75450 0.53105 0.78576
 O239 O 0.79243 0.52801 0.75643
 O240 O 0.75637 0.47090 0.71680
 O241 O 0.75482 0.52548 0.71411
 O242 O 0.79080 0.47262 0.75979
 Cu243 Cu 0.73276 0.50185 0.77011
 Cu244 Cu 0.77753 0.49937 0.73391
 C245 C 0.77774 0.46411 0.78221
 C246 C 0.72957 0.53460 0.72102
 C247 C 0.73208 0.46152 0.72572
 C248 C 0.77928 0.53971 0.77731
 O249 O 0.28125 0.52923 0.25137
 O250 O 0.24672 0.47055 0.21262
 O251 O 0.24491 0.52520 0.20857
 O252 O 0.28197 0.47434 0.25541
 O253 O 0.24489 0.47664 0.28581
 O254 O 0.20698 0.52578 0.23791
 O255 O 0.20993 0.47114 0.24327
 O256 O 0.24311 0.53163 0.28048
 Cu257 Cu 0.26749 0.49985 0.22901
 Cu258 Cu 0.22249 0.50165 0.26491
 C259 C 0.26769 0.54084 0.27207
 C260 C 0.22328 0.45985 0.22219
 C261 C 0.21953 0.53405 0.21518
 C262 C 0.26918 0.46605 0.27802
 O263 O 0.74011 1.02838 0.71989
 O264 O 0.70457 0.97021 0.75787
 O265 O 0.69975 1.02509 0.75901
 O266 O 0.74296 0.97357 0.71790
 O267 O 0.77817 0.97607 0.75020
 O268 O 0.73271 1.02470 0.79335
 O269 O 0.74007 0.97068 0.79003
 O270 O 0.77294 1.03156 0.75430
 Cu271 Cu 0.71843 0.99938 0.73533
 Cu272 Cu 0.75960 1.00119 0.77516
 C273 C 0.76174 1.04080 0.73128
 C274 C 0.71717 0.95966 0.77960
 C275 C 0.70840 1.03338 0.78347
 C276 C 0.76731 0.96513 0.72766
 O277 O 0.75599 0.52651 0.28574
 O278 O 0.79307 0.47574 0.23814
 O279 O 0.79318 0.52968 0.24276
 O280 O 0.75625 0.47164 0.28007
 O281 O 0.71989 0.47391 0.24902
 O282 O 0.75586 0.53297 0.21309
 O283 O 0.75676 0.47874 0.20710
 O284 O 0.71887 0.52836 0.25557
 Cu285 Cu 0.77819 0.50082 0.26494
 Cu286 Cu 0.73408 0.50392 0.22825
 C287 C 0.73089 0.53581 0.27895
 C288 C 0.78148 0.46881 0.21439
 C289 C 0.78115 0.54073 0.22098
 C290 C 0.73226 0.46226 0.27023
 O291 O 0.25604 -0.02244 0.78914
 O292 O 0.21666 0.03383 0.75081
 O293 O 0.21379 -0.02139 0.75105
 O294 O 0.25867 0.03168 0.78825
 O295 O 0.29160 0.02895 0.75364
 O296 O 0.24539 -0.02206 0.71540
 O297 O 0.24985 0.03227 0.71637
 O298 O 0.28752 -0.02538 0.75339
 Cu299 Cu 0.23284 0.00548 0.77320
 Cu300 Cu 0.27174 0.00303 0.73114
 C301 C 0.27899 -0.03305 0.77807
 C302 C 0.22723 0.04331 0.72757
 C303 C 0.22159 -0.03043 0.72651
 C304 C 0.28299 0.03906 0.77749
 O305 O 0.21742 0.25016 1.02781
 O306 O 0.25939 0.21395 0.97074
 O307 O 0.25859 0.21218 1.02646
 O308 O 0.21717 0.25113 0.97204
 O309 O 0.25025 0.28485 0.97278
 O310 O 0.29142 0.24598 1.02757
 O311 O 0.29189 0.24794 0.97142
 O312 O 0.25037 0.28396 1.02836
 Cu313 Cu 0.23483 0.22845 0.99912
 Cu314 Cu 0.27436 0.26900 1.00019
 C315 C 0.22663 0.27352 1.03749
 C316 C 0.28304 0.22463 0.96147
 C317 C 0.28225 0.22233 1.03619
 C318 C 0.22648 0.27468 0.96333
 O319 O 0.24597 0.79054 0.47579
 O320 O 0.28004 0.74454 0.52968
 O321 O 0.27976 0.74660 0.47331
 O322 O 0.24765 0.78900 0.53158
 O323 O 0.20834 0.76217 0.53120
 O324 O 0.24055 0.71961 0.47290
 O325 O 0.24062 0.71779 0.52960
 O326 O 0.20687 0.76348 0.47552
 Cu327 Cu 0.26738 0.77025 0.50251
 Cu328 Cu 0.22026 0.73789 0.50215
 C329 C 0.22046 0.78493 0.46661
 C330 C 0.26560 0.72402 0.53959
 C331 C 0.26528 0.72641 0.46264
 C332 C 0.22288 0.78241 0.54182
 O333 O 0.29568 0.75373 -0.03243
 O334 O 0.26060 0.71742 0.02823
 O335 O 0.25947 0.71250 -0.02700
 O336 O 0.30000 0.75641 0.02396
 O337 O 0.26411 0.78752 0.02435
 O338 O 0.22449 0.74411 -0.02904
 O339 O 0.22455 0.74828 0.02730
 O340 O 0.26058 0.78572 -0.03183
 Cu341 Cu 0.28262 0.73206 -0.00168
 Cu342 Cu 0.23984 0.76952 -0.00222
 C343 C 0.28363 0.77549 -0.04293
 C344 C 0.23660 0.72681 0.03823
 C345 C 0.23563 0.72098 -0.03765
 C346 C 0.28891 0.77914 0.03330
 O347 O 0.28328 0.25539 0.47158
 O348 O 0.24567 0.21515 0.52790
 O349 O 0.24716 0.21342 0.47088
 O350 O 0.28109 0.25779 0.52649
 O351 O 0.24264 0.28567 0.52628
 O352 O 0.21022 0.24322 0.46813
 O353 O 0.20724 0.24322 0.52481
 O354 O 0.24633 0.28534 0.47080
 Cu355 Cu 0.26778 0.23213 0.49945
 Cu356 Cu 0.22264 0.26703 0.49725
 C357 C 0.27162 0.27781 0.46231
 C358 C 0.22045 0.22274 0.53641
 C359 C 0.22365 0.22156 0.45901
 C360 C 0.26789 0.27960 0.53570
 O361 O 0.78116 0.75053 1.03274
 O362 O 0.74497 0.78378 0.97117
 O363 O 0.74087 0.78926 1.02643
 O364 O 0.78253 0.74427 0.97623
 O365 O 0.74738 0.71263 0.97808
 O366 O 0.70627 0.75713 1.02846
 O367 O 0.70946 0.75243 0.97326
 O368 O 0.74630 0.71864 1.03440
 Cu369 Cu 0.76610 0.77000 1.00182
 Cu370 Cu 0.72402 0.73185 1.00396
 C371 C 0.76962 0.72928 1.04446
 C372 C 0.72143 0.77343 0.96139
 C373 C 0.71612 0.78104 1.03551
 C374 C 0.77103 0.72160 0.96727
 O375 O 0.79121 0.23837 0.52629
 O376 O 0.76133 0.28022 0.46690
 O377 O 0.76000 0.28318 0.52312
 O378 O 0.79445 0.23575 0.47069
 O379 O 0.75509 0.20905 0.47040
 O380 O 0.72040 0.25674 0.52308
 O381 O 0.72175 0.25376 0.46683
 O382 O 0.75138 0.21212 0.52615
 Cu383 Cu 0.78068 0.26211 0.49651
 Cu384 Cu 0.73307 0.23035 0.49623
 C385 C 0.77589 0.21878 0.53690
 C386 C 0.73651 0.27387 0.45658
 C387 C 0.73500 0.27720 0.53319
 C388 C 0.78100 0.21407 0.46199
 O389 O 0.74898 0.28334 0.02854
 O390 O 0.70778 0.24403 -0.02612
 O391 O 0.70877 0.24457 0.02995
 O392 O 0.74748 0.28293 -0.02686
 O393 O 0.78251 0.25084 -0.02661
 O394 O 0.74251 0.21129 0.02853
 O395 O 0.74243 0.21171 -0.02739
 O396 O 0.78274 0.25002 0.02896
 Cu397 Cu 0.72469 0.26690 0.00148
 Cu398 Cu 0.76594 0.22760 0.00078
 C399 C 0.77305 0.27356 0.03776
 C400 C 0.71801 0.22116 -0.03611
 C401 C 0.71886 0.22127 0.03869
 C402 C 0.77195 0.27377 -0.03585
 O403 O 0.79626 0.76202 0.47396
 O404 O 0.76120 0.71915 0.52983
 O405 O 0.76105 0.71932 0.47353
 O406 O 0.79781 0.76072 0.52979
 O407 O 0.76081 0.79059 0.53025
 O408 O 0.72325 0.74824 0.47475
 O409 O 0.72409 0.74885 0.53125
 O410 O 0.75835 0.79065 0.47409
 Cu411 Cu 0.78271 0.73727 0.50167
 Cu412 Cu 0.73781 0.77244 0.50278
 C413 C 0.78329 0.78368 0.46436
 C414 C 0.73707 0.72719 0.54070
 C415 C 0.73634 0.72708 0.46397
 C416 C 0.78574 0.78289 0.53947
 O417 O 1.02860 0.28448 0.24895
 O418 O 0.96971 0.24566 0.28535
 O419 O 1.02668 0.24380 0.28670
 O420 O 0.97197 0.28787 0.25049
 O421 O 0.96834 0.25641 0.21598
 O422 O 1.02714 0.21480 0.24974
 O423 O 0.97000 0.21408 0.25043
 O424 O 1.02512 0.25558 0.21203
 Cu425 Cu 0.99960 0.26840 0.27151
 Cu426 Cu 0.99776 0.23217 0.22844
 C427 C 1.03606 0.27730 0.22366
 C428 C 0.95962 0.22340 0.27391
 C429 C 1.03625 0.22167 0.27457
 C430 C 0.95990 0.27930 0.22761
 O431 O 0.53076 0.29387 0.73809
 O432 O 0.47332 0.25546 0.77696
 O433 O 0.53071 0.25540 0.77744
 O434 O 0.47381 0.29556 0.74005
 O435 O 0.47344 0.26398 0.70536
 O436 O 0.53079 0.22350 0.74294
 O437 O 0.47301 0.22324 0.74266
 O438 O 0.53014 0.26170 0.70380
 Cu439 Cu 0.50227 0.27814 0.76168
 Cu440 Cu 0.50165 0.23973 0.72039
 C441 C 0.54014 0.28439 0.71421
 C442 C 0.46285 0.23320 0.76596
 C443 C 0.54126 0.23324 0.76622
 C444 C 0.46405 0.28693 0.71615
 O445 O 0.02131 0.24304 0.71504
 O446 O -0.03159 0.28506 0.75643
 O447 O 0.02447 0.28171 0.75496
 O448 O -0.03586 0.24492 0.71893
 O449 O -0.03564 0.21269 0.75281
 O450 O 0.02490 0.24936 0.78874
 O451 O -0.03135 0.25311 0.79059
 O452 O 0.02168 0.21081 0.74885
 Cu453 Cu -0.00532 0.26669 0.73271
 Cu454 Cu -0.00506 0.22807 0.77349
 C455 C 0.03062 0.21985 0.72478
 C456 C -0.04004 0.27659 0.78083
 C457 C 0.03434 0.27222 0.77847
 C458 C -0.04662 0.22303 0.73021
 O459 O 0.47117 0.22530 0.25143
 O460 O 0.52743 0.26229 0.29391
 O461 O 0.47056 0.26379 0.29066
 O462 O 0.52847 0.22209 0.25567
 O463 O 0.53307 0.25449 0.22229
 O464 O 0.47339 0.29508 0.25596
 O465 O 0.53019 0.29461 0.26026
 O466 O 0.47651 0.25609 0.21697
 Cu467 Cu 0.49918 0.24007 0.27628
 Cu468 Cu 0.50374 0.27824 0.23547
 C469 C 0.46365 0.23481 0.22704
 C470 C 0.53808 0.28505 0.28440
 C471 C 0.46152 0.28610 0.27880
 C472 C 0.54107 0.23144 0.23341
 O473 O 1.03230 0.78734 0.75532
 O474 O 0.97587 0.74860 0.79537
 O475 O 1.03256 0.74597 0.79080
 O476 O 0.97464 0.78944 0.75811
 O477 O 0.97115 0.75888 0.72248
 O478 O 1.02835 0.71542 0.75552
 O479 O 0.97227 0.71816 0.75962
 O480 O 1.02836 0.75705 0.71960
 Cu481 Cu 1.00403 0.77106 0.77838
 Cu482 Cu 0.99958 0.73453 0.73560
 C483 C 1.04085 0.77807 0.73110
 C484 C 0.96497 0.72643 0.78458
 C485 C 1.04065 0.72328 0.77856
 C486 C 0.96266 0.78121 0.73495
 O487 O 0.47037 0.74229 0.22349
 O488 O 0.53057 0.70473 0.25937
 O489 O 0.47327 0.70417 0.26314
 O490 O 0.52669 0.74191 0.21891
 O491 O 0.53068 0.77441 0.25226
 O492 O 0.47509 0.73788 0.29576
 O493 O 0.53240 0.73769 0.29283
 O494 O 0.47352 0.77610 0.25597
 Cu495 Cu 0.49995 0.71982 0.23807
 Cu496 Cu 0.50305 0.75986 0.27753
 C497 C 0.46171 0.76566 0.23370
 C498 C 0.54225 0.71516 0.28176
 C499 C 0.46475 0.71468 0.28682
 C500 C 0.53856 0.76418 0.22814
 O501 O -0.02154 0.78966 0.25257
 O502 O 0.03367 0.74860 0.21261
 O503 O -0.02343 0.74927 0.21389
 O504 O 0.03539 0.78866 0.24955
 O505 O 0.03639 0.75751 0.28455
 O506 O -0.02341 0.71877 0.24929
 O507 O 0.03411 0.71744 0.24752
 O508 O -0.01979 0.75928 0.28796
 Cu509 Cu 0.00555 0.77214 0.22862
 Cu510 Cu 0.00650 0.73494 0.27072
 C511 C -0.02922 0.78216 0.27758
 C512 C 0.04412 0.72655 0.22392
 C513 C -0.03317 0.72700 0.22523
 C514 C 0.04641 0.77940 0.27265
 O515 O 0.46944 0.77941 0.73826
 O516 O 0.53052 0.74036 0.70618
 O517 O 0.47299 0.73745 0.70278
 O518 O 0.52574 0.77981 0.74425
 O519 O 0.52505 0.74811 0.77868
 O520 O 0.47020 0.70769 0.73878
 O521 O 0.52820 0.70886 0.74072
 O522 O 0.46909 0.75069 0.77497
 Cu523 Cu 0.49979 0.76209 0.71916
 Cu524 Cu 0.49758 0.72545 0.76155
 C525 C 0.45962 0.77277 0.76270
 C526 C 0.54044 0.71859 0.71837
 C527 C 0.46217 0.71556 0.71405
 C528 C 0.53449 0.77100 0.76851
 C529 C 0.43715 0.30766 0.32085
 C530 C 0.41346 0.32067 0.33431
 C531 C 0.38818 0.32751 0.31888
 C532 C 0.38648 0.32048 0.28926
 C533 C 0.41077 0.30752 0.27549
 C534 C 0.43635 0.30124 0.29149
 C535 C 0.40805 0.30001 0.24637
 N536 N 0.38282 0.30518 0.23209
 N537 N 0.35993 0.31705 0.24504
 C538 C 0.36078 0.32467 0.27310
 H539 H 0.45633 0.30258 0.33345
 H540 H 0.41491 0.32552 0.35702
 H541 H 0.42548 0.28967 0.23490
 H542 H 0.34107 0.33326 0.28245
 C543 C 0.42006 0.77791 0.79871
 C544 C 0.39681 0.79190 0.81169
 C545 C 0.38748 0.81868 0.80260
 C546 C 0.40248 0.83089 0.77859
 C547 C 0.42854 0.81791 0.76780
 C548 C 0.43633 0.79027 0.77674
 C549 C 0.44593 0.83339 0.74852
 N550 N 0.43590 0.85779 0.73749
 N551 N 0.40971 0.86790 0.74444
 C552 C 0.39258 0.85521 0.76418
 H553 H 0.42532 0.75699 0.80617
 H554 H 0.38605 0.78114 0.82916
 H555 H 0.46768 0.82702 0.74245
 H556 H 0.37107 0.86391 0.76701
 C557 C -0.08408 0.30653 0.78284
 C558 C -0.10559 0.32161 0.79742
 C559 C -0.10445 0.32508 0.82729
 C560 C -0.07989 0.31453 0.84245
 C561 C -0.05797 0.29893 0.82757
 C562 C -0.06078 0.29411 0.79759
 C563 C -0.03343 0.28966 0.84315
 N564 N -0.03131 0.29536 0.87161
 N565 N -0.05181 0.30999 0.88549
 C566 C -0.07588 0.31990 0.87187
 H567 H -0.08625 0.30383 0.75986
 H568 H -0.12393 0.32973 0.78527
 H569 H -0.01554 0.27856 0.83299
 H570 H -0.09110 0.33260 0.88398
 C571 C -0.06787 0.78583 0.31459
 C572 C -0.08969 0.80011 0.32954
 C573 C -0.09525 0.82870 0.32455
 C574 C -0.07521 0.84388 0.30701
 C575 C -0.05238 0.82931 0.29224
 C576 C -0.04995 0.79963 0.29476
 C577 C -0.03201 0.84526 0.27653
 N578 N -0.03460 0.87356 0.27535
 N579 N -0.05574 0.88720 0.28928
 C580 C -0.07581 0.87347 0.30529
 H581 H -0.06587 0.76338 0.31774
 H582 H -0.10383 0.78790 0.34333
 H583 H -0.01329 0.83595 0.26607
 H584 H -0.09104 0.88610 0.31751
 C585 C 0.56846 0.69777 0.32464
 C586 C 0.59248 0.68558 0.33821
 C587 C 0.61690 0.67670 0.32239
 C588 C 0.61754 0.68108 0.29228
 C589 C 0.59305 0.69345 0.27844
 C590 C 0.56809 0.70142 0.29481
 C591 C 0.59502 0.69859 0.24877
 N592 N 0.61956 0.69149 0.23406
 N593 N 0.64249 0.67991 0.24702
 C594 C 0.64242 0.67464 0.27557
 H595 H 0.54984 0.70420 0.33754
 H596 H 0.59185 0.68273 0.36127
 H597 H 0.57763 0.70867 0.23715
 H598 H 0.66212 0.66608 0.28487
 C599 C 0.56645 0.18939 0.78054
 C600 C 0.58832 0.17461 0.79482
 C601 C 0.61050 0.18862 0.81009
 C602 C 0.61219 0.21853 0.80785
 C603 C 0.58991 0.23354 0.79297
 C604 C 0.56616 0.21876 0.78033
 C605 C 0.59305 0.26283 0.78987
 N606 N 0.61665 0.27611 0.80093
 N607 N 0.63774 0.26212 0.81432
 C608 C 0.63659 0.23394 0.81778
 H609 H 0.54902 0.17769 0.77028
 H610 H 0.58671 0.15192 0.79524
 H611 H 0.57771 0.27538 0.77790
 H612 H 0.65557 0.22405 0.82698
 C613 C 1.06839 0.70917 0.82160
 C614 C 1.09081 0.69534 0.83593
 C615 C 1.11061 0.67822 0.82107
 C616 C 1.10805 0.67545 0.79079
 C617 C 1.08433 0.68853 0.77613
 C618 C 1.06447 0.70617 0.79182
 C619 C 1.08223 0.68390 0.74622
 N620 N 1.10291 0.66871 0.73216
 N621 N 1.12578 0.65780 0.74571
 C622 C 1.12917 0.66079 0.77440
 H623 H 1.05370 0.72225 0.83417
 H624 H 1.09253 0.69786 0.85900
 H625 H 1.06468 0.69184 0.73341
 H626 H 1.14880 0.65223 0.78379
 C627 C 1.07799 0.21862 0.30802
 C628 C 1.10086 0.20470 0.32151
 C629 C 1.10633 0.17602 0.31645
 C630 C 1.08562 0.16057 0.29968
 C631 C 1.06183 0.17489 0.28623
 C632 C 1.05889 0.20451 0.28945
 C633 C 1.04097 0.15873 0.27124
 N634 N 1.04383 0.13047 0.26956
 N635 N 1.06570 0.11705 0.28237
 C636 C 1.08633 0.13097 0.29761
 H637 H 1.07585 0.24105 0.31152
 H638 H 1.11552 0.21719 0.33460
 H639 H 1.02174 0.16784 0.26170
 H640 H 1.10207 0.11837 0.30898
 C641 C 0.58657 0.28262 0.68733
 C642 C 0.61062 0.29496 0.67423
 C643 C 0.61274 0.32419 0.67196
 C644 C 0.58916 0.34125 0.68160
 C645 C 0.56474 0.32866 0.69527
 C646 C 0.56387 0.29908 0.69876
 C647 C 0.54159 0.34615 0.70413
 N648 N 0.54282 0.37422 0.69966
 N649 N 0.56557 0.38599 0.68663
 C650 C 0.58866 0.37050 0.67730
 H651 H 0.58621 0.25998 0.68949
 H652 H 0.62830 0.28153 0.66684
 H653 H 0.52229 0.33779 0.71403
 H654 H 0.60594 0.38119 0.66599
 C655 C 0.56654 0.80717 0.21752
 C656 C 0.58818 0.82255 0.20387
 C657 C 0.60635 0.81034 0.18293
 C658 C 0.60363 0.78085 0.17744
 C659 C 0.58052 0.76526 0.19051
 C660 C 0.56179 0.77872 0.21111
 C661 C 0.57814 0.73648 0.18318
 N662 N 0.59824 0.72403 0.16593
 N663 N 0.62094 0.73805 0.15563
 C664 C 0.62458 0.76572 0.16112
 H665 H 0.55296 0.81801 0.23314
 H666 H 0.58984 0.84468 0.20917
 H667 H 0.56113 0.72309 0.19089
 H668 H 0.64467 0.77491 0.15371
 C669 C 1.07668 0.27898 0.18884
 C670 C 1.09904 0.29240 0.17418
 C671 C 1.10449 0.32122 0.17812
 C672 C 1.08418 0.33726 0.19490
 C673 C 1.06104 0.32344 0.20972
 C674 C 1.05819 0.29377 0.20758
 C675 C 1.04064 0.34010 0.22495
 N676 N 1.04326 0.36841 0.22538
 N677 N 1.06445 0.38136 0.21113
 C678 C 1.08463 0.36690 0.19566
 H679 H 1.07448 0.25647 0.18618
 H680 H 1.11338 0.27944 0.16109
 H681 H 1.02195 0.33128 0.23569
 H682 H 1.09977 0.37898 0.18306
 C683 C 1.06835 0.82093 0.71838
 C684 C 1.09166 0.83507 0.70580
 C685 C 1.11367 0.82051 0.69068
 C686 C 1.11325 0.79047 0.69089
 C687 C 1.08905 0.77612 0.70325
 C688 C 1.06608 0.79165 0.71662
 C689 C 1.08961 0.74652 0.70327
 N690 N 1.11290 0.73234 0.69250
 N691 N 1.13608 0.74566 0.68219
 C692 C 1.13729 0.77404 0.68143
 H693 H 1.05153 0.83313 0.72917
 H694 H 1.09160 0.85780 0.70688
 H695 H 1.07232 0.73428 0.71234
 H696 H 1.15774 0.78309 0.67479
 C697 C 0.41646 0.71629 0.68625
 C698 C 0.39160 0.70366 0.67500
 C699 C 0.38789 0.67445 0.67592
 C700 C 0.41091 0.65753 0.68691
 C701 C 0.43629 0.67050 0.69859
 C702 C 0.43854 0.70024 0.69900
 C703 C 0.45899 0.65314 0.70865
 N704 N 0.45629 0.62483 0.70726
 N705 N 0.43262 0.61269 0.69623
 C706 C 0.40997 0.62801 0.68586
 H707 H 0.41779 0.73901 0.68618
 H708 H 0.37453 0.71706 0.66649
 H709 H 0.47917 0.66168 0.71694
 H710 H 0.39191 0.61685 0.67627
 C711 C 0.43326 0.19293 0.21782
 C712 C 0.40997 0.17855 0.20553
 C713 C 0.39106 0.19164 0.18597
 C714 C 0.39493 0.22098 0.18072
 C715 C 0.42021 0.23512 0.19139
 C716 C 0.43931 0.22096 0.21090
 C717 C 0.42442 0.26326 0.18276
 N718 N 0.40366 0.27683 0.16744
 N719 N 0.37873 0.26449 0.16020
 C720 C 0.37346 0.23734 0.16668
 H721 H 0.44712 0.18162 0.23269
 H722 H 0.40751 0.15657 0.21083
 H723 H 0.44350 0.27526 0.18788
 H724 H 0.35194 0.22950 0.16185
 C725 C -0.07801 0.72653 0.19585
 C726 C -0.10116 0.71336 0.18201
 C727 C -0.10430 0.68398 0.18229
 C728 C -0.08133 0.66758 0.19482
 C729 C -0.05761 0.68126 0.20904
 C730 C -0.05658 0.71106 0.21026
 C731 C -0.03482 0.66455 0.22017
 N732 N -0.03559 0.63628 0.21723
 N733 N -0.05721 0.62350 0.20337
 C734 C -0.07972 0.63806 0.19175
 H735 H -0.07731 0.74928 0.19592
 H736 H -0.11759 0.72668 0.17225
 H737 H -0.01580 0.67347 0.23034
 H738 H -0.09509 0.62622 0.17911
 C739 C -0.07222 0.18062 0.71253
 C740 C -0.09596 0.16712 0.69977
 C741 C -0.12073 0.18237 0.69146
 C742 C -0.12226 0.21161 0.69738
 C743 C -0.09803 0.22538 0.71011
 C744 C -0.07259 0.20974 0.71719
 C745 C -0.10061 0.25428 0.71632
 N746 N -0.12564 0.26825 0.71006
 N747 N -0.14844 0.25529 0.69829
 C748 C -0.14771 0.22751 0.69190
 H749 H -0.05314 0.16833 0.71827
 H750 H -0.09473 0.14472 0.69578
 H751 H -0.08327 0.26588 0.72653
 H752 H -0.16730 0.21813 0.68323
 C753 C 0.31151 0.44460 0.30254
 C754 C 0.32524 0.42250 0.31667
 C755 C 0.30996 0.39790 0.32317
 C756 C 0.28029 0.39526 0.31473
 C757 C 0.26625 0.41780 0.30039
 C758 C 0.28207 0.44277 0.29454
 C759 C 0.23719 0.41392 0.29110
 N760 N 0.22328 0.38936 0.29616
 N761 N 0.23647 0.36824 0.30957
 C762 C 0.26446 0.37025 0.31885
 H763 H 0.32400 0.46329 0.29771
 H764 H 0.34808 0.42457 0.32251
 H765 H 0.22542 0.42983 0.27948
 H766 H 0.27408 0.35203 0.32880
 C767 C 0.27971 -0.07346 0.81122
 C768 C 0.29325 -0.09628 0.82424
 C769 C 0.32312 -0.10206 0.81979
 C770 C 0.34031 -0.08167 0.80509
 C771 C 0.32644 -0.05808 0.79217
 C772 C 0.29554 -0.05498 0.79389
 C773 C 0.34426 -0.03768 0.77910
 N774 N 0.37371 -0.04084 0.77877
 N775 N 0.38671 -0.06263 0.79113
 C776 C 0.37117 -0.08285 0.80456
 H777 H 0.25627 -0.07102 0.81369
 H778 H 0.27949 -0.11071 0.83600
 H779 H 0.33543 -0.01867 0.77008
 H780 H 0.38336 -0.09883 0.81571
 C781 C 0.81982 0.43628 0.79942
 C782 C 0.83244 0.41286 0.81216
 C783 C 0.81521 0.39169 0.82447
 C784 C 0.78414 0.39346 0.82154
 C785 C 0.77127 0.41732 0.80807
 C786 C 0.78943 0.43933 0.79771
 C787 C 0.74069 0.41732 0.80374
 N788 N 0.72431 0.39532 0.81240
 N789 N 0.73631 0.37289 0.82449
 C790 C 0.76550 0.37101 0.82895
 H791 H 0.83408 0.45233 0.79086
 H792 H 0.85610 0.41196 0.81339
 H793 H 0.72940 0.43391 0.79272
 H794 H 0.77361 0.35132 0.83689
 C795 C 0.79127 -0.06718 0.31068
 C796 C 0.80494 -0.08892 0.32529
 C797 C 0.82166 -0.10907 0.31066
 C798 C 0.82410 -0.10746 0.28028
 C799 C 0.81165 -0.08425 0.26538
 C800 C 0.79429 -0.06415 0.28086
 C801 C 0.81650 -0.08286 0.23544
 N802 N 0.83098 -0.10376 0.22156
 N803 N 0.84093 -0.12619 0.23530
 C804 C 0.83774 -0.12890 0.26401
 H805 H 0.77844 -0.05224 0.32305
 H806 H 0.80264 -0.08977 0.34842
 H807 H 0.80886 -0.06594 0.22232
 H808 H 0.84519 -0.14824 0.27346
 C809 C 0.30686 0.56405 0.70857
 C810 C 0.31961 0.58700 0.69498
 C811 C 0.30342 0.61145 0.68950
 C812 C 0.27399 0.61312 0.69924
 C813 C 0.26090 0.58963 0.71278
 C814 C 0.27743 0.56473 0.71694
 C815 C 0.23192 0.59231 0.72280
 N816 N 0.21720 0.61681 0.71939
 N817 N 0.22957 0.63889 0.70700
 C818 C 0.25742 0.63793 0.69704
 H819 H 0.31991 0.54534 0.71201
 H820 H 0.34221 0.58539 0.68812
 H821 H 0.22093 0.57548 0.73382
 H822 H 0.26655 0.65680 0.68833
 C823 C 0.29126 1.07601 0.18514
 C824 C 0.30392 1.09894 0.17179
 C825 C 0.33277 1.10716 0.17794
 C826 C 0.35020 1.08929 0.19556
 C827 C 0.33729 1.06543 0.20891
 C828 C 0.30699 1.05962 0.20468
 C829 C 0.35566 1.04759 0.22497
 N830 N 0.38454 1.05322 0.22754
 N831 N 0.39666 1.07514 0.21470
 C832 C 0.38068 1.09306 0.19856
 H833 H 0.26838 1.07181 0.18093
 H834 H 0.29006 1.11144 0.15796
 H835 H 0.34799 1.02860 0.23472
 H836 H 0.39247 1.10912 0.18726
 C837 C 0.81536 0.58081 0.22064
 C838 C 0.82890 0.60361 0.20777
 C839 C 0.82356 0.61037 0.17891
 C840 C 0.80685 0.59122 0.16188
 C841 C 0.79358 0.56746 0.17500
 C842 C 0.79666 0.56320 0.20506
 C843 C 0.77895 0.54800 0.15719
 N844 N 0.77732 0.55225 0.12853
 N845 N 0.78988 0.57424 0.11622
 C846 C 0.80485 0.59355 0.13172
 H847 H 0.81881 0.57753 0.24338
 H848 H 0.84211 0.61714 0.22128
 H849 H 0.76975 0.52881 0.16527
 H850 H 0.81610 0.60962 0.11988
 C851 C 0.80401 1.07118 0.72038
 C852 C 0.81709 1.09446 0.70794
 C853 C 0.80081 1.11366 0.69157
 C854 C 0.76970 1.11031 0.69027
 C855 C 0.75629 1.08683 0.70379
 C856 C 0.77392 1.06646 0.71787
 C857 C 0.72542 1.08546 0.70418
 N858 N 0.70924 1.10564 0.69139
 N859 N 0.72163 1.12756 0.67885
 C860 C 0.75102 1.13079 0.67822
 H861 H 0.81778 1.05637 0.73170
 H862 H 0.84060 1.09653 0.70999
 H863 H 0.71363 1.06935 0.71537
 H864 H 0.75895 1.15004 0.66945
 C865 C 0.73256 0.57845 0.30929
 C866 C 0.71929 0.60022 0.32462
 C867 C 0.68898 0.60058 0.32920
 C868 C 0.67206 0.57730 0.31991
 C869 C 0.68560 0.55508 0.30426
 C870 C 0.71596 0.55632 0.29801
 C871 C 0.66831 0.53196 0.29610
 N872 N 0.63947 0.53143 0.30288
 N873 N 0.62679 0.55226 0.31751
 C874 C 0.64207 0.57505 0.32637
 H875 H 0.75584 0.57959 0.30508
 H876 H 0.73270 0.61764 0.33171
 H877 H 0.67746 0.51398 0.28502
 H878 H 0.63074 0.59078 0.33899
 C879 C 0.70649 1.07129 0.81988
 C880 C 0.69359 1.09458 0.83279
 C881 C 0.66502 1.10309 0.82568
 C882 C 0.64786 1.08479 0.80815
 C883 C 0.66096 1.06042 0.79549
 C884 C 0.69124 1.05477 0.79997
 C885 C 0.64286 1.04197 0.77983
 N886 N 0.61401 1.04771 0.77667
 N887 N 0.60176 1.07028 0.78859
 C888 C 0.61750 1.08873 0.80446
 H889 H 0.72930 1.06712 0.82453
 H890 H 0.70722 1.10727 0.84673
 H891 H 0.65073 1.02236 0.77109
 H892 H 0.60563 1.10539 0.81508
 C893 C 0.21330 0.56643 0.82528
 C894 C 0.20022 0.58817 0.84062
 C895 C 0.17066 0.59534 0.83627
 C896 C 0.15300 0.57654 0.81985
 C897 C 0.16635 0.55375 0.80473
 C898 C 0.19725 0.55015 0.80581
 C899 C 0.14806 0.53476 0.79000
 N900 N 0.11869 0.53860 0.79003
 N901 N 0.10620 0.55977 0.80424
 C902 C 0.12222 0.57860 0.81936
 H903 H 0.23669 0.56345 0.82755
 H904 H 0.21435 0.60098 0.85392
 H905 H 0.15641 0.51618 0.77947
 H906 H 0.11045 0.59406 0.83188
 C907 C 0.21824 1.06952 0.31043
 C908 C 0.20411 1.09211 0.32351
 C909 C 0.18741 1.11130 0.30755
 C910 C 0.18725 1.10862 0.27693
 C911 C 0.20253 1.08586 0.26351
 C912 C 0.21720 1.06551 0.28067
 C913 C 0.20407 1.08532 0.23322
 N914 N 0.19076 1.10552 0.21761
 N915 N 0.17664 1.12676 0.23003
 C916 C 0.17481 1.12927 0.25893
 H917 H 0.22986 1.05476 0.32389
 H918 H 0.20528 1.09378 0.34669
 H919 H 0.21656 1.06989 0.22147
 H920 H 0.16478 1.14817 0.26705
 C921 C 0.69269 0.43973 0.69711
 C922 C 0.68007 0.41686 0.68307
 C923 C 0.69357 0.39042 0.68358
 C924 C 0.71961 0.38665 0.69950
 C925 C 0.73292 0.41003 0.71302
 C926 C 0.71931 0.43677 0.71160
 C927 C 0.75904 0.40561 0.72833
 N928 N 0.77042 0.37938 0.73050
 N929 N 0.75738 0.35728 0.71852
 C930 C 0.73231 0.36000 0.70325
 H931 H 0.68190 0.46000 0.69622
 H932 H 0.65981 0.41986 0.67143
 H933 H 0.77036 0.42261 0.73884
 H934 H 0.72210 0.34127 0.69491
 C935 C 0.67316 -0.06234 0.20190
 C936 C 0.65801 -0.08453 0.18907
 C937 C 0.67231 -0.10986 0.18273
 C938 C 0.70203 -0.11341 0.19046
 C939 C 0.71734 -0.09096 0.20353
 C940 C 0.70295 -0.06498 0.20856
 C941 C 0.74642 -0.09561 0.21202
 N942 N 0.75940 -0.12083 0.20716
 N943 N 0.74513 -0.14185 0.19458
 C944 C 0.71690 -0.13908 0.18616
 H945 H 0.66173 -0.04278 0.20616
 H946 H 0.63521 -0.08171 0.18345
 H947 H 0.75873 -0.07961 0.22295
 H948 H 0.70629 -0.15713 0.17666
 C949 C 0.18113 0.43048 0.20820
 C950 C 0.16848 0.40660 0.19628
 C951 C 0.18568 0.38518 0.18394
 C952 C 0.21678 0.38699 0.18646
 C953 C 0.22966 0.41118 0.19941
 C954 C 0.21153 0.43365 0.20920
 C955 C 0.26023 0.41121 0.20365
 N956 N 0.27667 0.38900 0.19510
 N957 N 0.26471 0.36637 0.18320
 C958 C 0.23549 0.36441 0.17897
 H959 H 0.16687 0.44693 0.21632
 H960 H 0.14483 0.40573 0.19540
 H961 H 0.27141 0.42800 0.21459
 H962 H 0.22744 0.34461 0.17107
 C963 C 0.21881 -0.06926 0.69144
 C964 C 0.20490 -0.09126 0.67751
 C965 C 0.17537 -0.09761 0.68288
 C966 C 0.15886 -0.07865 0.70049
 C967 C 0.17314 -0.05562 0.71438
 C968 C 0.20385 -0.05182 0.71084
 C969 C 0.15579 -0.03647 0.73018
 N970 N 0.12652 -0.04024 0.73224
 N971 N 0.11317 -0.06146 0.71908
 C972 C 0.12816 -0.08047 0.70305
 H973 H 0.24202 -0.06658 0.68764
 H974 H 0.21830 -0.10456 0.66383
 H975 H 0.16465 -0.01786 0.74005
 H976 H 0.11551 -0.09584 0.69148
 C977 C 0.30113 0.28113 0.41801
 C978 C 0.31533 0.29609 0.39658
 C979 C 0.31684 0.32548 0.39762
 C980 C 0.30503 0.33993 0.42173
 C981 C 0.29026 0.32465 0.44346
 C982 C 0.28766 0.29501 0.44110
 C983 C 0.27960 0.33954 0.46744
 N984 N 0.28326 0.36771 0.46940
 N985 N 0.29720 0.38201 0.44913
 C986 C 0.30835 0.36911 0.42551
 H987 H 0.30000 0.25851 0.41607
 H988 H 0.32444 0.28458 0.37853
 H989 H 0.26901 0.32903 0.48493
 H990 H 0.32036 0.38177 0.41042
 C991 C 0.30223 0.81713 -0.06864
 C992 C 0.31281 0.83049 -0.09308
 C993 C 0.31690 0.81565 -0.11889
 C994 C 0.30907 0.78686 -0.12030
 C995 C 0.29872 0.77320 -0.09527
 C996 C 0.29570 0.78844 -0.06916
 C997 C 0.29053 0.74487 -0.09756
 N998 N 0.29253 0.73120 -0.12308
 N999 N 0.30188 0.74406 -0.14662
 C1000 C 0.31001 0.77139 -0.14618
 H1001 H 0.29945 0.82921 -0.04903
 H1002 H 0.31838 0.85255 -0.09165
 H1003 H 0.28210 0.73361 -0.07943
 H1004 H 0.31633 0.78079 -0.16626
 C1005 C 0.77378 0.29768 -0.08257
 C1006 C 0.78809 0.31281 -0.10382
 C1007 C 0.81724 0.32117 -0.10033
 C1008 C 0.83186 0.31503 -0.07426
 C1009 C 0.81743 0.29917 -0.05278
 C1010 C 0.78826 0.29014 -0.05730
 C1011 C 0.83243 0.29384 -0.02699
 N1012 N 0.85985 0.30390 -0.02308
 N1013 N 0.87318 0.31913 -0.04305
 C1014 C 0.86008 0.32517 -0.06837
 H1015 H 0.75135 0.29126 -0.08615
 H1016 H 0.77645 0.31747 -0.12345
 H1017 H 0.82252 0.28226 -0.00967
 H1018 H 0.87149 0.33850 -0.08325
 C1019 C 0.81415 0.78469 0.42092
 C1020 C 0.82738 0.79774 0.39772
 C1021 C 0.82462 0.82669 0.39352
 C1022 C 0.80883 0.84300 0.41401
 C1023 C 0.79446 0.82956 0.43735
 C1024 C 0.79715 0.79991 0.44075
 C1025 C 0.77884 0.84663 0.45691
 N1026 N 0.77826 0.87488 0.45370
 N1027 N 0.79241 0.88742 0.43241
 C1028 C 0.80781 0.87255 0.41265
 H1029 H 0.81679 0.76218 0.42300
 H1030 H 0.83957 0.78489 0.38257
 H1031 H 0.76727 0.83823 0.47496
 H1032 H 0.81967 0.88418 0.39665
 C1033 C 0.69408 0.30178 0.55736
 C1034 C 0.68119 0.31481 0.58106
 C1035 C 0.69702 0.31929 0.60641
 C1036 C 0.72648 0.30991 0.60798
 C1037 C 0.73982 0.29701 0.58368
 C1038 C 0.72333 0.29303 0.55810
 C1039 C 0.76882 0.28716 0.58648
 N1040 N 0.78318 0.29003 0.61174
 N1041 N 0.77053 0.30181 0.63455
 C1042 C 0.74271 0.31163 0.63358
 H1043 H 0.68105 0.29841 0.53824
 H1044 H 0.65856 0.32150 0.57959
 H1045 H 0.78019 0.27658 0.56928
 H1046 H 0.73344 0.31995 0.65304
 C1047 C 0.71461 0.81307 1.07720
 C1048 C 0.69990 0.82678 1.09936
 C1049 C 0.66926 0.82666 1.10074
 C1050 C 0.65314 0.81439 1.07798
 C1051 C 0.66815 0.80063 1.05516
 C1052 C 0.69919 0.79890 1.05563
 C1053 C 0.65149 0.78965 1.03233
 N1054 N 0.62192 0.79183 1.03279
 N1055 N 0.60786 0.80447 1.05434
 C1056 C 0.62242 0.81592 1.07685
 H1057 H 0.73830 0.81229 1.07780
 H1058 H 0.71266 0.83618 1.11646
 H1059 H 0.66158 0.78002 1.01374
 H1060 H 0.60985 0.82666 1.09324
 C1061 C 0.19963 0.27324 1.08349
 C1062 C 0.18591 0.28668 1.10653
 C1063 C 0.18211 0.31587 1.10680
 C1064 C 0.19081 0.33167 1.08254
 C1065 C 0.20455 0.31795 1.05895
 C1066 C 0.20983 0.28858 1.05997
 C1067 C 0.21164 0.33407 1.03467
 N1068 N 0.20586 0.36200 1.03444
 N1069 N 0.19319 0.37489 1.05664
 C1070 C 0.18533 0.36071 1.08057
 H1071 H 0.20314 0.25075 1.08447
 H1072 H 0.17899 0.27426 1.12471
 H1073 H 0.22106 0.32476 1.01558
 H1074 H 0.17435 0.37224 1.09748
 C1075 C 0.18119 0.80529 0.56629
 C1076 C 0.16825 0.81911 0.58947
 C1077 C 0.18464 0.82620 0.61376
 C1078 C 0.21463 0.81868 0.61505
 C1079 C 0.22781 0.80427 0.59157
 C1080 C 0.21089 0.79795 0.56677
 C1081 C 0.25715 0.79551 0.59446
 N1082 N 0.27217 0.80145 0.61880
 N1083 N 0.25988 0.81526 0.64062
 C1084 C 0.23165 0.82395 0.63966
 H1085 H 0.16785 0.80026 0.54775
 H1086 H 0.14518 0.82433 0.58846
 H1087 H 0.26824 0.78344 0.57808
 H1088 H 0.22275 0.83446 0.65835
 C1089 C 0.30374 0.69378 0.56108
 C1090 C 0.31654 0.68024 0.58441
 C1091 C 0.30359 0.68148 0.61167
 C1092 C 0.27755 0.69723 0.61561
 C1093 C 0.26386 0.71001 0.59171
 C1094 C 0.27730 0.70838 0.56428
 C1095 C 0.23775 0.72514 0.59642
 N1096 N 0.22685 0.72797 0.62336
 N1097 N 0.24036 0.71689 0.64592
 C1098 C 0.26540 0.70183 0.64298
 H1099 H 0.31450 0.69282 0.54036
 H1100 H 0.33683 0.66880 0.58120
 H1101 H 0.22607 0.73503 0.57911
 H1102 H 0.27611 0.69443 0.66210
 C1103 C 0.28221 0.19252 1.07932
 C1104 C 0.29585 0.17898 1.10207
 C1105 C 0.32632 0.17911 1.10468
 C1106 C 0.34352 0.19159 1.08290
 C1107 C 0.32965 0.20555 1.05975
 C1108 C 0.29859 0.20668 1.05846
 C1109 C 0.34752 0.21716 1.03829
 N1110 N 0.37703 0.21502 1.04004
 N1111 N 0.39000 0.20181 1.06167
 C1112 C 0.37430 0.18990 1.08304
 H1113 H 0.25852 0.19279 1.07862
 H1114 H 0.28240 0.16935 1.11843
 H1115 H 0.33850 0.22741 1.01986
 H1116 H 0.38610 0.17867 1.09946
 C1117 C 0.81406 0.71322 1.06979
 C1118 C 0.82847 0.70075 1.09278
 C1119 C 0.81291 0.69146 1.11682
 C1120 C 0.78227 0.69618 1.11830
 C1121 C 0.76757 0.70905 1.09492
 C1122 C 0.78362 0.71686 1.07009
 C1123 C 0.73741 0.71461 1.09776
 N1124 N 0.72306 0.70725 1.12204
 N1125 N 0.73681 0.69504 1.14384
 C1126 C 0.76587 0.68941 1.14289
 H1127 H 0.82675 0.71947 1.05125
 H1128 H 0.85191 0.69755 1.09141
 H1129 H 0.72511 0.72529 1.08133
 H1130 H 0.77587 0.68030 1.16167
 C1131 C 0.81286 0.19052 0.56248
 C1132 C 0.82397 0.17810 0.58722
 C1133 C 0.80883 0.18024 0.61328
 C1134 C 0.78242 0.19576 0.61470
 C1135 C 0.77042 0.20727 0.58936
 C1136 C 0.78600 0.20473 0.56311
 C1137 C 0.74371 0.22197 0.59149
 N1138 N 0.73073 0.22569 0.61742
 N1139 N 0.74264 0.21580 0.64138
 C1140 C 0.76810 0.20114 0.64094
 H1141 H 0.82518 0.18887 0.54266
 H1142 H 0.84455 0.16679 0.58607
 H1143 H 0.73319 0.23093 0.57298
 H1144 H 0.77722 0.19440 0.66115
 C1145 C 0.69295 0.70518 0.44136
 C1146 C 0.67908 0.69044 0.41933
 C1147 C 0.69463 0.68159 0.39497
 C1148 C 0.72461 0.68875 0.39225
 C1149 C 0.73875 0.70387 0.41463
 C1150 C 0.72281 0.71161 0.43971
 C1151 C 0.76813 0.71177 0.41048
 N1152 N 0.78230 0.70456 0.38594
 N1153 N 0.76908 0.69031 0.36505
 C1154 C 0.74075 0.68232 0.36726
 H1155 H 0.68032 0.71131 0.46009
 H1156 H 0.65606 0.68553 0.42150
 H1157 H 0.77993 0.72410 0.42606
 H1158 H 0.73108 0.67160 0.34915
 C1159 C 0.71810 0.19375 -0.08131
 C1160 C 0.70428 0.18110 -0.10462
 C1161 C 0.67374 0.18034 -0.10639
 C1162 C 0.65675 0.19119 -0.08337
 C1163 C 0.67083 0.20363 -0.05928
 C1164 C 0.70184 0.20580 -0.05883
 C1165 C 0.65329 0.21256 -0.03606
 N1166 N 0.62380 0.20997 -0.03741
 N1167 N 0.61062 0.19877 -0.06019
 C1168 C 0.62604 0.18917 -0.08311
 H1169 H 0.74177 0.19486 -0.08127
 H1170 H 0.71756 0.17256 -0.12189
 H1171 H 0.66257 0.22087 -0.01650
 H1172 H 0.61413 0.17959 -0.10060
 C1173 C 0.19049 0.70895 -0.06413
 C1174 C 0.17484 0.69599 -0.08609
 C1175 C 0.18884 0.67850 -0.10602
 C1176 C 0.21958 0.67456 -0.10414
 C1177 C 0.23543 0.68614 -0.08060
 C1178 C 0.22067 0.70438 -0.06066
 C1179 C 0.26555 0.67940 -0.07880
 N1180 N 0.27878 0.66422 -0.09982
 N1181 N 0.26424 0.65521 -0.12273
 C1182 C 0.23526 0.66008 -0.12574
 H1183 H 0.17862 0.72253 -0.04942
 H1184 H 0.15143 0.69942 -0.08729
 H1185 H 0.27936 0.68593 -0.06146
 H1186 H 0.22507 0.65319 -0.14542
 C1187 C 0.18225 0.19974 0.43313
 C1188 C 0.16977 0.18670 0.40927
 C1189 C 0.18662 0.18005 0.38500
 C1190 C 0.21675 0.18739 0.38460
 C1191 C 0.22960 0.20020 0.40917
 C1192 C 0.21209 0.20630 0.43368
 C1193 C 0.25935 0.20772 0.40774
 N1194 N 0.27495 0.20286 0.38346
 N1195 N 0.26281 0.19132 0.36032
 C1196 C 0.23430 0.18365 0.35995
 H1197 H 0.16848 0.20466 0.45143
 H1198 H 0.14669 0.18164 0.40981
 H1199 H 0.27043 0.21778 0.42538
 H1200 H 0.22570 0.17543 0.34009
 C1201 C 0.31047 0.44065 0.70280
 C1202 C 0.32429 0.41800 0.68938
 C1203 C 0.30876 0.39354 0.68257
 C1204 C 0.27889 0.39145 0.69043
 C1205 C 0.26473 0.41457 0.70396
 C1206 C 0.28068 0.43958 0.70967
 C1207 C 0.23532 0.41128 0.71244
 N1208 N 0.22128 0.38672 0.70747
 N1209 N 0.23461 0.36506 0.69486
 C1210 C 0.26290 0.36650 0.68632
 H1211 H 0.32309 0.45931 0.70762
 H1212 H 0.34722 0.41977 0.68379
 H1213 H 0.22337 0.42764 0.72342
 H1214 H 0.27269 0.34787 0.67706
 C1215 C 0.28845 0.92064 0.19352
 C1216 C 0.30144 0.89764 0.18009
 C1217 C 0.33187 0.89464 0.17939
 C1218 C 0.34964 0.91606 0.19145
 C1219 C 0.33636 0.93969 0.20511
 C1220 C 0.30536 0.94161 0.20665
 C1221 C 0.35473 0.96099 0.21577
 N1222 N 0.38417 0.95853 0.21329
 N1223 N 0.39656 0.93640 0.20057
 C1224 C 0.38036 0.91521 0.18944
 H1225 H 0.26477 0.92169 0.19421
 H1226 H 0.28751 0.88156 0.17093
 H1227 H 0.34616 0.97985 0.22551
 H1228 H 0.39171 0.89829 0.17858
 C1229 C 0.77933 0.42698 0.18284
 C1230 C 0.79237 0.40413 0.16905
 C1231 C 0.82288 0.40159 0.16759
 C1232 C 0.84051 0.42391 0.17795
 C1233 C 0.82720 0.44725 0.19197
 C1234 C 0.79638 0.44797 0.19568
 C1235 C 0.84527 0.46943 0.20117
 N1236 N 0.87459 0.46797 0.19698
 N1237 N 0.88706 0.44604 0.18397
 C1238 C 0.87106 0.42406 0.17420
 H1239 H 0.75573 0.42742 0.18481
 H1240 H 0.77847 0.38751 0.16093
 H1241 H 0.83642 0.48825 0.21094
 H1242 H 0.88235 0.40734 0.16296
 C1243 C 0.81251 0.94321 0.70834
 C1244 C 0.82787 0.92099 0.69571
 C1245 C 0.81357 0.89611 0.68800
 C1246 C 0.78335 0.89313 0.69405
 C1247 C 0.76766 0.91571 0.70688
 C1248 C 0.78240 0.94121 0.71357
 C1249 C 0.73796 0.91140 0.71376
 N1250 N 0.72507 0.88645 0.70786
 N1251 N 0.73980 0.86534 0.69579
 C1252 C 0.76846 0.86775 0.68882
 H1253 H 0.82419 0.96224 0.71387
 H1254 H 0.85107 0.92332 0.69166
 H1255 H 0.72487 0.92718 0.72436
 H1256 H 0.77933 0.84955 0.67984
 C1257 C 0.73167 0.57835 0.69308
 C1258 C 0.71856 0.60100 0.67937
 C1259 C 0.68821 0.60194 0.67510
 C1260 C 0.67101 0.57853 0.68319
 C1261 C 0.68441 0.55537 0.69715
 C1262 C 0.71489 0.55586 0.70299
 C1263 C 0.66687 0.53213 0.70409
 N1264 N 0.63794 0.53234 0.69775
 N1265 N 0.62539 0.55405 0.68472
 C1266 C 0.64090 0.57704 0.67709
 H1267 H 0.75498 0.57906 0.69720
 H1268 H 0.73217 0.61852 0.67315
 H1269 H 0.67589 0.51350 0.71384
 H1270 H 0.62962 0.59355 0.66575
 C1271 C 0.71934 0.07755 0.19323
 C1272 C 0.70592 0.10063 0.18066
 C1273 C 0.67542 0.10338 0.18051
 C1274 C 0.65805 0.08151 0.19211
 C1275 C 0.67179 0.05785 0.20493
 C1276 C 0.70279 0.05632 0.20608
 C1277 C 0.65391 0.03608 0.21520
 N1278 N 0.62441 0.03815 0.21309
 N1279 N 0.61156 0.06029 0.20113
 C1280 C 0.62731 0.08191 0.19043
 H1281 H 0.74303 0.07668 0.19360
 H1282 H 0.71959 0.11697 0.17177
 H1283 H 0.66293 0.01714 0.22427
 H1284 H 0.61558 0.09877 0.18013
 C1285 C 0.22314 0.57745 0.18700
 C1286 C 0.21100 0.60065 0.17348
 C1287 C 0.18068 0.60304 0.16980
 C1288 C 0.16243 0.58046 0.17816
 C1289 C 0.17486 0.55667 0.19190
 C1290 C 0.20541 0.55577 0.19727
 C1291 C 0.15627 0.53427 0.19909
 N1292 N 0.12728 0.53588 0.19325
 N1293 N 0.11563 0.55819 0.18046
 C1294 C 0.13219 0.58042 0.17258
 H1295 H 0.24653 0.57713 0.19072
 H1296 H 0.22539 0.61753 0.16709
 H1297 H 0.16450 0.51519 0.20861
 H1298 H 0.12159 0.59748 0.16145
 C1299 C 0.18306 0.06761 0.70936
 C1300 C 0.16906 0.08983 0.69561
 C1301 C 0.18485 0.11313 0.68586
 C1302 C 0.21542 0.11445 0.69130
 C1303 C 0.22975 0.09158 0.70486
 C1304 C 0.21338 0.06780 0.71357
 C1305 C 0.25995 0.09383 0.71032
 N1306 N 0.27464 0.11734 0.70285
 N1307 N 0.26116 0.13892 0.69058
 C1308 C 0.23214 0.13837 0.68477
 H1309 H 0.17019 0.04979 0.71621
 H1310 H 0.14567 0.08857 0.69208
 H1311 H 0.27203 0.07746 0.72088
 H1312 H 0.22249 0.15696 0.67588
 C1313 C 0.30761 0.56367 0.29919
 C1314 C 0.32045 0.58690 0.31244
 C1315 C 0.30649 0.61313 0.31237
 C1316 C 0.27961 0.61624 0.29759
 C1317 C 0.26620 0.59250 0.28469
 C1318 C 0.28028 0.56598 0.28585
 C1319 C 0.23956 0.59641 0.27008
 N1320 N 0.22758 0.62241 0.26826
 N1321 N 0.24053 0.64478 0.27980
 C1322 C 0.26619 0.64260 0.29420
 H1323 H 0.31885 0.54362 0.29977
 H1324 H 0.34125 0.58428 0.32325
 H1325 H 0.22834 0.57919 0.25973
 H1326 H 0.27634 0.66155 0.30202
 C1327 C 0.31310 0.08187 0.77558
 C1328 C 0.32699 0.10465 0.78830
 C1329 C 0.32981 0.10669 0.81821
 C1330 C 0.32028 0.08389 0.83542
 C1331 C 0.30553 0.06085 0.82239
 C1332 C 0.30096 0.06052 0.79226
 C1333 C 0.29685 0.03838 0.83991
 N1334 N 0.30251 0.03904 0.86845
 N1335 N 0.31656 0.06044 0.88062
 C1336 C 0.32581 0.08272 0.86512
 H1337 H 0.31083 0.08158 0.75248
 H1338 H 0.33458 0.12141 0.77456
 H1339 H 0.28636 0.01992 0.83121
 H1340 H 0.33818 0.09873 0.87615
 C1341 C 0.81858 0.56136 0.80630
 C1342 C 0.83167 0.58438 0.81972
 C1343 C 0.81911 0.61115 0.81780
 C1344 C 0.79352 0.61505 0.80120
 C1345 C 0.77979 0.59159 0.78820
 C1346 C 0.79239 0.56454 0.79107
 C1347 C 0.75427 0.59620 0.77200
 N1348 N 0.74368 0.62263 0.76879
 N1349 N 0.75696 0.64473 0.78050
 C1350 C 0.78157 0.64186 0.79644
 H1351 H 0.82865 0.54083 0.80824
 H1352 H 0.85148 0.58122 0.83205
 H1353 H 0.74280 0.57917 0.76162
 H1354 H 0.79198 0.66059 0.80463
 C1355 C 0.80153 0.07752 0.27229
 C1356 C 0.81603 0.09916 0.28649
 C1357 C 0.82283 0.09713 0.31574
 C1358 C 0.81638 0.07193 0.33054
 C1359 C 0.80152 0.04987 0.31606
 C1360 C 0.79332 0.05318 0.28690
 C1361 C 0.79624 0.02482 0.33110
 N1362 N 0.80502 0.02230 0.35875
 N1363 N 0.81898 0.04295 0.37230
 C1364 C 0.82511 0.06756 0.35915
 H1365 H 0.79576 0.08022 0.24992
 H1366 H 0.82104 0.11812 0.27474
 H1367 H 0.78583 0.00696 0.32108
 H1368 H 0.83735 0.08310 0.37104
 C1369 C 0.71701 0.43660 0.31364
 C1370 C 0.70413 0.41397 0.32754
 C1371 C 0.69252 0.39142 0.31190
 C1372 C 0.69497 0.39120 0.28153
 C1373 C 0.70807 0.41430 0.26732
 C1374 C 0.71869 0.43742 0.28364
 C1375 C 0.71117 0.41284 0.23725
 N1376 N 0.70154 0.39002 0.22260
 N1377 N 0.68932 0.36838 0.23592
 C1378 C 0.68588 0.36808 0.26481
 H1379 H 0.72535 0.45387 0.32644
 H1380 H 0.70281 0.41427 0.35077
 H1381 H 0.72164 0.42923 0.22519
 H1382 H 0.67667 0.34948 0.27431
 C1383 C 0.67623 0.93205 0.79932
 C1384 C 0.66435 0.90748 0.81040
 C1385 C 0.68167 0.88343 0.81404
 C1386 C 0.71139 0.88390 0.80530
 C1387 C 0.72368 0.90906 0.79458
 C1388 C 0.70586 0.93339 0.79190
 C1389 C 0.75317 0.90856 0.78569
 N1390 N 0.76893 0.88447 0.78720
 N1391 N 0.75720 0.86077 0.79676
 C1392 C 0.72900 0.85965 0.80566
 H1393 H 0.66225 0.95029 0.79684
 H1394 H 0.64147 0.90734 0.81653
 H1395 H 0.76383 0.92678 0.77701
 H1396 H 0.72043 0.83966 0.81206
 C1397 C 0.17772 0.43319 0.79929
 C1398 C 0.16504 0.40991 0.81219
 C1399 C 0.18168 0.38588 0.81799
 C1400 C 0.21142 0.38475 0.80940
 C1401 C 0.22435 0.40843 0.79618
 C1402 C 0.20739 0.43307 0.79180
 C1403 C 0.25358 0.40616 0.78677
 N1404 N 0.26870 0.38197 0.79075
 N1405 N 0.25658 0.35980 0.80324
 C1406 C 0.22849 0.36029 0.81256
 H1407 H 0.16438 0.45167 0.79559
 H1408 H 0.14216 0.41087 0.81825
 H1409 H 0.26447 0.42302 0.77575
 H1410 H 0.21970 0.34134 0.82176
 C1411 C 0.19176 0.94074 0.29123
 C1412 C 0.17782 0.91848 0.30484
 C1413 C 0.19383 0.89539 0.31482
 C1414 C 0.22444 0.89417 0.30994
 C1415 C 0.23865 0.91680 0.29605
 C1416 C 0.22212 0.94054 0.28720
 C1417 C 0.26885 0.91428 0.29038
 N1418 N 0.28364 0.89094 0.29849
 N1419 N 0.27030 0.86976 0.31157
 C1420 C 0.24126 0.87047 0.31740
 H1421 H 0.17879 0.95846 0.28413
 H1422 H 0.15435 0.91945 0.30796
 H1423 H 0.28086 0.93025 0.27908
 H1424 H 0.23165 0.85222 0.32723
 C1425 C 0.42021 0.28724 0.68529
 C1426 C 0.39662 0.30010 0.67183
 C1427 C 0.39268 0.32924 0.67323
 C1428 C 0.41408 0.34590 0.68728
 C1429 C 0.43770 0.33276 0.70196
 C1430 C 0.44061 0.30290 0.70110
 C1431 C 0.45785 0.35027 0.71627
 N1432 N 0.45501 0.37857 0.71515
 N1433 N 0.43352 0.39076 0.70057
 C1434 C 0.41312 0.37546 0.68648
 H1435 H 0.42187 0.26456 0.68416
 H1436 H 0.38071 0.28696 0.66104
 H1437 H 0.47600 0.34218 0.72821
 H1438 H 0.39690 0.38668 0.67420
 C1439 C 0.43976 0.78445 0.18943
 C1440 C 0.41848 0.79942 0.17456
 C1441 C 0.39441 0.81119 0.18893
 C1442 C 0.39112 0.80663 0.21889
 C1443 C 0.41307 0.79168 0.23411
 C1444 C 0.43781 0.78094 0.21919
 C1445 C 0.40887 0.78703 0.26364
 N1446 N 0.38439 0.79666 0.27690
 N1447 N 0.36365 0.81036 0.26260
 C1448 C 0.36605 0.81549 0.23411
 H1449 H 0.45834 0.77609 0.17766
 H1450 H 0.42118 0.80235 0.15166
 H1451 H 0.42445 0.77541 0.27629
 H1452 H 0.34793 0.82579 0.22369
 C1453 C 0.93280 0.29271 0.18401
 C1454 C 0.91006 0.30557 0.16926
 C1455 C 0.88893 0.32157 0.18372
 C1456 C 0.89071 0.32428 0.21410
 C1457 C 0.91489 0.31242 0.22915
 C1458 C 0.93588 0.29573 0.21385
 C1459 C 0.91632 0.31715 0.25908
 N1460 N 0.89456 0.33114 0.27285
 N1461 N 0.87125 0.34072 0.25897
 C1462 C 0.86845 0.33757 0.23023
 H1463 H 0.94840 0.28034 0.17174
 H1464 H 0.90915 0.30311 0.14614
 H1465 H 0.93406 0.30994 0.27218
 H1466 H 0.84838 0.34485 0.22065
 C1467 C 0.93987 0.80371 0.69298
 C1468 C 0.91693 0.81739 0.67921
 C1469 C 0.89148 0.82501 0.69415
 C1470 C 0.88901 0.81819 0.72375
 C1471 C 0.91268 0.80464 0.73791
 C1472 C 0.93830 0.79741 0.72225
 C1473 C 0.90923 0.79755 0.76702
 N1474 N 0.88387 0.80354 0.78087
 N1475 N 0.86156 0.81582 0.76754
 C1476 C 0.86313 0.82312 0.73952
 H1477 H 0.95910 0.79797 0.68062
 H1478 H 0.91910 0.82207 0.65657
 H1479 H 0.92617 0.78695 0.77890
 H1480 H 0.84382 0.83204 0.72989
 C1481 C 0.58367 0.28371 0.31251
 C1482 C 0.60812 0.29643 0.32453
 C1483 C 0.61071 0.32576 0.32552
 C1484 C 0.58691 0.34256 0.31608
 C1485 C 0.56200 0.32953 0.30361
 C1486 C 0.56102 0.29985 0.30087
 C1487 C 0.53850 0.34672 0.29506
 N1488 N 0.54005 0.37494 0.29861
 N1489 N 0.56332 0.38714 0.31039
 C1490 C 0.58667 0.37196 0.31939
 H1491 H 0.58315 0.26102 0.31104
 H1492 H 0.62581 0.28313 0.33194
 H1493 H 0.51860 0.33805 0.28628
 H1494 H 0.60436 0.38305 0.32971
 C1495 C 0.58025 0.77105 0.79599
 C1496 C 0.60290 0.78417 0.81060
 C1497 C 0.60308 0.81335 0.81451
 C1498 C 0.57908 0.82951 0.80440
 C1499 C 0.55594 0.81606 0.78935
 C1500 C 0.55697 0.78661 0.78470
 C1501 C 0.53205 0.83250 0.78040
 N1502 N 0.53158 0.86047 0.78594
 N1503 N 0.55320 0.87306 0.80010
 C1504 C 0.57679 0.85857 0.80966
 H1505 H 0.58132 0.74850 0.79280
 H1506 H 0.62094 0.77141 0.81818
 H1507 H 0.51346 0.82341 0.76961
 H1508 H 0.59307 0.86987 0.82184
 C1509 C 0.08140 0.27287 0.80419
 C1510 C 0.10423 0.28656 0.81807
 C1511 C 0.10355 0.31570 0.82227
 C1512 C 0.07858 0.33119 0.81356
 C1513 C 0.05519 0.31720 0.79952
 C1514 C 0.05716 0.28788 0.79411
 C1515 C 0.03015 0.33296 0.79234
 N1516 N 0.02901 0.36082 0.79839
 N1517 N 0.05101 0.37395 0.81140
 C1518 C 0.07564 0.36012 0.81932
 H1519 H 0.08302 0.25041 0.80064
 H1520 H 0.12302 0.27438 0.82485
 H1521 H 0.01119 0.32344 0.78257
 H1522 H 0.09232 0.37180 0.83059
 C1523 C 0.06938 0.80268 0.31429
 C1524 C 0.09243 0.81666 0.32759
 C1525 C 0.11839 0.82221 0.31268
 C1526 C 0.12157 0.81248 0.28396
 C1527 C 0.09796 0.79845 0.27034
 C1528 C 0.07156 0.79395 0.28563
 C1529 C 0.10205 0.78834 0.24214
 N1530 N 0.12801 0.79209 0.22865
 N1531 N 0.15024 0.80502 0.24149
 C1532 C 0.14800 0.81518 0.26865
 H1533 H 0.04949 0.79897 0.32635
 H1534 H 0.08983 0.82352 0.34968
 H1535 H 0.08514 0.77706 0.23080
 H1536 H 0.16717 0.82463 0.27807
 C1537 C 0.56688 0.67708 0.69877
 C1538 C 0.59145 0.66442 0.68633
 C1539 C 0.61724 0.67969 0.68189
 C1540 C 0.61879 0.70792 0.69170
 C1541 C 0.59372 0.72087 0.70405
 C1542 C 0.56739 0.70540 0.70698
 C1543 C 0.59617 0.74877 0.71398
 N1544 N 0.62195 0.76254 0.71173
 N1545 N 0.64554 0.75030 0.70045
 C1546 C 0.64492 0.72350 0.69053
 H1547 H 0.54707 0.66491 0.70128
 H1548 H 0.59009 0.64269 0.67945
 H1549 H 0.57809 0.75966 0.72399
 H1550 H 0.66508 0.71457 0.68251
 C1551 C 0.56451 0.21150 0.19022
 C1552 C 0.58652 0.19661 0.17614
 C1553 C 0.61011 0.18521 0.19134
 C1554 C 0.61194 0.18972 0.22146
 C1555 C 0.58929 0.20471 0.23588
 C1556 C 0.56523 0.21537 0.22001
 C1557 C 0.59222 0.20955 0.26559
 N1558 N 0.61608 0.19995 0.27975
 N1559 N 0.63739 0.18613 0.26622
 C1560 C 0.63627 0.18086 0.23762
 H1561 H 0.54648 0.21977 0.17773
 H1562 H 0.58491 0.19367 0.15311
 H1563 H 0.57616 0.22128 0.27772
 H1564 H 0.65479 0.17042 0.22789
 C1565 C 0.06692 0.70625 0.18028
 C1566 C 0.08960 0.69253 0.16583
 C1567 C 0.11474 0.68392 0.18050
 C1568 C 0.11761 0.69015 0.21016
 C1569 C 0.09465 0.70435 0.22485
 C1570 C 0.06879 0.71183 0.20979
 C1571 C 0.09901 0.71159 0.25391
 N1572 N 0.12428 0.70451 0.26726
 N1573 N 0.14566 0.69095 0.25354
 C1574 C 0.14328 0.68366 0.22548
 H1575 H 0.04759 0.71231 0.16837
 H1576 H 0.08736 0.68826 0.14307
 H1577 H 0.08299 0.72331 0.26610
 H1578 H 0.16173 0.67335 0.21540
 C1579 C 0.07534 0.21990 0.69530
 C1580 C 0.09855 0.20685 0.68125
 C1581 C 0.10060 0.17753 0.67973
 C1582 C 0.07770 0.16106 0.69143
 C1583 C 0.05385 0.17443 0.70575
 C1584 C 0.05323 0.20417 0.70837
 C1585 C 0.03098 0.15750 0.71604
 N1586 N 0.03224 0.12923 0.71262
 N1587 N 0.05460 0.11673 0.69934
 C1588 C 0.07723 0.13163 0.68849
 H1589 H 0.07522 0.24262 0.69679
 H1590 H 0.11567 0.21987 0.67235
 H1591 H 0.01175 0.16633 0.72613
 H1592 H 0.09419 0.12031 0.67712
 C1593 C 0.41906 0.71761 0.31497
 C1594 C 0.39391 0.70583 0.32658
 C1595 C 0.39002 0.67665 0.32707
 C1596 C 0.41326 0.65897 0.31765
 C1597 C 0.43891 0.67103 0.30562
 C1598 C 0.44118 0.70066 0.30322
 C1599 C 0.46180 0.65293 0.29720
 N1600 N 0.45901 0.62480 0.30038
 N1601 N 0.43505 0.61352 0.31168
 C1602 C 0.41221 0.62958 0.32058
 H1603 H 0.42052 0.74026 0.31389
 H1604 H 0.37672 0.71980 0.33404
 H1605 H 0.48223 0.66080 0.28886
 H1606 H 0.39391 0.61918 0.33054
 C1607 C 0.44050 0.19009 0.78523
 C1608 C 0.41816 0.17570 0.79913
 C1609 C 0.39278 0.18971 0.80826
 C1610 C 0.38926 0.21867 0.80197
 C1611 C 0.41211 0.23337 0.78796
 C1612 C 0.43818 0.21895 0.78015
 C1613 C 0.40756 0.26186 0.78124
 N1614 N 0.38199 0.27462 0.78830
 N1615 N 0.36052 0.26081 0.80130
 C1616 C 0.36317 0.23331 0.80820
 H1617 H 0.46007 0.17871 0.77893
 H1618 H 0.42106 0.15353 0.80344
 H1619 H 0.42373 0.27405 0.76996
 H1620 H 0.34454 0.22315 0.81782
 C1621 C 0.91988 0.72513 0.81371
 C1622 C 0.89704 0.71098 0.82701
 C1623 C 0.89672 0.68157 0.82827
 C1624 C 0.92113 0.66625 0.81752
 C1625 C 0.94432 0.68070 0.80370
 C1626 C 0.94306 0.71035 0.80100
 C1627 C 0.96849 0.66496 0.79384
 N1628 N 0.96918 0.63675 0.79749
 N1629 N 0.94756 0.62323 0.81058
 C1630 C 0.92370 0.63698 0.82086
 H1631 H 0.91881 0.74780 0.81236
 H1632 H 0.87883 0.72317 0.83535
 H1633 H 0.98716 0.67476 0.78387
 H1634 H 0.90746 0.62490 0.83218
 C1635 C 0.93790 0.17934 0.29186
 C1636 C 0.91560 0.16416 0.30498
 C1637 C 0.88993 0.17754 0.31432
 C1638 C 0.88613 0.20667 0.30922
 C1639 C 0.90885 0.22210 0.29592
 C1640 C 0.93519 0.20835 0.28774
 C1641 C 0.90391 0.25066 0.29013
 N1642 N 0.87817 0.26293 0.29750
 N1643 N 0.85683 0.24848 0.30996
 C1644 C 0.85982 0.22080 0.31590
 H1645 H 0.95766 0.16843 0.28528
 H1646 H 0.91864 0.14186 0.30838
 H1647 H 0.91997 0.26318 0.27928
 H1648 H 0.84130 0.21011 0.32514
 C1649 C 0.30189 0.28336 0.57655
 C1650 C 0.31661 0.29766 0.59815
 C1651 C 0.31297 0.32659 0.60201
 C1652 C 0.29470 0.34159 0.58271
 C1653 C 0.27835 0.32679 0.56144
 C1654 C 0.28224 0.29716 0.55823
 C1655 C 0.25946 0.34261 0.54382
 N1656 N 0.25821 0.37094 0.54641
 N1657 N 0.27460 0.38476 0.56529
 C1658 C 0.29289 0.37114 0.58332
 H1659 H 0.30549 0.26093 0.57465
 H1660 H 0.33052 0.28572 0.61244
 H1661 H 0.24562 0.33329 0.52786
 H1662 H 0.30639 0.38375 0.59729
 C1663 C 0.31568 0.77915 0.07902
 C1664 C 0.32880 0.79218 0.10240
 C1665 C 0.33174 0.82146 0.10378
 C1666 C 0.32231 0.83775 0.07992
 C1667 C 0.30823 0.82435 0.05625
 C1668 C 0.30444 0.79480 0.05621
 C1669 C 0.29949 0.84093 0.03287
 N1670 N 0.30461 0.86894 0.03312
 N1671 N 0.31816 0.88143 0.05498
 C1672 C 0.32737 0.86684 0.07819
 H1673 H 0.31354 0.75653 0.07923
 H1674 H 0.33602 0.77912 0.12000
 H1675 H 0.28926 0.83192 0.01409
 H1676 H 0.33929 0.87815 0.09450
 C1677 C 0.79824 0.27673 0.08447
 C1678 C 0.81294 0.29155 0.10587
 C1679 C 0.82015 0.31992 0.10229
 C1680 C 0.81368 0.33316 0.07578
 C1681 C 0.79834 0.31814 0.05413
 C1682 C 0.79006 0.28988 0.05892
 C1683 C 0.79267 0.33171 0.02794
 N1684 N 0.80188 0.35839 0.02380
 N1685 N 0.81656 0.37237 0.04394
 C1686 C 0.82291 0.36067 0.06966
 H1687 H 0.79241 0.25503 0.08825
 H1688 H 0.81797 0.28094 0.12578
 H1689 H 0.78153 0.32126 0.01047
 H1690 H 0.83575 0.37282 0.08465
 C1691 C 0.81324 0.78402 0.58507
 C1692 C 0.82578 0.79776 0.60844
 C1693 C 0.82645 0.82715 0.61003
 C1694 C 0.81565 0.84294 0.58650
 C1695 C 0.80239 0.82888 0.56284
 C1696 C 0.80056 0.79912 0.56253
 C1697 C 0.79239 0.84517 0.53976
 N1698 N 0.79545 0.87346 0.54031
 N1699 N 0.80813 0.88659 0.56226
 C1700 C 0.81850 0.87235 0.58522
 H1701 H 0.81261 0.76131 0.58511
 H1702 H 0.83414 0.78520 0.62595
 H1703 H 0.78278 0.83572 0.52102
 H1704 H 0.82957 0.88419 0.60175
 C1705 C 0.30570 0.70084 0.43882
 C1706 C 0.31858 0.68771 0.41517
 C1707 C 0.30340 0.68485 0.38919
 C1708 C 0.27468 0.69610 0.38697
 C1709 C 0.26142 0.70923 0.41119
 C1710 C 0.27713 0.71136 0.43737
 C1711 C 0.23333 0.72103 0.40789
 N1712 N 0.21959 0.71961 0.38217
 N1713 N 0.23213 0.70754 0.35943
 C1714 C 0.25920 0.69597 0.36091
 H1715 H 0.31815 0.70275 0.45852
 H1716 H 0.34065 0.67959 0.41720
 H1717 H 0.22225 0.73180 0.42523
 H1718 H 0.26858 0.68752 0.34154
 C1719 C 0.28344 0.19424 0.91832
 C1720 C 0.29692 0.18068 0.89529
 C1721 C 0.32723 0.18201 0.89144
 C1722 C 0.34450 0.19619 0.91220
 C1723 C 0.33076 0.21075 0.93538
 C1724 C 0.29968 0.20995 0.93826
 C1725 C 0.34896 0.22483 0.95515
 N1726 N 0.37844 0.22382 0.95225
 N1727 N 0.39120 0.20954 0.93104
 C1728 C 0.37531 0.19559 0.91108
 H1729 H 0.25984 0.19310 0.92002
 H1730 H 0.28336 0.16974 0.87982
 H1731 H 0.34050 0.23645 0.97309
 H1732 H 0.38707 0.18361 0.89504
 C1733 C 0.81444 0.70114 0.94315
 C1734 C 0.82845 0.68883 0.91963
 C1735 C 0.81291 0.68198 0.89464
 C1736 C 0.78256 0.68836 0.89317
 C1737 C 0.76812 0.70031 0.91736
 C1738 C 0.78435 0.70662 0.94262
 C1739 C 0.73811 0.70686 0.91480
 N1740 N 0.72387 0.70200 0.88980
 N1741 N 0.73754 0.69129 0.86702
 C1742 C 0.76632 0.68453 0.86779
 H1743 H 0.82721 0.70638 0.96201
 H1744 H 0.85169 0.68451 0.92100
 H1745 H 0.72578 0.71637 0.93199
 H1746 H 0.77621 0.67701 0.84828
 C1747 C 0.77859 0.18513 0.41789
 C1748 C 0.79170 0.17076 0.39513
 C1749 C 0.82197 0.16617 0.39466
 C1750 C 0.83902 0.17424 0.41868
 C1751 C 0.82562 0.18854 0.44207
 C1752 C 0.79533 0.19517 0.44092
 C1753 C 0.84300 0.19515 0.46610
 N1754 N 0.87185 0.18844 0.46621
 N1755 N 0.88447 0.17535 0.44410
 C1756 C 0.86906 0.16793 0.42041
 H1757 H 0.75538 0.18969 0.41676
 H1758 H 0.77832 0.16451 0.37702
 H1759 H 0.83392 0.20491 0.48512
 H1760 H 0.88034 0.15665 0.40348
 C1761 C 0.69556 0.29976 0.43497
 C1762 C 0.68229 0.31427 0.41268
 C1763 C 0.69732 0.31941 0.38705
 C1764 C 0.72639 0.30923 0.38368
 C1765 C 0.73999 0.29450 0.40654
 C1766 C 0.72434 0.28996 0.43242
 C1767 C 0.76834 0.28363 0.40212
 N1768 N 0.78209 0.28753 0.37667
 N1769 N 0.76933 0.30122 0.35522
 C1770 C 0.74197 0.31200 0.35774
 H1771 H 0.68322 0.29617 0.45448
 H1772 H 0.65999 0.32158 0.41548
 H1773 H 0.77960 0.27164 0.41833
 H1774 H 0.73262 0.32207 0.33920
 C1775 C 0.67952 0.79502 0.93622
 C1776 C 0.66640 0.80662 0.91199
 C1777 C 0.68167 0.80820 0.88597
 C1778 C 0.71020 0.79671 0.88399
 C1779 C 0.72398 0.78589 0.90882
 C1780 C 0.70843 0.78527 0.93518
 C1781 C 0.75257 0.77509 0.90606
 N1782 N 0.76587 0.77447 0.88004
 N1783 N 0.75250 0.78377 0.85657
 C1784 C 0.72509 0.79468 0.85764
 H1785 H 0.66725 0.79425 0.95612
 H1786 H 0.64435 0.81489 0.91370
 H1787 H 0.76434 0.76665 0.92413
 H1788 H 0.71481 0.80076 0.83781
 C1789 C 0.22523 0.29987 0.91743
 C1790 C 0.21068 0.31315 0.89510
 C1791 C 0.18032 0.31728 0.89605
 C1792 C 0.16453 0.30903 0.92086
 C1793 C 0.17941 0.29536 0.94362
 C1794 C 0.20990 0.29020 0.94141
 C1795 C 0.16336 0.28822 0.96832
 N1796 N 0.13440 0.29421 0.96988
 N1797 N 0.12046 0.30710 0.94861
 C1798 C 0.13451 0.31486 0.92428
 H1799 H 0.24859 0.29637 0.91558
 H1800 H 0.22319 0.31955 0.87649
 H1801 H 0.17357 0.27849 0.98666
 H1802 H 0.12213 0.32606 0.90827
 C1803 C 0.22535 0.81202 0.42193
 C1804 C 0.21380 0.82574 0.39820
 C1805 C 0.18366 0.83047 0.39579
 C1806 C 0.16500 0.82293 0.41882
 C1807 C 0.17682 0.80916 0.44320
 C1808 C 0.20716 0.80270 0.44413
 C1809 C 0.15786 0.80305 0.46616
 N1810 N 0.12908 0.80977 0.46443
 N1811 N 0.11799 0.82245 0.44148
 C1812 C 0.13494 0.82938 0.41872
 H1813 H 0.24860 0.80753 0.42229
 H1814 H 0.22845 0.83153 0.38094
 H1815 H 0.16563 0.79369 0.48580
 H1816 H 0.12481 0.84041 0.40113
 C1817 C 0.69372 0.70630 0.56396
 C1818 C 0.67984 0.69191 0.58605
 C1819 C 0.69565 0.68215 0.60971
 C1820 C 0.72605 0.68787 0.61159
 C1821 C 0.74026 0.70248 0.58901
 C1822 C 0.72389 0.71141 0.56477
 C1823 C 0.77019 0.70873 0.59223
 N1824 N 0.78474 0.70067 0.61614
 N1825 N 0.77139 0.68708 0.63729
 C1826 C 0.74260 0.68059 0.63594
 H1827 H 0.68078 0.71330 0.54587
 H1828 H 0.65654 0.68809 0.58451
 H1829 H 0.78221 0.72038 0.57638
 H1830 H 0.73293 0.67040 0.65426
 C1831 C 0.69537 0.22096 0.08627
 C1832 C 0.68211 0.20756 0.10930
 C1833 C 0.67605 0.17872 0.10832
 C1834 C 0.68239 0.16337 0.08278
 C1835 C 0.69619 0.17706 0.05935
 C1836 C 0.70321 0.20599 0.06150
 C1837 C 0.70150 0.16149 0.03410
 N1838 N 0.69362 0.13411 0.03255
 N1839 N 0.68052 0.12133 0.05438
 C1840 C 0.67447 0.13501 0.07930
 H1841 H 0.70032 0.24314 0.08816
 H1842 H 0.67723 0.21978 0.12841
 H1843 H 0.71126 0.17086 0.01533
 H1844 H 0.66290 0.12366 0.09574
 C1845 C 0.19178 0.70936 0.06176
 C1846 C 0.17688 0.69571 0.08369
 C1847 C 0.19195 0.68481 0.10726
 C1848 C 0.22262 0.68883 0.10939
 C1849 C 0.23788 0.70271 0.08701
 C1850 C 0.22225 0.71258 0.06268
 C1851 C 0.26813 0.70717 0.09046
 N1852 N 0.28197 0.69812 0.11440
 N1853 N 0.26765 0.68519 0.13536
 C1854 C 0.23850 0.68040 0.13379
 H1855 H 0.17941 0.71705 0.04359
 H1856 H 0.15340 0.69316 0.08197
 H1857 H 0.28095 0.71820 0.07478
 H1858 H 0.22805 0.67064 0.15195
 C1859 C 0.18180 0.19272 0.55750
 C1860 C 0.16829 0.17972 0.58083
 C1861 C 0.17948 0.18297 0.60864
 C1862 C 0.20419 0.20027 0.61317
 C1863 C 0.21845 0.21269 0.58943
 C1864 C 0.20711 0.20880 0.56139
 C1865 C 0.24321 0.22941 0.59474
 N1866 N 0.25249 0.23379 0.62203
 N1867 N 0.23858 0.22276 0.64438
 C1868 C 0.21467 0.20632 0.64090
 H1869 H 0.17265 0.18995 0.53623
 H1870 H 0.14912 0.16689 0.57716
 H1871 H 0.25511 0.23919 0.57754
 H1872 H 0.20369 0.19870 0.65985
   
