data_POSCAR
  _audit_creation_date              2014-09-24
  _audit_creation_method            'ToBaCCo'
  _symmetry_space_group_name_H-M    'P1'
  _symmetry_Int_Tables_number       1
  _symmetry_cell_setting            triclinic
  loop_
  _symmetry_equiv_pos_as_xyz
 x,y,z
_cell_length_a 43.9475
_cell_length_b 43.7642
_cell_length_c 41.5184
_cell_angle_alpha 89.057500
_cell_angle_beta 88.104500
_cell_angle_gamma 90.963600
loop_
  _atom_site_label
  _atom_site_type_symbol
  _atom_site_fract_x
  _atom_site_fract_y
  _atom_site_fract_z
C1 C 0.40956 0.02940 0.28982
 H2 H 0.41239 0.04272 0.26771
 C3 C 0.42714 0.03635 0.31626
 H4 H 0.44324 0.05530 0.31428
 C5 C 0.38418 -0.01085 0.31928
 H6 H 0.36698 -0.02875 0.32074
 C7 C 0.40109 -0.00465 0.34621
 H8 H 0.39702 -0.01830 0.36798
 N9 N 0.38916 0.00562 0.29153
 C10 C 0.38094 -0.01820 0.19075
 H11 H 0.35651 -0.01750 0.18847
 C12 C 0.39970 -0.02404 0.16381
 H13 H 0.38922 -0.02708 0.14089
 C14 C 0.42383 -0.01363 0.22352
 H15 H 0.43319 -0.01002 0.24689
 C16 C 0.44341 -0.01937 0.19727
 H17 H 0.46776 -0.01948 0.20061
 Zn18 Zn 0.36657 -0.00345 0.25486
 N19 N 0.39325 -0.01241 0.21967
 C20 C 0.34963 0.04920 0.21929
 N21 N 0.34360 0.03157 0.24610
 C22 C 0.32385 0.04070 0.26976
 C23 C 0.30940 0.06873 0.26716
 C24 C 0.33575 0.07749 0.21574
 C25 C 0.35725 -0.06423 0.27020
 C26 C 0.34181 -0.09149 0.27789
 C27 C 0.29419 -0.06607 0.26974
 C28 C 0.31074 -0.03894 0.26274
 N29 N 0.34168 -0.03855 0.26337
 H30 H 0.36621 0.04206 0.20129
 H31 H 0.32029 0.02668 0.29131
 H32 H 0.29486 0.07594 0.28703
 H33 H 0.34138 0.09167 0.19468
 H34 H 0.38187 -0.06333 0.27013
 H35 H 0.35509 -0.11145 0.28347
 H36 H 0.26968 -0.06553 0.26856
 H37 H 0.29885 -0.01833 0.25663
 C38 C 0.43151 -0.02441 0.16687
 C39 C 0.42325 0.01880 0.34479
 C40 C 0.30979 -0.09300 0.27771
 C41 C 0.31550 0.08766 0.23991
 C42 C 0.08314 0.02769 0.70536
 H43 H 0.07731 0.04162 0.72587
 C44 C 0.07032 0.03373 0.67556
 H45 H 0.05431 0.05211 0.67324
 C46 C 0.11128 -0.01315 0.68328
 H47 H 0.12746 -0.03119 0.68623
 C48 C 0.09942 -0.00762 0.65306
 H49 H 0.10596 -0.02225 0.63333
 N50 N 0.10285 0.00426 0.70876
 C51 C 0.10100 -0.01655 0.81188
 H52 H 0.12526 -0.01684 0.81554
 C53 C 0.08059 -0.02178 0.83789
 H54 H 0.08963 -0.02530 0.86154
 C55 C 0.06035 -0.01006 0.77645
 H56 H 0.05255 -0.00581 0.75243
 C57 C 0.03909 -0.01507 0.80183
 H58 H 0.01502 -0.01406 0.79719
 Zn59 Zn 0.12067 -0.00260 0.74910
 N60 N 0.09067 -0.01020 0.78206
 C61 C 0.13631 0.05052 0.78378
 N62 N 0.14369 0.03301 0.75800
 C63 C 0.16581 0.04204 0.73607
 C64 C 0.18156 0.06970 0.73958
 C65 C 0.15145 0.07837 0.78821
 C66 C 0.13048 -0.06469 0.74303
 C67 C 0.14631 -0.09203 0.74318
 C68 C 0.19246 -0.06347 0.75320
 C69 C 0.17569 -0.03657 0.75280
 N70 N 0.14527 -0.03768 0.74771
 H71 H 0.11803 0.04346 0.80042
 H72 H 0.17060 0.02809 0.71530
 H73 H 0.19820 0.07678 0.72107
 H74 H 0.14490 0.09232 0.80852
 H75 H 0.10621 -0.06493 0.73940
 H76 H 0.13405 -0.11330 0.73953
 H77 H 0.21668 -0.06188 0.75681
 H78 H 0.18695 -0.01491 0.75689
 C79 C 0.04909 -0.02085 0.83305
 C80 C 0.07878 0.01621 0.64890
 C81 C 0.17760 -0.09178 0.74871
 C82 C 0.17436 0.08834 0.76598
 C83 C 0.58151 0.52232 0.20251
 H84 H 0.57866 0.53676 0.22326
 C85 C 0.56569 0.52860 0.17452
 H86 H 0.55067 0.54791 0.17409
 C87 C 0.60625 0.48086 0.17741
 H88 H 0.62275 0.46288 0.17819
 C89 C 0.59112 0.48641 0.14899
 H90 H 0.59569 0.47213 0.12837
 N91 N 0.60121 0.49869 0.20348
 C92 C 0.61827 0.48139 0.30512
 H93 H 0.64289 0.48213 0.30346
 C94 C 0.60336 0.47556 0.33477
 H95 H 0.61667 0.47218 0.35600
 C96 C 0.57115 0.48520 0.27933
 H97 H 0.55877 0.48884 0.25758
 C98 C 0.55523 0.47930 0.30860
 H99 H 0.53063 0.47944 0.30897
 Zn100 Zn 0.62557 0.49367 0.23984
 N101 N 0.60211 0.48657 0.27829
 C102 C 0.64655 0.54817 0.26863
 N103 N 0.64928 0.52982 0.24263
 C104 C 0.66703 0.53819 0.21642
 C105 C 0.68305 0.56601 0.21567
 C106 C 0.66213 0.57622 0.26889
 C107 C 0.63550 0.43182 0.23424
 C108 C 0.65175 0.40481 0.23288
 C109 C 0.69855 0.43462 0.23301
 C110 C 0.68133 0.46116 0.23432
 N111 N 0.65039 0.45924 0.23495
 H112 H 0.63162 0.54157 0.28882
 H113 H 0.66809 0.52350 0.19572
 H114 H 0.69607 0.57243 0.19401
 H115 H 0.65932 0.59081 0.28957
 H116 H 0.61087 0.43101 0.23516
 H117 H 0.63944 0.38317 0.23266
 H118 H 0.72311 0.43676 0.23223
 H119 H 0.69270 0.48318 0.23537
 C120 C 0.57147 0.47449 0.33688
 C121 C 0.57056 0.51048 0.14723
 C122 C 0.68364 0.40590 0.23279
 C123 C 0.68064 0.58550 0.24222
 C124 C 0.91773 0.53108 0.79215
 H125 H 0.92436 0.54178 0.76926
 C126 C 0.93276 0.53923 0.82008
 H127 H 0.95130 0.55588 0.81831
 C128 C 0.88491 0.49713 0.82230
 H129 H 0.86593 0.48111 0.82328
 C130 C 0.89873 0.50502 0.85071
 H131 H 0.89078 0.49327 0.87256
 N132 N 0.89449 0.51009 0.79374
 C133 C 0.88035 0.48642 0.69340
 H134 H 0.85580 0.48812 0.69387
 C135 C 0.89593 0.47908 0.66488
 H136 H 0.88326 0.47546 0.64329
 C137 C 0.92656 0.48935 0.72109
 H138 H 0.93833 0.49302 0.74317
 C139 C 0.94312 0.48190 0.69303
 H140 H 0.96765 0.48108 0.69384
 Zn141 Zn 0.87134 0.50127 0.75726
 N142 N 0.89579 0.49195 0.72058
 C143 C 0.85501 0.55464 0.72333
 N144 N 0.84802 0.53617 0.74927
 C145 C 0.82681 0.54416 0.77207
 C146 C 0.81191 0.57197 0.76946
 C147 C 0.84101 0.58284 0.72006
 C148 C 0.86185 0.44051 0.77304
 C149 C 0.84628 0.41280 0.77798
 C150 C 0.79921 0.43834 0.76747
 C151 C 0.81577 0.46576 0.76290
 N152 N 0.84652 0.46626 0.76576
 H153 H 0.87248 0.54822 0.70593
 H154 H 0.82224 0.52936 0.79285
 H155 H 0.79567 0.57846 0.78821
 H156 H 0.84733 0.59763 0.69967
 H157 H 0.88637 0.44153 0.77464
 H158 H 0.85905 0.39249 0.78340
 H159 H 0.77494 0.43845 0.76412
 H160 H 0.80415 0.48634 0.75616
 C161 C 0.92770 0.47678 0.66436
 C162 C 0.92281 0.52681 0.85012
 C163 C 0.81461 0.41131 0.77502
 C164 C 0.81972 0.59203 0.74379
 C165 C 0.21249 0.42279 0.96914
 H166 H 0.23153 0.42741 0.95248
 C167 C 0.18506 0.43831 0.96559
 H168 H 0.18306 0.45492 0.94619
 C169 C 0.19157 0.39533 1.01448
 H170 H 0.19371 0.37833 1.03331
 C171 C 0.16408 0.41021 1.01190
 H172 H 0.14610 0.40504 1.02969
 N173 N 0.21529 0.40192 0.99354
 C174 C 0.31097 0.39159 1.01449
 H175 H 0.31039 0.36699 1.01751
 C176 C 0.33798 0.40781 1.01862
 H177 H 0.35819 0.39544 1.02479
 C178 C 0.28521 0.43726 1.00225
 H179 H 0.26449 0.44856 0.99605
 C180 C 0.31196 0.45451 1.00598
 H181 H 0.31123 0.47900 1.00254
 Zn182 Zn 0.25179 0.38007 0.99955
 N183 N 0.28546 0.40632 1.00589
 C184 C 0.28582 0.36282 0.94429
 N185 N 0.26044 0.35598 0.96288
 C186 C 0.24097 0.33306 0.95489
 C187 C 0.24726 0.31537 0.92780
 C188 C 0.29273 0.34603 0.91681
 C189 C 0.24521 0.37252 1.06521
 C190 C 0.24115 0.35802 1.09515
 C191 C 0.24196 0.30935 1.06856
 C192 C 0.24608 0.32490 1.03894
 N193 N 0.24716 0.35599 1.03784
 H194 H 0.30056 0.38172 0.95031
 H195 H 0.22045 0.32866 0.96945
 H196 H 0.23116 0.29763 0.92154
 H197 H 0.31279 0.35207 0.90205
 H198 H 0.24674 0.39721 1.06367
 H199 H 0.24060 0.37207 1.11631
 H200 H 0.24122 0.28460 1.06918
 H201 H 0.24846 0.31208 1.01703
 C202 C 0.33897 0.43958 1.01381
 C203 C 0.16028 0.43169 0.98690
 C204 C 0.23901 0.32593 1.09715
 C205 C 0.27358 0.32176 0.90848
 C206 C 0.78001 0.06576 1.01995
 H207 H 0.76374 0.06250 1.03988
 C208 C 0.80639 0.04847 1.01846
 H209 H 0.81005 0.03173 1.03741
 C210 C 0.79530 0.09254 0.97191
 H211 H 0.79121 0.11036 0.95433
 C212 C 0.82195 0.07570 0.96936
 H213 H 0.83772 0.08131 0.94959
 N214 N 0.77527 0.08763 0.99717
 C215 C 0.70109 0.06479 0.99322
 H216 H 0.71844 0.05798 0.97587
 C217 C 0.67337 0.04874 0.99549
 H218 H 0.66946 0.02988 0.97948
 C219 C 0.68516 0.09748 1.03515
 H220 H 0.68978 0.11636 1.05072
 C221 C 0.65709 0.08206 1.03825
 H222 H 0.64087 0.08924 1.05662
 Zn223 Zn 0.74173 0.11354 1.00283
 N224 N 0.70605 0.08941 1.01204
 C225 C 0.72765 0.12098 0.93734
 N226 N 0.73600 0.13623 0.96404
 C227 C 0.74013 0.16713 0.96319
 C228 C 0.73492 0.18393 0.93511
 C229 C 0.72247 0.13686 0.90866
 C230 C 0.77623 0.13883 1.05296
 C231 C 0.78309 0.15969 1.07693
 C232 C 0.73570 0.18479 1.06709
 C233 C 0.72957 0.16328 1.04366
 N234 N 0.74977 0.14088 1.03691
 H235 H 0.72525 0.09642 0.93808
 H236 H 0.74798 0.17888 0.98407
 H237 H 0.73913 0.20836 0.93492
 H238 H 0.71609 0.12432 0.88757
 H239 H 0.79238 0.12135 1.04691
 H240 H 0.80447 0.15791 1.08897
 H241 H 0.71946 0.20264 1.07190
 H242 H 0.70897 0.16489 1.03021
 C243 C 0.65050 0.05801 1.01735
 C244 C 0.82813 0.05351 0.99321
 C245 C 0.76263 0.18307 1.08416
 C246 C 0.72563 0.16875 0.90744
 C247 C 0.28938 0.57553 0.49107
 H248 H 0.27013 0.56906 0.47693
 C249 C 0.31656 0.55949 0.48793
 H250 H 0.31818 0.54069 0.47137
 C251 C 0.31110 0.60831 0.52926
 H252 H 0.30925 0.62747 0.54516
 C253 C 0.33843 0.59288 0.52705
 H254 H 0.35679 0.60001 0.54212
 N255 N 0.28726 0.59973 0.51123
 C256 C 0.18979 0.61151 0.52957
 H257 H 0.18838 0.63608 0.52970
 C258 C 0.16314 0.59382 0.53055
 H259 H 0.14133 0.60500 0.53124
 C260 C 0.21972 0.56703 0.52872
 H261 H 0.24178 0.55659 0.52783
 C262 C 0.19355 0.54837 0.52996
 H263 H 0.19566 0.52376 0.52957
 Zn264 Zn 0.25139 0.62336 0.51456
 N265 N 0.21733 0.59800 0.52666
 C266 C 0.22082 0.66287 0.47195
 N267 N 0.24369 0.64234 0.47400
 C268 C 0.26093 0.63515 0.44748
 C269 C 0.25473 0.64777 0.41742
 C270 C 0.21412 0.67640 0.44236
 C271 C 0.25777 0.64526 0.57726
 C272 C 0.26526 0.66652 0.60056
 C273 C 0.27065 0.70531 0.55856
 C274 C 0.26359 0.68321 0.53600
 N275 N 0.25731 0.65384 0.54566
 H276 H 0.20815 0.66940 0.49336
 H277 H 0.27970 0.61979 0.44942
 H278 H 0.26915 0.64205 0.39683
 H279 H 0.19607 0.69290 0.44116
 H280 H 0.25292 0.62170 0.58422
 H281 H 0.26513 0.65930 0.62562
 H282 H 0.27543 0.72864 0.55058
 H283 H 0.26381 0.68943 0.51071
 C284 C 0.16496 0.56188 0.52896
 C285 C 0.34171 0.56868 0.50547
 C286 C 0.27211 0.69695 0.59116
 C287 C 0.23074 0.66836 0.41456
 C288 C 0.71339 0.92983 0.46378
 H289 H 0.73040 0.93024 0.44433
 C290 C 0.68693 0.94698 0.46113
 H291 H 0.68357 0.96066 0.43961
 C292 C 0.69606 0.91015 0.51478
 H293 H 0.69906 0.89538 0.53537
 C294 C 0.66967 0.92701 0.51329
 H295 H 0.65324 0.92549 0.53329
 N296 N 0.71710 0.91139 0.49007
 C297 C 0.81061 0.88704 0.50558
 H298 H 0.80714 0.86266 0.50908
 C299 C 0.83938 0.90002 0.50903
 H300 H 0.85785 0.88543 0.51572
 C301 C 0.79022 0.93553 0.49334
 H302 H 0.77091 0.94915 0.48718
 C303 C 0.81879 0.94952 0.49634
 H304 H 0.82146 0.97393 0.49215
 Zn305 Zn 0.74995 0.88408 0.49103
 N306 N 0.78697 0.90472 0.49716
 C307 C 0.77841 0.85753 0.43562
 N308 N 0.75168 0.86287 0.45191
 C309 C 0.72488 0.85102 0.44208
 C310 C 0.72437 0.83177 0.41580
 C311 C 0.77896 0.83831 0.40900
 C312 C 0.74512 0.86500 0.55606
 C313 C 0.74072 0.84438 0.58184
 C314 C 0.73521 0.80367 0.54374
 C315 C 0.73928 0.82512 0.51871
 N316 N 0.74379 0.85521 0.52522
 H317 H 0.79947 0.86727 0.44384
 H318 H 0.70401 0.85561 0.45556
 H319 H 0.70283 0.82188 0.40890
 H320 H 0.80057 0.83350 0.39714
 H321 H 0.74967 0.88890 0.56057
 H322 H 0.74249 0.85260 0.60616
 H323 H 0.73208 0.77975 0.53820
 H324 H 0.73924 0.81751 0.49413
 C325 C 0.84393 0.93153 0.50325
 C326 C 0.66425 0.94470 0.48562
 C327 C 0.73553 0.81327 0.57570
 C328 C 0.75163 0.82475 0.39922
 C329 C 0.01077 0.27994 0.44048
 H330 H 0.01558 0.25802 0.45136
 C331 C 0.00904 0.30588 0.45970
 H332 H 0.01244 0.30350 0.48529
 C333 C -0.00075 0.30932 0.39414
 H334 H -0.00476 0.31038 0.36858
 C335 C -0.00292 0.33568 0.41242
 H336 H -0.00837 0.35709 0.40067
 N337 N 0.00615 0.28219 0.40827
 C338 C -0.01672 0.19367 0.41264
 H339 H -0.03779 0.19958 0.40168
 C340 C -0.01585 0.16755 0.43228
 H341 H -0.03645 0.15382 0.43514
 C342 C 0.03559 0.20389 0.42018
 H343 H 0.05552 0.21830 0.41538
 C344 C 0.03767 0.17755 0.43951
 H345 H 0.05943 0.17185 0.44934
 Zn346 Zn 0.00659 0.24756 0.38139
 N347 N 0.00865 0.21146 0.40724
 C348 C 0.04758 0.22664 0.33232
 N349 N 0.04126 0.24999 0.35257
 C350 C 0.06068 0.27437 0.35448
 C351 C 0.08775 0.27576 0.33597
 C352 C 0.07457 0.22706 0.31331
 C353 C -0.05550 0.25383 0.37845
 C354 C -0.08409 0.25633 0.36535
 C355 C -0.06156 0.24646 0.31279
 C356 C -0.03307 0.24436 0.32699
 N357 N -0.03067 0.24794 0.35935
 H358 H 0.03205 0.20724 0.33159
 H359 H 0.05571 0.29250 0.37106
 H360 H 0.10308 0.29516 0.33847
 H361 H 0.07910 0.20777 0.29812
 H362 H -0.05297 0.25693 0.40402
 H363 H -0.10345 0.26133 0.38111
 H364 H -0.06297 0.24409 0.28699
 H365 H -0.01295 0.24024 0.31212
 C366 C 0.01165 0.15909 0.44628
 C367 C 0.00226 0.33428 0.44555
 C368 C -0.08751 0.25267 0.33220
 C369 C 0.09537 0.25181 0.31533
 C370 C 0.03382 0.70624 0.08374
 H371 H 0.05350 0.72145 0.08328
 C372 C 0.03407 0.67988 0.06494
 H373 H 0.05425 0.67500 0.05046
 C374 C -0.01569 0.69359 0.10452
 H375 H -0.03495 0.69864 0.12023
 C376 C -0.01631 0.66704 0.08642
 H377 H -0.03619 0.65206 0.08840
 N378 N 0.00907 0.71268 0.10290
 C379 C 0.00539 0.81055 0.12018
 H380 H 0.00030 0.80939 0.14585
 C381 C 0.00523 0.83863 0.10393
 H382 H 0.00006 0.85903 0.11735
 C383 C 0.01738 0.78514 0.07156
 H384 H 0.02145 0.76413 0.05895
 C385 C 0.01761 0.81295 0.05427
 H386 H 0.02173 0.81286 0.02844
 Zn387 Zn 0.00868 0.74792 0.12935
 N388 N 0.01149 0.78451 0.10398
 C389 C 0.06086 0.77117 0.15954
 N390 N 0.04171 0.74652 0.15790
 C391 C 0.04624 0.72078 0.17584
 C392 C 0.07103 0.71909 0.19614
 C393 C 0.08555 0.77063 0.17980
 C394 C -0.05316 0.75818 0.13536
 C395 C -0.08185 0.76151 0.15003
 C396 C -0.06115 0.74546 0.20062
 C397 C -0.03256 0.74302 0.18493
 N398 N -0.02916 0.74937 0.15282
 H399 H 0.05735 0.79129 0.14487
 H400 H 0.03077 0.70143 0.17409
 H401 H 0.07429 0.69839 0.21013
 H402 H 0.10070 0.79038 0.18044
 H403 H -0.04991 0.76276 0.10977
 H404 H -0.10005 0.76775 0.13452
 H405 H -0.06325 0.74020 0.22621
 H406 H -0.01318 0.73609 0.19845
 C407 C 0.01142 0.84018 0.07061
 C408 C 0.00864 0.65983 0.06622
 C409 C -0.08639 0.75548 0.18344
 C410 C 0.09124 0.74423 0.19798
 C411 C 0.51866 0.21062 0.57943
 H412 H 0.53818 0.22590 0.58071
 C413 C 0.51959 0.18609 0.55827
 H414 H 0.54001 0.18305 0.54357
 C415 C 0.46960 0.19509 0.59934
 H416 H 0.45052 0.19809 0.61599
 C417 C 0.46955 0.17034 0.57859
 H418 H 0.45016 0.15468 0.57936
 N419 N 0.49411 0.21442 0.59974
 C420 C 0.49599 0.30846 0.63229
 H421 H 0.49144 0.30442 0.65776
 C422 C 0.49638 0.33827 0.61996
 H423 H 0.49280 0.35698 0.63635
 C424 C 0.50415 0.28889 0.57997
 H425 H 0.50637 0.26958 0.56429
 C426 C 0.50469 0.31849 0.56653
 H427 H 0.50766 0.32121 0.54070
 Zn428 Zn 0.49623 0.24478 0.63192
 N429 N 0.50009 0.28442 0.61240
 C430 C 0.54332 0.25808 0.67604
 N431 N 0.53056 0.23627 0.65747
 C432 C 0.54331 0.20827 0.65468
 C433 C 0.57086 0.20204 0.66896
 C434 C 0.57083 0.25269 0.69105
 C435 C 0.43456 0.25426 0.64269
 C436 C 0.40675 0.25601 0.65963
 C437 C 0.43076 0.23672 0.70717
 C438 C 0.45835 0.23551 0.68925
 N439 N 0.45968 0.24429 0.65761
 H440 H 0.53294 0.28013 0.67824
 H441 H 0.53259 0.19087 0.64056
 H442 H 0.58127 0.18005 0.66527
 H443 H 0.58131 0.27100 0.70418
 H444 H 0.43623 0.26095 0.61749
 H445 H 0.38705 0.26345 0.64686
 H446 H 0.42991 0.22969 0.73232
 H447 H 0.47866 0.22765 0.70061
 C448 C 0.50067 0.34372 0.58671
 C449 C 0.49491 0.16521 0.55806
 C450 C 0.40464 0.24765 0.69250
 C451 C 0.58528 0.22452 0.68693
 C452 C 0.50807 0.78597 0.92895
 H453 H 0.51100 0.76416 0.94092
 C454 C 0.50593 0.81251 0.94719
 H455 H 0.50711 0.81062 0.97310
 C456 C 0.50160 0.81452 0.88073
 H457 H 0.49975 0.81500 0.85481
 C458 C 0.49938 0.84146 0.89789
 H459 H 0.49585 0.86272 0.88492
 N460 N 0.50617 0.78756 0.89632
 C461 C 0.48574 0.69677 0.89742
 H462 H 0.46599 0.70075 0.88326
 C463 C 0.48647 0.67076 0.91725
 H464 H 0.46730 0.65489 0.91768
 C465 C 0.53521 0.71169 0.91270
 H466 H 0.55411 0.72785 0.91074
 C467 C 0.53708 0.68565 0.93252
 H468 H 0.55755 0.68171 0.94569
 Zn469 Zn 0.50798 0.75292 0.86990
 N470 N 0.50969 0.71689 0.89586
 C471 C 0.54995 0.73368 0.82108
 N472 N 0.54369 0.75583 0.84280
 C473 C 0.56366 0.77940 0.84707
 C474 C 0.59112 0.78130 0.82931
 C475 C 0.57727 0.73472 0.80268
 C476 C 0.44567 0.75612 0.86427
 C477 C 0.41763 0.75796 0.84975
 C478 C 0.44338 0.75419 0.79773
 C479 C 0.47115 0.75247 0.81337
 N480 N 0.47172 0.75319 0.84612
 H481 H 0.53389 0.71498 0.81835
 H482 H 0.55882 0.79645 0.86492
 H483 H 0.60685 0.80002 0.83358
 H484 H 0.58138 0.71689 0.78547
 H485 H 0.44676 0.75716 0.89022
 H486 H 0.39723 0.76019 0.86485
 H487 H 0.44360 0.75318 0.77174
 H488 H 0.49216 0.75074 0.79930
 C489 C 0.51227 0.66512 0.93543
 C490 C 0.50171 0.84080 0.93149
 C491 C 0.41606 0.75708 0.81609
 C492 C 0.59858 0.75859 0.80714
 C493 C -0.20884 0.65701 0.94610
 H494 H -0.19546 0.65907 0.96739
 C495 C -0.20033 0.67357 0.91808
 H496 H -0.18019 0.68815 0.91791
 C497 C -0.25121 0.63511 0.92056
 H498 H -0.27093 0.62000 0.92155
 C499 C -0.24327 0.65085 0.89193
 H500 H -0.25723 0.64799 0.87113
 N501 N -0.23447 0.63906 0.94716
 C502 C -0.26432 0.63863 1.04805
 H503 H -0.26717 0.61429 1.05238
 C504 C -0.27133 0.65902 1.07261
 H505 H -0.27882 0.64961 1.09579
 C506 C -0.25041 0.67954 1.01224
 H507 H -0.24297 0.68757 0.98852
 C508 C -0.25662 0.70073 1.03620
 H509 H -0.25316 0.72485 1.03065
 Zn510 Zn -0.24601 0.61957 0.98688
 N511 N -0.25374 0.64910 1.01873
 C512 C -0.19595 0.60225 1.02370
 N513 N -0.21336 0.59452 0.99850
 C514 C -0.20566 0.57111 0.97886
 C515 C -0.17918 0.55472 0.98389
 C516 C -0.16896 0.58688 1.02919
 C517 C -0.30772 0.61347 0.97687
 C518 C -0.33643 0.59947 0.97685
 C519 C -0.31343 0.55147 0.99073
 C520 C -0.28505 0.56645 0.99048
 N521 N -0.28276 0.59693 0.98363
 H522 H -0.20215 0.62132 1.03862
 H523 H -0.21955 0.56589 0.95857
 H524 H -0.17280 0.53677 0.96746
 H525 H -0.15479 0.59395 1.04866
 H526 H -0.30531 0.63778 0.97208
 H527 H -0.35605 0.61317 0.97173
 H528 H -0.31452 0.52719 0.99595
 H529 H -0.26505 0.55382 0.99647
 C530 C -0.26717 0.69071 1.06696
 C531 C -0.21810 0.67102 0.89074
 C532 C -0.33971 0.56822 0.98435
 C533 C -0.16002 0.56328 1.00861
 C534 C -0.21865 0.34199 0.54293
 H535 H -0.20349 0.33878 0.52223
 C536 C -0.21417 0.32673 0.57053
 H537 H -0.19506 0.31158 0.57155
 C538 C -0.26115 0.36844 0.56536
 H539 H -0.27890 0.38508 0.56359
 C540 C -0.25700 0.35240 0.59629
 H541 H -0.27263 0.35719 0.61625
 N542 N -0.24355 0.36271 0.54048
 C543 C -0.25704 0.36710 0.43699
 H544 H -0.25582 0.39157 0.43286
 C545 C -0.26236 0.34763 0.41138
 H546 H -0.26424 0.35748 0.38750
 C547 C -0.25534 0.32492 0.47336
 H548 H -0.25339 0.31617 0.49764
 C549 C -0.26051 0.30463 0.44848
 H550 H -0.26169 0.28031 0.45376
 Zn551 Zn -0.24865 0.38352 0.50081
 N552 N -0.25332 0.35550 0.46715
 C553 C -0.19287 0.40338 0.46996
 N554 N -0.21373 0.40867 0.49404
 C555 C -0.20849 0.42991 0.51680
 C556 C -0.18103 0.44637 0.51644
 C557 C -0.16498 0.41924 0.46877
 C558 C -0.31057 0.38982 0.50865
 C559 C -0.33863 0.40407 0.51038
 C560 C -0.31296 0.45224 0.49757
 C561 C -0.28522 0.43701 0.49661
 N562 N -0.28458 0.40640 0.50257
 H563 H -0.19724 0.38592 0.45252
 H564 H -0.22539 0.43338 0.53588
 H565 H -0.17773 0.46311 0.53489
 H566 H -0.14821 0.41410 0.45002
 H567 H -0.30940 0.36533 0.51227
 H568 H -0.35862 0.38971 0.51470
 H569 H -0.31303 0.47667 0.49284
 H570 H -0.26432 0.44958 0.49083
 C571 C -0.26423 0.31586 0.41706
 C572 C -0.23490 0.33166 0.59905
 C573 C -0.34020 0.43595 0.50522
 C574 C -0.15839 0.44042 0.49271
 C575 C 0.27101 -0.15922 0.04697
 H576 H 0.28223 -0.16611 0.02472
 C577 C 0.27951 -0.17110 0.07512
 H578 H 0.29750 -0.18772 0.07540
 C579 C 0.23381 -0.12776 0.07238
 H580 H 0.21660 -0.11047 0.07128
 C581 C 0.24283 -0.13970 0.10395
 H582 H 0.23005 -0.13200 0.12486
 N583 N 0.24690 -0.13743 0.04602
 C584 C 0.22507 -0.13939 -0.05544
 H585 H 0.22541 -0.11507 -0.06059
 C586 C 0.22020 -0.15998 -0.08010
 H587 H 0.21767 -0.15106 -0.10428
 C588 C 0.22946 -0.18005 -0.01759
 H589 H 0.23249 -0.18777 0.00691
 C590 C 0.22480 -0.20148 -0.04155
 H591 H 0.22511 -0.22563 -0.03543
 Zn592 Zn 0.23714 -0.11962 0.00604
 N593 N 0.23027 -0.14968 -0.02510
 C594 C 0.29068 -0.10271 -0.03015
 N595 N 0.27080 -0.09430 -0.00624
 C596 C 0.27679 -0.06996 0.01266
 C597 C 0.30397 -0.05327 0.00823
 C598 C 0.31842 -0.08703 -0.03495
 C599 C 0.17549 -0.11269 0.02020
 C600 C 0.14736 -0.09842 0.02111
 C601 C 0.17217 -0.05219 0.00021
 C602 C 0.19985 -0.06742 -0.00024
 N603 N 0.20098 -0.09712 0.00966
 H604 H 0.28585 -0.12263 -0.04428
 H605 H 0.26095 -0.06432 0.03207
 H606 H 0.30894 -0.03462 0.02418
 H607 H 0.33459 -0.09466 -0.05323
 H608 H 0.17701 -0.13646 0.02746
 H609 H 0.12736 -0.11152 0.02934
 H610 H 0.17253 -0.02863 -0.00788
 H611 H 0.22025 -0.05568 -0.00933
 C612 C 0.22029 -0.19158 -0.07330
 C613 C 0.26498 -0.16072 0.10570
 C614 C 0.14514 -0.06786 0.01058
 C615 C 0.32556 -0.06251 -0.01497
 C616 C 0.28244 1.16472 0.46880
 H617 H 0.29685 1.16759 0.48919
 C618 C 0.28949 1.18035 0.43972
 H619 H 0.30938 1.19524 0.43810
 C620 C 0.24001 1.14031 0.44579
 H621 H 0.22122 1.12413 0.44780
 C622 C 0.24628 1.15523 0.41641
 H623 H 0.23178 1.15077 0.39635
 N624 N 0.25791 1.14532 0.47132
 C625 C 0.23178 1.13030 0.57262
 H626 H 0.23081 1.10558 0.57284
 C627 C 0.22275 1.14615 0.60006
 H628 H 0.21587 1.13324 0.62159
 C629 C 0.24287 1.17676 0.54414
 H630 H 0.25027 1.18854 0.52212
 C631 C 0.23432 1.19356 0.57122
 H632 H 0.23577 1.21829 0.57008
 Zn633 Zn 0.25052 1.12145 0.50930
 N634 N 0.24170 1.14569 0.54547
 C635 C 0.30046 1.09783 0.54353
 N636 N 0.28528 1.09781 0.51548
 C637 C 0.29606 1.08278 0.48923
 C638 C 0.32382 1.06799 0.49006
 C639 C 0.32826 1.08294 0.54554
 C640 C 0.18911 1.11110 0.50429
 C641 C 0.16198 1.09484 0.50109
 C642 C 0.19065 1.04825 0.49740
 C643 C 0.21736 1.06548 0.50102
 N644 N 0.21603 1.09633 0.50406
 H645 H 0.29163 1.11024 0.56398
 H646 H 0.28356 1.08330 0.46722
 H647 H 0.33250 1.05682 0.46864
 H648 H 0.34075 1.08394 0.56756
 H649 H 0.18881 1.13563 0.50703
 H650 H 0.14069 1.10698 0.50142
 H651 H 0.19205 1.02370 0.49550
 H652 H 0.23902 1.05419 0.50153
 C653 C 0.22378 1.17826 0.59949
 C654 C 0.27116 1.17559 0.41305
 C655 C 0.16254 1.06312 0.49731
 C656 C 0.34064 1.06877 0.51821
 C657 C 0.18217 0.45711 0.26908
 H658 H 0.17883 0.47202 0.28933
 C659 C 0.19914 0.43061 0.27279
 H660 H 0.20880 0.42574 0.29590
 C661 C 0.17094 0.44386 0.21566
 H662 H 0.15936 0.44828 0.19370
 C663 C 0.18767 0.41727 0.21829
 H664 H 0.18888 0.40190 0.19810
 N665 N 0.16850 0.46331 0.24080
 C666 C 0.16328 0.55548 0.21163
 H667 H 0.14639 0.55187 0.19372
 C668 C 0.18074 0.58251 0.21061
 H669 H 0.17680 0.59939 0.19195
 C670 C 0.18715 0.53906 0.25904
 H671 H 0.18921 0.52240 0.27824
 C672 C 0.20485 0.56578 0.25909
 H673 H 0.22046 0.56938 0.27838
 Zn674 Zn 0.14280 0.49777 0.23808
 N675 N 0.16681 0.53433 0.23557
 C676 C 0.11479 0.52262 0.29481
 N677 N 0.11781 0.49752 0.27609
 C678 C 0.10432 0.47039 0.28488
 C679 C 0.08730 0.46755 0.31368
 C680 C 0.09790 0.52078 0.32403
 C681 C 0.13214 0.49539 0.17149
 C682 C 0.11567 0.48938 0.14410
 C683 C 0.07051 0.48148 0.17814
 C684 C 0.08797 0.48769 0.20490
 N685 N 0.11832 0.49390 0.20124
 H686 H 0.12582 0.54396 0.28736
 H687 H 0.10730 0.45075 0.26967
 H688 H 0.07713 0.44554 0.32039
 H689 H 0.09639 0.54087 0.33874
 H690 H 0.15632 0.50035 0.16910
 H691 H 0.12762 0.49034 0.12082
 H692 H 0.04663 0.47640 0.18264
 H693 H 0.07723 0.48692 0.22868
 C694 C 0.20185 0.58788 0.23467
 C695 C 0.20190 0.41023 0.24709
 C696 C 0.08438 0.48189 0.14692
 C697 C 0.08410 0.49277 0.33389
 C698 C -0.15529 1.05444 0.29472
 H699 H -0.13561 1.04904 0.30842
 C700 C -0.17020 1.08190 0.30016
 H701 H -0.16192 1.09687 0.31851
 C702 C -0.18991 1.04139 0.25443
 H703 H -0.19733 1.02560 0.23642
 C704 C -0.20549 1.06852 0.25910
 H705 H -0.22477 1.07354 0.24441
 N706 N -0.16467 1.03536 0.27134
 C707 C -0.15611 0.94965 0.22476
 H708 H -0.13558 0.95541 0.21075
 C709 C -0.17122 0.92199 0.21976
 H710 H -0.16246 0.90686 0.20142
 C711 C -0.19167 0.96179 0.26664
 H712 H -0.19886 0.97708 0.28552
 C713 C -0.20761 0.93432 0.26233
 H714 H -0.22718 0.92852 0.27791
 Zn715 Zn -0.14070 1.00195 0.25830
 N716 N -0.16608 0.96852 0.24837
 C717 C -0.11950 0.96190 0.30644
 N718 N -0.11445 0.98952 0.29146
 C719 C -0.09093 1.00809 0.29974
 C720 C -0.07134 0.99904 0.32376
 C721 C -0.10077 0.95220 0.33100
 C722 C -0.13315 1.02587 0.19543
 C723 C -0.11772 1.03462 0.16678
 C724 C -0.07074 1.01884 0.19003
 C725 C -0.08717 1.01025 0.21819
 N726 N -0.11780 1.01401 0.22049
 H727 H -0.13828 0.94741 0.29966
 H728 H -0.08735 1.02997 0.28759
 H729 H -0.05321 1.01451 0.33042
 H730 H -0.10544 0.93043 0.34313
 H731 H -0.15754 1.02812 0.19739
 H732 H -0.13067 1.04358 0.14708
 H733 H -0.04662 1.01454 0.18920
 H734 H -0.07540 0.99980 0.23781
 C735 C -0.19665 0.91360 0.23952
 C736 C -0.19493 1.08975 0.28122
 C737 C -0.08606 1.03115 0.16354
 C738 C -0.07619 0.97070 0.33969
 C739 C 0.32651 0.53894 -0.22394
 H740 H 0.32230 0.51973 -0.20758
 C741 C 0.31157 0.56657 -0.21869
 H742 H 0.29578 0.56858 -0.19828
 C743 C 0.35285 0.56023 -0.26993
 H744 H 0.36928 0.55814 -0.28959
 C745 C 0.33855 0.58800 -0.26563
 H746 H 0.34360 0.60645 -0.28276
 N747 N 0.34674 0.53633 -0.24928
 C748 C 0.35873 0.43868 -0.27101
 H749 H 0.38297 0.43973 -0.27649
 C750 C 0.34375 0.41197 -0.27119
 H751 H 0.35626 0.39192 -0.27810
 C752 C 0.31350 0.46628 -0.25902
 H753 H 0.30208 0.48722 -0.25314
 C754 C 0.29581 0.43721 -0.25938
 H755 H 0.27155 0.43762 -0.25378
 Zn756 Zn 0.36887 0.49997 -0.25568
 N757 N 0.34302 0.46612 -0.26294
 C758 C 0.38377 0.46570 -0.20032
 N759 N 0.39096 0.49142 -0.21808
 C760 C 0.41282 0.51140 -0.20864
 C761 C 0.42948 0.50502 -0.18130
 C762 C 0.39945 0.45875 -0.17252
 C763 C 0.38094 0.50708 -0.32142
 C764 C 0.39776 0.51289 -0.34998
 C765 C 0.44365 0.51371 -0.31956
 C766 C 0.42590 0.50768 -0.29149
 N767 N 0.39505 0.50516 -0.29283
 H768 H 0.36555 0.45063 -0.20732
 H769 H 0.41733 0.53230 -0.22238
 H770 H 0.44665 0.52131 -0.17405
 H771 H 0.39333 0.43829 -0.15858
 H772 H 0.35642 0.50467 -0.32188
 H773 H 0.38603 0.51456 -0.37247
 H774 H 0.46812 0.51528 -0.31787
 H775 H 0.43688 0.50518 -0.26877
 C776 C 0.31045 0.41061 -0.26300
 C777 C 0.31812 0.59169 -0.23931
 C778 C 0.42945 0.51681 -0.34928
 C779 C 0.42299 0.47818 -0.16308
 C780 C 0.67698 -0.03827 -0.22387
 H781 H 0.67620 -0.02166 -0.20485
 C782 C 0.69413 -0.06325 -0.22101
 H783 H 0.70730 -0.06652 -0.19966
 C784 C 0.65893 -0.05381 -0.27465
 H785 H 0.64478 -0.05091 -0.29511
 C786 C 0.67811 -0.08096 -0.27306
 H787 H 0.67660 -0.09699 -0.29249
 N788 N 0.65921 -0.03359 -0.25200
 C789 C 0.64375 0.06215 -0.27476
 H790 H 0.61976 0.05993 -0.27950
 C791 C 0.65814 0.09067 -0.27748
 H792 H 0.64492 0.11016 -0.28474
 C793 C 0.68928 0.03935 -0.25817
 H794 H 0.70103 0.01931 -0.24998
 C795 C 0.70467 0.06766 -0.26036
 H796 H 0.72823 0.06854 -0.25380
 Zn797 Zn 0.63487 0.00184 -0.25661
 N798 N 0.65922 0.03734 -0.26474
 C799 C 0.61878 0.03364 -0.20051
 N800 N 0.61178 0.00843 -0.21784
 C801 C 0.58932 -0.01147 -0.20744
 C802 C 0.57174 -0.00533 -0.17966
 C803 C 0.60232 0.04020 -0.17225
 C804 C 0.62478 -0.00131 -0.32197
 C805 C 0.60927 -0.00556 -0.35030
 C806 C 0.56236 -0.01108 -0.31869
 C807 C 0.57889 -0.00679 -0.29077
 N808 N 0.60969 -0.00269 -0.29286
 H809 H 0.63732 0.04874 -0.20835
 H810 H 0.58489 -0.03196 -0.22085
 H811 H 0.55383 -0.02130 -0.17175
 H812 H 0.60821 0.06032 -0.15876
 H813 H 0.64914 0.00281 -0.32308
 H814 H 0.62203 -0.00367 -0.37298
 H815 H 0.53788 -0.01437 -0.31671
 H816 H 0.56700 -0.00679 -0.26763
 C817 C 0.68884 0.09407 -0.26957
 C818 C 0.69575 -0.08568 -0.24751
 C819 C 0.57764 -0.01117 -0.34890
 C820 C 0.57805 0.02105 -0.16198
 C821 C 0.03241 0.27946 0.83720
 H822 H 0.01825 0.29944 0.83674
 C823 C 0.05960 0.27908 0.81863
 H824 H 0.06613 0.29922 0.80449
 C825 C 0.04133 0.22968 0.85758
 H826 H 0.03451 0.21061 0.87314
 C827 C 0.06862 0.22836 0.83954
 H828 H 0.08237 0.20813 0.84137
 N829 N 0.02368 0.25487 0.85597
 C830 C -0.07504 0.26039 0.86911
 H831 H -0.07695 0.25909 0.89514
 C832 C -0.10126 0.26150 0.85116
 H833 H -0.12334 0.26142 0.86356
 C834 C -0.04394 0.26108 0.82136
 H835 H -0.02156 0.26036 0.80986
 C836 C -0.06971 0.26157 0.80240
 H837 H -0.06685 0.26201 0.77640
 Zn838 Zn -0.01332 0.25588 0.88110
 N839 N -0.04707 0.26057 0.85412
 C840 C -0.03198 0.31113 0.91067
 N841 N -0.01099 0.28860 0.91092
 C842 C 0.01273 0.28979 0.93116
 C843 C 0.01593 0.31427 0.95220
 C844 C -0.02994 0.33567 0.93164
 C845 C -0.02611 0.19432 0.88218
 C846 C -0.03146 0.16480 0.89421
 C847 C -0.02406 0.18326 0.94796
 C848 C -0.01901 0.21273 0.93479
 N849 N -0.01976 0.21753 0.90234
 H850 H -0.05005 0.31060 0.89372
 H851 H 0.02949 0.27196 0.93055
 H852 H 0.03525 0.31518 0.96773
 H853 H -0.04650 0.35363 0.93028
 H854 H -0.02682 0.19881 0.85652
 H855 H -0.03620 0.14668 0.87753
 H856 H -0.02339 0.17995 0.97378
 H857 H -0.01443 0.23163 0.95045
 C858 C -0.09882 0.26163 0.81743
 C859 C 0.07808 0.25310 0.81956
 C860 C -0.03017 0.15877 0.92738
 C861 C -0.00571 0.33748 0.95282
 C862 C 0.46516 0.27612 0.16882
 H863 H 0.48135 0.29501 0.16894
 C864 C 0.43953 0.27589 0.18995
 H865 H 0.43652 0.29489 0.20594
 C866 C 0.44911 0.22932 0.14665
 H867 H 0.45219 0.21151 0.12926
 C868 C 0.42339 0.22816 0.16719
 H869 H 0.40737 0.20922 0.16541
 N870 N 0.46960 0.25290 0.14785
 C871 C 0.56589 0.24868 0.11917
 H872 H 0.56276 0.24519 0.09374
 C873 C 0.59489 0.24706 0.13147
 H874 H 0.61400 0.24240 0.11525
 C875 C 0.54447 0.25807 0.17110
 H876 H 0.52462 0.26166 0.18652
 C877 C 0.57335 0.25677 0.18452
 H878 H 0.57526 0.25936 0.21023
 Zn879 Zn 0.50358 0.25305 0.11786
 N880 N 0.54137 0.25416 0.13887
 C881 C 0.52526 0.30728 0.08604
 N882 N 0.50119 0.28736 0.08916
 C883 C 0.47509 0.29240 0.07326
 C884 C 0.47235 0.31861 0.05375
 C885 C 0.52367 0.33340 0.06648
 C886 C 0.50816 0.19079 0.11463
 C887 C 0.50596 0.16144 0.10252
 C888 C 0.49495 0.18320 0.05041
 C889 C 0.49708 0.21244 0.06373
 N890 N 0.50294 0.21553 0.09554
 H891 H 0.54565 0.30337 0.09917
 H892 H 0.45620 0.27632 0.07619
 H893 H 0.45135 0.32227 0.04147
 H894 H 0.54296 0.34915 0.06472
 H895 H 0.51296 0.19393 0.13976
 H896 H 0.50916 0.14204 0.11852
 H897 H 0.48908 0.18098 0.02544
 H898 H 0.49322 0.23248 0.04893
 C899 C 0.59902 0.25108 0.16448
 C900 C 0.41812 0.25155 0.18921
 C901 C 0.49890 0.15727 0.07022
 C902 C 0.49683 0.33972 0.05055
 C903 C -0.02990 0.77388 0.65956
 H904 H -0.01538 0.79398 0.65625
 C905 C -0.05416 0.77439 0.68004
 H906 H -0.05854 0.79519 0.69291
 C907 C -0.04010 0.72233 0.64509
 H908 H -0.03508 0.70232 0.63117
 C909 C -0.06684 0.72169 0.66750
 H910 H -0.08062 0.70091 0.66927
 N911 N -0.02310 0.74686 0.64160
 C912 C 0.07333 0.74412 0.61437
 H913 H 0.07138 0.74020 0.58885
 C914 C 0.10183 0.74381 0.62805
 H915 H 0.12176 0.73973 0.61276
 C916 C 0.04950 0.75352 0.66516
 H917 H 0.02893 0.75685 0.67956
 C918 C 0.07774 0.75344 0.67994
 H919 H 0.07834 0.75669 0.70566
 Zn920 Zn 0.01045 0.74727 0.61135
 N921 N 0.04789 0.74908 0.63287
 C922 C 0.03188 0.80079 0.57791
 N923 N 0.00758 0.78142 0.58281
 C924 C -0.01886 0.78596 0.56741
 C925 C -0.02131 0.81041 0.54557
 C926 C 0.03049 0.82535 0.55617
 C927 C 0.01942 0.68496 0.60312
 C928 C 0.02138 0.65731 0.58705
 C929 C 0.00462 0.68261 0.53881
 C930 C 0.00334 0.70999 0.55575
 N931 N 0.01055 0.71062 0.58740
 H932 H 0.05243 0.79742 0.59094
 H933 H -0.03803 0.77050 0.57206
 H934 H -0.04256 0.81383 0.53364
 H935 H 0.04994 0.84075 0.55339
 H936 H 0.02505 0.68606 0.62825
 H937 H 0.02796 0.63710 0.60031
 H938 H -0.00136 0.68233 0.51371
 H939 H -0.00334 0.73063 0.54349
 C940 C 0.10444 0.74852 0.66120
 C941 C -0.07433 0.74669 0.68432
 C942 C 0.01422 0.65598 0.55433
 C943 C 0.00370 0.83022 0.53936
 C944 C 0.55609 0.78192 0.33746
 H945 H 0.55114 0.80339 0.34885
 C946 C 0.58253 0.77921 0.31807
 H947 H 0.59797 0.79866 0.31490
 C948 C 0.54222 0.73039 0.32786
 H949 H 0.52632 0.71146 0.33183
 C950 C 0.56846 0.72663 0.30851
 H951 H 0.57227 0.70478 0.29737
 N952 N 0.53680 0.75752 0.34232
 C953 C 0.43868 0.76023 0.36118
 H954 H 0.43763 0.75887 0.38724
 C955 C 0.41183 0.76152 0.34428
 H956 H 0.39024 0.76084 0.35764
 C957 C 0.46813 0.76159 0.31234
 H958 H 0.49017 0.76168 0.30000
 C959 C 0.44166 0.76250 0.29439
 H960 H 0.44349 0.76328 0.26831
 Zn961 Zn 0.50191 0.75930 0.37031
 N962 N 0.46620 0.76066 0.34519
 C963 C 0.48045 0.81450 0.39846
 N964 N 0.50396 0.79460 0.39731
 C965 C 0.52900 0.79951 0.41514
 C966 C 0.53064 0.82455 0.43562
 C967 C 0.48100 0.83958 0.41888
 C968 C 0.47888 0.70119 0.39071
 C969 C 0.47832 0.67323 0.40734
 C970 C 0.52314 0.68930 0.43490
 C971 C 0.52292 0.71701 0.41756
 N972 N 0.50081 0.72262 0.39611
 H973 H 0.46121 0.81130 0.38337
 H974 H 0.54807 0.78437 0.41306
 H975 H 0.55086 0.82818 0.44939
 H976 H 0.46219 0.85522 0.41878
 H977 H 0.46234 0.70515 0.37253
 H978 H 0.46123 0.65649 0.40117
 H979 H 0.54111 0.68515 0.45159
 H980 H 0.54087 0.73365 0.42079
 C981 C 0.41310 0.76310 0.31040
 C982 C 0.58936 0.75110 0.30396
 C983 C 0.50056 0.66696 0.43008
 C984 C 0.50622 0.84468 0.43814
 B985 B -0.02727 0.01330 1.03720
 B986 B -0.04604 0.00789 1.00322
 B987 B -0.01683 0.03287 1.00371
 B988 B 0.01003 0.01896 1.02785
 B989 B -0.00342 -0.01570 1.04244
 B990 B -0.03850 -0.02217 1.02717
 B991 B 0.00303 -0.01908 0.97699
 B992 B 0.02167 -0.01350 1.01098
 B993 B -0.00763 -0.03851 1.01057
 B994 B -0.03435 -0.02470 0.98626
 B995 B -0.02093 0.00992 0.97169
 B996 B 0.01408 0.01669 0.98691
 B997 B 0.49129 0.52099 0.52560
 B998 B 0.46899 0.51519 0.49415
 B999 B 0.50012 0.53795 0.48971
 B1000 B 0.52797 0.52337 0.51218
 B1001 B 0.51342 0.49059 0.53023
 B1002 B 0.47654 0.48584 0.51909
 B1003 B 0.51336 0.48318 0.46514
 B1004 B 0.53550 0.48903 0.49654
 B1005 B 0.50451 0.46633 0.50071
 B1006 B 0.47667 0.48083 0.47839
 B1007 B 0.49112 0.51353 0.46029
 B1008 B 0.52802 0.51836 0.47142
 B1009 B 0.51679 0.99089 0.52312
 B1010 B 0.53578 0.99570 0.48759
 B1011 B 0.50545 0.97179 0.49053
 B1012 B 0.47930 0.98652 0.51626
 B1013 B 0.49376 1.02059 0.52894
 B1014 B 0.52916 1.02613 0.51118
 B1015 B 0.48793 1.02454 0.46364
 B1016 B 0.46880 1.01958 0.49910
 B1017 B 0.49898 1.04356 0.49612
 B1018 B 0.52537 1.02887 0.47042
 B1019 B 0.51083 0.99476 0.45780
 B1020 B 0.47541 0.98941 0.47546
 B1021 B 0.01710 0.48513 1.03014
 B1022 B 0.03365 0.48839 0.99319
 B1023 B 0.00237 0.46617 0.99921
 B1024 B -0.02099 0.48279 1.02670
 B1025 B -0.00364 0.51630 1.03718
 B1026 B 0.03058 0.51937 1.01647
 B1027 B -0.01463 0.51946 0.97278
 B1028 B -0.03098 0.51619 1.00983
 B1029 B 0.00035 0.53845 1.00368
 B1030 B 0.02364 0.52183 0.97621
 B1031 B 0.00631 0.48839 0.96569
 B1032 B -0.02785 0.48507 0.98653
 B1033 B 0.02268 0.50528 0.47446
 B1034 B 0.04211 0.50113 0.50836
 B1035 B 0.01376 0.52625 0.50697
 B1036 B -0.01414 0.51168 0.48448
 B1037 B -0.00265 0.47637 0.47245
 B1038 B 0.03269 0.47006 0.48724
 B1039 B -0.00750 0.47554 0.53808
 B1040 B -0.02677 0.47999 0.50428
 B1041 B 0.00145 0.45480 0.50593
 B1042 B 0.02944 0.46932 0.52830
 B1043 B 0.01784 0.50443 0.54041
 B1044 B -0.01733 0.51088 0.52568
 B1045 B 0.50618 0.01351 -0.03852
 B1046 B 0.52302 0.00976 -0.00312
 B1047 B 0.49348 0.03305 -0.00662
 B1048 B 0.46842 0.01734 -0.03169
 B1049 B 0.48308 -0.01684 -0.04349
 B1050 B 0.51742 -0.02112 -0.02593
 B1051 B 0.47323 -0.01953 0.02171
 B1052 B 0.45638 -0.01563 -0.01369
 B1053 B 0.48618 -0.03888 -0.01023
 B1054 B 0.51117 -0.02314 0.01492
 B1055 B 0.49627 0.01084 0.02681
 B1056 B 0.46198 0.01528 0.00910
 B1057 B 0.48530 0.48695 -0.03850
 B1058 B 0.46440 0.49135 -0.00454
 B1059 B 0.49283 0.46631 -0.00546
 B1060 B 0.52174 0.48093 -0.02910
 B1061 B 0.51053 0.51609 -0.04241
 B1062 B 0.47459 0.52213 -0.02734
 B1063 B 0.51248 0.51727 0.02315
 B1064 B 0.53329 0.51283 -0.01090
 B1065 B 0.50484 0.53782 -0.00978
 B1066 B 0.47596 0.52326 0.01381
 B1067 B 0.48713 0.48815 0.02722
 B1068 B 0.52309 0.48194 0.01200
 B1069 B -0.00807 0.97969 0.45929
 B1070 B -0.02587 0.98100 0.49560
 B1071 B 0.00394 0.95812 0.49007
 B1072 B 0.02956 0.97562 0.46434
 B1073 B 0.01496 1.01053 0.45453
 B1074 B -0.01981 1.01338 0.47381
 B1075 B 0.02327 1.00878 0.51939
 B1076 B 0.04090 1.00728 0.48309
 B1077 B 0.01105 1.03025 0.48890
 B1078 B -0.01447 1.01269 0.51444
 B1079 B 0.00011 0.97808 0.52438
 B1080 B 0.03476 0.97485 0.50503
 B1081 B 0.77315 0.23452 0.21993
 B1082 B 0.76602 0.21816 0.25617
 B1083 B 0.79134 0.24708 0.25202
 B1084 B 0.77895 0.27241 0.22447
 B1085 B 0.74484 0.25848 0.21187
 B1086 B 0.73718 0.22435 0.23141
 B1087 B 0.73874 0.26904 0.27625
 B1088 B 0.74590 0.28543 0.24006
 B1089 B 0.72064 0.25647 0.24416
 B1090 B 0.73298 0.23117 0.27169
 B1091 B 0.76707 0.24515 0.28440
 B1092 B 0.77478 0.27924 0.26483
 B1093 B 0.74425 0.76922 0.71712
 B1094 B 0.75156 0.78958 0.74985
 B1095 B 0.72833 0.75877 0.75266
 B1096 B 0.74152 0.73192 0.72741
 B1097 B 0.77391 0.74661 0.70889
 B1098 B 0.77988 0.78272 0.72267
 B1099 B 0.78316 0.74278 0.77352
 B1100 B 0.77587 0.72257 0.74065
 B1101 B 0.79913 0.75340 0.73770
 B1102 B 0.78595 0.78030 0.76319
 B1103 B 0.75337 0.76549 0.78171
 B1104 B 0.74759 0.72934 0.76781
 B1105 B 0.25628 0.26360 0.78278
 B1106 B 0.25248 0.28473 0.74914
 B1107 B 0.27463 0.25386 0.74829
 B1108 B 0.25854 0.22654 0.77281
 B1109 B 0.22525 0.24099 0.78842
 B1110 B 0.22195 0.27749 0.77383
 B1111 B 0.22090 0.23869 0.72309
 B1112 B 0.22505 0.21760 0.75679
 B1113 B 0.20276 0.24851 0.75728
 B1114 B 0.21893 0.27590 0.73299
 B1115 B 0.25180 0.26137 0.71730
 B1116 B 0.25545 0.22497 0.73185
 B1117 B 0.23427 0.73169 0.28685
 B1118 B 0.24044 0.71748 0.25003
 B1119 B 0.21390 0.74403 0.25601
 B1120 B 0.22638 0.76919 0.28333
 B1121 B 0.26159 0.75747 0.29397
 B1122 B 0.27021 0.72513 0.27327
 B1123 B 0.26402 0.77153 0.22950
 B1124 B 0.25794 0.78565 0.26634
 B1125 B 0.28444 0.75898 0.26042
 B1126 B 0.27196 0.73403 0.23300
 B1127 B 0.23658 0.74564 0.22237
 B1128 B 0.22805 0.77801 0.24308
 B1129 B 0.27592 0.74202 0.72896
 B1130 B 0.26739 0.72070 0.76211
 B1131 B 0.29002 0.75189 0.76447
 B1132 B 0.27767 0.77926 0.73915
 B1133 B 0.24630 0.76448 0.72131
 B1134 B 0.24028 0.72781 0.73544
 B1135 B 0.23386 0.76631 0.78596
 B1136 B 0.24246 0.78756 0.75299
 B1137 B 0.21984 0.75660 0.75060
 B1138 B 0.23209 0.72920 0.77586
 B1139 B 0.26348 0.74385 0.79382
 B1140 B 0.26958 0.78048 0.77976
 B1141 B 0.24364 0.26555 0.22716
 B1142 B 0.24684 0.28403 0.26198
 B1143 B 0.22358 0.25341 0.26006
 B1144 B 0.23965 0.22778 0.23521
 B1145 B 0.27388 0.24306 0.22170
 B1146 B 0.27805 0.27840 0.23818
 B1147 B 0.27540 0.23611 0.28711
 B1148 B 0.27196 0.21750 0.25250
 B1149 B 0.29535 0.24813 0.25419
 B1150 B 0.27933 0.27386 0.27914
 B1151 B 0.24499 0.25853 0.29265
 B1152 B 0.24087 0.22332 0.27624
 B1153 B 0.76624 0.75950 0.26662
 B1154 B 0.75982 0.78100 0.23386
 B1155 B 0.78452 0.75215 0.23141
 B1156 B 0.77134 0.72298 0.25535
 B1157 B 0.73741 0.73413 0.27225
 B1158 B 0.73048 0.77053 0.25894
 B1159 B 0.73152 0.73328 0.20718
 B1160 B 0.73823 0.71178 0.23978
 B1161 B 0.71350 0.74051 0.24214
 B1162 B 0.72662 0.76976 0.21828
 B1163 B 0.76038 0.75860 0.20125
 B1164 B 0.76738 0.72225 0.21448
 B1165 B 0.73169 0.23776 0.78402
 B1166 B 0.73663 0.21966 0.74912
 B1167 B 0.71205 0.24845 0.75207
 B1168 B 0.72631 0.27519 0.77641
 B1169 B 0.76086 0.26249 0.78833
 B1170 B 0.76693 0.22760 0.77158
 B1171 B 0.76361 0.26990 0.72293
 B1172 B 0.75859 0.28795 0.75778
 B1173 B 0.78321 0.25929 0.75489
 B1174 B 0.76904 0.23244 0.73051
 B1175 B 0.73448 0.24524 0.71853
 B1176 B 0.72834 0.28007 0.73544
 C1177 C 0.44110 1.02395 0.37381
 C1178 C 0.46750 1.03984 0.37450
 C1179 C 0.48557 1.04013 0.40393
 C1180 C 0.47217 1.03859 0.43336
 H1181 H 0.47793 1.04953 0.35262
 H1182 H 0.51007 1.03848 0.40100
 H1183 H 0.43296 1.01177 0.39542
 H1184 H 0.44778 1.04073 0.43533
 C1185 C -0.06256 0.53544 0.87839
 C1186 C -0.07576 0.52972 0.90910
 C1187 C -0.06051 0.52779 0.93794
 C1188 C -0.03078 0.53362 0.94230
 H1189 H -0.09968 0.52352 0.91123
 H1190 H -0.07427 0.51790 0.95761
 H1191 H -0.04053 0.54686 0.87609
 H1192 H -0.01632 0.54350 0.92316
 C1193 C 0.02632 -0.02272 0.86017
 C1194 C 0.03199 -0.03443 0.88930
 C1195 C 0.01106 -0.02884 0.91685
 C1196 C 0.01947 -0.03433 0.94703
 H1197 H 0.05317 -0.04583 0.89362
 H1198 H -0.00978 -0.01674 0.91252
 H1199 H 0.00443 -0.01237 0.85644
 H1200 H 0.04060 -0.04594 0.95103
 C1201 C 0.55647 0.47116 0.36929
 C1202 C 0.52713 0.46307 0.37472
 C1203 C 0.51156 0.46680 0.40648
 C1204 C 0.52595 0.46592 0.43447
 H1205 H 0.51294 0.45735 0.35485
 H1206 H 0.48799 0.47366 0.40614
 H1207 H 0.57018 0.47743 0.38943
 H1208 H 0.54898 0.45768 0.43522
 C1209 C 0.55559 0.51606 0.11631
 C1210 C 0.52917 0.53065 0.11343
 C1211 C 0.51278 0.53019 0.08296
 C1212 C 0.52730 0.53087 0.05404
 H1213 H 0.51707 0.53890 0.13456
 H1214 H 0.48839 0.52615 0.08476
 H1215 H 0.56555 0.50516 0.09530
 H1216 H 0.55139 0.53634 0.05243
 C1217 C 0.06480 1.02169 0.61741
 C1218 C 0.08059 1.01766 0.58970
 C1219 C 0.06697 1.01417 0.55799
 C1220 C 0.03866 1.02200 0.55039
 H1221 H 0.10463 1.01270 0.59049
 H1222 H 0.08088 1.00180 0.54090
 H1223 H 0.04095 1.02739 0.61743
 H1224 H 0.02445 1.03462 0.56704
 C1225 C -0.05630 0.47167 0.63299
 C1226 C -0.02752 0.46212 0.62972
 C1227 C -0.01039 0.46364 0.59851
 C1228 C -0.02358 0.46204 0.56990
 H1229 H -0.01472 0.45655 0.65073
 H1230 H 0.01372 0.46895 0.59949
 H1231 H -0.06860 0.47770 0.61169
 H1232 H -0.04724 0.45513 0.56867
 C1233 C 0.45304 -0.02709 0.13883
 C1234 C 0.44516 -0.03708 0.10995
 C1235 C 0.46602 -0.03252 0.08175
 C1236 C 0.45565 -0.03458 0.05196
 H1237 H 0.42254 -0.04621 0.10629
 H1238 H 0.48884 -0.02371 0.08538
 H1239 H 0.47619 -0.01882 0.14170
 H1240 H 0.43240 -0.04221 0.04902
 C1241 C 0.36894 0.45528 0.01603
 C1242 C 0.37513 0.48436 0.00704
 C1243 C 0.40661 0.49682 0.00584
 C1244 C 0.43036 0.47951 -0.00254
 H1245 H 0.35729 0.49964 0.00031
 H1246 H 0.40996 0.52094 0.01025
 H1247 H 0.38745 0.44142 0.02429
 H1248 H 0.42647 0.45614 -0.00971
 C1249 C -0.12528 0.94566 0.50277
 C1250 C -0.10087 0.92999 0.49294
 C1251 C -0.07001 0.94300 0.48823
 C1252 C -0.05959 0.96840 0.50205
 H1253 H -0.10368 0.90670 0.48506
 H1254 H -0.05512 0.93001 0.47265
 H1255 H -0.12323 0.96984 0.50750
 H1256 H -0.07408 0.98101 0.51846
 C1257 C -0.14433 0.03757 0.99396
 C1258 C -0.12135 0.03911 0.96963
 C1259 C -0.09183 0.02803 0.97269
 C1260 C -0.08012 0.01839 1.00048
 H1261 H -0.12607 0.04909 0.94640
 H1262 H -0.07739 0.02880 0.95104
 H1263 H -0.14099 0.02321 1.01494
 H1264 H -0.09354 0.01809 1.02268
 C1265 C 0.37116 0.55318 0.50102
 C1266 C 0.39746 0.56863 0.50392
 C1267 C 0.42794 0.55540 0.50313
 C1268 C 0.43517 0.52741 0.49313
 H1269 H 0.39709 0.59290 0.50850
 H1270 H 0.44544 0.57051 0.51167
 H1271 H 0.37093 0.52920 0.49512
 H1272 H 0.41797 0.51218 0.48404
 C1273 C 0.13751 0.54290 0.52388
 C1274 C 0.11710 0.55211 0.50267
 C1275 C 0.08815 0.53647 0.49595
 C1276 C 0.07651 0.51180 0.51178
 H1277 H 0.12138 0.57330 0.48929
 H1278 H 0.07462 0.54828 0.47867
 H1279 H 0.13529 0.52091 0.53604
 H1280 H 0.08937 0.50013 0.52982
 C1281 C 0.62019 0.04261 0.01685
 C1282 C 0.59442 0.05539 0.02792
 C1283 C 0.56379 0.04162 0.02469
 C1284 C 0.55654 0.02228 0.00130
 H1285 H 0.59517 0.07715 0.03980
 H1286 H 0.54613 0.04959 0.04114
 H1287 H 0.61905 0.02065 0.00529
 H1288 H 0.57358 0.01534 -0.01635
 C1289 C 0.63446 0.95928 0.48183
 C1290 C 0.60901 0.94463 0.49255
 C1291 C 0.57825 0.95713 0.49415
 C1292 C 0.56947 0.98385 0.48160
 H1293 H 0.61061 0.92173 0.50260
 H1294 H 0.56214 0.94315 0.50828
 H1295 H 0.63367 0.98149 0.47011
 H1296 H 0.58531 0.99832 0.46765
 C1297 C 0.13087 0.44750 0.98372
 C1298 C 0.10459 0.43320 0.99241
 C1299 C 0.07477 0.44759 0.99689
 C1300 C 0.06648 0.47483 0.98512
 H1301 H 0.10487 0.40929 0.99948
 H1302 H 0.05886 0.43419 1.01186
 H1303 H 0.13117 0.47107 0.97541
 H1304 H 0.08216 0.48842 0.96996
 C1305 C 0.00019 0.36290 0.46404
 C1306 C 0.01451 0.36781 0.49160
 C1307 C 0.01686 0.39866 0.50540
 C1308 C -0.00513 0.41936 0.50306
 H1309 H 0.02866 0.35032 0.50164
 H1310 H 0.03848 0.40505 0.51538
 H1311 H -0.01116 0.38179 0.45261
 H1312 H -0.02707 0.41253 0.49423
 C1313 C 0.49876 -0.12994 -0.05140
 C1314 C 0.50566 -0.12531 -0.02056
 C1315 C 0.50394 -0.09454 -0.00642
 C1316 C 0.48324 -0.07433 -0.01559
 H1317 H 0.51546 -0.14325 -0.00626
 H1318 H 0.52109 -0.08811 0.01045
 H1319 H 0.49191 -0.11060 -0.06590
 H1320 H 0.46587 -0.08141 -0.03189
 C1321 C 0.00936 -0.12964 1.05417
 C1322 C 0.02148 -0.12237 1.02484
 C1323 C 0.01919 -0.09105 1.01109
 C1324 C -0.00550 -0.07414 1.01666
 H1325 H 0.03546 -0.13848 1.01188
 H1326 H 0.03847 -0.08183 0.99706
 H1327 H -0.00178 -0.11191 1.06789
 H1328 H -0.02526 -0.08466 1.02888
 C1329 C 0.49960 0.37587 0.57479
 C1330 C 0.50395 0.38551 0.54410
 C1331 C 0.50138 0.41839 0.53647
 C1332 C 0.50671 0.43051 0.50691
 H1333 H 0.50933 0.36987 0.52495
 H1334 H 0.49514 0.43330 0.55614
 H1335 H 0.49466 0.39292 0.59282
 H1336 H 0.51312 0.41604 0.48699
 C1337 C 0.49552 1.13644 0.53958
 C1338 C 0.51620 1.12978 0.51621
 C1339 C 0.51848 1.09899 0.50194
 C1340 C 0.49509 1.07895 0.50181
 H1341 H 0.53380 1.14621 0.50891
 H1342 H 0.54071 1.09228 0.49280
 H1343 H 0.47870 1.11931 0.54727
 H1344 H 0.47297 1.08598 0.51036
 C1345 C 0.00755 0.63036 1.04896
 C1346 C 0.02534 0.62318 1.02328
 C1347 C 0.02445 0.59248 1.00842
 C1348 C -0.00041 0.57419 1.00969
 H1349 H 0.04253 0.63924 1.01394
 H1350 H 0.04543 0.58441 0.99740
 H1351 H -0.00882 0.61360 1.05864
 H1352 H -0.02111 0.58279 1.02040
 C1353 C 0.51435 0.63702 -0.04439
 C1354 C 0.48975 0.62429 -0.02913
 C1355 C 0.48814 0.59326 -0.01439
 C1356 C 0.51111 0.57344 -0.01415
 H1357 H 0.46838 0.63623 -0.02949
 H1358 H 0.46551 0.58538 -0.00669
 H1359 H 0.53641 0.62663 -0.04299
 H1360 H 0.53391 0.58055 -0.02170
 C1361 C 0.01426 1.13219 0.46510
 C1362 C -0.01086 1.11488 0.47738
 C1363 C -0.01016 1.08438 0.48817
 C1364 C 0.01433 1.06643 0.48652
 H1365 H -0.03319 1.12487 0.47764
 H1366 H -0.03199 1.07423 0.49561
 H1367 H 0.03697 1.12482 0.47032
 H1368 H 0.03627 1.07579 0.47897
 C1369 C 0.78826 0.68931 0.86093
 C1370 C 0.80056 0.71764 0.86067
 C1371 C 0.79884 0.73801 0.83208
 C1372 C 0.80063 0.72740 0.80203
 H1373 H 0.80697 0.72795 0.88302
 H1374 H 0.79209 0.76134 0.83627
 H1375 H 0.77870 0.68067 0.83906
 H1376 H 0.80843 0.70439 0.79844
 C1377 C 0.27696 0.19069 0.38123
 C1378 C 0.29283 0.21692 0.37644
 C1379 C 0.29205 0.23391 0.34544
 C1380 C 0.28959 0.21991 0.31714
 H1381 H 0.30246 0.22861 0.39656
 H1382 H 0.29029 0.25853 0.34664
 H1383 H 0.26490 0.18114 0.36128
 H1384 H 0.29255 0.19545 0.31580
 C1385 C 0.73246 0.29368 0.39081
 C1386 C 0.72219 0.30066 0.36164
 C1387 C 0.72588 0.27877 0.33538
 C1388 C 0.72296 0.28736 0.30459
 H1389 H 0.71357 0.32313 0.35630
 H1390 H 0.73512 0.25658 0.34108
 H1391 H 0.74013 0.27062 0.39541
 H1392 H 0.71404 0.30966 0.29899
 C1393 C 0.21928 0.78544 0.90097
 C1394 C 0.20876 0.79108 0.87163
 C1395 C 0.21680 0.77079 0.84492
 C1396 C 0.21381 0.78000 0.81435
 H1397 H 0.19728 0.81218 0.86636
 H1398 H 0.22947 0.75038 0.85025
 H1399 H 0.22981 0.76365 0.90572
 H1400 H 0.20148 0.80065 0.80926
 C1401 C 0.27348 0.82553 0.13495
 C1402 C 0.26664 0.83715 0.16398
 C1403 C 0.26702 0.82019 0.19490
 C1404 C 0.27665 0.79150 0.19950
 H1405 H 0.25724 0.85974 0.16581
 H1406 H 0.25451 0.83134 0.21406
 H1407 H 0.28575 0.80436 0.13355
 H1408 H 0.28890 0.77971 0.18059
 C1409 C 0.76725 0.31556 0.62846
 C1410 C 0.78552 0.29175 0.63365
 C1411 C 0.78316 0.27407 0.66424
 C1412 C 0.77781 0.28755 0.69252
 H1413 H 0.79945 0.28238 0.61446
 H1414 H 0.78342 0.24938 0.66287
 H1415 H 0.75164 0.32184 0.64795
 H1416 H 0.77874 0.31225 0.69366
 C1417 C 0.21685 0.19608 0.62874
 C1418 C 0.19795 0.18587 0.65280
 C1419 C 0.19777 0.19904 0.68530
 C1420 C 0.20587 0.22802 0.69094
 H1421 H 0.18547 0.16456 0.65038
 H1422 H 0.19360 0.18301 0.70490
 H1423 H 0.22951 0.21729 0.63116
 H1424 H 0.20780 0.24423 0.67097
 C1425 C 0.72894 0.71246 0.09122
 C1426 C 0.71687 0.70611 0.12222
 C1427 C 0.72343 0.72563 0.14730
 C1428 C 0.71486 0.71871 0.17781
 H1429 H 0.70448 0.68498 0.12763
 H1430 H 0.73840 0.74517 0.14215
 H1431 H 0.73738 0.73555 0.08607
 H1432 H 0.69948 0.69952 0.18300
 C1433 C 0.21868 0.61725 0.23717
 C1434 C 0.22431 0.63690 0.21244
 C1435 C 0.23727 0.66783 0.21729
 C1436 C 0.23030 0.68342 0.24391
 H1437 H 0.21949 0.63044 0.18807
 H1438 H 0.25052 0.67868 0.19770
 H1439 H 0.22658 0.62303 0.26081
 H1440 H 0.21450 0.67335 0.26173
 C1441 C 0.70148 0.12385 0.73027
 C1442 C 0.73163 0.13155 0.73751
 C1443 C 0.74231 0.16165 0.74145
 C1444 C 0.72422 0.18590 0.74505
 H1445 H 0.74838 0.11388 0.73921
 H1446 H 0.76673 0.16499 0.74276
 H1447 H 0.68640 0.14211 0.72395
 H1448 H 0.69980 0.18313 0.74670
 C1449 C 0.79086 0.12017 0.28218
 C1450 C 0.80535 0.14541 0.29198
 C1451 C 0.79350 0.17648 0.28756
 C1452 C 0.77586 0.18429 0.26313
 H1453 H 0.82731 0.14395 0.30280
 H1454 H 0.80196 0.19392 0.30333
 H1455 H 0.76866 0.12214 0.27187
 H1456 H 0.76884 0.16740 0.24601
 C1457 C 0.30401 0.62167 0.76663
 C1458 C 0.31978 0.64763 0.76006
 C1459 C 0.30791 0.67887 0.76114
 C1460 C 0.27877 0.68654 0.76634
 H1461 H 0.34351 0.64632 0.75240
 H1462 H 0.32468 0.69622 0.75444
 H1463 H 0.28101 0.62210 0.77669
 H1464 H 0.26158 0.66915 0.77198
 C1465 C 0.29448 0.38267 0.74212
 C1466 C 0.30866 0.35622 0.74751
 C1467 C 0.29313 0.32683 0.75503
 C1468 C 0.26577 0.31855 0.74451
 H1469 H 0.33309 0.35574 0.74943
 H1470 H 0.30657 0.31042 0.76780
 H1471 H 0.26984 0.38293 0.74433
 H1472 H 0.25282 0.33443 0.73043
 C1473 C 0.78989 0.88247 0.23864
 C1474 C 0.80781 0.85822 0.23528
 C1475 C 0.79720 0.82631 0.23877
 C1476 C 0.76959 0.81605 0.23095
 H1477 H 0.83227 0.86162 0.23308
 H1478 H 0.81403 0.81061 0.24695
 H1479 H 0.76585 0.87928 0.24459
 H1480 H 0.75316 0.83178 0.22165
 C1481 C 0.71481 0.88879 0.75510
 C1482 C 0.72432 0.87253 0.72956
 C1483 C 0.74274 0.84479 0.73142
 C1484 C 0.73835 0.82294 0.75418
 H1485 H 0.72002 0.88038 0.70533
 H1486 H 0.75691 0.84025 0.71027
 H1487 H 0.72339 0.88297 0.77856
 H1488 H 0.72280 0.82663 0.77446
 C1489 C 0.21688 0.38035 0.24980
 C1490 C 0.23607 0.37244 0.27287
 C1491 C 0.24902 0.34153 0.27442
 C1492 C 0.23303 0.31680 0.26590
 H1493 H 0.24388 0.38907 0.28984
 H1494 H 0.27197 0.33929 0.28276
 H1495 H 0.21196 0.36405 0.23124
 H1496 H 0.20970 0.31933 0.25900
 C1497 C 0.10810 0.25134 0.80210
 C1498 C 0.11761 0.27023 0.77785
 C1499 C 0.14916 0.27043 0.76415
 C1500 C 0.16703 0.24584 0.76366
 H1501 H 0.10306 0.28813 0.76947
 H1502 H 0.15824 0.29231 0.75543
 H1503 H 0.12338 0.23405 0.81059
 H1504 H 0.15764 0.22377 0.77103
 C1505 C 0.61872 0.74789 0.28568
 C1506 C 0.63370 0.72144 0.28438
 C1507 C 0.66574 0.71967 0.27285
 C1508 C 0.67783 0.73656 0.24825
 H1509 H 0.62423 0.70134 0.29678
 H1510 H 0.68001 0.70475 0.28656
 H1511 H 0.62994 0.76861 0.27639
 H1512 H 0.66330 0.75086 0.23407
 C1513 C 0.63020 0.24741 0.17642
 C1514 C 0.64003 0.25623 0.20511
 C1515 C 0.67219 0.25118 0.21253
 C1516 C 0.68531 0.26133 0.23911
 H1517 H 0.62517 0.26746 0.22234
 H1518 H 0.68588 0.23903 0.19488
 H1519 H 0.64654 0.23723 0.15979
 H1520 H 0.67218 0.27375 0.25695
 C1521 C 0.13531 0.74705 0.67458
 C1522 C 0.14278 0.75428 0.70463
 C1523 C 0.17480 0.75165 0.71377
 C1524 C 0.18481 0.75923 0.74277
 H1525 H 0.12603 0.76230 0.72203
 H1526 H 0.19088 0.74333 0.69571
 H1527 H 0.15338 0.73974 0.65815
 H1528 H 0.16914 0.76768 0.76109
 C1529 C 0.89860 0.74575 0.70367
 C1530 C 0.88734 0.76924 0.72063
 C1531 C 0.85648 0.76865 0.73649
 C1532 C 0.83371 0.75076 0.72652
 H1533 H 0.90031 0.79020 0.72287
 H1534 H 0.85179 0.78560 0.75461
 H1535 H 0.88561 0.72448 0.70425
 H1536 H 0.83766 0.73558 0.70660
 C1537 C 0.38913 0.25007 0.20886
 C1538 C 0.38093 0.26983 0.23186
 C1539 C 0.34963 0.27027 0.24630
 C1540 C 0.33118 0.24551 0.24926
 H1541 H 0.39596 0.28850 0.23786
 H1542 H 0.34103 0.29248 0.25272
 H1543 H 0.37291 0.23246 0.20249
 H1544 H 0.34015 0.22318 0.24438
 C1545 C 0.38474 0.76454 0.29197
 C1546 C 0.36111 0.78079 0.30293
 C1547 C 0.32977 0.77946 0.29123
 C1548 C 0.32001 0.76516 0.26491
 H1549 H 0.36393 0.79446 0.32419
 H1550 H 0.31329 0.78978 0.30745
 H1551 H 0.38329 0.75165 0.27005
 H1552 H 0.33597 0.75465 0.24829
 C1553 C 0.87287 0.26188 0.79915
 C1554 C 0.86970 0.24802 0.77081
 C1555 C 0.83947 0.24436 0.75652
 C1556 C 0.81832 0.26592 0.75893
 H1557 H 0.88848 0.23559 0.76017
 H1558 H 0.83404 0.22259 0.74588
 H1559 H 0.85293 0.27111 0.81131
 H1560 H 0.82450 0.28788 0.76864
 C1561 C 0.56005 0.98562 0.62136
 C1562 C 0.57280 0.97626 0.59355
 C1563 C 0.55962 0.98333 0.56237
 C1564 C 0.53096 0.97647 0.55456
 H1565 H 0.59611 0.96870 0.59267
 H1566 H 0.57462 0.99590 0.54555
 H1567 H 0.53676 0.99341 0.62179
 H1568 H 0.51613 0.96362 0.57137
 C1569 C 0.06928 0.47613 1.11965
 C1570 C 0.03792 0.46916 1.11799
 C1571 C 0.02173 0.46911 1.08936
 C1572 C 0.03449 0.47119 1.05954
 H1573 H 0.02394 0.46670 1.13975
 H1574 H -0.00286 0.46977 1.09213
 H1575 H 0.08251 0.47831 1.09733
 H1576 H 0.05868 0.46898 1.05564
 C1577 C -0.07172 0.03779 1.13330
 C1578 C -0.04160 0.03615 1.12692
 C1579 C -0.02768 0.03494 1.09405
 C1580 C -0.04326 0.02743 1.06798
 H1581 H -0.02582 0.03361 1.14611
 H1582 H -0.00302 0.03534 1.09253
 H1583 H -0.08635 0.04364 1.11376
 H1584 H -0.06774 0.02533 1.06944
 C1585 C 0.44661 0.52201 0.61973
 C1586 C 0.47512 0.53355 0.61678
 C1587 C 0.49236 0.53373 0.58555
 C1588 C 0.47879 0.53694 0.55725
 H1589 H 0.48743 0.53978 0.63787
 H1590 H 0.51606 0.52743 0.58613
 H1591 H 0.43513 0.51501 0.59830
 H1592 H 0.45545 0.54416 0.55752
 C1593 C 0.43887 0.47120 -0.13306
 C1594 C 0.46834 0.47839 -0.12970
 C1595 C 0.48432 0.47746 -0.09892
 C1596 C 0.47047 0.47383 -0.06975
 H1597 H 0.48147 0.48744 -0.15034
 H1598 H 0.50803 0.48467 -0.10051
 H1599 H 0.42576 0.45998 -0.11367
 H1600 H 0.44673 0.46720 -0.06744
 C1601 C -0.05775 0.96142 0.36723
 C1602 C -0.02840 0.96973 0.36940
 C1603 C -0.01128 0.96742 0.39936
 C1604 C -0.02497 0.96801 0.42869
 H1605 H -0.01651 0.98046 0.34882
 H1606 H 0.01315 0.97092 0.39696
 H1607 H -0.06901 0.94803 0.38642
 H1608 H -0.04952 0.96722 0.43083
 C1609 C 0.06756 0.48778 0.36531
 C1610 C 0.06093 0.50917 0.38713
 C1611 C 0.04626 0.49928 0.41809
 C1612 C 0.03734 0.51841 0.44136
 H1613 H 0.06649 0.53307 0.38279
 H1614 H 0.04293 0.47488 0.42198
 H1615 H 0.06077 0.46432 0.37112
 H1616 H 0.03980 0.54288 0.43768
 C1617 C 0.56075 0.02803 -0.13196
 C1618 C 0.53056 0.02357 -0.12921
 C1619 C 0.51224 0.02478 -0.09875
 C1620 C 0.52374 0.02762 -0.06934
 H1621 H 0.51844 0.01636 -0.15016
 H1622 H 0.48847 0.01834 -0.10074
 H1623 H 0.57336 0.03714 -0.11226
 H1624 H 0.54736 0.03385 -0.06654
 C1625 C 0.62917 0.55448 -0.01465
 C1626 C 0.62150 0.52785 0.00025
 C1627 C 0.58990 0.51560 0.00324
 C1628 C 0.56735 0.52463 -0.01549
 H1629 H 0.63840 0.51516 0.01295
 H1630 H 0.58529 0.49832 0.02183
 H1631 H 0.61159 0.56823 -0.02490
 H1632 H 0.57183 0.54057 -0.03529
 C1633 C 0.13317 1.04673 0.49482
 C1634 C 0.12958 1.01964 0.48067
 C1635 C 0.09927 1.00484 0.47900
 C1636 C 0.07388 1.02119 0.47697
 H1637 H 0.14902 1.00728 0.47148
 H1638 H 0.09792 0.98015 0.48101
 H1639 H 0.11341 1.05813 0.50483
 H1640 H 0.07576 1.04553 0.47267
 C1641 C 0.11601 -0.05486 1.01026
 C1642 C 0.10992 -0.02688 0.99850
 C1643 C 0.07873 -0.01519 0.99628
 C1644 C 0.05525 -0.02459 1.01559
 H1645 H 0.12757 -0.01238 0.98751
 H1646 H 0.07531 0.00207 0.97782
 H1647 H 0.09704 -0.06921 1.01890
 H1648 H 0.05865 -0.04050 1.03530
 C1649 C 0.63214 0.45177 0.50665
 C1650 C 0.60603 0.43989 0.51960
 C1651 C 0.57690 0.45598 0.52025
 C1652 C 0.56868 0.47567 0.49721
 H1653 H 0.60558 0.41813 0.53224
 H1654 H 0.56068 0.44903 0.53927
 H1655 H 0.63228 0.47527 0.49796
 H1656 H 0.58422 0.48161 0.47724
 C1657 C -0.12749 0.45469 0.49266
 C1658 C -0.11554 0.46758 0.51865
 C1659 C -0.08390 0.47934 0.51966
 C1660 C -0.06092 0.46875 0.50124
 H1661 H -0.12902 0.46974 0.54068
 H1662 H -0.07922 0.49579 0.53814
 H1663 H -0.11369 0.45316 0.47069
 H1664 H -0.06503 0.45117 0.48384
 C1665 C 0.35634 -0.04852 -0.01553
 C1666 C 0.38093 -0.06614 -0.01635
 C1667 C 0.41181 -0.05474 -0.01027
 C1668 C 0.42258 -0.02709 -0.01966
 H1669 H 0.37803 -0.09073 -0.01750
 H1670 H 0.42610 -0.07060 0.00207
 H1671 H 0.35865 -0.02441 -0.01042
 H1672 H 0.40814 -0.01170 -0.03264
 C1673 C 0.37198 1.05723 0.51833
 C1674 C 0.39127 1.06370 0.49346
 C1675 C 0.42351 1.05547 0.49197
 C1676 C 0.43468 1.03016 0.50537
 H1677 H 0.38374 1.07783 0.47368
 H1678 H 0.43788 1.07021 0.47670
 H1679 H 0.37996 1.04618 0.53992
 H1680 H 0.41972 1.01489 0.51954
 C1681 C -0.12972 0.54934 1.01047
 C1682 C -0.10480 0.56672 1.01422
 C1683 C -0.07399 0.55548 1.00749
 C1684 C -0.06380 0.52892 1.01903
 H1685 H -0.10700 0.59119 1.01677
 H1686 H -0.05971 0.56977 0.99160
 H1687 H -0.12730 0.52567 1.00366
 H1688 H -0.07854 0.51493 1.03489
 C1689 C 0.01543 0.62677 0.53679
 C1690 C 0.03661 0.60604 0.54306
 C1691 C 0.03582 0.57397 0.53277
 C1692 C 0.01857 0.56222 0.50970
 H1693 H 0.05425 0.61169 0.55969
 H1694 H 0.04951 0.55888 0.54702
 H1695 H -0.00196 0.62214 0.51960
 H1696 H 0.00507 0.57685 0.49481
 C1697 C 0.49336 0.12558 0.05967
 C1698 C 0.49580 0.11577 0.02932
 C1699 C 0.48967 0.08312 0.02347
 C1700 C 0.49755 0.06908 -0.00393
 H1701 H 0.50301 0.13103 0.00963
 H1702 H 0.47938 0.06971 0.04329
 H1703 H 0.48773 0.10891 0.07868
 H1704 H 0.50832 0.08189 -0.02385
 C1705 C -0.03511 0.12664 0.93859
 C1706 C -0.02802 0.11535 0.96753
 C1707 C -0.02981 0.08200 0.97327
 C1708 C -0.02063 0.06876 1.00046
 H1709 H -0.01902 0.12990 0.98587
 H1710 H -0.03698 0.06785 0.95365
 H1711 H -0.04331 0.11074 0.92092
 H1712 H -0.01308 0.08279 1.02002
 C1713 C 0.50228 0.63672 0.44689
 C1714 C 0.47866 0.61695 0.44922
 C1715 C 0.48107 0.58465 0.45904
 C1716 C 0.49893 0.57372 0.48208
 H1717 H 0.45680 0.62324 0.44026
 H1718 H 0.46583 0.56922 0.44702
 H1719 H 0.52402 0.63003 0.45607
 H1720 H 0.51336 0.58903 0.49526
 C1721 C 0.50868 0.87199 0.45881
 C1722 C 0.48430 0.88618 0.47156
 C1723 C 0.48543 0.91610 0.48789
 C1724 C 0.50848 0.93637 0.48354
 H1725 H 0.46188 0.87599 0.46931
 H1726 H 0.46466 0.92313 0.50022
 H1727 H 0.53137 0.88039 0.46352
 H1728 H 0.52811 0.93026 0.46887
 C1729 C -0.00112 0.36463 0.97324
 C1730 C -0.02433 0.38126 0.98488
 C1731 C -0.02069 0.41146 1.00016
 C1732 C 0.00294 0.43044 0.99308
 H1733 H -0.04747 0.37299 0.98240
 H1734 H -0.04023 0.41990 1.01366
 H1735 H 0.02207 0.37117 0.97836
 H1736 H 0.02094 0.42282 0.97694
 C1737 C 0.49506 0.36904 0.03222
 C1738 C 0.46920 0.38465 0.02992
 C1739 C 0.46894 0.41726 0.02006
 C1740 C 0.48830 0.43027 -0.00206
 H1741 H 0.44828 0.37527 0.04078
 H1742 H 0.45292 0.43123 0.03327
 H1743 H 0.51638 0.38005 0.02444
 H1744 H 0.50386 0.41620 -0.01580
 C1745 C 0.00032 0.85723 0.51781
 C1746 C 0.02410 0.87199 0.50302
 C1747 C 0.02258 0.90276 0.48775
 C1748 C 0.00025 0.92231 0.49465
 H1749 H 0.04647 0.86208 0.50348
 H1750 H 0.04283 0.91099 0.47453
 H1751 H -0.02253 0.86538 0.51484
 H1752 H -0.01886 0.91489 0.50999
 C1753 C 0.23649 0.30929 0.12861
 C1754 C 0.22710 0.32248 0.15603
 C1755 C 0.23346 0.30936 0.18780
 C1756 C 0.22931 0.27980 0.19591
 H1757 H 0.21908 0.34568 0.15586
 H1758 H 0.24376 0.32497 0.20427
 H1759 H 0.24475 0.28609 0.12954
 H1760 H 0.21879 0.26438 0.17926
 C1761 C 0.73383 0.79008 0.60191
 C1762 C 0.72352 0.79607 0.63171
 C1763 C 0.73022 0.77514 0.65841
 C1764 C 0.72553 0.78348 0.68893
 H1765 H 0.71321 0.81782 0.63699
 H1766 H 0.74325 0.75492 0.65301
 H1767 H 0.74301 0.76775 0.59682
 H1768 H 0.71236 0.80362 0.69405
 C1769 C 0.27831 0.72075 0.61504
 C1770 C 0.29166 0.71491 0.64291
 C1771 C 0.28962 0.73703 0.66917
 C1772 C 0.29464 0.72817 0.69950
 H1773 H 0.30076 0.69250 0.64773
 H1774 H 0.27841 0.75845 0.66449
 H1775 H 0.27021 0.74357 0.61008
 H1776 H 0.30540 0.70647 0.70341
 C1777 C 0.76852 0.20636 0.10869
 C1778 C 0.78508 0.20153 0.13475
 C1779 C 0.78412 0.22407 0.16066
 C1780 C 0.78843 0.21597 0.19138
 H1781 H 0.79592 0.17983 0.13877
 H1782 H 0.77492 0.24631 0.15512
 H1783 H 0.75614 0.22753 0.10678
 H1784 H 0.79698 0.19349 0.19694
 C1785 C 0.72194 0.18506 0.87637
 C1786 C 0.71444 0.21461 0.87419
 C1787 C 0.71730 0.23263 0.84385
 C1788 C 0.71717 0.22036 0.81449
 H1789 H 0.70943 0.22723 0.89586
 H1790 H 0.72235 0.25679 0.84622
 H1791 H 0.72705 0.17234 0.85479
 H1792 H 0.71085 0.19660 0.81161
 C1793 C 0.22461 0.68338 0.38335
 C1794 C 0.22890 0.66890 0.35545
 C1795 C 0.23217 0.68464 0.32392
 C1796 C 0.22105 0.71224 0.31682
 H1797 H 0.23480 0.64498 0.35582
 H1798 H 0.24698 0.67340 0.30665
 H1799 H 0.21842 0.70720 0.38359
 H1800 H 0.20577 0.72347 0.33360
 C1801 C 0.75001 0.80232 0.37308
 C1802 C 0.77207 0.79671 0.35100
 C1803 C 0.76485 0.77565 0.32499
 C1804 C 0.78132 0.77388 0.29735
 H1805 H 0.79375 0.80880 0.35059
 H1806 H 0.74305 0.76372 0.32729
 H1807 H 0.72834 0.79029 0.37124
 H1808 H 0.80308 0.78569 0.29476
 C1809 C 0.28001 0.30559 0.87804
 C1810 C 0.27125 0.27654 0.87352
 C1811 C 0.27135 0.26167 0.84177
 C1812 C 0.27105 0.27735 0.81373
 H1813 H 0.26183 0.26313 0.89372
 H1814 H 0.26606 0.23740 0.84212
 H1815 H 0.29207 0.31833 0.85890
 H1816 H 0.27415 0.30186 0.81351
 C1817 C 0.79954 0.38077 0.77753
 C1818 C 0.76938 0.37545 0.77724
 C1819 C 0.75639 0.34411 0.77595
 C1820 C 0.77112 0.32171 0.76074
 H1821 H 0.75354 0.39403 0.77845
 H1822 H 0.73367 0.34001 0.78617
 H1823 H 0.81449 0.36142 0.77930
 H1824 H 0.79277 0.32666 0.74843
 C1825 C 0.29602 0.87955 0.28378
 C1826 C 0.26455 0.87290 0.28327
 C1827 C 0.25260 0.84292 0.28148
 C1828 C 0.26974 0.81914 0.27283
 H1829 H 0.24827 0.89112 0.28437
 H1830 H 0.22822 0.83952 0.28486
 H1831 H 0.31085 0.86080 0.28927
 H1832 H 0.29327 0.82283 0.26544
 C1833 C 0.19352 0.87858 0.74945
 C1834 C 0.22014 0.87424 0.76367
 C1835 C 0.23453 0.84404 0.76674
 C1836 C 0.22874 0.82036 0.74764
 H1837 H 0.23098 0.89284 0.77600
 H1838 H 0.25065 0.84151 0.78574
 H1839 H 0.18152 0.85919 0.73978
 H1840 H 0.21380 0.82286 0.72763
 C1841 C 0.70002 0.37662 0.23295
 C1842 C 0.72853 0.37349 0.24300
 C1843 C 0.74284 0.34344 0.24717
 C1844 C 0.73427 0.31836 0.23152
 H1845 H 0.74096 0.39302 0.25175
 H1846 H 0.76057 0.34204 0.26462
 H1847 H 0.68684 0.35645 0.22718
 H1848 H 0.71769 0.31969 0.21289
 C1849 C 0.69499 0.61639 0.24215
 C1850 C 0.71871 0.62505 0.22271
 C1851 C 0.73124 0.65661 0.22071
 C1852 C 0.72698 0.67741 0.24369
 H1853 H 0.72881 0.60902 0.20617
 H1854 H 0.74443 0.66276 0.19900
 H1855 H 0.68488 0.63260 0.25852
 H1856 H 0.71570 0.67105 0.26635
 C1857 C 0.18830 0.11914 0.76962
 C1858 C 0.21522 0.12767 0.75584
 C1859 C 0.22810 0.15908 0.75646
 C1860 C 0.21145 0.18406 0.76174
 H1861 H 0.22903 0.11102 0.74350
 H1862 H 0.25196 0.16169 0.74943
 H1863 H 0.17585 0.13506 0.78449
 H1864 H 0.18736 0.18187 0.76728
 C1865 C 0.30331 0.11895 0.23735
 C1866 C 0.27776 0.12750 0.25299
 C1867 C 0.26652 0.15908 0.25306
 C1868 C 0.28442 0.18400 0.24820
 H1869 H 0.26366 0.11062 0.26599
 H1870 H 0.24272 0.16167 0.25990
 H1871 H 0.31575 0.13521 0.22177
 H1872 H 0.30845 0.18160 0.24284
 C1873 C 0.80712 0.62308 0.74350
 C1874 C 0.82472 0.64748 0.73548
 C1875 C 0.81494 0.67915 0.73973
 C1876 C 0.78638 0.68838 0.73586
 H1877 H 0.84852 0.64439 0.72895
 H1878 H 0.83256 0.69519 0.74603
 H1879 H 0.78441 0.62620 0.75373
 H1880 H 0.76915 0.67206 0.72881
 C1881 C 0.88617 0.75829 0.19911
 C1882 C 0.86098 0.77236 0.18547
 C1883 C 0.83096 0.77163 0.19783
 C1884 C 0.82024 0.75610 0.22420
 H1885 H 0.86404 0.78531 0.16321
 H1886 H 0.81501 0.78394 0.18335
 H1887 H 0.88382 0.75000 0.22380
 H1888 H 0.83522 0.74340 0.23938
 C1889 C 0.37521 0.24924 0.71111
 C1890 C 0.35488 0.27079 0.70444
 C1891 C 0.32296 0.27134 0.71664
 C1892 C 0.31062 0.25508 0.74171
 H1893 H 0.36094 0.28832 0.68656
 H1894 H 0.30855 0.28608 0.70282
 H1895 H 0.37017 0.23208 0.72966
 H1896 H 0.32455 0.24063 0.75634
 C1897 C 0.38542 0.75877 0.80204
 C1898 C 0.37970 0.76084 0.77045
 C1899 C 0.34827 0.76225 0.75841
 C1900 C 0.32421 0.74976 0.77473
 H1901 H 0.39817 0.76304 0.75270
 H1902 H 0.34514 0.77322 0.73522
 H1903 H 0.36639 0.75913 0.81926
 H1904 H 0.32751 0.73706 0.79688
 C1905 C 0.88175 0.25725 0.31947
 C1906 C 0.87199 0.24775 0.29099
 C1907 C 0.84005 0.25337 0.28303
 C1908 C 0.82667 0.24217 0.25706
 H1909 H 0.88666 0.23538 0.27452
 H1910 H 0.82662 0.26661 0.29997
 H1911 H 0.86558 0.26849 0.33544
 H1912 H 0.83948 0.22857 0.23999
 C1913 C 0.12590 0.25312 0.29855
 C1914 C 0.13669 0.23210 0.27807
 C1915 C 0.16894 0.23155 0.26630
 C1916 C 0.18769 0.25613 0.26467
 H1917 H 0.12273 0.21266 0.27195
 H1918 H 0.17773 0.20936 0.26007
 H1919 H 0.14088 0.27166 0.30525
 H1920 H 0.17879 0.27846 0.26953
 C1921 C 0.62909 0.76046 0.79050
 C1922 C 0.64235 0.73690 0.77563
 C1923 C 0.67450 0.73688 0.76373
 C1924 C 0.69297 0.76162 0.76062
 H1925 H 0.63039 0.71521 0.77445
 H1926 H 0.68354 0.71460 0.75832
 H1927 H 0.64191 0.78151 0.79317
 H1928 H 0.68451 0.78427 0.76485
 C1929 C 0.61662 0.21904 0.69753
 C1930 C 0.62966 0.23382 0.72158
 C1931 C 0.66257 0.23094 0.72645
 C1932 C 0.67620 0.24469 0.75077
 H1933 H 0.61660 0.24918 0.73658
 H1934 H 0.67613 0.21922 0.70837
 H1935 H 0.62996 0.20266 0.68404
 H1936 H 0.66256 0.25654 0.76867
 C1937 C 0.11916 0.74350 0.21708
 C1938 C 0.13530 0.71808 0.22092
 C1939 C 0.16732 0.71907 0.23051
 C1940 C 0.17837 0.73797 0.25262
 H1941 H 0.12725 0.69684 0.21096
 H1942 H 0.18244 0.70463 0.21683
 H1943 H 0.12907 0.76523 0.22381
 H1944 H 0.16297 0.75212 0.26647
   
