data_POSCAR
  _audit_creation_date              2014-09-24
  _audit_creation_method            'ToBaCCo'
  _symmetry_space_group_name_H-M    'P1'
  _symmetry_Int_Tables_number       1
  _symmetry_cell_setting            triclinic
  loop_
  _symmetry_equiv_pos_as_xyz
 x,y,z
_cell_length_a 43.9158
_cell_length_b 43.9495
_cell_length_c 42.7879
_cell_angle_alpha 89.909900
_cell_angle_beta 90.038500
_cell_angle_gamma 89.538100
loop_
  _atom_site_label
  _atom_site_type_symbol
  _atom_site_fract_x
  _atom_site_fract_y
  _atom_site_fract_z
C1 C 0.18897 0.20708 0.22762
 N2 N 0.19312 0.22643 0.20328
 C3 C 0.21451 0.22021 0.18125
 N4 N 0.23187 0.19461 0.18369
 C5 C 0.22737 0.17483 0.20765
 N6 N 0.20595 0.18122 0.22964
 C7 C 0.68207 0.69999 0.71785
 N8 N 0.68812 0.72016 0.69468
 C9 C 0.71192 0.71529 0.67502
 N10 N 0.73021 0.69054 0.67925
 C11 C 0.72423 0.67015 0.70230
 N12 N 0.70016 0.67504 0.72166
 C13 C 0.31227 0.79370 0.73114
 N14 N 0.30437 0.77140 0.71087
 C15 C 0.28065 0.77555 0.69092
 N16 N 0.26549 0.80261 0.69068
 C17 C 0.27386 0.82565 0.71004
 N18 N 0.29714 0.82075 0.73045
 C19 C 0.81295 0.28852 0.22827
 N20 N 0.79175 0.31028 0.23487
 C21 C 0.76480 0.31158 0.21930
 N22 N 0.75881 0.29074 0.19676
 C23 C 0.77950 0.26853 0.19025
 N24 N 0.80636 0.26760 0.20589
 C25 C 0.80788 0.72329 0.25581
 N26 N 0.79227 0.69676 0.25456
 C27 C 0.77008 0.69082 0.27574
 N28 N 0.76328 0.71177 0.29801
 C29 C 0.77863 0.73844 0.29938
 N30 N 0.80131 0.74380 0.27859
 C31 C 0.30047 0.23234 -0.24736
 N32 N 0.28052 0.20932 -0.25247
 C33 C 0.25551 0.20559 -0.23410
 N34 N 0.25140 0.22453 -0.20933
 C35 C 0.27163 0.24694 -0.20329
 N36 N 0.29614 0.25052 -0.22211
 C37 C 0.67643 0.29053 -0.21993
 N38 N 0.69431 0.31519 -0.22459
 C39 C 0.71836 0.32082 -0.20548
 N40 N 0.72483 0.30069 -0.18214
 C41 C 0.70694 0.27613 -0.17711
 N42 N 0.68300 0.27091 -0.19632
 C43 C 0.18682 0.78315 0.27622
 N44 N 0.19258 0.76238 0.29900
 C45 C 0.21902 0.76331 0.31536
 N46 N 0.23990 0.78495 0.30863
 C47 C 0.23502 0.80527 0.28513
 N48 N 0.20810 0.80440 0.26938
 C49 C 0.47771 0.44747 0.49325
 N50 N 0.45378 0.46646 0.49880
 C51 C 0.44893 0.49127 0.48045
 N52 N 0.46778 0.49663 0.45591
 C53 C 0.49150 0.47746 0.44997
 N54 N 0.49622 0.45277 0.46847
 C55 C -0.02862 -0.05694 0.97762
 N56 N -0.05145 -0.03687 0.98389
 C57 C -0.05364 -0.00992 0.96831
 N58 N -0.03295 -0.00375 0.94558
 C59 C -0.00976 -0.02347 0.93939
 N60 N -0.00765 -0.05000 0.95552
 C61 C 1.03565 0.56752 0.97665
 N62 N 1.06105 0.55006 0.98115
 C63 C 1.06548 0.52391 0.96479
 N64 N 1.04385 0.51456 0.94434
 C65 C 1.01800 0.53120 0.94025
 N66 N 1.01423 0.55749 0.95635
 C67 C 0.52817 0.05417 0.48547
 N68 N 0.55007 0.03310 0.49207
 C69 C 0.55463 0.00873 0.47296
 N70 N 0.53790 0.00668 0.44632
 C71 C 0.51670 0.02816 0.43895
 N72 N 0.51167 0.05170 0.45878
 C73 C -0.03487 0.05608 0.51013
 N74 N -0.05636 0.03516 0.50290
 C75 C -0.06177 0.01101 0.52200
 N76 N -0.04579 0.00881 0.54925
 C77 C -0.02494 0.03007 0.55714
 N78 N -0.01955 0.05367 0.53755
 C79 C 0.45818 0.56616 0.02282
 N80 N 0.47757 0.56245 0.04728
 C81 C 0.47349 0.53937 0.06796
 N82 N 0.45008 0.51978 0.06395
 C83 C 0.43058 0.52339 0.03956
 N84 N 0.43484 0.54644 0.01888
 C85 C 0.54815 -0.07775 0.02554
 N86 N 0.56856 -0.05578 0.01790
 C87 C 0.57086 -0.03001 0.03522
 N88 N 0.55280 -0.02625 0.06067
 C89 C 0.53220 -0.04777 0.06847
 N90 N 0.52964 -0.07308 0.05056
 C91 C 1.03700 0.43351 0.51640
 N92 N 1.06003 0.45369 0.51271
 C93 C 1.06574 0.47511 0.53472
 N94 N 1.04892 0.47582 0.56129
 C95 C 1.02657 0.45518 0.56595
 N96 N 1.02061 0.43433 0.54342
 C97 C 0.42109 0.00657 0.20521
 H98 H 0.41910 0.02857 0.21636
 C99 C 0.44302 0.00179 0.18210
 H100 H 0.45772 0.02026 0.17511
 C101 C 0.40475 -0.04455 0.20104
 H102 H 0.39041 -0.06281 0.20904
 C103 C 0.42651 -0.05037 0.17799
 H104 H 0.42843 -0.07293 0.16800
 N105 N 0.40231 -0.01637 0.21400
 C106 C 0.32805 0.03273 0.26011
 H107 H 0.32793 0.02095 0.28232
 C108 C 0.30733 0.05636 0.25454
 H109 H 0.29135 0.06299 0.27261
 C110 C 0.34895 0.03842 0.20937
 H111 H 0.36483 0.03102 0.19163
 C112 C 0.32851 0.06211 0.20277
 H113 H 0.32898 0.07308 0.18009
 Zn114 Zn 0.37485 -0.00859 0.24723
 N115 N 0.34849 0.02443 0.23776
 C116 C 0.39841 0.02766 0.29685
 N117 N 0.39907 -0.00001 0.28261
 C118 C 0.41872 -0.02229 0.29201
 C119 C 0.43858 -0.01731 0.31690
 C120 C 0.41806 0.03367 0.32176
 C121 C 0.33331 -0.05370 0.23065
 C122 C 0.31544 -0.07954 0.23453
 C123 C 0.33068 -0.08136 0.28878
 C124 C 0.34871 -0.05579 0.28373
 N125 N 0.35016 -0.04290 0.25483
 H126 H 0.38314 0.04529 0.28856
 H127 H 0.41902 -0.04392 0.27998
 H128 H 0.45403 -0.03526 0.32428
 H129 H 0.41761 0.05582 0.33280
 H130 H 0.33429 -0.04252 0.20812
 H131 H 0.30275 -0.08838 0.21487
 H132 H 0.32964 -0.09144 0.31187
 H133 H 0.36137 -0.04619 0.30293
 C134 C 0.30725 0.07107 0.22545
 C135 C 0.44612 -0.02711 0.16858
 C136 C 0.31447 -0.09398 0.26376
 C137 C 0.43867 0.01112 0.33169
 C138 C 0.07949 -0.00980 0.70496
 H139 H 0.08156 -0.03029 0.71887
 C140 C 0.05708 -0.00763 0.68187
 H141 H 0.04190 -0.02655 0.67795
 C142 C 0.09637 0.04007 0.69351
 H143 H 0.11107 0.05897 0.69856
 C144 C 0.07462 0.04301 0.66989
 H145 H 0.07341 0.06383 0.65635
 N146 N 0.09868 0.01379 0.71025
 C147 C 0.17357 -0.03268 0.75807
 H148 H 0.17286 -0.02133 0.78048
 C149 C 0.19442 -0.05628 0.75298
 H150 H 0.20940 -0.06346 0.77176
 C151 C 0.15464 -0.03736 0.70642
 H152 H 0.13931 -0.02964 0.68824
 C153 C 0.17569 -0.06054 0.70008
 H154 H 0.17628 -0.07074 0.67706
 Zn155 Zn 0.12724 0.00901 0.74320
 N156 N 0.15395 -0.02399 0.73507
 C157 C 0.10540 -0.02443 0.79586
 N158 N 0.10432 0.00242 0.78000
 C159 C 0.08567 0.02555 0.78930
 C160 C 0.06815 0.02271 0.81631
 C161 C 0.08803 -0.02833 0.82289
 C162 C 0.16666 0.05476 0.72220
 C163 C 0.18294 0.08187 0.72385
 C164 C 0.17066 0.08496 0.77878
 C165 C 0.15396 0.05822 0.77590
 N166 N 0.15148 0.04423 0.74767
 H167 H 0.11939 -0.04299 0.78743
 H168 H 0.08470 0.04638 0.77581
 H169 H 0.05372 0.04145 0.82372
 H170 H 0.08892 -0.04981 0.83531
 H171 H 0.16527 0.04258 0.70030
 H172 H 0.19384 0.09069 0.70307
 H173 H 0.17233 0.09599 0.80133
 H174 H 0.14300 0.04873 0.79624
 C175 C 0.19610 -0.07005 0.72346
 C176 C 0.05433 0.01916 0.66421
 C177 C 0.18434 0.09772 0.75224
 C178 C 0.06959 -0.00433 0.83365
 C179 C 0.57666 0.49101 0.21351
 H180 H 0.57460 0.47168 0.22902
 C181 C 0.55511 0.49581 0.18995
 H182 H 0.53644 0.48007 0.18727
 C183 C 0.60306 0.53557 0.19856
 H184 H 0.62143 0.55132 0.20226
 C185 C 0.58222 0.54102 0.17451
 H186 H 0.58497 0.56069 0.15951
 N187 N 0.60002 0.51080 0.21740
 C188 C 0.67320 0.46206 0.26554
 H189 H 0.67678 0.47719 0.28511
 C190 C 0.69120 0.43595 0.26231
 H191 H 0.70869 0.43090 0.27945
 C192 C 0.64607 0.45022 0.21924
 H193 H 0.62864 0.45600 0.20239
 C194 C 0.66363 0.42388 0.21507
 H195 H 0.65964 0.40943 0.19503
 Zn196 Zn 0.62687 0.50373 0.25136
 N197 N 0.65081 0.46840 0.24447
 C198 C 0.60592 0.47384 0.30621
 N199 N 0.60271 0.49884 0.28764
 C200 C 0.58169 0.52083 0.29418
 C201 C 0.56350 0.51863 0.32083
 C202 C 0.58838 0.47086 0.33321
 C203 C 0.67431 0.54276 0.23369
 C204 C 0.69472 0.56678 0.23683
 C205 C 0.67317 0.57761 0.28759
 C206 C 0.65306 0.55353 0.28342
 N207 N 0.65375 0.53686 0.25665
 H208 H 0.62213 0.45621 0.30026
 H209 H 0.57922 0.54019 0.27870
 H210 H 0.54688 0.53628 0.32588
 H211 H 0.59143 0.45109 0.34806
 H212 H 0.67469 0.52886 0.21285
 H213 H 0.71066 0.57162 0.21820
 H214 H 0.67234 0.59080 0.30894
 H215 H 0.63705 0.54813 0.30171
 C216 C 0.68612 0.41633 0.23710
 C217 C 0.55760 0.52130 0.17041
 C218 C 0.69437 0.58433 0.26417
 C219 C 0.56725 0.49367 0.34097
 C220 C 0.92276 0.50413 0.70929
 H221 H 0.92227 0.52576 0.72132
 C222 C 0.94415 0.49886 0.68577
 H223 H 0.96001 0.51657 0.67943
 C224 C 0.90284 0.45452 0.70299
 H225 H 0.88719 0.43706 0.71022
 C226 C 0.92389 0.44829 0.67934
 H227 H 0.92404 0.42621 0.66812
 N228 N 0.90243 0.48222 0.71718
 C229 C 0.82955 0.53390 0.76228
 H230 H 0.82874 0.52201 0.78441
 C231 C 0.80875 0.55728 0.75602
 H232 H 0.79202 0.56362 0.77346
 C233 C 0.85178 0.53958 0.71212
 H234 H 0.86808 0.53212 0.69481
 C235 C 0.83133 0.56309 0.70487
 H236 H 0.83218 0.57387 0.68211
 Zn237 Zn 0.87520 0.49136 0.75021
 N238 N 0.85050 0.52552 0.74045
 C239 C 0.89886 0.52614 0.80080
 N240 N 0.89914 0.49872 0.78608
 C241 C 0.91735 0.47550 0.79609
 C242 C 0.93562 0.47903 0.82250
 C243 C 0.91692 0.53070 0.82724
 C244 C 0.83078 0.44846 0.73408
 C245 C 0.80889 0.42619 0.73947
 C246 C 0.82231 0.42677 0.79424
 C247 C 0.84440 0.44850 0.78771
 N248 N 0.84821 0.45890 0.75801
 H249 H 0.88487 0.54456 0.79196
 H250 H 0.91744 0.45411 0.78361
 H251 H 0.94983 0.46030 0.83044
 H252 H 0.91671 0.55263 0.83877
 H253 H 0.83372 0.45767 0.71083
 H254 H 0.79539 0.41777 0.72019
 H255 H 0.81910 0.41912 0.81808
 H256 H 0.85776 0.45776 0.80658
 C257 C 0.80924 0.57174 0.72682
 C258 C 0.94494 0.47057 0.67072
 C259 C 0.80397 0.41569 0.77002
 C260 C 0.93520 0.50678 0.83857
 C261 C 0.20987 0.42351 0.01732
 H262 H 0.22406 0.42439 0.03797
 C263 C 0.18602 0.44443 0.01350
 H264 H 0.18158 0.46130 0.03138
 C265 C 0.19862 0.40092 -0.03160
 H266 H 0.20386 0.38436 -0.04944
 C267 C 0.17462 0.42138 -0.03635
 H268 H 0.16135 0.42026 -0.05766
 N269 N 0.21559 0.40220 -0.00502
 C270 C 0.26273 0.32444 0.03680
 H271 H 0.28161 0.32205 0.02074
 C272 C 0.25810 0.30255 0.05998
 H273 H 0.27352 0.28327 0.06181
 C274 C 0.21908 0.35205 0.05346
 H275 H 0.20364 0.37107 0.05060
 C276 C 0.21387 0.33092 0.07721
 H277 H 0.19468 0.33407 0.09279
 Zn278 Zn 0.24954 0.37575 0.00018
 N279 N 0.24322 0.34850 0.03385
 C280 C 0.30279 0.39497 0.03226
 N281 N 0.28389 0.40035 0.00761
 C282 C 0.28795 0.42468 -0.01158
 C283 C 0.31160 0.44502 -0.00614
 C284 C 0.32692 0.41462 0.03838
 C285 C 0.23398 0.33068 -0.04281
 C286 C 0.23595 0.31361 -0.07022
 C287 C 0.28179 0.34075 -0.08367
 C288 C 0.27900 0.35726 -0.05594
 N289 N 0.25503 0.35237 -0.03649
 H290 H 0.29902 0.37567 0.04739
 H291 H 0.27240 0.42853 -0.03084
 H292 H 0.31433 0.46456 -0.02130
 H293 H 0.34186 0.41020 0.05805
 H294 H 0.21537 0.32703 -0.02672
 H295 H 0.21890 0.29663 -0.07523
 H296 H 0.30064 0.34514 -0.09930
 H297 H 0.29575 0.37424 -0.05024
 C298 C 0.23313 0.30547 0.08019
 C299 C 0.16836 0.44357 -0.01377
 C300 C 0.25975 0.31908 -0.09124
 C301 C 0.33108 0.44029 0.01938
 C302 C 0.71093 0.07408 -0.01541
 H303 H 0.72455 0.07404 -0.03646
 C304 C 0.68630 0.05435 -0.01268
 H305 H 0.68088 0.03909 -0.03170
 C306 C 0.70136 0.09398 0.03515
 H307 H 0.70753 0.10915 0.05391
 C308 C 0.67660 0.07458 0.03889
 H309 H 0.66370 0.07499 0.06045
 N310 N 0.71759 0.09377 0.00808
 C311 C 0.76467 0.16759 -0.03907
 H312 H 0.78572 0.16778 -0.02592
 C313 C 0.75967 0.18904 -0.06263
 H314 H 0.77698 0.20570 -0.06786
 C315 C 0.71601 0.14613 -0.04782
 H316 H 0.69878 0.12986 -0.04150
 C317 C 0.71004 0.16725 -0.07150
 H318 H 0.68834 0.16695 -0.08354
 Zn319 Zn 0.75063 0.12052 0.00205
 N320 N 0.74299 0.14670 -0.03217
 C321 C 0.80062 0.09771 -0.03317
 N322 N 0.78596 0.09664 -0.00518
 C323 C 0.79599 0.07818 0.01826
 C324 C 0.82304 0.06163 0.01491
 C325 C 0.82736 0.08092 -0.03779
 C326 C 0.73260 0.16537 0.04456
 C327 C 0.73496 0.18500 0.07006
 C328 C 0.78536 0.16478 0.08005
 C329 C 0.78215 0.14571 0.05424
 N330 N 0.75581 0.14588 0.03745
 H331 H 0.79164 0.11158 -0.05195
 H332 H 0.78340 0.07706 0.03995
 H333 H 0.83134 0.04787 0.03418
 H334 H 0.83887 0.08194 -0.06014
 H335 H 0.71222 0.16561 0.03034
 H336 H 0.71639 0.20046 0.07548
 H337 H 0.80633 0.16427 0.09340
 H338 H 0.80087 0.13109 0.04757
 C339 C 0.73186 0.18924 -0.07871
 C340 C 0.66857 0.05491 0.01453
 C341 C 0.76142 0.18439 0.08841
 C342 C 0.83941 0.06347 -0.01316
 C343 C 0.21042 0.57523 0.49083
 H344 H 0.22417 0.57511 0.46986
 C345 C 0.18528 0.55610 0.49315
 H346 H 0.17960 0.54125 0.47387
 C347 C 0.20093 0.59488 0.54151
 H348 H 0.20729 0.60977 0.56043
 C349 C 0.17580 0.57590 0.54492
 H350 H 0.16282 0.57635 0.56644
 N351 N 0.21726 0.59468 0.51449
 C352 C 0.26624 0.66657 0.46587
 H353 H 0.28667 0.66763 0.47996
 C354 C 0.26327 0.68503 0.43945
 H355 H 0.28152 0.70028 0.43311
 C356 C 0.21752 0.64542 0.45696
 H357 H 0.19952 0.63035 0.46411
 C358 C 0.21346 0.66375 0.43058
 H359 H 0.19241 0.66255 0.41744
 Zn360 Zn 0.25056 0.62121 0.50877
 N361 N 0.24392 0.64663 0.47357
 C362 C 0.30221 0.59861 0.47583
 N363 N 0.28601 0.59696 0.50289
 C364 C 0.29461 0.57777 0.52634
 C365 C 0.32141 0.56061 0.52381
 C366 C 0.32908 0.58182 0.47231
 C367 C 0.23175 0.66658 0.55038
 C368 C 0.23380 0.68666 0.57554
 C369 C 0.28418 0.66678 0.58640
 C370 C 0.28120 0.64712 0.56100
 N371 N 0.25509 0.64707 0.54383
 H372 H 0.29446 0.61300 0.45693
 H373 H 0.28095 0.57635 0.54731
 H374 H 0.32848 0.54597 0.54291
 H375 H 0.34205 0.58362 0.45087
 H376 H 0.21150 0.66649 0.53596
 H377 H 0.21506 0.70204 0.58061
 H378 H 0.30508 0.66675 0.59987
 H379 H 0.29992 0.63223 0.55488
 C380 C 0.23687 0.68322 0.42114
 C381 C 0.16732 0.55681 0.52021
 C382 C 0.26015 0.68660 0.59401
 C383 C 0.33924 0.56314 0.49680
 C384 C 0.70037 0.91005 0.51977
 H385 H 0.71095 0.90546 0.54213
 C386 C 0.67325 0.92684 0.51835
 H387 H 0.66293 0.93515 0.53971
 C388 C 0.70046 0.90417 0.46470
 H389 H 0.71088 0.89506 0.44386
 C390 C 0.67369 0.92131 0.46219
 H391 H 0.66388 0.92558 0.43935
 N392 N 0.71318 0.89878 0.49321
 C393 C 0.76399 0.84410 0.55461
 H394 H 0.78463 0.85724 0.55389
 C395 C 0.75982 0.82283 0.57854
 H396 H 0.77735 0.81953 0.59606
 C397 C 0.71594 0.83193 0.53283
 H398 H 0.69903 0.83552 0.51476
 C399 C 0.71088 0.81045 0.55624
 H400 H 0.69001 0.79748 0.55629
 Zn401 Zn 0.74838 0.87385 0.49721
 N402 N 0.74249 0.84764 0.53191
 C403 C 0.81113 0.88440 0.50277
 N404 N 0.78328 0.89821 0.50265
 C405 C 0.78040 0.92902 0.50446
 C406 C 0.80626 0.94721 0.50658
 C407 C 0.83755 0.90173 0.50507
 C408 C 0.74899 0.81973 0.46106
 C409 C 0.75217 0.80248 0.43391
 C410 C 0.76720 0.84793 0.40627
 C411 C 0.76352 0.86441 0.43395
 N412 N 0.75403 0.85025 0.46050
 H413 H 0.81276 0.85991 0.50075
 H414 H 0.75809 0.93954 0.50386
 H415 H 0.80384 0.97173 0.50779
 H416 H 0.85965 0.89060 0.50504
 H417 H 0.74229 0.80860 0.48242
 H418 H 0.74768 0.77829 0.43448
 H419 H 0.77438 0.85941 0.38514
 H420 H 0.76796 0.88858 0.43426
 C421 C 0.73333 0.80528 0.57895
 C422 C 0.65935 0.93215 0.48930
 C423 C 0.76100 0.81673 0.40613
 C424 C 0.83514 0.93347 0.50674
 C425 C -0.00247 0.21468 0.42757
 H426 H 0.00576 0.23540 0.43808
 C427 C -0.00708 0.18896 0.44613
 H428 H -0.00243 0.18988 0.47097
 C429 C -0.01780 0.18768 0.38230
 H430 H -0.02161 0.18741 0.35732
 C431 C -0.02285 0.16149 0.40003
 H432 H -0.03052 0.14090 0.38872
 N433 N -0.00750 0.21344 0.39623
 C434 C 0.04733 0.26265 0.32842
 H435 H 0.03503 0.28403 0.32690
 C436 C 0.07349 0.25808 0.31049
 H437 H 0.08096 0.27580 0.29469
 C438 C 0.05225 0.21332 0.35039
 H439 H 0.04395 0.19594 0.36603
 C440 C 0.07885 0.20801 0.33329
 H441 H 0.09080 0.18649 0.33576
 Zn442 Zn 0.00085 0.24757 0.37088
 N443 N 0.03692 0.24021 0.34747
 C444 C 0.03614 0.29135 0.40242
 N445 N 0.00710 0.28234 0.39652
 C446 C -0.01712 0.29759 0.40895
 C447 C -0.01266 0.32335 0.42737
 C448 C 0.04163 0.31690 0.42090
 C449 C -0.02868 0.25731 0.31223
 C450 C -0.05336 0.26354 0.29261
 C451 C -0.08664 0.26145 0.33746
 C452 C -0.06133 0.25510 0.35622
 N453 N -0.03288 0.25412 0.34360
 H454 H 0.05514 0.27858 0.39298
 H455 H -0.03998 0.29000 0.40456
 H456 H -0.03214 0.33544 0.43685
 H457 H 0.06482 0.32382 0.42551
 H458 H -0.00626 0.25523 0.30221
 H459 H -0.04970 0.26664 0.26778
 H460 H -0.10911 0.26279 0.34780
 H461 H -0.06441 0.25089 0.38090
 C462 C 0.08978 0.23060 0.31309
 C463 C -0.01702 0.16197 0.43220
 C464 C -0.08256 0.26626 0.30539
 C465 C 0.01698 0.33343 0.43316
 C466 C 0.01669 0.72478 0.06557
 H467 H 0.01718 0.74741 0.05594
 C468 C 0.02055 0.70008 0.04555
 H469 H 0.02451 0.70403 0.02090
 C470 C 0.01042 0.69170 0.10882
 H471 H 0.00558 0.68850 0.13335
 C472 C 0.01375 0.66628 0.08948
 H473 H 0.01203 0.64363 0.09930
 N474 N 0.01173 0.72032 0.09664
 C475 C -0.03631 0.76407 0.17260
 H476 H -0.01900 0.77970 0.18040
 C477 C -0.06312 0.76088 0.18973
 H478 H -0.06644 0.77391 0.21093
 C479 C -0.05340 0.72822 0.13521
 H480 H -0.04967 0.71599 0.11363
 C481 C -0.08053 0.72430 0.15166
 H482 H -0.09757 0.70879 0.14292
 Zn483 Zn 0.00401 0.75448 0.12297
 N484 N -0.03196 0.74780 0.14594
 C485 C -0.02974 0.80279 0.09600
 N486 N -0.00155 0.78981 0.09792
 C487 C 0.02229 0.80096 0.08123
 C488 C 0.01806 0.82558 0.06102
 C489 C -0.03496 0.82747 0.07609
 C490 C 0.04579 0.73663 0.17001
 C491 C 0.06922 0.74048 0.19171
 C492 C 0.07286 0.79307 0.17578
 C493 C 0.04936 0.78826 0.15444
 N494 N 0.03654 0.76027 0.15163
 H495 H -0.04840 0.79364 0.10940
 H496 H 0.04449 0.79027 0.08317
 H497 H 0.03705 0.83405 0.04752
 H498 H -0.05758 0.83734 0.07432
 H499 H 0.03493 0.71481 0.16804
 H500 H 0.07658 0.72147 0.20606
 H501 H 0.08293 0.81540 0.17776
 H502 H 0.04109 0.80710 0.14055
 C503 C -0.08564 0.74102 0.17904
 C504 C 0.01834 0.67045 0.05736
 C505 C 0.08287 0.76902 0.19475
 C506 C -0.01098 0.83867 0.05797
 C507 C 0.50819 0.21510 0.56683
 H508 H 0.50640 0.23706 0.55561
 C509 C 0.51186 0.18902 0.54857
 H510 H 0.51309 0.19097 0.52337
 C511 C 0.50760 0.18528 0.61308
 H512 H 0.50556 0.18408 0.63825
 C513 C 0.51114 0.15863 0.59570
 H514 H 0.51189 0.13677 0.60742
 N515 N 0.50632 0.21279 0.59850
 C516 C 0.46467 0.24243 0.67910
 H517 H 0.48596 0.24569 0.69121
 C518 C 0.43777 0.24034 0.69628
 H519 H 0.43841 0.24234 0.72150
 C520 C 0.43753 0.23580 0.63169
 H521 H 0.43770 0.23430 0.60646
 C522 C 0.41007 0.23370 0.64796
 H523 H 0.38897 0.23066 0.63526
 Zn524 Zn 0.49974 0.24757 0.62365
 N525 N 0.46394 0.24114 0.64733
 C526 C 0.46928 0.30008 0.60024
 N527 N 0.49532 0.28311 0.59890
 C528 C 0.51960 0.29230 0.58165
 C529 C 0.51814 0.31940 0.56458
 C530 C 0.46686 0.32728 0.58356
 C531 C 0.55702 0.23452 0.65261
 C532 C 0.58063 0.23993 0.67376
 C533 C 0.55491 0.28623 0.68965
 C534 C 0.53187 0.27999 0.66823
 N535 N 0.53299 0.25419 0.65074
 H536 H 0.45053 0.29297 0.61472
 H537 H 0.54024 0.27870 0.58148
 H538 H 0.53763 0.32664 0.55106
 H539 H 0.44609 0.34068 0.58486
 H540 H 0.55781 0.21453 0.63798
 H541 H 0.59946 0.22396 0.67557
 H542 H 0.55357 0.30657 0.70386
 H543 H 0.51272 0.29546 0.66586
 C544 C 0.41005 0.23685 0.68053
 C545 C 0.51322 0.16051 0.56311
 C546 C 0.57930 0.26575 0.69289
 C547 C 0.49163 0.33730 0.56582
 C548 C 0.49447 0.71766 0.92932
 H549 H 0.49936 0.73981 0.93887
 C550 C 0.48793 0.69366 0.94956
 H551 H 0.48774 0.69743 0.97457
 C552 C 0.48842 0.68545 0.88537
 H553 H 0.48852 0.68250 0.86027
 C554 C 0.48196 0.66075 0.90482
 H555 H 0.47702 0.63875 0.89475
 N556 N 0.49436 0.71329 0.89782
 C557 C 0.54372 0.75861 0.82199
 H558 H 0.53190 0.78012 0.82039
 C559 C 0.56729 0.75222 0.80107
 H560 H 0.57307 0.76867 0.78320
 C561 C 0.55142 0.71127 0.84742
 H562 H 0.54567 0.69555 0.86586
 C563 C 0.57526 0.70403 0.82707
 H564 H 0.58746 0.68267 0.82974
 Zn565 Zn 0.50221 0.74701 0.87104
 N566 N 0.53569 0.73793 0.84416
 C567 C 0.54150 0.78708 0.90250
 N568 N 0.51186 0.78093 0.89601
 C569 C 0.48875 0.79719 0.90922
 C570 C 0.49508 0.82034 0.93049
 C571 C 0.54884 0.81001 0.92372
 C572 C 0.44209 0.73793 0.84800
 C573 C 0.41617 0.74471 0.83033
 C574 C 0.44084 0.79011 0.81159
 C575 C 0.46624 0.78259 0.82980
 N576 N 0.46675 0.75652 0.84706
 H577 H 0.55942 0.77356 0.89196
 H578 H 0.46539 0.79157 0.90387
 H579 H 0.47655 0.83281 0.94138
 H580 H 0.57246 0.81428 0.92938
 H581 H 0.44229 0.71784 0.86248
 H582 H 0.39678 0.72964 0.83104
 H583 H 0.44076 0.81077 0.79776
 H584 H 0.48530 0.79791 0.83052
 C585 C 0.58289 0.72438 0.80314
 C586 C 0.48144 0.66497 0.93723
 C587 C 0.41556 0.77096 0.81178
 C588 C 0.52541 0.82641 0.93841
 C589 C 0.16640 0.23947 0.27083
 C590 C 0.16537 0.21357 0.25119
 C591 C 0.14118 0.19324 0.25382
 C592 C 0.11732 0.19891 0.27443
 C593 C 0.11713 0.22484 0.29349
 C594 C 0.14233 0.24492 0.29254
 C595 C 0.19126 0.25963 0.26998
 C596 C 0.19251 0.28445 0.29017
 C597 C 0.16937 0.28943 0.31180
 C598 C 0.14460 0.26982 0.31322
 H599 H 0.21012 0.25618 0.25409
 H600 H 0.21175 0.29967 0.28932
 H601 H 0.17073 0.30846 0.32776
 H602 H 0.12765 0.27409 0.33102
 H603 H 0.14032 0.17323 0.23909
 H604 H 0.09841 0.18324 0.27495
 C605 C 0.63006 0.68601 0.73863
 C606 C 0.65585 0.70518 0.73871
 C607 C 0.65667 0.73019 0.75884
 C608 C 0.63284 0.73596 0.77949
 C609 C 0.60740 0.71694 0.78056
 C610 C 0.60562 0.69188 0.75975
 C611 C 0.62757 0.66174 0.71725
 C612 C 0.60193 0.64325 0.71709
 C613 C 0.57809 0.64891 0.73773
 C614 C 0.57968 0.67311 0.75869
 H615 H 0.64505 0.65724 0.70009
 H616 H 0.60037 0.62469 0.70057
 H617 H 0.55807 0.63470 0.73723
 H618 H 0.56023 0.67713 0.77364
 H619 H 0.67614 0.74518 0.75883
 H620 H 0.63435 0.75534 0.79502
 C621 C 0.33511 0.79390 0.78584
 C622 C 0.33774 0.78867 0.75319
 C623 C 0.36545 0.77811 0.74095
 C624 C 0.39051 0.77309 0.76024
 C625 C 0.38856 0.77817 0.79244
 C626 C 0.36087 0.78885 0.80555
 C627 C 0.30730 0.80317 0.79956
 C628 C 0.30527 0.80844 0.83163
 C629 C 0.33068 0.80437 0.85068
 C630 C 0.35824 0.79459 0.83789
 H631 H 0.28678 0.80607 0.78590
 H632 H 0.28383 0.81565 0.84177
 H633 H 0.32896 0.80859 0.87553
 H634 H 0.37742 0.79159 0.85353
 H635 H 0.36778 0.77392 0.71611
 H636 H 0.41156 0.76481 0.75003
 C637 C -0.14715 0.31002 0.26444
 C638 C -0.15940 0.28617 0.24545
 C639 C -0.14382 0.25796 0.24497
 C640 C -0.11905 0.25217 0.26433
 C641 C -0.10874 0.27415 0.28514
 C642 C -0.12240 0.30342 0.28520
 C643 C -0.15722 0.34067 0.26215
 C644 C -0.14556 0.36314 0.28164
 C645 C -0.12291 0.35605 0.30318
 C646 C -0.11106 0.32664 0.30470
 H647 H -0.17292 0.34833 0.24443
 H648 H -0.15378 0.38635 0.27961
 H649 H -0.11385 0.37365 0.31813
 H650 H -0.09256 0.32244 0.32090
 H651 H -0.15151 0.23935 0.23046
 H652 H -0.10825 0.22992 0.26363
 C653 C -0.16232 0.75720 0.21862
 C654 C -0.16678 0.72881 0.23381
 C655 C -0.14591 0.70503 0.22882
 C656 C -0.12013 0.70930 0.21053
 C657 C -0.11435 0.73751 0.19666
 C658 C -0.13575 0.76161 0.20006
 C659 C -0.18407 0.78099 0.22056
 C660 C -0.17933 0.80866 0.20541
 C661 C -0.15320 0.81307 0.18766
 C662 C -0.13168 0.78978 0.18474
 H663 H -0.20523 0.77835 0.23310
 H664 H -0.19620 0.82667 0.20716
 H665 H -0.14979 0.83452 0.17575
 H666 H -0.11213 0.79393 0.17002
 H667 H -0.14908 0.68314 0.24000
 H668 H -0.10409 0.69063 0.20782
 C669 C 0.34215 0.26422 0.72959
 C670 C 0.32594 0.23620 0.73274
 C671 C 0.33641 0.21071 0.71578
 C672 C 0.36339 0.21152 0.69885
 C673 C 0.38100 0.23778 0.69799
 C674 C 0.37027 0.26461 0.71280
 C675 C 0.33030 0.29236 0.74054
 C676 C 0.34676 0.31919 0.73760
 C677 C 0.37485 0.31905 0.72276
 C678 C 0.38635 0.29223 0.71001
 H679 H 0.30770 0.29467 0.75008
 H680 H 0.33734 0.34037 0.74633
 H681 H 0.38738 0.34003 0.72027
 H682 H 0.40760 0.29359 0.69735
 H683 H 0.32450 0.18924 0.71672
 H684 H 0.37108 0.19110 0.68696
 C685 C 0.62079 0.27802 0.77051
 C686 C 0.65036 0.28478 0.75913
 C687 C 0.65562 0.28530 0.72685
 C688 C 0.63245 0.27860 0.70582
 C689 C 0.60326 0.27138 0.71641
 C690 C 0.59721 0.27073 0.74896
 C691 C 0.61386 0.27903 0.80275
 C692 C 0.58490 0.27160 0.81353
 C693 C 0.56227 0.26322 0.79255
 C694 C 0.56822 0.26280 0.76056
 H695 H 0.63045 0.28597 0.81992
 H696 H 0.58000 0.27234 0.83830
 H697 H 0.53990 0.25724 0.80109
 H698 H 0.54996 0.25612 0.74511
 H699 H 0.67804 0.29050 0.71784
 H700 H 0.63726 0.27927 0.68100
 C701 C 0.12948 0.77583 0.27025
 C702 C 0.15871 0.78125 0.25721
 C703 C 0.16169 0.78408 0.22473
 C704 C 0.13680 0.78039 0.20507
 C705 C 0.10806 0.77364 0.21717
 C706 C 0.10400 0.77174 0.24999
 C707 C 0.12468 0.77542 0.30290
 C708 C 0.09582 0.77015 0.31523
 C709 C 0.07111 0.76571 0.29545
 C710 C 0.07499 0.76672 0.26315
 H711 H 0.14284 0.77986 0.31926
 H712 H 0.09254 0.76986 0.34031
 H713 H 0.04872 0.76188 0.30520
 H714 H 0.05500 0.76398 0.24868
 H715 H 0.18374 0.78841 0.21434
 H716 H 0.14011 0.78219 0.18004
 C717 C 0.23364 0.11769 0.21521
 C718 C 0.24627 0.14695 0.21025
 C719 C 0.27792 0.15001 0.20824
 C720 C 0.29718 0.12507 0.21262
 C721 C 0.28542 0.09621 0.21902
 C722 C 0.25340 0.09211 0.21965
 C723 C 0.20184 0.11303 0.21484
 C724 C 0.18982 0.08410 0.21936
 C725 C 0.20909 0.05920 0.22382
 C726 C 0.24057 0.06300 0.22372
 H727 H 0.18594 0.13143 0.21041
 H728 H 0.16540 0.08092 0.21902
 H729 H 0.19961 0.03675 0.22696
 H730 H 0.25466 0.04287 0.22635
 H731 H 0.28789 0.17213 0.20415
 H732 H 0.32158 0.12846 0.21178
 C733 C 0.73378 0.61342 0.71074
 C734 C 0.74466 0.64356 0.70698
 C735 C 0.77608 0.64880 0.70793
 C736 C 0.79660 0.62520 0.71392
 C737 C 0.78638 0.59555 0.71914
 C738 C 0.75481 0.58926 0.71703
 C739 C 0.70263 0.60648 0.70729
 C740 C 0.69229 0.57677 0.71085
 C741 C 0.71277 0.55328 0.71733
 C742 C 0.74376 0.55930 0.72013
 H743 H 0.68606 0.62366 0.70108
 H744 H 0.66831 0.57189 0.70817
 H745 H 0.70465 0.53021 0.71976
 H746 H 0.75891 0.54019 0.72425
 H747 H 0.78482 0.67159 0.70477
 H748 H 0.82069 0.63022 0.71515
 C749 C 0.72717 0.37437 0.77595
 C750 C 0.73726 0.34633 0.78976
 C751 C 0.76797 0.34364 0.79888
 C752 C 0.78887 0.36625 0.79222
 C753 C 0.78004 0.39294 0.77682
 C754 C 0.74886 0.39766 0.76932
 C755 C 0.69591 0.38108 0.77093
 C756 C 0.68656 0.40873 0.75798
 C757 C 0.70780 0.43088 0.75080
 C758 C 0.73854 0.42572 0.75686
 H759 H 0.67800 0.36602 0.77817
 H760 H 0.66257 0.41329 0.75425
 H761 H 0.70032 0.45253 0.74129
 H762 H 0.75387 0.44434 0.75245
 H763 H 0.77653 0.32309 0.80994
 H764 H 0.81249 0.36255 0.79865
 C765 C 0.28874 -0.17529 0.28361
 C766 C 0.25672 -0.17211 0.27791
 C767 C 0.24589 -0.14461 0.26495
 C768 C 0.26495 -0.11994 0.26051
 C769 C 0.29583 -0.12169 0.26820
 C770 C 0.30823 -0.14971 0.27902
 C771 C 0.30244 -0.20366 0.29127
 C772 C 0.33368 -0.20625 0.29645
 C773 C 0.35230 -0.18111 0.29302
 C774 C 0.33991 -0.15324 0.28389
 H775 H 0.28984 -0.22458 0.29193
 H776 H 0.34361 -0.22813 0.30243
 H777 H 0.37662 -0.18341 0.29657
 H778 H 0.35560 -0.13484 0.27990
 H779 H 0.22196 -0.14135 0.25963
 H780 H 0.25526 -0.09888 0.25164
 C781 C 0.26975 -0.11810 0.71959
 C782 C 0.25725 -0.14662 0.71014
 C783 C 0.22635 -0.14748 0.70150
 C784 C 0.20730 -0.12240 0.70546
 C785 C 0.21838 -0.09503 0.71737
 C786 C 0.25006 -0.09225 0.72329
 C787 C 0.30152 -0.11383 0.72314
 C788 C 0.31327 -0.08574 0.73184
 C789 C 0.29399 -0.06092 0.73611
 C790 C 0.26280 -0.06389 0.73140
 H791 H 0.31795 -0.13144 0.71785
 H792 H 0.33762 -0.08303 0.73450
 H793 H 0.30334 -0.03901 0.74226
 H794 H 0.24901 -0.04350 0.73329
 H795 H 0.21605 -0.16840 0.69349
 H796 H 0.18330 -0.12477 0.70019
 C797 C 0.71173 0.33287 0.23062
 C798 C 0.74333 0.33705 0.22528
 C799 C 0.75515 0.36657 0.22519
 C800 C 0.73626 0.39180 0.22923
 C801 C 0.70489 0.38841 0.23348
 C802 C 0.69233 0.35878 0.23465
 C803 C 0.69911 0.30355 0.23323
 C804 C 0.66810 0.29977 0.23882
 C805 C 0.64915 0.32502 0.24248
 C806 C 0.66108 0.35427 0.24072
 H807 H 0.71306 0.28332 0.23173
 H808 H 0.65879 0.27710 0.24071
 H809 H 0.62515 0.32193 0.24715
 H810 H 0.64565 0.37319 0.24460
 H811 H 0.77920 0.37022 0.22125
 H812 H 0.74618 0.41429 0.22855
 C813 C 0.76620 0.63316 0.27123
 C814 C 0.75240 0.66239 0.27386
 C815 C 0.72060 0.66490 0.27463
 C816 C 0.70238 0.63935 0.27166
 C817 C 0.71530 0.61036 0.26795
 C818 C 0.74747 0.60692 0.26823
 C819 C 0.79814 0.62922 0.27270
 C820 C 0.81130 0.60032 0.27057
 C821 C 0.79303 0.57479 0.26751
 C822 C 0.76143 0.57791 0.26662
 H823 H 0.81326 0.64818 0.27616
 H824 H 0.83580 0.59770 0.27170
 H825 H 0.80339 0.55239 0.26624
 H826 H 0.74816 0.55735 0.26516
 H827 H 0.70971 0.68700 0.27688
 H828 H 0.67786 0.64228 0.27176
 C829 C 0.20393 0.18136 0.76893
 C830 C 0.23542 0.18115 0.76029
 C831 C 0.24752 0.15478 0.74619
 C832 C 0.23057 0.12836 0.74364
 C833 C 0.20050 0.12724 0.75424
 C834 C 0.18651 0.15414 0.76591
 C835 C 0.18854 0.20836 0.77804
 C836 C 0.15774 0.20825 0.78580
 C837 C 0.14113 0.18163 0.78356
 C838 C 0.15510 0.15496 0.77322
 H839 H 0.19938 0.23019 0.77789
 H840 H 0.14653 0.22918 0.79280
 H841 H 0.11706 0.18182 0.78901
 H842 H 0.14074 0.13534 0.77019
 H843 H 0.27106 0.15377 0.73867
 H844 H 0.24141 0.10820 0.73405
 C845 C 0.19476 0.24565 0.13210
 C846 C 0.21826 0.24078 0.15432
 C847 C 0.24609 0.25564 0.15080
 C848 C 0.25054 0.27618 0.12644
 C849 C 0.22743 0.28218 0.10461
 C850 C 0.19950 0.26622 0.10680
 C851 C 0.16696 0.22979 0.13394
 C852 C 0.14439 0.23406 0.11140
 C853 C 0.14918 0.25376 0.08644
 C854 C 0.17648 0.26955 0.08393
 H855 H 0.16254 0.21366 0.15248
 H856 H 0.12323 0.22171 0.11309
 H857 H 0.13175 0.25661 0.06875
 H858 H 0.17948 0.28389 0.06364
 H859 H 0.26430 0.25183 0.16749
 H860 H 0.27207 0.28795 0.12493
 C861 C 0.72202 0.72764 0.61785
 C862 C 0.71786 0.73700 0.64934
 C863 C 0.71923 0.76801 0.65675
 C864 C 0.72492 0.78970 0.63378
 C865 C 0.72924 0.78108 0.60263
 C866 C 0.72831 0.74984 0.59444
 C867 C 0.71925 0.69686 0.60883
 C868 C 0.72406 0.68803 0.57793
 C869 C 0.73150 0.70956 0.55538
 C870 C 0.73357 0.74019 0.56342
 H871 H 0.71294 0.67934 0.62527
 H872 H 0.72201 0.66434 0.57143
 H873 H 0.73544 0.70252 0.53149
 H874 H 0.73941 0.75614 0.54514
 H875 H 0.71599 0.77550 0.68064
 H876 H 0.72554 0.81350 0.64028
 C877 C 0.74221 0.76823 0.33454
 C878 C 0.77220 0.76063 0.32460
 C879 C 0.79713 0.77368 0.33991
 C880 C 0.79299 0.79250 0.36570
 C881 C 0.76379 0.79878 0.37709
 C882 C 0.73804 0.78713 0.36129
 C883 C 0.71623 0.75828 0.31807
 C884 C 0.68700 0.76572 0.32841
 C885 C 0.68299 0.78354 0.35495
 C886 C 0.70819 0.79438 0.37119
 H887 H 0.71807 0.74535 0.29671
 H888 H 0.66734 0.75785 0.31557
 H889 H 0.66024 0.78936 0.36275
 H890 H 0.70405 0.80879 0.39125
 H891 H 0.82017 0.76843 0.33251
 H892 H 0.81281 0.80149 0.37750
 C893 C 0.24224 0.28650 -0.17232
 C894 C 0.26766 0.26676 -0.17583
 C895 C 0.29015 0.26579 -0.15266
 C896 C 0.28726 0.28311 -0.12561
 C897 C 0.26181 0.30196 -0.12095
 C898 C 0.23919 0.30419 -0.14458
 C899 C 0.22033 0.28985 -0.19624
 C900 C 0.19554 0.30953 -0.19262
 C901 C 0.19241 0.32664 -0.16546
 C902 C 0.21410 0.32429 -0.14173
 H903 H 0.22250 0.27784 -0.21816
 H904 H 0.17888 0.31181 -0.21115
 H905 H 0.17329 0.34214 -0.16293
 H906 H 0.21119 0.33869 -0.12147
 H907 H 0.30988 0.25105 -0.15530
 H908 H 0.30483 0.28143 -0.10789
 C909 C 0.71641 0.26553 -0.11950
 C910 C 0.71320 0.25525 -0.15077
 C911 C 0.71514 0.22407 -0.15722
 C912 C 0.72116 0.20312 -0.13357
 C913 C 0.72534 0.21267 -0.10270
 C914 C 0.72261 0.24403 -0.09527
 C915 C 0.71242 0.29650 -0.11148
 C916 C 0.71519 0.30610 -0.08058
 C917 C 0.72143 0.28515 -0.05701
 C918 C 0.72487 0.25438 -0.06411
 H919 H 0.70654 0.31354 -0.12871
 H920 H 0.71210 0.32991 -0.07485
 H921 H 0.72323 0.29272 -0.03302
 H922 H 0.72883 0.23884 -0.04489
 H923 H 0.71234 0.21589 -0.18092
 H924 H 0.72286 0.17920 -0.13945
 C925 C 0.22359 0.70950 0.33657
 C926 C 0.22475 0.74145 0.34093
 C927 C 0.23138 0.75316 0.37053
 C928 C 0.23552 0.73391 0.39604
 C929 C 0.23348 0.70229 0.39271
 C930 C 0.22821 0.68973 0.36264
 C931 C 0.21898 0.69670 0.30669
 C932 C 0.21866 0.66524 0.30262
 C933 C 0.22339 0.64596 0.32800
 C934 C 0.22837 0.65795 0.35769
 H935 H 0.21614 0.71074 0.28611
 H936 H 0.21512 0.65578 0.27957
 H937 H 0.22354 0.62155 0.32460
 H938 H 0.23286 0.64207 0.37648
 H939 H 0.23260 0.77753 0.37410
 H940 H 0.23981 0.74383 0.41877
 C941 C 0.27106 0.72028 0.67589
 C942 C 0.27276 0.75165 0.66800
 C943 C 0.26797 0.76067 0.63694
 C944 C 0.26324 0.73929 0.61354
 C945 C 0.26317 0.70815 0.62038
 C946 C 0.26646 0.69836 0.65181
 C947 C 0.27286 0.71021 0.70722
 C948 C 0.27111 0.67934 0.71452
 C949 C 0.26705 0.65796 0.69097
 C950 C 0.26449 0.66728 0.65992
 H951 H 0.27490 0.72595 0.72645
 H952 H 0.27257 0.67199 0.73864
 H953 H 0.26544 0.63406 0.69684
 H954 H 0.26050 0.64997 0.64249
 H955 H 0.26892 0.78450 0.63049
 H956 H 0.26048 0.74708 0.58966
 C957 C 0.74947 0.22507 0.16685
 C958 C 0.77359 0.24624 0.16531
 C959 C 0.79320 0.24599 0.13958
 C960 C 0.78880 0.22581 0.11502
 C961 C 0.76474 0.20507 0.11550
 C962 C 0.74499 0.20426 0.14175
 C963 C 0.73041 0.22335 0.19331
 C964 C 0.70708 0.20208 0.19481
 C965 C 0.70267 0.18177 0.17034
 C966 C 0.72154 0.18257 0.14416
 H967 H 0.73374 0.23794 0.21328
 H968 H 0.69261 0.20108 0.21526
 H969 H 0.68476 0.16505 0.17182
 H970 H 0.71781 0.16575 0.12618
 H971 H 0.81191 0.26187 0.13830
 H972 H 0.80419 0.22655 0.09526
 C973 C 0.48336 0.42213 0.54647
 C974 C 0.48297 0.42052 0.51332
 C975 C 0.48744 0.39238 0.49863
 C976 C 0.49077 0.36581 0.51606
 C977 C 0.48978 0.36654 0.54873
 C978 C 0.48666 0.39487 0.56431
 C979 C 0.48159 0.45027 0.56235
 C980 C 0.48223 0.45142 0.59491
 C981 C 0.48514 0.42478 0.61228
 C982 C 0.48758 0.39676 0.59725
 H983 H 0.48035 0.47167 0.54995
 H984 H 0.48081 0.47315 0.60671
 H985 H 0.48591 0.42587 0.63754
 H986 H 0.49066 0.37674 0.61168
 H987 H 0.48754 0.39082 0.47336
 H988 H 0.49343 0.34433 0.50393
 C989 C -0.01869 0.88605 -0.01695
 C990 C -0.02554 0.91490 -0.00364
 C991 C -0.02891 0.91742 0.02883
 C992 C -0.02441 0.89242 0.04826
 C993 C -0.01633 0.86406 0.03589
 C994 C -0.01385 0.86045 0.00305
 C995 C -0.01757 0.88172 -0.04965
 C996 C -0.01097 0.85319 -0.06226
 C997 C -0.00587 0.82834 -0.04272
 C998 C -0.00752 0.83176 -0.01039
 H999 H -0.02245 0.89999 -0.06585
 H1000 H -0.01016 0.85027 -0.08737
 H1001 H -0.00103 0.80620 -0.05268
 H1002 H -0.00421 0.81165 0.00385
 H1003 H -0.03434 0.93919 0.03938
 H1004 H -0.02667 0.89534 0.07329
 C1005 C 0.00800 0.61707 -0.01264
 C1006 C 0.03121 0.59475 -0.00595
 C1007 C 0.04969 0.59923 0.02061
 C1008 C 0.04476 0.62338 0.04093
 C1009 C 0.02095 0.64403 0.03599
 C1010 C 0.00176 0.64051 0.00963
 C1011 C -0.00833 0.61801 -0.04126
 C1012 C -0.03251 0.63828 -0.04579
 C1013 C -0.04060 0.65868 -0.02245
 C1014 C -0.02353 0.66009 0.00489
 H1015 H -0.00211 0.60443 -0.06121
 H1016 H -0.04492 0.63826 -0.06766
 H1017 H -0.05967 0.67408 -0.02591
 H1018 H -0.03034 0.67668 0.02223
 H1019 H 0.06795 0.58351 0.02648
 H1020 H 0.05981 0.62602 0.06081
 C1021 C 0.49342 0.08870 0.51733
 C1022 C 0.52292 0.08012 0.50676
 C1023 C 0.54817 0.09727 0.51589
 C1024 C 0.54458 0.12320 0.53421
 C1025 C 0.51568 0.13260 0.54413
 C1026 C 0.48978 0.11537 0.53590
 C1027 C 0.46750 0.07104 0.51053
 C1028 C 0.43867 0.08007 0.52077
 C1029 C 0.43507 0.10659 0.53815
 C1030 C 0.46032 0.12410 0.54580
 H1031 H 0.46918 0.04990 0.49777
 H1032 H 0.41903 0.06635 0.51529
 H1033 H 0.41263 0.11349 0.54598
 H1034 H 0.45657 0.14441 0.55959
 H1035 H 0.57083 0.09092 0.50814
 H1036 H 0.56451 0.13620 0.54055
 C1037 C 0.00131 0.09096 0.48081
 C1038 C -0.02870 0.08172 0.48862
 C1039 C -0.05364 0.09779 0.47625
 C1040 C -0.04942 0.12350 0.45771
 C1041 C -0.02013 0.13396 0.45106
 C1042 C 0.00557 0.11752 0.46219
 C1043 C 0.02721 0.07391 0.49014
 C1044 C 0.05646 0.08342 0.48237
 C1045 C 0.06058 0.10971 0.46480
 C1046 C 0.03546 0.12655 0.45456
 H1047 H 0.02526 0.05276 0.50284
 H1048 H 0.07604 0.07013 0.48978
 H1049 H 0.08334 0.11686 0.45871
 H1050 H 0.03970 0.14643 0.44031
 H1051 H -0.07667 0.09085 0.48165
 H1052 H -0.06919 0.13572 0.44898
 C1053 C 0.43906 0.61334 0.99431
 C1054 C 0.46242 0.59172 1.00086
 C1055 C 0.49086 0.59460 0.98639
 C1056 C 0.49638 0.61810 0.96534
 C1057 C 0.47371 0.63959 0.95837
 C1058 C 0.44473 0.63732 0.97265
 C1059 C 0.41050 0.61229 1.00943
 C1060 C 0.38780 0.63365 1.00256
 C1061 C 0.39310 0.65655 0.98078
 C1062 C 0.42128 0.65852 0.96597
 H1063 H 0.40547 0.59532 1.02695
 H1064 H 0.36600 0.63248 1.01427
 H1065 H 0.37536 0.67300 0.97550
 H1066 H 0.42452 0.67676 0.94930
 H1067 H 0.50894 0.57835 0.99131
 H1068 H 0.51867 0.61978 0.95465
 C1069 C 0.53133 0.86830 1.01681
 C1070 C 0.54513 0.89602 1.00654
 C1071 C 0.55503 0.89787 0.97526
 C1072 C 0.54879 0.87499 0.95385
 C1073 C 0.53259 0.84921 0.96272
 C1074 C 0.52436 0.84521 0.99447
 C1075 C 0.52617 0.86179 1.04883
 C1076 C 0.51228 0.83487 1.05816
 C1077 C 0.50412 0.81325 1.03614
 C1078 C 0.51048 0.81803 1.00467
 H1079 H 0.53402 0.87638 1.06733
 H1080 H 0.50840 0.83048 1.08274
 H1081 H 0.49363 0.79224 1.04358
 H1082 H 0.50506 0.79989 0.98862
 H1083 H 0.56634 0.91797 0.96652
 H1084 H 0.55587 0.87790 0.92978
 C1085 C 0.03943 0.41330 0.46123
 C1086 C 0.03075 0.41107 0.49348
 C1087 C 0.01568 0.38455 0.50338
 C1088 C 0.01151 0.36001 0.48350
 C1089 C 0.02199 0.36074 0.45274
 C1090 C 0.03564 0.38759 0.44111
 C1091 C 0.04962 0.44085 0.44762
 C1092 C 0.05820 0.44227 0.41631
 C1093 C 0.05587 0.41680 0.39736
 C1094 C 0.04425 0.38985 0.40937
 H1095 H 0.04975 0.46210 0.46009
 H1096 H 0.06609 0.46352 0.40650
 H1097 H 0.06224 0.41818 0.37297
 H1098 H 0.04148 0.37113 0.39330
 H1099 H 0.00806 0.38192 0.52730
 H1100 H 0.00050 0.33983 0.49250
 C1101 C 0.42396 0.54336 0.48754
 C1102 C 0.42215 0.51114 0.48619
 C1103 C 0.39386 0.49713 0.49015
 C1104 C 0.36741 0.51434 0.49400
 C1105 C 0.36836 0.54615 0.49404
 C1106 C 0.39682 0.56100 0.49137
 C1107 C 0.45220 0.55844 0.48633
 C1108 C 0.45365 0.59007 0.48795
 C1109 C 0.42715 0.60728 0.49137
 C1110 C 0.39899 0.59300 0.49335
 H1111 H 0.47342 0.54604 0.48489
 H1112 H 0.47550 0.60126 0.48694
 H1113 H 0.42845 0.63182 0.49294
 H1114 H 0.37912 0.60725 0.49692
 H1115 H 0.39211 0.47256 0.48950
 H1116 H 0.34585 0.50273 0.49633
 C1117 C 0.92322 0.04256 -0.02974
 C1118 C 0.92194 0.01031 -0.02524
 C1119 C 0.89462 -0.00234 -0.01423
 C1120 C 0.86850 0.01525 -0.01054
 C1121 C 0.86855 0.04644 -0.01686
 C1122 C 0.89623 0.06060 -0.02562
 C1123 C 0.95096 0.05781 -0.03563
 C1124 C 0.95178 0.08930 -0.03933
 C1125 C 0.92538 0.10658 -0.03611
 C1126 C 0.89799 0.09257 -0.02881
 H1127 H 0.97265 0.04620 -0.03601
 H1128 H 0.97322 0.10044 -0.04393
 H1129 H 0.92630 0.13109 -0.03843
 H1130 H 0.87852 0.10723 -0.02485
 H1131 H 0.89274 -0.02656 -0.00996
 H1132 H 0.84771 0.00416 -0.00329
 C1133 C 0.58773 0.02466 0.02662
 C1134 C 0.59414 -0.00706 0.02749
 C1135 C 0.62390 -0.01739 0.02195
 C1136 C 0.64751 0.00303 0.01722
 C1137 C 0.64212 0.03445 0.01782
 C1138 C 0.61196 0.04558 0.02181
 C1139 C 0.55768 0.03607 0.02938
 C1140 C 0.55175 0.06727 0.02820
 C1141 C 0.57542 0.08765 0.02373
 C1142 C 0.60522 0.07703 0.02030
 H1143 H 0.53839 0.02114 0.03178
 H1144 H 0.52860 0.07564 0.03037
 H1145 H 0.57061 0.11182 0.02250
 H1146 H 0.62274 0.09366 0.01597
 H1147 H 0.62914 -0.04152 0.02228
 H1148 H 0.67039 -0.00577 0.01387
 C1149 C 0.08533 0.52922 0.53155
 C1150 C 0.09034 0.49732 0.52988
 C1151 C 0.11958 0.48609 0.52350
 C1152 C 0.14407 0.50573 0.52016
 C1153 C 0.14005 0.53728 0.52281
 C1154 C 0.11037 0.54937 0.52781
 C1155 C 0.05583 0.54160 0.53574
 C1156 C 0.05115 0.57300 0.53662
 C1157 C 0.07554 0.59265 0.53284
 C1158 C 0.10484 0.58109 0.52822
 H1159 H 0.03602 0.52730 0.53779
 H1160 H 0.02841 0.58213 0.53984
 H1161 H 0.07169 0.61701 0.53312
 H1162 H 0.12289 0.59726 0.52444
 H1163 H 0.12365 0.46179 0.52184
 H1164 H 0.16653 0.49618 0.51601
 C1165 C 0.12298 0.51699 -0.02947
 C1166 C 0.09303 0.50496 -0.03002
 C1167 C 0.08891 0.47365 -0.02578
 C1168 C 0.11356 0.45432 -0.02032
 C1169 C 0.14320 0.46563 -0.01888
 C1170 C 0.14825 0.49713 -0.02365
 C1171 C 0.12863 0.54800 -0.03582
 C1172 C 0.15820 0.55931 -0.03551
 C1173 C 0.18275 0.54000 -0.02946
 C1174 C 0.17798 0.50916 -0.02385
 H1175 H 0.11054 0.56376 -0.04176
 H1176 H 0.16212 0.58314 -0.04036
 H1177 H 0.20567 0.54888 -0.02954
 H1178 H 0.19781 0.49488 -0.02010
 H1179 H 0.06627 0.46404 -0.02634
 H1180 H 0.10946 0.43025 -0.01703
 C1181 C 0.57738 0.95634 0.46872
 C1182 C 0.57773 0.98706 0.47976
 C1183 C 0.60306 0.99672 0.49719
 C1184 C 0.62882 0.97841 0.50049
 C1185 C 0.63017 0.94940 0.48720
 C1186 C 0.60393 0.93760 0.47227
 C1187 C 0.55072 0.94291 0.45636
 C1188 C 0.55081 0.91289 0.44594
 C1189 C 0.57695 0.89509 0.44857
 C1190 C 0.60310 0.90704 0.46204
 H1191 H 0.52907 0.95463 0.45588
 H1192 H 0.53022 0.90315 0.43647
 H1193 H 0.57670 0.87163 0.44093
 H1194 H 0.62227 0.89175 0.46511
 H1195 H 0.60400 1.01953 0.50671
 H1196 H 0.64842 0.98749 0.51260
 C1197 C 0.90113 0.98611 0.48498
 C1198 C 0.91509 0.98957 0.51510
 C1199 C 0.90400 0.97166 0.53999
 C1200 C 0.87850 0.95346 0.53660
 C1201 C 0.86283 0.95232 0.50832
 C1202 C 0.87415 0.96826 0.48209
 C1203 C 0.91392 0.99819 0.45724
 C1204 C 0.89918 0.99539 0.42852
 C1205 C 0.87192 0.97974 0.42637
 C1206 C 0.85966 0.96591 0.45273
 H1207 H 0.93604 1.00858 0.45666
 H1208 H 0.90928 1.00501 0.40769
 H1209 H 0.86067 0.97756 0.40397
 H1210 H 0.83903 0.95292 0.44975
 H1211 H 0.91415 0.97262 0.56304
 H1212 H 0.87035 0.94077 0.55661
 C1213 C 0.38198 0.49926 0.05937
 C1214 C 0.40444 0.50283 0.03584
 C1215 C 0.40172 0.48691 0.00770
 C1216 C 0.37785 0.46682 0.00291
 C1217 C 0.35575 0.46221 0.02600
 C1218 C 0.35734 0.47889 0.05435
 C1219 C 0.38280 0.51635 0.08730
 C1220 C 0.36016 0.51318 0.10986
 C1221 C 0.33606 0.49342 0.10491
 C1222 C 0.33443 0.47659 0.07738
 H1223 H 0.40055 0.53266 0.09183
 H1224 H 0.36111 0.52643 0.13114
 H1225 H 0.31835 0.49137 0.12234
 H1226 H 0.31481 0.46223 0.07421
 H1227 H 0.41854 0.48973 -0.01058
 H1228 H 0.37673 0.45451 -0.01898
 C1229 C 0.53094 0.50849 0.42114
 C1230 C 0.51163 0.48288 0.42304
 C1231 C 0.51170 0.46145 0.39892
 C1232 C 0.52986 0.46543 0.37262
 C1233 C 0.54865 0.49088 0.36970
 C1234 C 0.54968 0.51254 0.39427
 C1235 C 0.53285 0.52958 0.44588
 C1236 C 0.55233 0.55441 0.44401
 C1237 C 0.57064 0.55838 0.41782
 C1238 C 0.56963 0.53758 0.39328
 H1239 H 0.51983 0.52675 0.46708
 H1240 H 0.55351 0.57042 0.46317
 H1241 H 0.58601 0.57748 0.41669
 H1242 H 0.58493 0.54112 0.37386
 H1243 H 0.49726 0.44162 0.40030
 H1244 H 0.52904 0.44858 0.35418
 C1245 C 0.04408 -0.01903 0.91810
 C1246 C 0.01205 -0.01684 0.91407
 C1247 C 0.00015 -0.00892 0.88479
 C1248 C 0.01921 -0.00462 0.85925
 C1249 C 0.05083 -0.00787 0.86219
 C1250 C 0.06364 -0.01442 0.89194
 C1251 C 0.05718 -0.02467 0.94774
 C1252 C 0.08870 -0.02622 0.95142
 C1253 C 0.10777 -0.02170 0.92592
 C1254 C 0.09549 -0.01561 0.89649
 H1255 H 0.04336 -0.02731 0.96844
 H1256 H 0.09839 -0.03055 0.97428
 H1257 H 0.13222 -0.02256 0.92902
 H1258 H 0.11122 -0.01137 0.87758
 H1259 H -0.02424 -0.00695 0.88140
 H1260 H 0.00912 0.00066 0.83675
 C1261 C -0.00899 0.04940 0.61031
 C1262 C -0.00747 0.02718 0.58640
 C1263 C 0.01203 0.00208 0.58977
 C1264 C 0.03122 -0.00047 0.61555
 C1265 C 0.03120 0.02178 0.63899
 C1266 C 0.01014 0.04644 0.63709
 C1267 C -0.02966 0.07412 0.60852
 C1268 C -0.03160 0.09532 0.63265
 C1269 C -0.01338 0.09212 0.65909
 C1270 C 0.00716 0.06787 0.66149
 H1271 H -0.04479 0.07704 0.58876
 H1272 H -0.04761 0.11411 0.63102
 H1273 H -0.01534 0.10839 0.67796
 H1274 H 0.02021 0.06584 0.68284
 H1275 H 0.01323 -0.01512 0.57168
 H1276 H 0.04696 -0.01956 0.61671
 C1277 C 0.49691 0.55888 0.11813
 C1278 C 0.49394 0.53593 0.09509
 C1279 C 0.51044 0.50873 0.09811
 C1280 C 0.53067 0.50439 0.12280
 C1281 C 0.53478 0.52698 0.14545
 C1282 C 0.51730 0.55427 0.14369
 C1283 C 0.47928 0.58589 0.11692
 C1284 C 0.48179 0.60788 0.14020
 C1285 C 0.50144 0.60326 0.16529
 C1286 C 0.51889 0.57668 0.16726
 H1287 H 0.46308 0.59011 0.09834
 H1288 H 0.46811 0.62845 0.13896
 H1289 H 0.50296 0.62024 0.18352
 H1290 H 0.53314 0.57374 0.18766
 H1291 H 0.50807 0.49091 0.08083
 H1292 H 0.54363 0.48334 0.12398
 C1293 C 0.52252 -0.03524 0.12570
 C1294 C 0.51176 -0.04327 0.09553
 C1295 C 0.48049 -0.04714 0.09072
 C1296 C 0.45975 -0.04201 0.11473
 C1297 C 0.46958 -0.03301 0.14440
 C1298 C 0.50123 -0.03010 0.15035
 C1299 C 0.55398 -0.03331 0.13229
 C1300 C 0.56417 -0.02593 0.16217
 C1301 C 0.54341 -0.02086 0.18617
 C1302 C 0.51225 -0.02315 0.18051
 H1303 H 0.57105 -0.03806 0.11475
 H1304 H 0.58835 -0.02453 0.16683
 H1305 H 0.55150 -0.01550 0.20941
 H1306 H 0.49705 -0.01991 0.20010
 H1307 H 0.47195 -0.05355 0.06792
 H1308 H 0.43567 -0.04463 0.10995
 C1309 C 1.01939 0.46065 0.62482
 C1310 C 1.00730 0.45676 0.59429
 C1311 C 0.97568 0.45528 0.59025
 C1312 C 0.95599 0.45915 0.61540
 C1313 C 0.96723 0.46461 0.64545
 C1314 C 0.99915 0.46475 0.65058
 C1315 C 1.05107 0.45959 0.63056
 C1316 C 1.06252 0.46328 0.66071
 C1317 C 1.04278 0.46758 0.68575
 C1318 C 1.01139 0.46808 0.68090
 H1319 H 1.06730 0.45522 0.61212
 H1320 H 1.08685 0.46243 0.66471
 H1321 H 1.05182 0.47013 0.70913
 H1322 H 0.99690 0.47060 0.70117
 H1323 H 0.96604 0.45207 0.56718
 H1324 H 0.93165 0.45871 0.61122
 C1325 C 0.96339 0.52417 0.92152
 C1326 C 0.99533 0.52225 0.91643
 C1327 C 1.00624 0.51325 0.88709
 C1328 C 0.98635 0.50780 0.86247
 C1329 C 0.95485 0.51112 0.86634
 C1330 C 0.94300 0.51865 0.89621
 C1331 C 0.95117 0.53054 0.95138
 C1332 C 0.91978 0.53220 0.95599
 C1333 C 0.89994 0.52701 0.93125
 C1334 C 0.91131 0.52002 0.90170
 H1335 H 0.96556 0.53356 0.97161
 H1336 H 0.91080 0.53713 0.97900
 H1337 H 0.87559 0.52799 0.93508
 H1338 H 0.89503 0.51525 0.88342
 H1339 H 1.03050 0.51152 0.88280
 H1340 H 0.99570 0.50178 0.83986
 C1341 C 0.51149 0.01967 0.38038
 C1342 C 0.49835 0.02535 0.41015
 C1343 C 0.46667 0.02818 0.41283
 C1344 C 0.44784 0.02404 0.38705
 C1345 C 0.46008 0.01708 0.35770
 C1346 C 0.49217 0.01552 0.35394
 C1347 C 0.54339 0.01905 0.37602
 C1348 C 0.55590 0.01386 0.34655
 C1349 C 0.53705 0.00973 0.32080
 C1350 C 0.50551 0.01080 0.32428
 H1351 H 0.55901 0.02320 0.39502
 H1352 H 0.58038 0.01344 0.34361
 H1353 H 0.54692 0.00608 0.29792
 H1354 H 0.49180 0.00841 0.30344
 H1355 H 0.45632 0.03281 0.43533
 H1356 H 0.42340 0.02558 0.39019
   
