data_POSCAR
  _audit_creation_date              2014-09-24
  _audit_creation_method            'ToBaCCo'
  _symmetry_space_group_name_H-M    'P1'
  _symmetry_Int_Tables_number       1
  _symmetry_cell_setting            triclinic
  loop_
  _symmetry_equiv_pos_as_xyz
 x,y,z
_cell_length_a 118.7036
_cell_length_b 118.5661
_cell_length_c 118.6529
_cell_angle_alpha 90.075300
_cell_angle_beta 90.048100
_cell_angle_gamma 90.003100
loop_
  _atom_site_label
  _atom_site_type_symbol
  _atom_site_fract_x
  _atom_site_fract_y
  _atom_site_fract_z
N1 N 0.31562 0.42632 0.90327
 N2 N 0.32350 0.43411 0.90334
 C3 C 0.32157 0.44138 0.89485
 C4 C 0.31194 0.43800 0.88913
 C5 C 0.30843 0.42837 0.89475
 H6 H 0.32671 0.44869 0.89309
 H7 H 0.30110 0.42329 0.89293
 Cu8 Cu 0.33521 0.43412 0.91483
 Cu9 Cu 0.31497 0.41436 0.91451
 Cu10 Cu 0.33589 0.41427 0.93495
 N11 N 0.34697 0.43401 0.92628
 N12 N 0.34717 0.42619 0.93410
 C13 C 0.35588 0.42814 0.94110
 C14 C 0.36151 0.43778 0.93753
 C15 C 0.35555 0.44123 0.92804
 H16 H 0.35781 0.42296 0.94832
 H17 H 0.35721 0.44851 0.92284
 N18 N 0.32373 0.40296 0.93437
 N19 N 0.31577 0.40299 0.92659
 C20 C 0.30856 0.39448 0.92867
 C21 C 0.31210 0.38879 0.93824
 C22 C 0.32178 0.39443 0.94158
 H23 H 0.30118 0.39269 0.92366
 H24 H 0.32695 0.39259 0.94884
 H25 H 0.32305 0.42314 0.92721
 H26 H 0.33200 0.41407 0.91799
 N27 N 0.42619 0.84738 0.43407
 N28 N 0.43383 0.84749 0.42607
 C29 C 0.44118 0.85590 0.42812
 C30 C 0.43800 0.86142 0.43797
 C31 C 0.42839 0.85572 0.44145
 H32 H 0.44837 0.85773 0.42285
 H33 H 0.42338 0.85735 0.44887
 Cu34 Cu 0.43368 0.83642 0.41392
 Cu35 Cu 0.41419 0.83624 0.43457
 Cu36 Cu 0.41407 0.81584 0.41368
 N37 N 0.43368 0.82456 0.40254
 N38 N 0.42601 0.81657 0.40249
 C39 C 0.42811 0.80942 0.39394
 C40 C 0.43765 0.81306 0.38828
 C41 C 0.44094 0.82272 0.39401
 H42 H 0.42310 0.80204 0.39211
 H43 H 0.44814 0.82799 0.39221
 N44 N 0.40268 0.81648 0.42573
 N45 N 0.40272 0.82426 0.43367
 C46 C 0.39410 0.82231 0.44077
 C47 C 0.38832 0.81280 0.43716
 C48 C 0.39403 0.80937 0.42756
 H49 H 0.39227 0.82737 0.44812
 H50 H 0.39214 0.80215 0.42234
 H51 H 0.42319 0.82380 0.42626
 H52 H 0.41374 0.83284 0.41748
 N53 N 0.92589 0.90272 0.81632
 N54 N 0.93380 0.90294 0.82406
 C55 C 0.94104 0.89439 0.82218
 C56 C 0.93749 0.88847 0.81272
 C57 C 0.92781 0.89404 0.80926
 H58 H 0.94841 0.89271 0.82725
 H59 H 0.92260 0.89207 0.80206
 Cu60 Cu 0.93400 0.91467 0.83554
 Cu61 Cu 0.91390 0.91393 0.81567
 Cu62 Cu 0.91417 0.93482 0.83619
 N63 N 0.93412 0.92638 0.84706
 N64 N 0.92631 0.93422 0.84725
 C65 C 0.92843 0.94141 0.85577
 C66 C 0.93818 0.93796 0.86128
 C67 C 0.94151 0.92833 0.85546
 H68 H 0.92329 0.94868 0.85765
 H69 H 0.94882 0.92316 0.85708
 N70 N 0.90262 0.93396 0.82425
 N71 N 0.90252 0.92603 0.81645
 C72 C 0.89382 0.92790 0.80941
 C73 C 0.88815 0.93751 0.81290
 C74 C 0.89399 0.94109 0.82237
 H75 H 0.89187 0.92271 0.80218
 H76 H 0.89221 0.94844 0.82745
 H77 H 0.92279 0.92681 0.82334
 H78 H 0.91392 0.91777 0.83264
 N79 N 0.42590 -0.09738 0.31610
 N80 N 0.43383 -0.09715 0.32383
 C81 C 0.44110 -0.10566 0.32191
 C82 C 0.43756 -0.11156 0.31245
 C83 C 0.42785 -0.10603 0.30902
 H84 H 0.44849 -0.10731 0.32695
 H85 H 0.42263 -0.10800 0.30181
 Cu86 Cu 0.43401 -0.08545 0.33534
 Cu87 Cu 0.41388 -0.08621 0.31549
 Cu88 Cu 0.41413 -0.06536 0.33606
 N89 N 0.43411 -0.07378 0.34687
 N90 N 0.42628 -0.06596 0.34709
 C91 C 0.42842 -0.05877 0.35561
 C92 C 0.43816 -0.06223 0.36106
 C93 C 0.44151 -0.07182 0.35525
 H94 H 0.42332 -0.05148 0.35753
 H95 H 0.44888 -0.07692 0.35688
 N96 N 0.40257 -0.06622 0.32414
 N97 N 0.40248 -0.07414 0.31633
 C98 C 0.39380 -0.07225 0.30927
 C99 C 0.38813 -0.06265 0.31277
 C100 C 0.39395 -0.05909 0.32226
 H101 H 0.39187 -0.07741 0.30202
 H102 H 0.39217 -0.05175 0.32734
 H103 H 0.42275 -0.07331 0.32318
 H104 H 0.41392 -0.08240 0.33247
 N105 N 0.81538 0.32335 0.34656
 N106 N 0.82318 0.31549 0.34643
 C107 C 0.82123 0.30820 0.35490
 C108 C 0.81167 0.31165 0.36068
 C109 C 0.80822 0.32133 0.35511
 H110 H 0.82632 0.30085 0.35662
 H111 H 0.80094 0.32647 0.35698
 Cu112 Cu 0.83483 0.31534 0.33490
 Cu113 Cu 0.81476 0.33533 0.33537
 Cu114 Cu 0.83545 0.33524 0.31476
 N115 N 0.84640 0.31538 0.32328
 N116 N 0.84659 0.32321 0.31546
 C117 C 0.85515 0.32112 0.30833
 C118 C 0.86066 0.31142 0.31182
 C119 C 0.85484 0.30804 0.32137
 H120 H 0.85705 0.32622 0.30104
 H121 H 0.85651 0.30069 0.32648
 N122 N 0.82344 0.34669 0.31548
 N123 N 0.81556 0.34673 0.32332
 C124 C 0.80842 0.35532 0.32132
 C125 C 0.81192 0.36099 0.31173
 C126 C 0.82150 0.35526 0.30830
 H127 H 0.80109 0.35716 0.32639
 H128 H 0.82661 0.35705 0.30099
 H129 H 0.82264 0.32643 0.32262
 H130 H 0.83177 0.33542 0.33177
 N131 N -0.17689 0.84659 0.81501
 N132 N -0.18435 0.84689 0.82316
 C133 C -0.19108 0.85591 0.82169
 C134 C -0.18772 0.86160 0.81201
 C135 C -0.17862 0.85537 0.80805
 H136 H -0.19800 0.85803 0.82720
 H137 H -0.17367 0.85692 0.80057
 Cu138 Cu -0.18484 0.83519 0.83466
 Cu139 Cu -0.16591 0.83448 0.81364
 Cu140 Cu -0.16410 0.81583 0.83603
 N141 N -0.18444 0.82381 0.84647
 N142 N -0.17622 0.81642 0.84707
 C143 C -0.17808 0.80948 0.85583
 C144 C -0.18804 0.81265 0.86106
 C145 C -0.19181 0.82182 0.85487
 H146 H -0.17266 0.80251 0.85806
 H147 H -0.19944 0.82660 0.85622
 N148 N -0.15281 0.81649 0.82388
 N149 N -0.15361 0.82345 0.81526
 C150 C -0.14497 0.82153 0.80817
 C151 C -0.13841 0.81287 0.81247
 C152 C -0.14366 0.80992 0.82248
 H153 H -0.14369 0.82600 0.80034
 H154 H -0.14113 0.80336 0.82825
 H155 H -0.17379 0.82201 0.82325
 H156 H -0.16489 0.83257 0.83086
 N157 N 0.93458 0.34675 0.42680
 N158 N 0.92675 0.34657 0.43461
 C159 C 0.92866 0.35503 0.44196
 C160 C 0.93824 0.36087 0.43860
 C161 C 0.94171 0.35532 0.42888
 H162 H 0.92350 0.35666 0.44927
 H163 H 0.94898 0.35718 0.42374
 Cu164 Cu 0.91511 0.33500 0.43463
 Cu165 Cu 0.93528 0.33557 0.41477
 Cu166 Cu 0.91464 0.31487 0.41466
 N167 N 0.90356 0.32335 0.43446
 N168 N 0.90342 0.31552 0.42662
 C169 C 0.89487 0.30837 0.42862
 C170 C 0.88929 0.31183 0.43828
 C171 C 0.89507 0.32141 0.44174
 H172 H 0.89300 0.30108 0.42348
 H173 H 0.89336 0.32650 0.44909
 N174 N 0.92672 0.31564 0.40330
 N175 N 0.93457 0.32351 0.40334
 C176 C 0.94177 0.32155 0.39479
 C177 C 0.93833 0.31194 0.38907
 C178 C 0.92872 0.30846 0.39473
 H179 H 0.94908 0.32665 0.39301
 H180 H 0.92365 0.30113 0.39288
 H181 H 0.91828 0.33190 0.41456
 H182 H 0.92739 0.32277 0.42357
 N183 N 0.43268 0.42451 0.84823
 N184 N 0.42560 0.43299 0.84752
 C185 C 0.42828 0.44076 0.85535
 C186 C 0.43756 0.43693 0.86137
 C187 C 0.44007 0.42654 0.85659
 H188 H 0.42378 0.44859 0.85655
 H189 H 0.44673 0.42080 0.85899
 Cu190 Cu 0.41326 0.43291 0.83671
 Cu191 Cu 0.43153 0.41142 0.83836
 Cu192 Cu 0.41680 0.41682 0.81369
 N193 N 0.40275 0.43349 0.82416
 N194 N 0.40418 0.42719 0.81516
 C195 C 0.39609 0.42961 0.80759
 C196 C 0.38917 0.43791 0.81207
 C197 C 0.39368 0.44013 0.82264
 H198 H 0.39550 0.42577 0.79935
 H199 H 0.39071 0.44622 0.82873
 N200 N 0.42726 0.40402 0.81541
 N201 N 0.43265 0.40182 0.82488
 C202 C 0.43901 0.39253 0.82343
 C203 C 0.43753 0.38863 0.81251
 C204 C 0.42998 0.39614 0.80770
 H205 H 0.44435 0.38894 0.82987
 H206 H 0.42674 0.39597 0.79918
 H207 H 0.42772 0.42272 0.82624
 H208 H 0.41577 0.41339 0.83040
 N209 N 0.81566 0.90318 0.92630
 N210 N 0.82370 0.90315 0.93391
 C211 C 0.82173 0.89478 0.94131
 C212 C 0.81193 0.88922 0.93818
 C213 C 0.80834 0.89482 0.92857
 H214 H 0.82700 0.89297 0.94851
 H215 H 0.80086 0.89311 0.92367
 Cu216 Cu 0.83577 0.91427 0.93374
 Cu217 Cu 0.81504 0.91426 0.91426
 Cu218 Cu 0.83564 0.93490 0.91417
 N219 N 0.84688 0.92635 0.93380
 N220 N 0.84680 0.93435 0.92615
 C221 C 0.85516 0.94169 0.92835
 C222 C 0.86083 0.93815 0.93793
 C223 C 0.85530 0.92835 0.94114
 H224 H 0.85683 0.94915 0.92341
 H225 H 0.85717 0.92311 0.94834
 N226 N 0.82365 0.93406 0.90273
 N227 N 0.81580 0.92619 0.90276
 C228 C 0.80869 0.92804 0.89411
 C229 C 0.81218 0.93757 0.88833
 C230 C 0.82173 0.94112 0.89406
 H231 H 0.80141 0.92289 0.89227
 H232 H 0.82686 0.94840 0.89217
 H233 H 0.83208 0.91784 0.91381
 H234 H 0.82322 0.92677 0.92332
 N235 N 0.31680 0.84775 0.32441
 N236 N 0.32460 0.84752 0.31656
 C237 C 0.32269 0.85595 0.30921
 C238 C 0.31315 0.86181 0.31261
 C239 C 0.30968 0.85632 0.32233
 H240 H 0.32780 0.85759 0.30187
 H241 H 0.30239 0.85824 0.32742
 Cu242 Cu 0.33638 0.83611 0.31660
 Cu243 Cu 0.31600 0.83654 0.33636
 Cu244 Cu 0.33461 0.81414 0.33438
 N245 N 0.34751 0.82405 0.31651
 N246 N 0.34680 0.81552 0.32352
 C247 C 0.35528 0.80828 0.32148
 C248 C 0.36171 0.81246 0.31267
 C249 C 0.35650 0.82252 0.30975
 H250 H 0.35650 0.80044 0.32596
 H251 H 0.35898 0.82826 0.30315
 N252 N 0.32344 0.81555 0.34657
 N253 N 0.31649 0.82419 0.34744
 C254 C 0.30986 0.82268 0.35651
 C255 C 0.31275 0.81259 0.36165
 C256 C 0.32144 0.80834 0.35509
 H257 H 0.30333 0.82847 0.35909
 H258 H 0.32589 0.80049 0.35632
 H259 H 0.33273 0.83132 0.33617
 H260 H 0.32265 0.82427 0.32627
 N261 N 0.81553 0.40318 0.42663
 N262 N 0.82339 0.40337 0.43442
 C263 C 0.82151 0.39491 0.44176
 C264 C 0.81193 0.38909 0.43840
 C265 C 0.80840 0.39461 0.42872
 H266 H 0.82663 0.39326 0.44910
 H267 H 0.80109 0.39270 0.42363
 Cu268 Cu 0.83495 0.41500 0.43441
 Cu269 Cu 0.81477 0.41437 0.41462
 Cu270 Cu 0.83540 0.43511 0.41457
 N271 N 0.84653 0.42661 0.43436
 N272 N 0.84664 0.43444 0.42654
 C273 C 0.85519 0.44161 0.42857
 C274 C 0.86078 0.43814 0.43824
 C275 C 0.85502 0.42855 0.44165
 H276 H 0.85704 0.44891 0.42346
 H277 H 0.85674 0.42346 0.44899
 N278 N 0.82330 0.43432 0.40320
 N279 N 0.81546 0.42644 0.40322
 C280 C 0.80824 0.42841 0.39468
 C281 C 0.81167 0.43802 0.38899
 C282 C 0.82128 0.44151 0.39466
 H283 H 0.80093 0.42330 0.39287
 H284 H 0.82634 0.44884 0.39284
 H285 H 0.83175 0.41809 0.41437
 H286 H 0.82265 0.42721 0.42339
 N287 N 0.92613 0.84667 -0.06566
 N288 N 0.93392 0.84658 -0.07351
 C289 C 0.94125 0.85503 -0.07153
 C290 C 0.93789 0.86074 -0.06189
 C291 C 0.92822 0.85516 -0.05843
 H292 H 0.94857 0.85676 -0.07664
 H293 H 0.92315 0.85698 -0.05109
 Cu294 Cu 0.93390 0.83510 -0.08524
 Cu295 Cu 0.91414 0.83547 -0.06505
 Cu296 Cu 0.91403 0.81500 -0.08599
 N297 N 0.93378 0.82366 -0.09700
 N298 N 0.92596 0.81583 -0.09723
 C299 C 0.92793 0.80882 -0.10593
 C300 C 0.93755 0.81241 -0.11149
 C301 C 0.94102 0.82189 -0.10556
 H302 H 0.92279 0.80157 -0.10791
 H303 H 0.94833 0.82703 -0.10722
 N304 N 0.90270 0.81562 -0.07386
 N305 N 0.90274 0.82340 -0.06591
 C306 C 0.89423 0.82133 -0.05870
 C307 C 0.88854 0.81175 -0.06225
 C308 C 0.89417 0.80840 -0.07192
 H309 H 0.89246 0.82634 -0.05131
 H310 H 0.89234 0.80112 -0.07708
 H311 H 0.92289 0.82273 -0.07311
 H312 H 0.91387 0.83197 -0.08209
 N313 N 0.31573 0.34681 0.82366
 N314 N 0.32367 0.34671 0.81596
 C315 C 0.32181 0.35518 0.80864
 C316 C 0.31216 0.36092 0.81191
 C317 C 0.30857 0.35534 0.82152
 H318 H 0.32702 0.35692 0.80139
 H319 H 0.30119 0.35717 0.82652
 Cu320 Cu 0.33539 0.33523 0.81604
 Cu321 Cu 0.31497 0.33562 0.83564
 Cu322 Cu 0.33577 0.31509 0.83595
 N323 N 0.34703 0.32367 0.81631
 N324 N 0.34713 0.31584 0.82414
 C325 C 0.35579 0.30878 0.82223
 C326 C 0.36147 0.31232 0.81266
 C327 C 0.35564 0.32183 0.80916
 H328 H 0.35766 0.30150 0.82737
 H329 H 0.35742 0.32697 0.80186
 N330 N 0.32354 0.31577 0.84717
 N331 N 0.31563 0.32358 0.84705
 C332 C 0.30836 0.32157 0.85551
 C333 C 0.31181 0.31201 0.86127
 C334 C 0.32150 0.30859 0.85572
 H335 H 0.30099 0.32663 0.85723
 H336 H 0.32663 0.30132 0.85764
 H337 H 0.33201 0.33209 0.83605
 H338 H 0.32309 0.32289 0.82690
 N339 N 0.15275 0.57419 0.56620
 N340 N 0.15284 0.56639 0.57404
 C341 C 0.14422 0.55922 0.57224
 C342 C 0.13838 0.56271 0.56272
 C343 C 0.14408 0.57227 0.55914
 H344 H 0.14243 0.55194 0.57740
 H345 H 0.14219 0.57741 0.55188
 Cu346 Cu 0.16449 0.56623 0.58561
 Cu347 Cu 0.16409 0.58604 0.56542
 Cu348 Cu 0.18478 0.58596 0.58609
 N349 N 0.17607 0.56629 0.59724
 N350 N 0.18396 0.57406 0.59737
 C351 C 0.19101 0.57207 0.60602
 C352 C 0.18740 0.56249 0.61166
 C353 C 0.17785 0.55908 0.60582
 H354 H 0.19831 0.57716 0.60792
 H355 H 0.17267 0.55181 0.60757
 N356 N 0.18416 0.59728 0.57394
 N357 N 0.17629 0.59731 0.56608
 C358 C 0.17834 0.60581 0.55886
 C359 C 0.18799 0.61144 0.56229
 C360 C 0.19142 0.60577 0.57191
 H361 H 0.17325 0.60765 0.55154
 H362 H 0.19875 0.60756 0.57700
 H363 H 0.17681 0.57715 0.57333
 H364 H 0.16777 0.58626 0.58243
 N365 N 0.59658 0.67680 0.06522
 N366 N 0.59613 0.68497 0.07269
 C367 C 0.60508 0.69180 0.07127
 C368 C 0.61149 0.68773 0.06236
 C369 C 0.60580 0.67815 0.05878
 H370 H 0.60661 0.69933 0.07617
 H371 H 0.60798 0.67271 0.05181
 Cu372 Cu 0.58356 0.68641 0.08315
 Cu373 Cu 0.58460 0.66573 0.06371
 Cu374 Cu 0.56396 0.66594 0.08416
 N375 N 0.57286 0.68530 0.09555
 N376 N 0.56534 0.67719 0.09601
 C377 C 0.55875 0.67876 0.10508
 C378 C 0.56228 0.68842 0.11067
 C379 C 0.57132 0.69230 0.10435
 H380 H 0.55170 0.67341 0.10722
 H381 H 0.57624 0.69982 0.10584
 N382 N 0.56507 0.65401 0.07264
 N383 N 0.57295 0.65394 0.06481
 C384 C 0.57125 0.64506 0.05794
 C385 C 0.56179 0.63924 0.06156
 C386 C 0.55815 0.64517 0.07095
 H387 H 0.57640 0.64314 0.05069
 H388 H 0.55084 0.64337 0.07607
 H389 H 0.57160 0.67445 0.07115
 H390 H 0.58100 0.66624 0.08070
 N391 N 0.67615 0.18425 0.65288
 N392 N 0.68401 0.17645 0.65301
 C393 C 0.69118 0.17829 0.64441
 C394 C 0.68764 0.18778 0.63855
 C395 C 0.67804 0.19130 0.64421
 H396 H 0.69850 0.17318 0.64266
 H397 H 0.67286 0.19854 0.64230
 Cu398 Cu 0.68424 0.16495 0.66470
 Cu399 Cu 0.66427 0.18498 0.66419
 Cu400 Cu 0.66457 0.16442 0.68498
 N401 N 0.68435 0.15340 0.67634
 N402 N 0.67660 0.15326 0.68424
 C403 C 0.67872 0.14472 0.69137
 C404 C 0.68836 0.13915 0.68781
 C405 C 0.69168 0.14493 0.67821
 H406 H 0.67367 0.14284 0.69871
 H407 H 0.69896 0.14322 0.67303
 N408 N 0.65312 0.17645 0.68427
 N409 N 0.65300 0.18426 0.67637
 C410 C 0.64443 0.19142 0.67839
 C411 C 0.63884 0.18798 0.68805
 C412 C 0.64462 0.17843 0.69151
 H413 H 0.64251 0.19869 0.67327
 H414 H 0.64289 0.17337 0.69887
 H415 H 0.67323 0.17723 0.67696
 H416 H 0.66420 0.16799 0.66796
 N417 N 1.09748 0.07386 0.18376
 N418 N 1.09698 0.06563 0.17635
 C419 C 1.10537 0.05827 0.17842
 C420 C 1.11145 0.06205 0.18767
 C421 C 1.10617 0.07200 0.19080
 H422 H 1.10677 0.05063 0.17367
 H423 H 1.10829 0.07741 0.19783
 Cu424 Cu 1.08524 0.06516 0.16492
 Cu425 Cu 1.08633 0.08589 0.18434
 Cu426 Cu 1.06389 0.08371 0.16574
 N427 N 1.07376 0.06553 0.15320
 N428 N 1.06545 0.07283 0.15357
 C429 C 1.05849 0.07099 0.14481
 C430 C 1.06263 0.06202 0.13856
 C431 C 1.07238 0.05880 0.14416
 H432 H 1.05084 0.07570 0.14331
 H433 H 1.07798 0.05197 0.14193
 N434 N 1.06538 0.09606 0.17674
 N435 N 1.07403 0.09703 0.18365
 C436 C 1.07253 0.10621 0.19018
 C437 C 1.06243 0.11130 0.18724
 C438 C 1.05818 0.10462 0.17864
 H439 H 1.07830 0.10887 0.19670
 H440 H 1.05032 0.10577 0.17420
 H441 H 1.07372 0.07599 0.17817
 H442 H 1.08108 0.08505 0.16761
 N443 N 0.07455 0.15207 1.06668
 N444 N 0.06634 0.15266 1.07407
 C445 C 0.05907 0.14415 1.07217
 C446 C 0.06289 0.13788 1.06306
 C447 C 0.07278 0.14320 1.05982
 H448 H 0.05147 0.14275 1.07696
 H449 H 0.07822 0.14095 1.05288
 Cu450 Cu 0.06583 0.16458 1.08534
 Cu451 Cu 0.08655 0.16325 1.06599
 Cu452 Cu 0.08450 0.18586 1.08442
 N453 N 0.06625 0.17619 1.09695
 N454 N 0.07359 0.18446 1.09656
 C455 C 0.07180 0.19148 1.10530
 C456 C 0.06282 0.18741 1.11156
 C457 C 0.05955 0.17765 1.10598
 H458 H 0.07658 0.19910 1.10679
 H459 H 0.05271 0.17208 1.10823
 N460 N 0.09681 0.18426 1.07341
 N461 N 0.09771 0.17555 1.06654
 C462 C 0.10684 0.17698 1.05997
 C463 C 0.11198 0.18709 1.06283
 C464 C 0.10538 0.19143 1.07143
 H465 H 0.10944 0.17115 1.05348
 H466 H 0.10657 0.19933 1.07582
 H467 H 0.08572 0.16863 1.08267
 H468 H 0.07672 0.17599 1.07206
 N469 N 0.15325 0.68452 0.67645
 N470 N 0.15337 0.67661 0.68419
 C471 C 0.14492 0.67850 0.69152
 C472 C 0.13916 0.68813 0.68821
 C473 C 0.14472 0.69169 0.67857
 H474 H 0.14319 0.67332 0.69880
 H475 H 0.14286 0.69903 0.67353
 Cu476 Cu 0.16488 0.66491 0.68408
 Cu477 Cu 0.16439 0.68523 0.66442
 Cu478 Cu 0.18489 0.66435 0.66412
 N479 N 0.17634 0.65318 0.68385
 N480 N 0.18413 0.65302 0.67600
 C481 C 0.19114 0.64430 0.67788
 C482 C 0.18759 0.63864 0.68746
 C483 C 0.17814 0.64455 0.69100
 H484 H 0.19836 0.64236 0.67270
 H485 H 0.17301 0.64280 0.69831
 N486 N 0.18420 0.67656 0.65286
 N487 N 0.17640 0.68449 0.65297
 C488 C 0.17839 0.69173 0.64447
 C489 C 0.18792 0.68825 0.63870
 C490 C 0.19134 0.67856 0.64428
 H491 H 0.17334 0.69911 0.64275
 H492 H 0.19861 0.67343 0.64237
 H493 H 0.16793 0.66818 0.66404
 H494 H 0.17717 0.67715 0.67308
 N495 N 1.17614 0.15276 0.18393
 N496 N 1.18393 0.15290 0.17608
 C497 C 1.19129 0.14448 0.17802
 C498 C 1.18796 0.13873 0.18764
 C499 C 1.17827 0.14426 0.19113
 H500 H 1.19860 0.14278 0.17289
 H501 H 1.17321 0.14240 0.19845
 Cu502 Cu 1.18388 0.16436 0.16434
 Cu503 Cu 1.16406 0.16386 0.18454
 Cu504 Cu 1.16383 0.18437 0.16373
 N505 N 1.18365 0.17590 0.15269
 N506 N 1.17578 0.18368 0.15251
 C507 C 1.17774 0.19075 0.14386
 C508 C 1.18739 0.18725 0.13828
 C509 C 1.19089 0.17776 0.14415
 H510 H 1.17258 0.19800 0.14193
 H511 H 1.19823 0.17266 0.14245
 N512 N 1.15246 0.18363 0.17582
 N513 N 1.15255 0.17582 0.18373
 C514 C 1.14396 0.17774 0.19088
 C515 C 1.13815 0.18724 0.18734
 C516 C 1.14381 0.19072 0.17774
 H517 H 1.14218 0.17266 0.19821
 H518 H 1.14189 0.19797 0.17258
 H519 H 1.16381 0.16737 0.16749
 H520 H 1.17277 0.17664 0.17652
 N521 N 0.65263 1.06624 0.57390
 N522 N 0.65280 1.07410 0.56611
 C523 C 0.64424 1.07230 0.55887
 C524 C 0.63836 1.06278 0.56229
 C525 C 0.64398 1.05919 0.57190
 H526 H 0.64251 1.07747 0.55159
 H527 H 0.64205 1.05191 0.57701
 Cu528 Cu 0.66446 1.08564 0.56606
 Cu529 Cu 0.66388 1.06543 0.58584
 Cu530 Cu 0.68460 1.08606 0.58595
 N531 N 0.67605 1.09725 0.56623
 N532 N 0.68388 1.09736 0.57406
 C533 C 0.69097 1.10599 0.57212
 C534 C 0.68744 1.11165 0.56252
 C535 C 0.67791 1.10583 0.55903
 H536 H 0.69825 1.10787 0.57726
 H537 H 0.67278 1.10760 0.55173
 N538 N 0.68388 1.07389 0.59724
 N539 N 0.67600 1.06605 0.59719
 C540 C 0.67799 1.05878 0.60567
 C541 C 0.68762 1.06216 0.61136
 C542 C 0.69109 1.07181 0.60575
 H543 H 0.67288 1.05145 0.60743
 H544 H 0.69843 1.07686 0.60760
 H545 H 0.66759 1.08244 0.58610
 H546 H 0.67668 1.07332 0.57706
 N547 N 0.57385 0.56565 0.15282
 N548 N 0.56597 0.57343 0.15299
 C549 C 0.55864 0.57143 0.14455
 C550 C 0.56209 0.56186 0.13875
 C551 C 0.57181 0.55846 0.14428
 H552 H 0.55125 0.57648 0.14289
 H553 H 0.57697 0.55120 0.14237
 Cu554 Cu 0.56584 0.58511 0.16453
 Cu555 Cu 0.58591 0.56512 0.16396
 Cu556 Cu 0.58582 0.58586 0.18460
 N557 N 0.56588 0.59671 0.17616
 N558 N 0.57372 0.59695 0.18396
 C559 C 0.57162 0.60551 0.19111
 C560 C 0.56189 0.61098 0.18764
 C561 C 0.55850 0.60512 0.17808
 H562 H 0.57675 0.60747 0.19838
 H563 H 0.55113 0.60673 0.17300
 N564 N 0.59734 0.57391 0.18381
 N565 N 0.59737 0.56602 0.17596
 C566 C 0.60604 0.55895 0.17788
 C567 C 0.61177 0.56252 0.18743
 C568 C 0.60598 0.57206 0.19093
 H569 H 0.60791 0.55164 0.17278
 H570 H 0.60781 0.57721 0.19821
 H571 H 0.57706 0.57298 0.17676
 H572 H 0.58593 0.58216 0.16759
 N573 N 0.65417 0.67711 0.18491
 N574 N 0.65374 0.68447 0.17666
 C575 C 0.64478 0.69127 0.17823
 C576 C 0.63931 0.68803 0.18804
 C577 C 0.64554 0.67898 0.19202
 H578 H 0.64252 0.69814 0.17271
 H579 H 0.64411 0.67422 0.19965
 Cu580 Cu 0.66522 0.68479 0.16496
 Cu581 Cu 0.66623 0.66611 0.18620
 Cu582 Cu 0.68437 0.66387 0.16344
 N583 N 0.67634 0.68417 0.15294
 N584 N 0.68365 0.67587 0.15229
 C585 C 0.69042 0.67758 0.14337
 C586 C 0.68723 0.68752 0.13810
 C587 C 0.67822 0.69143 0.14444
 H588 H 0.69728 0.67207 0.14105
 H589 H 0.67349 0.69910 0.14309
 N590 N 0.68387 0.65272 0.17572
 N591 N 0.67711 0.65370 0.18449
 C592 C 0.67911 0.64512 0.19164
 C593 C 0.68761 0.63844 0.18723
 C594 C 0.69039 0.64353 0.17710
 H595 H 0.67482 0.64399 0.19959
 H596 H 0.69680 0.64086 0.17123
 H597 H 0.67854 0.67378 0.17622
 H598 H 0.66777 0.66486 0.16896
 N599 N 0.15373 0.07322 1.06522
 N600 N 0.15339 0.06577 1.07340
 C601 C 0.14427 0.05916 1.07199
 C602 C 0.13860 0.06260 1.06236
 C603 C 0.14489 0.07158 1.05831
 H604 H 0.14204 0.05228 1.07750
 H605 H 0.14334 0.07646 1.05078
 Cu606 Cu 0.16515 0.06508 1.08481
 Cu607 Cu 0.16594 0.08403 1.06377
 Cu608 Cu 0.18436 0.08598 1.08637
 N609 N 0.17648 0.06553 1.09665
 N610 N 0.18377 0.07383 1.09736
 C611 C 0.19070 0.07196 1.10614
 C612 C 0.18760 0.06192 1.11126
 C613 C 0.17850 0.05811 1.10498
 H614 H 0.19760 0.07743 1.10846
 H615 H 0.17382 0.05040 1.10623
 N616 N 0.18373 0.09726 1.07422
 N617 N 0.17690 0.09636 1.06549
 C618 C 0.17887 0.10497 1.05838
 C619 C 0.18744 0.11160 1.06278
 C620 C 0.19027 0.10643 1.07286
 H621 H 0.17452 0.10618 1.05047
 H622 H 0.19675 0.10903 1.07870
 H623 H 0.17837 0.07622 1.07355
 H624 H 0.16767 0.08506 1.08101
 N625 N 0.59757 0.18385 0.57399
 N626 N 0.59769 0.17568 0.56651
 C627 C 0.60626 0.17743 0.55929
 C628 C 0.61184 0.18724 0.56240
 C629 C 0.60604 0.19105 0.57181
 H630 H 0.60821 0.17200 0.55223
 H631 H 0.60773 0.19858 0.57665
 Cu632 Cu 0.58648 0.16368 0.56667
 Cu633 Cu 0.58625 0.18476 0.58580
 Cu634 Cu 0.56559 0.16417 0.58591
 N635 N 0.57444 0.15253 0.56663
 N636 N 0.56634 0.15275 0.57416
 C637 C 0.55908 0.14430 0.57206
 C638 C 0.56278 0.13841 0.56266
 C639 C 0.57259 0.14391 0.55946
 H640 H 0.55158 0.14269 0.57695
 H641 H 0.57794 0.14188 0.55238
 N642 N 0.56623 0.17641 0.59711
 N643 N 0.57410 0.18426 0.59707
 C644 C 0.57208 0.19157 0.60553
 C645 C 0.56244 0.18819 0.61119
 C646 C 0.55900 0.17852 0.60559
 H647 H 0.57719 0.19889 0.60731
 H648 H 0.55167 0.17345 0.60743
 H649 H 0.58262 0.16773 0.58648
 H650 H 0.57388 0.17645 0.57670
 N651 N 0.09768 0.57431 0.68380
 N652 N 0.09725 0.56610 0.67637
 C653 C 0.10583 0.55892 0.67829
 C654 C 0.11197 0.56279 0.68746
 C655 C 0.10652 0.57262 0.69070
 H656 H 0.10734 0.55133 0.67348
 H657 H 0.10865 0.57806 0.69770
 Cu658 Cu 0.08541 0.56544 0.66504
 Cu659 Cu 0.08632 0.58613 0.68453
 Cu660 Cu 0.06384 0.58375 0.66603
 N661 N 0.07387 0.56575 0.65338
 N662 N 0.06549 0.57296 0.65380
 C663 C 0.05854 0.57111 0.64504
 C664 C 0.06277 0.56222 0.63871
 C665 C 0.07255 0.55907 0.64429
 H666 H 0.05085 0.57576 0.64356
 H667 H 0.07823 0.55232 0.64200
 N668 N 0.06519 0.59604 0.67711
 N669 N 0.07385 0.59708 0.68400
 C670 C 0.07220 0.60616 0.69064
 C671 C 0.06201 0.61110 0.68779
 C672 C 0.05784 0.60445 0.67913
 H673 H 0.07793 0.60884 0.69719
 H674 H 0.04993 0.60549 0.67475
 H675 H 0.07381 0.57609 0.67837
 H676 H 0.08103 0.58527 0.66782
 N677 N 0.65382 0.56516 0.07283
 N678 N 0.65342 0.57345 0.06551
 C679 C 0.64449 0.57191 0.05868
 C680 C 0.63900 0.56208 0.06183
 C681 C 0.64520 0.55805 0.07088
 H682 H 0.64226 0.57748 0.05183
 H683 H 0.64375 0.55039 0.07559
 Cu684 Cu 0.66493 0.58515 0.06531
 Cu685 Cu 0.66587 0.56383 0.08387
 Cu686 Cu 0.68417 0.58650 0.08615
 N687 N 0.67615 0.59711 0.06590
 N688 N 0.68350 0.59769 0.07415
 C689 C 0.69036 0.60655 0.07243
 C690 C 0.68717 0.61187 0.06252
 C691 C 0.67807 0.60561 0.05863
 H692 H 0.69727 0.60880 0.07791
 H693 H 0.67332 0.60700 0.05100
 N694 N 0.68358 0.57419 0.09728
 N695 N 0.67676 0.56547 0.09630
 C696 C 0.67870 0.55830 0.10487
 C697 C 0.68722 0.56266 0.11158
 C698 C 0.69008 0.57278 0.10648
 H699 H 0.67434 0.55038 0.10601
 H700 H 0.69652 0.57862 0.10916
 H701 H 0.66753 0.58106 0.08520
 H702 H 0.67821 0.57377 0.07623
 N703 N 0.07372 0.68447 0.59672
 N704 N 0.06596 0.67657 0.59665
 C705 C 0.05869 0.67848 0.60515
 C706 C 0.06206 0.68812 0.61089
 C707 C 0.07167 0.69165 0.60526
 H708 H 0.05141 0.67332 0.60692
 H709 H 0.07673 0.69901 0.60708
 Cu710 Cu 0.06595 0.66487 0.58513
 Cu711 Cu 0.08565 0.68517 0.58547
 Cu712 Cu 0.08576 0.66426 0.56497
 N713 N 0.06608 0.65312 0.57366
 N714 N 0.07388 0.65294 0.56582
 C715 C 0.07192 0.64423 0.55881
 C716 C 0.06234 0.63860 0.56240
 C717 C 0.05888 0.64451 0.57189
 H718 H 0.07704 0.64229 0.55153
 H719 H 0.05159 0.64279 0.57705
 N720 N 0.09704 0.67646 0.56557
 N721 N 0.09700 0.68441 0.57336
 C722 C 0.10549 0.69165 0.57129
 C723 C 0.11117 0.68814 0.56170
 C724 C 0.10555 0.67845 0.55834
 H725 H 0.10727 0.69904 0.57631
 H726 H 0.10740 0.67329 0.55107
 H727 H 0.07688 0.67708 0.57276
 H728 H 0.08596 0.66811 0.58195
 N729 N 0.57268 1.06511 0.65359
 N730 N 0.56532 1.07337 0.65321
 C731 C 0.55866 1.07195 0.64412
 C732 C 0.56196 1.06220 0.63848
 C733 C 0.57095 1.05814 0.64480
 H734 H 0.55181 1.07753 0.64194
 H735 H 0.57582 1.05059 0.64332
 Cu736 Cu 0.56485 1.08487 0.66495
 Cu737 Cu 0.58348 1.06360 0.66583
 Cu738 Cu 0.58523 1.08588 0.68469
 N739 N 0.56514 1.09661 0.67644
 N740 N 0.57324 1.09707 0.68397
 C741 C 0.57134 1.10579 0.69098
 C742 C 0.56144 1.11116 0.68773
 C743 C 0.55780 1.10504 0.67839
 H744 H 0.57668 1.10785 0.69806
 H745 H 0.55030 1.10648 0.67345
 N746 N 0.59640 1.07358 0.68413
 N747 N 0.59562 1.06500 0.67708
 C748 C 0.60413 1.05778 0.67909
 C749 C 0.61059 1.06193 0.68791
 C750 C 0.60541 1.07200 0.69085
 H751 H 0.60539 1.04996 0.67459
 H752 H 0.60790 1.07769 0.69751
 H753 H 0.57552 1.07325 0.67823
 H754 H 0.58470 1.08079 0.66792
 N755 N 0.43385 0.34738 0.92610
 N756 N 0.42611 0.34712 0.93400
 C757 C 0.42796 0.35564 0.94129
 C758 C 0.43742 0.36162 0.93779
 C759 C 0.44087 0.35607 0.92806
 H760 H 0.42285 0.35725 0.94864
 H761 H 0.44804 0.35803 0.92282
 Cu762 Cu 0.41464 0.33538 0.93411
 Cu763 Cu 0.43453 0.33621 0.91405
 Cu764 Cu 0.41406 0.31532 0.91414
 N765 N 0.40313 0.32369 0.93410
 N766 N 0.40297 0.31588 0.92623
 C767 C 0.39445 0.30869 0.92828
 C768 C 0.38891 0.31213 0.93798
 C769 C 0.39469 0.32172 0.94142
 H770 H 0.39256 0.30141 0.92313
 H771 H 0.39299 0.32681 0.94877
 N772 N 0.42601 0.31621 0.90264
 N773 N 0.43379 0.32416 0.90260
 C774 C 0.44088 0.32229 0.89394
 C775 C 0.43743 0.31269 0.88822
 C776 C 0.42795 0.30909 0.89401
 H777 H 0.44811 0.32748 0.89205
 H778 H 0.42290 0.30174 0.89219
 H779 H 0.41757 0.33237 0.91401
 H780 H 0.42687 0.32329 0.92286
 N781 N 0.93557 0.42758 0.34585
 N782 N 0.92736 0.43499 0.34623
 C783 C 0.92893 0.44180 0.35518
 C784 C 0.93872 0.43853 0.36075
 C785 C 0.94264 0.42940 0.35452
 H786 H 0.92341 0.44872 0.35733
 H787 H 0.95018 0.42452 0.35598
 Cu788 Cu 0.91572 0.43534 0.33466
 Cu789 Cu 0.93687 0.41657 0.33376
 Cu790 Cu 0.91433 0.41459 0.31528
 N791 N 0.90381 0.43487 0.32338
 N792 N 0.90321 0.42664 0.31599
 C793 C 0.89441 0.42847 0.30908
 C794 C 0.88916 0.43842 0.31227
 C795 C 0.89539 0.44222 0.32143
 H796 H 0.89218 0.42304 0.30210
 H797 H 0.89404 0.44987 0.32619
 N798 N 0.92659 0.40339 0.31583
 N799 N 0.93526 0.40426 0.32272
 C800 C 0.94245 0.39572 0.32068
 C801 C 0.93816 0.38916 0.31200
 C802 C 0.92806 0.39430 0.30918
 H803 H 0.95035 0.39453 0.32504
 H804 H 0.92228 0.39174 0.30262
 H805 H 0.92708 0.42438 0.32138
 H806 H 0.91966 0.41541 0.33196
 N807 N 0.31643 0.92608 0.40258
 N808 N 0.32414 0.93402 0.40282
 C809 C 0.32226 0.94124 0.39427
 C810 C 0.31284 0.93766 0.38833
 C811 C 0.30939 0.92797 0.39389
 H812 H 0.32731 0.94863 0.39259
 H813 H 0.30221 0.92273 0.39191
 Cu814 Cu 0.33561 0.93425 0.41456
 Cu815 Cu 0.31578 0.91409 0.41379
 Cu816 Cu 0.33627 0.91439 0.43467
 N817 N 0.34711 0.93438 0.42627
 N818 N 0.34731 0.92654 0.43408
 C819 C 0.35583 0.92866 0.44127
 C820 C 0.36133 0.93842 0.43785
 C821 C 0.35551 0.94177 0.42824
 H822 H 0.35770 0.92349 0.44852
 H823 H 0.35713 0.94910 0.42310
 N824 N 0.32436 0.90282 0.43381
 N825 N 0.31656 0.90271 0.42588
 C826 C 0.30951 0.89402 0.42778
 C827 C 0.31299 0.88836 0.43739
 C828 C 0.32246 0.89422 0.44095
 H829 H 0.30228 0.89207 0.42260
 H830 H 0.32753 0.89246 0.44830
 H831 H 0.32341 0.92301 0.42667
 H832 H 0.33273 0.91414 0.41763
 O833 O 0.28006 0.49926 0.76480
 O834 O 0.27645 0.51868 0.76316
 O835 O 0.25087 0.48552 0.78003
 O836 O 0.23216 0.48537 0.77684
 O837 O 0.26477 0.47001 0.75062
 O838 O 0.26381 0.47412 0.73091
 O839 O 0.22076 0.51483 0.74936
 O840 O 0.22385 0.51243 0.76874
 O841 O 0.24893 0.52932 0.73537
 O842 O 0.26929 0.52576 0.73621
 O843 O 0.23533 0.50090 0.72075
 O844 O 0.23624 0.48055 0.72447
 O845 O 0.22076 0.50129 0.73575
 O846 O 0.22475 0.48023 0.73714
 O847 O 0.24884 0.51447 0.72064
 O848 O 0.26987 0.51295 0.72480
 O849 O 0.23521 0.52918 0.74871
 O850 O 0.23917 0.52580 0.76923
 O851 O 0.28020 0.48587 0.75101
 O852 O 0.27607 0.48704 0.73086
 O853 O 0.25125 0.46986 0.76418
 O854 O 0.23079 0.47430 0.76233
 O855 O 0.26452 0.49899 0.78003
 O856 O 0.26180 0.51938 0.77570
 Zr857 Zr 0.26376 0.50615 0.76380
 O858 O 0.25390 0.51694 0.75372
 Zr859 Zr 0.24409 0.48612 0.76365
 O860 O 0.23324 0.49624 0.75391
 Zr861 Zr 0.26392 0.48638 0.74386
 O862 O 0.25381 0.49618 0.73304
 Zr863 Zr 0.23683 0.51337 0.75656
 O864 O 0.24663 0.50329 0.76754
 Zr865 Zr 0.25650 0.51333 0.73660
 O866 O 0.26751 0.50352 0.74663
 Zr867 Zr 0.23670 0.49349 0.73677
 O868 O 0.24682 0.48245 0.74650
 O869 O 0.26105 0.48909 0.76087
 O870 O 0.23947 0.51056 0.73946
 C871 C 0.28489 0.49132 0.75917
 C872 C 0.25892 0.49102 0.78480
 C873 C 0.25926 0.46516 0.75859
 C874 C 0.21614 0.50954 0.74109
 C875 C 0.24055 0.53385 0.74053
 C876 C 0.24058 0.50914 0.71608
 H877 H 0.25562 0.52489 0.75555
 H878 H 0.25557 0.49434 0.72511
 H879 H 0.26586 0.48427 0.76568
 H880 H 0.22530 0.49456 0.75580
 H881 H 0.22747 0.51011 0.77589
 H882 H 0.22622 0.49093 0.77503
 H883 H 0.26823 0.50695 0.71924
 H884 H 0.27997 0.49438 0.73163
 H885 H 0.23272 0.53110 0.76883
 H886 H 0.26782 0.51871 0.78146
 H887 H 0.24319 0.48115 0.71992
 H888 H 0.25626 0.47059 0.73107
 H889 H 0.27969 0.51842 0.75548
 H890 H 0.26876 0.53018 0.74327
 H891 H 0.23217 0.46983 0.75542
 H892 H 0.21931 0.48187 0.74324
 O893 O 0.24917 0.02969 0.23499
 O894 O 0.26853 0.02614 0.23655
 O895 O 0.23549 0.00023 0.21984
 O896 O 0.23545 -0.01847 0.22312
 O897 O 0.22000 0.01428 0.24917
 O898 O 0.22413 0.01345 0.26888
 O899 O 0.26505 -0.02951 0.25054
 O900 O 0.26259 -0.02655 0.23120
 O901 O 0.27940 -0.00108 0.26441
 O902 O 0.27557 0.01937 0.26340
 O903 O 0.25119 -0.01482 0.27917
 O904 O 0.23089 -0.01413 0.27553
 O905 O 0.25160 -0.02952 0.26419
 O906 O 0.23049 -0.02561 0.26283
 O907 O 0.26464 -0.00119 0.27917
 O908 O 0.26305 0.01972 0.27505
 O909 O 0.27931 -0.01492 0.25114
 O910 O 0.27582 -0.01112 0.23061
 O911 O 0.23581 0.02984 0.24877
 O912 O 0.23698 0.02578 0.26892
 O913 O 0.21990 0.00063 0.23569
 O914 O 0.22447 -0.01981 0.23764
 O915 O 0.24880 0.01403 0.21979
 O916 O 0.26921 0.01141 0.22405
 Zr917 Zr 0.25605 0.01338 0.23599
 O918 O 0.26694 0.00366 0.24608
 Zr919 Zr 0.23618 -0.00642 0.23625
 O920 O 0.24639 -0.01717 0.24602
 Zr921 Zr 0.23637 0.01355 0.25595
 O922 O 0.24627 0.00357 0.26679
 Zr923 Zr 0.26347 -0.01347 0.24332
 O924 O 0.25330 -0.00380 0.23231
 Zr925 Zr 0.26336 0.00636 0.26319
 O926 O 0.25346 0.01724 0.25314
 Zr927 Zr 0.24370 -0.01361 0.26315
 O928 O 0.23257 -0.00362 0.25339
 O929 O 0.23904 0.01060 0.23895
 O930 O 0.26073 -0.01073 0.26042
 C931 C 0.24126 0.03453 0.24063
 C932 C 0.24089 0.00833 0.21504
 C933 C 0.21517 0.00867 0.24123
 C934 C 0.25982 -0.03413 0.25883
 C935 C 0.28396 -0.00946 0.25927
 C936 C 0.25940 -0.00947 0.28379
 H937 H 0.27486 0.00543 0.24423
 H938 H 0.24444 0.00536 0.27472
 H939 H 0.23419 0.01537 0.23414
 H940 H 0.24476 -0.02513 0.24416
 H941 H 0.26021 -0.02300 0.22403
 H942 H 0.24108 -0.02434 0.22491
 H943 H 0.25689 0.01821 0.28045
 H944 H 0.24432 0.02967 0.26818
 H945 H 0.28116 -0.01754 0.23103
 H946 H 0.26846 0.01738 0.21824
 H947 H 0.23133 -0.00705 0.27993
 H948 H 0.22067 0.00585 0.26875
 H949 H 0.26833 0.02938 0.24424
 H950 H 0.28025 0.01856 0.25655
 H951 H 0.22000 -0.01840 0.24454
 H952 H 0.23216 -0.03113 0.25680
 O953 O 0.52996 0.73517 0.24902
 O954 O 0.52640 0.73678 0.26842
 O955 O 0.50055 0.72010 0.23530
 O956 O 0.48188 0.72344 0.23520
 O957 O 0.51468 0.74942 0.21986
 O958 O 0.51383 0.76916 0.22400
 O959 O 0.47083 0.75097 0.26482
 O960 O 0.47375 0.73157 0.26236
 O961 O 0.49919 0.76477 0.27923
 O962 O 0.51961 0.76368 0.27551
 O963 O 0.48562 0.77953 0.25092
 O964 O 0.48631 0.77583 0.23062
 O965 O 0.47089 0.76462 0.25136
 O966 O 0.47479 0.76318 0.23025
 O967 O 0.49918 0.77951 0.26443
 O968 O 0.52007 0.77528 0.26293
 O969 O 0.48535 0.75154 0.27911
 O970 O 0.48914 0.73096 0.27565
 O971 O 0.53014 0.74898 0.23569
 O972 O 0.52614 0.76915 0.23688
 O973 O 0.50105 0.73594 0.21971
 O974 O 0.48059 0.73799 0.22421
 O975 O 0.51432 0.72001 0.24864
 O976 O 0.51166 0.72429 0.26906
 Zr977 Zr 0.51367 0.73624 0.25591
 O978 O 0.50395 0.74637 0.26678
 Zr979 Zr 0.49393 0.73655 0.23598
 O980 O 0.48319 0.74635 0.24617
 Zr981 Zr 0.51390 0.75621 0.23623
 O982 O 0.50393 0.76709 0.24611
 Zr983 Zr 0.48685 0.74367 0.26327
 O984 O 0.49650 0.73261 0.25311
 Zr985 Zr 0.50668 0.76349 0.26322
 O986 O 0.51755 0.75339 0.25333
 Zr987 Zr 0.48678 0.76348 0.24348
 O988 O 0.49677 0.75369 0.23236
 O989 O 0.51092 0.73921 0.23889
 O990 O 0.48961 0.76076 0.26052
 C991 C 0.53480 0.74080 0.24111
 C992 C 0.50863 0.71528 0.24070
 C993 C 0.50911 0.74146 0.21502
 C994 C 0.46626 0.75929 0.25959
 C995 C 0.49079 0.75968 0.28377
 C996 C 0.49095 0.78416 0.25914
 H997 H 0.50570 0.74452 0.27472
 H998 H 0.50574 0.77502 0.24428
 H999 H 0.51569 0.73438 0.23406
 H1000 H 0.47523 0.74452 0.24452
 H1001 H 0.47730 0.72440 0.25998
 H1002 H 0.47601 0.72525 0.24082
 H1003 H 0.51859 0.78070 0.25678
 H1004 H 0.53004 0.76839 0.24423
 H1005 H 0.48272 0.73141 0.28097
 H1006 H 0.51763 0.71847 0.26832
 H1007 H 0.49338 0.78022 0.23108
 H1008 H 0.50628 0.76901 0.22047
 H1009 H 0.52966 0.74447 0.26821
 H1010 H 0.51882 0.75680 0.28014
 H1011 H 0.48205 0.74488 0.21973
 H1012 H 0.46926 0.75717 0.23193
 O1013 O 0.02984 0.73519 0.74916
 O1014 O 0.02626 0.73681 0.76853
 O1015 O 0.00045 0.72004 0.73544
 O1016 O -0.01824 0.72335 0.73538
 O1017 O 0.01451 0.74929 0.71991
 O1018 O 0.01366 0.76905 0.72399
 O1019 O -0.02928 0.75099 0.76493
 O1020 O -0.02639 0.73158 0.76245
 O1021 O -0.00093 0.76477 0.77927
 O1022 O 0.01953 0.76369 0.77549
 O1023 O -0.01456 0.77949 0.75097
 O1024 O -0.01383 0.77576 0.73065
 O1025 O -0.02925 0.76459 0.75143
 O1026 O -0.02537 0.76310 0.73032
 O1027 O -0.00099 0.77950 0.76448
 O1028 O 0.01989 0.77533 0.76295
 O1029 O -0.01473 0.75150 0.77919
 O1030 O -0.01098 0.73094 0.77573
 O1031 O 0.03002 0.74896 0.73578
 O1032 O 0.02598 0.76911 0.73686
 O1033 O 0.00086 0.73584 0.71982
 O1034 O -0.01956 0.73786 0.72433
 O1035 O 0.01421 0.72000 0.74878
 O1036 O 0.01155 0.72431 0.76918
 Zr1037 Zr 0.01354 0.73623 0.75601
 O1038 O 0.00382 0.74638 0.76685
 Zr1039 Zr -0.00621 0.73648 0.73609
 O1040 O -0.01695 0.74631 0.74626
 Zr1041 Zr 0.01375 0.75615 0.73627
 O1042 O 0.00378 0.76705 0.74613
 Zr1043 Zr -0.01328 0.74365 0.76336
 O1044 O -0.00362 0.73258 0.75323
 Zr1045 Zr 0.00654 0.76349 0.76325
 O1046 O 0.01741 0.75338 0.75338
 Zr1047 Zr -0.01337 0.76344 0.74353
 O1048 O -0.00339 0.75362 0.73243
 O1049 O 0.01079 0.73916 0.73898
 O1050 O -0.01052 0.76074 0.76057
 C1051 C 0.03469 0.74082 0.74126
 C1052 C 0.00853 0.71525 0.74085
 C1053 C 0.00892 0.74134 0.71509
 C1054 C -0.03386 0.75930 0.75970
 C1055 C -0.00930 0.75965 0.78384
 C1056 C -0.00924 0.78413 0.75920
 H1057 H 0.00558 0.74455 0.77479
 H1058 H 0.00559 0.77498 0.74429
 H1059 H 0.01557 0.73432 0.73416
 H1060 H -0.02491 0.74447 0.74462
 H1061 H -0.02286 0.72439 0.76010
 H1062 H -0.02415 0.72521 0.74095
 H1063 H 0.01840 0.78072 0.75677
 H1064 H 0.02983 0.76842 0.74422
 H1065 H -0.01740 0.73139 0.78105
 H1066 H 0.01752 0.71850 0.76846
 H1067 H -0.00679 0.78018 0.73114
 H1068 H 0.00608 0.76891 0.72049
 H1069 H 0.02951 0.74450 0.76831
 H1070 H 0.01868 0.75687 0.78020
 H1071 H -0.01815 0.74477 0.71986
 H1072 H -0.03090 0.75710 0.73202
 O1073 O -0.00066 -0.01503 -0.03004
 O1074 O 0.01870 -0.01333 -0.02647
 O1075 O -0.01422 -0.03038 -0.00073
 O1076 O -0.01437 -0.02715 0.01796
 O1077 O -0.02993 -0.00105 -0.01462
 O1078 O -0.02591 0.01870 -0.01368
 O1079 O 0.01506 0.00044 0.02923
 O1080 O 0.01274 -0.01895 0.02613
 O1081 O 0.02932 0.01456 0.00102
 O1082 O 0.02558 0.01353 -0.01947
 O1083 O 0.00101 0.02902 0.01471
 O1084 O -0.01929 0.02525 0.01392
 O1085 O 0.00152 0.01402 0.02928
 O1086 O -0.01957 0.01251 0.02536
 O1087 O 0.01448 0.02918 0.00114
 O1088 O 0.01296 0.02512 -0.01980
 O1089 O 0.02930 0.00122 0.01475
 O1090 O 0.02602 -0.01935 0.01075
 O1091 O -0.01410 -0.00132 -0.03013
 O1092 O -0.01305 0.01883 -0.02598
 O1093 O -0.02995 -0.01460 -0.00108
 O1094 O -0.02541 -0.01269 0.01938
 O1095 O -0.00089 -0.03029 -0.01449
 O1096 O 0.01948 -0.02589 -0.01182
 Zr1097 Zr 0.00623 -0.01403 -0.01374
 O1098 O 0.01703 -0.00389 -0.00393
 Zr1099 Zr -0.01368 -0.01396 0.00601
 O1100 O -0.00355 -0.00417 0.01683
 Zr1101 Zr -0.01360 0.00582 -0.01383
 O1102 O -0.00379 0.01670 -0.00376
 Zr1103 Zr 0.01355 -0.00675 0.01315
 O1104 O 0.00347 -0.01779 0.00340
 Zr1105 Zr 0.01333 0.01322 -0.00652
 O1106 O 0.00351 0.00314 -0.01748
 Zr1107 Zr -0.00637 0.01296 0.01337
 O1108 O -0.01742 0.00317 0.00330
 O1109 O -0.01081 -0.01118 -0.01098
 O1110 O 0.01067 0.01034 0.01052
 C1111 C -0.00861 -0.00942 -0.03485
 C1112 C -0.00877 -0.03511 -0.00882
 C1113 C -0.03471 -0.00904 -0.00908
 C1114 C 0.00980 0.00870 0.03387
 C1115 C 0.03389 0.00944 0.00940
 C1116 C 0.00921 0.03372 0.00944
 H1117 H 0.02497 -0.00568 -0.00568
 H1118 H -0.00567 0.02463 -0.00550
 H1119 H -0.01562 -0.01602 -0.01578
 H1120 H -0.00518 -0.00607 0.02478
 H1121 H 0.01044 -0.02613 0.02251
 H1122 H -0.00871 -0.02539 0.02382
 H1123 H 0.00676 0.03048 -0.01828
 H1124 H -0.00570 0.01815 -0.02985
 H1125 H 0.03134 -0.01891 0.01719
 H1126 H 0.01877 -0.03168 -0.01783
 H1127 H -0.01880 0.02974 0.00692
 H1128 H -0.02937 0.01855 -0.00609
 H1129 H 0.01846 -0.00561 -0.02963
 H1130 H 0.03034 0.00674 -0.01865
 H1131 H -0.02993 -0.00581 0.01800
 H1132 H -0.01784 0.00649 0.03085
 O1133 O -0.00093 0.48498 0.47023
 O1134 O 0.01845 0.48660 0.47374
 O1135 O -0.01448 0.46972 0.49958
 O1136 O -0.01449 0.47294 0.51828
 O1137 O -0.03008 0.49908 0.48572
 O1138 O -0.02598 0.51883 0.48666
 O1139 O 0.01507 0.50048 0.52943
 O1140 O 0.01262 0.48108 0.52639
 O1141 O 0.02928 0.51448 0.50119
 O1142 O 0.02550 0.51346 0.48072
 O1143 O 0.00099 0.52910 0.51489
 O1144 O -0.01929 0.52534 0.51422
 O1145 O 0.00159 0.51412 0.52949
 O1146 O -0.01953 0.51263 0.52569
 O1147 O 0.01445 0.52919 0.50130
 O1148 O 0.01291 0.52507 0.48038
 O1149 O 0.02926 0.50111 0.51489
 O1150 O 0.02585 0.48057 0.51096
 O1151 O -0.01432 0.49875 0.47018
 O1152 O -0.01317 0.51889 0.47430
 O1153 O -0.03012 0.48555 0.49928
 O1154 O -0.02551 0.48746 0.51972
 O1155 O -0.00120 0.46973 0.48577
 O1156 O 0.01921 0.47404 0.48840
 Zr1157 Zr 0.00601 0.48596 0.48651
 O1158 O 0.01689 0.49607 0.49628
 Zr1159 Zr -0.01382 0.48613 0.50633
 O1160 O -0.00362 0.49589 0.51711
 Zr1161 Zr -0.01373 0.50590 0.48647
 O1162 O -0.00384 0.51675 0.49650
 Zr1163 Zr 0.01346 0.49325 0.51338
 O1164 O 0.00330 0.48223 0.50366
 Zr1165 Zr 0.01326 0.51320 0.49369
 O1166 O 0.00337 0.50314 0.48277
 Zr1167 Zr -0.00639 0.51304 0.51364
 O1168 O -0.01750 0.50328 0.50361
 O1169 O -0.01100 0.48889 0.48933
 O1170 O 0.01064 0.51035 0.51074
 C1171 C -0.00888 0.49061 0.46545
 C1172 C -0.00909 0.46495 0.49146
 C1173 C -0.03488 0.49111 0.49128
 C1174 C 0.00987 0.50879 0.53406
 C1175 C 0.03387 0.50932 0.50954
 C1176 C 0.00917 0.53378 0.50957
 H1177 H 0.02482 0.49424 0.49450
 H1178 H -0.00570 0.52468 0.49474
 H1179 H -0.01585 0.48407 0.48455
 H1180 H -0.00523 0.49402 0.52506
 H1181 H 0.01027 0.47391 0.52280
 H1182 H -0.00887 0.47474 0.52417
 H1183 H 0.00671 0.53044 0.48189
 H1184 H -0.00583 0.51818 0.47040
 H1185 H 0.03118 0.48097 0.51738
 H1186 H 0.01846 0.46825 0.48240
 H1187 H -0.01886 0.52979 0.50719
 H1188 H -0.02948 0.51864 0.49423
 H1189 H 0.01824 0.49432 0.47058
 H1190 H 0.03020 0.50663 0.48151
 H1191 H -0.02999 0.49437 0.51836
 H1192 H -0.01778 0.50663 0.53120
 O1193 O 0.47007 -0.00083 0.48513
 O1194 O 0.47364 0.01854 0.48672
 O1195 O 0.49946 -0.01457 0.47001
 O1196 O 0.51811 -0.01478 0.47335
 O1197 O 0.48533 -0.03005 0.49932
 O1198 O 0.48626 -0.02590 0.51906
 O1199 O 0.52926 0.01491 0.50072
 O1200 O 0.52626 0.01243 0.48137
 O1201 O 0.50099 0.02939 0.51458
 O1202 O 0.48051 0.02562 0.51355
 O1203 O 0.51462 0.00112 0.52934
 O1204 O 0.51386 -0.01917 0.52578
 O1205 O 0.52925 0.00146 0.51438
 O1206 O 0.52523 -0.01970 0.51298
 O1207 O 0.50108 0.01465 0.52933
 O1208 O 0.48017 0.01312 0.52524
 O1209 O 0.51476 0.02923 0.50130
 O1210 O 0.51089 0.02573 0.48078
 O1211 O 0.46988 -0.01417 0.49893
 O1212 O 0.47396 -0.01299 0.51908
 O1213 O 0.49894 -0.03020 0.48585
 O1214 O 0.51941 -0.02571 0.48788
 O1215 O 0.48570 -0.00122 0.46995
 O1216 O 0.48834 0.01920 0.47423
 Zr1217 Zr 0.48637 0.00603 0.48616
 O1218 O 0.49614 0.01691 0.49625
 Zr1219 Zr 0.50608 -0.01393 0.48645
 O1220 O 0.51687 -0.00373 0.49621
 Zr1221 Zr 0.48616 -0.01366 0.50612
 O1222 O 0.49619 -0.00377 0.51697
 Zr1223 Zr 0.51322 0.01337 0.49349
 O1224 O 0.50351 0.00321 0.48249
 Zr1225 Zr 0.49347 0.01336 0.51337
 O1226 O 0.48255 0.00346 0.50332
 Zr1227 Zr 0.51333 -0.00640 0.51334
 O1228 O 0.50329 -0.01753 0.50359
 O1229 O 0.48910 -0.01101 0.48913
 O1230 O 0.51052 0.01065 0.51058
 C1231 C 0.46521 -0.00873 0.49077
 C1232 C 0.49139 -0.00914 0.46521
 C1233 C 0.49089 -0.03490 0.49137
 C1234 C 0.53387 0.00968 0.50901
 C1235 C 0.50937 0.03392 0.50944
 C1236 C 0.50935 0.00939 0.53395
 H1237 H 0.49440 0.02485 0.49440
 H1238 H 0.49441 -0.00558 0.52490
 H1239 H 0.48431 -0.01584 0.48430
 H1240 H 0.52481 -0.00540 0.49436
 H1241 H 0.52268 0.01006 0.47420
 H1242 H 0.52395 -0.00910 0.47508
 H1243 H 0.48167 0.00695 0.53065
 H1244 H 0.47012 -0.00561 0.51835
 H1245 H 0.51732 0.03106 0.48119
 H1246 H 0.48237 0.01846 0.46842
 H1247 H 0.50672 -0.01880 0.53006
 H1248 H 0.49381 -0.02944 0.51889
 H1249 H 0.47044 0.01836 0.49442
 H1250 H 0.48135 0.03032 0.50672
 H1251 H 0.51795 -0.03022 0.49474
 H1252 H 0.53080 -0.01800 0.50703
 O1253 O 0.50053 0.52997 0.01434
 O1254 O 0.48117 0.52639 0.01263
 O1255 O 0.51410 0.50067 0.02978
 O1256 O 0.51424 0.48195 0.02660
 O1257 O 0.52978 0.51456 0.00053
 O1258 O 0.52585 0.51345 -0.01924
 O1259 O 0.48481 0.47062 -0.00099
 O1260 O 0.48714 0.47374 0.01836
 O1261 O 0.47056 0.49886 -0.01515
 O1262 O 0.47430 0.51931 -0.01426
 O1263 O 0.49899 0.48512 -0.02960
 O1264 O 0.51918 0.48578 -0.02577
 O1265 O 0.49836 0.47052 -0.01455
 O1266 O 0.51949 0.47446 -0.01293
 O1267 O 0.48548 0.49868 -0.02980
 O1268 O 0.48696 0.51964 -0.02575
 O1269 O 0.47055 0.48518 -0.00177
 O1270 O 0.47389 0.48916 0.01876
 O1271 O 0.51396 0.53002 0.00063
 O1272 O 0.51296 0.52577 -0.01949
 O1273 O 0.52981 0.50104 0.01410
 O1274 O 0.52532 0.48052 0.01215
 O1275 O 0.50079 0.51447 0.02965
 O1276 O 0.48041 0.51177 0.02524
 Zr1277 Zr 0.49365 0.51365 0.01338
 O1278 O 0.48287 0.50382 0.00326
 Zr1279 Zr 0.51356 0.49388 0.01340
 O1280 O 0.50344 0.48303 0.00363
 Zr1281 Zr 0.51349 0.51367 -0.00643
 O1282 O 0.50370 0.50357 -0.01728
 Zr1283 Zr 0.48633 0.48672 0.00616
 O1284 O 0.49641 0.49651 0.01719
 Zr1285 Zr 0.48657 0.50636 -0.01384
 O1286 O 0.49637 0.51735 -0.00378
 Zr1287 Zr 0.50627 0.48643 -0.01350
 O1288 O 0.51731 0.49654 -0.00373
 O1289 O 0.51068 0.51087 0.01057
 O1290 O 0.48921 0.48930 -0.01093
 C1291 C 0.50847 0.53476 0.00872
 C1292 C 0.50868 0.50882 0.03448
 C1293 C 0.53455 0.50907 0.00857
 C1294 C 0.49008 0.46595 -0.00923
 C1295 C 0.46595 0.49053 -0.00999
 C1296 C 0.49082 0.49041 -0.03434
 H1297 H 0.47492 0.50559 0.00503
 H1298 H 0.50559 0.50530 -0.02520
 H1299 H 0.51547 0.51570 0.01539
 H1300 H 0.50506 0.47508 0.00555
 H1301 H 0.48947 0.47736 0.02552
 H1302 H 0.50862 0.47606 0.02482
 H1303 H 0.49316 0.51809 -0.03110
 H1304 H 0.50562 0.52967 -0.01883
 H1305 H 0.46856 0.48273 0.01835
 H1306 H 0.48111 0.51779 0.03101
 H1307 H 0.51890 0.49290 -0.03008
 H1308 H 0.52941 0.50591 -0.01895
 H1309 H 0.48143 0.52956 0.00493
 H1310 H 0.46963 0.51861 -0.00740
 H1311 H 0.52988 0.48193 0.00532
 H1312 H 0.51769 0.46891 -0.00697
 O1313 O 0.75103 0.26469 0.47010
 O1314 O 0.73167 0.26307 0.47363
 O1315 O 0.76462 0.27992 0.49957
 O1316 O 0.76468 0.27662 0.51824
 O1317 O 0.78024 0.25064 0.48551
 O1318 O 0.77621 0.23088 0.48639
 O1319 O 0.73519 0.24903 0.52925
 O1320 O 0.73757 0.26842 0.52631
 O1321 O 0.72091 0.23513 0.50085
 O1322 O 0.72472 0.23619 0.48040
 O1323 O 0.74919 0.22048 0.51456
 O1324 O 0.76948 0.22420 0.51388
 O1325 O 0.74873 0.23545 0.52926
 O1326 O 0.76980 0.23690 0.52538
 O1327 O 0.73574 0.22043 0.50094
 O1328 O 0.73729 0.22457 0.48005
 O1329 O 0.72094 0.24840 0.51467
 O1330 O 0.72432 0.26896 0.51088
 O1331 O 0.76441 0.25091 0.46997
 O1332 O 0.76338 0.23079 0.47403
 O1333 O 0.78028 0.26412 0.49915
 O1334 O 0.77573 0.26213 0.51959
 O1335 O 0.75133 0.27993 0.48575
 O1336 O 0.73094 0.27559 0.48835
 Zr1337 Zr 0.74414 0.26368 0.48639
 O1338 O 0.73329 0.25353 0.49610
 Zr1339 Zr 0.76400 0.26348 0.50621
 O1340 O 0.75383 0.25366 0.51693
 Zr1341 Zr 0.76391 0.24377 0.48625
 O1342 O 0.75405 0.23288 0.49621
 Zr1343 Zr 0.73674 0.25630 0.51322
 O1344 O 0.74687 0.26736 0.50357
 Zr1345 Zr 0.73694 0.23643 0.49340
 O1346 O 0.74681 0.24652 0.48255
 Zr1347 Zr 0.75661 0.23653 0.51337
 O1348 O 0.76770 0.24634 0.50340
 O1349 O 0.76116 0.26077 0.48919
 O1350 O 0.73957 0.23920 0.51048
 C1351 C 0.75894 0.25904 0.46528
 C1352 C 0.75921 0.28470 0.49147
 C1353 C 0.78503 0.25861 0.49111
 C1354 C 0.74046 0.24076 0.53386
 C1355 C 0.71632 0.24024 0.50923
 C1356 C 0.74100 0.21582 0.50921
 H1357 H 0.72536 0.25536 0.49433
 H1358 H 0.75591 0.22496 0.49441
 H1359 H 0.76598 0.26561 0.48442
 H1360 H 0.75545 0.25552 0.52489
 H1361 H 0.73991 0.27560 0.52276
 H1362 H 0.75905 0.27481 0.52411
 H1363 H 0.74347 0.21918 0.48156
 H1364 H 0.75602 0.23146 0.47016
 H1365 H 0.71899 0.26852 0.51729
 H1366 H 0.73167 0.28140 0.48239
 H1367 H 0.76905 0.21980 0.50681
 H1368 H 0.77970 0.23106 0.49397
 H1369 H 0.73189 0.25537 0.47041
 H1370 H 0.72000 0.24301 0.48123
 H1371 H 0.78023 0.25524 0.51817
 H1372 H 0.76811 0.24293 0.53088
 O1373 O 0.76475 0.78003 -0.00078
 O1374 O 0.76314 0.77636 0.01856
 O1375 O 0.77980 0.75058 -0.01460
 O1376 O 0.77639 0.73192 -0.01494
 O1377 O 0.75058 0.76493 -0.03011
 O1378 O 0.73085 0.76404 -0.02606
 O1379 O 0.74890 0.72077 0.01460
 O1380 O 0.76828 0.72367 0.01219
 O1381 O 0.73518 0.74912 0.02913
 O1382 O 0.73629 0.76961 0.02548
 O1383 O 0.72041 0.73563 0.00076
 O1384 O 0.72404 0.73645 -0.01952
 O1385 O 0.73529 0.72091 0.00109
 O1386 O 0.73676 0.72497 -0.02001
 O1387 O 0.72046 0.74914 0.01434
 O1388 O 0.72464 0.77006 0.01293
 O1389 O 0.74838 0.73525 0.02896
 O1390 O 0.76893 0.73902 0.02556
 O1391 O 0.75095 0.78032 -0.01414
 O1392 O 0.73082 0.77629 -0.01311
 O1393 O 0.76401 0.75125 -0.03029
 O1394 O 0.76188 0.73074 -0.02592
 O1395 O 0.77989 0.76431 -0.00120
 O1396 O 0.77558 0.76160 0.01917
 Zr1397 Zr 0.76367 0.76368 0.00598
 O1398 O 0.75353 0.75390 0.01676
 Zr1399 Zr 0.76334 0.74402 -0.01408
 O1400 O 0.75353 0.73323 -0.00397
 Zr1401 Zr 0.74374 0.76405 -0.01377
 O1402 O 0.73285 0.75402 -0.00398
 Zr1403 Zr 0.75622 0.73680 0.01315
 O1404 O 0.76727 0.74651 0.00308
 Zr1405 Zr 0.73645 0.75668 0.01316
 O1406 O 0.74654 0.76760 0.00336
 Zr1407 Zr 0.73643 0.73686 -0.00669
 O1408 O 0.74623 0.74691 -0.01772
 O1409 O 0.76072 0.76103 -0.01107
 O1410 O 0.73916 0.73960 0.01037
 C1411 C 0.75911 0.78495 -0.00864
 C1412 C 0.78462 0.75861 -0.00913
 C1413 C 0.75852 0.75936 -0.03496
 C1414 C 0.74059 0.71623 0.00932
 C1415 C 0.74026 0.74068 0.03364
 C1416 C 0.71582 0.74090 0.00903
 H1417 H 0.75538 0.75561 0.02471
 H1418 H 0.72494 0.75585 -0.00581
 H1419 H 0.76557 0.76583 -0.01585
 H1420 H 0.75535 0.72527 -0.00566
 H1421 H 0.77546 0.72723 0.00985
 H1422 H 0.77462 0.72606 -0.00930
 H1423 H 0.71922 0.76859 0.00676
 H1424 H 0.73153 0.78011 -0.00571
 H1425 H 0.76848 0.73256 0.03084
 H1426 H 0.78141 0.76756 0.01848
 H1427 H 0.71974 0.74358 -0.01908
 H1428 H 0.73099 0.75649 -0.02963
 H1429 H 0.75546 0.77962 0.01836
 H1430 H 0.74311 0.76873 0.03018
 H1431 H 0.75503 0.73226 -0.03045
 H1432 H 0.74269 0.71937 -0.01832
 O1433 O 0.96996 0.25050 0.26474
 O1434 O 0.97359 0.23113 0.26310
 O1435 O 0.99930 0.26423 0.28002
 O1436 O 1.01797 0.26443 0.27675
 O1437 O 0.98523 0.27981 0.25072
 O1438 O 0.98615 0.27575 0.23099
 O1439 O 1.02920 0.23492 0.24919
 O1440 O 1.02620 0.23729 0.26857
 O1441 O 1.00090 0.22048 0.23524
 O1442 O 0.98045 0.22421 0.23623
 O1443 O 1.01456 0.24882 0.22067
 O1444 O 1.01369 0.26917 0.22437
 O1445 O 1.02917 0.24847 0.23563
 O1446 O 1.02516 0.26956 0.23709
 O1447 O 1.00105 0.23526 0.22058
 O1448 O 0.98009 0.23682 0.22463
 O1449 O 1.01471 0.22059 0.24850
 O1450 O 1.01085 0.22396 0.26906
 O1451 O 0.96978 0.26390 0.25100
 O1452 O 0.97388 0.26283 0.23087
 O1453 O 0.99882 0.27992 0.26424
 O1454 O 1.01929 0.27546 0.26228
 O1455 O 0.98557 0.25086 0.27999
 O1456 O 0.98828 0.23046 0.27563
 Zr1457 Zr 0.98628 0.24367 0.26374
 O1458 O 0.99607 0.23286 0.25362
 Zr1459 Zr 1.00597 0.26366 0.26360
 O1460 O 1.01677 0.25353 0.25381
 Zr1461 Zr 0.98606 0.26345 0.24387
 O1462 O 0.99611 0.25363 0.23299
 Zr1463 Zr 1.01315 0.23640 0.25642
 O1464 O 1.00342 0.24649 0.26746
 Zr1465 Zr 0.99339 0.23649 0.23652
 O1466 O 0.98246 0.24632 0.24659
 Zr1467 Zr 1.01324 0.25628 0.23669
 O1468 O 1.00318 0.26734 0.24647
 O1469 O 0.98899 0.26072 0.26086
 O1470 O 1.01044 0.23922 0.23935
 C1471 C 0.96510 0.25840 0.25912
 C1472 C 0.99124 0.25878 0.28478
 C1473 C 0.99077 0.28464 0.25870
 C1474 C 1.03380 0.24021 0.24093
 C1475 C 1.00931 0.21594 0.24034
 C1476 C 1.00932 0.24054 0.21602
 H1477 H 0.99434 0.22491 0.25543
 H1478 H 0.99433 0.25547 0.22507
 H1479 H 0.98418 0.26553 0.26569
 H1480 H 1.02472 0.25519 0.25569
 H1481 H 1.02261 0.23962 0.27574
 H1482 H 1.02383 0.25878 0.27498
 H1483 H 0.98166 0.24293 0.21919
 H1484 H 0.97005 0.25545 0.23155
 H1485 H 1.01728 0.21864 0.26861
 H1486 H 0.98230 0.23116 0.28143
 H1487 H 1.00668 0.26863 0.21989
 H1488 H 0.99372 0.27925 0.23114
 H1489 H 0.97036 0.23135 0.25541
 H1490 H 0.98125 0.21952 0.24307
 H1491 H 1.01785 0.27997 0.25541
 H1492 H 1.03066 0.26789 0.24312
 O1493 O 0.74915 1.02969 0.73497
 O1494 O 0.76850 1.02605 0.73666
 O1495 O 0.73543 1.00026 0.71980
 O1496 O 0.73526 0.98157 0.72314
 O1497 O 0.71984 1.01451 0.74897
 O1498 O 0.72382 1.01365 0.76873
 O1499 O 0.76473 0.97050 0.75087
 O1500 O 0.76230 0.97333 0.73147
 O1501 O 0.77905 0.99884 0.76466
 O1502 O 0.77534 1.01932 0.76356
 O1503 O 0.75062 0.98535 0.77929
 O1504 O 0.73037 0.98609 0.77546
 O1505 O 0.75120 0.97061 0.76444
 O1506 O 0.73008 0.97452 0.76279
 O1507 O 0.76419 0.99885 0.77933
 O1508 O 0.76275 1.01977 0.77514
 O1509 O 0.77900 0.98501 0.75140
 O1510 O 0.77560 0.98873 0.73083
 O1511 O 0.73574 1.02995 0.74869
 O1512 O 0.73672 1.02593 0.76883
 O1513 O 0.71974 1.00083 0.73552
 O1514 O 0.72418 0.98034 0.73763
 O1515 O 0.74880 1.01400 0.71980
 O1516 O 0.76917 1.01129 0.72419
 Zr1517 Zr 0.75596 1.01336 0.73605
 O1518 O 0.76673 1.00361 0.74624
 Zr1519 Zr 0.73598 0.99365 0.73624
 O1520 O 0.74608 0.98288 0.74611
 Zr1521 Zr 0.73615 1.01368 0.75589
 O1522 O 0.74593 1.00368 0.76682
 Zr1523 Zr 0.76320 0.98649 0.74351
 O1524 O 0.75314 0.99618 0.73241
 Zr1525 Zr 0.76307 1.00638 0.76332
 O1526 O 0.75327 1.01727 0.75318
 Zr1527 Zr 0.74330 0.98651 0.76320
 O1528 O 0.73227 0.99653 0.75335
 O1529 O 0.73892 1.01067 0.73891
 O1530 O 0.76035 0.98930 0.76057
 C1531 C 0.74125 1.03459 0.74056
 C1532 C 0.74088 1.00833 0.71503
 C1533 C 0.71503 1.00893 0.74100
 C1534 C 0.75948 0.96596 0.75919
 C1535 C 0.78362 0.99044 0.75956
 C1536 C 0.75885 0.99064 0.78394
 H1537 H 0.77468 1.00533 0.74443
 H1538 H 0.74406 1.00551 0.77473
 H1539 H 0.73413 1.01546 0.73406
 H1540 H 0.74444 0.97491 0.74427
 H1541 H 0.75997 0.97685 0.72427
 H1542 H 0.74082 0.97566 0.72501
 H1543 H 0.75656 1.01830 0.78051
 H1544 H 0.74410 1.02977 0.76816
 H1545 H 0.78091 0.98229 0.73130
 H1546 H 0.76848 1.01726 0.71837
 H1547 H 0.73078 0.99319 0.77982
 H1548 H 0.72026 1.00610 0.76854
 H1549 H 0.76826 1.02932 0.74434
 H1550 H 0.78006 1.01846 0.75675
 H1551 H 0.71968 0.98181 0.74449
 H1552 H 0.73185 0.96892 0.75687
 O1553 O 0.76493 0.47020 0.25064
 O1554 O 0.76340 0.47384 0.23129
 O1555 O 0.78016 0.49956 0.26447
 O1556 O 0.77694 0.51827 0.26457
 O1557 O 0.75082 0.48557 0.27991
 O1558 O 0.73112 0.48648 0.27579
 O1559 O 0.74947 0.52950 0.23504
 O1560 O 0.76883 0.52648 0.23748
 O1561 O 0.73551 0.50124 0.22060
 O1562 O 0.73656 0.48074 0.22426
 O1563 O 0.72086 0.51480 0.24894
 O1564 O 0.72459 0.51406 0.26925
 O1565 O 0.73583 0.52948 0.24850
 O1566 O 0.73724 0.52557 0.26958
 O1567 O 0.72080 0.50124 0.23541
 O1568 O 0.72495 0.48032 0.23682
 O1569 O 0.74882 0.51501 0.22073
 O1570 O 0.76934 0.51110 0.22414
 O1571 O 0.75116 0.47007 0.26400
 O1572 O 0.73106 0.47418 0.26291
 O1573 O 0.76432 0.49918 0.28007
 O1574 O 0.76243 0.51964 0.27558
 O1575 O 0.78018 0.48579 0.25110
 O1576 O 0.77592 0.48853 0.23069
 Zr1577 Zr 0.76398 0.48654 0.24384
 O1578 O 0.75389 0.49633 0.23300
 Zr1579 Zr 0.76377 0.50628 0.26381
 O1580 O 0.75402 0.51709 0.25365
 Zr1581 Zr 0.74404 0.48637 0.26354
 O1582 O 0.73321 0.49642 0.25370
 Zr1583 Zr 0.75668 0.51344 0.23654
 O1584 O 0.76769 0.50370 0.24666
 Zr1585 Zr 0.73679 0.49368 0.23658
 O1586 O 0.74683 0.48274 0.24643
 Zr1587 Zr 0.73689 0.51357 0.25636
 O1588 O 0.74664 0.50351 0.26744
 O1589 O 0.76104 0.48927 0.26087
 O1590 O 0.73960 0.51074 0.23931
 C1591 C 0.75927 0.46536 0.25852
 C1592 C 0.78494 0.49146 0.25905
 C1593 C 0.75876 0.49115 0.28477
 C1594 C 0.74117 0.53410 0.24028
 C1595 C 0.74064 0.50964 0.21607
 C1596 C 0.71620 0.50949 0.24072
 H1597 H 0.75573 0.49459 0.22506
 H1598 H 0.72529 0.49463 0.25553
 H1599 H 0.76583 0.48446 0.26570
 H1600 H 0.75589 0.52504 0.25531
 H1601 H 0.77599 0.52288 0.23982
 H1602 H 0.77514 0.52417 0.25898
 H1603 H 0.71958 0.48179 0.24302
 H1604 H 0.73176 0.47032 0.25554
 H1605 H 0.76893 0.51755 0.21884
 H1606 H 0.78172 0.48255 0.23142
 H1607 H 0.72015 0.50702 0.26875
 H1608 H 0.73129 0.49404 0.27933
 H1609 H 0.75568 0.47067 0.23143
 H1610 H 0.74337 0.48160 0.21954
 H1611 H 0.75552 0.51826 0.28003
 H1612 H 0.74328 0.53107 0.26792
 O1613 O 0.50064 0.22004 0.73498
 O1614 O 0.48127 0.22365 0.73660
 O1615 O 0.51439 0.24945 0.71998
 O1616 O 0.51452 0.26814 0.72333
 O1617 O 0.52986 0.23529 0.74926
 O1618 O 0.52573 0.23610 0.76899
 O1619 O 0.48499 0.27927 0.75087
 O1620 O 0.48744 0.27637 0.73148
 O1621 O 0.47055 0.25092 0.76456
 O1622 O 0.47425 0.23046 0.76347
 O1623 O 0.49891 0.26444 0.77937
 O1624 O 0.51920 0.26367 0.77568
 O1625 O 0.49848 0.27917 0.76450
 O1626 O 0.51956 0.27522 0.76306
 O1627 O 0.48535 0.25093 0.77932
 O1628 O 0.48682 0.23000 0.77509
 O1629 O 0.47068 0.26475 0.75133
 O1630 O 0.47414 0.26099 0.73079
 O1631 O 0.51400 0.21981 0.74878
 O1632 O 0.51284 0.22380 0.76893
 O1633 O 0.53000 0.24896 0.73584
 O1634 O 0.52552 0.26942 0.73787
 O1635 O 0.50102 0.23571 0.71986
 O1636 O 0.48063 0.23840 0.72413
 Zr1637 Zr 0.49379 0.23636 0.73607
 O1638 O 0.48297 0.24613 0.74620
 Zr1639 Zr 0.51375 0.25608 0.73642
 O1640 O 0.50361 0.26686 0.74623
 Zr1641 Zr 0.51350 0.23607 0.75603
 O1642 O 0.50366 0.24609 0.76692
 Zr1643 Zr 0.48651 0.26325 0.74352
 O1644 O 0.49661 0.25354 0.73247
 Zr1645 Zr 0.48655 0.24339 0.76331
 O1646 O 0.49639 0.23248 0.75321
 Zr1647 Zr 0.50632 0.26325 0.76334
 O1648 O 0.51739 0.25322 0.75355
 O1649 O 0.51082 0.23907 0.73905
 O1650 O 0.48927 0.26047 0.76060
 C1651 C 0.50855 0.21516 0.74060
 C1652 C 0.50895 0.24139 0.71515
 C1653 C 0.53471 0.24089 0.74136
 C1654 C 0.49024 0.28383 0.75919
 C1655 C 0.46601 0.25932 0.75944
 C1656 C 0.49067 0.25915 0.78398
 H1657 H 0.47503 0.24440 0.74434
 H1658 H 0.50550 0.24427 0.77483
 H1659 H 0.51564 0.23429 0.73421
 H1660 H 0.50527 0.27482 0.74442
 H1661 H 0.48979 0.27282 0.72429
 H1662 H 0.50893 0.27404 0.72515
 H1663 H 0.49298 0.23148 0.78051
 H1664 H 0.50548 0.21995 0.76817
 H1665 H 0.46883 0.26743 0.73123
 H1666 H 0.48134 0.23242 0.71831
 H1667 H 0.51871 0.25661 0.78007
 H1668 H 0.52927 0.24366 0.76887
 H1669 H 0.48150 0.22037 0.74426
 H1670 H 0.46962 0.23126 0.75658
 H1671 H 0.52999 0.26798 0.74477
 H1672 H 0.51788 0.28077 0.75708
 O1673 O 0.24930 0.72025 0.51470
 O1674 O 0.26867 0.72383 0.51312
 O1675 O 0.23565 0.74965 0.52995
 O1676 O 0.23555 0.76835 0.52671
 O1677 O 0.22009 0.73564 0.50059
 O1678 O 0.22418 0.73655 0.48087
 O1679 O 0.26506 0.77952 0.49926
 O1680 O 0.26266 0.77651 0.51863
 O1681 O 0.27942 0.75118 0.48530
 O1682 O 0.27565 0.73070 0.48631
 O1683 O 0.25115 0.76488 0.47065
 O1684 O 0.23082 0.76409 0.47432
 O1685 O 0.25155 0.77953 0.48564
 O1686 O 0.23049 0.77560 0.48701
 O1687 O 0.26463 0.75128 0.47059
 O1688 O 0.26309 0.73034 0.47467
 O1689 O 0.27933 0.76499 0.49859
 O1690 O 0.27594 0.76111 0.51913
 O1691 O 0.23593 0.72012 0.50092
 O1692 O 0.23703 0.72422 0.48081
 O1693 O 0.22000 0.74924 0.51412
 O1694 O 0.22453 0.76971 0.51221
 O1695 O 0.24897 0.73587 0.52996
 O1696 O 0.26937 0.73852 0.52567
 Zr1697 Zr 0.25618 0.73657 0.51374
 O1698 O 0.26702 0.74634 0.50366
 Zr1699 Zr 0.23627 0.75634 0.51355
 O1700 O 0.24644 0.76713 0.50380
 Zr1701 Zr 0.23644 0.73642 0.49380
 O1702 O 0.24630 0.74645 0.48297
 Zr1703 Zr 0.26353 0.76346 0.50646
 O1704 O 0.25341 0.75374 0.51746
 Zr1705 Zr 0.26341 0.74368 0.48655
 O1706 O 0.25354 0.73276 0.49658
 Zr1707 Zr 0.24370 0.76360 0.48666
 O1708 O 0.23261 0.75357 0.49641
 O1709 O 0.23915 0.73933 0.51080
 O1710 O 0.26073 0.76076 0.48937
 C1711 C 0.24139 0.71542 0.50905
 C1712 C 0.24107 0.74155 0.53472
 C1713 C 0.21527 0.74121 0.50855
 C1714 C 0.25980 0.78414 0.49099
 C1715 C 0.28397 0.75958 0.49043
 C1716 C 0.25937 0.75957 0.46601
 H1717 H 0.27496 0.74459 0.50550
 H1718 H 0.24446 0.74467 0.47504
 H1719 H 0.23433 0.73454 0.51561
 H1720 H 0.24480 0.77508 0.50567
 H1721 H 0.26032 0.77292 0.52578
 H1722 H 0.24118 0.77423 0.52494
 H1723 H 0.25692 0.73186 0.46926
 H1724 H 0.24438 0.72035 0.48151
 H1725 H 0.28127 0.76754 0.51872
 H1726 H 0.26864 0.73253 0.53146
 H1727 H 0.23134 0.75708 0.46984
 H1728 H 0.22069 0.74413 0.48103
 H1729 H 0.26845 0.72061 0.50542
 H1730 H 0.28035 0.73152 0.49314
 H1731 H 0.22005 0.76830 0.50531
 H1732 H 0.23214 0.78107 0.49309
 O1733 O 0.28006 0.25075 0.98535
 O1734 O 0.27654 0.23134 0.98694
 O1735 O 0.25066 0.26436 0.97023
 O1736 O 0.23198 0.26443 0.97352
 O1737 O 0.26469 0.27992 0.99957
 O1738 O 0.26386 0.27583 1.01927
 O1739 O 0.22093 0.23483 1.00099
 O1740 O 0.22389 0.23727 0.98161
 O1741 O 0.24929 0.22051 1.01485
 O1742 O 0.26956 0.22416 1.01396
 O1743 O 0.23560 0.24883 1.02958
 O1744 O 0.23631 0.26918 1.02586
 O1745 O 0.22094 0.24833 1.01463
 O1746 O 0.22479 0.26945 1.01322
 O1747 O 0.24919 0.23535 1.02959
 O1748 O 0.27021 0.23700 1.02530
 O1749 O 0.23547 0.22059 1.00159
 O1750 O 0.23928 0.22399 0.98105
 O1751 O 0.28020 0.26410 0.99918
 O1752 O 0.27615 0.26296 1.01932
 O1753 O 0.25107 0.28001 0.98609
 O1754 O 0.23063 0.27544 0.98803
 O1755 O 0.26443 0.25103 0.97016
 O1756 O 0.26181 0.23060 0.97445
 Zr1757 Zr 0.26378 0.24381 0.98638
 O1758 O 0.25406 0.23295 0.99649
 Zr1759 Zr 0.24400 0.26371 0.98665
 O1760 O 0.23326 0.25352 0.99642
 Zr1761 Zr 0.26394 0.26355 1.00635
 O1762 O 0.25396 0.25368 1.01721
 Zr1763 Zr 0.23695 0.23641 0.99373
 O1764 O 0.24662 0.24656 0.98271
 Zr1765 Zr 0.25674 0.23656 1.01360
 O1766 O 0.26762 0.24643 1.00354
 Zr1767 Zr 0.23681 0.25626 1.01355
 O1768 O 0.24680 0.26737 1.00379
 O1769 O 0.26100 0.26084 0.98935
 O1770 O 0.23968 0.23921 1.01082
 C1771 C 0.28488 0.25867 0.99101
 C1772 C 0.25874 0.25895 0.96542
 C1773 C 0.25910 0.28474 0.99163
 C1774 C 0.21633 0.24007 1.00930
 C1775 C 0.24089 0.21595 1.00974
 C1776 C 0.24093 0.24062 1.03421
 H1777 H 0.25581 0.22500 0.99464
 H1778 H 0.25575 0.25552 1.02513
 H1779 H 0.26577 0.26569 0.98453
 H1780 H 0.22530 0.25514 0.99456
 H1781 H 0.22745 0.23961 0.97443
 H1782 H 0.22613 0.25877 0.97529
 H1783 H 0.26858 0.24299 1.03088
 H1784 H 0.28012 0.25566 1.01852
 H1785 H 0.23286 0.21866 0.98147
 H1786 H 0.26777 0.23134 0.96864
 H1787 H 0.24333 0.26868 1.03033
 H1788 H 0.25628 0.27931 1.01916
 H1789 H 0.27986 0.23164 0.99459
 H1790 H 0.26913 0.21986 1.00682
 H1791 H 0.23203 0.27992 0.99493
 H1792 H 0.21928 0.26775 1.00720
 C1793 C 0.29160 0.38458 0.80523
 C1794 C 0.29605 0.38882 0.79519
 C1795 C 0.30582 0.38406 0.79065
 C1796 C 0.31110 0.37503 0.79609
 C1797 C 0.30667 0.37063 0.80619
 C1798 C 0.29685 0.37556 0.81069
 C1799 C 0.29062 0.39812 0.78959
 C1800 C 0.28609 0.40596 0.78498
 C1801 C 0.28085 0.41525 0.77973
 C1802 C 0.27649 0.42334 0.77539
 C1803 C 0.27148 0.43322 0.77045
 C1804 C 0.27653 0.43837 0.76114
 C1805 C 0.27226 0.44853 0.75695
 C1806 C 0.26289 0.45370 0.76207
 C1807 C 0.25765 0.44825 0.77121
 C1808 C 0.26194 0.43809 0.77537
 H1809 H 0.28405 0.38824 0.80884
 H1810 H 0.30936 0.38731 0.78289
 H1811 H 0.31862 0.37153 0.79233
 H1812 H 0.29317 0.37250 0.81843
 H1813 H 0.28395 0.43470 0.75729
 H1814 H 0.27654 0.45249 0.74994
 H1815 H 0.25046 0.45199 0.77539
 H1816 H 0.25799 0.43420 0.78262
 C1817 C 0.29271 -0.11438 0.30612
 C1818 C 0.29717 -0.11009 0.29610
 C1819 C 0.30687 -0.11492 0.29149
 C1820 C 0.31210 -0.12402 0.29685
 C1821 C 0.30768 -0.12844 0.30694
 C1822 C 0.29791 -0.12347 0.31151
 C1823 C 0.29182 -0.10069 0.29061
 C1824 C 0.28735 -0.09276 0.28608
 C1825 C 0.28218 -0.08340 0.28089
 C1826 C 0.27784 -0.07529 0.27657
 C1827 C 0.27281 -0.06543 0.27160
 C1828 C 0.27772 -0.06043 0.26212
 C1829 C 0.27328 -0.05045 0.25772
 C1830 C 0.26384 -0.04530 0.26277
 C1831 C 0.25881 -0.05055 0.27214
 C1832 C 0.26328 -0.06054 0.27652
 H1833 H 0.28520 -0.11068 0.30978
 H1834 H 0.31041 -0.11165 0.28374
 H1835 H 0.31957 -0.12755 0.29304
 H1836 H 0.29423 -0.12656 0.31924
 H1837 H 0.28513 -0.06413 0.25827
 H1838 H 0.27741 -0.04662 0.25055
 H1839 H 0.25159 -0.04681 0.27628
 H1840 H 0.25943 -0.06432 0.28388
 C1841 C 0.79277 0.88585 0.80699
 C1842 C 0.79709 0.89025 0.79697
 C1843 C 0.80657 0.88529 0.79204
 C1844 C 0.81165 0.87591 0.79704
 C1845 C 0.80733 0.87127 0.80710
 C1846 C 0.79783 0.87647 0.81203
 C1847 C 0.79176 0.89979 0.79169
 C1848 C 0.78730 0.90778 0.78726
 C1849 C 0.78212 0.91716 0.78208
 C1850 C 0.77777 0.92524 0.77770
 C1851 C 0.77270 0.93501 0.77258
 C1852 C 0.77758 0.93987 0.76302
 C1853 C 0.77306 0.94973 0.75842
 C1854 C 0.76357 0.95489 0.76334
 C1855 C 0.75858 0.94978 0.77281
 C1856 C 0.76313 0.93992 0.77740
 H1857 H 0.78545 0.88964 0.81091
 H1858 H 0.81001 0.88866 0.78428
 H1859 H 0.81893 0.87235 0.79289
 H1860 H 0.79416 0.87334 0.81975
 H1861 H 0.78502 0.93615 0.75925
 H1862 H 0.77717 0.95344 0.75117
 H1863 H 0.75132 0.95354 0.77687
 H1864 H 0.75930 0.93625 0.78482
 C1865 C 0.44382 0.86457 0.29197
 C1866 C 0.45382 0.86021 0.29641
 C1867 C 0.45847 0.86498 0.30614
 C1868 C 0.45318 0.87412 0.31139
 C1869 C 0.44312 0.87863 0.30697
 C1870 C 0.43850 0.87370 0.29719
 C1871 C 0.45926 0.85080 0.29102
 C1872 C 0.46377 0.84288 0.28654
 C1873 C 0.46895 0.83351 0.28135
 C1874 C 0.47327 0.82540 0.27701
 C1875 C 0.47824 0.81555 0.27198
 C1876 C 0.48774 0.81058 0.27690
 C1877 C 0.49213 0.80056 0.27249
 C1878 C 0.48705 0.79536 0.26309
 C1879 C 0.47766 0.80059 0.25805
 C1880 C 0.47330 0.81061 0.26248
 H1881 H 0.44012 0.86092 0.28445
 H1882 H 0.46620 0.86165 0.30967
 H1883 H 0.45702 0.87760 0.31888
 H1884 H 0.43079 0.87686 0.29351
 H1885 H 0.49161 0.81432 0.28428
 H1886 H 0.49932 0.79676 0.27662
 H1887 H 0.47350 0.79681 0.25085
 H1888 H 0.46592 0.81437 0.25863
 C1889 C -0.04163 0.86496 0.80644
 C1890 C -0.04635 0.86011 0.79678
 C1891 C -0.05639 0.86444 0.79238
 C1892 C -0.06168 0.87360 0.79758
 C1893 C -0.05698 0.87861 0.80728
 C1894 C -0.04689 0.87413 0.81166
 C1895 C -0.04093 0.85068 0.79139
 C1896 C -0.03646 0.84274 0.78689
 C1897 C -0.03131 0.83337 0.78166
 C1898 C -0.02701 0.82527 0.77728
 C1899 C -0.02204 0.81542 0.77221
 C1900 C -0.02704 0.81046 0.76275
 C1901 C -0.02265 0.80048 0.75825
 C1902 C -0.01318 0.79531 0.76319
 C1903 C -0.00806 0.80053 0.77256
 C1904 C -0.01247 0.81050 0.77703
 H1905 H -0.03387 0.86166 0.80993
 H1906 H -0.06014 0.86073 0.78492
 H1907 H -0.06942 0.87673 0.79394
 H1908 H -0.04299 0.87768 0.81909
 H1909 H -0.03448 0.81418 0.75897
 H1910 H -0.02685 0.79668 0.75109
 H1911 H -0.00080 0.79677 0.77663
 H1912 H -0.00855 0.81426 0.78438
 C1913 C -0.05544 -0.11586 -0.04100
 C1914 C -0.04543 -0.11151 -0.04542
 C1915 C -0.04091 -0.11614 -0.05528
 C1916 C -0.04635 -0.12511 -0.06067
 C1917 C -0.05641 -0.12961 -0.05627
 C1918 C -0.06090 -0.12483 -0.04636
 C1919 C -0.03987 -0.10225 -0.03991
 C1920 C -0.03528 -0.09442 -0.03533
 C1921 C -0.03004 -0.08512 -0.03008
 C1922 C -0.02570 -0.07703 -0.02573
 C1923 C -0.02073 -0.06712 -0.02077
 C1924 C -0.01136 -0.06208 -0.02582
 C1925 C -0.00715 -0.05189 -0.02164
 C1926 C -0.01230 -0.04659 -0.01234
 C1927 C -0.02149 -0.05194 -0.00710
 C1928 C -0.02568 -0.06213 -0.01130
 H1929 H -0.05904 -0.11231 -0.03339
 H1930 H -0.03318 -0.11280 -0.05881
 H1931 H -0.04260 -0.12849 -0.06826
 H1932 H -0.06861 -0.12798 -0.04269
 H1933 H -0.00749 -0.06586 -0.03318
 H1934 H -0.00009 -0.04801 -0.02591
 H1935 H -0.02568 -0.04809 0.00004
 H1936 H -0.03297 -0.06595 -0.00735
 C1937 C -0.04145 0.38412 0.44497
 C1938 C -0.04592 0.38845 0.45497
 C1939 C -0.05571 0.38373 0.45949
 C1940 C -0.06099 0.37468 0.45408
 C1941 C -0.05654 0.37014 0.44400
 C1942 C -0.04668 0.37507 0.43953
 C1943 C -0.04050 0.39779 0.46053
 C1944 C -0.03598 0.40567 0.46511
 C1945 C -0.03075 0.41500 0.47033
 C1946 C -0.02638 0.42311 0.47464
 C1947 C -0.02135 0.43301 0.47954
 C1948 C -0.02621 0.43805 0.48904
 C1949 C -0.02193 0.44821 0.49323
 C1950 C -0.01272 0.45350 0.48794
 C1951 C -0.00767 0.44817 0.47861
 C1952 C -0.01198 0.43801 0.47444
 H1953 H -0.03388 0.38775 0.44137
 H1954 H -0.05927 0.38705 0.46721
 H1955 H -0.06852 0.37130 0.45790
 H1956 H -0.04290 0.37201 0.43183
 H1957 H -0.03350 0.43427 0.49303
 H1958 H -0.02606 0.45207 0.50039
 H1959 H -0.00061 0.45200 0.47430
 H1960 H -0.00817 0.43420 0.46707
 C1961 C 0.44453 -0.11584 0.45883
 C1962 C 0.45434 -0.11122 0.45423
 C1963 C 0.45869 -0.11561 0.44420
 C1964 C 0.45330 -0.12460 0.43879
 C1965 C 0.44341 -0.12941 0.44334
 C1966 C 0.43911 -0.12483 0.45346
 C1967 C 0.45985 -0.10193 0.45978
 C1968 C 0.46439 -0.09409 0.46440
 C1969 C 0.46957 -0.08479 0.46973
 C1970 C 0.47387 -0.07670 0.47416
 C1971 C 0.47880 -0.06682 0.47921
 C1972 C 0.48844 -0.06197 0.47448
 C1973 C 0.49268 -0.05182 0.47875
 C1974 C 0.48729 -0.04635 0.48781
 C1975 C 0.47782 -0.05151 0.49275
 C1976 C 0.47360 -0.06166 0.48845
 H1977 H 0.44106 -0.11248 0.46658
 H1978 H 0.46627 -0.11207 0.44055
 H1979 H 0.45698 -0.12772 0.43107
 H1980 H 0.43157 -0.12811 0.45734
 H1981 H 0.49252 -0.06588 0.46730
 H1982 H 0.49996 -0.04810 0.47471
 H1983 H 0.47343 -0.04753 0.49969
 H1984 H 0.46611 -0.06532 0.49216
 C1985 C 0.45737 0.38529 -0.05626
 C1986 C 0.45288 0.38968 -0.04630
 C1987 C 0.44322 0.38484 -0.04164
 C1988 C 0.43807 0.37561 -0.04690
 C1989 C 0.44252 0.37103 -0.05695
 C1990 C 0.45226 0.37607 -0.06155
 C1991 C 0.45818 0.39917 -0.04088
 C1992 C 0.46261 0.40716 -0.03641
 C1993 C 0.46775 0.41659 -0.03127
 C1994 C 0.47207 0.42474 -0.02698
 C1995 C 0.47709 0.43462 -0.02202
 C1996 C 0.47214 0.43968 -0.01259
 C1997 C 0.47658 0.44967 -0.00818
 C1998 C 0.48606 0.45477 -0.01317
 C1999 C 0.49112 0.44947 -0.02252
 C2000 C 0.48665 0.43948 -0.02690
 H2001 H 0.46485 0.38900 -0.05996
 H2002 H 0.43965 0.38819 -0.03393
 H2003 H 0.43062 0.37215 -0.04298
 H2004 H 0.45605 0.37298 -0.06923
 H2005 H 0.46470 0.43601 -0.00876
 H2006 H 0.47242 0.45354 -0.00103
 H2007 H 0.49838 0.45318 -0.02662
 H2008 H 0.49053 0.43565 -0.03424
 C2009 C 0.80577 0.36576 0.45948
 C2010 C 0.79579 0.36123 0.45514
 C2011 C 0.79113 0.36571 0.44528
 C2012 C 0.79639 0.37471 0.43981
 C2013 C 0.80642 0.37940 0.44412
 C2014 C 0.81105 0.37477 0.45403
 C2015 C 0.79038 0.35192 0.46072
 C2016 C 0.78588 0.34406 0.46531
 C2017 C 0.78067 0.33473 0.47053
 C2018 C 0.77634 0.32662 0.47484
 C2019 C 0.77135 0.31670 0.47972
 C2020 C 0.76189 0.31176 0.47469
 C2021 C 0.75763 0.30158 0.47881
 C2022 C 0.76281 0.29617 0.48802
 C2023 C 0.77209 0.30141 0.49325
 C2024 C 0.77633 0.31160 0.48911
 H2025 H 0.80948 0.36233 0.46709
 H2026 H 0.78342 0.36224 0.44182
 H2027 H 0.79254 0.37797 0.43223
 H2028 H 0.81875 0.37806 0.45762
 H2029 H 0.75799 0.31563 0.46740
 H2030 H 0.75050 0.29779 0.47455
 H2031 H 0.77632 0.29749 0.50032
 H2032 H 0.78368 0.31533 0.49304
 C2033 C 0.79124 0.86570 -0.05506
 C2034 C 0.79562 0.86154 -0.04494
 C2035 C 0.80535 0.86636 -0.04036
 C2036 C 0.81068 0.87533 -0.04584
 C2037 C 0.80634 0.87962 -0.05602
 C2038 C 0.79654 0.87467 -0.06056
 C2039 C 0.79019 0.85225 -0.03936
 C2040 C 0.78568 0.84438 -0.03478
 C2041 C 0.78048 0.83504 -0.02956
 C2042 C 0.77616 0.82691 -0.02527
 C2043 C 0.77122 0.81697 -0.02039
 C2044 C 0.77633 0.81178 -0.01113
 C2045 C 0.77211 0.80158 -0.00699
 C2046 C 0.76272 0.79641 -0.01210
 C2047 C 0.75742 0.80191 -0.02120
 C2048 C 0.76166 0.81210 -0.02531
 H2049 H 0.78373 0.86200 -0.05872
 H2050 H 0.80884 0.86317 -0.03254
 H2051 H 0.81816 0.87886 -0.04203
 H2052 H 0.79294 0.87764 -0.06838
 H2053 H 0.78375 0.81546 -0.00728
 H2054 H 0.77643 0.79759 -0.00001
 H2055 H 0.75021 0.79818 -0.02536
 H2056 H 0.75766 0.81604 -0.03251
 C2057 C 0.80518 0.29058 0.38393
 C2058 C 0.79544 0.29522 0.38866
 C2059 C 0.79104 0.30526 0.38433
 C2060 C 0.79633 0.31063 0.37529
 C2061 C 0.80613 0.30603 0.37041
 C2062 C 0.81049 0.29593 0.37488
 C2063 C 0.78999 0.28974 0.39800
 C2064 C 0.78547 0.28524 0.40589
 C2065 C 0.78025 0.28009 0.41525
 C2066 C 0.77592 0.27583 0.42338
 C2067 C 0.77096 0.27096 0.43331
 C2068 C 0.76169 0.27614 0.43843
 C2069 C 0.75747 0.27199 0.44860
 C2070 C 0.76250 0.26260 0.45383
 C2071 C 0.77160 0.25723 0.44842
 C2072 C 0.77580 0.26140 0.43824
 H2073 H 0.80868 0.28282 0.38724
 H2074 H 0.78352 0.30896 0.38795
 H2075 H 0.79269 0.31838 0.37216
 H2076 H 0.81800 0.29209 0.37143
 H2077 H 0.75790 0.28357 0.43469
 H2078 H 0.75048 0.27636 0.45253
 H2079 H 0.77570 0.25001 0.45220
 H2080 H 0.78300 0.25734 0.43437
 C2081 C 0.79095 0.80632 -0.11560
 C2082 C 0.79548 0.79648 -0.11094
 C2083 C 0.80546 0.79200 -0.11532
 C2084 C 0.81086 0.79728 -0.12435
 C2085 C 0.80634 0.80715 -0.12918
 C2086 C 0.79633 0.81162 -0.12464
 C2087 C 0.78993 0.79101 -0.10165
 C2088 C 0.78534 0.78645 -0.09383
 C2089 C 0.78006 0.78118 -0.08456
 C2090 C 0.77569 0.77679 -0.07652
 C2091 C 0.77069 0.77174 -0.06669
 C2092 C 0.77560 0.76220 -0.06181
 C2093 C 0.77134 0.75786 -0.05172
 C2094 C 0.76211 0.76304 -0.04635
 C2095 C 0.75700 0.77242 -0.05155
 C2096 C 0.76128 0.77674 -0.06163
 H2097 H 0.78324 0.80989 -0.11225
 H2098 H 0.80907 0.78440 -0.11175
 H2099 H 0.81852 0.79354 -0.12755
 H2100 H 0.79259 0.81920 -0.12802
 H2101 H 0.78291 0.75829 -0.06564
 H2102 H 0.77551 0.75066 -0.04797
 H2103 H 0.74992 0.77665 -0.04765
 H2104 H 0.75743 0.78415 -0.06533
 C2105 C 0.29110 0.44461 0.86569
 C2106 C 0.29566 0.45450 0.86119
 C2107 C 0.30559 0.45895 0.86572
 C2108 C 0.31092 0.45358 0.87475
 C2109 C 0.30638 0.44364 0.87941
 C2110 C 0.29641 0.43922 0.87472
 C2111 C 0.29019 0.46001 0.85187
 C2112 C 0.28563 0.46456 0.84402
 C2113 C 0.28037 0.46976 0.83471
 C2114 C 0.27600 0.47407 0.82661
 C2115 C 0.27101 0.47901 0.81672
 C2116 C 0.27590 0.48852 0.81177
 C2117 C 0.27168 0.49273 0.80161
 C2118 C 0.26249 0.48746 0.79624
 C2119 C 0.25740 0.47811 0.80150
 C2120 C 0.26165 0.47392 0.81166
 H2121 H 0.28343 0.44106 0.86222
 H2122 H 0.30922 0.46659 0.86227
 H2123 H 0.31857 0.45727 0.87805
 H2124 H 0.29263 0.43160 0.87799
 H2125 H 0.28317 0.49251 0.81560
 H2126 H 0.27583 0.49991 0.79780
 H2127 H 0.25035 0.47381 0.79760
 H2128 H 0.25781 0.46653 0.81540
 C2129 C 0.30662 -0.04159 0.36470
 C2130 C 0.29694 -0.04632 0.35989
 C2131 C 0.29252 -0.05632 0.36428
 C2132 C 0.29770 -0.06155 0.37347
 C2133 C 0.30741 -0.05686 0.37844
 C2134 C 0.31182 -0.04681 0.37390
 C2135 C 0.29158 -0.04095 0.35042
 C2136 C 0.28709 -0.03652 0.34246
 C2137 C 0.28187 -0.03142 0.33306
 C2138 C 0.27750 -0.02716 0.32493
 C2139 C 0.27244 -0.02222 0.31508
 C2140 C 0.26299 -0.02726 0.31012
 C2141 C 0.25850 -0.02289 0.30014
 C2142 C 0.26342 -0.01340 0.29496
 C2143 C 0.27276 -0.00825 0.30017
 C2144 C 0.27724 -0.01264 0.31015
 H2145 H 0.31013 -0.03386 0.36135
 H2146 H 0.28505 -0.06007 0.36060
 H2147 H 0.29403 -0.06926 0.37665
 H2148 H 0.31926 -0.04291 0.37742
 H2149 H 0.25924 -0.03470 0.31384
 H2150 H 0.25135 -0.02711 0.29635
 H2151 H 0.27681 -0.00099 0.29641
 H2152 H 0.28457 -0.00870 0.31390
 C2153 C -0.05541 -0.04167 -0.11552
 C2154 C -0.04542 -0.04615 -0.11121
 C2155 C -0.04090 -0.05596 -0.11593
 C2156 C -0.04632 -0.06125 -0.12497
 C2157 C -0.05640 -0.05681 -0.12949
 C2158 C -0.06087 -0.04692 -0.12455
 C2159 C -0.03984 -0.04072 -0.10189
 C2160 C -0.03525 -0.03620 -0.09403
 C2161 C -0.03000 -0.03097 -0.08471
 C2162 C -0.02566 -0.02662 -0.07662
 C2163 C -0.02070 -0.02162 -0.06673
 C2164 C -0.01129 -0.02663 -0.06169
 C2165 C -0.00704 -0.02236 -0.05155
 C2166 C -0.01218 -0.01304 -0.04628
 C2167 C -0.02143 -0.00785 -0.05163
 C2168 C -0.02565 -0.01214 -0.06177
 H2169 H -0.05901 -0.03409 -0.11189
 H2170 H -0.03317 -0.05953 -0.11263
 H2171 H -0.04251 -0.06880 -0.12836
 H2172 H -0.06857 -0.04314 -0.12760
 H2173 H -0.00741 -0.03400 -0.06544
 H2174 H 0.00006 -0.02660 -0.04768
 H2175 H -0.02563 -0.00070 -0.04781
 H2176 H -0.03297 -0.00822 -0.06558
 C2177 C -0.05593 0.45832 0.38472
 C2178 C -0.04582 0.45406 0.38900
 C2179 C -0.04095 0.44453 0.38407
 C2180 C -0.04609 0.43933 0.37482
 C2181 C -0.05624 0.44359 0.37029
 C2182 C -0.06111 0.45315 0.37547
 C2183 C -0.04043 0.45947 0.39844
 C2184 C -0.03591 0.46396 0.40636
 C2185 C -0.03067 0.46915 0.41571
 C2186 C -0.02630 0.47346 0.42381
 C2187 C -0.02125 0.47842 0.43367
 C2188 C -0.01186 0.47335 0.43868
 C2189 C -0.00751 0.47761 0.44878
 C2190 C -0.01255 0.48699 0.45404
 C2191 C -0.02178 0.49224 0.44874
 C2192 C -0.02610 0.48796 0.43864
 H2193 H -0.05980 0.46568 0.38851
 H2194 H -0.03314 0.44112 0.38735
 H2195 H -0.04198 0.43201 0.37127
 H2196 H -0.06888 0.45678 0.37243
 H2197 H -0.00806 0.46594 0.43492
 H2198 H -0.00043 0.47333 0.45263
 H2199 H -0.02589 0.49945 0.45255
 H2200 H -0.03340 0.49194 0.43485
 C2201 C 0.45951 -0.05576 0.38408
 C2202 C 0.45501 -0.04593 0.38879
 C2203 C 0.44497 -0.04147 0.38453
 C2204 C 0.43947 -0.04678 0.37556
 C2205 C 0.44393 -0.05666 0.37070
 C2206 C 0.45403 -0.06109 0.37511
 C2207 C 0.46062 -0.04047 0.39806
 C2208 C 0.46523 -0.03592 0.40589
 C2209 C 0.47048 -0.03068 0.41519
 C2210 C 0.47479 -0.02631 0.42329
 C2211 C 0.47968 -0.02130 0.43319
 C2212 C 0.47462 -0.01186 0.43814
 C2213 C 0.47873 -0.00759 0.44833
 C2214 C 0.48796 -0.01274 0.45374
 C2215 C 0.49322 -0.02201 0.44848
 C2216 C 0.48909 -0.02626 0.43829
 H2217 H 0.46727 -0.05930 0.38735
 H2218 H 0.44139 -0.03388 0.38815
 H2219 H 0.43173 -0.04309 0.37249
 H2220 H 0.45775 -0.06867 0.37167
 H2221 H 0.46731 -0.00798 0.43428
 H2222 H 0.47445 -0.00047 0.45213
 H2223 H 0.50030 -0.02621 0.45241
 H2224 H 0.49304 -0.03359 0.43455
 C2225 C 0.44438 0.45786 -0.11530
 C2226 C 0.45431 0.45331 -0.11087
 C2227 C 0.45880 0.44344 -0.11552
 C2228 C 0.45340 0.43813 -0.12456
 C2229 C 0.44338 0.44262 -0.12908
 C2230 C 0.43896 0.45257 -0.12434
 C2231 C 0.45976 0.45867 -0.10143
 C2232 C 0.46423 0.46312 -0.09346
 C2233 C 0.46934 0.46826 -0.08401
 C2234 C 0.47357 0.47256 -0.07583
 C2235 C 0.47843 0.47755 -0.06588
 C2236 C 0.48784 0.47261 -0.06079
 C2237 C 0.49212 0.47701 -0.05071
 C2238 C 0.48700 0.48643 -0.04558
 C2239 C 0.47769 0.49148 -0.05092
 C2240 C 0.47344 0.48706 -0.06099
 H2241 H 0.44080 0.46548 -0.11174
 H2242 H 0.46648 0.43984 -0.11214
 H2243 H 0.45712 0.43054 -0.12797
 H2244 H 0.43126 0.45628 -0.12750
 H2245 H 0.49175 0.46522 -0.06448
 H2246 H 0.49926 0.47286 -0.04682
 H2247 H 0.47351 0.49870 -0.04720
 H2248 H 0.46612 0.49093 -0.06485
 C2249 C 0.45849 0.80701 0.36468
 C2250 C 0.45388 0.79727 0.35988
 C2251 C 0.44396 0.79271 0.36429
 C2252 C 0.43867 0.79785 0.37348
 C2253 C 0.44323 0.80765 0.37843
 C2254 C 0.45322 0.81217 0.37388
 C2255 C 0.45929 0.79196 0.35039
 C2256 C 0.46374 0.78751 0.34241
 C2257 C 0.46884 0.78232 0.33299
 C2258 C 0.47308 0.77796 0.32485
 C2259 C 0.47800 0.77288 0.31499
 C2260 C 0.47288 0.76349 0.30998
 C2261 C 0.47725 0.75896 0.30002
 C2262 C 0.48681 0.76378 0.29490
 C2263 C 0.49202 0.77308 0.30014
 C2264 C 0.48763 0.77759 0.31011
 H2265 H 0.46616 0.81063 0.36131
 H2266 H 0.44030 0.78518 0.36062
 H2267 H 0.43101 0.79409 0.37666
 H2268 H 0.45703 0.81967 0.37739
 H2269 H 0.46539 0.75980 0.31367
 H2270 H 0.47297 0.75185 0.29620
 H2271 H 0.49934 0.77705 0.29642
 H2272 H 0.49164 0.78489 0.31389
 C2273 C -0.05615 0.79219 0.86444
 C2274 C -0.04623 0.79677 0.86005
 C2275 C -0.04163 0.80651 0.86488
 C2276 C -0.04691 0.81163 0.87409
 C2277 C -0.05689 0.80707 0.87862
 C2278 C -0.06145 0.79728 0.87364
 C2279 C -0.04080 0.79152 0.85057
 C2280 C -0.03633 0.78712 0.84258
 C2281 C -0.03120 0.78200 0.83315
 C2282 C -0.02693 0.77770 0.82500
 C2283 C -0.02202 0.77269 0.81511
 C2284 C -0.01248 0.77753 0.81017
 C2285 C -0.00811 0.77307 0.80018
 C2286 C -0.01325 0.76371 0.79498
 C2287 C -0.02270 0.75877 0.80016
 C2288 C -0.02705 0.76324 0.81015
 H2289 H -0.05979 0.78466 0.86074
 H2290 H -0.03396 0.81015 0.86153
 H2291 H -0.04312 0.81913 0.87762
 H2292 H -0.06909 0.79349 0.87681
 H2293 H -0.00854 0.78487 0.81393
 H2294 H -0.00086 0.77713 0.79641
 H2295 H -0.02692 0.75160 0.79637
 H2296 H -0.03447 0.75946 0.81389
 C2297 C 0.38549 0.80638 0.29211
 C2298 C 0.39037 0.79677 0.29690
 C2299 C 0.38599 0.79237 0.30691
 C2300 C 0.37673 0.79750 0.31208
 C2301 C 0.37169 0.80713 0.30730
 C2302 C 0.37623 0.81153 0.29726
 C2303 C 0.39985 0.79143 0.29155
 C2304 C 0.40782 0.78696 0.28710
 C2305 C 0.41720 0.78178 0.28195
 C2306 C 0.42530 0.77743 0.27763
 C2307 C 0.43512 0.77237 0.27261
 C2308 C 0.44007 0.76288 0.27755
 C2309 C 0.45000 0.75838 0.27310
 C2310 C 0.45514 0.76333 0.26362
 C2311 C 0.44994 0.77273 0.25856
 C2312 C 0.44001 0.77721 0.26304
 H2313 H 0.38883 0.80986 0.28436
 H2314 H 0.38973 0.78496 0.31072
 H2315 H 0.37358 0.79391 0.31983
 H2316 H 0.37260 0.81887 0.29327
 H2317 H 0.43638 0.75909 0.28499
 H2318 H 0.45379 0.75119 0.27725
 H2319 H 0.45367 0.77680 0.25131
 H2320 H 0.43626 0.78458 0.25917
 C2321 C -0.11412 0.80703 0.79242
 C2322 C -0.10953 0.79721 0.79705
 C2323 C -0.11424 0.79261 0.80682
 C2324 C -0.12355 0.79774 0.81190
 C2325 C -0.12832 0.80758 0.80726
 C2326 C -0.12344 0.81219 0.79748
 C2327 C -0.10004 0.79182 0.79176
 C2328 C -0.09208 0.78731 0.78734
 C2329 C -0.08272 0.78207 0.78220
 C2330 C -0.07465 0.77766 0.77788
 C2331 C -0.06488 0.77255 0.77284
 C2332 C -0.05991 0.76308 0.77782
 C2333 C -0.05002 0.75852 0.77332
 C2334 C -0.04495 0.76338 0.76377
 C2335 C -0.05017 0.77275 0.75867
 C2336 C -0.06005 0.77730 0.76319
 H2337 H -0.11052 0.81069 0.78488
 H2338 H -0.11074 0.78501 0.81049
 H2339 H -0.12704 0.79388 0.81937
 H2340 H -0.12676 0.81977 0.79368
 H2341 H -0.06356 0.75936 0.78531
 H2342 H -0.04622 0.75135 0.77751
 H2343 H -0.04648 0.77676 0.75136
 H2344 H -0.06381 0.78465 0.75929
 C2345 C 0.86591 0.30545 0.45924
 C2346 C 0.86136 0.29553 0.45475
 C2347 C 0.86584 0.29100 0.44483
 C2348 C 0.87486 0.29631 0.43945
 C2349 C 0.87957 0.30628 0.44391
 C2350 C 0.87493 0.31079 0.45387
 C2351 C 0.85206 0.29004 0.46025
 C2352 C 0.84421 0.28547 0.46479
 C2353 C 0.83491 0.28019 0.46997
 C2354 C 0.82682 0.27580 0.47426
 C2355 C 0.81693 0.27077 0.47916
 C2356 C 0.81188 0.26143 0.47402
 C2357 C 0.80173 0.25714 0.47819
 C2358 C 0.79647 0.26219 0.48757
 C2359 C 0.80184 0.27136 0.49290
 C2360 C 0.81198 0.27561 0.48871
 H2361 H 0.86248 0.30906 0.46689
 H2362 H 0.86236 0.28333 0.44126
 H2363 H 0.87812 0.29255 0.43182
 H2364 H 0.87824 0.31843 0.45758
 H2365 H 0.81562 0.25763 0.46660
 H2366 H 0.79784 0.25011 0.47385
 H2367 H 0.79804 0.27547 0.50011
 H2368 H 0.81581 0.28287 0.49274
 C2369 C 0.86529 0.79067 -0.05582
 C2370 C 0.86084 0.79508 -0.04584
 C2371 C 0.86531 0.80499 -0.04128
 C2372 C 0.87426 0.81046 -0.04663
 C2373 C 0.87888 0.80607 -0.05665
 C2374 C 0.87424 0.79611 -0.06119
 C2375 C 0.85162 0.78948 -0.04032
 C2376 C 0.84383 0.78486 -0.03575
 C2377 C 0.83458 0.77958 -0.03049
 C2378 C 0.82651 0.77524 -0.02613
 C2379 C 0.81664 0.77031 -0.02114
 C2380 C 0.81171 0.77533 -0.01168
 C2381 C 0.80153 0.77121 -0.00745
 C2382 C 0.79610 0.76202 -0.01267
 C2383 C 0.80134 0.75679 -0.02195
 C2384 C 0.81153 0.76093 -0.02616
 H2385 H 0.86186 0.78301 -0.05944
 H2386 H 0.86189 0.80851 -0.03357
 H2387 H 0.87752 0.81809 -0.04286
 H2388 H 0.87749 0.79245 -0.06888
 H2389 H 0.81559 0.78262 -0.00775
 H2390 H 0.79775 0.77547 -0.00031
 H2391 H 0.79740 0.74973 -0.02621
 H2392 H 0.81525 0.75701 -0.03352
 C2393 C -0.11619 -0.05513 -0.04074
 C2394 C -0.11136 -0.04546 -0.04543
 C2395 C -0.11555 -0.04118 -0.05558
 C2396 C -0.12455 -0.04651 -0.06101
 C2397 C -0.12952 -0.05623 -0.05635
 C2398 C -0.12520 -0.06048 -0.04614
 C2399 C -0.10204 -0.03999 -0.03991
 C2400 C -0.09416 -0.03546 -0.03537
 C2401 C -0.08481 -0.03024 -0.03019
 C2402 C -0.07667 -0.02592 -0.02591
 C2403 C -0.06672 -0.02098 -0.02101
 C2404 C -0.06164 -0.01165 -0.02611
 C2405 C -0.05145 -0.00745 -0.02195
 C2406 C -0.04617 -0.01256 -0.01262
 C2407 C -0.05156 -0.02173 -0.00734
 C2408 C -0.06175 -0.02591 -0.01152
 H2409 H -0.11299 -0.05854 -0.03289
 H2410 H -0.11183 -0.03372 -0.05932
 H2411 H -0.12754 -0.04298 -0.06885
 H2412 H -0.12875 -0.06791 -0.04225
 H2413 H -0.06540 -0.00780 -0.03348
 H2414 H -0.04754 -0.00041 -0.02625
 H2415 H -0.04774 -0.02590 -0.00018
 H2416 H -0.06560 -0.03316 -0.00753
 C2417 C -0.11582 0.45901 0.44488
 C2418 C -0.11134 0.45448 0.45479
 C2419 C -0.11587 0.44456 0.45925
 C2420 C -0.12488 0.43921 0.45385
 C2421 C -0.12952 0.44372 0.44390
 C2422 C -0.12483 0.45369 0.43947
 C2423 C -0.10203 0.45997 0.46032
 C2424 C -0.09418 0.46453 0.46487
 C2425 C -0.08486 0.46979 0.47008
 C2426 C -0.07676 0.47414 0.47439
 C2427 C -0.06685 0.47912 0.47932
 C2428 C -0.06177 0.48846 0.47422
 C2429 C -0.05160 0.49269 0.47840
 C2430 C -0.04634 0.48759 0.48774
 C2431 C -0.05172 0.47843 0.49303
 C2432 C -0.06189 0.47423 0.48883
 H2433 H -0.11235 0.46668 0.44133
 H2434 H -0.11244 0.44095 0.46690
 H2435 H -0.12818 0.43156 0.45754
 H2436 H -0.12809 0.45745 0.43184
 H2437 H -0.06552 0.49229 0.46683
 H2438 H -0.04769 0.49971 0.47409
 H2439 H -0.04791 0.47427 0.50021
 H2440 H -0.06574 0.46697 0.49282
 C2441 C 0.38452 -0.05527 0.45824
 C2442 C 0.38884 -0.04525 0.45380
 C2443 C 0.38413 -0.04069 0.44402
 C2444 C 0.37508 -0.04608 0.43871
 C2445 C 0.37056 -0.05618 0.44311
 C2446 C 0.37548 -0.06069 0.45297
 C2447 C 0.39817 -0.03972 0.45926
 C2448 C 0.40604 -0.03518 0.46381
 C2449 C 0.41536 -0.02998 0.46908
 C2450 C 0.42347 -0.02569 0.47347
 C2451 C 0.43335 -0.02076 0.47849
 C2452 C 0.43840 -0.01132 0.47356
 C2453 C 0.44853 -0.00709 0.47784
 C2454 C 0.45379 -0.01229 0.48713
 C2455 C 0.44845 -0.02157 0.49225
 C2456 C 0.43831 -0.02577 0.48794
 H2457 H 0.38814 -0.05890 0.46579
 H2458 H 0.38744 -0.03295 0.44049
 H2459 H 0.37170 -0.04223 0.43118
 H2460 H 0.37244 -0.06840 0.45672
 H2461 H 0.43465 -0.00739 0.46622
 H2462 H 0.45240 0.00003 0.47366
 H2463 H 0.45226 -0.02582 0.49938
 H2464 H 0.43449 -0.03311 0.49181
 C2465 C 0.38486 0.45821 -0.05690
 C2466 C 0.38967 0.45361 -0.04718
 C2467 C 0.38523 0.44372 -0.04259
 C2468 C 0.37598 0.43846 -0.04765
 C2469 C 0.37096 0.44301 -0.05744
 C2470 C 0.37561 0.45297 -0.06199
 C2471 C 0.39919 0.45901 -0.04193
 C2472 C 0.40720 0.46346 -0.03753
 C2473 C 0.41664 0.46857 -0.03241
 C2474 C 0.42480 0.47283 -0.02810
 C2475 C 0.43470 0.47774 -0.02307
 C2476 C 0.43967 0.47268 -0.01366
 C2477 C 0.44966 0.47705 -0.00917
 C2478 C 0.45482 0.48655 -0.01406
 C2479 C 0.44960 0.49171 -0.02339
 C2480 C 0.43962 0.48733 -0.02786
 H2481 H 0.38826 0.46586 -0.06054
 H2482 H 0.38892 0.44007 -0.03508
 H2483 H 0.37284 0.43083 -0.04378
 H2484 H 0.37216 0.45685 -0.06948
 H2485 H 0.43595 0.46523 -0.00991
 H2486 H 0.45345 0.47281 -0.00203
 H2487 H 0.45336 0.49900 -0.02741
 H2488 H 0.43585 0.49129 -0.03517
 C2489 C 0.36578 0.44453 0.79122
 C2490 C 0.36110 0.45427 0.79595
 C2491 C 0.36549 0.45861 0.80600
 C2492 C 0.37457 0.45327 0.81129
 C2493 C 0.37940 0.44349 0.80658
 C2494 C 0.37486 0.43917 0.79649
 C2495 C 0.35175 0.45978 0.79051
 C2496 C 0.34387 0.46434 0.78600
 C2497 C 0.33455 0.46959 0.78079
 C2498 C 0.32647 0.47396 0.77645
 C2499 C 0.31662 0.47900 0.77147
 C2500 C 0.31151 0.48831 0.77661
 C2501 C 0.30143 0.49264 0.77233
 C2502 C 0.29628 0.48768 0.76283
 C2503 C 0.30169 0.47854 0.75751
 C2504 C 0.31178 0.47423 0.76182
 H2505 H 0.36241 0.44107 0.78347
 H2506 H 0.36192 0.46615 0.80974
 H2507 H 0.37783 0.45690 0.81899
 H2508 H 0.37824 0.43162 0.79265
 H2509 H 0.31517 0.49205 0.78410
 H2510 H 0.29750 0.49964 0.77667
 H2511 H 0.29797 0.47448 0.75022
 H2512 H 0.31565 0.46700 0.75779
 C2513 C 0.36433 -0.05645 0.29223
 C2514 C 0.35980 -0.04657 0.29680
 C2515 C 0.36442 -0.04198 0.30663
 C2516 C 0.37358 -0.04723 0.31186
 C2517 C 0.37826 -0.05716 0.30732
 C2518 C 0.37348 -0.06172 0.29744
 C2519 C 0.35040 -0.04115 0.29140
 C2520 C 0.34248 -0.03666 0.28691
 C2521 C 0.33313 -0.03149 0.28171
 C2522 C 0.32504 -0.02719 0.27735
 C2523 C 0.31521 -0.02222 0.27229
 C2524 C 0.31028 -0.01265 0.27712
 C2525 C 0.30031 -0.00826 0.27266
 C2526 C 0.29511 -0.01341 0.26330
 C2527 C 0.30029 -0.02288 0.25835
 C2528 C 0.31026 -0.02725 0.26284
 H2529 H 0.36079 -0.06009 0.28463
 H2530 H 0.36096 -0.03434 0.31025
 H2531 H 0.37695 -0.04344 0.31944
 H2532 H 0.37678 -0.06933 0.29366
 H2533 H 0.31402 -0.00872 0.28447
 H2534 H 0.29653 -0.00100 0.27672
 H2535 H 0.29651 -0.02710 0.25119
 H2536 H 0.31399 -0.03469 0.25906
 C2537 C 0.13590 0.54234 0.69351
 C2538 C 0.14038 0.54684 0.70345
 C2539 C 0.13570 0.55662 0.70809
 C2540 C 0.12653 0.56185 0.70287
 C2541 C 0.12188 0.55737 0.69290
 C2542 C 0.12672 0.54756 0.68826
 C2543 C 0.14979 0.54145 0.70887
 C2544 C 0.15771 0.53697 0.71340
 C2545 C 0.16704 0.53180 0.71864
 C2546 C 0.17512 0.52747 0.72303
 C2547 C 0.18492 0.52246 0.72811
 C2548 C 0.18992 0.52748 0.73755
 C2549 C 0.19987 0.52305 0.74203
 C2550 C 0.20498 0.51352 0.73711
 C2551 C 0.19973 0.50838 0.72778
 C2552 C 0.18978 0.51283 0.72332
 H2553 H 0.13948 0.53479 0.68982
 H2554 H 0.13912 0.56019 0.71578
 H2555 H 0.12308 0.56935 0.70674
 H2556 H 0.12348 0.54385 0.68059
 H2557 H 0.18625 0.53496 0.74130
 H2558 H 0.20370 0.52727 0.74917
 H2559 H 0.20344 0.50108 0.72374
 H2560 H 0.18599 0.50890 0.71598
 C2561 C 0.13451 0.04084 0.19444
 C2562 C 0.13911 0.04544 0.20428
 C2563 C 0.13481 0.05552 0.20862
 C2564 C 0.12588 0.06097 0.20319
 C2565 C 0.12111 0.05639 0.19332
 C2566 C 0.12558 0.04627 0.18900
 C2567 C 0.14831 0.03986 0.20987
 C2568 C 0.15609 0.03525 0.21451
 C2569 C 0.16532 0.02998 0.21983
 C2570 C 0.17336 0.02562 0.22423
 C2571 C 0.18322 0.02065 0.22924
 C2572 C 0.18830 0.02575 0.23859
 C2573 C 0.19846 0.02156 0.24282
 C2574 C 0.20371 0.01220 0.23772
 C2575 C 0.19831 0.00690 0.22856
 C2576 C 0.18815 0.01111 0.22435
 H2577 H 0.13781 0.03306 0.19098
 H2578 H 0.13834 0.05918 0.21622
 H2579 H 0.12274 0.06872 0.20682
 H2580 H 0.12222 0.04247 0.18142
 H2581 H 0.18457 0.03316 0.24242
 H2582 H 0.20237 0.02587 0.24986
 H2583 H 0.20210 -0.00029 0.22440
 H2584 H 0.18431 0.00712 0.21708
 C2585 C 0.61562 0.70868 0.19430
 C2586 C 0.61082 0.70391 0.20394
 C2587 C 0.61518 0.69384 0.20827
 C2588 C 0.62435 0.68862 0.20305
 C2589 C 0.62934 0.69341 0.19340
 C2590 C 0.62480 0.70348 0.18906
 C2591 C 0.60146 0.70934 0.20940
 C2592 C 0.59359 0.71386 0.21397
 C2593 C 0.58431 0.71907 0.21926
 C2594 C 0.57626 0.72342 0.22367
 C2595 C 0.56645 0.72843 0.22873
 C2596 C 0.56140 0.72335 0.23809
 C2597 C 0.55134 0.72766 0.24244
 C2598 C 0.54617 0.73712 0.23746
 C2599 C 0.55153 0.74238 0.22828
 C2600 C 0.56159 0.73805 0.22395
 H2601 H 0.61230 0.71646 0.19086
 H2602 H 0.61149 0.69004 0.21570
 H2603 H 0.62750 0.68085 0.20662
 H2604 H 0.62837 0.70746 0.18169
 H2605 H 0.56508 0.71588 0.24184
 H2606 H 0.54745 0.72337 0.24948
 H2607 H 0.54779 0.74964 0.22420
 H2608 H 0.56541 0.74203 0.21668
 C2609 C 0.11553 0.70875 0.69484
 C2610 C 0.11121 0.70426 0.70483
 C2611 C 0.11593 0.69445 0.70936
 C2612 C 0.12497 0.68918 0.70395
 C2613 C 0.12944 0.69364 0.69391
 C2614 C 0.12457 0.70350 0.68941
 C2615 C 0.10187 0.70967 0.71037
 C2616 C 0.09399 0.71418 0.71493
 C2617 C 0.08465 0.71938 0.72013
 C2618 C 0.07653 0.72371 0.72442
 C2619 C 0.06661 0.72867 0.72933
 C2620 C 0.06151 0.72362 0.73867
 C2621 C 0.05134 0.72786 0.74286
 C2622 C 0.04612 0.73720 0.73773
 C2623 C 0.05153 0.74243 0.72855
 C2624 C 0.06169 0.73818 0.72439
 H2625 H 0.11191 0.71632 0.69124
 H2626 H 0.11262 0.69088 0.71708
 H2627 H 0.12843 0.68163 0.70770
 H2628 H 0.12769 0.70721 0.68171
 H2629 H 0.06523 0.71624 0.74255
 H2630 H 0.04743 0.72359 0.74991
 H2631 H 0.04775 0.74961 0.72436
 H2632 H 0.06556 0.74213 0.71713
 C2633 C 0.63574 0.20757 0.55594
 C2634 C 0.64017 0.20293 0.54605
 C2635 C 0.63540 0.19314 0.54151
 C2636 C 0.62622 0.18801 0.54682
 C2637 C 0.62166 0.19262 0.55678
 C2638 C 0.62657 0.20246 0.56127
 C2639 C 0.64965 0.20819 0.54062
 C2640 C 0.65763 0.21260 0.53615
 C2641 C 0.66705 0.21773 0.53104
 C2642 C 0.67520 0.22205 0.52680
 C2643 C 0.68508 0.22710 0.52191
 C2644 C 0.69003 0.22230 0.51234
 C2645 C 0.70001 0.22679 0.50799
 C2646 C 0.70519 0.23615 0.51317
 C2647 C 0.69999 0.24105 0.52265
 C2648 C 0.69001 0.23654 0.52698
 H2649 H 0.63939 0.21513 0.55955
 H2650 H 0.63878 0.18946 0.53386
 H2651 H 0.62272 0.18048 0.54306
 H2652 H 0.62338 0.20628 0.56891
 H2653 H 0.68630 0.21496 0.50837
 H2654 H 0.70379 0.22276 0.50072
 H2655 H 0.70375 0.24821 0.52689
 H2656 H 0.68626 0.24029 0.53442
 C2657 C 0.63568 0.70797 0.05672
 C2658 C 0.64044 0.70328 0.04701
 C2659 C 0.63594 0.69336 0.04248
 C2660 C 0.62664 0.68821 0.04755
 C2661 C 0.62167 0.69294 0.05724
 C2662 C 0.62638 0.70285 0.06181
 C2663 C 0.64986 0.70867 0.04162
 C2664 C 0.65775 0.71317 0.03709
 C2665 C 0.66703 0.71838 0.03179
 C2666 C 0.67504 0.72276 0.02735
 C2667 C 0.68476 0.72784 0.02219
 C2668 C 0.68966 0.72290 0.01267
 C2669 C 0.69955 0.72739 0.00811
 C2670 C 0.70469 0.73690 0.01305
 C2671 C 0.69952 0.74197 0.02246
 C2672 C 0.68964 0.73746 0.02700
 H2673 H 0.63912 0.71564 0.06032
 H2674 H 0.63958 0.68963 0.03497
 H2675 H 0.62334 0.68061 0.04376
 H2676 H 0.62288 0.70674 0.06927
 H2677 H 0.68597 0.71544 0.00890
 H2678 H 0.70331 0.72323 0.00091
 H2679 H 0.70326 0.74925 0.02652
 H2680 H 0.68593 0.74133 0.03439
 C2681 C 0.11435 0.04246 0.05658
 C2682 C 0.10946 0.04734 0.04703
 C2683 C 0.11392 0.05731 0.04262
 C2684 C 0.12331 0.06234 0.04766
 C2685 C 0.12840 0.05745 0.05720
 C2686 C 0.12375 0.04747 0.06164
 C2687 C 0.09992 0.04205 0.04171
 C2688 C 0.09195 0.03761 0.03725
 C2689 C 0.08259 0.03242 0.03207
 C2690 C 0.07453 0.02803 0.02771
 C2691 C 0.06477 0.02290 0.02265
 C2692 C 0.05988 0.02769 0.01305
 C2693 C 0.05004 0.02309 0.00849
 C2694 C 0.04493 0.01362 0.01351
 C2695 C 0.05006 0.00873 0.02303
 C2696 C 0.05991 0.01335 0.02756
 H2697 H 0.11095 0.03475 0.06008
 H2698 H 0.11017 0.06118 0.03524
 H2699 H 0.12655 0.07004 0.04402
 H2700 H 0.12738 0.04342 0.06894
 H2701 H 0.06356 0.03511 0.00920
 H2702 H 0.04629 0.02712 0.00122
 H2703 H 0.04634 0.00149 0.02715
 H2704 H 0.06361 0.00960 0.03501
 C2705 C 0.11444 0.54220 0.55680
 C2706 C 0.10984 0.54672 0.54693
 C2707 C 0.11447 0.55650 0.54227
 C2708 C 0.12370 0.56172 0.54742
 C2709 C 0.12846 0.55723 0.55733
 C2710 C 0.12367 0.54741 0.56197
 C2711 C 0.10035 0.54135 0.54160
 C2712 C 0.09237 0.53690 0.53714
 C2713 C 0.08297 0.53177 0.53196
 C2714 C 0.07485 0.52746 0.52762
 C2715 C 0.06500 0.52244 0.52260
 C2716 C 0.06007 0.52734 0.51307
 C2717 C 0.05013 0.52285 0.50858
 C2718 C 0.04498 0.51341 0.51359
 C2719 C 0.05016 0.50841 0.52303
 C2720 C 0.06009 0.51291 0.52749
 H2721 H 0.11090 0.53464 0.56050
 H2722 H 0.11096 0.56008 0.53464
 H2723 H 0.12707 0.56925 0.54356
 H2724 H 0.12702 0.54368 0.56957
 H2725 H 0.06378 0.53474 0.50924
 H2726 H 0.04636 0.52696 0.50136
 H2727 H 0.04641 0.50118 0.52714
 H2728 H 0.06382 0.50908 0.53489
 C2729 C 0.61439 0.04246 0.55598
 C2730 C 0.60996 0.04701 0.54606
 C2731 C 0.61473 0.05676 0.54147
 C2732 C 0.62392 0.06193 0.54675
 C2733 C 0.62850 0.05740 0.55673
 C2734 C 0.62357 0.04760 0.56129
 C2735 C 0.60050 0.04170 0.54064
 C2736 C 0.59254 0.03725 0.53616
 C2737 C 0.58314 0.03207 0.53103
 C2738 C 0.57501 0.02773 0.52675
 C2739 C 0.56515 0.02269 0.52180
 C2740 C 0.56019 0.02754 0.51227
 C2741 C 0.55021 0.02308 0.50787
 C2742 C 0.54503 0.01369 0.51297
 C2743 C 0.55023 0.00873 0.52241
 C2744 C 0.56022 0.01321 0.52679
 H2745 H 0.61074 0.03492 0.55963
 H2746 H 0.61135 0.06038 0.53380
 H2747 H 0.62741 0.06944 0.54296
 H2748 H 0.62677 0.04383 0.56894
 H2749 H 0.56392 0.03490 0.50837
 H2750 H 0.54642 0.02716 0.50064
 H2751 H 0.54647 0.00155 0.52659
 H2752 H 0.56397 0.00942 0.53420
 C2753 C 0.61483 0.54190 0.05581
 C2754 C 0.61054 0.54627 0.04575
 C2755 C 0.61539 0.55593 0.04103
 C2756 C 0.62456 0.56113 0.04630
 C2757 C 0.62904 0.55674 0.05638
 C2758 C 0.62401 0.54708 0.06110
 C2759 C 0.60117 0.54085 0.04025
 C2760 C 0.59330 0.53631 0.03568
 C2761 C 0.58402 0.53105 0.03041
 C2762 C 0.57597 0.52666 0.02602
 C2763 C 0.56617 0.52158 0.02097
 C2764 C 0.56119 0.52651 0.01149
 C2765 C 0.55114 0.52214 0.00713
 C2766 C 0.54592 0.51278 0.01224
 C2767 C 0.55121 0.50767 0.02155
 C2768 C 0.56126 0.51206 0.02589
 H2769 H 0.61111 0.53445 0.05956
 H2770 H 0.61211 0.55940 0.03325
 H2771 H 0.62817 0.56851 0.04237
 H2772 H 0.62711 0.54348 0.06886
 H2773 H 0.56491 0.53390 0.00763
 H2774 H 0.54730 0.52632 -0.00001
 H2775 H 0.54743 0.50049 0.02573
 H2776 H 0.56503 0.50820 0.03325
 C2777 C 0.05678 0.04142 0.11468
 C2778 C 0.04724 0.04624 0.10971
 C2779 C 0.04285 0.05630 0.11401
 C2780 C 0.04790 0.06150 0.12331
 C2781 C 0.05745 0.05668 0.12847
 C2782 C 0.06186 0.04660 0.12399
 C2783 C 0.04193 0.04083 0.10023
 C2784 C 0.03749 0.03633 0.09228
 C2785 C 0.03231 0.03112 0.08291
 C2786 C 0.02796 0.02676 0.07483
 C2787 C 0.02290 0.02171 0.06502
 C2788 C 0.01326 0.02651 0.06022
 C2789 C 0.00875 0.02204 0.05029
 C2790 C 0.01384 0.01270 0.04500
 C2791 C 0.02339 0.00778 0.05006
 C2792 C 0.02788 0.01227 0.06000
 H2793 H 0.06026 0.03364 0.11141
 H2794 H 0.03548 0.06012 0.11020
 H2795 H 0.04429 0.06927 0.12641
 H2796 H 0.06915 0.04259 0.12769
 H2797 H 0.00937 0.03384 0.06403
 H2798 H 0.00144 0.02609 0.04661
 H2799 H 0.02757 0.00063 0.04621
 H2800 H 0.03537 0.00851 0.06363
 C2801 C 0.04291 0.55635 0.61425
 C2802 C 0.04755 0.54650 0.60973
 C2803 C 0.05728 0.54189 0.61452
 C2804 C 0.06230 0.54704 0.62387
 C2805 C 0.05764 0.55691 0.62857
 C2806 C 0.04790 0.56153 0.62359
 C2807 C 0.04229 0.54109 0.60023
 C2808 C 0.03786 0.53658 0.59227
 C2809 C 0.03268 0.53135 0.58291
 C2810 C 0.02831 0.52698 0.57484
 C2811 C 0.02320 0.52190 0.56507
 C2812 C 0.02813 0.51244 0.56005
 C2813 C 0.02357 0.50791 0.55017
 C2814 C 0.01400 0.51282 0.54515
 C2815 C 0.00896 0.52220 0.55043
 C2816 C 0.01354 0.52670 0.56031
 H2817 H 0.03539 0.56001 0.61058
 H2818 H 0.06096 0.53426 0.61107
 H2819 H 0.06975 0.54319 0.62742
 H2820 H 0.04408 0.56913 0.62687
 H2821 H 0.03564 0.50868 0.56365
 H2822 H 0.02772 0.50075 0.54631
 H2823 H 0.00163 0.52624 0.54678
 H2824 H 0.00968 0.53405 0.56412
 C2825 C 0.54257 0.05725 0.61411
 C2826 C 0.54680 0.04713 0.60981
 C2827 C 0.55618 0.04212 0.61485
 C2828 C 0.56127 0.04713 0.62424
 C2829 C 0.55703 0.05729 0.62880
 C2830 C 0.54762 0.06231 0.62350
 C2831 C 0.54147 0.04183 0.60026
 C2832 C 0.53702 0.03736 0.59228
 C2833 C 0.53186 0.03215 0.58290
 C2834 C 0.52752 0.02776 0.57481
 C2835 C 0.52247 0.02264 0.56502
 C2836 C 0.51288 0.02746 0.56013
 C2837 C 0.50836 0.02291 0.55023
 C2838 C 0.51339 0.01347 0.54507
 C2839 C 0.52288 0.00853 0.55021
 C2840 C 0.52738 0.01310 0.56011
 H2841 H 0.53531 0.06123 0.61024
 H2842 H 0.55956 0.03429 0.61156
 H2843 H 0.56847 0.04292 0.62787
 H2844 H 0.54402 0.07010 0.62655
 H2845 H 0.50903 0.03486 0.56385
 H2846 H 0.50110 0.02698 0.54649
 H2847 H 0.52702 0.00131 0.54645
 H2848 H 0.53482 0.00932 0.56381
 C2849 C 0.55542 0.54098 0.11532
 C2850 C 0.54549 0.54551 0.11087
 C2851 C 0.54103 0.55543 0.11544
 C2852 C 0.54643 0.56078 0.12446
 C2853 C 0.55641 0.55627 0.12906
 C2854 C 0.56084 0.54631 0.12434
 C2855 C 0.53995 0.54004 0.10155
 C2856 C 0.53537 0.53550 0.09369
 C2857 C 0.53012 0.53027 0.08437
 C2858 C 0.52577 0.52593 0.07627
 C2859 C 0.52080 0.52095 0.06638
 C2860 C 0.51137 0.52594 0.06137
 C2861 C 0.50711 0.52170 0.05122
 C2862 C 0.51226 0.51240 0.04592
 C2863 C 0.52152 0.50722 0.05124
 C2864 C 0.52576 0.51148 0.06138
 H2865 H 0.55897 0.53332 0.11182
 H2866 H 0.53336 0.55903 0.11203
 H2867 H 0.54274 0.56842 0.12778
 H2868 H 0.56848 0.54255 0.12758
 H2869 H 0.50748 0.53330 0.06515
 H2870 H 0.50000 0.52593 0.04737
 H2871 H 0.52574 0.50009 0.04739
 H2872 H 0.53309 0.50757 0.06518
 C2873 C 0.19324 0.54182 0.63546
 C2874 C 0.20314 0.54626 0.64007
 C2875 C 0.20785 0.55604 0.63549
 C2876 C 0.20273 0.56134 0.62630
 C2877 C 0.19278 0.55693 0.62154
 C2878 C 0.18809 0.54711 0.62627
 C2879 C 0.20845 0.54082 0.64952
 C2880 C 0.21290 0.53633 0.65748
 C2881 C 0.21807 0.53116 0.66686
 C2882 C 0.22242 0.52687 0.67498
 C2883 C 0.22748 0.52190 0.68483
 C2884 C 0.23701 0.52685 0.68971
 C2885 C 0.24151 0.52248 0.69967
 C2886 C 0.23653 0.51307 0.70492
 C2887 C 0.22709 0.50800 0.69979
 C2888 C 0.22260 0.51240 0.68982
 H2889 H 0.18950 0.53426 0.63896
 H2890 H 0.21551 0.55957 0.63901
 H2891 H 0.20662 0.56887 0.62297
 H2892 H 0.18045 0.54344 0.62292
 H2893 H 0.24083 0.53424 0.68593
 H2894 H 0.24873 0.52664 0.70340
 H2895 H 0.22298 0.50080 0.70361
 H2896 H 0.21520 0.50853 0.68613
 C2897 C 0.20841 0.05517 0.13467
 C2898 C 0.20385 0.04523 0.13908
 C2899 C 0.19392 0.04082 0.13452
 C2900 C 0.18859 0.04627 0.12554
 C2901 C 0.19313 0.05624 0.12097
 C2902 C 0.20310 0.06064 0.12569
 C2903 C 0.20934 0.03961 0.14831
 C2904 C 0.21390 0.03496 0.15610
 C2905 C 0.21916 0.02963 0.16533
 C2906 C 0.22355 0.02524 0.17337
 C2907 C 0.22860 0.02025 0.18319
 C2908 C 0.22360 0.01086 0.18828
 C2909 C 0.22790 0.00665 0.19841
 C2910 C 0.23725 0.01181 0.20361
 C2911 C 0.24243 0.02102 0.19820
 C2912 C 0.23812 0.02521 0.18808
 H2913 H 0.21609 0.05867 0.13816
 H2914 H 0.19029 0.03316 0.13791
 H2915 H 0.18091 0.04263 0.12224
 H2916 H 0.20690 0.06825 0.12245
 H2917 H 0.21621 0.00699 0.18458
 H2918 H 0.22367 -0.00042 0.20234
 H2919 H 0.24962 0.02522 0.20196
 H2920 H 0.24203 0.03250 0.18422
 C2921 C 0.70829 0.19390 0.61484
 C2922 C 0.70359 0.20360 0.61006
 C2923 C 0.69364 0.20808 0.61451
 C2924 C 0.68843 0.20293 0.62373
 C2925 C 0.69310 0.19318 0.62865
 C2926 C 0.70310 0.18872 0.62406
 C2927 C 0.70893 0.20892 0.60057
 C2928 C 0.71334 0.21337 0.59258
 C2929 C 0.71843 0.21853 0.58316
 C2930 C 0.72268 0.22284 0.57501
 C2931 C 0.72762 0.22785 0.56513
 C2932 C 0.72257 0.23725 0.56011
 C2933 C 0.72696 0.24170 0.55013
 C2934 C 0.73647 0.23677 0.54501
 C2935 C 0.74162 0.22746 0.55028
 C2936 C 0.73721 0.22304 0.56026
 H2937 H 0.71598 0.19034 0.61144
 H2938 H 0.68991 0.21558 0.61086
 H2939 H 0.68077 0.20664 0.62694
 H2940 H 0.70698 0.18126 0.62755
 H2941 H 0.71512 0.24101 0.56380
 H2942 H 0.72274 0.24882 0.54629
 H2943 H 0.74891 0.22341 0.54656
 H2944 H 0.74117 0.21573 0.56406
 C2945 C 0.69313 0.70811 0.11429
 C2946 C 0.70288 0.70350 0.10955
 C2947 C 0.70746 0.69361 0.11404
 C2948 C 0.70235 0.68838 0.12327
 C2949 C 0.69256 0.69297 0.12816
 C2950 C 0.68800 0.70290 0.12352
 C2951 C 0.70818 0.70888 0.10008
 C2952 C 0.71262 0.71335 0.09212
 C2953 C 0.71778 0.71849 0.08273
 C2954 C 0.72211 0.72278 0.07461
 C2955 C 0.72715 0.72774 0.06478
 C2956 C 0.73655 0.72268 0.05978
 C2957 C 0.74105 0.72710 0.04984
 C2958 C 0.73619 0.73666 0.04474
 C2959 C 0.72688 0.74182 0.04999
 C2960 C 0.72240 0.73738 0.05993
 H2961 H 0.68949 0.71576 0.11085
 H2962 H 0.71500 0.68995 0.11043
 H2963 H 0.70616 0.68078 0.12656
 H2964 H 0.68047 0.70669 0.12696
 H2965 H 0.74027 0.71519 0.06345
 H2966 H 0.74818 0.72286 0.04602
 H2967 H 0.72288 0.74914 0.04628
 H2968 H 0.71510 0.74135 0.06371
 C2969 C 0.55630 0.70916 0.13440
 C2970 C 0.54650 0.70459 0.13909
 C2971 C 0.54201 0.69462 0.13469
 C2972 C 0.54721 0.68928 0.12556
 C2973 C 0.55700 0.69386 0.12066
 C2974 C 0.56152 0.70384 0.12527
 C2975 C 0.54103 0.71014 0.14839
 C2976 C 0.53643 0.71473 0.15620
 C2977 C 0.53109 0.72000 0.16543
 C2978 C 0.52663 0.72436 0.17345
 C2979 C 0.52152 0.72936 0.18325
 C2980 C 0.51205 0.72435 0.18816
 C2981 C 0.50768 0.72859 0.19825
 C2982 C 0.51276 0.73791 0.20360
 C2983 C 0.52205 0.74312 0.19837
 C2984 C 0.52640 0.73885 0.18828
 H2985 H 0.55988 0.71686 0.13778
 H2986 H 0.53445 0.69098 0.13827
 H2987 H 0.54345 0.68163 0.12233
 H2988 H 0.56905 0.70763 0.12182
 H2989 H 0.50822 0.71697 0.18435
 H2990 H 0.50055 0.72434 0.20203
 H2991 H 0.52621 0.75027 0.20225
 H2992 H 0.53375 0.74278 0.18457
 C2993 C 0.04093 0.69464 0.63408
 C2994 C 0.04552 0.70443 0.63880
 C2995 C 0.05557 0.70882 0.63451
 C2996 C 0.06098 0.70350 0.62549
 C2997 C 0.05641 0.69368 0.62061
 C2998 C 0.04632 0.68930 0.62506
 C2999 C 0.03998 0.70992 0.64809
 C3000 C 0.03542 0.71450 0.65593
 C3001 C 0.03020 0.71978 0.66523
 C3002 C 0.02588 0.72417 0.67331
 C3003 C 0.02094 0.72919 0.68319
 C3004 C 0.02604 0.73855 0.68826
 C3005 C 0.02184 0.74283 0.69841
 C3006 C 0.01248 0.73777 0.70365
 C3007 C 0.00720 0.72858 0.69828
 C3008 C 0.01142 0.72432 0.68813
 H3009 H 0.03317 0.69113 0.63736
 H3010 H 0.05922 0.71638 0.63813
 H3011 H 0.06872 0.70715 0.62239
 H3012 H 0.04251 0.68177 0.62159
 H3013 H 0.03344 0.74237 0.68452
 H3014 H 0.02614 0.74988 0.70231
 H3015 H 0.00001 0.72444 0.70207
 H3016 H 0.00743 0.71704 0.68430
 C3017 C 0.55502 0.63444 0.20842
 C3018 C 0.54512 0.63886 0.20380
 C3019 C 0.54074 0.63426 0.19386
 C3020 C 0.54620 0.62525 0.18858
 C3021 C 0.55615 0.62067 0.19316
 C3022 C 0.56050 0.62542 0.20315
 C3023 C 0.53953 0.64817 0.20922
 C3024 C 0.53493 0.65603 0.21374
 C3025 C 0.52969 0.66535 0.21896
 C3026 C 0.52537 0.67346 0.22332
 C3027 C 0.52046 0.68335 0.22836
 C3028 C 0.51107 0.68847 0.22340
 C3029 C 0.50690 0.69863 0.22771
 C3030 C 0.51210 0.70383 0.23704
 C3031 C 0.52133 0.69841 0.24218
 C3032 C 0.52548 0.68826 0.23785
 H3033 H 0.55851 0.63796 0.21609
 H3034 H 0.53309 0.63765 0.19020
 H3035 H 0.54257 0.62190 0.18091
 H3036 H 0.56812 0.62221 0.20697
 H3037 H 0.50715 0.68476 0.21603
 H3038 H 0.49982 0.70256 0.22351
 H3039 H 0.52557 0.70217 0.24934
 H3040 H 0.53278 0.68438 0.24174
 C3041 C 0.04125 0.63475 0.69382
 C3042 C 0.04564 0.63927 0.70379
 C3043 C 0.05548 0.63474 0.70844
 C3044 C 0.06087 0.62567 0.70319
 C3045 C 0.05648 0.62096 0.69320
 C3046 C 0.04663 0.62568 0.68855
 C3047 C 0.04005 0.64855 0.70926
 C3048 C 0.03540 0.65636 0.71381
 C3049 C 0.03005 0.66559 0.71906
 C3050 C 0.02563 0.67362 0.72346
 C3051 C 0.02059 0.68343 0.72852
 C3052 C 0.02550 0.68831 0.73807
 C3053 C 0.02126 0.69842 0.74240
 C3054 C 0.01205 0.70381 0.73721
 C3055 C 0.00693 0.69861 0.72783
 C3056 C 0.01120 0.68850 0.72352
 H3057 H 0.03367 0.63823 0.69012
 H3058 H 0.05896 0.63820 0.71615
 H3059 H 0.06839 0.62230 0.70707
 H3060 H 0.04303 0.62240 0.68084
 H3061 H 0.03280 0.68447 0.74199
 H3062 H 0.02543 0.70218 0.74961
 H3063 H -0.00013 0.70253 0.72359
 H3064 H 0.00735 0.68480 0.71610
 C3065 C 0.04219 0.11414 0.05704
 C3066 C 0.04676 0.10941 0.04726
 C3067 C 0.05667 0.11387 0.04271
 C3068 C 0.06195 0.12307 0.04786
 C3069 C 0.05739 0.12797 0.05768
 C3070 C 0.04745 0.12334 0.06222
 C3071 C 0.04131 0.09999 0.04189
 C3072 C 0.03678 0.09207 0.03740
 C3073 C 0.03156 0.08273 0.03218
 C3074 C 0.02720 0.07466 0.02779
 C3075 C 0.02215 0.06487 0.02267
 C3076 C 0.02702 0.06004 0.01307
 C3077 C 0.02257 0.05012 0.00851
 C3078 C 0.01317 0.04487 0.01351
 C3079 C 0.00819 0.04996 0.02301
 C3080 C 0.01266 0.05988 0.02755
 H3081 H 0.03454 0.11073 0.06066
 H3082 H 0.06030 0.11026 0.03514
 H3083 H 0.06955 0.12634 0.04407
 H3084 H 0.04368 0.12678 0.06977
 H3085 H 0.03439 0.06382 0.00925
 H3086 H 0.02667 0.04642 0.00125
 H3087 H 0.00100 0.04613 0.02712
 H3088 H 0.00885 0.06354 0.03501
 C3089 C 0.04150 0.61497 0.55638
 C3090 C 0.04615 0.61011 0.54669
 C3091 C 0.05612 0.61447 0.54219
 C3092 C 0.06141 0.62368 0.54732
 C3093 C 0.05680 0.62869 0.55705
 C3094 C 0.04678 0.62418 0.56153
 C3095 C 0.04071 0.60063 0.54139
 C3096 C 0.03623 0.59265 0.53695
 C3097 C 0.03109 0.58323 0.53180
 C3098 C 0.02681 0.57508 0.52748
 C3099 C 0.02186 0.56519 0.52247
 C3100 C 0.02680 0.56027 0.51296
 C3101 C 0.02244 0.55025 0.50851
 C3102 C 0.01308 0.54498 0.51355
 C3103 C 0.00802 0.55016 0.52297
 C3104 C 0.01240 0.56018 0.52739
 H3105 H 0.03380 0.61164 0.55996
 H3106 H 0.05981 0.61075 0.53471
 H3107 H 0.06910 0.62682 0.54360
 H3108 H 0.04294 0.62774 0.56898
 H3109 H 0.03415 0.56406 0.50910
 H3110 H 0.02659 0.54649 0.50130
 H3111 H 0.00085 0.54633 0.52710
 H3112 H 0.00853 0.56390 0.53478
 C3113 C 0.54227 0.11457 0.55643
 C3114 C 0.54677 0.11007 0.54652
 C3115 C 0.55654 0.11476 0.54189
 C3116 C 0.56176 0.12394 0.54713
 C3117 C 0.55730 0.12858 0.55711
 C3118 C 0.54747 0.12375 0.56169
 C3119 C 0.54140 0.10059 0.54114
 C3120 C 0.53692 0.09262 0.53670
 C3121 C 0.53173 0.08320 0.53160
 C3122 C 0.52739 0.07506 0.52733
 C3123 C 0.52237 0.06518 0.52237
 C3124 C 0.52725 0.06022 0.51284
 C3125 C 0.52280 0.05024 0.50841
 C3126 C 0.51340 0.04506 0.51346
 C3127 C 0.50841 0.05026 0.52290
 C3128 C 0.51288 0.06025 0.52731
 H3129 H 0.53472 0.11098 0.56011
 H3130 H 0.56011 0.11132 0.53422
 H3131 H 0.56927 0.12738 0.54330
 H3132 H 0.54376 0.12699 0.56935
 H3133 H 0.53462 0.06395 0.50897
 H3134 H 0.52690 0.04646 0.50118
 H3135 H 0.50122 0.04649 0.52705
 H3136 H 0.50907 0.06400 0.53472
 C3137 C 0.55553 0.61542 0.04100
 C3138 C 0.54566 0.61089 0.04555
 C3139 C 0.54118 0.61544 0.05546
 C3140 C 0.54647 0.62457 0.06073
 C3141 C 0.55635 0.62930 0.05616
 C3142 C 0.56085 0.62454 0.04625
 C3143 C 0.54014 0.60157 0.04007
 C3144 C 0.53553 0.59374 0.03551
 C3145 C 0.53022 0.58447 0.03025
 C3146 C 0.52580 0.57643 0.02589
 C3147 C 0.52074 0.56659 0.02088
 C3148 C 0.51134 0.56158 0.02593
 C3149 C 0.50702 0.55146 0.02167
 C3150 C 0.51208 0.54620 0.01231
 C3151 C 0.52129 0.55153 0.00706
 C3152 C 0.52559 0.56164 0.01134
 H3153 H 0.55910 0.61193 0.03335
 H3154 H 0.53356 0.61197 0.05908
 H3155 H 0.54274 0.62790 0.06834
 H3156 H 0.56842 0.62786 0.04245
 H3157 H 0.50754 0.56533 0.03334
 H3158 H 0.49995 0.54760 0.02595
 H3159 H 0.52542 0.54772 -0.00013
 H3160 H 0.53288 0.56544 0.00739
 C3161 C 0.70792 0.13551 0.55632
 C3162 C 0.70343 0.13996 0.54638
 C3163 C 0.69365 0.13525 0.54175
 C3164 C 0.68842 0.12610 0.54701
 C3165 C 0.69289 0.12150 0.55700
 C3166 C 0.70271 0.12636 0.56160
 C3167 C 0.70883 0.14937 0.54096
 C3168 C 0.71334 0.15728 0.53647
 C3169 C 0.71858 0.16663 0.53131
 C3170 C 0.72297 0.17471 0.52700
 C3171 C 0.72804 0.18454 0.52201
 C3172 C 0.72322 0.18944 0.51244
 C3173 C 0.72768 0.19941 0.50802
 C3174 C 0.73702 0.20464 0.51315
 C3175 C 0.74197 0.19948 0.52262
 C3176 C 0.73749 0.18950 0.52702
 H3177 H 0.71547 0.13911 0.56000
 H3178 H 0.69008 0.13865 0.53407
 H3179 H 0.68090 0.12266 0.54319
 H3180 H 0.70643 0.12314 0.56926
 H3181 H 0.71587 0.18568 0.50851
 H3182 H 0.72361 0.20316 0.50076
 H3183 H 0.74913 0.20328 0.52683
 H3184 H 0.74127 0.18580 0.53446
 C3185 C 0.69326 0.63559 0.04185
 C3186 C 0.70300 0.64033 0.04650
 C3187 C 0.70752 0.63587 0.05643
 C3188 C 0.70235 0.62667 0.06167
 C3189 C 0.69256 0.62177 0.05705
 C3190 C 0.68807 0.62639 0.04708
 C3191 C 0.70836 0.64978 0.04111
 C3192 C 0.71284 0.65773 0.03664
 C3193 C 0.71803 0.66711 0.03149
 C3194 C 0.72239 0.67521 0.02718
 C3195 C 0.72746 0.68504 0.02220
 C3196 C 0.73700 0.68992 0.02713
 C3197 C 0.74152 0.69987 0.02272
 C3198 C 0.73653 0.70509 0.01329
 C3199 C 0.72709 0.69995 0.00824
 C3200 C 0.72259 0.69001 0.01268
 H3201 H 0.68967 0.63900 0.03418
 H3202 H 0.71505 0.63948 0.06012
 H3203 H 0.70610 0.62341 0.06930
 H3204 H 0.68055 0.62295 0.04325
 H3205 H 0.74081 0.68617 0.03453
 H3206 H 0.74874 0.70361 0.02687
 H3207 H 0.72299 0.70375 0.00103
 H3208 H 0.71518 0.68631 0.00881
 C3209 C 0.20774 0.61443 0.69345
 C3210 C 0.20322 0.60998 0.70337
 C3211 C 0.19354 0.61481 0.70806
 C3212 C 0.18843 0.62408 0.70288
 C3213 C 0.19293 0.62868 0.69291
 C3214 C 0.20265 0.62370 0.68825
 C3215 C 0.20850 0.60045 0.70872
 C3216 C 0.21293 0.59245 0.71316
 C3217 C 0.21807 0.58302 0.71827
 C3218 C 0.22239 0.57487 0.72255
 C3219 C 0.22741 0.56501 0.72754
 C3220 C 0.22249 0.56002 0.73700
 C3221 C 0.22697 0.55007 0.74146
 C3222 C 0.23646 0.54496 0.73649
 C3223 C 0.24149 0.55020 0.72711
 C3224 C 0.23699 0.56015 0.72267
 H3225 H 0.21522 0.61075 0.68973
 H3226 H 0.18995 0.61141 0.71573
 H3227 H 0.18098 0.62760 0.70675
 H3228 H 0.20638 0.62692 0.68060
 H3229 H 0.21506 0.56370 0.74082
 H3230 H 0.22284 0.54626 0.74864
 H3231 H 0.24876 0.54648 0.72302
 H3232 H 0.24085 0.56393 0.71532
 C3233 C 0.19457 0.11510 0.20824
 C3234 C 0.20468 0.11091 0.20389
 C3235 C 0.20930 0.11572 0.19418
 C3236 C 0.20386 0.12472 0.18887
 C3237 C 0.19369 0.12906 0.19319
 C3238 C 0.18911 0.12410 0.20295
 C3239 C 0.21025 0.10161 0.20934
 C3240 C 0.21483 0.09376 0.21388
 C3241 C 0.22005 0.08445 0.21913
 C3242 C 0.22435 0.07635 0.22349
 C3243 C 0.22928 0.06645 0.22849
 C3244 C 0.23871 0.06141 0.22353
 C3245 C 0.24292 0.05125 0.22778
 C3246 C 0.23771 0.04596 0.23704
 C3247 C 0.22844 0.05131 0.24218
 C3248 C 0.22425 0.06147 0.23791
 H3249 H 0.19089 0.11141 0.21574
 H3250 H 0.21711 0.11251 0.19072
 H3251 H 0.20769 0.12825 0.18140
 H3252 H 0.18131 0.12711 0.20655
 H3253 H 0.24264 0.06517 0.21621
 H3254 H 0.25004 0.04738 0.22359
 H3255 H 0.22419 0.04748 0.24928
 H3256 H 0.21692 0.06529 0.24179
 C3257 C 0.70952 1.11590 0.69409
 C3258 C 0.70499 1.11117 0.70388
 C3259 C 0.69500 1.11550 0.70838
 C3260 C 0.68957 1.12454 0.70314
 C3261 C 0.69406 1.12942 0.69330
 C3262 C 0.70411 1.12495 0.68883
 C3263 C 0.71054 1.10183 0.70929
 C3264 C 0.71509 1.09394 0.71380
 C3265 C 0.72027 1.08460 0.71901
 C3266 C 0.72455 1.07647 0.72336
 C3267 C 0.72943 1.06655 0.72835
 C3268 C 0.72444 1.06165 0.73783
 C3269 C 0.72857 1.05148 0.74211
 C3270 C 0.73776 1.04604 0.73693
 C3271 C 0.74294 1.05123 0.72760
 C3272 C 0.73878 1.06140 0.72334
 H3273 H 0.71724 1.11259 0.69052
 H3274 H 0.69140 1.11187 0.71594
 H3275 H 0.68187 1.12767 0.70686
 H3276 H 0.70785 1.12841 0.68129
 H3277 H 0.71717 1.06555 0.74175
 H3278 H 0.72435 1.04772 0.74927
 H3279 H 0.74999 1.04728 0.72337
 H3280 H 0.74269 1.06511 0.71597
 C3281 C 0.69356 0.61428 0.20740
 C3282 C 0.70339 0.60971 0.20278
 C3283 C 0.70796 0.61437 0.19297
 C3284 C 0.70278 0.62363 0.18785
 C3285 C 0.69294 0.62838 0.19248
 C3286 C 0.68836 0.62354 0.20229
 C3287 C 0.70881 0.60027 0.20812
 C3288 C 0.71335 0.59235 0.21259
 C3289 C 0.71860 0.58304 0.21778
 C3290 C 0.72301 0.57499 0.22213
 C3291 C 0.72810 0.56522 0.22720
 C3292 C 0.73755 0.56022 0.22222
 C3293 C 0.74206 0.55031 0.22671
 C3294 C 0.73716 0.54524 0.23625
 C3295 C 0.72783 0.55050 0.24135
 C3296 C 0.72334 0.56041 0.23684
 H3297 H 0.68993 0.61070 0.21497
 H3298 H 0.71556 0.61088 0.18931
 H3299 H 0.70661 0.62710 0.18035
 H3300 H 0.68077 0.62686 0.20608
 H3301 H 0.74128 0.56386 0.21473
 H3302 H 0.74920 0.54647 0.22251
 H3303 H 0.72380 0.54682 0.24866
 H3304 H 0.71600 0.56420 0.24074
 C3305 C 0.55553 0.13479 0.70777
 C3306 C 0.54529 0.13884 0.70360
 C3307 C 0.54047 0.13382 0.69409
 C3308 C 0.54581 0.12474 0.68879
 C3309 C 0.55612 0.12047 0.69293
 C3310 C 0.56090 0.12570 0.70251
 C3311 C 0.53977 0.14817 0.70906
 C3312 C 0.53520 0.15604 0.71360
 C3313 C 0.52996 0.16536 0.71885
 C3314 C 0.52562 0.17345 0.72322
 C3315 C 0.52065 0.18333 0.72824
 C3316 C 0.51128 0.18842 0.72322
 C3317 C 0.50703 0.19855 0.72752
 C3318 C 0.51213 0.20374 0.73692
 C3319 C 0.52133 0.19834 0.74212
 C3320 C 0.52556 0.18822 0.73780
 H3321 H 0.55937 0.13864 0.71511
 H3322 H 0.53255 0.13692 0.69076
 H3323 H 0.54174 0.12112 0.68148
 H3324 H 0.56880 0.12287 0.70605
 H3325 H 0.50744 0.18472 0.71580
 H3326 H 0.49997 0.20246 0.72327
 H3327 H 0.52549 0.20210 0.74933
 H3328 H 0.53284 0.18436 0.74173
 C3329 C 1.05639 0.13541 0.20748
 C3330 C 1.04667 0.14009 0.20273
 C3331 C 1.04220 0.13550 0.19283
 C3332 C 1.04736 0.12620 0.18774
 C3333 C 1.05710 0.12135 0.19249
 C3334 C 1.06157 0.12612 0.20241
 C3335 C 1.04129 0.14958 0.20803
 C3336 C 1.03681 0.15755 0.21247
 C3337 C 1.03164 0.16693 0.21764
 C3338 C 1.02731 0.17503 0.22199
 C3339 C 1.02232 0.18485 0.22708
 C3340 C 1.01271 0.18973 0.22230
 C3341 C 1.00824 0.19965 0.22683
 C3342 C 1.01335 0.20484 0.23622
 C3343 C 1.02287 0.19971 0.24111
 C3344 C 1.02731 0.18979 0.23656
 H3345 H 1.05993 0.13891 0.21514
 H3346 H 1.03469 0.13908 0.18906
 H3347 H 1.04369 0.12287 0.18008
 H3348 H 1.06899 0.12263 0.20637
 H3349 H 1.00880 0.18599 0.21493
 H3350 H 1.00095 0.20339 0.22281
 H3351 H 1.02705 0.20349 0.24830
 H3352 H 1.03478 0.18609 0.24030
 C3353 C 0.20901 0.63474 0.55574
 C3354 C 0.20451 0.63925 0.54583
 C3355 C 0.19457 0.63478 0.54134
 C3356 C 0.18917 0.62579 0.54670
 C3357 C 0.19364 0.62112 0.55667
 C3358 C 0.20363 0.62575 0.56113
 C3359 C 0.21006 0.64851 0.54030
 C3360 C 0.21464 0.65633 0.53572
 C3361 C 0.21991 0.66560 0.53046
 C3362 C 0.22428 0.67367 0.52611
 C3363 C 0.22928 0.68354 0.52113
 C3364 C 0.22436 0.68849 0.51163
 C3365 C 0.22859 0.69863 0.50739
 C3366 C 0.23781 0.70398 0.51262
 C3367 C 0.24293 0.69872 0.52195
 C3368 C 0.23867 0.68858 0.52618
 H3369 H 0.21668 0.63817 0.55932
 H3370 H 0.19100 0.63823 0.53368
 H3371 H 0.18152 0.62254 0.54298
 H3372 H 0.20735 0.62247 0.56876
 H3373 H 0.21706 0.68467 0.50768
 H3374 H 0.22442 0.70244 0.50022
 H3375 H 0.25001 0.70260 0.52622
 H3376 H 0.24252 0.68483 0.53356
 C3377 C 0.20786 0.13560 1.05706
 C3378 C 0.20323 0.14035 1.04732
 C3379 C 0.19335 0.13586 1.04273
 C3380 C 0.18814 0.12659 1.04781
 C3381 C 0.19278 0.12165 1.05756
 C3382 C 0.20268 0.12633 1.06215
 C3383 C 0.20865 0.14980 1.04201
 C3384 C 0.21318 0.15773 1.03756
 C3385 C 0.21841 0.16706 1.03239
 C3386 C 0.22279 0.17512 1.02803
 C3387 C 0.22785 0.18489 1.02295
 C3388 C 0.22290 0.18980 1.01344
 C3389 C 0.22737 0.19970 1.00890
 C3390 C 0.23687 0.20485 1.01383
 C3391 C 0.24193 0.19969 1.02324
 C3392 C 0.23744 0.18978 1.02776
 H3393 H 0.21552 0.13902 1.06068
 H3394 H 0.18967 0.13950 1.03521
 H3395 H 0.18050 0.12333 1.04406
 H3396 H 0.20656 0.12279 1.06960
 H3397 H 0.21545 0.18609 1.00967
 H3398 H 0.22321 0.20345 1.00170
 H3399 H 0.24920 0.20344 1.02730
 H3400 H 0.24131 0.18606 1.03515
 C3401 C 0.20874 0.69485 0.61528
 C3402 C 0.20424 0.70480 0.61085
 C3403 C 0.19434 0.70928 0.61540
 C3404 C 0.18899 0.70388 0.62440
 C3405 C 0.19348 0.69389 0.62899
 C3406 C 0.20342 0.68943 0.62427
 C3407 C 0.20973 0.71038 0.60159
 C3408 C 0.21428 0.71499 0.59378
 C3409 C 0.21953 0.72029 0.58453
 C3410 C 0.22389 0.72465 0.57647
 C3411 C 0.22890 0.72962 0.56661
 C3412 C 0.22391 0.73903 0.56155
 C3413 C 0.22817 0.74324 0.55141
 C3414 C 0.23747 0.73805 0.54616
 C3415 C 0.24265 0.72882 0.55154
 C3416 C 0.23838 0.72464 0.56168
 H3417 H 0.21639 0.69129 0.61178
 H3418 H 0.19075 0.71696 0.61201
 H3419 H 0.18137 0.70760 0.62771
 H3420 H 0.20716 0.68177 0.62749
 H3421 H 0.21655 0.74293 0.56528
 H3422 H 0.22394 0.75033 0.54751
 H3423 H 0.24979 0.72460 0.54775
 H3424 H 0.24228 0.71733 0.56552
 C3425 C 0.19359 0.20758 1.11431
 C3426 C 0.20366 0.20319 1.11004
 C3427 C 0.20837 0.19355 1.11490
 C3428 C 0.20308 0.18832 1.12404
 C3429 C 0.19296 0.19269 1.12846
 C3430 C 0.18827 0.20237 1.12343
 C3431 C 0.20912 0.20857 1.10064
 C3432 C 0.21363 0.21306 1.09273
 C3433 C 0.21881 0.21827 1.08339
 C3434 C 0.22313 0.22264 1.07531
 C3435 C 0.22813 0.22769 1.06549
 C3436 C 0.23765 0.22281 1.06054
 C3437 C 0.24206 0.22725 1.05057
 C3438 C 0.23700 0.23665 1.04539
 C3439 C 0.22758 0.24167 1.05060
 C3440 C 0.22319 0.23720 1.06057
 H3441 H 0.18985 0.21503 1.11058
 H3442 H 0.21616 0.19006 1.11164
 H3443 H 0.20698 0.18090 1.12760
 H3444 H 0.18051 0.20600 1.12651
 H3445 H 0.24152 0.21542 1.06426
 H3446 H 0.24928 0.22313 1.04678
 H3447 H 0.22343 0.24887 1.04683
 H3448 H 0.21579 0.24103 1.06431
 C3449 C 0.69299 0.54248 0.13578
 C3450 C 0.70280 0.54709 0.14041
 C3451 C 0.70742 0.55689 0.13577
 C3452 C 0.70232 0.56201 0.12647
 C3453 C 0.69249 0.55740 0.12165
 C3454 C 0.68786 0.54759 0.12648
 C3455 C 0.70815 0.54175 0.14990
 C3456 C 0.71264 0.53730 0.15785
 C3457 C 0.71786 0.53213 0.16720
 C3458 C 0.72225 0.52780 0.17528
 C3459 C 0.72736 0.52277 0.18506
 C3460 C 0.73679 0.52779 0.19005
 C3461 C 0.74136 0.52331 0.19994
 C3462 C 0.73652 0.51372 0.20500
 C3463 C 0.72718 0.50859 0.19976
 C3464 C 0.72263 0.51310 0.18987
 H3465 H 0.68931 0.53492 0.13934
 H3466 H 0.71502 0.56054 0.13930
 H3467 H 0.70619 0.56950 0.12302
 H3468 H 0.68028 0.54381 0.12312
 H3469 H 0.74049 0.53531 0.18641
 H3470 H 0.74851 0.52752 0.20375
 H3471 H 0.72320 0.50125 0.20344
 H3472 H 0.71530 0.50916 0.18609
 C3473 C 0.69407 1.04103 0.63457
 C3474 C 0.70405 1.04541 0.63905
 C3475 C 0.70861 1.05532 0.63460
 C3476 C 0.70325 1.06081 0.62565
 C3477 C 0.69323 1.05645 0.62101
 C3478 C 0.68869 1.04650 0.62563
 C3479 C 0.70957 1.03978 0.64826
 C3480 C 0.71414 1.03511 0.65604
 C3481 C 0.71938 1.02975 0.66526
 C3482 C 0.72375 1.02533 0.67330
 C3483 C 0.72876 1.02031 0.68313
 C3484 C 0.73830 1.02520 0.68804
 C3485 C 0.74256 1.02099 0.69817
 C3486 C 0.73731 1.01182 0.70357
 C3487 C 0.72794 1.00671 0.69835
 C3488 C 0.72370 1.01095 0.68821
 H3489 H 0.69044 1.03338 0.63798
 H3490 H 0.71632 1.05881 0.63803
 H3491 H 0.70703 1.06843 0.62241
 H3492 H 0.68100 1.04285 0.62237
 H3493 H 0.74226 1.03248 0.68419
 H3494 H 0.74976 1.02515 0.70195
 H3495 H 0.72365 0.99968 0.70227
 H3496 H 0.71628 1.00712 0.68450
 C3497 C 0.55592 0.20933 0.63443
 C3498 C 0.54600 0.20486 0.63894
 C3499 C 0.54150 0.19491 0.63449
 C3500 C 0.54686 0.18946 0.62553
 C3501 C 0.55683 0.19389 0.62085
 C3502 C 0.56130 0.20389 0.62546
 C3503 C 0.54049 0.21044 0.64820
 C3504 C 0.53591 0.21504 0.65601
 C3505 C 0.53063 0.22029 0.66528
 C3506 C 0.52624 0.22463 0.67335
 C3507 C 0.52120 0.22956 0.68322
 C3508 C 0.51175 0.22452 0.68813
 C3509 C 0.50744 0.22867 0.69828
 C3510 C 0.51257 0.23792 0.70369
 C3511 C 0.52185 0.24316 0.69847
 C3512 C 0.52613 0.23899 0.68832
 H3513 H 0.55951 0.21701 0.63784
 H3514 H 0.53384 0.19136 0.63796
 H3515 H 0.54313 0.18179 0.62229
 H3516 H 0.56894 0.20760 0.62217
 H3517 H 0.50788 0.21719 0.68427
 H3518 H 0.50032 0.22440 0.70206
 H3519 H 0.52604 0.25027 0.70240
 H3520 H 0.53347 0.24293 0.68461
 C3521 C 1.05720 0.20736 0.13603
 C3522 C 1.04725 0.20288 0.14048
 C3523 C 1.04250 0.19323 0.13563
 C3524 C 1.04759 0.18814 0.12630
 C3525 C 1.05755 0.19263 0.12167
 C3526 C 1.06232 0.20228 0.12671
 C3527 C 1.04190 0.20821 0.14998
 C3528 C 1.03741 0.21268 0.15792
 C3529 C 1.03218 0.21788 0.16726
 C3530 C 1.02778 0.22225 0.17531
 C3531 C 1.02265 0.22735 0.18505
 C3532 C 1.01310 0.22244 0.18991
 C3533 C 1.00850 0.22697 0.19977
 C3534 C 1.01342 0.23649 0.20493
 C3535 C 1.02287 0.24151 0.19981
 C3536 C 1.02744 0.23695 0.18994
 H3537 H 1.06097 0.21481 0.13975
 H3538 H 1.03480 0.18968 0.13902
 H3539 H 1.04363 0.18076 0.12271
 H3540 H 1.06999 0.20598 0.12349
 H3541 H 1.00934 0.21498 0.18621
 H3542 H 1.00128 0.22284 0.20350
 H3543 H 1.02692 0.24878 0.20356
 H3544 H 1.03486 0.24080 0.18626
 C3545 C 0.61541 0.20882 0.69467
 C3546 C 0.61096 0.20429 0.70459
 C3547 C 0.61551 0.19437 0.70905
 C3548 C 0.62452 0.18903 0.70365
 C3549 C 0.62913 0.19354 0.69369
 C3550 C 0.62441 0.20350 0.68926
 C3551 C 0.60169 0.20978 0.71016
 C3552 C 0.59387 0.21432 0.71477
 C3553 C 0.58459 0.21955 0.72006
 C3554 C 0.57651 0.22388 0.72443
 C3555 C 0.56664 0.22884 0.72941
 C3556 C 0.56152 0.22371 0.73870
 C3557 C 0.55136 0.22793 0.74292
 C3558 C 0.54616 0.23732 0.73786
 C3559 C 0.55159 0.24264 0.72875
 C3560 C 0.56175 0.23841 0.72456
 H3561 H 0.61192 0.21648 0.69113
 H3562 H 0.61210 0.19077 0.71671
 H3563 H 0.62783 0.18139 0.70735
 H3564 H 0.62765 0.20726 0.68162
 H3565 H 0.56522 0.21628 0.74250
 H3566 H 0.54741 0.22359 0.74991
 H3567 H 0.54783 0.24987 0.72463
 H3568 H 0.56563 0.24243 0.71734
 C3569 C 1.11431 0.20777 0.19358
 C3570 C 1.10977 0.20318 0.20343
 C3571 C 1.11441 0.19335 0.20798
 C3572 C 1.12358 0.18814 0.20274
 C3573 C 1.12828 0.19270 0.19284
 C3574 C 1.12349 0.20258 0.18831
 C3575 C 1.10032 0.20853 0.20884
 C3576 C 1.09237 0.21296 0.21335
 C3577 C 1.08299 0.21808 0.21856
 C3578 C 1.07488 0.22236 0.22292
 C3579 C 1.06503 0.22734 0.22796
 C3580 C 1.06006 0.22233 0.23739
 C3581 C 1.05010 0.22674 0.24187
 C3582 C 1.04495 0.23623 0.23694
 C3583 C 1.05017 0.24135 0.22759
 C3584 C 1.06013 0.23692 0.22314
 H3585 H 1.11076 0.21537 0.18996
 H3586 H 1.11093 0.18971 0.21560
 H3587 H 1.12695 0.18056 0.20651
 H3588 H 1.12679 0.20637 0.18073
 H3589 H 1.06377 0.21488 0.24116
 H3590 H 1.04630 0.22253 0.24901
 H3591 H 1.04642 0.24862 0.22354
 H3592 H 1.06389 0.24084 0.21581
 C3593 C 0.13450 0.69458 0.54072
 C3594 C 0.13898 0.70455 0.54516
 C3595 C 0.13448 0.70910 0.55505
 C3596 C 0.12549 0.70376 0.56046
 C3597 C 0.12085 0.69374 0.55605
 C3598 C 0.12551 0.68921 0.54611
 C3599 C 0.14825 0.71004 0.53961
 C3600 C 0.15608 0.71460 0.53503
 C3601 C 0.16537 0.71983 0.52977
 C3602 C 0.17345 0.72417 0.52543
 C3603 C 0.18333 0.72915 0.52047
 C3604 C 0.18829 0.73864 0.52544
 C3605 C 0.19845 0.74288 0.52127
 C3606 C 0.20382 0.73764 0.51206
 C3607 C 0.19855 0.72833 0.50689
 C3608 C 0.18839 0.72411 0.51109
 H3609 H 0.13795 0.69095 0.53308
 H3610 H 0.13791 0.71680 0.55859
 H3611 H 0.12222 0.70753 0.56808
 H3612 H 0.12225 0.68153 0.54242
 H3613 H 0.18446 0.74258 0.53274
 H3614 H 0.20226 0.75003 0.52548
 H3615 H 0.20245 0.72406 0.49982
 H3616 H 0.18464 0.71674 0.50720
 C3617 C 0.13613 0.20728 1.05689
 C3618 C 0.14071 0.20263 1.04707
 C3619 C 0.13604 0.19281 1.04249
 C3620 C 0.12677 0.18770 1.04766
 C3621 C 0.12202 0.19235 1.05750
 C3622 C 0.12686 0.20219 1.06207
 C3623 C 0.15017 0.20795 1.04166
 C3624 C 0.15810 0.21239 1.03714
 C3625 C 0.16744 0.21754 1.03189
 C3626 C 0.17550 0.22187 1.02749
 C3627 C 0.18527 0.22692 1.02241
 C3628 C 0.19026 0.22192 1.01296
 C3629 C 0.20016 0.22642 1.00844
 C3630 C 0.20523 0.23600 1.01333
 C3631 C 0.19998 0.24110 1.02268
 C3632 C 0.19008 0.23658 1.02718
 H3633 H 0.13971 0.21487 1.06052
 H3634 H 0.13953 0.18913 1.03490
 H3635 H 0.12331 0.18018 1.04383
 H3636 H 0.12354 0.20600 1.06966
 H3637 H 0.18662 0.21442 1.00922
 H3638 H 0.20398 0.22223 1.00129
 H3639 H 0.20366 0.24843 1.02671
 H3640 H 0.18631 0.24050 1.03452
 C3641 C 0.63552 0.55646 0.20809
 C3642 C 0.64014 0.54661 0.20354
 C3643 C 0.63559 0.54200 0.19368
 C3644 C 0.62643 0.54719 0.18841
 C3645 C 0.62165 0.55709 0.19293
 C3646 C 0.62636 0.56167 0.20283
 C3647 C 0.64957 0.54124 0.20897
 C3648 C 0.65750 0.53678 0.21348
 C3649 C 0.66687 0.53162 0.21867
 C3650 C 0.67498 0.52730 0.22300
 C3651 C 0.68484 0.52229 0.22799
 C3652 C 0.68978 0.51279 0.22304
 C3653 C 0.69978 0.50837 0.22741
 C3654 C 0.70501 0.51343 0.23681
 C3655 C 0.69980 0.52282 0.24189
 C3656 C 0.68980 0.52721 0.23749
 H3657 H 0.63900 0.56012 0.21571
 H3658 H 0.63913 0.53439 0.19007
 H3659 H 0.62312 0.54339 0.18081
 H3660 H 0.62299 0.56926 0.20660
 H3661 H 0.68602 0.50893 0.21565
 H3662 H 0.70356 0.50118 0.22324
 H3663 H 0.70360 0.52696 0.24909
 H3664 H 0.68605 0.53459 0.24137
 C3665 C 0.63426 1.05573 0.70861
 C3666 C 0.63891 1.04592 0.70400
 C3667 C 0.63445 1.04144 0.69404
 C3668 C 0.62532 1.04669 0.68875
 C3669 C 0.62049 1.05652 0.69336
 C3670 C 0.62513 1.06100 0.70334
 C3671 C 0.64826 1.04046 0.70948
 C3672 C 0.65611 1.03590 0.71404
 C3673 C 0.66540 1.03065 0.71930
 C3674 C 0.67346 1.02627 0.72368
 C3675 C 0.68330 1.02125 0.72870
 C3676 C 0.68823 1.01172 0.72379
 C3677 C 0.69832 1.00740 0.72808
 C3678 C 0.70364 1.01258 0.73736
 C3679 C 0.69839 1.02194 0.74247
 C3680 C 0.68831 1.02624 0.73815
 H3681 H 0.63767 1.05929 0.71631
 H3682 H 0.63802 1.03387 0.69036
 H3683 H 0.62209 1.04301 0.68106
 H3684 H 0.62168 1.06850 0.70720
 H3685 H 0.68444 1.00781 0.71645
 H3686 H 0.70211 1.00022 0.72391
 H3687 H 0.70225 1.02617 0.74959
 H3688 H 0.68458 1.03364 0.74201
 C3689 C 0.86578 0.45942 0.30597
 C3690 C 0.86116 0.45490 0.29610
 C3691 C 0.86557 0.44494 0.29158
 C3692 C 0.87461 0.43954 0.29687
 C3693 C 0.87940 0.44404 0.30677
 C3694 C 0.87482 0.45404 0.31127
 C3695 C 0.85186 0.46044 0.29063
 C3696 C 0.84401 0.46501 0.28607
 C3697 C 0.83472 0.47024 0.28080
 C3698 C 0.82665 0.47456 0.27640
 C3699 C 0.81679 0.47950 0.27136
 C3700 C 0.81184 0.47445 0.26191
 C3701 C 0.80171 0.47864 0.25759
 C3702 C 0.79636 0.48793 0.26270
 C3703 C 0.80161 0.49317 0.27198
 C3704 C 0.81174 0.48896 0.27628
 H3705 H 0.86239 0.46711 0.30956
 H3706 H 0.86204 0.44135 0.28396
 H3707 H 0.87784 0.43189 0.29311
 H3708 H 0.87817 0.45776 0.31889
 H3709 H 0.81566 0.46710 0.25805
 H3710 H 0.79791 0.47437 0.25046
 H3711 H 0.79773 0.50031 0.27615
 H3712 H 0.81549 0.49292 0.28362
 C3713 C 0.86429 0.95804 0.80686
 C3714 C 0.85963 0.95343 0.79706
 C3715 C 0.86419 0.94356 0.79248
 C3716 C 0.87341 0.93836 0.79764
 C3717 C 0.87823 0.94295 0.80749
 C3718 C 0.87351 0.95286 0.81205
 C3719 C 0.85015 0.95879 0.79173
 C3720 C 0.84218 0.96324 0.78727
 C3721 C 0.83278 0.96837 0.78211
 C3722 C 0.82465 0.97265 0.77777
 C3723 C 0.81480 0.97760 0.77272
 C3724 C 0.80983 0.97253 0.76329
 C3725 C 0.79988 0.97691 0.75878
 C3726 C 0.79474 0.98645 0.76365
 C3727 C 0.79995 0.99163 0.77299
 C3728 C 0.80991 0.98722 0.77748
 H3729 H 0.86080 0.96567 0.81050
 H3730 H 0.86063 0.93990 0.78491
 H3731 H 0.87673 0.93076 0.79385
 H3732 H 0.87690 0.95667 0.81960
 H3733 H 0.81354 0.96505 0.75956
 H3734 H 0.79609 0.97267 0.75163
 H3735 H 0.79621 0.99894 0.77699
 H3736 H 0.81367 0.99119 0.78480
 C3737 C 0.38509 0.30611 0.79191
 C3738 C 0.38992 0.29646 0.79665
 C3739 C 0.38556 0.29204 0.80665
 C3740 C 0.37635 0.29721 0.81189
 C3741 C 0.37136 0.30691 0.80718
 C3742 C 0.37588 0.31130 0.79713
 C3743 C 0.39939 0.29112 0.79127
 C3744 C 0.40736 0.28666 0.78682
 C3745 C 0.41676 0.28150 0.78168
 C3746 C 0.42490 0.27719 0.77739
 C3747 C 0.43476 0.27221 0.77239
 C3748 C 0.43967 0.26265 0.77724
 C3749 C 0.44965 0.25822 0.77282
 C3750 C 0.45487 0.26332 0.76347
 C3751 C 0.44972 0.27280 0.75851
 C3752 C 0.43974 0.27720 0.76295
 H3753 H 0.38843 0.30963 0.78418
 H3754 H 0.38926 0.28459 0.81041
 H3755 H 0.37320 0.29356 0.81960
 H3756 H 0.37234 0.31873 0.79321
 H3757 H 0.43591 0.25874 0.78458
 H3758 H 0.45340 0.25096 0.77689
 H3759 H 0.45351 0.27698 0.75134
 H3760 H 0.43603 0.28463 0.75915
 C3761 C 0.88428 0.30480 0.29122
 C3762 C 0.88857 0.29477 0.29566
 C3763 C 0.88383 0.29020 0.30543
 C3764 C 0.87480 0.29563 0.31072
 C3765 C 0.87037 0.30572 0.30630
 C3766 C 0.87526 0.31025 0.29648
 C3767 C 0.89789 0.28922 0.29024
 C3768 C 0.90576 0.28466 0.28572
 C3769 C 0.91510 0.27946 0.28051
 C3770 C 0.92322 0.27517 0.27617
 C3771 C 0.93314 0.27028 0.27121
 C3772 C 0.93823 0.26089 0.27621
 C3773 C 0.94840 0.25671 0.27198
 C3774 C 0.95366 0.26191 0.26270
 C3775 C 0.94827 0.27113 0.25752
 C3776 C 0.93810 0.27529 0.26176
 H3777 H 0.88791 0.30844 0.28367
 H3778 H 0.88711 0.28245 0.30897
 H3779 H 0.87134 0.29185 0.31824
 H3780 H 0.87216 0.31798 0.29280
 H3781 H 0.93449 0.25696 0.28355
 H3782 H 0.95231 0.24963 0.27621
 H3783 H 0.95207 0.27537 0.25039
 H3784 H 0.93424 0.28258 0.25785
 C3785 C 0.36446 0.79225 0.44311
 C3786 C 0.35987 0.79678 0.45298
 C3787 C 0.36449 0.80658 0.45763
 C3788 C 0.37369 0.81182 0.45248
 C3789 C 0.37843 0.80732 0.44256
 C3790 C 0.37366 0.79747 0.43793
 C3791 C 0.35041 0.79139 0.45831
 C3792 C 0.34245 0.78693 0.46276
 C3793 C 0.33306 0.78178 0.46792
 C3794 C 0.32494 0.77748 0.47225
 C3795 C 0.31511 0.77251 0.47730
 C3796 C 0.31017 0.77753 0.48676
 C3797 C 0.30023 0.77311 0.49127
 C3798 C 0.29508 0.76359 0.48635
 C3799 C 0.30026 0.75847 0.47697
 C3800 C 0.31020 0.76292 0.47248
 H3801 H 0.36093 0.78467 0.43941
 H3802 H 0.36098 0.81018 0.46526
 H3803 H 0.37705 0.81937 0.45633
 H3804 H 0.37699 0.79372 0.43033
 H3805 H 0.31388 0.78498 0.49053
 H3806 H 0.29646 0.77730 0.49845
 H3807 H 0.29651 0.75119 0.47293
 H3808 H 0.31393 0.75899 0.46513
 C3809 C 0.36573 0.30558 0.95910
 C3810 C 0.36102 0.29581 0.95446
 C3811 C 0.36532 0.29143 0.94439
 C3812 C 0.37433 0.29675 0.93901
 C3813 C 0.37921 0.30656 0.94362
 C3814 C 0.37476 0.31092 0.95373
 C3815 C 0.35173 0.29030 0.95997
 C3816 C 0.34389 0.28571 0.96451
 C3817 C 0.33461 0.28041 0.96971
 C3818 C 0.32654 0.27600 0.97401
 C3819 C 0.31669 0.27094 0.97894
 C3820 C 0.31161 0.26163 0.97377
 C3821 C 0.30149 0.25731 0.97798
 C3822 C 0.29629 0.26229 0.98742
 C3823 C 0.30168 0.27144 0.99277
 C3824 C 0.31179 0.27573 0.98854
 H3825 H 0.36244 0.30906 0.96687
 H3826 H 0.36170 0.28389 0.94070
 H3827 H 0.37744 0.29312 0.93126
 H3828 H 0.37821 0.31844 0.95757
 H3829 H 0.31531 0.25788 0.96631
 H3830 H 0.29758 0.25030 0.97362
 H3831 H 0.29792 0.27551 1.00002
 H3832 H 0.31564 0.28296 0.99259
 C3833 C 0.79067 0.44451 0.36566
 C3834 C 0.79515 0.45444 0.36116
 C3835 C 0.80508 0.45894 0.36563
 C3836 C 0.81049 0.45359 0.37462
 C3837 C 0.80603 0.44362 0.37929
 C3838 C 0.79606 0.43914 0.37465
 C3839 C 0.78961 0.45995 0.35189
 C3840 C 0.78503 0.46452 0.34406
 C3841 C 0.77980 0.46978 0.33477
 C3842 C 0.77548 0.47413 0.32668
 C3843 C 0.77056 0.47912 0.31678
 C3844 C 0.77559 0.48855 0.31182
 C3845 C 0.77145 0.49279 0.30164
 C3846 C 0.76223 0.48759 0.29624
 C3847 C 0.75700 0.47833 0.30151
 C3848 C 0.76116 0.47412 0.31170
 H3849 H 0.78300 0.44093 0.36223
 H3850 H 0.80864 0.46660 0.36218
 H3851 H 0.81813 0.45732 0.37788
 H3852 H 0.79234 0.43150 0.37794
 H3853 H 0.78289 0.49246 0.31567
 H3854 H 0.77570 0.49990 0.29782
 H3855 H 0.74991 0.47410 0.29760
 H3856 H 0.75723 0.46679 0.31545
 C3857 C 0.80594 0.95808 0.86451
 C3858 C 0.79608 0.95349 0.85996
 C3859 C 0.79154 0.94364 0.86457
 C3860 C 0.79679 0.93843 0.87374
 C3861 C 0.80669 0.94300 0.87845
 C3862 C 0.81121 0.95289 0.87368
 C3863 C 0.79065 0.95885 0.85053
 C3864 C 0.78615 0.96332 0.84260
 C3865 C 0.78095 0.96849 0.83324
 C3866 C 0.77661 0.97281 0.82514
 C3867 C 0.77161 0.97782 0.81529
 C3868 C 0.76213 0.97287 0.81030
 C3869 C 0.75772 0.97728 0.80031
 C3870 C 0.76276 0.98671 0.79514
 C3871 C 0.77213 0.99178 0.80039
 C3872 C 0.77652 0.98735 0.81038
 H3873 H 0.80954 0.96569 0.86098
 H3874 H 0.78392 0.94000 0.86109
 H3875 H 0.79302 0.93085 0.87710
 H3876 H 0.81880 0.95669 0.87699
 H3877 H 0.75829 0.96547 0.81401
 H3878 H 0.75055 0.97312 0.79649
 H3879 H 0.77627 0.99899 0.79664
 H3880 H 0.78388 0.99122 0.81416
 C3881 C 0.30685 0.79235 0.38575
 C3882 C 0.29700 0.79693 0.39031
 C3883 C 0.29238 0.80672 0.38564
 C3884 C 0.29754 0.81187 0.37639
 C3885 C 0.30741 0.80728 0.37165
 C3886 C 0.31203 0.79747 0.37650
 C3887 C 0.29162 0.79159 0.39977
 C3888 C 0.28711 0.78714 0.40770
 C3889 C 0.28189 0.78197 0.41704
 C3890 C 0.27751 0.77764 0.42511
 C3891 C 0.27243 0.77260 0.43489
 C3892 C 0.26295 0.77756 0.43984
 C3893 C 0.25844 0.77309 0.44976
 C3894 C 0.26338 0.76358 0.45488
 C3895 C 0.27275 0.75850 0.44966
 C3896 C 0.27724 0.76299 0.43975
 H3897 H 0.31051 0.78478 0.38932
 H3898 H 0.28476 0.81035 0.38912
 H3899 H 0.29368 0.81936 0.37292
 H3900 H 0.31964 0.79372 0.37319
 H3901 H 0.25918 0.78503 0.43617
 H3902 H 0.25127 0.77727 0.45356
 H3903 H 0.27681 0.75122 0.45338
 H3904 H 0.28460 0.75910 0.43599
 C3905 C 0.30513 0.29114 0.88465
 C3906 C 0.29519 0.29566 0.88908
 C3907 C 0.29073 0.30557 0.88451
 C3908 C 0.29614 0.31092 0.87553
 C3909 C 0.30613 0.30643 0.87095
 C3910 C 0.31057 0.29647 0.87567
 C3911 C 0.28964 0.29020 0.89836
 C3912 C 0.28505 0.28567 0.90620
 C3913 C 0.27979 0.28045 0.91550
 C3914 C 0.27546 0.27611 0.92359
 C3915 C 0.27055 0.27112 0.93348
 C3916 C 0.26116 0.27611 0.93858
 C3917 C 0.25700 0.27186 0.94874
 C3918 C 0.26220 0.26256 0.95397
 C3919 C 0.27142 0.25738 0.94857
 C3920 C 0.27556 0.26165 0.93841
 H3921 H 0.30869 0.28349 0.88814
 H3922 H 0.28305 0.30917 0.88790
 H3923 H 0.29244 0.31855 0.87221
 H3924 H 0.31822 0.29272 0.87245
 H3925 H 0.25724 0.28346 0.93485
 H3926 H 0.24993 0.27609 0.95266
 H3927 H 0.27566 0.25024 0.95235
 H3928 H 0.28285 0.25774 0.93455
 C3929 C 0.45803 0.30656 0.86445
 C3930 C 0.45350 0.29667 0.85988
 C3931 C 0.44367 0.29207 0.86445
 C3932 C 0.43841 0.29730 0.87361
 C3933 C 0.44291 0.30723 0.87835
 C3934 C 0.45279 0.31180 0.87361
 C3935 C 0.45891 0.29126 0.85046
 C3936 C 0.46340 0.28674 0.84255
 C3937 C 0.46857 0.28152 0.83320
 C3938 C 0.47289 0.27714 0.82511
 C3939 C 0.47788 0.27208 0.81528
 C3940 C 0.47286 0.26263 0.81028
 C3941 C 0.47725 0.25817 0.80030
 C3942 C 0.48674 0.26311 0.79516
 C3943 C 0.49188 0.27244 0.80043
 C3944 C 0.48746 0.27689 0.81041
 H3945 H 0.46562 0.31021 0.86095
 H3946 H 0.44008 0.28443 0.86095
 H3947 H 0.43084 0.29349 0.87694
 H3948 H 0.45654 0.31941 0.87695
 H3949 H 0.46541 0.25887 0.81397
 H3950 H 0.47304 0.25102 0.79647
 H3951 H 0.49914 0.27651 0.79670
 H3952 H 0.49139 0.28422 0.81419
 C3953 C 0.95927 0.30549 0.36570
 C3954 C 0.95481 0.29555 0.36118
 C3955 C 0.94490 0.29102 0.36566
 C3956 C 0.93950 0.29637 0.37467
 C3957 C 0.94395 0.30635 0.37935
 C3958 C 0.95390 0.31085 0.37471
 C3959 C 0.96034 0.29004 0.35189
 C3960 C 0.96491 0.28548 0.34405
 C3961 C 0.97014 0.28022 0.33475
 C3962 C 0.97447 0.27586 0.32665
 C3963 C 0.97939 0.27087 0.31676
 C3964 C 0.97436 0.26144 0.31176
 C3965 C 0.97851 0.25719 0.30159
 C3966 C 0.98775 0.26235 0.29624
 C3967 C 0.99299 0.27160 0.30155
 C3968 C 0.98882 0.27583 0.31172
 H3969 H 0.96692 0.30909 0.36226
 H3970 H 0.94134 0.28335 0.36219
 H3971 H 0.93188 0.29261 0.37793
 H3972 H 0.95761 0.31850 0.37800
 H3973 H 0.96703 0.25755 0.31557
 H3974 H 0.97424 0.25008 0.29774
 H3975 H 1.00009 0.27581 0.29767
 H3976 H 0.99276 0.28316 0.31551
 C3977 C 0.45737 0.36408 0.80702
 C3978 C 0.45336 0.36006 0.79668
 C3979 C 0.44414 0.36532 0.79154
 C3980 C 0.43897 0.37458 0.79669
 C3981 C 0.44295 0.37872 0.80709
 C3982 C 0.45220 0.37334 0.81220
 C3983 C 0.45867 0.35053 0.79135
 C3984 C 0.46307 0.34253 0.78689
 C3985 C 0.46815 0.33309 0.78171
 C3986 C 0.47241 0.32494 0.77736
 C3987 C 0.47736 0.31507 0.77231
 C3988 C 0.47238 0.31013 0.76282
 C3989 C 0.47678 0.30016 0.75831
 C3990 C 0.48625 0.29498 0.76325
 C3991 C 0.49133 0.30016 0.77266
 C3992 C 0.48691 0.31012 0.77715
 H3993 H 0.46450 0.36008 0.81108
 H3994 H 0.44094 0.36225 0.78356
 H3995 H 0.43182 0.37840 0.79254
 H3996 H 0.45557 0.37631 0.82014
 H3997 H 0.46496 0.31387 0.75903
 H3998 H 0.47260 0.29639 0.75111
 H3999 H 0.49858 0.29639 0.77673
 H4000 H 0.49081 0.31385 0.78452
 C4001 C 0.95859 0.36528 0.30572
 C4002 C 0.95404 0.36083 0.29579
 C4003 C 0.94420 0.36546 0.29127
 C4004 C 0.93896 0.37459 0.29659
 C4005 C 0.94352 0.37923 0.30653
 C4006 C 0.95337 0.37441 0.31106
 C4007 C 0.95948 0.35150 0.29024
 C4008 C 0.96401 0.34366 0.28562
 C4009 C 0.96923 0.33439 0.28030
 C4010 C 0.97358 0.32633 0.27589
 C4011 C 0.97858 0.31649 0.27085
 C4012 C 0.97351 0.31140 0.26149
 C4013 C 0.97777 0.30127 0.25721
 C4014 C 0.98716 0.29607 0.26227
 C4015 C 0.99242 0.30147 0.27145
 C4016 C 0.98814 0.31160 0.27571
 H4017 H 0.96619 0.36172 0.30932
 H4018 H 0.94059 0.36205 0.28359
 H4019 H 0.93143 0.37804 0.29279
 H4020 H 0.95710 0.37764 0.31872
 H4021 H 0.96608 0.31510 0.25768
 H4022 H 0.97348 0.29735 0.25016
 H4023 H 0.99964 0.29771 0.27558
 H4024 H 0.99212 0.31545 0.28298
 C4025 C 0.29250 0.86452 0.44362
 C4026 C 0.29708 0.86000 0.45349
 C4027 C 0.30691 0.86464 0.45805
 C4028 C 0.31212 0.87381 0.45280
 C4029 C 0.30756 0.87849 0.44288
 C4030 C 0.29769 0.87369 0.43835
 C4031 C 0.29171 0.85058 0.45893
 C4032 C 0.28725 0.84265 0.46345
 C4033 C 0.28210 0.83330 0.46868
 C4034 C 0.27778 0.82521 0.47304
 C4035 C 0.27276 0.81538 0.47808
 C4036 C 0.27775 0.81038 0.48752
 C4037 C 0.27331 0.80042 0.49197
 C4038 C 0.26381 0.79530 0.48702
 C4039 C 0.25870 0.80056 0.47768
 C4040 C 0.26316 0.81052 0.47325
 H4041 H 0.28490 0.86097 0.44000
 H4042 H 0.31054 0.86119 0.46568
 H4043 H 0.31969 0.87719 0.45657
 H4044 H 0.29390 0.87698 0.43075
 H4045 H 0.28521 0.81406 0.49130
 H4046 H 0.27750 0.79659 0.49911
 H4047 H 0.25142 0.79685 0.47361
 H4048 H 0.25925 0.81431 0.46592
 C4049 C 0.30573 0.36545 0.95924
 C4050 C 0.29577 0.36096 0.95483
 C4051 C 0.29119 0.36545 0.94495
 C4052 C 0.29652 0.37444 0.93951
 C4053 C 0.30653 0.37909 0.94390
 C4054 C 0.31108 0.37444 0.95383
 C4055 C 0.29028 0.35170 0.96041
 C4056 C 0.28573 0.34388 0.96502
 C4057 C 0.28050 0.33461 0.97031
 C4058 C 0.27616 0.32654 0.97468
 C4059 C 0.27117 0.31667 0.97966
 C4060 C 0.26167 0.31173 0.97472
 C4061 C 0.25743 0.30157 0.97892
 C4062 C 0.26266 0.29620 0.98812
 C4063 C 0.27199 0.30146 0.99327
 C4064 C 0.27621 0.31162 0.98904
 H4065 H 0.30937 0.36201 0.96688
 H4066 H 0.28350 0.36200 0.94143
 H4067 H 0.29273 0.37770 0.93190
 H4068 H 0.31875 0.37771 0.95750
 H4069 H 0.25773 0.31556 0.96743
 H4070 H 0.25026 0.29777 0.97473
 H4071 H 0.27625 0.29757 1.00033
 H4072 H 0.28360 0.31536 0.99291
 C4073 C 0.79110 0.38445 0.30515
 C4074 C 0.79563 0.38892 0.29524
 C4075 C 0.80554 0.38438 0.29078
 C4076 C 0.81088 0.37536 0.29616
 C4077 C 0.80636 0.37072 0.30611
 C4078 C 0.79641 0.37543 0.31055
 C4079 C 0.79016 0.39821 0.28969
 C4080 C 0.78562 0.40605 0.28510
 C4081 C 0.78043 0.41536 0.27982
 C4082 C 0.77612 0.42346 0.27546
 C4083 C 0.77120 0.43336 0.27048
 C4084 C 0.77635 0.43847 0.26119
 C4085 C 0.77218 0.44865 0.25698
 C4086 C 0.76280 0.45389 0.26204
 C4087 C 0.75747 0.44847 0.27114
 C4088 C 0.76166 0.43829 0.27533
 H4089 H 0.78344 0.38793 0.30870
 H4090 H 0.80915 0.38781 0.28313
 H4091 H 0.81851 0.37205 0.29246
 H4092 H 0.79265 0.37217 0.31817
 H4093 H 0.78376 0.43474 0.25739
 H4094 H 0.77652 0.45258 0.24999
 H4095 H 0.75026 0.45226 0.27527
 H4096 H 0.75763 0.43442 0.28255
   
