data_POSCAR
  _audit_creation_date              2014-09-24
  _audit_creation_method            'ToBaCCo'
  _symmetry_space_group_name_H-M    'P1'
  _symmetry_Int_Tables_number       1
  _symmetry_cell_setting            triclinic
  loop_
  _symmetry_equiv_pos_as_xyz
 x,y,z
_cell_length_a 28.6088
_cell_length_b 28.2077
_cell_length_c 35.6414
_cell_angle_alpha 89.865100
_cell_angle_beta 90.089600
_cell_angle_gamma 89.564000
loop_
  _atom_site_label
  _atom_site_type_symbol
  _atom_site_fract_x
  _atom_site_fract_y
  _atom_site_fract_z
Zr1 Zr 0.23576 0.24634 0.31190
 O2 O 0.26822 0.28283 0.35669
 O3 O 0.18693 0.20441 0.34045
 O4 O 0.18837 0.29134 0.34001
 O5 O 0.32658 0.16564 0.30278
 O6 O 0.15367 0.33505 0.29366
 O7 O 0.27877 0.20165 0.34551
 O8 O 0.14733 0.16743 0.29351
 O9 O 0.17683 0.24881 0.27701
 O10 O 0.23823 0.18442 0.27994
 O11 O 0.24173 0.30934 0.28049
 O12 O 0.30059 0.24810 0.28370
 Zr13 Zr 0.24796 0.25078 0.18145
 Zr14 Zr 0.18435 0.30975 0.24387
 Zr15 Zr 0.30053 0.18751 0.24967
 Zr16 Zr 0.18115 0.18813 0.24375
 O17 O 0.37437 0.19161 0.25070
 O18 O 0.10841 0.19903 0.23597
 O19 O 0.24323 0.18699 0.21250
 O20 O 0.18410 0.24905 0.21027
 O21 O 0.24635 0.31318 0.21304
 O22 O 0.30686 0.24826 0.21644
 C23 C 0.15435 0.17718 0.32830
 C24 C 0.31341 0.17423 0.33677
 C25 C 0.15973 0.32365 0.32832
 O26 O 0.11108 0.30456 0.23737
 O27 O 0.16532 0.33968 0.19162
 O28 O 0.20615 0.29756 0.14838
 C29 C 0.17616 0.33000 0.15733
 O30 O 0.33172 0.33357 0.30086
 Zr31 Zr 0.30356 0.30877 0.24935
 O32 O 0.29459 0.29397 0.15212
 O33 O 0.19061 0.38433 0.24718
 O34 O 0.29303 0.38325 0.25086
 O35 O 0.37705 0.29824 0.24989
 O36 O 0.32947 0.33668 0.19862
 C37 C 0.32263 0.32594 0.16400
 O38 O 0.21269 0.21788 0.13635
 O39 O 0.29356 0.11293 0.25169
 O40 O 0.29212 0.20257 0.15333
 O41 O 0.32681 0.15811 0.19942
 O42 O 0.18820 0.11344 0.24849
 O43 O 0.16322 0.15677 0.19154
 C44 C 0.31932 0.16882 0.16474
 H45 H 0.23711 0.15544 0.29564
 H46 H 0.15741 0.24925 0.19255
 H47 H 0.33661 0.24724 0.20232
 H48 H 0.24160 0.33750 0.29701
 H49 H 0.09310 0.16799 0.23971
 H50 H 0.09870 0.33745 0.23650
 H51 H 0.15874 0.39783 0.24412
 H52 H 0.32345 0.39832 0.24536
 H53 H 0.15640 0.10035 0.25168
 H54 H 0.32556 0.09967 0.25439
 H55 H 0.38644 0.15859 0.25113
 H56 H 0.39168 0.32922 0.24436
 H57 H 0.13732 0.13415 0.19518
 H58 H 0.22817 0.22817 0.11282
 H59 H 0.25400 0.27129 0.38037
 H60 H 0.35392 0.35957 0.29579
 Zr61 Zr 0.75538 0.74911 0.31686
 O62 O 0.72231 0.70831 0.35892
 O63 O 0.79648 0.79446 0.34902
 O64 O 0.80506 0.70734 0.34603
 O65 O 0.66476 0.82977 0.30500
 O66 O 0.84452 0.66733 0.30018
 O67 O 0.70959 0.79196 0.34921
 O68 O 0.83349 0.83934 0.30486
 O69 O 0.81647 0.75154 0.28443
 O70 O 0.75069 0.81134 0.28506
 O71 O 0.75565 0.68689 0.28445
 O72 O 0.69199 0.74454 0.28677
 Zr73 Zr 0.74909 0.74793 0.18614
 Zr74 Zr 0.81448 0.69157 0.24947
 Zr75 Zr 0.69026 0.80549 0.25281
 Zr76 Zr 0.81014 0.81284 0.25208
 O77 O 0.61714 0.79523 0.25479
 O78 O 0.88367 0.80315 0.25296
 O79 O 0.74951 0.81071 0.21831
 O80 O 0.81176 0.75326 0.21684
 O81 O 0.75375 0.68503 0.21722
 O82 O 0.68883 0.74532 0.21923
 C83 C 0.82382 0.82807 0.33916
 C84 C 0.67753 0.82191 0.33922
 C85 C 0.83650 0.67755 0.33484
 O86 O 0.88749 0.70110 0.24502
 O87 O 0.83806 0.66548 0.19673
 O88 O 0.79226 0.70322 0.15336
 C89 C 0.82511 0.67390 0.16255
 O90 O 0.66669 0.65747 0.30272
 Zr91 Zr 0.69497 0.68458 0.25197
 O92 O 0.70583 0.70264 0.15520
 O93 O 0.81263 0.61663 0.25114
 O94 O 0.70974 0.61080 0.25331
 O95 O 0.62097 0.68951 0.25031
 O96 O 0.67296 0.65638 0.20059
 C97 C 0.68028 0.66803 0.16626
 O98 O 0.78412 0.78618 0.14352
 O99 O 0.69145 0.88037 0.25019
 O100 O 0.70374 0.79359 0.15641
 O101 O 0.66292 0.83265 0.20207
 O102 O 0.79742 0.88701 0.25217
 O103 O 0.83606 0.84531 0.20249
 C104 C 0.67325 0.82415 0.16760
 H105 H 0.74907 0.84061 0.30015
 H106 H 0.83905 0.75525 0.19988
 H107 H 0.65956 0.74468 0.20439
 H108 H 0.75706 0.65831 0.30060
 H109 H 0.89760 0.83372 0.26057
 H110 H 0.90172 0.66898 0.24421
 H111 H 0.84543 0.60539 0.24913
 H112 H 0.68042 0.59406 0.24707
 H113 H 0.82698 0.90270 0.25936
 H114 H 0.65891 0.89155 0.25421
 H115 H 0.60254 0.82718 0.25384
 H116 H 0.60887 0.65746 0.24469
 H117 H 0.86255 0.86614 0.20901
 H118 H 0.77213 0.77485 0.11900
 H119 H 0.73388 0.71998 0.38345
 H120 H 0.64660 0.62993 0.29715
 Zr121 Zr 0.76066 0.24832 -0.31526
 O122 O 0.72897 0.28285 -0.36174
 O123 O 0.81248 0.20627 -0.34127
 O124 O 0.80728 0.29471 -0.34230
 O125 O 0.67541 0.16493 -0.30708
 O126 O 0.83541 0.34204 -0.29566
 O127 O 0.72178 0.20232 -0.34979
 O128 O 0.85103 0.17127 -0.29244
 O129 O 0.81753 0.25385 -0.27860
 O130 O 0.75982 0.18715 -0.28197
 O131 O 0.74903 0.31141 -0.28521
 O132 O 0.69442 0.24759 -0.28894
 Zr133 Zr 0.74131 0.25405 -0.18501
 Zr134 Zr 0.80429 0.31491 -0.24684
 Zr135 Zr 0.69619 0.18820 -0.25348
 Zr136 Zr 0.81487 0.19379 -0.24424
 O137 O 0.62245 0.18632 -0.25814
 O138 O 0.88641 0.20944 -0.23569
 O139 O 0.75150 0.19027 -0.21479
 O140 O 0.80658 0.25502 -0.21199
 O141 O 0.74088 0.31578 -0.21787
 O142 O 0.68436 0.24892 -0.22170
 C143 C 0.84503 0.17936 -0.32765
 C144 C 0.68952 0.17282 -0.34091
 C145 C 0.83260 0.32894 -0.33006
 O146 O 0.87766 0.31390 -0.23931
 O147 O 0.81953 0.34555 -0.19467
 O148 O 0.77912 0.30277 -0.15141
 C149 C 0.80813 0.33562 -0.16063
 O150 O 0.65869 0.33122 -0.30858
 Zr151 Zr 0.68584 0.30850 -0.25592
 O152 O 0.69141 0.29660 -0.15840
 O153 O 0.79269 0.38897 -0.25051
 O154 O 0.69174 0.38336 -0.25838
 O155 O 0.61337 0.29358 -0.25884
 O156 O 0.65596 0.33640 -0.20677
 C157 C 0.66283 0.32753 -0.17182
 O158 O 0.77462 0.22220 -0.13807
 O159 O 0.70964 0.11452 -0.25201
 O160 O 0.69905 0.20382 -0.15731
 O161 O 0.66668 0.16010 -0.20394
 O162 O 0.81288 0.11870 -0.24676
 O163 O 0.83246 0.16505 -0.19081
 C164 C 0.67252 0.17005 -0.16900
 H165 H 0.76315 0.15774 -0.29688
 H166 H 0.83249 0.25668 -0.19362
 H167 H 0.65398 0.24688 -0.20856
 H168 H 0.74830 0.33926 -0.30216
 H169 H 0.90388 0.17907 -0.23718
 H170 H 0.88790 0.34738 -0.23929
 H171 H 0.82338 0.40437 -0.24681
 H172 H 0.66015 0.39705 -0.25431
 H173 H 0.84562 0.10700 -0.24785
 H174 H 0.67978 0.09911 -0.25855
 H175 H 0.61344 0.15246 -0.25890
 H176 H 0.59626 0.32356 -0.25378
 H177 H 0.86093 0.14509 -0.19289
 H178 H 0.75823 0.23356 -0.11522
 H179 H 0.74536 0.27188 -0.38470
 H180 H 0.63415 0.35562 -0.30451
 Zr181 Zr 0.25867 0.74769 -0.31905
 O182 O 0.29457 0.70512 -0.35875
 O183 O 0.22029 0.79423 -0.35376
 O184 O 0.21265 0.70184 -0.34790
 O185 O 0.34915 0.82343 -0.30797
 O186 O 0.17562 0.66094 -0.30140
 O187 O 0.30544 0.78640 -0.35227
 O188 O 0.16801 0.82508 -0.31258
 O189 O 0.19600 0.74789 -0.28883
 O190 O 0.25760 0.81218 -0.29009
 O191 O 0.26219 0.68769 -0.28392
 O192 O 0.32031 0.74858 -0.28610
 Zr193 Zr 0.25693 0.75567 -0.18836
 Zr194 Zr 0.20132 0.69038 -0.25143
 Zr195 Zr 0.31627 0.81190 -0.25537
 Zr196 Zr 0.19621 0.81132 -0.25887
 O197 O 0.38976 0.81067 -0.24843
 O198 O 0.12307 0.80014 -0.25609
 O199 O 0.25474 0.81630 -0.22315
 O200 O 0.19621 0.75388 -0.22147
 O201 O 0.25978 0.69062 -0.21645
 O202 O 0.31937 0.75434 -0.21890
 C203 C 0.18477 0.82061 -0.34598
 C204 C 0.34075 0.81139 -0.34243
 C205 C 0.18458 0.66942 -0.33611
 O206 O 0.12770 0.69561 -0.24766
 O207 O 0.18443 0.66075 -0.19866
 O208 O 0.21337 0.71169 -0.15536
 C209 C 0.19086 0.67386 -0.16435
 O210 O 0.35430 0.66091 -0.29595
 Zr211 Zr 0.32042 0.69121 -0.24860
 O212 O 0.29976 0.71482 -0.15332
 O213 O 0.20708 0.61561 -0.25247
 O214 O 0.31021 0.61689 -0.24584
 O215 O 0.39357 0.70218 -0.24522
 O216 O 0.34120 0.66903 -0.19463
 C217 C 0.32974 0.68244 -0.16141
 O218 O 0.21643 0.79457 -0.14929
 O219 O 0.30880 0.88588 -0.26342
 O220 O 0.29922 0.80425 -0.15922
 O221 O 0.33816 0.84497 -0.20478
 O222 O 0.20170 0.88537 -0.26825
 O223 O 0.17067 0.84824 -0.21110
 C224 C 0.32819 0.83632 -0.17007
 H225 H 0.25890 0.84007 -0.30695
 H226 H 0.16787 0.75477 -0.20557
 H227 H 0.34759 0.75644 -0.20293
 H228 H 0.26398 0.65816 -0.29883
 H229 H 0.10746 0.82946 -0.26525
 H230 H 0.11600 0.66270 -0.24634
 H231 H 0.17509 0.60270 -0.24989
 H232 H 0.33991 0.60232 -0.23706
 H233 H 0.17027 0.89719 -0.27558
 H234 H 0.34080 0.89841 -0.26654
 H235 H 0.40097 0.84333 -0.25307
 H236 H 0.40801 0.67224 -0.23612
 H237 H 0.14447 0.86938 -0.21860
 H238 H 0.22797 0.78600 -0.12387
 H239 H 0.28305 0.71430 -0.38405
 H240 H 0.37582 0.63536 -0.28749
 Zr241 Zr 1.24368 1.24632 0.82117
 O242 O 1.20925 1.20882 0.86453
 O243 O 1.28927 1.28797 0.85318
 O244 O 1.28850 1.19935 0.85033
 O245 O 1.15317 1.32706 0.80820
 O246 O 1.32548 1.15744 0.80425
 O247 O 1.19734 1.28876 0.85260
 O248 O 1.32853 1.33063 0.80932
 O249 O 1.30485 1.24509 0.78910
 O250 O 1.24265 1.30917 0.78987
 O251 O 1.23958 1.18435 0.78881
 O252 O 1.18053 1.24628 0.79044
 Zr253 Zr 1.23800 1.24463 0.69029
 Zr254 Zr 1.29883 1.18549 0.75425
 Zr255 Zr 1.18263 1.30712 0.75638
 Zr256 Zr 1.30221 1.30671 0.75674
 O257 O 1.10880 1.30368 0.75393
 O258 O 1.37521 1.29314 0.75656
 O259 O 1.24229 1.30785 0.72211
 O260 O 1.30038 1.24698 0.72158
 O261 O 1.23812 1.18225 0.72187
 O262 O 1.17733 1.24685 0.72290
 C263 C 1.31896 1.31977 0.84373
 C264 C 1.16368 1.31641 0.84236
 C265 C 1.31671 1.16674 0.83875
 O266 O 1.37261 1.19001 0.75290
 O267 O 1.32390 1.15917 0.70276
 O268 O 1.27944 1.19681 0.65854
 C269 C 1.31168 1.16719 0.66858
 O270 O 1.14841 1.16365 0.80749
 Zr271 Zr 1.17903 1.18628 0.75624
 O272 O 1.19276 1.20010 0.65985
 O273 O 1.29099 1.11105 0.75242
 O274 O 1.18710 1.11157 0.75959
 O275 O 1.10570 1.19752 0.75333
 O276 O 1.15630 1.15746 0.70563
 C277 C 1.16537 1.16701 0.67127
 O278 O 1.27596 1.27735 0.64649
 O279 O 1.18962 1.38160 0.75977
 O280 O 1.19617 1.29343 0.66047
 O281 O 1.16009 1.33827 0.70532
 O282 O 1.29300 1.38136 0.75799
 O283 O 1.32967 1.33812 0.70726
 C284 C 1.16942 1.32788 0.67090
 H285 H 1.24220 1.33789 0.80580
 H286 H 1.32803 1.24734 0.70492
 H287 H 1.14848 1.24811 0.70754
 H288 H 1.23861 1.15559 0.80474
 H289 H 1.39096 1.32283 0.76404
 H290 H 1.38493 1.15707 0.75305
 H291 H 1.32290 1.09710 0.75238
 H292 H 1.15627 1.09734 0.75411
 H293 H 1.32339 1.39544 0.76507
 H294 H 1.15755 1.39491 0.76149
 H295 H 1.09695 1.33679 0.75413
 H296 H 1.09108 1.16644 0.74825
 H297 H 1.35625 1.35875 0.71398
 H298 H 1.26169 1.26731 0.62240
 H299 H 1.22189 1.22029 0.88880
 H300 H 1.12493 1.13889 0.80234
 Zr301 Zr 0.74911 0.75742 0.81516
 O302 O 0.78405 0.80101 0.85438
 O303 O 0.70847 0.71460 0.85099
 O304 O 0.70238 0.80283 0.84345
 O305 O 0.84123 0.67909 0.80432
 O306 O 0.66048 0.83924 0.79684
 O307 O 0.79834 0.71977 0.84781
 O308 O 0.66457 0.67323 0.80931
 O309 O 0.68657 0.75368 0.78484
 O310 O 0.75127 0.69249 0.78709
 O311 O 0.74913 0.81683 0.77926
 O312 O 0.81033 0.75900 0.78202
 Zr313 Zr 0.74793 0.74695 0.68440
 Zr314 Zr 0.68820 0.81080 0.74717
 Zr315 Zr 0.80984 0.69489 0.75230
 Zr316 Zr 0.69022 0.68998 0.75542
 O317 O 0.88340 0.70199 0.75233
 O318 O 0.61660 0.69927 0.75423
 O319 O 0.74899 0.68697 0.71986
 O320 O 0.68712 0.74675 0.71746
 O321 O 0.74638 0.81251 0.71184
 O322 O 0.81014 0.75190 0.71506
 C323 C 0.67615 0.68472 0.84307
 C324 C 0.83230 0.69234 0.83808
 C325 C 0.67121 0.83227 0.83142
 O326 O 0.61492 0.80223 0.74394
 O327 O 0.66691 0.83827 0.69507
 O328 O 0.70334 0.79095 0.65200
 C329 C 0.67639 0.82583 0.66129
 O330 O 0.84014 0.84834 0.79013
 Zr331 Zr 0.80710 0.81566 0.74353
 O332 O 0.78702 0.78848 0.64785
 O333 O 0.69102 0.88583 0.74719
 O334 O 0.79211 0.88928 0.74017
 O335 O 0.88083 0.80901 0.73960
 O336 O 0.82486 0.83769 0.68836
 C337 C 0.81421 0.82314 0.65505
 O338 O 0.70998 0.70452 0.64634
 O339 O 0.80581 0.62032 0.75733
 O340 O 0.79407 0.70078 0.65544
 O341 O 0.83615 0.66490 0.70224
 O342 O 0.70056 0.61613 0.76353
 O343 O 0.66494 0.65243 0.70799
 C344 C 0.82677 0.67268 0.66734
 H345 H 0.75341 0.66505 0.80441
 H346 H 0.65884 0.74438 0.70155
 H347 H 0.83859 0.75146 0.69934
 H348 H 0.74949 0.84658 0.79383
 H349 H 0.60247 0.66943 0.76336
 H350 H 0.60114 0.83455 0.74325
 H351 H 0.65844 0.89785 0.74523
 H352 H 0.82045 0.90502 0.73037
 H353 H 0.66994 0.60246 0.77042
 H354 H 0.83841 0.60853 0.75942
 H355 H 0.89697 0.66953 0.75202
 H356 H 0.89272 0.83930 0.72936
 H357 H 0.63922 0.63127 0.71572
 H358 H 0.71976 0.71417 0.62078
 H359 H 0.77334 0.79159 0.87979
 H360 H 0.85925 0.87525 0.78124
 Zr361 Zr 1.24840 0.75504 0.18555
 O362 O 1.20922 0.79400 0.14540
 O363 O 1.29024 0.71215 0.15085
 O364 O 1.29222 0.80008 0.15384
 O365 O 1.16324 0.67125 0.20298
 O366 O 1.33420 0.83954 0.19829
 O367 O 1.20106 0.71120 0.15629
 O368 O 1.33747 0.67339 0.19275
 O369 O 1.31224 0.75402 0.21450
 O370 O 1.24998 0.69211 0.21670
 O371 O 1.24793 0.81686 0.21865
 O372 O 1.18828 0.75740 0.22000
 Zr373 Zr 1.25520 0.75342 0.31656
 Zr374 Zr 1.31000 0.81336 0.24963
 Zr375 Zr 1.19276 0.69573 0.25296
 Zr376 Zr 1.31210 0.69207 0.24659
 O377 O 1.11909 0.70292 0.25443
 O378 O 1.38574 0.70008 0.24680
 O379 O 1.25506 0.69105 0.28398
 O380 O 1.31444 0.75129 0.28168
 O381 O 1.25338 0.81714 0.28631
 O382 O 1.19174 0.75514 0.28742
 C383 C 1.32431 0.68401 0.15912
 C384 C 1.17148 0.68044 0.16834
 C385 C 1.32277 0.83088 0.16414
 O386 O 1.38388 0.81318 0.24954
 O387 O 1.33847 0.83898 0.29968
 O388 O 1.29995 0.79947 0.34619
 C389 C 1.33006 0.82971 0.33429
 O390 O 1.15602 0.84488 0.20796
 Zr391 Zr 1.19128 0.81676 0.25571
 O392 O 1.21562 0.79724 0.35136
 O393 O 1.30087 0.88774 0.25075
 O394 O 1.20217 0.89103 0.25503
 O395 O 1.11809 0.80836 0.26192
 O396 O 1.17433 0.84289 0.30973
 C397 C 1.18642 0.83039 0.34323
 O398 O 1.29575 0.71503 0.35616
 O399 O 1.19887 0.62097 0.25422
 O400 O 1.21259 0.70742 0.34836
 O401 O 1.16888 0.66883 0.30444
 O402 O 1.30213 0.61793 0.24136
 O403 O 1.33974 0.65809 0.29518
 C404 C 1.18079 0.67777 0.33844
 H405 H 1.24896 0.66339 0.20087
 H406 H 1.34354 0.74995 0.29664
 H407 H 1.16398 0.75506 0.30394
 H408 H 1.24622 0.84577 0.20288
 H409 H 1.39969 0.66957 0.23859
 H410 H 1.39371 0.78813 0.23177
 H411 H 1.33264 0.90149 0.24987
 H412 H 1.17303 0.90641 0.26405
 H413 H 1.33225 0.60396 0.23304
 H414 H 1.16670 0.60830 0.25280
 H415 H 1.10613 0.67049 0.25603
 H416 H 1.10514 0.83922 0.27037
 H417 H 1.36302 0.63376 0.28766
 H418 H 1.28576 0.72578 0.38140
 H419 H 1.21938 0.78293 0.12028
 H420 H 1.13482 0.87092 0.21583
 Zr421 Zr 0.75385 1.24686 0.18385
 O422 O 0.79084 1.20767 0.14279
 O423 O 0.70845 1.28629 0.14994
 O424 O 0.70893 1.20047 0.15460
 O425 O 0.84249 1.32874 0.19744
 O426 O 0.66818 1.16298 0.20091
 O427 O 0.79942 1.29089 0.15258
 O428 O 0.66878 1.33167 0.19182
 O429 O 0.69178 1.24880 0.21495
 O430 O 0.75454 1.31053 0.21389
 O431 O 0.75525 1.18575 0.21773
 O432 O 0.81598 1.24559 0.21576
 Zr433 Zr 0.75579 1.25032 0.31484
 Zr434 Zr 0.69517 1.19034 0.25130
 Zr435 Zr 0.81365 1.30759 0.24840
 Zr436 Zr 0.69421 1.31131 0.24580
 O437 O 0.88744 1.30116 0.24951
 O438 O 0.62102 1.30009 0.24627
 O439 O 0.75332 1.31234 0.28146
 O440 O 0.69411 1.25303 0.28249
 O441 O 0.75488 1.18648 0.28509
 O442 O 0.81698 1.24841 0.28301
 C443 C 0.67811 1.31823 0.15790
 C444 C 0.83167 1.31975 0.16331
 C445 C 0.67830 1.17041 0.16620
 O446 O 0.62148 1.19717 0.25190
 O447 O 0.66900 1.16714 0.30351
 O448 O 0.71290 1.20572 0.34721
 C449 C 0.68069 1.17655 0.33759
 O450 O 0.84513 1.15819 0.20198
 Zr451 Zr 0.81470 1.18659 0.25152
 O452 O 0.79942 1.20608 0.34742
 O453 O 0.70127 1.11572 0.25451
 O454 O 0.80309 1.11242 0.25308
 O455 O 0.88838 1.19425 0.25335
 O456 O 0.83773 1.16159 0.30359
 C457 C 0.82867 1.17357 0.33750
 O458 O 0.71842 1.28889 0.35614
 O459 O 0.80723 1.38231 0.24586
 O460 O 0.79940 1.29693 0.34467
 O461 O 0.83869 1.33695 0.29892
 O462 O 0.70344 1.38563 0.24106
 O463 O 0.66711 1.34654 0.29383
 C464 C 0.82908 1.32793 0.33344
 H465 H 0.75505 1.33899 0.19762
 H466 H 0.66610 1.25509 0.29870
 H467 H 0.84589 1.24911 0.29829
 H468 H 0.75579 1.15641 0.20255
 H469 H 0.60585 1.32972 0.23730
 H470 H 0.60870 1.16461 0.25237
 H471 H 0.66901 1.10324 0.25562
 H472 H 0.83315 1.09681 0.25969
 H473 H 0.67314 1.39957 0.23300
 H474 H 0.83940 1.39498 0.24453
 H475 H 0.90017 1.33375 0.24982
 H476 H 0.90208 1.16292 0.25991
 H477 H 0.64066 1.36732 0.28626
 H478 H 0.73015 1.27830 0.38103
 H479 H 0.77926 1.21859 0.11796
 H480 H 0.86566 1.13102 0.20863
 O481 O 0.47144 1.08183 0.04639
 O482 O 0.53316 0.92226 0.04708
 O483 O 0.42324 0.97511 0.04787
 O484 O 0.58045 1.02873 0.04699
 O485 O 0.45428 0.91005 0.03012
 O486 O 0.55020 1.09341 0.02796
 O487 O 0.59521 0.94979 0.02442
 O488 O 0.40952 1.05313 0.02409
 C489 C 0.42863 1.07750 0.04853
 C490 C 0.57560 0.92844 0.05059
 C491 C 0.43077 0.93263 0.05388
 C492 C 0.57248 1.07116 0.05262
 O493 O 0.52340 1.08240 -0.04637
 O494 O 0.47807 0.91774 -0.04512
 O495 O 0.42043 1.02070 -0.04603
 O496 O 0.58172 0.98170 -0.04655
 O497 O 0.55887 0.91462 -0.02707
 O498 O 0.44509 1.08750 -0.02752
 O499 O 0.58829 1.06163 -0.02369
 O500 O 0.41484 0.94148 -0.02160
 Co501 Co 0.49810 1.07821 0.00018
 Co502 Co 0.50575 0.92430 0.00113
 Co503 Co 0.42572 0.99807 0.00098
 Co504 Co 0.57792 1.00508 0.00022
 O505 O 0.50188 1.00139 0.00075
 C506 C 0.56603 1.07989 -0.04996
 C507 C 0.43492 0.92010 -0.04737
 C508 C 0.42454 1.06358 -0.05180
 C509 C 0.57978 0.93859 -0.05137
 O510 O 0.97982 0.58170 0.54763
 O511 O 1.02972 0.41686 0.54414
 O512 O 0.92602 0.47460 0.55055
 O513 O 1.08531 0.51883 0.54725
 O514 O 0.95001 0.40990 0.52724
 O515 O 1.05886 0.58588 0.52930
 O516 O 1.09256 0.43987 0.52090
 O517 O 0.91575 0.55626 0.52753
 C518 C 0.93757 0.57662 0.55286
 C519 C 1.07258 0.41879 0.54662
 C520 C 0.93214 0.43118 0.55435
 C521 C 1.08071 0.56189 0.55327
 O522 O 1.03329 0.58104 0.45491
 O523 O 0.97296 0.42239 0.45293
 O524 O 0.92034 0.52590 0.45716
 O525 O 1.08077 0.47616 0.45184
 O526 O 1.05270 0.41029 0.46926
 O527 O 0.95289 0.59051 0.47415
 O528 O 1.09575 0.55332 0.47741
 O529 O 0.91065 0.44587 0.47833
 Co530 Co 1.00589 0.57665 0.50129
 Co531 Co 1.00166 0.42293 0.49851
 Co532 Co 0.92685 0.50038 0.50350
 Co533 Co 1.07973 0.49711 0.49970
 O534 O 1.00344 0.49937 0.50064
 C535 C 1.07604 0.57490 0.45136
 C536 C 0.92999 0.42712 0.45075
 C537 C 0.92879 0.56811 0.45100
 C538 C 1.07326 0.43415 0.44509
 O539 O 1.05350 0.47841 0.05522
 O540 O 1.04470 0.55303 -0.07806
 O541 O 1.01425 0.41075 -0.03672
 O542 O 1.06307 0.56971 0.03689
 O543 O 1.05077 0.46529 -0.06807
 O544 O 1.01769 0.55179 0.08074
 O545 O 1.07410 0.57921 -0.02738
 O546 O 1.02766 0.41508 0.03090
 C547 C 1.05750 0.43508 0.05100
 C548 C 1.07665 0.57414 -0.06180
 C549 C 1.04624 0.42294 -0.05900
 C550 C 1.05320 0.57305 0.07056
 O551 O 0.93857 0.53402 0.05117
 O552 O 0.96141 0.46027 -0.07597
 O553 O 0.93874 0.44923 0.03964
 O554 O 0.98309 0.60615 -0.03810
 O555 O 0.95563 0.54931 -0.07470
 O556 O 0.97560 0.46950 0.09015
 O557 O 0.97103 0.59903 0.03205
 O558 O 0.92554 0.44747 -0.02544
 Co559 Co 0.99583 0.50432 0.05058
 Co560 Co 1.00292 0.50698 -0.06733
 Co561 Co 0.97893 0.43733 0.00129
 Co562 Co 1.02057 0.58210 0.00046
 O563 O 1.00160 0.50992 -0.00597
 C564 C 0.93807 0.57834 0.04921
 C565 C 0.92618 0.44495 -0.05997
 C566 C 0.94541 0.44198 0.07420
 C567 C 0.95633 0.59194 -0.06432
 O568 O 0.55624 0.97932 0.56637
 O569 O 0.56079 1.03963 0.44259
 O570 O 0.56354 0.92680 0.47733
 O571 O 0.55447 1.08749 0.52608
 O572 O 0.53976 0.95995 0.42737
 O573 O 0.52555 1.05865 0.57523
 O574 O 0.53001 1.10283 0.46220
 O575 O 0.53669 0.91502 0.53992
 C576 C 0.56502 0.93691 0.55960
 C577 C 0.56260 1.08296 0.44521
 C578 C 0.56953 0.93477 0.44359
 C579 C 0.55869 1.07959 0.56030
 O580 O 0.43683 1.02635 0.56174
 O581 O 0.44839 0.98344 0.43156
 O582 O 0.44709 0.91646 0.51844
 O583 O 0.43868 1.08608 0.48145
 O584 O 0.47024 1.06538 0.43039
 O585 O 0.46843 0.94840 0.56911
 O586 O 0.46204 1.09372 0.54617
 O587 O 0.47449 0.91770 0.45330
 Co588 Co 0.49664 1.00376 0.56112
 Co589 Co 0.50434 1.01179 0.43995
 Co590 Co 0.50475 0.92799 0.49739
 Co591 Co 0.49663 1.08362 0.50364
 O592 O 0.50023 1.00643 0.50049
 C593 C 0.43157 1.06981 0.56218
 C594 C 0.44679 0.93953 0.43241
 C595 C 0.44534 0.91757 0.55333
 C596 C 0.43672 1.08449 0.44667
 O597 O 1.07111 1.06112 0.46756
 O598 O 0.94194 1.06204 0.53776
 O599 O 0.94718 1.01642 0.42755
 O600 O 1.04151 1.01081 0.58021
 O601 O 0.93369 1.06385 0.47240
 O602 O 1.06148 1.06064 0.53775
 O603 O 0.95659 1.01234 0.58093
 O604 O 1.03356 1.02241 0.42376
 C605 C 1.05913 1.05644 0.43396
 C606 C 0.94370 1.05315 0.57157
 C607 C 0.93379 1.05614 0.43857
 C608 C 1.06019 1.04931 0.57122
 O609 O 1.09533 0.97085 0.53882
 O610 O 0.89962 0.97386 0.47174
 O611 O 1.04170 0.93191 0.44060
 O612 O 0.95846 0.92559 0.54519
 O613 O 0.90285 0.97435 0.54056
 O614 O 1.09606 0.97233 0.46933
 O615 O 1.03932 0.92351 0.54854
 O616 O 0.95434 0.92763 0.45188
 Co617 Co 1.07293 1.01442 0.50375
 Co618 Co 0.92619 1.01609 0.50539
 Co619 Co 0.99421 0.97641 0.44249
 Co620 Co 0.99867 0.97076 0.55875
 O621 O 0.99856 0.99501 0.50229
 C622 C 1.08148 0.93095 0.54961
 C623 C 0.91199 0.93635 0.45513
 C624 C 1.08354 0.93908 0.44826
 C625 C 0.91664 0.93361 0.54878
 O626 O 0.58102 0.56028 -0.01637
 O627 O 0.41844 0.56370 0.01916
 O628 O 0.46984 0.56053 -0.06074
 O629 O 0.53003 0.55608 0.06562
 O630 O 0.40713 0.53053 -0.04297
 O631 O 0.59153 0.52356 0.04590
 O632 O 0.44964 0.54133 0.07107
 O633 O 0.54777 0.53959 -0.06753
 C634 C 0.57406 0.56748 -0.05045
 C635 C 0.42570 0.57099 0.05297
 C636 C 0.42723 0.56368 -0.05864
 C637 C 0.57299 0.55439 0.06541
 O638 O 0.57810 0.43842 0.01745
 O639 O 0.41686 0.44302 -0.01572
 O640 O 0.52533 0.44515 -0.06338
 O641 O 0.46880 0.44429 0.06404
 O642 O 0.40674 0.47762 0.04716
 O643 O 0.58856 0.47333 -0.04413
 O644 O 0.54779 0.45976 0.06941
 O645 O 0.44577 0.46536 -0.06795
 Co646 Co 0.57526 0.49932 0.00082
 Co647 Co 0.42126 0.50341 0.00185
 Co648 Co 0.49706 0.50258 -0.05872
 Co649 Co 0.49879 0.50053 0.06147
 O650 O 0.49811 0.50161 0.00140
 C651 C 0.57142 0.43015 0.05121
 C652 C 0.42176 0.43611 -0.04993
 C653 C 0.56835 0.44463 -0.06430
 C654 C 0.42601 0.44402 0.06332
 C655 C 0.41957 1.11235 0.11212
 C656 C 0.39268 1.13219 0.14082
 C657 C 0.34493 1.14177 0.13555
 C658 C 0.32386 1.13016 0.10081
 C659 C 0.35189 1.11436 0.07053
 C660 C 0.39991 1.10293 0.07686
 C661 C 0.33053 1.11146 0.03485
 N662 N 0.28371 1.11772 0.03125
 N663 N 0.25677 1.12724 0.06070
 C664 C 0.27523 1.13339 0.09534
 H665 H 0.45600 1.10409 0.11760
 H666 H 0.40948 1.14076 0.16718
 H667 H 0.35024 1.10563 0.00951
 H668 H 0.25166 1.13979 0.11842
 C669 C 0.86276 0.60149 0.58249
 C670 C 0.83595 0.62537 0.60916
 C671 C 0.85709 0.64903 0.63900
 C672 C 0.90672 0.64883 0.64160
 C673 C 0.93409 0.62167 0.61597
 C674 C 0.91194 0.59941 0.58483
 C675 C 0.98257 0.61808 0.62289
 N676 N 1.00243 0.64379 0.65066
 N677 N 0.97726 0.67265 0.67223
 C678 C 0.93025 0.67622 0.66849
 H679 H 0.84450 0.58478 0.55946
 H680 H 0.79822 0.62535 0.60642
 H681 H 1.00510 0.59445 0.60752
 H682 H 0.91193 0.70131 0.68594
 C683 C 0.58191 0.86493 0.09866
 C684 C 0.60514 0.83925 0.12656
 C685 C 0.64949 0.85270 0.13867
 C686 C 0.67057 0.89339 0.12323
 C687 C 0.64684 0.92020 0.09515
 C688 C 0.60215 0.90511 0.08192
 C689 C 0.66847 0.96191 0.08252
 N690 N 0.71090 0.97469 0.09594
 N691 N 0.73346 0.94876 0.12148
 C692 C 0.71474 0.90862 0.13564
 H693 H 0.54799 0.85252 0.08958
 H694 H 0.58861 0.80821 0.13844
 H695 H 0.65177 0.98563 0.06337
 H696 H 0.73438 0.88926 0.15672
 C697 C 1.07574 0.38537 0.61124
 C698 C 1.09913 0.36551 0.64198
 C699 C 1.14727 0.35639 0.64057
 C700 C 1.17244 0.36927 0.60796
 C701 C 1.14827 0.38523 0.57545
 C702 C 1.09930 0.39515 0.57752
 C703 C 1.17446 0.38956 0.54205
 N704 N 1.22159 0.38434 0.54272
 N705 N 1.24451 0.37438 0.57428
 C706 C 1.22156 0.36683 0.60690
 H707 H 1.03873 0.39296 0.61387
 H708 H 1.07925 0.35623 0.66674
 H709 H 1.15854 0.39547 0.51508
 H710 H 1.24191 0.35975 0.63186
 C711 C 0.61668 1.14234 -0.07520
 C712 C 0.64283 1.16306 -0.10365
 C713 C 0.64551 1.14299 -0.13979
 C714 C 0.62079 1.09974 -0.14640
 C715 C 0.59123 1.08094 -0.11793
 C716 C 0.59030 1.10189 -0.08197
 C717 C 0.56467 1.04040 -0.12589
 N718 N 0.56961 1.01817 -0.15927
 N719 N 0.59949 1.03362 -0.18501
 C720 C 0.62540 1.07309 -0.17962
 H721 H 0.61661 1.15846 -0.04762
 H722 H 0.66111 1.19546 -0.09700
 H723 H 0.54048 1.02581 -0.10575
 H724 H 0.65052 1.08140 -0.20078
 C725 C 1.08486 0.63875 0.40351
 C726 C 1.11031 0.66445 0.37709
 C727 C 1.15615 0.65132 0.36791
 C728 C 1.17596 0.61017 0.38390
 C729 C 1.14930 0.58223 0.40910
 C730 C 1.10364 0.59783 0.42052
 C731 C 1.16905 0.53873 0.42045
 N732 N 1.21283 0.52602 0.40977
 N733 N 1.23847 0.55357 0.38774
 C734 C 1.22145 0.59511 0.37426
 H735 H 1.05028 0.65143 0.41101
 H736 H 1.09426 0.69524 0.36402
 H737 H 1.14985 0.51360 0.43610
 H738 H 1.24346 0.61564 0.35579
 C739 C 0.42776 0.88781 -0.11272
 C740 C 0.40161 0.87037 -0.14300
 C741 C 0.35326 0.86284 -0.13984
 C742 C 0.33112 0.87421 -0.10542
 C743 C 0.35818 0.88701 -0.07358
 C744 C 0.40692 0.89657 -0.07767
 C745 C 0.33502 0.88874 -0.03862
 N746 N 0.28788 0.88485 -0.03691
 N747 N 0.26218 0.87858 -0.06759
 C748 C 0.28218 0.87336 -0.10174
 H749 H 0.46464 0.89455 -0.11678
 H750 H 0.41952 0.86187 -0.16890
 H751 H 0.35349 0.89155 -0.01236
 H752 H 0.25962 0.86939 -0.12582
 C753 C 0.92325 0.36682 0.40026
 C754 C 0.89935 0.34268 0.37210
 C755 C 0.85361 0.35548 0.36239
 C756 C 0.83209 0.39451 0.38021
 C757 C 0.85675 0.42032 0.40809
 C758 C 0.90272 0.40541 0.41920
 C759 C 0.83451 0.46082 0.42280
 N760 N 0.79070 0.47314 0.41175
 N761 N 0.76732 0.44799 0.38653
 C762 C 0.78654 0.40918 0.37030
 H763 H 0.95801 0.35452 0.40771
 H764 H 0.91639 0.31308 0.35828
 H765 H 0.85141 0.48375 0.44207
 H766 H 0.76620 0.39048 0.34952
 C767 C 1.08015 0.40554 0.11343
 C768 C 1.10867 0.38106 0.13862
 C769 C 1.14968 0.35717 0.12715
 C770 C 1.16147 0.35937 0.08803
 C771 C 1.13098 0.38363 0.06217
 C772 C 1.09049 0.40743 0.07518
 C773 C 1.14241 0.38400 0.02394
 N774 N 1.18208 0.36240 0.01206
 N775 N 1.21137 0.34120 0.03593
 C776 C 1.20282 0.33938 0.07332
 H777 H 1.04909 0.42298 0.12413
 H778 H 1.09766 0.38059 0.16767
 H779 H 1.12021 0.40140 0.00345
 H780 H 1.22928 0.32323 0.09066
 C781 C 0.59141 0.86042 0.58651
 C782 C 0.61759 0.83354 0.61163
 C783 C 0.65431 0.85395 0.63131
 C784 C 0.66788 0.90104 0.62281
 C785 C 0.64235 0.92776 0.59575
 C786 C 0.60105 0.90875 0.58023
 C787 C 0.66028 0.97155 0.58412
 N788 N 0.69976 0.98853 0.60021
 N789 N 0.72223 0.96473 0.62717
 C790 C 0.70732 0.92183 0.63937
 H791 H 0.56144 0.84370 0.57364
 H792 H 0.60752 0.79723 0.61721
 H793 H 0.64360 0.99214 0.56217
 H794 H 0.72756 0.90346 0.66065
 C795 C 1.12864 0.64260 -0.07744
 C796 C 1.15734 0.66733 -0.10261
 C797 C 1.17211 0.64647 -0.13661
 C798 C 1.16477 0.59675 -0.14108
 C799 C 1.13567 0.57185 -0.11556
 C800 C 1.11506 0.59573 -0.08458
 C801 C 1.13004 0.52287 -0.12086
 N802 N 1.15288 0.50002 -0.14879
 N803 N 1.18191 0.52273 -0.17154
 C804 C 1.18926 0.56989 -0.16823
 H805 H 1.11451 0.66130 -0.05345
 H806 H 1.16400 0.70441 -0.09697
 H807 H 1.10963 0.50210 -0.10205
 H808 H 1.21615 0.58525 -0.18547
 C809 C 0.57708 1.14162 0.39555
 C810 C 0.60532 1.16271 0.36860
 C811 C 0.65347 1.15367 0.36768
 C812 C 0.67369 1.12319 0.39504
 C813 C 0.64472 1.10128 0.42233
 C814 C 0.59587 1.10998 0.42197
 C815 C 0.66579 1.07145 0.44920
 N816 N 0.71259 1.06352 0.44825
 N817 N 0.73962 1.08335 0.42227
 C818 C 0.72180 1.11270 0.39557
 H819 H 0.53984 1.14854 0.39471
 H820 H 0.58934 1.18613 0.34803
 H821 H 0.64551 1.05458 0.47100
 H822 H 0.74533 1.12734 0.37497
 C823 C 0.92683 0.63285 0.10265
 C824 C 0.90006 0.65378 0.13100
 C825 C 0.85126 0.64962 0.13159
 C826 C 0.82932 0.62353 0.10233
 C827 C 0.85684 0.60148 0.07377
 C828 C 0.90609 0.60588 0.07412
 C829 C 0.83391 0.57608 0.04544
 N830 N 0.78670 0.57223 0.04599
 N831 N 0.76101 0.59210 0.07292
 C832 C 0.78068 0.61749 0.10102
 H833 H 0.96451 0.63626 0.10386
 H834 H 0.91773 0.67365 0.15272
 H835 H 0.85310 0.55949 0.02279
 H836 H 0.75816 0.63241 0.12216
 C837 C 0.41611 1.12582 0.61352
 C838 C 0.38740 1.14922 0.63907
 C839 C 0.33902 1.14221 0.63918
 C840 C 0.31936 1.11032 0.61284
 C841 C 0.34894 1.08530 0.58737
 C842 C 0.39779 1.09337 0.58775
 C843 C 0.32834 1.05361 0.56203
 N844 N 0.28138 1.04726 0.56235
 N845 N 0.25375 1.07051 0.58621
 C846 C 0.27113 1.10176 0.61142
 H847 H 0.45336 1.13247 0.61441
 H848 H 0.40320 1.17329 0.65899
 H849 H 0.34907 1.03392 0.54199
 H850 H 0.24716 1.11970 0.63004
 C851 C 0.90867 0.39866 -0.11635
 C852 C 0.88102 0.37181 -0.13976
 C853 C 0.83432 0.36219 -0.13119
 C854 C 0.81572 0.37985 -0.09684
 C855 C 0.84437 0.40793 -0.07254
 C856 C 0.89166 0.41729 -0.08251
 C857 C 0.82391 0.42675 -0.03990
 N858 N 0.77860 0.41749 -0.03177
 N859 N 0.75223 0.39094 -0.05407
 C860 C 0.76915 0.37188 -0.08622
 H861 H 0.94443 0.40443 -0.12510
 H862 H 0.89682 0.35831 -0.16525
 H863 H 0.84285 0.44941 -0.02100
 H864 H 0.74570 0.35123 -0.10318
 C865 C 0.36954 0.92041 0.40451
 C866 C 0.34069 0.89187 0.38251
 C867 C 0.35959 0.85435 0.36160
 C868 C 0.40817 0.84512 0.36278
 C869 C 0.43759 0.87447 0.38436
 C870 C 0.41787 0.91203 0.40598
 C871 C 0.48613 0.86574 0.38268
 N872 N 0.50332 0.82908 0.36229
 N873 N 0.47536 0.80052 0.34312
 C874 C 0.42846 0.80727 0.34264
 H875 H 0.35402 0.94877 0.42085
 H876 H 0.30358 0.89968 0.38116
 H877 H 0.51081 0.88794 0.39664
 H878 H 0.40756 0.78285 0.32665
 C879 C 1.12270 1.10927 0.41480
 C880 C 1.14518 1.13981 0.39040
 C881 C 1.12456 1.15310 0.35639
 C882 C 1.07793 1.13908 0.34889
 C883 C 1.05555 1.10591 0.37288
 C884 C 1.07862 1.09046 0.40625
 C885 C 1.01052 1.09078 0.36278
 N886 N 0.98851 1.10975 0.33251
 N887 N 1.00841 1.14297 0.31151
 C888 C 1.05217 1.15846 0.31881
 H889 H 1.14106 1.09893 0.44019
 H890 H 1.17980 1.15177 0.39775
 H891 H 0.99217 1.06444 0.37840
 H892 H 1.06564 1.18702 0.30191
 C893 C 0.61240 0.58522 -0.11014
 C894 C 0.63717 0.61261 -0.13518
 C895 C 0.65167 0.65848 -0.12617
 C896 C 0.64085 0.67635 -0.08965
 C897 C 0.61632 0.64716 -0.06327
 C898 C 0.60195 0.60098 -0.07380
 C899 C 0.60523 0.66619 -0.02799
 N900 N 0.61763 0.71120 -0.01952
 N901 N 0.63997 0.73855 -0.04403
 C902 C 0.65173 0.72287 -0.07873
 H903 H 0.60133 0.55068 -0.11973
 H904 H 0.64473 0.59730 -0.16236
 H905 H 0.58623 0.64618 -0.00723
 H906 H 0.66862 0.74745 -0.09736
 C907 C 0.88046 1.10940 0.58730
 C908 C 0.85708 1.14085 0.61076
 C909 C 0.87580 1.15328 0.64566
 C910 C 0.92087 1.13557 0.65558
 C911 C 0.94263 1.10002 0.63325
 C912 C 0.92238 1.08722 0.59840
 C913 C 0.98456 1.07972 0.64634
 N914 N 1.00546 1.09689 0.67759
 N915 N 0.98712 1.13298 0.69667
 C916 C 0.94577 1.15306 0.68659
 H917 H 0.86438 1.10089 0.56069
 H918 H 0.82319 1.15423 0.60196
 H919 H 1.00091 1.05042 0.63229
 H920 H 0.93371 1.18363 0.70198
 C921 C 0.35150 0.60345 0.07776
 C922 C 0.32694 0.63002 0.10439
 C923 C 0.35033 0.66181 0.12790
 C924 C 0.39860 0.66988 0.12229
 C925 C 0.42333 0.64340 0.09483
 C926 C 0.39997 0.60840 0.07364
 C927 C 0.47079 0.65322 0.08919
 N928 N 0.49220 0.68676 0.11017
 N929 N 0.46920 0.71121 0.13630
 C930 C 0.42315 0.70401 0.14305
 H931 H 0.33302 0.57671 0.06193
 H932 H 0.28990 0.62379 0.10811
 H933 H 0.49049 0.63553 0.06749
 H934 H 0.40604 0.72549 0.16414
 C935 C 1.08915 0.87561 0.60240
 C936 C 1.11448 0.85147 0.62939
 C937 C 1.16295 0.84500 0.62615
 C938 C 1.18608 0.86562 0.59437
 C939 C 1.15960 0.89138 0.56700
 C940 C 1.11096 0.89772 0.57190
 C941 C 1.18288 0.91049 0.53581
 N942 N 1.23003 0.90738 0.53352
 N943 N 1.25530 0.88681 0.56045
 C944 C 1.23510 0.86649 0.59084
 H945 H 1.05185 0.87825 0.60656
 H946 H 1.09515 0.83616 0.65256
 H947 H 1.16413 0.92770 0.51319
 H948 H 1.25782 0.85323 0.61254
 C949 C 0.58018 0.38388 0.10939
 C950 C 0.60699 0.35937 0.13549
 C951 C 0.65097 0.34062 0.12632
 C952 C 0.66613 0.34370 0.08795
 C953 C 0.63753 0.36794 0.06084
 C954 C 0.59577 0.39135 0.07254
 C955 C 0.65226 0.36808 0.02309
 N956 N 0.69346 0.34783 0.01336
 N957 N 0.72118 0.32739 0.03865
 C958 C 0.70917 0.32469 0.07531
 H959 H 0.54756 0.39940 0.11899
 H960 H 0.59331 0.35619 0.16370
 H961 H 0.63129 0.38235 0.00065
 H962 H 0.73436 0.30817 0.09346
 C963 C 0.89262 0.86021 0.42529
 C964 C 0.87431 0.83507 0.39511
 C965 C 0.84332 0.85682 0.36997
 C966 C 0.82716 0.90345 0.37742
 C967 C 0.84329 0.92810 0.40969
 C968 C 0.87920 0.90744 0.43230
 C969 C 0.82323 0.97285 0.41735
 N970 N 0.79168 0.99227 0.39332
 N971 N 0.77843 0.97005 0.36227
 C972 C 0.79494 0.92634 0.35359
 H973 H 0.91943 0.84331 0.44230
 H974 H 0.88576 0.79883 0.39054
 H975 H 0.83109 0.99263 0.44227
 H976 H 0.78272 0.90997 0.32814
 C977 C 0.41575 0.38458 -0.10573
 C978 C 0.39063 0.35851 -0.13200
 C979 C 0.34410 0.34571 -0.12561
 C980 C 0.32330 0.35851 -0.09056
 C981 C 0.34979 0.38351 -0.06291
 C982 C 0.39596 0.39881 -0.07142
 C983 C 0.32806 0.39367 -0.02833
 N984 N 0.28284 0.38211 -0.02260
 N985 N 0.25754 0.36114 -0.04897
 C986 C 0.27601 0.34925 -0.08259
 H987 H 0.45096 0.39514 -0.11298
 H988 H 0.40768 0.34903 -0.15808
 H989 H 0.34597 0.40992 -0.00528
 H990 H 0.25277 0.33379 -0.10268
 C991 C 1.12357 0.39948 -0.08248
 C992 C 1.15204 0.37475 -0.10731
 C993 C 1.13426 0.33717 -0.12818
 C994 C 1.08761 0.32248 -0.12262
 C995 C 1.05828 0.34772 -0.09739
 C996 C 1.07633 0.38768 -0.07803
 C997 C 1.01151 0.33299 -0.09395
 N998 N 0.99595 0.29533 -0.11385
 N999 N 1.02373 0.27144 -0.13713
 C1000 C 1.06897 0.28372 -0.14223
 H1001 H 1.13798 0.42978 -0.06798
 H1002 H 1.18744 0.38677 -0.11175
 H1003 H 0.98691 0.35055 -0.07577
 H1004 H 1.08996 0.26305 -0.16151
 C1005 C 0.60992 0.85935 0.42585
 C1006 C 0.63486 0.83162 0.40001
 C1007 C 0.65580 0.85234 0.36849
 C1008 C 0.65485 0.90244 0.36478
 C1009 C 0.62988 0.93048 0.39105
 C1010 C 0.60539 0.90866 0.42106
 C1011 C 0.63112 0.97991 0.38675
 N1012 N 0.65444 0.99994 0.35783
 N1013 N 0.67757 0.97368 0.33304
 C1014 C 0.67900 0.92582 0.33580
 H1015 H 0.59167 0.84175 0.44849
 H1016 H 0.63587 0.79349 0.40368
 H1017 H 0.61534 1.00278 0.40676
 H1018 H 0.70034 0.90685 0.31606
 C1019 C 0.87711 0.61654 -0.08325
 C1020 C 0.84668 0.64104 -0.10703
 C1021 C 0.86384 0.67438 -0.13252
 C1022 C 0.91195 0.68585 -0.13222
 C1023 C 0.94287 0.66131 -0.10777
 C1024 C 0.92523 0.62549 -0.08390
 C1025 C 0.99078 0.67215 -0.10933
 N1026 N 1.00613 0.70609 -0.13323
 N1027 N 0.97694 0.72967 -0.15579
 C1028 C 0.93044 0.72073 -0.15614
 H1029 H 0.86331 0.58889 -0.06533
 H1030 H 0.80995 0.63190 -0.10712
 H1031 H 1.01616 0.65416 -0.09181
 H1032 H 0.90832 0.74111 -0.17492
 C1033 C 0.41912 1.13991 0.39470
 C1034 C 0.38995 1.16012 0.36754
 C1035 C 0.34169 1.15229 0.36772
 C1036 C 0.32278 1.12331 0.39662
 C1037 C 0.35268 1.10292 0.42466
 C1038 C 0.40155 1.11093 0.42345
 C1039 C 0.33272 1.07334 0.45190
 N1040 N 0.28615 1.06467 0.45116
 N1041 N 0.25840 1.08312 0.42477
 C1042 C 0.27517 1.11182 0.39739
 H1043 H 0.45630 1.14619 0.39270
 H1044 H 0.40543 1.18189 0.34582
 H1045 H 0.35371 1.05678 0.47358
 H1046 H 0.25141 1.12455 0.37601
 C1047 C 1.08724 0.64802 0.09221
 C1048 C 1.11761 0.67419 0.11445
 C1049 C 1.14583 0.65153 0.14113
 C1050 C 1.14479 0.60144 0.14454
 C1051 C 1.11243 0.57515 0.12317
 C1052 C 1.08369 0.59877 0.09662
 C1053 C 1.11065 0.52589 0.12874
 N1054 N 1.14074 0.50431 0.15285
 N1055 N 1.17260 0.52878 0.17175
 C1056 C 1.17579 0.57650 0.16830
 H1057 H 1.06559 0.66658 0.07198
 H1058 H 1.11804 0.71245 0.11164
 H1059 H 1.08555 0.50444 0.11444
 H1060 H 1.20312 0.59430 0.18355
 C1061 C 0.61758 1.14299 0.57312
 C1062 C 0.65002 1.16613 0.59622
 C1063 C 0.66640 1.14457 0.62926
 C1064 C 0.65285 1.09776 0.63724
 C1065 C 0.61531 1.07711 0.61741
 C1066 C 0.59783 1.09936 0.58382
 C1067 C 0.59716 1.03512 0.63277
 N1068 N 0.61811 1.01320 0.66230
 N1069 N 0.65663 1.03027 0.67787
 C1070 C 0.67518 1.07146 0.66582
 H1071 H 0.60527 1.16102 0.54808
 H1072 H 0.66056 1.20185 0.58919
 H1073 H 0.56724 1.01881 0.62199
 H1074 H 0.70721 1.08355 0.67863
 C1075 C 0.93431 0.37409 0.11609
 C1076 C 0.90644 0.34233 0.13559
 C1077 C 0.85767 0.34718 0.13545
 C1078 C 0.83645 0.38487 0.11521
 C1079 C 0.86475 0.41660 0.09458
 C1080 C 0.91411 0.41121 0.09560
 C1081 C 0.84261 0.45403 0.07511
 N1082 N 0.79551 0.45937 0.07674
 N1083 N 0.76909 0.43015 0.09681
 C1084 C 0.78796 0.39342 0.11636
 H1085 H 0.97195 0.36953 0.11684
 H1086 H 0.92314 0.31463 0.15206
 H1087 H 0.86213 0.47961 0.05915
 H1088 H 0.76490 0.37152 0.13275
 C1089 C 0.38101 0.85976 0.56726
 C1090 C 0.35558 0.83215 0.59282
 C1091 C 0.37062 0.82664 0.63041
 C1092 C 0.41739 0.83905 0.63885
 C1093 C 0.44295 0.86795 0.61373
 C1094 C 0.42310 0.88094 0.57797
 C1095 C 0.48834 0.88118 0.62526
 N1096 N 0.50745 0.86387 0.65729
 N1097 N 0.48476 0.83344 0.67890
 C1098 C 0.44087 0.81981 0.67041
 H1099 H 0.36631 0.86684 0.53977
 H1100 H 0.32230 0.81838 0.58370
 H1101 H 0.51012 0.90365 0.60919
 H1102 H 0.42557 0.79233 0.68745
 C1103 C 0.39066 1.13658 -0.07830
 C1104 C 0.36273 1.16131 -0.10346
 C1105 C 0.34136 1.13784 -0.13318
 C1106 C 0.34770 1.08819 -0.13741
 C1107 C 0.37905 1.06349 -0.11347
 C1108 C 0.39904 1.08769 -0.08250
 C1109 C 0.38921 1.01567 -0.12188
 N1110 N 0.36560 0.99329 -0.14959
 N1111 N 0.33287 1.01549 -0.16970
 C1112 C 0.32300 1.06206 -0.16445
 H1113 H 0.40541 1.15612 -0.05504
 H1114 H 0.35825 1.19923 -0.09991
 H1115 H 0.41636 0.99596 -0.10767
 H1116 H 0.29526 1.07791 -0.18085
 C1117 C 0.86117 0.61122 0.42480
 C1118 C 0.83980 0.63924 0.39740
 C1119 C 0.86335 0.65127 0.36416
 C1120 C 0.91007 0.63478 0.35908
 C1121 C 0.93052 0.60375 0.38600
 C1122 C 0.90630 0.59324 0.41950
 C1123 C 0.97485 0.58426 0.37847
 N1124 N 0.99870 0.59803 0.34754
 N1125 N 0.98114 0.63001 0.32377
 C1126 C 0.93791 0.64907 0.32862
 H1127 H 0.84235 0.60356 0.45045
 H1128 H 0.80422 0.65117 0.40213
 H1129 H 0.99045 0.55783 0.39663
 H1130 H 0.92650 0.67614 0.30924
 C1131 C 0.60942 1.14311 0.07871
 C1132 C 0.63683 1.16627 0.10521
 C1133 C 0.65219 1.14280 0.13771
 C1134 C 0.63932 1.09470 0.14339
 C1135 C 0.60830 1.07247 0.11795
 C1136 C 0.59540 1.09603 0.08423
 C1137 C 0.59117 1.02729 0.12741
 N1138 N 0.60818 1.00409 0.15791
 N1139 N 0.64096 1.02304 0.17959
 C1140 C 0.65735 1.06728 0.17318
 H1141 H 0.59990 1.16197 0.05327
 H1142 H 0.64606 1.20295 0.10026
 H1143 H 0.56423 1.01024 0.11116
 H1144 H 0.68517 1.07999 0.19078
 C1145 C 1.11042 0.63621 0.58106
 C1146 C 1.13673 0.66216 0.60651
 C1147 C 1.16048 0.63960 0.63580
 C1148 C 1.15793 0.58946 0.63918
 C1149 C 1.12866 0.56311 0.61469
 C1150 C 1.10607 0.58660 0.58416
 C1151 C 1.12312 0.51436 0.62219
 N1152 N 1.14863 0.49305 0.64961
 N1153 N 1.17906 0.51708 0.67028
 C1154 C 1.18469 0.56441 0.66588
 H1155 H 1.09356 0.65553 0.55843
 H1156 H 1.13816 0.70037 0.60346
 H1157 H 1.09814 0.49291 0.60754
 H1158 H 1.21081 0.58178 0.68267
 C1159 C 0.59045 0.86824 -0.09128
 C1160 C 0.61214 0.84212 -0.11933
 C1161 C 0.64768 0.86201 -0.14070
 C1162 C 0.66192 0.90913 -0.13398
 C1163 C 0.64133 0.93556 -0.10433
 C1164 C 0.60438 0.91479 -0.08294
 C1165 C 0.65990 0.98096 -0.09703
 N1166 N 0.69417 0.99886 -0.11898
 N1167 N 0.71204 0.97452 -0.14750
 C1168 C 0.69727 0.93028 -0.15563
 H1169 H 0.56259 0.85147 -0.07569
 H1170 H 0.60107 0.80603 -0.12442
 H1171 H 0.64874 1.00289 -0.07422
 H1172 H 0.71346 0.91210 -0.17886
 C1173 C 1.13909 0.39061 0.41786
 C1174 C 1.15888 0.36205 0.39036
 C1175 C 1.13450 0.35161 0.35720
 C1176 C 1.08877 0.37079 0.35199
 C1177 C 1.06978 0.40195 0.37930
 C1178 C 1.09474 0.41057 0.41278
 C1179 C 1.02602 0.42316 0.37234
 N1180 N 1.00158 0.41149 0.34114
 N1181 N 1.01794 0.37989 0.31667
 C1182 C 1.06042 0.35891 0.32116
 H1183 H 1.15837 0.39679 0.44356
 H1184 H 1.19384 0.34821 0.39504
 H1185 H 1.01123 0.44909 0.39128
 H1186 H 1.07080 0.33232 0.30114
 C1187 C 0.39700 0.85917 0.08029
 C1188 C 0.36858 0.83495 0.10546
 C1189 C 0.34716 0.85885 0.13522
 C1190 C 0.35427 0.90829 0.13947
 C1191 C 0.38599 0.93223 0.11569
 C1192 C 0.40587 0.90783 0.08460
 C1193 C 0.39677 0.97972 0.12433
 N1194 N 0.37348 1.00260 0.15208
 N1195 N 0.34052 0.98121 0.17207
 C1196 C 0.33003 0.93498 0.16662
 H1197 H 0.41166 0.83965 0.05690
 H1198 H 0.36381 0.79713 0.10198
 H1199 H 0.42416 0.99877 0.11020
 H1200 H 0.30224 0.91977 0.18305
 C1201 C 0.87553 0.42633 0.60700
 C1202 C 0.85082 0.40178 0.63445
 C1203 C 0.86137 0.35438 0.64248
 C1204 C 0.89927 0.33192 0.62438
 C1205 C 0.92523 0.35689 0.59685
 C1206 C 0.91195 0.40444 0.58684
 C1207 C 0.96412 0.33323 0.58132
 N1208 N 0.97506 0.28819 0.59162
 N1209 N 0.95007 0.26481 0.61691
 C1210 C 0.91272 0.28520 0.63379
 H1211 H 0.86483 0.46239 0.60061
 H1212 H 0.82222 0.41948 0.64873
 H1213 H 0.98716 0.34995 0.56221
 H1214 H 0.89448 0.26496 0.65486
 C1215 C 1.08484 1.12701 0.59507
 C1216 C 1.11215 1.15597 0.61761
 C1217 C 1.14287 1.13607 0.64382
 C1218 C 1.14736 1.08615 0.64682
 C1219 C 1.11895 1.05650 0.62454
 C1220 C 1.08707 1.07745 0.59847
 C1221 C 1.12488 1.00701 0.62857
 N1222 N 1.15707 0.98910 0.65277
 N1223 N 1.18414 1.01710 0.67324
 C1224 C 1.18051 1.06488 0.67104
 H1225 H 1.06130 1.14345 0.57496
 H1226 H 1.10832 1.19412 0.61536
 H1227 H 1.10481 0.98194 0.61300
 H1228 H 1.20444 1.08573 0.68755
 C1229 C 0.59790 0.63177 0.09015
 C1230 C 0.62545 0.65966 0.11339
 C1231 C 0.65753 0.63855 0.13806
 C1232 C 0.66364 0.58877 0.13843
 C1233 C 0.63506 0.56032 0.11549
 C1234 C 0.60168 0.58229 0.09129
 C1235 C 0.64049 0.51069 0.11826
 N1236 N 0.67367 0.49156 0.14100
 N1237 N 0.70174 0.51857 0.16148
 C1238 C 0.69786 0.56644 0.16102
 H1239 H 0.57375 0.64892 0.07095
 H1240 H 0.62075 0.69782 0.11295
 H1241 H 0.61867 0.48669 0.10305
 H1242 H 0.72207 0.58657 0.17786
 C1243 C 1.14592 0.93213 0.40214
 C1244 C 1.16876 0.90547 0.37496
 C1245 C 1.16505 0.85603 0.37464
 C1246 C 1.14002 0.83268 0.40358
 C1247 C 1.11685 0.85997 0.43117
 C1248 C 1.11838 0.90989 0.42924
 C1249 C 1.09179 0.83645 0.45947
 N1250 N 1.08963 0.78846 0.45956
 N1251 N 1.11053 0.76268 0.43312
 C1252 C 1.13534 0.78309 0.40507
 H1253 H 1.14682 0.97048 0.40025
 H1254 H 1.18823 0.92363 0.35326
 H1255 H 1.07426 0.85581 0.48161
 H1256 H 1.15065 0.76035 0.38415
 C1257 C 0.57548 0.37256 -0.10258
 C1258 C 0.59792 0.34379 -0.12860
 C1259 C 0.63954 0.35841 -0.14509
 C1260 C 0.65959 0.40225 -0.13554
 C1261 C 0.63790 0.43123 -0.10821
 C1262 C 0.59479 0.41601 -0.09175
 C1263 C 0.66019 0.47450 -0.09943
 N1264 N 0.70030 0.48707 -0.11689
 N1265 N 0.72014 0.45973 -0.14273
 C1266 C 0.70113 0.41790 -0.15275
 H1267 H 0.54297 0.36047 -0.09042
 H1268 H 0.58266 0.31005 -0.13607
 H1269 H 0.64696 0.49941 -0.07945
 H1270 H 0.71896 0.39718 -0.17389
 C1271 C 0.88341 1.06939 0.38423
 C1272 C 0.85555 1.09753 0.36157
 C1273 C 0.85421 1.14673 0.36621
 C1274 C 0.88224 1.16821 0.39413
 C1275 C 0.91063 1.13925 0.41760
 C1276 C 0.91002 1.08928 0.41298
 C1277 C 0.94023 1.16158 0.44364
 N1278 N 0.94034 1.20951 0.44636
 N1279 N 0.91333 1.23663 0.42459
 C1280 C 0.88455 1.21770 0.39845
 H1281 H 0.88354 1.03149 0.37952
 H1282 H 0.83514 1.08068 0.33975
 H1283 H 0.96426 1.14175 0.46115
 H1284 H 0.86434 1.24162 0.38113
 C1285 C 0.35767 0.58564 -0.09473
 C1286 C 0.33398 0.61430 -0.12000
 C1287 C 0.35245 0.65788 -0.13051
 C1288 C 0.39385 0.67472 -0.11372
 C1289 C 0.41814 0.64559 -0.08773
 C1290 C 0.40070 0.59971 -0.07964
 C1291 C 0.45869 0.66374 -0.07072
 N1292 N 0.47412 0.70753 -0.08017
 N1293 N 0.45173 0.73445 -0.10527
 C1294 C 0.41213 0.71956 -0.12239
 H1295 H 0.34343 0.55098 -0.08863
 H1296 H 0.30199 0.60152 -0.13269
 H1297 H 0.47777 0.64422 -0.04949
 H1298 H 0.39506 0.74300 -0.14228
 C1299 C 0.91101 0.87512 0.59949
 C1300 C 0.88609 0.85017 0.62603
 C1301 C 0.83769 0.84639 0.62329
 C1302 C 0.81437 0.86543 0.59123
 C1303 C 0.83966 0.89360 0.56526
 C1304 C 0.88820 0.89993 0.57051
 C1305 C 0.81569 0.91319 0.53436
 N1306 N 0.76952 0.90460 0.52964
 N1307 N 0.74589 0.87775 0.55367
 C1308 C 0.76675 0.85788 0.58414
 H1309 H 0.94845 0.87659 0.60298
 H1310 H 0.90487 0.83394 0.64925
 H1311 H 0.83327 0.93422 0.51345
 H1312 H 0.74583 0.83630 0.60225
 C1313 C 0.36323 0.42982 0.10841
 C1314 C 0.33870 0.40148 0.13324
 C1315 C 0.34858 0.35305 0.13600
 C1316 C 0.38341 0.33236 0.11295
 C1317 C 0.40886 0.36139 0.08783
 C1318 C 0.39899 0.41067 0.08619
 C1319 C 0.44283 0.33981 0.06488
 N1320 N 0.45120 0.29254 0.06774
 N1321 N 0.42791 0.26545 0.09187
 C1322 C 0.39437 0.28370 0.11460
 H1323 H 0.35522 0.46743 0.10746
 H1324 H 0.31195 0.41755 0.15069
 H1325 H 0.46242 0.35982 0.04443
 H1326 H 0.37668 0.26004 0.13371
   
