data_POSCAR
  _audit_creation_date              2014-09-24
  _audit_creation_method            'ToBaCCo'
  _symmetry_space_group_name_H-M    'P1'
  _symmetry_Int_Tables_number       1
  _symmetry_cell_setting            triclinic
  loop_
  _symmetry_equiv_pos_as_xyz
 x,y,z
_cell_length_a 37.0371
_cell_length_b 36.9817
_cell_length_c 38.7705
_cell_angle_alpha 90.142400
_cell_angle_beta 90.014000
_cell_angle_gamma 92.260200
loop_
  _atom_site_label
  _atom_site_type_symbol
  _atom_site_fract_x
  _atom_site_fract_y
  _atom_site_fract_z
C1 C 0.38336 -0.04516 0.25215
 C2 C 0.39843 -0.01329 0.23704
 C3 C 0.41925 -0.01538 0.20713
 C4 C 0.42593 -0.04900 0.19242
 C5 C 0.41064 -0.08044 0.20721
 C6 C 0.38923 -0.07917 0.23718
 C7 C 0.40228 0.01993 0.25761
 C8 C 0.42552 0.01835 0.28577
 C9 C 0.43239 0.04845 0.30678
 C10 C 0.41551 0.08081 0.29863
 C11 C 0.39217 0.08340 0.26997
 C12 C 0.38595 0.05256 0.24897
 H13 H 0.36841 -0.04309 0.27600
 H14 H 0.43126 0.00919 0.19616
 H15 H 0.43729 -0.00728 0.29128
 H16 H 0.36788 0.05338 0.22706
 H17 H 0.41532 -0.10621 0.19485
 H18 H 0.41987 0.10415 0.31536
 C19 C 0.10791 -0.06176 0.74291
 C20 C 0.09422 -0.02958 0.75664
 C21 C 0.07129 -0.03101 0.78524
 C22 C 0.06175 -0.06410 0.80072
 C23 C 0.07568 -0.09587 0.78737
 C24 C 0.09898 -0.09532 0.75865
 C25 C 0.09966 0.00557 0.73935
 C26 C 0.07681 0.01300 0.71181
 C27 C 0.07896 0.04671 0.69513
 C28 C 0.10473 0.07292 0.70691
 C29 C 0.12694 0.06644 0.73553
 C30 C 0.12428 0.03254 0.75185
 H31 H 0.12571 -0.06034 0.72079
 H32 H 0.06146 -0.00603 0.79566
 H33 H 0.05845 -0.00852 0.70295
 H34 H 0.14190 0.02676 0.77329
 H35 H 0.06927 -0.12123 0.80041
 H36 H 0.10804 0.09852 0.69342
 C37 C 0.60554 0.44392 0.24224
 C38 C 0.59052 0.47617 0.25455
 C39 C 0.56526 0.47472 0.28137
 C40 C 0.55420 0.44164 0.29602
 C41 C 0.56883 0.40991 0.28364
 C42 C 0.59505 0.41041 0.25747
 C43 C 0.59666 0.51159 0.23774
 C44 C 0.57332 0.52006 0.21088
 C45 C 0.57269 0.55532 0.19780
 C46 C 0.59630 0.58219 0.21174
 C47 C 0.61991 0.57436 0.23887
 C48 C 0.62000 0.53883 0.25193
 H49 H 0.62553 0.44517 0.22187
 H50 H 0.55478 0.49976 0.29092
 H51 H 0.55582 0.49872 0.20020
 H52 H 0.63804 0.53239 0.27284
 H53 H 0.56102 0.38449 0.29600
 H54 H 0.59736 0.60904 0.20050
 C55 C 0.88758 0.45088 0.75390
 C56 C 0.90043 0.48325 0.73787
 C57 C 0.91957 0.48165 0.70681
 C58 C 0.92634 0.44816 0.69172
 C59 C 0.91320 0.41635 0.70753
 C60 C 0.89402 0.41711 0.73879
 C61 C 0.90234 0.51735 0.75758
 C62 C 0.92414 0.51766 0.78695
 C63 C 0.92887 0.54874 0.80725
 C64 C 0.91116 0.57997 0.79729
 C65 C 0.88925 0.58079 0.76746
 C66 C 0.88520 0.54909 0.74719
 H67 H 0.87397 0.45224 0.77855
 H68 H 0.93001 0.50645 0.69499
 H69 H 0.93639 0.49270 0.79406
 H70 H 0.86837 0.54862 0.72436
 H71 H 0.91794 0.39064 0.69512
 H72 H 0.91402 0.60394 0.81341
 C73 C 0.25371 0.33776 1.04393
 C74 C 0.25980 0.35304 1.01133
 C75 C 0.29272 0.37145 1.00446
 C76 C 0.31934 0.37576 1.03007
 C77 C 0.31402 0.35803 1.06217
 C78 C 0.28098 0.33853 1.06923
 C79 C 0.23040 0.35307 0.98550
 C80 C 0.19860 0.37062 0.99336
 C81 C 0.17176 0.37515 0.96838
 C82 C 0.17679 0.36032 0.93508
 C83 C 0.20813 0.34133 0.92713
 C84 C 0.23499 0.33824 0.95250
 H85 H 0.22778 0.32419 1.04914
 H86 H 0.29659 0.38462 0.97970
 H87 H 0.19557 0.38237 1.01881
 H88 H 0.25989 0.32521 0.94635
 H89 H 0.33469 0.36091 1.08185
 H90 H 0.15652 0.36299 0.91527
 C91 C 0.74877 0.15572 1.04516
 C92 C 0.74158 0.14180 1.01214
 C93 C 0.70747 0.12643 1.00450
 C94 C 0.68064 0.12361 1.02977
 C95 C 0.68708 0.13985 1.06237
 C96 C 0.72135 0.15653 1.07020
 C97 C 0.77055 0.13923 0.98642
 C98 C 0.79921 0.11687 0.99318
 C99 C 0.82343 0.10797 0.96712
 C100 C 0.81962 0.12342 0.93401
 C101 C 0.79188 0.14766 0.92742
 C102 C 0.76712 0.15488 0.95376
 H103 H 0.77560 0.16700 1.05085
 H104 H 0.70271 0.11420 0.97936
 H105 H 0.80130 0.10450 1.01841
 H106 H 0.74433 0.17155 0.94858
 H107 H 0.66602 0.13814 1.08170
 H108 H 0.83839 0.11728 0.91361
 C109 C 0.24383 0.65780 0.54482
 C110 C 0.24044 0.64333 0.51146
 C111 C 0.21013 0.62122 0.50295
 C112 C 0.18413 0.61171 0.52791
 C113 C 0.18790 0.62618 0.56145
 C114 C 0.21740 0.64959 0.56986
 C115 C 0.27121 0.64515 0.48740
 C116 C 0.30168 0.62562 0.49548
 C117 C 0.32809 0.61930 0.47064
 C118 C 0.32463 0.63488 0.43753
 C119 C 0.29491 0.65614 0.42955
 C120 C 0.26802 0.66067 0.45462
 H121 H 0.26778 0.67404 0.55166
 H122 H 0.20809 0.60938 0.47736
 H123 H 0.30338 0.61290 0.52059
 H124 H 0.24383 0.67479 0.44821
 H125 H 0.16779 0.61987 0.58101
 H126 H 0.34491 0.63084 0.41794
 C127 C 0.76160 0.83764 0.54741
 C128 C 0.76452 0.85384 0.51460
 C129 C 0.79391 0.87774 0.50748
 C130 C 0.81914 0.88818 0.53310
 C131 C 0.81548 0.87198 0.56614
 C132 C 0.78738 0.84608 0.57325
 C133 C 0.73407 0.85204 0.48961
 C134 C 0.70269 0.87043 0.49775
 C135 C 0.67670 0.87756 0.47249
 C136 C 0.68198 0.86429 0.43867
 C137 C 0.71271 0.84484 0.43016
 C138 C 0.73883 0.83901 0.45578
 H139 H 0.73838 0.82000 0.55330
 H140 H 0.79541 0.89048 0.48231
 H141 H 0.69982 0.88151 0.52348
 H142 H 0.76364 0.82614 0.44902
 H143 H 0.83444 0.87872 0.58657
 H144 H 0.66263 0.86894 0.41848
 C145 C -0.05289 0.24720 0.33919
 C146 C -0.01885 0.23619 0.34884
 C147 C -0.01512 0.20639 0.37012
 C148 C -0.04491 0.18689 0.38407
 C149 C -0.07982 0.19600 0.37506
 C150 C -0.08735 0.22727 0.35179
 C151 C 0.01244 0.26148 0.34626
 C152 C 0.01222 0.29168 0.36772
 C153 C 0.04395 0.31217 0.37451
 C154 C 0.07625 0.30226 0.35912
 C155 C 0.07693 0.27163 0.33739
 C156 C 0.04475 0.25152 0.33078
 H157 H -0.05507 0.27133 0.32368
 H158 H 0.01203 0.20140 0.37845
 H159 H -0.01236 0.29694 0.38169
 H160 H 0.04518 0.22705 0.31535
 H161 H -0.10290 0.18074 0.38552
 H162 H 0.10066 0.31848 0.36419
 C163 C -0.04991 0.74493 0.16232
 C164 C -0.01708 0.75317 0.14588
 C165 C -0.01526 0.77893 0.11962
 C166 C -0.04630 0.79626 0.10924
 C167 C -0.07920 0.78723 0.12494
 C168 C -0.08148 0.76106 0.15138
 C169 C 0.01265 0.72868 0.14888
 C170 C 0.00642 0.69347 0.13685
 C171 C 0.03518 0.67339 0.12550
 C172 C 0.07074 0.68640 0.13179
 C173 C 0.07720 0.72015 0.14754
 C174 C 0.04796 0.74207 0.15453
 H175 H -0.05117 0.72400 0.18190
 H176 H 0.00989 0.78353 0.10573
 H177 H -0.02112 0.68405 0.13128
 H178 H 0.05234 0.76985 0.16291
 H179 H -0.10234 0.80212 0.11710
 H180 H 0.09341 0.67005 0.12526
 C181 C 0.46015 0.24974 0.66123
 C182 C 0.49227 0.26240 0.64570
 C183 C 0.49347 0.29534 0.62825
 C184 C 0.46216 0.31436 0.62418
 C185 C 0.42987 0.30166 0.63891
 C186 C 0.42881 0.26908 0.65749
 C187 C 0.52216 0.23839 0.64100
 C188 C 0.51514 0.20478 0.62561
 C189 C 0.54352 0.18491 0.61341
 C190 C 0.57924 0.19697 0.61893
 C191 C 0.58651 0.22953 0.63637
 C192 C 0.55777 0.25102 0.64608
 H193 H 0.45913 0.22394 0.67450
 H194 H 0.51800 0.30462 0.61514
 H195 H 0.48751 0.19554 0.62033
 H196 H 0.56269 0.27767 0.65710
 H197 H 0.40595 0.31732 0.63597
 H198 H 0.60120 0.18052 0.61050
 C199 C 0.44613 0.75724 0.84669
 C200 C 0.47995 0.74369 0.85429
 C201 C 0.48219 0.71241 0.87390
 C202 C 0.45094 0.69508 0.88767
 C203 C 0.41731 0.70879 0.87992
 C204 C 0.41457 0.73933 0.85900
 C205 C 0.51268 0.76705 0.85212
 C206 C 0.51433 0.79688 0.87399
 C207 C 0.54714 0.81544 0.88093
 C208 C 0.57877 0.80362 0.86573
 C209 C 0.57759 0.77315 0.84376
 C210 C 0.54431 0.75521 0.83671
 H211 H 0.44494 0.78265 0.83305
 H212 H 0.50892 0.70491 0.88151
 H213 H 0.49015 0.80353 0.88801
 H214 H 0.54326 0.73095 0.82093
 H215 H 0.39294 0.69544 0.89006
 H216 H 0.60400 0.81842 0.87092
 C217 C -0.28294 0.62870 0.99778
 C218 C -0.25520 0.64998 1.01359
 C219 C -0.26352 0.67350 1.04038
 C220 C -0.29938 0.67720 1.05107
 C221 C -0.32726 0.65726 1.03384
 C222 C -0.31939 0.63262 1.00700
 C223 C -0.21986 0.65531 0.99647
 C224 C -0.21863 0.67896 0.96835
 C225 C -0.18665 0.68544 0.94971
 C226 C -0.15544 0.66832 0.96058
 C227 C -0.15555 0.64504 0.98940
 C228 C -0.18821 0.63863 1.00758
 H229 H -0.27627 0.61093 0.97663
 H230 H -0.24171 0.68913 1.05261
 H231 H -0.24361 0.69058 0.96028
 H232 H -0.18947 0.62010 1.02915
 H233 H -0.35477 0.65940 1.04289
 H234 H -0.13077 0.67248 0.94577
 C235 C -0.30163 0.37219 0.50808
 C236 C -0.27093 0.35723 0.49317
 C237 C -0.27436 0.33676 0.46312
 C238 C -0.30820 0.32930 0.44817
 C239 C -0.33917 0.34355 0.46362
 C240 C -0.33627 0.36551 0.49376
 C241 C -0.23611 0.35700 0.51151
 C242 C -0.23535 0.33875 0.54305
 C243 C -0.20250 0.33157 0.55884
 C244 C -0.17024 0.34398 0.54329
 C245 C -0.17015 0.36271 0.51167
 C246 C -0.20344 0.36892 0.49559
 H247 H -0.29855 0.38808 0.53151
 H248 H -0.25019 0.32638 0.45168
 H249 H -0.26055 0.32953 0.55491
 H250 H -0.20415 0.38225 0.47078
 H251 H -0.36494 0.33908 0.45084
 H252 H -0.14491 0.33919 0.55622
 C253 C 0.19696 -0.12953 0.00011
 C254 C 0.22992 -0.14315 -0.01170
 C255 C 0.23073 -0.16405 -0.04172
 C256 C 0.19917 -0.17180 -0.06067
 C257 C 0.16677 -0.15725 -0.04931
 C258 C 0.16503 -0.13629 -0.01895
 C259 C 0.26281 -0.14158 0.00963
 C260 C 0.26123 -0.15973 0.04119
 C261 C 0.29268 -0.16525 0.06021
 C262 C 0.32578 -0.15109 0.04738
 C263 C 0.32830 -0.13304 0.01539
 C264 C 0.29642 -0.12846 -0.00360
 H265 H 0.19645 -0.11403 0.02381
 H266 H 0.25639 -0.17414 -0.04985
 H267 H 0.23512 -0.16966 0.05040
 H268 H 0.29754 -0.11548 -0.02859
 H269 H 0.14240 -0.16242 -0.06437
 H270 H 0.35012 -0.15459 0.06239
 C271 C 0.21809 1.12490 0.49727
 C272 C 0.24602 1.14800 0.51048
 C273 C 0.23949 1.17051 0.53854
 C274 C 0.20546 1.17027 0.55421
 C275 C 0.17801 1.14639 0.54168
 C276 C 0.18387 1.12384 0.51306
 C277 C 0.28048 1.15391 0.49225
 C278 C 0.28148 1.18012 0.46638
 C279 C 0.31361 1.18893 0.44873
 C280 C 0.34503 1.17120 0.45810
 C281 C 0.34494 1.14531 0.48469
 C282 C 0.31231 1.13688 0.50213
 H283 H 0.22320 1.10748 0.47545
 H284 H 0.26146 1.18784 0.54825
 H285 H 0.25641 1.19233 0.45954
 H286 H 0.31128 1.11655 0.52219
 H287 H 0.15223 1.14447 0.55494
 H288 H 0.36981 1.17684 0.44382
 C289 C 0.09459 0.50736 0.20329
 C290 C 0.10944 0.51166 0.23643
 C291 C 0.12777 0.54421 0.24538
 C292 C 0.13299 0.57216 0.22130
 C293 C 0.11795 0.56751 0.18794
 C294 C 0.09836 0.53539 0.17892
 C295 C 0.11020 0.48102 0.26073
 C296 C 0.13265 0.45226 0.25357
 C297 C 0.14023 0.42663 0.27893
 C298 C 0.12338 0.42929 0.31153
 C299 C 0.09957 0.45723 0.31862
 C300 C 0.09346 0.48322 0.29310
 H301 H 0.08122 0.48183 0.19619
 H302 H 0.13976 0.54697 0.27082
 H303 H 0.14610 0.45120 0.22877
 H304 H 0.07715 0.50615 0.29889
 H305 H 0.12086 0.58874 0.16890
 H306 H 0.12836 0.40962 0.33142
 C307 C -0.09453 1.00097 0.20790
 C308 C -0.11116 0.99506 0.23999
 C309 C -0.13015 0.96220 0.24608
 C310 C -0.13408 0.93537 0.22027
 C311 C -0.11453 0.94059 0.18890
 C312 C -0.09433 0.97351 0.18257
 C313 C -0.11248 1.02460 0.26601
 C314 C -0.13370 1.05439 0.25929
 C315 C -0.14048 1.08043 0.28487
 C316 C -0.12398 1.07642 0.31768
 C317 C -0.10120 1.04741 0.32449
 C318 C -0.09597 1.02143 0.29850
 H319 H -0.08068 1.02687 0.20314
 H320 H -0.14417 0.95876 0.27050
 H321 H -0.14650 1.05617 0.23421
 H322 H -0.08022 0.99802 0.30392
 H323 H -0.11603 0.92003 0.16903
 H324 H -0.12836 1.09554 0.33823
 C325 C 0.40791 0.49735 -0.29348
 C326 C 0.39283 0.49156 -0.26064
 C327 C 0.37501 0.45829 -0.25338
 C328 C 0.37139 0.43095 -0.27859
 C329 C 0.38911 0.43617 -0.31075
 C330 C 0.40767 0.46958 -0.31849
 C331 C 0.39208 0.52161 -0.23511
 C332 C 0.37264 0.55231 -0.24303
 C333 C 0.36701 0.57958 -0.21840
 C334 C 0.38286 0.57581 -0.18525
 C335 C 0.40393 0.54583 -0.17724
 C336 C 0.40804 0.51866 -0.20232
 H337 H 0.42083 0.52350 -0.29914
 H338 H 0.36198 0.45454 -0.22854
 H339 H 0.36033 0.55398 -0.26835
 H340 H 0.42258 0.49470 -0.19600
 H341 H 0.38714 0.41494 -0.32998
 H342 H 0.37926 0.59581 -0.16532
 C343 C 0.59937 0.00296 -0.29335
 C344 C 0.61274 0.01052 -0.26025
 C345 C 0.62689 0.04519 -0.25249
 C346 C 0.62868 0.07240 -0.27761
 C347 C 0.61272 0.06532 -0.31034
 C348 C 0.59768 0.03029 -0.31839
 C349 C 0.61482 -0.01853 -0.23435
 C350 C 0.63578 -0.04835 -0.24131
 C351 C 0.64234 -0.07405 -0.21581
 C352 C 0.62607 -0.07020 -0.18299
 C353 C 0.60335 -0.04113 -0.17615
 C354 C 0.59839 -0.01517 -0.20196
 H355 H 0.58899 -0.02424 -0.29910
 H356 H 0.63860 0.05030 -0.22722
 H357 H 0.64853 -0.05058 -0.26637
 H358 H 0.58262 0.00827 -0.19663
 H359 H 0.61327 0.08642 -0.32961
 H360 H 0.63036 -0.08995 -0.16299
 C361 C -0.00224 0.19988 0.90793
 C362 C -0.01092 0.23135 0.89033
 C363 C -0.03889 0.23029 0.86645
 C364 C -0.05957 0.19846 0.86051
 C365 C -0.05109 0.16697 0.87805
 C366 C -0.02199 0.16739 0.90161
 C367 C 0.01317 0.26354 0.89016
 C368 C 0.04515 0.26138 0.87163
 C369 C 0.06404 0.29284 0.86083
 C370 C 0.05132 0.32654 0.86980
 C371 C 0.01966 0.32921 0.88920
 C372 C 0.00022 0.29744 0.89902
 H373 H 0.02064 0.20042 0.92540
 H374 H -0.04333 0.25425 0.85119
 H375 H 0.05283 0.23506 0.86253
 H376 H -0.02577 0.29866 0.91160
 H377 H -0.06775 0.14265 0.87383
 H378 H 0.06604 0.35086 0.86131
 C379 C 0.50403 0.21029 0.08815
 C380 C 0.51831 0.24239 0.10265
 C381 C 0.55175 0.24317 0.11897
 C382 C 0.57026 0.21151 0.12262
 C383 C 0.55649 0.17925 0.10837
 C384 C 0.52309 0.17853 0.09099
 C385 C 0.49579 0.27303 0.10811
 C386 C 0.47149 0.27154 0.13552
 C387 C 0.45310 0.30230 0.14526
 C388 C 0.46038 0.33483 0.12798
 C389 C 0.48587 0.33658 0.10102
 C390 C 0.50308 0.30542 0.09085
 H391 H 0.47755 0.20971 0.07616
 H392 H 0.56192 0.26785 0.13144
 H393 H 0.46819 0.24659 0.14997
 H394 H 0.52313 0.30659 0.07046
 H395 H 0.57183 0.15506 0.11092
 H396 H 0.44536 0.35825 0.13504
 C397 C 0.00342 0.70283 0.58914
 C398 C 0.01505 0.73653 0.60214
 C399 C 0.04913 0.74116 0.61707
 C400 C 0.07100 0.71172 0.62087
 C401 C 0.05955 0.67769 0.60822
 C402 C 0.02567 0.67327 0.59182
 C403 C -0.00970 0.76600 0.60469
 C404 C -0.03831 0.76303 0.62804
 C405 C -0.05887 0.79322 0.63578
 C406 C -0.04991 0.82622 0.61964
 C407 C -0.02114 0.82903 0.59601
 C408 C -0.00139 0.79875 0.58841
 H409 H -0.02316 0.69953 0.57755
 H410 H 0.05765 0.76725 0.62782
 H411 H -0.04230 0.73770 0.64164
 H412 H 0.02135 0.80092 0.57082
 H413 H 0.07741 0.65534 0.61048
 H414 H -0.06610 0.84939 0.62481
 C415 C 0.49148 0.68594 0.40259
 C416 C 0.48700 0.72118 0.39084
 C417 C 0.46063 0.72778 0.36618
 C418 C 0.43842 0.69938 0.35321
 C419 C 0.44334 0.66412 0.36466
 C420 C 0.46989 0.65707 0.38925
 C421 C 0.51401 0.75005 0.39874
 C422 C 0.54927 0.74505 0.38783
 C423 C 0.57383 0.77404 0.38408
 C424 C 0.56524 0.80879 0.39433
 C425 C 0.52906 0.81694 0.40816
 C426 C 0.50330 0.78412 0.40949
 H427 H 0.51211 0.68161 0.42169
 H428 H 0.45894 0.75482 0.35579
 H429 H 0.55634 0.71881 0.37784
 H430 H 0.47556 0.78766 0.41726
 H431 H 0.42626 0.64210 0.35449
 H432 H 0.58487 0.83099 0.39076
 Zr433 Zr 0.01390 -0.04739 1.03964
 O434 O 0.04805 -0.02185 1.07681
 O435 O 0.00763 -0.09879 1.06044
 O436 O -0.01545 -0.04687 1.08712
 O437 O 0.07788 -0.07250 0.97985
 O438 O -0.06617 -0.01569 1.07538
 O439 O 0.06595 -0.07111 1.03755
 O440 O -0.03918 -0.12366 1.02883
 O441 O -0.04165 -0.05552 1.03075
 O442 O 0.00816 -0.08076 0.99617
 O443 O -0.00715 0.00445 1.03385
 O444 O 0.04181 -0.01943 0.99970
 Zr445 Zr -0.04148 -0.01008 0.93838
 Zr446 Zr -0.06223 -0.00437 1.02203
 Zr447 Zr 0.03285 -0.05227 0.95601
 Zr448 Zr -0.04701 -0.08768 0.98713
 O449 O 0.08152 -0.03146 0.93400
 O450 O -0.09847 -0.09907 1.00937
 O451 O -0.02175 -0.06229 0.94438
 O452 O -0.06975 -0.03735 0.97830
 O453 O -0.03665 0.02372 0.98175
 O454 O 0.01370 -0.00110 0.94759
 C455 C -0.01621 -0.12382 1.05392
 C456 C 0.08590 -0.07920 1.01127
 C457 C -0.04629 -0.03401 1.09572
 O458 O -0.11489 -0.02572 1.03270
 O459 O -0.09967 0.02814 0.99594
 O460 O -0.08837 0.01999 0.93861
 C461 C -0.10583 0.03402 0.96359
 O462 O 0.06031 0.04083 1.02823
 Zr463 Zr 0.01819 0.03070 0.99187
 O464 O -0.03122 0.04021 0.91552
 O465 O -0.06529 0.04492 1.04951
 O466 O 0.00060 0.07579 1.02027
 O467 O 0.06591 0.05165 0.96778
 O468 O 0.00448 0.07016 0.95518
 C469 C -0.01440 0.06862 0.92720
 O470 O -0.08112 -0.03420 0.90533
 O471 O 0.03730 -0.10580 0.93753
 O472 O -0.01918 -0.02067 0.88926
 O473 O 0.03070 -0.05201 0.90228
 O474 O -0.03113 -0.13739 0.96566
 O475 O -0.08196 -0.10376 0.94592
 C476 C 0.00894 -0.03809 0.88077
 H477 H 0.01939 -0.10444 0.99892
 H478 H -0.09568 -0.04063 0.97235
 H479 H 0.02675 0.01087 0.92818
 H480 H -0.00375 0.01861 1.05540
 H481 H -0.10191 -0.12574 1.01054
 H482 H -0.12711 -0.00717 1.04641
 H483 H -0.09016 0.04563 1.05881
 H484 H 0.01496 0.09726 1.01211
 H485 H -0.04759 -0.15672 0.97506
 H486 H 0.06087 -0.10650 0.92548
 H487 H 0.08961 -0.01089 0.94884
 H488 H 0.06752 0.07804 0.97242
 H489 H -0.09532 -0.12654 0.95214
 H490 H -0.08502 -0.01692 0.88628
 H491 H 0.05247 -0.04040 1.09457
 H492 H 0.06386 0.06727 1.03166
 Zr493 Zr 0.50573 0.44096 0.53386
 O494 O 0.54474 0.45543 0.57179
 O495 O 0.48721 0.39099 0.55168
 O496 O 0.47938 0.44411 0.58241
 O497 O 0.56311 0.40794 0.47073
 O498 O 0.43489 0.48451 0.57435
 O499 O 0.55169 0.40758 0.52864
 O500 O 0.43541 0.37944 0.52111
 O501 O 0.45004 0.44443 0.52567
 O502 O 0.49347 0.41235 0.48856
 O503 O 0.49489 0.49649 0.53283
 O504 O 0.53825 0.46633 0.49578
 Zr505 Zr 0.45874 0.49687 0.43763
 Zr506 Zr 0.43941 0.49934 0.52163
 Zr507 Zr 0.52298 0.43919 0.45007
 Zr508 Zr 0.43837 0.41717 0.48001
 O509 O 0.57440 0.45166 0.42866
 O510 O 0.38452 0.41418 0.49867
 O511 O 0.46786 0.44104 0.43891
 O512 O 0.42595 0.47185 0.47571
 O513 O 0.46981 0.52570 0.48326
 O514 O 0.51418 0.49423 0.44627
 C515 C 0.45715 0.37354 0.54625
 C516 C 0.56986 0.39815 0.50159
 C517 C 0.45180 0.46156 0.59285
 O518 O 0.38468 0.48617 0.53335
 O519 O 0.40614 0.53834 0.49829
 O520 O 0.41716 0.53338 0.44055
 C521 C 0.40088 0.54709 0.46636
 O522 O 0.56739 0.51880 0.52924
 Zr523 Zr 0.52477 0.52089 0.49271
 O524 O 0.47677 0.54790 0.42063
 O525 O 0.44571 0.54724 0.55128
 O526 O 0.51674 0.56637 0.52480
 O527 O 0.57539 0.53422 0.46956
 O528 O 0.52004 0.56568 0.45971
 C529 C 0.49955 0.57122 0.43364
 O530 O 0.41664 0.48288 0.40247
 O531 O 0.51600 0.38730 0.42740
 O532 O 0.47910 0.48817 0.38755
 O533 O 0.52073 0.44555 0.39670
 O534 O 0.44535 0.36557 0.45755
 O535 O 0.40385 0.41105 0.43643
 C536 C 0.50288 0.46624 0.37701
 H537 H 0.49968 0.38660 0.48995
 H538 H 0.40006 0.47385 0.46995
 H539 H 0.52910 0.50552 0.42773
 H540 H 0.50102 0.50792 0.55531
 H541 H 0.37589 0.38851 0.49721
 H542 H 0.37629 0.50557 0.54871
 H543 H 0.42189 0.55127 0.56193
 H544 H 0.53537 0.58514 0.51843
 H545 H 0.42502 0.34951 0.46557
 H546 H 0.53852 0.38297 0.41447
 H547 H 0.58610 0.46970 0.44438
 H548 H 0.58263 0.55915 0.47694
 H549 H 0.38730 0.38964 0.43967
 H550 H 0.41573 0.50259 0.38521
 H551 H 0.54569 0.43455 0.58771
 H552 H 0.57623 0.54373 0.53485
 Zr553 Zr 0.49083 1.04611 0.53959
 O554 O 0.45674 1.03311 0.58192
 O555 O 0.50963 1.09807 0.55213
 O556 O 0.52157 1.04795 0.58551
 O557 O 0.42445 1.06950 0.48196
 O558 O 0.56702 1.00904 0.57576
 O559 O 0.44305 1.07703 0.53760
 O560 O 0.55618 1.10945 0.51467
 O561 O 0.54555 1.04443 0.52608
 O562 O 0.49661 1.07119 0.49167
 O563 O 0.50416 0.99120 0.54074
 O564 O 0.45548 1.01606 0.50690
 Zr565 Zr 0.52998 0.98415 0.44265
 Zr566 Zr 0.55831 0.98999 0.52455
 Zr567 Zr 0.46424 1.03990 0.45853
 Zr568 Zr 0.55072 1.06780 0.47766
 O569 O 0.41229 1.02155 0.44204
 O570 O 0.60613 1.07503 0.49079
 O571 O 0.51796 1.03931 0.44191
 O572 O 0.56534 1.01372 0.47573
 O573 O 0.52537 0.95906 0.49098
 O574 O 0.47552 0.98517 0.45640
 C575 C 0.53748 1.11661 0.54156
 C576 C 0.42104 1.08269 0.51232
 C577 C 0.55072 1.03244 0.59440
 O578 O 0.61313 1.00717 0.53061
 O579 O 0.59221 0.95184 0.50105
 O580 O 0.57401 0.94998 0.44474
 C581 C 0.59452 0.94033 0.46960
 O582 O 0.43282 0.96496 0.54574
 Zr583 Zr 0.47137 0.96212 0.50534
 O584 O 0.51200 0.93125 0.43064
 O585 O 0.55768 0.94406 0.55694
 O586 O 0.48476 0.91997 0.53945
 O587 O 0.41926 0.94532 0.48743
 O588 O 0.47505 0.91470 0.47551
 C589 C 0.49259 0.90792 0.44780
 O590 O 0.56790 0.99435 0.40260
 O591 O 0.46370 1.09081 0.43369
 O592 O 0.50537 0.99245 0.39385
 O593 O 0.46246 1.03315 0.40557
 O594 O 0.53835 1.11630 0.45191
 O595 O 0.58007 1.07098 0.43061
 C596 C 0.48050 1.01404 0.38473
 H597 H 0.48922 1.09663 0.49208
 H598 H 0.59063 1.01251 0.46768
 H599 H 0.45952 0.97211 0.43967
 H600 H 0.50104 0.98136 0.56433
 H601 H 0.61336 1.10064 0.48613
 H602 H 0.62410 0.98988 0.54664
 H603 H 0.58250 0.94252 0.56621
 H604 H 0.46640 0.90002 0.53621
 H605 H 0.55860 1.13402 0.45636
 H606 H 0.43942 1.09265 0.42320
 H607 H 0.40213 1.00660 0.46110
 H608 H 0.41385 0.92070 0.49660
 H609 H 0.59574 1.09330 0.43051
 H610 H 0.56674 0.97310 0.38689
 H611 H 0.45633 1.05508 0.59661
 H612 H 0.42459 0.94016 0.55240
 Zr613 Zr -0.01539 0.53688 1.04402
 O614 O -0.05397 0.52221 1.08228
 O615 O 0.00672 0.58520 1.06404
 O616 O 0.00956 0.52748 1.09212
 O617 O -0.07709 0.56977 0.98581
 O618 O 0.05813 0.49382 1.07846
 O619 O -0.06154 0.57041 1.04267
 O620 O 0.05525 0.59837 1.02940
 O621 O 0.03988 0.53460 1.03259
 O622 O -0.00600 0.56715 0.99924
 O623 O -0.00383 0.48162 1.03986
 O624 O -0.04968 0.51221 1.00673
 Zr625 Zr 0.02660 0.48450 0.94293
 Zr626 Zr 0.05099 0.48023 1.02570
 Zr627 Zr -0.03739 0.54107 0.96139
 Zr628 Zr 0.04851 0.56304 0.98705
 O629 O -0.08953 0.52843 0.94158
 O630 O 0.10383 0.56621 1.00137
 O631 O 0.01692 0.54010 0.94695
 O632 O 0.06128 0.50893 0.97998
 O633 O 0.01875 0.45433 0.98817
 O634 O -0.02826 0.48628 0.95470
 C635 C 0.03593 0.60334 1.05639
 C636 C -0.08184 0.57968 1.01710
 C637 C 0.03903 0.51187 1.09985
 O638 O 0.10595 0.49440 1.03558
 O639 O 0.08497 0.44410 0.99949
 O640 O 0.06917 0.44851 0.94275
 C641 C 0.08844 0.43589 0.96721
 O642 O -0.07634 0.45842 1.03936
 Zr643 Zr -0.03573 0.45802 1.00069
 O644 O 0.00707 0.43415 0.92501
 O645 O 0.04732 0.43094 1.05321
 O646 O -0.02634 0.41194 1.03139
 O647 O -0.08704 0.44507 0.97865
 O648 O -0.03128 0.41354 0.96721
 C649 C -0.01322 0.40946 0.93930
 O650 O 0.06640 0.49857 0.90555
 O651 O -0.03281 0.59423 0.94139
 O652 O 0.00350 0.49669 0.89452
 O653 O -0.03820 0.53819 0.90772
 O654 O 0.03914 0.61549 0.96782
 O655 O 0.07917 0.57118 0.94120
 C656 C -0.02086 0.51907 0.88619
 H657 H -0.01231 0.59273 1.00228
 H658 H 0.08682 0.50764 0.97273
 H659 H -0.04404 0.47558 0.93642
 H660 H -0.00856 0.46906 1.06202
 H661 H 0.11218 0.59195 0.99984
 H662 H 0.11551 0.47495 1.05011
 H663 H 0.07159 0.42746 1.06311
 H664 H -0.04532 0.39330 1.02553
 H665 H 0.05993 0.63143 0.97504
 H666 H -0.05623 0.59884 0.93015
 H667 H -0.10034 0.50981 0.95715
 H668 H -0.09369 0.41974 0.98504
 H669 H 0.09523 0.59307 0.94376
 H670 H 0.06564 0.47925 0.88771
 H671 H -0.05390 0.54227 1.09932
 H672 H -0.08653 0.43353 1.04272
 Zr673 Zr -0.01981 0.45956 0.45275
 O674 O -0.05522 0.48441 0.41806
 O675 O -0.01281 0.41015 0.42857
 O676 O 0.00628 0.46721 0.40432
 O677 O -0.08446 0.42981 0.51188
 O678 O 0.06224 0.49120 0.41839
 O679 O -0.07243 0.43317 0.45423
 O680 O 0.03410 0.38718 0.45861
 O681 O 0.03534 0.45225 0.46131
 O682 O -0.01559 0.42471 0.49487
 O683 O 0.00446 0.51155 0.46002
 O684 O -0.04602 0.48565 0.49356
 Zr685 Zr 0.03798 0.49535 0.55496
 Zr686 Zr 0.05901 0.50322 0.47148
 Zr687 Zr -0.03865 0.45160 0.53608
 Zr688 Zr 0.03926 0.41907 0.50398
 O689 O -0.08730 0.46905 0.55777
 O690 O 0.09187 0.40956 0.48530
 O691 O 0.01540 0.44271 0.54758
 O692 O 0.06476 0.46957 0.51439
 O693 O 0.03514 0.53003 0.51245
 O694 O -0.01671 0.50321 0.54577
 C695 C 0.01190 0.38735 0.43294
 C696 C -0.09264 0.42368 0.48026
 C697 C 0.03904 0.47764 0.39666
 O698 O 0.11052 0.48335 0.46017
 O699 O 0.09903 0.53506 0.49780
 O700 O 0.08741 0.52532 0.55495
 C701 C 0.10593 0.53983 0.53019
 O702 O -0.06086 0.54637 0.46649
 Zr703 Zr -0.01939 0.53608 0.50260
 O704 O 0.03235 0.54554 0.57844
 O705 O 0.06497 0.55305 0.44500
 O706 O 0.00077 0.58236 0.47555
 O707 O -0.06593 0.55540 0.52732
 O708 O -0.00327 0.57477 0.54035
 C709 C 0.01664 0.57360 0.56760
 O710 O 0.07498 0.47060 0.58817
 O711 O -0.04376 0.39760 0.55377
 O712 O 0.01372 0.48524 0.60369
 O713 O -0.03790 0.45290 0.58987
 O714 O 0.01939 0.36727 0.52011
 O715 O 0.07010 0.40157 0.54658
 C716 C -0.01605 0.46803 0.61172
 H717 H -0.02773 0.40076 0.49073
 H718 H 0.09048 0.46666 0.52033
 H719 H -0.02919 0.51483 0.56519
 H720 H 0.00182 0.52634 0.43898
 H721 H 0.09395 0.38301 0.48327
 H722 H 0.12351 0.50207 0.44615
 H723 H 0.08954 0.55390 0.43489
 H724 H -0.01237 0.60330 0.48435
 H725 H 0.03547 0.34926 0.51001
 H726 H -0.06758 0.39516 0.56536
 H727 H -0.09302 0.49138 0.54520
 H728 H -0.06593 0.58191 0.52356
 H729 H 0.08164 0.37868 0.54057
 H730 H 0.08033 0.48791 0.60725
 H731 H -0.06063 0.46656 0.39945
 H732 H -0.06307 0.57283 0.46406
 Zr733 Zr 0.48140 -0.03634 -0.04462
 O734 O 0.44553 -0.01389 -0.08040
 O735 O 0.49077 -0.08550 -0.06793
 O736 O 0.50829 -0.02874 -0.09279
 O737 O 0.41799 -0.06854 0.01488
 O738 O 0.56304 -0.00203 -0.07839
 O739 O 0.42940 -0.06460 -0.04279
 O740 O 0.53925 -0.10543 -0.03800
 O741 O 0.53697 -0.04014 -0.03559
 O742 O 0.48759 -0.07060 -0.00233
 O743 O 0.50271 0.01692 -0.03779
 O744 O 0.45352 -0.01174 -0.00407
 Zr745 Zr 0.53674 0.00353 0.05747
 Zr746 Zr 0.55780 0.01210 -0.02584
 Zr747 Zr 0.46297 -0.04491 0.03865
 Zr748 Zr 0.54283 -0.07280 0.00705
 O749 O 0.41355 -0.03026 0.06087
 O750 O 0.59593 -0.07901 -0.01193
 O751 O 0.51749 -0.05036 0.05041
 O752 O 0.56532 -0.02084 0.01727
 O753 O 0.53195 0.03761 0.01475
 O754 O 0.48160 0.00785 0.04797
 C755 C 0.51678 -0.10676 -0.06349
 C756 C 0.40954 -0.07478 -0.01662
 C757 C 0.54092 -0.01741 -0.10013
 O758 O 0.61113 -0.00364 -0.03593
 O759 O 0.59510 0.04736 0.00067
 O760 O 0.58384 0.03722 0.05781
 C761 C 0.60151 0.05289 0.03313
 O762 O 0.43520 0.04721 -0.03204
 Zr763 Zr 0.47706 0.04011 0.00449
 O764 O 0.52644 0.05269 0.08102
 O765 O 0.56042 0.06121 -0.05376
 O766 O 0.49489 0.08720 -0.02264
 O767 O 0.42904 0.05689 0.02843
 O768 O 0.48991 0.07976 0.04217
 C769 C 0.50916 0.07961 0.06985
 O770 O 0.57575 -0.01812 0.09067
 O771 O 0.46067 -0.09912 0.05601
 O772 O 0.51346 -0.00835 0.10620
 O773 O 0.46397 -0.04387 0.09232
 O774 O 0.52613 -0.12539 0.02375
 O775 O 0.57486 -0.08814 0.04965
 C776 C 0.48487 -0.02750 0.11417
 H777 H 0.47665 -0.09512 -0.00631
 H778 H 0.59120 -0.02206 0.02340
 H779 H 0.46822 0.01856 0.06732
 H780 H 0.49928 0.03121 -0.05902
 H781 H 0.59967 -0.10532 -0.01387
 H782 H 0.62283 0.01570 -0.05018
 H783 H 0.58513 0.06363 -0.06345
 H784 H 0.48025 0.10729 -0.01429
 H785 H 0.54326 -0.14247 0.01375
 H786 H 0.43716 -0.10275 0.06797
 H787 H 0.40654 -0.00821 0.04854
 H788 H 0.42724 0.08314 0.02392
 H789 H 0.58808 -0.11002 0.04356
 H790 H 0.57966 -0.00060 0.10985
 H791 H 0.44112 -0.03244 -0.09859
 H792 H 0.43206 0.07340 -0.03555
 Zr793 Zr 0.51981 0.54983 -0.03922
 O794 O 0.55876 0.52859 -0.07270
 O795 O 0.50975 0.59813 -0.06321
 O796 O 0.49532 0.54044 -0.08848
 O797 O 0.58085 0.58523 0.02205
 O798 O 0.44111 0.51164 -0.07596
 O799 O 0.56899 0.58260 -0.03574
 O800 O 0.46129 0.61818 -0.03323
 O801 O 0.46373 0.55176 -0.03224
 O802 O 0.51094 0.58386 0.00289
 O803 O 0.50032 0.49596 -0.03285
 O804 O 0.54748 0.52663 0.00215
 Zr805 Zr 0.46254 0.50891 0.06121
 Zr806 Zr 0.44463 0.49881 -0.02289
 Zr807 Zr 0.53571 0.55973 0.04452
 Zr808 Zr 0.45535 0.58412 0.01043
 O809 O 0.58486 0.54623 0.06797
 O810 O 0.40341 0.58818 -0.01191
 O811 O 0.48041 0.56322 0.05455
 O812 O 0.43433 0.53153 0.01996
 O813 O 0.46985 0.47469 0.01882
 O814 O 0.51826 0.50659 0.05350
 C815 C 0.48424 0.61979 -0.05830
 C816 C 0.58830 0.59313 -0.00929
 C817 C 0.46358 0.52737 -0.09711
 O818 O 0.39114 0.51286 -0.03458
 O819 O 0.40773 0.46168 0.00161
 O820 O 0.41746 0.47217 0.06085
 C821 C 0.39951 0.45401 0.03522
 O822 O 0.56865 0.46789 -0.02467
 Zr823 Zr 0.52527 0.47414 0.01040
 O824 O 0.47456 0.46136 0.08631
 O825 O 0.44483 0.44950 -0.05068
 O826 O 0.50957 0.42623 -0.01674
 O827 O 0.57311 0.45888 0.03560
 O828 O 0.51264 0.43491 0.04835
 C829 C 0.49313 0.43504 0.07587
 O830 O 0.42099 0.52935 0.09227
 O831 O 0.53572 0.61403 0.06182
 O832 O 0.48366 0.52285 0.11052
 O833 O 0.53307 0.55916 0.09824
 O834 O 0.46852 0.63699 0.02900
 O835 O 0.42015 0.59778 0.05131
 C836 C 0.51169 0.54252 0.11943
 H837 H 0.52080 0.60885 -0.00058
 H838 H 0.40818 0.53168 0.02525
 H839 H 0.53145 0.49662 0.07330
 H840 H 0.50511 0.48164 -0.05385
 H841 H 0.39882 0.61429 -0.01413
 H842 H 0.38067 0.49337 -0.04953
 H843 H 0.42074 0.44633 -0.06162
 H844 H 0.52442 0.40669 -0.00764
 H845 H 0.45102 0.65342 0.01866
 H846 H 0.55879 0.61852 0.07437
 H847 H 0.59322 0.52494 0.05516
 H848 H 0.57573 0.43267 0.03127
 H849 H 0.40547 0.61828 0.04417
 H850 H 0.41739 0.51236 0.11182
 H851 H 0.56311 0.54694 -0.09099
 H852 H 0.57204 0.44180 -0.02861
 Zr853 Zr 0.02075 1.04340 0.45875
 O854 O 0.05494 1.01892 0.42261
 O855 O 0.01538 1.09377 0.43671
 O856 O -0.00697 1.03764 0.41061
 O857 O 0.08773 1.06966 0.51749
 O858 O -0.06258 1.01287 0.42480
 O859 O 0.07363 1.06948 0.46024
 O860 O -0.03031 1.11691 0.46848
 O861 O -0.03427 1.05073 0.46833
 O862 O 0.01756 1.07724 0.50193
 O863 O -0.00368 0.99139 0.46506
 O864 O 0.04769 1.01646 0.49845
 Zr865 Zr -0.03534 1.00567 0.56083
 Zr866 Zr -0.05811 0.99949 0.47762
 Zr867 Zr 0.04135 1.04956 0.54202
 Zr868 Zr -0.03712 1.08289 0.51199
 O869 O 0.08941 1.03066 0.56368
 O870 O -0.08931 1.09302 0.49267
 O871 O -0.01256 1.05831 0.55451
 O872 O -0.06287 1.03229 0.52145
 O873 O -0.03328 0.97192 0.51746
 O874 O 0.01923 0.99797 0.55069
 C875 C -0.00819 1.11727 0.44274
 C876 C 0.09536 1.07660 0.48591
 C877 C -0.03984 1.02712 0.40302
 O878 O -0.10996 1.01955 0.46834
 O879 O -0.09726 0.96600 0.50389
 O880 O -0.08351 0.97341 0.56096
 C881 C -0.10267 0.95928 0.53630
 O882 O 0.06168 0.95651 0.46938
 Zr883 Zr 0.02104 0.96603 0.50659
 O884 O -0.02760 0.95599 0.58410
 O885 O -0.06453 0.95056 0.44949
 O886 O -0.00021 0.92031 0.47917
 O887 O 0.06808 0.94571 0.52946
 O888 O 0.00621 0.92708 0.54412
 C889 C -0.01220 0.92816 0.57229
 O890 O -0.07309 1.02903 0.59431
 O891 O 0.04841 1.10351 0.55976
 O892 O -0.01095 1.01626 0.60939
 O893 O 0.04082 1.04851 0.59592
 O894 O -0.01743 1.13389 0.53063
 O895 O -0.06841 1.09923 0.55480
 C896 C 0.01885 1.03339 0.61759
 H897 H 0.02996 1.10115 0.49843
 H898 H -0.08847 1.03504 0.52796
 H899 H 0.03207 0.98621 0.56977
 H900 H -0.00143 0.97708 0.44361
 H901 H -0.09119 1.11963 0.49117
 H902 H -0.12328 1.00116 0.45411
 H903 H -0.08942 0.94984 0.44008
 H904 H 0.01307 0.89917 0.48720
 H905 H -0.03343 1.15238 0.52131
 H906 H 0.07241 1.10520 0.57108
 H907 H 0.09512 1.00879 0.55029
 H908 H 0.06793 0.91935 0.52465
 H909 H -0.08065 1.12176 0.54901
 H910 H -0.07769 1.01155 0.61332
 H911 H 0.06024 1.03726 0.40451
 H912 H 0.06286 0.93015 0.46530
 Zr913 Zr 0.69613 0.26396 0.21002
 O914 O 0.71258 0.29780 0.16850
 O915 O 0.64571 0.24482 0.19326
 O916 O 0.69840 0.23307 0.16430
 O917 O 0.66778 0.33026 0.26533
 O918 O 0.73659 0.18780 0.17690
 O919 O 0.66629 0.31230 0.20904
 O920 O 0.63173 0.19777 0.22950
 O921 O 0.69709 0.20923 0.22369
 O922 O 0.66697 0.25804 0.25593
 O923 O 0.75092 0.25105 0.21274
 O924 O 0.72262 0.29955 0.24505
 Zr925 Zr 0.75025 0.22531 0.31111
 Zr926 Zr 0.75126 0.19689 0.22922
 Zr927 Zr 0.69500 0.29051 0.29164
 Zr928 Zr 0.66966 0.20386 0.27011
 O929 O 0.71065 0.34283 0.30949
 O930 O 0.66404 0.14823 0.25693
 O931 O 0.69497 0.23664 0.30808
 O932 O 0.72362 0.18968 0.27612
 O933 O 0.77894 0.23033 0.26469
 O934 O 0.74954 0.27982 0.29724
 C935 C 0.62699 0.21634 0.20194
 C936 C 0.65844 0.33428 0.23373
 C937 C 0.71465 0.20393 0.15669
 O938 O 0.73510 0.14183 0.22220
 O939 O 0.78778 0.16341 0.25534
 O940 O 0.78568 0.18188 0.31152
 C941 C 0.79739 0.16140 0.28735
 O942 O 0.77531 0.32316 0.20976
 Zr943 Zr 0.77628 0.28437 0.25003
 O944 O 0.80187 0.24410 0.32644
 O945 O 0.79963 0.19791 0.20023
 O946 O 0.82111 0.27172 0.21883
 O947 O 0.79145 0.33664 0.26890
 O948 O 0.82114 0.28137 0.28273
 C949 C 0.82608 0.26379 0.31068
 O950 O 0.73708 0.18726 0.35031
 O951 O 0.64221 0.28991 0.31255
 O952 O 0.73883 0.25066 0.35899
 O953 O 0.69814 0.29301 0.34531
 O954 O 0.61894 0.21600 0.29169
 O955 O 0.66243 0.17446 0.31679
 C956 C 0.71693 0.27572 0.36708
 H957 H 0.64166 0.26533 0.25338
 H958 H 0.72449 0.16440 0.28432
 H959 H 0.76115 0.29606 0.31468
 H960 H 0.76261 0.25425 0.18993
 H961 H 0.63814 0.14089 0.25938
 H962 H 0.75371 0.13093 0.20753
 H963 H 0.80213 0.17309 0.19112
 H964 H 0.84032 0.29059 0.22318
 H965 H 0.60179 0.19573 0.28561
 H966 H 0.63892 0.31435 0.32233
 H967 H 0.72834 0.35268 0.29249
 H968 H 0.81637 0.34248 0.26075
 H969 H 0.64003 0.15901 0.31532
 H970 H 0.75695 0.18869 0.36751
 H971 H 0.69207 0.29788 0.15204
 H972 H 0.80038 0.33111 0.20387
 Zr973 Zr 0.79127 0.72788 0.71110
 O974 O 0.76624 0.69048 0.67640
 O975 O 0.84162 0.73628 0.68831
 O976 O 0.78431 0.75351 0.66231
 O977 O 0.81960 0.66558 0.77120
 O978 O 0.75867 0.80715 0.67538
 O979 O 0.81748 0.67701 0.71348
 O980 O 0.86651 0.78361 0.71937
 O981 O 0.79888 0.78391 0.71887
 O982 O 0.82548 0.73519 0.75374
 O983 O 0.73946 0.74852 0.71796
 O984 O 0.76481 0.70022 0.75205
 Zr985 Zr 0.75513 0.78458 0.81254
 Zr986 Zr 0.74782 0.80404 0.72879
 Zr987 Zr 0.79844 0.71057 0.79493
 Zr988 Zr 0.83160 0.79065 0.76200
 O989 O 0.77890 0.66183 0.81777
 O990 O 0.84128 0.84234 0.73953
 O991 O 0.80754 0.76565 0.80559
 O992 O 0.78128 0.81271 0.77185
 O993 O 0.72082 0.77856 0.76979
 O994 O 0.74704 0.72905 0.80421
 C995 C 0.86641 0.76057 0.69430
 C996 C 0.82654 0.65757 0.73976
 C997 C 0.77272 0.78496 0.65394
 O998 O 0.76819 0.85679 0.71680
 O999 O 0.71613 0.84242 0.75487
 O1000 O 0.72470 0.83141 0.81217
 C1001 C 0.71072 0.84902 0.78726
 O1002 O 0.70469 0.68006 0.72522
 Zr1003 Zr 0.71455 0.72330 0.76058
 O1004 O 0.70495 0.77449 0.83586
 O1005 O 0.69782 0.80591 0.70260
 O1006 O 0.66863 0.73834 0.73211
 O1007 O 0.69512 0.67621 0.78681
 O1008 O 0.67502 0.73831 0.79659
 C1009 C 0.67642 0.75797 0.82410
 O1010 O 0.77921 0.82474 0.84513
 O1011 O 0.85240 0.70777 0.81238
 O1012 O 0.76670 0.76274 0.86162
 O1013 O 0.79935 0.71353 0.84878
 O1014 O 0.88219 0.77581 0.78204
 O1015 O 0.84825 0.82598 0.80281
 C1016 C 0.78496 0.73518 0.87023
 H1017 H 0.84936 0.72457 0.75044
 H1018 H 0.78432 0.83879 0.77746
 H1019 H 0.73555 0.71626 0.82400
 H1020 H 0.72478 0.74449 0.69685
 H1021 H 0.86782 0.84638 0.73766
 H1022 H 0.74944 0.86834 0.70285
 H1023 H 0.69685 0.83040 0.69245
 H1024 H 0.64769 0.72358 0.74085
 H1025 H 0.90090 0.79266 0.77216
 H1026 H 0.85391 0.68448 0.82480
 H1027 H 0.75857 0.65289 0.80308
 H1028 H 0.66866 0.67404 0.78299
 H1029 H 0.87047 0.83988 0.79591
 H1030 H 0.76203 0.82871 0.86427
 H1031 H 0.78423 0.68602 0.65810
 H1032 H 0.67839 0.67430 0.72395
 Zr1033 Zr 0.21453 0.22556 0.79162
 O1034 O 0.23737 0.18890 0.82641
 O1035 O 0.16544 0.23435 0.81519
 O1036 O 0.22240 0.25120 0.84028
 O1037 O 0.18511 0.16087 0.73195
 O1038 O 0.24854 0.30652 0.82700
 O1039 O 0.18572 0.17406 0.78938
 O1040 O 0.14404 0.28112 0.78380
 O1041 O 0.20993 0.28125 0.78322
 O1042 O 0.18055 0.23144 0.74906
 O1043 O 0.26746 0.24765 0.78531
 O1044 O 0.23976 0.19812 0.75114
 Zr1045 Zr 0.25423 0.28236 0.69034
 Zr1046 Zr 0.26197 0.30284 0.77407
 Zr1047 Zr 0.20674 0.20715 0.70825
 Zr1048 Zr 0.17774 0.28674 0.74004
 O1049 O 0.22311 0.15882 0.68485
 O1050 O 0.17027 0.33923 0.76032
 O1051 O 0.20076 0.26187 0.69687
 O1052 O 0.22930 0.31022 0.73066
 O1053 O 0.28804 0.27764 0.73333
 O1054 O 0.25911 0.22703 0.69927
 C1055 C 0.14311 0.25919 0.80964
 C1056 C 0.17781 0.15298 0.76340
 C1057 C 0.23376 0.28363 0.84834
 O1058 O 0.24461 0.35548 0.78513
 O1059 O 0.29630 0.34181 0.74866
 O1060 O 0.28815 0.32981 0.69130
 C1061 C 0.30267 0.34824 0.71638
 O1062 O 0.29898 0.18067 0.77924
 Zr1063 Zr 0.29116 0.22259 0.74297
 O1064 O 0.30314 0.27230 0.66656
 O1065 O 0.31127 0.30613 0.80165
 O1066 O 0.33794 0.24093 0.77037
 O1067 O 0.30862 0.17490 0.71873
 O1068 O 0.33049 0.23615 0.70554
 C1069 C 0.33016 0.25533 0.67788
 O1070 O 0.23310 0.32202 0.65757
 O1071 O 0.15241 0.20272 0.69140
 O1072 O 0.24121 0.25948 0.64138
 O1073 O 0.20663 0.20908 0.65459
 O1074 O 0.12590 0.26973 0.72158
 O1075 O 0.16279 0.31962 0.69791
 C1076 C 0.22219 0.23075 0.63299
 H1077 H 0.15617 0.22015 0.75275
 H1078 H 0.22771 0.33616 0.72483
 H1079 H 0.26990 0.21400 0.67971
 H1080 H 0.28177 0.24420 0.80654
 H1081 H 0.14388 0.34247 0.76186
 H1082 H 0.26346 0.36740 0.79986
 H1083 H 0.31299 0.33057 0.81217
 H1084 H 0.35825 0.22668 0.76190
 H1085 H 0.10833 0.28645 0.73143
 H1086 H 0.14949 0.17897 0.67960
 H1087 H 0.24459 0.15150 0.69790
 H1088 H 0.33487 0.17345 0.72325
 H1089 H 0.14084 0.33268 0.70401
 H1090 H 0.25074 0.32595 0.63857
 H1091 H 0.21907 0.18403 0.84465
 H1092 H 0.32520 0.17777 0.78263
 Zr1093 Zr 0.28896 0.77720 0.29746
 O1094 O 0.27122 0.81180 0.33700
 O1095 O 0.34050 0.76605 0.31467
 O1096 O 0.28487 0.74882 0.34481
 O1097 O 0.31268 0.84566 0.24035
 O1098 O 0.25551 0.69519 0.33071
 O1099 O 0.31864 0.82805 0.29636
 O1100 O 0.35819 0.72252 0.27707
 O1101 O 0.29201 0.72223 0.28445
 O1102 O 0.31751 0.77464 0.25104
 O1103 O 0.23536 0.75593 0.29501
 O1104 O 0.25953 0.80801 0.26238
 Zr1105 Zr 0.23689 0.72930 0.19693
 Zr1106 Zr 0.23887 0.70178 0.27890
 Zr1107 Zr 0.28700 0.80228 0.21543
 Zr1108 Zr 0.31881 0.72031 0.23751
 O1109 O 0.26830 0.85236 0.19819
 O1110 O 0.32794 0.66642 0.25282
 O1111 O 0.29107 0.74865 0.19931
 O1112 O 0.26621 0.69817 0.23180
 O1113 O 0.20833 0.73033 0.24356
 O1114 O 0.23359 0.78366 0.21061
 C1115 C 0.36222 0.74216 0.30444
 C1116 C 0.32480 0.85023 0.27103
 C1117 C 0.27251 0.71660 0.35210
 O1118 O 0.25826 0.64916 0.28546
 O1119 O 0.20408 0.66326 0.25311
 O1120 O 0.20523 0.68099 0.19671
 C1121 C 0.19484 0.65947 0.22104
 O1122 O 0.20461 0.82308 0.29856
 Zr1123 Zr 0.20713 0.78460 0.25795
 O1124 O 0.18441 0.74017 0.18130
 O1125 O 0.19147 0.69575 0.30908
 O1126 O 0.16352 0.76463 0.28880
 O1127 O 0.18840 0.83450 0.23971
 O1128 O 0.16290 0.77507 0.22472
 C1129 C 0.15921 0.75710 0.19648
 O1130 O 0.25353 0.69337 0.15793
 O1131 O 0.33892 0.80817 0.19290
 O1132 O 0.24406 0.75589 0.14889
 O1133 O 0.28163 0.80422 0.16196
 O1134 O 0.36797 0.73875 0.21429
 O1135 O 0.32808 0.69037 0.19172
 C1136 C 0.26348 0.78425 0.14056
 H1137 H 0.34237 0.78533 0.25282
 H1138 H 0.26710 0.67279 0.22375
 H1139 H 0.22071 0.79809 0.19338
 H1140 H 0.22345 0.75766 0.31779
 H1141 H 0.35426 0.66288 0.25105
 H1142 H 0.24077 0.63587 0.30059
 H1143 H 0.19073 0.67060 0.31786
 H1144 H 0.14283 0.78016 0.28436
 H1145 H 0.38656 0.72137 0.22056
 H1146 H 0.34056 0.83271 0.18264
 H1147 H 0.24979 0.85937 0.21508
 H1148 H 0.16302 0.83630 0.24744
 H1149 H 0.35060 0.67705 0.19422
 H1150 H 0.23364 0.69100 0.14081
 H1151 H 0.29151 0.81499 0.35357
 H1152 H 0.17901 0.82678 0.30445
 Zr1153 Zr 0.20626 0.76521 0.70385
 O1154 O 0.22015 0.80313 0.66475
 O1155 O 0.15785 0.74263 0.68447
 O1156 O 0.21606 0.73984 0.65613
 O1157 O 0.17346 0.82795 0.76135
 O1158 O 0.25017 0.69175 0.67024
 O1159 O 0.17300 0.81149 0.70464
 O1160 O 0.14277 0.69699 0.72194
 O1161 O 0.20861 0.71006 0.71619
 O1162 O 0.17664 0.75696 0.74921
 O1163 O 0.26147 0.75374 0.70760
 O1164 O 0.23125 0.80053 0.74011
 Zr1165 Zr 0.26015 0.72588 0.80505
 Zr1166 Zr 0.26315 0.69924 0.72293
 Zr1167 Zr 0.20312 0.78929 0.78611
 Zr1168 Zr 0.18084 0.70271 0.76236
 O1169 O 0.21541 0.84230 0.80415
 O1170 O 0.17774 0.64760 0.74697
 O1171 O 0.20447 0.73528 0.80159
 O1172 O 0.23505 0.69020 0.76916
 O1173 O 0.28961 0.73263 0.75926
 O1174 O 0.25793 0.78047 0.79203
 C1175 C 0.13829 0.71492 0.69397
 C1176 C 0.16371 0.83215 0.72997
 C1177 C 0.23222 0.71060 0.64868
 O1178 O 0.24840 0.64417 0.71384
 O1179 O 0.29918 0.66525 0.74930
 O1180 O 0.29655 0.68349 0.80552
 C1181 C 0.30840 0.66307 0.78144
 O1182 O 0.28445 0.82596 0.70555
 Zr1183 Zr 0.28543 0.78685 0.74555
 O1184 O 0.31055 0.74632 0.82178
 O1185 O 0.31245 0.70192 0.69540
 O1186 O 0.33134 0.77620 0.71502
 O1187 O 0.29824 0.83922 0.76552
 O1188 O 0.32989 0.78455 0.77897
 C1189 C 0.33448 0.76726 0.80717
 O1190 O 0.24651 0.68711 0.84348
 O1191 O 0.15066 0.78459 0.80760
 O1192 O 0.24956 0.75081 0.85306
 O1193 O 0.20775 0.79210 0.83963
 O1194 O 0.12954 0.71224 0.78413
 O1195 O 0.17364 0.67161 0.80803
 C1196 C 0.22765 0.77572 0.86116
 H1197 H 0.15103 0.76317 0.74652
 H1198 H 0.23645 0.66481 0.77691
 H1199 H 0.26885 0.79696 0.80964
 H1200 H 0.27391 0.75797 0.68528
 H1201 H 0.15209 0.63909 0.74872
 H1202 H 0.26758 0.63420 0.69921
 H1203 H 0.31571 0.67743 0.68579
 H1204 H 0.34990 0.79555 0.72000
 H1205 H 0.11317 0.69146 0.77771
 H1206 H 0.14596 0.80838 0.81817
 H1207 H 0.23400 0.85260 0.78825
 H1208 H 0.32331 0.84592 0.75836
 H1209 H 0.15258 0.65452 0.80522
 H1210 H 0.26613 0.68824 0.86094
 H1211 H 0.19996 0.80255 0.64790
 H1212 H 0.30934 0.83554 0.70109
 Zr1213 Zr 0.30005 0.23449 0.21376
 O1214 O 0.27746 0.19908 0.17594
 O1215 O 0.35200 0.24309 0.19496
 O1216 O 0.30062 0.26285 0.16604
 O1217 O 0.32510 0.17159 0.27446
 O1218 O 0.26750 0.31274 0.17610
 O1219 O 0.32564 0.18350 0.21682
 O1220 O 0.37317 0.29175 0.22646
 O1221 O 0.30578 0.29037 0.22254
 O1222 O 0.33130 0.24174 0.25830
 O1223 O 0.24732 0.25380 0.21727
 O1224 O 0.27121 0.20574 0.25253
 Zr1225 Zr 0.25603 0.28923 0.31287
 Zr1226 Zr 0.25369 0.30926 0.22893
 Zr1227 Zr 0.30184 0.21609 0.29728
 Zr1228 Zr 0.33568 0.29722 0.26735
 O1229 O 0.28107 0.16718 0.31890
 O1230 O 0.34627 0.34947 0.24640
 O1231 O 0.30913 0.27119 0.30897
 O1232 O 0.28423 0.31821 0.27396
 O1233 O 0.22458 0.28298 0.26818
 O1234 O 0.24958 0.23365 0.30376
 C1235 C 0.37533 0.26857 0.20165
 C1236 C 0.33332 0.16373 0.24327
 C1237 C 0.28725 0.29313 0.15672
 O1238 O 0.27401 0.36234 0.21827
 O1239 O 0.21949 0.34673 0.25295
 O1240 O 0.22458 0.33538 0.31058
 C1241 C 0.21186 0.35290 0.28495
 O1242 O 0.21318 0.18472 0.22222
 Zr1243 Zr 0.21999 0.22778 0.25828
 O1244 O 0.20480 0.27760 0.33341
 O1245 O 0.20538 0.31027 0.19988
 O1246 O 0.17581 0.24233 0.22714
 O1247 O 0.19974 0.18013 0.28304
 O1248 O 0.17783 0.24168 0.29211
 C1249 C 0.17727 0.26078 0.31998
 O1250 O 0.27665 0.32986 0.34692
 O1251 O 0.35463 0.21302 0.31771
 O1252 O 0.26582 0.26764 0.36247
 O1253 O 0.30008 0.21926 0.35081
 O1254 O 0.38514 0.28281 0.29009
 O1255 O 0.34859 0.33205 0.30963
 C1256 C 0.28455 0.24061 0.37168
 H1257 H 0.35548 0.23143 0.25640
 H1258 H 0.28635 0.34427 0.27986
 H1259 H 0.23718 0.22052 0.32287
 H1260 H 0.23434 0.24973 0.19518
 H1261 H 0.37283 0.35394 0.24651
 H1262 H 0.25596 0.37369 0.20332
 H1263 H 0.20458 0.33476 0.18967
 H1264 H 0.15453 0.22729 0.23463
 H1265 H 0.40417 0.30006 0.28142
 H1266 H 0.35544 0.18954 0.32992
 H1267 H 0.26254 0.15761 0.30251
 H1268 H 0.17360 0.17752 0.27765
 H1269 H 0.37135 0.34602 0.30468
 H1270 H 0.25810 0.33317 0.36498
 H1271 H 0.29693 0.19506 0.15898
 H1272 H 0.18709 0.17861 0.21928
 Zr1273 Zr 0.70401 0.73635 0.28934
 O1274 O 0.72286 0.69753 0.32435
 O1275 O 0.65653 0.75152 0.31339
 O1276 O 0.71561 0.75992 0.33812
 O1277 O 0.67229 0.67162 0.23064
 O1278 O 0.74548 0.81349 0.32520
 O1279 O 0.67193 0.68691 0.28765
 O1280 O 0.63723 0.79762 0.27989
 O1281 O 0.70306 0.79224 0.28048
 O1282 O 0.67068 0.74363 0.24655
 O1283 O 0.75824 0.75467 0.28293
 O1284 O 0.72771 0.70681 0.24925
 Zr1285 Zr 0.74770 0.78920 0.18780
 Zr1286 Zr 0.75637 0.81013 0.27151
 Zr1287 Zr 0.69545 0.71699 0.20605
 Zr1288 Zr 0.67169 0.79909 0.23668
 O1289 O 0.70801 0.66722 0.18297
 O1290 O 0.66712 0.85270 0.25529
 O1291 O 0.69314 0.77204 0.19397
 O1292 O 0.72460 0.81913 0.22775
 O1293 O 0.78095 0.78293 0.23098
 O1294 O 0.74893 0.73362 0.19726
 C1295 C 0.63558 0.77751 0.30689
 C1296 C 0.66415 0.66512 0.26223
 C1297 C 0.73008 0.79100 0.34662
 O1298 O 0.74099 0.86328 0.28320
 O1299 O 0.79195 0.84766 0.24574
 O1300 O 0.78511 0.83417 0.18851
 C1301 C 0.79967 0.85277 0.21351
 O1302 O 0.78579 0.68600 0.27797
 Zr1303 Zr 0.78056 0.72774 0.24097
 O1304 O 0.79539 0.77558 0.16402
 O1305 O 0.80642 0.81126 0.29786
 O1306 O 0.82834 0.74354 0.26811
 O1307 O 0.79464 0.67842 0.21751
 O1308 O 0.82067 0.73819 0.20324
 C1309 C 0.82121 0.75688 0.17523
 O1310 O 0.72929 0.82995 0.15468
 O1311 O 0.64105 0.71596 0.18945
 O1312 O 0.73409 0.76618 0.13899
 O1313 O 0.69654 0.71777 0.15203
 O1314 O 0.61911 0.78474 0.21830
 O1315 O 0.65989 0.83176 0.19342
 C1316 C 0.71399 0.73818 0.13048
 H1317 H 0.64571 0.73402 0.25056
 H1318 H 0.72475 0.84513 0.22167
 H1319 H 0.75901 0.71960 0.17799
 H1320 H 0.77239 0.75041 0.30410
 H1321 H 0.64108 0.85790 0.25564
 H1322 H 0.76057 0.87446 0.29756
 H1323 H 0.80949 0.83563 0.30837
 H1324 H 0.84764 0.72787 0.25981
 H1325 H 0.60269 0.80325 0.22694
 H1326 H 0.63661 0.69219 0.17804
 H1327 H 0.72999 0.65933 0.19486
 H1328 H 0.82074 0.67542 0.22182
 H1329 H 0.63830 0.84584 0.19838
 H1330 H 0.74714 0.83250 0.13570
 H1331 H 0.70425 0.69439 0.34262
 H1332 H 0.81170 0.68127 0.28115
 Zr1333 Zr 0.79101 0.27123 0.79780
 O1334 O 0.77349 0.30662 0.83677
 O1335 O 0.84089 0.25836 0.81712
 O1336 O 0.78429 0.24305 0.84510
 O1337 O 0.82282 0.33631 0.73998
 O1338 O 0.75287 0.19076 0.83035
 O1339 O 0.82161 0.32169 0.79712
 O1340 O 0.85721 0.21130 0.78297
 O1341 O 0.79123 0.21581 0.78602
 O1342 O 0.82188 0.26569 0.75303
 O1343 O 0.73662 0.25312 0.79347
 O1344 O 0.76582 0.30294 0.76063
 Zr1345 Zr 0.74141 0.22380 0.69598
 Zr1346 Zr 0.73744 0.19839 0.77841
 Zr1347 Zr 0.79518 0.29405 0.71514
 Zr1348 Zr 0.82044 0.21082 0.74087
 O1349 O 0.78156 0.34532 0.69632
 O1350 O 0.82495 0.15665 0.75764
 O1351 O 0.79652 0.23971 0.70052
 O1352 O 0.76692 0.19180 0.73290
 O1353 O 0.71064 0.22801 0.74112
 O1354 O 0.74110 0.27877 0.70837
 C1355 C 0.86119 0.23239 0.80941
 C1356 C 0.83121 0.34245 0.77153
 C1357 C 0.77066 0.21119 0.85201
 O1358 O 0.75184 0.14419 0.78628
 O1359 O 0.70090 0.16205 0.75205
 O1360 O 0.70623 0.17764 0.69528
 C1361 C 0.69296 0.15776 0.71972
 O1362 O 0.70771 0.32482 0.79115
 Zr1363 Zr 0.71257 0.28275 0.75435
 O1364 O 0.69123 0.23847 0.67722
 O1365 O 0.68903 0.19674 0.80737
 O1366 O 0.66635 0.26801 0.78401
 O1367 O 0.69851 0.33329 0.73364
 O1368 O 0.66978 0.27475 0.71959
 C1369 C 0.66667 0.25736 0.69105
 O1370 O 0.75766 0.18567 0.65881
 O1371 O 0.84807 0.29485 0.69449
 O1372 O 0.75225 0.24886 0.64776
 O1373 O 0.79133 0.29578 0.66147
 O1374 O 0.87196 0.22563 0.72032
 O1375 O 0.83064 0.17934 0.69625
 C1376 C 0.77284 0.27650 0.63973
 H1377 H 0.84710 0.27514 0.75585
 H1378 H 0.76648 0.16616 0.72544
 H1379 H 0.73009 0.29374 0.69036
 H1380 H 0.72395 0.25575 0.81575
 H1381 H 0.85098 0.15140 0.75758
 H1382 H 0.73291 0.13266 0.80112
 H1383 H 0.68615 0.17189 0.81668
 H1384 H 0.64900 0.28741 0.78059
 H1385 H 0.88892 0.20728 0.72817
 H1386 H 0.85228 0.31906 0.68399
 H1387 H 0.76226 0.35371 0.71169
 H1388 H 0.67277 0.33687 0.73934
 H1389 H 0.85198 0.16463 0.70035
 H1390 H 0.73866 0.18414 0.64076
 H1391 H 0.79333 0.30901 0.85391
 H1392 H 0.70655 0.31360 0.81427
 C1393 C 0.45246 1.04627 0.33746
 C1394 C 0.47047 1.01716 0.34821
 H1395 H 0.45146 1.06931 0.35477
 H1396 H 0.47619 0.99476 0.33144
 C1397 C -0.05212 0.54866 0.83873
 C1398 C -0.03141 0.52174 0.84974
 H1399 H -0.05568 0.57146 0.85590
 H1400 H -0.02338 0.50027 0.83280
 C1401 C 0.04198 -0.06567 0.83376
 C1402 C 0.01867 -0.04092 0.84409
 H1403 H 0.04901 -0.08701 0.85138
 H1404 H 0.00902 -0.02095 0.82629
 C1405 C 0.53228 0.43937 0.32775
 C1406 C 0.51259 0.46609 0.34027
 H1407 H 0.53536 0.41534 0.34331
 H1408 H 0.50658 0.48939 0.32479
 C1409 C 0.55170 0.56325 0.16644
 C1410 C 0.52240 0.54345 0.15604
 H1411 H 0.56326 0.58397 0.14955
 H1412 H 0.50909 0.52423 0.17331
 C1413 C 0.05901 1.05350 0.66504
 C1414 C 0.03046 1.03292 0.65391
 H1415 H 0.06839 1.07600 0.64905
 H1416 H 0.01716 1.01303 0.67045
 C1417 C -0.05558 0.44559 0.65803
 C1418 C -0.02775 0.46745 0.64805
 H1419 H -0.06625 0.42488 0.64055
 H1420 H -0.01519 0.48659 0.66601
 C1421 C 0.44603 -0.05193 0.15989
 C1422 C 0.47315 -0.02894 0.15038
 H1423 H 0.43678 -0.07325 0.14237
 H1424 H 0.48441 -0.00906 0.16834
 C1425 C 0.35099 0.40050 0.02222
 C1426 C 0.36714 0.42203 0.04583
 H1427 H 0.35840 0.40420 -0.00467
 H1428 H 0.38297 0.43763 0.03977
 C1429 C -0.15379 0.91494 0.52436
 C1430 C -0.13161 0.93253 0.54684
 H1431 H -0.15144 0.92263 0.49745
 H1432 H -0.13392 0.92735 0.57418
 C1433 C -0.14820 0.08228 0.97612
 C1434 C -0.13396 0.05934 0.95364
 H1435 H -0.14014 0.08099 1.00296
 H1436 H -0.14217 0.05976 0.92685
 C1437 C 0.35735 0.59462 0.48022
 C1438 C 0.37426 0.57430 0.45722
 H1439 H 0.36302 0.59094 0.50739
 H1440 H 0.36799 0.57686 0.43009
 C1441 C 0.15394 0.58626 0.51794
 C1442 C 0.13652 0.56428 0.54036
 H1443 H 0.14672 0.58476 0.49086
 H1444 H 0.14412 0.56464 0.56732
 C1445 C 0.64744 0.10165 0.02111
 C1446 C 0.63098 0.07892 0.04345
 H1447 H 0.63905 0.10089 -0.00568
 H1448 H 0.63981 0.07866 0.07009
 C1449 C 0.64607 0.90084 0.48243
 C1450 C 0.62278 0.91481 0.45999
 H1451 H 0.64368 0.90812 0.50941
 H1452 H 0.62456 0.90847 0.43287
 C1453 C 0.14004 0.39660 0.97856
 C1454 C 0.11688 0.41105 0.95639
 H1455 H 0.13704 0.40267 1.00576
 H1456 H 0.11963 0.40631 0.92901
 C1457 C 0.04393 0.34156 0.40026
 C1458 C 0.01417 0.35985 0.40621
 H1459 H 0.06849 0.34803 0.41459
 H1460 H -0.00924 0.35599 0.38966
 C1461 C 0.54839 -0.15472 -0.09385
 C1462 C 0.51981 -0.13429 -0.08996
 H1463 H 0.57239 -0.14997 -0.07824
 H1464 H 0.49735 -0.13704 -0.10783
 C1465 C -0.04522 -0.17648 1.08172
 C1466 C -0.01638 -0.15440 1.07745
 H1467 H -0.06960 -0.17228 1.06701
 H1468 H 0.00683 -0.15640 1.09426
 C1469 C 0.46363 0.34588 0.60208
 C1470 C 0.44740 0.34536 0.57124
 H1471 H 0.48326 0.36721 0.60893
 H1472 H 0.42824 0.32368 0.56419
 C1473 C 0.53484 1.15257 0.59347
 C1474 C 0.54912 1.14773 0.56232
 H1475 H 0.51347 1.13448 0.60320
 H1476 H 0.56967 1.16657 0.55228
 C1477 C 0.02690 0.64301 1.10535
 C1478 C 0.04852 0.63163 1.08031
 H1479 H -0.00043 0.63141 1.10689
 H1480 H 0.07463 0.64481 1.07539
 C1481 C 0.45244 0.66629 -0.08913
 C1482 C 0.48242 0.64842 -0.08351
 H1483 H 0.42802 0.65786 -0.07538
 H1484 H 0.50627 0.65258 -0.09922
 C1485 C -0.04120 1.15979 0.40883
 C1486 C -0.00970 1.14614 0.41774
 H1487 H -0.06551 1.14866 0.42116
 H1488 H 0.01517 1.15269 0.40426
 C1489 C 0.81414 0.70484 0.91843
 C1490 C 0.78772 0.72584 0.90703
 H1491 H 0.83710 0.70118 0.90156
 H1492 H 0.76641 0.73438 0.92390
 C1493 C 0.31444 0.21120 0.41937
 C1494 C 0.28708 0.23126 0.40840
 H1495 H 0.33806 0.20987 0.40290
 H1496 H 0.26469 0.23767 0.42489
 C1497 C 0.68938 0.31003 0.41451
 C1498 C 0.71423 0.28679 0.40358
 H1499 H 0.66775 0.31725 0.39732
 H1500 H 0.73437 0.27718 0.42119
 C1501 C 0.19918 0.80828 0.90837
 C1502 C 0.22650 0.78827 0.89716
 H1503 H 0.17544 0.80972 0.89210
 H1504 H 0.24907 0.78219 0.91355
 C1505 C 0.29200 0.81700 0.09228
 C1506 C 0.26422 0.79602 0.10435
 H1507 H 0.31587 0.82042 0.10839
 H1508 H 0.24158 0.78771 0.08817
 C1509 C 0.79869 0.31371 0.59284
 C1510 C 0.77412 0.28841 0.60347
 H1511 H 0.82049 0.32241 0.60998
 H1512 H 0.75368 0.27760 0.58587
 C1513 C 0.19974 0.19066 0.58653
 C1514 C 0.22017 0.21985 0.59641
 H1515 H 0.17989 0.17897 0.60423
 H1516 H 0.23847 0.23344 0.57846
 C1517 C 0.69270 0.69817 0.08277
 C1518 C 0.71353 0.72660 0.09390
 H1519 H 0.67107 0.68746 0.09907
 H1520 H 0.73370 0.73893 0.07696
 C1521 C 0.15518 0.60484 0.23219
 C1522 C 0.17101 0.62840 0.21018
 H1523 H 0.16017 0.60855 0.25955
 H1524 H 0.16723 0.62482 0.18271
 C1525 C 0.64908 0.10669 0.73170
 C1526 C 0.66754 0.12762 0.70906
 H1527 H 0.65229 0.11269 0.75894
 H1528 H 0.66551 0.12162 0.68177
 C1529 C 0.83571 0.10840 0.27627
 C1530 C 0.82362 0.13385 0.29792
 H1531 H 0.82557 0.10875 0.25003
 H1532 H 0.83203 0.13456 0.32459
 C1533 C 0.34477 0.60841 0.77183
 C1534 C 0.33399 0.63521 0.79255
 H1535 H 0.33458 0.60822 0.74559
 H1536 H 0.34249 0.63653 0.81918
 C1537 C 0.34802 0.39817 0.72996
 C1538 C 0.32849 0.37860 0.70674
 H1539 H 0.34444 0.39184 0.75706
 H1540 H 0.33082 0.38528 0.67964
 C1541 C 0.84144 0.90557 0.22724
 C1542 C 0.82747 0.88159 0.20405
 H1543 H 0.83109 0.90335 0.25335
 H1544 H 0.83512 0.88357 0.17719
 C1545 C 0.66628 0.89591 0.77484
 C1546 C 0.68643 0.87821 0.79747
 H1547 H 0.66879 0.88946 0.74767
 H1548 H 0.68505 0.88495 0.82462
 C1549 C 0.16629 0.39817 0.27026
 C1550 C 0.18624 0.38136 0.29377
 H1551 H 0.17016 0.39194 0.24321
 H1552 H 0.18349 0.38802 0.32081
 C1553 C 0.09453 0.29113 0.83689
 C1554 C 0.11465 0.26216 0.83505
 H1555 H 0.10032 0.31415 0.82023
 H1556 H 0.11124 0.24033 0.85345
 C1557 C 0.60543 0.76872 0.36252
 C1558 C 0.60776 0.78542 0.33208
 H1559 H 0.62353 0.74750 0.36921
 H1560 H 0.58817 0.80525 0.32520
 C1561 C 0.60190 0.21254 0.14457
 C1562 C 0.59864 0.20431 0.17799
 H1563 H 0.62585 0.22692 0.13489
 H1564 H 0.57450 0.19030 0.18774
 C1565 C 0.10467 0.71729 0.63997
 C1566 C 0.10846 0.70296 0.67128
 H1567 H 0.12365 0.73810 0.63070
 H1568 H 0.08851 0.68323 0.68087
 C1569 C 0.91278 0.79182 0.65975
 C1570 C 0.89693 0.76090 0.67075
 H1571 H 0.90184 0.81709 0.66843
 H1572 H 0.90334 0.73510 0.65965
 C1573 C 0.42587 0.30071 0.17291
 C1574 C 0.40615 0.27041 0.17849
 H1575 H 0.41967 0.32537 0.18648
 H1576 H 0.40987 0.24674 0.16257
 C1577 C 0.41032 0.70588 0.32739
 C1578 C 0.39334 0.73701 0.32657
 H1579 H 0.40136 0.68367 0.31077
 H1580 H 0.39972 0.75807 0.34532
 C1581 C 0.91018 0.19858 0.83585
 C1582 C 0.89105 0.22820 0.83311
 H1583 H 0.90310 0.17450 0.82096
 H1584 H 0.89623 0.25064 0.85072
 C1585 C 0.58195 1.02080 0.64939
 C1586 C 0.56746 1.04421 0.62750
 H1587 H 0.57874 0.99226 0.64300
 H1588 H 0.56551 1.07238 0.63465
 C1589 C 0.08460 0.53048 1.14312
 C1590 C 0.05198 0.51528 1.13578
 H1591 H 0.10112 0.54142 1.12223
 H1592 H 0.03357 0.50768 1.15646
 C1593 C -0.07592 -0.01879 1.15111
 C1594 C -0.06171 -0.04358 1.13015
 H1595 H -0.07092 0.00942 1.14434
 H1596 H -0.06137 -0.07164 1.13801
 C1597 C 0.42433 0.47723 0.64921
 C1598 C 0.43687 0.45226 0.62746
 H1599 H 0.42933 0.50541 0.64232
 H1600 H 0.43710 0.42415 0.63520
 C1601 C 0.41787 0.54141 -0.14134
 C1602 C 0.45157 0.53140 -0.13356
 H1603 H 0.39995 0.54822 -0.12041
 H1604 H 0.47105 0.52807 -0.15404
 C1605 C -0.08645 1.04258 0.36004
 C1606 C -0.05269 1.03216 0.36697
 H1607 H -0.10386 1.04919 0.38144
 H1608 H -0.03374 1.02892 0.34602
 C1609 C 0.08467 0.46119 0.35397
 C1610 C 0.05145 0.47291 0.36072
 H1611 H 0.10158 0.45336 0.37531
 H1612 H 0.03276 0.47743 0.33983
 C1613 C 0.58755 -0.03634 -0.14115
 C1614 C 0.55450 -0.02341 -0.13555
 H1615 H 0.60352 -0.04435 -0.11922
 H1616 H 0.53667 -0.01874 -0.15708
 C1617 C 0.65336 0.60998 -0.00854
 C1618 C 0.61897 0.61959 -0.01271
 H1619 H 0.66043 0.58318 -0.01692
 H1620 H 0.61238 0.64743 -0.00790
 C1621 C 0.15632 1.09480 0.50559
 C1622 C 0.13094 1.09609 0.48061
 H1623 H 0.15230 1.07554 0.52640
 H1624 H 0.13407 1.11520 0.45960
 C1625 C 0.12934 -0.12107 0.98937
 C1626 C 0.12027 -0.09852 1.01525
 H1627 H 0.10856 -0.12750 0.97034
 H1628 H 0.13830 -0.09230 1.03658
 C1629 C 0.63387 0.38333 0.50806
 C1630 C 0.59915 0.37226 0.50362
 H1631 H 0.63927 0.40813 0.52248
 H1632 H 0.59310 0.34629 0.49160
 C1633 C -0.13433 0.37586 0.49831
 C1634 C -0.12746 0.40302 0.47579
 H1635 H -0.11132 0.36617 0.51245
 H1636 H -0.14844 0.41398 0.45998
 C1637 C 0.36501 -0.11910 0.00476
 C1638 C 0.37439 -0.09547 -0.02066
 H1639 H 0.38639 -0.12631 0.02231
 H1640 H 0.35546 -0.08798 -0.04039
 C1641 C 0.37808 1.12425 0.48855
 C1642 C 0.38968 1.10639 0.51657
 H1643 H 0.39449 1.12336 0.46541
 H1644 H 0.37626 1.10855 0.54123
 C1645 C -0.12188 0.62502 0.99527
 C1646 C -0.11292 0.60371 1.02201
 H1647 H -0.10287 0.62693 0.97400
 H1648 H -0.12895 0.60224 1.04532
 C1649 C 0.01346 0.63887 0.57581
 C1650 C 0.02369 0.60690 0.58729
 H1651 H -0.00398 0.64017 0.55341
 H1652 H 0.03988 0.60527 0.61046
 C1653 C 0.50814 0.14505 0.07545
 C1654 C 0.51389 0.11296 0.08956
 H1655 H 0.49416 0.14689 0.05099
 H1656 H 0.52690 0.11135 0.11452
 C1657 C -0.01222 0.13452 0.92028
 C1658 C -0.01841 0.10151 0.90702
 H1659 H -0.00015 0.13766 0.94565
 H1660 H -0.02940 0.09824 0.88127
 C1661 C 0.47307 0.61947 0.40095
 C1662 C 0.50117 0.60751 0.41874
 H1663 H 0.45039 0.60093 0.39532
 H1664 H 0.52436 0.62498 0.42489
 C1665 C 0.52087 0.85961 0.41867
 C1666 C 0.49244 0.87028 0.43623
 H1667 H 0.52186 0.83721 0.41426
 H1668 H 0.47209 0.85088 0.44572
 C1669 C 0.00843 0.36579 0.89808
 C1670 C -0.01358 0.37305 0.92428
 H1671 H 0.02275 0.38802 0.88516
 H1672 H -0.02765 0.35157 0.93834
 C1673 C 0.49439 0.37018 0.08238
 C1674 C 0.49051 0.40253 0.09665
 H1675 H 0.50349 0.36810 0.05587
 H1676 H 0.48199 0.40524 0.12320
 C1677 C -0.01155 0.86292 0.57824
 C1678 C -0.01728 0.89511 0.59222
 H1679 H 0.00041 0.86114 0.55279
 H1680 H -0.02822 0.89732 0.61800
 C1681 C 0.27298 0.32153 0.10112
 C1682 C 0.29754 0.30802 0.12249
 H1683 H 0.24475 0.31677 0.10786
 H1684 H 0.32564 0.30736 0.11488
 C1685 C 0.78298 0.83202 0.60917
 C1686 C 0.77627 0.79694 0.61733
 H1687 H 0.78744 0.85140 0.62991
 H1688 H 0.77523 0.77669 0.59709
 C1689 C 0.22166 0.66296 0.60560
 C1690 C 0.22966 0.69775 0.61283
 H1691 H 0.21585 0.64416 0.62648
 H1692 H 0.23161 0.71745 0.59220
 C1693 C 0.72972 0.17296 0.10231
 C1694 C 0.70506 0.18674 0.12335
 H1695 H 0.75795 0.17734 0.10923
 H1696 H 0.67713 0.18763 0.11529
 C1697 C 0.78712 0.16305 0.89237
 C1698 C 0.77632 0.19692 0.88706
 H1699 H 0.79350 0.14635 0.87035
 H1700 H 0.77351 0.21515 0.90872
 C1701 C 0.29031 0.67036 0.39402
 C1702 C 0.27813 0.70344 0.38761
 H1703 H 0.29810 0.65349 0.37258
 H1704 H 0.27379 0.72190 0.40882
 C1705 C 0.71860 0.83447 0.39347
 C1706 C 0.72830 0.80141 0.38357
 H1707 H 0.71166 0.85381 0.37381
 H1708 H 0.73140 0.78061 0.40285
 C1709 C 0.21381 0.32767 0.89145
 C1710 C 0.22860 0.29583 0.88435
 H1711 H 0.20422 0.34385 0.87030
 H1712 H 0.23484 0.27757 0.90512
 C1713 C 0.88045 0.38165 0.75269
 C1714 C 0.85421 0.37571 0.77633
 H1715 H 0.88851 0.35824 0.73800
 H1716 H 0.84491 0.39705 0.79282
 C1717 C 0.37336 0.88788 0.24890
 C1718 C 0.34920 0.88258 0.27464
 H1719 H 0.37853 0.86433 0.23307
 H1720 H 0.34321 0.90322 0.29334
 C1721 C 0.11618 0.86998 0.75014
 C1722 C 0.13986 0.86309 0.72473
 H1723 H 0.11143 0.84870 0.76904
 H1724 H 0.14478 0.88165 0.70358
 C1725 C 0.61349 0.37579 0.25220
 C1726 C 0.63659 0.36649 0.22723
 H1727 H 0.60879 0.35619 0.27269
 H1728 H 0.64111 0.38300 0.20452
 C1729 C 0.64853 0.60185 0.24788
 C1730 C 0.64299 0.63075 0.26818
 H1731 H 0.67207 0.60232 0.23126
 H1732 H 0.61983 0.63090 0.28522
 C1733 C 0.15693 0.09303 0.74271
 C1734 C 0.15705 0.11798 0.76824
 H1735 H 0.17572 0.09686 0.72148
 H1736 H 0.13837 0.11505 0.78962
 C1737 C 0.37247 0.11766 0.26647
 C1738 C 0.35381 0.12991 0.23912
 H1739 H 0.37358 0.13452 0.28939
 H1740 H 0.35366 0.11573 0.21467
 C1741 C 0.86949 0.61476 0.76175
 C1742 C 0.84765 0.62412 0.73545
 H1743 H 0.87276 0.63411 0.78268
 H1744 H 0.84473 0.60766 0.71244
 C1745 C 0.88595 0.75110 0.16756
 C1746 C 0.85382 0.75887 0.15456
 H1747 H 0.88701 0.73692 0.19199
 H1748 H 0.85108 0.77014 0.12905
 C1749 C 0.39530 0.25499 0.67314
 C1750 C 0.36344 0.26021 0.65845
 H1751 H 0.39697 0.24165 0.69793
 H1752 H 0.36191 0.27260 0.63322
 C1753 C 0.37808 0.75063 0.85042
 C1754 C 0.37070 0.76948 0.82216
 H1755 H 0.35596 0.73816 0.86503
 H1756 H 0.39205 0.78182 0.80662
 C1757 C 0.87226 0.23617 0.34289
 C1758 C 0.86295 0.26380 0.32361
 H1759 H 0.89360 0.23362 0.34610
 H1760 H 0.88313 0.28253 0.31274
 C1761 C 0.11095 0.26008 0.32174
 C1762 C 0.14279 0.26554 0.33754
 H1763 H 0.10969 0.24748 0.29647
 H1764 H 0.14395 0.27711 0.36323
 C1765 C 0.61062 0.75980 0.82779
 C1766 C 0.64298 0.76394 0.84289
 H1767 H 0.60824 0.74725 0.80255
 H1768 H 0.64541 0.77561 0.86846
 C1769 C 0.62395 0.23877 0.64615
 C1770 C 0.63156 0.25805 0.67449
 H1771 H 0.64521 0.22478 0.63305
 H1772 H 0.61055 0.27086 0.68889
 C1773 C 0.11467 0.73131 0.15616
 C1774 C 0.12285 0.75438 0.18182
 H1775 H 0.13596 0.71651 0.14403
 H1776 H 0.10185 0.76799 0.19553
   
