data_POSCAR
  _audit_creation_date              2014-09-24
  _audit_creation_method            'ToBaCCo'
  _symmetry_space_group_name_H-M    'P1'
  _symmetry_Int_Tables_number       1
  _symmetry_cell_setting            triclinic
  loop_
  _symmetry_equiv_pos_as_xyz
 x,y,z
_cell_length_a 38.8587
_cell_length_b 38.7100
_cell_length_c 42.4663
_cell_angle_alpha 88.966700
_cell_angle_beta 90.392700
_cell_angle_gamma 90.255500
loop_
  _atom_site_label
  _atom_site_type_symbol
  _atom_site_fract_x
  _atom_site_fract_y
  _atom_site_fract_z
C1 C 0.43021 0.01168 0.28722
 C2 C 0.40938 0.04510 0.28241
 C3 C 0.38880 0.04555 0.25600
 C4 C 0.39143 0.01222 0.23655
 C5 C 0.40339 -0.01713 0.28634
 C6 C 0.38339 -0.01772 0.26020
 C7 C 0.45066 0.00831 0.25664
 C8 C 0.43052 0.00921 0.22999
 H9 H 0.41171 0.06695 0.29797
 H10 H 0.37493 0.01220 0.21511
 H11 H 0.40102 -0.03665 0.30494
 H12 H 0.47858 0.00846 0.25603
 C13 C 0.06779 -0.00033 0.78026
 C14 C 0.08806 -0.03383 0.77583
 C15 C 0.10940 -0.03347 0.75019
 C16 C 0.10777 0.00135 0.73116
 C17 C 0.09521 0.02795 0.78126
 C18 C 0.11624 0.02957 0.75593
 C19 C 0.04925 0.00517 0.75102
 C20 C 0.07083 0.00599 0.72369
 H21 H 0.08552 -0.05564 0.79199
 H22 H 0.12495 0.00220 0.71038
 H23 H 0.09718 0.04625 0.80032
 H24 H 0.02133 0.00494 0.74969
 C25 C 0.57186 0.49849 0.27767
 C26 C 0.59541 0.46691 0.27478
 C27 C 0.61731 0.46843 0.24968
 C28 C 0.61340 0.50196 0.22952
 C29 C 0.59623 0.52940 0.27800
 C30 C 0.61795 0.53189 0.25327
 C31 C 0.55298 0.50091 0.24599
 C32 C 0.57448 0.50223 0.22057
 H33 H 0.59370 0.44446 0.29042
 H34 H 0.63102 0.50373 0.20908
 H35 H 0.59657 0.54802 0.29686
 H36 H 0.52525 0.49820 0.24381
 C37 C 0.93194 0.50707 0.78299
 C38 C 0.90751 0.53813 0.77918
 C39 C 0.88642 0.53686 0.75316
 C40 C 0.89217 0.50460 0.73308
 C41 C 0.90835 0.47554 0.78198
 C42 C 0.88772 0.47364 0.75632
 C43 C 0.95198 0.50673 0.75195
 C44 C 0.93125 0.50592 0.72567
 H45 H 0.90791 0.55985 0.79500
 H46 H 0.87523 0.50325 0.71199
 H47 H 0.90721 0.45637 0.80097
 H48 H 0.97967 0.51032 0.75078
 C49 C 0.28920 0.36812 0.99612
 C50 C 0.28504 0.34415 1.02449
 C51 C 0.25567 0.32497 1.02473
 C52 C 0.23229 0.33139 0.99542
 C53 C 0.28592 0.34434 0.96781
 C54 C 0.25592 0.32554 0.96672
 C55 C 0.25599 0.38997 0.99520
 C56 C 0.22606 0.37083 0.99471
 H57 H 0.30276 0.34453 1.04441
 H58 H 0.20847 0.31544 0.99534
 H59 H 0.30467 0.34440 0.94897
 H60 H 0.25626 0.41800 0.99513
 C61 C 0.77699 0.13046 0.99835
 C62 C 0.77610 0.15537 0.97051
 C63 C 0.74930 0.17780 0.97001
 C64 C 0.72409 0.17208 0.99826
 C65 C 0.77560 0.15376 1.02721
 C66 C 0.74744 0.17512 1.02781
 C67 C 0.74396 0.11265 0.99770
 C68 C 0.71454 0.13520 0.99830
 H69 H 0.79500 0.15456 0.95178
 H70 H 0.70207 0.19023 0.99777
 H71 H 0.79344 0.15099 1.04689
 H72 H 0.74166 0.08472 0.99968
 C73 C 0.27986 0.63277 0.49611
 C74 C 0.27947 0.65891 0.46922
 C75 C 0.25300 0.68167 0.46932
 C76 C 0.22750 0.67529 0.49708
 C77 C 0.27821 0.65460 0.52589
 C78 C 0.25039 0.67639 0.52698
 C79 C 0.24462 0.61467 0.49446
 C80 C 0.21699 0.63658 0.49556
 H81 H 0.29827 0.65843 0.45040
 H82 H 0.20558 0.69357 0.49714
 H83 H 0.29602 0.65094 0.54546
 H84 H 0.24178 0.58675 0.49532
 C85 C 0.78392 0.87029 0.50028
 C86 C 0.78102 0.84334 0.52654
 C87 C 0.75329 0.82186 0.52443
 C88 C 0.72981 0.82987 0.49549
 C89 C 0.78269 0.84939 0.46989
 C90 C 0.75417 0.82857 0.46682
 C91 C 0.74940 0.88961 0.50074
 C92 C 0.72094 0.86872 0.49795
 H93 H 0.79809 0.84331 0.54692
 H94 H 0.70711 0.81249 0.49369
 H95 H 0.80222 0.85195 0.45184
 H96 H 0.74768 0.91745 0.50293
 C97 C -0.00926 0.29006 0.39480
 C98 C 0.02712 0.28385 0.38330
 C99 C 0.02916 0.25677 0.36362
 C100 C -0.00494 0.23857 0.35717
 C101 C -0.03022 0.29397 0.36676
 C102 C -0.02813 0.26543 0.34601
 C103 C -0.02024 0.25582 0.41016
 C104 C -0.01749 0.22861 0.39019
 H105 H 0.04900 0.30027 0.38890
 H106 H -0.00271 0.21642 0.34109
 H107 H -0.05077 0.31290 0.36497
 H108 H -0.02311 0.25248 0.43546
 C109 C 0.00447 0.76754 0.10671
 C110 C -0.00541 0.77512 0.14058
 C111 C -0.00528 0.74685 0.15990
 C112 C 0.00846 0.71468 0.14411
 C113 C 0.04033 0.75264 0.10868
 C114 C 0.04284 0.72568 0.12954
 C115 C -0.01841 0.73768 0.09630
 C116 C -0.01540 0.70932 0.11572
 H117 H -0.01991 0.79813 0.14629
 H118 H 0.01050 0.69202 0.16041
 H119 H 0.06267 0.76726 0.10064
 H120 H -0.02863 0.73610 0.07249
 C121 C 0.50191 0.26702 0.60687
 C122 C 0.49222 0.27545 0.64063
 C123 C 0.49259 0.24765 0.66055
 C124 C 0.50623 0.21507 0.64534
 C125 C 0.53785 0.25225 0.60904
 C126 C 0.54046 0.22566 0.63025
 C127 C 0.47902 0.23680 0.59724
 C128 C 0.48211 0.20898 0.61730
 H129 H 0.47765 0.29853 0.64594
 H130 H 0.50843 0.19283 0.66208
 H131 H 0.56015 0.26659 0.60055
 H132 H 0.46850 0.23460 0.57359
 C133 C 0.49157 0.78479 0.90077
 C134 C 0.52806 0.77737 0.89025
 C135 C 0.52981 0.75078 0.87010
 C136 C 0.49519 0.73373 0.86276
 C137 C 0.47083 0.79030 0.87048
 C138 C 0.47263 0.76336 0.85048
 C139 C 0.47894 0.75285 0.91456
 C140 C 0.48147 0.72420 0.89359
 H141 H 0.54999 0.79389 0.89550
 H142 H 0.49692 0.71212 0.84604
 H143 H 0.45162 0.81051 0.86791
 H144 H 0.47566 0.74943 0.93982
 C145 C -0.23672 0.68258 0.96789
 C146 C -0.20798 0.65545 0.97117
 C147 C -0.21072 0.63409 0.99718
 C148 C -0.24224 0.64219 1.01771
 C149 C -0.27006 0.66185 0.96938
 C150 C -0.27349 0.64063 0.99475
 C151 C -0.23518 0.70223 0.99892
 C152 C -0.23766 0.68121 1.02523
 H153 H -0.18623 0.65465 0.95530
 H154 H -0.24493 0.62505 1.03880
 H155 H -0.28904 0.66235 0.95045
 H156 H -0.22977 0.72971 1.00003
 C157 C -0.24973 0.32082 0.46785
 C158 C -0.28362 0.34059 0.47194
 C159 C -0.28433 0.36123 0.49784
 C160 C -0.25047 0.35939 0.51771
 C161 C -0.22196 0.34879 0.46806
 C162 C -0.22154 0.36901 0.49376
 C163 C -0.24507 0.30132 0.49704
 C164 C -0.24566 0.32216 0.52478
 H165 H -0.30515 0.33854 0.45563
 H166 H -0.25067 0.37601 0.53874
 H167 H -0.20320 0.35192 0.44933
 H168 H -0.24429 0.27329 0.49789
 C169 C 0.25020 -0.17815 -0.03279
 C170 C 0.21608 -0.15885 -0.02884
 C171 C 0.21482 -0.13820 -0.00290
 C172 C 0.24880 -0.13940 0.01689
 C173 C 0.27749 -0.14976 -0.03271
 C174 C 0.27770 -0.12957 -0.00700
 C175 C 0.25512 -0.19746 -0.00350
 C176 C 0.25416 -0.17645 0.02414
 H177 H 0.19521 -0.16109 -0.04573
 H178 H 0.24828 -0.12264 0.03783
 H179 H 0.29678 -0.14706 -0.05103
 H180 H 0.25648 -0.22546 -0.00251
 C181 C 0.26027 1.18113 0.46960
 C182 C 0.28879 1.15377 0.47306
 C183 C 0.28546 1.13226 0.49893
 C184 C 0.25360 1.14039 0.51900
 C185 C 0.22678 1.16055 0.47029
 C186 C 0.22274 1.13924 0.49559
 C187 C 0.26143 1.20041 0.50079
 C188 C 0.25830 1.17924 0.52683
 H189 H 0.31089 1.15306 0.45758
 H190 H 0.25042 1.12307 0.53989
 H191 H 0.20807 1.16159 0.45115
 H192 H 0.26748 1.22774 0.50223
 C193 C 0.12058 0.53985 0.25179
 C194 C 0.09651 0.53620 0.22371
 C195 C 0.07447 0.50883 0.22550
 C196 C 0.07922 0.48616 0.25566
 C197 C 0.09660 0.53996 0.28047
 C198 C 0.07529 0.51158 0.28299
 C199 C 0.13933 0.50496 0.25433
 C200 C 0.11790 0.47675 0.25667
 H201 H 0.09808 0.55307 0.20303
 H202 H 0.06152 0.46360 0.25697
 H203 H 0.09811 0.55961 0.29835
 H204 H 0.16717 0.50286 0.25441
 C205 C -0.11737 1.02971 0.25128
 C206 C -0.09274 1.02925 0.27899
 C207 C -0.07025 1.00249 0.27986
 C208 C -0.07552 0.97693 0.25211
 C209 C -0.09401 1.02827 0.22238
 C210 C -0.07252 1.00018 0.22216
 C211 C -0.13490 0.99640 0.25261
 C212 C -0.11215 0.96702 0.25253
 H213 H -0.09406 1.04816 0.29756
 H214 H -0.05719 0.95505 0.25287
 H215 H -0.09687 1.04592 0.20237
 H216 H -0.16270 0.99385 0.25090
 C217 C 0.38316 0.53187 -0.25158
 C218 C 0.40889 0.53164 -0.22481
 C219 C 0.43142 0.50501 -0.22448
 C220 C 0.42498 0.47893 -0.25147
 C221 C 0.40506 0.52960 -0.28132
 C222 C 0.42641 0.50146 -0.28184
 C223 C 0.36469 0.49671 -0.24902
 C224 C 0.38630 0.46872 -0.24945
 H225 H 0.40831 0.55074 -0.20636
 H226 H 0.44304 0.45679 -0.25111
 H227 H 0.40163 0.54706 -0.30138
 H228 H 0.33686 0.49415 -0.24967
 C229 C 0.62115 0.03435 -0.24740
 C230 C 0.59473 0.03160 -0.27375
 C231 C 0.57276 0.00421 -0.27114
 C232 C 0.57993 -0.01929 -0.24183
 C233 C 0.59973 0.03376 -0.21711
 C234 C 0.57843 0.00552 -0.21368
 C235 C 0.63984 -0.00059 -0.24711
 C236 C 0.61859 -0.02883 -0.24391
 H237 H 0.59504 0.04877 -0.29428
 H238 H 0.56227 -0.04182 -0.23971
 H239 H 0.60212 0.05358 -0.19947
 H240 H 0.66757 -0.00272 -0.24918
 C241 C 0.03428 0.24741 0.84753
 C242 C 0.04341 0.26508 0.87839
 C243 C 0.01673 0.26655 0.89877
 C244 C -0.01586 0.24845 0.88693
 C245 C 0.02194 0.21144 0.85738
 C246 C -0.00419 0.21203 0.87854
 C247 C 0.00435 0.26525 0.83519
 C248 C -0.02376 0.26549 0.85692
 H249 H 0.06579 0.28185 0.88058
 H250 H -0.03704 0.24859 0.90430
 H251 H 0.03624 0.18814 0.85236
 H252 H 0.00114 0.27158 0.81030
 C253 C 0.51944 0.25693 0.15010
 C254 C 0.50308 0.22168 0.14566
 C255 C 0.47800 0.22195 0.12313
 C256 C 0.46984 0.25785 0.10963
 C257 C 0.53003 0.26938 0.11718
 C258 C 0.50369 0.27099 0.09623
 C259 C 0.49007 0.28032 0.15967
 C260 C 0.46348 0.28005 0.13843
 H261 H 0.51599 0.19806 0.15323
 H262 H 0.44844 0.25806 0.09216
 H263 H 0.55383 0.28364 0.11320
 H264 H 0.48695 0.28878 0.18374
 C265 C 0.01953 0.75194 0.64917
 C266 C 0.02902 0.74063 0.61609
 C267 C 0.00241 0.74152 0.59537
 C268 C -0.03035 0.75620 0.60915
 C269 C 0.00579 0.78833 0.64510
 C270 C -0.01973 0.79070 0.62318
 C271 C -0.01151 0.73004 0.65887
 C272 C -0.03819 0.73306 0.63783
 H273 H 0.05175 0.72510 0.61189
 H274 H -0.05170 0.75833 0.59174
 H275 H 0.02007 0.81077 0.65310
 H276 H -0.01506 0.72048 0.68284
 C277 C 0.53790 0.75000 0.34979
 C278 C 0.54587 0.76647 0.38140
 C279 C 0.51865 0.76647 0.40131
 C280 C 0.48680 0.74811 0.38835
 C281 C 0.52591 0.71348 0.35797
 C282 C 0.49929 0.71254 0.37853
 C283 C 0.50614 0.76866 0.33696
 C284 C 0.47915 0.76736 0.35732
 H285 H 0.56767 0.78382 0.38447
 H286 H 0.46495 0.74713 0.40503
 H287 H 0.54063 0.69068 0.35218
 H288 H 0.50347 0.77711 0.31253
 Zr289 Zr 0.02576 -0.03136 1.04235
 O290 O 0.06316 -0.01478 1.07534
 O291 O 0.01856 -0.08315 1.05514
 O292 O 0.00639 -0.03062 1.08933
 O293 O 0.08506 -0.04362 0.98291
 O294 O -0.04693 -0.00694 1.08272
 O295 O 0.07488 -0.05476 1.03496
 O296 O -0.02145 -0.10336 1.02014
 O297 O -0.02717 -0.04023 1.03561
 O298 O 0.01953 -0.05475 0.99860
 O299 O 0.00229 0.01757 1.04406
 O300 O 0.04823 0.00331 1.00933
 Zr301 Zr -0.03677 0.01958 0.95853
 Zr302 Zr -0.05008 0.00843 1.03539
 Zr303 Zr 0.03967 -0.02005 0.96585
 Zr304 Zr -0.03305 -0.06145 0.99094
 O305 O 0.08266 0.00956 0.95095
 O306 O -0.07972 -0.07946 1.01113
 O307 O -0.01270 -0.02900 0.95596
 O308 O -0.05880 -0.01440 0.99176
 O309 O -0.03099 0.04379 1.00197
 O310 O 0.01617 0.02820 0.96520
 C311 C -0.00082 -0.10668 1.04349
 C312 C 0.09369 -0.05656 1.00995
 C313 C -0.02281 -0.01998 1.09985
 O314 O -0.09530 -0.01927 1.04759
 O315 O -0.09332 0.03608 1.01983
 O316 O -0.08406 0.04544 0.96732
 C317 C -0.10172 0.04886 0.99282
 O318 O 0.05980 0.05957 1.04410
 Zr319 Zr 0.02172 0.05074 1.00895
 O320 O -0.03169 0.07081 0.94435
 O321 O -0.05626 0.05224 1.06390
 O322 O 0.00287 0.08958 1.03881
 O323 O 0.06714 0.07076 0.98790
 O324 O 0.00690 0.09288 0.97963
 C325 C -0.01353 0.09529 0.95570
 O326 O -0.07580 0.00292 0.92722
 O327 O 0.04901 -0.06550 0.94026
 O328 O -0.01879 0.01586 0.91143
 O329 O 0.03320 -0.01099 0.91770
 O330 O -0.01570 -0.10219 0.96239
 O331 O -0.06749 -0.06880 0.95252
 C332 C 0.00924 0.00263 0.90078
 H333 H 0.03152 -0.07716 0.99713
 H334 H -0.08364 -0.01792 0.98750
 H335 H 0.02645 0.04296 0.94844
 H336 H 0.00603 0.02832 1.06479
 H337 H -0.08179 -0.10444 1.00670
 H338 H -0.10753 -0.00547 1.06342
 H339 H -0.07811 0.04898 1.07551
 H340 H 0.01493 0.11142 1.03319
 H341 H -0.03023 -0.12274 0.96707
 H342 H 0.07076 -0.06178 0.92858
 H343 H 0.09485 -0.00432 0.93516
 H344 H 0.06763 0.09600 0.99143
 H345 H -0.07872 -0.09172 0.95471
 H346 H -0.08174 0.02306 0.91349
 H347 H 0.06902 -0.03506 1.08893
 H348 H 0.06549 0.08452 1.04451
 Zr349 Zr 0.52479 0.46611 0.53926
 O350 O 0.56205 0.48235 0.57253
 O351 O 0.51663 0.41458 0.55236
 O352 O 0.50502 0.46758 0.58602
 O353 O 0.58466 0.45218 0.48056
 O354 O 0.45233 0.49246 0.57882
 O355 O 0.57360 0.44203 0.53264
 O356 O 0.47650 0.39464 0.51734
 O357 O 0.47180 0.45810 0.53215
 O358 O 0.51864 0.44233 0.49568
 O359 O 0.50226 0.51547 0.54040
 O360 O 0.54828 0.49993 0.50615
 Zr361 Zr 0.46407 0.51745 0.45450
 Zr362 Zr 0.44985 0.50720 0.53132
 Zr363 Zr 0.53974 0.47629 0.46280
 Zr364 Zr 0.46600 0.43653 0.48761
 O365 O 0.58342 0.50492 0.44799
 O366 O 0.41878 0.41960 0.50748
 O367 O 0.48726 0.46833 0.45255
 O368 O 0.44114 0.48414 0.48779
 O369 O 0.46994 0.54188 0.49783
 O370 O 0.51713 0.52502 0.46159
 C371 C 0.49693 0.39123 0.54086
 C372 C 0.59274 0.43969 0.50792
 C373 C 0.47601 0.47904 0.59622
 O374 O 0.40408 0.48035 0.54334
 O375 O 0.40728 0.53550 0.51537
 O376 O 0.41722 0.54458 0.46292
 C377 C 0.39941 0.54850 0.48832
 O378 O 0.56076 0.55609 0.54050
 Zr379 Zr 0.52270 0.54785 0.50520
 O380 O 0.47036 0.56848 0.43995
 O381 O 0.44414 0.55144 0.55938
 O382 O 0.50451 0.58731 0.53474
 O383 O 0.56856 0.56694 0.48425
 O384 O 0.50874 0.59004 0.47567
 C385 C 0.48869 0.59271 0.45152
 O386 O 0.42500 0.50132 0.42302
 O387 O 0.54836 0.43035 0.43773
 O388 O 0.48262 0.51296 0.40758
 O389 O 0.53401 0.48512 0.41453
 O390 O 0.48298 0.39524 0.45954
 O391 O 0.43178 0.42940 0.44900
 C392 C 0.51055 0.49915 0.39727
 H393 H 0.53027 0.41969 0.49455
 H394 H 0.41627 0.48107 0.48336
 H395 H 0.52785 0.53946 0.44483
 H396 H 0.50601 0.52636 0.56105
 H397 H 0.41631 0.39461 0.50326
 H398 H 0.39195 0.49445 0.55902
 H399 H 0.42221 0.54864 0.57097
 H400 H 0.51712 0.60883 0.52910
 H401 H 0.46813 0.37494 0.46430
 H402 H 0.57036 0.43345 0.42630
 H403 H 0.59553 0.49060 0.43248
 H404 H 0.56949 0.59218 0.48769
 H405 H 0.42029 0.40661 0.45119
 H406 H 0.41960 0.52148 0.40914
 H407 H 0.56744 0.46210 0.58633
 H408 H 0.56700 0.58092 0.54080
 Zr409 Zr 0.46074 1.00622 0.55429
 O410 O 0.42205 0.98468 0.58348
 O411 O 0.46624 1.05531 0.57253
 O412 O 0.48015 1.00044 0.60125
 O413 O 0.40602 1.03134 0.49312
 O414 O 0.53023 0.97048 0.59521
 O415 O 0.41351 1.03363 0.54647
 O416 O 0.51064 1.07811 0.54370
 O417 O 0.51440 1.01269 0.55135
 O418 O 0.47051 1.03593 0.51359
 O419 O 0.48175 0.95624 0.55255
 O420 O 0.43810 0.97899 0.51677
 Zr421 Zr 0.52460 0.96556 0.46893
 Zr422 Zr 0.53498 0.96308 0.54685
 Zr423 Zr 0.45071 1.00808 0.47629
 Zr424 Zr 0.52351 1.04112 0.51016
 O425 O 0.40720 0.98352 0.45629
 O426 O 0.56930 1.05239 0.53547
 O427 O 0.50386 1.01575 0.47060
 O428 O 0.54653 0.99273 0.50657
 O429 O 0.51528 0.93512 0.50935
 O430 O 0.47118 0.95876 0.47219
 C431 C 0.48728 1.07947 0.56492
 C432 C 0.39678 1.04077 0.52062
 C433 C 0.50794 0.98594 0.61199
 O434 O 0.58098 0.98524 0.56445
 O435 O 0.57794 0.93611 0.52978
 O436 O 0.57172 0.93859 0.47628
 C437 C 0.58816 0.92970 0.50171
 O438 O 0.41983 0.92153 0.54442
 Zr439 Zr 0.46187 0.93058 0.51355
 O440 O 0.51831 0.91562 0.45210
 O441 O 0.53697 0.91419 0.56987
 O442 O 0.47381 0.88676 0.54224
 O443 O 0.41847 0.91540 0.48649
 O444 O 0.47831 0.89080 0.48473
 C445 C 0.50031 0.89004 0.46246
 O446 O 0.56479 0.98476 0.43998
 O447 O 0.44536 1.05777 0.45513
 O448 O 0.50868 0.97688 0.42161
 O449 O 0.45879 1.00684 0.42785
 O450 O 0.51041 1.08734 0.48539
 O451 O 0.56118 1.05388 0.47575
 C452 C 0.48242 0.99392 0.41084
 H453 H 0.45981 1.05908 0.51358
 H454 H 0.57166 0.99577 0.50390
 H455 H 0.46140 0.94693 0.45366
 H456 H 0.47641 0.94286 0.57201
 H457 H 0.57218 1.07784 0.53520
 H458 H 0.59156 0.96791 0.57897
 H459 H 0.55828 0.91393 0.58283
 H460 H 0.45980 0.86711 0.53463
 H461 H 0.52467 1.10620 0.49417
 H462 H 0.42390 1.05751 0.44236
 H463 H 0.39635 1.00058 0.44170
 H464 H 0.41622 0.88996 0.48873
 H465 H 0.57320 1.07541 0.48176
 H466 H 0.57026 0.96652 0.42469
 H467 H 0.41591 1.00277 0.59867
 H468 H 0.41114 0.89765 0.54184
 Zr469 Zr -0.03478 0.50824 1.04983
 O470 O -0.07325 0.48659 1.07921
 O471 O -0.02944 0.55732 1.06789
 O472 O -0.01531 0.50298 1.09673
 O473 O -0.08986 0.53301 0.98890
 O474 O 0.03512 0.47357 1.09081
 O475 O -0.08213 0.53537 1.04221
 O476 O 0.01462 0.58039 1.03880
 O477 O 0.01882 0.51506 1.04668
 O478 O -0.02538 0.53781 1.00899
 O479 O -0.01345 0.45843 1.04845
 O480 O -0.05749 0.48070 1.01261
 Zr481 Zr 0.02897 0.46728 0.96457
 Zr482 Zr 0.03971 0.46554 1.04248
 Zr483 Zr -0.04519 0.50960 0.97194
 Zr484 Zr 0.02756 0.54328 1.00531
 O485 O -0.08876 0.48474 0.95236
 O486 O 0.07342 0.55506 1.03032
 O487 O 0.00793 0.51742 0.96599
 O488 O 0.05084 0.49498 1.00195
 O489 O 0.01999 0.43711 1.00524
 O490 O -0.02443 0.46035 0.96817
 C491 C -0.00859 0.58157 1.06018
 C492 C -0.09900 0.54243 1.01646
 C493 C 0.01266 0.48894 1.10751
 O494 O 0.08571 0.48809 1.05968
 O495 O 0.08276 0.43862 1.02550
 O496 O 0.07685 0.44151 0.97198
 C497 C 0.09332 0.43268 0.99744
 O498 O -0.07507 0.42338 1.04103
 Zr499 Zr -0.03341 0.43245 1.00974
 O500 O 0.02284 0.41700 0.94824
 O501 O 0.04205 0.41692 1.06593
 O502 O -0.02083 0.38882 1.03844
 O503 O -0.07712 0.41694 0.98322
 O504 O -0.01751 0.39269 0.98084
 C505 C 0.00442 0.39167 0.95856
 O506 O 0.06861 0.48639 0.93493
 O507 O -0.05071 0.55907 0.95038
 O508 O 0.01250 0.47788 0.91726
 O509 O -0.03744 0.50778 0.92346
 O510 O 0.01400 0.58923 0.98033
 O511 O 0.06499 0.55605 0.97068
 C512 C -0.01393 0.49465 0.90645
 H513 H -0.03619 0.56091 1.00892
 H514 H 0.07593 0.49824 0.99919
 H515 H -0.03431 0.44830 0.94981
 H516 H -0.01862 0.44517 1.06802
 H517 H 0.07611 0.58053 1.02989
 H518 H 0.09640 0.47099 1.07435
 H519 H 0.06337 0.41695 1.07888
 H520 H -0.03483 0.36905 1.03107
 H521 H 0.02810 0.60827 0.98901
 H522 H -0.07227 0.55866 0.93777
 H523 H -0.09980 0.50169 0.93778
 H524 H -0.07941 0.39154 0.98576
 H525 H 0.07681 0.57777 0.97646
 H526 H 0.07410 0.46793 0.91985
 H527 H -0.07945 0.50469 1.09438
 H528 H -0.08349 0.39936 1.03884
 Zr529 Zr -0.03855 0.48624 0.45864
 O530 O -0.07516 0.50003 0.42358
 O531 O -0.03077 0.43473 0.44886
 O532 O -0.01675 0.48583 0.41218
 O533 O -0.09926 0.47391 0.51852
 O534 O 0.03520 0.51261 0.41904
 O535 O -0.08712 0.46148 0.46737
 O536 O 0.00912 0.41640 0.48523
 O537 O 0.01439 0.47968 0.46713
 O538 O -0.03305 0.46456 0.50396
 O539 O -0.01645 0.53572 0.45423
 O540 O -0.06345 0.52037 0.48918
 Zr541 Zr 0.01939 0.54273 0.54078
 Zr542 Zr 0.03585 0.52930 0.46533
 Zr543 Zr -0.05496 0.49944 0.53452
 Zr544 Zr 0.01933 0.45976 0.51293
 O545 O -0.09890 0.52811 0.54703
 O546 O 0.06700 0.44329 0.49453
 O547 O -0.00260 0.49295 0.54565
 O548 O 0.04346 0.50813 0.51046
 O549 O 0.01397 0.56464 0.49559
 O550 O -0.03350 0.54884 0.53225
 C551 C -0.01110 0.41199 0.46161
 C552 C -0.10640 0.45966 0.49223
 C553 C 0.01259 0.49754 0.40198
 O554 O 0.08249 0.50340 0.45615
 O555 O 0.07761 0.55949 0.48035
 O556 O 0.06726 0.56899 0.53230
 C557 C 0.08558 0.57251 0.50702
 O558 O -0.07768 0.57119 0.45104
 Zr559 Zr -0.03883 0.56863 0.48647
 O560 O 0.01201 0.59507 0.54849
 O561 O 0.04135 0.57266 0.43465
 O562 O -0.02329 0.60646 0.45263
 O563 O -0.08418 0.58863 0.50670
 O564 O -0.02475 0.61365 0.50954
 C565 C -0.00495 0.61837 0.53323
 O566 O 0.05721 0.53050 0.57528
 O567 O -0.06336 0.45414 0.56222
 O568 O -0.00042 0.54004 0.58775
 O569 O -0.05030 0.50915 0.58254
 O570 O 0.00217 0.41946 0.54356
 O571 O 0.05336 0.45404 0.55206
 C572 C -0.02756 0.52478 0.59905
 H573 H -0.04436 0.44173 0.50650
 H574 H 0.06823 0.50573 0.51564
 H575 H -0.04447 0.56404 0.54774
 H576 H -0.01982 0.54546 0.43272
 H577 H 0.06933 0.41832 0.49963
 H578 H 0.09486 0.51730 0.43994
 H579 H 0.06359 0.57007 0.42366
 H580 H -0.03795 0.62708 0.45526
 H581 H 0.01663 0.39895 0.53972
 H582 H -0.08551 0.45703 0.57331
 H583 H -0.11121 0.51424 0.56328
 H584 H -0.08611 0.61316 0.49983
 H585 H 0.06469 0.43121 0.55129
 H586 H 0.06138 0.55173 0.58754
 H587 H -0.08006 0.47885 0.41150
 H588 H -0.08613 0.59521 0.44888
 Zr589 Zr 0.46511 -0.01767 -0.03730
 O590 O 0.42861 -0.00315 -0.07222
 O591 O 0.47330 -0.06892 -0.04789
 O592 O 0.48713 -0.01752 -0.08364
 O593 O 0.40514 -0.03314 0.02265
 O594 O 0.53755 0.01209 -0.07701
 O595 O 0.41652 -0.04257 -0.02922
 O596 O 0.51400 -0.08735 -0.01231
 O597 O 0.51827 -0.02290 -0.02950
 O598 O 0.47168 -0.04097 0.00729
 O599 O 0.48558 0.03261 -0.04048
 O600 O 0.43988 0.01455 -0.00535
 Zr601 Zr 0.52249 0.03731 0.04596
 Zr602 Zr 0.53814 0.02742 -0.03018
 Zr603 Zr 0.44937 -0.00809 0.03921
 Zr604 Zr 0.52436 -0.04438 0.01564
 O605 O 0.40458 0.01817 0.05354
 O606 O 0.57165 -0.05916 -0.00466
 O607 O 0.50203 -0.01324 0.04976
 O608 O 0.54701 0.00474 0.01419
 O609 O 0.51596 0.06122 0.00165
 O610 O 0.46930 0.04163 0.03797
 C611 C 0.49321 -0.09169 -0.03550
 C612 C 0.39745 -0.04549 -0.00430
 C613 C 0.51586 -0.00446 -0.09395
 O614 O 0.58546 0.00338 -0.04059
 O615 O 0.57926 0.05809 -0.01475
 O616 O 0.56916 0.06592 0.03751
 C617 C 0.58717 0.07059 0.01213
 O618 O 0.42600 0.06898 -0.04369
 Zr619 Zr 0.46293 0.06366 -0.00677
 O620 O 0.51210 0.08791 0.05763
 O621 O 0.54192 0.07175 -0.05991
 O622 O 0.48064 0.10458 -0.03641
 O623 O 0.41487 0.07932 0.01143
 O624 O 0.47127 0.10615 0.02208
 C625 C 0.49067 0.10993 0.04627
 O626 O 0.56137 0.02406 0.07911
 O627 O 0.44305 -0.05484 0.06527
 O628 O 0.50286 0.03350 0.09285
 O629 O 0.45419 0.00068 0.08746
 O630 O 0.50914 -0.08568 0.04602
 O631 O 0.56000 -0.05038 0.05352
 C632 C 0.47605 0.01756 0.10399
 H633 H 0.46066 -0.06399 0.00934
 H634 H 0.57192 0.00293 0.01896
 H635 H 0.45727 0.05513 0.05408
 H636 H 0.48179 0.04291 -0.06172
 H637 H 0.57471 -0.08419 -0.00027
 H638 H 0.59715 0.01811 -0.05662
 H639 H 0.56419 0.07028 -0.07104
 H640 H 0.46629 0.12507 -0.03223
 H641 H 0.52394 -0.10575 0.04148
 H642 H 0.42098 -0.05317 0.07669
 H643 H 0.39317 0.00325 0.06959
 H644 H 0.41187 0.10418 0.00612
 H645 H 0.57179 -0.07290 0.05184
 H646 H 0.56522 0.04464 0.09229
 H647 H 0.42382 -0.02404 -0.08474
 H648 H 0.41945 0.09358 -0.04612
 Zr649 Zr 0.54160 0.52682 -0.04791
 O650 O 0.58052 0.51531 -0.08066
 O651 O 0.52927 0.57728 -0.06261
 O652 O 0.52261 0.52198 -0.09524
 O653 O 0.60035 0.54160 0.01351
 O654 O 0.47186 0.49273 -0.08876
 O655 O 0.58923 0.55330 -0.03850
 O656 O 0.48719 0.59307 -0.02843
 O657 O 0.48821 0.53098 -0.04127
 O658 O 0.53409 0.54948 -0.00403
 O659 O 0.52173 0.47612 -0.04979
 O660 O 0.56667 0.49427 -0.01455
 Zr661 Zr 0.48367 0.47012 0.03586
 Zr662 Zr 0.46888 0.48060 -0.04099
 Zr663 Zr 0.55630 0.51599 0.02928
 Zr664 Zr 0.48133 0.55182 0.00331
 O665 O 0.60111 0.48968 0.04489
 O666 O 0.43216 0.56552 -0.01489
 O667 O 0.50363 0.52075 0.03873
 O668 O 0.45924 0.50273 0.00264
 O669 O 0.49104 0.44718 -0.00790
 O670 O 0.53688 0.46571 0.02924
 C671 C 0.50661 0.59822 -0.05228
 C672 C 0.60799 0.55541 -0.01312
 C673 C 0.49477 0.50753 -0.10586
 O674 O 0.42319 0.50621 -0.05518
 O675 O 0.42629 0.45190 -0.02530
 O676 O 0.43599 0.44371 0.02740
 C677 C 0.41788 0.43986 0.00192
 O678 O 0.58487 0.44317 -0.04817
 Zr679 Zr 0.54416 0.44495 -0.01506
 O680 O 0.49121 0.41799 0.04594
 O681 O 0.46469 0.43470 -0.06713
 O682 O 0.53223 0.40592 -0.04792
 O683 O 0.58885 0.42665 0.00874
 O684 O 0.52912 0.39988 0.00881
 C685 C 0.50850 0.39490 0.03179
 O686 O 0.44568 0.48245 0.06927
 O687 O 0.56179 0.56252 0.05437
 O688 O 0.50366 0.47299 0.08299
 O689 O 0.55176 0.50666 0.07754
 O690 O 0.49722 0.59492 0.03003
 O691 O 0.44810 0.55716 0.04246
 C692 C 0.53019 0.48932 0.09416
 H693 H 0.54428 0.57292 -0.00291
 H694 H 0.43432 0.50474 0.00690
 H695 H 0.54793 0.45112 0.04578
 H696 H 0.52639 0.46531 -0.07025
 H697 H 0.42854 0.59035 -0.01072
 H698 H 0.41128 0.49108 -0.07042
 H699 H 0.44299 0.43624 -0.07950
 H700 H 0.54758 0.38602 -0.04340
 H701 H 0.48161 0.61432 0.02452
 H702 H 0.58374 0.56102 0.06636
 H703 H 0.61252 0.50444 0.06073
 H704 H 0.59129 0.40188 0.00374
 H705 H 0.43674 0.58000 0.04126
 H706 H 0.44163 0.46129 0.08229
 H707 H 0.58416 0.53648 -0.09377
 H708 H 0.59488 0.41969 -0.04805
 Zr709 Zr 0.03501 1.02801 0.45801
 O710 O 0.07405 1.00965 0.42819
 O711 O 0.02655 1.07755 0.43853
 O712 O 0.01705 1.02012 0.41084
 O713 O 0.09251 1.04697 0.51917
 O714 O -0.03530 0.99412 0.41797
 O715 O 0.08362 1.05301 0.46612
 O716 O -0.01558 1.09901 0.46991
 O717 O -0.01818 1.03601 0.46250
 O718 O 0.02751 1.05585 0.49927
 O719 O 0.01230 0.97841 0.46012
 O720 O 0.05685 0.99758 0.49484
 Zr721 Zr -0.02883 0.98489 0.54439
 Zr722 Zr -0.04038 0.98701 0.46648
 Zr723 Zr 0.04688 1.02501 0.53593
 Zr724 Zr -0.02524 1.06200 0.50471
 O725 O 0.09032 0.99826 0.55412
 O726 O -0.07278 1.07665 0.48365
 O727 O -0.00563 1.03418 0.54353
 O728 O -0.05037 1.01446 0.50746
 O729 O -0.02167 0.95631 0.50346
 O730 O 0.02416 0.97635 0.53976
 C731 C 0.00490 1.10077 0.44650
 C732 C 0.10165 1.05724 0.49165
 C733 C -0.01123 1.00634 0.40052
 O734 O -0.08441 1.01340 0.44927
 O735 O -0.08415 0.96124 0.48329
 O736 O -0.07650 0.95798 0.53666
 C737 C -0.09346 0.95146 0.51096
 O738 O 0.07184 0.93925 0.46683
 Zr739 Zr 0.03116 0.94970 0.49844
 O740 O -0.02579 0.93502 0.56129
 O741 O -0.04633 0.93921 0.44353
 O742 O 0.01537 0.90783 0.47012
 O743 O 0.07480 0.93163 0.52398
 O744 O 0.01307 0.90996 0.52865
 C745 C -0.00882 0.90947 0.55123
 O746 O -0.06702 1.00535 0.57388
 O747 O 0.05368 1.07345 0.55755
 O748 O -0.00897 0.98963 0.59146
 O749 O 0.04152 1.01928 0.58455
 O750 O -0.00797 1.10713 0.52775
 O751 O -0.05945 1.07349 0.54190
 C752 C 0.01906 1.00404 0.60185
 H753 H 0.03896 1.07875 0.49868
 H754 H -0.07531 1.01802 0.51065
 H755 H 0.03416 0.96287 0.55759
 H756 H 0.01691 0.96524 0.44085
 H757 H -0.07492 1.10206 0.48538
 H758 H -0.09665 0.99739 0.43504
 H759 H -0.06770 0.94069 0.43069
 H760 H 0.02757 0.88694 0.47799
 H761 H -0.02241 1.12661 0.52006
 H762 H 0.07527 1.07208 0.57008
 H763 H 0.10217 1.01390 0.56897
 H764 H 0.07496 0.90610 0.52252
 H765 H -0.06951 1.09667 0.53823
 H766 H -0.07334 0.98659 0.58899
 H767 H 0.07967 1.02876 0.41318
 H768 H 0.07821 0.91455 0.46869
 Zr769 Zr 0.71985 0.27800 0.20538
 O770 O 0.73302 0.31388 0.16917
 O771 O 0.66761 0.27042 0.19721
 O772 O 0.71779 0.25645 0.15932
 O773 O 0.71270 0.34083 0.26228
 O774 O 0.74126 0.20298 0.16702
 O775 O 0.69740 0.32763 0.21187
 O776 O 0.64924 0.23382 0.23656
 O777 O 0.71113 0.22536 0.21557
 O778 O 0.70022 0.27439 0.25115
 O779 O 0.76801 0.25403 0.20109
 O780 O 0.75664 0.30237 0.23442
 Zr781 Zr 0.77716 0.21977 0.28839
 Zr782 Zr 0.75942 0.20209 0.21346
 Zr783 Zr 0.73725 0.29612 0.28012
 Zr784 Zr 0.69374 0.22215 0.26209
 O785 O 0.76840 0.33945 0.29056
 O786 O 0.67376 0.17490 0.24510
 O787 O 0.72906 0.24409 0.29317
 O788 O 0.74045 0.19608 0.25924
 O789 O 0.79723 0.22307 0.24278
 O790 O 0.78521 0.27247 0.27824
 C791 C 0.64461 0.25285 0.21203
 C792 C 0.69764 0.34780 0.23586
 C793 C 0.72782 0.22670 0.14948
 O794 O 0.73046 0.15653 0.20579
 O795 O 0.78763 0.15920 0.22924
 O796 O 0.80194 0.17172 0.28003
 C797 C 0.80275 0.15234 0.25550
 O798 O 0.80748 0.31317 0.19534
 Zr799 Zr 0.80345 0.27556 0.23225
 O800 O 0.82930 0.22738 0.29817
 O801 O 0.80100 0.19371 0.18260
 O802 O 0.83903 0.25681 0.19903
 O803 O 0.82636 0.32100 0.25032
 O804 O 0.84813 0.26026 0.25643
 C805 C 0.85268 0.24312 0.28220
 O806 O 0.76552 0.18155 0.32304
 O807 O 0.69412 0.30776 0.30823
 O808 O 0.77402 0.23899 0.33511
 O809 O 0.74874 0.29179 0.32809
 O810 O 0.65653 0.24116 0.29365
 O811 O 0.68946 0.18890 0.30227
 C812 C 0.76149 0.26753 0.34543
 H813 H 0.67820 0.28671 0.25377
 H814 H 0.73722 0.17142 0.26515
 H815 H 0.80116 0.28351 0.29335
 H816 H 0.77716 0.25667 0.17949
 H817 H 0.64930 0.17336 0.25143
 H818 H 0.74281 0.14322 0.18969
 H819 H 0.79667 0.17132 0.17227
 H820 H 0.86074 0.27004 0.20151
 H821 H 0.63552 0.22673 0.29153
 H822 H 0.69885 0.33022 0.31830
 H823 H 0.75587 0.35279 0.30650
 H824 H 0.85079 0.32130 0.24375
 H825 H 0.66654 0.17764 0.30222
 H826 H 0.78694 0.17731 0.33537
 H827 H 0.71170 0.31892 0.15696
 H828 H 0.83190 0.31989 0.19260
 Zr829 Zr 0.75961 0.71324 0.70046
 O830 O 0.73862 0.67315 0.67302
 O831 O 0.80725 0.72064 0.67971
 O832 O 0.75094 0.73181 0.65352
 O833 O 0.79099 0.66122 0.76149
 O834 O 0.71772 0.77982 0.65979
 O835 O 0.78877 0.66692 0.70785
 O836 O 0.82869 0.76741 0.70567
 O837 O 0.76270 0.76743 0.70157
 O838 O 0.79101 0.72583 0.73894
 O839 O 0.70878 0.73104 0.70458
 O840 O 0.73654 0.68982 0.74030
 Zr841 Zr 0.72008 0.77649 0.78645
 Zr842 Zr 0.71237 0.78491 0.70850
 Zr843 Zr 0.76708 0.70538 0.77852
 Zr844 Zr 0.79280 0.77937 0.74061
 O845 O 0.74728 0.66098 0.80206
 O846 O 0.79953 0.82491 0.71281
 O847 O 0.77128 0.75923 0.78233
 O848 O 0.74344 0.79922 0.74659
 O849 O 0.68793 0.76428 0.74828
 O850 O 0.71708 0.72248 0.78482
 C851 C 0.83057 0.74303 0.68561
 C852 C 0.79818 0.65114 0.73368
 C853 C 0.73427 0.75848 0.64283
 O854 O 0.73016 0.83206 0.68833
 O855 O 0.68437 0.82698 0.72599
 O856 O 0.69015 0.82208 0.77944
 C857 C 0.67927 0.83770 0.75410
 O858 O 0.67796 0.66815 0.71531
 Zr859 Zr 0.68713 0.71033 0.74566
 O860 O 0.67253 0.76637 0.80720
 O861 O 0.66244 0.78316 0.68842
 O862 O 0.64053 0.72080 0.72107
 O863 O 0.67780 0.66481 0.77290
 O864 O 0.64988 0.72187 0.77892
 C865 C 0.64893 0.74433 0.80061
 O866 O 0.73847 0.81841 0.81324
 O867 O 0.81824 0.70374 0.79602
 O868 O 0.73380 0.76157 0.83350
 O869 O 0.76864 0.71502 0.82670
 O870 O 0.84063 0.76994 0.76347
 O871 O 0.80503 0.81948 0.77241
 C872 C 0.75364 0.73712 0.84397
 H873 H 0.81452 0.71623 0.73793
 H874 H 0.74505 0.82464 0.74838
 H875 H 0.70741 0.71189 0.80424
 H876 H 0.69473 0.72448 0.68607
 H877 H 0.82461 0.82935 0.71130
 H878 H 0.71149 0.84111 0.67450
 H879 H 0.66004 0.80420 0.67497
 H880 H 0.62241 0.70574 0.73033
 H881 H 0.85814 0.78482 0.75303
 H882 H 0.82029 0.68258 0.80939
 H883 H 0.76603 0.65176 0.81569
 H884 H 0.65268 0.66026 0.77243
 H885 H 0.82552 0.83230 0.76473
 H886 H 0.72095 0.82306 0.82951
 H887 H 0.75615 0.66766 0.65702
 H888 H 0.65440 0.65905 0.71873
 Zr889 Zr 0.23014 0.21537 0.79087
 O890 O 0.23939 0.17915 0.82784
 O891 O 0.17837 0.22590 0.79743
 O892 O 0.22798 0.23794 0.83670
 O893 O 0.22131 0.15249 0.73300
 O894 O 0.25530 0.28980 0.82934
 O895 O 0.20504 0.16682 0.78267
 O896 O 0.16371 0.26406 0.75786
 O897 O 0.22553 0.26836 0.78003
 O898 O 0.21224 0.21975 0.74434
 O899 O 0.27966 0.23656 0.79699
 O900 O 0.26605 0.18862 0.76338
 Zr901 Zr 0.29405 0.26937 0.70986
 Zr902 Zr 0.27525 0.28884 0.78381
 Zr903 Zr 0.24884 0.19585 0.71679
 Zr904 Zr 0.20951 0.27214 0.73299
 O905 O 0.27738 0.15069 0.70778
 O906 O 0.19275 0.32099 0.74853
 O907 O 0.24446 0.24813 0.70324
 O908 O 0.25792 0.29535 0.73734
 O909 O 0.31233 0.26517 0.75629
 O910 O 0.29829 0.21646 0.72070
 C911 C 0.15713 0.24529 0.78224
 C912 C 0.20491 0.14653 0.75862
 C913 C 0.23948 0.26739 0.84658
 O914 O 0.24957 0.33633 0.78998
 O915 O 0.30702 0.32986 0.76872
 O916 O 0.32025 0.31735 0.71791
 C917 C 0.32204 0.33672 0.74249
 O918 O 0.31370 0.17480 0.80465
 Zr919 Zr 0.31448 0.21239 0.76755
 O920 O 0.34640 0.25988 0.70488
 O921 O 0.31633 0.29472 0.81629
 O922 O 0.34995 0.22880 0.80249
 O923 O 0.33458 0.16551 0.75042
 O924 O 0.36142 0.22426 0.74618
 C925 C 0.36821 0.24290 0.72184
 O926 O 0.28633 0.30656 0.67335
 O927 O 0.20569 0.18735 0.68708
 O928 O 0.29292 0.24834 0.66343
 O929 O 0.26208 0.19830 0.66937
 O930 O 0.17162 0.25477 0.70069
 O931 O 0.20822 0.30490 0.69230
 C932 C 0.27821 0.22079 0.65260
 H933 H 0.18946 0.20882 0.74101
 H934 H 0.25644 0.32007 0.73110
 H935 H 0.31421 0.20453 0.70642
 H936 H 0.28782 0.23365 0.81901
 H937 H 0.16855 0.32393 0.74150
 H938 H 0.26242 0.34900 0.80642
 H939 H 0.31336 0.31748 0.82623
 H940 H 0.37037 0.21360 0.80161
 H941 H 0.15147 0.27023 0.70229
 H942 H 0.20884 0.16461 0.67713
 H943 H 0.26460 0.13797 0.69133
 H944 H 0.35841 0.16319 0.75862
 H945 H 0.18589 0.31710 0.69126
 H946 H 0.30856 0.30932 0.66217
 H947 H 0.21716 0.17539 0.83877
 H948 H 0.33731 0.16612 0.80852
 Zr949 Zr 0.27426 0.79353 0.29170
 O950 O 0.25166 0.83121 0.32040
 O951 O 0.32402 0.79090 0.31078
 O952 O 0.26775 0.77489 0.33924
 O953 O 0.29227 0.85146 0.22960
 O954 O 0.24453 0.72113 0.33282
 O955 O 0.29638 0.84348 0.28296
 O956 O 0.34898 0.74888 0.28158
 O957 O 0.28574 0.74067 0.28882
 O958 O 0.30344 0.78711 0.25088
 O959 O 0.22646 0.76774 0.28968
 O960 O 0.24392 0.81331 0.25398
 Zr961 Zr 0.23763 0.72607 0.20639
 Zr962 Zr 0.23836 0.71541 0.28449
 Zr963 Zr 0.27288 0.80436 0.21338
 Zr964 Zr 0.31319 0.73464 0.24717
 O965 O 0.24415 0.84611 0.19412
 O966 O 0.32962 0.68882 0.27081
 O967 O 0.28537 0.75210 0.20744
 O968 O 0.26736 0.70656 0.24409
 O969 O 0.20787 0.73214 0.24688
 O970 O 0.22587 0.77872 0.20965
 C971 C 0.34913 0.77128 0.30346
 C972 C 0.30100 0.86137 0.25718
 C973 C 0.25550 0.74577 0.34996
 O974 O 0.26615 0.67228 0.30220
 O975 O 0.21430 0.67050 0.26839
 O976 O 0.21207 0.67756 0.21488
 C977 C 0.20514 0.66079 0.24085
 O978 O 0.18478 0.82561 0.28091
 Zr979 Zr 0.19794 0.78466 0.25062
 O980 O 0.18825 0.72569 0.18887
 O981 O 0.19083 0.70750 0.30770
 O982 O 0.15647 0.76740 0.27916
 O983 O 0.17753 0.82644 0.22353
 O984 O 0.16022 0.76287 0.22107
 C985 C 0.16148 0.74071 0.19890
 O986 O 0.26136 0.68843 0.17847
 O987 O 0.32114 0.81372 0.19192
 O988 O 0.24205 0.74553 0.15889
 O989 O 0.26886 0.79775 0.16468
 O990 O 0.35754 0.75352 0.22351
 O991 O 0.32811 0.69963 0.21182
 C992 C 0.25516 0.77416 0.14781
 H993 H 0.32549 0.80001 0.25118
 H994 H 0.27225 0.68169 0.24150
 H995 H 0.21227 0.78761 0.19148
 H996 H 0.21278 0.77176 0.30883
 H997 H 0.35511 0.68841 0.27013
 H998 H 0.25057 0.65952 0.31672
 H999 H 0.19306 0.68618 0.32085
 H1000 H 0.13523 0.77838 0.27078
 H1001 H 0.37762 0.74059 0.23200
 H1002 H 0.31880 0.83515 0.17896
 H1003 H 0.25943 0.85870 0.17920
 H1004 H 0.15212 0.82491 0.22494
 H1005 H 0.35125 0.69036 0.21686
 H1006 H 0.24356 0.68056 0.16335
 H1007 H 0.26971 0.83867 0.33548
 H1008 H 0.15995 0.83081 0.27861
 Zr1009 Zr 0.21844 0.77895 0.70478
 O1010 O 0.22995 0.81555 0.66867
 O1011 O 0.16631 0.76924 0.69688
 O1012 O 0.21714 0.75755 0.65852
 O1013 O 0.21012 0.84126 0.76198
 O1014 O 0.24328 0.70529 0.66576
 O1015 O 0.19441 0.82791 0.71175
 O1016 O 0.14991 0.73085 0.73562
 O1017 O 0.21167 0.72599 0.71477
 O1018 O 0.19917 0.77433 0.75062
 O1019 O 0.26751 0.75674 0.70037
 O1020 O 0.25473 0.80414 0.73387
 Zr1021 Zr 0.27794 0.72186 0.78738
 Zr1022 Zr 0.26071 0.70444 0.71234
 Zr1023 Zr 0.23568 0.79702 0.77959
 Zr1024 Zr 0.19460 0.72181 0.76137
 O1025 O 0.26549 0.84118 0.79040
 O1026 O 0.17639 0.67355 0.74504
 O1027 O 0.22918 0.74471 0.79247
 O1028 O 0.24201 0.69731 0.75809
 O1029 O 0.29795 0.72620 0.74179
 O1030 O 0.28437 0.77487 0.77757
 C1031 C 0.14432 0.75005 0.71143
 C1032 C 0.19451 0.84809 0.73579
 C1033 C 0.22868 0.72843 0.64842
 O1034 O 0.23270 0.65847 0.70390
 O1035 O 0.28951 0.66195 0.72785
 O1036 O 0.30352 0.67426 0.77874
 C1037 C 0.30456 0.65505 0.75411
 O1038 O 0.30576 0.81683 0.69488
 Zr1039 Zr 0.30251 0.77896 0.73163
 O1040 O 0.32987 0.73049 0.79688
 O1041 O 0.30285 0.69750 0.68179
 O1042 O 0.33858 0.76130 0.69834
 O1043 O 0.32362 0.82513 0.74993
 O1044 O 0.34778 0.76510 0.75594
 C1045 C 0.35284 0.74722 0.78126
 O1046 O 0.26745 0.68333 0.82206
 O1047 O 0.19217 0.80714 0.80772
 O1048 O 0.27462 0.74082 0.83417
 O1049 O 0.24745 0.79272 0.82752
 O1050 O 0.15641 0.73969 0.79252
 O1051 O 0.19190 0.68893 0.80192
 C1052 C 0.26121 0.76886 0.84469
 H1053 H 0.17672 0.78585 0.75329
 H1054 H 0.23946 0.67254 0.76385
 H1055 H 0.30004 0.78622 0.79274
 H1056 H 0.27657 0.75989 0.67879
 H1057 H 0.15216 0.67092 0.75184
 H1058 H 0.24557 0.64550 0.68789
 H1059 H 0.29924 0.67514 0.67120
 H1060 H 0.36000 0.77497 0.70097
 H1061 H 0.13611 0.72424 0.79062
 H1062 H 0.19625 0.82963 0.81795
 H1063 H 0.25254 0.85398 0.80643
 H1064 H 0.34812 0.82626 0.74363
 H1065 H 0.16932 0.67699 0.80230
 H1066 H 0.28906 0.67952 0.83420
 H1067 H 0.20835 0.81977 0.65661
 H1068 H 0.33003 0.82420 0.69227
 Zr1069 Zr 0.26971 0.22888 0.20451
 O1070 O 0.25554 0.18815 0.17440
 O1071 O 0.31582 0.24574 0.18438
 O1072 O 0.25903 0.24735 0.15806
 O1073 O 0.30333 0.17672 0.26452
 O1074 O 0.21982 0.29043 0.16470
 O1075 O 0.30173 0.18420 0.21108
 O1076 O 0.32885 0.29497 0.21103
 O1077 O 0.26645 0.28280 0.20778
 O1078 O 0.29907 0.24307 0.24377
 O1079 O 0.21697 0.24041 0.20823
 O1080 O 0.24819 0.20166 0.24311
 Zr1081 Zr 0.22149 0.28360 0.29168
 Zr1082 Zr 0.21441 0.29406 0.21370
 Zr1083 Zr 0.27630 0.21856 0.28230
 Zr1084 Zr 0.29415 0.29638 0.24798
 O1085 O 0.26110 0.17184 0.30505
 O1086 O 0.29678 0.34590 0.22583
 O1087 O 0.27435 0.27216 0.28846
 O1088 O 0.24290 0.31023 0.25292
 O1089 O 0.19152 0.26961 0.25251
 O1090 O 0.22442 0.22977 0.28816
 C1091 C 0.33415 0.27267 0.18981
 C1092 C 0.31092 0.16756 0.23656
 C1093 C 0.23898 0.27155 0.14755
 O1094 O 0.22849 0.34278 0.19420
 O1095 O 0.18295 0.33299 0.23178
 O1096 O 0.18882 0.32757 0.28524
 C1097 C 0.17738 0.34305 0.25997
 O1098 O 0.19343 0.17388 0.21703
 Zr1099 Zr 0.19661 0.21608 0.24827
 O1100 O 0.17440 0.26858 0.31026
 O1101 O 0.16475 0.28825 0.19376
 O1102 O 0.15005 0.22182 0.22239
 O1103 O 0.19130 0.16922 0.27451
 O1104 O 0.15686 0.22302 0.28053
 C1105 C 0.15293 0.24503 0.30237
 O1106 O 0.23491 0.32495 0.32138
 O1107 O 0.32747 0.22144 0.29957
 O1108 O 0.23420 0.26645 0.33845
 O1109 O 0.27612 0.22642 0.33075
 O1110 O 0.34350 0.28928 0.26870
 O1111 O 0.30092 0.33333 0.28395
 C1112 C 0.25670 0.24418 0.34849
 H1113 H 0.32347 0.23616 0.24203
 H1114 H 0.24210 0.33557 0.25549
 H1115 H 0.21523 0.21738 0.30691
 H1116 H 0.20408 0.23289 0.18934
 H1117 H 0.32106 0.35382 0.22676
 H1118 H 0.20900 0.35073 0.18077
 H1119 H 0.16045 0.30923 0.18063
 H1120 H 0.13340 0.20461 0.23086
 H1121 H 0.35887 0.30738 0.25975
 H1122 H 0.33148 0.20031 0.31259
 H1123 H 0.28066 0.16416 0.31851
 H1124 H 0.16679 0.16214 0.27333
 H1125 H 0.32182 0.34731 0.27964
 H1126 H 0.21630 0.32690 0.33713
 H1127 H 0.27427 0.18592 0.15881
 H1128 H 0.17092 0.16211 0.21958
 Zr1129 Zr 0.73216 0.71768 0.29035
 O1130 O 0.74135 0.68114 0.32708
 O1131 O 0.68080 0.72916 0.29759
 O1132 O 0.73020 0.74030 0.33622
 O1133 O 0.72155 0.65570 0.23193
 O1134 O 0.75999 0.79087 0.32948
 O1135 O 0.70629 0.66954 0.28202
 O1136 O 0.66662 0.76867 0.25900
 O1137 O 0.72871 0.77086 0.28007
 O1138 O 0.71371 0.72303 0.24405
 O1139 O 0.78219 0.73758 0.29628
 O1140 O 0.76699 0.69051 0.26210
 Zr1141 Zr 0.79635 0.77118 0.20919
 Zr1142 Zr 0.77891 0.79008 0.28360
 Zr1143 Zr 0.74942 0.69879 0.21573
 Zr1144 Zr 0.71209 0.77560 0.23328
 O1145 O 0.77674 0.65318 0.20557
 O1146 O 0.69679 0.82480 0.24918
 O1147 O 0.74614 0.75131 0.20279
 O1148 O 0.76112 0.79754 0.23736
 O1149 O 0.81506 0.76593 0.25543
 O1150 O 0.79940 0.71808 0.21949
 C1151 C 0.65993 0.74959 0.28318
 C1152 C 0.70562 0.64953 0.25777
 C1153 C 0.74284 0.76918 0.34638
 O1154 O 0.75418 0.83789 0.29077
 O1155 O 0.81100 0.83077 0.26856
 O1156 O 0.82327 0.81880 0.21742
 C1157 C 0.82561 0.83784 0.24219
 O1158 O 0.81461 0.67489 0.30283
 Zr1159 Zr 0.81599 0.71297 0.26617
 O1160 O 0.84853 0.76075 0.20403
 O1161 O 0.82075 0.79462 0.31546
 O1162 O 0.85225 0.72806 0.30095
 O1163 O 0.83468 0.66581 0.24837
 O1164 O 0.86294 0.72378 0.24453
 C1165 C 0.87001 0.74280 0.22052
 O1166 O 0.78895 0.80867 0.17289
 O1167 O 0.70554 0.69171 0.18661
 O1168 O 0.79501 0.75026 0.16264
 O1169 O 0.76198 0.70160 0.16809
 O1170 O 0.67326 0.75923 0.20146
 O1171 O 0.71088 0.80880 0.19288
 C1172 C 0.77929 0.72339 0.15152
 H1173 H 0.69065 0.71261 0.24095
 H1174 H 0.76006 0.82236 0.23139
 H1175 H 0.81489 0.70595 0.20497
 H1176 H 0.79044 0.73422 0.31822
 H1177 H 0.67257 0.82836 0.24249
 H1178 H 0.76759 0.85015 0.30711
 H1179 H 0.81839 0.81720 0.32585
 H1180 H 0.87225 0.71234 0.29977
 H1181 H 0.65341 0.77498 0.20359
 H1182 H 0.70796 0.66902 0.17639
 H1183 H 0.76332 0.64097 0.18921
 H1184 H 0.85849 0.66271 0.25642
 H1185 H 0.68859 0.82108 0.19195
 H1186 H 0.81115 0.81118 0.16162
 H1187 H 0.71918 0.67763 0.33818
 H1188 H 0.83805 0.66570 0.30653
 Zr1189 Zr 0.77377 0.28813 0.79186
 O1190 O 0.75175 0.32608 0.82066
 O1191 O 0.82352 0.28483 0.81087
 O1192 O 0.76659 0.26944 0.83933
 O1193 O 0.79247 0.34599 0.73001
 O1194 O 0.74285 0.21595 0.83265
 O1195 O 0.79669 0.33775 0.78334
 O1196 O 0.84818 0.24275 0.78152
 O1197 O 0.78473 0.23517 0.78877
 O1198 O 0.80287 0.28159 0.75100
 O1199 O 0.72570 0.26289 0.78964
 O1200 O 0.74366 0.30844 0.75422
 Zr1201 Zr 0.73639 0.22161 0.70604
 Zr1202 Zr 0.73709 0.21050 0.78421
 Zr1203 Zr 0.77250 0.29935 0.71358
 Zr1204 Zr 0.81211 0.22907 0.74706
 O1205 O 0.74430 0.34166 0.69467
 O1206 O 0.82795 0.18294 0.77054
 O1207 O 0.78446 0.24703 0.70735
 O1208 O 0.76595 0.20163 0.74372
 O1209 O 0.70672 0.22772 0.74662
 O1210 O 0.72521 0.27434 0.70967
 C1211 C 0.84854 0.26513 0.80344
 C1212 C 0.80156 0.35557 0.75757
 C1213 C 0.75384 0.24048 0.84993
 O1214 O 0.76457 0.16722 0.80200
 O1215 O 0.71321 0.16569 0.76782
 O1216 O 0.71080 0.17307 0.71434
 C1217 C 0.70406 0.15610 0.74025
 O1218 O 0.68453 0.32106 0.78132
 Zr1219 Zr 0.69737 0.28034 0.75067
 O1220 O 0.68686 0.22185 0.68863
 O1221 O 0.68930 0.20270 0.80701
 O1222 O 0.65569 0.26305 0.77893
 O1223 O 0.67761 0.32277 0.72403
 O1224 O 0.65947 0.25961 0.72074
 C1225 C 0.66037 0.23751 0.69851
 O1226 O 0.75966 0.18408 0.67770
 O1227 O 0.82084 0.30815 0.69208
 O1228 O 0.74093 0.24160 0.65863
 O1229 O 0.76830 0.29345 0.66486
 O1230 O 0.85660 0.24763 0.72341
 O1231 O 0.82669 0.19402 0.71162
 C1232 C 0.75429 0.27026 0.64777
 H1233 H 0.82508 0.29419 0.75133
 H1234 H 0.77065 0.17674 0.74101
 H1235 H 0.71171 0.28358 0.69157
 H1236 H 0.71198 0.26695 0.80876
 H1237 H 0.85343 0.18223 0.76990
 H1238 H 0.74884 0.15447 0.81641
 H1239 H 0.69132 0.18132 0.82010
 H1240 H 0.63456 0.27435 0.77065
 H1241 H 0.87657 0.23444 0.73180
 H1242 H 0.81885 0.32979 0.67937
 H1243 H 0.75971 0.35423 0.67985
 H1244 H 0.65218 0.32160 0.72538
 H1245 H 0.84974 0.18452 0.71664
 H1246 H 0.74175 0.17658 0.66253
 H1247 H 0.76990 0.33316 0.83580
 H1248 H 0.65971 0.32639 0.77914
 C1249 C 0.49682 0.99419 0.34566
 C1250 C 0.46588 0.97432 0.33127
 C1251 C 0.45069 1.00869 0.31843
 C1252 C 0.48155 1.02870 0.33214
 C1253 C 0.43061 1.01317 0.34924
 C1254 C 0.44550 0.97888 0.36198
 C1255 C 0.47611 0.99870 0.37612
 C1256 C 0.46133 1.03313 0.36313
 H1257 H 0.52417 0.98624 0.34441
 H1258 H 0.46771 0.94999 0.31796
 H1259 H 0.49622 1.04937 0.31964
 H1260 H 0.40327 1.02106 0.35101
 H1261 H 0.43056 0.95816 0.37416
 H1262 H 0.45948 1.05751 0.37638
 C1263 C -0.03887 0.53119 0.85865
 C1264 C -0.01832 0.52879 0.82763
 C1265 C -0.04705 0.50579 0.81400
 C1266 C -0.06745 0.50824 0.84489
 C1267 C -0.02855 0.47312 0.82686
 C1268 C 0.00031 0.49600 0.84116
 C1269 C -0.02073 0.49843 0.87168
 C1270 C -0.04924 0.47565 0.85764
 H1271 H -0.04316 0.55529 0.87182
 H1272 H -0.00576 0.55080 0.81509
 H1273 H -0.09545 0.51335 0.84676
 H1274 H -0.02431 0.44910 0.81357
 H1275 H 0.02832 0.49082 0.83987
 H1276 H -0.06206 0.45357 0.86990
 C1277 C -0.00180 0.01108 0.83524
 C1278 C 0.02970 0.03288 0.82418
 C1279 C 0.04601 0.00027 0.81025
 C1280 C 0.01468 -0.02154 0.82054
 C1281 C 0.06435 -0.00770 0.84175
 C1282 C 0.04827 0.02480 0.85569
 C1283 C 0.01717 0.00304 0.86645
 C1284 C 0.03316 -0.02953 0.85220
 H1285 H -0.02915 0.01891 0.83290
 H1286 H 0.02846 0.05864 0.81233
 H1287 H 0.00114 -0.04073 0.80576
 H1288 H 0.09167 -0.01550 0.84465
 H1289 H 0.06210 0.04408 0.87018
 H1290 H 0.03453 -0.05540 0.86386
 C1291 C 0.50035 0.50587 0.33138
 C1292 C 0.53045 0.52970 0.32047
 C1293 C 0.54934 0.49813 0.30725
 C1294 C 0.51944 0.47429 0.31741
 C1295 C 0.56755 0.49202 0.33915
 C1296 C 0.54889 0.52348 0.35239
 C1297 C 0.51920 0.49972 0.36301
 C1298 C 0.53779 0.46817 0.34944
 H1299 H 0.47255 0.51167 0.32849
 H1300 H 0.52757 0.55512 0.30825
 H1301 H 0.50759 0.45394 0.30273
 H1302 H 0.59530 0.48626 0.34261
 H1303 H 0.56102 0.54393 0.36679
 H1304 H 0.54081 0.44262 0.36143
 C1305 C 0.54079 0.52421 0.14603
 C1306 C 0.52453 0.50699 0.17555
 C1307 C 0.56093 0.49738 0.18744
 C1308 C 0.57711 0.51456 0.15821
 C1309 C 0.55852 0.46253 0.17055
 C1310 C 0.52200 0.47214 0.15805
 C1311 C 0.53836 0.48947 0.12888
 C1312 C 0.57469 0.47979 0.14098
 H1313 H 0.53325 0.54973 0.13588
 H1314 H 0.50387 0.51857 0.18980
 H1315 H 0.59981 0.53208 0.15825
 H1316 H 0.56623 0.43716 0.18091
 H1317 H 0.49929 0.45466 0.15788
 H1318 H 0.59537 0.46834 0.12664
 C1319 C 0.01219 0.98739 0.66619
 C1320 C 0.04750 0.97235 0.67678
 C1321 C 0.05609 1.00485 0.69252
 C1322 C 0.02257 1.02043 0.68418
 C1323 C 0.07299 1.01971 0.66458
 C1324 C 0.06407 0.98675 0.64625
 C1325 C 0.02900 1.00268 0.63617
 C1326 C 0.03855 1.03601 0.65390
 H1327 H -0.01298 0.97387 0.66798
 H1328 H 0.05213 0.94640 0.68753
 H1329 H 0.00615 1.03481 0.70072
 H1330 H 0.09832 1.03310 0.66497
 H1331 H 0.08208 0.97230 0.63122
 H1332 H 0.03501 1.06305 0.64539
 C1333 C -0.07016 0.53293 0.64677
 C1334 C -0.07264 0.49728 0.66355
 C1335 C -0.05511 0.51247 0.69277
 C1336 C -0.05261 0.54819 0.67628
 C1337 C -0.01938 0.50277 0.68018
 C1338 C -0.03698 0.48759 0.65068
 C1339 C -0.03452 0.52322 0.63391
 C1340 C -0.01673 0.53852 0.66303
 H1341 H -0.09112 0.54559 0.63300
 H1342 H -0.09558 0.48009 0.66357
 H1343 H -0.05921 0.57318 0.68704
 H1344 H 0.00146 0.49006 0.69405
 H1345 H -0.03039 0.46249 0.64005
 H1346 H 0.00629 0.55560 0.66269
 C1347 C 0.46649 -0.01594 0.15827
 C1348 C 0.48206 0.00332 0.18671
 C1349 C 0.44535 0.01245 0.19725
 C1350 C 0.42984 -0.00677 0.16914
 C1351 C 0.44672 0.04635 0.17771
 C1352 C 0.48358 0.03724 0.16657
 C1353 C 0.46788 0.01787 0.13857
 C1354 C 0.43124 0.02707 0.14935
 H1355 H 0.47482 -0.04167 0.15014
 H1356 H 0.50299 -0.00673 0.20220
 H1357 H 0.40767 -0.02493 0.17024
 H1358 H 0.43829 0.07200 0.18591
 H1359 H 0.50572 0.05541 0.16533
 H1360 H 0.41027 0.03706 0.13385
 C1361 C 0.36811 0.39771 0.02886
 C1362 C 0.33281 0.41544 0.02306
 C1363 C 0.32364 0.38838 -0.00195
 C1364 C 0.35863 0.37043 0.00389
 C1365 C 0.33961 0.41134 -0.02798
 C1366 C 0.34907 0.43861 -0.00308
 C1367 C 0.38395 0.42064 0.00277
 C1368 C 0.37475 0.39355 -0.02218
 H1369 H 0.37993 0.39204 0.05225
 H1370 H 0.31520 0.42453 0.04161
 H1371 H 0.36254 0.34214 0.00655
 H1372 H 0.32783 0.41695 -0.05139
 H1373 H 0.34525 0.46692 -0.00577
 H1374 H 0.39226 0.38435 -0.04077
 C1375 C -0.14056 0.90473 0.53640
 C1376 C -0.17724 0.91954 0.53071
 C1377 C -0.18350 0.89314 0.50439
 C1378 C -0.14721 0.87808 0.51016
 C1379 C -0.16915 0.91880 0.47969
 C1380 C -0.16258 0.94546 0.50584
 C1381 C -0.12636 0.93040 0.51160
 C1382 C -0.13276 0.90384 0.48540
 H1383 H -0.12877 0.89895 0.55978
 H1384 H -0.19593 0.92600 0.54933
 H1385 H -0.14083 0.85017 0.51166
 H1386 H -0.18085 0.92452 0.45626
 H1387 H -0.16889 0.97338 0.50430
 H1388 H -0.11430 0.89708 0.46667
 C1389 C -0.14103 0.09648 1.01804
 C1390 C -0.15436 0.12200 0.99248
 C1391 C -0.19098 0.10708 0.99685
 C1392 C -0.17781 0.08170 1.02240
 C1393 C -0.18420 0.08039 0.97106
 C1394 C -0.14731 0.09513 0.96673
 C1395 C -0.13424 0.06977 0.99230
 C1396 C -0.17070 0.05474 0.99672
 H1397 H -0.12296 0.10318 1.03737
 H1398 H -0.14768 0.14989 0.99098
 H1399 H -0.19047 0.07632 1.04533
 H1400 H -0.20237 0.07381 0.95177
 H1401 H -0.13463 0.10061 0.94382
 H1402 H -0.17722 0.02682 0.99826
 C1403 C 0.36130 0.59637 0.51442
 C1404 C 0.34848 0.62304 0.48963
 C1405 C 0.31153 0.60890 0.49379
 C1406 C 0.32421 0.58237 0.51856
 C1407 C 0.31754 0.58291 0.46723
 C1408 C 0.35479 0.59685 0.46311
 C1409 C 0.36737 0.57033 0.48791
 C1410 C 0.33054 0.55610 0.49212
 H1411 H 0.37959 0.60205 0.53387
 H1412 H 0.35586 0.65078 0.48889
 H1413 H 0.31160 0.57653 0.54143
 H1414 H 0.29913 0.57740 0.44784
 H1415 H 0.36744 0.60277 0.44027
 H1416 H 0.32328 0.52834 0.49290
 C1417 C 0.13739 0.61415 0.53266
 C1418 C 0.17169 0.59520 0.52614
 C1419 C 0.18070 0.62246 0.50045
 C1420 C 0.14691 0.64177 0.50699
 C1421 C 0.16250 0.60059 0.47538
 C1422 C 0.15337 0.57324 0.50093
 C1423 C 0.11941 0.59225 0.50738
 C1424 C 0.12843 0.61966 0.48182
 H1425 H 0.12703 0.61971 0.55632
 H1426 H 0.18972 0.58509 0.54444
 H1427 H 0.14419 0.67013 0.50937
 H1428 H 0.17276 0.59501 0.45168
 H1429 H 0.15616 0.54488 0.49854
 H1430 H 0.11046 0.62983 0.46349
 C1431 C 0.65490 0.07246 0.00541
 C1432 C 0.66348 0.10007 -0.01998
 C1433 C 0.68041 0.12130 0.00399
 C1434 C 0.67369 0.09562 0.02932
 C1435 C 0.64864 0.14044 0.01065
 C1436 C 0.62902 0.11832 -0.01370
 C1437 C 0.62062 0.09102 0.01238
 C1438 C 0.63924 0.11361 0.03699
 H1439 H 0.65890 0.04424 0.00316
 H1440 H 0.67455 0.09518 -0.04352
 H1441 H 0.69336 0.08698 0.04683
 H1442 H 0.64697 0.16893 0.01260
 H1443 H 0.61123 0.12862 -0.03212
 H1444 H 0.63026 0.11992 0.06096
 C1445 C 0.64138 0.90138 0.46885
 C1446 C 0.67490 0.91791 0.48177
 C1447 C 0.68461 0.88319 0.49782
 C1448 C 0.65148 0.86641 0.48484
 C1449 C 0.66567 0.89355 0.52792
 C1450 C 0.65577 0.92837 0.51193
 C1451 C 0.62255 0.91175 0.49904
 C1452 C 0.63214 0.87700 0.51504
 H1453 H 0.63127 0.90462 0.44447
 H1454 H 0.69258 0.93486 0.46800
 H1455 H 0.64972 0.84076 0.47366
 H1456 H 0.67578 0.89024 0.55230
 H1457 H 0.65753 0.95403 0.52309
 H1458 H 0.61433 0.86013 0.52875
 C1459 C 0.14944 0.40968 0.96496
 C1460 C 0.18183 0.42377 0.98211
 C1461 C 0.19035 0.38694 0.99415
 C1462 C 0.15835 0.37263 0.97695
 C1463 C 0.16895 0.39254 1.02399
 C1464 C 0.16020 0.42951 1.01201
 C1465 C 0.12811 0.41532 0.99489
 C1466 C 0.13658 0.37847 1.00690
 H1467 H 0.14132 0.41670 0.94057
 H1468 H 0.20041 0.44262 0.97184
 H1469 H 0.15767 0.34907 0.96244
 H1470 H 0.17711 0.38545 1.04836
 H1471 H 0.16095 0.45308 1.02652
 H1472 H 0.11780 0.35975 1.01705
 C1473 C -0.03307 0.37160 0.41715
 C1474 C -0.00092 0.35654 0.40170
 C1475 C -0.01075 0.32091 0.41552
 C1476 C -0.04287 0.33576 0.43096
 C1477 C 0.01099 0.32738 0.44520
 C1478 C 0.02076 0.36335 0.43145
 C1479 C -0.01131 0.37829 0.44676
 C1480 C -0.02117 0.34294 0.46096
 H1481 H -0.05122 0.39004 0.40564
 H1482 H 0.00738 0.36176 0.37709
 H1483 H -0.06887 0.32379 0.43037
 H1484 H 0.02897 0.30846 0.45625
 H1485 H 0.04679 0.37527 0.43196
 H1486 H -0.02940 0.33824 0.48565
 C1487 C 0.48043 -0.15998 -0.03443
 C1488 C 0.45893 -0.16738 -0.06450
 C1489 C 0.49066 -0.18418 -0.07886
 C1490 C 0.51220 -0.17748 -0.04913
 C1491 C 0.50220 -0.14946 -0.09361
 C1492 C 0.47045 -0.13250 -0.07923
 C1493 C 0.49201 -0.12563 -0.04960
 C1494 C 0.52368 -0.14247 -0.06383
 H1495 H 0.47161 -0.16330 -0.00976
 H1496 H 0.43248 -0.17832 -0.06511
 H1497 H 0.52914 -0.19674 -0.03719
 H1498 H 0.51115 -0.14545 -0.11820
 H1499 H 0.45337 -0.11368 -0.09160
 H1500 H 0.55015 -0.13157 -0.06331
 C1501 C -0.00961 -0.14656 1.09257
 C1502 C -0.03014 -0.17886 1.08264
 C1503 C 0.00264 -0.20036 1.08704
 C1504 C 0.02322 -0.16828 1.09706
 C1505 C 0.01276 -0.19457 1.05256
 C1506 C -0.02011 -0.17250 1.04788
 C1507 C 0.00049 -0.14065 1.05821
 C1508 C 0.03325 -0.16204 1.06239
 H1509 H -0.01866 -0.12620 1.10860
 H1510 H -0.05603 -0.18662 1.09120
 H1511 H 0.04110 -0.16721 1.11754
 H1512 H 0.02180 -0.21505 1.03669
 H1513 H -0.03791 -0.17337 1.02735
 H1514 H 0.05913 -0.15425 1.05394
 C1515 C 0.47688 0.32545 0.54673
 C1516 C 0.50967 0.30329 0.55169
 C1517 C 0.49993 0.29858 0.58640
 C1518 C 0.46721 0.32015 0.58174
 C1519 C 0.52079 0.33085 0.59540
 C1520 C 0.53046 0.33599 0.56051
 C1521 C 0.49777 0.35747 0.55608
 C1522 C 0.48805 0.35262 0.59067
 H1523 H 0.45886 0.32411 0.52639
 H1524 H 0.51843 0.28228 0.53625
 H1525 H 0.44138 0.31282 0.59073
 H1526 H 0.53889 0.33246 0.61567
 H1527 H 0.55628 0.34339 0.55150
 H1528 H 0.47927 0.37350 0.60627
 C1529 C 0.51077 1.12790 0.60216
 C1530 C 0.50831 1.16196 0.58298
 C1531 C 0.47946 1.17382 0.60482
 C1532 C 0.48185 1.14000 0.62420
 C1533 C 0.45188 1.15850 0.58315
 C1534 C 0.48078 1.14632 0.56117
 C1535 C 0.48336 1.11254 0.58048
 C1536 C 0.45430 1.12400 0.60222
 H1537 H 0.53491 1.11484 0.60970
 H1538 H 0.53045 1.17806 0.57506
 H1539 H 0.48185 1.13768 0.65029
 H1540 H 0.42775 1.17162 0.57568
 H1541 H 0.48055 1.14831 0.53505
 H1542 H 0.43226 1.10762 0.60986
 C1543 C 0.01442 0.62923 1.09847
 C1544 C 0.01179 0.66388 1.08021
 C1545 C -0.01742 0.67466 1.10216
 C1546 C -0.01485 0.64026 1.12060
 C1547 C -0.04460 0.65982 1.07981
 C1548 C -0.01535 0.64869 1.05771
 C1549 C -0.01260 0.61437 1.07612
 C1550 C -0.04200 0.62478 1.09796
 H1551 H 0.03863 0.61616 1.10581
 H1552 H 0.03384 0.68046 1.07293
 H1553 H -0.01509 0.63705 1.14663
 H1554 H -0.06881 0.67292 1.07253
 H1555 H -0.01532 0.65150 1.03164
 H1556 H -0.06396 0.60795 1.10495
 C1557 C 0.46604 0.64173 -0.08286
 C1558 C 0.46902 0.67672 -0.06627
 C1559 C 0.48746 0.69083 -0.09366
 C1560 C 0.48462 0.65860 -0.11128
 C1561 C 0.52149 0.68190 -0.08062
 C1562 C 0.50376 0.66580 -0.05149
 C1563 C 0.50131 0.63128 -0.06884
 C1564 C 0.51986 0.64696 -0.09764
 H1565 H 0.44258 0.62532 -0.08415
 H1566 H 0.44777 0.69026 -0.05431
 H1567 H 0.47592 0.65711 -0.13618
 H1568 H 0.54377 0.69998 -0.08022
 H1569 H 0.51186 0.66959 -0.02667
 H1570 H 0.54113 0.63529 -0.11108
 C1571 C -0.03324 1.14372 0.41429
 C1572 C -0.03008 1.17833 0.43151
 C1573 C -0.01147 1.19348 0.40280
 C1574 C -0.01461 1.15928 0.38523
 C1575 C 0.02374 1.18278 0.41636
 C1576 C 0.00509 1.16740 0.44533
 C1577 C 0.00186 1.13297 0.42813
 C1578 C 0.02064 1.14784 0.39928
 H1579 H -0.05650 1.12696 0.41352
 H1580 H -0.05106 1.19111 0.44448
 H1581 H -0.02319 1.15660 0.36040
 H1582 H 0.04692 1.19964 0.41700
 H1583 H 0.01355 1.17033 0.47017
 H1584 H 0.04155 1.13484 0.38642
 C1585 C 0.78799 0.70765 0.89093
 C1586 C 0.78978 0.72883 0.92150
 C1587 C 0.76360 0.70376 0.93673
 C1588 C 0.76192 0.68273 0.90623
 C1589 C 0.73355 0.72659 0.92470
 C1590 C 0.75963 0.75184 0.90880
 C1591 C 0.75779 0.73016 0.87872
 C1592 C 0.73189 0.70528 0.89433
 H1593 H 0.81065 0.69972 0.87705
 H1594 H 0.81371 0.73837 0.93287
 H1595 H 0.76295 0.65413 0.90480
 H1596 H 0.71105 0.73436 0.93885
 H1597 H 0.75854 0.78046 0.90960
 H1598 H 0.70788 0.69549 0.88323
 C1599 C 0.26096 0.25337 0.41409
 C1600 C 0.23314 0.22855 0.42798
 C1601 C 0.26163 0.20338 0.43919
 C1602 C 0.28946 0.22795 0.42600
 C1603 C 0.25959 0.18453 0.40758
 C1604 C 0.23113 0.20951 0.39633
 C1605 C 0.25877 0.23396 0.38277
 C1606 C 0.28737 0.20898 0.39428
 H1607 H 0.26136 0.28186 0.41655
 H1608 H 0.21073 0.23649 0.44217
 H1609 H 0.31356 0.23529 0.43841
 H1610 H 0.25919 0.15608 0.40468
 H1611 H 0.20695 0.20192 0.38416
 H1612 H 0.31001 0.20071 0.38055
 C1613 C 0.78022 0.30582 0.39277
 C1614 C 0.74654 0.32035 0.40591
 C1615 C 0.75288 0.30038 0.43711
 C1616 C 0.78666 0.28560 0.42395
 C1617 C 0.73266 0.26908 0.42469
 C1618 C 0.72634 0.28917 0.39337
 C1619 C 0.76013 0.27476 0.37998
 C1620 C 0.76647 0.25416 0.41085
 H1621 H 0.79998 0.32097 0.37967
 H1622 H 0.73816 0.34767 0.40361
 H1623 H 0.81158 0.28418 0.43684
 H1624 H 0.71294 0.25416 0.43802
 H1625 H 0.70132 0.29067 0.38064
 H1626 H 0.77489 0.22683 0.41261
 C1627 C 0.26699 0.75541 0.91006
 C1628 C 0.28688 0.78709 0.92306
 C1629 C 0.25302 0.80139 0.93649
 C1630 C 0.23310 0.76985 0.92417
 C1631 C 0.24616 0.82131 0.90535
 C1632 C 0.27990 0.80726 0.89194
 C1633 C 0.26010 0.77597 0.87926
 C1634 C 0.22625 0.78990 0.89293
 H1635 H 0.27577 0.72819 0.91171
 H1636 H 0.31192 0.78598 0.93576
 H1637 H 0.21370 0.75464 0.93763
 H1638 H 0.23742 0.84852 0.90311
 H1639 H 0.29934 0.82270 0.87871
 H1640 H 0.20109 0.79109 0.88041
 C1641 C 0.23862 0.81881 0.10245
 C1642 C 0.27085 0.82591 0.08229
 C1643 C 0.25411 0.80877 0.05562
 C1644 C 0.22227 0.80192 0.07325
 C1645 C 0.26873 0.77478 0.06438
 C1646 C 0.28626 0.79104 0.09342
 C1647 C 0.25363 0.78332 0.11307
 C1648 C 0.23637 0.76621 0.08436
 H1649 H 0.22570 0.83796 0.11747
 H1650 H 0.28509 0.85079 0.08037
 H1651 H 0.19613 0.80723 0.06363
 H1652 H 0.28151 0.75723 0.04774
 H1653 H 0.31340 0.78672 0.10076
 H1654 H 0.22188 0.74144 0.08408
 C1655 C 0.78564 0.28850 0.59394
 C1656 C 0.76859 0.27282 0.56442
 C1657 C 0.75388 0.30692 0.55613
 C1658 C 0.77016 0.32351 0.58331
 C1659 C 0.72184 0.29943 0.57329
 C1660 C 0.73603 0.26356 0.58388
 C1661 C 0.75281 0.28007 0.61312
 C1662 C 0.73772 0.31572 0.60301
 H1663 H 0.81272 0.28417 0.60146
 H1664 H 0.78174 0.25574 0.54761
 H1665 H 0.78425 0.34852 0.58205
 H1666 H 0.69580 0.30485 0.56350
 H1667 H 0.72172 0.23873 0.58293
 H1668 H 0.72447 0.33441 0.61826
 C1669 C 0.28713 0.17758 0.60533
 C1670 C 0.25135 0.17440 0.58949
 C1671 C 0.26561 0.19212 0.55966
 C1672 C 0.30147 0.19533 0.57515
 C1673 C 0.25565 0.22790 0.57202
 C1674 C 0.24139 0.21011 0.60208
 C1675 C 0.27714 0.21328 0.61792
 C1676 C 0.29150 0.23126 0.58816
 H1677 H 0.30037 0.15684 0.61908
 H1678 H 0.23460 0.15111 0.59030
 H1679 H 0.32624 0.18900 0.56379
 H1680 H 0.24234 0.24853 0.55821
 H1681 H 0.21646 0.21638 0.61322
 H1682 H 0.30813 0.25464 0.58772
 C1683 C 0.78701 0.67918 0.10488
 C1684 C 0.75193 0.67825 0.08753
 C1685 C 0.76885 0.69448 0.05817
 C1686 C 0.80402 0.69543 0.07522
 C1687 C 0.76073 0.73107 0.06980
 C1688 C 0.74380 0.71475 0.09940
 C1689 C 0.77884 0.71570 0.11675
 C1690 C 0.79589 0.73217 0.08747
 H1691 H 0.79807 0.65774 0.11935
 H1692 H 0.73366 0.65612 0.08775
 H1693 H 0.82884 0.68719 0.06506
 H1694 H 0.74959 0.75243 0.05530
 H1695 H 0.71883 0.72289 0.10938
 H1696 H 0.81407 0.75436 0.08751
 C1697 C 0.19703 0.59170 0.24931
 C1698 C 0.16781 0.58706 0.27369
 C1699 C 0.14433 0.57202 0.24800
 C1700 C 0.17332 0.57636 0.22347
 C1701 C 0.13091 0.60849 0.23935
 C1702 C 0.15448 0.62364 0.26508
 C1703 C 0.18359 0.62809 0.24066
 C1704 C 0.16011 0.61320 0.21489
 H1705 H 0.22444 0.58478 0.25320
 H1706 H 0.17089 0.57638 0.29797
 H1707 H 0.18106 0.55654 0.20636
 H1708 H 0.10351 0.61551 0.23549
 H1709 H 0.14650 0.64330 0.28225
 H1710 H 0.15696 0.62394 0.19063
 C1711 C 0.65766 0.10908 0.71529
 C1712 C 0.67164 0.07206 0.72187
 C1713 C 0.64458 0.06659 0.74802
 C1714 C 0.63038 0.10321 0.74136
 C1715 C 0.66981 0.08084 0.77268
 C1716 C 0.69713 0.08663 0.74670
 C1717 C 0.68291 0.12317 0.74004
 C1718 C 0.65569 0.11755 0.76606
 H1719 H 0.65269 0.12071 0.69162
 H1720 H 0.67818 0.05295 0.70370
 H1721 H 0.60274 0.11012 0.73943
 H1722 H 0.67472 0.06930 0.79639
 H1723 H 0.72479 0.07981 0.74866
 H1724 H 0.64882 0.13642 0.78434
 C1725 C 0.84901 0.11170 0.22995
 C1726 C 0.87485 0.09861 0.25514
 C1727 C 0.85944 0.06193 0.25236
 C1728 C 0.83375 0.07486 0.22717
 C1729 C 0.83362 0.06971 0.27873
 C1730 C 0.84886 0.10665 0.28147
 C1731 C 0.82320 0.11950 0.25628
 C1732 C 0.80764 0.08299 0.25344
 H1733 H 0.85542 0.12932 0.20990
 H1734 H 0.90274 0.10498 0.25560
 H1735 H 0.82765 0.06165 0.20482
 H1736 H 0.82730 0.05201 0.29874
 H1737 H 0.85506 0.11986 0.30380
 H1738 H 0.77972 0.07681 0.25294
 C1739 C 0.35122 0.60920 0.77923
 C1740 C 0.33553 0.57239 0.77701
 C1741 C 0.36037 0.56426 0.74996
 C1742 C 0.37624 0.60081 0.75221
 C1743 C 0.33401 0.57732 0.72545
 C1744 C 0.30888 0.58580 0.75240
 C1745 C 0.32489 0.62217 0.75470
 C1746 C 0.34972 0.61402 0.72769
 H1747 H 0.35827 0.62246 0.80133
 H1748 H 0.32970 0.55481 0.79723
 H1749 H 0.40418 0.60691 0.75186
 H1750 H 0.32705 0.56407 0.70332
 H1751 H 0.28090 0.57989 0.75270
 H1752 H 0.35567 0.63150 0.70742
 C1753 C 0.36813 0.38045 0.76746
 C1754 C 0.39139 0.39796 0.74219
 C1755 C 0.37206 0.43223 0.74678
 C1756 C 0.34905 0.41500 0.77194
 C1757 C 0.34603 0.42237 0.72077
 C1758 C 0.36500 0.38760 0.71621
 C1759 C 0.34195 0.37059 0.74156
 C1760 C 0.32291 0.40502 0.74605
 H1761 H 0.37732 0.36305 0.78677
 H1762 H 0.41972 0.39500 0.74069
 H1763 H 0.34246 0.42621 0.79500
 H1764 H 0.33689 0.43985 0.70149
 H1765 H 0.37156 0.37630 0.69319
 H1766 H 0.29458 0.40806 0.74755
 C1767 C 0.82627 0.90611 0.24647
 C1768 C 0.85256 0.91607 0.27214
 C1769 C 0.87452 0.93241 0.24803
 C1770 C 0.85013 0.92438 0.22240
 C1771 C 0.89427 0.90051 0.24325
 C1772 C 0.87143 0.88147 0.26784
 C1773 C 0.84551 0.87169 0.24148
 C1774 C 0.86882 0.88974 0.21670
 H1775 H 0.79801 0.90984 0.24785
 H1776 H 0.84653 0.92804 0.29502
 H1777 H 0.84205 0.94337 0.20389
 H1778 H 0.92274 0.89904 0.24206
 H1779 H 0.88112 0.86444 0.28723
 H1780 H 0.87628 0.87986 0.19335
 C1781 C 0.67685 0.90497 0.74174
 C1782 C 0.64151 0.91446 0.72712
 C1783 C 0.63265 0.93450 0.75695
 C1784 C 0.66792 0.92515 0.77164
 C1785 C 0.61655 0.90170 0.77200
 C1786 C 0.62565 0.88124 0.74203
 C1787 C 0.66096 0.87204 0.75668
 C1788 C 0.65209 0.89197 0.78661
 H1789 H 0.70185 0.90636 0.72926
 H1790 H 0.63711 0.92380 0.70255
 H1791 H 0.68552 0.94321 0.78392
 H1792 H 0.59156 0.90044 0.78447
 H1793 H 0.60819 0.86297 0.72986
 H1794 H 0.65645 0.88264 0.81118
 C1795 C 0.17546 0.40924 0.24626
 C1796 C 0.14054 0.41850 0.23078
 C1797 C 0.13160 0.44010 0.25962
 C1798 C 0.16646 0.43095 0.27518
 C1799 C 0.11476 0.40828 0.27573
 C1800 C 0.12396 0.38627 0.24674
 C1801 C 0.15886 0.37721 0.26224
 C1802 C 0.14994 0.39868 0.29122
 H1803 H 0.20067 0.40971 0.23409
 H1804 H 0.13672 0.42676 0.20584
 H1805 H 0.18418 0.44931 0.28693
 H1806 H 0.08956 0.40796 0.28786
 H1807 H 0.10638 0.36769 0.23512
 H1808 H 0.15375 0.39041 0.31616
 C1809 C 0.08979 0.26437 0.78309
 C1810 C 0.06878 0.23178 0.79323
 C1811 C 0.06476 0.24710 0.82608
 C1812 C 0.08504 0.27964 0.81621
 C1813 C 0.09785 0.22926 0.83773
 C1814 C 0.10228 0.21395 0.80481
 C1815 C 0.12257 0.24647 0.79521
 C1816 C 0.11823 0.26176 0.82792
 H1817 H 0.08733 0.27869 0.76032
 H1818 H 0.04776 0.21954 0.77949
 H1819 H 0.07733 0.30656 0.82121
 H1820 H 0.10086 0.21484 0.86042
 H1821 H 0.11003 0.18704 0.79977
 H1822 H 0.13902 0.27406 0.84194
 C1823 C 0.60535 0.71856 0.30572
 C1824 C 0.60162 0.73260 0.33920
 C1825 C 0.56849 0.75101 0.32857
 C1826 C 0.57185 0.73700 0.29516
 C1827 C 0.58875 0.78381 0.31947
 C1828 C 0.62206 0.76533 0.33009
 C1829 C 0.62570 0.75127 0.29680
 C1830 C 0.59285 0.76981 0.28576
 H1831 H 0.61278 0.69181 0.29971
 H1832 H 0.60489 0.71734 0.36141
 H1833 H 0.55052 0.72539 0.28135
 H1834 H 0.58125 0.81052 0.32550
 H1835 H 0.64320 0.77697 0.34415
 H1836 H 0.59008 0.78500 0.26347
 C1837 C 0.58783 0.22220 0.19311
 C1838 C 0.55592 0.24202 0.20482
 C1839 C 0.55023 0.25602 0.17118
 C1840 C 0.58168 0.23606 0.15944
 C1841 C 0.57249 0.28798 0.17761
 C1842 C 0.57893 0.27404 0.21151
 C1843 C 0.60999 0.25422 0.19917
 C1844 C 0.60392 0.26811 0.16567
 H1845 H 0.59496 0.19528 0.19972
 H1846 H 0.53541 0.23149 0.22037
 H1847 H 0.58248 0.22029 0.13786
 H1848 H 0.56547 0.31494 0.17103
 H1849 H 0.57889 0.28955 0.23324
 H1850 H 0.62383 0.27872 0.14948
 C1851 C 0.08834 0.78228 0.69301
 C1852 C 0.08246 0.77057 0.65901
 C1853 C 0.05041 0.75030 0.67005
 C1854 C 0.05591 0.76209 0.70398
 C1855 C 0.07190 0.71767 0.67601
 C1856 C 0.10400 0.73791 0.66492
 C1857 C 0.10976 0.74970 0.69867
 C1858 C 0.07812 0.72938 0.71023
 H1859 H 0.09592 0.80868 0.70013
 H1860 H 0.08390 0.78761 0.63773
 H1861 H 0.03538 0.77185 0.71948
 H1862 H 0.06435 0.69126 0.66878
 H1863 H 0.12433 0.72814 0.64917
 H1864 H 0.07736 0.71255 0.73166
 C1865 C 0.88095 0.76441 0.64820
 C1866 C 0.91375 0.76222 0.66874
 C1867 C 0.92612 0.73181 0.64907
 C1868 C 0.89360 0.73390 0.62831
 C1869 C 0.90904 0.70567 0.67154
 C1870 C 0.89637 0.73611 0.69133
 C1871 C 0.86386 0.73842 0.67066
 C1872 C 0.87585 0.70779 0.65110
 H1873 H 0.86890 0.78848 0.63887
 H1874 H 0.92983 0.78448 0.67611
 H1875 H 0.89278 0.73245 0.60223
 H1876 H 0.92113 0.68160 0.68083
 H1877 H 0.89693 0.73727 0.71744
 H1878 H 0.85947 0.68565 0.64401
 C1879 C 0.38060 0.25297 0.14803
 C1880 C 0.39492 0.28502 0.13001
 C1881 C 0.42807 0.28240 0.14982
 C1882 C 0.41404 0.25043 0.16756
 C1883 C 0.41372 0.30652 0.17462
 C1884 C 0.37984 0.30916 0.15521
 C1885 C 0.36627 0.27701 0.17286
 C1886 C 0.39952 0.27451 0.19244
 H1887 H 0.36653 0.23102 0.13735
 H1888 H 0.39371 0.28976 0.10417
 H1889 H 0.42845 0.22631 0.17293
 H1890 H 0.42790 0.32842 0.18523
 H1891 H 0.36479 0.33299 0.15032
 H1892 H 0.40091 0.26986 0.21830
 C1893 C 0.41555 0.77620 0.30192
 C1894 C 0.42984 0.80245 0.32566
 C1895 C 0.44356 0.77210 0.34572
 C1896 C 0.42948 0.74592 0.32215
 C1897 C 0.41005 0.77027 0.36471
 C1898 C 0.39555 0.80061 0.34424
 C1899 C 0.38188 0.77419 0.32065
 C1900 C 0.39571 0.74403 0.34086
 H1901 H 0.41742 0.77866 0.27589
 H1902 H 0.44450 0.82633 0.31970
 H1903 H 0.44385 0.72343 0.31321
 H1904 H 0.40808 0.76800 0.39072
 H1905 H 0.38094 0.82300 0.35303
 H1906 H 0.38121 0.72008 0.34694
 C1907 C 0.89473 0.24058 0.84390
 C1908 C 0.92889 0.23981 0.82579
 C1909 C 0.94217 0.26784 0.84531
 C1910 C 0.91063 0.26945 0.86419
 C1911 C 0.93062 0.29502 0.82317
 C1912 C 0.91538 0.26690 0.80191
 C1913 C 0.88141 0.26830 0.82047
 C1914 C 0.89613 0.29730 0.84108
 H1915 H 0.88040 0.21768 0.85305
 H1916 H 0.94382 0.21632 0.82015
 H1917 H 0.90989 0.27091 0.89026
 H1918 H 0.94704 0.31714 0.81551
 H1919 H 0.91833 0.26587 0.77595
 H1920 H 0.88300 0.32145 0.84780
 C1921 C 0.50071 1.00172 0.67590
 C1922 C 0.51873 0.97233 0.69550
 C1923 C 0.54997 0.99618 0.70098
 C1924 C 0.53206 1.02555 0.68206
 C1925 C 0.56704 0.98337 0.67085
 C1926 C 0.53587 0.95947 0.66491
 C1927 C 0.51829 0.98895 0.64593
 C1928 C 0.54940 1.01272 0.65200
 H1929 H 0.47330 1.00930 0.67777
 H1930 H 0.50636 0.95560 0.71370
 H1931 H 0.53048 1.05297 0.68913
 H1932 H 0.59443 0.97575 0.66873
 H1933 H 0.53730 0.93211 0.65768
 H1934 H 0.56211 1.02966 0.63414
 C1935 C 0.00437 0.50579 1.17074
 C1936 C 0.02171 0.47667 1.19115
 C1937 C 0.05286 0.50052 1.19699
 C1938 C 0.03563 0.52963 1.17724
 C1939 C 0.07077 0.48709 1.16751
 C1940 C 0.03967 0.46318 1.16120
 C1941 C 0.02274 0.49238 1.14142
 C1942 C 0.05376 0.51616 1.14780
 H1943 H -0.02306 0.51350 1.17182
 H1944 H 0.00879 0.46034 1.20931
 H1945 H 0.03398 0.55718 1.18386
 H1946 H 0.09819 0.47934 1.16621
 H1947 H 0.04118 0.43568 1.15439
 H1948 H 0.06699 0.53270 1.12995
 C1949 C -0.06090 -0.03989 1.14926
 C1950 C -0.04026 -0.04430 1.18053
 C1951 C -0.05504 -0.00980 1.19192
 C1952 C -0.07568 -0.00563 1.16099
 C1953 C -0.02447 0.01006 1.17741
 C1954 C -0.00940 -0.02434 1.16527
 C1955 C -0.03047 -0.01986 1.13457
 C1956 C -0.04522 0.01442 1.14659
 H1957 H -0.07592 -0.06060 1.13765
 H1958 H -0.03838 -0.06852 1.19482
 H1959 H -0.10312 0.00201 1.15876
 H1960 H -0.00957 0.03080 1.18909
 H1961 H 0.01799 -0.03224 1.16685
 H1962 H -0.04740 0.03900 1.13285
 C1963 C 0.43630 0.46171 0.64505
 C1964 C 0.45621 0.45581 0.67650
 C1965 C 0.44352 0.49115 0.68787
 C1966 C 0.42360 0.49683 0.65674
 C1967 C 0.47549 0.50906 0.67387
 C1968 C 0.48848 0.47379 0.66173
 C1969 C 0.46814 0.47978 0.63082
 C1970 C 0.45549 0.51491 0.64279
 H1971 H 0.42017 0.44207 0.63314
 H1972 H 0.45631 0.43145 0.69069
 H1973 H 0.39675 0.50620 0.65415
 H1974 H 0.49151 0.52874 0.68585
 H1975 H 0.51527 0.46411 0.66358
 H1976 H 0.45510 0.53960 0.62907
 C1977 C 0.45427 0.52724 -0.15092
 C1978 C 0.47178 0.53528 -0.18265
 C1979 C 0.45524 0.50218 -0.19624
 C1980 C 0.43821 0.49418 -0.16436
 C1981 C 0.48732 0.48129 -0.18629
 C1982 C 0.50388 0.51445 -0.17197
 C1983 C 0.48607 0.50657 -0.14033
 C1984 C 0.47012 0.47331 -0.15409
 H1985 H 0.44056 0.54650 -0.13660
 H1986 H 0.47261 0.56106 -0.19452
 H1987 H 0.41116 0.48556 -0.16099
 H1988 H 0.50067 0.46214 -0.20096
 H1989 H 0.53097 0.52305 -0.17492
 H1990 H 0.46951 0.44756 -0.14217
 C1991 C 0.00025 1.01033 0.33479
 C1992 C -0.01687 0.97738 0.32059
 C1993 C -0.04773 0.99918 0.30902
 C1994 C -0.03062 1.03201 0.32255
 C1995 C -0.06635 0.99258 0.34044
 C1996 C -0.03565 0.97085 0.35234
 C1997 C -0.01910 1.00387 0.36591
 C1998 C -0.04969 1.02541 0.35376
 H1999 H 0.02773 1.01784 0.33263
 H2000 H -0.00357 0.95740 0.30681
 H2001 H -0.02844 1.05746 0.31022
 H2002 H -0.09381 0.98506 0.34301
 H2003 H -0.03766 0.94547 0.36482
 H2004 H -0.06331 1.04550 0.36718
 C2005 C 0.05739 0.47920 0.35887
 C2006 C 0.04193 0.46923 0.32653
 C2007 C 0.05451 0.50413 0.31256
 C2008 C 0.06993 0.51389 0.34468
 C2009 C 0.02008 0.52104 0.32110
 C2010 C 0.00718 0.48622 0.33584
 C2011 C 0.02308 0.49624 0.36782
 C2012 C 0.03563 0.53092 0.35324
 H2013 H 0.07287 0.46176 0.37437
 H2014 H 0.04460 0.44368 0.31540
 H2015 H 0.09579 0.52525 0.34894
 H2016 H 0.00482 0.53848 0.30545
 H2017 H -0.01871 0.47466 0.33227
 H2018 H 0.03309 0.55670 0.36403
 C2019 C 0.51158 -0.01969 -0.15937
 C2020 C 0.52278 0.01473 -0.17598
 C2021 C 0.55806 -0.00100 -0.18360
 C2022 C 0.54719 -0.03551 -0.16770
 C2023 C 0.57281 0.01168 -0.15206
 C2024 C 0.53765 0.02754 -0.14443
 C2025 C 0.52678 -0.00670 -0.12802
 C2026 C 0.56194 -0.02262 -0.13599
 H2027 H 0.48630 -0.03272 -0.16231
 H2028 H 0.50670 0.03030 -0.19256
 H2029 H 0.55130 -0.06158 -0.17741
 H2030 H 0.59808 0.02449 -0.14824
 H2031 H 0.53378 0.05381 -0.13503
 H2032 H 0.57821 -0.03818 -0.11955
 C2033 C 0.64496 0.60500 0.01245
 C2034 C 0.68156 0.59152 0.02044
 C2035 C 0.69630 0.61572 -0.00519
 C2036 C 0.65987 0.62937 -0.01315
 C2037 C 0.69187 0.58745 -0.03012
 C2038 C 0.67673 0.56291 -0.00442
 C2039 C 0.64050 0.57677 -0.01254
 C2040 C 0.65525 0.60100 -0.03806
 H2041 H 0.62527 0.61242 0.02987
 H2042 H 0.69237 0.58770 0.04450
 H2043 H 0.65276 0.65697 -0.01637
 H2044 H 0.71163 0.58014 -0.04751
 H2045 H 0.68354 0.53525 -0.00116
 H2046 H 0.64449 0.60495 -0.06212
 C2047 C 0.17070 1.06313 0.50053
 C2048 C 0.18687 1.08496 0.47336
 C2049 C 0.19183 1.11520 0.49617
 C2050 C 0.17609 1.09373 0.52325
 C2051 C 0.15592 1.12922 0.48685
 C2052 C 0.15072 1.09886 0.46407
 C2053 C 0.13498 1.07733 0.49107
 C2054 C 0.14002 1.10759 0.51390
 H2055 H 0.17666 1.03563 0.50589
 H2056 H 0.20659 1.07559 0.45680
 H2057 H 0.18651 1.09171 0.54761
 H2058 H 0.14961 1.15668 0.48155
 H2059 H 0.14032 1.10100 0.43971
 H2060 H 0.12041 1.11712 0.53050
 C2061 C 0.14869 -0.07947 0.98033
 C2062 C 0.18222 -0.07622 0.99993
 C2063 C 0.18328 -0.11588 1.00385
 C2064 C 0.14970 -0.11907 0.98436
 C2065 C 0.16207 -0.11370 1.03439
 C2066 C 0.16046 -0.07363 1.03040
 C2067 C 0.12712 -0.07714 1.01065
 C2068 C 0.12832 -0.11674 1.01476
 H2069 H 0.14371 -0.06554 0.95768
 H2070 H 0.20448 -0.05944 0.99371
 H2071 H 0.14357 -0.13732 0.96527
 H2072 H 0.16767 -0.12793 1.05675
 H2073 H 0.16488 -0.05488 1.04949
 H2074 H 0.10616 -0.13369 1.02079
 C2075 C 0.64245 0.39739 0.53637
 C2076 C 0.64849 0.36783 0.51279
 C2077 C 0.68409 0.38320 0.50458
 C2078 C 0.67860 0.41251 0.52816
 C2079 C 0.66769 0.40550 0.47804
 C2080 C 0.63207 0.39015 0.48620
 C2081 C 0.62627 0.41956 0.50960
 C2082 C 0.66189 0.43495 0.50150
 H2083 H 0.63195 0.39403 0.56048
 H2084 H 0.64296 0.34006 0.51745
 H2085 H 0.69791 0.42174 0.54550
 H2086 H 0.67799 0.40897 0.45386
 H2087 H 0.61293 0.38076 0.46877
 H2088 H 0.66746 0.46271 0.49681
 C2089 C -0.14361 0.40884 0.51772
 C2090 C -0.18143 0.42037 0.52227
 C2091 C -0.19281 0.39559 0.49626
 C2092 C -0.15520 0.38389 0.49176
 C2093 C -0.18766 0.42430 0.47095
 C2094 C -0.17589 0.44944 0.49701
 C2095 C -0.13849 0.43745 0.49230
 C2096 C -0.14996 0.41262 0.46646
 H2097 H -0.12511 0.40234 0.53694
 H2098 H -0.19434 0.42345 0.54527
 H2099 H -0.14650 0.35672 0.48993
 H2100 H -0.20616 0.43077 0.45172
 H2101 H -0.18430 0.47668 0.49886
 H2102 H -0.13710 0.40932 0.44345
 C2103 C 0.32769 -0.05210 -0.00135
 C2104 C 0.31533 -0.07607 -0.02807
 C2105 C 0.30778 -0.10480 -0.00332
 C2106 C 0.31974 -0.08116 0.02335
 C2107 C 0.34478 -0.11862 -0.00700
 C2108 C 0.35242 -0.08987 -0.03175
 C2109 C 0.36446 -0.06619 -0.00525
 C2110 C 0.35697 -0.09481 0.01962
 H2111 H 0.32083 -0.02443 0.00069
 H2112 H 0.29782 -0.06823 -0.04766
 H2113 H 0.30629 -0.07769 0.04604
 H2114 H 0.35194 -0.14623 -0.00900
 H2115 H 0.36580 -0.09355 -0.05445
 H2116 H 0.37448 -0.10267 0.03920
 C2117 C 0.36692 1.09605 0.49820
 C2118 C 0.33204 1.08549 0.48371
 C2119 C 0.31355 1.10693 0.50858
 C2120 C 0.34837 1.11754 0.52315
 C2121 C 0.31179 1.07512 0.53095
 C2122 C 0.33062 1.05350 0.50594
 C2123 C 0.36556 1.06399 0.52038
 C2124 C 0.34726 1.08535 0.54554
 H2125 H 0.38971 1.10495 0.48462
 H2126 H 0.32598 1.08544 0.45813
 H2127 H 0.35578 1.14409 0.53004
 H2128 H 0.28880 1.06655 0.54441
 H2129 H 0.32322 1.02699 0.49891
 H2130 H 0.35356 1.08521 0.57107
 C2131 C -0.14791 0.58677 1.04224
 C2132 C -0.14731 0.61910 1.02001
 C2133 C -0.18251 0.60862 1.00615
 C2134 C -0.18374 0.57665 1.02837
 C2135 C -0.16468 0.58731 0.98076
 C2136 C -0.12943 0.59776 0.99454
 C2137 C -0.13028 0.56558 1.01657
 C2138 C -0.16557 0.55517 1.00283
 H2139 H -0.14094 0.58647 1.06764
 H2140 H -0.13974 0.64560 1.02692
 H2141 H -0.20638 0.56803 1.04227
 H2142 H -0.17141 0.58741 0.95530
 H2143 H -0.10698 0.60670 0.98051
 H2144 H -0.17316 0.52871 0.99582
 C2145 C 0.02399 0.66238 0.57044
 C2146 C 0.02933 0.69780 0.55391
 C2147 C 0.00013 0.71229 0.57382
 C2148 C -0.00525 0.67690 0.59025
 C2149 C -0.02678 0.70345 0.54860
 C2150 C 0.00244 0.68816 0.52830
 C2151 C -0.00281 0.65322 0.54533
 C2152 C -0.03203 0.66781 0.56498
 H2153 H 0.04488 0.64531 0.57943
 H2154 H 0.05443 0.71077 0.54956
 H2155 H -0.00828 0.67181 0.61589
 H2156 H -0.04741 0.72101 0.53994
 H2157 H 0.00554 0.69175 0.50249
 H2158 H -0.05713 0.65486 0.56939
 C2159 C 0.45304 0.14663 0.08416
 C2160 C 0.47615 0.15452 0.11296
 C2161 C 0.47719 0.19239 0.10212
 C2162 C 0.45400 0.18517 0.07361
 C2163 C 0.50963 0.18616 0.08243
 C2164 C 0.50864 0.14811 0.09332
 C2165 C 0.48564 0.14060 0.06479
 C2166 C 0.48655 0.17836 0.05374
 H2167 H 0.42997 0.12960 0.08420
 H2168 H 0.47158 0.14526 0.13748
 H2169 H 0.43134 0.20076 0.06623
 H2170 H 0.53308 0.20267 0.08204
 H2171 H 0.53142 0.13292 0.10114
 H2172 H 0.49112 0.18745 0.02917
 C2173 C -0.03919 0.13588 0.91034
 C2174 C -0.04060 0.17387 0.92117
 C2175 C -0.00976 0.18202 0.89987
 C2176 C -0.00838 0.14456 0.88883
 C2177 C 0.01552 0.17401 0.92697
 C2178 C -0.01529 0.16520 0.94863
 C2179 C -0.01377 0.12783 0.93738
 C2180 C 0.01692 0.13629 0.91603
 H2181 H -0.06184 0.11985 0.90389
 H2182 H -0.06423 0.18974 0.92270
 H2183 H -0.00564 0.13637 0.86405
 H2184 H 0.03808 0.19023 0.93330
 H2185 H -0.01810 0.17308 0.97347
 H2186 H 0.04059 0.12049 0.91428
 C2187 C 0.52047 0.63564 0.41416
 C2188 C 0.49653 0.64443 0.38604
 C2189 C 0.49346 0.68132 0.39828
 C2190 C 0.51738 0.67281 0.42627
 C2191 C 0.46165 0.67148 0.41776
 C2192 C 0.46474 0.63405 0.40574
 C2193 C 0.48882 0.62555 0.43368
 C2194 C 0.48560 0.66233 0.44607
 H2195 H 0.54463 0.62052 0.41304
 H2196 H 0.50090 0.63738 0.36117
 H2197 H 0.53908 0.68930 0.43425
 H2198 H 0.43753 0.68666 0.41870
 H2199 H 0.44297 0.61771 0.39767
 H2200 H 0.48115 0.66906 0.47101
 C2201 C 0.47759 0.83816 0.42866
 C2202 C 0.50476 0.83136 0.40329
 C2203 C 0.51422 0.79740 0.42061
 C2204 C 0.48705 0.80385 0.44582
 C2205 C 0.54209 0.81589 0.43983
 C2206 C 0.53259 0.85009 0.42261
 C2207 C 0.50544 0.85664 0.44775
 C2208 C 0.51485 0.82295 0.46537
 H2209 H 0.45117 0.84797 0.42417
 H2210 H 0.50071 0.83469 0.37751
 H2211 H 0.46864 0.78430 0.45521
 H2212 H 0.56852 0.80613 0.44433
 H2213 H 0.55112 0.86949 0.41314
 H2214 H 0.51887 0.82039 0.49121
 C2215 C 0.01712 0.32445 0.96170
 C2216 C -0.01204 0.30608 0.94325
 C2217 C 0.01396 0.29811 0.91745
 C2218 C 0.04317 0.31590 0.93557
 C2219 C 0.00526 0.33207 0.89979
 C2220 C -0.02072 0.34039 0.92579
 C2221 C 0.00847 0.35818 0.94380
 C2222 C 0.03443 0.35016 0.91804
 H2223 H 0.02196 0.32223 0.98745
 H2224 H -0.03086 0.28742 0.95343
 H2225 H 0.06932 0.30516 0.93953
 H2226 H 0.00039 0.33485 0.87408
 H2227 H -0.04687 0.35115 0.92185
 H2228 H 0.05333 0.36873 0.90782
 C2229 C 0.50883 0.32498 0.02830
 C2230 C 0.53444 0.31340 0.05454
 C2231 C 0.50387 0.30066 0.07429
 C2232 C 0.47814 0.31147 0.04846
 C2233 C 0.50077 0.33608 0.08989
 C2234 C 0.53136 0.34890 0.07017
 C2235 C 0.50582 0.35998 0.04446
 C2236 C 0.47518 0.34719 0.06400
 H2237 H 0.51211 0.32148 0.00261
 H2238 H 0.55860 0.29884 0.05093
 H2239 H 0.45645 0.29534 0.03987
 H2240 H 0.49764 0.34084 0.11541
 H2241 H 0.55310 0.36486 0.07894
 H2242 H 0.45093 0.36160 0.06764
 C2243 C -0.01730 0.84093 0.55552
 C2244 C 0.00903 0.82888 0.58072
 C2245 C -0.02077 0.82214 0.60371
 C2246 C -0.04719 0.83357 0.57875
 C2247 C -0.01774 0.85873 0.61654
 C2248 C 0.01212 0.86572 0.59349
 C2249 C -0.01409 0.87736 0.56857
 C2250 C -0.04409 0.87077 0.59136
 H2251 H -0.01683 0.83444 0.53018
 H2252 H 0.03090 0.81113 0.57678
 H2253 H -0.07165 0.81989 0.57340
 H2254 H -0.01823 0.86549 0.64183
 H2255 H 0.03656 0.87937 0.59900
 H2256 H -0.06590 0.88862 0.59516
 C2257 C 0.24196 0.25909 0.08351
 C2258 C 0.21612 0.28388 0.06633
 C2259 C 0.24643 0.30661 0.05517
 C2260 C 0.27222 0.28201 0.07176
 C2261 C 0.24412 0.32833 0.08513
 C2262 C 0.21391 0.30562 0.09667
 C2263 C 0.23992 0.28121 0.11320
 C2264 C 0.26998 0.30387 0.10166
 H2265 H 0.24115 0.23044 0.08316
 H2266 H 0.19393 0.27586 0.05153
 H2267 H 0.29637 0.27231 0.06133
 H2268 H 0.24487 0.35699 0.08580
 H2269 H 0.18978 0.31536 0.10712
 H2270 H 0.29233 0.31208 0.11621
 C2271 C 0.70775 0.78720 0.58983
 C2272 C 0.73247 0.81766 0.58287
 C2273 C 0.74456 0.79972 0.55292
 C2274 C 0.71986 0.76920 0.55940
 C2275 C 0.77332 0.78110 0.57183
 C2276 C 0.76123 0.79929 0.60169
 C2277 C 0.73665 0.76888 0.60872
 C2278 C 0.74869 0.75047 0.57894
 H2279 H 0.68059 0.78956 0.59742
 H2280 H 0.72575 0.84542 0.58450
 H2281 H 0.70275 0.75706 0.54169
 H2282 H 0.80054 0.77857 0.56444
 H2283 H 0.77855 0.81176 0.61907
 H2284 H 0.75537 0.72270 0.57754
 C2285 C 0.26439 0.71022 0.60077
 C2286 C 0.24931 0.67594 0.58906
 C2287 C 0.24046 0.69383 0.55735
 C2288 C 0.25538 0.72820 0.56910
 C2289 C 0.20460 0.70346 0.56987
 C2290 C 0.21368 0.68558 0.60183
 C2291 C 0.22875 0.71983 0.61389
 C2292 C 0.21960 0.73815 0.58237
 H2293 H 0.28940 0.71295 0.61332
 H2294 H 0.26142 0.65023 0.59262
 H2295 H 0.27278 0.74567 0.55557
 H2296 H 0.17990 0.70049 0.55690
 H2297 H 0.19632 0.66796 0.61525
 H2298 H 0.20715 0.76379 0.57973
 C2299 C 0.72171 0.23850 0.08382
 C2300 C 0.75635 0.22448 0.07124
 C2301 C 0.73758 0.19276 0.05801
 C2302 C 0.70283 0.20647 0.06987
 C2303 C 0.74301 0.17282 0.08937
 C2304 C 0.76195 0.20445 0.10250
 C2305 C 0.72742 0.21814 0.11497
 C2306 C 0.70851 0.18653 0.10156
 H2307 H 0.71273 0.26562 0.08169
 H2308 H 0.77624 0.24000 0.05870
 H2309 H 0.67843 0.20718 0.05614
 H2310 H 0.75175 0.14565 0.09215
 H2311 H 0.78672 0.20350 0.11567
 H2312 H 0.68866 0.17088 0.11402
 C2313 C 0.75699 0.25054 0.91610
 C2314 C 0.72421 0.23248 0.93004
 C2315 C 0.74616 0.20142 0.94119
 C2316 C 0.77882 0.21945 0.92793
 C2317 C 0.74025 0.18367 0.90946
 C2318 C 0.71837 0.21455 0.89800
 C2319 C 0.75121 0.23203 0.88464
 C2320 C 0.77290 0.20123 0.89642
 H2321 H 0.76409 0.27814 0.91873
 H2322 H 0.70395 0.24516 0.94397
 H2323 H 0.80398 0.22158 0.94031
 H2324 H 0.73316 0.15610 0.90641
 H2325 H 0.69326 0.21255 0.88552
 H2326 H 0.79328 0.18818 0.88287
 C2327 C 0.27539 0.70608 0.39565
 C2328 C 0.28209 0.72379 0.42728
 C2329 C 0.24965 0.70572 0.44087
 C2330 C 0.24295 0.68846 0.40904
 C2331 C 0.22760 0.73702 0.43053
 C2332 C 0.26015 0.75514 0.41622
 C2333 C 0.25357 0.73714 0.38464
 C2334 C 0.22097 0.71959 0.39838
 H2335 H 0.29541 0.69316 0.38156
 H2336 H 0.30752 0.72559 0.43923
 H2337 H 0.23568 0.66098 0.40578
 H2338 H 0.20772 0.74956 0.44501
 H2339 H 0.26742 0.78267 0.41906
 H2340 H 0.19558 0.71789 0.38634
 C2341 C 0.72712 0.76380 0.41178
 C2342 C 0.76167 0.77379 0.42812
 C2343 C 0.74683 0.80930 0.43648
 C2344 C 0.71218 0.79963 0.42085
 C2345 C 0.75967 0.82477 0.40497
 C2346 C 0.77464 0.78938 0.39664
 C2347 C 0.74026 0.77971 0.38047
 C2348 C 0.72524 0.81509 0.38914
 H2349 H 0.71356 0.73864 0.41452
 H2350 H 0.77688 0.75681 0.44424
 H2351 H 0.68634 0.80402 0.43097
 H2352 H 0.77300 0.84993 0.40131
 H2353 H 0.80071 0.78523 0.38689
 H2354 H 0.71005 0.83223 0.37313
 C2355 C 0.22921 0.25946 0.91261
 C2356 C 0.26383 0.27277 0.92657
 C2357 C 0.24618 0.30617 0.93704
 C2358 C 0.21142 0.29320 0.92379
 C2359 C 0.25437 0.32371 0.90506
 C2360 C 0.27219 0.29044 0.89474
 C2361 C 0.23770 0.27746 0.88084
 C2362 C 0.21987 0.31074 0.89153
 H2363 H 0.21866 0.23293 0.91566
 H2364 H 0.28215 0.25716 0.94101
 H2365 H 0.18629 0.29440 0.93597
 H2366 H 0.26474 0.35023 0.90136
 H2367 H 0.29769 0.28945 0.88315
 H2368 H 0.20160 0.32647 0.87715
 C2369 C 0.80954 0.42538 0.74931
 C2370 C 0.83135 0.43968 0.77702
 C2371 C 0.86221 0.44410 0.75461
 C2372 C 0.84081 0.43026 0.72700
 C2373 C 0.87437 0.40717 0.76328
 C2374 C 0.84344 0.40255 0.78567
 C2375 C 0.82195 0.38868 0.75819
 C2376 C 0.85281 0.39318 0.73573
 H2377 H 0.78254 0.43269 0.74384
 H2378 H 0.82254 0.45927 0.79391
 H2379 H 0.83988 0.44168 0.70285
 H2380 H 0.90128 0.39942 0.76870
 H2381 H 0.84456 0.39116 0.80983
 H2382 H 0.86182 0.37370 0.71882
 C2383 C 0.30650 0.93188 0.25158
 C2384 C 0.32870 0.94509 0.27947
 C2385 C 0.35871 0.95215 0.25656
 C2386 C 0.33688 0.93939 0.22874
 C2387 C 0.37232 0.91518 0.26283
 C2388 C 0.34230 0.90802 0.28574
 C2389 C 0.32039 0.89517 0.25810
 C2390 C 0.35034 0.90223 0.23509
 H2391 H 0.27911 0.93857 0.24721
 H2392 H 0.31974 0.96312 0.29769
 H2393 H 0.33480 0.95231 0.20527
 H2394 H 0.39962 0.90809 0.26715
 H2395 H 0.34462 0.89517 0.30923
 H2396 H 0.35942 0.88425 0.21687
 C2397 C 0.17238 0.91316 0.71331
 C2398 C 0.13228 0.91273 0.71378
 C2399 C 0.13269 0.93583 0.74307
 C2400 C 0.17235 0.93682 0.74255
 C2401 C 0.13361 0.90332 0.76476
 C2402 C 0.13332 0.88009 0.73559
 C2403 C 0.17294 0.88089 0.73527
 C2404 C 0.17321 0.90435 0.76433
 H2405 H 0.18839 0.91716 0.69199
 H2406 H 0.11528 0.91626 0.69287
 H2407 H 0.18850 0.96028 0.74552
 H2408 H 0.11853 0.89751 0.78629
 H2409 H 0.11700 0.85674 0.73281
 H2410 H 0.18994 0.90143 0.78550
 C2411 C 0.65369 0.39714 0.20921
 C2412 C 0.62509 0.40189 0.23408
 C2413 C 0.63986 0.43776 0.24200
 C2414 C 0.66819 0.43361 0.21711
 C2415 C 0.66339 0.42140 0.26746
 C2416 C 0.64866 0.38548 0.25960
 C2417 C 0.67714 0.38098 0.23490
 C2418 C 0.69192 0.41688 0.24270
 H2419 H 0.64973 0.38703 0.18515
 H2420 H 0.59740 0.39576 0.23059
 H2421 H 0.67619 0.45363 0.19958
 H2422 H 0.66741 0.43134 0.29157
 H2423 H 0.64047 0.36560 0.27721
 H2424 H 0.71959 0.42304 0.24623
 C2425 C 0.65794 0.60470 0.28290
 C2426 C 0.63051 0.59916 0.25686
 C2427 C 0.64337 0.56184 0.25242
 C2428 C 0.67070 0.56720 0.27850
 C2429 C 0.66885 0.57444 0.22715
 C2430 C 0.65617 0.61197 0.23160
 C2431 C 0.68346 0.61732 0.25772
 C2432 C 0.69651 0.58016 0.25316
 H2433 H 0.65338 0.61710 0.30585
 H2434 H 0.60314 0.60712 0.25806
 H2435 H 0.67678 0.54839 0.29776
 H2436 H 0.67328 0.56203 0.20417
 H2437 H 0.65003 0.63076 0.21234
 H2438 H 0.72393 0.57243 0.25194
 C2439 C 0.19540 0.07694 0.75501
 C2440 C 0.16913 0.06497 0.78032
 C2441 C 0.14203 0.05916 0.75411
 C2442 C 0.16797 0.07077 0.72884
 C2443 C 0.12953 0.09675 0.75754
 C2444 C 0.15669 0.10269 0.78373
 C2445 C 0.18266 0.11436 0.75860
 C2446 C 0.15566 0.10859 0.73231
 H2447 H 0.22275 0.06888 0.75428
 H2448 H 0.17480 0.04664 0.80007
 H2449 H 0.17253 0.05769 0.70622
 H2450 H 0.10223 0.10502 0.75827
 H2451 H 0.15196 0.11573 0.80635
 H2452 H 0.14997 0.12693 0.71257
 C2453 C 0.35030 0.11414 0.21000
 C2454 C 0.38264 0.11086 0.23170
 C2455 C 0.36794 0.07728 0.24648
 C2456 C 0.33600 0.07988 0.22480
 C2457 C 0.34952 0.09814 0.27182
 C2458 C 0.36415 0.13181 0.25716
 C2459 C 0.33204 0.13480 0.23569
 C2460 C 0.31752 0.10099 0.25028
 H2461 H 0.35063 0.12081 0.18448
 H2462 H 0.40968 0.11489 0.22418
 H2463 H 0.32435 0.05827 0.21155
 H2464 H 0.34891 0.09177 0.29740
 H2465 H 0.37598 0.15323 0.27056
 H2466 H 0.29054 0.09682 0.25795
 C2467 C 0.85398 0.62033 0.75352
 C2468 C 0.84313 0.58607 0.76971
 C2469 C 0.86225 0.56614 0.74420
 C2470 C 0.87316 0.60032 0.72792
 C2471 C 0.82927 0.56498 0.72380
 C2472 C 0.81002 0.58522 0.74945
 C2473 C 0.82080 0.61955 0.73332
 C2474 C 0.83979 0.59982 0.70751
 H2475 H 0.86438 0.64325 0.76581
 H2476 H 0.84432 0.58062 0.79545
 H2477 H 0.89936 0.60665 0.71927
 H2478 H 0.81914 0.54188 0.71164
 H2479 H 0.78386 0.57894 0.75826
 H2480 H 0.83831 0.60557 0.68183
 C2481 C 0.91822 0.71449 0.18779
 C2482 C 0.92991 0.74288 0.16455
 C2483 C 0.96514 0.74400 0.18141
 C2484 C 0.95368 0.71541 0.20462
 C2485 C 0.95246 0.77225 0.20335
 C2486 C 0.91731 0.77123 0.18633
 C2487 C 0.90546 0.74285 0.20942
 C2488 C 0.94018 0.74375 0.22693
 H2489 H 0.90357 0.69087 0.18152
 H2490 H 0.92504 0.74269 0.13877
 H2491 H 0.96930 0.69265 0.21185
 H2492 H 0.96710 0.79588 0.20956
 H2493 H 0.90227 0.79429 0.17874
 H2494 H 0.94342 0.74408 0.25291
 C2495 C 0.41505 0.27183 0.68738
 C2496 C 0.45035 0.27342 0.70412
 C2497 C 0.46317 0.24511 0.68231
 C2498 C 0.42782 0.24345 0.66571
 C2499 C 0.45221 0.21660 0.70581
 C2500 C 0.43856 0.24497 0.72801
 C2501 C 0.40371 0.24349 0.71076
 C2502 C 0.41665 0.21512 0.68923
 H2503 H 0.39967 0.29464 0.67975
 H2504 H 0.46477 0.29728 0.71004
 H2505 H 0.42274 0.24300 0.63997
 H2506 H 0.46812 0.19407 0.71311
 H2507 H 0.44203 0.24555 0.75396
 H2508 H 0.40226 0.19126 0.68320
 C2509 C 0.39066 0.77270 0.82430
 C2510 C 0.40975 0.74350 0.84204
 C2511 C 0.44369 0.75751 0.82849
 C2512 C 0.42474 0.78669 0.81074
 C2513 C 0.44050 0.73374 0.80005
 C2514 C 0.40596 0.71977 0.81342
 C2515 C 0.38706 0.74908 0.79584
 C2516 C 0.42088 0.76301 0.78198
 H2517 H 0.36976 0.78862 0.83416
 H2518 H 0.40558 0.73566 0.86701
 H2519 H 0.43283 0.81423 0.80978
 H2520 H 0.46166 0.71795 0.79049
 H2521 H 0.39769 0.69228 0.81416
 H2522 H 0.42481 0.77079 0.75698
 C2523 C 0.90726 0.21807 0.31542
 C2524 C 0.94104 0.23305 0.30131
 C2525 C 0.94293 0.25769 0.32719
 C2526 C 0.91173 0.24399 0.34232
 C2527 C 0.92423 0.28464 0.30947
 C2528 C 0.92008 0.25989 0.28167
 C2529 C 0.88680 0.24560 0.29669
 C2530 C 0.89050 0.27109 0.32396
 H2531 H 0.90080 0.19022 0.31819
 H2532 H 0.96335 0.21812 0.29281
 H2533 H 0.90975 0.23799 0.36794
 H2534 H 0.93263 0.31207 0.30768
 H2535 H 0.92423 0.26654 0.25644
 H2536 H 0.86991 0.28726 0.33403
 C2537 C 0.10495 0.21637 0.34032
 C2538 C 0.09566 0.24455 0.36422
 C2539 C 0.06116 0.24966 0.34708
 C2540 C 0.06969 0.22145 0.32351
 C2541 C 0.07658 0.27774 0.32548
 C2542 C 0.11132 0.27275 0.34254
 C2543 C 0.12018 0.24472 0.31888
 C2544 C 0.08566 0.24964 0.30171
 H2545 H 0.11740 0.19126 0.34605
 H2546 H 0.09899 0.24248 0.39017
 H2547 H 0.05208 0.20046 0.31601
 H2548 H 0.06433 0.30293 0.31962
 H2549 H 0.12863 0.29389 0.35032
 H2550 H 0.08229 0.25171 0.27576
 C2551 C 0.58168 0.74784 0.80458
 C2552 C 0.56902 0.71870 0.82716
 C2553 C 0.56097 0.74616 0.85152
 C2554 C 0.57313 0.77526 0.82918
 C2555 C 0.59700 0.74297 0.86623
 C2556 C 0.60566 0.71550 0.84152
 C2557 C 0.61768 0.74476 0.81933
 C2558 C 0.60949 0.77211 0.84372
 H2559 H 0.57613 0.74996 0.77894
 H2560 H 0.55202 0.69678 0.82074
 H2561 H 0.55906 0.79972 0.82441
 H2562 H 0.60251 0.74081 0.89188
 H2563 H 0.61985 0.69109 0.84620
 H2564 H 0.62649 0.79402 0.85020
 C2565 C 0.61562 0.25730 0.65744
 C2566 C 0.60848 0.22776 0.63438
 C2567 C 0.57248 0.22373 0.64854
 C2568 C 0.57950 0.25319 0.67159
 C2569 C 0.58522 0.19683 0.67279
 C2570 C 0.62188 0.20097 0.65887
 C2571 C 0.62857 0.23068 0.68165
 C2572 C 0.59277 0.22643 0.69601
 H2573 H 0.62853 0.28223 0.65160
 H2574 H 0.61443 0.22801 0.60884
 H2575 H 0.56173 0.27477 0.67657
 H2576 H 0.57219 0.17193 0.67846
 H2577 H 0.64004 0.17962 0.65423
 H2578 H 0.58711 0.22614 0.72160
 C2579 C 0.12405 0.70267 0.15982
 C2580 C 0.08724 0.69819 0.17334
 C2581 C 0.07447 0.72436 0.14845
 C2582 C 0.11062 0.72871 0.13471
 C2583 C 0.08063 0.75442 0.17109
 C2584 C 0.09395 0.72841 0.19613
 C2585 C 0.12988 0.73299 0.18214
 C2586 C 0.11687 0.75885 0.15731
 H2587 H 0.14264 0.68154 0.15579
 H2588 H 0.07455 0.67318 0.17928
 H2589 H 0.11698 0.72850 0.10927
 H2590 H 0.06250 0.77586 0.17550
 H2591 H 0.08791 0.72858 0.22164
 H2592 H 0.12942 0.78389 0.15119
   
