data_POSCAR
  _audit_creation_date              2014-09-24
  _audit_creation_method            'ToBaCCo'
  _symmetry_space_group_name_H-M    'P1'
  _symmetry_Int_Tables_number       1
  _symmetry_cell_setting            triclinic
  loop_
  _symmetry_equiv_pos_as_xyz
 x,y,z
_cell_length_a 69.4617
_cell_length_b 69.5495
_cell_length_c 69.4343
_cell_angle_alpha 89.981400
_cell_angle_beta 89.996400
_cell_angle_gamma 89.978200
loop_
  _atom_site_label
  _atom_site_type_symbol
  _atom_site_fract_x
  _atom_site_fract_y
  _atom_site_fract_z
N1 N 0.31361 0.43708 0.93538
 N2 N 0.43605 0.81542 0.43636
 N3 N 0.93215 0.93146 0.81769
 N4 N 0.43631 -0.06579 0.31337
 N5 N 0.81593 0.31406 0.31564
 N6 N -0.18523 0.81444 0.81586
 N7 N 0.93556 0.31723 0.43473
 N8 N 0.43554 0.43455 0.81442
 N9 N 0.81529 0.93472 0.93454
 N10 N 0.31574 0.81546 0.31540
 N11 N 0.81625 0.43505 0.43393
 N12 N 0.93455 0.81512 -0.06412
 N13 N 0.31401 0.31349 0.81298
 N14 N 0.18529 0.56746 0.56431
 N15 N 0.56300 0.68637 0.06434
 N16 N 0.68676 0.18568 0.68696
 N17 N 1.06335 0.06166 0.18747
 N18 N 0.06356 0.18581 1.06416
 N19 N 0.18483 0.68470 0.68515
 N20 N 1.18715 0.18594 0.18562
 N21 N 0.68521 1.06596 0.56458
 N22 N 0.56276 0.56157 0.18723
 N23 N 0.68651 0.68468 0.18702
 N24 N 0.18653 0.06492 1.06213
 N25 N 0.56580 0.18587 0.56492
 N26 N 0.06451 0.56330 0.68560
 N27 N 0.68573 0.56433 0.06328
 N28 N 0.06402 0.68776 0.56413
 N29 N 0.56424 1.06405 0.68449
 N30 N 0.43364 0.31656 0.93412
 N31 N 0.93412 0.43246 0.31567
 N32 N 0.31424 0.93785 0.43459
 O33 O 0.30232 0.49835 0.77222
 O34 O 0.29514 0.53217 0.77056
 O35 O 0.25225 0.47546 0.79957
 O36 O 0.22041 0.47523 0.79425
 O37 O 0.27559 0.44829 0.74902
 O38 O 0.27389 0.45543 0.71521
 O39 O 0.20051 0.52388 0.74630
 O40 O 0.20617 0.52088 0.78016
 O41 O 0.24914 0.54970 0.72322
 O42 O 0.28426 0.54279 0.72475
 O43 O 0.22525 0.50179 0.69826
 O44 O 0.23101 0.46641 0.70431
 O45 O 0.20034 0.50049 0.72341
 O46 O 0.20708 0.46610 0.72588
 O47 O 0.24895 0.52424 0.69769
 O48 O 0.28408 0.52213 0.70425
 O49 O 0.22586 0.54962 0.74619
 O50 O 0.22819 0.54365 0.78082
 O51 O 0.30227 0.47524 0.74906
 O52 O 0.29499 0.47698 0.71510
 O53 O 0.25286 0.44830 0.77258
 O54 O 0.21836 0.45543 0.76966
 O55 O 0.27553 0.49844 0.79922
 O56 O 0.27378 0.53218 0.79204
 Zr57 Zr 0.27434 0.51000 0.77125
 O58 O 0.25728 0.52840 0.75428
 Zr59 Zr 0.24072 0.47606 0.77154
 O60 O 0.22210 0.49308 0.75468
 Zr61 Zr 0.27431 0.47620 0.73743
 O62 O 0.25711 0.49305 0.71900
 Zr63 Zr 0.22802 0.52231 0.75899
 O64 O 0.24506 0.50542 0.77781
 Zr65 Zr 0.26176 0.52227 0.72502
 O66 O 0.28068 0.50544 0.74195
 Zr67 Zr 0.22795 0.48836 0.72532
 O68 O 0.24511 0.46966 0.74224
 O69 O 0.26976 0.48088 0.76661
 O70 O 0.23257 0.51758 0.72979
 C71 C 0.31053 0.48484 0.76257
 C72 C 0.26584 0.48511 0.80765
 C73 C 0.26621 0.44008 0.76272
 C74 C 0.19238 0.51443 0.73259
 C75 C 0.23519 0.55767 0.73238
 C76 C 0.23464 0.51542 0.69001
 H77 H 0.26047 0.54190 0.75731
 H78 H 0.25993 0.48977 0.70543
 H79 H 0.27804 0.47274 0.77487
 H80 H 0.20857 0.49018 0.75800
 H81 H 0.21200 0.51483 0.79168
 H82 H 0.20906 0.48275 0.79011
 H83 H 0.28217 0.51081 0.69586
 H84 H 0.30139 0.48967 0.71594
 H85 H 0.23994 0.55152 0.77927
 H86 H 0.26098 0.53157 0.79828
 H87 H 0.22112 0.46832 0.69418
 H88 H 0.26117 0.44905 0.71588
 H89 H 0.30135 0.53149 0.75775
 H90 H 0.28261 0.55122 0.73610
 H91 H 0.22040 0.44818 0.75756
 H92 H 0.19916 0.46770 0.73760
 O93 O 0.20057 0.02396 0.24594
 O94 O 0.20760 0.02245 0.27977
 O95 O 0.25121 0.05097 0.22332
 O96 O 0.28300 0.04538 0.22351
 O97 O 0.22756 0.00105 0.19577
 O98 O 0.22904 -0.03283 0.20273
 O99 O 0.30193 -0.00294 0.27218
 O100 O 0.29667 0.03101 0.26915
 O101 O 0.25285 -0.02543 0.29755
 O102 O 0.21781 -0.02358 0.29023
 O103 O 0.27697 -0.05048 0.24960
 O104 O 0.27154 -0.04425 0.21415
 O105 O 0.30210 -0.02567 0.24863
 O106 O 0.29572 -0.02297 0.21413
 O107 O 0.25312 -0.05088 0.27194
 O108 O 0.21805 -0.04400 0.26952
 O109 O 0.27630 -0.00269 0.29775
 O110 O 0.27454 0.03177 0.29187
 O111 O 0.20061 0.00094 0.22269
 O112 O 0.20770 -0.03292 0.22406
 O113 O 0.25060 0.02425 0.19614
 O114 O 0.28499 0.02087 0.20353
 O115 O 0.22763 0.05084 0.24604
 O116 O 0.22913 0.04364 0.27989
 Zr117 Zr 0.22852 0.02288 0.25767
 O118 O 0.24523 0.00568 0.27618
 Zr119 Zr 0.26247 0.02291 0.22401
 O120 O 0.28076 0.00583 0.24114
 Zr121 Zr 0.22854 -0.01077 0.22367
 O122 O 0.24538 -0.02942 0.24066
 Zr123 Zr 0.27460 0.01010 0.27038
 O124 O 0.25791 0.02914 0.25338
 Zr125 Zr 0.24054 -0.02347 0.26992
 O126 O 0.22196 -0.00631 0.25294
 Zr127 Zr 0.27464 -0.02339 0.23624
 O128 O 0.25785 -0.00625 0.21742
 O129 O 0.23331 0.01829 0.22853
 O130 O 0.26982 -0.01899 0.26550
 C131 C 0.19235 0.01434 0.23242
 C132 C 0.23755 0.05915 0.23279
 C133 C 0.23718 0.01467 0.18773
 C134 C 0.31001 -0.01668 0.26273
 C135 C 0.26675 -0.01637 0.30571
 C136 C 0.26743 -0.05866 0.26317
 H137 H 0.24194 0.00870 0.28969
 H138 H 0.24246 -0.04293 0.23731
 H139 H 0.22512 0.02661 0.22037
 H140 H 0.29435 0.00900 0.23837
 H141 H 0.29098 0.04261 0.26315
 H142 H 0.29429 0.04104 0.23103
 H143 H 0.22006 -0.05244 0.25823
 H144 H 0.20134 -0.03229 0.23681
 H145 H 0.26248 0.03064 0.29934
 H146 H 0.24195 0.04983 0.27928
 H147 H 0.28133 -0.05447 0.21609
 H148 H 0.24178 -0.03212 0.19638
 H149 H 0.20135 0.00967 0.27916
 H150 H 0.21953 -0.01235 0.29879
 H151 H 0.28287 0.00886 0.19619
 H152 H 0.30376 -0.01137 0.21586
 O153 O 0.50140 0.69636 0.22782
 O154 O 0.46760 0.70356 0.22933
 O155 O 0.52441 0.74646 0.20052
 O156 O 0.52472 0.77821 0.20587
 O157 O 0.55155 0.72302 0.25105
 O158 O 0.54436 0.72472 0.28486
 O159 O 0.47587 0.79804 0.25362
 O160 O 0.47892 0.79238 0.21979
 O161 O 0.44998 0.74958 0.27677
 O162 O 0.45683 0.71445 0.27518
 O163 O 0.49796 0.77328 0.30179
 O164 O 0.53336 0.76759 0.29575
 O165 O 0.49921 0.79822 0.27660
 O166 O 0.53367 0.79150 0.27420
 O167 O 0.47545 0.74963 0.30232
 O168 O 0.47752 0.71456 0.29570
 O169 O 0.45013 0.77280 0.25377
 O170 O 0.45613 0.77036 0.21910
 O171 O 0.52451 0.69637 0.25102
 O172 O 0.52276 0.70367 0.28496
 O173 O 0.55156 0.74576 0.22753
 O174 O 0.54444 0.78023 0.23051
 O175 O 0.50142 0.72320 0.20077
 O176 O 0.46761 0.72492 0.20791
 Zr177 Zr 0.48980 0.72433 0.22873
 O178 O 0.47134 0.74136 0.24568
 Zr179 Zr 0.52379 0.75791 0.22855
 O180 O 0.50672 0.77649 0.24536
 Zr181 Zr 0.52358 0.72432 0.26262
 O182 O 0.50668 0.74151 0.28102
 Zr183 Zr 0.47746 0.77057 0.24098
 O184 O 0.49442 0.75357 0.22220
 Zr185 Zr 0.47743 0.73689 0.27496
 O186 O 0.49430 0.71799 0.25805
 Zr187 Zr 0.51140 0.77064 0.27473
 O188 O 0.53015 0.75349 0.25785
 O189 O 0.51895 0.72888 0.23343
 O190 O 0.48214 0.76604 0.27020
 C191 C 0.51487 0.68813 0.23752
 C192 C 0.51477 0.73292 0.19239
 C193 C 0.55978 0.73240 0.23738
 C194 C 0.48529 0.80617 0.26735
 C195 C 0.44205 0.76354 0.26759
 C196 C 0.48432 0.76389 0.31003
 H197 H 0.45783 0.73818 0.24264
 H198 H 0.50995 0.73868 0.29460
 H199 H 0.52709 0.72060 0.22519
 H200 H 0.50962 0.79000 0.24204
 H201 H 0.48500 0.78655 0.20829
 H202 H 0.51712 0.78952 0.20997
 H203 H 0.48885 0.71644 0.30411
 H204 H 0.51006 0.69729 0.28411
 H205 H 0.44815 0.75872 0.22074
 H206 H 0.46823 0.73772 0.20169
 H207 H 0.53145 0.77747 0.30588
 H208 H 0.55074 0.73743 0.28421
 H209 H 0.46814 0.69744 0.24219
 H210 H 0.44836 0.71618 0.26386
 H211 H 0.55170 0.77815 0.24261
 H212 H 0.53207 0.79943 0.26249
 O213 O 0.05083 0.72362 0.75049
 O214 O 0.04373 0.72512 0.78433
 O215 O 0.00073 0.69650 0.72748
 O216 O -0.03114 0.70181 0.72748
 O217 O 0.02399 0.74694 0.70036
 O218 O 0.02244 0.78065 0.70759
 O219 O -0.05077 0.74965 0.77642
 O220 O -0.04528 0.71586 0.77327
 O221 O -0.00215 0.77257 0.80206
 O222 O 0.03301 0.77090 0.79506
 O223 O -0.02607 0.79760 0.75417
 O224 O -0.02051 0.79161 0.71874
 O225 O -0.05103 0.77257 0.75304
 O226 O -0.04443 0.77007 0.71847
 O227 O -0.00232 0.79805 0.77662
 O228 O 0.03279 0.79144 0.77440
 O229 O -0.02546 0.74968 0.80199
 O230 O -0.02303 0.71499 0.79593
 O231 O 0.05081 0.74675 0.72733
 O232 O 0.04356 0.78069 0.72915
 O233 O 0.00120 0.72349 0.70040
 O234 O -0.03327 0.72645 0.70769
 O235 O 0.02404 0.69672 0.75047
 O236 O 0.02229 0.70376 0.78434
 Zr237 Zr 0.02288 0.72459 0.76217
 O238 O 0.00594 0.74154 0.78068
 Zr239 Zr -0.01083 0.72447 0.72825
 O240 O -0.02937 0.74128 0.74540
 Zr241 Zr 0.02285 0.75843 0.72836
 O242 O 0.00571 0.77683 0.74531
 Zr243 Zr -0.02334 0.73689 0.77465
 O244 O -0.00641 0.71810 0.75763
 Zr245 Zr 0.01044 0.77075 0.77456
 O246 O 0.02928 0.75384 0.75763
 Zr247 Zr -0.02349 0.77059 0.74070
 O248 O -0.00639 0.75372 0.72189
 O249 O 0.01824 0.72931 0.73301
 O250 O -0.01876 0.76604 0.76994
 C251 C 0.05905 0.73325 0.73697
 C252 C 0.01437 0.68840 0.73706
 C253 C 0.01454 0.73332 0.69214
 C254 C -0.05891 0.76341 0.76706
 C255 C -0.01615 0.76347 0.81003
 C256 C -0.01664 0.80577 0.76783
 H257 H 0.00916 0.73849 0.79420
 H258 H 0.00854 0.79038 0.74204
 H259 H 0.02650 0.72110 0.72482
 H260 H -0.04291 0.73801 0.74255
 H261 H -0.03953 0.70435 0.76715
 H262 H -0.04247 0.70596 0.73502
 H263 H 0.03086 0.79985 0.76307
 H264 H 0.05001 0.77979 0.74184
 H265 H -0.01142 0.71669 0.80398
 H266 H 0.00949 0.69755 0.78369
 H267 H -0.03042 0.80170 0.72068
 H268 H 0.00966 0.78010 0.70130
 H269 H 0.04990 0.73793 0.78377
 H270 H 0.03126 0.75964 0.80359
 H271 H -0.03125 0.73855 0.70046
 H272 H -0.05249 0.75848 0.72021
 O273 O 0.00120 0.05120 0.02449
 O274 O -0.03267 0.04406 0.02302
 O275 O 0.02414 0.00103 0.05174
 O276 O 0.02431 -0.03075 0.04636
 O277 O 0.05124 0.02441 0.00118
 O278 O 0.04397 0.02268 -0.03266
 O279 O -0.02461 -0.05039 -0.00146
 O280 O -0.02139 -0.04484 0.03245
 O281 O -0.05045 -0.00183 -0.02434
 O282 O -0.04347 0.03333 -0.02266
 O283 O -0.00265 -0.02568 -0.04949
 O284 O 0.03282 -0.01996 -0.04362
 O285 O -0.00125 -0.05056 -0.02442
 O286 O 0.03321 -0.04392 -0.02209
 O287 O -0.02510 -0.00197 -0.04991
 O288 O -0.02294 0.03309 -0.04335
 O289 O -0.05028 -0.02511 -0.00140
 O290 O -0.04421 -0.02280 0.03323
 O291 O 0.02424 0.05112 0.00122
 O292 O 0.02250 0.04387 -0.03267
 O293 O 0.05124 0.00165 0.02468
 O294 O 0.04407 -0.03277 0.02170
 O295 O 0.00119 0.02435 0.05153
 O296 O -0.03260 0.02275 0.04450
 Zr297 Zr -0.01048 0.02325 0.02359
 O298 O -0.02900 0.00627 0.00669
 Zr299 Zr 0.02344 -0.01042 0.02369
 O300 O 0.00633 -0.02895 0.00687
 Zr301 Zr 0.02325 0.02319 -0.01036
 O302 O 0.00626 0.00610 -0.02875
 Zr303 Zr -0.02291 -0.02298 0.01132
 O304 O -0.00592 -0.00601 0.03010
 Zr305 Zr -0.02298 0.01079 -0.02258
 O306 O -0.00601 0.02961 -0.00572
 Zr307 Zr 0.01095 -0.02304 -0.02250
 O308 O 0.02977 -0.00600 -0.00562
 O309 O 0.01866 0.01862 0.01883
 O310 O -0.01828 -0.01837 -0.01788
 C311 C 0.01466 0.05939 0.01474
 C312 C 0.01453 0.01460 0.05988
 C313 C 0.05947 0.01499 0.01483
 C314 C -0.01522 -0.05849 -0.01524
 C315 C -0.05838 -0.01581 -0.01519
 C316 C -0.01635 -0.01629 -0.05763
 H317 H -0.04251 0.00947 0.00978
 H318 H 0.00948 0.00894 -0.04233
 H319 H 0.02683 0.02688 0.02707
 H320 H 0.00922 -0.04247 0.01014
 H321 H -0.01533 -0.03902 0.04398
 H322 H 0.01678 -0.04208 0.04221
 H323 H -0.01163 0.03119 -0.05179
 H324 H 0.00975 0.05020 -0.03189
 H325 H -0.05212 -0.01108 0.03171
 H326 H -0.03205 0.00992 0.05064
 H327 H 0.03085 -0.02982 -0.05375
 H328 H 0.05042 0.01001 -0.03193
 H329 H -0.03207 0.05025 0.01020
 H330 H -0.05201 0.03153 -0.01140
 H331 H 0.05128 -0.03073 0.00957
 H332 H 0.03165 -0.05186 -0.01038
 O333 O 0.05169 0.52725 0.49911
 O334 O 0.04459 0.52565 0.46531
 O335 O 0.00142 0.55410 0.52213
 O336 O -0.03041 0.54860 0.52216
 O337 O 0.02504 0.50388 0.54936
 O338 O 0.02378 0.47016 0.54223
 O339 O -0.04972 0.50054 0.47335
 O340 O -0.04446 0.53433 0.47634
 O341 O -0.00104 0.47770 0.44781
 O342 O 0.03413 0.47970 0.45465
 O343 O -0.02462 0.45273 0.49579
 O344 O -0.01919 0.45894 0.53119
 O345 O -0.04982 0.47765 0.49675
 O346 O -0.04327 0.48031 0.53132
 O347 O -0.00086 0.45235 0.47335
 O348 O 0.03420 0.45931 0.47547
 O349 O -0.02449 0.50047 0.44780
 O350 O -0.02216 0.53528 0.45372
 O351 O 0.05185 0.50421 0.52236
 O352 O 0.04484 0.47019 0.52061
 O353 O 0.00207 0.52717 0.54927
 O354 O -0.03238 0.52399 0.54199
 O355 O 0.02472 0.55399 0.49913
 O356 O 0.02294 0.54683 0.46525
 Zr357 Zr 0.02374 0.52608 0.48748
 O358 O 0.00692 0.50894 0.46902
 Zr359 Zr -0.00995 0.52606 0.52143
 O360 O -0.02837 0.50909 0.50433
 Zr361 Zr 0.02398 0.49232 0.52138
 O362 O 0.00695 0.47377 0.50451
 Zr363 Zr -0.02237 0.51343 0.47506
 O364 O -0.00559 0.53238 0.49203
 Zr365 Zr 0.01164 0.47978 0.47524
 O366 O 0.03036 0.49688 0.49209
 Zr367 Zr -0.02229 0.47983 0.50912
 O368 O -0.00530 0.49685 0.52786
 O369 O 0.01916 0.52140 0.51665
 O370 O -0.01759 0.48432 0.47986
 C371 C 0.05998 0.51773 0.51266
 C372 C 0.01500 0.56227 0.51254
 C373 C 0.01548 0.51744 0.55755
 C374 C -0.05777 0.48674 0.48272
 C375 C -0.01514 0.48665 0.43984
 C376 C -0.01509 0.44455 0.48220
 H377 H 0.01011 0.51196 0.45549
 H378 H 0.00989 0.46025 0.50783
 H379 H 0.02736 0.52968 0.52483
 H380 H -0.04194 0.51230 0.50717
 H381 H -0.03880 0.54589 0.48244
 H382 H -0.04170 0.54438 0.51458
 H383 H 0.03235 0.45091 0.48682
 H384 H 0.05134 0.47116 0.50796
 H385 H -0.01066 0.53347 0.44553
 H386 H 0.01010 0.55296 0.46590
 H387 H -0.02902 0.44877 0.52928
 H388 H 0.01098 0.47059 0.54848
 H389 H 0.05076 0.51283 0.46582
 H390 H 0.03226 0.49090 0.44607
 H391 H -0.03028 0.51192 0.54924
 H392 H -0.05141 0.49183 0.52953
 O393 O 0.44941 0.00102 0.47302
 O394 O 0.45656 0.03473 0.47437
 O395 O 0.49973 -0.02221 0.44629
 O396 O 0.53155 -0.02218 0.45181
 O397 O 0.47603 -0.04908 0.49664
 O398 O 0.47732 -0.04179 0.53041
 O399 O 0.55083 0.02675 0.49966
 O400 O 0.54557 0.02354 0.46582
 O401 O 0.50217 0.05248 0.52231
 O402 O 0.46700 0.04561 0.52041
 O403 O 0.52567 0.00457 0.54771
 O404 O 0.52026 -0.03077 0.54160
 O405 O 0.55092 0.00353 0.52274
 O406 O 0.54439 -0.03097 0.52028
 O407 O 0.50197 0.02705 0.54796
 O408 O 0.46694 0.02499 0.54096
 O409 O 0.52557 0.05231 0.49947
 O410 O 0.52338 0.04620 0.46477
 O411 O 0.44921 -0.02206 0.49623
 O412 O 0.45625 -0.02022 0.53027
 O413 O 0.49904 -0.04910 0.47336
 O414 O 0.53348 -0.04188 0.47658
 O415 O 0.47639 0.00073 0.44624
 O416 O 0.47823 0.03463 0.45319
 Zr417 Zr 0.47739 0.01257 0.47412
 O418 O 0.49420 0.03107 0.49119
 Zr419 Zr 0.51107 -0.02133 0.47436
 O420 O 0.52949 -0.00420 0.49128
 Zr421 Zr 0.47711 -0.02109 0.50812
 O422 O 0.49414 -0.00415 0.52662
 Zr423 Zr 0.52350 0.02499 0.48675
 O424 O 0.50672 0.00797 0.46785
 Zr425 Zr 0.48950 0.02505 0.52045
 O426 O 0.47077 0.00814 0.50340
 Zr427 Zr 0.52339 -0.00881 0.52060
 O428 O 0.50639 -0.02760 0.50364
 O429 O 0.48195 -0.01653 0.47898
 O430 O 0.51873 0.02039 0.51595
 C431 C 0.44108 -0.01241 0.48266
 C432 C 0.48613 -0.01272 0.43805
 C433 C 0.48561 -0.05732 0.48310
 C434 C 0.55888 0.01747 0.51353
 C435 C 0.51621 0.06039 0.51322
 C436 C 0.51613 0.01816 0.55585
 H437 H 0.49102 0.04456 0.48808
 H438 H 0.49119 -0.00740 0.54017
 H439 H 0.47374 -0.02472 0.47073
 H440 H 0.54306 -0.00706 0.48809
 H441 H 0.53989 0.01741 0.45427
 H442 H 0.54287 -0.01467 0.45604
 H443 H 0.46873 0.01366 0.54938
 H444 H 0.44980 -0.00757 0.52928
 H445 H 0.51171 0.05419 0.46631
 H446 H 0.49103 0.03384 0.44698
 H447 H 0.53006 -0.02884 0.55181
 H448 H 0.49009 -0.04809 0.52998
 H449 H 0.45041 0.03434 0.48722
 H450 H 0.46885 0.05409 0.50912
 H451 H 0.53136 -0.04905 0.48872
 H452 H 0.55251 -0.02927 0.50871
 O453 O 0.55050 0.52569 0.00022
 O454 O 0.54321 0.52405 -0.03357
 O455 O 0.50022 0.55242 0.02343
 O456 O 0.46840 0.54681 0.02355
 O457 O 0.52410 0.50230 0.05062
 O458 O 0.52288 0.46854 0.04348
 O459 O 0.44898 0.49869 -0.02500
 O460 O 0.45423 0.53254 -0.02203
 O461 O 0.49779 0.47617 -0.05093
 O462 O 0.53298 0.47819 -0.04404
 O463 O 0.47434 0.45097 -0.00287
 O464 O 0.48005 0.45710 0.03253
 O465 O 0.44910 0.47582 -0.00158
 O466 O 0.45590 0.47838 0.03290
 O467 O 0.49800 0.45070 -0.02542
 O468 O 0.53300 0.45762 -0.02343
 O469 O 0.47424 0.49883 -0.05080
 O470 O 0.47622 0.53344 -0.04489
 O471 O 0.55084 0.50263 0.02345
 O472 O 0.54392 0.46865 0.02185
 O473 O 0.50104 0.52551 0.05058
 O474 O 0.46663 0.52224 0.04349
 O475 O 0.52343 0.55235 0.00034
 O476 O 0.52159 0.54522 -0.03348
 Zr477 Zr 0.52249 0.52444 -0.01127
 O478 O 0.50562 0.50729 -0.02965
 Zr479 Zr 0.48894 0.52434 0.02279
 O480 O 0.47050 0.50728 0.00581
 Zr481 Zr 0.52298 0.49071 0.02264
 O482 O 0.50596 0.47209 0.00581
 Zr483 Zr 0.47633 0.51166 -0.02348
 O484 O 0.49316 0.53066 -0.00662
 Zr485 Zr 0.51047 0.47814 -0.02348
 O486 O 0.52921 0.49527 -0.00668
 Zr487 Zr 0.47672 0.47804 0.01055
 O488 O 0.49371 0.49515 0.02922
 O489 O 0.51805 0.51977 0.01792
 O490 O 0.48123 0.48256 -0.01874
 C491 C 0.55890 0.51615 0.01370
 C492 C 0.51372 0.56062 0.01376
 C493 C 0.51449 0.51583 0.05884
 C494 C 0.44102 0.48492 -0.01552
 C495 C 0.48370 0.48515 -0.05887
 C496 C 0.48380 0.44286 -0.01655
 H497 H 0.50875 0.51034 -0.04319
 H498 H 0.50895 0.45858 0.00910
 H499 H 0.52627 0.52808 0.02606
 H500 H 0.45694 0.51044 0.00874
 H501 H 0.45993 0.54412 -0.01601
 H502 H 0.45705 0.54249 0.01613
 H503 H 0.53127 0.44929 -0.01201
 H504 H 0.55024 0.46951 0.00910
 H505 H 0.48796 0.53202 -0.05281
 H506 H 0.50873 0.55132 -0.03279
 H507 H 0.47026 0.44688 0.03066
 H508 H 0.51013 0.46900 0.04983
 H509 H 0.54953 0.51131 -0.03299
 H510 H 0.53104 0.48936 -0.05264
 H511 H 0.46877 0.51015 0.05071
 H512 H 0.44777 0.48993 0.03125
 O513 O 0.75244 0.27585 0.45087
 O514 O 0.71862 0.27428 0.45818
 O515 O 0.77559 0.30268 0.50116
 O516 O 0.77549 0.29714 0.53306
 O517 O 0.80275 0.25274 0.47734
 O518 O 0.79573 0.21885 0.47885
 O519 O 0.72708 0.24891 0.55245
 O520 O 0.73013 0.28284 0.54717
 O521 O 0.70124 0.22644 0.50365
 O522 O 0.70817 0.22839 0.46847
 O523 O 0.74935 0.20125 0.52717
 O524 O 0.78476 0.20749 0.52146
 O525 O 0.75055 0.22609 0.55238
 O526 O 0.78496 0.22866 0.54571
 O527 O 0.72682 0.20094 0.50350
 O528 O 0.72881 0.20788 0.46847
 O529 O 0.70132 0.24916 0.52713
 O530 O 0.70718 0.28364 0.52525
 O531 O 0.77566 0.25280 0.45065
 O532 O 0.77420 0.21888 0.45766
 O533 O 0.80263 0.27593 0.50041
 O534 O 0.79558 0.27259 0.53485
 O535 O 0.75262 0.30260 0.47783
 O536 O 0.71875 0.29553 0.47975
 Zr537 Zr 0.74091 0.27470 0.47890
 O538 O 0.72254 0.25755 0.49579
 Zr539 Zr 0.77488 0.27465 0.51254
 O540 O 0.75792 0.25758 0.53098
 Zr541 Zr 0.77485 0.24097 0.47856
 O542 O 0.75799 0.22236 0.49556
 Zr543 Zr 0.72864 0.26193 0.52511
 O544 O 0.74549 0.28095 0.50825
 Zr545 Zr 0.72871 0.22839 0.49100
 O546 O 0.74554 0.24551 0.47226
 Zr547 Zr 0.76270 0.22834 0.52479
 O548 O 0.78138 0.24547 0.50783
 O549 O 0.77007 0.27003 0.48342
 O550 O 0.73342 0.23283 0.52025
 C551 C 0.76593 0.26629 0.44252
 C552 C 0.76605 0.31085 0.48754
 C553 C 0.81088 0.26636 0.48688
 C554 C 0.73656 0.23514 0.56043
 C555 C 0.69326 0.23547 0.51768
 C556 C 0.73572 0.19310 0.51769
 H557 H 0.70901 0.26059 0.49264
 H558 H 0.76130 0.20885 0.49258
 H559 H 0.77818 0.27832 0.47517
 H560 H 0.76082 0.26073 0.54455
 H561 H 0.73607 0.29444 0.54141
 H562 H 0.76821 0.29274 0.54448
 H563 H 0.74020 0.19953 0.47023
 H564 H 0.76144 0.21964 0.45136
 H565 H 0.69957 0.28250 0.51328
 H566 H 0.71952 0.30172 0.49257
 H567 H 0.78288 0.19722 0.53120
 H568 H 0.80224 0.21956 0.49151
 H569 H 0.71922 0.26153 0.45186
 H570 H 0.69960 0.23959 0.47035
 H571 H 0.80283 0.26052 0.53271
 H572 H 0.78338 0.24031 0.55371
 O573 O 0.75004 0.77533 -0.04978
 O574 O 0.71621 0.77362 -0.04262
 O575 O 0.77296 0.80259 0.00030
 O576 O 0.77284 0.79733 0.03222
 O577 O 0.80032 0.75242 -0.02297
 O578 O 0.79331 0.71858 -0.02132
 O579 O 0.72443 0.74916 0.05193
 O580 O 0.72741 0.78301 0.04638
 O581 O 0.69879 0.72616 0.00330
 O582 O 0.70577 0.72778 -0.03186
 O583 O 0.74703 0.70127 0.02707
 O584 O 0.78240 0.70768 0.02153
 O585 O 0.74793 0.72638 0.05214
 O586 O 0.78237 0.72903 0.04558
 O587 O 0.72454 0.70067 0.00336
 O588 O 0.72648 0.70738 -0.03166
 O589 O 0.69876 0.74913 0.02655
 O590 O 0.70459 0.78363 0.02433
 O591 O 0.77335 0.75236 -0.04976
 O592 O 0.77179 0.71844 -0.04252
 O593 O 0.80010 0.77584 -0.00013
 O594 O 0.79293 0.77283 0.03431
 O595 O 0.74998 0.80222 -0.02303
 O596 O 0.71614 0.79502 -0.02119
 Zr597 Zr 0.73840 0.77430 -0.02180
 O598 O 0.72003 0.75725 -0.00481
 Zr599 Zr 0.77231 0.77465 0.01191
 O600 O 0.75533 0.75771 0.03047
 Zr601 Zr 0.77241 0.74068 -0.02178
 O602 O 0.75558 0.72218 -0.00463
 Zr603 Zr 0.72606 0.76193 0.02448
 O604 O 0.74290 0.78083 0.00750
 Zr605 Zr 0.72629 0.72806 -0.00930
 O606 O 0.74311 0.74507 -0.02818
 Zr607 Zr 0.76020 0.72843 0.02457
 O608 O 0.77887 0.74544 0.00747
 O609 O 0.76756 0.76976 -0.01717
 O610 O 0.73091 0.73278 0.01991
 C611 C 0.76362 0.76579 -0.05800
 C612 C 0.76338 0.81061 -0.01338
 C613 C 0.80842 0.76612 -0.01352
 C614 C 0.73390 0.73548 0.06007
 C615 C 0.69075 0.73534 0.01722
 C616 C 0.73351 0.69296 0.01758
 H617 H 0.70650 0.76023 -0.00802
 H618 H 0.75895 0.70866 -0.00748
 H619 H 0.77569 0.77802 -0.02545
 H620 H 0.75817 0.76100 0.04402
 H621 H 0.73338 0.79457 0.04056
 H622 H 0.76551 0.79304 0.04365
 H623 H 0.73799 0.69918 -0.02991
 H624 H 0.75909 0.71923 -0.04894
 H625 H 0.69690 0.78226 0.01243
 H626 H 0.71685 0.80134 -0.00844
 H627 H 0.78053 0.69748 0.03135
 H628 H 0.79974 0.71932 -0.00863
 H629 H 0.71688 0.76082 -0.04881
 H630 H 0.69723 0.73903 -0.03015
 H631 H 0.80019 0.76074 0.03232
 H632 H 0.78069 0.74072 0.05351
 O633 O 1.00215 0.19668 0.22744
 O634 O 0.96833 0.20373 0.22907
 O635 O 1.02475 0.24685 0.19984
 O636 O 1.02488 0.27862 0.20508
 O637 O 1.05231 0.22370 0.25025
 O638 O 1.04535 0.22546 0.28409
 O639 O 0.97611 0.29823 0.25324
 O640 O 0.97909 0.29263 0.21936
 O641 O 0.95075 0.24969 0.27652
 O642 O 0.95784 0.21462 0.27502
 O643 O 0.99874 0.27383 0.30116
 O644 O 1.03412 0.26829 0.29497
 O645 O 0.99965 0.29862 0.27601
 O646 O 1.03421 0.29211 0.27326
 O647 O 0.97634 0.25008 0.30189
 O648 O 0.97865 0.21495 0.29541
 O649 O 0.95059 0.27284 0.25344
 O650 O 0.95646 0.27041 0.21875
 O651 O 1.02540 0.19689 0.25049
 O652 O 1.02387 0.20430 0.28441
 O653 O 1.05206 0.24638 0.22668
 O654 O 1.04472 0.28084 0.22963
 O655 O 1.00192 0.22343 0.20030
 O656 O 0.96812 0.22504 0.20761
 Zr657 Zr 0.99042 0.22461 0.22832
 O658 O 0.97197 0.24156 0.24535
 Zr659 Zr 1.02422 0.25838 0.22784
 O660 O 1.00713 0.27691 0.24470
 Zr661 Zr 1.02441 0.22487 0.26200
 O662 O 1.00754 0.24201 0.28046
 Zr663 Zr 0.97788 0.27080 0.24053
 O664 O 0.99482 0.25386 0.22168
 Zr665 Zr 0.97828 0.23719 0.27459
 O666 O 0.99515 0.21836 0.25762
 Zr667 Zr 1.01204 0.27115 0.27405
 O668 O 1.03078 0.25407 0.25711
 O669 O 1.01958 0.22933 0.23283
 O670 O 0.98279 0.26635 0.26971
 C671 C 1.01570 0.18855 0.23710
 C672 C 1.01516 0.23320 0.19182
 C673 C 1.06041 0.23310 0.23650
 C674 C 0.98554 0.30643 0.26693
 C675 C 0.94266 0.26356 0.26734
 C676 C 0.98516 0.26444 0.30948
 H677 H 0.95846 0.23829 0.24239
 H678 H 1.01090 0.23924 0.29403
 H679 H 1.02771 0.22107 0.22456
 H680 H 1.00992 0.29044 0.24135
 H681 H 0.98514 0.28685 0.20781
 H682 H 1.01725 0.28990 0.20920
 H683 H 0.98996 0.21701 0.30382
 H684 H 1.01118 0.19788 0.28370
 H685 H 0.94858 0.25870 0.22043
 H686 H 0.96868 0.23780 0.20132
 H687 H 1.03224 0.27824 0.30504
 H688 H 1.05163 0.23821 0.28338
 H689 H 0.96896 0.19765 0.24195
 H690 H 0.94929 0.21624 0.26374
 H691 H 1.05208 0.27882 0.24167
 H692 H 1.03236 0.30012 0.26165
 O693 O 0.74785 1.04988 0.72497
 O694 O 0.78174 1.04296 0.72627
 O695 O 0.72518 0.99951 0.69781
 O696 O 0.72561 0.96764 0.70321
 O697 O 0.69798 1.02268 0.74815
 O698 O 0.70522 1.02093 0.78207
 O699 O 0.77461 0.94857 0.75096
 O700 O 0.77126 0.95406 0.71707
 O701 O 0.79990 0.99723 0.77388
 O702 O 0.79266 1.03248 0.77187
 O703 O 0.75238 0.97330 0.79914
 O704 O 0.71680 0.97852 0.79307
 O705 O 0.75139 0.94819 0.77406
 O706 O 0.71690 0.95436 0.77183
 O707 O 0.77456 0.99725 0.79942
 O708 O 0.77222 1.03213 0.79266
 O709 O 0.79993 0.97398 0.75092
 O710 O 0.79388 0.97631 0.71625
 O711 O 0.72477 1.04962 0.74821
 O712 O 0.72644 1.04237 0.78209
 O713 O 0.69824 0.99982 0.72477
 O714 O 0.70569 0.96551 0.72788
 O715 O 0.74788 1.02306 0.69794
 O716 O 0.78174 1.02162 0.70483
 Zr717 Zr 0.75970 1.02201 0.72582
 O718 O 0.77842 1.00524 0.74273
 Zr719 Zr 0.72613 0.98801 0.72583
 O720 O 0.74344 0.96969 0.74271
 Zr721 Zr 0.72596 1.02168 0.75980
 O722 O 0.74319 1.00481 0.77821
 Zr723 Zr 0.77260 0.97595 0.73817
 O724 O 0.75542 0.99271 0.71937
 Zr725 Zr 0.77237 1.00976 0.77199
 O726 O 0.75516 1.02837 0.75512
 Zr727 Zr 0.73881 0.97559 0.77208
 O728 O 0.71979 0.99241 0.75515
 O729 O 0.73062 1.01711 0.73063
 O730 O 0.76797 0.98055 0.76738
 C731 C 0.73434 1.05798 0.73474
 C732 C 0.73456 1.01323 0.68966
 C733 C 0.68988 1.01316 0.73448
 C734 C 0.76540 0.94040 0.76481
 C735 C 0.80791 0.98326 0.76478
 C736 C 0.76592 0.98293 0.80726
 H737 H 0.79190 1.00854 0.73964
 H738 H 0.73994 1.00767 0.79178
 H739 H 0.72238 1.02532 0.72241
 H740 H 0.74069 0.95613 0.73947
 H741 H 0.76515 0.95981 0.70554
 H742 H 0.73306 0.95630 0.70750
 H743 H 0.76081 1.03031 0.80099
 H744 H 0.73911 1.04883 0.78133
 H745 H 0.80172 0.98806 0.71780
 H746 H 0.78126 1.00878 0.69870
 H747 H 0.71893 0.96884 0.80335
 H748 H 0.69882 1.00825 0.78124
 H749 H 0.78121 1.04908 0.73913
 H750 H 0.80146 1.03047 0.76085
 H751 H 0.69854 0.96745 0.74006
 H752 H 0.71838 0.94659 0.76001
 O753 O 0.74894 0.54876 0.22377
 O754 O 0.78269 0.54165 0.22507
 O755 O 0.72583 0.49857 0.19674
 O756 O 0.72589 0.46677 0.20213
 O757 O 0.69878 0.52195 0.24716
 O758 O 0.70603 0.52050 0.28092
 O759 O 0.77495 0.44739 0.24998
 O760 O 0.77173 0.45278 0.21614
 O761 O 0.80050 0.49592 0.27286
 O762 O 0.79353 0.53106 0.27107
 O763 O 0.75266 0.47218 0.29805
 O764 O 0.71726 0.47759 0.29201
 O765 O 0.75167 0.44715 0.27302
 O766 O 0.71706 0.45364 0.27049
 O767 O 0.77505 0.49594 0.29844
 O768 O 0.77287 0.53096 0.29162
 O769 O 0.80044 0.47265 0.24993
 O770 O 0.79434 0.47503 0.21519
 O771 O 0.72580 0.54880 0.24694
 O772 O 0.72757 0.54158 0.28094
 O773 O 0.69885 0.49908 0.22378
 O774 O 0.70618 0.46468 0.22686
 O775 O 0.74871 0.52194 0.19682
 O776 O 0.78264 0.52013 0.20380
 Zr777 Zr 0.76054 0.52082 0.22471
 O778 O 0.77910 0.50399 0.24174
 Zr779 Zr 0.72669 0.48712 0.22477
 O780 O 0.74389 0.46867 0.24162
 Zr781 Zr 0.72680 0.52087 0.25867
 O782 O 0.74379 0.50381 0.27712
 Zr783 Zr 0.77310 0.47474 0.23715
 O784 O 0.75603 0.49155 0.21831
 Zr785 Zr 0.77302 0.50854 0.27100
 O786 O 0.75605 0.52728 0.25401
 Zr787 Zr 0.73922 0.47462 0.27097
 O788 O 0.72037 0.49163 0.25406
 O789 O 0.73141 0.51619 0.22951
 O790 O 0.76844 0.47936 0.26636
 C791 C 0.73548 0.55702 0.23345
 C792 C 0.73531 0.51220 0.18856
 C793 C 0.69057 0.51243 0.23357
 C794 C 0.76568 0.43928 0.26382
 C795 C 0.80847 0.48194 0.26375
 C796 C 0.76624 0.48169 0.30624
 H797 H 0.79260 0.50721 0.23866
 H798 H 0.74053 0.50668 0.29068
 H799 H 0.72320 0.52443 0.22129
 H800 H 0.74106 0.45513 0.23838
 H801 H 0.76559 0.45849 0.20460
 H802 H 0.73348 0.45548 0.20630
 H803 H 0.76155 0.52908 0.30005
 H804 H 0.74024 0.54803 0.28002
 H805 H 0.80236 0.48665 0.21685
 H806 H 0.78191 0.50735 0.19755
 H807 H 0.71920 0.46771 0.30213
 H808 H 0.69980 0.50772 0.28044
 H809 H 0.78230 0.54771 0.23796
 H810 H 0.80209 0.52924 0.25984
 H811 H 0.69898 0.46672 0.23899
 H812 H 0.71886 0.44552 0.25894
 O813 O 0.50167 0.19803 0.72604
 O814 O 0.46779 0.20498 0.72771
 O815 O 0.52428 0.24841 0.69906
 O816 O 0.52404 0.28021 0.70456
 O817 O 0.55173 0.22496 0.74924
 O818 O 0.54463 0.22635 0.78313
 O819 O 0.47541 0.29929 0.75280
 O820 O 0.47842 0.29394 0.71885
 O821 O 0.44995 0.25032 0.77548
 O822 O 0.45724 0.21528 0.77365
 O823 O 0.49780 0.27439 0.80057
 O824 O 0.53324 0.26891 0.79446
 O825 O 0.49890 0.29945 0.77563
 O826 O 0.53339 0.29297 0.77306
 O827 O 0.47546 0.25058 0.80097
 O828 O 0.47788 0.21556 0.79420
 O829 O 0.44982 0.27375 0.75268
 O830 O 0.45571 0.27185 0.71812
 O831 O 0.52488 0.19805 0.74913
 O832 O 0.52326 0.20505 0.78311
 O833 O 0.55141 0.24792 0.72593
 O834 O 0.54400 0.28224 0.72913
 O835 O 0.50147 0.22498 0.69922
 O836 O 0.46763 0.22648 0.70640
 Zr837 Zr 0.48985 0.22590 0.72720
 O838 O 0.47133 0.24264 0.74434
 Zr839 Zr 0.52353 0.25976 0.72713
 O840 O 0.50640 0.27807 0.74419
 Zr841 Zr 0.52378 0.22590 0.76095
 O842 O 0.50679 0.24278 0.77956
 Zr843 Zr 0.47717 0.27195 0.73986
 O844 O 0.49417 0.25522 0.72086
 Zr845 Zr 0.47755 0.23797 0.77356
 O846 O 0.49453 0.21936 0.75644
 Zr847 Zr 0.51124 0.27199 0.77348
 O848 O 0.53006 0.25516 0.75638
 O849 O 0.51898 0.23066 0.73183
 O850 O 0.48200 0.26720 0.76902
 C851 C 0.51524 0.18984 0.73562
 C852 C 0.51478 0.23479 0.69090
 C853 C 0.55980 0.23456 0.73562
 C854 C 0.48486 0.30737 0.76654
 C855 C 0.44184 0.26425 0.76640
 C856 C 0.48420 0.26489 0.80874
 H857 H 0.45783 0.23936 0.74131
 H858 H 0.51011 0.23987 0.79311
 H859 H 0.52717 0.22250 0.72352
 H860 H 0.50919 0.29163 0.74098
 H861 H 0.48444 0.28822 0.70725
 H862 H 0.51654 0.29151 0.70888
 H863 H 0.48921 0.21750 0.80260
 H864 H 0.51055 0.19867 0.78236
 H865 H 0.44812 0.25989 0.71939
 H866 H 0.46822 0.23929 0.70021
 H867 H 0.53128 0.27871 0.80466
 H868 H 0.55094 0.23909 0.78250
 H869 H 0.46849 0.19868 0.74048
 H870 H 0.44869 0.21701 0.76239
 H871 H 0.55129 0.28018 0.74121
 H872 H 0.53168 0.30101 0.76143
 O873 O 0.30102 0.75451 0.47704
 O874 O 0.29394 0.72073 0.47850
 O875 O 0.25068 0.77739 0.44993
 O876 O 0.21886 0.77741 0.45537
 O877 O 0.27419 0.80451 0.50027
 O878 O 0.27259 0.79741 0.53410
 O879 O 0.19947 0.72856 0.50332
 O880 O 0.20493 0.73163 0.46946
 O881 O 0.24832 0.70298 0.52616
 O882 O 0.28338 0.71005 0.52450
 O883 O 0.22426 0.75075 0.55127
 O884 O 0.22980 0.78614 0.54525
 O885 O 0.19924 0.75192 0.52624
 O886 O 0.20579 0.78638 0.52376
 O887 O 0.24807 0.72839 0.55171
 O888 O 0.28319 0.73072 0.54498
 O889 O 0.22496 0.70295 0.50328
 O890 O 0.22711 0.70901 0.46862
 O891 O 0.30099 0.77761 0.50022
 O892 O 0.29376 0.77590 0.53420
 O893 O 0.25132 0.80443 0.47685
 O894 O 0.21683 0.79717 0.48004
 O895 O 0.27411 0.75455 0.45009
 O896 O 0.27245 0.72072 0.45717
 Zr897 Zr 0.27306 0.74285 0.47803
 O898 O 0.25620 0.72435 0.49508
 Zr899 Zr 0.23927 0.77665 0.47798
 O900 O 0.22082 0.75950 0.49488
 Zr901 Zr 0.27304 0.77660 0.51191
 O902 O 0.25599 0.75966 0.53040
 Zr903 Zr 0.22689 0.73030 0.49051
 O904 O 0.24374 0.74732 0.47162
 Zr905 Zr 0.26077 0.73047 0.52433
 O906 O 0.27952 0.74739 0.50731
 Zr907 Zr 0.22677 0.76422 0.52422
 O908 O 0.24377 0.78302 0.50726
 O909 O 0.26838 0.77194 0.48275
 O910 O 0.23154 0.73502 0.51969
 C911 C 0.30924 0.76798 0.48672
 C912 C 0.26432 0.76788 0.44177
 C913 C 0.26473 0.81267 0.48660
 C914 C 0.19133 0.73794 0.51707
 C915 C 0.23439 0.69494 0.51703
 C916 C 0.23375 0.73715 0.55946
 H917 H 0.25946 0.71087 0.49202
 H918 H 0.25885 0.76294 0.54397
 H919 H 0.27662 0.78010 0.47449
 H920 H 0.20726 0.76233 0.49163
 H921 H 0.21065 0.73777 0.45792
 H922 H 0.20756 0.76985 0.45957
 H923 H 0.28119 0.74195 0.55348
 H924 H 0.30021 0.76324 0.53335
 H925 H 0.23891 0.70119 0.47011
 H926 H 0.25965 0.72138 0.45094
 H927 H 0.21993 0.78419 0.55540
 H928 H 0.25982 0.80371 0.53349
 H929 H 0.30014 0.72129 0.49132
 H930 H 0.28172 0.70161 0.51316
 H931 H 0.21895 0.80446 0.49210
 H932 H 0.19779 0.78472 0.51209
 O933 O 0.27267 0.30303 0.99822
 O934 O 0.27112 0.29583 1.03211
 O935 O 0.29983 0.25294 0.97520
 O936 O 0.29449 0.22108 0.97533
 O937 O 0.24944 0.27626 0.94808
 O938 O 0.21557 0.27463 0.95532
 O939 O 0.24657 0.20141 1.02390
 O940 O 0.28048 0.20702 1.02079
 O941 O 0.22372 0.25008 1.04983
 O942 O 0.22543 0.28522 1.04280
 O943 O 0.19850 0.22638 1.00185
 O944 O 0.20460 0.23203 0.96638
 O945 O 0.22362 0.20132 1.00054
 O946 O 0.22592 0.20795 0.96617
 O947 O 0.19811 0.25005 1.02435
 O948 O 0.20477 0.28500 1.02229
 O949 O 0.24665 0.22679 1.04971
 O950 O 0.28110 0.22886 1.04374
 O951 O 0.24950 0.30299 0.97508
 O952 O 0.21560 0.29584 0.97677
 O953 O 0.27286 0.25342 0.94816
 O954 O 0.26989 0.21908 0.95534
 O955 O 0.29960 0.27623 0.99817
 O956 O 0.29259 0.27449 1.03201
 Zr957 Zr 0.27170 0.27507 1.00989
 O958 O 0.25474 0.25810 1.02838
 Zr959 Zr 0.27182 0.24141 0.97598
 O960 O 0.25491 0.22292 0.99305
 Zr961 Zr 0.23783 0.27509 0.97608
 O962 O 0.21939 0.25803 0.99306
 Zr963 Zr 0.25933 0.22885 1.02231
 O964 O 0.27817 0.24580 1.00536
 Zr965 Zr 0.22550 0.26267 1.02232
 O966 O 0.24241 0.28148 1.00536
 Zr967 Zr 0.22557 0.22888 0.98838
 O968 O 0.24254 0.24589 0.96960
 O969 O 0.26698 0.27046 0.98074
 O970 O 0.23013 0.23349 1.01765
 C971 C 0.26300 0.31123 0.98470
 C972 C 0.30794 0.26656 0.98476
 C973 C 0.26308 0.26678 0.93989
 C974 C 0.23284 0.19332 1.01446
 C975 C 0.23291 0.23615 1.05781
 C976 C 0.19033 0.23582 1.01550
 H977 H 0.25781 0.26130 1.04189
 H978 H 0.20583 0.26091 0.98980
 H979 H 0.27522 0.27871 0.97256
 H980 H 0.25817 0.20939 0.99015
 H981 H 0.29203 0.21287 1.01481
 H982 H 0.29020 0.20967 0.98268
 H983 H 0.19647 0.28325 1.01085
 H984 H 0.21637 0.30217 0.98952
 H985 H 0.27992 0.24084 1.05130
 H986 H 0.29883 0.26170 1.03135
 H987 H 0.19437 0.22228 0.96835
 H988 H 0.21633 0.26199 0.94883
 H989 H 0.25833 0.30209 1.03146
 H990 H 0.23667 0.28341 1.05135
 H991 H 0.25774 0.22107 0.94816
 H992 H 0.23771 0.20012 0.96762
 C993 C 0.29211 0.36508 0.78791
 C994 C 0.27952 0.35034 0.79367
 C995 C 0.28671 0.33330 0.80155
 C996 C 0.30663 0.33067 0.80388
 C997 C 0.31922 0.34529 0.79789
 C998 C 0.31205 0.36229 0.78996
 C999 C 0.28454 0.38361 0.78046
 C1000 C 0.29368 0.39300 0.76505
 C1001 C 0.28738 0.41107 0.75892
 C1002 C 0.27180 0.42021 0.76809
 C1003 C 0.26233 0.41056 0.78317
 C1004 C 0.26862 0.39246 0.78926
 H1005 H 0.27676 0.32216 0.80596
 H1006 H 0.33461 0.34372 0.79978
 H1007 H 0.29499 0.41804 0.74723
 H1008 H 0.25032 0.41715 0.79059
 H1009 H 0.32210 0.37350 0.78596
 H1010 H 0.30582 0.38642 0.75782
 H1011 H 0.26410 0.35200 0.79206
 H1012 H 0.26142 0.38568 0.80131
 C1013 C 0.29427 -0.13266 0.29054
 C1014 C 0.28157 -0.14738 0.29612
 C1015 C 0.28862 -0.16449 0.30400
 C1016 C 0.30850 -0.16721 0.30650
 C1017 C 0.32121 -0.15260 0.30073
 C1018 C 0.31417 -0.13551 0.29283
 C1019 C 0.28681 -0.11417 0.28286
 C1020 C 0.27056 -0.10542 0.29115
 C1021 C 0.26405 -0.08759 0.28453
 C1022 C 0.27363 -0.07809 0.26943
 C1023 C 0.28969 -0.08701 0.26091
 C1024 C 0.29620 -0.10483 0.26756
 H1025 H 0.27859 -0.17562 0.30822
 H1026 H 0.33657 -0.15426 0.30274
 H1027 H 0.25170 -0.08112 0.29149
 H1028 H 0.29742 -0.08013 0.24925
 H1029 H 0.32431 -0.12433 0.28896
 H1030 H 0.26317 -0.11213 0.30313
 H1031 H 0.26618 -0.14571 0.29431
 H1032 H 0.30861 -0.11132 0.26071
 C1033 C 0.79276 0.86630 0.79140
 C1034 C 0.78020 0.85147 0.79702
 C1035 C 0.78743 0.83437 0.80477
 C1036 C 0.80734 0.83177 0.80709
 C1037 C 0.81991 0.84649 0.80128
 C1038 C 0.81270 0.86356 0.79350
 C1039 C 0.78512 0.88478 0.78387
 C1040 C 0.76892 0.89341 0.79238
 C1041 C 0.76229 0.91126 0.78595
 C1042 C 0.77167 0.92090 0.77081
 C1043 C 0.78767 0.91208 0.76207
 C1044 C 0.79431 0.89424 0.76853
 H1045 H 0.77750 0.82316 0.80903
 H1046 H 0.83530 0.84492 0.80316
 H1047 H 0.74999 0.91765 0.79309
 H1048 H 0.79526 0.91907 0.75038
 H1049 H 0.82273 0.87482 0.78960
 H1050 H 0.76168 0.88660 0.80439
 H1051 H 0.76478 0.85306 0.79535
 H1052 H 0.80668 0.88784 0.76152
 C1053 C 0.45970 0.88132 0.29272
 C1054 C 0.45380 0.89569 0.27975
 C1055 C 0.44640 0.91312 0.28652
 C1056 C 0.44473 0.91653 0.30638
 C1057 C 0.45081 0.90227 0.31935
 C1058 C 0.45823 0.88486 0.31260
 C1059 C 0.46688 0.86250 0.28561
 C1060 C 0.48245 0.85332 0.29470
 C1061 C 0.48866 0.83522 0.28855
 C1062 C 0.47942 0.82585 0.27316
 C1063 C 0.46403 0.83518 0.26388
 C1064 C 0.45785 0.85330 0.27003
 H1065 H 0.44192 0.92397 0.27627
 H1066 H 0.44942 0.90445 0.33473
 H1067 H 0.50057 0.82849 0.29603
 H1068 H 0.45651 0.82838 0.25205
 H1069 H 0.46236 0.87397 0.32296
 H1070 H 0.48986 0.86016 0.30659
 H1071 H 0.45497 0.89347 0.26436
 H1072 H 0.44565 0.85988 0.26289
 C1073 C -0.04406 0.87942 0.79543
 C1074 C -0.04586 0.88220 0.81540
 C1075 C -0.05350 0.89929 0.82267
 C1076 C -0.05945 0.91400 0.81015
 C1077 C -0.05751 0.91132 0.79020
 C1078 C -0.04992 0.89419 0.78290
 C1079 C -0.03644 0.86101 0.78775
 C1080 C -0.04514 0.85216 0.77178
 C1081 C -0.03851 0.83440 0.76509
 C1082 C -0.02298 0.82511 0.77418
 C1083 C -0.01407 0.83417 0.78995
 C1084 C -0.02073 0.85190 0.79665
 H1085 H -0.05509 0.90092 0.83810
 H1086 H -0.06188 0.92253 0.78030
 H1087 H -0.04578 0.82782 0.75297
 H1088 H -0.00208 0.82746 0.79731
 H1089 H -0.04850 0.89255 0.76746
 H1090 H -0.05742 0.85873 0.76477
 H1091 H -0.04176 0.87097 0.82540
 H1092 H -0.01359 0.85849 0.80883
 C1093 C -0.04155 -0.13280 -0.04210
 C1094 C -0.04734 -0.14754 -0.02951
 C1095 C -0.05489 -0.16472 -0.03674
 C1096 C -0.05685 -0.16748 -0.05668
 C1097 C -0.05090 -0.15283 -0.06927
 C1098 C -0.04331 -0.13569 -0.06206
 C1099 C -0.03412 -0.11428 -0.03451
 C1100 C -0.01854 -0.10504 -0.04349
 C1101 C -0.01214 -0.08716 -0.03696
 C1102 C -0.02120 -0.07805 -0.02130
 C1103 C -0.03658 -0.08748 -0.01210
 C1104 C -0.04294 -0.10540 -0.01862
 H1105 H -0.05927 -0.17587 -0.02678
 H1106 H -0.05252 -0.15450 -0.08468
 H1107 H -0.00026 -0.08035 -0.04441
 H1108 H -0.04395 -0.08087 -0.00005
 H1109 H -0.03927 -0.12449 -0.07212
 H1110 H -0.01129 -0.11164 -0.05561
 H1111 H -0.04594 -0.14582 -0.01408
 H1112 H -0.05513 -0.11206 -0.01154
 C1113 C -0.04121 0.36998 0.45583
 C1114 C -0.04318 0.36684 0.43593
 C1115 C -0.05058 0.34950 0.42902
 C1116 C -0.05613 0.33489 0.44185
 C1117 C -0.05396 0.33792 0.46173
 C1118 C -0.04661 0.35530 0.46866
 C1119 C -0.03396 0.38869 0.46313
 C1120 C -0.04270 0.39758 0.47906
 C1121 C -0.03640 0.41557 0.48544
 C1122 C -0.02116 0.42505 0.47607
 C1123 C -0.01223 0.41598 0.46031
 C1124 C -0.01857 0.39803 0.45392
 H1125 H -0.05235 0.34761 0.41365
 H1126 H -0.05802 0.32681 0.47187
 H1127 H -0.04366 0.42214 0.49757
 H1128 H -0.00047 0.42285 0.45273
 H1129 H -0.04504 0.35722 0.48406
 H1130 H -0.05474 0.39084 0.48631
 H1131 H -0.03943 0.37798 0.42570
 H1132 H -0.01141 0.39142 0.44175
 C1133 C 0.46046 -0.13255 0.45790
 C1134 C 0.45852 -0.13553 0.43797
 C1135 C 0.45077 -0.15266 0.43092
 C1136 C 0.44484 -0.16721 0.44363
 C1137 C 0.44701 -0.16437 0.46354
 C1138 C 0.45471 -0.14719 0.47062
 C1139 C 0.46786 -0.11394 0.46530
 C1140 C 0.45903 -0.10494 0.48113
 C1141 C 0.46512 -0.08679 0.48725
 C1142 C 0.48021 -0.07724 0.47771
 C1143 C 0.48940 -0.08653 0.46223
 C1144 C 0.48328 -0.10465 0.45610
 H1145 H 0.44899 -0.15440 0.41553
 H1146 H 0.44264 -0.17545 0.47359
 H1147 H 0.45769 -0.08007 0.49919
 H1148 H 0.50111 -0.07965 0.45457
 H1149 H 0.45623 -0.14538 0.48603
 H1150 H 0.44698 -0.11165 0.48838
 H1151 H 0.46250 -0.12440 0.42782
 H1152 H 0.49054 -0.11135 0.44405
 C1153 C 0.45721 0.36879 -0.04384
 C1154 C 0.45542 0.36591 -0.06380
 C1155 C 0.44791 0.34874 -0.07101
 C1156 C 0.44206 0.33404 -0.05843
 C1157 C 0.44403 0.33680 -0.03849
 C1158 C 0.45149 0.35401 -0.03126
 C1159 C 0.46462 0.38731 -0.03623
 C1160 C 0.45583 0.39614 -0.02029
 C1161 C 0.46225 0.41400 -0.01368
 C1162 C 0.47767 0.42342 -0.02282
 C1163 C 0.48667 0.41440 -0.03856
 C1164 C 0.48021 0.39657 -0.04519
 H1165 H 0.44629 0.34706 -0.08643
 H1166 H 0.43974 0.32561 -0.02854
 H1167 H 0.45493 0.42055 -0.00158
 H1168 H 0.49857 0.42121 -0.04597
 H1169 H 0.45291 0.35572 -0.01582
 H1170 H 0.44364 0.38946 -0.01324
 H1171 H 0.45941 0.37714 -0.07385
 H1172 H 0.48742 0.39001 -0.05735
 C1173 C 0.79296 0.38476 0.46040
 C1174 C 0.78073 0.39942 0.45369
 C1175 C 0.78837 0.41600 0.44524
 C1176 C 0.80837 0.41825 0.44330
 C1177 C 0.82059 0.40370 0.45019
 C1178 C 0.81298 0.38715 0.45865
 C1179 C 0.78495 0.36669 0.46850
 C1180 C 0.79373 0.35774 0.48438
 C1181 C 0.78716 0.33994 0.49102
 C1182 C 0.77164 0.33066 0.48191
 C1183 C 0.76244 0.33995 0.46644
 C1184 C 0.76902 0.35776 0.45982
 H1185 H 0.77869 0.42710 0.44016
 H1186 H 0.83605 0.40498 0.44862
 H1187 H 0.79457 0.33325 0.50300
 H1188 H 0.75048 0.33323 0.45904
 H1189 H 0.82277 0.37598 0.46336
 H1190 H 0.80586 0.36441 0.49155
 H1191 H 0.76526 0.39808 0.45501
 H1192 H 0.76206 0.36419 0.44744
 C1193 C 0.78981 0.88438 -0.04125
 C1194 C 0.79612 0.89940 -0.02928
 C1195 C 0.80425 0.91600 -0.03722
 C1196 C 0.80628 0.91788 -0.05726
 C1197 C 0.79985 0.90292 -0.06922
 C1198 C 0.79167 0.88637 -0.06131
 C1199 C 0.78189 0.86637 -0.03295
 C1200 C 0.76611 0.85717 -0.04162
 C1201 C 0.75965 0.83942 -0.03481
 C1202 C 0.76883 0.83040 -0.01917
 C1203 C 0.78419 0.83995 -0.01007
 C1204 C 0.79063 0.85774 -0.01687
 H1205 H 0.80900 0.92741 -0.02774
 H1206 H 0.80151 0.90390 -0.08469
 H1207 H 0.74774 0.83254 -0.04215
 H1208 H 0.79164 0.83343 0.00198
 H1209 H 0.78727 0.87491 -0.07090
 H1210 H 0.75890 0.86362 -0.05385
 H1211 H 0.79471 0.89834 -0.01379
 H1212 H 0.80293 0.86439 -0.01000
 C1213 C 0.79118 0.29207 0.36741
 C1214 C 0.79728 0.27950 0.35277
 C1215 C 0.80515 0.28671 0.33570
 C1216 C 0.80709 0.30662 0.33293
 C1217 C 0.80080 0.31918 0.34746
 C1218 C 0.79292 0.31200 0.36450
 C1219 C 0.78370 0.28450 0.38595
 C1220 C 0.76815 0.29351 0.39524
 C1221 C 0.76199 0.28724 0.41334
 C1222 C 0.77126 0.27180 0.42259
 C1223 C 0.78646 0.26244 0.41302
 C1224 C 0.79259 0.26872 0.39492
 H1225 H 0.80978 0.27678 0.32462
 H1226 H 0.80240 0.33458 0.34577
 H1227 H 0.75021 0.29476 0.42023
 H1228 H 0.79397 0.25054 0.41971
 H1229 H 0.78867 0.32204 0.37563
 H1230 H 0.76083 0.30554 0.38856
 H1231 H 0.79593 0.26408 0.35450
 H1232 H 0.80475 0.26161 0.38823
 C1233 C 0.78961 0.79199 -0.13274
 C1234 C 0.79139 0.81194 -0.13546
 C1235 C 0.79942 0.81928 -0.15237
 C1236 C 0.80581 0.80684 -0.16696
 C1237 C 0.80383 0.78691 -0.16438
 C1238 C 0.79584 0.77955 -0.14743
 C1239 C 0.78192 0.78427 -0.11434
 C1240 C 0.79072 0.76842 -0.10538
 C1241 C 0.78440 0.76203 -0.08737
 C1242 C 0.76910 0.77134 -0.07790
 C1243 C 0.75992 0.78681 -0.08717
 C1244 C 0.76626 0.79321 -0.10516
 H1245 H 0.80103 0.83469 -0.15390
 H1246 H 0.80854 0.77706 -0.17551
 H1247 H 0.79185 0.75010 -0.08066
 H1248 H 0.74807 0.79430 -0.08035
 H1249 H 0.79446 0.76412 -0.14584
 H1250 H 0.80294 0.76135 -0.11199
 H1251 H 0.78704 0.82189 -0.12428
 H1252 H 0.75901 0.80528 -0.11184
 C1253 C 0.29159 0.46087 0.88314
 C1254 C 0.31153 0.45896 0.88599
 C1255 C 0.31874 0.45143 0.90318
 C1256 C 0.30617 0.44569 0.91795
 C1257 C 0.28624 0.44783 0.91524
 C1258 C 0.27901 0.45531 0.89800
 C1259 C 0.28402 0.46805 0.86448
 C1260 C 0.26815 0.45912 0.85567
 C1261 C 0.26189 0.46499 0.83746
 C1262 C 0.27134 0.47996 0.82764
 C1263 C 0.28686 0.48925 0.83674
 C1264 C 0.29312 0.48335 0.85492
 H1265 H 0.33414 0.44966 0.90480
 H1266 H 0.27629 0.44362 0.92648
 H1267 H 0.24992 0.45748 0.83089
 H1268 H 0.29446 0.50087 0.82967
 H1269 H 0.26359 0.45681 0.89630
 H1270 H 0.26096 0.44716 0.86259
 H1271 H 0.32158 0.46280 0.87470
 H1272 H 0.30521 0.49069 0.86147
 C1273 C 0.29128 -0.04181 0.38132
 C1274 C 0.29295 -0.06164 0.38489
 C1275 C 0.30020 -0.06829 0.40243
 C1276 C 0.30590 -0.05528 0.41681
 C1277 C 0.30397 -0.03547 0.41338
 C1278 C 0.29674 -0.02880 0.39582
 C1279 C 0.28439 -0.03477 0.36233
 C1280 C 0.26913 -0.04401 0.35280
 C1281 C 0.26319 -0.03786 0.33458
 C1282 C 0.27240 -0.02232 0.32544
 C1283 C 0.28750 -0.01293 0.33511
 C1284 C 0.29340 -0.01907 0.35334
 H1285 H 0.30179 -0.08362 0.40463
 H1286 H 0.30815 -0.02520 0.42432
 H1287 H 0.25151 -0.04544 0.32758
 H1288 H 0.29497 -0.00096 0.32850
 H1289 H 0.29538 -0.01345 0.39360
 H1290 H 0.26175 -0.05601 0.35946
 H1291 H 0.28915 -0.07201 0.37391
 H1292 H 0.30537 -0.01182 0.36019
 C1293 C -0.04478 -0.04413 -0.13088
 C1294 C -0.06479 -0.04560 -0.13349
 C1295 C -0.07234 -0.05341 -0.15040
 C1296 C -0.06004 -0.05989 -0.16509
 C1297 C -0.04005 -0.05827 -0.16259
 C1298 C -0.03248 -0.05049 -0.14564
 C1299 C -0.03683 -0.03637 -0.11263
 C1300 C -0.04539 -0.02040 -0.10369
 C1301 C -0.03847 -0.01362 -0.08606
 C1302 C -0.02284 -0.02269 -0.07693
 C1303 C -0.01406 -0.03849 -0.08606
 C1304 C -0.02097 -0.04523 -0.10372
 H1305 H -0.08779 -0.05476 -0.15188
 H1306 H -0.03031 -0.06304 -0.17379
 H1307 H -0.04559 -0.00143 -0.07948
 H1308 H -0.00205 -0.04588 -0.07941
 H1309 H -0.01701 -0.04934 -0.14413
 H1310 H -0.05747 -0.01313 -0.11033
 H1311 H -0.07463 -0.04111 -0.12225
 H1312 H -0.01422 -0.05771 -0.11014
 C1313 C -0.04304 0.45800 0.36668
 C1314 C -0.03069 0.45174 0.35191
 C1315 C -0.03818 0.44356 0.33512
 C1316 C -0.05815 0.44145 0.33276
 C1317 C -0.07050 0.44783 0.34746
 C1318 C -0.06303 0.45603 0.36422
 C1319 C -0.03516 0.46611 0.38482
 C1320 C -0.04411 0.48186 0.39378
 C1321 C -0.03732 0.48884 0.41138
 C1322 C -0.02141 0.48021 0.42046
 C1323 C -0.01220 0.46470 0.41128
 C1324 C -0.01899 0.45775 0.39366
 H1325 H -0.02842 0.43887 0.32391
 H1326 H -0.08593 0.44612 0.34609
 H1327 H -0.04477 0.50081 0.41801
 H1328 H 0.00002 0.45763 0.41788
 H1329 H -0.07290 0.46041 0.37547
 H1330 H -0.05644 0.48877 0.38719
 H1331 H -0.01524 0.45327 0.35330
 H1332 H -0.01192 0.44544 0.38723
 C1333 C 0.45951 -0.03967 0.36390
 C1334 C 0.43949 -0.04144 0.36148
 C1335 C 0.43191 -0.04980 0.34486
 C1336 C 0.44417 -0.05654 0.33025
 C1337 C 0.46416 -0.05459 0.33253
 C1338 C 0.47177 -0.04625 0.34920
 C1339 C 0.46746 -0.03163 0.38204
 C1340 C 0.45864 -0.01580 0.39099
 C1341 C 0.46514 -0.00922 0.40884
 C1342 C 0.48061 -0.01834 0.41820
 C1343 C 0.48986 -0.03376 0.40891
 C1344 C 0.48336 -0.04033 0.39103
 H1345 H 0.41647 -0.05140 0.34356
 H1346 H 0.47386 -0.05957 0.32139
 H1347 H 0.45770 0.00274 0.41552
 H1348 H 0.50178 -0.04117 0.41569
 H1349 H 0.48724 -0.04491 0.35057
 H1350 H 0.44654 -0.00862 0.38426
 H1351 H 0.42968 -0.03684 0.37269
 H1352 H 0.49034 -0.05268 0.38459
 C1353 C 0.45718 0.45850 -0.13331
 C1354 C 0.46988 0.45235 -0.14783
 C1355 C 0.46278 0.44475 -0.16506
 C1356 C 0.44287 0.44312 -0.16811
 C1357 C 0.43017 0.44942 -0.15368
 C1358 C 0.43725 0.45704 -0.13648
 C1359 C 0.46463 0.46597 -0.11472
 C1360 C 0.48035 0.45707 -0.10560
 C1361 C 0.48678 0.46351 -0.08766
 C1362 C 0.47765 0.47904 -0.07842
 C1363 C 0.46215 0.48815 -0.08773
 C1364 C 0.45572 0.48169 -0.10566
 H1365 H 0.47282 0.44008 -0.17604
 H1366 H 0.41477 0.44805 -0.15559
 H1367 H 0.49869 0.45608 -0.08088
 H1368 H 0.45479 0.50016 -0.08108
 H1369 H 0.42710 0.46135 -0.12546
 H1370 H 0.48735 0.44477 -0.11210
 H1371 H 0.48531 0.45350 -0.14590
 H1372 H 0.44374 0.48900 -0.11245
 C1373 C 0.45756 0.79101 0.38423
 C1374 C 0.43764 0.79280 0.38729
 C1375 C 0.43060 0.80055 0.40445
 C1376 C 0.44331 0.80664 0.41895
 C1377 C 0.46322 0.80464 0.41602
 C1378 C 0.47028 0.79692 0.39882
 C1379 C 0.46500 0.78346 0.36566
 C1380 C 0.45598 0.76783 0.35657
 C1381 C 0.46246 0.76125 0.33870
 C1382 C 0.47812 0.77018 0.32947
 C1383 C 0.48731 0.78566 0.33871
 C1384 C 0.48084 0.79220 0.35661
 H1385 H 0.41520 0.80220 0.40626
 H1386 H 0.47327 0.80912 0.42705
 H1387 H 0.45503 0.74931 0.33202
 H1388 H 0.49936 0.79293 0.33201
 H1389 H 0.48569 0.79551 0.39697
 H1390 H 0.44388 0.76066 0.36330
 H1391 H 0.42749 0.78866 0.37621
 H1392 H 0.48794 0.80443 0.36314
 C1393 C -0.04327 0.79066 0.88405
 C1394 C -0.03073 0.79673 0.89874
 C1395 C -0.03800 0.80451 0.91581
 C1396 C -0.05795 0.80642 0.91854
 C1397 C -0.07048 0.80022 0.90394
 C1398 C -0.06323 0.79241 0.88690
 C1399 C -0.03562 0.78298 0.86562
 C1400 C -0.01969 0.79166 0.85668
 C1401 C -0.01310 0.78507 0.83884
 C1402 C -0.02229 0.76963 0.82954
 C1403 C -0.03799 0.76071 0.83870
 C1404 C -0.04457 0.76732 0.85652
 H1405 H -0.02809 0.80909 0.92694
 H1406 H -0.08590 0.80180 0.90559
 H1407 H -0.00103 0.79235 0.83219
 H1408 H -0.04541 0.74877 0.83198
 H1409 H -0.07325 0.78817 0.87573
 H1410 H -0.01264 0.80391 0.86322
 H1411 H -0.01529 0.79535 0.89706
 H1412 H -0.05672 0.76018 0.86318
 C1413 C 0.36775 0.79066 0.29405
 C1414 C 0.35321 0.79662 0.28129
 C1415 C 0.33607 0.80449 0.28830
 C1416 C 0.33312 0.80659 0.30819
 C1417 C 0.34755 0.80045 0.32096
 C1418 C 0.36467 0.79255 0.31398
 C1419 C 0.38630 0.78302 0.28666
 C1420 C 0.39544 0.76748 0.29583
 C1421 C 0.41333 0.76089 0.28941
 C1422 C 0.42253 0.76971 0.27366
 C1423 C 0.41321 0.78504 0.26429
 C1424 C 0.39531 0.79160 0.27071
 H1425 H 0.32507 0.80901 0.27821
 H1426 H 0.34572 0.80216 0.33635
 H1427 H 0.42007 0.74905 0.29698
 H1428 H 0.41987 0.79224 0.25217
 H1429 H 0.37571 0.78839 0.32417
 H1430 H 0.38875 0.76042 0.30801
 H1431 H 0.35506 0.79512 0.26588
 H1432 H 0.38876 0.80376 0.26349
 C1433 C -0.13321 0.79009 0.79400
 C1434 C -0.14787 0.79604 0.78137
 C1435 C -0.16501 0.80377 0.78855
 C1436 C -0.16784 0.80573 0.80848
 C1437 C -0.15328 0.79962 0.82111
 C1438 C -0.13616 0.79187 0.81395
 C1439 C -0.11468 0.78255 0.78644
 C1440 C -0.10543 0.76702 0.79550
 C1441 C -0.08754 0.76053 0.78896
 C1442 C -0.07847 0.76943 0.77319
 C1443 C -0.08791 0.78476 0.76392
 C1444 C -0.10580 0.79122 0.77046
 H1445 H -0.17611 0.80827 0.77856
 H1446 H -0.15501 0.80123 0.83652
 H1447 H -0.08072 0.74869 0.79646
 H1448 H -0.08133 0.79203 0.75180
 H1449 H -0.12502 0.78772 0.82404
 H1450 H -0.11202 0.75988 0.80769
 H1451 H -0.14612 0.79463 0.76594
 H1452 H -0.11245 0.80337 0.76333
 C1453 C 0.88487 0.29375 0.46028
 C1454 C 0.89986 0.28162 0.45417
 C1455 C 0.91659 0.28933 0.44607
 C1456 C 0.91863 0.30930 0.44386
 C1457 C 0.90373 0.32143 0.45012
 C1458 C 0.88705 0.31375 0.45827
 C1459 C 0.86672 0.28567 0.46814
 C1460 C 0.85751 0.29448 0.48384
 C1461 C 0.83970 0.28780 0.49033
 C1462 C 0.83065 0.27215 0.48125
 C1463 C 0.84017 0.26295 0.46593
 C1464 C 0.85802 0.26963 0.45947
 H1465 H 0.92795 0.27972 0.44145
 H1466 H 0.90484 0.33685 0.44832
 H1467 H 0.83284 0.29521 0.50221
 H1468 H 0.83362 0.25089 0.45856
 H1469 H 0.87562 0.32345 0.46254
 H1470 H 0.86401 0.30670 0.49100
 H1471 H 0.89866 0.26617 0.45571
 H1472 H 0.86469 0.26265 0.44722
 C1473 C 0.88305 0.79253 -0.03939
 C1474 C 0.89787 0.78013 -0.04538
 C1475 C 0.91486 0.78754 -0.05323
 C1476 C 0.91734 0.80748 -0.05528
 C1477 C 0.90260 0.81987 -0.04914
 C1478 C 0.88566 0.81248 -0.04125
 C1479 C 0.86466 0.78476 -0.03177
 C1480 C 0.85540 0.79371 -0.01617
 C1481 C 0.83743 0.78728 -0.00987
 C1482 C 0.82826 0.77174 -0.01904
 C1483 C 0.83780 0.76243 -0.03428
 C1484 C 0.85580 0.76886 -0.04056
 H1485 H 0.92609 0.77774 -0.05776
 H1486 H 0.90406 0.83528 -0.05083
 H1487 H 0.83056 0.79476 0.00195
 H1488 H 0.83116 0.75046 -0.04171
 H1489 H 0.87438 0.82239 -0.03708
 H1490 H 0.86201 0.80581 -0.00893
 H1491 H 0.89635 0.76470 -0.04394
 H1492 H 0.86249 0.76180 -0.05274
 C1493 C -0.13260 -0.04297 -0.04175
 C1494 C -0.13564 -0.06292 -0.04292
 C1495 C -0.15278 -0.07021 -0.05048
 C1496 C -0.16727 -0.05772 -0.05701
 C1497 C -0.16434 -0.03778 -0.05570
 C1498 C -0.14717 -0.03048 -0.04816
 C1499 C -0.11409 -0.03531 -0.03429
 C1500 C -0.10502 -0.01969 -0.04338
 C1501 C -0.08714 -0.01309 -0.03695
 C1502 C -0.07791 -0.02195 -0.02124
 C1503 C -0.08718 -0.03735 -0.01193
 C1504 C -0.10505 -0.04394 -0.01838
 H1505 H -0.15459 -0.08563 -0.05160
 H1506 H -0.17537 -0.02790 -0.06054
 H1507 H -0.08039 -0.00128 -0.04453
 H1508 H -0.08053 -0.04451 0.00023
 H1509 H -0.14534 -0.01504 -0.04724
 H1510 H -0.11151 -0.01290 -0.05582
 H1511 H -0.12457 -0.07292 -0.03841
 H1512 H -0.11180 -0.05583 -0.01091
 C1513 C -0.13185 0.45964 0.45574
 C1514 C -0.14678 0.45433 0.46833
 C1515 C -0.16388 0.44653 0.46117
 C1516 C -0.16639 0.44383 0.44128
 C1517 C -0.15155 0.44929 0.42868
 C1518 C -0.13447 0.45713 0.43582
 C1519 C -0.11339 0.46730 0.46331
 C1520 C -0.10395 0.48249 0.45388
 C1521 C -0.08612 0.48909 0.46044
 C1522 C -0.07728 0.48062 0.47657
 C1523 C -0.08690 0.46565 0.48621
 C1524 C -0.10476 0.45909 0.47966
 H1525 H -0.17519 0.44255 0.47113
 H1526 H -0.15303 0.44711 0.41331
 H1527 H -0.07915 0.50064 0.45264
 H1528 H -0.08050 0.45873 0.49863
 H1529 H -0.12312 0.46079 0.42578
 H1530 H -0.11036 0.48927 0.44138
 H1531 H -0.14526 0.45630 0.48373
 H1532 H -0.11157 0.44721 0.48709
 C1533 C 0.36603 -0.03756 0.45668
 C1534 C 0.36340 -0.03983 0.43673
 C1535 C 0.34636 -0.04764 0.42950
 C1536 C 0.33153 -0.05329 0.44204
 C1537 C 0.33402 -0.05078 0.46196
 C1538 C 0.35112 -0.04303 0.46922
 C1539 C 0.38456 -0.03010 0.46429
 C1540 C 0.39328 -0.03872 0.48039
 C1541 C 0.41139 -0.03263 0.48670
 C1542 C 0.42117 -0.01774 0.47709
 C1543 C 0.41213 -0.00873 0.46135
 C1544 C 0.39406 -0.01486 0.45503
 H1545 H 0.34491 -0.04968 0.41412
 H1546 H 0.32273 -0.05492 0.47188
 H1547 H 0.41791 -0.03992 0.49885
 H1548 H 0.41918 0.00281 0.45362
 H1549 H 0.35265 -0.04125 0.48463
 H1550 H 0.38640 -0.05063 0.48771
 H1551 H 0.37475 -0.03606 0.42673
 H1552 H 0.38756 -0.00776 0.44275
 C1553 C 0.36616 0.45851 -0.04108
 C1554 C 0.36298 0.43861 -0.04268
 C1555 C 0.34569 0.43160 -0.05015
 C1556 C 0.33116 0.44432 -0.05613
 C1557 C 0.33420 0.46420 -0.05432
 C1558 C 0.35153 0.47123 -0.04689
 C1559 C 0.38487 0.46590 -0.03388
 C1560 C 0.39381 0.48166 -0.04285
 C1561 C 0.41186 0.48805 -0.03668
 C1562 C 0.42139 0.47886 -0.02135
 C1563 C 0.41227 0.46330 -0.01216
 C1564 C 0.39423 0.45690 -0.01836
 H1565 H 0.34379 0.41623 -0.05165
 H1566 H 0.32314 0.47426 -0.05874
 H1567 H 0.41847 0.50002 -0.04416
 H1568 H 0.41915 0.45587 -0.00031
 H1569 H 0.35345 0.48663 -0.04561
 H1570 H 0.38708 0.48874 -0.05500
 H1571 H 0.37408 0.42845 -0.03863
 H1572 H 0.38760 0.44488 -0.01101
 C1573 C 0.38480 0.45792 0.78883
 C1574 C 0.38713 0.43792 0.79066
 C1575 C 0.40383 0.43028 0.79882
 C1576 C 0.41861 0.44245 0.80528
 C1577 C 0.41642 0.46243 0.80326
 C1578 C 0.39967 0.47010 0.79514
 C1579 C 0.36661 0.46594 0.78100
 C1580 C 0.35777 0.48184 0.78981
 C1581 C 0.33985 0.48841 0.78342
 C1582 C 0.33039 0.47924 0.76805
 C1583 C 0.33959 0.46376 0.75881
 C1584 C 0.35748 0.45719 0.76523
 H1585 H 0.40505 0.41485 0.80048
 H1586 H 0.42768 0.47207 0.80803
 H1587 H 0.33319 0.50034 0.79090
 H1588 H 0.33278 0.45638 0.74689
 H1589 H 0.39836 0.48555 0.79374
 H1590 H 0.36437 0.48877 0.80211
 H1591 H 0.37580 0.42818 0.78625
 H1592 H 0.36409 0.44509 0.75797
 C1593 C 0.38425 -0.04385 0.28920
 C1594 C 0.39922 -0.03132 0.29447
 C1595 C 0.41639 -0.03853 0.30208
 C1596 C 0.41893 -0.05841 0.30464
 C1597 C 0.40405 -0.07095 0.29919
 C1598 C 0.38691 -0.06375 0.29153
 C1599 C 0.36573 -0.03624 0.28174
 C1600 C 0.35624 -0.04547 0.26646
 C1601 C 0.33836 -0.03887 0.26003
 C1602 C 0.32952 -0.02289 0.26877
 C1603 C 0.33919 -0.01347 0.28386
 C1604 C 0.35710 -0.02005 0.29024
 H1605 H 0.42773 -0.02861 0.30607
 H1606 H 0.40554 -0.08630 0.30128
 H1607 H 0.33135 -0.04650 0.24839
 H1608 H 0.33279 -0.00117 0.29097
 H1609 H 0.37553 -0.07375 0.28788
 H1610 H 0.36264 -0.05784 0.25948
 H1611 H 0.39767 -0.01593 0.29263
 H1612 H 0.36397 -0.01278 0.30220
 C1613 C 0.11730 0.53992 0.70667
 C1614 C 0.11418 0.54200 0.68678
 C1615 C 0.09680 0.54941 0.67988
 C1616 C 0.08214 0.55484 0.69271
 C1617 C 0.08514 0.55254 0.71258
 C1618 C 0.10256 0.54518 0.71950
 C1619 C 0.13608 0.53274 0.71395
 C1620 C 0.14494 0.54143 0.72992
 C1621 C 0.16305 0.53528 0.73620
 C1622 C 0.17269 0.52025 0.72667
 C1623 C 0.16363 0.51133 0.71091
 C1624 C 0.14556 0.51752 0.70462
 H1625 H 0.09495 0.55130 0.66451
 H1626 H 0.07399 0.55651 0.72272
 H1627 H 0.16961 0.54253 0.74834
 H1628 H 0.17061 0.49972 0.70322
 H1629 H 0.10446 0.54353 0.73489
 H1630 H 0.13809 0.55334 0.73727
 H1631 H 0.12537 0.53837 0.67655
 H1632 H 0.13899 0.51038 0.69242
 C1633 C 0.11628 0.03829 0.20814
 C1634 C 0.11290 0.04013 0.18827
 C1635 C 0.09548 0.04751 0.18151
 C1636 C 0.08101 0.05316 0.19446
 C1637 C 0.08425 0.05108 0.21432
 C1638 C 0.10172 0.04374 0.22110
 C1639 C 0.13519 0.03128 0.21524
 C1640 C 0.14428 0.04026 0.23091
 C1641 C 0.16264 0.03449 0.23679
 C1642 C 0.17232 0.01955 0.22715
 C1643 C 0.16297 0.01023 0.21179
 C1644 C 0.14464 0.01604 0.20590
 H1645 H 0.09344 0.04924 0.16615
 H1646 H 0.07325 0.05525 0.22455
 H1647 H 0.16939 0.04201 0.24865
 H1648 H 0.16994 -0.00136 0.20406
 H1649 H 0.10383 0.04229 0.23649
 H1650 H 0.13745 0.05218 0.23826
 H1651 H 0.12395 0.03637 0.17794
 H1652 H 0.13789 0.00866 0.19395
 C1653 C 0.63484 0.70658 0.21203
 C1654 C 0.63769 0.68666 0.21012
 C1655 C 0.65471 0.67949 0.20219
 C1656 C 0.66928 0.69207 0.19603
 C1657 C 0.66657 0.71197 0.19817
 C1658 C 0.64952 0.71916 0.20607
 C1659 C 0.61630 0.71413 0.21952
 C1660 C 0.60737 0.72997 0.21068
 C1661 C 0.58926 0.73624 0.21682
 C1662 C 0.57968 0.72683 0.23198
 C1663 C 0.58889 0.71134 0.24119
 C1664 C 0.60697 0.70505 0.23501
 H1665 H 0.65634 0.66411 0.20043
 H1666 H 0.67767 0.72192 0.19363
 H1667 H 0.58261 0.74820 0.20937
 H1668 H 0.58197 0.70377 0.25293
 H1669 H 0.64781 0.73457 0.20755
 H1670 H 0.61408 0.73713 0.19857
 H1671 H 0.62653 0.67661 0.21427
 H1672 H 0.61362 0.69298 0.24228
 C1673 C 0.13365 0.70712 0.71073
 C1674 C 0.13625 0.68718 0.70870
 C1675 C 0.15309 0.67984 0.70055
 C1676 C 0.16774 0.69228 0.69428
 C1677 C 0.16528 0.71220 0.69651
 C1678 C 0.14839 0.71956 0.70463
 C1679 C 0.11531 0.71484 0.71852
 C1680 C 0.10640 0.73079 0.70986
 C1681 C 0.08841 0.73716 0.71624
 C1682 C 0.07893 0.72773 0.73145
 C1683 C 0.08816 0.71217 0.74052
 C1684 C 0.10613 0.70579 0.73411
 H1685 H 0.15453 0.66445 0.69873
 H1686 H 0.17644 0.72204 0.69189
 H1687 H 0.08172 0.74916 0.70889
 H1688 H 0.08134 0.70459 0.75231
 H1689 H 0.14689 0.73497 0.70619
 H1690 H 0.11302 0.73794 0.69769
 H1691 H 0.12502 0.67724 0.71295
 H1692 H 0.11278 0.69364 0.74125
 C1693 C 0.61848 0.20934 0.54375
 C1694 C 0.60391 0.20361 0.53092
 C1695 C 0.58655 0.19618 0.53787
 C1696 C 0.58341 0.19430 0.55776
 C1697 C 0.59790 0.20018 0.57059
 C1698 C 0.61523 0.20763 0.56366
 C1699 C 0.63720 0.21664 0.53646
 C1700 C 0.64643 0.23213 0.54559
 C1701 C 0.66444 0.23846 0.53928
 C1702 C 0.67367 0.22945 0.52366
 C1703 C 0.66427 0.21415 0.51433
 C1704 C 0.64624 0.20784 0.52064
 H1705 H 0.57553 0.19185 0.52774
 H1706 H 0.59593 0.19861 0.58597
 H1707 H 0.67121 0.25030 0.54680
 H1708 H 0.67098 0.20681 0.50232
 H1709 H 0.62629 0.21162 0.57390
 H1710 H 0.63970 0.23936 0.55765
 H1711 H 0.60591 0.20497 0.51552
 H1712 H 0.63960 0.19572 0.51346
 C1713 C 0.61581 0.70962 0.04323
 C1714 C 0.60107 0.70434 0.03040
 C1715 C 0.58365 0.69703 0.03734
 C1716 C 0.58064 0.69478 0.05721
 C1717 C 0.59530 0.70021 0.07003
 C1718 C 0.61268 0.70757 0.06312
 C1719 C 0.63456 0.71682 0.03594
 C1720 C 0.64400 0.73206 0.04527
 C1721 C 0.66205 0.73829 0.03897
 C1722 C 0.67113 0.72940 0.02320
 C1723 C 0.66153 0.71434 0.01368
 C1724 C 0.64344 0.70815 0.01997
 H1725 H 0.57250 0.69304 0.02720
 H1726 H 0.59345 0.69835 0.08540
 H1727 H 0.66898 0.74993 0.04665
 H1728 H 0.66810 0.70712 0.00153
 H1729 H 0.62387 0.71121 0.07335
 H1730 H 0.63741 0.73918 0.05747
 H1731 H 0.60297 0.70597 0.01501
 H1732 H 0.63663 0.69622 0.01263
 C1733 C 0.13462 0.04049 0.04020
 C1734 C 0.14909 0.04687 0.02756
 C1735 C 0.16621 0.05462 0.03475
 C1736 C 0.16920 0.05617 0.05469
 C1737 C 0.15482 0.04963 0.06732
 C1738 C 0.13774 0.04186 0.06016
 C1739 C 0.11605 0.03301 0.03271
 C1740 C 0.10701 0.01725 0.04158
 C1741 C 0.08891 0.01106 0.03542
 C1742 C 0.07939 0.02048 0.02023
 C1743 C 0.08869 0.03590 0.01099
 C1744 C 0.10682 0.04208 0.01716
 H1745 H 0.17716 0.05948 0.02477
 H1746 H 0.15667 0.05093 0.08274
 H1747 H 0.08223 -0.00091 0.04282
 H1748 H 0.08179 0.04353 -0.00072
 H1749 H 0.12674 0.03739 0.07026
 H1750 H 0.11390 0.00979 0.05341
 H1751 H 0.14718 0.04582 0.01212
 H1752 H 0.11332 0.05439 0.01016
 C1753 C 0.13435 0.54452 0.53878
 C1754 C 0.13674 0.56449 0.54077
 C1755 C 0.15351 0.57200 0.54891
 C1756 C 0.16828 0.55972 0.55519
 C1757 C 0.16603 0.53977 0.55298
 C1758 C 0.14922 0.53224 0.54488
 C1759 C 0.11609 0.53662 0.53101
 C1760 C 0.10732 0.52062 0.53972
 C1761 C 0.08939 0.51409 0.53338
 C1762 C 0.07982 0.52340 0.51814
 C1763 C 0.08892 0.53901 0.50902
 C1764 C 0.10683 0.54554 0.51540
 H1765 H 0.15478 0.58741 0.55071
 H1766 H 0.17730 0.53005 0.55761
 H1767 H 0.08281 0.50206 0.54077
 H1768 H 0.08202 0.54649 0.49721
 H1769 H 0.14787 0.51680 0.54335
 H1770 H 0.11401 0.51357 0.55191
 H1771 H 0.12541 0.57431 0.53652
 H1772 H 0.11337 0.55772 0.50822
 C1773 C 0.63319 0.04428 0.54013
 C1774 C 0.63594 0.06417 0.54243
 C1775 C 0.65307 0.07128 0.55018
 C1776 C 0.66784 0.05866 0.55576
 C1777 C 0.66523 0.03880 0.55323
 C1778 C 0.64807 0.03167 0.54552
 C1779 C 0.61466 0.03676 0.53261
 C1780 C 0.60597 0.02058 0.54106
 C1781 C 0.58805 0.01407 0.53463
 C1782 C 0.57843 0.02358 0.51956
 C1783 C 0.58733 0.03955 0.51087
 C1784 C 0.60522 0.04606 0.51733
 H1785 H 0.65464 0.08663 0.55223
 H1786 H 0.67648 0.02882 0.55731
 H1787 H 0.58161 0.00178 0.54172
 H1788 H 0.58035 0.04723 0.49923
 H1789 H 0.64646 0.01629 0.54370
 H1790 H 0.61279 0.01325 0.55302
 H1791 H 0.62464 0.07423 0.53870
 H1792 H 0.61166 0.05842 0.51038
 C1793 C 0.63399 0.54223 0.03860
 C1794 C 0.64895 0.52974 0.04401
 C1795 C 0.66603 0.53700 0.05179
 C1796 C 0.66847 0.55688 0.05438
 C1797 C 0.65360 0.56938 0.04877
 C1798 C 0.63657 0.56214 0.04094
 C1799 C 0.61546 0.53460 0.03119
 C1800 C 0.60585 0.54387 0.01599
 C1801 C 0.58776 0.53752 0.00992
 C1802 C 0.57882 0.52176 0.01895
 C1803 C 0.58870 0.51216 0.03379
 C1804 C 0.60682 0.51849 0.03983
 H1805 H 0.67736 0.52711 0.05589
 H1806 H 0.65501 0.58474 0.05087
 H1807 H 0.58063 0.54525 -0.00159
 H1808 H 0.58226 0.50000 0.04110
 H1809 H 0.62518 0.57211 0.03721
 H1810 H 0.61227 0.55616 0.00889
 H1811 H 0.64746 0.51435 0.04219
 H1812 H 0.61378 0.51118 0.05170
 C1813 C 0.03896 0.03986 0.13545
 C1814 C 0.04046 0.05978 0.13854
 C1815 C 0.04814 0.06691 0.15569
 C1816 C 0.05446 0.05429 0.17017
 C1817 C 0.05270 0.03438 0.16724
 C1818 C 0.04505 0.02723 0.15005
 C1819 C 0.03173 0.03239 0.11677
 C1820 C 0.04090 0.01682 0.10770
 C1821 C 0.03498 0.01068 0.08947
 C1822 C 0.01974 0.01997 0.07989
 C1823 C 0.01022 0.03518 0.08925
 C1824 C 0.01615 0.04132 0.10746
 H1825 H 0.04961 0.08230 0.15748
 H1826 H 0.05738 0.02440 0.17826
 H1827 H 0.04268 -0.00105 0.08269
 H1828 H -0.00162 0.04263 0.08237
 H1829 H 0.04388 0.01182 0.14817
 H1830 H 0.05308 0.00978 0.11442
 H1831 H 0.03621 0.06988 0.12745
 H1832 H 0.00863 0.05317 0.11421
 C1833 C 0.04043 0.54219 0.63315
 C1834 C 0.04193 0.56207 0.63650
 C1835 C 0.04958 0.56896 0.65376
 C1836 C 0.05587 0.55614 0.66808
 C1837 C 0.05417 0.53628 0.66487
 C1838 C 0.04654 0.52936 0.64757
 C1839 C 0.03313 0.53496 0.61440
 C1840 C 0.04217 0.51940 0.60519
 C1841 C 0.03612 0.51338 0.58696
 C1842 C 0.02087 0.52279 0.57752
 C1843 C 0.01150 0.53803 0.58698
 C1844 C 0.01756 0.54404 0.60520
 H1845 H 0.05100 0.58433 0.65579
 H1846 H 0.05883 0.52616 0.67577
 H1847 H 0.04372 0.50163 0.58011
 H1848 H -0.00033 0.54557 0.58019
 H1849 H 0.04536 0.51398 0.64550
 H1850 H 0.05434 0.51225 0.61180
 H1851 H 0.03767 0.57231 0.62556
 H1852 H 0.01013 0.55589 0.61206
 C1853 C 0.54151 0.04373 0.63111
 C1854 C 0.54329 0.06356 0.63463
 C1855 C 0.55051 0.07020 0.65218
 C1856 C 0.55606 0.05719 0.66663
 C1857 C 0.55407 0.03738 0.66323
 C1858 C 0.54689 0.03071 0.64565
 C1859 C 0.53450 0.03671 0.61217
 C1860 C 0.54340 0.02098 0.60313
 C1861 C 0.53729 0.01481 0.58498
 C1862 C 0.52209 0.02420 0.57546
 C1863 C 0.51302 0.03979 0.58464
 C1864 C 0.51917 0.04598 0.60277
 H1865 H 0.55215 0.08553 0.65435
 H1866 H 0.55813 0.02710 0.67422
 H1867 H 0.54467 0.00280 0.57833
 H1868 H 0.50127 0.04737 0.57775
 H1869 H 0.54546 0.01537 0.64345
 H1870 H 0.55541 0.01370 0.60990
 H1871 H 0.53955 0.07393 0.62362
 H1872 H 0.51188 0.05800 0.60947
 C1873 C 0.53894 0.54057 0.13462
 C1874 C 0.54057 0.56044 0.13795
 C1875 C 0.54809 0.56731 0.15528
 C1876 C 0.55409 0.55447 0.16970
 C1877 C 0.55221 0.53462 0.16653
 C1878 C 0.54473 0.52772 0.14916
 C1879 C 0.53180 0.53336 0.11580
 C1880 C 0.54086 0.51775 0.10668
 C1881 C 0.53496 0.51175 0.08840
 C1882 C 0.51982 0.52120 0.07882
 C1883 C 0.51044 0.53650 0.08819
 C1884 C 0.51638 0.54250 0.10645
 H1885 H 0.54966 0.58267 0.15726
 H1886 H 0.55664 0.52447 0.17750
 H1887 H 0.54254 0.49995 0.08162
 H1888 H 0.49870 0.54409 0.08130
 H1889 H 0.54343 0.51235 0.14710
 H1890 H 0.55293 0.51054 0.11342
 H1891 H 0.53655 0.57069 0.12692
 H1892 H 0.50894 0.55439 0.11323
 C1893 C 0.20722 0.54275 0.61612
 C1894 C 0.21982 0.54888 0.60150
 C1895 C 0.21262 0.55675 0.58444
 C1896 C 0.19270 0.55865 0.58163
 C1897 C 0.18009 0.55234 0.59613
 C1898 C 0.18727 0.54447 0.61319
 C1899 C 0.21482 0.53510 0.63459
 C1900 C 0.23080 0.54373 0.64347
 C1901 C 0.23745 0.53711 0.66127
 C1902 C 0.22827 0.52169 0.67062
 C1903 C 0.21246 0.51286 0.66158
 C1904 C 0.20582 0.51950 0.64377
 H1905 H 0.22258 0.56141 0.57338
 H1906 H 0.16468 0.55390 0.59439
 H1907 H 0.24960 0.54434 0.66784
 H1908 H 0.20504 0.50095 0.66834
 H1909 H 0.17720 0.54018 0.62429
 H1910 H 0.23788 0.55595 0.63690
 H1911 H 0.23525 0.54752 0.60324
 H1912 H 0.19362 0.51240 0.63718
 C1913 C 0.21167 0.04174 0.11319
 C1914 C 0.20578 0.02952 0.09818
 C1915 C 0.19786 0.03714 0.08131
 C1916 C 0.19561 0.05710 0.07914
 C1917 C 0.20168 0.06931 0.09406
 C1918 C 0.20965 0.06172 0.11088
 C1919 C 0.21926 0.03376 0.13151
 C1920 C 0.23478 0.04264 0.14093
 C1921 C 0.24099 0.03605 0.15888
 C1922 C 0.23180 0.02042 0.16788
 C1923 C 0.21665 0.01116 0.15816
 C1924 C 0.21047 0.01774 0.14017
 H1925 H 0.19338 0.02748 0.06994
 H1926 H 0.19983 0.08472 0.09286
 H1927 H 0.25274 0.04351 0.16589
 H1928 H 0.20922 -0.00089 0.16465
 H1929 H 0.21374 0.07148 0.12232
 H1930 H 0.24201 0.05484 0.13448
 H1931 H 0.20734 0.01409 0.09948
 H1932 H 0.19835 0.01071 0.13334
 C1933 C 0.71062 0.20792 0.63487
 C1934 C 0.70492 0.22041 0.64973
 C1935 C 0.69739 0.21311 0.66692
 C1936 C 0.69537 0.19319 0.66957
 C1937 C 0.70123 0.18070 0.65479
 C1938 C 0.70880 0.18798 0.63765
 C1939 C 0.71797 0.21559 0.61632
 C1940 C 0.73347 0.20664 0.60691
 C1941 C 0.73977 0.21324 0.58899
 C1942 C 0.73068 0.22895 0.58002
 C1943 C 0.71539 0.23812 0.58961
 C1944 C 0.70912 0.23153 0.60757
 H1945 H 0.69307 0.22298 0.67817
 H1946 H 0.69955 0.16531 0.65637
 H1947 H 0.75159 0.20582 0.58205
 H1948 H 0.70800 0.25021 0.58311
 H1949 H 0.71277 0.17801 0.62635
 H1950 H 0.74073 0.19448 0.61342
 H1951 H 0.70636 0.23582 0.64810
 H1952 H 0.69699 0.23858 0.61436
 C1953 C 0.70777 0.70911 0.13478
 C1954 C 0.68786 0.70720 0.13790
 C1955 C 0.68090 0.69945 0.15510
 C1956 C 0.69369 0.69347 0.16958
 C1957 C 0.71357 0.69559 0.16661
 C1958 C 0.72055 0.70332 0.14938
 C1959 C 0.71511 0.71658 0.11614
 C1960 C 0.70587 0.73199 0.10686
 C1961 C 0.71221 0.73838 0.08886
 C1962 C 0.72793 0.72951 0.07970
 C1963 C 0.73738 0.71431 0.08916
 C1964 C 0.73105 0.70793 0.10717
 H1965 H 0.66553 0.69772 0.15695
 H1966 H 0.72367 0.69118 0.17764
 H1967 H 0.70458 0.75013 0.08202
 H1968 H 0.74949 0.70707 0.08252
 H1969 H 0.73595 0.70482 0.14750
 H1970 H 0.69371 0.73910 0.11351
 H1971 H 0.67766 0.71123 0.12682
 H1972 H 0.73832 0.69587 0.11383
 C1973 C 0.53906 0.70790 0.11668
 C1974 C 0.54049 0.68799 0.11346
 C1975 C 0.54807 0.68096 0.09622
 C1976 C 0.55435 0.69366 0.08180
 C1977 C 0.55269 0.71355 0.08488
 C1978 C 0.54513 0.72061 0.10215
 C1979 C 0.53188 0.71527 0.13542
 C1980 C 0.54106 0.73080 0.14453
 C1981 C 0.53517 0.73688 0.16279
 C1982 C 0.51995 0.72757 0.17237
 C1983 C 0.51042 0.71239 0.16299
 C1984 C 0.51632 0.70631 0.14474
 H1985 H 0.54947 0.66558 0.09430
 H1986 H 0.55733 0.72359 0.07390
 H1987 H 0.54288 0.74859 0.16958
 H1988 H 0.49860 0.70492 0.16987
 H1989 H 0.54401 0.73601 0.10413
 H1990 H 0.55322 0.73786 0.13782
 H1991 H 0.53626 0.67784 0.12449
 H1992 H 0.50878 0.69449 0.13796
 C1993 C 0.03971 0.70872 0.61655
 C1994 C 0.04135 0.68885 0.61320
 C1995 C 0.04907 0.68200 0.59594
 C1996 C 0.05529 0.69486 0.58163
 C1997 C 0.05343 0.71471 0.58484
 C1998 C 0.04574 0.72158 0.60212
 C1999 C 0.03234 0.71591 0.63529
 C2000 C 0.04127 0.73153 0.64451
 C2001 C 0.03517 0.73751 0.66273
 C2002 C 0.01998 0.72802 0.67217
 C2003 C 0.01071 0.71272 0.66270
 C2004 C 0.01683 0.70674 0.64449
 H2005 H 0.05060 0.66664 0.59392
 H2006 H 0.05802 0.72486 0.57395
 H2007 H 0.04268 0.74931 0.66959
 H2008 H -0.00107 0.70511 0.66948
 H2009 H 0.04445 0.73696 0.60419
 H2010 H 0.05340 0.73875 0.63790
 H2011 H 0.03715 0.67859 0.62414
 H2012 H 0.00949 0.69485 0.63763
 C2013 C 0.54059 0.61310 0.21224
 C2014 C 0.52805 0.59845 0.20615
 C2015 C 0.53532 0.58143 0.19827
 C2016 C 0.55527 0.57874 0.19627
 C2017 C 0.56780 0.59328 0.20256
 C2018 C 0.56055 0.61025 0.21048
 C2019 C 0.53298 0.63159 0.21975
 C2020 C 0.54197 0.64083 0.23532
 C2021 C 0.53571 0.65890 0.24148
 C2022 C 0.52031 0.66820 0.23218
 C2023 C 0.51094 0.65868 0.21696
 C2024 C 0.51720 0.64058 0.21083
 H2025 H 0.52541 0.57036 0.19362
 H2026 H 0.58322 0.59168 0.20091
 H2027 H 0.54324 0.66575 0.25329
 H2028 H 0.49906 0.66540 0.20943
 H2029 H 0.57057 0.62139 0.21472
 H2030 H 0.55399 0.63413 0.24266
 H2031 H 0.51261 0.60014 0.20751
 H2032 H 0.51009 0.63392 0.19866
 C2033 C 0.04126 0.61404 0.71118
 C2034 C 0.02903 0.59918 0.70498
 C2035 C 0.03667 0.58241 0.69691
 C2036 C 0.05666 0.58020 0.69482
 C2037 C 0.06889 0.59496 0.70120
 C2038 C 0.06128 0.61168 0.70932
 C2039 C 0.03327 0.63228 0.71890
 C2040 C 0.04209 0.64151 0.73458
 C2041 C 0.03553 0.65941 0.74089
 C2042 C 0.02000 0.66855 0.73165
 C2043 C 0.01077 0.65900 0.71636
 C2044 C 0.01733 0.64106 0.71007
 H2045 H 0.02699 0.57117 0.69219
 H2046 H 0.08433 0.59372 0.69948
 H2047 H 0.04296 0.66628 0.75275
 H2048 H -0.00120 0.66561 0.70887
 H2049 H 0.07106 0.62300 0.71364
 H2050 H 0.05423 0.63495 0.74185
 H2051 H 0.01357 0.60052 0.70641
 H2052 H 0.01035 0.63439 0.69783
 C2053 C 0.04088 0.13429 0.03970
 C2054 C 0.02848 0.14910 0.04570
 C2055 C 0.03592 0.16611 0.05340
 C2056 C 0.05589 0.16863 0.05533
 C2057 C 0.06829 0.15391 0.04916
 C2058 C 0.06087 0.13695 0.04140
 C2059 C 0.03310 0.11584 0.03229
 C2060 C 0.04194 0.10655 0.01666
 C2061 C 0.03555 0.08851 0.01058
 C2062 C 0.02018 0.07930 0.02002
 C2063 C 0.01096 0.08889 0.03529
 C2064 C 0.01734 0.10697 0.04134
 H2065 H 0.02611 0.17732 0.05797
 H2066 H 0.08372 0.15538 0.05076
 H2067 H 0.04296 0.08161 -0.00127
 H2068 H -0.00090 0.08223 0.04291
 H2069 H 0.07078 0.12568 0.03722
 H2070 H 0.05393 0.11316 0.00923
 H2071 H 0.01302 0.14753 0.04438
 H2072 H 0.01036 0.11370 0.05354
 C2073 C 0.04130 0.63683 0.53846
 C2074 C 0.06129 0.63937 0.54035
 C2075 C 0.06872 0.65615 0.54849
 C2076 C 0.05635 0.67079 0.55489
 C2077 C 0.03638 0.66840 0.55277
 C2078 C 0.02892 0.65158 0.54466
 C2079 C 0.03348 0.61852 0.53073
 C2080 C 0.01756 0.60964 0.53950
 C2081 C 0.01115 0.59166 0.53320
 C2082 C 0.02050 0.58216 0.51795
 C2083 C 0.03601 0.59137 0.50877
 C2084 C 0.04243 0.60932 0.51510
 H2085 H 0.08415 0.65753 0.55023
 H2086 H 0.02658 0.67956 0.55749
 H2087 H -0.00081 0.58500 0.54064
 H2088 H 0.04353 0.58453 0.49695
 H2089 H 0.01347 0.65011 0.54321
 H2090 H 0.01049 0.61627 0.55170
 H2091 H 0.07118 0.62814 0.53603
 H2092 H 0.05455 0.61594 0.50787
 C2093 C 0.54350 0.13424 0.54032
 C2094 C 0.53102 0.14915 0.54591
 C2095 C 0.53835 0.16617 0.55371
 C2096 C 0.55827 0.16861 0.55612
 C2097 C 0.57075 0.15378 0.55038
 C2098 C 0.56345 0.13680 0.54255
 C2099 C 0.53580 0.11587 0.53264
 C2100 C 0.54498 0.10655 0.51722
 C2101 C 0.53835 0.08877 0.51063
 C2102 C 0.52238 0.07987 0.51934
 C2103 C 0.51296 0.08940 0.53452
 C2104 C 0.51959 0.10721 0.54108
 H2105 H 0.52848 0.17747 0.55793
 H2106 H 0.58615 0.15521 0.55235
 H2107 H 0.54596 0.08188 0.49890
 H2108 H 0.50067 0.08294 0.54162
 H2109 H 0.57341 0.12546 0.53867
 H2110 H 0.55735 0.11299 0.51027
 H2111 H 0.51561 0.14768 0.54417
 H2112 H 0.51235 0.11394 0.55313
 C2113 C 0.54003 0.63531 0.03919
 C2114 C 0.52771 0.65014 0.04532
 C2115 C 0.53525 0.66701 0.05325
 C2116 C 0.55524 0.66936 0.05527
 C2117 C 0.56754 0.65462 0.04897
 C2118 C 0.56003 0.63780 0.04098
 C2119 C 0.53216 0.61699 0.03158
 C2120 C 0.54099 0.60777 0.01590
 C2121 C 0.53458 0.58978 0.00971
 C2122 C 0.51918 0.58055 0.01907
 C2123 C 0.50992 0.59008 0.03435
 C2124 C 0.51633 0.60811 0.04052
 H2125 H 0.52551 0.67823 0.05791
 H2126 H 0.58298 0.65595 0.05064
 H2127 H 0.54202 0.58292 -0.00216
 H2128 H 0.49805 0.58340 0.04192
 H2129 H 0.56988 0.62651 0.03671
 H2130 H 0.55303 0.61439 0.00855
 H2131 H 0.51225 0.64869 0.04394
 H2132 H 0.50935 0.61478 0.05276
 C2133 C 0.70918 0.11852 0.54378
 C2134 C 0.70744 0.11515 0.56367
 C2135 C 0.69982 0.09785 0.57048
 C2136 C 0.69380 0.08353 0.55755
 C2137 C 0.69574 0.08677 0.53769
 C2138 C 0.70335 0.10408 0.53086
 C2139 C 0.71657 0.13723 0.53658
 C2140 C 0.70789 0.14627 0.52070
 C2141 C 0.71430 0.16423 0.51437
 C2142 C 0.72958 0.17360 0.52378
 C2143 C 0.73845 0.16442 0.53951
 C2144 C 0.73201 0.14646 0.54583
 H2145 H 0.69823 0.09578 0.58585
 H2146 H 0.69132 0.07587 0.52748
 H2147 H 0.70706 0.17090 0.50228
 H2148 H 0.75026 0.17119 0.54710
 H2149 H 0.70475 0.10615 0.51547
 H2150 H 0.69578 0.13966 0.51343
 H2151 H 0.71150 0.12609 0.57399
 H2152 H 0.73916 0.13975 0.55796
 C2153 C 0.70854 0.61764 0.04311
 C2154 C 0.70679 0.61404 0.06296
 C2155 C 0.69959 0.59648 0.06956
 C2156 C 0.69402 0.58213 0.05647
 C2157 C 0.69601 0.58559 0.03665
 C2158 C 0.70319 0.60317 0.03003
 C2159 C 0.71546 0.63661 0.03613
 C2160 C 0.70660 0.64556 0.02029
 C2161 C 0.71261 0.66372 0.01412
 C2162 C 0.72765 0.67336 0.02364
 C2163 C 0.73666 0.66429 0.03936
 C2164 C 0.73062 0.64613 0.04552
 H2165 H 0.69795 0.59424 0.08491
 H2166 H 0.69191 0.57468 0.02632
 H2167 H 0.70528 0.67029 0.00203
 H2168 H 0.74829 0.67127 0.04703
 H2169 H 0.70462 0.60541 0.01466
 H2170 H 0.69470 0.63872 0.01292
 H2171 H 0.71050 0.62499 0.07340
 H2172 H 0.73789 0.63951 0.05762
 C2173 C 0.20893 0.63230 0.70623
 C2174 C 0.20687 0.63542 0.68633
 C2175 C 0.19921 0.65267 0.67943
 C2176 C 0.19349 0.66719 0.69227
 C2177 C 0.19578 0.66421 0.71214
 C2178 C 0.20340 0.64694 0.71906
 C2179 C 0.21632 0.61364 0.71353
 C2180 C 0.20770 0.60474 0.72952
 C2181 C 0.21404 0.58675 0.73586
 C2182 C 0.22918 0.57724 0.72636
 C2183 C 0.23802 0.58632 0.71056
 C2184 C 0.23165 0.60430 0.70422
 H2185 H 0.19736 0.65453 0.66406
 H2186 H 0.19160 0.67527 0.72228
 H2187 H 0.20684 0.58017 0.74802
 H2188 H 0.24973 0.57944 0.70289
 H2189 H 0.20504 0.64505 0.73445
 H2190 H 0.19569 0.61147 0.73685
 H2191 H 0.21070 0.62432 0.67610
 H2192 H 0.23873 0.61090 0.69200
 C2193 C 0.21237 0.13433 0.20738
 C2194 C 0.21028 0.13717 0.18745
 C2195 C 0.20229 0.15417 0.18032
 C2196 C 0.19626 0.16875 0.19296
 C2197 C 0.19862 0.16607 0.21288
 C2198 C 0.20656 0.14902 0.22002
 C2199 C 0.21988 0.11580 0.21489
 C2200 C 0.21114 0.10687 0.23080
 C2201 C 0.21724 0.08874 0.23698
 C2202 C 0.23228 0.07912 0.22741
 C2203 C 0.24142 0.08835 0.21187
 C2204 C 0.23528 0.10646 0.20568
 H2205 H 0.20039 0.15577 0.16493
 H2206 H 0.19419 0.17716 0.22287
 H2207 H 0.20984 0.08207 0.24898
 H2208 H 0.25307 0.08141 0.20418
 H2209 H 0.20819 0.14733 0.23544
 H2210 H 0.19911 0.11361 0.23807
 H2211 H 0.21431 0.12601 0.17736
 H2212 H 0.24248 0.11310 0.19355
 C2213 C 0.70870 1.13341 0.71057
 C2214 C 0.72131 1.14810 0.70473
 C2215 C 0.71412 1.16535 0.69729
 C2216 C 0.69418 1.16823 0.69549
 C2217 C 0.68158 1.15363 0.70150
 C2218 C 0.68875 1.13643 0.70898
 C2219 C 0.71622 1.11474 0.71769
 C2220 C 0.70727 1.10531 0.73319
 C2221 C 0.71350 1.08713 0.73906
 C2222 C 0.72883 1.07793 0.72956
 C2223 C 0.73812 1.08761 0.71439
 C2224 C 0.73189 1.10581 0.70854
 H2225 H 0.72409 1.17647 0.69285
 H2226 H 0.66616 1.15539 0.69999
 H2227 H 0.70603 1.08016 0.75084
 H2228 H 0.74994 1.08095 0.70671
 H2229 H 0.67867 1.12526 0.71304
 H2230 H 0.69533 1.11195 0.74070
 H2231 H 0.73674 1.14627 0.70597
 H2232 H 0.73895 1.11262 0.69642
 C2233 C 0.71082 0.63250 0.20841
 C2234 C 0.70892 0.63558 0.18849
 C2235 C 0.70123 0.65277 0.18149
 C2236 C 0.69532 0.66728 0.19424
 C2237 C 0.69748 0.66436 0.21414
 C2238 C 0.70513 0.64713 0.22116
 C2239 C 0.71810 0.61381 0.21576
 C2240 C 0.70919 0.60482 0.23154
 C2241 C 0.71516 0.58660 0.23763
 C2242 C 0.73021 0.57698 0.22808
 C2243 C 0.73947 0.58626 0.21265
 C2244 C 0.73347 0.60444 0.20656
 H2245 H 0.69946 0.65456 0.16610
 H2246 H 0.69313 0.67541 0.22423
 H2247 H 0.70766 0.57990 0.24954
 H2248 H 0.75115 0.57933 0.20498
 H2249 H 0.70662 0.64525 0.23657
 H2250 H 0.69717 0.61158 0.23880
 H2251 H 0.71287 0.62447 0.17831
 H2252 H 0.74080 0.61114 0.19453
 C2253 C 0.54155 0.11527 0.70962
 C2254 C 0.52914 0.10072 0.70303
 C2255 C 0.53658 0.08382 0.69506
 C2256 C 0.55656 0.08114 0.69348
 C2257 C 0.56896 0.09558 0.70024
 C2258 C 0.56155 0.11244 0.70824
 C2259 C 0.53378 0.13363 0.71728
 C2260 C 0.54249 0.14264 0.73316
 C2261 C 0.53608 0.16060 0.73949
 C2262 C 0.52081 0.17000 0.73008
 C2263 C 0.51173 0.16070 0.71455
 C2264 C 0.51814 0.14273 0.70824
 H2265 H 0.52676 0.07282 0.69004
 H2266 H 0.58441 0.09397 0.69893
 H2267 H 0.54338 0.16728 0.75154
 H2268 H 0.49997 0.16752 0.70692
 H2269 H 0.57148 0.12351 0.71286
 H2270 H 0.55438 0.13585 0.74060
 H2271 H 0.51368 0.10240 0.70410
 H2272 H 0.51126 0.13625 0.69584
 C2273 C 1.04134 0.11339 0.21217
 C2274 C 1.02877 0.09861 0.20646
 C2275 C 1.03600 0.08153 0.19867
 C2276 C 1.05592 0.07890 0.19640
 C2277 C 1.06848 0.09358 0.20231
 C2278 C 1.06128 0.11061 0.21014
 C2279 C 1.03377 0.13193 0.21959
 C2280 C 1.01785 0.14078 0.21079
 C2281 C 1.01162 0.15892 0.21683
 C2282 C 1.02116 0.16861 0.23184
 C2283 C 1.03671 0.15945 0.24103
 C2284 C 1.04295 0.14134 0.23496
 H2285 H 1.02606 0.07036 0.19431
 H2286 H 1.08388 0.09202 0.20044
 H2287 H 0.99962 0.16554 0.20940
 H2288 H 1.04437 0.16643 0.25267
 H2289 H 1.07132 0.12184 0.21409
 H2290 H 1.01061 0.13398 0.19879
 H2291 H 1.01335 0.10026 0.20804
 H2292 H 1.05508 0.13475 0.24220
 C2293 C 0.20883 0.62009 0.54321
 C2294 C 0.20684 0.61694 0.56311
 C2295 C 0.19938 0.59962 0.57002
 C2296 C 0.19377 0.58505 0.55719
 C2297 C 0.19599 0.58806 0.53731
 C2298 C 0.20342 0.60541 0.53038
 C2299 C 0.21602 0.63882 0.53590
 C2300 C 0.20728 0.64766 0.51994
 C2301 C 0.21345 0.66572 0.51361
 C2302 C 0.22855 0.67533 0.52306
 C2303 C 0.23751 0.66630 0.53883
 C2304 C 0.23131 0.64827 0.54517
 H2305 H 0.19758 0.59774 0.58539
 H2306 H 0.19189 0.57697 0.52718
 H2307 H 0.20616 0.67225 0.50147
 H2308 H 0.24918 0.67326 0.54646
 H2309 H 0.20500 0.60733 0.51499
 H2310 H 0.19531 0.64085 0.51265
 H2311 H 0.21060 0.62807 0.57334
 H2312 H 0.23848 0.64171 0.55736
 C2313 C 0.20729 0.11803 1.03937
 C2314 C 0.18742 0.11471 1.04124
 C2315 C 0.18062 0.09723 1.04843
 C2316 C 0.19354 0.08266 1.05387
 C2317 C 0.21340 0.08587 1.05179
 C2318 C 0.22021 0.10338 1.04464
 C2319 C 0.21445 0.13690 1.03239
 C2320 C 0.23026 0.14583 1.04130
 C2321 C 0.23643 0.16400 1.03530
 C2322 C 0.22697 0.17363 1.02020
 C2323 C 0.21136 0.16452 1.01109
 C2324 C 0.20517 0.14638 1.01712
 H2325 H 0.16527 0.09522 1.05016
 H2326 H 0.22360 0.07479 1.05578
 H2327 H 0.24846 0.17060 1.04270
 H2328 H 0.20373 0.17148 0.99941
 H2329 H 0.23559 0.10544 1.04315
 H2330 H 0.23755 0.13898 1.05325
 H2331 H 0.17712 0.12582 1.03759
 H2332 H 0.19311 0.13976 1.00982
 C2333 C 0.20659 0.70960 0.63336
 C2334 C 0.18665 0.70776 0.63630
 C2335 C 0.17953 0.69984 0.65336
 C2336 C 0.19218 0.69360 0.66785
 C2337 C 0.21209 0.69562 0.66504
 C2338 C 0.21923 0.70354 0.64797
 C2339 C 0.21413 0.71730 0.61489
 C2340 C 0.20503 0.73288 0.60575
 C2341 C 0.21161 0.73956 0.58794
 C2342 C 0.22746 0.73082 0.57886
 C2343 C 0.23675 0.71544 0.58818
 C2344 C 0.23016 0.70877 0.60598
 H2345 H 0.16412 0.69819 0.65509
 H2346 H 0.22208 0.69102 0.67609
 H2347 H 0.20411 0.75145 0.58120
 H2348 H 0.24892 0.70829 0.58158
 H2349 H 0.23465 0.70499 0.64623
 H2350 H 0.19279 0.73991 0.61237
 H2351 H 0.17655 0.71200 0.62521
 H2352 H 0.23732 0.69658 0.61254
 C2353 C 0.20753 0.21008 1.13290
 C2354 C 0.22054 0.20461 1.14742
 C2355 C 0.21385 0.19696 1.16479
 C2356 C 0.19403 0.19462 1.16800
 C2357 C 0.18101 0.20030 1.15360
 C2358 C 0.18768 0.20796 1.13625
 C2359 C 0.21459 0.21743 1.11409
 C2360 C 0.20511 0.23265 1.10474
 C2361 C 0.21126 0.23898 1.08665
 C2362 C 0.22702 0.23019 1.07746
 C2363 C 0.23667 0.21515 1.08697
 C2364 C 0.23054 0.20886 1.10507
 H2365 H 0.22412 0.19280 1.17576
 H2366 H 0.16568 0.19839 1.15563
 H2367 H 0.20348 0.25060 1.07977
 H2368 H 0.24882 0.20799 1.08032
 H2369 H 0.17731 0.21175 1.12524
 H2370 H 0.19292 0.23969 1.11144
 H2371 H 0.23590 0.20629 1.14536
 H2372 H 0.23798 0.19693 1.11179
 C2373 C 0.70874 0.53851 0.11409
 C2374 C 0.72105 0.54519 0.09948
 C2375 C 0.71351 0.55339 0.08271
 C2376 C 0.69352 0.55509 0.08022
 C2377 C 0.68121 0.54822 0.09471
 C2378 C 0.68872 0.54000 0.11145
 C2379 C 0.71663 0.53069 0.13237
 C2380 C 0.73235 0.53962 0.14142
 C2381 C 0.73883 0.53322 0.15936
 C2382 C 0.72974 0.51772 0.16868
 C2383 C 0.71442 0.50839 0.15931
 C2384 C 0.70794 0.51481 0.14137
 H2385 H 0.72326 0.55849 0.07167
 H2386 H 0.66575 0.54962 0.09325
 H2387 H 0.75064 0.54079 0.16616
 H2388 H 0.70711 0.49638 0.16601
 H2389 H 0.67886 0.53530 0.12257
 H2390 H 0.73922 0.55202 0.13495
 H2391 H 0.73653 0.54406 0.10102
 H2392 H 0.69598 0.50745 0.13461
 C2393 C 0.70802 1.03984 0.61532
 C2394 C 0.68802 1.04173 0.61280
 C2395 C 0.68057 1.05008 0.59610
 C2396 C 0.69292 1.05669 0.58153
 C2397 C 0.71289 1.05460 0.58389
 C2398 C 0.72038 1.04627 0.60063
 C2399 C 0.71587 1.03190 0.63355
 C2400 C 0.70694 1.01620 0.64264
 C2401 C 0.71342 1.00970 0.66055
 C2402 C 0.72897 1.01878 0.66980
 C2403 C 0.73828 1.03409 0.66039
 C2404 C 0.73181 1.04056 0.64248
 H2405 H 0.66513 1.05177 0.59473
 H2406 H 0.72267 1.05948 0.57277
 H2407 H 0.70592 0.99784 0.66733
 H2408 H 0.75027 1.04145 0.66709
 H2409 H 0.73583 1.04483 0.60206
 H2410 H 0.69480 1.00906 0.63597
 H2411 H 0.67814 1.03723 0.62399
 H2412 H 0.73886 1.05282 0.63594
 C2413 C 0.54059 0.20863 0.61613
 C2414 C 0.54701 0.22100 0.60146
 C2415 C 0.55501 0.21353 0.58456
 C2416 C 0.55678 0.19358 0.58201
 C2417 C 0.55019 0.18122 0.59659
 C2418 C 0.54216 0.18866 0.61344
 C2419 C 0.53291 0.21643 0.63450
 C2420 C 0.51713 0.20765 0.64361
 C2421 C 0.51084 0.21402 0.66161
 C2422 C 0.52019 0.22934 0.67096
 C2423 C 0.53558 0.23853 0.66154
 C2424 C 0.54185 0.23215 0.64352
 H2425 H 0.55989 0.22331 0.57345
 H2426 H 0.55165 0.16580 0.59508
 H2427 H 0.49889 0.20664 0.66838
 H2428 H 0.54316 0.25033 0.66832
 H2429 H 0.53767 0.17876 0.62462
 H2430 H 0.50976 0.19569 0.63688
 H2431 H 0.54581 0.23644 0.60303
 H2432 H 0.55417 0.23909 0.63695
 C2433 C 1.03953 0.20772 0.11631
 C2434 C 1.04117 0.18780 0.11332
 C2435 C 1.04879 0.18064 0.09616
 C2436 C 1.05491 0.19323 0.08157
 C2437 C 1.05307 0.21313 0.08442
 C2438 C 1.04547 0.22032 0.10162
 C2439 C 1.03229 0.21524 0.13497
 C2440 C 1.01682 0.20624 0.14438
 C2441 C 1.01089 0.21243 0.16258
 C2442 C 1.02031 0.22777 0.17181
 C2443 C 1.03543 0.23713 0.16213
 C2444 C 1.04134 0.23094 0.14391
 H2445 H 1.05033 0.16524 0.09441
 H2446 H 1.05759 0.22309 0.07331
 H2447 H 0.99915 0.20492 0.16955
 H2448 H 1.04306 0.24896 0.16880
 H2449 H 1.04420 0.23573 0.10343
 H2450 H 1.00938 0.19429 0.13772
 H2451 H 1.03704 0.17773 0.12448
 H2452 H 1.05344 0.23803 0.13712
 C2453 C 0.63492 0.20981 0.70945
 C2454 C 0.63772 0.20820 0.68946
 C2455 C 0.65478 0.20055 0.68211
 C2456 C 0.66947 0.19438 0.69457
 C2457 C 0.66682 0.19621 0.71454
 C2458 C 0.64970 0.20382 0.72192
 C2459 C 0.61638 0.21712 0.71716
 C2460 C 0.60702 0.23268 0.70829
 C2461 C 0.58892 0.23871 0.71465
 C2462 C 0.57973 0.22928 0.73004
 C2463 C 0.58936 0.21405 0.73927
 C2464 C 0.60749 0.20806 0.73291
 H2465 H 0.65636 0.19903 0.66667
 H2466 H 0.67800 0.19165 0.72440
 H2467 H 0.58199 0.25053 0.70723
 H2468 H 0.58270 0.20643 0.75113
 H2469 H 0.64804 0.20507 0.73737
 H2470 H 0.61365 0.24013 0.69630
 H2471 H 0.62647 0.21237 0.67950
 H2472 H 0.61425 0.19589 0.73991
 C2473 C 1.13549 0.20762 0.21085
 C2474 C 1.13853 0.18770 0.20915
 C2475 C 1.15556 0.18061 0.20116
 C2476 C 1.16994 0.19326 0.19473
 C2477 C 1.16706 0.21315 0.19669
 C2478 C 1.15001 0.22027 0.20465
 C2479 C 1.11693 0.21508 0.21839
 C2480 C 1.10781 0.23076 0.20946
 C2481 C 1.08970 0.23695 0.21568
 C2482 C 1.08030 0.22762 0.23100
 C2483 C 1.08970 0.21228 0.24028
 C2484 C 1.10779 0.20608 0.23404
 H2485 H 1.15732 0.16523 0.19956
 H2486 H 1.17802 0.22316 0.19194
 H2487 H 1.08290 0.24878 0.20815
 H2488 H 1.08293 0.20478 0.25216
 H2489 H 1.14817 0.23567 0.20597
 H2490 H 1.11438 0.23785 0.19723
 H2491 H 1.12750 0.17759 0.21349
 H2492 H 1.11459 0.19413 0.24138
 C2493 C 0.11654 0.71175 0.54309
 C2494 C 0.10184 0.70638 0.53026
 C2495 C 0.08452 0.69881 0.53717
 C2496 C 0.08157 0.69640 0.55704
 C2497 C 0.09618 0.70194 0.56987
 C2498 C 0.11346 0.70955 0.56298
 C2499 C 0.13524 0.71913 0.53581
 C2500 C 0.14462 0.73437 0.54520
 C2501 C 0.16263 0.74073 0.53888
 C2502 C 0.17171 0.73196 0.52304
 C2503 C 0.16216 0.71691 0.51347
 C2504 C 0.14412 0.71059 0.51976
 H2505 H 0.07340 0.69475 0.52703
 H2506 H 0.09436 0.69997 0.58523
 H2507 H 0.16954 0.75235 0.54662
 H2508 H 0.16873 0.70978 0.50126
 H2509 H 0.12462 0.71326 0.57322
 H2510 H 0.13803 0.74138 0.55746
 H2511 H 0.10370 0.70812 0.51488
 H2512 H 0.13736 0.69866 0.51238
 C2513 C 0.11596 0.20941 1.04244
 C2514 C 0.10123 0.20375 1.02977
 C2515 C 0.08395 0.19631 1.03690
 C2516 C 0.08107 0.19431 1.05682
 C2517 C 0.09572 0.20012 1.06949
 C2518 C 0.11297 0.20762 1.06238
 C2519 C 0.13458 0.21675 1.03494
 C2520 C 0.14384 0.23228 1.04395
 C2521 C 0.16175 0.23869 1.03742
 C2522 C 0.17086 0.22968 1.02174
 C2523 C 0.16144 0.21430 1.01255
 C2524 C 0.14350 0.20794 1.01906
 H2525 H 0.07280 0.19203 1.02689
 H2526 H 0.09397 0.19847 1.08489
 H2527 H 0.16855 0.25057 1.04486
 H2528 H 0.16805 0.20697 1.00048
 H2529 H 0.12416 0.21156 1.07249
 H2530 H 0.13722 0.23951 1.05607
 H2531 H 0.10304 0.20517 1.01435
 H2532 H 0.13682 0.19578 1.01197
 C2533 C 0.61507 0.53737 0.20857
 C2534 C 0.60036 0.54290 0.22134
 C2535 C 0.58310 0.55053 0.21433
 C2536 C 0.58022 0.55284 0.19444
 C2537 C 0.59483 0.54713 0.18168
 C2538 C 0.61204 0.53945 0.18866
 C2539 C 0.63376 0.53003 0.21590
 C2540 C 0.64316 0.51476 0.20657
 C2541 C 0.66135 0.50870 0.21264
 C2542 C 0.67060 0.51779 0.22820
 C2543 C 0.66094 0.53272 0.23786
 C2544 C 0.64272 0.53875 0.23180
 H2545 H 0.57198 0.55474 0.22442
 H2546 H 0.59308 0.54903 0.16630
 H2547 H 0.66830 0.49712 0.20488
 H2548 H 0.66763 0.54008 0.24987
 H2549 H 0.62321 0.53564 0.17848
 H2550 H 0.63649 0.50758 0.19445
 H2551 H 0.60220 0.54127 0.23674
 H2552 H 0.63593 0.55068 0.23916
 C2553 C 0.61538 1.03896 0.70757
 C2554 C 0.61308 1.04111 0.68757
 C2555 C 0.59624 1.04908 0.68001
 C2556 C 0.58130 1.05503 0.69227
 C2557 C 0.58347 1.05266 0.71225
 C2558 C 0.60036 1.04475 0.71984
 C2559 C 0.63369 1.03130 0.71552
 C2560 C 0.64235 1.03995 0.73163
 C2561 C 0.66032 1.03369 0.73819
 C2562 C 0.67001 1.01859 0.72881
 C2563 C 0.66101 1.00954 0.71309
 C2564 C 0.64308 1.01584 0.70653
 H2565 H 0.59505 1.05101 0.66459
 H2566 H 0.57209 1.05703 0.72196
 H2567 H 0.66683 1.04102 0.75030
 H2568 H 0.66799 0.99784 0.70554
 H2569 H 0.60165 1.04309 0.73529
 H2570 H 0.63554 1.05202 0.73875
 H2571 H 0.62452 1.03710 0.67777
 H2572 H 0.63662 1.00871 0.69426
 C2573 C 0.88235 0.45465 0.29110
 C2574 C 0.88501 0.43472 0.29322
 C2575 C 0.90203 0.42746 0.30108
 C2576 C 0.91679 0.43995 0.30694
 C2577 C 0.91425 0.45985 0.30464
 C2578 C 0.89720 0.46714 0.29683
 C2579 C 0.86396 0.46232 0.28337
 C2580 C 0.85521 0.47847 0.29183
 C2581 C 0.83741 0.48510 0.28520
 C2582 C 0.82796 0.47576 0.26993
 C2583 C 0.83693 0.45985 0.26122
 C2584 C 0.85471 0.45321 0.26788
 H2585 H 0.90355 0.41207 0.30294
 H2586 H 0.92550 0.46973 0.30894
 H2587 H 0.83090 0.49735 0.29231
 H2588 H 0.83009 0.45229 0.24943
 H2589 H 0.89566 0.48254 0.29516
 H2590 H 0.86188 0.48566 0.30394
 H2591 H 0.87372 0.42475 0.28924
 H2592 H 0.86121 0.44088 0.26091
 C2593 C 0.88110 0.95492 0.79281
 C2594 C 0.88337 0.93493 0.79469
 C2595 C 0.90015 0.92725 0.80267
 C2596 C 0.91504 0.93940 0.80890
 C2597 C 0.91287 0.95938 0.80689
 C2598 C 0.89605 0.96707 0.79895
 C2599 C 0.86298 0.96300 0.78485
 C2600 C 0.85426 0.97910 0.79342
 C2601 C 0.83661 0.98601 0.78662
 C2602 C 0.82733 0.97699 0.77105
 C2603 C 0.83634 0.96117 0.76219
 C2604 C 0.85394 0.95427 0.76902
 H2605 H 0.90137 0.91182 0.80432
 H2606 H 0.92423 0.96900 0.81148
 H2607 H 0.83007 0.99816 0.79385
 H2608 H 0.82964 0.95387 0.75016
 H2609 H 0.89479 0.98253 0.79749
 H2610 H 0.86078 0.98601 0.80578
 H2611 H 0.87197 0.92521 0.79039
 H2612 H 0.86045 0.94200 0.76196
 C2613 C 0.36669 0.28956 0.79227
 C2614 C 0.35209 0.29503 0.77935
 C2615 C 0.33472 0.30256 0.78615
 C2616 C 0.33158 0.30480 0.80600
 C2617 C 0.34603 0.29908 0.81894
 C2618 C 0.36339 0.29153 0.81215
 C2619 C 0.38551 0.28241 0.78509
 C2620 C 0.39501 0.26719 0.79442
 C2621 C 0.41313 0.26106 0.78816
 C2622 C 0.42218 0.27002 0.77241
 C2623 C 0.41252 0.28506 0.76291
 C2624 C 0.39440 0.29116 0.76916
 H2625 H 0.32371 0.30674 0.77593
 H2626 H 0.34406 0.30090 0.83429
 H2627 H 0.42013 0.24944 0.79583
 H2628 H 0.41906 0.29235 0.75078
 H2629 H 0.37446 0.28773 0.82246
 H2630 H 0.38843 0.26002 0.80660
 H2631 H 0.35411 0.29345 0.76396
 H2632 H 0.38757 0.30309 0.76183
 C2633 C 0.86819 0.28995 0.29409
 C2634 C 0.86520 0.29189 0.31402
 C2635 C 0.84800 0.29956 0.32107
 C2636 C 0.83341 0.30544 0.30836
 C2637 C 0.83628 0.30331 0.28846
 C2638 C 0.85350 0.29566 0.28138
 C2639 C 0.88680 0.28251 0.28663
 C2640 C 0.89563 0.29114 0.27060
 C2641 C 0.91357 0.28476 0.26412
 C2642 C 0.92310 0.26956 0.27349
 C2643 C 0.91409 0.26070 0.28932
 C2644 C 0.89616 0.26712 0.29581
 H2645 H 0.84624 0.30130 0.33647
 H2646 H 0.82517 0.30762 0.27841
 H2647 H 0.92010 0.29198 0.25194
 H2648 H 0.92099 0.24896 0.29690
 H2649 H 0.85529 0.29412 0.26597
 H2650 H 0.88890 0.30320 0.26338
 H2651 H 0.87636 0.28792 0.32416
 H2652 H 0.88961 0.26002 0.30805
 C2653 C 0.38433 0.79353 0.46127
 C2654 C 0.38719 0.81345 0.45937
 C2655 C 0.40422 0.82061 0.45145
 C2656 C 0.41879 0.80802 0.44530
 C2657 C 0.41607 0.78813 0.44743
 C2658 C 0.39901 0.78094 0.45531
 C2659 C 0.36580 0.78601 0.46881
 C2660 C 0.35683 0.77019 0.45999
 C2661 C 0.33871 0.76397 0.46616
 C2662 C 0.32917 0.77342 0.48132
 C2663 C 0.33844 0.78888 0.49051
 C2664 C 0.35653 0.79510 0.48431
 H2665 H 0.40585 0.83599 0.44971
 H2666 H 0.42717 0.77817 0.44290
 H2667 H 0.33201 0.75205 0.45872
 H2668 H 0.33156 0.79648 0.50226
 H2669 H 0.39730 0.76554 0.45679
 H2670 H 0.36351 0.76301 0.44788
 H2671 H 0.37603 0.82351 0.46351
 H2672 H 0.36322 0.80716 0.49157
 C2673 C 0.38242 0.29339 0.95893
 C2674 C 0.38484 0.31338 0.95711
 C2675 C 0.40168 0.32095 0.94918
 C2676 C 0.41652 0.30872 0.94295
 C2677 C 0.41423 0.28875 0.94496
 C2678 C 0.39733 0.28115 0.95283
 C2679 C 0.36413 0.28544 0.96659
 C2680 C 0.35534 0.26953 0.95775
 C2681 C 0.33737 0.26298 0.96403
 C2682 C 0.32781 0.27219 0.97933
 C2683 C 0.33694 0.28770 0.98857
 C2684 C 0.35487 0.29425 0.98226
 H2685 H 0.40298 0.33637 0.94754
 H2686 H 0.42553 0.27906 0.94036
 H2687 H 0.33077 0.25103 0.95655
 H2688 H 0.33006 0.29511 1.00044
 H2689 H 0.39596 0.26570 0.95423
 H2690 H 0.36204 0.26256 0.94553
 H2691 H 0.37348 0.32316 0.96135
 H2692 H 0.36143 0.30636 0.98955
 C2693 C 0.79265 0.45567 0.38103
 C2694 C 0.79846 0.46860 0.39547
 C2695 C 0.80593 0.46184 0.41289
 C2696 C 0.80777 0.44201 0.41624
 C2697 C 0.80178 0.42907 0.40193
 C2698 C 0.79430 0.43582 0.38452
 C2699 C 0.78536 0.46281 0.36223
 C2700 C 0.76990 0.45360 0.35298
 C2701 C 0.76351 0.45990 0.33496
 C2702 C 0.77242 0.47556 0.32576
 C2703 C 0.78773 0.48492 0.33514
 C2704 C 0.79411 0.47861 0.35315
 H2705 H 0.81034 0.47206 0.42379
 H2706 H 0.80330 0.41373 0.40408
 H2707 H 0.75167 0.45235 0.32819
 H2708 H 0.79501 0.49696 0.32845
 H2709 H 0.79024 0.42549 0.37358
 H2710 H 0.76271 0.44153 0.35971
 H2711 H 0.79713 0.48397 0.39333
 H2712 H 0.80622 0.48584 0.35978
 C2713 C 0.79335 0.95732 0.88176
 C2714 C 0.78076 0.95205 0.89670
 C2715 C 0.78796 0.94495 0.91410
 C2716 C 0.80789 0.94289 0.91689
 C2717 C 0.82048 0.94830 0.90202
 C2718 C 0.81330 0.95547 0.88465
 C2719 C 0.78577 0.96440 0.86307
 C2720 C 0.79476 0.97978 0.85353
 C2721 C 0.78810 0.98599 0.83560
 C2722 C 0.77231 0.97693 0.82674
 C2723 C 0.76316 0.96169 0.83641
 C2724 C 0.76980 0.95552 0.85439
 H2725 H 0.77800 0.94098 0.92542
 H2726 H 0.83588 0.94659 0.90371
 H2727 H 0.79552 0.99776 0.82858
 H2728 H 0.75101 0.95434 0.82999
 H2729 H 0.82334 0.95913 0.87331
 H2730 H 0.80695 0.98704 0.85996
 H2731 H 0.76534 0.95354 0.89497
 H2732 H 0.76272 0.94349 0.86130
 C2733 C 0.29023 0.79349 0.36682
 C2734 C 0.29213 0.81341 0.36399
 C2735 C 0.30025 0.82060 0.34706
 C2736 C 0.30662 0.80803 0.33256
 C2737 C 0.30448 0.78813 0.33524
 C2738 C 0.29638 0.78092 0.35221
 C2739 C 0.28253 0.78592 0.38528
 C2740 C 0.29128 0.77009 0.39431
 C2741 C 0.28499 0.76386 0.41238
 C2742 C 0.26977 0.77329 0.42183
 C2743 C 0.26062 0.78875 0.41250
 C2744 C 0.26694 0.79500 0.39444
 H2745 H 0.30198 0.83598 0.34544
 H2746 H 0.30916 0.77819 0.32419
 H2747 H 0.29240 0.75193 0.41914
 H2748 H 0.24883 0.79634 0.41931
 H2749 H 0.29491 0.76551 0.35389
 H2750 H 0.30345 0.76293 0.38772
 H2751 H 0.28783 0.82345 0.37510
 H2752 H 0.25973 0.80706 0.38771
 C2753 C 0.28876 0.29203 0.86473
 C2754 C 0.29062 0.31193 0.86168
 C2755 C 0.29866 0.31894 0.84464
 C2756 C 0.30498 0.30623 0.83025
 C2757 C 0.30290 0.28636 0.83315
 C2758 C 0.29488 0.27932 0.85022
 C2759 C 0.28117 0.28464 0.88330
 C2760 C 0.28996 0.26887 0.89240
 C2761 C 0.28373 0.26274 0.91051
 C2762 C 0.26854 0.27223 0.91997
 C2763 C 0.25938 0.28766 0.91060
 C2764 C 0.26564 0.29380 0.89249
 H2765 H 0.30035 0.33431 0.84285
 H2766 H 0.30757 0.27632 0.82219
 H2767 H 0.29115 0.25083 0.91729
 H2768 H 0.24762 0.29528 0.91742
 H2769 H 0.29344 0.26393 0.85206
 H2770 H 0.30209 0.26166 0.88579
 H2771 H 0.28636 0.32208 0.87271
 H2772 H 0.25841 0.30582 0.88571
 C2773 C 0.45629 0.29224 0.88242
 C2774 C 0.43630 0.29373 0.88520
 C2775 C 0.42889 0.30150 0.90220
 C2776 C 0.44131 0.30791 0.91682
 C2777 C 0.46128 0.30626 0.91415
 C2778 C 0.46871 0.29853 0.89711
 C2779 C 0.46410 0.28459 0.86404
 C2780 C 0.45544 0.26871 0.85503
 C2781 C 0.46222 0.26206 0.83730
 C2782 C 0.47782 0.27116 0.82813
 C2783 C 0.48668 0.28686 0.83733
 C2784 C 0.47991 0.29347 0.85508
 H2785 H 0.41345 0.30286 0.90381
 H2786 H 0.47110 0.31099 0.92528
 H2787 H 0.45504 0.24994 0.83066
 H2788 H 0.49866 0.29427 0.83066
 H2789 H 0.48416 0.29736 0.89547
 H2790 H 0.44339 0.26142 0.86170
 H2791 H 0.42637 0.28930 0.87402
 H2792 H 0.48673 0.30589 0.86156
 C2793 C 0.95781 0.29249 0.38308
 C2794 C 0.93784 0.29391 0.38604
 C2795 C 0.93056 0.30183 0.40302
 C2796 C 0.94309 0.30847 0.41744
 C2797 C 0.96304 0.30690 0.41459
 C2798 C 0.97034 0.29901 0.39757
 C2799 C 0.96546 0.28467 0.36472
 C2800 C 0.95679 0.26866 0.35597
 C2801 C 0.96344 0.26184 0.33825
 C2802 C 0.97891 0.27090 0.32884
 C2803 C 0.98778 0.28674 0.33778
 C2804 C 0.98115 0.29352 0.35552
 H2805 H 0.91513 0.30314 0.40477
 H2806 H 0.97295 0.31181 0.42557
 H2807 H 0.95625 0.24961 0.33181
 H2808 H 0.99967 0.29413 0.33092
 H2809 H 0.98579 0.29790 0.39579
 H2810 H 0.94484 0.26139 0.36283
 H2811 H 0.92782 0.28932 0.37501
 H2812 H 0.98797 0.30604 0.36179
 C2813 C 0.45898 0.38200 0.79298
 C2814 C 0.45690 0.38498 0.81290
 C2815 C 0.44945 0.40226 0.81992
 C2816 C 0.44398 0.41698 0.80718
 C2817 C 0.44627 0.41413 0.78729
 C2818 C 0.45366 0.39680 0.78025
 C2819 C 0.46624 0.36334 0.78558
 C2820 C 0.45756 0.35456 0.76957
 C2821 C 0.46379 0.33655 0.76317
 C2822 C 0.47892 0.32694 0.77260
 C2823 C 0.48783 0.33593 0.78841
 C2824 C 0.48155 0.35390 0.79483
 H2825 H 0.44757 0.40401 0.83530
 H2826 H 0.44227 0.42533 0.77723
 H2827 H 0.45655 0.33005 0.75099
 H2828 H 0.49952 0.32898 0.79604
 H2829 H 0.45532 0.39501 0.76485
 H2830 H 0.44558 0.36139 0.76229
 H2831 H 0.46057 0.37374 0.82305
 H2832 H 0.48868 0.36042 0.80706
 C2833 C 0.95850 0.38053 0.29375
 C2834 C 0.95235 0.39510 0.28113
 C2835 C 0.94460 0.41221 0.28832
 C2836 C 0.94281 0.41508 0.30826
 C2837 C 0.94911 0.40060 0.32088
 C2838 C 0.95689 0.38353 0.31371
 C2839 C 0.96611 0.36206 0.28619
 C2840 C 0.98187 0.35303 0.29508
 C2841 C 0.98845 0.33519 0.28856
 C2842 C 0.97940 0.32595 0.27298
 C2843 C 0.96385 0.33517 0.26386
 C2844 C 0.95731 0.35303 0.27038
 H2845 H 0.93997 0.42324 0.27834
 H2846 H 0.94764 0.40238 0.33630
 H2847 H 1.00046 0.32854 0.29594
 H2848 H 0.95648 0.32846 0.25188
 H2849 H 0.96121 0.37245 0.32379
 H2850 H 0.98911 0.35975 0.30714
 H2851 H 0.95362 0.39331 0.26569
 H2852 H 0.94498 0.35952 0.26337
 C2853 C 0.29134 0.88701 0.46028
 C2854 C 0.31135 0.88965 0.45874
 C2855 C 0.31883 0.90640 0.45057
 C2856 C 0.30650 0.92090 0.44379
 C2857 C 0.28651 0.91841 0.44554
 C2858 C 0.27900 0.90162 0.45369
 C2859 C 0.28348 0.86874 0.46806
 C2860 C 0.26774 0.85973 0.45912
 C2861 C 0.26126 0.84181 0.46552
 C2862 C 0.27036 0.83248 0.48102
 C2863 C 0.28572 0.84181 0.49035
 C2864 C 0.29220 0.85971 0.48394
 H2865 H 0.33428 0.90786 0.44912
 H2866 H 0.27674 0.92946 0.44052
 H2867 H 0.24943 0.83505 0.45795
 H2868 H 0.29304 0.83510 0.50237
 H2869 H 0.26353 0.90008 0.45487
 H2870 H 0.26085 0.86621 0.44673
 H2871 H 0.32123 0.87852 0.46337
 H2872 H 0.30418 0.86644 0.49130
 C2873 C 0.28869 0.38584 0.95826
 C2874 C 0.29032 0.38847 0.93826
 C2875 C 0.29825 0.40533 0.93078
 C2876 C 0.30467 0.41998 0.94312
 C2877 C 0.30284 0.41748 0.96311
 C2878 C 0.29495 0.40057 0.97062
 C2879 C 0.28108 0.36749 0.96611
 C2880 C 0.26533 0.35834 0.95732
 C2881 C 0.25907 0.34038 0.96376
 C2882 C 0.26843 0.33110 0.97915
 C2883 C 0.28380 0.34055 0.98833
 C2884 C 0.29004 0.35855 0.98189
 H2885 H 0.29978 0.40678 0.91533
 H2886 H 0.30759 0.42864 0.97289
 H2887 H 0.24714 0.33359 0.95638
 H2888 H 0.29138 0.33383 1.00019
 H2889 H 0.29369 0.39903 0.98609
 H2890 H 0.25796 0.36502 0.94531
 H2891 H 0.28595 0.37725 0.92837
 H2892 H 0.30233 0.36515 0.98883
 C2893 C 0.79337 0.36548 0.29078
 C2894 C 0.78096 0.35063 0.29665
 C2895 C 0.78837 0.33367 0.30451
 C2896 C 0.80833 0.33122 0.30670
 C2897 C 0.82074 0.34596 0.30064
 C2898 C 0.81335 0.36290 0.29275
 C2899 C 0.78556 0.38383 0.28313
 C2900 C 0.79455 0.39313 0.26758
 C2901 C 0.78782 0.41090 0.26102
 C2902 C 0.77194 0.41981 0.26988
 C2903 C 0.76272 0.41030 0.28521
 C2904 C 0.76944 0.39251 0.29173
 H2905 H 0.77855 0.32243 0.30897
 H2906 H 0.83616 0.34453 0.30242
 H2907 H 0.79529 0.41777 0.24919
 H2908 H 0.75051 0.41676 0.29243
 H2909 H 0.82327 0.37419 0.28865
 H2910 H 0.80685 0.38668 0.26050
 H2911 H 0.76552 0.35211 0.29510
 H2912 H 0.76236 0.38581 0.30389
   
