data_POSCAR
  _audit_creation_date              2014-09-24
  _audit_creation_method            'ToBaCCo'
  _symmetry_space_group_name_H-M    'P1'
  _symmetry_Int_Tables_number       1
  _symmetry_cell_setting            triclinic
  loop_
  _symmetry_equiv_pos_as_xyz
 x,y,z
_cell_length_a 45.3988
_cell_length_b 45.4077
_cell_length_c 45.4582
_cell_angle_alpha 90.028700
_cell_angle_beta 89.985300
_cell_angle_gamma 90.044500
loop_
  _atom_site_label
  _atom_site_type_symbol
  _atom_site_fract_x
  _atom_site_fract_y
  _atom_site_fract_z
C1 C 0.14384 -0.03935 0.25448
 C2 C 0.13272 -0.01180 0.26267
 C3 C 0.12129 -0.00784 0.29102
 C4 C 0.11964 -0.03155 0.31070
 C5 C 0.12898 -0.05961 0.30149
 C6 C 0.14138 -0.06364 0.27336
 C7 C 0.13047 0.01193 0.24063
 C8 C 0.11859 0.00579 0.21293
 C9 C 0.11360 0.02823 0.19221
 C10 C 0.12463 0.05664 0.19845
 C11 C 0.13684 0.06308 0.22625
 C12 C 0.13895 0.04068 0.24740
 H13 H 0.15297 -0.04225 0.23262
 H14 H 0.11274 0.01349 0.29747
 H15 H 0.11252 -0.01671 0.20775
 H16 H 0.14811 0.04547 0.26890
 H17 H 0.12711 -0.07815 0.31640
 H18 H 0.12274 0.07407 0.18231
 C19 C 0.36132 -0.03519 0.74635
 C20 C 0.37418 -0.00776 0.74106
 C21 C 0.38767 -0.00223 0.71407
 C22 C 0.39022 -0.02453 0.69295
 C23 C 0.37572 -0.05157 0.69761
 C24 C 0.36039 -0.05661 0.72408
 C25 C 0.37486 0.01498 0.76399
 C26 C 0.38815 0.00902 0.79102
 C27 C 0.39272 0.03155 0.81180
 C28 C 0.38068 0.05964 0.80611
 C29 C 0.36692 0.06556 0.77906
 C30 C 0.36442 0.04324 0.75802
 H31 H 0.35095 -0.03943 0.76741
 H32 H 0.39762 0.01912 0.71008
 H33 H 0.39562 -0.01321 0.79551
 H34 H 0.35422 0.04787 0.73696
 H35 H 0.37631 -0.06848 0.68080
 H36 H 0.38310 0.07731 0.82196
 C37 C 0.86502 0.46224 0.24701
 C38 C 0.87783 0.48954 0.24131
 C39 C 0.88966 0.49526 0.21351
 C40 C 0.89055 0.47310 0.19195
 C41 C 0.87685 0.44585 0.19765
 C42 C 0.86357 0.44081 0.22508
 C43 C 0.87724 0.51242 0.26414
 C44 C 0.88574 0.50575 0.29289
 C45 C 0.88302 0.52655 0.31575
 C46 C 0.87053 0.55429 0.30897
 C47 C 0.86077 0.56045 0.28024
 C48 C 0.86566 0.54002 0.25778
 H49 H 0.85464 0.45815 0.26811
 H50 H 0.89892 0.51678 0.20889
 H51 H 0.89394 0.48381 0.29747
 H52 H 0.85849 0.54493 0.23556
 H53 H 0.87614 0.42894 0.18084
 H54 H 0.86864 0.57123 0.32565
 C55 C 0.64277 0.45982 0.75175
 C56 C 0.63220 0.48816 0.75811
 C57 C 0.61886 0.49369 0.78534
 C58 C 0.61584 0.47112 0.80598
 C59 C 0.62753 0.44313 0.79998
 C60 C 0.64040 0.43707 0.77251
 C61 C 0.63225 0.51122 0.73530
 C62 C 0.62096 0.50492 0.70744
 C63 C 0.61686 0.52735 0.68672
 C64 C 0.62747 0.55580 0.69279
 C65 C 0.63950 0.56238 0.72067
 C66 C 0.64118 0.53997 0.74192
 H67 H 0.65256 0.45539 0.73046
 H68 H 0.60916 0.51506 0.78976
 H69 H 0.61325 0.48285 0.70255
 H70 H 0.64976 0.54486 0.76364
 H71 H 0.62554 0.42584 0.81629
 H72 H 0.62573 0.57282 0.67619
 C73 C 0.24267 0.13749 1.04118
 C74 C 0.23625 0.12650 1.01318
 C75 C 0.20748 0.11731 1.00666
 C76 C 0.18494 0.11865 1.02801
 C77 C 0.19226 0.12897 1.05638
 C78 C 0.22088 0.13859 1.06287
 C79 C 0.25954 0.12526 0.99052
 C80 C 0.28752 0.11409 0.99736
 C81 C 0.31030 0.11404 0.97629
 C82 C 0.30389 0.12418 0.94766
 C83 C 0.27593 0.13529 0.94064
 C84 C 0.25404 0.13611 0.96227
 H85 H 0.26457 0.14569 1.04602
 H86 H 0.20266 0.10955 0.98464
 H87 H 0.29173 0.10627 1.01948
 H88 H 0.23284 0.14585 0.95724
 H89 H 0.17607 0.12876 1.07389
 H90 H 0.32045 0.12304 0.93052
 C91 C 0.74904 0.35941 1.03712
 C92 C 0.75580 0.36859 1.00851
 C93 C 0.78321 0.38081 1.00239
 C94 C 0.80380 0.38453 1.02473
 C95 C 0.79761 0.37454 1.05330
 C96 C 0.76979 0.36219 1.06008
 C97 C 0.73327 0.36878 0.98548
 C98 C 0.70741 0.38484 0.98971
 C99 C 0.68678 0.38798 0.96689
 C100 C 0.69153 0.37258 0.94038
 C101 C 0.71745 0.35631 0.93624
 C102 C 0.73847 0.35487 0.95859
 H103 H 0.72709 0.35111 1.04153
 H104 H 0.78780 0.38936 0.98058
 H105 H 0.70353 0.39513 1.01090
 H106 H 0.75849 0.34226 0.95534
 H107 H 0.81455 0.37653 1.06995
 H108 H 0.67555 0.37369 0.92270
 C109 C 0.25833 0.85706 0.53490
 C110 C 0.26339 0.86996 0.50749
 C111 C 0.28989 0.88475 0.50223
 C112 C 0.31041 0.88832 0.52503
 C113 C 0.30558 0.87433 0.55228
 C114 C 0.27990 0.85775 0.55686
 C115 C 0.24014 0.86902 0.48506
 C116 C 0.21145 0.87714 0.49266
 C117 C 0.18876 0.87579 0.47198
 C118 C 0.19470 0.86555 0.44348
 C119 C 0.22364 0.85779 0.43544
 C120 C 0.24627 0.85977 0.45638
 H121 H 0.23772 0.84565 0.53891
 H122 H 0.29339 0.89554 0.48123
 H123 H 0.20684 0.88527 0.51462
 H124 H 0.26855 0.85350 0.45051
 H125 H 0.32185 0.87615 0.56965
 H126 H 0.17700 0.86416 0.42754
 C127 C 0.74604 0.63761 0.54197
 C128 C 0.73981 0.62747 0.51360
 C129 C 0.71288 0.61359 0.50799
 C130 C 0.69313 0.60773 0.53102
 C131 C 0.69971 0.61773 0.55953
 C132 C 0.72630 0.63260 0.56513
 C133 C 0.76292 0.62781 0.49087
 C134 C 0.79039 0.61562 0.49734
 C135 C 0.81173 0.61145 0.47534
 C136 C 0.80651 0.62386 0.44735
 C137 C 0.77893 0.63644 0.44060
 C138 C 0.75708 0.63775 0.46241
 H139 H 0.76655 0.64913 0.54608
 H140 H 0.70802 0.60575 0.48599
 H141 H 0.79473 0.60823 0.51960
 H142 H 0.73561 0.64685 0.45731
 H143 H 0.68445 0.61351 0.57739
 H144 H 0.82314 0.62242 0.43032
 C145 C -0.03642 0.25849 0.14116
 C146 C -0.00933 0.26213 0.12683
 C147 C -0.00460 0.28661 0.10863
 C148 C -0.02782 0.30610 0.10243
 C149 C -0.05524 0.30133 0.11620
 C150 C -0.05934 0.27852 0.13655
 C151 C 0.01330 0.23921 0.12955
 C152 C 0.00652 0.21027 0.12172
 C153 C 0.02761 0.18759 0.12375
 C154 C 0.05564 0.19472 0.13554
 C155 C 0.06191 0.22364 0.14500
 C156 C 0.04116 0.24597 0.14036
 H157 H -0.03948 0.24010 0.15605
 H158 H 0.01650 0.28924 0.09777
 H159 H -0.01557 0.20551 0.11401
 H160 H 0.04619 0.26846 0.14666
 H161 H -0.07330 0.31635 0.11218
 H162 H 0.07278 0.17822 0.13692
 C163 C -0.03915 0.74157 0.36468
 C164 C -0.01126 0.73456 0.37571
 C165 C -0.00574 0.70604 0.38610
 C166 C -0.02814 0.68472 0.38625
 C167 C -0.05633 0.69234 0.37590
 C168 C -0.06178 0.72063 0.36471
 C169 C 0.01207 0.75711 0.37610
 C170 C 0.00626 0.78518 0.38750
 C171 C 0.02771 0.80739 0.38643
 C172 C 0.05585 0.80058 0.37546
 C173 C 0.06225 0.77222 0.36480
 C174 C 0.03993 0.75086 0.36451
 H175 H -0.04311 0.76323 0.35546
 H176 H 0.01593 0.70054 0.39447
 H177 H -0.01505 0.78972 0.39726
 H178 H 0.04408 0.72947 0.35475
 H179 H -0.07397 0.67624 0.37634
 H180 H 0.07276 0.81743 0.37506
 C181 C 0.45754 0.24722 0.86836
 C182 C 0.48649 0.24198 0.87722
 C183 C 0.49361 0.21549 0.89104
 C184 C 0.47172 0.19445 0.89735
 C185 C 0.44261 0.19982 0.88768
 C186 C 0.43535 0.22652 0.87374
 C187 C 0.50911 0.26462 0.87218
 C188 C 0.50377 0.29357 0.88092
 C189 C 0.52413 0.31622 0.87516
 C190 C 0.55078 0.30876 0.86074
 C191 C 0.55611 0.27955 0.85157
 C192 C 0.53555 0.25755 0.85830
 H193 H 0.45235 0.26739 0.85669
 H194 H 0.51637 0.21130 0.89689
 H195 H 0.48401 0.29802 0.89354
 H196 H 0.53974 0.23495 0.85183
 H197 H 0.42539 0.18383 0.89192
 H198 H 0.56683 0.32566 0.85561
 C199 C 0.46592 0.75344 0.64083
 C200 C 0.49221 0.76036 0.62626
 C201 C 0.49535 0.78783 0.61251
 C202 C 0.47246 0.80850 0.61353
 C203 C 0.44676 0.80177 0.62933
 C204 C 0.44286 0.77387 0.64190
 C205 C 0.51635 0.73882 0.62518
 C206 C 0.51117 0.71011 0.61519
 C207 C 0.53423 0.68961 0.61364
 C208 C 0.56265 0.69807 0.62268
 C209 C 0.56777 0.72666 0.63339
 C210 C 0.54462 0.74696 0.63426
 H211 H 0.46346 0.73223 0.65151
 H212 H 0.51536 0.79282 0.60049
 H213 H 0.48925 0.70388 0.60805
 H214 H 0.54851 0.76900 0.64261
 H215 H 0.42928 0.81793 0.63100
 H216 H 0.58066 0.68246 0.62157
 C217 C 0.86623 1.03613 0.75729
 C218 C 0.87891 1.00900 0.76411
 C219 C 0.88848 1.00344 0.79290
 C220 C 0.88562 1.02481 0.81529
 C221 C 0.87292 1.05235 0.80768
 C222 C 0.86312 1.05785 0.77878
 C223 C 0.88206 0.98636 0.74104
 C224 C 0.89429 0.99364 0.71372
 C225 C 0.89896 0.97214 0.69178
 C226 C 0.88752 0.94347 0.69691
 C227 C 0.87437 0.93632 0.72411
 C228 C 0.87235 0.95767 0.74614
 H229 H 0.85832 1.04031 0.73517
 H230 H 0.89775 0.98202 0.79786
 H231 H 0.90018 1.01640 0.70965
 H232 H 0.86204 0.95219 0.76695
 H233 H 0.87148 1.06989 0.82377
 H234 H 0.88969 0.92636 0.68046
 C235 C 0.36636 0.53545 0.25317
 C236 C 0.38024 0.50913 0.26103
 C237 C 0.39103 0.50557 0.28962
 C238 C 0.38815 0.52824 0.31031
 C239 C 0.37240 0.55389 0.30283
 C240 C 0.36090 0.55743 0.27422
 C241 C 0.38347 0.48533 0.23925
 C242 C 0.39598 0.49114 0.21175
 C243 C 0.40028 0.46848 0.19113
 C244 C 0.38896 0.44017 0.19739
 C245 C 0.37525 0.43454 0.22467
 C246 C 0.37334 0.45699 0.24567
 H247 H 0.35890 0.53843 0.23072
 H248 H 0.40273 0.48560 0.29544
 H249 H 0.40315 0.51334 0.20668
 H250 H 0.36279 0.45266 0.26664
 H251 H 0.36946 0.57108 0.31911
 H252 H 0.39085 0.42267 0.18130
 C253 C 0.64069 1.03741 0.24652
 C254 C 0.62737 1.01028 0.24121
 C255 C 0.61392 1.00488 0.21419
 C256 C 0.61188 1.02710 0.19292
 C257 C 0.62711 1.05386 0.19755
 C258 C 0.64246 1.05867 0.22419
 C259 C 0.62710 0.98744 0.26397
 C260 C 0.61357 0.99281 0.29109
 C261 C 0.61009 0.97001 0.31173
 C262 C 0.62289 0.94227 0.30559
 C263 C 0.63701 0.93714 0.27856
 C264 C 0.63869 0.95966 0.25777
 H265 H 0.65090 1.04147 0.26770
 H266 H 0.60371 0.98364 0.21025
 H267 H 0.60376 1.01422 0.29507
 H268 H 0.64922 0.95559 0.23674
 H269 H 0.62701 1.07070 0.18068
 H270 H 0.62176 0.92468 0.32167
 C271 C 0.13881 0.53694 0.74272
 C272 C 0.12435 0.51077 0.73550
 C273 C 0.11367 0.50651 0.70702
 C274 C 0.11713 0.52843 0.68568
 C275 C 0.13326 0.55407 0.69254
 C276 C 0.14457 0.55825 0.72115
 C277 C 0.12042 0.48781 0.75783
 C278 C 0.10604 0.49425 0.78421
 C279 C 0.10190 0.47235 0.80553
 C280 C 0.11410 0.44419 0.80101
 C281 C 0.12885 0.43779 0.77451
 C282 C 0.13154 0.45957 0.75292
 H283 H 0.14631 0.54037 0.76510
 H284 H 0.10160 0.48656 0.70179
 H285 H 0.09732 0.51618 0.78787
 H286 H 0.14318 0.45478 0.73264
 H287 H 0.13653 0.57082 0.67588
 H288 H 0.11178 0.42734 0.81771
 C289 C 0.74435 0.86444 -0.04166
 C290 C 0.73836 0.87365 -0.01290
 C291 C 0.71109 0.88628 -0.00638
 C292 C 0.69052 0.89218 -0.02866
 C293 C 0.69633 0.88194 -0.05747
 C294 C 0.72332 0.86788 -0.06393
 C295 C 0.76114 0.87172 0.01014
 C296 C 0.78938 0.88295 0.00479
 C297 C 0.81134 0.88232 0.02665
 C298 C 0.80402 0.87035 0.05448
 C299 C 0.77564 0.85913 0.05998
 C300 C 0.75438 0.85992 0.03776
 H301 H 0.76524 0.85401 -0.04663
 H302 H 0.70645 0.89303 0.01603
 H303 H 0.79428 0.89195 -0.01676
 H304 H 0.73258 0.85111 0.04195
 H305 H 0.68029 0.88527 -0.07478
 H306 H 0.81996 0.87051 0.07221
 C307 C 0.24444 0.36104 0.46496
 C308 C 0.23636 0.37267 0.49235
 C309 C 0.20743 0.38236 0.49683
 C310 C 0.18663 0.38094 0.47411
 C311 C 0.19491 0.36922 0.44660
 C312 C 0.22391 0.35911 0.44205
 C313 C 0.25851 0.37636 0.51579
 C314 C 0.28517 0.39051 0.50958
 C315 C 0.30554 0.39670 0.53198
 C316 C 0.30002 0.38591 0.56060
 C317 C 0.27361 0.37076 0.56681
 C318 C 0.25276 0.36667 0.54446
 H319 H 0.26677 0.35332 0.46145
 H320 H 0.20133 0.39208 0.51776
 H321 H 0.28968 0.39767 0.48728
 H322 H 0.23236 0.35518 0.54923
 H323 H 0.17900 0.36814 0.42887
 H324 H 0.31600 0.38942 0.57794
 C325 C 0.25163 0.63579 -0.04221
 C326 C 0.25758 0.62300 -0.01501
 C327 C 0.28513 0.61051 -0.00972
 C328 C 0.30616 0.60833 -0.03219
 C329 C 0.30043 0.62206 -0.05944
 C330 C 0.27307 0.63596 -0.06428
 C331 C 0.23482 0.62148 0.00782
 C332 C 0.20709 0.60937 0.00156
 C333 C 0.18587 0.60529 0.02395
 C334 C 0.19403 0.61378 0.05293
 C335 C 0.22064 0.62859 0.05843
 C336 C 0.24124 0.63155 0.03605
 H337 H 0.23041 0.64603 -0.04610
 H338 H 0.28968 0.60102 0.01169
 H339 H 0.20232 0.60360 -0.02102
 H340 H 0.26199 0.64260 0.04037
 H341 H 0.31673 0.62145 -0.07683
 H342 H 0.17990 0.60937 0.07156
 C343 C 0.76148 0.13185 0.45646
 C344 C 0.76781 0.12080 0.48438
 C345 C 0.79640 0.11172 0.49114
 C346 C 0.81922 0.11337 0.47026
 C347 C 0.81246 0.12474 0.44202
 C348 C 0.78365 0.13409 0.43522
 C349 C 0.74472 0.11879 0.50690
 C350 C 0.71860 0.10356 0.50107
 C351 C 0.69746 0.09940 0.52322
 C352 C 0.70188 0.11293 0.55087
 C353 C 0.72758 0.12955 0.55629
 C354 C 0.74915 0.13164 0.53448
 H355 H 0.73939 0.13942 0.45145
 H356 H 0.80086 0.10371 0.51316
 H357 H 0.71504 0.09433 0.47936
 H358 H 0.76904 0.14420 0.53866
 H359 H 0.82916 0.12553 0.42501
 H360 H 0.68528 0.11100 0.56788
 C361 C 1.03864 0.76015 0.86669
 C362 C 1.01237 0.76683 0.88136
 C363 C 1.00823 0.79485 0.89338
 C364 C 1.03056 0.81636 0.89184
 C365 C 1.05650 0.80961 0.87592
 C366 C 1.06051 0.78155 0.86327
 C367 C 0.98900 0.74450 0.88359
 C368 C 0.99510 0.71710 0.89622
 C369 C 0.97429 0.69430 0.89514
 C370 C 0.94668 0.69955 0.88187
 C371 C 0.93980 0.72766 0.87074
 C372 C 0.96117 0.74993 0.87151
 H373 H 1.04159 0.73855 0.85693
 H374 H 0.98801 0.79928 0.90530
 H375 H 1.01665 0.71313 0.90574
 H376 H 0.95648 0.77118 0.86171
 H377 H 1.07328 0.82629 0.87271
 H378 H 0.93043 0.68208 0.88074
 C379 C 0.54316 0.25579 0.36732
 C380 C 0.51510 0.26196 0.37843
 C381 C 0.50864 0.29022 0.38878
 C382 C 0.53015 0.31233 0.38841
 C383 C 0.55836 0.30611 0.37700
 C384 C 0.56480 0.27770 0.36628
 C385 C 0.49251 0.23877 0.37899
 C386 C 0.49891 0.21138 0.39153
 C387 C 0.47800 0.18880 0.39120
 C388 C 0.45043 0.19356 0.37794
 C389 C 0.44405 0.22095 0.36483
 C390 C 0.46499 0.24358 0.36598
 H391 H 0.54801 0.23401 0.35880
 H392 H 0.48701 0.29489 0.39775
 H393 H 0.52022 0.20760 0.40160
 H394 H 0.46031 0.26457 0.35562
 H395 H 0.57505 0.32316 0.37643
 H396 H 0.43435 0.17593 0.37725
 C397 C 1.04181 0.24440 0.63671
 C398 C 1.01401 0.23717 0.62554
 C399 C 1.00904 0.20899 0.61376
 C400 C 1.03200 0.18802 0.61186
 C401 C 1.06026 0.19669 0.62195
 C402 C 1.06474 0.22407 0.63562
 C403 C 0.99014 0.25921 0.62665
 C404 C 0.99549 0.28787 0.61665
 C405 C 0.97358 0.30971 0.61785
 C406 C 0.94544 0.30181 0.62880
 C407 C 0.93997 0.27306 0.63923
 C408 C 0.96240 0.25193 0.63794
 H409 H 1.04530 0.26551 0.64733
 H410 H 0.98697 0.20349 0.60664
 H411 H 1.01666 0.29278 0.60675
 H412 H 0.95837 0.22995 0.64633
 H413 H 1.07908 0.18229 0.61951
 H414 H 0.92807 0.31812 0.63008
 C415 C 0.53675 0.74544 0.13505
 C416 C 0.50962 0.73945 0.12185
 C417 C 0.50489 0.71208 0.10869
 C418 C 0.52777 0.69138 0.10648
 C419 C 0.55445 0.69685 0.12157
 C420 C 0.55861 0.72365 0.13688
 C421 C 0.48628 0.76200 0.12146
 C422 C 0.49246 0.79041 0.11121
 C423 C 0.47044 0.81198 0.11048
 C424 C 0.44192 0.80505 0.12057
 C425 C 0.43561 0.77655 0.13110
 C426 C 0.45781 0.75514 0.13121
 H427 H 0.54036 0.76677 0.14516
 H428 H 0.48369 0.70747 0.09872
 H429 H 0.51433 0.79562 0.10315
 H430 H 0.45309 0.73331 0.13964
 H431 H 0.57178 0.68047 0.12140
 H432 H 0.42484 0.82170 0.12034
 O433 O -0.02961 0.99849 0.92461
 O434 O 0.01459 1.02051 0.91873
 O435 O -0.00088 0.92104 0.97827
 O436 O 0.01091 0.91121 1.02341
 O437 O -0.08287 0.97234 1.00331
 O438 O -0.09191 1.01800 1.02030
 O439 O 0.06722 0.99997 1.05914
 O440 O 0.07417 0.95865 1.02927
 O441 O 0.05014 1.07124 1.00478
 O442 O 0.01539 1.08051 0.96335
 O443 O -0.00310 1.05362 1.07597
 O444 O -0.04772 1.01906 1.08248
 O445 O 0.02633 1.00768 1.08713
 O446 O -0.02157 0.98609 1.09474
 O447 O 0.00677 1.08238 1.03642
 O448 O -0.02013 1.08936 0.98863
 O449 O 0.07841 1.03192 1.01729
 O450 O 0.08331 0.98752 0.98541
 O451 O -0.06983 1.00640 0.95301
 O452 O -0.07742 1.04704 0.98977
 O453 O -0.05356 0.93248 1.00825
 O454 O -0.01888 0.92800 1.05230
 O455 O 0.00445 0.94977 0.93763
 O456 O 0.04581 0.98513 0.93319
 Zr457 Zr 0.00513 0.99285 0.95502
 O458 O 0.03243 1.02023 0.98090
 Zr459 Zr -0.01115 0.95061 1.01236
 O460 O 0.01556 0.97587 1.04051
 Zr461 Zr -0.05332 1.00781 0.99646
 O462 O -0.02855 1.03602 1.02412
 Zr463 Zr 0.04945 0.99602 1.01648
 O464 O 0.02482 0.96778 0.98887
 Zr465 Zr 0.00725 1.05353 1.00045
 O466 O -0.01956 1.02811 0.97203
 Zr467 Zr -0.00900 1.01120 1.05768
 O468 O -0.03676 0.98370 1.03223
 O469 O -0.02995 0.97333 0.97735
 O470 O 0.02586 1.03050 1.03524
 C471 C -0.05721 1.00456 0.92776
 C472 C 0.00439 0.92475 0.95076
 C473 C -0.07904 0.94453 1.00771
 C474 C 0.05422 1.00412 1.08395
 C475 C 0.07481 1.05945 1.01219
 C476 C 0.00361 1.07846 1.06419
 H477 H 0.04847 1.02839 0.96862
 H478 H -0.04125 1.05167 1.03229
 H479 H -0.04212 0.96063 0.96443
 H480 H 0.02368 0.96304 1.05611
 H481 H 0.07095 0.94350 1.01395
 H482 H 0.03140 0.91683 1.02817
 H483 H -0.03571 1.09122 1.00373
 H484 H -0.06703 1.05804 0.97409
 H485 H 0.10249 0.98970 0.99562
 H486 H 0.04197 0.97599 0.91372
 H487 H -0.05485 1.03910 1.07777
 H488 H -0.08708 1.01449 1.04123
 H489 H 0.00637 1.04011 0.92349
 H490 H 0.03323 1.07296 0.95339
 H491 H -0.03736 0.93607 1.06061
 H492 H -0.01219 0.96659 1.09263
 O493 O 0.47667 0.49713 0.41759
 O494 O 0.52221 0.50829 0.41091
 O495 O 0.49133 0.41819 0.47598
 O496 O 0.49981 0.40980 0.52289
 O497 O 0.41628 0.48237 0.49469
 O498 O 0.41515 0.53161 0.51030
 O499 O 0.56588 0.49232 0.55651
 O500 O 0.56744 0.44801 0.53048
 O501 O 0.56159 0.56114 0.49871
 O502 O 0.52965 0.57156 0.45304
 O503 O 0.50179 0.55605 0.56620
 O504 O 0.45382 0.52743 0.57306
 O505 O 0.52552 0.50811 0.58167
 O506 O 0.47505 0.49192 0.58797
 O507 O 0.51865 0.58065 0.52613
 O508 O 0.49691 0.58905 0.47772
 O509 O 0.58375 0.51863 0.51310
 O510 O 0.58299 0.47146 0.48503
 O511 O 0.43587 0.51048 0.44358
 O512 O 0.43080 0.55240 0.47401
 O513 O 0.43899 0.43873 0.50249
 O514 O 0.46881 0.43058 0.54755
 O515 O 0.50195 0.44407 0.43458
 O516 O 0.54955 0.47391 0.43197
 Zr517 Zr 0.50842 0.48721 0.45001
 O518 O 0.53811 0.51203 0.47580
 Zr519 Zr 0.48340 0.45075 0.50817
 O520 O 0.51197 0.47387 0.53653
 Zr521 Zr 0.45084 0.51256 0.48729
 O522 O 0.47795 0.53872 0.51451
 Zr523 Zr 0.54957 0.48754 0.51341
 O524 O 0.52258 0.46134 0.48590
 Zr525 Zr 0.51704 0.54958 0.49215
 O526 O 0.48829 0.52657 0.46379
 Zr527 Zr 0.49204 0.51334 0.55036
 O528 O 0.46198 0.48831 0.52498
 O529 O 0.46982 0.47399 0.47117
 O530 O 0.53038 0.52612 0.52899
 C531 C 0.44983 0.50616 0.41940
 C532 C 0.49800 0.41986 0.44852
 C533 C 0.41569 0.45454 0.49985
 C534 C 0.55275 0.50058 0.58021
 C535 C 0.58420 0.54619 0.50684
 C536 C 0.51249 0.57905 0.55361
 H537 H 0.55571 0.51724 0.46406
 H538 H 0.46710 0.55643 0.52099
 H539 H 0.45660 0.46247 0.45818
 H540 H 0.51738 0.46118 0.55337
 H541 H 0.56315 0.43240 0.51587
 H542 H 0.51980 0.41356 0.53062
 H543 H 0.47867 0.59184 0.48928
 H544 H 0.44516 0.56251 0.46109
 H545 H 0.60151 0.47035 0.49654
 H546 H 0.54615 0.46112 0.41460
 H547 H 0.44864 0.54731 0.56584
 H548 H 0.41618 0.52395 0.53065
 H549 H 0.52787 0.52849 0.41666
 H550 H 0.54935 0.56426 0.44724
 H551 H 0.45197 0.44232 0.55490
 H552 H 0.48069 0.47098 0.58638
 O553 O 0.43540 -0.05805 0.49972
 O554 O 0.46166 -0.06811 0.45543
 O555 O 0.50078 -0.05816 0.56646
 O556 O 0.54586 -0.03632 0.57202
 O557 O 0.43901 0.00998 0.56231
 O558 O 0.43599 0.05538 0.53268
 O559 O 0.58455 0.01381 0.48928
 O560 O 0.58493 -0.03137 0.50959
 O561 O 0.52108 0.00450 0.41801
 O562 O 0.46679 -0.00878 0.41814
 O563 O 0.51598 0.08047 0.47634
 O564 O 0.49999 0.08542 0.52903
 O565 O 0.56359 0.05748 0.50112
 O566 O 0.53820 0.07158 0.54443
 O567 O 0.49823 0.05633 0.43635
 O568 O 0.45458 0.03165 0.42769
 O569 O 0.56197 -0.01168 0.44203
 O570 O 0.56104 -0.05727 0.47073
 O571 O 0.41593 -0.01430 0.51367
 O572 O 0.41561 0.03485 0.49734
 O573 O 0.47956 -0.00849 0.58518
 O574 O 0.53009 0.00826 0.58611
 O575 O 0.48041 -0.08065 0.52661
 O576 O 0.50272 -0.08647 0.47758
 Zr577 Zr 0.48041 -0.04855 0.49341
 O578 O 0.50888 -0.02641 0.46459
 Zr579 Zr 0.50993 -0.01515 0.55125
 O580 O 0.53899 0.00887 0.52443
 Zr581 Zr 0.45204 0.01431 0.51771
 O582 O 0.47861 0.03879 0.48878
 Zr583 Zr 0.54819 -0.01496 0.48606
 O584 O 0.52120 -0.04060 0.51433
 Zr585 Zr 0.49014 0.01356 0.45169
 O586 O 0.46002 -0.00956 0.47876
 Zr587 Zr 0.51905 0.04779 0.50923
 O588 O 0.49118 0.02574 0.53964
 O589 O 0.47015 -0.02520 0.53123
 O590 O 0.53034 0.02480 0.47104
 C591 C 0.41357 -0.04177 0.50774
 C592 C 0.48855 -0.08031 0.55365
 C593 C 0.45294 0.00088 0.58530
 C594 C 0.58622 0.04143 0.49542
 C595 C 0.54760 -0.00552 0.41854
 C596 C 0.50698 0.07971 0.44952
 H597 H 0.51267 -0.03966 0.44788
 H598 H 0.46777 0.05687 0.48341
 H599 H 0.45654 -0.03624 0.54415
 H600 H 0.55712 0.01301 0.53573
 H601 H 0.57785 -0.04858 0.52095
 H602 H 0.56416 -0.02745 0.56423
 H603 H 0.44382 0.04498 0.44112
 H604 H 0.41420 0.02634 0.47733
 H605 H 0.58130 -0.05587 0.46266
 H606 H 0.49023 -0.10406 0.48120
 H607 H 0.48202 0.09038 0.51777
 H608 H 0.44929 0.06190 0.54868
 H609 H 0.44704 -0.05404 0.44749
 H610 H 0.47724 -0.02745 0.41414
 H611 H 0.52260 0.02867 0.58497
 H612 H 0.55172 0.05813 0.55493
 O613 O -0.00603 0.43791 1.05676
 O614 O 0.04024 0.46231 1.06127
 O615 O -0.07004 0.50604 1.05692
 O616 O -0.07846 0.54774 1.03217
 O617 O -0.07138 0.44089 0.98759
 O618 O -0.04024 0.43298 0.94375
 O619 O 0.00860 0.58258 0.97564
 O620 O -0.01519 0.58817 1.01742
 O621 O 0.07530 0.52034 0.98776
 O622 O 0.07439 0.46593 1.00245
 O623 O 0.01303 0.51201 0.91391
 O624 O -0.04103 0.49501 0.91302
 O625 O -0.01254 0.56093 0.93588
 O626 O -0.05316 0.53593 0.92326
 O627 O 0.05422 0.49609 0.93652
 O628 O 0.06430 0.45404 0.96115
 O629 O 0.05222 0.56068 1.00641
 O630 O 0.01748 0.56391 1.05041
 O631 O -0.02348 0.41701 1.01468
 O632 O -0.00663 0.41318 0.96614
 O633 O -0.09172 0.48026 1.01029
 O634 O -0.09302 0.52965 0.98834
 O635 O -0.02935 0.48594 1.07817
 O636 O 0.02113 0.50438 1.08032
 Zr637 Zr 0.00155 0.48213 1.04419
 O638 O 0.02960 0.50980 1.01997
 Zr639 Zr -0.05768 0.51100 1.01239
 O640 O -0.03183 0.53868 0.98593
 Zr641 Zr -0.02599 0.45153 0.98401
 O642 O 0.00239 0.47674 0.95744
 Zr643 Zr 0.00761 0.54866 1.00745
 O644 O -0.01943 0.52287 1.03538
 Zr645 Zr 0.04079 0.48937 0.98029
 O646 O 0.01427 0.46018 1.00545
 Zr647 Zr -0.01848 0.51667 0.94757
 O648 O -0.04819 0.49024 0.97198
 O649 O -0.03769 0.47144 1.02331
 O650 O 0.02091 0.52887 0.96808
 C651 C -0.01587 0.41583 1.04189
 C652 C -0.05571 0.49607 1.07922
 C653 C -0.09357 0.45463 0.99887
 C654 C -0.00140 0.58330 0.94908
 C655 C 0.07556 0.54623 0.99953
 C656 C 0.03982 0.50328 0.91325
 H657 H 0.04679 0.51374 1.03272
 H658 H 0.00702 0.46509 0.93965
 H659 H -0.05061 0.45899 1.03568
 H660 H -0.04302 0.55673 0.98117
 H661 H -0.02876 0.58363 1.03385
 H662 H -0.07225 0.56557 1.02133
 H663 H 0.04947 0.44058 0.95258
 H664 H 0.01357 0.41215 0.97427
 H665 H 0.02585 0.58401 1.04864
 H666 H 0.01884 0.49202 1.09819
 H667 H -0.02825 0.47888 0.90586
 H668 H -0.05636 0.44561 0.93632
 H669 H 0.04607 0.44629 1.04768
 H670 H 0.07991 0.47748 1.02008
 H671 H -0.09586 0.51737 0.97055
 H672 H -0.06700 0.54448 0.93772
 O673 O 0.00445 0.41331 0.52785
 O674 O -0.01609 0.40729 0.48334
 O675 O 0.08034 0.47034 0.50454
 O676 O 0.08717 0.51539 0.48775
 O677 O 0.02577 0.49385 0.58292
 O678 O -0.02148 0.50700 0.59128
 O679 O -0.00080 0.54941 0.43366
 O680 O 0.04146 0.52071 0.42662
 O681 O -0.07113 0.49404 0.44952
 O682 O -0.07784 0.44903 0.48147
 O683 O -0.05727 0.56236 0.50510
 O684 O -0.02239 0.57120 0.54789
 O685 O -0.01488 0.57586 0.47373
 O686 O 0.01116 0.58389 0.52136
 O687 O -0.08421 0.52118 0.49595
 O688 O -0.08892 0.47175 0.51747
 O689 O -0.03152 0.50682 0.42186
 O690 O 0.01382 0.47653 0.41640
 O691 O -0.00439 0.44109 0.56867
 O692 O -0.04642 0.47345 0.57725
 O693 O 0.06611 0.50270 0.55459
 O694 O 0.07120 0.54382 0.52090
 O695 O 0.05310 0.42913 0.49607
 O696 O 0.01925 0.42440 0.45315
 Zr697 Zr 0.00950 0.44477 0.49410
 O698 O -0.01872 0.46975 0.46689
 Zr699 Zr 0.04897 0.50385 0.51172
 O700 O 0.02265 0.53130 0.48514
 Zr701 Zr -0.00832 0.48452 0.55280
 O702 O -0.03733 0.51124 0.52828
 Zr703 Zr 0.00420 0.50661 0.45085
 O704 O 0.03344 0.47992 0.47532
 Zr705 Zr -0.05325 0.48729 0.49193
 O706 O -0.02695 0.45965 0.51852
 Zr707 Zr -0.01385 0.54638 0.50937
 O708 O 0.01431 0.52166 0.53697
 O709 O 0.02748 0.46757 0.52979
 O710 O -0.03152 0.52337 0.47413
 C711 C -0.00146 0.41629 0.55538
 C712 C 0.07778 0.44270 0.49876
 C713 C 0.05297 0.50099 0.57948
 C714 C -0.00951 0.57336 0.44605
 C715 C -0.05920 0.50225 0.42521
 C716 C -0.08173 0.54901 0.50017
 H717 H -0.02613 0.45748 0.45050
 H718 H -0.05340 0.51823 0.54121
 H719 H 0.04059 0.45541 0.54226
 H720 H 0.03460 0.54770 0.47725
 H721 H 0.05698 0.50572 0.42974
 H722 H 0.08043 0.52488 0.46940
 H723 H -0.08781 0.48182 0.53670
 H724 H -0.05587 0.45663 0.56706
 H725 H 0.01129 0.48705 0.39745
 H726 H 0.02933 0.40536 0.45677
 H727 H -0.04152 0.56461 0.55601
 H728 H -0.02137 0.52816 0.58620
 H729 H -0.03637 0.41149 0.49008
 H730 H -0.07085 0.44151 0.46228
 H731 H 0.05957 0.55414 0.53617
 H732 H 0.02743 0.58598 0.50703
 O733 O 0.43698 1.00083 -0.05676
 O734 O 0.42952 0.95698 -0.02957
 O735 O 0.44349 1.06857 0.00654
 O736 O 0.46923 1.07603 0.04883
 O737 O 0.50666 1.06214 -0.06105
 O738 O 0.55097 1.03208 -0.06693
 O739 O 0.52090 0.99298 0.08541
 O740 O 0.47592 1.01302 0.08906
 O741 O 0.50768 0.92017 0.02495
 O742 O 0.49088 0.91676 -0.02571
 O743 O 0.58238 0.97865 0.01133
 O744 O 0.58565 1.03160 -0.00484
 O745 O 0.56315 1.00389 0.06130
 O746 O 0.57573 1.04626 0.03459
 O747 O 0.55719 0.93766 -0.00159
 O748 O 0.52675 0.93025 -0.04593
 O749 O 0.49456 0.94525 0.06624
 O750 O 0.44851 0.97367 0.06804
 O751 O 0.47936 1.01428 -0.08013
 O752 O 0.52828 0.99620 -0.08422
 O753 O 0.49271 1.08636 -0.01949
 O754 O 0.51187 1.08860 0.02998
 O755 O 0.41875 1.02863 -0.01099
 O756 O 0.41503 0.97998 0.01327
 Zr757 Zr 0.45069 0.99509 -0.01290
 O758 O 0.47506 0.96636 0.01398
 Zr759 Zr 0.48701 1.05340 0.01222
 O760 O 0.51285 1.02703 0.03992
 Zr761 Zr 0.51131 1.01807 -0.04690
 O762 O 0.53799 0.98985 -0.02169
 Zr763 Zr 0.48963 0.98887 0.05162
 O764 O 0.46219 1.01697 0.02643
 Zr765 Zr 0.51374 0.95304 -0.00741
 O766 O 0.48792 0.97952 -0.03592
 Zr767 Zr 0.55007 1.01131 0.01740
 O768 O 0.52609 1.04104 -0.00948
 O769 O 0.47350 1.03251 -0.02596
 O770 O 0.52800 0.97343 0.03121
 C771 C 0.45176 1.00788 -0.07986
 C772 C 0.42014 1.05582 -0.00327
 C773 C 0.49970 1.08562 -0.04683
 C774 C 0.54859 0.99881 0.08508
 C775 C 0.50005 0.92135 0.05220
 C776 C 0.58134 0.95133 0.00414
 H777 H 0.46233 0.94950 0.01930
 H778 H 0.55515 0.98428 -0.03387
 H779 H 0.46155 1.04541 -0.03879
 H780 H 0.51834 1.03873 0.05742
 H781 H 0.45824 1.02430 0.08311
 H782 H 0.47787 1.06720 0.06673
 H783 H 0.54452 0.94007 -0.05385
 H784 H 0.52151 0.97556 -0.08264
 H785 H 0.45156 0.96582 0.08818
 H786 H 0.39641 0.98325 0.00231
 H787 H 0.58963 1.01992 -0.02278
 H788 H 0.55888 1.04828 -0.05467
 H789 H 0.44300 0.94813 -0.04423
 H790 H 0.47148 0.91553 -0.01589
 H791 H 0.53172 1.08722 0.02112
 H792 H 0.56310 1.05764 0.04819
 O793 O 0.48063 0.50599 0.07723
 O794 O 0.53013 0.49415 0.07922
 O795 O 0.49467 0.58305 0.01597
 O796 O 0.49917 0.59074 -0.03143
 O797 O 0.41600 0.52223 0.00421
 O798 O 0.41085 0.47266 -0.00840
 O799 O 0.56076 0.49984 -0.06615
 O800 O 0.56586 0.54721 -0.04472
 O801 O 0.55687 0.43707 -0.00457
 O802 O 0.52698 0.42766 0.04002
 O803 O 0.48980 0.44336 -0.07003
 O804 O 0.44730 0.47411 -0.07783
 O805 O 0.51795 0.48821 -0.08905
 O806 O 0.46676 0.51115 -0.09032
 O807 O 0.51269 0.41967 -0.03245
 O808 O 0.49050 0.41324 0.01837
 O809 O 0.58025 0.47811 -0.02127
 O810 O 0.58303 0.52733 0.00166
 O811 O 0.43726 0.49520 0.05521
 O812 O 0.42901 0.45182 0.02611
 O813 O 0.43972 0.56445 -0.00726
 O814 O 0.46835 0.56931 -0.05463
 O815 O 0.50501 0.55845 0.05788
 O816 O 0.55011 0.52951 0.06172
 Zr817 Zr 0.51018 0.51486 0.04269
 O818 O 0.53680 0.48791 0.01597
 Zr819 Zr 0.48326 0.55033 -0.01480
 O820 O 0.50916 0.52547 -0.04422
 Zr821 Zr 0.44931 0.49075 0.01062
 O822 O 0.47313 0.46311 -0.01803
 Zr823 Zr 0.54725 0.51031 -0.02309
 O824 O 0.52342 0.53874 0.00509
 Zr825 Zr 0.51300 0.45072 0.00206
 O826 O 0.48761 0.47582 0.03201
 Zr827 Zr 0.48603 0.48703 -0.05543
 O828 O 0.45876 0.51341 -0.02855
 O829 O 0.47088 0.52901 0.02384
 O830 O 0.52498 0.47254 -0.03621
 C831 C 0.45315 0.49939 0.07827
 C832 C 0.50096 0.58249 0.04350
 C833 C 0.41605 0.54971 -0.00231
 C834 C 0.54606 0.49135 -0.08887
 C835 C 0.57989 0.45097 -0.01341
 C836 C 0.50236 0.42075 -0.05875
 H837 H 0.55472 0.48269 0.02719
 H838 H 0.46092 0.44589 -0.02336
 H839 H 0.45890 0.54145 0.03717
 H840 H 0.51432 0.53733 -0.06172
 H841 H 0.56292 0.56429 -0.03150
 H842 H 0.51978 0.58716 -0.03744
 H843 H 0.47417 0.40861 0.00474
 H844 H 0.44373 0.44176 0.03862
 H845 H 0.60093 0.52636 -0.01082
 H846 H 0.55783 0.54532 0.04886
 H847 H 0.43708 0.45958 -0.06527
 H848 H 0.41000 0.48005 -0.02886
 H849 H 0.52433 0.47316 0.07827
 H850 H 0.54458 0.43787 0.04782
 H851 H 0.45039 0.55843 -0.06052
 H852 H 0.48067 0.52689 -0.09612
 O853 O -0.01905 0.00792 0.58247
 O854 O 0.02219 -0.01837 0.58778
 O855 O 0.00642 0.07972 0.52374
 O856 O 0.02140 0.08539 0.47842
 O857 O -0.07477 0.02880 0.50536
 O858 O -0.08416 -0.01954 0.48885
 O859 O 0.07224 -0.00647 0.44553
 O860 O 0.08196 0.03583 0.47223
 O861 O 0.05516 -0.07388 0.50563
 O862 O 0.02149 -0.08009 0.54737
 O863 O -0.00236 -0.05910 0.43444
 O864 O -0.04243 -0.02387 0.42501
 O865 O 0.03092 -0.01836 0.41986
 O866 O -0.01657 0.01060 0.41356
 O867 O 0.01071 -0.08547 0.47485
 O868 O -0.01549 -0.08863 0.52420
 O869 O 0.08363 -0.03621 0.48989
 O870 O 0.09098 0.01044 0.51786
 O871 O -0.06063 -0.00298 0.55682
 O872 O -0.07313 -0.04286 0.52533
 O873 O -0.04500 0.06683 0.49370
 O874 O -0.01109 0.06858 0.45045
 O875 O 0.01687 0.05306 0.56475
 O876 O 0.05544 0.01472 0.57192
 Zr877 Zr 0.01430 0.00877 0.55062
 O878 O 0.03968 -0.02099 0.52579
 Zr879 Zr -0.00290 0.04786 0.49136
 O880 O 0.02218 0.02003 0.46406
 Zr881 Zr -0.04615 -0.00709 0.51268
 O882 O -0.02324 -0.03759 0.48594
 Zr883 Zr 0.05608 0.00055 0.48838
 O884 O 0.03340 0.03131 0.51480
 Zr885 Zr 0.01289 -0.05475 0.50926
 O886 O -0.01202 -0.02676 0.53682
 Zr887 Zr -0.00408 -0.01548 0.45009
 O888 O -0.03021 0.01419 0.47484
 O889 O -0.02104 0.02789 0.52837
 O890 O 0.03098 -0.03437 0.47257
 C891 C -0.04668 0.00194 0.58106
 C892 C 0.01432 0.07765 0.55084
 C893 C -0.07062 0.05566 0.49717
 C894 C 0.05893 -0.01455 0.42187
 C895 C 0.07996 -0.06327 0.49716
 C896 C 0.00485 -0.08319 0.44732
 H897 H 0.05584 -0.02879 0.53812
 H898 H -0.03679 -0.05330 0.47935
 H899 H -0.03240 0.04185 0.54071
 H900 H 0.03035 0.03135 0.44736
 H901 H 0.07962 0.05227 0.48637
 H902 H 0.04038 0.07809 0.47067
 H903 H -0.03105 -0.09153 0.50925
 H904 H -0.06086 -0.05558 0.53807
 H905 H 0.10983 0.00662 0.50752
 H906 H 0.05181 0.02290 0.59185
 H907 H -0.05428 -0.03858 0.43583
 H908 H -0.08187 -0.01121 0.46886
 H909 H 0.01149 -0.03711 0.58464
 H910 H 0.03875 -0.07131 0.55737
 H911 H -0.02893 0.05926 0.44207
 H912 H -0.00037 0.02458 0.40942
 O913 O 0.81214 0.31243 0.25707
 O914 O 0.82257 0.28184 0.29720
 O915 O 0.80710 0.25067 0.18447
 O916 O 0.78078 0.20928 0.17473
 O917 O 0.74221 0.31775 0.19495
 O918 O 0.69900 0.32200 0.22531
 O919 O 0.73238 0.16759 0.25699
 O920 O 0.77699 0.16619 0.23570
 O921 O 0.74498 0.22461 0.33219
 O922 O 0.76229 0.27620 0.33726
 O923 O 0.66934 0.23940 0.27647
 O924 O 0.66527 0.25863 0.22397
 O925 O 0.68938 0.19114 0.24803
 O926 O 0.67531 0.21858 0.20811
 O927 O 0.69545 0.25236 0.31711
 O928 O 0.72474 0.29512 0.32690
 O929 O 0.75882 0.18496 0.30489
 O930 O 0.80456 0.18553 0.27562
 O931 O 0.77001 0.33499 0.24248
 O932 O 0.72031 0.33568 0.26371
 O933 O 0.75944 0.27867 0.16878
 O934 O 0.73761 0.22942 0.16416
 O935 O 0.83129 0.26916 0.22436
 O936 O 0.83691 0.24133 0.27126
 Zr937 Zr 0.80033 0.26759 0.25878
 O938 O 0.77714 0.23862 0.28638
 Zr939 Zr 0.76362 0.24466 0.19972
 O940 O 0.73871 0.21507 0.22512
 Zr941 Zr 0.73860 0.30127 0.23833
 O942 O 0.71308 0.27406 0.26569
 Zr943 Zr 0.76289 0.20194 0.26211
 O944 O 0.78931 0.22920 0.23498
 Zr945 Zr 0.73841 0.25868 0.30127
 O946 O 0.76296 0.28910 0.27586
 Zr947 Zr 0.70125 0.23576 0.24273
 O948 O 0.72416 0.26465 0.21385
 O949 O 0.77665 0.28194 0.22255
 O950 O 0.72446 0.22072 0.27936
 C951 C 0.79722 0.33554 0.25017
 C952 C 0.83001 0.26145 0.19718
 C953 C 0.75129 0.30564 0.17099
 C954 C 0.70458 0.16750 0.25190
 C955 C 0.75315 0.19763 0.32948
 C956 C 0.67124 0.24656 0.30381
 H957 H 0.79024 0.23267 0.30270
 H958 H 0.69579 0.28562 0.27210
 H959 H 0.78826 0.29577 0.21047
 H960 H 0.73323 0.19807 0.21268
 H961 H 0.79405 0.17335 0.22415
 H962 H 0.77208 0.19091 0.18252
 H963 H 0.70879 0.30522 0.31605
 H964 H 0.73152 0.33609 0.28238
 H965 H 0.80196 0.16498 0.28257
 H966 H 0.85526 0.25262 0.26756
 H967 H 0.66085 0.27558 0.23692
 H968 H 0.69030 0.30962 0.20962
 H969 H 0.80877 0.29472 0.30808
 H970 H 0.78061 0.26461 0.33942
 H971 H 0.71950 0.24156 0.16387
 H972 H 0.68908 0.21123 0.19295
 O973 O 0.68665 0.69761 0.75176
 O974 O 0.67927 0.72801 0.79365
 O975 O 0.70216 0.75875 0.68195
 O976 O 0.73435 0.79425 0.67060
 O977 O 0.76007 0.68359 0.69579
 O978 O 0.80052 0.67545 0.72964
 O979 O 0.78177 0.83366 0.75729
 O980 O 0.73862 0.83926 0.73354
 O981 O 0.75923 0.77858 0.83171
 O982 O 0.73751 0.72761 0.83505
 O983 O 0.83619 0.75807 0.77855
 O984 O 0.84418 0.73802 0.73175
 O985 O 0.82202 0.80554 0.74690
 O986 O 0.83142 0.77031 0.70538
 O987 O 0.80779 0.74726 0.81831
 O988 O 0.77646 0.70827 0.82853
 O989 O 0.75061 0.81928 0.80386
 O990 O 0.70693 0.82282 0.77185
 O991 O 0.72686 0.67041 0.73945
 O992 O 0.77317 0.66400 0.76597
 O993 O 0.74690 0.72356 0.66858
 O994 O 0.77506 0.77099 0.66477
 O995 O 0.67452 0.74364 0.72054
 O996 O 0.66962 0.77019 0.76790
 Zr997 Zr 0.70391 0.74069 0.75614
 O998 O 0.72883 0.76755 0.78449
 Zr999 Zr 0.74544 0.75882 0.69863
 O1000 O 0.77166 0.78651 0.72474
 Zr1001 Zr 0.76228 0.70029 0.73895
 O1002 O 0.78955 0.72549 0.76660
 Zr1003 Zr 0.74759 0.80251 0.76075
 O1004 O 0.71997 0.77748 0.73260
 Zr1005 Zr 0.76485 0.74401 0.80108
 O1006 O 0.73804 0.71570 0.77526
 Zr1007 Zr 0.80607 0.76205 0.74360
 O1008 O 0.78167 0.73462 0.71461
 O1009 O 0.72741 0.72356 0.72105
 O1010 O 0.78330 0.78010 0.77931
 C1011 C 0.69905 0.67323 0.74421
 C1012 C 0.67753 0.75089 0.69335
 C1013 C 0.75275 0.69601 0.67148
 C1014 C 0.80925 0.83045 0.75113
 C1015 C 0.75349 0.80616 0.82872
 C1016 C 0.83280 0.75179 0.80588
 H1017 H 0.71561 0.77478 0.80021
 H1018 H 0.80550 0.71269 0.77403
 H1019 H 0.71476 0.71149 0.70809
 H1020 H 0.77897 0.80275 0.71225
 H1021 H 0.72147 0.83381 0.72122
 H1022 H 0.74076 0.81251 0.68056
 H1023 H 0.78665 0.69365 0.81605
 H1024 H 0.75958 0.66460 0.78300
 H1025 H 0.71103 0.84312 0.77882
 H1026 H 0.65042 0.76060 0.76374
 H1027 H 0.84242 0.71825 0.74069
 H1028 H 0.81183 0.68687 0.71493
 H1029 H 0.69067 0.71249 0.80383
 H1030 H 0.72038 0.74095 0.83677
 H1031 H 0.79084 0.75595 0.66438
 H1032 H 0.82303 0.78777 0.69545
 O1033 O 0.31913 0.20081 0.74987
 O1034 O 0.32666 0.23212 0.70964
 O1035 O 0.30414 0.25924 0.82236
 O1036 O 0.27400 0.29787 0.83189
 O1037 O 0.24692 0.18678 0.80904
 O1038 O 0.20681 0.17664 0.77492
 O1039 O 0.22393 0.33618 0.74610
 O1040 O 0.26730 0.34209 0.76945
 O1041 O 0.24333 0.28049 0.67247
 O1042 O 0.26494 0.23222 0.66668
 O1043 O 0.16864 0.25758 0.72789
 O1044 O 0.15989 0.24415 0.77360
 O1045 O 0.18374 0.30789 0.75621
 O1046 O 0.17776 0.27299 0.80174
 O1047 O 0.19618 0.24737 0.68736
 O1048 O 0.23112 0.20756 0.67849
 O1049 O 0.25373 0.32128 0.69964
 O1050 O 0.29825 0.32527 0.73047
 O1051 O 0.27973 0.17353 0.76368
 O1052 O 0.23267 0.16655 0.73889
 O1053 O 0.25852 0.22736 0.83599
 O1054 O 0.23229 0.27547 0.83943
 O1055 O 0.33171 0.24532 0.78284
 O1056 O 0.33549 0.27419 0.73595
 Zr1057 Zr 0.30187 0.24378 0.74737
 O1058 O 0.27617 0.26984 0.71905
 Zr1059 Zr 0.26104 0.26188 0.80534
 O1060 O 0.23444 0.28946 0.77937
 Zr1061 Zr 0.24405 0.20296 0.76562
 O1062 O 0.21601 0.22783 0.73876
 Zr1063 Zr 0.25790 0.30500 0.74279
 O1064 O 0.28603 0.28054 0.77095
 Zr1065 Zr 0.23980 0.24599 0.70342
 O1066 O 0.26762 0.21843 0.72888
 Zr1067 Zr 0.19980 0.26468 0.76148
 O1068 O 0.22465 0.23725 0.79007
 O1069 O 0.27892 0.22649 0.78283
 O1070 O 0.22177 0.28232 0.72515
 C1071 C 0.30725 0.17629 0.75737
 C1072 C 0.32857 0.25150 0.81029
 C1073 C 0.25315 0.19969 0.83345
 C1074 C 0.19639 0.33281 0.75172
 C1075 C 0.24932 0.30807 0.67504
 C1076 C 0.17139 0.25036 0.70067
 H1077 H 0.28890 0.27705 0.70292
 H1078 H 0.20011 0.21452 0.73228
 H1079 H 0.29138 0.21398 0.79553
 H1080 H 0.22725 0.30590 0.79169
 H1081 H 0.28492 0.33700 0.78124
 H1082 H 0.26638 0.31589 0.82241
 H1083 H 0.21589 0.19612 0.68905
 H1084 H 0.24557 0.16741 0.72134
 H1085 H 0.29394 0.34551 0.72349
 H1086 H 0.35487 0.26509 0.74031
 H1087 H 0.16487 0.22346 0.77808
 H1088 H 0.19529 0.18748 0.78985
 H1089 H 0.31456 0.21794 0.69833
 H1090 H 0.28350 0.24364 0.66670
 H1091 H 0.21638 0.26061 0.84072
 H1092 H 0.18191 0.29356 0.80765
 O1093 O 0.25226 0.81264 0.30027
 O1094 O 0.29465 0.81908 0.27096
 O1095 O 0.18227 0.80172 0.23878
 O1096 O 0.16952 0.77108 0.20260
 O1097 O 0.19327 0.74068 0.31226
 O1098 O 0.22580 0.69931 0.31969
 O1099 O 0.25379 0.72173 0.16193
 O1100 O 0.23438 0.76789 0.15743
 O1101 O 0.32985 0.73881 0.21834
 O1102 O 0.33434 0.75813 0.26930
 O1103 O 0.27283 0.66408 0.23639
 O1104 O 0.22622 0.65664 0.25436
 O1105 O 0.24180 0.68100 0.18870
 O1106 O 0.19950 0.67294 0.22425
 O1107 O 0.31403 0.69000 0.24710
 O1108 O 0.32468 0.72017 0.28849
 O1109 O 0.30274 0.74947 0.17770
 O1110 O 0.27339 0.79536 0.17579
 O1111 O 0.23868 0.77213 0.32650
 O1112 O 0.26308 0.72472 0.33156
 O1113 O 0.16675 0.75567 0.27256
 O1114 O 0.16217 0.73028 0.22375
 O1115 O 0.22214 0.82755 0.25389
 O1116 O 0.27021 0.83083 0.22860
 Zr1117 Zr 0.25631 0.79641 0.25699
 O1118 O 0.28393 0.77102 0.22983
 Zr1119 Zr 0.19713 0.75788 0.23762
 O1120 O 0.22235 0.73169 0.20924
 Zr1121 Zr 0.23646 0.73769 0.29568
 O1122 O 0.26285 0.70986 0.26981
 Zr1123 Zr 0.25965 0.75454 0.19417
 O1124 O 0.23230 0.78238 0.21979
 Zr1125 Zr 0.29861 0.73348 0.25228
 O1126 O 0.27383 0.76076 0.28101
 Zr1127 Zr 0.23935 0.69570 0.23264
 O1128 O 0.21139 0.72035 0.26079
 O1129 O 0.22003 0.77400 0.27344
 O1130 O 0.27629 0.71724 0.21547
 C1131 C 0.24446 0.79978 0.32427
 C1132 C 0.19481 0.82579 0.24659
 C1133 C 0.16913 0.74860 0.29986
 C1134 C 0.24590 0.69457 0.16423
 C1135 C 0.32738 0.74532 0.19093
 C1136 C 0.30045 0.66564 0.24209
 H1137 H 0.30037 0.78368 0.22319
 H1138 H 0.26934 0.69312 0.28208
 H1139 H 0.20738 0.78675 0.28575
 H1140 H 0.20941 0.72553 0.19293
 H1141 H 0.22188 0.78446 0.16409
 H1142 H 0.18015 0.76651 0.18419
 H1143 H 0.31235 0.70737 0.30107
 H1144 H 0.28107 0.73705 0.33080
 H1145 H 0.28156 0.79174 0.15587
 H1146 H 0.26678 0.84998 0.23857
 H1147 H 0.23376 0.65779 0.27474
 H1148 H 0.21139 0.68834 0.30757
 H1149 H 0.30444 0.80652 0.28582
 H1150 H 0.33604 0.77632 0.25745
 H1151 H 0.16070 0.71405 0.23822
 H1152 H 0.19071 0.68131 0.20619
 O1153 O 0.31230 0.81128 0.75429
 O1154 O 0.31709 0.78573 0.79919
 O1155 O 0.31022 0.74411 0.68896
 O1156 O 0.28221 0.70295 0.67875
 O1157 O 0.24566 0.81266 0.68875
 O1158 O 0.20050 0.82032 0.71699
 O1159 O 0.23014 0.66767 0.76037
 O1160 O 0.27645 0.66483 0.74369
 O1161 O 0.23790 0.73004 0.83272
 O1162 O 0.25553 0.78235 0.83486
 O1163 O 0.16591 0.74279 0.77075
 O1164 O 0.16121 0.75259 0.72190
 O1165 O 0.18780 0.69122 0.74863
 O1166 O 0.18011 0.71999 0.70089
 O1167 O 0.18958 0.75731 0.81234
 O1168 O 0.21838 0.79998 0.82146
 O1169 O 0.25142 0.68820 0.80874
 O1170 O 0.30008 0.68711 0.78478
 O1171 O 0.27087 0.83370 0.73716
 O1172 O 0.22039 0.83741 0.75331
 O1173 O 0.26283 0.77105 0.66708
 O1174 O 0.24264 0.72103 0.66537
 O1175 O 0.33242 0.76306 0.72958
 O1176 O 0.33351 0.74255 0.77925
 Zr1177 Zr 0.29853 0.76730 0.76056
 O1178 O 0.27304 0.74061 0.78848
 Zr1179 Zr 0.26548 0.74017 0.70110
 O1180 O 0.23848 0.71279 0.72672
 Zr1181 Zr 0.23924 0.80008 0.73308
 O1182 O 0.21148 0.77519 0.76051
 Zr1183 Zr 0.26004 0.70238 0.76598
 O1184 O 0.28862 0.72726 0.73897
 Zr1185 Zr 0.23365 0.76206 0.79905
 O1186 O 0.26035 0.79040 0.77321
 Zr1187 Zr 0.20028 0.73526 0.74007
 O1188 O 0.22549 0.76190 0.71079
 O1189 O 0.27799 0.77907 0.72142
 O1190 O 0.22071 0.72264 0.77913
 C1191 C 0.29793 0.83413 0.74558
 C1192 C 0.33299 0.75345 0.70304
 C1193 C 0.25457 0.79802 0.66621
 C1194 C 0.20260 0.66763 0.75403
 C1195 C 0.24492 0.70257 0.83206
 C1196 C 0.16611 0.75184 0.79762
 H1197 H 0.28479 0.73577 0.80615
 H1198 H 0.19404 0.78747 0.76471
 H1199 H 0.29085 0.79136 0.70881
 H1200 H 0.23384 0.69500 0.71509
 H1201 H 0.29517 0.67080 0.73422
 H1202 H 0.27700 0.68544 0.69054
 H1203 H 0.20312 0.80933 0.80905
 H1204 H 0.22639 0.83647 0.77418
 H1205 H 0.29675 0.66706 0.79279
 H1206 H 0.35219 0.75364 0.77672
 H1207 H 0.16502 0.77374 0.71863
 H1208 H 0.19396 0.80883 0.69965
 H1209 H 0.30290 0.80044 0.80676
 H1210 H 0.27342 0.77072 0.83923
 H1211 H 0.22250 0.72925 0.66591
 H1212 H 0.18877 0.70065 0.69585
 O1213 O 0.25427 0.18585 0.19484
 O1214 O 0.29776 0.17710 0.22422
 O1215 O 0.18642 0.19671 0.25807
 O1216 O 0.17986 0.22383 0.29937
 O1217 O 0.19532 0.25815 0.18887
 O1218 O 0.22715 0.30026 0.18117
 O1219 O 0.26566 0.27278 0.33552
 O1220 O 0.24364 0.22893 0.33976
 O1221 O 0.33759 0.25366 0.27397
 O1222 O 0.34376 0.24197 0.22728
 O1223 O 0.28250 0.33221 0.26161
 O1224 O 0.23164 0.33861 0.24384
 O1225 O 0.25370 0.31462 0.31062
 O1226 O 0.21217 0.32757 0.28067
 O1227 O 0.32162 0.30473 0.24697
 O1228 O 0.32373 0.27027 0.20062
 O1229 O 0.31237 0.24384 0.31608
 O1230 O 0.28188 0.19944 0.31916
 O1231 O 0.24190 0.22780 0.17044
 O1232 O 0.26321 0.27649 0.16563
 O1233 O 0.17085 0.24534 0.23060
 O1234 O 0.16977 0.26664 0.28000
 O1235 O 0.22493 0.17047 0.23987
 O1236 O 0.27235 0.16469 0.26582
 Zr1237 Zr 0.26005 0.20048 0.23843
 O1238 O 0.28972 0.22440 0.26445
 Zr1239 Zr 0.20354 0.23973 0.26257
 O1240 O 0.23100 0.26510 0.28974
 Zr1241 Zr 0.23982 0.26105 0.20279
 O1242 O 0.26886 0.28747 0.22766
 Zr1243 Zr 0.26830 0.24080 0.30202
 O1244 O 0.23889 0.21389 0.27753
 Zr1245 Zr 0.30456 0.26198 0.24229
 O1246 O 0.27734 0.23618 0.21441
 Zr1247 Zr 0.24801 0.30134 0.26649
 O1248 O 0.21755 0.27774 0.23988
 O1249 O 0.22377 0.22453 0.22470
 O1250 O 0.28511 0.27816 0.28070
 C1251 C 0.24740 0.19998 0.17130
 C1252 C 0.19790 0.17291 0.24785
 C1253 C 0.17158 0.25196 0.20317
 C1254 C 0.25886 0.30029 0.33448
 C1255 C 0.33635 0.24663 0.30137
 C1256 C 0.30946 0.32936 0.25340
 H1257 H 0.30600 0.21098 0.26968
 H1258 H 0.27527 0.30416 0.21526
 H1259 H 0.21039 0.21290 0.21204
 H1260 H 0.21938 0.27123 0.30707
 H1261 H 0.23175 0.21148 0.33426
 H1262 H 0.18954 0.23177 0.31717
 H1263 H 0.31910 0.29084 0.19513
 H1264 H 0.28146 0.26466 0.16434
 H1265 H 0.28970 0.20254 0.33931
 H1266 H 0.26844 0.14601 0.25517
 H1267 H 0.24239 0.34007 0.22497
 H1268 H 0.21262 0.31009 0.19411
 H1269 H 0.30695 0.18911 0.20857
 H1270 H 0.33950 0.22071 0.22565
 H1271 H 0.17144 0.28584 0.26989
 H1272 H 0.20171 0.31667 0.29636
 O1273 O 0.74692 0.68313 0.30669
 O1274 O 0.70160 0.67871 0.28057
 O1275 O 0.81358 0.69123 0.24337
 O1276 O 0.82252 0.71907 0.20301
 O1277 O 0.80815 0.75396 0.31358
 O1278 O 0.77655 0.79654 0.32215
 O1279 O 0.73878 0.77234 0.16722
 O1280 O 0.75869 0.72703 0.16248
 O1281 O 0.66653 0.75704 0.22787
 O1282 O 0.66510 0.73785 0.28020
 O1283 O 0.72502 0.83121 0.24155
 O1284 O 0.77584 0.83548 0.25952
 O1285 O 0.75297 0.81316 0.19274
 O1286 O 0.79552 0.82312 0.22299
 O1287 O 0.68437 0.80567 0.25585
 O1288 O 0.67478 0.77763 0.29655
 O1289 O 0.69096 0.74681 0.18579
 O1290 O 0.71879 0.69974 0.18252
 O1291 O 0.76330 0.72360 0.33134
 O1292 O 0.74051 0.77156 0.33757
 O1293 O 0.83212 0.73850 0.27250
 O1294 O 0.83452 0.76112 0.22349
 O1295 O 0.77261 0.66668 0.25862
 O1296 O 0.72311 0.66425 0.23732
 Zr1297 Zr 0.74012 0.69898 0.26357
 O1298 O 0.71187 0.72437 0.23720
 Zr1299 Zr 0.79928 0.73535 0.23992
 O1300 O 0.77318 0.76224 0.21285
 Zr1301 Zr 0.76401 0.75767 0.29988
 O1302 O 0.73645 0.78554 0.27528
 Zr1303 Zr 0.73460 0.74009 0.20018
 O1304 O 0.76233 0.71166 0.22473
 Zr1305 Zr 0.69940 0.76225 0.26018
 O1306 O 0.72520 0.73533 0.28814
 Zr1307 Zr 0.75806 0.79893 0.23665
 O1308 O 0.78724 0.77371 0.26310
 O1309 O 0.77802 0.72064 0.27731
 O1310 O 0.71986 0.77781 0.22207
 C1311 C 0.75673 0.69603 0.32994
 C1312 C 0.79980 0.66762 0.25096
 C1313 C 0.83154 0.74595 0.29981
 C1314 C 0.74666 0.79953 0.16872
 C1315 C 0.66702 0.75152 0.20019
 C1316 C 0.69792 0.82964 0.24959
 H1317 H 0.69482 0.71204 0.23151
 H1318 H 0.73077 0.80242 0.28779
 H1319 H 0.79119 0.70798 0.28912
 H1320 H 0.78507 0.76802 0.19558
 H1321 H 0.76988 0.70919 0.16809
 H1322 H 0.81318 0.72754 0.18530
 H1323 H 0.68895 0.78651 0.31047
 H1324 H 0.72243 0.75938 0.33854
 H1325 H 0.71065 0.70368 0.16266
 H1326 H 0.72538 0.64549 0.24827
 H1327 H 0.76443 0.83798 0.27789
 H1328 H 0.79055 0.80683 0.30901
 H1329 H 0.69438 0.69109 0.29699
 H1330 H 0.66084 0.72069 0.26746
 H1331 H 0.83571 0.77893 0.23600
 H1332 H 0.80589 0.81127 0.20795
 O1333 O 0.68679 0.23707 0.80776
 O1334 O 0.71341 0.19109 0.81126
 O1335 O 0.74730 0.30412 0.80777
 O1336 O 0.79213 0.31325 0.78414
 O1337 O 0.68390 0.30143 0.74113
 O1338 O 0.67887 0.27259 0.69544
 O1339 O 0.83200 0.23537 0.72670
 O1340 O 0.83357 0.25465 0.77258
 O1341 O 0.77316 0.16122 0.73538
 O1342 O 0.71917 0.15807 0.75199
 O1343 O 0.75748 0.22371 0.66269
 O1344 O 0.74221 0.27906 0.66444
 O1345 O 0.80793 0.24882 0.68486
 O1346 O 0.78302 0.28962 0.67392
 O1347 O 0.74633 0.18079 0.68592
 O1348 O 0.70531 0.16800 0.71165
 O1349 O 0.81341 0.18679 0.75080
 O1350 O 0.81339 0.21302 0.79784
 O1351 O 0.66432 0.25253 0.76569
 O1352 O 0.66178 0.23580 0.71624
 O1353 O 0.72336 0.32495 0.76098
 O1354 O 0.77226 0.33018 0.74152
 O1355 O 0.73446 0.26103 0.82908
 O1356 O 0.75517 0.21206 0.82991
 Zr1357 Zr 0.73116 0.23090 0.79449
 O1358 O 0.76012 0.20493 0.76946
 Zr1359 Zr 0.75592 0.29241 0.76345
 O1360 O 0.78484 0.26862 0.73616
 Zr1361 Zr 0.69840 0.25758 0.73492
 O1362 O 0.72492 0.23136 0.70763
 Zr1363 Zr 0.79739 0.22955 0.75715
 O1364 O 0.77034 0.25460 0.78581
 Zr1365 Zr 0.73983 0.19348 0.72981
 O1366 O 0.70944 0.21762 0.75578
 Zr1367 Zr 0.76368 0.25442 0.69749
 O1368 O 0.73573 0.28220 0.72282
 O1369 O 0.71800 0.26960 0.77416
 O1370 O 0.77820 0.21571 0.71756
 C1371 C 0.66397 0.24545 0.79304
 C1372 C 0.73878 0.28877 0.83013
 C1373 C 0.69655 0.32433 0.75208
 C1374 C 0.83149 0.24300 0.69942
 C1375 C 0.80017 0.16281 0.74402
 C1376 C 0.75060 0.19614 0.66266
 H1377 H 0.76557 0.18755 0.78137
 H1378 H 0.71292 0.22649 0.69022
 H1379 H 0.70478 0.28155 0.78664
 H1380 H 0.80212 0.28105 0.73158
 H1381 H 0.82696 0.26453 0.79085
 H1382 H 0.81002 0.30832 0.77274
 H1383 H 0.69225 0.18170 0.70090
 H1384 H 0.66250 0.21531 0.72361
 H1385 H 0.83402 0.20642 0.79499
 H1386 H 0.74321 0.21342 0.84815
 H1387 H 0.72412 0.26820 0.65926
 H1388 H 0.68973 0.29050 0.68936
 H1389 H 0.69734 0.18491 0.79789
 H1390 H 0.73153 0.15294 0.76916
 H1391 H 0.76189 0.33129 0.72240
 H1392 H 0.78956 0.30426 0.68866
 C1393 C 0.09543 1.02603 1.11219
 C1394 C 0.10851 1.03364 1.13894
 C1395 C 0.09825 1.02184 1.16575
 C1396 C 0.07344 1.00243 1.16497
 C1397 C 0.06193 0.99300 1.13760
 C1398 C 0.07197 1.00603 1.11117
 C1399 C 0.03998 0.97111 1.13755
 N1400 N 0.02782 0.96203 1.16319
 N1401 N 0.03619 0.97341 1.18883
 C1402 C 0.05818 0.99355 1.19058
 H1403 H 0.10306 1.03661 1.09222
 H1404 H 0.12724 1.04842 1.13843
 H1405 H 0.03254 0.96108 1.11732
 H1406 H 0.06306 1.00275 1.21194
 C1407 C 0.59779 0.51699 0.60643
 C1408 C 0.61252 0.52524 0.63213
 C1409 C 0.59960 0.52077 0.65977
 C1410 C 0.57125 0.50764 0.66147
 C1411 C 0.55734 0.49736 0.63558
 C1412 C 0.57005 0.50336 0.60771
 C1413 C 0.53104 0.48119 0.63852
 N1414 N 0.51822 0.47812 0.66527
 N1415 N 0.53005 0.48993 0.68932
 C1416 C 0.55599 0.50468 0.68834
 H1417 H 0.60775 0.52210 0.58538
 H1418 H 0.63414 0.53521 0.63043
 H1419 H 0.52090 0.47043 0.61994
 H1420 H 0.56428 0.51408 0.70855
 C1421 C 0.40895 -0.01525 0.61278
 C1422 C 0.39439 -0.02302 0.63859
 C1423 C 0.40773 -0.01870 0.66600
 C1424 C 0.43652 -0.00640 0.66722
 C1425 C 0.45036 0.00337 0.64103
 C1426 C 0.43677 -0.00193 0.61344
 C1427 C 0.47747 0.01822 0.64340
 N1428 N 0.49086 0.02082 0.66992
 N1429 N 0.47889 0.00970 0.69424
 C1430 C 0.45233 -0.00394 0.69379
 H1431 H 0.39889 -0.02073 0.59207
 H1432 H 0.37253 -0.03249 0.63710
 H1433 H 0.48789 0.02819 0.62455
 H1434 H 0.44402 -0.01295 0.71417
 C1435 C -0.09845 0.48178 1.10999
 C1436 C -0.11065 0.47457 1.13725
 C1437 C -0.09480 0.47918 1.16338
 C1438 C -0.06620 0.49177 1.16187
 C1439 C -0.05489 0.50113 1.13442
 C1440 C -0.07042 0.49457 1.10818
 C1441 C -0.02821 0.51692 1.13415
 N1442 N -0.01258 0.52038 1.15931
 N1443 N -0.02197 0.50930 1.18474
 C1444 C -0.04809 0.49498 1.18686
 H1445 H -0.11061 0.47649 1.09016
 H1446 H -0.13259 0.46520 1.13793
 H1447 H -0.01992 0.52694 1.11425
 H1448 H -0.05427 0.48607 1.20802
 C1449 C -0.06554 0.49759 0.37197
 C1450 C -0.07901 0.50396 0.34545
 C1451 C -0.10581 0.51951 0.34409
 C1452 C -0.11966 0.52755 0.37114
 C1453 C -0.10500 0.52217 0.39839
 C1454 C -0.07765 0.50687 0.39866
 C1455 C -0.11827 0.53264 0.42431
 N1456 N -0.14534 0.54513 0.42339
 N1457 N -0.16011 0.54789 0.39829
 C1458 C -0.14840 0.53924 0.37226
 H1459 H -0.04467 0.48603 0.37147
 H1460 H -0.06724 0.49779 0.32566
 H1461 H -0.10764 0.53101 0.44532
 H1462 H -0.16206 0.54095 0.35292
 C1463 C 0.41098 1.02898 -0.10864
 C1464 C 0.39763 1.03634 -0.13520
 C1465 C 0.40870 1.02576 -0.16213
 C1466 C 0.43487 1.00828 -0.16182
 C1467 C 0.44743 0.99965 -0.13462
 C1468 C 0.43586 1.01083 -0.10797
 C1469 C 0.47153 0.98019 -0.13499
 N1470 N 0.48406 0.97237 -0.16089
 N1471 N 0.47410 0.98272 -0.18638
 C1472 C 0.45027 1.00064 -0.18773
 H1473 H 0.40217 1.03810 -0.08843
 H1474 H 0.37784 1.04964 -0.13445
 H1475 H 0.48038 0.97099 -0.11497
 H1476 H 0.44405 1.00916 -0.20902
 C1477 C 0.59002 0.49913 -0.12044
 C1478 C 0.60697 0.49448 -0.14556
 C1479 C 0.59706 0.47582 -0.16789
 C1480 C 0.56936 0.46187 -0.16517
 C1481 C 0.55276 0.46504 -0.13889
 C1482 C 0.56278 0.48484 -0.11647
 C1483 C 0.52716 0.44761 -0.13619
 N1484 N 0.51776 0.43068 -0.15890
 N1485 N 0.53222 0.42971 -0.18430
 C1486 C 0.55759 0.44484 -0.18825
 H1487 H 0.59838 0.51419 -0.10394
 H1488 H 0.62800 0.50558 -0.14763
 H1489 H 0.51467 0.44643 -0.11639
 H1490 H 0.56814 0.44365 -0.20950
 C1491 C 0.06322 -0.01119 0.36785
 C1492 C 0.07763 -0.01523 0.34119
 C1493 C 0.10602 -0.02718 0.34010
 C1494 C 0.12023 -0.03504 0.36673
 C1495 C 0.10504 -0.03214 0.39396
 C1496 C 0.07638 -0.01937 0.39455
 C1497 C 0.11896 -0.04293 0.41941
 N1498 N 0.14681 -0.05356 0.41799
 N1499 N 0.16168 -0.05444 0.39278
 C1500 C 0.14939 -0.04552 0.36715
 H1501 H 0.04141 -0.00153 0.36753
 H1502 H 0.06635 -0.00912 0.32109
 H1503 H 0.10801 -0.04359 0.44031
 H1504 H 0.16262 -0.04657 0.34742
 C1505 C 0.12726 1.06718 1.00171
 C1506 C 0.15402 1.08155 1.00512
 C1507 C 0.15633 1.10768 1.02164
 C1508 C 0.12988 1.12054 1.03282
 C1509 C 0.10266 1.10516 1.03020
 C1510 C 0.10150 1.07811 1.01455
 C1511 C 0.07767 1.11732 1.04383
 N1512 N 0.07919 1.14412 1.05686
 N1513 N 0.10405 1.15963 1.05718
 C1514 C 0.12928 1.14897 1.04533
 H1515 H 0.12688 1.04664 0.98955
 H1516 H 0.17336 1.07072 0.99632
 H1517 H 0.05696 1.10593 1.04427
 H1518 H 0.14844 1.16308 1.04536
 C1519 C 0.61242 0.58894 0.52538
 C1520 C 0.63870 0.60320 0.53233
 C1521 C 0.66593 0.59061 0.52508
 C1522 C 0.66657 0.56291 0.51058
 C1523 C 0.63983 0.54930 0.50197
 C1524 C 0.61254 0.56190 0.51046
 C1525 C 0.64141 0.52371 0.48458
 N1526 N 0.66787 0.51122 0.47868
 N1527 N 0.69287 0.52274 0.48876
 C1528 C 0.69314 0.54805 0.50458
 H1529 H 0.59181 0.59887 0.53218
 H1530 H 0.63779 0.62434 0.54336
 H1531 H 0.62198 0.51393 0.47504
 H1532 H 0.71411 0.55614 0.51242
 C1533 C 0.60769 0.40725 -0.02958
 C1534 C 0.63383 0.39286 -0.03641
 C1535 C 0.66123 0.40507 -0.02873
 C1536 C 0.66187 0.43315 -0.01462
 C1537 C 0.63511 0.44716 -0.00681
 C1538 C 0.60790 0.43464 -0.01554
 C1539 C 0.63652 0.47327 0.00981
 N1540 N 0.66289 0.48608 0.01542
 N1541 N 0.68793 0.47444 0.00562
 C1542 C 0.68833 0.44866 -0.00941
 H1543 H 0.58711 0.39697 -0.03556
 H1544 H 0.63244 0.37135 -0.04665
 H1545 H 0.61696 0.48336 0.01880
 H1546 H 0.70929 0.44083 -0.01748
 C1547 C 0.13384 -0.06718 0.49348
 C1548 C 0.15968 -0.08127 0.48590
 C1549 C 0.15997 -0.11129 0.47973
 C1550 C 0.13382 -0.12793 0.48300
 C1551 C 0.10706 -0.11367 0.49130
 C1552 C 0.10679 -0.08233 0.49492
 C1553 C 0.08211 -0.13167 0.49572
 N1554 N 0.08378 -0.16116 0.49124
 N1555 N 0.10869 -0.17416 0.48295
 C1556 C 0.13377 -0.15858 0.47878
 H1557 H 0.13512 -0.04367 0.49730
 H1558 H 0.17973 -0.06838 0.48429
 H1559 H 0.06125 -0.12324 0.50292
 H1560 H 0.15349 -0.17034 0.47249
 C1561 C 0.37933 -0.08178 0.49434
 C1562 C 0.35461 -0.09924 0.49864
 C1563 C 0.33441 -0.09273 0.52093
 C1564 C 0.33757 -0.06624 0.53721
 C1565 C 0.36209 -0.04739 0.53189
 C1566 C 0.38423 -0.05629 0.51118
 C1567 C 0.36296 -0.02047 0.54754
 N1568 N 0.34142 -0.01346 0.56694
 N1569 N 0.31865 -0.03117 0.57180
 C1570 C 0.31588 -0.05714 0.55754
 H1571 H 0.39513 -0.08866 0.47784
 H1572 H 0.35198 -0.11889 0.48533
 H1573 H 0.37998 -0.00436 0.54503
 H1574 H 0.29634 -0.07001 0.56183
 C1575 C -0.12330 0.40884 0.99447
 C1576 C -0.14701 0.39131 1.00285
 C1577 C -0.17053 0.40329 1.01854
 C1578 C -0.17175 0.43401 1.02338
 C1579 C -0.14839 0.45226 1.01346
 C1580 C -0.12250 0.43903 1.00125
 C1581 C -0.15262 0.48302 1.01527
 N1582 N -0.17705 0.49421 1.02828
 N1583 N -0.19803 0.47689 1.03912
 C1584 C -0.19633 0.44722 1.03694
 H1585 H -0.10490 0.39830 0.98359
 H1586 H -0.14681 0.36806 0.99745
 H1587 H -0.13788 0.49854 1.00521
 H1588 H -0.21446 0.43432 1.04543
 C1589 C -0.10883 0.59136 0.47929
 C1590 C -0.13500 0.60542 0.47147
 C1591 C -0.16244 0.59505 0.48158
 C1592 C -0.16298 0.56895 0.49919
 C1593 C -0.13622 0.55611 0.50874
 C1594 C -0.10904 0.56661 0.49766
 C1595 C -0.13756 0.53263 0.52889
 N1596 N -0.16387 0.52056 0.53613
 N1597 N -0.18889 0.53045 0.52457
 C1598 C -0.18933 0.55386 0.50608
 H1599 H -0.08828 0.59940 0.47018
 H1600 H -0.13355 0.62505 0.45803
 H1601 H -0.11795 0.52392 0.53909
 H1602 H -0.21024 0.56000 0.49659
 C1603 C 0.36675 1.06196 0.00406
 C1604 C 0.34006 1.07627 -0.00044
 C1605 C 0.33849 1.10268 -0.01657
 C1606 C 0.36534 1.11586 -0.02629
 C1607 C 0.39247 1.10073 -0.02241
 C1608 C 0.39305 1.07352 -0.00702
 C1609 C 0.41808 1.11329 -0.03457
 N1610 N 0.41702 1.14027 -0.04724
 N1611 N 0.39207 1.15552 -0.04872
 C1612 C 0.36633 1.14442 -0.03847
 H1613 H 0.36676 1.04120 0.01581
 H1614 H 0.32027 1.06541 0.00731
 H1615 H 0.43891 1.10203 -0.03425
 H1616 H 0.34706 1.15832 -0.03945
 C1617 C -0.00175 1.13169 1.07183
 C1618 C 0.00446 1.15810 1.08575
 C1619 C 0.02068 1.15927 1.11217
 C1620 C 0.02958 1.13205 1.12513
 C1621 C 0.02435 1.10495 1.11001
 C1622 C 0.00829 1.10488 1.08307
 C1623 C 0.03579 1.07899 1.12241
 N1624 N 0.04896 1.07965 1.14914
 N1625 N 0.05155 1.10451 1.16438
 C1626 C 0.04204 1.13059 1.15349
 H1627 H -0.01386 1.13239 1.05129
 H1628 H -0.00238 1.17801 1.07457
 H1629 H 0.03447 1.05816 1.11136
 H1630 H 0.04370 1.14972 1.16750
 C1631 C 0.51068 0.63300 0.55809
 C1632 C 0.51609 0.65952 0.57229
 C1633 C 0.52862 0.66022 0.60042
 C1634 C 0.53559 0.63330 0.61464
 C1635 C 0.53091 0.60611 0.59974
 C1636 C 0.51785 0.60604 0.57126
 C1637 C 0.54027 0.58012 0.61372
 N1638 N 0.55173 0.58117 0.64124
 N1639 N 0.55464 0.60647 0.65573
 C1640 C 0.54688 0.63252 0.64345
 H1641 H 0.50088 0.63361 0.53636
 H1642 H 0.51067 0.67981 0.56100
 H1643 H 0.53900 0.55903 0.60309
 H1644 H 0.54949 0.65230 0.65642
 C1645 C -0.00594 0.62730 0.44153
 C1646 C -0.01052 0.65402 0.42744
 C1647 C -0.02234 0.65516 0.39904
 C1648 C -0.02904 0.62843 0.38428
 C1649 C -0.02541 0.60103 0.39907
 C1650 C -0.01339 0.60050 0.42806
 C1651 C -0.03478 0.57538 0.38441
 N1652 N -0.04518 0.57690 0.35650
 N1653 N -0.04698 0.60236 0.34215
 C1654 C -0.03913 0.62812 0.35500
 H1655 H 0.00324 0.62768 0.46354
 H1656 H -0.00524 0.67414 0.43916
 H1657 H -0.03432 0.55417 0.39467
 H1658 H -0.04069 0.64802 0.34208
 C1659 C 0.47785 1.11442 -0.08714
 C1660 C 0.46905 1.14117 -0.09929
 C1661 C 0.47929 1.16812 -0.08789
 C1662 C 0.49836 1.16762 -0.06290
 C1663 C 0.50807 1.14030 -0.05137
 C1664 C 0.49697 1.11362 -0.06302
 C1665 C 0.52838 1.14050 -0.02800
 N1666 N 0.53643 1.16632 -0.01539
 N1667 N 0.52546 1.19187 -0.02454
 C1668 C 0.50650 1.19340 -0.04753
 H1669 H 0.46865 1.09420 -0.09589
 H1670 H 0.45462 1.14064 -0.11827
 H1671 H 0.53802 1.12038 -0.01977
 H1672 H 0.49754 1.21472 -0.05305
 C1673 C 0.53544 0.38467 -0.08208
 C1674 C 0.54138 0.36026 -0.09967
 C1675 C 0.51850 0.34496 -0.11384
 C1676 C 0.48957 0.35736 -0.11288
 C1677 C 0.48346 0.38151 -0.09399
 C1678 C 0.50662 0.39477 -0.07792
 C1679 C 0.45419 0.39139 -0.09172
 N1680 N 0.43301 0.37954 -0.10909
 N1681 N 0.43912 0.35844 -0.12848
 C1682 C 0.46663 0.34717 -0.13117
 H1683 H 0.55355 0.39576 -0.07141
 H1684 H 0.56381 0.35217 -0.10022
 H1685 H 0.44789 0.40837 -0.07634
 H1686 H 0.47041 0.33057 -0.14782
 C1687 C 0.03567 -0.12516 0.43366
 C1688 C 0.04148 -0.15136 0.41912
 C1689 C 0.02140 -0.16294 0.39881
 C1690 C -0.00463 -0.14675 0.39229
 C1691 C -0.01114 -0.12059 0.40826
 C1692 C 0.00923 -0.10997 0.42936
 C1693 C -0.03805 -0.10635 0.40278
 N1694 N -0.05634 -0.11664 0.38156
 N1695 N -0.04958 -0.14024 0.36554
 C1696 C -0.02434 -0.15554 0.37006
 H1697 H 0.05206 -0.11654 0.44857
 H1698 H 0.06165 -0.16300 0.42432
 H1699 H -0.04484 -0.08727 0.41518
 H1700 H -0.01982 -0.17416 0.35596
 C1701 C 0.50435 -0.11857 0.58926
 C1702 C 0.50071 -0.14583 0.60290
 C1703 C 0.47535 -0.16288 0.59799
 C1704 C 0.45292 -0.15179 0.57929
 C1705 C 0.45561 -0.12309 0.56748
 C1706 C 0.48233 -0.10717 0.57100
 C1707 C 0.43114 -0.11110 0.55277
 N1708 N 0.40707 -0.12794 0.54741
 N1709 N 0.40576 -0.15592 0.55596
 C1710 C 0.42791 -0.16849 0.57149
 H1711 H 0.52476 -0.10662 0.59247
 H1712 H 0.51800 -0.15381 0.61725
 H1713 H 0.43065 -0.08836 0.54615
 H1714 H 0.42574 -0.19143 0.57734
 C1715 C 0.00345 0.37623 1.07427
 C1716 C 0.00143 0.34859 1.08761
 C1717 C -0.02378 0.33085 1.08396
 C1718 C -0.04609 0.34052 1.06431
 C1719 C -0.04498 0.36934 1.05255
 C1720 C -0.01962 0.38712 1.05696
 C1721 C -0.06976 0.37949 1.03708
 N1722 N -0.09214 0.36081 1.03066
 N1723 N -0.09159 0.33271 1.03882
 C1724 C -0.06918 0.32185 1.05514
 H1725 H 0.02312 0.38932 1.07769
 H1726 H 0.01904 0.34193 1.10224
 H1727 H -0.07181 0.40214 1.03041
 H1728 H -0.06959 0.29872 1.06077
 C1729 C 0.74285 0.31129 0.11798
 C1730 C 0.74732 0.32488 0.09102
 C1731 C 0.76290 0.35163 0.08871
 C1732 C 0.77213 0.36575 0.11527
 C1733 C 0.76867 0.35108 0.14275
 C1734 C 0.75376 0.32360 0.14395
 C1735 C 0.78079 0.36436 0.16798
 N1736 N 0.79284 0.39162 0.16631
 N1737 N 0.79361 0.40651 0.14113
 C1738 C 0.78337 0.39471 0.11572
 H1739 H 0.73156 0.29025 0.11842
 H1740 H 0.74002 0.31309 0.07163
 H1741 H 0.78089 0.35351 0.18901
 H1742 H 0.78360 0.40837 0.09629
 C1743 C 0.26815 0.84253 0.63761
 C1744 C 0.27604 0.85643 0.61139
 C1745 C 0.27470 0.84130 0.58454
 C1746 C 0.26516 0.81154 0.58420
 C1747 C 0.25475 0.79835 0.61038
 C1748 C 0.25775 0.81341 0.63762
 C1749 C 0.24121 0.77054 0.60822
 N1750 N 0.24129 0.75572 0.58233
 N1751 N 0.25368 0.76701 0.55833
 C1752 C 0.26572 0.79432 0.55838
 H1753 H 0.27076 0.85446 0.65809
 H1754 H 0.28310 0.87922 0.61206
 H1755 H 0.22985 0.76083 0.62659
 H1756 H 0.27566 0.80224 0.53828
 C1757 C 0.71945 0.67951 0.63256
 C1758 C 0.71252 0.66375 0.60733
 C1759 C 0.73304 0.64460 0.59468
 C1760 C 0.76052 0.64000 0.60896
 C1761 C 0.76789 0.65681 0.63426
 C1762 C 0.74726 0.67717 0.64567
 C1763 C 0.79591 0.65300 0.64681
 N1764 N 0.81468 0.63272 0.63552
 N1765 N 0.80736 0.61612 0.61248
 C1766 C 0.78094 0.61900 0.59887
 H1767 H 0.70296 0.69388 0.64194
 H1768 H 0.69130 0.66737 0.59703
 H1769 H 0.80313 0.66596 0.66538
 H1770 H 0.77605 0.60465 0.58052
 C1771 C 0.22021 0.19285 0.12494
 C1772 C 0.21277 0.17752 0.09959
 C1773 C 0.22776 0.15184 0.09178
 C1774 C 0.25056 0.14117 0.11017
 C1775 C 0.25870 0.15719 0.13579
 C1776 C 0.24285 0.18311 0.14359
 C1777 C 0.28304 0.14701 0.15200
 N1778 N 0.29685 0.12172 0.14416
 N1779 N 0.28819 0.10598 0.12103
 C1780 C 0.26554 0.11482 0.10378
 H1781 H 0.20791 0.21258 0.13005
 H1782 H 0.19550 0.18614 0.08558
 H1783 H 0.29182 0.15908 0.17030
 H1784 H 0.25942 0.10111 0.08531
 C1785 C 0.28207 0.18814 0.87760
 C1786 C 0.28831 0.17211 0.90283
 C1787 C 0.27023 0.14873 0.91151
 C1788 C 0.24580 0.14079 0.89372
 C1789 C 0.23895 0.15764 0.86830
 C1790 C 0.25742 0.18153 0.86016
 C1791 C 0.21333 0.15035 0.85251
 N1792 N 0.19680 0.12685 0.86068
 N1793 N 0.20401 0.11025 0.88370
 C1794 C 0.22793 0.11637 0.90047
 H1795 H 0.29677 0.20600 0.87164
 H1796 H 0.30703 0.17855 0.91615
 H1797 H 0.20593 0.16327 0.83410
 H1798 H 0.23284 0.10199 0.91876
 C1799 C 0.75651 0.69243 0.38398
 C1800 C 0.76220 0.67839 0.41047
 C1801 C 0.77279 0.64944 0.41122
 C1802 C 0.77743 0.63423 0.38433
 C1803 C 0.77313 0.64910 0.35711
 C1804 C 0.76182 0.67841 0.35702
 C1805 C 0.78118 0.63417 0.33114
 N1806 N 0.79039 0.60581 0.33230
 N1807 N 0.79234 0.59131 0.35764
 C1808 C 0.78606 0.60447 0.38364
 H1809 H 0.74814 0.71477 0.38462
 H1810 H 0.75851 0.69046 0.43071
 H1811 H 0.78083 0.64463 0.30997
 H1812 H 0.78770 0.59143 0.40344
 C1813 C 0.24987 0.80473 0.37779
 C1814 C 0.24452 0.81838 0.40455
 C1815 C 0.23028 0.84568 0.40589
 C1816 C 0.22200 0.85990 0.37938
 C1817 C 0.22620 0.84535 0.35201
 C1818 C 0.24068 0.81753 0.35131
 C1819 C 0.21478 0.85891 0.32659
 N1820 N 0.20231 0.88596 0.32829
 N1821 N 0.20019 0.90035 0.35370
 C1822 C 0.20966 0.88831 0.37926
 H1823 H 0.26074 0.78348 0.37784
 H1824 H 0.25104 0.80713 0.42453
 H1825 H 0.21519 0.84837 0.30545
 H1826 H 0.20761 0.90115 0.39917
 C1827 C 0.74423 0.33279 0.86184
 C1828 C 0.73884 0.34949 0.88689
 C1829 C 0.72158 0.33834 0.90965
 C1830 C 0.70965 0.30973 0.90760
 C1831 C 0.71479 0.29235 0.88206
 C1832 C 0.73261 0.30422 0.85859
 C1833 C 0.70132 0.26415 0.88146
 N1834 N 0.68501 0.25449 0.90450
 N1835 N 0.68085 0.27079 0.92838
 C1836 C 0.69256 0.29805 0.93071
 H1837 H 0.75780 0.34248 0.84480
 H1838 H 0.74833 0.37133 0.88859
 H1839 H 0.70235 0.24936 0.86322
 H1840 H 0.68831 0.31031 0.95066
 C1841 C 0.84408 0.36352 0.24652
 C1842 C 0.86010 0.38830 0.23822
 C1843 C 0.84572 0.41441 0.23092
 C1844 C 0.81479 0.41638 0.23396
 C1845 C 0.79857 0.39177 0.24422
 C1846 C 0.81315 0.36424 0.24830
 C1847 C 0.76852 0.39612 0.25069
 N1848 N 0.75537 0.42220 0.24454
 N1849 N 0.77027 0.44454 0.23284
 C1850 C 0.79952 0.44257 0.22742
 H1851 H 0.85610 0.34328 0.25031
 H1852 H 0.88391 0.38698 0.23709
 H1853 H 0.75553 0.37976 0.26178
 H1854 H 0.81060 0.46154 0.21820
 C1855 C 0.34290 0.86250 0.73266
 C1856 C 0.35750 0.88872 0.72601
 C1857 C 0.34326 0.91593 0.72898
 C1858 C 0.31364 0.91659 0.73897
 C1859 C 0.29961 0.89013 0.74777
 C1860 C 0.31383 0.86265 0.74318
 C1861 C 0.27188 0.89226 0.76143
 N1862 N 0.25794 0.91859 0.76316
 N1863 N 0.27003 0.94304 0.75244
 C1864 C 0.29730 0.94294 0.74032
 H1865 H 0.35427 0.84188 0.72901
 H1866 H 0.38015 0.88775 0.71857
 H1867 H 0.26153 0.87346 0.77149
 H1868 H 0.30581 0.96344 0.73175
 C1869 C 0.19322 0.88001 0.24637
 C1870 C 0.18066 0.90692 0.25342
 C1871 C 0.15177 0.90866 0.26406
 C1872 C 0.13410 0.88279 0.26417
 C1873 C 0.14654 0.85521 0.25562
 C1874 C 0.17725 0.85360 0.24857
 C1875 C 0.12742 0.83072 0.25424
 N1876 N 0.09856 0.83358 0.26128
 N1877 N 0.08710 0.85929 0.26923
 C1878 C 0.10374 0.88396 0.27067
 H1879 H 0.21622 0.87987 0.24001
 H1880 H 0.19443 0.92641 0.25233
 H1881 H 0.13429 0.80925 0.24727
 H1882 H 0.09278 0.90435 0.27606
 C1883 C 0.69461 0.37847 0.75036
 C1884 C 0.68135 0.40553 0.75551
 C1885 C 0.65225 0.40730 0.76555
 C1886 C 0.63594 0.38087 0.76961
 C1887 C 0.64994 0.35311 0.76580
 C1888 C 0.67956 0.35200 0.75559
 C1889 C 0.63387 0.32762 0.77327
 N1890 N 0.60527 0.32976 0.78157
 N1891 N 0.59163 0.35563 0.78309
 C1892 C 0.60592 0.38117 0.77724
 H1893 H 0.71723 0.37824 0.74273
 H1894 H 0.69424 0.42534 0.75219
 H1895 H 0.64357 0.30604 0.77305
 H1896 H 0.59358 0.40138 0.77832
 C1897 C 0.69429 0.61926 0.74583
 C1898 C 0.68047 0.59275 0.73958
 C1899 C 0.65205 0.59192 0.72763
 C1900 C 0.63709 0.61888 0.72243
 C1901 C 0.65188 0.64620 0.72721
 C1902 C 0.68080 0.64632 0.73958
 C1903 C 0.63724 0.67215 0.71857
 N1904 N 0.60921 0.67093 0.70837
 N1905 N 0.59476 0.64556 0.70596
 C1906 C 0.60766 0.61955 0.71276
 H1907 H 0.71626 0.61850 0.75512
 H1908 H 0.69242 0.57254 0.74377
 H1909 H 0.64757 0.69340 0.71935
 H1910 H 0.59464 0.59973 0.71075
 C1911 C 0.19299 0.11915 0.24947
 C1912 C 0.17870 0.09283 0.24367
 C1913 C 0.14980 0.09239 0.23295
 C1914 C 0.13482 0.11946 0.22853
 C1915 C 0.14994 0.14657 0.23308
 C1916 C 0.17935 0.14628 0.24407
 C1917 C 0.13516 0.17278 0.22557
 N1918 N 0.10677 0.17191 0.21635
 N1919 N 0.09212 0.14664 0.21394
 C1920 C 0.10510 0.12043 0.21983
 H1921 H 0.21538 0.11823 0.25768
 H1922 H 0.19067 0.07249 0.24716
 H1923 H 0.14569 0.19396 0.22653
 H1924 H 0.09196 0.10069 0.21783
 C1925 C 0.31006 0.12226 0.76108
 C1926 C 0.32389 0.09586 0.76728
 C1927 C 0.35407 0.09476 0.77259
 C1928 C 0.37105 0.12083 0.77036
 C1929 C 0.35705 0.14828 0.76415
 C1930 C 0.32568 0.14906 0.76017
 C1931 C 0.37533 0.17344 0.76240
 N1932 N 0.40484 0.17104 0.76629
 N1933 N 0.41769 0.14532 0.77167
 C1934 C 0.40185 0.12016 0.77371
 H1935 H 0.28649 0.12154 0.75747
 H1936 H 0.31070 0.07597 0.76831
 H1937 H 0.36725 0.19515 0.75804
 H1938 H 0.41359 0.09985 0.77769
 C1939 C 0.84402 0.64065 0.26773
 C1940 C 0.85782 0.61487 0.27701
 C1941 C 0.84416 0.58751 0.27309
 C1942 C 0.81615 0.58614 0.25925
 C1943 C 0.80313 0.61214 0.24818
 C1944 C 0.81646 0.63980 0.25383
 C1945 C 0.77713 0.60953 0.23153
 N1946 N 0.76380 0.58298 0.22858
 N1947 N 0.77486 0.55883 0.24093
 C1948 C 0.80047 0.55950 0.25624
 H1949 H 0.85454 0.66148 0.27229
 H1950 H 0.87932 0.61626 0.28725
 H1951 H 0.76765 0.62824 0.22033
 H1952 H 0.80822 0.53923 0.26599
 C1953 C 0.87148 0.24320 0.16686
 C1954 C 0.89866 0.24733 0.15313
 C1955 C 0.91210 0.27525 0.15236
 C1956 C 0.89725 0.29957 0.16531
 C1957 C 0.86865 0.29564 0.17708
 C1958 C 0.85652 0.26701 0.17933
 C1959 C 0.85285 0.32075 0.18593
 N1960 N 0.86573 0.34763 0.18486
 N1961 N 0.89360 0.35100 0.17648
 C1962 C 0.91000 0.32782 0.16734
 H1963 H 0.86231 0.22120 0.16818
 H1964 H 0.90932 0.22850 0.14311
 H1965 H 0.83030 0.31933 0.19330
 H1966 H 0.93277 0.33184 0.16179
 C1967 C 0.37948 0.77995 0.69442
 C1968 C 0.40564 0.78520 0.67958
 C1969 C 0.41483 0.76663 0.65686
 C1970 C 0.39732 0.74186 0.64923
 C1971 C 0.37119 0.73573 0.66533
 C1972 C 0.36163 0.75568 0.68744
 C1973 C 0.35603 0.70945 0.65904
 N1974 N 0.36507 0.69192 0.63664
 N1975 N 0.38840 0.69873 0.62027
 C1976 C 0.40478 0.72310 0.62572
 H1977 H 0.37294 0.79544 0.71130
 H1978 H 0.41878 0.80414 0.68580
 H1979 H 0.33762 0.70219 0.67208
 H1980 H 0.42333 0.72755 0.61152
 C1981 C 0.36770 0.21842 0.82716
 C1982 C 0.39292 0.21172 0.84312
 C1983 C 0.40525 0.23236 0.86237
 C1984 C 0.39053 0.25962 0.86698
 C1985 C 0.36528 0.26678 0.84997
 C1986 C 0.35424 0.24609 0.82945
 C1987 C 0.35252 0.29474 0.85365
 N1988 N 0.36351 0.31361 0.87401
 N1989 N 0.38644 0.30646 0.89081
 C1990 C 0.40026 0.28014 0.88806
 H1991 H 0.35872 0.20190 0.81255
 H1992 H 0.40359 0.19071 0.83937
 H1993 H 0.33408 0.30189 0.84047
 H1994 H 0.41855 0.27540 0.90254
 C1995 C 0.87717 0.71823 0.30931
 C1996 C 0.90189 0.71103 0.32575
 C1997 C 0.90984 0.72769 0.35035
 C1998 C 0.89231 0.75220 0.35855
 C1999 C 0.86731 0.75996 0.34139
 C2000 C 0.85923 0.74222 0.31687
 C2001 C 0.85196 0.78577 0.34897
 N2002 N 0.86002 0.80152 0.37302
 N2003 N 0.88253 0.79337 0.38991
 C2004 C 0.89892 0.76927 0.38353
 H2005 H 0.87187 0.70461 0.29056
 H2006 H 0.91530 0.69254 0.31884
 H2007 H 0.83418 0.79410 0.33574
 H2008 H 0.91687 0.76365 0.39811
 C2009 C 0.12730 0.77925 0.31437
 C2010 C 0.10187 0.78537 0.33006
 C2011 C 0.09132 0.76572 0.35129
 C2012 C 0.10771 0.73975 0.35741
 C2013 C 0.13302 0.73288 0.34029
 C2014 C 0.14271 0.75291 0.31841
 C2015 C 0.14733 0.70594 0.34546
 N2016 N 0.13802 0.68807 0.36748
 N2017 N 0.11530 0.69525 0.38455
 C2018 C 0.09992 0.72047 0.38036
 H2019 H 0.13521 0.79539 0.29890
 H2020 H 0.09001 0.80546 0.32507
 H2021 H 0.16560 0.69873 0.33216
 H2022 H 0.08199 0.72533 0.39523
 C2023 C 0.63654 0.26759 0.83444
 C2024 C 0.61064 0.27749 0.84763
 C2025 C 0.58316 0.27130 0.83507
 C2026 C 0.58196 0.25497 0.80841
 C2027 C 0.60822 0.24351 0.79598
 C2028 C 0.63584 0.25045 0.80878
 C2029 C 0.60590 0.22537 0.77099
 N2030 N 0.57932 0.22083 0.75820
 N2031 N 0.55490 0.23310 0.76878
 C2032 C 0.55531 0.25009 0.79331
 H2033 H 0.65734 0.27440 0.84372
 H2034 H 0.61208 0.29006 0.86784
 H2035 H 0.62487 0.21442 0.76176
 H2036 H 0.53484 0.25983 0.80054
 C2037 C 0.62345 0.74928 0.68971
 C2038 C 0.59719 0.74245 0.67581
 C2039 C 0.59661 0.73497 0.64607
 C2040 C 0.62296 0.73602 0.62949
 C2041 C 0.65017 0.74312 0.64354
 C2042 C 0.65050 0.74874 0.67460
 C2043 C 0.67562 0.74392 0.62566
 N2044 N 0.67375 0.73810 0.59646
 N2045 N 0.64826 0.73164 0.58357
 C2046 C 0.62283 0.73050 0.59904
 H2047 H 0.62252 0.75415 0.71302
 H2048 H 0.57709 0.74226 0.68869
 H2049 H 0.69714 0.74907 0.63386
 H2050 H 0.60272 0.72556 0.58731
 C2051 C 0.14308 0.23497 0.15974
 C2052 C 0.11669 0.22619 0.14660
 C2053 C 0.08965 0.23106 0.16065
 C2054 C 0.08931 0.24541 0.18842
 C2055 C 0.11593 0.25602 0.20075
 C2056 C 0.14324 0.24943 0.18704
 C2057 C 0.11426 0.27311 0.22652
 N2058 N 0.08808 0.27687 0.24036
 N2059 N 0.06341 0.26490 0.23002
 C2060 C 0.06313 0.24922 0.20465
 H2061 H 0.16356 0.22952 0.14896
 H2062 H 0.11737 0.21543 0.12533
 H2063 H 0.13337 0.28404 0.23541
 H2064 H 0.04246 0.23976 0.19758
 C2065 C -0.06269 0.99925 0.87363
 C2066 C -0.07610 1.00398 0.84655
 C2067 C -0.10316 1.01886 0.84406
 C2068 C -0.11752 1.02753 0.87059
 C2069 C -0.10311 1.02409 0.89845
 C2070 C -0.07509 1.00943 0.90007
 C2071 C -0.11770 1.03563 0.92336
 N2072 N -0.14527 1.04677 0.92106
 N2073 N -0.15956 1.04738 0.89558
 C2074 C -0.14680 1.03789 0.87043
 H2075 H -0.04174 0.98785 0.87359
 H2076 H -0.06415 0.99697 0.82715
 H2077 H -0.10806 1.03636 0.94476
 H2078 H -0.16006 1.03791 0.85072
 C2079 C 0.40881 0.49726 0.38451
 C2080 C 0.39365 0.50302 0.35842
 C2081 C 0.40321 0.52513 0.33909
 C2082 C 0.42854 0.54190 0.34636
 C2083 C 0.44383 0.53617 0.37298
 C2084 C 0.43420 0.51318 0.39179
 C2085 C 0.46817 0.55402 0.38007
 N2086 N 0.47719 0.57527 0.36115
 N2087 N 0.46346 0.57996 0.33570
 C2088 C 0.43954 0.56401 0.32763
 H2089 H 0.40098 0.47990 0.39887
 H2090 H 0.37450 0.48982 0.35301
 H2091 H 0.47997 0.55151 0.40054
 H2092 H 0.42942 0.56881 0.30666
 C2093 C 0.58395 0.00698 0.37997
 C2094 C 0.59910 0.00095 0.35397
 C2095 C 0.59349 -0.02483 0.33758
 C2096 C 0.57055 -0.04402 0.34718
 C2097 C 0.55529 -0.03784 0.37379
 C2098 C 0.56214 -0.01213 0.39021
 C2099 C 0.53327 -0.05761 0.38297
 N2100 N 0.52595 -0.08101 0.36598
 N2101 N 0.53903 -0.08592 0.34028
 C2102 C 0.56075 -0.06813 0.33015
 H2103 H 0.58944 0.02665 0.39232
 H2104 H 0.61623 0.01615 0.34720
 H2105 H 0.52154 -0.05461 0.40325
 H2106 H 0.56943 -0.07273 0.30854
 C2107 C 0.08415 0.48867 0.88470
 C2108 C 0.09867 0.47938 0.85939
 C2109 C 0.08451 0.47958 0.83221
 C2110 C 0.05503 0.48969 0.83040
 C2111 C 0.04038 0.50066 0.85591
 C2112 C 0.05482 0.49894 0.88400
 C2113 C 0.01197 0.51279 0.85171
 N2114 N -0.00111 0.51192 0.82493
 N2115 N 0.01206 0.50000 0.80171
 C2116 C 0.03959 0.48884 0.80353
 H2117 H 0.09618 0.48730 0.90522
 H2118 H 0.12136 0.47216 0.86103
 H2119 H -0.00015 0.52389 0.86859
 H2120 H 0.04905 0.47923 0.78393
 C2121 C 0.09443 0.49313 0.61411
 C2122 C 0.11029 0.50033 0.63941
 C2123 C 0.10216 0.52444 0.65697
 C2124 C 0.07775 0.54195 0.64851
 C2125 C 0.06191 0.53486 0.62256
 C2126 C 0.06982 0.50969 0.60584
 C2127 C 0.03863 0.55347 0.61405
 N2128 N 0.03099 0.57668 0.63118
 N2129 N 0.04508 0.58262 0.65617
 C2130 C 0.06808 0.56604 0.66547
 H2131 H 0.10097 0.47410 0.60129
 H2132 H 0.12869 0.48654 0.64578
 H2133 H 0.02663 0.55000 0.59384
 H2134 H 0.07847 0.57193 0.68602
 C2135 C 0.59282 1.01549 0.11294
 C2136 C 0.60739 1.02420 0.13849
 C2137 C 0.59403 1.02125 0.16600
 C2138 C 0.56522 1.00904 0.16763
 C2139 C 0.55138 0.99762 0.14194
 C2140 C 0.56457 1.00251 0.11380
 C2141 C 0.52504 0.98152 0.14586
 N2142 N 0.51202 0.98018 0.17266
 N2143 N 0.52359 0.99347 0.19602
 C2144 C 0.54962 1.00793 0.19441
 H2145 H 0.60388 1.01938 0.09219
 H2146 H 0.62946 1.03311 0.13673
 H2147 H 0.51496 0.96896 0.12851
 H2148 H 0.55784 1.01846 0.21409
 C2149 C 0.41392 0.47675 0.10935
 C2150 C 0.40205 0.46789 0.13627
 C2151 C 0.41569 0.47540 0.16286
 C2152 C 0.44206 0.49232 0.16198
 C2153 C 0.45259 0.50375 0.13480
 C2154 C 0.43935 0.49448 0.10787
 C2155 C 0.47578 0.52444 0.13594
 N2156 N 0.48963 0.53013 0.16174
 N2157 N 0.48168 0.51693 0.18662
 C2158 C 0.45852 0.49816 0.18760
 H2159 H 0.40314 0.46930 0.08944
 H2160 H 0.38183 0.45520 0.13628
 H2161 H 0.48260 0.53698 0.11700
 H2162 H 0.45326 0.48793 0.20842
 C2163 C -0.08508 -0.02293 0.61121
 C2164 C -0.09688 -0.03176 0.63818
 C2165 C -0.08648 -0.02013 0.66499
 C2166 C -0.06276 0.00068 0.66371
 C2167 C -0.05279 0.01161 0.63612
 C2168 C -0.06275 -0.00159 0.60957
 C2169 C -0.03264 0.03524 0.63617
 N2170 N -0.02021 0.04429 0.66170
 N2171 N -0.02663 0.03139 0.68717
 C2172 C -0.04704 0.00967 0.68898
 H2173 H -0.09307 -0.03355 0.59141
 H2174 H -0.11492 -0.04736 0.63777
 H2175 H -0.02680 0.04684 0.61625
 H2176 H -0.05038 -0.00064 0.71013
 C2177 C -0.13281 0.93689 1.00185
 C2178 C -0.15928 0.92210 1.00612
 C2179 C -0.16054 0.89493 1.02088
 C2180 C -0.13353 0.88170 1.02970
 C2181 C -0.10631 0.89726 1.02635
 C2182 C -0.10595 0.92555 1.01211
 C2183 C -0.08075 0.88352 1.03759
 N2184 N -0.08197 0.85586 1.04867
 N2185 N -0.10694 0.84065 1.04948
 C2186 C -0.13260 0.85245 1.04013
 H2187 H -0.13361 0.95794 0.99067
 H2188 H -0.17924 0.93299 0.99892
 H2189 H -0.05963 0.89379 1.03801
 H2190 H -0.15186 0.83850 1.04035
 C2191 C 0.38639 0.41431 0.52273
 C2192 C 0.36016 0.40120 0.53185
 C2193 C 0.33288 0.41350 0.52456
 C2194 C 0.33234 0.43986 0.50763
 C2195 C 0.35900 0.45200 0.49639
 C2196 C 0.38658 0.43987 0.50517
 C2197 C 0.35677 0.47559 0.47634
 N2198 N 0.33023 0.48797 0.47064
 N2199 N 0.30566 0.47826 0.48331
 C2200 C 0.30581 0.45477 0.50166
 H2201 H 0.40684 0.40438 0.52993
 H2202 H 0.36121 0.38103 0.54452
 H2203 H 0.37551 0.48390 0.46437
 H2204 H 0.28519 0.44810 0.51151
 C2205 C 0.38704 0.59203 -0.02172
 C2206 C 0.36089 0.60534 -0.03078
 C2207 C 0.33373 0.59155 -0.02621
 C2208 C 0.33314 0.56360 -0.01214
 C2209 C 0.35935 0.55151 -0.00009
 C2210 C 0.38706 0.56493 -0.00658
 C2211 C 0.35643 0.52663 0.01830
 N2212 N 0.33007 0.51283 0.02093
 N2213 N 0.30625 0.52239 0.00687
 C2214 C 0.30690 0.54719 -0.00964
 H2215 H 0.40752 0.60309 -0.02698
 H2216 H 0.36189 0.62675 -0.04124
 H2217 H 0.37427 0.51844 0.03159
 H2218 H 0.28688 0.55385 -0.02065
 C2219 C -0.12455 0.06227 0.50012
 C2220 C -0.15112 0.07561 0.49339
 C2221 C -0.15247 0.10216 0.47762
 C2222 C -0.12546 0.11621 0.47002
 C2223 C -0.09788 0.10198 0.47580
 C2224 C -0.09748 0.07420 0.49110
 C2225 C -0.07214 0.11662 0.46605
 N2226 N -0.07377 0.14378 0.45385
 N2227 N -0.09926 0.15772 0.45060
 C2228 C -0.12501 0.14506 0.45854
 H2229 H -0.12556 0.04162 0.51199
 H2230 H -0.17102 0.06397 0.49960
 H2231 H -0.05047 0.10764 0.46776
 H2232 H -0.14475 0.15813 0.45646
 C2233 C 0.61663 0.08317 0.51359
 C2234 C 0.64301 0.09640 0.52178
 C2235 C 0.66999 0.08268 0.51635
 C2236 C 0.67011 0.05488 0.50189
 C2237 C 0.64326 0.04227 0.49152
 C2238 C 0.61585 0.05584 0.49884
 C2239 C 0.64523 0.01678 0.47388
 N2240 N 0.67158 0.00338 0.46974
 N2241 N 0.69621 0.01378 0.48170
 C2242 C 0.69637 0.03895 0.49769
 H2243 H 0.59652 0.09456 0.51946
 H2244 H 0.64229 0.11778 0.53236
 H2245 H 0.62658 0.00773 0.46238
 H2246 H 0.71702 0.04614 0.50708
 C2247 C 0.12873 0.55661 0.98871
 C2248 C 0.15516 0.57146 0.99435
 C2249 C 0.15778 0.59232 1.01750
 C2250 C 0.13204 0.59781 1.03468
 C2251 C 0.10733 0.57900 1.03199
 C2252 C 0.10437 0.56024 1.00716
 C2253 C 0.08647 0.57949 1.05475
 N2254 N 0.08661 0.60170 1.07467
 N2255 N 0.10670 0.62302 1.07349
 C2256 C 0.12914 0.62209 1.05382
 H2257 H 0.12749 0.54186 0.97002
 H2258 H 0.17376 0.56555 0.98075
 H2259 H 0.07070 0.56195 1.05720
 H2260 H 0.14441 0.64029 1.05335
 C2261 C 0.12498 0.43630 0.47248
 C2262 C 0.15043 0.42068 0.46529
 C2263 C 0.15706 0.39399 0.47919
 C2264 C 0.13719 0.38259 0.50044
 C2265 C 0.11118 0.39844 0.50772
 C2266 C 0.10510 0.42561 0.49356
 C2267 C 0.09260 0.38688 0.52965
 N2268 N 0.09932 0.36090 0.54272
 N2269 N 0.12337 0.34577 0.53547
 C2270 C 0.14251 0.35570 0.51482
 H2271 H 0.12063 0.45690 0.46126
 H2272 H 0.16558 0.42996 0.44936
 H2273 H 0.07301 0.39834 0.53679
 H2274 H 0.16162 0.34243 0.50973
 C2275 C 0.60966 0.91028 -0.01893
 C2276 C 0.63576 0.89707 -0.02844
 C2277 C 0.66322 0.90894 -0.02094
 C2278 C 0.66407 0.93479 -0.00322
 C2279 C 0.63765 0.94653 0.00884
 C2280 C 0.60986 0.93530 -0.00057
 C2281 C 0.64032 0.96897 0.03016
 N2282 N 0.66697 0.98112 0.03596
 N2283 N 0.69124 0.97219 0.02223
 C2284 C 0.69069 0.94961 0.00276
 H2285 H 0.58905 0.90097 -0.02654
 H2286 H 0.63446 0.87729 -0.04170
 H2287 H 0.62185 0.97648 0.04304
 H2288 H 0.71108 0.94354 -0.00790
 C2289 C -0.00791 0.88462 0.91606
 C2290 C -0.00150 0.85797 0.90227
 C2291 C 0.02614 0.84409 0.90560
 C2292 C 0.04771 0.85804 0.92378
 C2293 C 0.04117 0.88556 0.93725
 C2294 C 0.01298 0.89844 0.93379
 C2295 C 0.06295 0.89915 0.95464
 N2296 N 0.08892 0.88536 0.95953
 N2297 N 0.09447 0.85881 0.94846
 C2298 C 0.07473 0.84456 0.93116
 H2299 H -0.02958 0.89423 0.91333
 H2300 H -0.01839 0.84828 0.88848
 H2301 H 0.05950 0.92053 0.96452
 H2302 H 0.08023 0.82254 0.92422
 C2303 C 0.52406 0.37240 0.44497
 C2304 C 0.53343 0.34746 0.42974
 C2305 C 0.52277 0.34127 0.40153
 C2306 C 0.50225 0.36077 0.38838
 C2307 C 0.49277 0.38628 0.40383
 C2308 C 0.50394 0.39216 0.43238
 C2309 C 0.47177 0.40462 0.39036
 N2310 N 0.46157 0.39809 0.36308
 N2311 N 0.47084 0.37444 0.34842
 C2312 C 0.49078 0.35556 0.36012
 H2313 H 0.53313 0.37666 0.46661
 H2314 H 0.54867 0.33248 0.44032
 H2315 H 0.46300 0.42382 0.40137
 H2316 H 0.49758 0.33674 0.34720
 C2317 C -0.03392 0.37529 0.56973
 C2318 C -0.04093 0.35037 0.58627
 C2319 C -0.02051 0.33808 0.60603
 C2320 C 0.00664 0.35341 0.61085
 C2321 C 0.01357 0.37886 0.59395
 C2322 C -0.00667 0.38938 0.57286
 C2323 C 0.04060 0.39317 0.59888
 N2324 N 0.05899 0.38333 0.62019
 N2325 N 0.05204 0.36033 0.63698
 C2326 C 0.02649 0.34528 0.63327
 H2327 H -0.04994 0.38360 0.55414
 H2328 H -0.06178 0.33957 0.58201
 H2329 H 0.04715 0.41222 0.58617
 H2330 H 0.02169 0.32752 0.64835
 C2331 C 0.47529 0.87309 0.05484
 C2332 C 0.46670 0.84756 0.06955
 C2333 C 0.47754 0.84116 0.09764
 C2334 C 0.49746 0.86106 0.11119
 C2335 C 0.50619 0.88713 0.09623
 C2336 C 0.49480 0.89323 0.06784
 C2337 C 0.52666 0.90586 0.11000
 N2338 N 0.53697 0.89924 0.13720
 N2339 N 0.52832 0.87513 0.15147
 C2340 C 0.50897 0.85581 0.13942
 H2341 H 0.46610 0.87749 0.03328
 H2342 H 0.45184 0.83236 0.05868
 H2343 H 0.53489 0.92545 0.09927
 H2344 H 0.50267 0.83663 0.15203
 C2345 C 0.52039 0.61070 0.08653
 C2346 C 0.52827 0.63662 0.10111
 C2347 C 0.52281 0.66420 0.08852
 C2348 C 0.50927 0.66537 0.06033
 C2349 C 0.49829 0.63924 0.04697
 C2350 C 0.50549 0.61122 0.05932
 C2351 C 0.48008 0.64259 0.02201
 N2352 N 0.47684 0.66936 0.00925
 N2353 N 0.49007 0.69321 0.01993
 C2354 C 0.50625 0.69211 0.04492
 H2355 H 0.52613 0.58998 0.09682
 H2356 H 0.53844 0.63508 0.12260
 H2357 H 0.46738 0.62474 0.01293
 H2358 H 0.51659 0.71218 0.05249
 C2359 C 0.00315 0.13043 0.56041
 C2360 C 0.00686 0.15692 0.57554
 C2361 C 0.02694 0.15961 0.59915
 C2362 C 0.04268 0.13374 0.60770
 C2363 C 0.04149 0.10806 0.58987
 C2364 C 0.02023 0.10566 0.56711
 C2365 C 0.06225 0.08583 0.59528
 N2366 N 0.07893 0.08659 0.61998
 N2367 N 0.07647 0.10842 0.63934
 C2368 C 0.05865 0.13181 0.63423
 H2369 H -0.01304 0.12950 0.54293
 H2370 H -0.00546 0.17566 0.56756
 H2371 H 0.06601 0.06850 0.57960
 H2372 H 0.05695 0.14846 0.65105
 C2373 C 0.49098 0.13157 0.44935
 C2374 C 0.48229 0.15724 0.43507
 C2375 C 0.48573 0.16023 0.40466
 C2376 C 0.49921 0.13729 0.38842
 C2377 C 0.50839 0.11117 0.40298
 C2378 C 0.50348 0.10803 0.43369
 C2379 C 0.52282 0.08942 0.38628
 N2380 N 0.52693 0.09337 0.35699
 N2381 N 0.51779 0.11761 0.34329
 C2382 C 0.50414 0.13972 0.35799
 H2383 H 0.48686 0.12969 0.47275
 H2384 H 0.47263 0.17493 0.44784
 H2385 H 0.53149 0.06964 0.39624
 H2386 H 0.49738 0.15902 0.34581
 C2387 C -0.00424 0.63799 0.94994
 C2388 C -0.01124 0.66485 0.93690
 C2389 C -0.01832 0.66661 0.90688
 C2390 C -0.01494 0.64115 0.88906
 C2391 C -0.00564 0.61420 0.90205
 C2392 C -0.00246 0.61209 0.93320
 C2393 C 0.00130 0.59062 0.88314
 N2394 N -0.00267 0.59325 0.85371
 N2395 N -0.01254 0.61807 0.84171
 C2396 C -0.01858 0.64213 0.85828
 H2397 H -0.00134 0.63737 0.97358
 H2398 H -0.01269 0.68424 0.95075
 H2399 H 0.01112 0.57057 0.89118
 H2400 H -0.02542 0.66195 0.84708
 C2401 C 0.26928 0.69670 0.87993
 C2402 C 0.27813 0.67941 0.90364
 C2403 C 0.26608 0.65137 0.90802
 C2404 C 0.24433 0.64070 0.88835
 C2405 C 0.23527 0.65833 0.86429
 C2406 C 0.24823 0.68637 0.85989
 C2407 C 0.21316 0.64740 0.84556
 N2408 N 0.20149 0.62033 0.85040
 N2409 N 0.21037 0.60354 0.87272
 C2410 C 0.23136 0.61278 0.89185
 H2411 H 0.27977 0.71788 0.87656
 H2412 H 0.29426 0.68810 0.91892
 H2413 H 0.20484 0.66024 0.82732
 H2414 H 0.23781 0.59818 0.90950
 C2415 C 0.77919 0.19223 0.37662
 C2416 C 0.78802 0.17619 0.40119
 C2417 C 0.77650 0.14813 0.40668
 C2418 C 0.75579 0.13590 0.38673
 C2419 C 0.74680 0.15226 0.36166
 C2420 C 0.75878 0.18062 0.35658
 C2421 C 0.72554 0.13987 0.34288
 N2422 N 0.71474 0.11258 0.34846
 N2423 N 0.72366 0.09696 0.37159
 C2424 C 0.74378 0.10766 0.39090
 H2425 H 0.78883 0.21375 0.37290
 H2426 H 0.80352 0.18603 0.41644
 H2427 H 0.71714 0.15174 0.32405
 H2428 H 0.75031 0.09395 0.40922
 C2429 C 0.23426 0.30204 0.38281
 C2430 C 0.22427 0.31677 0.40782
 C2431 C 0.23317 0.34566 0.41375
 C2432 C 0.25289 0.35987 0.39411
 C2433 C 0.26299 0.34491 0.36852
 C2434 C 0.25328 0.31578 0.36269
 C2435 C 0.28300 0.35952 0.34994
 N2436 N 0.29172 0.38738 0.35632
 N2437 N 0.28186 0.40156 0.38001
 C2438 C 0.26278 0.38879 0.39911
 H2439 H 0.22624 0.27994 0.37865
 H2440 H 0.20962 0.30542 0.42284
 H2441 H 0.29216 0.34895 0.33069
 H2442 H 0.25546 0.40137 0.41795
 C2443 C 0.72453 0.81300 0.87410
 C2444 C 0.71591 0.82872 0.89902
 C2445 C 0.72982 0.85515 0.90665
 C2446 C 0.75263 0.86617 0.88831
 C2447 C 0.76126 0.85027 0.86274
 C2448 C 0.74712 0.82334 0.85572
 C2449 C 0.78442 0.86152 0.84555
 N2450 N 0.79760 0.88721 0.85326
 N2451 N 0.78926 0.90231 0.87697
 C2452 C 0.76727 0.89267 0.89475
 H2453 H 0.71323 0.79261 0.86895
 H2454 H 0.69884 0.81967 0.91304
 H2455 H 0.79241 0.85003 0.82630
 H2456 H 0.76134 0.90587 0.91366
 C2457 C 0.77000 0.80225 0.11987
 C2458 C 0.77828 0.81711 0.09435
 C2459 C 0.76801 0.84557 0.08865
 C2460 C 0.74887 0.85931 0.10915
 C2461 C 0.74057 0.84425 0.13529
 C2462 C 0.75146 0.81550 0.14072
 C2463 C 0.72108 0.85834 0.15479
 N2464 N 0.71114 0.88582 0.14868
 N2465 N 0.71928 0.90010 0.12441
 C2466 C 0.73778 0.88781 0.10445
 H2467 H 0.77880 0.78042 0.12373
 H2468 H 0.79261 0.80617 0.07872
 H2469 H 0.71332 0.84767 0.17459
 H2470 H 0.74368 0.90044 0.08516
 C2471 C 0.27477 0.31463 0.62760
 C2472 C 0.28186 0.33044 0.60229
 C2473 C 0.26799 0.35722 0.59599
 C2474 C 0.24664 0.36836 0.61587
 C2475 C 0.23960 0.35238 0.64187
 C2476 C 0.25384 0.32522 0.64769
 C2477 C 0.21787 0.36383 0.66071
 N2478 N 0.20454 0.38973 0.65410
 N2479 N 0.21139 0.40485 0.62994
 C2480 C 0.23193 0.39505 0.61060
 H2481 H 0.28609 0.29405 0.63177
 H2482 H 0.29785 0.32136 0.58709
 H2483 H 0.21108 0.35233 0.68040
 H2484 H 0.23665 0.40823 0.59135
 C2485 C 0.76124 0.15561 0.62767
 C2486 C 0.75487 0.13883 0.60271
 C2487 C 0.73177 0.14665 0.58378
 C2488 C 0.71509 0.17226 0.58990
 C2489 C 0.72139 0.18923 0.61540
 C2490 C 0.74502 0.18103 0.63425
 C2491 C 0.70320 0.21353 0.62146
 N2492 N 0.68130 0.22105 0.60264
 N2493 N 0.67615 0.20577 0.57820
 C2494 C 0.69230 0.18170 0.57115
 H2495 H 0.77892 0.14864 0.64207
 H2496 H 0.76813 0.11956 0.59805
 H2497 H 0.70593 0.22651 0.64097
 H2498 H 0.68707 0.17022 0.55098
 C2499 C 0.25297 0.65138 0.13146
 C2500 C 0.24640 0.63504 0.10626
 C2501 C 0.22538 0.64507 0.08606
 C2502 C 0.21080 0.67214 0.09120
 C2503 C 0.21681 0.68830 0.11717
 C2504 C 0.23880 0.67824 0.13699
 C2505 C 0.20000 0.71376 0.12263
 N2506 N 0.18016 0.72331 0.10251
 N2507 N 0.17577 0.70901 0.07735
 C2508 C 0.19044 0.68384 0.07096
 H2509 H 0.26942 0.64315 0.14663
 H2510 H 0.25802 0.61459 0.10228
 H2511 H 0.20199 0.72596 0.14280
 H2512 H 0.18605 0.67332 0.05009
 C2513 C 0.16095 0.63870 0.73346
 C2514 C 0.14790 0.61267 0.72389
 C2515 C 0.16100 0.58540 0.72949
 C2516 C 0.18782 0.58452 0.74559
 C2517 C 0.20003 0.61090 0.75735
 C2518 C 0.18734 0.63865 0.74977
 C2519 C 0.22436 0.60815 0.77648
 N2520 N 0.23716 0.58156 0.78083
 N2521 N 0.22725 0.55736 0.76763
 C2522 C 0.20316 0.55795 0.75008
 H2523 H 0.15041 0.65919 0.72732
 H2524 H 0.12724 0.61386 0.71202
 H2525 H 0.23297 0.62642 0.78888
 H2526 H 0.19636 0.53763 0.73972
 C2527 C 0.66085 0.13897 0.23506
 C2528 C 0.64647 0.11319 0.22667
 C2529 C 0.66009 0.08581 0.22976
 C2530 C 0.68902 0.08456 0.24163
 C2531 C 0.70274 0.11050 0.25267
 C2532 C 0.68915 0.13849 0.24786
 C2533 C 0.72936 0.10695 0.26837
 N2534 N 0.74264 0.08027 0.26971
 N2535 N 0.73109 0.05666 0.25681
 C2536 C 0.70486 0.05791 0.24274
 H2537 H 0.64956 0.15960 0.23114
 H2538 H 0.62431 0.11466 0.21793
 H2539 H 0.73952 0.12450 0.28059
 H2540 H 0.69668 0.03803 0.23249
 C2541 C 0.80343 0.11432 0.76817
 C2542 C 0.81931 0.09016 0.77852
 C2543 C 0.84871 0.08590 0.77032
 C2544 C 0.86228 0.10635 0.75101
 C2545 C 0.84615 0.13101 0.74053
 C2546 C 0.81652 0.13514 0.74949
 C2547 C 0.86018 0.15045 0.72091
 N2548 N 0.88856 0.14571 0.71291
 N2549 N 0.90382 0.12286 0.72312
 C2550 C 0.89168 0.10303 0.74186
 H2551 H 0.78096 0.11730 0.77565
 H2552 H 0.80843 0.07440 0.79276
 H2553 H 0.84874 0.16909 0.71150
 H2554 H 0.90515 0.08495 0.74952
 C2555 C 0.34290 0.63795 0.26286
 C2556 C 0.35651 0.61202 0.27205
 C2557 C 0.34429 0.58445 0.26552
 C2558 C 0.31794 0.58326 0.24862
 C2559 C 0.30570 0.60954 0.23683
 C2560 C 0.31708 0.63742 0.24576
 C2561 C 0.28253 0.60669 0.21635
 N2562 N 0.27027 0.57997 0.21113
 N2563 N 0.27975 0.55582 0.22468
 C2564 C 0.30298 0.55657 0.24336
 H2565 H 0.35242 0.65865 0.26993
 H2566 H 0.37677 0.61357 0.28455
 H2567 H 0.27450 0.62510 0.20372
 H2568 H 0.30938 0.53629 0.25400
 C2569 C 0.31534 0.37763 0.22939
 C2570 C 0.33191 0.40202 0.22081
 C2571 C 0.36064 0.40610 0.23119
 C2572 C 0.37286 0.38514 0.25078
 C2573 C 0.35608 0.36013 0.25937
 C2574 C 0.32706 0.35636 0.24843
 C2575 C 0.36875 0.34014 0.27931
 N2576 N 0.39645 0.34479 0.28950
 N2577 N 0.41227 0.36807 0.28120
 C2578 C 0.40142 0.38841 0.26224
 H2579 H 0.29334 0.37501 0.22053
 H2580 H 0.32201 0.41819 0.20636
 H2581 H 0.35679 0.32112 0.28723
 H2582 H 0.41522 0.40689 0.25622
 C2583 C 0.81688 0.87688 0.72431
 C2584 C 0.83351 0.90138 0.71622
 C2585 C 0.86059 0.90725 0.72969
 C2586 C 0.87130 0.88766 0.75152
 C2587 C 0.85444 0.86257 0.75964
 C2588 C 0.82694 0.85728 0.74590
 C2589 C 0.86540 0.84408 0.78190
 N2590 N 0.89172 0.85013 0.79466
 N2591 N 0.90773 0.87341 0.78673
 C2592 C 0.89843 0.89237 0.76565
 H2593 H 0.79607 0.87298 0.71329
 H2594 H 0.82473 0.91643 0.69994
 H2595 H 0.85317 0.82512 0.78954
 H2596 H 0.91238 0.91086 0.76001
 C2597 C 0.69415 0.87765 0.27427
 C2598 C 0.67873 0.90275 0.28276
 C2599 C 0.65065 0.90848 0.27152
 C2600 C 0.63788 0.88858 0.25115
 C2601 C 0.65358 0.86297 0.24251
 C2602 C 0.68185 0.85743 0.25445
 C2603 C 0.64066 0.84415 0.22160
 N2604 N 0.61354 0.85033 0.21072
 N2605 N 0.59859 0.87408 0.21923
 C2606 C 0.60982 0.89343 0.23902
 H2607 H 0.71563 0.87361 0.28383
 H2608 H 0.68897 0.91808 0.29792
 H2609 H 0.65203 0.82487 0.21349
 H2610 H 0.59672 0.91236 0.24515
 C2611 C 0.18713 0.37942 0.77751
 C2612 C 0.16991 0.40382 0.78441
 C2613 C 0.14354 0.40919 0.76944
 C2614 C 0.13418 0.38933 0.74723
 C2615 C 0.15163 0.36433 0.74034
 C2616 C 0.17834 0.35948 0.75568
 C2617 C 0.14204 0.34543 0.71777
 N2618 N 0.11643 0.35109 0.70349
 N2619 N 0.09986 0.37433 0.71022
 C2620 C 0.10784 0.39364 0.73157
 H2621 H 0.20734 0.37582 0.78967
 H2622 H 0.17761 0.41909 0.80105
 H2623 H 0.15478 0.32645 0.71110
 H2624 H 0.09349 0.41207 0.73620
 C2625 C 0.13190 0.74568 0.83981
 C2626 C 0.10686 0.75338 0.85595
 C2627 C 0.08700 0.77451 0.84538
 C2628 C 0.09216 0.78760 0.81759
 C2629 C 0.11776 0.78000 0.80125
 C2630 C 0.13767 0.75852 0.81237
 C2631 C 0.12290 0.79497 0.77464
 N2632 N 0.10312 0.81490 0.76454
 N2633 N 0.07860 0.82112 0.77932
 C2634 C 0.07242 0.80816 0.80544
 H2635 H 0.14707 0.72970 0.84895
 H2636 H 0.10309 0.74298 0.87706
 H2637 H 0.14249 0.79135 0.76187
 H2638 H 0.05215 0.81409 0.81642
 C2639 C 0.62280 0.27064 0.30771
 C2640 C 0.59818 0.27998 0.32348
 C2641 C 0.59341 0.27045 0.35235
 C2642 C 0.61391 0.25095 0.36554
 C2643 C 0.63910 0.24152 0.34953
 C2644 C 0.64362 0.25166 0.32038
 C2645 C 0.65855 0.22164 0.36312
 N2646 N 0.65332 0.21241 0.39102
 N2647 N 0.62996 0.22162 0.40617
 C2648 C 0.61008 0.24053 0.39440
 H2649 H 0.62604 0.27900 0.28562
 H2650 H 0.58241 0.29438 0.31287
 H2651 H 0.67759 0.21298 0.35174
 H2652 H 0.59155 0.24733 0.40773
 C2653 C 0.63896 0.73500 0.15593
 C2654 C 0.61326 0.72666 0.14129
 C2655 C 0.58567 0.72986 0.15457
 C2656 C 0.58418 0.74200 0.18338
 C2657 C 0.61004 0.75311 0.19725
 C2658 C 0.63822 0.74793 0.18415
 C2659 C 0.60624 0.76918 0.22360
 N2660 N 0.57943 0.77070 0.23662
 N2661 N 0.55593 0.75762 0.22506
 C2662 C 0.55741 0.74323 0.19902
 H2663 H 0.65973 0.73087 0.14497
 H2664 H 0.61499 0.71771 0.11926
 H2665 H 0.62372 0.78155 0.23372
 H2666 H 0.53762 0.73280 0.19088
 C2667 C 0.13804 0.25717 0.65767
 C2668 C 0.11232 0.25083 0.64193
 C2669 C 0.09209 0.22997 0.65241
 C2670 C 0.09772 0.21541 0.67935
 C2671 C 0.12425 0.22102 0.69476
 C2672 C 0.14418 0.24280 0.68427
 C2673 C 0.13018 0.20399 0.71994
 N2674 N 0.10997 0.18446 0.73004
 N2675 N 0.08427 0.18057 0.71654
 C2676 C 0.07741 0.19541 0.69162
 H2677 H 0.15312 0.27361 0.64919
 H2678 H 0.10808 0.26234 0.62150
 H2679 H 0.15079 0.20554 0.73145
 H2680 H 0.05611 0.19151 0.68178
 C2681 C 0.88012 0.26729 0.69653
 C2682 C 0.90539 0.27597 0.68131
 C2683 C 0.91146 0.26499 0.65316
 C2684 C 0.89165 0.24456 0.64023
 C2685 C 0.86584 0.23580 0.65568
 C2686 C 0.85991 0.24758 0.68397
 C2687 C 0.84706 0.21505 0.64239
 N2688 N 0.85345 0.20439 0.61525
 N2689 N 0.87734 0.21300 0.60057
 C2690 C 0.89663 0.23270 0.61210
 H2691 H 0.87585 0.27679 0.71798
 H2692 H 0.92051 0.29122 0.69172
 H2693 H 0.82758 0.20690 0.65342
 H2694 H 0.91559 0.23898 0.59912
 C2695 C 0.37504 0.77098 0.18720
 C2696 C 0.40033 0.77984 0.17226
 C2697 C 0.40657 0.76912 0.14410
 C2698 C 0.38666 0.74913 0.13065
 C2699 C 0.36070 0.74023 0.14579
 C2700 C 0.35489 0.75134 0.17438
 C2701 C 0.34189 0.71985 0.13200
 N2702 N 0.34842 0.70965 0.10471
 N2703 N 0.37249 0.71835 0.09037
 C2704 C 0.39182 0.73770 0.10239
 H2705 H 0.37090 0.78001 0.20888
 H2706 H 0.41552 0.79477 0.18304
 H2707 H 0.32231 0.71159 0.14274
 H2708 H 0.41098 0.74404 0.08973
 C2709 C 0.37122 0.25442 0.34269
 C2710 C 0.39693 0.24786 0.35820
 C2711 C 0.41632 0.22593 0.34831
 C2712 C 0.40973 0.21047 0.32206
 C2713 C 0.38329 0.21670 0.30660
 C2714 C 0.36423 0.23941 0.31669
 C2715 C 0.37658 0.19939 0.28181
 N2716 N 0.39581 0.17866 0.27226
 N2717 N 0.42127 0.17387 0.28592
 C2718 C 0.42893 0.18907 0.31041
 H2719 H 0.35675 0.27150 0.35094
 H2720 H 0.40183 0.26008 0.37809
 H2721 H 0.35613 0.20174 0.27014
 H2722 H 0.44996 0.18427 0.32041
 C2723 C 0.88021 0.72656 0.81322
 C2724 C 0.90538 0.71972 0.82936
 C2725 C 0.91113 0.73363 0.85623
 C2726 C 0.89075 0.75466 0.86719
 C2727 C 0.86500 0.76154 0.85078
 C2728 C 0.85975 0.74724 0.82358
 C2729 C 0.84574 0.78307 0.86192
 N2730 N 0.85161 0.79622 0.88806
 N2731 N 0.87542 0.78935 0.90374
 C2732 C 0.89515 0.76904 0.89423
 H2733 H 0.87646 0.71526 0.79255
 H2734 H 0.92084 0.70385 0.82050
 H2735 H 0.82626 0.78980 0.85000
 H2736 H 0.91400 0.76425 0.90796
   
