data_POSCAR
  _audit_creation_date              2014-09-24
  _audit_creation_method            'ToBaCCo'
  _symmetry_space_group_name_H-M    'P1'
  _symmetry_Int_Tables_number       1
  _symmetry_cell_setting            triclinic
  loop_
  _symmetry_equiv_pos_as_xyz
 x,y,z
_cell_length_a 102.2260
_cell_length_b 102.0954
_cell_length_c 102.1379
_cell_angle_alpha 90.007800
_cell_angle_beta 90.031100
_cell_angle_gamma 90.031400
loop_
  _atom_site_label
  _atom_site_type_symbol
  _atom_site_fract_x
  _atom_site_fract_y
  _atom_site_fract_z
C1 C 0.32315 0.44412 0.92741
 C2 C 0.31753 0.44960 0.91613
 C3 C 0.30634 0.44398 0.91039
 C4 C 0.30072 0.43281 0.91620
 C5 C 0.30623 0.42723 0.92747
 C6 C 0.31750 0.43289 0.93309
 C7 C 0.33446 0.44961 0.93295
 C8 C 0.34033 0.44399 0.94412
 C9 C 0.33449 0.43281 0.94977
 C10 C 0.32319 0.42723 0.94432
 C11 C 0.31760 0.41595 0.94983
 C12 C 0.30641 0.41017 0.94424
 C13 C 0.30075 0.41595 0.93308
 H14 H 0.32198 0.45819 0.91176
 H15 H 0.29211 0.42835 0.91189
 H16 H 0.33872 0.45820 0.92841
 H17 H 0.33879 0.42829 0.95836
 H18 H 0.32208 0.41160 0.95841
 H19 H 0.29214 0.41161 0.92865
 C20 C 0.44457 0.82304 0.42778
 C21 C 0.45004 0.83431 0.43342
 C22 C 0.44439 0.84011 0.44462
 C23 C 0.43320 0.83424 0.45018
 C24 C 0.42764 0.82297 0.44463
 C25 C 0.43332 0.81735 0.43338
 C26 C 0.45007 0.81748 0.41648
 C27 C 0.44446 0.80633 0.41064
 C28 C 0.43328 0.80067 0.41638
 C29 C 0.42768 0.80611 0.42766
 C30 C 0.41638 0.80060 0.43319
 C31 C 0.41058 0.80619 0.44436
 C32 C 0.41635 0.81735 0.45005
 H33 H 0.45864 0.83861 0.42894
 H34 H 0.42866 0.83848 0.45878
 H35 H 0.45866 0.82196 0.41217
 H36 H 0.42883 0.79209 0.41199
 H37 H 0.41205 0.79202 0.42869
 H38 H 0.41198 0.82178 0.45865
 C39 C 0.94491 0.92731 0.82278
 C40 C 0.95039 0.91607 0.81711
 C41 C 0.94478 0.91029 0.80588
 C42 C 0.93359 0.91616 0.80031
 C43 C 0.92801 0.92741 0.80588
 C44 C 0.93367 0.93300 0.81716
 C45 C 0.95039 0.93283 0.83410
 C46 C 0.94478 0.94398 0.84003
 C47 C 0.93359 0.94963 0.83422
 C48 C 0.92802 0.94420 0.82289
 C49 C 0.91674 0.94972 0.81734
 C50 C 0.91095 0.94416 0.80613
 C51 C 0.91673 0.93303 0.80043
 H52 H 0.95899 0.91177 0.82160
 H53 H 0.92907 0.91194 0.79168
 H54 H 0.95899 0.92829 0.83835
 H55 H 0.92907 0.95820 0.83855
 H56 H 0.91239 0.95828 0.82186
 H57 H 0.91239 0.92862 0.79181
 C58 C 0.44527 -0.07164 0.32187
 C59 C 0.45076 -0.08290 0.31624
 C60 C 0.44510 -0.08869 0.30508
 C61 C 0.43390 -0.08294 0.29950
 C62 C 0.42830 -0.07168 0.30503
 C63 C 0.43398 -0.06602 0.31626
 C64 C 0.45076 -0.06606 0.33316
 C65 C 0.44511 -0.05493 0.33899
 C66 C 0.43391 -0.04933 0.33326
 C67 C 0.42830 -0.05481 0.32198
 C68 C 0.41697 -0.04937 0.31645
 C69 C 0.41116 -0.05501 0.30530
 C70 C 0.41697 -0.06614 0.29961
 H71 H 0.45937 -0.08723 0.32066
 H72 H 0.42941 -0.08730 0.29092
 H73 H 0.45938 -0.07050 0.33746
 H74 H 0.42943 -0.04077 0.33765
 H75 H 0.41261 -0.04081 0.32095
 H76 H 0.41261 -0.07061 0.29103
 C77 C 0.82145 0.30407 0.32105
 C78 C 0.81566 0.29849 0.33218
 C79 C 0.80442 0.30410 0.33783
 C80 C 0.79892 0.31533 0.33205
 C81 C 0.80460 0.32102 0.32092
 C82 C 0.81591 0.31539 0.31540
 C83 C 0.83282 0.29863 0.31562
 C84 C 0.83881 0.30436 0.30462
 C85 C 0.83315 0.31560 0.29899
 C86 C 0.82178 0.32115 0.30432
 C87 C 0.81633 0.33252 0.29885
 C88 C 0.80509 0.33828 0.30435
 C89 C 0.79925 0.33239 0.31535
 H90 H 0.82003 0.28986 0.33653
 H91 H 0.79028 0.31978 0.33630
 H92 H 0.83706 0.28999 0.32008
 H93 H 0.83766 0.32015 0.29053
 H94 H 0.82095 0.33695 0.29040
 H95 H 0.79061 0.33671 0.31971
 C96 C -0.19549 0.82165 0.82043
 C97 C -0.20080 0.83306 0.81492
 C98 C -0.19494 0.83904 0.80393
 C99 C -0.18371 0.83320 0.79843
 C100 C -0.17831 0.82180 0.80385
 C101 C -0.18420 0.81600 0.81490
 C102 C -0.20120 0.81593 0.83154
 C103 C -0.19573 0.80466 0.83728
 C104 C -0.18452 0.79903 0.83161
 C105 C -0.17871 0.80464 0.82050
 C106 C -0.16736 0.79918 0.81506
 C107 C -0.16134 0.80495 0.80409
 C108 C -0.16695 0.81622 0.79850
 H109 H -0.20944 0.83732 0.81935
 H110 H -0.17901 0.83759 0.78998
 H111 H -0.20982 0.82039 0.83581
 H112 H -0.18018 0.79036 0.83592
 H113 H -0.16314 0.79051 0.81949
 H114 H -0.16242 0.82079 0.79007
 C115 C 0.92941 0.32135 0.44588
 C116 C 0.93487 0.33274 0.45129
 C117 C 0.94585 0.33880 0.44550
 C118 C 0.95140 0.33305 0.43422
 C119 C 0.94602 0.32166 0.42872
 C120 C 0.93498 0.31580 0.43454
 C121 C 0.91831 0.31555 0.45152
 C122 C 0.91263 0.30430 0.44596
 C123 C 0.91832 0.29877 0.43470
 C124 C 0.92942 0.30446 0.42895
 C125 C 0.93490 0.29909 0.41756
 C126 C 0.94586 0.30493 0.41160
 C127 C 0.95140 0.31618 0.41733
 H128 H 0.93041 0.33693 0.45995
 H129 H 0.95983 0.33749 0.42957
 H130 H 0.91402 0.31994 0.46018
 H131 H 0.91405 0.29012 0.43028
 H132 H 0.93051 0.29043 0.41327
 H133 H 0.95983 0.32080 0.41284
 C134 C 0.42815 0.44518 0.82177
 C135 C 0.43379 0.45064 0.83305
 C136 C 0.44495 0.44497 0.83880
 C137 C 0.45053 0.43379 0.83298
 C138 C 0.44500 0.42823 0.82170
 C139 C 0.43376 0.43392 0.81608
 C140 C 0.41686 0.45069 0.81624
 C141 C 0.41102 0.44507 0.80509
 C142 C 0.41674 0.43389 0.79942
 C143 C 0.42803 0.42827 0.80485
 C144 C 0.43356 0.41696 0.79935
 C145 C 0.44473 0.41115 0.80495
 C146 C 0.45042 0.41693 0.81609
 H147 H 0.42937 0.45924 0.83743
 H148 H 0.45911 0.42930 0.83729
 H149 H 0.41256 0.45929 0.82073
 H150 H 0.41235 0.42944 0.79085
 H151 H 0.42905 0.41262 0.79078
 H152 H 0.45900 0.41256 0.82053
 C153 C 0.82232 0.92888 0.94552
 C154 C 0.81663 0.91772 0.95118
 C155 C 0.80533 0.91196 0.94571
 C156 C 0.79970 0.91776 0.93451
 C157 C 0.80529 0.92891 0.92876
 C158 C 0.81665 0.93449 0.93426
 C159 C 0.83373 0.93438 0.95085
 C160 C 0.83968 0.94542 0.94505
 C161 C 0.83382 0.95099 0.93385
 C162 C 0.82242 0.94559 0.92842
 C163 C 0.81682 0.95101 0.91711
 C164 C 0.80554 0.94546 0.91147
 C165 C 0.79980 0.93444 0.91744
 H166 H 0.82116 0.91348 0.95979
 H167 H 0.79101 0.91355 0.93010
 H168 H 0.83802 0.92990 0.95946
 H169 H 0.83817 0.95948 0.92919
 H170 H 0.82136 0.95949 0.91262
 H171 H 0.79112 0.93004 0.91321
 C172 C 0.32265 0.82252 0.30529
 C173 C 0.31716 0.83383 0.29977
 C174 C 0.30597 0.83972 0.30532
 C175 C 0.30028 0.83390 0.31648
 C176 C 0.30568 0.82259 0.32210
 C177 C 0.31692 0.81688 0.31650
 C178 C 0.33394 0.81688 0.29988
 C179 C 0.33964 0.80568 0.30554
 C180 C 0.33378 0.80008 0.31668
 C181 C 0.32250 0.80561 0.32220
 C182 C 0.31683 0.80015 0.33346
 C183 C 0.30567 0.80583 0.33918
 C184 C 0.30012 0.81703 0.33336
 H185 H 0.32173 0.83809 0.29119
 H186 H 0.29168 0.83821 0.32095
 H187 H 0.33834 0.82131 0.29131
 H188 H 0.33806 0.79147 0.32117
 H189 H 0.32123 0.79154 0.33783
 H190 H 0.29154 0.82152 0.33766
 C191 C 0.82152 0.42961 0.44598
 C192 C 0.81582 0.41850 0.45170
 C193 C 0.80455 0.41275 0.44623
 C194 C 0.79892 0.41842 0.43500
 C195 C 0.80452 0.42953 0.42918
 C196 C 0.81587 0.43515 0.43467
 C197 C 0.83292 0.43513 0.45129
 C198 C 0.83890 0.44612 0.44542
 C199 C 0.83306 0.45163 0.43418
 C200 C 0.82166 0.44620 0.42877
 C201 C 0.81608 0.45155 0.41741
 C202 C 0.80482 0.44595 0.41178
 C203 C 0.79906 0.43497 0.41781
 H204 H 0.82027 0.41423 0.46033
 H205 H 0.79026 0.41410 0.43065
 H206 H 0.83719 0.43070 0.45994
 H207 H 0.83743 0.46008 0.42947
 H208 H 0.82064 0.45999 0.41287
 H209 H 0.79040 0.43054 0.41359
 C210 C 0.94626 0.82115 -0.07157
 C211 C 0.95169 0.83246 -0.06597
 C212 C 0.94619 0.83807 -0.05465
 C213 C 0.93522 0.83207 -0.04887
 C214 C 0.92970 0.82074 -0.05436
 C215 C 0.93522 0.81527 -0.06577
 C216 C 0.95160 0.81576 -0.08303
 C217 C 0.94600 0.80457 -0.08890
 C218 C 0.93502 0.79873 -0.08291
 C219 C 0.92960 0.80401 -0.07145
 C220 C 0.91849 0.79832 -0.06571
 C221 C 0.91285 0.80377 -0.05439
 C222 C 0.91860 0.81495 -0.04874
 H223 H 0.96012 0.83699 -0.07054
 H224 H 0.93086 0.83627 -0.04016
 H225 H 0.96004 0.82045 -0.08741
 H226 H 0.93052 0.79012 -0.08720
 H227 H 0.91416 0.78973 -0.07019
 H228 H 0.91435 0.81928 -0.04003
 C229 C 0.32240 0.32228 0.80560
 C230 C 0.31681 0.33354 0.80005
 C231 C 0.30560 0.33930 0.80559
 C232 C 0.29992 0.33352 0.81674
 C233 C 0.30540 0.32226 0.82239
 C234 C 0.31669 0.31662 0.81682
 C235 C 0.33373 0.31672 0.80020
 C236 C 0.33950 0.30558 0.80590
 C237 C 0.33368 0.29995 0.81705
 C238 C 0.32235 0.30541 0.82255
 C239 C 0.31671 0.29994 0.83381
 C240 C 0.30550 0.30555 0.83951
 C241 C 0.29988 0.31669 0.83366
 H242 H 0.32131 0.33788 0.79148
 H243 H 0.29130 0.33785 0.82113
 H244 H 0.33810 0.32117 0.79163
 H245 H 0.33802 0.29138 0.82156
 H246 H 0.32117 0.29137 0.83821
 H247 H 0.29125 0.32113 0.83794
 C248 C 0.18124 0.55177 0.56846
 C249 C 0.16993 0.54634 0.56286
 C250 C 0.16416 0.55204 0.55172
 C251 C 0.17000 0.56319 0.54610
 C252 C 0.18130 0.56872 0.55159
 C253 C 0.18694 0.56301 0.56283
 C254 C 0.18676 0.54628 0.57977
 C255 C 0.19790 0.55191 0.58562
 C256 C 0.20359 0.56306 0.57985
 C257 C 0.19817 0.56866 0.56854
 C258 C 0.20366 0.57998 0.56301
 C259 C 0.19803 0.58582 0.55187
 C260 C 0.18690 0.58004 0.54617
 H261 H 0.16554 0.53778 0.56732
 H262 H 0.16565 0.56771 0.53754
 H263 H 0.18225 0.53771 0.58411
 H264 H 0.21215 0.56752 0.58425
 H265 H 0.21222 0.58432 0.56753
 H266 H 0.18244 0.58444 0.53761
 C267 C 0.57052 0.69738 0.06963
 C268 C 0.58195 0.70268 0.06418
 C269 C 0.58779 0.69692 0.05311
 C270 C 0.58191 0.68582 0.04742
 C271 C 0.57047 0.68042 0.05277
 C272 C 0.56476 0.68620 0.06392
 C273 C 0.56490 0.70296 0.08085
 C274 C 0.55362 0.69747 0.08654
 C275 C 0.54788 0.68637 0.08070
 C276 C 0.55339 0.68070 0.06947
 C277 C 0.54784 0.66945 0.06387
 C278 C 0.55352 0.66353 0.05281
 C279 C 0.56481 0.66916 0.04727
 H280 H 0.58637 0.71122 0.06868
 H281 H 0.58630 0.68126 0.03891
 H282 H 0.56945 0.71148 0.08525
 H283 H 0.53921 0.68202 0.08497
 H284 H 0.53916 0.66522 0.06826
 H285 H 0.56932 0.66471 0.03876
 C286 C 0.69721 0.17989 0.68006
 C287 C 0.70250 0.18539 0.66864
 C288 C 0.69676 0.19649 0.66283
 C289 C 0.68570 0.20217 0.66874
 C290 C 0.68031 0.19678 0.68017
 C291 C 0.68607 0.18559 0.68584
 C292 C 0.70277 0.16863 0.68563
 C293 C 0.69731 0.16285 0.69693
 C294 C 0.68623 0.16874 0.70268
 C295 C 0.68058 0.18000 0.69720
 C296 C 0.66937 0.18561 0.70279
 C297 C 0.66349 0.19672 0.69715
 C298 C 0.66911 0.20229 0.68587
 H299 H 0.71101 0.18089 0.66419
 H300 H 0.68116 0.21071 0.66438
 H301 H 0.71128 0.16432 0.68101
 H302 H 0.68184 0.16452 0.71137
 H303 H 0.66515 0.18120 0.71147
 H304 H 0.66468 0.21083 0.68139
 C305 C 1.06888 0.05150 0.18102
 C306 C 1.08018 0.04607 0.18663
 C307 C 1.08591 0.05171 0.19782
 C308 C 1.08005 0.06282 0.20348
 C309 C 1.06875 0.06836 0.19799
 C310 C 1.06315 0.06270 0.18670
 C311 C 1.06339 0.04605 0.16967
 C312 C 1.05225 0.05167 0.16376
 C313 C 1.04654 0.06279 0.16965
 C314 C 1.05193 0.06834 0.18100
 C315 C 1.04641 0.07961 0.18659
 C316 C 1.05200 0.08541 0.19778
 C317 C 1.06313 0.07963 0.20346
 H318 H 1.08459 0.03753 0.18214
 H319 H 1.08436 0.06730 0.21209
 H320 H 1.06798 0.03750 0.16537
 H321 H 1.03797 0.06731 0.16533
 H322 H 1.03785 0.08396 0.18208
 H323 H 1.06756 0.08399 0.21207
 C324 C 0.05218 0.18055 1.06895
 C325 C 0.04669 0.16923 1.06342
 C326 C 0.05230 0.16333 1.05227
 C327 C 0.06345 0.16918 1.04659
 C328 C 0.06903 0.18050 1.05203
 C329 C 0.06340 0.18620 1.06326
 C330 C 0.04675 0.18616 1.08026
 C331 C 0.05244 0.19731 1.08604
 C332 C 0.06357 0.20294 1.08021
 C333 C 0.06910 0.19745 1.06890
 C334 C 0.08039 0.20289 1.06331
 C335 C 0.08616 0.19720 1.05216
 C336 C 0.08033 0.18605 1.04654
 H337 H 0.03812 0.16496 1.06798
 H338 H 0.06796 0.16486 1.03802
 H339 H 0.03819 0.18169 1.08465
 H340 H 0.06807 0.21151 1.08455
 H341 H 0.08478 0.21146 1.06777
 H342 H 0.08467 0.18155 1.03797
 C343 C 0.18139 0.68146 0.69817
 C344 C 0.17008 0.68697 0.70365
 C345 C 0.16423 0.69811 0.69802
 C346 C 0.17000 0.70382 0.68688
 C347 C 0.18131 0.69841 0.68130
 C348 C 0.18702 0.68718 0.68694
 C349 C 0.18699 0.67016 0.70360
 C350 C 0.19813 0.66439 0.69792
 C351 C 0.20375 0.67024 0.68679
 C352 C 0.19826 0.68155 0.68125
 C353 C 0.20368 0.68716 0.66994
 C354 C 0.19798 0.69829 0.66416
 C355 C 0.18684 0.70391 0.66999
 H356 H 0.16574 0.68245 0.71221
 H357 H 0.16561 0.71238 0.68242
 H358 H 0.18253 0.66575 0.71216
 H359 H 0.21232 0.66591 0.68229
 H360 H 0.21224 0.68271 0.66556
 H361 H 0.18233 0.71247 0.66564
 C362 C 1.19809 0.18056 0.18132
 C363 C 1.20355 0.16921 0.18680
 C364 C 1.19793 0.16327 0.19793
 C365 C 1.18679 0.16911 0.20363
 C366 C 1.18124 0.18046 0.19824
 C367 C 1.18688 0.18619 0.18703
 C368 C 1.20353 0.18620 0.17003
 C369 C 1.19787 0.19737 0.16429
 C370 C 1.18675 0.20300 0.17015
 C371 C 1.18121 0.19747 0.18143
 C372 C 1.16992 0.20290 0.18704
 C373 C 1.16414 0.19717 0.19816
 C374 C 1.16995 0.18599 0.20374
 H375 H 1.21211 0.16494 0.18222
 H376 H 1.18227 0.16476 0.21219
 H377 H 1.21208 0.18174 0.16563
 H378 H 1.18226 0.21159 0.16583
 H379 H 1.16555 0.21149 0.18261
 H380 H 1.16559 0.18146 0.21229
 C381 C 0.68034 1.07073 0.55320
 C382 C 0.66913 1.06508 0.54761
 C383 C 0.66355 1.05368 0.55299
 C384 C 0.66946 1.04787 0.56400
 C385 C 0.68066 1.05341 0.56969
 C386 C 0.68612 1.06489 0.56429
 C387 C 0.68568 1.08227 0.54800
 C388 C 0.69675 1.08820 0.55377
 C389 C 0.70251 1.08217 0.56478
 C390 C 0.69725 1.07063 0.57008
 C391 C 0.70283 1.06488 0.58124
 C392 C 0.69740 1.05349 0.58677
 C393 C 0.68635 1.04778 0.58085
 H394 H 0.66468 1.06968 0.53915
 H395 H 0.66526 1.03911 0.56827
 H396 H 0.68106 1.08668 0.53952
 H397 H 0.71102 1.08650 0.56941
 H398 H 0.71133 1.06941 0.58570
 H399 H 0.68203 1.03902 0.58501
 C400 C 0.55214 0.56878 0.18127
 C401 C 0.54669 0.56317 0.16997
 C402 C 0.55237 0.55202 0.16419
 C403 C 0.56352 0.54640 0.17001
 C404 C 0.56907 0.55191 0.18131
 C405 C 0.56338 0.56315 0.18695
 C406 C 0.54666 0.58009 0.18681
 C407 C 0.55230 0.58594 0.19794
 C408 C 0.56345 0.58018 0.20361
 C409 C 0.56904 0.56887 0.19818
 C410 C 0.58035 0.56335 0.20365
 C411 C 0.58618 0.55220 0.19802
 C412 C 0.58038 0.54649 0.18689
 H413 H 0.53812 0.56762 0.16559
 H414 H 0.56802 0.53784 0.16567
 H415 H 0.53808 0.58442 0.18231
 H416 H 0.56792 0.58458 0.21217
 H417 H 0.58471 0.56787 0.21221
 H418 H 0.58476 0.53792 0.18243
 C419 C 0.68032 0.69710 0.17974
 C420 C 0.66913 0.70262 0.18545
 C421 C 0.66357 0.69712 0.19679
 C422 C 0.66950 0.68606 0.20249
 C423 C 0.68069 0.68043 0.19688
 C424 C 0.68612 0.68595 0.18546
 C425 C 0.68565 0.70241 0.16825
 C426 C 0.69669 0.69669 0.16231
 C427 C 0.70246 0.68563 0.16816
 C428 C 0.69724 0.68021 0.17965
 C429 C 0.70283 0.66900 0.18528
 C430 C 0.69742 0.66335 0.19662
 C431 C 0.68638 0.66922 0.20240
 H432 H 0.66467 0.71112 0.18093
 H433 H 0.66532 0.68169 0.21121
 H434 H 0.68108 0.71091 0.16385
 H435 H 0.71095 0.68110 0.16371
 H436 H 0.71131 0.66459 0.18070
 H437 H 0.68209 0.66497 0.21112
 C438 C 0.18074 0.05164 1.06941
 C439 C 0.16941 0.04625 1.06383
 C440 C 0.16357 0.05195 1.05267
 C441 C 0.16951 0.06309 1.04706
 C442 C 0.18085 0.06857 1.05254
 C443 C 0.18648 0.06285 1.06377
 C444 C 0.18627 0.04612 1.08071
 C445 C 0.19746 0.05169 1.08660
 C446 C 0.20317 0.06283 1.08075
 C447 C 0.19774 0.06844 1.06945
 C448 C 0.20328 0.07973 1.06390
 C449 C 0.19767 0.08559 1.05276
 C450 C 0.18650 0.07985 1.04709
 H451 H 0.16506 0.03768 1.06834
 H452 H 0.16526 0.06768 1.03848
 H453 H 0.18168 0.03755 1.08499
 H454 H 0.21178 0.06731 1.08505
 H455 H 0.21187 0.08403 1.06839
 H456 H 0.18205 0.08426 1.03853
 C457 C 0.57020 0.18069 0.55291
 C458 C 0.58166 0.18605 0.54759
 C459 C 0.58760 0.19710 0.55331
 C460 C 0.58176 0.20288 0.56437
 C461 C 0.57029 0.19764 0.56979
 C462 C 0.56449 0.18649 0.56406
 C463 C 0.56449 0.16947 0.54739
 C464 C 0.55318 0.16388 0.55291
 C465 C 0.54750 0.16981 0.56397
 C466 C 0.55309 0.18103 0.56959
 C467 C 0.54759 0.18672 0.58080
 C468 C 0.55336 0.19778 0.58667
 C469 C 0.56468 0.20322 0.58102
 H470 H 0.58605 0.18147 0.53909
 H471 H 0.58623 0.21139 0.56890
 H472 H 0.56900 0.16501 0.53889
 H473 H 0.53880 0.16561 0.56834
 H474 H 0.53889 0.18239 0.58505
 H475 H 0.56926 0.21172 0.58544
 C476 C 0.06885 0.55206 0.68119
 C477 C 0.08016 0.54665 0.68678
 C478 C 0.08594 0.55236 0.69792
 C479 C 0.08009 0.56350 0.70354
 C480 C 0.06878 0.56901 0.69806
 C481 C 0.06314 0.56329 0.68683
 C482 C 0.06332 0.54655 0.66988
 C483 C 0.05217 0.55215 0.66404
 C484 C 0.04647 0.56329 0.66982
 C485 C 0.05190 0.56890 0.68113
 C486 C 0.04640 0.58021 0.68667
 C487 C 0.05202 0.58606 0.69781
 C488 C 0.06317 0.58031 0.70349
 H489 H 0.08456 0.53809 0.68232
 H490 H 0.08444 0.56802 0.71211
 H491 H 0.06783 0.53799 0.66553
 H492 H 0.03790 0.56773 0.66544
 H493 H 0.03783 0.58454 0.68216
 H494 H 0.06763 0.58471 0.71205
 C495 C 0.68044 0.57040 0.05284
 C496 C 0.66923 0.56477 0.04725
 C497 C 0.66358 0.55343 0.05268
 C498 C 0.66946 0.54764 0.06372
 C499 C 0.68068 0.55316 0.06941
 C500 C 0.68618 0.56459 0.06397
 C501 C 0.68586 0.58189 0.04760
 C502 C 0.69692 0.58774 0.05337
 C503 C 0.70264 0.58180 0.06441
 C504 C 0.69733 0.57031 0.06976
 C505 C 0.70287 0.56459 0.08096
 C506 C 0.69737 0.55324 0.08653
 C507 C 0.68631 0.54755 0.08061
 H508 H 0.66480 0.56936 0.03877
 H509 H 0.66522 0.53891 0.06803
 H510 H 0.68133 0.58635 0.03911
 H511 H 0.71115 0.58620 0.06898
 H512 H 0.71137 0.56911 0.08542
 H513 H 0.68195 0.53882 0.08479
 C514 C 0.05182 0.68142 0.56864
 C515 C 0.04643 0.68702 0.57996
 C516 C 0.05214 0.69816 0.58573
 C517 C 0.06328 0.70378 0.57988
 C518 C 0.06878 0.69828 0.56857
 C519 C 0.06305 0.68704 0.56293
 C520 C 0.04631 0.67011 0.56311
 C521 C 0.05190 0.66426 0.55196
 C522 C 0.06304 0.67003 0.54626
 C523 C 0.06866 0.68133 0.55169
 C524 C 0.07996 0.68685 0.54619
 C525 C 0.08583 0.69799 0.55181
 C526 C 0.08008 0.70369 0.56296
 H527 H 0.03786 0.68257 0.58436
 H528 H 0.06781 0.71234 0.58422
 H529 H 0.03774 0.66577 0.56763
 H530 H 0.06748 0.66563 0.53769
 H531 H 0.08429 0.68233 0.53762
 H532 H 0.08449 0.71226 0.56742
 C533 C 0.55262 1.06902 0.68065
 C534 C 0.54719 1.06345 0.66933
 C535 C 0.55287 1.05230 0.66346
 C536 C 0.56403 1.04669 0.66935
 C537 C 0.56955 1.05217 0.68068
 C538 C 0.56384 1.06338 0.68634
 C539 C 0.54711 1.08030 0.68623
 C540 C 0.55271 1.08611 0.69740
 C541 C 0.56385 1.08034 0.70308
 C542 C 0.56946 1.06906 0.69761
 C543 C 0.58076 1.06352 0.70310
 C544 C 0.58661 1.05239 0.69746
 C545 C 0.58085 1.04673 0.68628
 H546 H 0.53861 1.06796 0.66502
 H547 H 0.56860 1.03812 0.66506
 H548 H 0.53855 1.08465 0.68173
 H549 H 0.56830 1.08471 0.71167
 H550 H 0.58508 1.06801 0.71169
 H551 H 0.58525 1.03818 0.68181
 C552 C 0.42778 0.32239 0.94503
 C553 C 0.43328 0.33372 0.95052
 C554 C 0.44444 0.33963 0.94492
 C555 C 0.45010 0.33380 0.93375
 C556 C 0.44469 0.32247 0.92817
 C557 C 0.43348 0.31674 0.93381
 C558 C 0.41652 0.31672 0.95050
 C559 C 0.41082 0.30550 0.94486
 C560 C 0.41665 0.29990 0.93372
 C561 C 0.42790 0.30545 0.92815
 C562 C 0.43354 0.29998 0.91689
 C563 C 0.44467 0.30567 0.91112
 C564 C 0.45022 0.31689 0.91690
 H565 H 0.42872 0.33798 0.95910
 H566 H 0.45868 0.33812 0.92925
 H567 H 0.41213 0.32117 0.95907
 H568 H 0.41236 0.29127 0.92925
 H569 H 0.42913 0.29135 0.91254
 H570 H 0.45879 0.32139 0.91257
 C571 C 0.92805 0.44439 0.32242
 C572 C 0.93359 0.44983 0.33375
 C573 C 0.94478 0.44421 0.33958
 C574 C 0.95044 0.43308 0.33368
 C575 C 0.94499 0.42755 0.32235
 C576 C 0.93374 0.43320 0.31670
 C577 C 0.91676 0.44986 0.31685
 C578 C 0.91100 0.44427 0.30565
 C579 C 0.91681 0.43315 0.29996
 C580 C 0.92811 0.42758 0.30542
 C581 C 0.93372 0.41634 0.29988
 C582 C 0.94490 0.41056 0.30549
 C583 C 0.95050 0.41630 0.31669
 H584 H 0.92904 0.45839 0.33807
 H585 H 0.95904 0.42856 0.33794
 H586 H 0.91238 0.45841 0.32136
 H587 H 0.91249 0.42872 0.29134
 H588 H 0.92928 0.41202 0.29126
 H589 H 0.95909 0.41196 0.32114
 C590 C 0.32289 0.94482 0.42773
 C591 C 0.31725 0.95029 0.41646
 C592 C 0.30602 0.94469 0.41076
 C593 C 0.30038 0.93357 0.41662
 C594 C 0.30590 0.92799 0.42789
 C595 C 0.31721 0.93362 0.43347
 C596 C 0.33424 0.95027 0.43323
 C597 C 0.34012 0.94466 0.44440
 C598 C 0.33425 0.93351 0.45009
 C599 C 0.32291 0.92797 0.44469
 C600 C 0.31730 0.91673 0.45025
 C601 C 0.30607 0.91097 0.44470
 C602 C 0.30040 0.91675 0.43355
 H603 H 0.32173 0.95885 0.41205
 H604 H 0.29174 0.92913 0.41235
 H605 H 0.33853 0.95884 0.42865
 H606 H 0.33855 0.92900 0.45868
 H607 H 0.32179 0.91238 0.45882
 H608 H 0.29177 0.91243 0.42916
 O609 O 0.21499 0.51726 0.74916
 O610 O 0.21927 0.51554 0.77146
 O611 O 0.24935 0.53526 0.73329
 O612 O 0.27085 0.53132 0.73271
 O613 O 0.23301 0.50087 0.71489
 O614 O 0.23387 0.47809 0.71976
 O615 O 0.28406 0.49967 0.76693
 O616 O 0.28038 0.52193 0.76440
 O617 O 0.25093 0.48337 0.78402
 O618 O 0.22734 0.48427 0.77955
 O619 O 0.26669 0.46604 0.75075
 O620 O 0.26598 0.47054 0.72734
 O621 O 0.28404 0.48386 0.75118
 O622 O 0.27921 0.48514 0.72692
 O623 O 0.25091 0.46592 0.76644
 O624 O 0.22685 0.47090 0.76507
 O625 O 0.26689 0.49891 0.78393
 O626 O 0.26252 0.52261 0.77973
 O627 O 0.21482 0.50122 0.73361
 O628 O 0.21972 0.47800 0.73460
 O629 O 0.24877 0.51663 0.71478
 O630 O 0.27240 0.51458 0.72011
 O631 O 0.23336 0.53523 0.74880
 O632 O 0.23629 0.53000 0.77237
 Zr633 Zr 0.23402 0.51627 0.75692
 O634 O 0.24542 0.50452 0.76946
 Zr635 Zr 0.25687 0.51609 0.73374
 O636 O 0.26941 0.50474 0.74552
 Zr637 Zr 0.23381 0.49314 0.73397
 O638 O 0.24549 0.48056 0.74540
 Zr639 Zr 0.26527 0.50778 0.76542
 O640 O 0.25394 0.52056 0.75367
 Zr641 Zr 0.24237 0.48463 0.76531
 O642 O 0.22967 0.49631 0.75387
 Zr643 Zr 0.26540 0.48481 0.74236
 O644 O 0.25370 0.49616 0.72952
 O645 O 0.23711 0.51296 0.73707
 O646 O 0.26223 0.48785 0.76224
 C647 C 0.20932 0.51047 0.74018
 C648 C 0.24017 0.54084 0.73982
 C649 C 0.23965 0.50994 0.70924
 C650 C 0.28949 0.49029 0.76055
 C651 C 0.26045 0.48959 0.78940
 C652 C 0.26031 0.46053 0.76007
 H653 H 0.24337 0.50667 0.77868
 H654 H 0.24340 0.47137 0.74321
 H655 H 0.23153 0.51856 0.73148
 H656 H 0.27861 0.50697 0.74355
 H657 H 0.27622 0.53024 0.76162
 H658 H 0.27752 0.52944 0.73945
 H659 H 0.22833 0.46485 0.75765
 H660 H 0.21531 0.47869 0.74320
 H661 H 0.27000 0.52223 0.78591
 H662 H 0.22937 0.53677 0.77158
 H663 H 0.25774 0.46548 0.72777
 H664 H 0.24266 0.47821 0.71569
 H665 H 0.21565 0.50654 0.77132
 H666 H 0.22813 0.49232 0.78489
 H667 H 0.27084 0.50653 0.71494
 H668 H 0.28535 0.49245 0.72858
 O669 O 0.24904 0.03475 0.23269
 O670 O 0.27134 0.03059 0.23435
 O671 O 0.23328 0.00023 0.21477
 O672 O 0.23285 -0.02130 0.21874
 O673 O 0.21492 0.01654 0.24913
 O674 O 0.21983 0.01571 0.27190
 O675 O 0.26719 -0.03427 0.25037
 O676 O 0.26457 -0.03066 0.22811
 O677 O 0.28412 -0.00096 0.26654
 O678 O 0.27952 0.02264 0.26561
 O679 O 0.25100 -0.01692 0.28396
 O680 O 0.22759 -0.01638 0.27949
 O681 O 0.25149 -0.03432 0.26619
 O682 O 0.22722 -0.02965 0.26493
 O683 O 0.26660 -0.00104 0.28402
 O684 O 0.26509 0.02304 0.27901
 O685 O 0.28409 -0.01695 0.25104
 O686 O 0.27978 -0.01267 0.22734
 O687 O 0.23354 0.03485 0.24874
 O688 O 0.23459 0.02997 0.27196
 O689 O 0.21485 0.00073 0.23341
 O690 O 0.22029 -0.02290 0.23550
 O691 O 0.24871 0.01633 0.21475
 O692 O 0.27229 0.01353 0.21993
 Zr693 Zr 0.25688 0.01574 0.23368
 O694 O 0.26950 0.00442 0.24542
 Zr695 Zr 0.23383 -0.00728 0.23394
 O696 O 0.24570 -0.01974 0.24529
 Zr697 Zr 0.23400 0.01584 0.25684
 O698 O 0.24551 0.00424 0.26942
 Zr699 Zr 0.26555 -0.01548 0.24221
 O700 O 0.25373 -0.00423 0.22944
 Zr701 Zr 0.26538 0.00748 0.26531
 O702 O 0.25386 0.02011 0.25363
 Zr703 Zr 0.24257 -0.01572 0.26521
 O704 O 0.22965 -0.00410 0.25386
 O705 O 0.23707 0.01253 0.23703
 O706 O 0.26240 -0.01242 0.26213
 C707 C 0.24007 0.04038 0.23948
 C708 C 0.23975 0.00947 0.20917
 C709 C 0.20929 0.00984 0.24008
 C710 C 0.26088 -0.03973 0.25977
 C711 C 0.28954 -0.01045 0.26032
 C712 C 0.26030 -0.01047 0.28944
 H713 H 0.27869 0.00653 0.24325
 H714 H 0.24334 0.00634 0.27860
 H715 H 0.23145 0.01808 0.23143
 H716 H 0.24377 -0.02897 0.24309
 H717 H 0.26175 -0.02653 0.21980
 H718 H 0.23961 -0.02796 0.22064
 H719 H 0.25770 0.02151 0.28508
 H720 H 0.24316 0.03444 0.27125
 H721 H 0.28600 -0.02011 0.22773
 H722 H 0.27145 0.02045 0.21315
 H723 H 0.22798 -0.00811 0.28453
 H724 H 0.21581 0.00689 0.27178
 H725 H 0.27122 0.03423 0.24333
 H726 H 0.28485 0.02185 0.25757
 H727 H 0.21515 -0.02136 0.24356
 H728 H 0.22890 -0.03580 0.25764
 O729 O 0.53534 0.73302 0.24926
 O730 O 0.53110 0.73477 0.27157
 O731 O 0.50095 0.71499 0.23345
 O732 O 0.47945 0.71892 0.23287
 O733 O 0.51727 0.74935 0.21502
 O734 O 0.51638 0.77214 0.21985
 O735 O 0.46630 0.75062 0.26710
 O736 O 0.46997 0.72835 0.26457
 O737 O 0.49946 0.76695 0.28413
 O738 O 0.52303 0.76605 0.27966
 O739 O 0.48364 0.78422 0.25084
 O740 O 0.48428 0.77968 0.22744
 O741 O 0.46629 0.76641 0.25134
 O742 O 0.47105 0.76507 0.22706
 O743 O 0.49944 0.78437 0.26652
 O744 O 0.52351 0.77938 0.26513
 O745 O 0.48351 0.75140 0.28408
 O746 O 0.48787 0.72769 0.27988
 O747 O 0.53547 0.74904 0.23371
 O748 O 0.53056 0.77227 0.23469
 O749 O 0.50152 0.73359 0.21492
 O750 O 0.47788 0.73565 0.22026
 O751 O 0.51697 0.71504 0.24894
 O752 O 0.51409 0.72030 0.27251
 Zr753 Zr 0.51632 0.73401 0.25705
 O754 O 0.50494 0.74577 0.26959
 Zr755 Zr 0.49342 0.73416 0.23388
 O756 O 0.48091 0.74552 0.24567
 Zr757 Zr 0.51647 0.75711 0.23408
 O758 O 0.50481 0.76970 0.24550
 Zr759 Zr 0.48508 0.74250 0.26557
 O760 O 0.49640 0.72971 0.25382
 Zr761 Zr 0.50798 0.76566 0.26542
 O762 O 0.52066 0.75397 0.25398
 Zr763 Zr 0.48490 0.76544 0.24248
 O764 O 0.49658 0.75408 0.22964
 O765 O 0.51319 0.73730 0.23720
 O766 O 0.48811 0.76243 0.26236
 C767 C 0.54098 0.73980 0.24027
 C768 C 0.51015 0.70942 0.23998
 C769 C 0.51063 0.74027 0.20938
 C770 C 0.46086 0.76000 0.26072
 C771 C 0.48996 0.76072 0.28952
 C772 C 0.49004 0.78975 0.26014
 H773 H 0.50701 0.74364 0.27881
 H774 H 0.50690 0.77889 0.24330
 H775 H 0.51876 0.73169 0.23162
 H776 H 0.47170 0.74328 0.24371
 H777 H 0.47412 0.72004 0.26180
 H778 H 0.47279 0.72080 0.23963
 H779 H 0.52201 0.78543 0.25772
 H780 H 0.53500 0.77157 0.24327
 H781 H 0.48041 0.72807 0.28607
 H782 H 0.52101 0.71353 0.27172
 H783 H 0.49253 0.78473 0.22784
 H784 H 0.50759 0.77200 0.21578
 H785 H 0.53472 0.74376 0.27142
 H786 H 0.52227 0.75800 0.28498
 H787 H 0.47943 0.74369 0.21508
 H788 H 0.46491 0.75778 0.22875
 O789 O 0.03516 0.73312 0.74915
 O790 O 0.03091 0.73483 0.77145
 O791 O 0.00075 0.71516 0.73328
 O792 O -0.02074 0.71912 0.73272
 O793 O 0.01712 0.74952 0.71489
 O794 O 0.01626 0.77231 0.71978
 O795 O -0.03387 0.75078 0.76695
 O796 O -0.03023 0.72852 0.76441
 O797 O -0.00066 0.76701 0.78406
 O798 O 0.02291 0.76609 0.77955
 O799 O -0.01648 0.78439 0.75080
 O800 O -0.01580 0.77991 0.72738
 O801 O -0.03385 0.76659 0.75120
 O802 O -0.02904 0.76533 0.72695
 O803 O -0.00069 0.78447 0.76649
 O804 O 0.02337 0.77950 0.76509
 O805 O -0.01665 0.75149 0.78397
 O806 O -0.01234 0.72780 0.77972
 O807 O 0.03533 0.74917 0.73361
 O808 O 0.03045 0.77239 0.73460
 O809 O 0.00134 0.73379 0.71478
 O810 O -0.02228 0.73587 0.72012
 O811 O 0.01677 0.71517 0.74878
 O812 O 0.01388 0.72038 0.77235
 Zr813 Zr 0.01614 0.73412 0.75692
 O814 O 0.00477 0.74587 0.76947
 Zr815 Zr -0.00675 0.73434 0.73375
 O816 O -0.01925 0.74570 0.74554
 Zr817 Zr 0.01634 0.75725 0.73398
 O818 O 0.00470 0.76985 0.74543
 Zr819 Zr -0.01509 0.74264 0.76543
 O820 O -0.00379 0.72986 0.75367
 Zr821 Zr 0.00784 0.76577 0.76534
 O822 O 0.02051 0.75408 0.75388
 Zr823 Zr -0.01522 0.76563 0.74239
 O824 O -0.00356 0.75426 0.72953
 O825 O 0.01302 0.73745 0.73707
 O826 O -0.01203 0.76258 0.76227
 C827 C 0.04082 0.73991 0.74018
 C828 C 0.00994 0.70957 0.73981
 C829 C 0.01045 0.74046 0.70925
 C830 C -0.03931 0.76016 0.76056
 C831 C -0.01016 0.76078 0.78945
 C832 C -0.01008 0.78988 0.76013
 H833 H 0.00683 0.74372 0.77868
 H834 H 0.00680 0.77904 0.74325
 H835 H 0.01859 0.73183 0.73148
 H836 H -0.02846 0.74349 0.74357
 H837 H -0.02610 0.72021 0.76161
 H838 H -0.02742 0.72102 0.73945
 H839 H 0.02188 0.78555 0.75768
 H840 H 0.03486 0.77170 0.74321
 H841 H -0.01981 0.72818 0.78590
 H842 H 0.02079 0.71361 0.77156
 H843 H -0.00755 0.78496 0.72781
 H844 H 0.00747 0.77219 0.71571
 H845 H 0.03455 0.74381 0.77130
 H846 H 0.02212 0.75805 0.78488
 H847 H -0.02073 0.74392 0.71495
 H848 H -0.03518 0.75802 0.72859
 O849 O 0.03535 0.01698 0.00106
 O850 O 0.03116 0.01524 -0.02126
 O851 O 0.00094 0.03497 0.01678
 O852 O -0.02057 0.03102 0.01725
 O853 O 0.01719 0.00062 0.03525
 O854 O 0.01632 -0.02218 0.03039
 O855 O -0.03365 -0.00066 -0.01701
 O856 O -0.02998 0.02160 -0.01446
 O857 O -0.00046 -0.01696 -0.03394
 O858 O 0.02311 -0.01602 -0.02939
 O859 O -0.01633 -0.03428 -0.00072
 O860 O -0.01576 -0.02975 0.02268
 O861 O -0.03371 -0.01647 -0.00127
 O862 O -0.02899 -0.01517 0.02302
 O863 O -0.00049 -0.03439 -0.01634
 O864 O 0.02356 -0.02938 -0.01489
 O865 O -0.01641 -0.00142 -0.03393
 O866 O -0.01205 0.02229 -0.02971
 O867 O 0.03545 0.00095 0.01661
 O868 O 0.03054 -0.02228 0.01561
 O869 O 0.00144 0.01636 0.03529
 O870 O -0.02218 0.01429 0.02987
 O871 O 0.01699 0.03494 0.00134
 O872 O 0.01415 0.02970 -0.02224
 Zr873 Zr 0.01635 0.01597 -0.00679
 O874 O 0.00500 0.00422 -0.01937
 Zr875 Zr -0.00660 0.01580 0.01630
 O876 O -0.01909 0.00443 0.00447
 Zr877 Zr 0.01645 -0.00713 0.01617
 O878 O 0.00481 -0.01973 0.00469
 Zr879 Zr -0.01487 0.00746 -0.01541
 O880 O -0.00358 0.02025 -0.00362
 Zr881 Zr 0.00802 -0.01567 -0.01521
 O882 O 0.02068 -0.00398 -0.00371
 Zr883 Zr -0.01510 -0.01550 0.00765
 O884 O -0.00345 -0.00413 0.02054
 O885 O 0.01318 0.01267 0.01305
 O886 O -0.01185 -0.01247 -0.01222
 C887 C 0.04097 0.01020 0.01006
 C888 C 0.01015 0.04055 0.01028
 C889 C 0.01053 0.00969 0.04087
 C890 C -0.03912 -0.01005 -0.01066
 C891 C -0.00995 -0.01074 -0.03937
 C892 C -0.00990 -0.03980 -0.01000
 H893 H 0.00709 0.00636 -0.02858
 H894 H 0.00690 -0.02892 0.00690
 H895 H 0.01874 0.01829 0.01866
 H896 H -0.02830 0.00665 0.00639
 H897 H -0.02583 0.02991 -0.01167
 H898 H -0.02723 0.02912 0.01050
 H899 H 0.02206 -0.03541 -0.00747
 H900 H 0.03500 -0.02158 0.00704
 H901 H -0.01950 0.02190 -0.03593
 H902 H 0.02108 0.03647 -0.02143
 H903 H -0.00751 -0.03478 0.02231
 H904 H 0.00752 -0.02204 0.03443
 H905 H 0.03478 0.00625 -0.02111
 H906 H 0.02234 -0.00798 -0.03474
 H907 H -0.02065 0.00623 0.03504
 H908 H -0.03511 -0.00786 0.02133
 O909 O 0.03495 0.51712 0.50072
 O910 O 0.03073 0.51540 0.47842
 O911 O 0.00056 0.53512 0.51650
 O912 O -0.02094 0.53117 0.51703
 O913 O 0.01685 0.50078 0.53495
 O914 O 0.01597 0.47799 0.53011
 O915 O -0.03408 0.49951 0.48278
 O916 O -0.03039 0.52176 0.48529
 O917 O -0.00089 0.48319 0.46579
 O918 O 0.02268 0.48410 0.47032
 O919 O -0.01675 0.46587 0.49904
 O920 O -0.01615 0.47039 0.52242
 O921 O -0.03412 0.48371 0.49853
 O922 O -0.02933 0.48501 0.52282
 O923 O -0.00094 0.46576 0.48339
 O924 O 0.02312 0.47075 0.48483
 O925 O -0.01685 0.49872 0.46582
 O926 O -0.01248 0.52243 0.47003
 O927 O 0.03508 0.50109 0.51627
 O928 O 0.03015 0.47786 0.51530
 O929 O 0.00109 0.51651 0.53502
 O930 O -0.02253 0.51444 0.52963
 O931 O 0.01659 0.53509 0.50104
 O932 O 0.01371 0.52984 0.47746
 Zr933 Zr 0.01594 0.51612 0.49292
 O934 O 0.00457 0.50436 0.48035
 Zr935 Zr -0.00697 0.51595 0.51604
 O936 O -0.01948 0.50458 0.50422
 Zr937 Zr 0.01608 0.49302 0.51588
 O938 O 0.00442 0.48042 0.50443
 Zr939 Zr -0.01528 0.50761 0.48433
 O940 O -0.00398 0.52040 0.49611
 Zr941 Zr 0.00760 0.48447 0.48452
 O942 O 0.02027 0.49617 0.49599
 Zr943 Zr -0.01549 0.48466 0.50740
 O944 O -0.00382 0.49602 0.52028
 O945 O 0.01280 0.51282 0.51276
 O946 O -0.01227 0.48768 0.48753
 C947 C 0.04060 0.51033 0.50970
 C948 C 0.00976 0.54070 0.50999
 C949 C 0.01020 0.50984 0.54058
 C950 C -0.03954 0.49014 0.48915
 C951 C -0.01039 0.48941 0.46038
 C952 C -0.01033 0.46035 0.48975
 H953 H 0.00665 0.50650 0.47114
 H954 H 0.00651 0.47123 0.50663
 H955 H 0.01837 0.51844 0.51836
 H956 H -0.02868 0.50681 0.50617
 H957 H -0.02623 0.53007 0.48808
 H958 H -0.02759 0.52929 0.51025
 H959 H 0.02162 0.46471 0.49224
 H960 H 0.03459 0.47855 0.50672
 H961 H -0.01993 0.52204 0.46382
 H962 H 0.02063 0.53662 0.47826
 H963 H -0.00788 0.46539 0.52207
 H964 H 0.00717 0.47812 0.53416
 H965 H 0.03433 0.50641 0.47855
 H966 H 0.02191 0.49214 0.46498
 H967 H -0.02099 0.50640 0.53481
 H968 H -0.03547 0.49230 0.52113
 O969 O 0.50103 0.03519 0.51738
 O970 O 0.47874 0.03093 0.51570
 O971 O 0.51687 0.00076 0.53536
 O972 O 0.51737 -0.02078 0.53141
 O973 O 0.53521 0.01710 0.50102
 O974 O 0.53035 0.01621 0.47824
 O975 O 0.48312 -0.03393 0.49975
 O976 O 0.48568 -0.03027 0.52201
 O977 O 0.46612 -0.00073 0.48349
 O978 O 0.47061 0.02288 0.48441
 O979 O 0.49933 -0.01655 0.46616
 O980 O 0.52272 -0.01592 0.47067
 O981 O 0.49884 -0.03394 0.48394
 O982 O 0.52309 -0.02917 0.48525
 O983 O 0.48368 -0.00074 0.46605
 O984 O 0.48510 0.02336 0.47106
 O985 O 0.46617 -0.01670 0.49901
 O986 O 0.47041 -0.01235 0.52271
 O987 O 0.51655 0.03532 0.50135
 O988 O 0.51555 0.03041 0.47813
 O989 O 0.53533 0.00131 0.51674
 O990 O 0.52995 -0.02235 0.51467
 O991 O 0.50140 0.01680 0.53534
 O992 O 0.47783 0.01389 0.53013
 Zr993 Zr 0.49325 0.01614 0.51640
 O994 O 0.48068 0.00476 0.50465
 Zr995 Zr 0.51636 -0.00678 0.51620
 O996 O 0.50455 -0.01931 0.50484
 Zr997 Zr 0.51615 0.01630 0.49327
 O998 O 0.50471 0.00463 0.48069
 Zr999 Zr 0.48468 -0.01513 0.50789
 O1000 O 0.49646 -0.00381 0.52067
 Zr1001 Zr 0.48482 0.00780 0.48476
 O1002 O 0.49628 0.02049 0.49645
 Zr1003 Zr 0.50771 -0.01530 0.48492
 O1004 O 0.52057 -0.00361 0.49628
 O1005 O 0.51307 0.01301 0.51308
 O1006 O 0.48786 -0.01208 0.48797
 C1007 C 0.51000 0.04084 0.51059
 C1008 C 0.51037 0.00998 0.54094
 C1009 C 0.54085 0.01045 0.51008
 C1010 C 0.48946 -0.03938 0.49036
 C1011 C 0.46072 -0.01024 0.48970
 C1012 C 0.49003 -0.01014 0.46065
 H1013 H 0.47148 0.00683 0.50679
 H1014 H 0.50689 0.00673 0.47150
 H1015 H 0.51866 0.01859 0.51868
 H1016 H 0.50650 -0.02853 0.50706
 H1017 H 0.48847 -0.02612 0.53032
 H1018 H 0.51062 -0.02745 0.52952
 H1019 H 0.49249 0.02186 0.46500
 H1020 H 0.50697 0.03485 0.47883
 H1021 H 0.46421 -0.01982 0.52233
 H1022 H 0.47864 0.02081 0.53691
 H1023 H 0.52232 -0.00766 0.46564
 H1024 H 0.53442 0.00741 0.47838
 H1025 H 0.47886 0.03455 0.50671
 H1026 H 0.46529 0.02210 0.49246
 H1027 H 0.53511 -0.02080 0.50662
 H1028 H 0.52142 -0.03532 0.49255
 O1029 O 0.50107 0.53498 0.01714
 O1030 O 0.47877 0.53075 0.01543
 O1031 O 0.51684 0.50056 0.03516
 O1032 O 0.51738 0.47902 0.03123
 O1033 O 0.53521 0.51685 0.00077
 O1034 O 0.53033 0.51593 -0.02201
 O1035 O 0.48308 0.46584 -0.00038
 O1036 O 0.48567 0.46954 0.02187
 O1037 O 0.46609 0.49902 -0.01670
 O1038 O 0.47060 0.52263 -0.01581
 O1039 O 0.49929 0.48316 -0.03402
 O1040 O 0.52267 0.48378 -0.02952
 O1041 O 0.49879 0.46580 -0.01621
 O1042 O 0.52306 0.47056 -0.01491
 O1043 O 0.48365 0.49900 -0.03414
 O1044 O 0.48507 0.52309 -0.02917
 O1045 O 0.46615 0.48308 -0.00114
 O1046 O 0.47040 0.48747 0.02255
 O1047 O 0.51658 0.53508 0.00110
 O1048 O 0.51553 0.53014 -0.02212
 O1049 O 0.53532 0.50109 0.01653
 O1050 O 0.52994 0.47743 0.01448
 O1051 O 0.50139 0.51661 0.03512
 O1052 O 0.47782 0.51374 0.02990
 Zr1053 Zr 0.49325 0.51594 0.01617
 O1054 O 0.48067 0.50454 0.00445
 Zr1055 Zr 0.51636 0.49300 0.01600
 O1056 O 0.50453 0.48046 0.00467
 Zr1057 Zr 0.51615 0.51605 -0.00696
 O1058 O 0.50468 0.50437 -0.01952
 Zr1059 Zr 0.48467 0.48466 0.00772
 O1060 O 0.49645 0.49600 0.02047
 Zr1061 Zr 0.48480 0.50755 -0.01544
 O1062 O 0.49628 0.52026 -0.00379
 Zr1063 Zr 0.50768 0.48444 -0.01526
 O1064 O 0.52056 0.49614 -0.00393
 O1065 O 0.51307 0.51279 0.01285
 O1066 O 0.48783 0.48767 -0.01221
 C1067 C 0.51005 0.54061 0.01035
 C1068 C 0.51034 0.50978 0.04073
 C1069 C 0.54085 0.51021 0.00985
 C1070 C 0.48941 0.46038 -0.00978
 C1071 C 0.46070 0.48952 -0.01046
 C1072 C 0.49000 0.48958 -0.03953
 H1073 H 0.47147 0.50662 0.00660
 H1074 H 0.50687 0.50645 -0.02871
 H1075 H 0.51867 0.51837 0.01845
 H1076 H 0.50648 0.47124 0.00690
 H1077 H 0.48847 0.47371 0.03017
 H1078 H 0.51062 0.47236 0.02936
 H1079 H 0.49248 0.52159 -0.03521
 H1080 H 0.50697 0.53460 -0.02141
 H1081 H 0.46421 0.48001 0.02218
 H1082 H 0.47864 0.52068 0.03666
 H1083 H 0.52229 0.49204 -0.03456
 H1084 H 0.53440 0.50713 -0.02185
 H1085 H 0.47891 0.53437 0.00644
 H1086 H 0.46528 0.52187 -0.00775
 H1087 H 0.53510 0.47897 0.00643
 H1088 H 0.52138 0.46442 -0.00761
 O1089 O 0.78524 0.25087 0.48336
 O1090 O 0.78096 0.22853 0.48511
 O1091 O 0.75092 0.26674 0.46536
 O1092 O 0.72940 0.26726 0.46927
 O1093 O 0.76725 0.28513 0.49969
 O1094 O 0.76633 0.28029 0.52249
 O1095 O 0.71616 0.23310 0.50091
 O1096 O 0.71985 0.23559 0.47868
 O1097 O 0.74933 0.21597 0.51722
 O1098 O 0.77289 0.22046 0.51637
 O1099 O 0.73355 0.24930 0.53456
 O1100 O 0.73421 0.27268 0.53005
 O1101 O 0.71617 0.24886 0.51670
 O1102 O 0.72104 0.27313 0.51543
 O1103 O 0.74932 0.23361 0.53469
 O1104 O 0.77338 0.23496 0.52971
 O1105 O 0.73337 0.21605 0.50168
 O1106 O 0.73772 0.22027 0.47800
 O1107 O 0.78541 0.26643 0.49938
 O1108 O 0.78050 0.26543 0.52260
 O1109 O 0.75148 0.28523 0.48395
 O1110 O 0.72785 0.27992 0.48600
 O1111 O 0.76691 0.25122 0.46541
 O1112 O 0.76395 0.22763 0.47062
 Zr1113 Zr 0.76622 0.24308 0.48436
 O1114 O 0.75481 0.23055 0.49610
 Zr1115 Zr 0.74336 0.26627 0.48451
 O1116 O 0.73083 0.25449 0.49586
 Zr1117 Zr 0.76641 0.26606 0.50746
 O1118 O 0.75473 0.25463 0.52003
 Zr1119 Zr 0.73496 0.23458 0.49283
 O1120 O 0.74630 0.24633 0.48006
 Zr1121 Zr 0.75785 0.23470 0.51598
 O1122 O 0.77056 0.24614 0.50431
 Zr1123 Zr 0.73483 0.25766 0.51578
 O1124 O 0.74653 0.27051 0.50443
 O1125 O 0.76312 0.26294 0.48766
 O1126 O 0.73799 0.23777 0.51276
 C1127 C 0.79089 0.25987 0.49012
 C1128 C 0.76013 0.26022 0.45980
 C1129 C 0.76062 0.29077 0.49060
 C1130 C 0.71071 0.23951 0.51026
 C1131 C 0.73984 0.21057 0.51097
 C1132 C 0.73995 0.24000 0.54009
 H1133 H 0.75687 0.22133 0.49395
 H1134 H 0.75683 0.25682 0.52922
 H1135 H 0.76870 0.26852 0.48205
 H1136 H 0.72163 0.25646 0.49362
 H1137 H 0.72401 0.23838 0.47038
 H1138 H 0.72269 0.26056 0.47119
 H1139 H 0.77192 0.24240 0.53573
 H1140 H 0.78493 0.25684 0.52190
 H1141 H 0.73025 0.21408 0.47838
 H1142 H 0.77089 0.22842 0.46387
 H1143 H 0.74250 0.27233 0.53504
 H1144 H 0.75756 0.28439 0.52232
 H1145 H 0.78462 0.22872 0.49408
 H1146 H 0.77215 0.21516 0.50829
 H1147 H 0.72941 0.28510 0.49404
 H1148 H 0.71490 0.27147 0.50812
 O1149 O 0.76748 0.78527 -0.00093
 O1150 O 0.76572 0.78103 0.02139
 O1151 O 0.78526 0.75083 -0.01679
 O1152 O 0.78125 0.72930 -0.01734
 O1153 O 0.75100 0.76729 -0.03515
 O1154 O 0.72824 0.76648 -0.03028
 O1155 O 0.74964 0.71620 0.01689
 O1156 O 0.77186 0.71981 0.01438
 O1157 O 0.73350 0.74947 0.03399
 O1158 O 0.73443 0.77304 0.02951
 O1159 O 0.71608 0.73369 0.00068
 O1160 O 0.72054 0.73428 -0.02266
 O1161 O 0.73384 0.71623 0.00115
 O1162 O 0.73514 0.72109 -0.02314
 O1163 O 0.71602 0.74949 0.01637
 O1164 O 0.72111 0.77358 0.01500
 O1165 O 0.74897 0.73346 0.03392
 O1166 O 0.77264 0.73773 0.02966
 O1167 O 0.75145 0.78549 -0.01647
 O1168 O 0.72821 0.78066 -0.01541
 O1169 O 0.76667 0.75146 -0.03527
 O1170 O 0.76450 0.72779 -0.02994
 O1171 O 0.78532 0.76684 -0.00128
 O1172 O 0.78011 0.76394 0.02231
 Zr1173 Zr 0.76639 0.76624 0.00687
 O1174 O 0.75462 0.75488 0.01941
 Zr1175 Zr 0.76609 0.74334 -0.01631
 O1176 O 0.75472 0.73084 -0.00451
 Zr1177 Zr 0.74328 0.76650 -0.01607
 O1178 O 0.73068 0.75484 -0.00465
 Zr1179 Zr 0.75779 0.73499 0.01538
 O1180 O 0.77059 0.74629 0.00362
 Zr1181 Zr 0.73475 0.75798 0.01527
 O1182 O 0.74647 0.77066 0.00383
 Zr1183 Zr 0.73484 0.73490 -0.00767
 O1184 O 0.74620 0.74658 -0.02053
 O1185 O 0.76305 0.76314 -0.01297
 O1186 O 0.73789 0.73808 0.01221
 C1187 C 0.76075 0.79095 -0.00993
 C1188 C 0.79087 0.76002 -0.01027
 C1189 C 0.76005 0.76063 -0.04079
 C1190 C 0.74027 0.71076 0.01051
 C1191 C 0.73972 0.73996 0.03939
 C1192 C 0.71059 0.74012 0.00998
 H1193 H 0.75678 0.75694 0.02862
 H1194 H 0.72150 0.75697 -0.00684
 H1195 H 0.76867 0.76870 -0.01857
 H1196 H 0.75692 0.72161 -0.00648
 H1197 H 0.78016 0.72394 0.01157
 H1198 H 0.77935 0.72263 -0.01060
 H1199 H 0.71507 0.77211 0.00758
 H1200 H 0.72897 0.78512 -0.00684
 H1201 H 0.77224 0.73026 0.03586
 H1202 H 0.78689 0.77086 0.02152
 H1203 H 0.71564 0.74263 -0.02236
 H1204 H 0.72835 0.75769 -0.03438
 H1205 H 0.75677 0.78472 0.02122
 H1206 H 0.74252 0.77231 0.03477
 H1207 H 0.75649 0.72940 -0.03514
 H1208 H 0.74238 0.71488 -0.02145
 O1209 O 1.03513 0.23235 0.24932
 O1210 O 1.03091 0.23409 0.27162
 O1211 O 1.00070 0.21439 0.23351
 O1212 O 0.97920 0.21837 0.23296
 O1213 O 1.01708 0.24870 0.21506
 O1214 O 1.01626 0.27149 0.21988
 O1215 O 0.96615 0.25010 0.26717
 O1216 O 0.96976 0.22784 0.26467
 O1217 O 0.99938 0.26635 0.28419
 O1218 O 1.02294 0.26541 0.27967
 O1219 O 0.98355 0.28366 0.25091
 O1220 O 0.98417 0.27913 0.22752
 O1221 O 0.96616 0.26588 0.25140
 O1222 O 0.97093 0.26454 0.22712
 O1223 O 0.99936 0.28378 0.26658
 O1224 O 1.02342 0.27876 0.26516
 O1225 O 0.98339 0.25085 0.28416
 O1226 O 0.98767 0.22713 0.27996
 O1227 O 1.03531 0.24837 0.23376
 O1228 O 1.03044 0.27160 0.23471
 O1229 O 1.00129 0.23298 0.21498
 O1230 O 0.97766 0.23510 0.22035
 O1231 O 1.01673 0.21441 0.24900
 O1232 O 1.01386 0.21967 0.27257
 Zr1233 Zr 1.01612 0.23338 0.25711
 O1234 O 1.00478 0.24517 0.26965
 Zr1235 Zr 0.99321 0.23357 0.23396
 O1236 O 0.98074 0.24497 0.24575
 Zr1237 Zr 1.01632 0.25647 0.23412
 O1238 O 1.00469 0.26909 0.24555
 Zr1239 Zr 0.98492 0.24195 0.26564
 O1240 O 0.99619 0.22913 0.25389
 Zr1241 Zr 1.00786 0.26505 0.26546
 O1242 O 1.02051 0.25332 0.25402
 Zr1243 Zr 0.98478 0.26488 0.24255
 O1244 O 0.99642 0.25349 0.22970
 O1245 O 1.01299 0.23667 0.23726
 O1246 O 0.98799 0.26187 0.26243
 C1247 C 1.04079 0.23912 0.24034
 C1248 C 1.00989 0.20880 0.24004
 C1249 C 1.01041 0.23963 0.20943
 C1250 C 0.96071 0.25948 0.26078
 C1251 C 0.98988 0.26015 0.28960
 C1252 C 0.98997 0.28918 0.26021
 H1253 H 1.00686 0.24304 0.27886
 H1254 H 1.00681 0.27828 0.24335
 H1255 H 1.01855 0.23104 0.23167
 H1256 H 0.97152 0.24275 0.24379
 H1257 H 0.97389 0.21952 0.26189
 H1258 H 0.97256 0.22027 0.23972
 H1259 H 1.02191 0.28481 0.25775
 H1260 H 1.03487 0.27091 0.24330
 H1261 H 0.98022 0.22754 0.28616
 H1262 H 1.02076 0.21289 0.27178
 H1263 H 0.99244 0.28415 0.22789
 H1264 H 1.00746 0.27137 0.21582
 H1265 H 1.03455 0.24308 0.27147
 H1266 H 1.02216 0.25737 0.28501
 H1267 H 0.97923 0.24313 0.21515
 H1268 H 0.96477 0.25726 0.22881
 O1269 O 0.74957 1.03519 0.73298
 O1270 O 0.77188 1.03101 0.73476
 O1271 O 0.73386 1.00076 0.71493
 O1272 O 0.73337 0.97921 0.71884
 O1273 O 0.71539 1.01699 0.74927
 O1274 O 0.72023 1.01609 0.77206
 O1275 O 0.76755 0.96609 0.75051
 O1276 O 0.76504 0.96980 0.72826
 O1277 O 0.78450 0.99931 0.76689
 O1278 O 0.77996 1.02292 0.76599
 O1279 O 0.75129 0.98337 0.78414
 O1280 O 0.72792 0.98396 0.77961
 O1281 O 0.75180 0.96601 0.76629
 O1282 O 0.72754 0.97075 0.76498
 O1283 O 0.76691 0.99924 0.78430
 O1284 O 0.76548 1.02333 0.77934
 O1285 O 0.78448 0.98336 0.75133
 O1286 O 0.78029 0.98775 0.72764
 O1287 O 0.73402 1.03527 0.74898
 O1288 O 0.73501 1.03034 0.77220
 O1289 O 0.71535 1.00123 0.73350
 O1290 O 0.72074 0.97759 0.73555
 O1291 O 0.74930 1.01684 0.71501
 O1292 O 0.77285 1.01399 0.72027
 Zr1293 Zr 0.75740 1.01617 0.73398
 O1294 O 0.76996 1.00479 0.74572
 Zr1295 Zr 0.73432 0.99319 0.73408
 O1296 O 0.74612 0.98067 0.74544
 Zr1297 Zr 0.73444 1.01624 0.75704
 O1298 O 0.74589 1.00458 0.76963
 Zr1299 Zr 0.76599 0.98491 0.74243
 O1300 O 0.75423 0.99623 0.72965
 Zr1301 Zr 0.76578 1.00780 0.76560
 O1302 O 0.75432 1.02048 0.75392
 Zr1303 Zr 0.74293 0.98464 0.76536
 O1304 O 0.73007 0.99631 0.75400
 O1305 O 0.73758 1.01298 0.73725
 O1306 O 0.76278 0.98791 0.76236
 C1307 C 0.74057 1.04081 0.73974
 C1308 C 0.74036 1.01000 0.70938
 C1309 C 0.70978 1.01033 0.74018
 C1310 C 0.76118 0.96060 0.75986
 C1311 C 0.78991 0.98981 0.76066
 C1312 C 0.76057 0.98981 0.78967
 H1313 H 0.77916 1.00689 0.74359
 H1314 H 0.74369 1.00666 0.77881
 H1315 H 0.73198 1.01855 0.73163
 H1316 H 0.74418 0.97145 0.74320
 H1317 H 0.76225 0.97396 0.71996
 H1318 H 0.74010 0.97254 0.72074
 H1319 H 0.75804 1.02183 0.78535
 H1320 H 0.74358 1.03480 0.77152
 H1321 H 0.78649 0.98029 0.72802
 H1322 H 0.77206 1.02094 0.71352
 H1323 H 0.72828 0.99222 0.78464
 H1324 H 0.71618 1.00728 0.77190
 H1325 H 0.77170 1.03463 0.74374
 H1326 H 0.78531 1.02215 0.75796
 H1327 H 0.71557 0.97911 0.74359
 H1328 H 0.72923 0.96463 0.75767
 O1329 O 0.74945 0.53489 0.23281
 O1330 O 0.77173 0.53064 0.23454
 O1331 O 0.73358 0.50051 0.21479
 O1332 O 0.73306 0.47896 0.21871
 O1333 O 0.71522 0.51680 0.24916
 O1334 O 0.72009 0.51591 0.27193
 O1335 O 0.76725 0.46576 0.25036
 O1336 O 0.76471 0.46945 0.22812
 O1337 O 0.78430 0.49895 0.26668
 O1338 O 0.77983 0.52256 0.26578
 O1339 O 0.75106 0.48312 0.28400
 O1340 O 0.72768 0.48376 0.27947
 O1341 O 0.75153 0.46574 0.26617
 O1342 O 0.72728 0.47053 0.26488
 O1343 O 0.76672 0.49895 0.28412
 O1344 O 0.76536 0.52303 0.27914
 O1345 O 0.78423 0.48299 0.25113
 O1346 O 0.78000 0.48736 0.22744
 O1347 O 0.73391 0.53503 0.24883
 O1348 O 0.73491 0.53011 0.27205
 O1349 O 0.71511 0.50103 0.23341
 O1350 O 0.72045 0.47737 0.23544
 O1351 O 0.74908 0.51654 0.21485
 O1352 O 0.77263 0.51362 0.22006
 Zr1353 Zr 0.75721 0.51585 0.23380
 O1354 O 0.76975 0.50445 0.24553
 Zr1355 Zr 0.73406 0.49294 0.23395
 O1356 O 0.74584 0.48040 0.24530
 Zr1357 Zr 0.73429 0.51601 0.25690
 O1358 O 0.74572 0.50432 0.26947
 Zr1359 Zr 0.76572 0.48458 0.24226
 O1360 O 0.75397 0.49591 0.22949
 Zr1361 Zr 0.76561 0.50749 0.26542
 O1362 O 0.75417 0.52019 0.25374
 Zr1363 Zr 0.74269 0.48439 0.26522
 O1364 O 0.72985 0.49609 0.25387
 O1365 O 0.73738 0.51273 0.23709
 O1366 O 0.76255 0.48760 0.26219
 C1367 C 0.74047 0.54054 0.23958
 C1368 C 0.74011 0.50973 0.20923
 C1369 C 0.70958 0.51014 0.24009
 C1370 C 0.76089 0.46030 0.25974
 C1371 C 0.78969 0.48945 0.26044
 C1372 C 0.76036 0.48955 0.28952
 H1373 H 0.77896 0.50652 0.24339
 H1374 H 0.74353 0.50642 0.27866
 H1375 H 0.73179 0.51831 0.23149
 H1376 H 0.74388 0.47118 0.24307
 H1377 H 0.76192 0.47361 0.21982
 H1378 H 0.73977 0.47226 0.22061
 H1379 H 0.75793 0.52155 0.28516
 H1380 H 0.74349 0.53456 0.27134
 H1381 H 0.78619 0.47989 0.22782
 H1382 H 0.77185 0.52056 0.21331
 H1383 H 0.72808 0.49202 0.28451
 H1384 H 0.71602 0.50711 0.27180
 H1385 H 0.77158 0.53427 0.24352
 H1386 H 0.78516 0.52179 0.25774
 H1387 H 0.71530 0.47891 0.24350
 H1388 H 0.72894 0.46439 0.25757
 O1389 O 0.50113 0.21491 0.73320
 O1390 O 0.47885 0.21911 0.73488
 O1391 O 0.51693 0.24937 0.71526
 O1392 O 0.51750 0.27089 0.71923
 O1393 O 0.53531 0.23301 0.74961
 O1394 O 0.53044 0.23390 0.77239
 O1395 O 0.48320 0.28399 0.75077
 O1396 O 0.48575 0.28031 0.72854
 O1397 O 0.46619 0.25077 0.76706
 O1398 O 0.47071 0.22717 0.76616
 O1399 O 0.49939 0.26668 0.78442
 O1400 O 0.52273 0.26609 0.78000
 O1401 O 0.49892 0.28404 0.76660
 O1402 O 0.52321 0.27924 0.76532
 O1403 O 0.48375 0.25084 0.78452
 O1404 O 0.48519 0.22673 0.77954
 O1405 O 0.46626 0.26674 0.75153
 O1406 O 0.47049 0.26237 0.72784
 O1407 O 0.51665 0.21477 0.74926
 O1408 O 0.51561 0.21969 0.77249
 O1409 O 0.53540 0.24880 0.73388
 O1410 O 0.53003 0.27247 0.73598
 O1411 O 0.50148 0.23330 0.71525
 O1412 O 0.47791 0.23616 0.72045
 Zr1413 Zr 0.49333 0.23393 0.73419
 O1414 O 0.48077 0.24530 0.74593
 Zr1415 Zr 0.51645 0.25689 0.73443
 O1416 O 0.50463 0.26940 0.74575
 Zr1417 Zr 0.51624 0.23379 0.75734
 O1418 O 0.50479 0.24546 0.76991
 Zr1419 Zr 0.48477 0.26518 0.74268
 O1420 O 0.49655 0.25388 0.72992
 Zr1421 Zr 0.48490 0.24227 0.76582
 O1422 O 0.49637 0.22959 0.75415
 Zr1423 Zr 0.50778 0.26540 0.76567
 O1424 O 0.52066 0.25372 0.75435
 O1425 O 0.51315 0.23709 0.73754
 O1426 O 0.48793 0.26216 0.76261
 C1427 C 0.51010 0.20926 0.73999
 C1428 C 0.51044 0.24015 0.70967
 C1429 C 0.54094 0.23967 0.74055
 C1430 C 0.48955 0.28947 0.76016
 C1431 C 0.46080 0.26028 0.76083
 C1432 C 0.49009 0.26026 0.78992
 H1433 H 0.47157 0.24321 0.74377
 H1434 H 0.50697 0.24338 0.77910
 H1435 H 0.51875 0.23151 0.73193
 H1436 H 0.50658 0.27862 0.74353
 H1437 H 0.48855 0.27616 0.72024
 H1438 H 0.51070 0.27752 0.72106
 H1439 H 0.49258 0.22825 0.78561
 H1440 H 0.50704 0.21523 0.77176
 H1441 H 0.46429 0.26983 0.72821
 H1442 H 0.47872 0.22924 0.71368
 H1443 H 0.52242 0.25777 0.78495
 H1444 H 0.53450 0.24270 0.77226
 H1445 H 0.47897 0.21550 0.74387
 H1446 H 0.46539 0.22793 0.75811
 H1447 H 0.53523 0.27089 0.74401
 H1448 H 0.52150 0.28544 0.75808
 O1449 O 0.24908 0.71513 0.51700
 O1450 O 0.27136 0.71937 0.51533
 O1451 O 0.23328 0.74954 0.53504
 O1452 O 0.23273 0.77107 0.53112
 O1453 O 0.21488 0.73325 0.50064
 O1454 O 0.21975 0.73416 0.47787
 O1455 O 0.26699 0.78427 0.49954
 O1456 O 0.26443 0.78057 0.52178
 O1457 O 0.28399 0.75110 0.48322
 O1458 O 0.27948 0.72748 0.48408
 O1459 O 0.25079 0.76698 0.46589
 O1460 O 0.22741 0.76633 0.47035
 O1461 O 0.25127 0.78432 0.48372
 O1462 O 0.22700 0.77953 0.48499
 O1463 O 0.26644 0.75116 0.46576
 O1464 O 0.26501 0.72705 0.47069
 O1465 O 0.28393 0.76704 0.49878
 O1466 O 0.27970 0.76264 0.52246
 O1467 O 0.23355 0.71501 0.50096
 O1468 O 0.23456 0.71997 0.47775
 O1469 O 0.21479 0.74901 0.51640
 O1470 O 0.22016 0.77267 0.51438
 O1471 O 0.24874 0.73350 0.53500
 O1472 O 0.27230 0.73639 0.52980
 Zr1473 Zr 0.25687 0.73417 0.51605
 O1474 O 0.26942 0.74558 0.50434
 Zr1475 Zr 0.23375 0.75710 0.51588
 O1476 O 0.24555 0.76965 0.50457
 Zr1477 Zr 0.23395 0.73405 0.49292
 O1478 O 0.24540 0.74575 0.48037
 Zr1479 Zr 0.26542 0.76545 0.50763
 O1480 O 0.25365 0.75411 0.52037
 Zr1481 Zr 0.26528 0.74257 0.48445
 O1482 O 0.25382 0.72986 0.49610
 Zr1483 Zr 0.24240 0.76567 0.48464
 O1484 O 0.22953 0.75396 0.49595
 O1485 O 0.23704 0.73731 0.51273
 O1486 O 0.26225 0.76245 0.48769
 C1487 C 0.24011 0.70948 0.51020
 C1488 C 0.23979 0.74033 0.54061
 C1489 C 0.20925 0.73990 0.50970
 C1490 C 0.26064 0.78974 0.49016
 C1491 C 0.28939 0.76060 0.48947
 C1492 C 0.26009 0.76058 0.46038
 H1493 H 0.27863 0.74350 0.50649
 H1494 H 0.24321 0.74367 0.47117
 H1495 H 0.23144 0.73172 0.51832
 H1496 H 0.24361 0.77886 0.50681
 H1497 H 0.26164 0.77640 0.53008
 H1498 H 0.23949 0.77774 0.52927
 H1499 H 0.25761 0.72856 0.46464
 H1500 H 0.24314 0.71553 0.47845
 H1501 H 0.28589 0.77011 0.52210
 H1502 H 0.27149 0.72946 0.53656
 H1503 H 0.22779 0.75807 0.46531
 H1504 H 0.21570 0.74297 0.47800
 H1505 H 0.27124 0.71578 0.50633
 H1506 H 0.28482 0.72826 0.49212
 H1507 H 0.21499 0.77113 0.50632
 H1508 H 0.22868 0.78568 0.49228
 O1509 O 0.23302 0.24875 1.03526
 O1510 O 0.23472 0.27106 1.03102
 O1511 O 0.21504 0.23291 1.00082
 O1512 O 0.21899 0.23237 0.97930
 O1513 O 0.24936 0.21450 1.01717
 O1514 O 0.27212 0.21937 1.01630
 O1515 O 0.25061 0.26666 0.96619
 O1516 O 0.22838 0.26410 0.96984
 O1517 O 0.26688 0.28369 0.99940
 O1518 O 0.26596 0.27918 1.02300
 O1519 O 0.28419 0.25045 0.98355
 O1520 O 0.27969 0.22703 0.98418
 O1521 O 0.26641 0.25092 0.96617
 O1522 O 0.26510 0.22663 0.97094
 O1523 O 0.28429 0.26612 0.99937
 O1524 O 0.27932 0.26469 1.02346
 O1525 O 0.25137 0.28363 0.98342
 O1526 O 0.22769 0.27940 0.98776
 O1527 O 0.24903 0.23320 1.03540
 O1528 O 0.27223 0.23420 1.03050
 O1529 O 0.23364 0.21441 1.00138
 O1530 O 0.23571 0.21978 0.97773
 O1531 O 0.21507 0.24839 1.01686
 O1532 O 0.22029 0.27198 1.01398
 Zr1533 Zr 0.23401 0.25654 1.01622
 O1534 O 0.24574 0.26911 1.00486
 Zr1535 Zr 0.23419 0.23339 0.99330
 O1536 O 0.24554 0.24521 0.98079
 Zr1537 Zr 0.25710 0.23359 1.01639
 O1538 O 0.26967 0.24505 1.00474
 Zr1539 Zr 0.24250 0.26510 0.98498
 O1540 O 0.22973 0.25332 0.99628
 Zr1541 Zr 0.26561 0.26497 1.00791
 O1542 O 0.25393 0.25349 1.02058
 Zr1543 Zr 0.26544 0.24205 0.98480
 O1544 O 0.25410 0.22917 0.99647
 O1545 O 0.23731 0.23669 1.01309
 O1546 O 0.26240 0.26192 0.98803
 C1547 C 0.23980 0.23977 1.04091
 C1548 C 0.20947 0.23942 1.01003
 C1549 C 0.24030 0.20886 1.01050
 C1550 C 0.25999 0.26031 0.96074
 C1551 C 0.26067 0.28909 0.98988
 C1552 C 0.28969 0.25977 0.98996
 H1553 H 0.24360 0.27833 1.00693
 H1554 H 0.27885 0.24287 1.00684
 H1555 H 0.23171 0.23109 1.01866
 H1556 H 0.24332 0.24325 0.97157
 H1557 H 0.22008 0.26131 0.97399
 H1558 H 0.22087 0.23913 0.97264
 H1559 H 0.28536 0.25728 1.02195
 H1560 H 0.27154 0.24279 1.03493
 H1561 H 0.22807 0.28560 0.98030
 H1562 H 0.21352 0.27118 1.02090
 H1563 H 0.28472 0.22743 0.99245
 H1564 H 0.27199 0.21531 1.00749
 H1565 H 0.24370 0.27093 1.03464
 H1566 H 0.25793 0.28453 1.02220
 H1567 H 0.24375 0.21460 0.97929
 H1568 H 0.25782 0.22831 0.96479
 C1569 C 0.29025 0.37417 0.79006
 N1570 N 0.30087 0.36842 0.78454
 N1571 N 0.30565 0.35729 0.78938
 C1572 C 0.30003 0.35148 0.79995
 N1573 N 0.28936 0.35724 0.80541
 N1574 N 0.28457 0.36836 0.80057
 C1575 C 0.28523 0.38666 0.78498
 N1576 N 0.27481 0.39257 0.79073
 N1577 N 0.27049 0.40408 0.78637
 C1578 C 0.27642 0.41010 0.77612
 N1579 N 0.28679 0.40416 0.77033
 N1580 N 0.29112 0.39265 0.77469
 C1581 C 0.27193 0.42300 0.77162
 N1582 N 0.27807 0.42920 0.76159
 N1583 N 0.27426 0.44108 0.75779
 C1584 C 0.26416 0.44721 0.76388
 N1585 N 0.25798 0.44098 0.77386
 N1586 N 0.26179 0.42909 0.77766
 C1587 C 0.29098 -0.12595 0.29004
 N1588 N 0.28531 -0.13172 0.30057
 N1589 N 0.29008 -0.14284 0.30543
 C1590 C 0.30073 -0.14868 0.29997
 N1591 N 0.30632 -0.14288 0.28936
 N1592 N 0.30156 -0.13175 0.28450
 C1593 C 0.28597 -0.11347 0.28494
 N1594 N 0.29183 -0.10752 0.27461
 N1595 N 0.28750 -0.09602 0.27023
 C1596 C 0.27715 -0.09005 0.27602
 N1597 N 0.27124 -0.09603 0.28631
 N1598 N 0.27557 -0.10753 0.29069
 C1599 C 0.27263 -0.07717 0.27148
 N1600 N 0.26250 -0.07107 0.27752
 N1601 N 0.25866 -0.05921 0.27368
 C1602 C 0.26479 -0.05302 0.26364
 N1603 N 0.27488 -0.05915 0.25755
 N1604 N 0.27873 -0.07101 0.26140
 C1605 C 0.79045 0.87373 0.78910
 N1606 N 0.78462 0.86781 0.79946
 N1607 N 0.78927 0.85656 0.80417
 C1608 C 0.79994 0.85076 0.79873
 N1609 N 0.80568 0.85671 0.78829
 N1610 N 0.80104 0.86795 0.78358
 C1611 C 0.78557 0.88633 0.78418
 N1612 N 0.79157 0.89240 0.77399
 N1613 N 0.78737 0.90401 0.76977
 C1614 C 0.77702 0.90997 0.77559
 N1615 N 0.77099 0.90387 0.78574
 N1616 N 0.77519 0.89226 0.78996
 C1617 C 0.77264 0.92295 0.77121
 N1618 N 0.76253 0.92906 0.77729
 N1619 N 0.75879 0.94100 0.77358
 C1620 C 0.76501 0.94726 0.76364
 N1621 N 0.77508 0.94112 0.75752
 N1622 N 0.77883 0.92919 0.76124
 C1623 C 0.46039 0.87635 0.28970
 N1624 N 0.44981 0.88211 0.28413
 N1625 N 0.44504 0.89326 0.28892
 C1626 C 0.45066 0.89910 0.29948
 N1627 N 0.46131 0.89334 0.30499
 N1628 N 0.46608 0.88218 0.30020
 C1629 C 0.46538 0.86383 0.28469
 N1630 N 0.47577 0.85791 0.29048
 N1631 N 0.48005 0.84635 0.28619
 C1632 C 0.47410 0.84030 0.27596
 N1633 N 0.46375 0.84626 0.27012
 N1634 N 0.45947 0.85781 0.27441
 C1635 C 0.47854 0.82736 0.27152
 N1636 N 0.47237 0.82114 0.26152
 N1637 N 0.47614 0.80922 0.25778
 C1638 C 0.48622 0.80310 0.26391
 N1639 N 0.49243 0.80935 0.27387
 N1640 N 0.48866 0.82126 0.27760
 C1641 C -0.04007 0.87610 0.79047
 N1642 N -0.05065 0.88190 0.78492
 N1643 N -0.05546 0.89299 0.78982
 C1644 C -0.04992 0.89874 0.80049
 N1645 N -0.03927 0.89291 0.80595
 N1646 N -0.03445 0.88182 0.80106
 C1647 C -0.03503 0.86365 0.78533
 N1648 N -0.02463 0.85770 0.79108
 N1649 N -0.02029 0.84621 0.78668
 C1650 C -0.02619 0.84026 0.77636
 N1651 N -0.03654 0.84624 0.77056
 N1652 N -0.04088 0.85772 0.77497
 C1653 C -0.02169 0.82738 0.77180
 N1654 N -0.02783 0.82122 0.76174
 N1655 N -0.02402 0.80935 0.75790
 C1656 C -0.01393 0.80320 0.76398
 N1657 N -0.00775 0.80939 0.77400
 N1658 N -0.01156 0.82126 0.77783
 C1659 C -0.03886 -0.12674 -0.03940
 N1660 N -0.03320 -0.13248 -0.04996
 N1661 N -0.03786 -0.14371 -0.05471
 C1662 C -0.04836 -0.14965 -0.04910
 N1663 N -0.05395 -0.14390 -0.03848
 N1664 N -0.04930 -0.13267 -0.03372
 C1665 C -0.03400 -0.11415 -0.03443
 N1666 N -0.03992 -0.10819 -0.02413
 N1667 N -0.03575 -0.09658 -0.01988
 C1668 C -0.02551 -0.09050 -0.02577
 N1669 N -0.01955 -0.09648 -0.03602
 N1670 N -0.02372 -0.10809 -0.04028
 C1671 C -0.02118 -0.07750 -0.02136
 N1672 N -0.01111 -0.07133 -0.02745
 N1673 N -0.00742 -0.05938 -0.02372
 C1674 C -0.01366 -0.05316 -0.01377
 N1675 N -0.02369 -0.05937 -0.00764
 N1676 N -0.02738 -0.07132 -0.01137
 C1677 C -0.03946 0.37344 0.46038
 N1678 N -0.03387 0.36773 0.44977
 N1679 N -0.03854 0.35650 0.44505
 C1680 C -0.04899 0.35050 0.45071
 N1681 N -0.05449 0.35625 0.46140
 N1682 N -0.04983 0.36748 0.46612
 C1683 C -0.03458 0.38604 0.46532
 N1684 N -0.04044 0.39198 0.47567
 N1685 N -0.03626 0.40359 0.47991
 C1686 C -0.02605 0.40969 0.47397
 N1687 N -0.02015 0.40372 0.46367
 N1688 N -0.02434 0.39211 0.45942
 C1689 C -0.02169 0.42267 0.47838
 N1690 N -0.01165 0.42885 0.47226
 N1691 N -0.00793 0.44079 0.47599
 C1692 C -0.01412 0.44700 0.48598
 N1693 N -0.02414 0.44079 0.49213
 N1694 N -0.02785 0.42885 0.48840
 C1695 C 0.45949 -0.12563 0.45998
 N1696 N 0.46513 -0.13136 0.44942
 N1697 N 0.46033 -0.14247 0.44453
 C1698 C 0.44968 -0.14831 0.44999
 N1699 N 0.44413 -0.14255 0.46063
 N1700 N 0.44892 -0.13144 0.46552
 C1701 C 0.46452 -0.11316 0.46511
 N1702 N 0.45866 -0.10725 0.47547
 N1703 N 0.46299 -0.09575 0.47987
 C1704 C 0.47333 -0.08975 0.47408
 N1705 N 0.47923 -0.09569 0.46376
 N1706 N 0.47490 -0.10719 0.45936
 C1707 C 0.47783 -0.07686 0.47864
 N1708 N 0.48794 -0.07072 0.47260
 N1709 N 0.49175 -0.05884 0.47645
 C1710 C 0.48560 -0.05268 0.48649
 N1711 N 0.47553 -0.05886 0.49257
 N1712 N 0.47171 -0.07073 0.48872
 C1713 C 0.45941 0.37402 -0.03989
 N1714 N 0.46506 0.36825 -0.05043
 N1715 N 0.46030 0.35711 -0.05526
 C1716 C 0.44967 0.35125 -0.04976
 N1717 N 0.44411 0.35705 -0.03914
 N1718 N 0.44886 0.36820 -0.03431
 C1719 C 0.46442 0.38652 -0.03482
 N1720 N 0.45857 0.39247 -0.02448
 N1721 N 0.46289 0.40399 -0.02012
 C1722 C 0.47322 0.40998 -0.02594
 N1723 N 0.47911 0.40400 -0.03624
 N1724 N 0.47479 0.39248 -0.04060
 C1725 C 0.47773 0.42288 -0.02142
 N1726 N 0.48783 0.42900 -0.02748
 N1727 N 0.49166 0.44088 -0.02366
 C1728 C 0.48553 0.44707 -0.01362
 N1729 N 0.47546 0.44091 -0.00751
 N1730 N 0.47163 0.42903 -0.01134
 C1731 C 0.78909 0.37803 0.46200
 N1732 N 0.79972 0.38380 0.46749
 N1733 N 0.80453 0.39489 0.46258
 C1734 C 0.79890 0.40066 0.45199
 N1735 N 0.78820 0.39490 0.44658
 N1736 N 0.78339 0.38381 0.45148
 C1737 C 0.78410 0.36553 0.46707
 N1738 N 0.77371 0.35957 0.46130
 N1739 N 0.76950 0.34798 0.46557
 C1740 C 0.77552 0.34193 0.47576
 N1741 N 0.78586 0.34793 0.48158
 N1742 N 0.79007 0.35952 0.47731
 C1743 C 0.77124 0.32889 0.48006
 N1744 N 0.77754 0.32261 0.48994
 N1745 N 0.77402 0.31054 0.49345
 C1746 C 0.76406 0.30432 0.48722
 N1747 N 0.75770 0.31063 0.47740
 N1748 N 0.76123 0.32270 0.47389
 C1749 C 0.78992 0.87791 -0.03879
 N1750 N 0.78427 0.88371 -0.04932
 N1751 N 0.78917 0.89476 -0.05423
 C1752 C 0.79992 0.90048 -0.04884
 N1753 N 0.80548 0.89466 -0.03822
 N1754 N 0.80059 0.88361 -0.03331
 C1755 C 0.78483 0.86546 -0.03370
 N1756 N 0.79076 0.85941 -0.02345
 N1757 N 0.78644 0.84787 -0.01916
 C1758 C 0.77603 0.84195 -0.02495
 N1759 N 0.77006 0.84804 -0.03514
 N1760 N 0.77438 0.85958 -0.03944
 C1761 C 0.77164 0.82896 -0.02060
 N1762 N 0.76153 0.82286 -0.02670
 N1763 N 0.75791 0.81084 -0.02315
 C1764 C 0.76426 0.80448 -0.01335
 N1765 N 0.77431 0.81062 -0.00719
 N1766 N 0.77793 0.82264 -0.01074
 C1767 C 0.78870 0.28864 0.37256
 N1768 N 0.79926 0.28299 0.36683
 N1769 N 0.80415 0.28781 0.35574
 C1770 C 0.79868 0.29846 0.34993
 N1771 N 0.78805 0.30403 0.35566
 N1772 N 0.78316 0.29922 0.36675
 C1773 C 0.78364 0.28365 0.38506
 N1774 N 0.77333 0.28954 0.39101
 N1775 N 0.76906 0.28532 0.40259
 C1776 C 0.77495 0.27505 0.40864
 N1777 N 0.78521 0.26911 0.40265
 N1778 N 0.78947 0.27333 0.39107
 C1779 C 0.77065 0.27077 0.42168
 N1780 N 0.77691 0.26086 0.42793
 N1781 N 0.77340 0.25735 0.43999
 C1782 C 0.76349 0.26362 0.44624
 N1783 N 0.75717 0.27347 0.43995
 N1784 N 0.76068 0.27698 0.42789
 C1785 C 0.78853 0.78915 -0.12802
 N1786 N 0.78306 0.79981 -0.13376
 N1787 N 0.78795 0.80463 -0.14485
 C1788 C 0.79851 0.79900 -0.15064
 N1789 N 0.80392 0.78828 -0.14490
 N1790 N 0.79903 0.78345 -0.13381
 C1791 C 0.78348 0.78415 -0.11553
 N1792 N 0.78924 0.77375 -0.10959
 N1793 N 0.78500 0.76952 -0.09800
 C1794 C 0.77483 0.77554 -0.09193
 N1795 N 0.76902 0.78589 -0.09791
 N1796 N 0.77326 0.79012 -0.10950
 C1797 C 0.77055 0.77125 -0.07890
 N1798 N 0.76070 0.77757 -0.07261
 N1799 N 0.75720 0.77404 -0.06055
 C1800 C 0.76342 0.76406 -0.05434
 N1801 N 0.77321 0.75770 -0.06067
 N1802 N 0.77671 0.76122 -0.07273
 C1803 C 0.29087 0.45932 0.87549
 N1804 N 0.28524 0.44880 0.88133
 N1805 N 0.29007 0.44401 0.89245
 C1806 C 0.30073 0.44955 0.89820
 N1807 N 0.30629 0.46013 0.89235
 N1808 N 0.30147 0.46492 0.88122
 C1809 C 0.28579 0.46436 0.86302
 N1810 N 0.29164 0.47469 0.85702
 N1811 N 0.28726 0.47903 0.84553
 C1812 C 0.27688 0.47321 0.83961
 N1813 N 0.27100 0.46292 0.84563
 N1814 N 0.27538 0.45858 0.85713
 C1815 C 0.27232 0.47774 0.82675
 N1816 N 0.26213 0.47174 0.82068
 N1817 N 0.25824 0.47561 0.80884
 C1818 C 0.26440 0.48564 0.80264
 N1819 N 0.27456 0.49167 0.80874
 N1820 N 0.27844 0.48780 0.82057
 C1821 C 0.29051 -0.04007 0.37584
 N1822 N 0.28493 -0.05061 0.38168
 N1823 N 0.28977 -0.05536 0.39282
 C1824 C 0.30039 -0.04977 0.39856
 N1825 N 0.30591 -0.03916 0.39271
 N1826 N 0.30107 -0.03441 0.38157
 C1827 C 0.28542 -0.03509 0.36334
 N1828 N 0.29118 -0.02471 0.35735
 N1829 N 0.28680 -0.02044 0.34583
 C1830 C 0.27651 -0.02638 0.33988
 N1831 N 0.27071 -0.03671 0.34590
 N1832 N 0.27508 -0.04099 0.35742
 C1833 C 0.27197 -0.02194 0.32697
 N1834 N 0.26193 -0.02813 0.32083
 N1835 N 0.25810 -0.02437 0.30895
 C1836 C 0.26415 -0.01428 0.30276
 N1837 N 0.27415 -0.00805 0.30893
 N1838 N 0.27798 -0.01181 0.32082
 C1839 C -0.04008 -0.04102 -0.12559
 N1840 N -0.05064 -0.03539 -0.13134
 N1841 N -0.05545 -0.04017 -0.14249
 C1842 C -0.04992 -0.05077 -0.14835
 N1843 N -0.03929 -0.05632 -0.14257
 N1844 N -0.03447 -0.05155 -0.13142
 C1845 C -0.03504 -0.03599 -0.11309
 N1846 N -0.02466 -0.04180 -0.10715
 N1847 N -0.02032 -0.03746 -0.09564
 C1848 C -0.02619 -0.02715 -0.08964
 N1849 N -0.03653 -0.02131 -0.09561
 N1850 N -0.04087 -0.02565 -0.10712
 C1851 C -0.02168 -0.02262 -0.07676
 N1852 N -0.02780 -0.01255 -0.07062
 N1853 N -0.02397 -0.00867 -0.05878
 C1854 C -0.01385 -0.01471 -0.05263
 N1855 N -0.00769 -0.02475 -0.05879
 N1856 N -0.01153 -0.02863 -0.07064
 C1857 C -0.04022 0.45923 0.37403
 N1858 N -0.05078 0.46483 0.36824
 N1859 N -0.05554 0.46005 0.35708
 C1860 C -0.04996 0.44947 0.35122
 N1861 N -0.03933 0.44395 0.35703
 N1862 N -0.03456 0.44872 0.36820
 C1863 C -0.03523 0.46425 0.38655
 N1864 N -0.02486 0.45846 0.39250
 N1865 N -0.02057 0.46279 0.40404
 C1866 C -0.02650 0.47306 0.41004
 N1867 N -0.03683 0.47888 0.40406
 N1868 N -0.04112 0.47455 0.39252
 C1869 C -0.02203 0.47758 0.42294
 N1870 N -0.02819 0.48762 0.42909
 N1871 N -0.02439 0.49148 0.44096
 C1872 C -0.01427 0.48545 0.44711
 N1873 N -0.00807 0.47544 0.44094
 N1874 N -0.01188 0.47158 0.42907
 C1875 C 0.46044 -0.03970 0.37402
 N1876 N 0.44992 -0.03404 0.36822
 N1877 N 0.44514 -0.03879 0.35705
 C1878 C 0.45069 -0.04939 0.35122
 N1879 N 0.46127 -0.05499 0.35702
 N1880 N 0.46605 -0.05024 0.36820
 C1881 C 0.46544 -0.03473 0.38655
 N1882 N 0.47573 -0.04063 0.39254
 N1883 N 0.48002 -0.03636 0.40410
 C1884 C 0.47417 -0.02604 0.41010
 N1885 N 0.46391 -0.02011 0.40408
 N1886 N 0.45963 -0.02438 0.39252
 C1887 C 0.47860 -0.02162 0.42304
 N1888 N 0.47253 -0.01151 0.42917
 N1889 N 0.47628 -0.00775 0.44109
 C1890 C 0.48625 -0.01396 0.44731
 N1891 N 0.49236 -0.02402 0.44115
 N1892 N 0.48861 -0.02778 0.42923
 C1893 C 0.46035 0.46013 -0.12619
 N1894 N 0.44987 0.46585 -0.13199
 N1895 N 0.44507 0.46112 -0.14316
 C1896 C 0.45056 0.45049 -0.14898
 N1897 N 0.46110 0.44484 -0.14317
 N1898 N 0.46590 0.44956 -0.13200
 C1899 C 0.46537 0.46508 -0.11365
 N1900 N 0.47563 0.45913 -0.10765
 N1901 N 0.47992 0.46338 -0.09608
 C1902 C 0.47412 0.47372 -0.09009
 N1903 N 0.46390 0.47970 -0.09612
 N1904 N 0.45960 0.47546 -0.10768
 C1905 C 0.47856 0.47813 -0.07715
 N1906 N 0.47251 0.48825 -0.07102
 N1907 N 0.47627 0.49200 -0.05910
 C1908 C 0.48621 0.48577 -0.05287
 N1909 N 0.49230 0.47568 -0.05902
 N1910 N 0.48854 0.47193 -0.07094
 C1911 C 0.45983 0.79104 0.37569
 N1912 N 0.44928 0.78541 0.38145
 N1913 N 0.44449 0.79018 0.39260
 C1914 C 0.45004 0.80078 0.39843
 N1915 N 0.46065 0.80636 0.39266
 N1916 N 0.46545 0.80159 0.38151
 C1917 C 0.46487 0.78601 0.36320
 N1918 N 0.47524 0.79182 0.35727
 N1919 N 0.47958 0.78747 0.34576
 C1920 C 0.47370 0.77716 0.33976
 N1921 N 0.46336 0.77132 0.34572
 N1922 N 0.45902 0.77567 0.35723
 C1923 C 0.47821 0.77262 0.32689
 N1924 N 0.47208 0.76254 0.32075
 N1925 N 0.47592 0.75866 0.30891
 C1926 C 0.48604 0.76470 0.30277
 N1927 N 0.49221 0.77474 0.30894
 N1928 N 0.48836 0.77862 0.32078
 C1929 C -0.03940 0.79006 0.87629
 N1930 N -0.04978 0.78426 0.88219
 N1931 N -0.05441 0.78887 0.89348
 C1932 C -0.04888 0.79948 0.89934
 N1933 N -0.03842 0.80521 0.89340
 N1934 N -0.03378 0.80060 0.88211
 C1935 C -0.03455 0.78522 0.86365
 N1936 N -0.02430 0.79117 0.85763
 N1937 N -0.02012 0.78699 0.84601
 C1938 C -0.02603 0.77672 0.83998
 N1939 N -0.03624 0.77074 0.84602
 N1940 N -0.04042 0.77492 0.85765
 C1941 C -0.02166 0.77234 0.82700
 N1942 N -0.02782 0.76231 0.82081
 N1943 N -0.02408 0.75855 0.80890
 C1944 C -0.01402 0.76467 0.80274
 N1945 N -0.00782 0.77466 0.80895
 N1946 N -0.01157 0.77843 0.82086
 C1947 C 0.37456 0.79017 0.29039
 N1948 N 0.36873 0.78461 0.30095
 N1949 N 0.35759 0.78945 0.30567
 C1950 C 0.35184 0.80005 0.30004
 N1951 N 0.35769 0.80555 0.28943
 N1952 N 0.36882 0.80071 0.28470
 C1953 C 0.38705 0.78509 0.28543
 N1954 N 0.39303 0.79085 0.27506
 N1955 N 0.40454 0.78648 0.27078
 C1956 C 0.41050 0.77619 0.27672
 N1957 N 0.40449 0.77038 0.28706
 N1958 N 0.39298 0.77475 0.29133
 C1959 C 0.42339 0.77166 0.27227
 N1960 N 0.42952 0.76159 0.27842
 N1961 N 0.44139 0.75776 0.27464
 C1962 C 0.44756 0.76385 0.26456
 N1963 N 0.44140 0.77388 0.25838
 N1964 N 0.42953 0.77771 0.26216
 C1965 C -0.12611 0.78973 0.78934
 N1966 N -0.13182 0.80029 0.78365
 N1967 N -0.14305 0.80503 0.78824
 C1968 C -0.14903 0.79941 0.79871
 N1969 N -0.14332 0.78879 0.80434
 N1970 N -0.13208 0.78405 0.79975
 C1971 C -0.11352 0.78477 0.78453
 N1972 N -0.10761 0.77444 0.79047
 N1973 N -0.09601 0.77017 0.78634
 C1974 C -0.08989 0.77608 0.77612
 N1975 N -0.09582 0.78636 0.77015
 N1976 N -0.10742 0.79063 0.77428
 C1977 C -0.07692 0.77165 0.77182
 N1978 N -0.07070 0.77776 0.76179
 N1979 N -0.05878 0.77400 0.75812
 C1980 C -0.05263 0.76398 0.76433
 N1981 N -0.05887 0.75783 0.77433
 N1982 N -0.07080 0.76159 0.77800
 C1983 C 0.87799 0.28855 0.46156
 N1984 N 0.88378 0.29910 0.46721
 N1985 N 0.89484 0.30399 0.46236
 C1986 C 0.90056 0.29855 0.45165
 N1987 N 0.89478 0.28794 0.44607
 N1988 N 0.88371 0.28304 0.45092
 C1989 C 0.86552 0.28349 0.46658
 N1990 N 0.85950 0.27323 0.46063
 N1991 N 0.84793 0.26896 0.46487
 C1992 C 0.84197 0.27478 0.47522
 N1993 N 0.84803 0.28498 0.48122
 N1994 N 0.85959 0.28925 0.47698
 C1995 C 0.82895 0.27046 0.47951
 N1996 N 0.82280 0.27659 0.48957
 N1997 N 0.81076 0.27306 0.49310
 C1998 C 0.80443 0.26327 0.48670
 N1999 N 0.81062 0.25708 0.47670
 N2000 N 0.82266 0.26061 0.47317
 C2001 C 0.87816 0.78812 -0.03881
 N2002 N 0.88387 0.78259 -0.04945
 N2003 N 0.89495 0.78745 -0.05429
 C2004 C 0.90077 0.79805 -0.04870
 N2005 N 0.89506 0.80350 -0.03800
 N2006 N 0.88398 0.79864 -0.03315
 C2007 C 0.86566 0.78311 -0.03378
 N2008 N 0.85974 0.78897 -0.02344
 N2009 N 0.84815 0.78477 -0.01919
 C2010 C 0.84207 0.77455 -0.02514
 N2011 N 0.84803 0.76863 -0.03544
 N2012 N 0.85962 0.77284 -0.03968
 C2013 C 0.82902 0.77032 -0.02085
 N2014 N 0.82274 0.76038 -0.02705
 N2015 N 0.81067 0.75694 -0.02353
 C2016 C 0.80444 0.76331 -0.01367
 N2017 N 0.81076 0.77320 -0.00741
 N2018 N 0.82283 0.77663 -0.01093
 C2019 C -0.12571 -0.03969 -0.04024
 N2020 N -0.13150 -0.03413 -0.05082
 N2021 N -0.14272 -0.03886 -0.05549
 C2022 C -0.14862 -0.04936 -0.04980
 N2023 N -0.14279 -0.05485 -0.03915
 N2024 N -0.13158 -0.05012 -0.03447
 C2025 C -0.11314 -0.03473 -0.03532
 N2026 N -0.10719 -0.04051 -0.02494
 N2027 N -0.09563 -0.03624 -0.02070
 C2028 C -0.08958 -0.02602 -0.02668
 N2029 N -0.09556 -0.02020 -0.03702
 N2030 N -0.10713 -0.02447 -0.04127
 C2031 C -0.07665 -0.02158 -0.02224
 N2032 N -0.07046 -0.01154 -0.02840
 N2033 N -0.05857 -0.00777 -0.02461
 C2034 C -0.05243 -0.01388 -0.01453
 N2035 N -0.05864 -0.02387 -0.00834
 N2036 N -0.07053 -0.02765 -0.01213
 C2037 C -0.12642 0.46094 0.46001
 N2038 N -0.13233 0.45058 0.46585
 N2039 N -0.14357 0.44588 0.46121
 C2040 C -0.14938 0.45133 0.45054
 N2041 N -0.14344 0.46177 0.44478
 N2042 N -0.13220 0.46648 0.44941
 C2043 C -0.11381 0.46585 0.46487
 N2044 N -0.10775 0.47604 0.45886
 N2045 N -0.09613 0.48025 0.46304
 C2046 C -0.09016 0.47442 0.47338
 N2047 N -0.09625 0.46427 0.47943
 N2048 N -0.10786 0.46006 0.47525
 C2049 C -0.07717 0.47879 0.47774
 N2050 N -0.07105 0.47270 0.48784
 N2051 N -0.05912 0.47641 0.49157
 C2052 C -0.05288 0.48636 0.48534
 N2053 N -0.05903 0.49249 0.47527
 N2054 N -0.07096 0.48877 0.47154
 C2055 C 0.37454 -0.04030 0.45938
 N2056 N 0.36874 -0.05083 0.46503
 N2057 N 0.35758 -0.05561 0.46026
 C2058 C 0.35176 -0.05008 0.44964
 N2059 N 0.35759 -0.03947 0.44407
 N2060 N 0.36875 -0.03469 0.44883
 C2061 C 0.38704 -0.03529 0.46441
 N2062 N 0.39300 -0.02491 0.45861
 N2063 N 0.40451 -0.02059 0.46295
 C2064 C 0.41049 -0.02648 0.47326
 N2065 N 0.40450 -0.03682 0.47910
 N2066 N 0.39299 -0.04114 0.47475
 C2067 C 0.42336 -0.02198 0.47781
 N2068 N 0.42949 -0.02813 0.48787
 N2069 N 0.44133 -0.02429 0.49176
 C2070 C 0.44747 -0.01415 0.48573
 N2071 N 0.44132 -0.00797 0.47570
 N2072 N 0.42948 -0.01181 0.47181
 C2073 C 0.37464 0.45917 -0.04079
 N2074 N 0.36888 0.44860 -0.03517
 N2075 N 0.35776 0.44378 -0.03997
 C2076 C 0.35192 0.44930 -0.05060
 N2077 N 0.35772 0.45995 -0.05613
 N2078 N 0.36884 0.46478 -0.05134
 C2079 C 0.38711 0.46425 -0.03574
 N2080 N 0.39302 0.47464 -0.04154
 N2081 N 0.40451 0.47902 -0.03718
 C2082 C 0.41050 0.47315 -0.02687
 N2083 N 0.40456 0.46278 -0.02103
 N2084 N 0.39307 0.45841 -0.02539
 C2085 C 0.42336 0.47770 -0.02232
 N2086 N 0.42950 0.47158 -0.01225
 N2087 N 0.44134 0.47545 -0.00837
 C2088 C 0.44746 0.48559 -0.01442
 N2089 N 0.44128 0.49174 -0.02445
 N2090 N 0.42945 0.48787 -0.02833
 C2091 C 0.37601 0.46045 0.78998
 N2092 N 0.38186 0.46605 0.80051
 N2093 N 0.39303 0.46125 0.80522
 C2094 C 0.39879 0.45066 0.79959
 N2095 N 0.39293 0.44512 0.78900
 N2096 N 0.38176 0.44992 0.78429
 C2097 C 0.36348 0.46548 0.78504
 N2098 N 0.35747 0.45967 0.77470
 N2099 N 0.34592 0.46398 0.77046
 C2100 C 0.33996 0.47427 0.77641
 N2101 N 0.34600 0.48012 0.78671
 N2102 N 0.35755 0.47580 0.79095
 C2103 C 0.32704 0.47874 0.77200
 N2104 N 0.32091 0.48880 0.77815
 N2105 N 0.30901 0.49259 0.77440
 C2106 C 0.30281 0.48646 0.76436
 N2107 N 0.30897 0.47644 0.75817
 N2108 N 0.32086 0.47265 0.76192
 C2109 C 0.37605 -0.03990 0.29016
 N2110 N 0.38187 -0.03422 0.30067
 N2111 N 0.39307 -0.03894 0.30539
 C2112 C 0.39890 -0.04951 0.29980
 N2113 N 0.39306 -0.05512 0.28923
 N2114 N 0.38186 -0.05042 0.28451
 C2115 C 0.36349 -0.03497 0.28520
 N2116 N 0.35751 -0.04088 0.27490
 N2117 N 0.34595 -0.03665 0.27063
 C2118 C 0.33995 -0.02634 0.27649
 N2119 N 0.34595 -0.02039 0.28675
 N2120 N 0.35752 -0.02463 0.29103
 C2121 C 0.32702 -0.02193 0.27202
 N2122 N 0.32088 -0.01180 0.27805
 N2123 N 0.30900 -0.00804 0.27423
 C2124 C 0.30282 -0.01428 0.26424
 N2125 N 0.30898 -0.02438 0.25818
 N2126 N 0.32087 -0.02813 0.26200
 C2127 C 0.12128 0.53761 0.71289
 N2128 N 0.11544 0.54813 0.71852
 N2129 N 0.10415 0.55270 0.71387
 C2130 C 0.09825 0.54695 0.70341
 N2131 N 0.10410 0.53636 0.69786
 N2132 N 0.11538 0.53178 0.70251
 C2133 C 0.13398 0.53288 0.71768
 N2134 N 0.13999 0.52258 0.71181
 N2135 N 0.15173 0.51859 0.71585
 C2136 C 0.15788 0.52474 0.72590
 N2137 N 0.15183 0.53499 0.73182
 N2138 N 0.14009 0.53899 0.72779
 C2139 C 0.17104 0.52068 0.72999
 N2140 N 0.17738 0.52712 0.73974
 N2141 N 0.18952 0.52375 0.74312
 C2142 C 0.19574 0.51380 0.73687
 N2143 N 0.18937 0.50731 0.72717
 N2144 N 0.17724 0.51069 0.72380
 C2145 C 0.12122 0.03691 0.21282
 N2146 N 0.11537 0.03115 0.20237
 N2147 N 0.10410 0.03575 0.19772
 C2148 C 0.09821 0.04628 0.20332
 N2149 N 0.10406 0.05197 0.21384
 N2150 N 0.11534 0.04738 0.21850
 C2151 C 0.13391 0.03217 0.21762
 N2152 N 0.13998 0.03821 0.22780
 N2153 N 0.15171 0.03421 0.23183
 C2154 C 0.15781 0.02403 0.22585
 N2155 N 0.15171 0.01795 0.21572
 N2156 N 0.13997 0.02194 0.21168
 C2157 C 0.17098 0.01998 0.22993
 N2158 N 0.17723 0.01008 0.22365
 N2159 N 0.18937 0.00672 0.22702
 C2160 C 0.19570 0.01314 0.23679
 N2161 N 0.18941 0.02300 0.24312
 N2162 N 0.17727 0.02635 0.23976
 C2163 C 0.62858 0.71221 0.21221
 N2164 N 0.63433 0.71791 0.20167
 N2165 N 0.64550 0.71322 0.19688
 C2166 C 0.65138 0.70265 0.20243
 N2167 N 0.64564 0.69703 0.21303
 N2168 N 0.63446 0.70171 0.21783
 C2169 C 0.61599 0.71705 0.21715
 N2170 N 0.60999 0.71103 0.22737
 N2171 N 0.59833 0.71510 0.23153
 C2172 C 0.59225 0.72535 0.22564
 N2173 N 0.59829 0.73142 0.21548
 N2174 N 0.60995 0.72734 0.21131
 C2175 C 0.57916 0.72948 0.22985
 N2176 N 0.57294 0.73948 0.22369
 N2177 N 0.56085 0.74289 0.22715
 C2178 C 0.55453 0.73644 0.23691
 N2179 N 0.56079 0.72650 0.24313
 N2180 N 0.57288 0.72308 0.23967
 C2181 C 0.12888 0.71284 0.71296
 N2182 N 0.13477 0.71867 0.70257
 N2183 N 0.14606 0.71409 0.69794
 C2184 C 0.15191 0.70351 0.70350
 N2185 N 0.14602 0.69776 0.71395
 N2186 N 0.13473 0.70232 0.71858
 C2187 C 0.11618 0.71755 0.71773
 N2188 N 0.11007 0.71144 0.72783
 N2189 N 0.09833 0.71542 0.73185
 C2190 C 0.09227 0.72566 0.72592
 N2191 N 0.09841 0.73182 0.71588
 N2192 N 0.11015 0.72784 0.71186
 C2193 C 0.07910 0.72971 0.73000
 N2194 N 0.07290 0.73970 0.72381
 N2195 N 0.06077 0.74307 0.72718
 C2196 C 0.05440 0.73657 0.73687
 N2197 N 0.06063 0.72663 0.74311
 N2198 N 0.07276 0.72326 0.73974
 C2199 C 0.62323 0.21148 0.53867
 N2200 N 0.61737 0.21730 0.54907
 N2201 N 0.60601 0.21283 0.55362
 C2202 C 0.60004 0.20236 0.54796
 N2203 N 0.60591 0.19660 0.53751
 N2204 N 0.61728 0.20107 0.53295
 C2205 C 0.63597 0.21614 0.53392
 N2206 N 0.64199 0.21011 0.52373
 N2207 N 0.65371 0.21411 0.51965
 C2208 C 0.65983 0.22430 0.52562
 N2209 N 0.65378 0.23037 0.53577
 N2210 N 0.64207 0.22636 0.53985
 C2211 C 0.67291 0.22848 0.52137
 N2212 N 0.67913 0.23848 0.52754
 N2213 N 0.69113 0.24207 0.52392
 C2214 C 0.69734 0.23579 0.51398
 N2215 N 0.69109 0.22582 0.50778
 N2216 N 0.67909 0.22223 0.51141
 C2217 C 0.62329 0.71156 0.03840
 N2218 N 0.61742 0.70109 0.03271
 N2219 N 0.60609 0.69653 0.03728
 C2220 C 0.60019 0.70226 0.04774
 N2221 N 0.60607 0.71279 0.05337
 N2222 N 0.61739 0.71736 0.04879
 C2223 C 0.63598 0.71633 0.03363
 N2224 N 0.64199 0.72661 0.03954
 N2225 N 0.65367 0.73071 0.03545
 C2226 C 0.65977 0.72468 0.02530
 N2227 N 0.65373 0.71444 0.01935
 N2228 N 0.64205 0.71034 0.02344
 C2229 C 0.67281 0.72895 0.02105
 N2230 N 0.67904 0.72273 0.01110
 N2231 N 0.69102 0.72638 0.00748
 C2232 C 0.69722 0.73638 0.01368
 N2233 N 0.69096 0.74264 0.02360
 N2234 N 0.67898 0.73899 0.02722
 C2235 C 0.12888 0.03742 0.03783
 N2236 N 0.13469 0.03166 0.04829
 N2237 N 0.14595 0.03626 0.05298
 C2238 C 0.15188 0.04682 0.04744
 N2239 N 0.14604 0.05249 0.03689
 N2240 N 0.13478 0.04790 0.03219
 C2241 C 0.11621 0.03268 0.03297
 N2242 N 0.11017 0.03875 0.02281
 N2243 N 0.09845 0.03474 0.01871
 C2244 C 0.09235 0.02452 0.02462
 N2245 N 0.09842 0.01840 0.03474
 N2246 N 0.11014 0.02241 0.03884
 C2247 C 0.07921 0.02044 0.02046
 N2248 N 0.07297 0.01046 0.02663
 N2249 N 0.06085 0.00708 0.02319
 C2250 C 0.05454 0.01355 0.01344
 N2251 N 0.06081 0.02348 0.00722
 N2252 N 0.07293 0.02686 0.01066
 C2253 C 0.12878 0.53730 0.53680
 N2254 N 0.13464 0.54781 0.53116
 N2255 N 0.14594 0.55238 0.53579
 C2256 C 0.15183 0.54663 0.54624
 N2257 N 0.14598 0.53606 0.55181
 N2258 N 0.13467 0.53148 0.54719
 C2259 C 0.11606 0.53259 0.53204
 N2260 N 0.11002 0.52232 0.53794
 N2261 N 0.09826 0.51835 0.53394
 C2262 C 0.09211 0.52451 0.52390
 N2263 N 0.09818 0.53473 0.51794
 N2264 N 0.10994 0.53870 0.52194
 C2265 C 0.07892 0.52047 0.51984
 N2266 N 0.07259 0.52691 0.51009
 N2267 N 0.06044 0.52357 0.50674
 C2268 C 0.05418 0.51365 0.51301
 N2269 N 0.06055 0.50716 0.52271
 N2270 N 0.07270 0.51051 0.52606
 C2271 C 0.62853 0.03844 0.53772
 N2272 N 0.63423 0.04910 0.53220
 N2273 N 0.64542 0.05383 0.53695
 C2274 C 0.65135 0.04811 0.54740
 N2275 N 0.64564 0.03739 0.55284
 N2276 N 0.63446 0.03264 0.54810
 C2277 C 0.61593 0.03354 0.53284
 N2278 N 0.60999 0.02317 0.53867
 N2279 N 0.59833 0.01903 0.53457
 C2280 C 0.59217 0.02511 0.52448
 N2281 N 0.59814 0.03543 0.51859
 N2282 N 0.60980 0.03957 0.52270
 C2283 C 0.57906 0.02091 0.52033
 N2284 N 0.57273 0.02724 0.51051
 N2285 N 0.56063 0.02377 0.50710
 C2286 C 0.55442 0.01384 0.51340
 N2287 N 0.56079 0.00746 0.52316
 N2288 N 0.57289 0.01092 0.52657
 C2289 C 0.62854 0.53821 0.03743
 N2290 N 0.63446 0.53243 0.04782
 N2291 N 0.64566 0.53716 0.05255
 C2292 C 0.65138 0.54787 0.04709
 N2293 N 0.64546 0.55358 0.03663
 N2294 N 0.63426 0.54885 0.03189
 C2295 C 0.61593 0.53332 0.03256
 N2296 N 0.60981 0.53934 0.02241
 N2297 N 0.59814 0.53520 0.01831
 C2298 C 0.59217 0.52489 0.02421
 N2299 N 0.59833 0.51882 0.03431
 N2300 N 0.61000 0.52296 0.03840
 C2301 C 0.57906 0.52068 0.02007
 N2302 N 0.57289 0.51071 0.02633
 N2303 N 0.56078 0.50724 0.02293
 C2304 C 0.55442 0.51361 0.01315
 N2305 N 0.56063 0.52353 0.00684
 N2306 N 0.57273 0.52700 0.01024
 C2307 C 0.03770 0.03697 0.12900
 N2308 N 0.04817 0.03130 0.13487
 N2309 N 0.05277 0.03595 0.14616
 C2310 C 0.04711 0.04648 0.15205
 N2311 N 0.03655 0.05205 0.14615
 N2312 N 0.03195 0.04740 0.13486
 C2313 C 0.03295 0.03217 0.11629
 N2314 N 0.02273 0.03811 0.11023
 N2315 N 0.01872 0.03408 0.09849
 C2316 C 0.02479 0.02395 0.09237
 N2317 N 0.03497 0.01797 0.09847
 N2318 N 0.03897 0.02200 0.11022
 C2319 C 0.02072 0.01986 0.07920
 N2320 N 0.02706 0.01003 0.07290
 N2321 N 0.02369 0.00665 0.06076
 C2322 C 0.01385 0.01299 0.05446
 N2323 N 0.00746 0.02278 0.06079
 N2324 N 0.01083 0.02615 0.07294
 C2325 C 0.03737 0.53714 0.62870
 N2326 N 0.04786 0.53149 0.63457
 N2327 N 0.05245 0.53615 0.64586
 C2328 C 0.04674 0.54665 0.65173
 N2329 N 0.03619 0.55222 0.64586
 N2330 N 0.03159 0.54756 0.63457
 C2331 C 0.03263 0.53234 0.61600
 N2332 N 0.02239 0.53826 0.60994
 N2333 N 0.01839 0.53422 0.59820
 C2334 C 0.02448 0.52412 0.59208
 N2335 N 0.03467 0.51815 0.59817
 N2336 N 0.03867 0.52218 0.60991
 C2337 C 0.02041 0.52003 0.57891
 N2338 N 0.02676 0.51020 0.57260
 N2339 N 0.02339 0.50683 0.56046
 C2340 C 0.01354 0.51315 0.55417
 N2341 N 0.00713 0.52293 0.56051
 N2342 N 0.01051 0.52630 0.57265
 C2343 C 0.53812 0.03747 0.62882
 N2344 N 0.54861 0.03181 0.63467
 N2345 N 0.55328 0.03650 0.64591
 C2346 C 0.54768 0.04707 0.65178
 N2347 N 0.53710 0.05263 0.64591
 N2348 N 0.53243 0.04794 0.63467
 C2349 C 0.53328 0.03262 0.61617
 N2350 N 0.52306 0.03859 0.61013
 N2351 N 0.51896 0.03451 0.59844
 C2352 C 0.52494 0.02431 0.59235
 N2353 N 0.53511 0.01830 0.59842
 N2354 N 0.53921 0.02238 0.61012
 C2355 C 0.52077 0.02019 0.57922
 N2356 N 0.52698 0.01024 0.57295
 N2357 N 0.52353 0.00685 0.56083
 C2358 C 0.51374 0.01327 0.55453
 N2359 N 0.50748 0.02316 0.56083
 N2360 N 0.51093 0.02655 0.57295
 C2361 C 0.53752 0.53700 0.12887
 N2362 N 0.54797 0.53130 0.13477
 N2363 N 0.55257 0.53597 0.14605
 C2364 C 0.54693 0.54651 0.15188
 N2365 N 0.53641 0.55213 0.14598
 N2366 N 0.53180 0.54747 0.13470
 C2367 C 0.53277 0.53220 0.11617
 N2368 N 0.52260 0.53819 0.11007
 N2369 N 0.51859 0.53415 0.09833
 C2370 C 0.52460 0.52398 0.09225
 N2371 N 0.53473 0.51793 0.09838
 N2372 N 0.53874 0.52197 0.11013
 C2373 C 0.52053 0.51989 0.07908
 N2374 N 0.52678 0.50997 0.07282
 N2375 N 0.52341 0.50661 0.06067
 C2376 C 0.51366 0.51305 0.05433
 N2377 N 0.50736 0.52292 0.06062
 N2378 N 0.51073 0.52628 0.07277
 C2379 C 0.21262 0.53697 0.62101
 N2380 N 0.20214 0.53131 0.61514
 N2381 N 0.19758 0.53594 0.60383
 C2382 C 0.20330 0.54642 0.59795
 N2383 N 0.21385 0.55201 0.60383
 N2384 N 0.21842 0.54738 0.61513
 C2385 C 0.21733 0.53221 0.63374
 N2386 N 0.22757 0.53815 0.63980
 N2387 N 0.23154 0.53415 0.65156
 C2388 C 0.22542 0.52407 0.65770
 N2389 N 0.21523 0.51808 0.65161
 N2390 N 0.21126 0.52208 0.63984
 C2391 C 0.22946 0.52002 0.67089
 N2392 N 0.22309 0.51021 0.67722
 N2393 N 0.22645 0.50688 0.68937
 C2394 C 0.23631 0.51322 0.69564
 N2395 N 0.24273 0.52297 0.68929
 N2396 N 0.23937 0.52631 0.67713
 C2397 C 0.21216 0.03679 0.12121
 N2398 N 0.20165 0.03116 0.11536
 N2399 N 0.19700 0.03587 0.10412
 C2400 C 0.20264 0.04642 0.09826
 N2401 N 0.21324 0.05195 0.10413
 N2402 N 0.21790 0.04725 0.11537
 C2403 C 0.21697 0.03195 0.13387
 N2404 N 0.22721 0.03790 0.13991
 N2405 N 0.23128 0.03383 0.15162
 C2406 C 0.22526 0.02367 0.15771
 N2407 N 0.21507 0.01767 0.15164
 N2408 N 0.21100 0.02173 0.13993
 C2409 C 0.22940 0.01957 0.17086
 N2410 N 0.22316 0.00965 0.17715
 N2411 N 0.22659 0.00629 0.18928
 C2412 C 0.23638 0.01272 0.19557
 N2413 N 0.24267 0.02259 0.18925
 N2414 N 0.23924 0.02594 0.17712
 C2415 C 0.71136 0.21134 0.62735
 N2416 N 0.70089 0.21700 0.63323
 N2417 N 0.69635 0.21238 0.64455
 C2418 C 0.70209 0.20191 0.65044
 N2419 N 0.71261 0.19632 0.64455
 N2420 N 0.71716 0.20093 0.63323
 C2421 C 0.71612 0.21616 0.61467
 N2422 N 0.72641 0.21029 0.60866
 N2423 N 0.73050 0.21442 0.59698
 C2424 C 0.72446 0.22458 0.59089
 N2425 N 0.71421 0.23049 0.59693
 N2426 N 0.71012 0.22635 0.60861
 C2427 C 0.72873 0.22886 0.57785
 N2428 N 0.72251 0.23881 0.57161
 N2429 N 0.72617 0.24246 0.55963
 C2430 C 0.73619 0.23629 0.55346
 N2431 N 0.74244 0.22638 0.55973
 N2432 N 0.73878 0.22273 0.57170
 C2433 C 0.71110 0.71129 0.12666
 N2434 N 0.71686 0.70086 0.13253
 N2435 N 0.71237 0.69632 0.14390
 C2436 C 0.70194 0.70202 0.14986
 N2437 N 0.69624 0.71251 0.14398
 N2438 N 0.70073 0.71706 0.13261
 C2439 C 0.71581 0.71605 0.11394
 N2440 N 0.70988 0.72631 0.10792
 N2441 N 0.71395 0.73040 0.09622
 C2442 C 0.72409 0.72437 0.09011
 N2443 N 0.73004 0.71414 0.09615
 N2444 N 0.72598 0.71005 0.10785
 C2445 C 0.72836 0.72865 0.07706
 N2446 N 0.73829 0.72240 0.07084
 N2447 N 0.74197 0.72608 0.05888
 C2448 C 0.73587 0.73615 0.05271
 N2449 N 0.72597 0.74243 0.05895
 N2450 N 0.72228 0.73874 0.07091
 C2451 C 0.53847 0.71269 0.12162
 N2452 N 0.54906 0.71826 0.11587
 N2453 N 0.55377 0.71354 0.10466
 C2454 C 0.54808 0.70305 0.09876
 N2455 N 0.53742 0.69755 0.10451
 N2456 N 0.53271 0.70227 0.11571
 C2457 C 0.53360 0.71755 0.13424
 N2458 N 0.52329 0.71167 0.14020
 N2459 N 0.51917 0.71576 0.15188
 C2460 C 0.52523 0.72588 0.15803
 N2461 N 0.53549 0.73181 0.15203
 N2462 N 0.53961 0.72772 0.14035
 C2463 C 0.52105 0.73002 0.17115
 N2464 N 0.52736 0.73987 0.17747
 N2465 N 0.52391 0.74327 0.18958
 C2466 C 0.51402 0.73695 0.19581
 N2467 N 0.50765 0.72715 0.18945
 N2468 N 0.51110 0.72375 0.17734
 C2469 C 0.03746 0.71317 0.62110
 N2470 N 0.04794 0.71881 0.61522
 N2471 N 0.05249 0.71415 0.60393
 C2472 C 0.04675 0.70367 0.59806
 N2473 N 0.03620 0.69810 0.60394
 N2474 N 0.03164 0.70276 0.61524
 C2475 C 0.03275 0.71797 0.63382
 N2476 N 0.02251 0.71207 0.63987
 N2477 N 0.01854 0.71611 0.65162
 C2478 C 0.02467 0.72619 0.65774
 N2479 N 0.03487 0.73215 0.65165
 N2480 N 0.03884 0.72811 0.63990
 C2481 C 0.02063 0.73029 0.67092
 N2482 N 0.02702 0.74009 0.67724
 N2483 N 0.02366 0.74347 0.68938
 C2484 C 0.01379 0.73715 0.69565
 N2485 N 0.00735 0.72740 0.68930
 N2486 N 0.01071 0.72403 0.67716
 C2487 C 0.53732 0.62127 0.21279
 N2488 N 0.54780 0.61544 0.21851
 N2489 N 0.55244 0.60416 0.21390
 C2490 C 0.54681 0.59825 0.20338
 N2491 N 0.53627 0.60408 0.19774
 N2492 N 0.53162 0.61536 0.20234
 C2493 C 0.53253 0.63397 0.21755
 N2494 N 0.52231 0.64000 0.21158
 N2495 N 0.51828 0.65175 0.21560
 C2496 C 0.52433 0.65788 0.22572
 N2497 N 0.53450 0.65181 0.23174
 N2498 N 0.53853 0.64007 0.22772
 C2499 C 0.52025 0.67106 0.22980
 N2500 N 0.52663 0.67737 0.23961
 N2501 N 0.52328 0.68952 0.24298
 C2502 C 0.51342 0.69581 0.23667
 N2503 N 0.50698 0.68946 0.22691
 N2504 N 0.51033 0.67731 0.22354
 C2505 C 0.03703 0.62139 0.71264
 N2506 N 0.03134 0.61549 0.70217
 N2507 N 0.03600 0.60421 0.69757
 C2508 C 0.04652 0.59837 0.70324
 N2509 N 0.05213 0.60427 0.71377
 N2510 N 0.04748 0.61555 0.71838
 C2511 C 0.03224 0.63409 0.71739
 N2512 N 0.03822 0.64018 0.72758
 N2513 N 0.03420 0.65193 0.73159
 C2514 C 0.02405 0.65801 0.72555
 N2515 N 0.01802 0.65189 0.71540
 N2516 N 0.02204 0.64014 0.71139
 C2517 C 0.01998 0.67120 0.72962
 N2518 N 0.01009 0.67747 0.72334
 N2519 N 0.00676 0.68963 0.72671
 C2520 C 0.01319 0.69595 0.73649
 N2521 N 0.02303 0.68964 0.74281
 N2522 N 0.02636 0.67749 0.73945
 C2523 C 0.03747 0.12865 0.03760
 N2524 N 0.03181 0.13453 0.04807
 N2525 N 0.03650 0.14579 0.05271
 C2526 C 0.04706 0.15164 0.04709
 N2527 N 0.05263 0.14574 0.03653
 N2528 N 0.04794 0.13448 0.03189
 C2529 C 0.03265 0.11596 0.03282
 N2530 N 0.03861 0.10988 0.02262
 N2531 N 0.03456 0.09815 0.01859
 C2532 C 0.02438 0.09207 0.02460
 N2533 N 0.01836 0.09819 0.03474
 N2534 N 0.02242 0.10993 0.03878
 C2535 C 0.02028 0.07890 0.02050
 N2536 N 0.01036 0.07264 0.02675
 N2537 N 0.00700 0.06049 0.02337
 C2538 C 0.01343 0.05416 0.01361
 N2539 N 0.02329 0.06046 0.00731
 N2540 N 0.02665 0.07260 0.01069
 C2541 C 0.03689 0.62891 0.53714
 N2542 N 0.03121 0.63481 0.54761
 N2543 N 0.03588 0.64610 0.55220
 C2544 C 0.04639 0.65195 0.54653
 N2545 N 0.05199 0.64605 0.53600
 N2546 N 0.04733 0.63476 0.53140
 C2547 C 0.03210 0.61620 0.53240
 N2548 N 0.03807 0.61011 0.52221
 N2549 N 0.03405 0.59836 0.51821
 C2550 C 0.02390 0.59227 0.52424
 N2551 N 0.01787 0.59839 0.53437
 N2552 N 0.02189 0.61015 0.53838
 C2553 C 0.01983 0.57908 0.52016
 N2554 N 0.00993 0.57281 0.52643
 N2555 N 0.00659 0.56065 0.52306
 C2556 C 0.01302 0.55432 0.51330
 N2557 N 0.02287 0.56062 0.50699
 N2558 N 0.02621 0.57278 0.51036
 C2559 C 0.53784 0.12876 0.53790
 N2560 N 0.53222 0.13466 0.54839
 N2561 N 0.53699 0.14588 0.55304
 C2562 C 0.54756 0.15165 0.54740
 N2563 N 0.55311 0.14575 0.53685
 N2564 N 0.54835 0.13453 0.53219
 C2565 C 0.53294 0.11611 0.53311
 N2566 N 0.53879 0.11004 0.52284
 N2567 N 0.53466 0.09834 0.51881
 C2568 C 0.52453 0.09227 0.52490
 N2569 N 0.51863 0.09837 0.53513
 N2570 N 0.52275 0.11008 0.53916
 C2571 C 0.52035 0.07913 0.52081
 N2572 N 0.51057 0.07283 0.52724
 N2573 N 0.50714 0.06070 0.52386
 C2574 C 0.51336 0.05443 0.51393
 N2575 N 0.52308 0.06076 0.50746
 N2576 N 0.52651 0.07289 0.51084
 C2577 C 0.53819 0.62840 0.03780
 N2578 N 0.53257 0.63431 0.04828
 N2579 N 0.53733 0.64553 0.05293
 C2580 C 0.54792 0.65129 0.04730
 N2581 N 0.55348 0.64538 0.03676
 N2582 N 0.54871 0.63416 0.03210
 C2583 C 0.53326 0.61577 0.03299
 N2584 N 0.53910 0.60969 0.02271
 N2585 N 0.53493 0.59801 0.01866
 C2586 C 0.52477 0.59197 0.02473
 N2587 N 0.51888 0.59808 0.03496
 N2588 N 0.52305 0.60977 0.03901
 C2589 C 0.52054 0.57885 0.02062
 N2590 N 0.51073 0.57258 0.02703
 N2591 N 0.50725 0.56047 0.02363
 C2592 C 0.51344 0.55419 0.01369
 N2593 N 0.52320 0.56049 0.00723
 N2594 N 0.52668 0.57260 0.01063
 C2595 C 0.71107 0.12329 0.53960
 N2596 N 0.70064 0.11742 0.53384
 N2597 N 0.69610 0.10605 0.53834
 C2598 C 0.70178 0.10005 0.54879
 N2599 N 0.71229 0.10595 0.55447
 N2600 N 0.71684 0.11733 0.54997
 C2601 C 0.71583 0.13602 0.53489
 N2602 N 0.72609 0.14203 0.54082
 N2603 N 0.73019 0.15373 0.53676
 C2604 C 0.72417 0.15985 0.52661
 N2605 N 0.71394 0.15382 0.52064
 N2606 N 0.70984 0.14212 0.52471
 C2607 C 0.72847 0.17290 0.52234
 N2608 N 0.72225 0.17913 0.51238
 N2609 N 0.72594 0.19109 0.50869
 C2610 C 0.73600 0.19725 0.51482
 N2611 N 0.74225 0.19100 0.52475
 N2612 N 0.73855 0.17904 0.52844
 C2613 C 0.71158 0.62338 0.03891
 N2614 N 0.70117 0.61750 0.03312
 N2615 N 0.69660 0.60614 0.03763
 C2616 C 0.70227 0.60019 0.04810
 N2617 N 0.71274 0.60608 0.05383
 N2618 N 0.71730 0.61744 0.04933
 C2619 C 0.71636 0.63610 0.03419
 N2620 N 0.72658 0.64213 0.04018
 N2621 N 0.73069 0.65383 0.03612
 C2622 C 0.72472 0.65993 0.02592
 N2623 N 0.71453 0.65388 0.01990
 N2624 N 0.71043 0.64217 0.02396
 C2625 C 0.72901 0.67299 0.02168
 N2626 N 0.72285 0.67921 0.01168
 N2627 N 0.72652 0.69119 0.00804
 C2628 C 0.73649 0.69739 0.01426
 N2629 N 0.74268 0.69116 0.02423
 N2630 N 0.73901 0.67918 0.02788
 C2631 C 0.21311 0.62905 0.71274
 N2632 N 0.21879 0.63495 0.70229
 N2633 N 0.21415 0.64624 0.69769
 C2634 C 0.20363 0.65208 0.70336
 N2635 N 0.19801 0.64618 0.71388
 N2636 N 0.20265 0.63489 0.71847
 C2637 C 0.21788 0.61634 0.71748
 N2638 N 0.21190 0.61024 0.72766
 N2639 N 0.21591 0.59849 0.73165
 C2640 C 0.22606 0.59240 0.72562
 N2641 N 0.23210 0.59853 0.71549
 N2642 N 0.22808 0.61029 0.71149
 C2643 C 0.23012 0.57922 0.72968
 N2644 N 0.24000 0.57295 0.72340
 N2645 N 0.24334 0.56079 0.72676
 C2646 C 0.23691 0.55445 0.73652
 N2647 N 0.22707 0.56075 0.74284
 N2648 N 0.22374 0.57291 0.73949
 C2649 C 0.21265 0.12850 0.21242
 N2650 N 0.20222 0.13434 0.21819
 N2651 N 0.19757 0.14562 0.21360
 C2652 C 0.20313 0.15155 0.20305
 N2653 N 0.21365 0.14569 0.19738
 N2654 N 0.21831 0.13440 0.20196
 C2655 C 0.21745 0.11579 0.21714
 N2656 N 0.22758 0.10972 0.21107
 N2657 N 0.23162 0.09797 0.21505
 C2658 C 0.22568 0.09186 0.22525
 N2659 N 0.21560 0.09797 0.23137
 N2660 N 0.21156 0.10972 0.22739
 C2661 C 0.22979 0.07869 0.22930
 N2662 N 0.22360 0.07244 0.23926
 N2663 N 0.22700 0.06030 0.24263
 C2664 C 0.23672 0.05396 0.23615
 N2665 N 0.24295 0.06024 0.22623
 N2666 N 0.23955 0.07238 0.22287
 C2667 C 0.71241 1.12841 0.71183
 N2668 N 0.70201 1.13427 0.71761
 N2669 N 0.69723 1.14545 0.71288
 C2670 C 0.70263 1.15124 0.70218
 N2671 N 0.71313 1.14535 0.69649
 N2672 N 0.71792 1.13417 0.70121
 C2673 C 0.71736 1.11582 0.71671
 N2674 N 0.72751 1.10975 0.71067
 N2675 N 0.73168 1.09810 0.71480
 C2676 C 0.72585 1.09208 0.72512
 N2677 N 0.71575 1.09819 0.73121
 N2678 N 0.71158 1.10984 0.72708
 C2679 C 0.73008 1.07899 0.72931
 N2680 N 0.72395 1.07279 0.73934
 N2681 N 0.72743 1.06070 0.74280
 C2682 C 0.73718 1.05437 0.73636
 N2683 N 0.74337 1.06061 0.72639
 N2684 N 0.73988 1.07270 0.72293
 C2685 C 0.71272 0.62830 0.21179
 N2686 N 0.70235 0.63421 0.21760
 N2687 N 0.69760 0.64541 0.21289
 C2688 C 0.70302 0.65114 0.20217
 N2689 N 0.71346 0.64523 0.19644
 N2690 N 0.71821 0.63403 0.20115
 C2691 C 0.71761 0.61569 0.21666
 N2692 N 0.72772 0.60957 0.21059
 N2693 N 0.73183 0.59789 0.21470
 C2694 C 0.72600 0.59191 0.22503
 N2695 N 0.71594 0.59806 0.23115
 N2696 N 0.71183 0.60974 0.22704
 C2697 C 0.73016 0.57879 0.22920
 N2698 N 0.72401 0.57261 0.23923
 N2699 N 0.72743 0.56050 0.24267
 C2700 C 0.73713 0.55412 0.23621
 N2701 N 0.74334 0.56034 0.22623
 N2702 N 0.73992 0.57245 0.22279
 C2703 C 0.53765 0.12135 0.71239
 N2704 N 0.54806 0.11546 0.71816
 N2705 N 0.55273 0.10421 0.71350
 C2706 C 0.54720 0.09839 0.70288
 N2707 N 0.53672 0.10428 0.69718
 N2708 N 0.53204 0.11553 0.70183
 C2709 C 0.53283 0.13401 0.71720
 N2710 N 0.52269 0.14012 0.71115
 N2711 N 0.51862 0.15183 0.71522
 C2712 C 0.52453 0.15786 0.72549
 N2713 N 0.53462 0.15172 0.73159
 N2714 N 0.53869 0.14001 0.72752
 C2715 C 0.52040 0.17100 0.72963
 N2716 N 0.52658 0.17720 0.73964
 N2717 N 0.52317 0.18931 0.74307
 C2718 C 0.51345 0.19568 0.73662
 N2719 N 0.50721 0.18944 0.72666
 N2720 N 0.51062 0.17733 0.72323
 C2721 C 1.03696 0.12067 0.21273
 N2722 N 1.04742 0.11482 0.21846
 N2723 N 1.05208 0.10356 0.21382
 C2724 C 1.04648 0.09769 0.20326
 N2725 N 1.03596 0.10354 0.19761
 N2726 N 1.03129 0.11480 0.20224
 C2727 C 1.03217 0.13335 0.21752
 N2728 N 1.02196 0.13941 0.21155
 N2729 N 1.01793 0.15115 0.21559
 C2730 C 1.02397 0.15725 0.22575
 N2731 N 1.03413 0.15115 0.23176
 N2732 N 1.03815 0.13942 0.22773
 C2733 C 1.01991 0.17043 0.22984
 N2734 N 1.02630 0.17671 0.23966
 N2735 N 1.02297 0.18887 0.24304
 C2736 C 1.01312 0.19518 0.23673
 N2737 N 1.00668 0.18886 0.22696
 N2738 N 1.01001 0.17670 0.22358
 C2739 C 0.21296 0.62123 0.53714
 N2740 N 0.20257 0.61533 0.53132
 N2741 N 0.19795 0.60402 0.53590
 C2742 C 0.20351 0.59815 0.54647
 N2743 N 0.21397 0.60405 0.55221
 N2744 N 0.21860 0.61536 0.54764
 C2745 C 0.21772 0.63396 0.53243
 N2746 N 0.22782 0.64008 0.53853
 N2747 N 0.23183 0.65184 0.53457
 C2748 C 0.22589 0.65792 0.52435
 N2749 N 0.21584 0.65177 0.51819
 N2750 N 0.21183 0.64000 0.52216
 C2751 C 0.22996 0.67112 0.52031
 N2752 N 0.22375 0.67735 0.51035
 N2753 N 0.22711 0.68951 0.50701
 C2754 C 0.23680 0.69588 0.51350
 N2755 N 0.24306 0.68961 0.52342
 N2756 N 0.23970 0.67745 0.52676
 C2757 C 0.21280 0.12085 1.03788
 N2758 N 0.20236 0.11500 1.03211
 N2759 N 0.19767 0.10374 1.03673
 C2760 C 0.20322 0.09787 1.04731
 N2761 N 0.21372 0.10372 1.05301
 N2762 N 0.21842 0.11498 1.04839
 C2763 C 0.21764 0.13353 1.03311
 N2764 N 0.22780 0.13960 1.03915
 N2765 N 0.23188 0.15133 1.03512
 C2766 C 0.22594 0.15740 1.02489
 N2767 N 0.21583 0.15129 1.01880
 N2768 N 0.21175 0.13957 1.02284
 C2769 C 0.23006 0.17056 1.02079
 N2770 N 0.22382 0.17679 1.01085
 N2771 N 0.22721 0.18892 1.00745
 C2772 C 0.23698 0.19527 1.01386
 N2773 N 0.24328 0.18900 1.02374
 N2774 N 0.23989 0.17687 1.02715
 C2775 C 0.21275 0.71326 0.62880
 N2776 N 0.20231 0.71895 0.63470
 N2777 N 0.19773 0.71431 0.64599
 C2778 C 0.20340 0.70379 0.65184
 N2779 N 0.21391 0.69816 0.64595
 N2780 N 0.21849 0.70280 0.63465
 C2781 C 0.21748 0.71803 0.61609
 N2782 N 0.22764 0.71203 0.61000
 N2783 N 0.23162 0.71604 0.59824
 C2784 C 0.22559 0.72620 0.59215
 N2785 N 0.21548 0.73225 0.59828
 N2786 N 0.21149 0.72824 0.61003
 C2787 C 0.22964 0.73025 0.57897
 N2788 N 0.22338 0.74016 0.57270
 N2789 N 0.22674 0.74351 0.56055
 C2790 C 0.23648 0.73706 0.55421
 N2791 N 0.24279 0.72720 0.56051
 N2792 N 0.23943 0.72386 0.57267
 C2793 C 0.21267 0.21242 1.12899
 N2794 N 0.20217 0.21805 1.13485
 N2795 N 0.19758 0.21338 1.14612
 C2796 C 0.20330 0.20290 1.15200
 N2797 N 0.21387 0.19735 1.14615
 N2798 N 0.21847 0.20201 1.13487
 C2799 C 0.21741 0.21723 1.11630
 N2800 N 0.22768 0.21135 1.11027
 N2801 N 0.23168 0.21540 1.09853
 C2802 C 0.22554 0.22546 1.09239
 N2803 N 0.21532 0.23139 1.09845
 N2804 N 0.21133 0.22735 1.11019
 C2805 C 0.22961 0.22956 1.07922
 N2806 N 0.22318 0.23932 1.07288
 N2807 N 0.22654 0.24270 1.06074
 C2808 C 0.23646 0.23645 1.05450
 N2809 N 0.24294 0.22674 1.06087
 N2810 N 0.23957 0.22336 1.07301
 C2811 C 0.71251 0.53779 0.12153
 N2812 N 0.71812 0.54840 0.11584
 N2813 N 0.71342 0.55320 0.10466
 C2814 C 0.70292 0.54759 0.09872
 N2815 N 0.69737 0.53691 0.10441
 N2816 N 0.70207 0.53210 0.11559
 C2817 C 0.71735 0.53282 0.13412
 N2818 N 0.71145 0.52250 0.14006
 N2819 N 0.71553 0.51832 0.15172
 C2820 C 0.72567 0.52432 0.15788
 N2821 N 0.73163 0.53459 0.15191
 N2822 N 0.72755 0.53877 0.14024
 C2823 C 0.72982 0.52010 0.17099
 N2824 N 0.73965 0.52643 0.17730
 N2825 N 0.74306 0.52298 0.18941
 C2826 C 0.73677 0.51306 0.19565
 N2827 N 0.72699 0.50667 0.18930
 N2828 N 0.72358 0.51013 0.17719
 C2829 C 0.71265 1.03799 0.62170
 N2830 N 0.70222 1.03229 0.61577
 N2831 N 0.69749 1.03711 0.60461
 C2832 C 0.70299 1.04782 0.59893
 N2833 N 0.71348 1.05345 0.60486
 N2834 N 0.71822 1.04864 0.61602
 C2835 C 0.71753 1.03303 0.63428
 N2836 N 0.72771 1.03901 0.64040
 N2837 N 0.73182 1.03484 0.65205
 C2838 C 0.72590 1.02454 0.65802
 N2839 N 0.71578 1.01851 0.65187
 N2840 N 0.71167 1.02268 0.64021
 C2841 C 0.73006 1.02033 0.67113
 N2842 N 0.72386 1.01033 0.67732
 N2843 N 0.72728 1.00689 0.68944
 C2844 C 0.73702 1.01332 0.69579
 N2845 N 0.74328 1.02326 0.68956
 N2846 N 0.73986 1.02670 0.67745
 C2847 C 0.53822 0.21295 0.62177
 N2848 N 0.53246 0.20254 0.61585
 N2849 N 0.53717 0.19784 0.60464
 C2850 C 0.54783 0.20335 0.59890
 N2851 N 0.55351 0.21384 0.60481
 N2852 N 0.54880 0.21854 0.61603
 C2853 C 0.53335 0.21778 0.63441
 N2854 N 0.53931 0.22797 0.64052
 N2855 N 0.53520 0.23202 0.65222
 C2856 C 0.52497 0.22602 0.65823
 N2857 N 0.51896 0.21588 0.65207
 N2858 N 0.52307 0.21184 0.64038
 C2859 C 0.52080 0.23010 0.67137
 N2860 N 0.51095 0.22371 0.67759
 N2861 N 0.50752 0.22705 0.68972
 C2862 C 0.51380 0.23691 0.69607
 N2863 N 0.52359 0.24335 0.68981
 N2864 N 0.52703 0.24001 0.67768
 C2865 C 1.03763 0.21229 0.12137
 N2866 N 1.04811 0.21796 0.11551
 N2867 N 1.05270 0.21331 0.10422
 C2868 C 1.04701 0.20280 0.09835
 N2869 N 1.03646 0.19721 0.10421
 N2870 N 1.03186 0.20186 0.11549
 C2871 C 1.03288 0.21709 0.13407
 N2872 N 1.02264 0.21116 0.14011
 N2873 N 1.01864 0.21519 0.15185
 C2874 C 1.02472 0.22531 0.15797
 N2875 N 1.03491 0.23129 0.15189
 N2876 N 1.03892 0.22726 0.14015
 C2877 C 1.02064 0.22941 0.17113
 N2878 N 1.02699 0.23925 0.17744
 N2879 N 1.02361 0.24263 0.18957
 C2880 C 1.01375 0.23631 0.19585
 N2881 N 1.00735 0.22652 0.18951
 N2882 N 1.01073 0.22314 0.17737
 C2883 C 0.62850 0.21184 0.71254
 N2884 N 0.63426 0.21754 0.70202
 N2885 N 0.64544 0.21284 0.69724
 C2886 C 0.65129 0.20225 0.70278
 N2887 N 0.64553 0.19662 0.71337
 N2888 N 0.63435 0.20132 0.71815
 C2889 C 0.61591 0.21670 0.71748
 N2890 N 0.60990 0.21072 0.72771
 N2891 N 0.59825 0.21483 0.73188
 C2892 C 0.59219 0.22508 0.72596
 N2893 N 0.59824 0.23111 0.71578
 N2894 N 0.60989 0.22700 0.71162
 C2895 C 0.57911 0.22925 0.73017
 N2896 N 0.57289 0.23921 0.72394
 N2897 N 0.56080 0.24266 0.72739
 C2898 C 0.55450 0.23629 0.73720
 N2899 N 0.56075 0.22638 0.74349
 N2900 N 0.57283 0.22293 0.74003
 C2901 C 1.12883 0.21195 0.21314
 N2902 N 1.13473 0.21779 0.20277
 N2903 N 1.14601 0.21320 0.19813
 C2904 C 1.15184 0.20259 0.20366
 N2905 N 1.14594 0.19683 0.21410
 N2906 N 1.13466 0.20142 0.21875
 C2907 C 1.11613 0.21669 0.21792
 N2908 N 1.11001 0.21057 0.22801
 N2909 N 1.09827 0.21456 0.23203
 C2910 C 1.09223 0.22482 0.22611
 N2911 N 1.09839 0.23098 0.21607
 N2912 N 1.11013 0.22699 0.21205
 C2913 C 1.07907 0.22889 0.23018
 N2914 N 1.07288 0.23888 0.22398
 N2915 N 1.06075 0.24225 0.22734
 C2916 C 1.05437 0.23577 0.23703
 N2917 N 1.06059 0.22582 0.24328
 N2918 N 1.07272 0.22245 0.23992
 C2919 C 0.12116 0.71275 0.53683
 N2920 N 0.11528 0.70225 0.53119
 N2921 N 0.10400 0.69768 0.53584
 C2922 C 0.09814 0.70340 0.54632
 N2923 N 0.10401 0.71397 0.55189
 N2924 N 0.11530 0.71855 0.54724
 C2925 C 0.13386 0.71748 0.53205
 N2926 N 0.13991 0.72773 0.53797
 N2927 N 0.15165 0.73173 0.53396
 C2928 C 0.15777 0.72561 0.52387
 N2929 N 0.15169 0.71541 0.51790
 N2930 N 0.13994 0.71141 0.52192
 C2931 C 0.17094 0.72968 0.51980
 N2932 N 0.17725 0.72331 0.50999
 N2933 N 0.18939 0.72669 0.50664
 C2934 C 0.19566 0.73656 0.51298
 N2935 N 0.18932 0.74297 0.52274
 N2936 N 0.17718 0.73960 0.52609
 C2937 C 0.12144 0.21208 1.03718
 N2938 N 0.11556 0.20161 1.03148
 N2939 N 0.10429 0.19700 1.03614
 C2940 C 0.09845 0.20266 1.04667
 N2941 N 0.10434 0.21319 1.05229
 N2942 N 0.11561 0.21781 1.04764
 C2943 C 0.13413 0.21686 1.03239
 N2944 N 0.14020 0.22706 1.03838
 N2945 N 0.15193 0.23109 1.03435
 C2946 C 0.15801 0.22507 1.02418
 N2947 N 0.15190 0.21492 1.01814
 N2948 N 0.14017 0.21089 1.02217
 C2949 C 0.17116 0.22917 1.02011
 N2950 N 0.17742 0.22292 1.01019
 N2951 N 0.18956 0.22631 1.00685
 C2952 C 0.19588 0.23608 1.01329
 N2953 N 0.18958 0.24239 1.02315
 N2954 N 0.17745 0.23899 1.02650
 C2955 C 0.62152 0.53740 0.21295
 N2956 N 0.61568 0.54790 0.21861
 N2957 N 0.60439 0.55249 0.21397
 C2958 C 0.59850 0.54678 0.20350
 N2959 N 0.60434 0.53621 0.19791
 N2960 N 0.61563 0.53162 0.20253
 C2961 C 0.63422 0.53266 0.21771
 N2962 N 0.64025 0.52241 0.21178
 N2963 N 0.65199 0.51840 0.21579
 C2964 C 0.65813 0.52449 0.22589
 N2965 N 0.65207 0.53470 0.23188
 N2966 N 0.64033 0.53871 0.22786
 C2967 C 0.67129 0.52041 0.22996
 N2968 N 0.67761 0.52676 0.23978
 N2969 N 0.68975 0.52337 0.24314
 C2970 C 0.69600 0.51350 0.23680
 N2971 N 0.68964 0.50710 0.22703
 N2972 N 0.67751 0.51049 0.22367
 C2973 C 0.62187 1.03756 0.71253
 N2974 N 0.61605 1.03182 0.70206
 N2975 N 0.60479 1.03642 0.69737
 C2976 C 0.59890 1.04696 0.70297
 N2977 N 0.60472 1.05263 0.71351
 N2978 N 0.61598 1.04803 0.71820
 C2979 C 0.63454 1.03281 0.71738
 N2980 N 0.64057 1.03883 0.72759
 N2981 N 0.65228 1.03482 0.73168
 C2982 C 0.65839 1.02463 0.72571
 N2983 N 0.65233 1.01857 0.71555
 N2984 N 0.64062 1.02258 0.71146
 C2985 C 0.67153 1.02055 0.72986
 N2986 N 0.67780 1.01065 0.72360
 N2987 N 0.68991 1.00727 0.72702
 C2988 C 0.69621 1.01366 0.73683
 N2989 N 0.68991 1.02351 0.74315
 N2990 N 0.67779 1.02690 0.73973
 C2991 C 0.87599 0.45953 0.29042
 N2992 N 0.88178 0.44900 0.28477
 N2993 N 0.89294 0.44424 0.28952
 C2994 C 0.89877 0.44982 0.30011
 N2995 N 0.89297 0.46041 0.30570
 N2996 N 0.88180 0.46518 0.30095
 C2997 C 0.86347 0.46453 0.28543
 N2998 N 0.85753 0.47489 0.29126
 N2999 N 0.84600 0.47919 0.28696
 C3000 C 0.83998 0.47328 0.27668
 N3001 N 0.84595 0.46295 0.27082
 N3002 N 0.85748 0.45865 0.27512
 C3003 C 0.82709 0.47776 0.27219
 N3004 N 0.82092 0.47161 0.26215
 N3005 N 0.80907 0.47542 0.25832
 C3006 C 0.80294 0.48554 0.26438
 N3007 N 0.80913 0.49173 0.27439
 N3008 N 0.82099 0.48791 0.27823
 C3009 C 0.87603 0.95959 0.79087
 N3010 N 0.88180 0.94906 0.78521
 N3011 N 0.89293 0.94424 0.78997
 C3012 C 0.89875 0.94976 0.80059
 N3013 N 0.89297 0.96036 0.80620
 N3014 N 0.88183 0.96518 0.80144
 C3015 C 0.86354 0.96465 0.78586
 N3016 N 0.85761 0.97501 0.79170
 N3017 N 0.84611 0.97937 0.78737
 C3018 C 0.84012 0.97352 0.77704
 N3019 N 0.84608 0.96319 0.77117
 N3020 N 0.85758 0.95884 0.77550
 C3021 C 0.82726 0.97805 0.77252
 N3022 N 0.82112 0.97194 0.76243
 N3023 N 0.80929 0.97579 0.75856
 C3024 C 0.80315 0.98590 0.76463
 N3025 N 0.80931 0.99205 0.77468
 N3026 N 0.82115 0.98819 0.77856
 C3027 C 0.37455 0.29030 0.79079
 N3028 N 0.36871 0.28466 0.80130
 N3029 N 0.35754 0.28943 0.80602
 C3030 C 0.35175 0.30003 0.80042
 N3031 N 0.35760 0.30561 0.78985
 N3032 N 0.36877 0.30084 0.78513
 C3033 C 0.38706 0.28529 0.78582
 N3034 N 0.39305 0.29115 0.77550
 N3035 N 0.40458 0.28683 0.77121
 C3036 C 0.41053 0.27650 0.77707
 N3037 N 0.40452 0.27060 0.78735
 N3038 N 0.39299 0.27492 0.79165
 C3039 C 0.42342 0.27200 0.77259
 N3040 N 0.42951 0.26184 0.77861
 N3041 N 0.44136 0.25800 0.77477
 C3042 C 0.44755 0.26418 0.76476
 N3043 N 0.44142 0.27431 0.75870
 N3044 N 0.42958 0.27814 0.76254
 C3045 C 0.87402 0.28916 0.28982
 N3046 N 0.86809 0.28350 0.30027
 N3047 N 0.85686 0.28825 0.30488
 C3048 C 0.85111 0.29884 0.29923
 N3049 N 0.85706 0.30444 0.28873
 N3050 N 0.86829 0.29970 0.28412
 C3051 C 0.88660 0.28419 0.28498
 N3052 N 0.89266 0.29004 0.27470
 N3053 N 0.90425 0.28576 0.27053
 C3054 C 0.91020 0.27548 0.27650
 N3055 N 0.90412 0.26959 0.28675
 N3056 N 0.89253 0.27387 0.29091
 C3057 C 0.92315 0.27103 0.27215
 N3058 N 0.92928 0.26097 0.27832
 N3059 N 0.94118 0.25719 0.27461
 C3060 C 0.94740 0.26332 0.26458
 N3061 N 0.94124 0.27334 0.25838
 N3062 N 0.92934 0.27712 0.26209
 C3063 C 0.37561 0.79079 0.45954
 N3064 N 0.38137 0.80134 0.46520
 N3065 N 0.39252 0.80614 0.46046
 C3066 C 0.39836 0.80060 0.44988
 N3067 N 0.39259 0.78999 0.44428
 N3068 N 0.38144 0.78518 0.44901
 C3069 C 0.36311 0.78574 0.46452
 N3070 N 0.35719 0.77536 0.45868
 N3071 N 0.34567 0.77102 0.46297
 C3072 C 0.33965 0.77689 0.47326
 N3073 N 0.34560 0.78723 0.47914
 N3074 N 0.35712 0.79158 0.47485
 C3075 C 0.32677 0.77237 0.47774
 N3076 N 0.32061 0.77849 0.48780
 N3077 N 0.30876 0.77464 0.49163
 C3078 C 0.30264 0.76452 0.48555
 N3079 N 0.30883 0.75836 0.47553
 N3080 N 0.32068 0.76222 0.47170
 C3081 C 0.37595 0.28994 0.96015
 N3082 N 0.38171 0.30049 0.96582
 N3083 N 0.39283 0.30535 0.96105
 C3084 C 0.39864 0.29985 0.95042
 N3085 N 0.39287 0.28925 0.94480
 N3086 N 0.38175 0.28439 0.94957
 C3087 C 0.36348 0.28485 0.96515
 N3088 N 0.35753 0.27452 0.95925
 N3089 N 0.34603 0.27014 0.96355
 C3090 C 0.34006 0.27593 0.97392
 N3091 N 0.34603 0.28622 0.97985
 N3092 N 0.35753 0.29060 0.97555
 C3093 C 0.32717 0.27140 0.97839
 N3094 N 0.32106 0.27743 0.98853
 N3095 N 0.30919 0.27361 0.99233
 C3096 C 0.30299 0.26361 0.98612
 N3097 N 0.30913 0.25753 0.97602
 N3098 N 0.32100 0.26136 0.97222
 C3099 C 0.78965 0.46072 0.37650
 N3100 N 0.80016 0.46645 0.38226
 N3101 N 0.80488 0.46184 0.39351
 C3102 C 0.79929 0.45133 0.39946
 N3103 N 0.78872 0.44567 0.39369
 N3104 N 0.78399 0.45026 0.38244
 C3105 C 0.78470 0.46553 0.36388
 N3106 N 0.77444 0.45956 0.35791
 N3107 N 0.77020 0.46369 0.34629
 C3108 C 0.77608 0.47396 0.34021
 N3109 N 0.78630 0.47997 0.34621
 N3110 N 0.79054 0.47583 0.35783
 C3111 C 0.77169 0.47827 0.32721
 N3112 N 0.77778 0.48835 0.32104
 N3113 N 0.77406 0.49203 0.30910
 C3114 C 0.76412 0.48577 0.30287
 N3115 N 0.75799 0.47572 0.30907
 N3116 N 0.76171 0.47204 0.32102
 C3117 C 0.79021 0.96049 0.87637
 N3118 N 0.80075 0.96617 0.88212
 N3119 N 0.80553 0.96148 0.89332
 C3120 C 0.79996 0.95093 0.89922
 N3121 N 0.78936 0.94531 0.89346
 N3122 N 0.78458 0.94999 0.88226
 C3123 C 0.78521 0.96540 0.86381
 N3124 N 0.77491 0.95946 0.85785
 N3125 N 0.77062 0.96368 0.84627
 C3126 C 0.77646 0.97399 0.84024
 N3127 N 0.78671 0.97996 0.84624
 N3128 N 0.79101 0.97574 0.85781
 C3129 C 0.77201 0.97838 0.82729
 N3130 N 0.77807 0.98850 0.82116
 N3131 N 0.77431 0.99224 0.80924
 C3132 C 0.76435 0.98600 0.80301
 N3133 N 0.75826 0.97591 0.80917
 N3134 N 0.76202 0.97217 0.82109
 C3135 C 0.29012 0.79054 0.37406
 N3136 N 0.28462 0.80116 0.36828
 N3137 N 0.28947 0.80593 0.35716
 C3138 C 0.30002 0.80028 0.35136
 N3139 N 0.30546 0.78961 0.35715
 N3140 N 0.30062 0.78483 0.36827
 C3141 C 0.28504 0.78552 0.38654
 N3142 N 0.29076 0.77509 0.39246
 N3143 N 0.28641 0.77077 0.40397
 C3144 C 0.27617 0.77672 0.40998
 N3145 N 0.27041 0.78712 0.40403
 N3146 N 0.27476 0.79144 0.39252
 C3147 C 0.27166 0.77223 0.42288
 N3148 N 0.26166 0.77840 0.42907
 N3149 N 0.25785 0.77458 0.44095
 C3150 C 0.26391 0.76445 0.44707
 N3151 N 0.27388 0.75825 0.44084
 N3152 N 0.27768 0.76206 0.42897
 C3153 C 0.29003 0.29024 0.87442
 N3154 N 0.28444 0.30080 0.86860
 N3155 N 0.28927 0.30557 0.85746
 C3156 C 0.29988 0.29999 0.85170
 N3157 N 0.30540 0.28938 0.85754
 N3158 N 0.30058 0.28460 0.86867
 C3159 C 0.28497 0.28523 0.88691
 N3160 N 0.29076 0.27486 0.89288
 N3161 N 0.28641 0.27054 0.90439
 C3162 C 0.27611 0.27644 0.91036
 N3163 N 0.27028 0.28677 0.90436
 N3164 N 0.27463 0.29108 0.89284
 C3165 C 0.27161 0.27195 0.92325
 N3166 N 0.26154 0.27806 0.92939
 N3167 N 0.25772 0.27424 0.94127
 C3168 C 0.26383 0.26417 0.94743
 N3169 N 0.27387 0.25803 0.94126
 N3170 N 0.27768 0.26184 0.92939
 C3171 C 0.46014 0.29032 0.87623
 N3172 N 0.44965 0.28462 0.88204
 N3173 N 0.44483 0.28942 0.89317
 C3174 C 0.45029 0.30010 0.89893
 N3175 N 0.46084 0.30574 0.89311
 N3176 N 0.46567 0.30095 0.88199
 C3177 C 0.46520 0.28528 0.86375
 N3178 N 0.47549 0.29118 0.85776
 N3179 N 0.47983 0.28684 0.84625
 C3180 C 0.47404 0.27644 0.84031
 N3181 N 0.46379 0.27050 0.84633
 N3182 N 0.45945 0.27484 0.85784
 C3183 C 0.47853 0.27193 0.82742
 N3184 N 0.47250 0.26176 0.82133
 N3185 N 0.47629 0.25794 0.80945
 C3186 C 0.48627 0.26413 0.80323
 N3187 N 0.49235 0.27425 0.80935
 N3188 N 0.48855 0.27808 0.82123
 C3189 C 0.96073 0.28994 0.37630
 N3190 N 0.96638 0.30050 0.38209
 N3191 N 0.96174 0.30517 0.39334
 C3192 C 0.95128 0.29948 0.39927
 N3193 N 0.94570 0.28888 0.39348
 N3194 N 0.95033 0.28420 0.38222
 C3195 C 0.96559 0.28502 0.36370
 N3196 N 0.95968 0.27470 0.35774
 N3197 N 0.96385 0.27044 0.34614
 C3198 C 0.97409 0.27636 0.34007
 N3199 N 0.98003 0.28665 0.34605
 N3200 N 0.97585 0.29090 0.35765
 C3201 C 0.97844 0.27190 0.32711
 N3202 N 0.98854 0.27793 0.32094
 N3203 N 0.99228 0.27410 0.30904
 C3204 C 0.98605 0.26409 0.30289
 N3205 N 0.97598 0.25803 0.30908
 N3206 N 0.97225 0.26186 0.32098
 C3207 C 0.45988 0.37609 0.78966
 N3208 N 0.46558 0.38193 0.80015
 N3209 N 0.46085 0.39311 0.80491
 C3210 C 0.45023 0.39891 0.79938
 N3211 N 0.44459 0.39306 0.78883
 N3212 N 0.44932 0.38188 0.78407
 C3213 C 0.46484 0.36354 0.78469
 N3214 N 0.45895 0.35752 0.77440
 N3215 N 0.46322 0.34596 0.77013
 C3216 C 0.47354 0.33999 0.77600
 N3217 N 0.47947 0.34604 0.78625
 N3218 N 0.47520 0.35760 0.79051
 C3219 C 0.47799 0.32705 0.77158
 N3220 N 0.48807 0.32093 0.77770
 N3221 N 0.49186 0.30902 0.77396
 C3222 C 0.48570 0.30279 0.76395
 N3223 N 0.47566 0.30894 0.75779
 N3224 N 0.47187 0.32085 0.76154
 C3225 C 0.96026 0.37567 0.29001
 N3226 N 0.96590 0.38146 0.30055
 N3227 N 0.96111 0.39259 0.30538
 C3228 C 0.95048 0.39838 0.29986
 N3229 N 0.94490 0.39258 0.28926
 N3230 N 0.94969 0.38145 0.28443
 C3231 C 0.96527 0.36318 0.28496
 N3232 N 0.95939 0.35720 0.27464
 N3233 N 0.96369 0.34566 0.27031
 C3234 C 0.97402 0.33969 0.27615
 N3235 N 0.97994 0.34570 0.28642
 N3236 N 0.97565 0.35723 0.29075
 C3237 C 0.97848 0.32677 0.27168
 N3238 N 0.98859 0.32065 0.27775
 N3239 N 0.99236 0.30874 0.27398
 C3240 C 0.98616 0.30252 0.26400
 N3241 N 0.97609 0.30867 0.25788
 N3242 N 0.97232 0.32058 0.26165
 C3243 C 0.29067 0.87610 0.46022
 N3244 N 0.30128 0.88187 0.46577
 N3245 N 0.30608 0.89299 0.46093
 C3246 C 0.30048 0.89880 0.45034
 N3247 N 0.28982 0.89303 0.44486
 N3248 N 0.28501 0.88191 0.44969
 C3249 C 0.28563 0.86362 0.46528
 N3250 N 0.27523 0.85770 0.45950
 N3251 N 0.27090 0.84618 0.46384
 C3252 C 0.27680 0.84017 0.47412
 N3253 N 0.28716 0.84612 0.47994
 N3254 N 0.29150 0.85764 0.47560
 C3255 C 0.27230 0.82727 0.47861
 N3256 N 0.27841 0.82109 0.48867
 N3257 N 0.27459 0.80920 0.49247
 C3258 C 0.26451 0.80306 0.48634
 N3259 N 0.25837 0.80927 0.47632
 N3260 N 0.26219 0.82115 0.47253
 C3261 C 0.29103 0.37525 0.95967
 N3262 N 0.30158 0.38105 0.96528
 N3263 N 0.30638 0.39219 0.96047
 C3264 C 0.30083 0.39797 0.94984
 N3265 N 0.29023 0.39216 0.94429
 N3266 N 0.28542 0.38103 0.94910
 C3267 C 0.28598 0.36277 0.96472
 N3268 N 0.27564 0.35681 0.95888
 N3269 N 0.27128 0.34530 0.96323
 C3270 C 0.27710 0.33935 0.97359
 N3271 N 0.28740 0.34534 0.97947
 N3272 N 0.29177 0.35684 0.97512
 C3273 C 0.27255 0.32647 0.97811
 N3274 N 0.27854 0.32037 0.98829
 N3275 N 0.27466 0.30853 0.99214
 C3276 C 0.26463 0.30235 0.98597
 N3277 N 0.25861 0.30848 0.97583
 N3278 N 0.26249 0.32033 0.97197
 C3279 C 0.79018 0.37350 0.28918
 N3280 N 0.80075 0.36771 0.28364
 N3281 N 0.80540 0.35647 0.28837
 C3282 C 0.79967 0.35058 0.29883
 N3283 N 0.78904 0.35639 0.30431
 N3284 N 0.78438 0.36762 0.29959
 C3285 C 0.78529 0.38609 0.28423
 N3286 N 0.77492 0.39205 0.29002
 N3287 N 0.77072 0.40364 0.28577
 C3288 C 0.77672 0.40970 0.27558
 N3289 N 0.78705 0.40372 0.26975
 N3290 N 0.79126 0.39212 0.27400
 C3291 C 0.77233 0.42267 0.27117
 N3292 N 0.77850 0.42887 0.26116
 N3293 N 0.77476 0.44080 0.25741
 C3294 C 0.76470 0.44696 0.26353
 N3295 N 0.75850 0.44073 0.27351
 N3296 N 0.76224 0.42881 0.27725
   
