data_POSCAR
  _audit_creation_date              2014-09-24
  _audit_creation_method            'ToBaCCo'
  _symmetry_space_group_name_H-M    'P1'
  _symmetry_Int_Tables_number       1
  _symmetry_cell_setting            triclinic
  loop_
  _symmetry_equiv_pos_as_xyz
 x,y,z
_cell_length_a 44.0373
_cell_length_b 43.7059
_cell_length_c 43.6946
_cell_angle_alpha 89.806000
_cell_angle_beta 90.568300
_cell_angle_gamma 90.409100
loop_
  _atom_site_label
  _atom_site_type_symbol
  _atom_site_fract_x
  _atom_site_fract_y
  _atom_site_fract_z
C1 C 0.18492 0.21591 0.23302
 C2 C 0.18799 0.23402 0.20665
 C3 C 0.21159 0.22858 0.18607
 C4 C 0.23250 0.20528 0.19242
 C5 C 0.22956 0.18703 0.21869
 C6 C 0.20546 0.19216 0.23872
 H7 H 0.17196 0.25223 0.20211
 H8 H 0.25107 0.20128 0.17686
 H9 H 0.20304 0.17806 0.25903
 C10 C 0.68439 0.71639 0.73355
 C11 C 0.70320 0.69100 0.73796
 C12 C 0.72524 0.68363 0.71627
 C13 C 0.72896 0.70247 0.69049
 C14 C 0.71018 0.72787 0.68590
 C15 C 0.68786 0.73474 0.70742
 H16 H 0.70055 0.67687 0.75821
 H17 H 0.74608 0.69708 0.67373
 H18 H 0.67315 0.75423 0.70379
 C19 C 0.32312 0.79415 0.72330
 C20 C 0.30362 0.81890 0.72791
 C21 C 0.27855 0.82394 0.70829
 C22 C 0.27263 0.80270 0.68474
 C23 C 0.29229 0.77815 0.67967
 C24 C 0.31719 0.77368 0.69932
 H25 H 0.30789 0.83405 0.74709
 H26 H 0.25353 0.80599 0.66926
 H27 H 0.33223 0.75453 0.69567
 C28 C 0.82195 0.29259 0.22677
 C29 C 0.81786 0.27395 0.20078
 C30 C 0.79236 0.27722 0.18164
 C31 C 0.77007 0.29862 0.18895
 C32 C 0.77309 0.31666 0.21527
 C33 C 0.79891 0.31353 0.23407
 H34 H 0.83434 0.25646 0.19553
 H35 H 0.75035 0.30121 0.17415
 H36 H 0.80139 0.32821 0.25390
 C37 C 0.81477 0.71121 0.27521
 C38 C 0.80815 0.73238 0.29820
 C39 C 0.78279 0.72810 0.31688
 C40 C 0.76408 0.70232 0.31268
 C41 C 0.77052 0.68097 0.28976
 C42 C 0.79559 0.68585 0.27071
 H43 H 0.82271 0.75223 0.30150
 H44 H 0.74469 0.69877 0.32740
 H45 H 0.80043 0.66966 0.25270
 C46 C 0.31014 0.22057 -0.23587
 C47 C 0.30453 0.24155 -0.21219
 C48 C 0.28143 0.23605 -0.19100
 C49 C 0.26425 0.20902 -0.19278
 C50 C 0.27006 0.18742 -0.21554
 C51 C 0.29289 0.19329 -0.23697
 H52 H 0.31844 0.26199 -0.20982
 H53 H 0.24655 0.20466 -0.17622
 H54 H 0.29650 0.17690 -0.25513
 C55 C 0.68803 0.28187 -0.23584
 C56 C 0.70664 0.30792 -0.23969
 C57 C 0.72883 0.31583 -0.21779
 C58 C 0.73295 0.29715 -0.19199
 C59 C 0.71421 0.27153 -0.18731
 C60 C 0.69189 0.26401 -0.20920
 H61 H 0.70439 0.32187 -0.26014
 H62 H 0.75043 0.30281 -0.17527
 H63 H 0.67684 0.24478 -0.20484
 C64 C 0.18821 0.78369 0.26516
 C65 C 0.20909 0.80715 0.25885
 C66 C 0.23461 0.81202 0.27797
 C67 C 0.23777 0.79395 0.30456
 C68 C 0.21629 0.77122 0.31167
 C69 C 0.19177 0.76590 0.29166
 H70 H 0.20616 0.82060 0.23815
 H71 H 0.25651 0.79808 0.32033
 H72 H 0.17539 0.74801 0.29674
 C73 C 0.46754 0.44052 0.48399
 C74 C 0.48683 0.44521 0.45904
 C75 C 0.48214 0.46985 0.43895
 C76 C 0.45754 0.48945 0.44351
 C77 C 0.43824 0.48510 0.46855
 C78 C 0.44309 0.46034 0.48849
 H79 H 0.50561 0.42978 0.45536
 H80 H 0.45372 0.50839 0.42789
 H81 H 0.42819 0.45682 0.50780
 C82 C -0.04172 -0.07034 0.97488
 C83 C -0.01963 -0.06373 0.95297
 C84 C -0.02231 -0.03785 0.93416
 C85 C -0.04762 -0.01878 0.93703
 C86 C -0.07053 -0.02537 0.95845
 C87 C -0.06685 -0.05103 0.97776
 H88 H -0.00034 -0.07877 0.95052
 H89 H -0.04979 0.00074 0.92182
 H90 H -0.08310 -0.05565 0.99570
 C91 C 1.02611 0.55697 0.98830
 C92 C 1.04881 0.53556 0.99500
 C93 C 1.05469 0.51165 0.97462
 C94 C 1.03792 0.50953 0.94723
 C95 C 1.01549 0.53113 0.94009
 C96 C 1.00957 0.55475 0.96081
 H97 H 1.06193 0.53757 1.01603
 H98 H 1.04253 0.49120 0.93132
 H99 H 0.99219 0.57144 0.95552
 C100 C 0.53554 0.06472 0.47874
 C101 C 0.56165 0.04677 0.48211
 C102 C 0.56872 0.02418 0.46039
 C103 C 0.54838 0.01926 0.43576
 C104 C 0.52275 0.03770 0.43184
 C105 C 0.51643 0.06042 0.45329
 H106 H 0.57603 0.04995 0.50215
 H107 H 0.55321 0.00213 0.41863
 H108 H 0.49665 0.07477 0.45015
 C109 C -0.03620 0.06126 0.52215
 C110 C -0.06306 0.04392 0.52041
 C111 C -0.06891 0.02030 0.54164
 C112 C -0.04664 0.01380 0.56410
 C113 C -0.01982 0.03123 0.56619
 C114 C -0.01494 0.05522 0.54541
 H115 H -0.07895 0.04832 0.50183
 H116 H -0.05050 -0.00422 0.58075
 H117 H 0.00547 0.06913 0.54726
 C118 C 0.46153 0.56474 0.01991
 C119 C 0.48070 0.55990 0.04524
 C120 C 0.47655 0.53422 0.06413
 C121 C 0.45369 0.51282 0.05694
 C122 C 0.43469 0.51726 0.03138
 C123 C 0.43858 0.54337 0.01303
 H124 H 0.49833 0.57649 0.05069
 H125 H 0.45055 0.49285 0.07137
 H126 H 0.42358 0.54723 -0.00640
 C127 C 0.54398 -0.06679 0.02745
 C128 C 0.56849 -0.04648 0.02261
 C129 C 0.57279 -0.02071 0.04128
 C130 C 0.55143 -0.01403 0.06379
 C131 C 0.52617 -0.03317 0.06800
 C132 C 0.52265 -0.05950 0.05005
 H133 H 0.58514 -0.05136 0.00521
 H134 H 0.55451 0.00595 0.07815
 H135 H 0.50271 -0.07382 0.05318
 C136 C 1.03139 0.44183 0.51451
 C137 C 1.05590 0.46185 0.50948
 C138 C 1.05979 0.48848 0.52724
 C139 C 1.03949 0.49364 0.55140
 C140 C 1.01535 0.47333 0.55699
 C141 C 1.01146 0.44742 0.53859
 H142 H 1.07112 0.45725 0.49072
 H143 H 1.04283 0.51304 0.56649
 H144 H 0.99265 0.43186 0.54273
 C145 C 0.42155 0.01820 0.20702
 H146 H 0.42273 0.03830 0.22137
 C147 C 0.44162 0.01508 0.18269
 H148 H 0.45834 0.03281 0.17830
 C149 C 0.39918 -0.03006 0.19594
 H150 H 0.38322 -0.04799 0.20156
 C151 C 0.41866 -0.03400 0.17130
 H152 H 0.41723 -0.05474 0.15785
 N153 N 0.40062 -0.00404 0.21295
 C154 C 0.32770 0.04026 0.26274
 H155 H 0.32610 0.02506 0.28226
 C156 C 0.30834 0.06530 0.26022
 H157 H 0.29177 0.06948 0.27784
 C158 C 0.35129 0.05342 0.21589
 H159 H 0.36782 0.04855 0.19852
 C160 C 0.33240 0.07876 0.21249
 H161 H 0.33453 0.09341 0.19257
 Zn162 Zn 0.37501 0.00136 0.24709
 N163 N 0.34900 0.03513 0.24104
 C164 C 0.39820 0.03407 0.29841
 N165 N 0.40053 0.00814 0.28148
 C166 C 0.42238 -0.01294 0.28760
 C167 C 0.44306 -0.00830 0.31159
 C168 C 0.41830 0.03952 0.32271
 C169 C 0.33042 -0.04147 0.23040
 C170 C 0.31226 -0.06760 0.23317
 C171 C 0.33378 -0.07605 0.28355
 C172 C 0.35191 -0.05001 0.27964
 N173 N 0.35031 -0.03366 0.25312
 H174 H 0.38109 0.05082 0.29290
 H175 H 0.42391 -0.03318 0.27354
 H176 H 0.46054 -0.02507 0.31612
 H177 H 0.41625 0.06020 0.33609
 H178 H 0.32911 -0.02762 0.20987
 H179 H 0.29701 -0.07397 0.21462
 H180 H 0.33514 -0.08888 0.30477
 H181 H 0.36715 -0.04287 0.29781
 C182 C 0.31101 0.08510 0.23511
 C183 C 0.43995 -0.01112 0.16430
 C184 C 0.31425 -0.08549 0.25980
 C185 C 0.44133 0.01841 0.32913
 C186 C 0.07938 -0.01602 0.71221
 H187 H 0.07740 -0.03595 0.72683
 C188 C 0.05991 -0.01261 0.68704
 H189 H 0.04287 -0.02996 0.68217
 C190 C 0.10389 0.03109 0.70075
 H191 H 0.12081 0.04822 0.70635
 C192 C 0.08502 0.03529 0.67522
 H193 H 0.08756 0.05556 0.66112
 N194 N 0.10103 0.00551 0.71838
 C195 C 0.17336 -0.04235 0.76716
 H196 H 0.17401 -0.03007 0.78862
 C197 C 0.19447 -0.06533 0.76164
 H198 H 0.21117 -0.07108 0.77906
 C199 C 0.15131 -0.04940 0.71793
 H200 H 0.13491 -0.04271 0.70069
 C201 C 0.17217 -0.07230 0.71137
 H202 H 0.17150 -0.08333 0.68921
 Zn203 Zn 0.12656 -0.00127 0.75280
 N204 N 0.15231 -0.03489 0.74544
 C205 C 0.10385 -0.03439 0.80424
 N206 N 0.10127 -0.00858 0.78691
 C207 C 0.07973 0.01270 0.79285
 C208 C 0.06019 0.00885 0.81754
 C209 C 0.08482 -0.03908 0.82925
 C210 C 0.17377 0.03928 0.73886
 C211 C 0.19400 0.06364 0.74323
 C212 C 0.16931 0.07474 0.79105
 C213 C 0.14961 0.05008 0.78584
 N214 N 0.15202 0.03309 0.75994
 H215 H 0.12053 -0.05142 0.79870
 H216 H 0.07784 0.03274 0.77837
 H217 H 0.04322 0.02600 0.82218
 H218 H 0.08703 -0.05963 0.84299
 H219 H 0.17544 0.02514 0.71868
 H220 H 0.21117 0.06848 0.72628
 H221 H 0.16723 0.08819 0.81169
 H222 H 0.13263 0.04445 0.80263
 C223 C 0.19434 -0.08010 0.73320
 C224 C 0.06295 0.01312 0.66813
 C225 C 0.19191 0.08150 0.76968
 C226 C 0.06293 -0.01711 0.83620
 C227 C 0.57570 0.48262 0.20898
 H228 H 0.57377 0.46233 0.22311
 C229 C 0.55533 0.48725 0.18474
 H230 H 0.53778 0.47039 0.17999
 C231 C 0.60054 0.52971 0.19823
 H232 H 0.61784 0.54645 0.20386
 C233 C 0.58065 0.53524 0.17376
 H234 H 0.58287 0.55610 0.16050
 N235 N 0.59777 0.50369 0.21520
 C236 C 0.67000 0.45693 0.26541
 H237 H 0.67216 0.47182 0.28505
 C238 C 0.68970 0.43230 0.26215
 H239 H 0.70704 0.42811 0.27938
 C240 C 0.64517 0.44456 0.21861
 H241 H 0.62814 0.44970 0.20144
 C242 C 0.66434 0.41961 0.21451
 H243 H 0.66192 0.40554 0.19426
 Zn244 Zn 0.62299 0.49686 0.24984
 N245 N 0.64810 0.46242 0.24394
 C246 C 0.60051 0.46577 0.30241
 N247 N 0.59734 0.49062 0.28383
 C248 C 0.57549 0.51183 0.28887
 C249 C 0.55644 0.50909 0.31409
 C250 C 0.58202 0.46222 0.32797
 C251 C 0.67113 0.53692 0.23643
 C252 C 0.69166 0.56094 0.24140
 C253 C 0.66591 0.57239 0.28855
 C254 C 0.64597 0.54807 0.28278
 N255 N 0.64880 0.53101 0.25697
 H256 H 0.61753 0.44882 0.29767
 H257 H 0.57321 0.53114 0.27347
 H258 H 0.53946 0.52635 0.31824
 H259 H 0.58498 0.44266 0.34296
 H260 H 0.67311 0.52274 0.21631
 H261 H 0.70946 0.56543 0.22502
 H262 H 0.66358 0.58577 0.30921
 H263 H 0.62853 0.54269 0.29916
 C264 C 0.68672 0.41321 0.23660
 C265 C 0.55755 0.51401 0.16712
 C266 C 0.68918 0.57876 0.26784
 C267 C 0.56004 0.48432 0.33416
 C268 C 0.88758 0.49168 0.68396
 H269 H 0.86332 0.48930 0.68163
 C270 C 0.90559 0.48880 0.65802
 H271 H 0.89499 0.48475 0.63591
 C272 C 0.93132 0.49791 0.71535
 H273 H 0.94150 0.50087 0.73770
 C274 C 0.95015 0.49522 0.68999
 H275 H 0.97457 0.49649 0.69300
 N276 N 0.90054 0.49663 0.71197
 C277 C 0.84905 0.55876 0.76274
 H278 H 0.86464 0.55885 0.78192
 C279 C 0.82832 0.58267 0.75959
 H280 H 0.82856 0.60118 0.77601
 C281 C 0.82820 0.53411 0.71909
 H282 H 0.82721 0.51461 0.70411
 C283 C 0.80735 0.55765 0.71491
 H284 H 0.79125 0.55658 0.69603
 Zn285 Zn 0.87570 0.50139 0.74731
 N286 N 0.84893 0.53521 0.74238
 C287 C 0.91876 0.53293 0.78402
 N288 N 0.90118 0.50723 0.78224
 C289 C 0.90238 0.48535 0.80446
 C290 C 0.92177 0.48893 0.82970
 C291 C 0.93825 0.53753 0.80898
 C292 C 0.85251 0.44143 0.73487
 C293 C 0.83221 0.41702 0.73878
 C294 C 0.80998 0.44400 0.78114
 C295 C 0.83033 0.46804 0.77614
 N296 N 0.85091 0.46645 0.75322
 H297 H 0.91771 0.54981 0.76588
 H298 H 0.88867 0.46485 0.80246
 H299 H 0.92269 0.47129 0.84715
 H300 H 0.95190 0.55821 0.81028
 H301 H 0.86926 0.44046 0.71702
 H302 H 0.83330 0.39741 0.72376
 H303 H 0.79382 0.44549 0.79959
 H304 H 0.82967 0.48819 0.79043
 C305 C 0.80702 0.58207 0.73557
 C306 C 0.93722 0.49109 0.66090
 C307 C 0.81027 0.41848 0.76179
 C308 C 0.94018 0.51513 0.83193
 C309 C 0.20204 0.41524 0.01930
 H310 H 0.21611 0.41565 0.03974
 C311 C 0.17575 0.43285 0.01776
 H312 H 0.16959 0.44703 0.03697
 C313 C 0.19274 0.39611 -0.03068
 H314 H 0.19918 0.38148 -0.04934
 C315 C 0.16617 0.41323 -0.03311
 H316 H 0.15251 0.41209 -0.05383
 N317 N 0.21026 0.39772 -0.00489
 C318 C 0.26171 0.34726 0.05700
 H319 H 0.28190 0.36139 0.05635
 C320 C 0.25728 0.32725 0.08159
 H321 H 0.27424 0.32587 0.09965
 C322 C 0.21480 0.33179 0.03464
 H323 H 0.19837 0.33376 0.01617
 C324 C 0.20935 0.31174 0.05889
 H325 H 0.18857 0.29833 0.05921
 Zn326 Zn 0.24607 0.37430 -0.00069
 N327 N 0.24084 0.34869 0.03386
 C328 C 0.30837 0.38694 0.00580
 N329 N 0.28051 0.40015 0.00418
 C330 C 0.27742 0.43111 0.00488
 C331 C 0.30292 0.45000 0.00814
 C332 C 0.33449 0.40501 0.00904
 C333 C 0.25691 0.36444 -0.06316
 C334 C 0.26140 0.34737 -0.08969
 C335 C 0.25724 0.30113 -0.05947
 C336 C 0.25267 0.31904 -0.03357
 N337 N 0.25216 0.35009 -0.03591
 H338 H 0.31023 0.36230 0.00468
 H339 H 0.25524 0.44129 0.00274
 H340 H 0.30021 0.47460 0.00888
 H341 H 0.35655 0.39428 0.01070
 H342 H 0.25697 0.38917 -0.06425
 H343 H 0.26486 0.35892 -0.11136
 H344 H 0.25740 0.27642 -0.05744
 H345 H 0.24965 0.30805 -0.01163
 C346 C 0.23109 0.30882 0.08234
 C347 C 0.15753 0.43181 -0.00867
 C348 C 0.26128 0.31536 -0.08790
 C349 C 0.33181 0.43692 0.01014
 C350 C 0.71477 0.07898 -0.01237
 H351 H 0.72842 0.07664 -0.03267
 C352 C 0.69099 0.05846 -0.00690
 H353 H 0.68617 0.04028 -0.02306
 C354 C 0.70473 0.10512 0.03390
 H355 H 0.71046 0.12297 0.05001
 C356 C 0.68062 0.08520 0.04015
 H357 H 0.66773 0.08790 0.06094
 N358 N 0.72111 0.10180 0.00788
 C359 C 0.76738 0.17441 -0.04211
 H360 H 0.78787 0.17662 -0.02842
 C361 C 0.76209 0.19450 -0.06645
 H362 H 0.77859 0.21220 -0.07169
 C363 C 0.72043 0.14905 -0.05168
 H364 H 0.70403 0.13167 -0.04554
 C365 C 0.71435 0.16854 -0.07635
 H366 H 0.69338 0.16597 -0.08928
 Zn367 Zn 0.75481 0.12741 -0.00066
 N368 N 0.74668 0.15223 -0.03524
 C369 C 0.80270 0.10248 -0.03547
 N370 N 0.78821 0.10159 -0.00811
 C371 C 0.79574 0.08066 0.01376
 C372 C 0.81869 0.05950 0.00852
 C373 C 0.82570 0.08164 -0.04171
 C374 C 0.74203 0.17584 0.03850
 C375 C 0.74702 0.19687 0.06200
 C376 C 0.79529 0.17288 0.07265
 C377 C 0.78941 0.15230 0.04889
 N378 N 0.76300 0.15399 0.03254
 H379 H 0.79601 0.11886 -0.05277
 H380 H 0.78353 0.08017 0.03512
 H381 H 0.82443 0.04284 0.02600
 H382 H 0.83679 0.08222 -0.06372
 H383 H 0.72143 0.17691 0.02485
 H384 H 0.73012 0.21407 0.06669
 H385 H 0.81634 0.17139 0.08558
 H386 H 0.80607 0.13522 0.04342
 C387 C 0.73523 0.19167 -0.08367
 C388 C 0.67381 0.06148 0.01970
 C389 C 0.77402 0.19559 0.07917
 C390 C 0.83352 0.05957 -0.01973
 C391 C 0.20897 0.58067 0.48383
 H392 H 0.22271 0.57919 0.46351
 C393 C 0.18301 0.56241 0.48662
 H394 H 0.17667 0.54689 0.46834
 C395 C 0.20030 0.60295 0.53234
 H396 H 0.20723 0.61864 0.55018
 C397 C 0.17432 0.58488 0.53620
 H398 H 0.16128 0.58677 0.55699
 N399 N 0.21661 0.60104 0.50614
 C400 C 0.26535 0.67420 0.45899
 H401 H 0.28579 0.67557 0.47287
 C402 C 0.26107 0.69457 0.43466
 H403 H 0.27833 0.71157 0.42960
 C404 C 0.21762 0.65070 0.44881
 H405 H 0.20043 0.63405 0.45469
 C406 C 0.21248 0.67055 0.42424
 H407 H 0.19154 0.66882 0.41113
 Zn408 Zn 0.25085 0.62655 0.49953
 N409 N 0.24389 0.65261 0.46541
 C410 C 0.30185 0.60417 0.46715
 N411 N 0.28472 0.60106 0.49275
 C412 C 0.29113 0.57937 0.51422
 C413 C 0.31629 0.56044 0.51093
 C414 C 0.32727 0.58579 0.46302
 C415 C 0.23716 0.67391 0.53985
 C416 C 0.24213 0.69477 0.56354
 C417 C 0.29010 0.67032 0.57447
 C418 C 0.28431 0.64999 0.55048
 N419 N 0.25814 0.65210 0.53377
 H420 H 0.29599 0.62098 0.44997
 H421 H 0.27686 0.57709 0.53412
 H422 H 0.32150 0.54355 0.52837
 H423 H 0.34103 0.58865 0.44278
 H424 H 0.21676 0.67533 0.52593
 H425 H 0.22546 0.71226 0.56803
 H426 H 0.31112 0.66871 0.58744
 H427 H 0.30099 0.63297 0.54493
 C428 C 0.23429 0.69286 0.41713
 C429 C 0.16504 0.56495 0.51277
 C430 C 0.26901 0.69319 0.58086
 C431 C 0.33488 0.56398 0.48533
 C432 C 0.70639 0.92137 0.51531
 H433 H 0.71818 0.92103 0.53715
 C434 C 0.68315 0.94235 0.51006
 H435 H 0.67669 0.95792 0.52806
 C436 C 0.70053 0.90165 0.46509
 H437 H 0.70769 0.88612 0.44745
 C438 C 0.67744 0.92253 0.45874
 H439 H 0.66674 0.92274 0.43632
 N440 N 0.71442 0.90139 0.49305
 C441 C 0.76033 0.82712 0.54140
 H442 H 0.78102 0.82609 0.52832
 C443 C 0.75538 0.80631 0.56517
 H444 H 0.77236 0.78923 0.57046
 C445 C 0.71271 0.85035 0.55016
 H446 H 0.69590 0.86717 0.54396
 C447 C 0.70695 0.83012 0.57425
 H448 H 0.68598 0.83186 0.58684
 Zn449 Zn 0.74745 0.87501 0.50102
 N450 N 0.73919 0.84868 0.53447
 C451 C 0.79595 0.89896 0.53735
 N452 N 0.78148 0.90032 0.50972
 C453 C 0.78961 0.92130 0.48819
 C454 C 0.81345 0.94178 0.49389
 C455 C 0.81976 0.91922 0.54410
 C456 C 0.73253 0.82910 0.45928
 C457 C 0.73603 0.80977 0.43423
 C458 C 0.78494 0.83323 0.42493
 C459 C 0.78063 0.85198 0.45032
 N460 N 0.75450 0.84994 0.46661
 H461 H 0.78873 0.88261 0.55442
 H462 H 0.77738 0.92221 0.46661
 H463 H 0.81988 0.95823 0.47649
 H464 H 0.83096 0.91814 0.56625
 H465 H 0.71224 0.82759 0.47297
 H466 H 0.71845 0.79318 0.42870
 H467 H 0.80569 0.83521 0.41195
 H468 H 0.79819 0.86807 0.45696
 C469 C 0.72830 0.80755 0.58169
 C470 C 0.66879 0.94340 0.48129
 C471 C 0.76227 0.81213 0.41644
 C472 C 0.82845 0.94116 0.52234
 C473 C 0.01410 0.20704 0.42454
 H474 H 0.03436 0.22104 0.42679
 C475 C 0.01004 0.18166 0.44358
 H476 H 0.02721 0.17605 0.46057
 C477 C -0.03327 0.19750 0.39999
 H478 H -0.05028 0.20395 0.38326
 C479 C -0.03825 0.17193 0.41860
 H480 H -0.05893 0.15861 0.41590
 N481 N -0.00715 0.21412 0.40288
 C482 C 0.04041 0.26313 0.33046
 H483 H 0.02578 0.28278 0.32802
 C484 C 0.06531 0.25987 0.31127
 H485 H 0.06981 0.27699 0.29389
 C486 C 0.05201 0.21644 0.35563
 H487 H 0.04655 0.19935 0.37262
 C488 C 0.07728 0.21240 0.33704
 H489 H 0.09131 0.19233 0.34004
 Zn490 Zn 0.00047 0.24859 0.37762
 N491 N 0.03451 0.24182 0.35242
 C492 C 0.03343 0.29992 0.40051
 N493 N 0.00779 0.28263 0.40340
 C494 C -0.01350 0.28931 0.42468
 C495 C -0.01003 0.31506 0.44327
 C496 C 0.03773 0.32592 0.41855
 C497 C -0.04062 0.23543 0.32979
 C498 C -0.06396 0.24122 0.30871
 C499 C -0.07106 0.29063 0.33212
 C500 C -0.04769 0.28388 0.35281
 N501 N -0.03304 0.25661 0.35135
 H502 H 0.05040 0.29389 0.38398
 H503 H -0.03348 0.27494 0.42673
 H504 H -0.02740 0.32062 0.45968
 H505 H 0.05789 0.33995 0.41570
 H506 H -0.02827 0.21415 0.32880
 H507 H -0.06985 0.22423 0.29163
 H508 H -0.08236 0.31253 0.33329
 H509 H -0.04092 0.30074 0.36958
 C510 C 0.08439 0.23455 0.31491
 C511 C -0.01618 0.16357 0.44031
 C512 C -0.07911 0.26930 0.30956
 C513 C 0.01555 0.33390 0.43979
 C514 C -0.02359 0.69763 0.09187
 H515 H -0.04587 0.70688 0.09607
 C516 C -0.02057 0.67130 0.07420
 H517 H -0.04057 0.66015 0.06471
 C518 C 0.02986 0.70109 0.09864
 H519 H 0.04942 0.71301 0.10802
 C520 C 0.03391 0.67495 0.08091
 H521 H 0.05660 0.66662 0.07675
 N522 N 0.00145 0.71188 0.10369
 C523 C -0.05876 0.76384 0.15671
 H524 H -0.05744 0.78499 0.14406
 C525 C -0.08264 0.75927 0.17707
 H526 H -0.09934 0.77706 0.18011
 C527 C -0.03935 0.71463 0.16814
 H528 H -0.02283 0.69699 0.16403
 C529 C -0.06288 0.70911 0.18862
 H530 H -0.06419 0.68738 0.20054
 Zn531 Zn -0.00363 0.74790 0.12675
 N532 N -0.03729 0.74190 0.15312
 C533 C -0.01234 0.77570 0.06893
 N534 N -0.01062 0.78126 0.09953
 C535 C -0.01369 0.81011 0.11070
 C536 C -0.01977 0.83455 0.09090
 C537 C -0.01817 0.79947 0.04836
 C538 C 0.03892 0.73476 0.17331
 C539 C 0.06503 0.73873 0.19123
 C540 C 0.07704 0.78407 0.16189
 C541 C 0.05058 0.77932 0.14456
 N542 N 0.03206 0.75500 0.15058
 H543 H -0.00927 0.75280 0.06035
 H544 H -0.01155 0.81412 0.13504
 H545 H -0.02255 0.85734 0.10007
 H546 H -0.01947 0.79475 0.02406
 H547 H 0.02427 0.71537 0.17752
 H548 H 0.07008 0.72258 0.20941
 H549 H 0.09169 0.80342 0.15686
 H550 H 0.04514 0.79486 0.12607
 C551 C -0.08446 0.73188 0.19368
 C552 C 0.00846 0.65979 0.06866
 C553 C 0.08457 0.76343 0.18533
 C554 C -0.02259 0.82917 0.05939
 C555 C 0.48450 0.20961 0.57540
 H556 H 0.46601 0.22529 0.57121
 C557 C 0.48841 0.18445 0.55625
 H558 H 0.47290 0.18070 0.53722
 C559 C 0.52778 0.19565 0.60488
 H560 H 0.54316 0.20019 0.62376
 C561 C 0.53252 0.17025 0.58630
 H562 H 0.55151 0.15527 0.59098
 N563 N 0.50392 0.21455 0.59932
 C564 C 0.46041 0.26221 0.67414
 H565 H 0.47738 0.27960 0.67894
 C566 C 0.43492 0.25947 0.69274
 H567 H 0.43241 0.27460 0.71212
 C568 C 0.44313 0.22097 0.64329
 H569 H 0.44642 0.20591 0.62410
 C570 C 0.41712 0.21772 0.66104
 H571 H 0.40049 0.20022 0.65532
 Zn572 Zn 0.49818 0.24911 0.62447
 N573 N 0.46389 0.24328 0.64977
 C574 C 0.46907 0.30345 0.60475
 N575 N 0.49209 0.28373 0.59899
 C576 C 0.51089 0.28811 0.57480
 C577 C 0.50763 0.31379 0.55599
 C578 C 0.46497 0.32938 0.58647
 C579 C 0.53552 0.23870 0.67608
 C580 C 0.56135 0.24170 0.69468
 C581 C 0.58194 0.27774 0.65819
 C582 C 0.55558 0.27439 0.64052
 N583 N 0.53312 0.25492 0.64954
 H584 H 0.45401 0.29932 0.62368
 H585 H 0.52860 0.27174 0.57032
 H586 H 0.52292 0.31731 0.53702
 H587 H 0.44688 0.34519 0.59150
 H588 H 0.51738 0.22333 0.68273
 H589 H 0.56290 0.22892 0.71591
 H590 H 0.59978 0.29307 0.65057
 H591 H 0.55332 0.28716 0.61947
 C592 C 0.41260 0.23745 0.68578
 C593 C 0.51250 0.16434 0.56189
 C594 C 0.58516 0.26100 0.68543
 C595 C 0.48474 0.33494 0.56214
 C596 C 0.51249 0.71234 0.92559
 H597 H 0.53273 0.72627 0.92835
 C598 C 0.50715 0.68789 0.94551
 H599 H 0.52337 0.68293 0.96362
 C600 C 0.46638 0.70211 0.89893
 H601 H 0.45037 0.70794 0.88101
 C602 C 0.46024 0.67735 0.91824
 H603 H 0.43971 0.66395 0.91484
 N604 N 0.49228 0.71889 0.90279
 C605 C 0.54231 0.76761 0.83209
 H606 H 0.52831 0.78774 0.82973
 C607 C 0.56741 0.76388 0.81326
 H608 H 0.57265 0.78110 0.79618
 C609 C 0.55207 0.72018 0.85668
 H610 H 0.54579 0.70304 0.87335
 C611 C 0.57751 0.71565 0.83845
 H612 H 0.59083 0.69509 0.84130
 Zn613 Zn 0.50089 0.75330 0.87783
 N614 N 0.53533 0.74607 0.85348
 C615 C 0.53655 0.80043 0.90457
 N616 N 0.50870 0.78673 0.90427
 C617 C 0.48675 0.79523 0.92416
 C618 C 0.49230 0.81871 0.94514
 C619 C 0.54317 0.82371 0.92542
 C620 C 0.46201 0.74059 0.82855
 C621 C 0.43897 0.74575 0.80702
 C622 C 0.42884 0.79412 0.83142
 C623 C 0.45218 0.78811 0.85242
 N624 N 0.46806 0.76156 0.85078
 H625 H 0.55394 0.79292 0.88911
 H626 H 0.46498 0.78361 0.92380
 H627 H 0.47459 0.82551 0.96068
 H628 H 0.56553 0.83419 0.92567
 H629 H 0.47531 0.71991 0.82748
 H630 H 0.43432 0.72894 0.78941
 H631 H 0.41634 0.81531 0.83283
 H632 H 0.45776 0.80485 0.86972
 C633 C 0.58558 0.73787 0.81672
 C634 C 0.48062 0.67030 0.94207
 C635 C 0.42229 0.77288 0.80831
 C636 C 0.52100 0.83282 0.94623
 C637 C 0.11257 0.20451 0.27675
 C638 C 0.13671 0.20005 0.25695
 C639 C 0.16011 0.22175 0.25474
 C640 C 0.15962 0.24813 0.27346
 C641 C 0.13519 0.25256 0.29388
 C642 C 0.11120 0.23073 0.29506
 C643 C 0.13610 0.27836 0.31306
 N644 N 0.15957 0.29852 0.31131
 N645 N 0.18232 0.29451 0.29191
 C646 C 0.18322 0.26999 0.27303
 H647 H 0.09454 0.18752 0.27750
 H648 H 0.13696 0.17965 0.24292
 H649 H 0.11867 0.28253 0.32974
 H650 H 0.20252 0.26769 0.25813
 C651 C 0.61245 0.70710 0.77828
 C652 C 0.63617 0.70200 0.75816
 C653 C 0.66024 0.72294 0.75579
 C654 C 0.66086 0.74918 0.77472
 C655 C 0.63683 0.75426 0.79547
 C656 C 0.61216 0.73323 0.79677
 C657 C 0.63881 0.77988 0.81483
 N658 N 0.66291 0.79926 0.81295
 N659 N 0.68529 0.79463 0.79327
 C660 C 0.68516 0.77023 0.77419
 H661 H 0.59388 0.69074 0.77908
 H662 H 0.63555 0.68172 0.74396
 H663 H 0.62171 0.78451 0.83173
 H664 H 0.70420 0.76736 0.75906
 C665 C 0.36792 0.77936 0.79562
 C666 C 0.34406 0.78446 0.77514
 C667 C 0.34956 0.78952 0.74399
 C668 C 0.37992 0.79021 0.73344
 C669 C 0.40422 0.78479 0.75429
 C670 C 0.39800 0.77905 0.78556
 C671 C 0.43409 0.78610 0.74322
 N672 N 0.43912 0.79241 0.71329
 N673 N 0.41634 0.79771 0.69376
 C674 C 0.38698 0.79697 0.70280
 H675 H 0.36288 0.77522 0.81951
 H676 H 0.32101 0.78410 0.78360
 H677 H 0.45351 0.78252 0.75810
 H678 H 0.36954 0.80209 0.68601
 C679 C -0.13256 0.28192 0.29791
 C680 C -0.15647 0.28829 0.27791
 C681 C -0.15218 0.28929 0.24603
 C682 C -0.12208 0.28598 0.23465
 C683 C -0.09778 0.27917 0.25520
 C684 C -0.10337 0.27651 0.28699
 C685 C -0.06829 0.27659 0.24337
 N686 N -0.06339 0.28119 0.21315
 N687 N -0.08586 0.28865 0.19403
 C688 C -0.11483 0.29159 0.20374
 H689 H -0.13706 0.28046 0.32222
 H690 H -0.17889 0.29077 0.28755
 H691 H -0.04893 0.27166 0.25789
 H692 H -0.13160 0.29926 0.18730
 C693 C -0.13919 0.72625 0.20460
 C694 C -0.16341 0.72080 0.22415
 C695 C -0.15846 0.71584 0.25549
 C696 C -0.12836 0.71607 0.26731
 C697 C -0.10369 0.72200 0.24745
 C698 C -0.10926 0.72679 0.21577
 C699 C -0.07423 0.72334 0.26016
 N700 N -0.06984 0.71791 0.29045
 N701 N -0.09290 0.71135 0.30889
 C702 C -0.12195 0.71017 0.29838
 H703 H -0.14379 0.72986 0.18046
 H704 H -0.18630 0.72070 0.21481
 H705 H -0.05465 0.72883 0.24641
 H706 H -0.13968 0.70446 0.31440
 C707 C 0.37883 0.20600 0.71817
 C708 C 0.35364 0.20169 0.73665
 C709 C 0.33367 0.22583 0.74285
 C710 C 0.33845 0.25450 0.72784
 C711 C 0.36421 0.25876 0.70883
 C712 C 0.38490 0.23442 0.70468
 C713 C 0.36764 0.28690 0.69342
 N714 N 0.34661 0.30910 0.69662
 N715 N 0.32212 0.30493 0.71375
 C716 C 0.31712 0.27839 0.72909
 H717 H 0.39417 0.18704 0.71490
 H718 H 0.35077 0.17954 0.74752
 H719 H 0.38638 0.29130 0.67822
 H720 H 0.29599 0.27602 0.74122
 C721 C 0.62082 0.29430 0.71409
 C722 C 0.64616 0.29951 0.73257
 C723 C 0.66452 0.27524 0.74281
 C724 C 0.65793 0.24514 0.73189
 C725 C 0.63199 0.23995 0.71285
 C726 C 0.61295 0.26474 0.70459
 C727 C 0.62677 0.21023 0.70153
 N728 N 0.64629 0.18740 0.70859
 N729 N 0.67094 0.19232 0.72575
 C730 C 0.67763 0.22034 0.73729
 H731 H 0.60674 0.31357 0.70768
 H732 H 0.65035 0.32271 0.74031
 H733 H 0.60781 0.20500 0.68653
 H734 H 0.69880 0.22303 0.74969
 C735 C 0.11517 0.79492 0.22126
 C736 C 0.13999 0.79970 0.24071
 C737 C 0.16271 0.77762 0.24370
 C738 C 0.16091 0.75058 0.22595
 C739 C 0.13574 0.74580 0.20596
 C740 C 0.11241 0.76797 0.20414
 C741 C 0.13522 0.71922 0.18785
 N742 N 0.15813 0.69875 0.19013
 N743 N 0.18162 0.70314 0.20906
 C744 C 0.18387 0.72836 0.22694
 H745 H 0.09763 0.81216 0.22000
 H746 H 0.14127 0.82061 0.25393
 H747 H 0.11711 0.71470 0.17159
 H748 H 0.20374 0.73092 0.24146
 C749 C 0.25989 0.10735 0.22879
 C750 C 0.24025 0.13193 0.22500
 C751 C 0.25133 0.16205 0.22473
 C752 C 0.28281 0.16754 0.22944
 C753 C 0.30283 0.14249 0.23322
 C754 C 0.29120 0.11217 0.23235
 C755 C 0.33383 0.14873 0.23847
 N756 N 0.34393 0.17808 0.23964
 N757 N 0.32514 0.20159 0.23616
 C758 C 0.29495 0.19735 0.23124
 H759 H 0.25066 0.08431 0.22835
 H760 H 0.21623 0.12739 0.22160
 H761 H 0.35009 0.13061 0.24203
 H762 H 0.28074 0.21734 0.22920
 C763 C 0.79601 0.63696 0.72775
 C764 C 0.77638 0.66128 0.72248
 C765 C 0.74490 0.65657 0.72088
 C766 C 0.73300 0.62654 0.72456
 C767 C 0.75296 0.60188 0.73079
 C768 C 0.78480 0.60715 0.73174
 C769 C 0.74023 0.57276 0.73625
 N770 N 0.70978 0.56846 0.73392
 N771 N 0.69119 0.59129 0.72663
 C772 C 0.70172 0.62010 0.72177
 H773 H 0.82025 0.64139 0.72838
 H774 H 0.78585 0.68407 0.71978
 H775 H 0.75410 0.55341 0.74259
 H776 H 0.68553 0.63757 0.71557
 C777 C 0.79949 0.36363 0.77141
 C778 C 0.77995 0.33909 0.77693
 C779 C 0.74843 0.34320 0.77758
 C780 C 0.73642 0.37290 0.77275
 C781 C 0.75628 0.39772 0.76609
 C782 C 0.78816 0.39307 0.76610
 C783 C 0.74339 0.42635 0.75920
 N784 N 0.71292 0.43013 0.76077
 N785 N 0.69445 0.40724 0.76859
 C786 C 0.70512 0.37884 0.77474
 H787 H 0.82375 0.35965 0.77153
 H788 H 0.78953 0.31658 0.78050
 H789 H 0.75713 0.44571 0.75232
 H790 H 0.68902 0.36131 0.78133
 C791 C 0.26372 -0.11043 0.25944
 C792 C 0.24440 -0.13541 0.26320
 C793 C 0.25571 -0.16437 0.27135
 C794 C 0.28782 -0.16832 0.27322
 C795 C 0.30751 -0.14271 0.26915
 C796 C 0.29515 -0.11340 0.26307
 C797 C 0.33908 -0.14759 0.26992
 N798 N 0.35012 -0.17615 0.27426
 N799 N 0.33178 -0.20025 0.27738
 C800 C 0.30115 -0.19741 0.27663
 H801 H 0.25391 -0.08829 0.25438
 H802 H 0.22017 -0.13151 0.26141
 H803 H 0.35518 -0.12920 0.26633
 H804 H 0.28768 -0.21811 0.27771
 C805 C 0.20711 -0.13297 0.71854
 C806 C 0.22748 -0.15611 0.71182
 C807 C 0.25905 -0.15087 0.71271
 C808 C 0.26985 -0.12051 0.71844
 C809 C 0.24891 -0.09695 0.72538
 C810 C 0.21735 -0.10356 0.72605
 C811 C 0.26019 -0.06707 0.73001
 N812 N 0.29029 -0.06114 0.72742
 N813 N 0.30982 -0.08290 0.72001
 C814 C 0.30066 -0.11215 0.71505
 H815 H 0.18303 -0.13824 0.71845
 H816 H 0.21834 -0.17877 0.70741
 H817 H 0.24539 -0.04815 0.73494
 H818 H 0.31750 -0.12822 0.70752
 C819 C 0.73860 0.39404 0.22825
 C820 C 0.75938 0.37079 0.22320
 C821 C 0.75002 0.34009 0.22228
 C822 C 0.71908 0.33267 0.22748
 C823 C 0.69786 0.35641 0.23247
 C824 C 0.70778 0.38734 0.23243
 C825 C 0.66745 0.34827 0.23807
 N826 N 0.65902 0.31838 0.23854
 N827 N 0.67893 0.29611 0.23402
 C828 C 0.70865 0.30219 0.22865
 H829 H 0.74655 0.41756 0.22835
 H830 H 0.78295 0.37685 0.21939
 H831 H 0.65038 0.36531 0.24246
 H832 H 0.72384 0.28313 0.22578
 C833 C 0.70042 0.63401 0.27261
 C834 C 0.71999 0.65860 0.27808
 C835 C 0.75066 0.65381 0.28532
 C836 C 0.76163 0.62344 0.28787
 C837 C 0.74174 0.59840 0.28203
 C838 C 0.71099 0.60390 0.27407
 C839 C 0.75318 0.56857 0.28511
 N840 N 0.78256 0.56427 0.29355
 N841 N 0.80116 0.58774 0.29931
 C842 C 0.79171 0.61712 0.29692
 H843 H 0.67688 0.63849 0.26683
 H844 H 0.71121 0.68164 0.27624
 H845 H 0.73902 0.54862 0.28123
 H846 H 0.80770 0.63515 0.30255
 C847 C 0.20097 0.13711 0.77442
 C848 C 0.21979 0.16258 0.77802
 C849 C 0.25120 0.15927 0.78221
 C850 C 0.26372 0.12948 0.78372
 C851 C 0.24454 0.10352 0.77983
 C852 C 0.21297 0.10754 0.77476
 C853 C 0.25756 0.07427 0.78189
 N854 N 0.28775 0.07140 0.78745
 N855 N 0.30573 0.09573 0.79131
 C856 C 0.29476 0.12462 0.78978
 H857 H 0.17685 0.14050 0.77076
 H858 H 0.20983 0.18517 0.77697
 H859 H 0.24402 0.05367 0.77952
 H860 H 0.31037 0.14341 0.79377
 C861 C 0.22494 0.29873 0.13768
 C862 C 0.21958 0.27952 0.16256
 C863 C 0.21520 0.24801 0.15846
 C864 C 0.21582 0.23570 0.12847
 C865 C 0.22200 0.25516 0.10319
 C866 C 0.22617 0.28704 0.10791
 C867 C 0.22430 0.24186 0.07402
 N868 N 0.21917 0.21146 0.07037
 N869 N 0.21205 0.19344 0.09390
 C870 C 0.21012 0.20450 0.12276
 H871 H 0.22803 0.32301 0.14168
 H872 H 0.21926 0.28928 0.18532
 H873 H 0.23033 0.25520 0.05409
 H874 H 0.20394 0.18881 0.14086
 C875 C 0.74369 0.78556 0.63167
 C876 C 0.73931 0.76646 0.65683
 C877 C 0.71384 0.74723 0.65840
 C878 C 0.69270 0.74663 0.63377
 C879 C 0.69731 0.76583 0.60794
 C880 C 0.72280 0.78588 0.60724
 C881 C 0.67658 0.76364 0.58332
 N882 N 0.65260 0.74408 0.58495
 N883 N 0.64808 0.72637 0.60936
 C884 C 0.66733 0.72690 0.63377
 H885 H 0.76337 0.80059 0.63144
 H886 H 0.75574 0.76695 0.67545
 H887 H 0.67936 0.77692 0.56263
 H888 H 0.66278 0.71169 0.65277
 C889 C 0.79193 0.77252 0.38997
 C890 C 0.79680 0.75219 0.36609
 C891 C 0.77640 0.75032 0.34139
 C892 C 0.75093 0.76992 0.34033
 C893 C 0.74611 0.79090 0.36451
 C894 C 0.76660 0.79176 0.38979
 C895 C 0.72133 0.81095 0.36204
 N896 N 0.70246 0.80949 0.33737
 N897 N 0.70682 0.78957 0.31487
 C898 C 0.73043 0.76984 0.31544
 H899 H 0.80789 0.77297 0.40900
 H900 H 0.81651 0.73749 0.36704
 H901 H 0.71699 0.82807 0.37920
 H902 H 0.73311 0.75454 0.29627
 C903 C 0.29279 0.28024 -0.11806
 C904 C 0.29781 0.26139 -0.14311
 C905 C 0.27576 0.25814 -0.16620
 C906 C 0.24839 0.27486 -0.16441
 C907 C 0.24327 0.29407 -0.13890
 C908 C 0.26570 0.29660 -0.11556
 C909 C 0.21550 0.30968 -0.13739
 N910 N 0.19473 0.30671 -0.16033
 N911 N 0.19979 0.28915 -0.18457
 C912 C 0.22588 0.27315 -0.18742
 H913 H 0.31010 0.28195 -0.10034
 H914 H 0.31881 0.24868 -0.14419
 H915 H 0.21006 0.32413 -0.11820
 H916 H 0.22882 0.25939 -0.20768
 C917 C 0.73037 0.20187 -0.13909
 C918 C 0.72523 0.22113 -0.16402
 C919 C 0.71827 0.25206 -0.15976
 C920 C 0.71560 0.26358 -0.12958
 C921 C 0.72119 0.24400 -0.10420
 C922 C 0.72887 0.21301 -0.10917
 C923 C 0.71821 0.25600 -0.07455
 N924 N 0.70999 0.28557 -0.07075
 N925 N 0.70437 0.30385 -0.09455
 C926 C 0.70674 0.29387 -0.12377
 H927 H 0.73600 0.17814 -0.14316
 H928 H 0.72713 0.21192 -0.18692
 H929 H 0.72201 0.24210 -0.05437
 H930 H 0.70125 0.30961 -0.14209
 C931 C 0.22802 0.70188 0.36160
 C932 C 0.22355 0.72073 0.33623
 C933 C 0.21994 0.75235 0.33968
 C934 C 0.22008 0.76511 0.36950
 C935 C 0.22482 0.74590 0.39534
 C936 C 0.22912 0.71408 0.39118
 C937 C 0.22429 0.75915 0.42463
 N938 N 0.21940 0.78958 0.42765
 N939 N 0.21478 0.80757 0.40343
 C940 C 0.21480 0.79640 0.37452
 H941 H 0.23102 0.67756 0.35812
 H942 H 0.22332 0.71061 0.31362
 H943 H 0.22736 0.74561 0.44516
 H944 H 0.21027 0.81203 0.35584
 C945 C 0.27539 0.70594 0.63565
 C946 C 0.28106 0.72641 0.65945
 C947 C 0.28708 0.75736 0.65341
 C948 C 0.28816 0.76771 0.62262
 C949 C 0.28216 0.74690 0.59842
 C950 C 0.27546 0.71586 0.60515
 C951 C 0.28384 0.75777 0.56813
 N952 N 0.29107 0.78748 0.56264
 N953 N 0.29694 0.80696 0.58533
 C954 C 0.29588 0.79810 0.61507
 H955 H 0.27058 0.68220 0.64107
 H956 H 0.28043 0.71811 0.68283
 H957 H 0.27981 0.74292 0.54876
 H958 H 0.30149 0.81483 0.63242
 C959 C 0.78168 0.20619 0.13421
 C960 C 0.78602 0.22586 0.15888
 C961 C 0.78865 0.25751 0.15435
 C962 C 0.78773 0.26949 0.12416
 C963 C 0.78323 0.24945 0.09902
 C964 C 0.77978 0.21759 0.10426
 C965 C 0.78312 0.26198 0.06931
 N966 N 0.78706 0.29251 0.06527
 N967 N 0.79135 0.31131 0.08886
 C968 C 0.79195 0.30087 0.11811
 H969 H 0.77927 0.18187 0.13854
 H970 H 0.78689 0.21635 0.18180
 H971 H 0.78032 0.24780 0.04924
 H972 H 0.79611 0.31716 0.13626
 C973 C 0.45490 0.36590 0.52534
 C974 C 0.45069 0.39142 0.50664
 C975 C 0.47276 0.41461 0.50526
 C976 C 0.49924 0.41244 0.52383
 C977 C 0.50360 0.38638 0.54277
 C978 C 0.48133 0.36280 0.54314
 C979 C 0.52985 0.38520 0.56136
 N980 N 0.55027 0.40856 0.56079
 N981 N 0.54610 0.43308 0.54313
 C982 C 0.52127 0.43589 0.52477
 H983 H 0.43756 0.34819 0.52563
 H984 H 0.43023 0.39289 0.49274
 H985 H 0.53419 0.36617 0.57660
 H986 H 0.51877 0.45663 0.51151
 C987 C -0.00880 0.87928 0.03672
 C988 C -0.01307 0.90315 0.01595
 C989 C -0.03791 0.90308 -0.00433
 C990 C -0.05878 0.87825 -0.00376
 C991 C -0.05486 0.85430 0.01788
 C992 C -0.02928 0.85463 0.03790
 C993 C -0.07700 0.83095 0.01895
 N994 N -0.10050 0.83094 -0.00134
 N995 N -0.10341 0.85271 -0.02253
 C996 C -0.08332 0.87626 -0.02451
 H997 H 0.01087 0.87988 0.05180
 H998 H 0.00309 0.92197 0.01578
 H999 H -0.07603 0.81283 0.03581
 H1000 H -0.08653 0.89298 -0.04248
 C1001 C 0.02507 0.63669 0.02023
 C1002 C 0.02892 0.61197 0.00067
 C1003 C 0.02040 0.58238 0.00965
 C1004 C 0.00738 0.57764 0.03882
 C1005 C 0.00341 0.60283 0.05873
 C1006 C 0.01232 0.63255 0.04919
 C1007 C -0.00904 0.59730 0.08776
 N1008 N -0.01746 0.56851 0.09587
 N1009 N -0.01422 0.54493 0.07697
 C1010 C -0.00213 0.54850 0.04874
 H1011 H 0.03195 0.65931 0.01266
 H1012 H 0.03894 0.61588 -0.02157
 H1013 H -0.01205 0.61552 0.10410
 H1014 H -0.00020 0.52856 0.03432
 C1015 C 0.54427 0.13680 0.52488
 C1016 C 0.54988 0.11275 0.50497
 C1017 C 0.52883 0.08884 0.50135
 C1018 C 0.50193 0.08873 0.51894
 C1019 C 0.49619 0.11328 0.53920
 C1020 C 0.51742 0.13769 0.54177
 C1021 C 0.46965 0.11212 0.55686
 N1022 N 0.45021 0.08807 0.55412
 N1023 N 0.45562 0.06501 0.53514
 C1024 C 0.48082 0.06443 0.51758
 H1025 H 0.56082 0.15518 0.52678
 H1026 H 0.57062 0.11306 0.49182
 H1027 H 0.46433 0.12985 0.57309
 H1028 H 0.48427 0.04479 0.50310
 C1029 C -0.04520 0.13605 0.48017
 C1030 C -0.05005 0.11139 0.49985
 C1031 C -0.03060 0.08617 0.49981
 C1032 C -0.00634 0.08536 0.47875
 C1033 C -0.00136 0.11051 0.45875
 C1034 C -0.02076 0.13623 0.45989
 C1035 C 0.02250 0.10865 0.43766
 N1036 N 0.04017 0.08339 0.43695
 N1037 N 0.03543 0.05977 0.45567
 C1038 C 0.01274 0.05982 0.47641
 H1039 H -0.06037 0.15543 0.48112
 H1040 H -0.06885 0.11220 0.51563
 H1041 H 0.02707 0.12682 0.42147
 H1042 H 0.00955 0.03971 0.49048
 C1043 C 0.49580 0.62037 0.96397
 C1044 C 0.49122 0.59492 0.98267
 C1045 C 0.46529 0.59246 1.00081
 C1046 C 0.44388 0.61650 1.00068
 C1047 C 0.44864 0.64257 0.98182
 C1048 C 0.47466 0.64419 0.96295
 C1049 C 0.42755 0.66655 0.98321
 N1050 N 0.40316 0.66415 1.00178
 N1051 N 0.39856 0.63957 1.01926
 C1052 C 0.41810 0.61574 1.01944
 H1053 H 0.51589 0.62135 0.94988
 H1054 H 0.50788 0.57680 0.98276
 H1055 H 0.43037 0.68735 0.97007
 H1056 H 0.41345 0.59663 1.03450
 C1057 C 0.53740 0.88580 0.95745
 C1058 C 0.54365 0.91000 0.97716
 C1059 C 0.54016 0.90688 1.00899
 C1060 C 0.53234 0.87748 1.02104
 C1061 C 0.52603 0.85278 1.00077
 C1062 C 0.52787 0.85735 0.96869
 C1063 C 0.51943 0.82383 1.01340
 N1064 N 0.51946 0.81985 1.04415
 N1065 N 0.52613 0.84269 1.06316
 C1066 C 0.53292 0.87114 1.05273
 H1067 H 0.53938 0.88955 0.93302
 H1068 H 0.54968 0.93189 0.96710
 H1069 H 0.51498 0.80408 0.99921
 H1070 H 0.53966 0.88813 1.06939
 C1071 C 0.02419 0.35973 0.48940
 C1072 C 0.02799 0.38576 0.50739
 C1073 C 0.02642 0.41506 0.49436
 C1074 C 0.02004 0.41816 0.46262
 C1075 C 0.01636 0.39165 0.44429
 C1076 C 0.01881 0.36227 0.45787
 C1077 C 0.00960 0.39548 0.41297
 N1078 N 0.00676 0.42398 0.40100
 N1079 N 0.00999 0.44888 0.41824
 C1080 C 0.01638 0.44697 0.44860
 H1081 H 0.02583 0.33739 0.50008
 H1082 H 0.03258 0.38304 0.53165
 H1083 H 0.00621 0.37613 0.39794
 H1084 H 0.01812 0.46798 0.46149
 C1085 C 0.35822 0.51344 0.47706
 C1086 C 0.38313 0.49446 0.47304
 C1087 C 0.41277 0.50633 0.47384
 C1088 C 0.41739 0.53795 0.47967
 C1089 C 0.39199 0.55730 0.48357
 C1090 C 0.36221 0.54487 0.48189
 C1091 C 0.39733 0.58845 0.48982
 N1092 N 0.42619 0.59931 0.49196
 N1093 N 0.45003 0.58112 0.48850
 C1094 C 0.44665 0.55085 0.48258
 H1095 H 0.33558 0.50360 0.47598
 H1096 H 0.37924 0.47032 0.46886
 H1097 H 0.37890 0.60421 0.49339
 H1098 H 0.46687 0.53716 0.48066
 C1099 C 0.88645 0.04676 -0.03246
 C1100 C 0.90962 0.02621 -0.03841
 C1101 C 0.90428 -0.00561 -0.03842
 C1102 C 0.87385 -0.01636 -0.03447
 C1103 C 0.85032 0.00474 -0.02806
 C1104 C 0.85697 0.03647 -0.02648
 C1105 C 0.82049 -0.00653 -0.02481
 N1106 N 0.81454 -0.03676 -0.02844
 N1107 N 0.83627 -0.05639 -0.03558
 C1108 C 0.86549 -0.04722 -0.03912
 H1109 H 0.89175 0.07100 -0.03181
 H1110 H 0.93231 0.03540 -0.04138
 H1111 H 0.80166 0.00841 -0.02015
 H1112 H 0.88158 -0.06399 -0.04662
 C1113 C 0.61901 0.05000 0.02408
 C1114 C 0.59469 0.03019 0.02933
 C1115 C 0.59962 -0.00053 0.03710
 C1116 C 0.62982 -0.01124 0.04051
 C1117 C 0.65456 0.00888 0.03484
 C1118 C 0.64895 0.03963 0.02629
 C1119 C 0.68424 -0.00232 0.03861
 N1120 N 0.68866 -0.03169 0.04761
 N1121 N 0.66546 -0.05050 0.05327
 C1122 C 0.63625 -0.04128 0.05018
 H1123 H 0.61445 0.07354 0.01779
 H1124 H 0.57177 0.03878 0.02688
 H1125 H 0.70396 0.01203 0.03482
 H1126 H 0.61842 -0.05742 0.05574
 C1127 C 0.13894 0.51473 0.51416
 C1128 C 0.11334 0.49617 0.51701
 C1129 C 0.08442 0.50873 0.52175
 C1130 C 0.08146 0.54125 0.52129
 C1131 C 0.10775 0.56012 0.51847
 C1132 C 0.13674 0.54659 0.51556
 C1133 C 0.10397 0.59208 0.51718
 N1134 N 0.07578 0.60422 0.51818
 N1135 N 0.05109 0.58662 0.51985
 C1136 C 0.05292 0.55570 0.52101
 H1137 H 0.16089 0.50404 0.51147
 H1138 H 0.11657 0.47161 0.51708
 H1139 H 0.12299 0.60757 0.51463
 H1140 H 0.03195 0.54283 0.52060
 C1141 C 0.13392 0.48276 -0.01171
 C1142 C 0.10913 0.50199 -0.01564
 C1143 C 0.07969 0.48999 -0.01899
 C1144 C 0.07510 0.45788 -0.01720
 C1145 C 0.10042 0.43828 -0.01342
 C1146 C 0.13006 0.45095 -0.01116
 C1147 C 0.09510 0.40657 -0.01138
 N1148 N 0.06632 0.39542 -0.01303
 N1149 N 0.04254 0.41382 -0.01638
 C1150 C 0.04591 0.44462 -0.01839
 H1151 H 0.15645 0.49277 -0.00982
 H1152 H 0.11303 0.52647 -0.01683
 H1153 H 0.11347 0.39057 -0.00811
 H1154 H 0.02571 0.45841 -0.02044
 C1155 C 0.61597 0.95445 0.46555
 C1156 C 0.59182 0.97404 0.45993
 C1157 C 0.59492 1.00586 0.46384
 C1158 C 0.62420 1.01803 0.47147
 C1159 C 0.64887 0.99786 0.47712
 C1160 C 0.64436 0.96578 0.47485
 C1161 C 0.67770 1.01059 0.48350
 N1162 N 0.68159 1.04135 0.48389
 N1163 N 0.65877 1.06028 0.47782
 C1164 C 0.63044 1.04975 0.47127
 H1165 H 0.61225 0.93002 0.46330
 H1166 H 0.57001 0.96391 0.45404
 H1167 H 0.69740 0.99648 0.48744
 H1168 H 0.61344 1.06636 0.46499
 C1169 C 0.88204 0.95108 0.53661
 C1170 C 0.90686 0.97027 0.54184
 C1171 C 0.90427 1.00228 0.53945
 C1172 C 0.87487 1.01493 0.53406
 C1173 C 0.84957 0.99518 0.52867
 C1174 C 0.85352 0.96301 0.52915
 C1175 C 0.82075 1.00833 0.52426
 N1176 N 0.81746 1.03909 0.52561
 N1177 N 0.84090 1.05757 0.53154
 C1178 C 0.86929 1.04660 0.53618
 H1179 H 0.88534 0.92655 0.53750
 H1180 H 0.92870 0.95971 0.54600
 H1181 H 0.80063 0.99450 0.52052
 H1182 H 0.88691 1.06276 0.54245
 C1183 C 0.36159 0.47354 0.04137
 C1184 C 0.38656 0.49257 0.04666
 C1185 C 0.40957 0.49547 0.02492
 C1186 C 0.40758 0.47839 -0.00256
 C1187 C 0.38203 0.45912 -0.00804
 C1188 C 0.35896 0.45667 0.01426
 C1189 C 0.38025 0.44329 -0.03599
 N1190 N 0.40304 0.44594 -0.05649
 N1191 N 0.42739 0.46337 -0.05099
 C1192 C 0.43048 0.47963 -0.02475
 H1193 H 0.34414 0.47191 0.05861
 H1194 H 0.38774 0.50552 0.06775
 H1195 H 0.36095 0.42897 -0.04182
 H1196 H 0.45086 0.49320 -0.02145
 C1197 C 0.51000 0.47555 0.35793
 C1198 C 0.49121 0.47219 0.38320
 C1199 C 0.50292 0.47502 0.41299
 C1200 C 0.53408 0.48235 0.41736
 C1201 C 0.55325 0.48552 0.39164
 C1202 C 0.54105 0.48171 0.36176
 C1203 C 0.58398 0.49316 0.39673
 N1204 N 0.59459 0.49731 0.42566
 N1205 N 0.57653 0.49458 0.44979
 C1206 C 0.54667 0.48739 0.44664
 H1207 H 0.50035 0.47287 0.33519
 H1208 H 0.46739 0.46685 0.37952
 H1209 H 0.59960 0.49621 0.37801
 H1210 H 0.53299 0.48620 0.46699
 C1211 C 0.01131 -0.02599 0.85610
 C1212 C -0.00919 -0.03088 0.87968
 C1213 C 0.00061 -0.03145 0.91029
 C1214 C 0.03175 -0.02622 0.91725
 C1215 C 0.05268 -0.02143 0.89316
 C1216 C 0.04228 -0.02165 0.86236
 C1217 C 0.08331 -0.01578 0.90083
 N1218 N 0.09221 -0.01506 0.93061
 N1219 N 0.07256 -0.01937 0.95321
 C1220 C 0.04267 -0.02477 0.94759
 H1221 H 0.00301 -0.02600 0.83267
 H1222 H -0.03291 -0.03471 0.87397
 H1223 H 0.10019 -0.01158 0.88349
 H1224 H 0.02774 -0.02744 0.96691
 C1225 C 0.01225 0.02364 0.64605
 C1226 C -0.00766 0.02788 0.62148
 C1227 C 0.00235 0.02531 0.59125
 C1228 C 0.03306 0.01758 0.58578
 C1229 C 0.05343 0.01365 0.61083
 C1230 C 0.04284 0.01694 0.64114
 C1231 C 0.08368 0.00581 0.60469
 N1232 N 0.09272 0.00202 0.57538
 N1233 N 0.07354 0.00533 0.55188
 C1234 C 0.04404 0.01281 0.55606
 H1235 H 0.00384 0.02601 0.66914
 H1236 H -0.03107 0.03363 0.62610
 H1237 H 0.10015 0.00236 0.62288
 H1238 H 0.02941 0.01445 0.53617
 C1239 C 0.54688 0.52102 0.11189
 C1240 C 0.52738 0.52590 0.08710
 C1241 C 0.49618 0.52981 0.09147
 C1242 C 0.48452 0.52961 0.12162
 C1243 C 0.50439 0.52457 0.14688
 C1244 C 0.53577 0.51986 0.14180
 C1245 C 0.49224 0.52526 0.17653
 N1246 N 0.46221 0.53044 0.18042
 N1247 N 0.44358 0.53523 0.15674
 C1248 C 0.45369 0.53514 0.12753
 H1249 H 0.57085 0.51772 0.10770
 H1250 H 0.53665 0.52626 0.06422
 H1251 H 0.50632 0.52212 0.19668
 H1252 H 0.43757 0.53980 0.10932
 C1253 C 0.48037 -0.04100 0.13975
 C1254 C 0.50112 -0.04633 0.11660
 C1255 C 0.50361 -0.02618 0.09177
 C1256 C 0.48431 -0.00042 0.08991
 C1257 C 0.46296 0.00490 0.11341
 C1258 C 0.46133 -0.01545 0.13872
 C1259 C 0.44330 0.02998 0.11021
 N1260 N 0.44540 0.04862 0.08543
 N1261 N 0.46558 0.04375 0.06353
 C1262 C 0.48499 0.01983 0.06483
 H1263 H 0.47931 -0.05687 0.15883
 H1264 H 0.51559 -0.06623 0.11818
 H1265 H 0.42602 0.03476 0.12687
 H1266 H 0.50050 0.01673 0.04609
 C1267 C 0.97685 0.46328 0.63284
 C1268 C 0.99535 0.45873 0.60763
 C1269 C 0.99444 0.47885 0.58264
 C1270 C 0.97422 0.50391 0.58293
 C1271 C 0.95564 0.50878 0.60878
 C1272 C 0.95682 0.48802 0.63377
 C1273 C 0.93679 0.53464 0.60885
 N1274 N 0.93588 0.55351 0.58416
 N1275 N 0.95257 0.54835 0.55950
 C1276 C 0.97163 0.52418 0.55800
 H1277 H 0.97800 0.44720 0.65174
 H1278 H 1.01070 0.43946 0.60768
 H1279 H 0.92290 0.54016 0.62830
 H1280 H 0.98436 0.52092 0.53727
 C1281 C 0.94794 0.52000 0.88780
 C1282 C 0.96598 0.52441 0.91377
 C1283 C 0.99746 0.52836 0.91140
 C1284 C 1.01097 0.52830 0.88206
 C1285 C 0.99267 0.52314 0.85562
 C1286 C 0.96080 0.51934 0.85862
 C1287 C 1.00708 0.52145 0.82708
 N1288 N 1.03747 0.52613 0.82514
 N1289 N 1.05443 0.53224 0.84978
 C1290 C 1.04226 0.53357 0.87812
 H1291 H 0.92365 0.51716 0.89049
 H1292 H 0.95531 0.52433 0.93601
 H1293 H 0.99460 0.51624 0.80631
 H1294 H 1.05714 0.53893 0.89720
 C1295 C 0.46459 0.00304 0.37853
 C1296 C 0.48411 0.00772 0.40337
 C1297 C 0.50288 0.03366 0.40473
 C1298 C 0.50262 0.05492 0.38020
 C1299 C 0.48297 0.05003 0.35476
 C1300 C 0.46339 0.02409 0.35429
 C1301 C 0.48420 0.07095 0.33023
 N1302 N 0.50337 0.09534 0.33159
 N1303 N 0.52156 0.10009 0.35565
 C1304 C 0.52193 0.08071 0.37994
 H1305 H 0.44994 -0.01699 0.37842
 H1306 H 0.48432 -0.00882 0.42190
 H1307 H 0.47046 0.06799 0.30981
 H1308 H 0.53751 0.08548 0.39862
   
