data_POSCAR
  _audit_creation_date              2014-09-24
  _audit_creation_method            'ToBaCCo'
  _symmetry_space_group_name_H-M    'P1'
  _symmetry_Int_Tables_number       1
  _symmetry_cell_setting            triclinic
  loop_
  _symmetry_equiv_pos_as_xyz
 x,y,z
_cell_length_a 45.4521
_cell_length_b 45.6313
_cell_length_c 45.5809
_cell_angle_alpha 91.845700
_cell_angle_beta 87.908100
_cell_angle_gamma 91.120200
loop_
  _atom_site_label
  _atom_site_type_symbol
  _atom_site_fract_x
  _atom_site_fract_y
  _atom_site_fract_z
C1 C 0.12429 -0.01010 0.24988
 C2 C 0.37156 0.00786 0.75928
 C3 C 0.87584 0.50685 0.25693
 C4 C 0.62728 0.49416 0.74589
 C5 C 0.25409 0.12650 0.99528
 C6 C 0.74587 0.37541 0.99955
 C7 C 0.23752 0.87263 0.49831
 C8 C 0.75632 0.62577 0.49628
 C9 C 0.00188 0.25473 0.12379
 C10 C -0.00041 0.74804 0.37355
 C11 C 0.49703 0.24694 0.87546
 C12 C 0.50841 0.74784 0.62437
 C13 C 0.87398 0.99855 0.75817
 C14 C 0.37629 0.49409 0.25412
 C15 C 0.62238 1.00166 0.25073
 C16 C 0.12613 0.50340 0.74800
 C17 C 0.74960 0.87686 0.00423
 C18 C 0.25148 0.37225 0.50197
 C19 C 0.25062 0.62728 -0.00887
 C20 C 0.74214 0.12545 0.49226
 C21 C 1.00011 0.74773 0.87674
 C22 C 0.49261 0.23947 0.37608
 C23 C 1.00562 0.25588 0.62297
 C24 C 0.50743 0.75471 0.12273
 O25 O 0.00279 1.06827 1.05693
 O26 O -0.04481 1.04741 1.06567
 O27 O 0.05709 0.99196 1.06634
 O28 O 0.06335 0.94869 1.04425
 O29 O 0.07353 1.05072 0.99345
 O30 O 0.04995 1.05696 0.94853
 O31 O -0.02320 0.91825 0.98892
 O32 O -0.00814 0.91863 1.03757
 O33 O -0.08104 0.99021 0.98596
 O34 O -0.07714 1.04215 0.99876
 O35 O -0.01372 0.97911 0.92013
 O36 O 0.03897 0.98838 0.91769
 O37 O 0.00139 0.93252 0.94724
 O38 O 0.05161 0.95374 0.93895
 O39 O -0.05216 1.00598 0.93856
 O40 O -0.05418 1.05525 0.96356
 O41 O -0.06745 0.94914 1.00863
 O42 O -0.04539 0.94353 1.05557
 O43 O 0.02754 1.08258 1.01531
 O44 O 0.01451 1.08108 0.96506
 O45 O 0.08727 1.01018 1.01693
 O46 O 0.08144 0.95854 1.00144
 O47 O 0.01923 1.01973 1.08475
 O48 O -0.03252 1.01000 1.08635
 Zr49 Zr -0.00805 1.02380 1.04877
 O50 O -0.03848 0.99862 1.02446
 Zr51 Zr 0.04816 0.98493 1.02168
 O52 O 0.01999 0.95765 0.99667
 Zr53 Zr 0.02808 1.04445 0.98804
 O54 O -0.00051 1.01977 0.96114
 Zr55 Zr -0.02247 0.95613 1.01644
 O56 O 0.00670 0.98040 1.04360
 Zr57 Zr -0.04204 1.01569 0.98252
 O58 O -0.01432 1.04319 1.00821
 Zr59 Zr 0.01415 0.97645 0.95580
 O60 O 0.04491 1.00226 0.97971
 O61 O 0.03390 1.02763 1.02929
 O62 O -0.02817 0.97265 0.97484
 C63 C 0.01592 1.08757 1.04102
 C64 C 0.04314 1.00571 1.08738
 C65 C 0.09280 1.03470 1.00467
 C66 C -0.01233 0.91339 0.96289
 C67 C -0.08652 0.96510 0.99698
 C68 C -0.03832 0.99193 0.91769
 H69 H -0.05767 0.99848 1.03535
 H70 H -0.00158 1.02947 0.94215
 H71 H 0.04747 1.03971 1.04140
 H72 H 0.02843 0.93786 0.99464
 H73 H 0.00436 0.92574 1.05377
 H74 H 0.05124 0.93143 1.03830
 H75 H -0.04075 1.05862 0.94638
 H76 H -0.00527 1.08617 0.97326
 H77 H -0.05924 0.95918 1.06174
 H78 H -0.02693 0.98950 1.08945
 H79 H 0.03280 1.00814 0.91242
 H80 H 0.06156 1.03989 0.94131
 H81 H -0.05090 1.06000 1.04976
 H82 H -0.08336 1.03520 1.01840
 H83 H 0.08711 0.96742 0.98247
 H84 H 0.05514 0.93747 0.95214
 O85 O 0.49040 0.47364 0.41547
 O86 O 0.54157 0.48576 0.41366
 O87 O 0.48631 0.41163 0.48628
 O88 O 0.49279 0.41160 0.53354
 O89 O 0.42170 0.48263 0.48261
 O90 O 0.42418 0.53326 0.49501
 O91 O 0.56131 0.49200 0.56172
 O92 O 0.56403 0.44448 0.53998
 O93 O 0.57379 0.54876 0.49007
 O94 O 0.54971 0.55480 0.44419
 O95 O 0.50445 0.56276 0.55314
 O96 O 0.45596 0.54043 0.56204
 O97 O 0.52143 0.51683 0.58006
 O98 O 0.46827 0.50454 0.58144
 O99 O 0.52861 0.57781 0.51154
 O100 O 0.51428 0.57580 0.45954
 O101 O 0.58942 0.50928 0.51402
 O102 O 0.58829 0.45804 0.50061
 O103 O 0.45101 0.49944 0.43356
 O104 O 0.44720 0.54702 0.45744
 O105 O 0.43696 0.44225 0.50537
 O106 O 0.46112 0.44038 0.55312
 O107 O 0.50945 0.42655 0.44405
 O108 O 0.55608 0.44983 0.43524
 Zr109 Zr 0.51793 0.47157 0.45158
 O110 O 0.54700 0.49858 0.47563
 Zr111 Zr 0.48213 0.45032 0.51229
 O112 O 0.51026 0.47593 0.53895
 Zr113 Zr 0.46012 0.50859 0.47785
 O114 O 0.48665 0.53688 0.50347
 Zr115 Zr 0.55161 0.48200 0.51768
 O116 O 0.52479 0.45306 0.49250
 Zr117 Zr 0.52890 0.54021 0.48353
 O118 O 0.50135 0.51432 0.45613
 Zr119 Zr 0.49350 0.51847 0.54431
 O120 O 0.46365 0.49188 0.52005
 O121 O 0.47603 0.46636 0.47082
 O122 O 0.53561 0.52428 0.52522
 C123 C 0.46560 0.48607 0.41272
 C124 C 0.49788 0.40683 0.46053
 C125 C 0.41708 0.45772 0.49429
 C126 C 0.54662 0.50516 0.58263
 C127 C 0.59369 0.53408 0.50193
 C128 C 0.51769 0.58226 0.53760
 H129 H 0.56600 0.49980 0.46447
 H130 H 0.47713 0.55614 0.50570
 H131 H 0.46316 0.45337 0.45882
 H132 H 0.51209 0.46625 0.55787
 H133 H 0.55537 0.42724 0.52946
 H134 H 0.50976 0.41644 0.54588
 H135 H 0.49629 0.58347 0.46969
 H136 H 0.46323 0.55213 0.44310
 H137 H 0.59372 0.46525 0.48088
 H138 H 0.56238 0.43732 0.45112
 H139 H 0.45042 0.55510 0.54782
 H140 H 0.42080 0.52745 0.51561
 H141 H 0.53501 0.50589 0.41022
 H142 H 0.56367 0.53957 0.43708
 H143 H 0.44582 0.45527 0.55721
 H144 H 0.47675 0.48612 0.58791
 O145 O 0.42543 -0.06213 0.50048
 O146 O 0.44891 -0.06998 0.45353
 O147 O 0.50090 -0.07028 0.55628
 O148 O 0.54299 -0.04696 0.56378
 O149 O 0.43805 0.00018 0.57194
 O150 O 0.43123 0.04556 0.54882
 O151 O 0.57425 0.01027 0.47827
 O152 O 0.57534 -0.03861 0.49405
 O153 O 0.50463 0.01120 0.41930
 O154 O 0.45288 -0.00292 0.42179
 O155 O 0.50960 0.07688 0.48732
 O156 O 0.49856 0.07795 0.53997
 O157 O 0.55733 0.05125 0.50258
 O158 O 0.53444 0.05825 0.55231
 O159 O 0.48529 0.05798 0.44806
 O160 O 0.43730 0.03147 0.44447
 O161 O 0.54598 -0.01069 0.43386
 O162 O 0.55315 -0.05680 0.45567
 O163 O 0.40868 -0.02120 0.52507
 O164 O 0.40878 0.02898 0.51303
 O165 O 0.47914 -0.02226 0.58642
 O166 O 0.53023 -0.00480 0.58213
 O167 O 0.47478 -0.08893 0.51806
 O168 O 0.48639 -0.08989 0.46675
 Zr169 Zr 0.47031 -0.05290 0.49095
 O170 O 0.49593 -0.02768 0.46142
 Zr171 Zr 0.50618 -0.02542 0.54802
 O172 O 0.53363 0.00073 0.52082
 Zr173 Zr 0.44594 0.00672 0.52689
 O174 O 0.47065 0.03449 0.49903
 Zr175 Zr 0.53757 -0.01858 0.47850
 O176 O 0.51310 -0.04673 0.50667
 Zr177 Zr 0.47726 0.01369 0.45758
 O178 O 0.44957 -0.01288 0.48449
 Zr179 Zr 0.51329 0.04098 0.51473
 O180 O 0.48725 0.01600 0.54468
 O181 O 0.46416 -0.03406 0.53281
 O182 O 0.51955 0.02249 0.47252
 C183 C 0.40496 -0.04674 0.51308
 C184 C 0.48837 -0.09146 0.54201
 C185 C 0.45382 -0.01085 0.59141
 C186 C 0.57760 0.03641 0.48900
 C187 C 0.53037 0.00064 0.41447
 C188 C 0.49755 0.07917 0.46252
 H189 H 0.49731 -0.03840 0.44226
 H190 H 0.46009 0.05311 0.49788
 H191 H 0.45196 -0.04668 0.54590
 H192 H 0.55311 0.00330 0.52962
 H193 H 0.56830 -0.05535 0.50589
 H194 H 0.56060 -0.03988 0.55254
 H195 H 0.43249 0.04825 0.45797
 H196 H 0.40485 0.02129 0.49297
 H197 H 0.53772 -0.06410 0.44242
 H198 H 0.50685 -0.09257 0.47277
 H199 H 0.47884 0.08283 0.53327
 H200 H 0.44740 0.05263 0.56136
 H201 H 0.43586 -0.05442 0.44725
 H202 H 0.46091 -0.02225 0.41568
 H203 H 0.52043 0.01393 0.58742
 H204 H 0.55087 0.04523 0.55633
 O205 O 0.00454 0.43564 1.05322
 O206 O 0.05137 0.45919 1.05676
 O207 O -0.05329 0.50907 1.07081
 O208 O -0.06278 0.55114 1.05084
 O209 O -0.06966 0.44674 0.99838
 O210 O -0.04762 0.43959 0.95071
 O211 O 0.01981 0.58350 0.98606
 O212 O 0.00624 0.58478 1.03623
 O213 O 0.08082 0.51492 0.97476
 O214 O 0.08031 0.46333 0.98653
 O215 O 0.01002 0.51936 0.91706
 O216 O -0.04227 0.50739 0.92077
 O217 O -0.00582 0.56632 0.94693
 O218 O -0.05536 0.54260 0.94412
 O219 O 0.05077 0.49557 0.93028
 O220 O 0.05672 0.44767 0.95355
 O221 O 0.06590 0.55600 1.00028
 O222 O 0.04532 0.56243 1.04981
 O223 O -0.02128 0.41827 1.01426
 O224 O -0.01028 0.41816 0.96261
 O225 O -0.08468 0.48745 1.02448
 O226 O -0.08230 0.53855 1.00983
 O227 O -0.01310 0.48425 1.08399
 O228 O 0.03803 0.49683 1.07985
 Zr229 Zr 0.01269 0.48016 1.04486
 O230 O 0.04053 0.50587 1.01778
 Zr231 Zr -0.04677 0.51483 1.02545
 O232 O -0.02131 0.54251 0.99795
 Zr233 Zr -0.02489 0.45504 0.98797
 O234 O 0.00104 0.48006 0.95847
 Zr235 Zr 0.02177 0.54704 1.01284
 O236 O -0.00474 0.52245 1.04266
 Zr237 Zr 0.04319 0.48723 0.97506
 O238 O 0.01821 0.45938 1.00316
 Zr239 Zr -0.01622 0.52229 0.95601
 O240 O -0.04438 0.49590 0.98273
 O241 O -0.02981 0.47332 1.03021
 O242 O 0.02658 0.52909 0.97022
 C243 C -0.00841 0.41504 1.03850
 C244 C -0.03768 0.49692 1.08976
 C245 C -0.08936 0.46221 1.01209
 C246 C 0.00787 0.58665 0.96133
 C247 C 0.08533 0.54067 0.98604
 C248 C 0.03518 0.50782 0.91143
 H249 H 0.06011 0.50749 1.02647
 H250 H 0.00178 0.46961 0.93914
 H251 H -0.04219 0.46108 1.04352
 H252 H -0.03080 0.56178 0.99739
 H253 H -0.00520 0.57784 1.05366
 H254 H -0.05225 0.56882 1.04366
 H255 H 0.04255 0.44269 0.93811
 H256 H 0.01004 0.41445 0.96848
 H257 H 0.06048 0.54797 1.05380
 H258 H 0.03131 0.51705 1.08432
 H259 H -0.03513 0.48787 0.91409
 H260 H -0.06049 0.45566 0.94527
 H261 H 0.05732 0.44617 1.03987
 H262 H 0.08700 0.47146 1.00557
 H263 H -0.08808 0.52876 0.99115
 H264 H -0.05906 0.55928 0.95808
 O265 O 0.02574 0.42077 0.51241
 O266 O 0.01426 0.42015 0.46208
 O267 O 0.08999 0.49154 0.51747
 O268 O 0.09224 0.53888 0.50916
 O269 O 0.01763 0.48631 0.58312
 O270 O -0.03280 0.49671 0.58299
 O271 O 0.01317 0.56834 0.44621
 O272 O 0.06007 0.54759 0.44089
 O273 O -0.04693 0.49771 0.43494
 O274 O -0.05512 0.45108 0.45644
 O275 O -0.05910 0.55739 0.50655
 O276 O -0.03600 0.56505 0.55392
 O277 O -0.01218 0.58513 0.48714
 O278 O 0.00015 0.58592 0.53943
 O279 O -0.07557 0.51620 0.48242
 O280 O -0.07437 0.46286 0.49488
 O281 O -0.00593 0.52226 0.41823
 O282 O 0.04522 0.50840 0.41655
 O283 O 0.00040 0.43733 0.55348
 O284 O -0.04721 0.45984 0.55946
 O285 O 0.05906 0.51048 0.56684
 O286 O 0.06399 0.55797 0.54326
 O287 O 0.07404 0.45023 0.49306
 O288 O 0.05121 0.44345 0.44642
 Zr289 Zr 0.02931 0.45768 0.48591
 O290 O 0.00314 0.48207 0.45878
 Zr291 Zr 0.05232 0.51759 0.52214
 O292 O 0.02783 0.54464 0.49591
 Zr293 Zr -0.00782 0.48158 0.54570
 O294 O -0.03503 0.50764 0.52128
 Zr295 Zr 0.02149 0.52438 0.45453
 O296 O 0.04952 0.49898 0.47930
 Zr297 Zr -0.03862 0.48892 0.47885
 O298 O -0.01376 0.46102 0.50431
 Zr299 Zr -0.01489 0.54891 0.51466
 O300 O 0.01058 0.52412 0.54253
 O301 O 0.03454 0.47579 0.52791
 O302 O -0.02090 0.53092 0.47257
 C303 C 0.01331 0.41719 0.53780
 C304 C 0.09408 0.46615 0.50522
 C305 C 0.04275 0.49877 0.58703
 C306 C -0.00000 0.58846 0.46160
 C307 C -0.03160 0.51071 0.41488
 C308 C -0.07924 0.54185 0.49421
 H309 H 0.00158 0.47159 0.43959
 H310 H -0.05436 0.50923 0.53180
 H311 H 0.04688 0.46379 0.54016
 H312 H 0.03821 0.56376 0.49403
 H313 H 0.07697 0.53699 0.44827
 H314 H 0.08764 0.55257 0.49366
 H315 H -0.08267 0.47278 0.51286
 H316 H -0.05203 0.44530 0.54369
 H317 H 0.03671 0.48911 0.41059
 H318 H 0.06492 0.45955 0.44064
 H319 H -0.05185 0.55091 0.55944
 H320 H -0.02679 0.51745 0.58656
 H321 H -0.00637 0.41651 0.46895
 H322 H -0.03920 0.44364 0.44301
 H323 H 0.04846 0.56219 0.55853
 H324 H 0.01886 0.59293 0.53008
 O325 O 0.52142 0.92013 0.01387
 O326 O 0.51133 0.91963 -0.03665
 O327 O 0.58536 0.99234 0.01919
 O328 O 0.58658 1.03971 0.01040
 O329 O 0.51349 0.98596 0.08483
 O330 O 0.46265 0.99594 0.08462
 O331 O 0.50763 1.06759 -0.05199
 O332 O 0.55499 1.04725 -0.05722
 O333 O 0.44866 0.99583 -0.06357
 O334 O 0.44287 0.94736 -0.04081
 O335 O 0.43500 1.05511 0.00658
 O336 O 0.45703 1.06300 0.05501
 O337 O 0.48168 1.08388 -0.01123
 O338 O 0.49298 1.08479 0.04113
 O339 O 0.41970 1.01338 -0.01740
 O340 O 0.42062 0.96128 -0.00469
 O341 O 0.48895 1.02165 -0.08003
 O342 O 0.54017 1.00837 -0.08213
 O343 O 0.49590 0.93631 0.05499
 O344 O 0.44881 0.95853 0.06179
 O345 O 0.55434 1.01087 0.06826
 O346 O 0.55818 1.05817 0.04496
 O347 O 0.57015 0.95045 -0.00469
 O348 O 0.54816 0.94323 -0.05141
 Zr349 Zr 0.52540 0.95722 -0.01232
 O350 O 0.49900 0.98103 -0.03975
 Zr351 Zr 0.54719 1.01766 0.02372
 O352 O 0.52213 1.04417 -0.00246
 Zr353 Zr 0.48777 0.98067 0.04748
 O354 O 0.45999 1.00583 0.02268
 Zr355 Zr 0.51650 1.02371 -0.04387
 O356 O 0.54487 0.99883 -0.01901
 Zr357 Zr 0.45710 0.98692 -0.01975
 O358 O 0.48232 0.95986 0.00611
 Zr359 Zr 0.47917 1.04750 0.01605
 O360 O 0.50529 1.02350 0.04404
 O361 O 0.53023 0.97551 0.02970
 O362 O 0.47394 1.02925 -0.02601
 C363 C 0.50860 0.91624 0.03903
 C364 C 0.58990 0.96689 0.00726
 C365 C 0.53845 0.99890 0.08855
 C366 C 0.49407 1.08747 -0.03661
 C367 C 0.46350 1.00963 -0.08339
 C368 C 0.41546 1.03917 -0.00628
 H369 H 0.49773 0.97053 -0.05895
 H370 H 0.44050 1.00709 0.03292
 H371 H 0.54264 0.96361 0.04198
 H372 H 0.53214 1.06349 -0.00420
 H373 H 0.57196 1.03654 -0.05012
 H374 H 0.58153 1.05359 -0.00477
 H375 H 0.41302 0.97034 0.01402
 H376 H 0.44326 0.94486 0.04553
 H377 H 0.53231 0.98874 -0.08784
 H378 H 0.56109 0.95985 -0.05745
 H379 H 0.44103 1.04879 0.05991
 H380 H 0.46840 1.01679 0.08792
 H381 H 0.49048 0.91599 -0.03056
 H382 H 0.45683 0.94292 -0.05744
 H383 H 0.54243 1.06226 0.06002
 H384 H 0.51187 1.09195 0.03231
 O385 O 0.41552 0.51992 0.01930
 O386 O 0.41331 0.46892 0.00834
 O387 O 0.48567 0.52386 0.08235
 O388 O 0.53287 0.51473 0.08265
 O389 O 0.48478 0.58665 0.01053
 O390 O 0.49658 0.58271 -0.04014
 O391 O 0.56116 0.44488 0.00243
 O392 O 0.53908 0.44400 0.05015
 O393 O 0.48977 0.43354 -0.05446
 O394 O 0.44377 0.45922 -0.06048
 O395 O 0.55378 0.50048 -0.06906
 O396 O 0.56287 0.54950 -0.04613
 O397 O 0.58021 0.48341 -0.02294
 O398 O 0.58299 0.53596 -0.01130
 O399 O 0.51191 0.47735 -0.08404
 O400 O 0.46034 0.49292 -0.08240
 O401 O 0.51311 0.41813 -0.01456
 O402 O 0.49952 0.42044 0.03639
 O403 O 0.43444 0.55839 -0.00630
 O404 O 0.45883 0.56102 -0.05355
 O405 O 0.50701 0.57140 0.05114
 O406 O 0.55351 0.54572 0.05408
 O407 O 0.44324 0.50187 0.06717
 O408 O 0.43452 0.45490 0.04455
 Zr409 Zr 0.45141 0.49191 0.02231
 O410 O 0.47527 0.46169 -0.00446
 Zr411 Zr 0.51245 0.52599 0.04370
 O412 O 0.53901 0.49680 0.01815
 Zr413 Zr 0.47886 0.54798 -0.01503
 O414 O 0.50425 0.52018 -0.04321
 Zr415 Zr 0.51718 0.45618 0.01236
 O416 O 0.49205 0.48409 0.04114
 Zr417 Zr 0.48371 0.47863 -0.04631
 O418 O 0.45658 0.50746 -0.02061
 Zr419 Zr 0.54491 0.51241 -0.02465
 O420 O 0.52090 0.54328 0.00190
 O421 O 0.47116 0.53322 0.02737
 O422 O 0.52524 0.47096 -0.03015
 C423 C 0.41315 0.54437 0.00655
 C424 C 0.45961 0.51320 0.08704
 C425 C 0.49685 0.59133 0.03527
 C426 C 0.58234 0.45851 -0.01101
 C427 C 0.50121 0.41371 -0.03943
 C428 C 0.53815 0.48744 -0.08859
 H429 H 0.46383 0.44309 -0.00555
 H430 H 0.50673 0.52924 -0.06256
 H431 H 0.45926 0.54680 0.04012
 H432 H 0.55789 0.49456 0.02785
 H433 H 0.52824 0.45291 0.06735
 H434 H 0.54572 0.49793 0.07763
 H435 H 0.47039 0.51080 -0.08974
 H436 H 0.44464 0.54520 -0.05897
 H437 H 0.47942 0.41603 0.02972
 H438 H 0.45014 0.44873 0.05749
 H439 H 0.54967 0.55417 -0.06205
 H440 H 0.51738 0.58529 -0.03471
 H441 H 0.41030 0.47467 -0.01207
 H442 H 0.43705 0.44485 -0.04578
 H443 H 0.55870 0.55969 0.03845
 H444 H 0.58864 0.52830 0.00772
 O445 O -0.02270 0.02398 0.58363
 O446 O 0.02732 0.01133 0.58172
 O447 O -0.02375 0.08585 0.51252
 O448 O -0.01418 0.08517 0.46484
 O449 O -0.09255 0.01810 0.52065
 O450 O -0.09405 -0.03277 0.50956
 O451 O 0.04700 0.00065 0.43306
 O452 O 0.05288 0.04882 0.45301
 O453 O 0.05423 -0.05483 0.50411
 O454 O 0.02913 -0.05870 0.55242
 O455 O -0.01647 -0.06670 0.44653
 O456 O -0.06287 -0.04158 0.44054
 O457 O 0.00541 -0.02283 0.41776
 O458 O -0.04640 -0.00742 0.41893
 O459 O 0.00660 -0.08203 0.48659
 O460 O -0.00726 -0.07894 0.53935
 O461 O 0.07318 -0.01609 0.47898
 O462 O 0.07589 0.03518 0.49146
 O463 O -0.06437 0.00028 0.56872
 O464 O -0.07266 -0.04683 0.54560
 O465 O -0.07387 0.05697 0.49551
 O466 O -0.04887 0.05782 0.44705
 O467 O -0.00182 0.07049 0.55329
 O468 O 0.04403 0.04631 0.55808
 Zr469 Zr 0.00439 0.02536 0.54532
 O470 O 0.03140 -0.00329 0.51988
 Zr471 Zr -0.02925 0.04723 0.48672
 O472 O -0.00310 0.01997 0.45858
 Zr473 Zr -0.05624 -0.00943 0.52370
 O474 O -0.03184 -0.03923 0.49682
 Zr475 Zr 0.03752 0.01248 0.47726
 O476 O 0.01299 0.04302 0.50369
 Zr477 Zr 0.01001 -0.04415 0.51392
 O478 O -0.01558 -0.01665 0.54264
 Zr479 Zr -0.02327 -0.02180 0.45515
 O480 O -0.05100 0.00645 0.48094
 O481 O -0.03700 0.03204 0.52892
 O482 O 0.01817 -0.02911 0.47155
 C483 C -0.04834 0.01253 0.58843
 C484 C -0.01232 0.09039 0.53763
 C485 C -0.09511 0.04262 0.50807
 C486 C 0.03169 -0.01268 0.41347
 C487 C 0.07540 -0.04102 0.49086
 C488 C -0.00477 -0.08644 0.46146
 H489 H 0.05021 -0.00517 0.52978
 H490 H -0.04295 -0.05804 0.49560
 H491 H -0.04913 0.04545 0.54163
 H492 H -0.00026 0.02911 0.43928
 H493 H 0.04592 0.06666 0.46389
 H494 H 0.00131 0.07897 0.45027
 H495 H -0.02612 -0.08555 0.53096
 H496 H -0.05697 -0.05290 0.55850
 H497 H 0.08022 0.02854 0.51125
 H498 H 0.05054 0.05906 0.54183
 H499 H -0.06945 -0.05618 0.45507
 H500 H -0.09686 -0.02724 0.48904
 H501 H 0.02024 -0.00891 0.58545
 H502 H 0.04540 -0.04490 0.55735
 H503 H -0.06454 0.04290 0.44341
 H504 H -0.03609 0.01027 0.41146
 O505 O 0.73170 0.17197 0.26115
 O506 O 0.78304 0.17352 0.24952
 O507 O 0.72555 0.23967 0.33064
 O508 O 0.73499 0.28721 0.33535
 O509 O 0.66270 0.23632 0.26016
 O510 O 0.66569 0.25001 0.21041
 O511 O 0.80225 0.32218 0.25790
 O512 O 0.80422 0.29853 0.30331
 O513 O 0.81536 0.25416 0.19359
 O514 O 0.79138 0.20607 0.18398
 O515 O 0.74578 0.31252 0.18552
 O516 O 0.69716 0.31827 0.20991
 O517 O 0.76308 0.33909 0.23423
 O518 O 0.71017 0.33798 0.24660
 O519 O 0.76991 0.27263 0.16654
 O520 O 0.75694 0.22049 0.16376
 O521 O 0.83053 0.27725 0.23552
 O522 O 0.82965 0.26197 0.28465
 O523 O 0.69213 0.18883 0.23801
 O524 O 0.68831 0.21402 0.19314
 O525 O 0.67793 0.25874 0.30242
 O526 O 0.70203 0.30646 0.30939
 O527 O 0.74899 0.19939 0.31143
 O528 O 0.79654 0.19456 0.28785
 Zr529 Zr 0.75884 0.20940 0.26734
 O530 O 0.78821 0.23583 0.24259
 Zr531 Zr 0.72311 0.26737 0.29477
 O532 O 0.75121 0.29633 0.27141
 Zr533 Zr 0.70130 0.23388 0.23330
 O534 O 0.72820 0.26156 0.20725
 Zr535 Zr 0.79256 0.27744 0.26326
 O536 O 0.76567 0.24983 0.28991
 Zr537 Zr 0.77053 0.24408 0.20182
 O538 O 0.74259 0.21456 0.22517
 Zr539 Zr 0.73494 0.30214 0.22939
 O540 O 0.70497 0.27560 0.25405
 O541 O 0.71692 0.22626 0.27465
 O542 O 0.77709 0.28551 0.22169
 C543 C 0.70692 0.16832 0.24881
 C544 C 0.73674 0.21424 0.33277
 C545 C 0.65806 0.24732 0.28614
 C546 C 0.78791 0.34262 0.24651
 C547 C 0.83504 0.26667 0.20939
 C548 C 0.75876 0.29801 0.16437
 H549 H 0.80728 0.22585 0.24018
 H550 H 0.71878 0.26376 0.18827
 H551 H 0.70375 0.21320 0.28635
 H552 H 0.75290 0.31500 0.28287
 H553 H 0.79617 0.28624 0.31935
 H554 H 0.75067 0.30195 0.33109
 H555 H 0.73811 0.22873 0.15798
 H556 H 0.70443 0.20092 0.18630
 H557 H 0.83394 0.24203 0.27673
 H558 H 0.80225 0.21018 0.30224
 H559 H 0.69201 0.30456 0.19356
 H560 H 0.66216 0.27013 0.21837
 H561 H 0.77729 0.17078 0.22886
 H562 H 0.80674 0.20063 0.19752
 H563 H 0.68786 0.31121 0.29433
 H564 H 0.71798 0.34378 0.26595
 O565 O 0.76439 0.69396 0.68421
 O566 O 0.80871 0.68848 0.70909
 O567 O 0.69968 0.67714 0.75436
 O568 O 0.68689 0.69648 0.79784
 O569 O 0.68961 0.75088 0.69745
 O570 O 0.71251 0.79768 0.69453
 O571 O 0.76697 0.75829 0.83794
 O572 O 0.75309 0.70846 0.83476
 O573 O 0.83393 0.76872 0.77161
 O574 O 0.83790 0.75836 0.71955
 O575 O 0.76333 0.82846 0.77922
 O576 O 0.71243 0.82673 0.76548
 O577 O 0.74297 0.79827 0.82325
 O578 O 0.69563 0.80270 0.79789
 O579 O 0.80587 0.81436 0.75549
 O580 O 0.81543 0.79167 0.70545
 O581 O 0.81551 0.74304 0.81033
 O582 O 0.79398 0.69437 0.81263
 O583 O 0.74052 0.73394 0.66921
 O584 O 0.75175 0.78543 0.67372
 O585 O 0.67086 0.72479 0.73577
 O586 O 0.66895 0.73825 0.78820
 O587 O 0.74174 0.66299 0.72965
 O588 O 0.79166 0.66534 0.74454
 Zr589 Zr 0.76835 0.70133 0.72967
 O590 O 0.79410 0.72720 0.75827
 Zr591 Zr 0.70626 0.72205 0.76413
 O592 O 0.72949 0.74822 0.79479
 Zr593 Zr 0.73364 0.75974 0.70794
 O594 O 0.75743 0.78805 0.73615
 Zr595 Zr 0.77198 0.73207 0.79936
 O596 O 0.74736 0.70346 0.77164
 Zr597 Zr 0.79867 0.77009 0.74313
 O598 O 0.77606 0.74314 0.71235
 Zr599 Zr 0.73659 0.79030 0.77812
 O600 O 0.71067 0.76492 0.74867
 O601 O 0.72673 0.71742 0.72271
 O602 O 0.77862 0.77476 0.78496
 C603 C 0.75348 0.70941 0.66440
 C604 C 0.71602 0.65788 0.74110
 C605 C 0.66849 0.73763 0.71135
 C606 C 0.75480 0.78318 0.84281
 C607 C 0.83630 0.75683 0.79648
 C608 C 0.78947 0.83346 0.76885
 H609 H 0.81344 0.71794 0.75970
 H610 H 0.75923 0.80752 0.72730
 H611 H 0.71534 0.70476 0.70901
 H612 H 0.71833 0.74870 0.81382
 H613 H 0.74217 0.69150 0.82608
 H614 H 0.69609 0.70283 0.81638
 H615 H 0.80233 0.80815 0.70187
 H616 H 0.77221 0.77885 0.66994
 H617 H 0.80980 0.68973 0.79787
 H618 H 0.78284 0.66064 0.76405
 H619 H 0.72103 0.83323 0.74647
 H620 H 0.69865 0.80357 0.71082
 H621 H 0.81602 0.70532 0.69757
 H622 H 0.84333 0.73864 0.72569
 H623 H 0.66403 0.75715 0.77966
 H624 H 0.69059 0.78887 0.81365
 O625 O 0.30241 0.18948 0.75009
 O626 O 0.31080 0.20935 0.70271
 O627 O 0.31445 0.26665 0.80633
 O628 O 0.29312 0.30883 0.81595
 O629 O 0.23972 0.20561 0.82051
 O630 O 0.19389 0.19912 0.79728
 O631 O 0.23903 0.33800 0.73026
 O632 O 0.28774 0.33866 0.74489
 O633 O 0.23333 0.26556 0.66941
 O634 O 0.24366 0.21403 0.67091
 O635 O 0.16804 0.27701 0.73735
 O636 O 0.16468 0.26781 0.78879
 O637 O 0.19704 0.32364 0.75493
 O638 O 0.18856 0.30161 0.80439
 O639 O 0.18526 0.25017 0.69767
 O640 O 0.20802 0.20062 0.69377
 O641 O 0.25740 0.30716 0.68473
 O642 O 0.30514 0.31336 0.70716
 O643 O 0.26010 0.17454 0.77394
 O644 O 0.20947 0.17513 0.76019
 O645 O 0.26519 0.24633 0.83600
 O646 O 0.25003 0.29816 0.83287
 O647 O 0.33164 0.23885 0.76724
 O648 O 0.33306 0.24741 0.71586
 Zr649 Zr 0.29520 0.23347 0.74029
 O650 O 0.27157 0.25813 0.71126
 Zr651 Zr 0.26969 0.27219 0.79842
 O652 O 0.24562 0.29909 0.77166
 Zr653 Zr 0.23379 0.21206 0.77572
 O654 O 0.20750 0.23638 0.74862
 Zr655 Zr 0.26526 0.30059 0.72927
 O656 O 0.29167 0.27685 0.75716
 Zr657 Zr 0.22884 0.24048 0.70728
 O658 O 0.25382 0.21337 0.73340
 Zr659 Zr 0.20390 0.27972 0.76528
 O660 O 0.22698 0.25418 0.79463
 O661 O 0.27577 0.22965 0.78202
 O662 O 0.22289 0.28350 0.72314
 C663 C 0.28603 0.17009 0.76280
 C664 C 0.33494 0.25315 0.79163
 C665 C 0.25232 0.22145 0.84031
 C666 C 0.21331 0.34273 0.74168
 C667 C 0.24524 0.29081 0.66501
 C668 C 0.16506 0.26434 0.71208
 H669 H 0.28240 0.25828 0.69208
 H670 H 0.18803 0.22653 0.74718
 H671 H 0.28779 0.21800 0.79489
 H672 H 0.24442 0.31890 0.78100
 H673 H 0.30342 0.33199 0.75750
 H674 H 0.28854 0.32582 0.80411
 H675 H 0.19049 0.19747 0.70687
 H676 H 0.21799 0.16978 0.74049
 H677 H 0.31005 0.29829 0.69179
 H678 H 0.33701 0.26804 0.72212
 H679 H 0.15955 0.24737 0.78283
 H680 H 0.18750 0.21608 0.80986
 H681 H 0.29451 0.19595 0.69682
 H682 H 0.26405 0.22036 0.66566
 H683 H 0.23145 0.28806 0.83904
 H684 H 0.20189 0.31861 0.80815
 O685 O 0.27120 0.66099 0.22707
 O686 O 0.21962 0.65968 0.23649
 O687 O 0.27842 0.73188 0.16448
 O688 O 0.27076 0.77893 0.16411
 O689 O 0.33894 0.72838 0.23792
 O690 O 0.33360 0.74027 0.28852
 O691 O 0.19788 0.80740 0.24222
 O692 O 0.19833 0.78573 0.19432
 O693 O 0.18349 0.73624 0.29863
 O694 O 0.20812 0.68962 0.30507
 O695 O 0.25087 0.79862 0.31509
 O696 O 0.30049 0.80742 0.29450
 O697 O 0.23599 0.82556 0.26870
 O698 O 0.28979 0.82691 0.25811
 O699 O 0.22652 0.75712 0.32929
 O700 O 0.24134 0.70554 0.32822
 O701 O 0.16972 0.76018 0.25845
 O702 O 0.17361 0.74653 0.20728
 O703 O 0.30909 0.67885 0.25408
 O704 O 0.31047 0.70306 0.30153
 O705 O 0.32538 0.75132 0.19706
 O706 O 0.30068 0.79862 0.19402
 O707 O 0.25526 0.68971 0.17872
 O708 O 0.20732 0.68129 0.19991
 Zr709 Zr 0.24386 0.69736 0.22338
 O710 O 0.21302 0.72145 0.24931
 Zr711 Zr 0.27984 0.75788 0.20336
 O712 O 0.25008 0.78462 0.22795
 Zr713 Zr 0.29924 0.72335 0.26251
 O714 O 0.27086 0.74901 0.28985
 Zr715 Zr 0.20880 0.76346 0.23246
 O716 O 0.23743 0.73820 0.20452
 Zr717 Zr 0.22877 0.72922 0.29164
 O718 O 0.25804 0.70183 0.26679
 Zr719 Zr 0.26443 0.78984 0.27116
 O720 O 0.29594 0.76553 0.24565
 O721 O 0.28574 0.71639 0.21965
 O722 O 0.22240 0.77085 0.27538
 C723 C 0.29517 0.65800 0.24061
 C724 C 0.26749 0.70618 0.15932
 C725 C 0.34462 0.74041 0.21327
 C726 C 0.21140 0.82819 0.25617
 C727 C 0.16433 0.74833 0.28325
 C728 C 0.23673 0.78314 0.33411
 H729 H 0.19412 0.71039 0.24986
 H730 H 0.27926 0.75121 0.30951
 H731 H 0.29950 0.70434 0.20723
 H732 H 0.24851 0.80354 0.21821
 H733 H 0.20774 0.77494 0.17739
 H734 H 0.25359 0.79153 0.16843
 H735 H 0.25914 0.71523 0.33614
 H736 H 0.29423 0.68906 0.30636
 H737 H 0.16822 0.72676 0.21420
 H738 H 0.20163 0.69722 0.18712
 H739 H 0.30525 0.79332 0.30958
 H740 H 0.33673 0.76097 0.28313
 H741 H 0.22453 0.65646 0.25711
 H742 H 0.19384 0.68350 0.29009
 H743 H 0.31479 0.80295 0.20969
 H744 H 0.28202 0.83360 0.23952
 O745 O 0.24192 0.67017 0.76256
 O746 O 0.29276 0.67373 0.74956
 O747 O 0.23305 0.74004 0.82891
 O748 O 0.24008 0.78799 0.83178
 O749 O 0.16939 0.72998 0.75976
 O750 O 0.17071 0.74192 0.70951
 O751 O 0.30485 0.82281 0.75077
 O752 O 0.30873 0.80228 0.79735
 O753 O 0.32015 0.75277 0.68990
 O754 O 0.29826 0.70424 0.68175
 O755 O 0.24670 0.80770 0.68104
 O756 O 0.19874 0.81207 0.70591
 O757 O 0.26400 0.83688 0.72790
 O758 O 0.21116 0.83331 0.74214
 O759 O 0.27284 0.76872 0.66292
 O760 O 0.26224 0.71563 0.66239
 O761 O 0.33504 0.77795 0.73080
 O762 O 0.33501 0.76541 0.78089
 O763 O 0.20108 0.68373 0.73928
 O764 O 0.19526 0.70665 0.69314
 O765 O 0.18412 0.75511 0.80077
 O766 O 0.20595 0.80456 0.80529
 O767 O 0.25848 0.70049 0.81088
 O768 O 0.30617 0.69742 0.78662
 Zr769 Zr 0.26716 0.70909 0.76631
 O770 O 0.29459 0.73577 0.73986
 Zr771 Zr 0.22875 0.76601 0.79208
 O772 O 0.25509 0.79528 0.76718
 Zr773 Zr 0.20768 0.72883 0.73234
 O774 O 0.23255 0.75684 0.70481
 Zr775 Zr 0.29725 0.77824 0.75885
 O776 O 0.27221 0.75064 0.78718
 Zr777 Zr 0.27571 0.74145 0.69911
 O778 O 0.24988 0.71151 0.72420
 Zr779 Zr 0.23759 0.79847 0.72536
 O780 O 0.20940 0.77144 0.75141
 O781 O 0.22448 0.72394 0.77367
 O782 O 0.28050 0.78382 0.71732
 C783 C 0.21708 0.66467 0.75091
 C784 C 0.24555 0.71538 0.83177
 C785 C 0.16460 0.74177 0.78537
 C786 C 0.28917 0.84201 0.73903
 C787 C 0.33970 0.76626 0.70514
 C788 C 0.26006 0.79325 0.66016
 H789 H 0.31407 0.72658 0.73755
 H790 H 0.22259 0.75782 0.68597
 H791 H 0.21222 0.71075 0.78612
 H792 H 0.25615 0.81446 0.77784
 H793 H 0.30113 0.79091 0.81425
 H794 H 0.25496 0.80330 0.82678
 H795 H 0.24313 0.72305 0.65639
 H796 H 0.21188 0.69396 0.68678
 H797 H 0.34050 0.74563 0.77337
 H798 H 0.31086 0.71355 0.80084
 H799 H 0.19345 0.79706 0.69077
 H800 H 0.16611 0.76202 0.71687
 H801 H 0.28660 0.66964 0.72920
 H802 H 0.31306 0.69905 0.69599
 H803 H 0.19089 0.80754 0.79058
 H804 H 0.21967 0.84083 0.76063
 O805 O 0.25390 0.19316 0.18009
 O806 O 0.29863 0.18469 0.20367
 O807 O 0.19079 0.17725 0.25264
 O808 O 0.17931 0.19736 0.29617
 O809 O 0.18276 0.25277 0.19644
 O810 O 0.20766 0.29926 0.19488
 O811 O 0.26333 0.25380 0.33482
 O812 O 0.24610 0.20467 0.33085
 O813 O 0.32953 0.26102 0.26731
 O814 O 0.33155 0.25195 0.21477
 O815 O 0.26246 0.32564 0.27669
 O816 O 0.21032 0.32583 0.26424
 O817 O 0.24159 0.29555 0.32134
 O818 O 0.19485 0.30386 0.29846
 O819 O 0.30382 0.30945 0.25223
 O820 O 0.31137 0.28713 0.20232
 O821 O 0.31026 0.23552 0.30580
 O822 O 0.28625 0.18904 0.30833
 O823 O 0.23210 0.23497 0.16675
 O824 O 0.24527 0.28530 0.17188
 O825 O 0.16366 0.22639 0.23441
 O826 O 0.16312 0.23988 0.28670
 O827 O 0.23118 0.16183 0.22590
 O828 O 0.28137 0.16131 0.23850
 Zr829 Zr 0.25942 0.19897 0.22557
 O830 O 0.28701 0.22271 0.25413
 Zr831 Zr 0.19932 0.22204 0.26210
 O832 O 0.22451 0.24665 0.29245
 Zr833 Zr 0.22725 0.25972 0.20622
 O834 O 0.25347 0.28605 0.23402
 Zr835 Zr 0.26602 0.22799 0.29577
 O836 O 0.23958 0.20121 0.26809
 Zr837 Zr 0.29382 0.26566 0.23975
 O838 O 0.26890 0.24082 0.20907
 Zr839 Zr 0.23372 0.28872 0.27640
 O840 O 0.20560 0.26513 0.24754
 O841 O 0.21854 0.21730 0.22013
 O842 O 0.27495 0.27068 0.28207
 C843 C 0.24366 0.20995 0.16100
 C844 C 0.20592 0.15744 0.23866
 C845 C 0.16143 0.23980 0.21030
 C846 C 0.25279 0.27934 0.34035
 C847 C 0.33163 0.24806 0.29168
 C848 C 0.28861 0.32945 0.26569
 H849 H 0.30574 0.21219 0.25493
 H850 H 0.25613 0.30553 0.22535
 H851 H 0.20634 0.20534 0.20653
 H852 H 0.21382 0.24744 0.31172
 H853 H 0.23449 0.18829 0.32198
 H854 H 0.18892 0.20336 0.31459
 H855 H 0.29868 0.30392 0.19876
 H856 H 0.26563 0.27853 0.16792
 H857 H 0.30046 0.18292 0.29248
 H858 H 0.27316 0.15660 0.25825
 H859 H 0.21965 0.33300 0.24582
 H860 H 0.19354 0.30456 0.21115
 H861 H 0.30628 0.20132 0.19204
 H862 H 0.33611 0.23190 0.22060
 H863 H 0.15941 0.25934 0.27871
 H864 H 0.18801 0.28870 0.31229
 O865 O 0.80526 0.68996 0.24598
 O866 O 0.81282 0.71257 0.19990
 O867 O 0.81605 0.76460 0.30613
 O868 O 0.79428 0.80641 0.31697
 O869 O 0.74275 0.70200 0.31830
 O870 O 0.69717 0.69486 0.29502
 O871 O 0.73767 0.83797 0.23432
 O872 O 0.78677 0.83899 0.24833
 O873 O 0.73329 0.76799 0.17020
 O874 O 0.74504 0.71671 0.16922
 O875 O 0.66836 0.77430 0.23936
 O876 O 0.66641 0.76296 0.29065
 O877 O 0.69632 0.82125 0.25852
 O878 O 0.68883 0.79729 0.30663
 O879 O 0.68577 0.74964 0.19837
 O880 O 0.71021 0.70128 0.19173
 O881 O 0.75660 0.80946 0.18700
 O882 O 0.80393 0.81628 0.20891
 O883 O 0.76376 0.67307 0.26988
 O884 O 0.71302 0.67291 0.25714
 O885 O 0.76715 0.74278 0.33529
 O886 O 0.75154 0.79414 0.33445
 O887 O 0.83351 0.73907 0.26563
 O888 O 0.83424 0.75045 0.21489
 Zr889 Zr 0.79693 0.73433 0.23878
 O890 O 0.77223 0.75968 0.21124
 Zr891 Zr 0.77115 0.76993 0.29869
 O892 O 0.74590 0.79731 0.27354
 Zr893 Zr 0.73652 0.70988 0.27383
 O894 O 0.70923 0.73464 0.24817
 Zr895 Zr 0.76493 0.80122 0.23111
 O896 O 0.79244 0.77691 0.25749
 Zr897 Zr 0.72992 0.74112 0.20688
 O898 O 0.75596 0.71354 0.23145
 Zr899 Zr 0.70462 0.77713 0.26678
 O900 O 0.72885 0.75102 0.29460
 O901 O 0.77812 0.72819 0.28046
 O902 O 0.72291 0.78331 0.22467
 C903 C 0.78950 0.66961 0.25789
 C904 C 0.83671 0.75219 0.29066
 C905 C 0.75475 0.71753 0.33870
 C906 C 0.71192 0.84145 0.24621
 C907 C 0.74468 0.79363 0.16673
 C908 C 0.66530 0.76241 0.21376
 H909 H 0.78284 0.76094 0.19201
 H910 H 0.69004 0.72428 0.24655
 H911 H 0.79046 0.71618 0.29270
 H912 H 0.74425 0.81666 0.28378
 H913 H 0.80304 0.83205 0.26004
 H914 H 0.78851 0.82387 0.30641
 H915 H 0.69313 0.69684 0.20502
 H916 H 0.72125 0.66871 0.23707
 H917 H 0.80980 0.80136 0.19372
 H918 H 0.83778 0.77081 0.22226
 H919 H 0.66119 0.74300 0.28322
 H920 H 0.69026 0.71115 0.30823
 H921 H 0.79680 0.69915 0.19340
 H922 H 0.76514 0.72392 0.16394
 H923 H 0.73285 0.78388 0.33996
 H924 H 0.70210 0.81410 0.31130
 O925 O 0.68182 0.23725 0.80134
 O926 O 0.70616 0.19258 0.80734
 O927 O 0.75406 0.29964 0.81578
 O928 O 0.79748 0.31010 0.79475
 O929 O 0.69511 0.30990 0.74389
 O930 O 0.69137 0.28621 0.69677
 O931 O 0.83415 0.22721 0.73297
 O932 O 0.83256 0.24302 0.78261
 O933 O 0.76633 0.16271 0.72607
 O934 O 0.71411 0.16123 0.73773
 O935 O 0.77289 0.23141 0.66425
 O936 O 0.76067 0.28294 0.66625
 O937 O 0.81876 0.25029 0.69292
 O938 O 0.79495 0.29811 0.68818
 O939 O 0.74912 0.19010 0.67978
 O940 O 0.69989 0.18269 0.70426
 O941 O 0.80594 0.18053 0.75054
 O942 O 0.81017 0.20342 0.79816
 O943 O 0.66630 0.26043 0.76136
 O944 O 0.66930 0.24860 0.71025
 O945 O 0.73457 0.32779 0.76858
 O946 O 0.78659 0.32755 0.75303
 O947 O 0.72844 0.25922 0.83109
 O948 O 0.74236 0.20894 0.82921
 Zr949 Zr 0.72717 0.23165 0.79315
 O950 O 0.75468 0.20422 0.76690
 Zr951 Zr 0.76245 0.29159 0.77059
 O952 O 0.79195 0.26658 0.74373
 Zr953 Zr 0.70474 0.26551 0.73480
 O954 O 0.73166 0.23976 0.70612
 Zr955 Zr 0.79614 0.22462 0.76048
 O956 O 0.76959 0.25089 0.78958
 Zr957 Zr 0.73841 0.19889 0.72448
 O958 O 0.70872 0.22349 0.75188
 Zr959 Zr 0.77402 0.25887 0.70223
 O960 O 0.74587 0.28665 0.72816
 O961 O 0.72065 0.27290 0.77666
 O962 O 0.78057 0.21719 0.71823
 C963 C 0.66181 0.24819 0.78609
 C964 C 0.74073 0.28445 0.83561
 C965 C 0.70971 0.33071 0.75663
 C966 C 0.83854 0.23833 0.70768
 C967 C 0.79133 0.15981 0.73773
 C968 C 0.76173 0.20568 0.65987
 H969 H 0.75596 0.18524 0.77656
 H970 H 0.72214 0.23780 0.68698
 H971 H 0.70739 0.28498 0.78960
 H972 H 0.81124 0.27693 0.74245
 H973 H 0.82451 0.25461 0.79970
 H974 H 0.81577 0.30053 0.78742
 H975 H 0.69573 0.19570 0.68803
 H976 H 0.66566 0.22823 0.71651
 H977 H 0.79480 0.18894 0.80408
 H978 H 0.76209 0.21728 0.83343
 H979 H 0.74132 0.27490 0.66036
 H980 H 0.70746 0.30006 0.69106
 H981 H 0.69418 0.18512 0.79091
 H982 H 0.72087 0.15599 0.75723
 H983 H 0.77775 0.33198 0.73418
 H984 H 0.81057 0.30338 0.70205
 C985 C 0.07907 0.99900 1.16758
 C986 C 0.10166 0.97890 1.16915
 C987 C 0.11552 0.97521 1.19555
 C988 C 0.10657 0.99098 1.22151
 C989 C 0.08417 1.01181 1.21925
 C990 C 0.07032 1.01548 1.19269
 C991 C 0.06563 1.00283 1.13984
 C992 C 0.05514 1.00485 1.11606
 H993 H 0.10906 0.96645 1.14971
 H994 H 0.13398 0.96061 1.19505
 H995 H 0.07770 1.02562 1.23805
 H996 H 0.05315 1.03151 1.19164
 C997 C 0.58278 0.50222 0.66311
 C998 C 0.56694 0.50745 0.68966
 C999 C 0.58050 0.50441 0.71655
 C1000 C 0.61002 0.49535 0.71730
 C1001 C 0.62570 0.49104 0.69017
 C1002 C 0.61218 0.49409 0.66353
 C1003 C 0.56924 0.50471 0.63521
 C1004 C 0.55877 0.50568 0.61130
 H1005 H 0.54423 0.51419 0.68958
 H1006 H 0.56799 0.50994 0.73651
 H1007 H 0.64874 0.48536 0.68967
 H1008 H 0.62479 0.49024 0.64318
 C1009 C 0.41835 -0.00293 0.67433
 C1010 C 0.42528 -0.02033 0.69769
 C1011 C 0.41099 -0.01605 0.72515
 C1012 C 0.38996 0.00622 0.73001
 C1013 C 0.38293 0.02303 0.70574
 C1014 C 0.39726 0.01873 0.67846
 C1015 C 0.43188 -0.00748 0.64564
 C1016 C 0.44226 -0.00985 0.62103
 H1017 H 0.44129 -0.03753 0.69455
 H1018 H 0.41595 -0.03052 0.74260
 H1019 H 0.36552 0.03885 0.70711
 H1020 H 0.39129 0.03191 0.66031
 C1021 C -0.07366 0.49854 1.17288
 C1022 C -0.06182 0.51456 1.19643
 C1023 C -0.07743 0.51659 1.22348
 C1024 C -0.10529 0.50243 1.22775
 C1025 C -0.11656 0.48649 1.20326
 C1026 C -0.10089 0.48442 1.17650
 C1027 C -0.05931 0.49794 1.14424
 C1028 C -0.04887 0.49734 1.11956
 H1029 H -0.04091 0.52614 1.19369
 H1030 H -0.06822 0.53043 1.24067
 H1031 H -0.13782 0.47578 1.20387
 H1032 H -0.11049 0.47230 1.15825
 C1033 C -0.07108 0.51314 0.33605
 C1034 C -0.09730 0.52832 0.33510
 C1035 C -0.11379 0.52698 0.30985
 C1036 C -0.10444 0.51056 0.28436
 C1037 C -0.07748 0.49555 0.28588
 C1038 C -0.06107 0.49688 0.31132
 C1039 C -0.05583 0.51277 0.36320
 C1040 C -0.04425 0.51214 0.38657
 H1041 H -0.10548 0.54075 0.35426
 H1042 H -0.13409 0.53866 0.31121
 H1043 H -0.06957 0.48159 0.26776
 H1044 H -0.04097 0.48457 0.31191
 C1045 C 0.42220 1.01279 -0.16095
 C1046 C 0.43687 1.01643 -0.18813
 C1047 C 0.42111 1.01520 -0.21398
 C1048 C 0.39041 1.00943 -0.21310
 C1049 C 0.37593 1.00746 -0.18525
 C1050 C 0.39168 1.00873 -0.15957
 C1051 C 0.43816 1.01261 -0.13429
 C1052 C 0.45036 1.01166 -0.11133
 H1053 H 0.46048 1.02023 -0.18936
 H1054 H 0.43313 1.01914 -0.23440
 H1055 H 0.35225 1.00431 -0.18351
 H1056 H 0.38002 1.00631 -0.13860
 C1057 C 0.57737 0.48751 -0.17049
 C1058 C 0.56829 0.47131 -0.19528
 C1059 C 0.58374 0.47403 -0.22233
 C1060 C 0.60803 0.49370 -0.22533
 C1061 C 0.61729 0.50895 -0.19963
 C1062 C 0.60191 0.50621 -0.17284
 C1063 C 0.56222 0.48524 -0.14227
 C1064 C 0.55077 0.48521 -0.11794
 H1065 H 0.54958 0.45631 -0.19364
 H1066 H 0.57695 0.46048 -0.24089
 H1067 H 0.63704 0.52254 -0.19975
 H1068 H 0.60956 0.51841 -0.15370
 C1069 C 0.07309 -0.01664 0.33266
 C1070 C 0.10335 -0.01085 0.33227
 C1071 C 0.11918 -0.00896 0.30564
 C1072 C 0.10508 -0.01209 0.27854
 C1073 C 0.07470 -0.01944 0.27929
 C1074 C 0.05881 -0.02126 0.30616
 C1075 C 0.05705 -0.01678 0.36050
 C1076 C 0.04492 -0.01564 0.38448
 H1077 H 0.11474 -0.00754 0.35262
 H1078 H 0.14266 -0.00451 0.30611
 H1079 H 0.06312 -0.02415 0.25936
 H1080 H 0.03541 -0.02627 0.30624
 C1081 C 0.17631 1.06881 1.00136
 C1082 C 0.18719 1.08218 1.02679
 C1083 C 0.21288 1.09933 1.02531
 C1084 C 0.22759 1.10466 0.99802
 C1085 C 0.21846 1.08781 0.97331
 C1086 C 0.19255 1.07071 0.97478
 C1087 C 0.14747 1.05525 1.00242
 C1088 C 0.12270 1.04532 1.00359
 H1089 H 0.17535 1.08004 1.04770
 H1090 H 0.22066 1.10884 1.04569
 H1091 H 0.23044 1.08934 0.95243
 H1092 H 0.18472 1.05979 0.95503
 C1093 C 0.67448 0.57393 0.49624
 C1094 C 0.67431 0.60439 0.49959
 C1095 C 0.70062 0.62044 0.49829
 C1096 C 0.72803 0.60640 0.49441
 C1097 C 0.72769 0.57576 0.48873
 C1098 C 0.70110 0.55963 0.49009
 C1099 C 0.64694 0.55799 0.49881
 C1100 C 0.62296 0.54634 0.50077
 H1101 H 0.65380 0.61579 0.50366
 H1102 H 0.69977 0.64402 0.50161
 H1103 H 0.74766 0.56405 0.48328
 H1104 H 0.70132 0.53605 0.48648
 C1105 C 0.66263 0.42039 -0.00865
 C1106 C 0.68915 0.43588 -0.01367
 C1107 C 0.71615 0.42210 -0.01072
 C1108 C 0.71705 0.39271 -0.00195
 C1109 C 0.68995 0.37733 0.00204
 C1110 C 0.66317 0.39108 -0.00092
 C1111 C 0.63467 0.43434 -0.01085
 C1112 C 0.61083 0.44542 -0.01163
 H1113 H 0.68897 0.45852 -0.02011
 H1114 H 0.73611 0.43438 -0.01603
 H1115 H 0.68959 0.35441 0.00752
 H1116 H 0.64282 0.37876 0.00275
 C1117 C 0.15526 -0.08002 0.49332
 C1118 C 0.18207 -0.06496 0.48861
 C1119 C 0.20877 -0.07946 0.49088
 C1120 C 0.20911 -0.10922 0.49856
 C1121 C 0.18172 -0.12405 0.50258
 C1122 C 0.15522 -0.10957 0.50031
 C1123 C 0.12758 -0.06549 0.49119
 C1124 C 0.10390 -0.05411 0.49034
 H1125 H 0.18234 -0.04213 0.48277
 H1126 H 0.22893 -0.06747 0.48570
 H1127 H 0.18092 -0.14717 0.50728
 H1128 H 0.13463 -0.12156 0.50376
 C1129 C 0.32217 -0.08158 0.50680
 C1130 C 0.29773 -0.07259 0.52409
 C1131 C 0.27021 -0.08627 0.52027
 C1132 C 0.26642 -0.10882 0.49863
 C1133 C 0.29165 -0.11763 0.48169
 C1134 C 0.31895 -0.10392 0.48550
 C1135 C 0.35094 -0.06870 0.51090
 C1136 C 0.37554 -0.05863 0.51280
 H1137 H 0.30006 -0.05550 0.54093
 H1138 H 0.25195 -0.07985 0.53483
 H1139 H 0.29095 -0.13608 0.46624
 H1140 H 0.33783 -0.11138 0.47230
 C1141 C -0.17129 0.42483 1.00820
 C1142 C -0.19655 0.43383 1.02423
 C1143 C -0.22338 0.41866 1.02066
 C1144 C -0.22567 0.39465 1.00038
 C1145 C -0.19956 0.38559 0.98511
 C1146 C -0.17296 0.40074 0.98867
 C1147 C -0.14319 0.43944 1.01173
 C1148 C -0.11886 0.45037 1.01293
 H1149 H -0.19542 0.45220 1.03982
 H1150 H -0.24231 0.42533 1.03416
 H1151 H -0.19914 0.36609 0.97100
 H1152 H -0.15343 0.39319 0.97657
 C1153 C -0.15998 0.57943 0.49507
 C1154 C -0.16323 0.60325 0.47717
 C1155 C -0.18978 0.61803 0.47750
 C1156 C -0.21442 0.60869 0.49502
 C1157 C -0.21009 0.58564 0.51432
 C1158 C -0.18332 0.57084 0.51397
 C1159 C -0.13204 0.56504 0.49474
 C1160 C -0.10811 0.55404 0.49423
 H1161 H -0.14499 0.61079 0.46322
 H1162 H -0.19043 0.63721 0.46426
 H1163 H -0.22754 0.57901 0.52963
 H1164 H -0.18076 0.55292 0.52864
 C1165 C 0.33371 1.07402 -0.00931
 C1166 C 0.32463 1.08723 -0.03460
 C1167 C 0.29841 1.10279 -0.03396
 C1168 C 0.28139 1.10659 -0.00753
 C1169 C 0.28925 1.09021 0.01671
 C1170 C 0.31547 1.07468 0.01604
 C1171 C 0.36231 1.06107 -0.00888
 C1172 C 0.38655 1.05093 -0.00797
 H1173 H 0.33810 1.08600 -0.05469
 H1174 H 0.29197 1.11211 -0.05420
 H1175 H 0.27585 1.09084 0.03684
 H1176 H 0.32189 1.06388 0.03558
 C1177 C 0.01189 1.17009 1.07730
 C1178 C 0.02847 1.19446 1.06806
 C1179 C 0.02456 1.22184 1.08234
 C1180 C 0.00337 1.22555 1.10560
 C1181 C -0.01240 1.20031 1.11504
 C1182 C -0.00848 1.17314 1.10078
 C1183 C 0.01554 1.14159 1.06337
 C1184 C 0.01677 1.11708 1.05277
 H1185 H 0.04470 1.19224 1.05016
 H1186 H 0.03844 1.24012 1.07551
 H1187 H -0.02726 1.20110 1.13410
 H1188 H -0.02103 1.15429 1.10851
 C1189 C 0.51749 0.66378 0.57655
 C1190 C 0.52315 0.68973 0.56161
 C1191 C 0.52015 0.71697 0.57641
 C1192 C 0.51059 0.71867 0.60628
 C1193 C 0.50620 0.69211 0.62109
 C1194 C 0.50925 0.66509 0.60634
 C1195 C 0.51925 0.63560 0.56159
 C1196 C 0.51937 0.61141 0.55018
 H1197 H 0.53001 0.68892 0.53860
 H1198 H 0.52584 0.73648 0.56446
 H1199 H 0.50015 0.69237 0.64430
 H1200 H 0.50510 0.64514 0.61822
 C1201 C 0.00060 0.66751 0.42278
 C1202 C 0.00517 0.69439 0.43774
 C1203 C 0.00556 0.72057 0.42246
 C1204 C 0.00053 0.72023 0.39203
 C1205 C -0.00219 0.69264 0.37722
 C1206 C -0.00257 0.66671 0.39246
 C1207 C -0.00016 0.64038 0.43796
 C1208 C -0.00052 0.61692 0.44932
 H1209 H 0.00857 0.69512 0.46115
 H1210 H 0.01013 0.74075 0.43460
 H1211 H -0.00484 0.69132 0.35369
 H1212 H -0.00545 0.64598 0.38054
 C1213 C 0.49519 1.16665 -0.07492
 C1214 C 0.50083 1.19339 -0.06009
 C1215 C 0.50201 1.21952 -0.07545
 C1216 C 0.49678 1.21926 -0.10583
 C1217 C 0.49282 1.19175 -0.12048
 C1218 C 0.49163 1.16589 -0.10517
 C1219 C 0.49406 1.13953 -0.05981
 C1220 C 0.49354 1.11600 -0.04863
 H1221 H 0.50456 1.19402 -0.03673
 H1222 H 0.50748 1.23956 -0.06346
 H1223 H 0.48997 1.19046 -0.14399
 H1224 H 0.48794 1.14523 -0.11699
 C1225 C 0.49822 0.33168 -0.07686
 C1226 C 0.51686 0.32695 -0.10137
 C1227 C 0.51647 0.30006 -0.11654
 C1228 C 0.49813 0.27651 -0.10690
 C1229 C 0.47802 0.28235 -0.08315
 C1230 C 0.47844 0.30953 -0.06792
 C1231 C 0.49888 0.35999 -0.06221
 C1232 C 0.50009 0.38433 -0.05131
 H1233 H 0.53149 0.34431 -0.10914
 H1234 H 0.53038 0.29822 -0.13622
 H1235 H 0.46207 0.26578 -0.07631
 H1236 H 0.46319 0.31335 -0.04943
 C1237 C -0.00360 -0.16792 0.42253
 C1238 C -0.02259 -0.19100 0.43067
 C1239 C -0.02149 -0.21794 0.41505
 C1240 C -0.00066 -0.22262 0.39166
 C1241 C 0.01699 -0.19825 0.38289
 C1242 C 0.01587 -0.17156 0.39845
 C1243 C -0.00456 -0.13982 0.43764
 C1244 C -0.00465 -0.11564 0.44902
 H1245 H -0.03842 -0.18809 0.44882
 H1246 H -0.03688 -0.23526 0.42129
 H1247 H 0.03143 -0.19925 0.36354
 H1248 H 0.02996 -0.15351 0.39132
 C1249 C 0.49846 -0.17135 0.57728
 C1250 C 0.48312 -0.19686 0.56865
 C1251 C 0.48742 -0.22309 0.58287
 C1252 C 0.50768 -0.22455 0.60559
 C1253 C 0.52258 -0.19829 0.61415
 C1254 C 0.51828 -0.17222 0.59989
 C1255 C 0.49343 -0.14384 0.56393
 C1256 C 0.49035 -0.12015 0.55362
 H1257 H 0.46735 -0.19633 0.55143
 H1258 H 0.47429 -0.24217 0.57663
 H1259 H 0.53673 -0.19731 0.63271
 H1260 H 0.52987 -0.15246 0.60713
 C1261 C -0.00422 0.33537 1.07560
 C1262 C -0.00917 0.30842 1.06092
 C1263 C -0.00656 0.28217 1.07569
 C1264 C 0.00177 0.28251 1.10529
 C1265 C 0.00588 0.31008 1.11976
 C1266 C 0.00328 0.33608 1.10501
 C1267 C -0.00686 0.36264 1.06105
 C1268 C -0.00819 0.38629 1.05022
 H1269 H -0.01549 0.30768 1.03821
 H1270 H -0.01196 0.26186 1.06409
 H1271 H 0.01091 0.31144 1.14281
 H1272 H 0.00682 0.35683 1.11672
 C1273 C 0.75460 0.33317 0.08350
 C1274 C 0.73442 0.35551 0.08100
 C1275 C 0.73074 0.36824 0.05401
 C1276 C 0.74660 0.35837 0.02837
 C1277 C 0.76747 0.33619 0.03150
 C1278 C 0.77112 0.32346 0.05868
 C1279 C 0.75801 0.32057 0.11175
 C1280 C 0.75930 0.31040 0.13578
 H1281 H 0.72184 0.36356 0.10015
 H1282 H 0.71609 0.38660 0.05374
 H1283 H 0.78140 0.32912 0.01295
 H1284 H 0.78714 0.30639 0.06041
 C1285 C 0.25036 0.82767 0.57987
 C1286 C 0.22925 0.84940 0.57900
 C1287 C 0.22399 0.86288 0.55272
 C1288 C 0.23924 0.85442 0.52626
 C1289 C 0.26076 0.83256 0.52771
 C1290 C 0.26601 0.81911 0.55415
 C1291 C 0.25594 0.81483 0.60751
 C1292 C 0.25898 0.80478 0.63133
 H1293 H 0.21731 0.85652 0.59890
 H1294 H 0.20880 0.88084 0.55371
 H1295 H 0.27413 0.82644 0.50843
 H1296 H 0.28269 0.80251 0.55462
 C1297 C 0.75756 0.67236 0.58188
 C1298 C 0.73940 0.64774 0.57784
 C1299 C 0.73917 0.63283 0.55077
 C1300 C 0.75632 0.64280 0.52633
 C1301 C 0.77618 0.66650 0.53143
 C1302 C 0.77638 0.68151 0.55879
 C1303 C 0.75704 0.68709 0.61028
 C1304 C 0.75554 0.69791 0.63475
 H1305 H 0.72553 0.63978 0.59585
 H1306 H 0.72563 0.61313 0.54946
 H1307 H 0.79133 0.67358 0.51408
 H1308 H 0.79127 0.70007 0.56197
 C1309 C 0.25138 0.18008 0.07606
 C1310 C 0.27816 0.16818 0.06609
 C1311 C 0.28014 0.15279 0.03913
 C1312 C 0.25488 0.14789 0.02234
 C1313 C 0.22924 0.16353 0.03092
 C1314 C 0.22729 0.17886 0.05789
 C1315 C 0.24813 0.19154 0.10568
 C1316 C 0.24569 0.20012 0.13088
 H1317 H 0.29729 0.16996 0.07959
 H1318 H 0.30129 0.14409 0.03216
 H1319 H 0.20991 0.16191 0.01773
 H1320 H 0.20663 0.18867 0.06508
 C1321 C 0.25150 0.18356 0.92008
 C1322 C 0.22597 0.16837 0.92922
 C1323 C 0.22608 0.15085 0.95380
 C1324 C 0.25222 0.14714 0.96907
 C1325 C 0.27683 0.16510 0.96128
 C1326 C 0.27670 0.18256 0.93665
 C1327 C 0.25222 0.19860 0.89277
 C1328 C 0.25252 0.20980 0.86916
 H1329 H 0.20602 0.16970 0.91705
 H1330 H 0.20556 0.14034 0.96054
 H1331 H 0.29671 0.16456 0.97363
 H1332 H 0.29646 0.19473 0.93017
 C1333 C 0.75342 0.67754 0.41735
 C1334 C 0.75703 0.64726 0.41554
 C1335 C 0.75721 0.63124 0.44100
 C1336 C 0.75464 0.64516 0.46912
 C1337 C 0.74908 0.67557 0.47054
 C1338 C 0.74892 0.69165 0.44483
 C1339 C 0.75402 0.69351 0.39061
 C1340 C 0.75457 0.70525 0.36727
 H1341 H 0.75990 0.63596 0.39438
 H1342 H 0.76024 0.60777 0.43884
 H1343 H 0.74452 0.68709 0.49121
 H1344 H 0.74521 0.71504 0.44640
 C1345 C 0.23099 0.82309 0.41511
 C1346 C 0.23662 0.85325 0.41580
 C1347 C 0.23849 0.86859 0.44256
 C1348 C 0.23550 0.85405 0.46946
 C1349 C 0.22821 0.82378 0.46842
 C1350 C 0.22642 0.80838 0.44142
 C1351 C 0.23127 0.80755 0.38717
 C1352 C 0.23294 0.79585 0.36311
 H1353 H 0.23991 0.86492 0.39557
 H1354 H 0.24288 0.89199 0.44235
 H1355 H 0.22361 0.81190 0.48825
 H1356 H 0.22157 0.78504 0.44107
 C1357 C 0.74103 0.32410 0.91707
 C1358 C 0.73580 0.30998 0.94365
 C1359 C 0.73758 0.32583 0.97047
 C1360 C 0.74535 0.35599 0.97108
 C1361 C 0.74951 0.36984 0.94389
 C1362 C 0.74772 0.35406 0.91735
 C1363 C 0.73978 0.30843 0.88917
 C1364 C 0.73966 0.29685 0.86499
 H1365 H 0.73009 0.28683 0.94366
 H1366 H 0.73221 0.31449 0.99047
 H1367 H 0.75428 0.39316 0.94327
 H1368 H 0.75148 0.36535 0.89695
 C1369 C 0.82476 0.42432 0.25643
 C1370 C 0.81274 0.44940 0.24533
 C1371 C 0.82797 0.47629 0.24732
 C1372 C 0.85576 0.47888 0.26060
 C1373 C 0.86671 0.45317 0.27261
 C1374 C 0.85138 0.42644 0.27063
 C1375 C 0.81087 0.39598 0.25203
 C1376 C 0.80014 0.37177 0.24887
 H1377 H 0.79220 0.44797 0.23398
 H1378 H 0.81899 0.49444 0.23612
 H1379 H 0.88772 0.45279 0.28264
 H1380 H 0.86092 0.40709 0.27934
 C1381 C 0.32370 0.92456 0.74785
 C1382 C 0.34493 0.92766 0.76912
 C1383 C 0.35937 0.95451 0.77388
 C1384 C 0.35239 0.97942 0.75794
 C1385 C 0.33095 0.97572 0.73630
 C1386 C 0.31655 0.94867 0.73153
 C1387 C 0.31033 0.89614 0.74258
 C1388 C 0.30025 0.87163 0.73986
 H1389 H 0.35102 0.90897 0.78152
 H1390 H 0.37698 0.95498 0.78919
 H1391 H 0.32594 0.99368 0.72247
 H1392 H 0.30039 0.94641 0.71467
 C1393 C 0.17228 0.90802 0.25492
 C1394 C 0.18735 0.93479 0.25941
 C1395 C 0.17264 0.96139 0.25741
 C1396 C 0.14265 0.96166 0.25022
 C1397 C 0.12780 0.93431 0.24662
 C1398 C 0.14247 0.90795 0.24862
 C1399 C 0.18699 0.88038 0.25649
 C1400 C 0.19836 0.85669 0.25694
 H1401 H 0.21038 0.93511 0.26475
 H1402 H 0.18469 0.98151 0.26227
 H1403 H 0.10454 0.93343 0.24224
 H1404 H 0.13044 0.88743 0.24537
 C1405 C 0.67264 0.41117 0.75342
 C1406 C 0.64950 0.41315 0.73435
 C1407 C 0.63550 0.43974 0.73134
 C1408 C 0.64491 0.46551 0.74670
 C1409 C 0.66765 0.46281 0.76676
 C1410 C 0.68166 0.43603 0.76974
 C1411 C 0.68650 0.38331 0.75617
 C1412 C 0.69733 0.35944 0.75712
 H1413 H 0.64187 0.39391 0.72207
 H1414 H 0.61673 0.43968 0.71745
 H1415 H 0.67437 0.48143 0.78040
 H1416 H 0.69924 0.43464 0.78504
 C1417 C 0.67769 0.57649 0.73985
 C1418 C 0.69221 0.54998 0.73430
 C1419 C 0.67662 0.52322 0.73627
 C1420 C 0.64635 0.52260 0.74464
 C1421 C 0.63207 0.54973 0.74893
 C1422 C 0.64759 0.57622 0.74692
 C1423 C 0.69314 0.60430 0.73887
 C1424 C 0.70435 0.62847 0.73921
 H1425 H 0.71548 0.54999 0.72827
 H1426 H 0.68826 0.50328 0.73068
 H1427 H 0.60864 0.55035 0.75409
 H1428 H 0.63601 0.59658 0.75091
 C1429 C 0.17033 0.07471 0.24252
 C1430 C 0.17969 0.05053 0.22518
 C1431 C 0.16575 0.02304 0.22842
 C1432 C 0.14262 0.01897 0.24960
 C1433 C 0.13326 0.04399 0.26638
 C1434 C 0.14720 0.07124 0.26313
 C1435 C 0.18367 0.10345 0.23926
 C1436 C 0.19398 0.12801 0.23811
 H1437 H 0.19735 0.05301 0.20879
 H1438 H 0.17259 0.00501 0.21390
 H1439 H 0.11432 0.04314 0.28138
 H1440 H 0.13937 0.08988 0.27633
 C1441 C 0.32393 0.09021 0.76618
 C1442 C 0.35444 0.08996 0.76169
 C1443 C 0.36919 0.06348 0.76003
 C1444 C 0.35372 0.03640 0.76205
 C1445 C 0.32305 0.03711 0.76838
 C1446 C 0.30827 0.06381 0.76998
 C1447 C 0.30908 0.11775 0.76599
 C1448 C 0.29797 0.14143 0.76494
 H1449 H 0.36687 0.11029 0.75910
 H1450 H 0.39287 0.06399 0.75632
 H1451 H 0.31032 0.01729 0.77227
 H1452 H 0.28464 0.06385 0.77408
 C1453 C 0.82691 0.58905 0.25569
 C1454 C 0.85297 0.58581 0.23892
 C1455 C 0.86806 0.55947 0.23849
 C1456 C 0.85737 0.53521 0.25466
 C1457 C 0.83060 0.53904 0.27127
 C1458 C 0.81559 0.56555 0.27169
 C1459 C 0.81271 0.61701 0.25714
 C1460 C 0.80176 0.64089 0.25783
 H1461 H 0.86205 0.60397 0.22655
 H1462 H 0.88841 0.55893 0.22574
 H1463 H 0.82189 0.52192 0.28518
 H1464 H 0.79554 0.56790 0.28509
 C1465 C 0.91725 0.26492 0.17114
 C1466 C 0.94321 0.27081 0.18603
 C1467 C 0.97064 0.26735 0.17141
 C1468 C 0.97251 0.25709 0.14181
 C1469 C 0.94593 0.25243 0.12703
 C1470 C 0.91873 0.25593 0.14160
 C1471 C 0.88886 0.26726 0.18587
 C1472 C 0.86445 0.26785 0.19705
 H1473 H 0.94225 0.27825 0.20885
 H1474 H 0.99016 0.27330 0.18324
 H1475 H 0.94630 0.24591 0.10397
 H1476 H 0.89878 0.25160 0.12976
 C1477 C 0.42295 0.75975 0.66972
 C1478 C 0.44753 0.77604 0.67887
 C1479 C 0.47524 0.77122 0.66524
 C1480 C 0.47907 0.74948 0.64267
 C1481 C 0.45370 0.73367 0.63358
 C1482 C 0.42620 0.73850 0.64721
 C1483 C 0.39408 0.76448 0.68290
 C1484 C 0.36935 0.76652 0.69318
 H1485 H 0.44521 0.79283 0.69611
 H1486 H 0.49364 0.78501 0.67184
 H1487 H 0.45456 0.71827 0.61506
 H1488 H 0.40724 0.72604 0.63964
 C1489 C 0.41466 0.25256 0.82931
 C1490 C 0.41633 0.23447 0.85319
 C1491 C 0.44249 0.23266 0.86786
 C1492 C 0.46827 0.24811 0.85833
 C1493 C 0.46558 0.26783 0.83532
 C1494 C 0.43917 0.26962 0.82058
 C1495 C 0.38724 0.25376 0.81474
 C1496 C 0.36356 0.25371 0.80374
 H1497 H 0.39720 0.22192 0.86077
 H1498 H 0.44199 0.21938 0.88708
 H1499 H 0.48400 0.28179 0.82868
 H1500 H 0.43782 0.28440 0.80258
 C1501 C 0.91687 0.75163 0.32763
 C1502 C 0.91938 0.73275 0.35077
 C1503 C 0.94569 0.73143 0.36530
 C1504 C 0.97079 0.74826 0.35637
 C1505 C 0.96726 0.76849 0.33397
 C1506 C 0.94072 0.76980 0.31939
 C1507 C 0.88922 0.75266 0.31340
 C1508 C 0.86543 0.75263 0.30260
 H1509 H 0.90075 0.71928 0.35797
 H1510 H 0.94578 0.71751 0.38404
 H1511 H 0.98514 0.78330 0.32773
 H1512 H 0.93872 0.78514 0.30196
 C1513 C 0.08239 0.74579 0.32193
 C1514 C 0.08197 0.74893 0.35245
 C1515 C 0.05532 0.74863 0.36840
 C1516 C 0.02821 0.74599 0.35420
 C1517 C 0.02908 0.74071 0.32345
 C1518 C 0.05601 0.74105 0.30742
 C1519 C 0.11031 0.74709 0.30618
 C1520 C 0.13465 0.74807 0.29486
 H1521 H 0.10230 0.75195 0.36398
 H1522 H 0.05572 0.75155 0.39206
 H1523 H 0.00927 0.73621 0.31160
 H1524 H 0.05625 0.73766 0.28378
 C1525 C 0.57998 0.24258 0.82454
 C1526 C 0.55368 0.23844 0.80975
 C1527 C 0.52662 0.23840 0.82556
 C1528 C 0.52563 0.24351 0.85632
 C1529 C 0.55265 0.24522 0.87079
 C1530 C 0.57939 0.24516 0.85508
 C1531 C 0.60795 0.24459 0.80902
 C1532 C 0.63227 0.24650 0.79786
 H1533 H 0.55406 0.23552 0.78607
 H1534 H 0.50683 0.23452 0.81353
 H1535 H 0.55291 0.24802 0.89447
 H1536 H 0.59965 0.24775 0.86679
 C1537 C 0.58928 0.74140 0.67256
 C1538 C 0.56209 0.73712 0.68740
 C1539 C 0.53580 0.73983 0.67261
 C1540 C 0.53630 0.74755 0.64280
 C1541 C 0.56407 0.75103 0.62819
 C1542 C 0.59013 0.74833 0.64295
 C1543 C 0.61657 0.73885 0.68730
 C1544 C 0.64007 0.73762 0.69861
 H1545 H 0.56120 0.73131 0.71027
 H1546 H 0.51531 0.73500 0.68441
 H1547 H 0.56553 0.75568 0.60503
 H1548 H 0.61102 0.75141 0.63113
 C1549 C 0.08233 0.24627 0.17213
 C1550 C 0.08192 0.26484 0.14844
 C1551 C 0.05606 0.26832 0.13353
 C1552 C 0.02953 0.25395 0.14252
 C1553 C 0.03063 0.23454 0.16602
 C1554 C 0.05666 0.23107 0.18093
 C1555 C 0.10955 0.24257 0.18659
 C1556 C 0.13301 0.24062 0.19778
 H1557 H 0.10184 0.27622 0.14103
 H1558 H 0.05733 0.28166 0.11433
 H1559 H 0.01137 0.22169 0.17255
 H1560 H 0.05688 0.21618 0.19895
 C1561 C -0.07727 0.99431 0.83869
 C1562 C -0.06250 0.98906 0.81159
 C1563 C -0.07743 0.99114 0.78539
 C1564 C -0.10734 0.99916 0.78587
 C1565 C -0.12185 1.00375 0.81355
 C1566 C -0.10694 1.00168 0.83953
 C1567 C -0.06244 0.99224 0.86590
 C1568 C -0.05108 0.99142 0.88935
 H1569 H -0.03957 0.98293 0.81073
 H1570 H -0.06569 0.98554 0.76499
 H1571 H -0.14508 1.00870 0.81500
 H1572 H -0.11871 1.00552 0.86037
 C1573 C 0.42583 0.48728 0.33405
 C1574 C 0.44028 0.48262 0.30670
 C1575 C 0.42495 0.48501 0.28077
 C1576 C 0.39498 0.49290 0.28176
 C1577 C 0.38066 0.49637 0.30968
 C1578 C 0.39597 0.49396 0.33541
 C1579 C 0.44125 0.48560 0.36098
 C1580 C 0.45293 0.48518 0.38430
 H1581 H 0.46333 0.47692 0.30541
 H1582 H 0.43656 0.48005 0.26015
 H1583 H 0.35741 0.50111 0.31151
 H1584 H 0.38442 0.49726 0.35644
 C1585 C 0.57053 -0.00053 0.33326
 C1586 C 0.55627 -0.00619 0.30691
 C1587 C 0.57240 -0.00644 0.28010
 C1588 C 0.60299 -0.00014 0.27928
 C1589 C 0.61706 0.00349 0.30635
 C1590 C 0.60099 0.00372 0.33291
 C1591 C 0.55453 0.00036 0.36104
 C1592 C 0.54276 0.00093 0.38515
 H1593 H 0.53274 -0.01048 0.30709
 H1594 H 0.56077 -0.01180 0.26035
 H1595 H 0.64067 0.00712 0.30678
 H1596 H 0.61237 0.00743 0.35322
 C1597 C 0.07004 0.50429 0.82782
 C1598 C 0.08292 0.47804 0.81796
 C1599 C 0.09947 0.47678 0.79153
 C1600 C 0.10455 0.50224 0.77508
 C1601 C 0.08826 0.52743 0.78357
 C1602 C 0.07178 0.52867 0.81005
 C1603 C 0.05665 0.50650 0.85687
 C1604 C 0.04650 0.50770 0.88167
 H1605 H 0.08080 0.45867 0.83108
 H1606 H 0.10860 0.45592 0.78454
 H1607 H 0.08993 0.54687 0.77055
 H1608 H 0.06125 0.54893 0.81709
 C1609 C 0.07403 0.50360 0.66963
 C1610 C 0.08770 0.52967 0.67927
 C1611 C 0.10279 0.53067 0.70543
 C1612 C 0.10564 0.50508 0.72172
 C1613 C 0.08832 0.48023 0.71365
 C1614 C 0.07329 0.47925 0.68745
 C1615 C 0.06231 0.50147 0.64079
 C1616 C 0.05330 0.49992 0.61626
 H1617 H 0.08739 0.54905 0.66616
 H1618 H 0.11269 0.55137 0.71226
 H1619 H 0.08824 0.46076 0.72664
 H1620 H 0.06203 0.45917 0.68060
 C1621 C 0.57536 1.00145 0.16858
 C1622 C 0.59977 0.98384 0.17099
 C1623 C 0.61482 0.98401 0.19701
 C1624 C 0.60516 1.00102 0.22197
 C1625 C 0.58163 1.02026 0.21842
 C1626 C 0.56651 1.02006 0.19214
 C1627 C 0.56069 1.00097 0.14117
 C1628 C 0.54988 0.99993 0.11743
 H1629 H 0.60750 0.97017 0.15251
 H1630 H 0.63440 0.97095 0.19707
 H1631 H 0.57480 1.03527 0.23613
 H1632 H 0.54814 1.03455 0.19015
 C1633 C 0.42338 0.50566 0.16969
 C1634 C 0.43184 0.52192 0.19462
 C1635 C 0.41745 0.51734 0.22185
 C1636 C 0.39475 0.49587 0.22493
 C1637 C 0.38619 0.48022 0.19923
 C1638 C 0.40059 0.48481 0.17215
 C1639 C 0.43731 0.51040 0.14125
 C1640 C 0.44797 0.51277 0.11677
 H1641 H 0.44918 0.53847 0.19294
 H1642 H 0.42370 0.53102 0.24053
 H1643 H 0.36762 0.46506 0.19954
 H1644 H 0.39346 0.47246 0.15290
 C1645 C -0.08164 0.00671 0.67221
 C1646 C -0.07219 0.02384 0.69620
 C1647 C -0.08541 0.02015 0.72411
 C1648 C -0.10793 -0.00122 0.72874
 C1649 C -0.11724 -0.01798 0.70397
 C1650 C -0.10400 -0.01429 0.67627
 C1651 C -0.06923 0.01067 0.64309
 C1652 C -0.05960 0.01244 0.61821
 H1653 H -0.05510 0.04046 0.69322
 H1654 H -0.07865 0.03459 0.74203
 H1655 H -0.13572 -0.03319 0.70543
 H1656 H -0.11181 -0.02736 0.65776
 C1657 C -0.17030 0.93134 0.99751
 C1658 C -0.18774 0.93176 1.02344
 C1659 C -0.21427 0.91569 1.02488
 C1660 C -0.22305 0.89759 1.00088
 C1661 C -0.20698 0.90053 0.97390
 C1662 C -0.18056 0.91664 0.97246
 C1663 C -0.14116 0.94431 0.99695
 C1664 C -0.11631 0.95411 0.99669
 H1665 H -0.18042 0.94376 1.04282
 H1666 H -0.22710 0.91594 1.04537
 H1667 H -0.21426 0.89002 0.95379
 H1668 H -0.16778 0.91703 0.95193
 C1669 C 0.33321 0.42416 0.49582
 C1670 C 0.31568 0.42501 0.52169
 C1671 C 0.28863 0.40985 0.52291
 C1672 C 0.27935 0.39225 0.49876
 C1673 C 0.29562 0.39484 0.47185
 C1674 C 0.32257 0.41004 0.47063
 C1675 C 0.36258 0.43657 0.49531
 C1676 C 0.38746 0.44625 0.49479
 H1677 H 0.32329 0.43666 0.54115
 H1678 H 0.27573 0.41035 0.54337
 H1679 H 0.28806 0.38473 0.45166
 H1680 H 0.33541 0.41022 0.45013
 C1681 C 0.33268 0.58062 -0.00047
 C1682 C 0.33123 0.60289 -0.02058
 C1683 C 0.30478 0.61699 -0.02435
 C1684 C 0.27868 0.60861 -0.00861
 C1685 C 0.28075 0.58623 0.01195
 C1686 C 0.30738 0.57216 0.01572
 C1687 C 0.36054 0.56722 0.00369
 C1688 C 0.38444 0.55669 0.00585
 H1689 H 0.35082 0.60996 -0.03286
 H1690 H 0.30540 0.63533 -0.03879
 H1691 H 0.26181 0.58016 0.02568
 H1692 H 0.30836 0.55516 0.03168
 C1693 C -0.17578 0.07860 0.50060
 C1694 C -0.17736 0.10057 0.48014
 C1695 C -0.20382 0.11471 0.47635
 C1696 C -0.22980 0.10670 0.49247
 C1697 C -0.22762 0.08459 0.51331
 C1698 C -0.20100 0.07049 0.51709
 C1699 C -0.14788 0.06523 0.50489
 C1700 C -0.12395 0.05474 0.50720
 H1701 H -0.15783 0.10739 0.46760
 H1702 H -0.20328 0.13281 0.46162
 H1703 H -0.24646 0.07877 0.52729
 H1704 H -0.19996 0.05375 0.53332
 C1705 C 0.65834 0.07710 0.48632
 C1706 C 0.65919 0.10712 0.49321
 C1707 C 0.68613 0.12208 0.49509
 C1708 C 0.71307 0.10728 0.49085
 C1709 C 0.71181 0.07716 0.48257
 C1710 C 0.68468 0.06218 0.48073
 C1711 C 0.63029 0.06184 0.48582
 C1712 C 0.60636 0.04991 0.48655
 H1713 H 0.63897 0.11902 0.49729
 H1714 H 0.68604 0.14542 0.50024
 H1715 H 0.73158 0.06511 0.47703
 H1716 H 0.68426 0.03898 0.47488
 C1717 C 0.16681 0.57943 0.98377
 C1718 C 0.16773 0.60938 0.99092
 C1719 C 0.19468 0.62414 0.99331
 C1720 C 0.22156 0.60920 0.98931
 C1721 C 0.22027 0.57915 0.98080
 C1722 C 0.19309 0.56435 0.97847
 C1723 C 0.13867 0.56448 0.98288
 C1724 C 0.11449 0.55313 0.98348
 H1725 H 0.14754 0.62138 0.99481
 H1726 H 0.19464 0.64744 0.99865
 H1727 H 0.24004 0.56702 0.97546
 H1728 H 0.19259 0.54118 0.97245
 C1729 C 0.17535 0.42970 0.50562
 C1730 C 0.19270 0.42658 0.47978
 C1731 C 0.21801 0.40955 0.47925
 C1732 C 0.22557 0.39400 0.50415
 C1733 C 0.20977 0.40046 0.53086
 C1734 C 0.18457 0.41753 0.53138
 C1735 C 0.14723 0.44374 0.50548
 C1736 C 0.12314 0.45438 0.50543
 H1737 H 0.18623 0.43657 0.45982
 H1738 H 0.23080 0.40707 0.45884
 H1739 H 0.21634 0.39204 0.55146
 H1740 H 0.17190 0.42066 0.55180
 C1741 C 0.67198 0.93229 0.00782
 C1742 C 0.68947 0.92968 -0.01799
 C1743 C 0.71521 0.91330 -0.01849
 C1744 C 0.72311 0.89790 0.00639
 C1745 C 0.70707 0.90389 0.03306
 C1746 C 0.68145 0.92030 0.03356
 C1747 C 0.64353 0.94565 0.00765
 C1748 C 0.61920 0.95573 0.00756
 H1749 H 0.68279 0.93955 -0.03794
 H1750 H 0.72811 0.91120 -0.03887
 H1751 H 0.71380 0.89560 0.05367
 H1752 H 0.66865 0.92307 0.05395
 C1753 C -0.00979 0.83152 0.92500
 C1754 C 0.01012 0.82907 0.90108
 C1755 C 0.01403 0.80219 0.88625
 C1756 C -0.00128 0.77661 0.89550
 C1757 C -0.02204 0.77972 0.91924
 C1758 C -0.02593 0.80682 0.93411
 C1759 C -0.01324 0.85974 0.93961
 C1760 C -0.01406 0.88407 0.95070
 H1761 H 0.02234 0.84817 0.89347
 H1762 H 0.02848 0.80196 0.86687
 H1763 H -0.03559 0.76120 0.92600
 H1764 H -0.04178 0.80857 0.95238
 C1765 C 0.49638 0.32416 0.42416
 C1766 C 0.47643 0.31945 0.40199
 C1767 C 0.47504 0.29255 0.38687
 C1768 C 0.49290 0.26888 0.39423
 C1769 C 0.51407 0.27460 0.41576
 C1770 C 0.51547 0.30183 0.43092
 C1771 C 0.49769 0.35268 0.43848
 C1772 C 0.49784 0.37722 0.44906
 H1773 H 0.46224 0.33689 0.39586
 H1774 H 0.46031 0.29102 0.36881
 H1775 H 0.52962 0.25796 0.42075
 H1776 H 0.53167 0.30556 0.44755
 C1777 C 0.01286 0.33768 0.57577
 C1778 C 0.00667 0.33775 0.60597
 C1779 C 0.00451 0.31142 0.62057
 C1780 C 0.00773 0.28420 0.60522
 C1781 C 0.01544 0.28459 0.57489
 C1782 C 0.01757 0.31112 0.56027
 C1783 C 0.01394 0.36508 0.56106
 C1784 C 0.01406 0.38866 0.54992
 H1785 H 0.00339 0.35821 0.61828
 H1786 H -0.00015 0.31220 0.64405
 H1787 H 0.02029 0.26465 0.56238
 H1788 H 0.02298 0.31091 0.53692
 C1789 C 0.50582 0.83415 0.07191
 C1790 C 0.53067 0.81657 0.07084
 C1791 C 0.53021 0.79027 0.08572
 C1792 C 0.50532 0.78172 0.10317
 C1793 C 0.47937 0.79798 0.10101
 C1794 C 0.47987 0.82427 0.08607
 C1795 C 0.50725 0.86283 0.05966
 C1796 C 0.50820 0.88717 0.05011
 H1797 H 0.55069 0.82359 0.05925
 H1798 H 0.55000 0.77740 0.08518
 H1799 H 0.45868 0.79090 0.11107
 H1800 H 0.46012 0.83720 0.08608
 C1801 C 0.50600 0.67539 0.06708
 C1802 C 0.53247 0.68433 0.07962
 C1803 C 0.53430 0.71098 0.09555
 C1804 C 0.50915 0.72846 0.10033
 C1805 C 0.48401 0.72095 0.08406
 C1806 C 0.48222 0.69435 0.06818
 C1807 C 0.50252 0.64605 0.05504
 C1808 C 0.49959 0.62114 0.04587
 H1809 H 0.55141 0.67024 0.07796
 H1810 H 0.55517 0.71713 0.10476
 H1811 H 0.46477 0.73462 0.08572
 H1812 H 0.46183 0.68802 0.05791
 C1813 C -0.00359 0.17262 0.57385
 C1814 C -0.02027 0.19665 0.56682
 C1815 C -0.01640 0.22361 0.58183
 C1816 C 0.00474 0.22730 0.60374
 C1817 C 0.02087 0.20241 0.61080
 C1818 C 0.01700 0.17563 0.59575
 C1819 C -0.00811 0.14430 0.55982
 C1820 C -0.01074 0.11992 0.54919
 H1821 H -0.03670 0.19440 0.55022
 H1822 H -0.03041 0.24155 0.57677
 H1823 H 0.03575 0.20296 0.62877
 H1824 H 0.02958 0.15696 0.60182
 C1825 C 0.49260 0.15841 0.42454
 C1826 C 0.48913 0.18505 0.44030
 C1827 C 0.48790 0.21140 0.42540
 C1828 C 0.49100 0.21146 0.39444
 C1829 C 0.49227 0.18404 0.37908
 C1830 C 0.49346 0.15796 0.39394
 C1831 C 0.49500 0.13119 0.43926
 C1832 C 0.49671 0.10767 0.45029
 H1833 H 0.48751 0.18549 0.46408
 H1834 H 0.48454 0.23137 0.43831
 H1835 H 0.49362 0.18302 0.35529
 H1836 H 0.49549 0.13743 0.38148
 C1837 C 0.00754 0.66628 0.92354
 C1838 C 0.01213 0.69305 0.93870
 C1839 C 0.00966 0.71953 0.92429
 C1840 C 0.00175 0.71959 0.89458
 C1841 C -0.00159 0.69222 0.87953
 C1842 C 0.00091 0.66598 0.89390
 C1843 C 0.00900 0.63883 0.93802
 C1844 C 0.00914 0.61518 0.94904
 H1845 H 0.01778 0.69347 0.96160
 H1846 H 0.01452 0.73970 0.93636
 H1847 H -0.00640 0.69122 0.85642
 H1848 H -0.00237 0.64540 0.88183
 C1849 C 0.24639 0.67661 0.91090
 C1850 C 0.25203 0.64665 0.90980
 C1851 C 0.25360 0.63143 0.93565
 C1852 C 0.25028 0.64591 0.96342
 C1853 C 0.24350 0.67604 0.96416
 C1854 C 0.24194 0.69129 0.93809
 C1855 C 0.24524 0.69180 0.88383
 C1856 C 0.24496 0.70317 0.86036
 H1857 H 0.25513 0.63497 0.88887
 H1858 H 0.25757 0.60810 0.93406
 H1859 H 0.23873 0.68784 0.98466
 H1860 H 0.23699 0.71444 0.93913
 C1861 C 0.73713 0.17439 0.41164
 C1862 C 0.74274 0.14441 0.41069
 C1863 C 0.74457 0.12931 0.43664
 C1864 C 0.74156 0.14391 0.46439
 C1865 C 0.73483 0.17406 0.46499
 C1866 C 0.73301 0.18918 0.43883
 C1867 C 0.73593 0.18960 0.38449
 C1868 C 0.73575 0.20128 0.36111
 H1869 H 0.74564 0.13261 0.38980
 H1870 H 0.74851 0.10597 0.43513
 H1871 H 0.73033 0.18598 0.48548
 H1872 H 0.72815 0.21235 0.43983
 C1873 C 0.24983 0.31438 0.42382
 C1874 C 0.27417 0.31512 0.44170
 C1875 C 0.27359 0.33209 0.46780
 C1876 C 0.24922 0.34987 0.47574
 C1877 C 0.22355 0.34574 0.45938
 C1878 C 0.22413 0.32870 0.43333
 C1879 C 0.25169 0.30073 0.39490
 C1880 C 0.25271 0.29052 0.37015
 H1881 H 0.29397 0.30350 0.43497
 H1882 H 0.29307 0.33303 0.48082
 H1883 H 0.20310 0.35608 0.46605
 H1884 H 0.20474 0.32740 0.42018
 C1885 C 0.74967 0.81900 0.92600
 C1886 C 0.72360 0.83275 0.93534
 C1887 C 0.72247 0.84972 0.96143
 C1888 C 0.74793 0.85438 0.97802
 C1889 C 0.77273 0.83715 0.97023
 C1890 C 0.77385 0.82024 0.94409
 C1891 C 0.75204 0.80530 0.89710
 C1892 C 0.75369 0.79488 0.87244
 H1893 H 0.70433 0.83104 0.92203
 H1894 H 0.70175 0.85961 0.96796
 H1895 H 0.79210 0.83852 0.98338
 H1896 H 0.79395 0.80905 0.93751
 C1897 C 0.74822 0.82689 0.08456
 C1898 C 0.77464 0.83991 0.07454
 C1899 C 0.77601 0.85450 0.04800
 C1900 C 0.75051 0.85749 0.03155
 C1901 C 0.72509 0.84113 0.04029
 C1902 C 0.72374 0.82660 0.06687
 C1903 C 0.74615 0.81471 0.11336
 C1904 C 0.74499 0.80508 0.13773
 H1905 H 0.79411 0.83927 0.08751
 H1906 H 0.79705 0.86368 0.04088
 H1907 H 0.70560 0.84116 0.02731
 H1908 H 0.70336 0.81584 0.07396
 C1909 C 0.24918 0.32207 0.58211
 C1910 C 0.27594 0.33407 0.57173
 C1911 C 0.27751 0.34868 0.54523
 C1912 C 0.25191 0.35274 0.52920
 C1913 C 0.22604 0.33724 0.53820
 C1914 C 0.22448 0.32270 0.56477
 C1915 C 0.24697 0.31032 0.61106
 C1916 C 0.24573 0.30127 0.63565
 H1917 H 0.29552 0.33271 0.58444
 H1918 H 0.29878 0.35710 0.53783
 H1919 H 0.20642 0.33802 0.52548
 H1920 H 0.20381 0.31273 0.57215
 C1921 C 0.75411 0.17089 0.57699
 C1922 C 0.77085 0.17931 0.55222
 C1923 C 0.76595 0.16571 0.52478
 C1924 C 0.74373 0.14383 0.52138
 C1925 C 0.72739 0.13552 0.54692
 C1926 C 0.73230 0.14915 0.57417
 C1927 C 0.75914 0.18390 0.60565
 C1928 C 0.76152 0.19402 0.63025
 H1929 H 0.78807 0.19593 0.55419
 H1930 H 0.78010 0.17172 0.50623
 H1931 H 0.71156 0.11754 0.54645
 H1932 H 0.71949 0.14212 0.59329
 C1933 C 0.26124 0.67255 0.07605
 C1934 C 0.23967 0.65063 0.07294
 C1935 C 0.23527 0.63697 0.04564
 C1936 C 0.25190 0.64545 0.02035
 C1937 C 0.27396 0.66744 0.02406
 C1938 C 0.27834 0.68107 0.05156
 C1939 C 0.26577 0.68546 0.10476
 C1940 C 0.26771 0.69526 0.12949
 H1941 H 0.22664 0.64350 0.09188
 H1942 H 0.21958 0.61888 0.04492
 H1943 H 0.28832 0.67356 0.00571
 H1944 H 0.29543 0.69780 0.05381
 C1945 C 0.18299 0.58153 0.75178
 C1946 C 0.16912 0.57169 0.77754
 C1947 C 0.15233 0.54577 0.77704
 C1948 C 0.14788 0.52990 0.75033
 C1949 C 0.16530 0.53812 0.72550
 C1950 C 0.18205 0.56414 0.72600
 C1951 C 0.19622 0.61038 0.75145
 C1952 C 0.20610 0.63505 0.75125
 H1953 H 0.17060 0.58447 0.79791
 H1954 H 0.14239 0.53879 0.79761
 H1955 H 0.16437 0.52533 0.70511
 H1956 H 0.19339 0.57118 0.70606
 C1957 C 0.66883 0.08666 0.24729
 C1958 C 0.67807 0.06330 0.22874
 C1959 C 0.66331 0.03603 0.22988
 C1960 C 0.63973 0.03130 0.25038
 C1961 C 0.62981 0.05591 0.26750
 C1962 C 0.64449 0.08291 0.26633
 C1963 C 0.68339 0.11495 0.24677
 C1964 C 0.69448 0.13918 0.24744
 H1965 H 0.69647 0.06620 0.21326
 H1966 H 0.67034 0.01855 0.21476
 H1967 H 0.61022 0.05483 0.28162
 H1968 H 0.63652 0.10107 0.28013
 C1969 C 0.82720 0.07966 0.74610
 C1970 C 0.84992 0.07916 0.76584
 C1971 C 0.86399 0.05303 0.77087
 C1972 C 0.85516 0.02634 0.75683
 C1973 C 0.83230 0.02740 0.73664
 C1974 C 0.81825 0.05371 0.73160
 C1975 C 0.81371 0.10718 0.74084
 C1976 C 0.80326 0.13099 0.73821
 H1977 H 0.85732 0.09922 0.77687
 H1978 H 0.88266 0.05426 0.78491
 H1979 H 0.82586 0.00791 0.72412
 H1980 H 0.80086 0.05391 0.71598
 C1981 C 0.33038 0.57686 0.24721
 C1982 C 0.32121 0.55187 0.23116
 C1983 C 0.33501 0.52501 0.23447
 C1984 C 0.35786 0.52236 0.25443
 C1985 C 0.36695 0.54811 0.27005
 C1986 C 0.35313 0.57478 0.26674
 C1987 C 0.31732 0.60501 0.24341
 C1988 C 0.30710 0.62908 0.24139
 H1989 H 0.30386 0.55326 0.21562
 H1990 H 0.32836 0.50636 0.22082
 H1991 H 0.38565 0.54825 0.28404
 H1992 H 0.36080 0.59406 0.27892
 C1993 C 0.32791 0.41071 0.26336
 C1994 C 0.31313 0.43706 0.26907
 C1995 C 0.32797 0.46408 0.26559
 C1996 C 0.35780 0.46523 0.25561
 C1997 C 0.37237 0.43831 0.25075
 C1998 C 0.35757 0.41151 0.25425
 C1999 C 0.31296 0.38264 0.26611
 C2000 C 0.30147 0.35854 0.26697
 H2001 H 0.29022 0.43674 0.27649
 H2002 H 0.31617 0.48386 0.27150
 H2003 H 0.39554 0.43809 0.24431
 H2004 H 0.36938 0.39134 0.24995
 C2005 C 0.82666 0.91520 0.76928
 C2006 C 0.85657 0.91611 0.76135
 C2007 C 0.87113 0.94291 0.75770
 C2008 C 0.85601 0.96964 0.76123
 C2009 C 0.82601 0.96842 0.77053
 C2010 C 0.81139 0.94136 0.77411
 C2011 C 0.81197 0.88710 0.77117
 C2012 C 0.80110 0.86281 0.77112
 H2013 H 0.86869 0.89601 0.75777
 H2014 H 0.89442 0.94285 0.75178
 H2015 H 0.81382 0.98818 0.77552
 H2016 H 0.78824 0.94086 0.78067
 C2017 C 0.67293 0.92112 0.25007
 C2018 C 0.68772 0.94802 0.25464
 C2019 C 0.67205 0.97426 0.25588
 C2020 C 0.64138 0.97392 0.25172
 C2021 C 0.62682 0.94632 0.24917
 C2022 C 0.64242 0.92038 0.24796
 C2023 C 0.68838 0.89388 0.24806
 C2024 C 0.69972 0.87020 0.24668
 H2025 H 0.71132 0.94872 0.25723
 H2026 H 0.68408 0.99447 0.26022
 H2027 H 0.60317 0.94498 0.24706
 H2028 H 0.63062 0.89967 0.24509
 C2029 C 0.17961 0.42474 0.74117
 C2030 C 0.16697 0.43494 0.71610
 C2031 C 0.15112 0.46086 0.71763
 C2032 C 0.14636 0.47642 0.74473
 C2033 C 0.16243 0.46769 0.76883
 C2034 C 0.17825 0.44168 0.76729
 C2035 C 0.19240 0.39615 0.74051
 C2036 C 0.20218 0.37181 0.74051
 H2037 H 0.16880 0.42253 0.69546
 H2038 H 0.14231 0.46821 0.69750
 H2039 H 0.16133 0.48022 0.78942
 H2040 H 0.18869 0.43439 0.78669
 C2041 C 0.08309 0.74135 0.82554
 C2042 C 0.05659 0.73586 0.81143
 C2043 C 0.02963 0.73801 0.82727
 C2044 C 0.02877 0.74648 0.85740
 C2045 C 0.05590 0.75078 0.87129
 C2046 C 0.08260 0.74859 0.85551
 C2047 C 0.11107 0.74010 0.80975
 C2048 C 0.13526 0.74018 0.79800
 H2049 H 0.05677 0.72973 0.78827
 H2050 H 0.00972 0.73245 0.81593
 H2051 H 0.05633 0.75605 0.89461
 H2052 H 0.10296 0.75257 0.86677
 C2053 C 0.57621 0.24415 0.32525
 C2054 C 0.57248 0.22431 0.34771
 C2055 C 0.54597 0.22271 0.36385
 C2056 C 0.52179 0.24023 0.35727
 C2057 C 0.52660 0.26137 0.33550
 C2058 C 0.55338 0.26298 0.31932
 C2059 C 0.60430 0.24582 0.30981
 C2060 C 0.62858 0.24649 0.29833
 H2061 H 0.59038 0.21037 0.35322
 H2062 H 0.54513 0.20802 0.38199
 H2063 H 0.50953 0.27665 0.33100
 H2064 H 0.55638 0.27911 0.30249
 C2065 C 0.58488 0.76116 0.17702
 C2066 C 0.57438 0.78631 0.16465
 C2067 C 0.54900 0.78476 0.14832
 C2068 C 0.53424 0.75761 0.14280
 C2069 C 0.54330 0.73323 0.15834
 C2070 C 0.56879 0.73480 0.17465
 C2071 C 0.61283 0.76217 0.19087
 C2072 C 0.63668 0.76269 0.20159
 H2073 H 0.58609 0.80710 0.16722
 H2074 H 0.54132 0.80501 0.13992
 H2075 H 0.53135 0.71252 0.15671
 H2076 H 0.57628 0.71531 0.18486
 C2077 C 0.08648 0.26394 0.67189
 C2078 C 0.05935 0.26769 0.68692
 C2079 C 0.03311 0.26514 0.67176
 C2080 C 0.03358 0.25797 0.64134
 C2081 C 0.06133 0.25561 0.62649
 C2082 C 0.08737 0.25819 0.64163
 C2083 C 0.11361 0.26532 0.68721
 C2084 C 0.13692 0.26548 0.69900
 H2085 H 0.05848 0.27269 0.71033
 H2086 H 0.01271 0.26932 0.68395
 H2087 H 0.06275 0.25140 0.60297
 H2088 H 0.10826 0.25559 0.62968
 C2089 C 0.92096 0.24493 0.67031
 C2090 C 0.94507 0.22841 0.67761
 C2091 C 0.97243 0.23272 0.66310
 C2092 C 0.97644 0.25419 0.64153
 C2093 C 0.95143 0.27002 0.63409
 C2094 C 0.92427 0.26570 0.64859
 C2095 C 0.89244 0.24063 0.68437
 C2096 C 0.86797 0.23863 0.69530
 H2097 H 0.94263 0.21190 0.69412
 H2098 H 0.99047 0.21890 0.66837
 H2099 H 0.95223 0.28510 0.61627
 H2100 H 0.90558 0.27820 0.64236
 C2101 C 0.42881 0.74534 0.17996
 C2102 C 0.44436 0.77210 0.17939
 C2103 C 0.47057 0.77457 0.16246
 C2104 C 0.48065 0.75079 0.14444
 C2105 C 0.46664 0.72313 0.14855
 C2106 C 0.44065 0.72065 0.16553
 C2107 C 0.39968 0.74348 0.19319
 C2108 C 0.37470 0.74181 0.20284
 H2109 H 0.43577 0.79125 0.19119
 H2110 H 0.48202 0.79559 0.16197
 H2111 H 0.47516 0.70327 0.13816
 H2112 H 0.42934 0.69957 0.16667
 C2113 C 0.41091 0.23980 0.32886
 C2114 C 0.43743 0.23598 0.31273
 C2115 C 0.46394 0.23413 0.32726
 C2116 C 0.46429 0.23706 0.35821
 C2117 C 0.43691 0.23822 0.37395
 C2118 C 0.41064 0.24000 0.35945
 C2119 C 0.38368 0.24350 0.31451
 C2120 C 0.36016 0.24627 0.30370
 H2121 H 0.43767 0.23477 0.28895
 H2122 H 0.48386 0.23072 0.31407
 H2123 H 0.43611 0.23941 0.39774
 H2124 H 0.39015 0.24222 0.37218
 C2125 C 0.91660 0.75457 0.83309
 C2126 C 0.91907 0.73527 0.85593
 C2127 C 0.94590 0.73231 0.86926
 C2128 C 0.97141 0.74800 0.85948
 C2129 C 0.96822 0.76813 0.83691
 C2130 C 0.94120 0.77105 0.82357
 C2131 C 0.88856 0.75716 0.81983
 C2132 C 0.86470 0.75785 0.80920
 H2133 H 0.90003 0.72279 0.86385
 H2134 H 0.94614 0.71830 0.88792
 H2135 H 0.98662 0.78195 0.82990
 H2136 H 0.93941 0.78644 0.80614
   
