data_POSCAR
  _audit_creation_date              2014-09-24
  _audit_creation_method            'ToBaCCo'
  _symmetry_space_group_name_H-M    'P1'
  _symmetry_Int_Tables_number       1
  _symmetry_cell_setting            triclinic
  loop_
  _symmetry_equiv_pos_as_xyz
 x,y,z
_cell_length_a 65.6253
_cell_length_b 65.8404
_cell_length_c 65.5840
_cell_angle_alpha 89.969700
_cell_angle_beta 89.995200
_cell_angle_gamma 90.107400
loop_
  _atom_site_label
  _atom_site_type_symbol
  _atom_site_fract_x
  _atom_site_fract_y
  _atom_site_fract_z
C1 C 0.73330 0.65725 0.97407
 H2 H 0.74801 0.65747 0.96663
 C3 C 0.71702 0.66810 0.96573
 H4 H 0.71919 0.67681 0.95188
 C5 C 0.71212 0.64481 1.00062
 H6 H 0.71007 0.63528 1.01386
 C7 C 0.69548 0.65543 0.99280
 H8 H 0.68075 0.65418 1.00017
 N9 N 0.73058 0.64586 0.99119
 C10 C 0.79074 0.63474 1.01717
 H11 H 0.78982 0.61840 1.01864
 C12 C 0.80808 0.64503 1.02385
 H13 H 0.82061 0.63660 1.03049
 C14 C 0.77546 0.66572 1.00685
 H15 H 0.76263 0.67370 1.00038
 C16 C 0.79258 0.67663 1.01336
 H17 H 0.79296 0.69300 1.01181
 Zn18 Zn 0.75239 0.62934 1.00022
 N19 N 0.77498 0.64512 1.00866
 C20 C 0.77920 0.61343 0.97041
 N21 N 0.75993 0.61254 0.97805
 C22 C 0.74534 0.60080 0.96911
 C23 C 0.74997 0.58923 0.95185
 C24 C 0.78445 0.60212 0.95322
 C25 C 0.74000 0.62413 1.04040
 C26 C 0.73352 0.61388 1.05786
 C27 C 0.73609 0.58221 1.03936
 C28 C 0.74255 0.59309 1.02221
 N29 N 0.74407 0.61370 1.02297
 H30 H 0.79043 0.62325 0.97731
 H31 H 0.73003 0.60069 0.97524
 H32 H 0.73825 0.58009 0.94469
 H33 H 0.79977 0.60310 0.94712
 H34 H 0.74160 0.64048 1.04061
 H35 H 0.73007 0.62244 1.07155
 H36 H 0.73468 0.56582 1.03853
 H37 H 0.74624 0.58507 1.00834
 C38 C 0.80906 0.66614 1.02186
 C39 C 0.69790 0.66703 0.97511
 C40 C 0.73141 0.59273 1.05732
 C41 C 0.76970 0.58999 0.94381
 C42 C 0.73355 0.34419 0.51867
 H43 H 0.74819 0.34334 0.52620
 C44 C 0.71694 0.33332 0.52641
 H45 H 0.71879 0.32398 0.53988
 C46 C 0.71292 0.35814 0.49249
 H47 H 0.71122 0.36825 0.47964
 C48 C 0.69596 0.34754 0.49972
 H49 H 0.68134 0.34937 0.49227
 N50 N 0.73126 0.35632 0.50201
 C51 C 0.79204 0.36659 0.47702
 H52 H 0.79181 0.38300 0.47629
 C53 C 0.80899 0.35596 0.46996
 H54 H 0.82190 0.36419 0.46379
 C55 C 0.77537 0.33578 0.48574
 H56 H 0.76213 0.32800 0.49168
 C57 C 0.79205 0.32453 0.47881
 H58 H 0.79169 0.30810 0.47954
 Zn59 Zn 0.75364 0.37256 0.49374
 N60 N 0.77577 0.35644 0.48491
 C61 C 0.78063 0.38703 0.52425
 N62 N 0.76144 0.38845 0.51651
 C63 C 0.74706 0.40026 0.52559
 C64 C 0.75185 0.41148 0.54304
 C65 C 0.78604 0.39798 0.54164
 C66 C 0.74163 0.37954 0.45367
 C67 C 0.73561 0.39063 0.43659
 C68 C 0.73932 0.42149 0.45620
 C69 C 0.74530 0.40980 0.47297
 N70 N 0.74603 0.38919 0.47149
 H71 H 0.79169 0.37716 0.51720
 H72 H 0.73181 0.40080 0.51936
 H73 H 0.74031 0.42078 0.55024
 H74 H 0.80132 0.39667 0.54777
 H75 H 0.74260 0.36316 0.45287
 H76 H 0.73185 0.38279 0.42256
 H77 H 0.73850 0.43787 0.45753
 H78 H 0.74925 0.41721 0.48712
 C79 C 0.80902 0.33475 0.47090
 C80 C 0.69795 0.33514 0.51691
 C81 C 0.73432 0.41178 0.43790
 C82 C 0.77153 0.41028 0.55113
 C83 C 0.23575 -0.15487 0.01951
 H84 H 0.25042 -0.15559 0.02699
 C85 C 0.21918 -0.16566 0.02746
 H86 H 0.22110 -0.17481 0.04106
 C87 C 0.21499 -0.14132 -0.00678
 H88 H 0.21323 -0.13140 -0.01977
 C89 C 0.19808 -0.15185 0.00065
 H90 H 0.18343 -0.15015 -0.00677
 N91 N 0.23338 -0.14298 0.00269
 C92 C 0.29399 -0.13279 -0.02272
 H93 H 0.29371 -0.11638 -0.02360
 C94 C 0.31093 -0.14343 -0.02980
 H95 H 0.32377 -0.13522 -0.03614
 C96 C 0.27748 -0.16357 -0.01360
 H97 H 0.26431 -0.17134 -0.00750
 C98 C 0.29415 -0.17483 -0.02055
 H99 H 0.29385 -0.19125 -0.01967
 Zn100 Zn 0.25566 -0.12677 -0.00588
 N101 N 0.27781 -0.14291 -0.01463
 C102 C 0.28273 -0.11201 0.02441
 N103 N 0.26353 -0.11061 0.01668
 C104 C 0.24918 -0.09872 0.02572
 C105 C 0.25399 -0.08747 0.04314
 C106 C 0.28816 -0.10103 0.04178
 C107 C 0.24355 -0.12039 -0.04597
 C108 C 0.23740 -0.10962 -0.06322
 C109 C 0.24087 -0.07842 -0.04404
 C110 C 0.24697 -0.08983 -0.02712
 N111 N 0.24788 -0.11046 -0.02831
 H112 H 0.29376 -0.12194 0.01741
 H113 H 0.23392 -0.09821 0.01951
 H114 H 0.24246 -0.07816 0.05034
 H115 H 0.30342 -0.10238 0.04793
 H116 H 0.24466 -0.13678 -0.04654
 H117 H 0.23371 -0.11779 -0.07709
 H118 H 0.23993 -0.06203 -0.04285
 H119 H 0.25087 -0.08220 -0.01308
 C120 C 0.31103 -0.16462 -0.02867
 C121 C 0.20015 -0.16400 0.01801
 C122 C 0.23591 -0.08844 -0.06222
 C123 C 0.27366 -0.08871 0.05126
 C124 C 0.23240 0.15758 0.47428
 H125 H 0.24714 0.15799 0.46691
 C126 C 0.21603 0.16829 0.46591
 H127 H 0.21818 0.17709 0.45211
 C128 C 0.21124 0.14479 0.50068
 H129 H 0.20923 0.13517 0.51385
 C130 C 0.19451 0.15526 0.49282
 H131 H 0.17977 0.15381 0.50012
 N132 N 0.22973 0.14608 0.49133
 C133 C 0.28991 0.13527 0.51741
 H134 H 0.28910 0.11891 0.51876
 C135 C 0.30716 0.14563 0.52421
 H136 H 0.31972 0.13724 0.53083
 C137 C 0.27444 0.16622 0.50725
 H138 H 0.26157 0.17416 0.50082
 C139 C 0.29147 0.17720 0.51391
 H140 H 0.29174 0.19359 0.51248
 Zn141 Zn 0.25164 0.12970 0.50035
 N142 N 0.27410 0.14560 0.50892
 C143 C 0.27861 0.11412 0.47049
 N144 N 0.25934 0.11304 0.47812
 C145 C 0.24485 0.10124 0.46912
 C146 C 0.24957 0.08980 0.45180
 C147 C 0.28395 0.10293 0.45324
 C148 C 0.23920 0.12424 0.54047
 C149 C 0.23285 0.11387 0.55791
 C150 C 0.23583 0.08229 0.53936
 C151 C 0.24215 0.09328 0.52222
 N152 N 0.24342 0.11391 0.52302
 H153 H 0.28976 0.12398 0.47745
 H154 H 0.22954 0.10099 0.47523
 H155 H 0.23792 0.08060 0.44459
 H156 H 0.29926 0.10407 0.44715
 H157 H 0.24060 0.14062 0.54074
 H158 H 0.22928 0.12225 0.57166
 H159 H 0.23462 0.06590 0.53860
 H160 H 0.24595 0.08532 0.50834
 C161 C 0.30799 0.16676 0.52239
 C162 C 0.19688 0.16696 0.47519
 C163 C 0.23104 0.09272 0.55731
 C164 C 0.26930 0.09074 0.44377
 C165 C 0.15556 0.47591 0.23265
 H166 H 0.15578 0.46858 0.24742
 C167 C 0.16649 0.46757 0.21640
 H168 H 0.17527 0.45383 0.21866
 C169 C 0.14301 0.50216 0.21130
 H170 H 0.13339 0.51527 0.20917
 C171 C 0.15371 0.49433 0.19469
 H172 H 0.15244 0.50158 0.17990
 N173 N 0.14407 0.49288 0.22983
 C174 C 0.13253 0.51890 0.28990
 H175 H 0.11613 0.52025 0.28891
 C176 C 0.14271 0.52566 0.30728
 H177 H 0.13414 0.53224 0.31976
 C178 C 0.16375 0.50875 0.27479
 H179 H 0.17187 0.50232 0.26201
 C180 C 0.17456 0.51536 0.29196
 H181 H 0.19099 0.51390 0.29242
 Zn182 Zn 0.12738 0.50184 0.25159
 N183 N 0.14308 0.51043 0.27421
 C184 C 0.11134 0.47216 0.27847
 N185 N 0.11057 0.47968 0.25915
 C186 C 0.09894 0.47066 0.24453
 C187 C 0.08736 0.45342 0.24917
 C188 C 0.10000 0.45500 0.28374
 C189 C 0.12201 0.54177 0.23897
 C190 C 0.11164 0.55907 0.23248
 C191 C 0.07995 0.54049 0.23526
 C192 C 0.09094 0.52348 0.24173
 N193 N 0.11162 0.52436 0.24317
 H194 H 0.12106 0.47915 0.28975
 H195 H 0.09893 0.47670 0.22919
 H196 H 0.07829 0.44620 0.23742
 H197 H 0.10087 0.44900 0.29910
 H198 H 0.13842 0.54209 0.24050
 H199 H 0.12007 0.57279 0.22892
 H200 H 0.06352 0.53966 0.23391
 H201 H 0.08294 0.50963 0.24553
 C202 C 0.16389 0.52380 0.30837
 C203 C 0.16540 0.47678 0.19721
 C204 C 0.09044 0.55839 0.23050
 C205 C 0.08798 0.44550 0.26895
 C206 C -0.15786 0.02024 0.23361
 H207 H -0.15839 0.02766 0.24831
 C208 C -0.16917 0.02797 0.21730
 H209 H -0.17853 0.04133 0.21950
 C210 C -0.14431 -0.00570 0.21252
 H211 H -0.13420 -0.01846 0.21053
 C212 C -0.15535 0.00152 0.19584
 H213 H -0.15382 -0.00589 0.18117
 N214 N -0.14574 0.00369 0.23096
 C215 C -0.13415 -0.02156 0.29136
 H216 H -0.11770 -0.02238 0.29065
 C217 C -0.14440 -0.02863 0.30859
 H218 H -0.13585 -0.03490 0.32124
 C219 C -0.16542 -0.01256 0.27565
 H220 H -0.17354 -0.00650 0.26269
 C221 C -0.17630 -0.01949 0.29264
 H222 H -0.19279 -0.01864 0.29279
 Zn223 Zn -0.12900 -0.00468 0.25293
 N224 N -0.14470 -0.01353 0.27544
 C225 C -0.11373 0.02547 0.27975
 N226 N -0.11275 0.01789 0.26047
 C227 C -0.10112 0.02698 0.24588
 C228 C -0.08964 0.04427 0.25054
 C229 C -0.10250 0.04270 0.28504
 C230 C -0.12249 -0.04455 0.24060
 C231 C -0.11159 -0.06163 0.23438
 C232 C -0.08043 -0.04226 0.23757
 C233 C -0.09193 -0.02550 0.24376
 N234 N -0.11261 -0.02687 0.24485
 H235 H -0.12345 0.01842 0.29099
 H236 H -0.10093 0.02086 0.23057
 H237 H -0.08049 0.05148 0.23884
 H238 H -0.10345 0.04869 0.30039
 H239 H -0.13891 -0.04528 0.24187
 H240 H -0.11962 -0.07556 0.23075
 H241 H -0.06400 -0.04103 0.23648
 H242 H -0.08433 -0.01146 0.24761
 C243 C -0.16565 -0.02753 0.30927
 C244 C -0.16778 0.01858 0.19821
 C245 C -0.09039 -0.06043 0.23273
 C246 C -0.09039 0.05220 0.27031
 C247 C 0.34186 0.51992 0.73558
 H248 H 0.34131 0.52738 0.75027
 C249 C 0.33044 0.52751 0.71929
 H250 H 0.32096 0.54079 0.72143
 C251 C 0.35561 0.49408 0.71451
 H252 H 0.36584 0.48142 0.71251
 C253 C 0.34445 0.50116 0.69785
 H254 H 0.34598 0.49379 0.68317
 N255 N 0.35414 0.50349 0.73294
 C256 C 0.36624 0.47858 0.79341
 H257 H 0.38270 0.47800 0.79269
 C258 C 0.35610 0.47138 0.81066
 H259 H 0.36476 0.46525 0.82330
 C260 C 0.33481 0.48705 0.77770
 H261 H 0.32659 0.49295 0.76472
 C262 C 0.32405 0.47998 0.79471
 H263 H 0.30756 0.48056 0.79485
 Zn264 Zn 0.37106 0.49537 0.75486
 N265 N 0.35555 0.48641 0.77747
 C266 C 0.38605 0.52588 0.78147
 N267 N 0.38706 0.51817 0.76224
 C268 C 0.39849 0.52732 0.74754
 C269 C 0.40969 0.54484 0.75201
 C270 C 0.39701 0.54334 0.78657
 C271 C 0.37793 0.45555 0.74263
 C272 C 0.38896 0.43858 0.73636
 C273 C 0.41994 0.45828 0.73926
 C274 C 0.40831 0.47493 0.74551
 N275 N 0.38766 0.47334 0.74677
 H276 H 0.37648 0.51877 0.79281
 H277 H 0.39870 0.52110 0.73228
 H278 H 0.41866 0.55211 0.74020
 H279 H 0.39600 0.54946 0.80187
 H280 H 0.36152 0.45466 0.74402
 H281 H 0.38105 0.42456 0.73281
 H282 H 0.43635 0.45967 0.73803
 H283 H 0.41579 0.48906 0.74926
 C284 C 0.33483 0.47212 0.81134
 C285 C 0.33187 0.51810 0.70022
 C286 C 0.41013 0.43999 0.73454
 C287 C 0.40889 0.55292 0.77170
 C288 C 0.65717 0.97717 0.73247
 H289 H 0.65755 0.96971 0.74717
 C290 C 0.66798 0.96899 0.71605
 H291 H 0.67681 0.95525 0.71810
 C292 C 0.64437 1.00357 0.71147
 H293 H 0.63471 1.01668 0.70954
 C294 C 0.65495 0.99591 0.69469
 H295 H 0.65354 1.00329 0.67998
 N296 N 0.64562 0.99413 0.72990
 C297 C 0.63483 1.01964 0.79031
 H298 H 0.61841 1.02086 0.78964
 C299 C 0.64528 1.02641 0.80754
 H300 H 0.63685 1.03285 0.82019
 C301 C 0.66584 1.00990 0.77453
 H302 H 0.67376 1.00364 0.76154
 C303 C 0.67693 1.01652 0.79150
 H304 H 0.69339 1.01522 0.79157
 Zn305 Zn 0.62917 1.00287 0.75192
 N306 N 0.64515 1.01138 0.77436
 C307 C 0.61360 0.97290 0.77878
 N308 N 0.61255 0.98059 0.75954
 C309 C 0.60076 0.97166 0.74499
 C310 C 0.58927 0.95436 0.74963
 C311 C 0.60237 0.95566 0.78405
 C312 C 0.62346 1.04288 0.73967
 C313 C 0.61294 1.06016 0.73335
 C314 C 0.58139 1.04138 0.73633
 C315 C 0.59252 1.02440 0.74261
 N316 N 0.61321 1.02538 0.74385
 H317 H 0.62345 0.97982 0.78998
 H318 H 0.60052 0.97784 0.72970
 H319 H 0.58005 0.94723 0.73795
 H320 H 0.60345 0.94954 0.79935
 H321 H 0.63989 1.04328 0.74104
 H322 H 0.62126 1.07393 0.72978
 H323 H 0.56495 1.04046 0.73510
 H324 H 0.58463 1.01049 0.74640
 C325 C 0.66652 1.02478 0.80819
 C326 C 0.66670 0.97838 0.69695
 C327 C 0.59173 1.05936 0.73154
 C328 C 0.59017 0.94627 0.76934
 C329 C 0.02008 0.23300 -0.15570
 H330 H 0.02752 0.24766 -0.15635
 C331 C 0.02816 0.21657 -0.16649
 H332 H 0.04181 0.21858 -0.17557
 C333 C -0.00621 0.21212 -0.14230
 H334 H -0.01923 0.21025 -0.13242
 C335 C 0.00136 0.19533 -0.15283
 H336 H -0.00599 0.18068 -0.15116
 N337 N 0.00321 0.23050 -0.14388
 C338 C -0.02232 0.29080 -0.13368
 H339 H -0.02340 0.29039 -0.11722
 C340 C -0.02920 0.30777 -0.14436
 H341 H -0.03560 0.32052 -0.13613
 C342 C -0.01282 0.27458 -0.16454
 H343 H -0.00664 0.26153 -0.17233
 C344 C -0.01956 0.29130 -0.17584
 H345 H -0.01844 0.29115 -0.19232
 Zn346 Zn -0.00548 0.25260 -0.12761
 N347 N -0.01412 0.27475 -0.14382
 C348 C 0.02465 0.27959 -0.11245
 N349 N 0.01697 0.26041 -0.11123
 C350 C 0.02600 0.24602 -0.09938
 C351 C 0.04336 0.25078 -0.08798
 C352 C 0.04196 0.28497 -0.10131
 C353 C -0.04558 0.24030 -0.12138
 C354 C -0.06281 0.23402 -0.11060
 C355 C -0.04370 0.23746 -0.07924
 C356 C -0.02681 0.24370 -0.09065
 N357 N -0.02797 0.24468 -0.11136
 H358 H 0.01766 0.29067 -0.12235
 H359 H 0.01983 0.23077 -0.09902
 H360 H 0.05055 0.23921 -0.07870
 H361 H 0.04806 0.30023 -0.10251
 H362 H -0.04613 0.24147 -0.13782
 H363 H -0.07665 0.23029 -0.11883
 H364 H -0.04254 0.23647 -0.06278
 H365 H -0.01280 0.24764 -0.08295
 C366 C -0.02775 0.30806 -0.16562
 C367 C 0.01879 0.19753 -0.16489
 C368 C -0.06184 0.23244 -0.08934
 C369 C 0.05142 0.27043 -0.08902
 C370 C 0.47644 0.23167 0.15994
 H371 H 0.46888 0.24625 0.16031
 C372 C 0.46865 0.21541 0.17124
 H373 H 0.45510 0.21747 0.18045
 C374 C 0.50273 0.21080 0.14671
 H375 H 0.51564 0.20885 0.13672
 C376 C 0.49546 0.19418 0.15777
 H377 H 0.50293 0.17959 0.15639
 N378 N 0.49317 0.22910 0.14795
 C379 C 0.51823 0.28928 0.13559
 H380 H 0.51919 0.28829 0.11915
 C381 C 0.52502 0.30672 0.14556
 H382 H 0.53124 0.31924 0.13680
 C383 C 0.50904 0.27412 0.16711
 H384 H 0.50297 0.26130 0.17542
 C385 C 0.51569 0.29133 0.17772
 H386 H 0.51464 0.29180 0.19419
 Zn387 Zn 0.50146 0.25087 0.13096
 N388 N 0.51021 0.27354 0.14639
 C389 C 0.47091 0.27723 0.11588
 N390 N 0.47869 0.25811 0.11476
 C391 C 0.46955 0.24350 0.10325
 C392 C 0.45195 0.24796 0.09211
 C393 C 0.45338 0.28231 0.10499
 C394 C 0.54154 0.23891 0.12451
 C395 C 0.55872 0.23269 0.11367
 C396 C 0.53924 0.23512 0.08249
 C397 C 0.52238 0.24132 0.09393
 N398 N 0.52376 0.24280 0.11459
 H399 H 0.47799 0.28849 0.12552
 H400 H 0.47580 0.22831 0.10297
 H401 H 0.44466 0.23623 0.08311
 H402 H 0.44720 0.29752 0.10613
 H403 H 0.54226 0.24048 0.14091
 H404 H 0.57273 0.22936 0.12174
 H405 H 0.53801 0.23372 0.06608
 H406 H 0.50825 0.24487 0.08629
 C407 C 0.52367 0.30780 0.16679
 C408 C 0.47818 0.19646 0.17001
 C409 C 0.55753 0.23066 0.09250
 C410 C 0.44378 0.26755 0.09306
 C411 C 0.97550 0.73225 0.65917
 H412 H 0.96824 0.74698 0.65966
 C413 C 0.96713 0.71596 0.67002
 H414 H 0.95346 0.71816 0.67899
 C415 C 1.00159 0.71105 0.64608
 H416 H 1.01465 0.70900 0.63629
 C417 C 0.99373 0.69439 0.65668
 H418 H 1.00091 0.67966 0.65517
 N419 N 0.99240 0.72952 0.64747
 C420 C 1.01876 0.78948 0.63682
 H421 H 1.01994 0.78885 0.62037
 C422 C 1.02572 0.80655 0.64730
 H423 H 1.03229 0.81915 0.63893
 C424 C 1.00885 0.77375 0.66784
 H425 H 1.00243 0.76085 0.67576
 C426 C 1.01566 0.79058 0.67894
 H427 H 1.01437 0.79068 0.69541
 Zn428 Zn 1.00140 0.75146 0.63107
 N429 N 1.01030 0.77363 0.64712
 C430 C 0.97156 0.77866 0.61598
 N431 N 0.97904 0.75943 0.61468
 C432 C 0.96981 0.74515 0.60283
 C433 C 0.95240 0.75004 0.59158
 C434 C 0.95423 0.78418 0.60499
 C435 C 1.04133 0.73882 0.62495
 C436 C 1.05855 0.73255 0.61422
 C437 C 1.03962 0.73617 0.58281
 C438 C 1.02271 0.74240 0.59416
 N439 N 1.02379 0.74331 0.61487
 H440 H 0.97871 0.78966 0.62588
 H441 H 0.97582 0.72986 0.60239
 H442 H 0.94502 0.73855 0.58234
 H443 H 0.94826 0.79946 0.60629
 H444 H 1.04183 0.73994 0.64140
 H445 H 1.07237 0.72875 0.62240
 H446 H 1.03863 0.73524 0.56635
 H447 H 1.00877 0.74644 0.58641
 C448 C 1.02409 0.80715 0.66854
 C449 C 0.97626 0.69683 0.66861
 C450 C 1.05766 0.73110 0.59298
 C451 C 0.94452 0.76973 0.59276
 C452 C 0.52064 0.73384 0.34394
 H453 H 0.52806 0.74851 0.34330
 C454 C 0.52857 0.71751 0.33289
 H455 H 0.54208 0.71961 0.32362
 C456 C 0.49461 0.71281 0.35759
 H457 H 0.48176 0.71083 0.36768
 C458 C 0.50203 0.69612 0.34680
 H459 H 0.49473 0.68144 0.34847
 N460 N 0.50398 0.73121 0.35602
 C461 C 0.47860 0.79134 0.36752
 H462 H 0.47782 0.79067 0.38399
 C463 C 0.47151 0.80848 0.35726
 H464 H 0.46526 0.82107 0.36587
 C465 C 0.48754 0.77564 0.33623
 H466 H 0.49361 0.76272 0.32812
 C467 C 0.48059 0.79254 0.32532
 H468 H 0.48143 0.79260 0.30882
 Zn469 Zn 0.49559 0.75312 0.37272
 N470 N 0.48662 0.77547 0.35697
 C471 C 0.52598 0.77996 0.38763
 N472 N 0.51834 0.76075 0.38876
 C473 C 0.52755 0.74625 0.40033
 C474 C 0.54503 0.75093 0.41158
 C475 C 0.54340 0.78525 0.39862
 C476 C 0.45563 0.74067 0.37966
 C477 C 0.43865 0.73430 0.39076
 C478 C 0.45837 0.73755 0.42171
 C479 C 0.47503 0.74389 0.41002
 N480 N 0.47345 0.74502 0.38934
 H481 H 0.51883 0.79113 0.37795
 H482 H 0.52140 0.73100 0.40062
 H483 H 0.55234 0.73929 0.42067
 H484 H 0.54945 0.80054 0.39753
 H485 H 0.45474 0.74196 0.36324
 H486 H 0.42461 0.73058 0.38289
 H487 H 0.45979 0.73641 0.43813
 H488 H 0.48917 0.74781 0.41746
 C489 C 0.47257 0.80913 0.33597
 C490 C 0.51926 0.69845 0.33448
 C491 C 0.44007 0.73259 0.41196
 C492 C 0.55303 0.77061 0.41066
 Si493 Si 0.36822 0.00153 0.24867
 Si494 Si 0.12683 1.00359 0.75124
 Si495 Si 0.62635 0.50470 0.24896
 Si496 Si 0.86697 0.50100 0.74772
 Si497 Si 0.24752 0.36460 0.00430
 Si498 Si 0.75044 0.12583 1.00408
 Si499 Si 0.25007 0.62528 0.50485
 Si500 Si 0.74817 0.86668 0.50353
 Si501 Si 0.00215 0.24774 0.36494
 Si502 Si 1.00473 0.75201 0.12484
 Si503 Si 0.50366 0.25198 0.62611
 Si504 Si 0.50371 0.74840 0.86447
 C505 C 0.46567 -0.17416 0.32585
 C506 C 0.45936 -0.15913 0.31747
 C507 C 0.45151 -0.14095 0.30817
 C508 C 0.45111 -0.12283 0.31931
 C509 C 0.44261 -0.10532 0.31081
 C510 C 0.43434 -0.10569 0.29102
 C511 C 0.43507 -0.12392 0.27982
 C512 C 0.44360 -0.14143 0.28836
 C513 C 0.42438 -0.08733 0.28245
 C514 C 0.40607 -0.08905 0.27140
 C515 C 0.39609 -0.07170 0.26427
 C516 C 0.40426 -0.05242 0.26803
 C517 C 0.42263 -0.05054 0.27870
 C518 C 0.43265 -0.06788 0.28585
 C519 C 0.39335 -0.03461 0.26155
 C520 C 0.38372 -0.01995 0.25630
 H521 H 0.45710 -0.12231 0.33470
 H522 H 0.44201 -0.09164 0.31994
 H523 H 0.42905 -0.12463 0.26447
 H524 H 0.44384 -0.15537 0.27960
 H525 H 0.39916 -0.10376 0.26877
 H526 H 0.38182 -0.07332 0.25611
 H527 H 0.42910 -0.03569 0.28168
 H528 H 0.44685 -0.06607 0.29406
 C529 C 0.96514 0.32552 0.82327
 C530 C 0.95895 0.34039 0.81453
 C531 C 0.95121 0.35838 0.80476
 C532 C 0.93330 0.35743 0.79323
 C533 C 0.92500 0.37513 0.78491
 C534 C 0.93451 0.39405 0.78806
 C535 C 0.95272 0.39479 0.79936
 C536 C 0.96100 0.37706 0.80766
 C537 C 0.92498 0.41299 0.78029
 C538 C 0.92449 0.43058 0.79248
 C539 C 0.91451 0.44806 0.78569
 C540 C 0.90495 0.44824 0.76663
 C541 C 0.90567 0.43096 0.75423
 C542 C 0.91562 0.41345 0.76099
 C543 C 0.89348 0.46574 0.76027
 C544 C 0.88333 0.48009 0.75514
 H545 H 0.92552 0.34306 0.79102
 H546 H 0.91082 0.37408 0.77654
 H547 H 0.96052 0.40908 0.80185
 H548 H 0.97486 0.37797 0.81659
 H549 H 0.93128 0.43062 0.80753
 H550 H 0.91391 0.46130 0.79548
 H551 H 0.89827 0.43092 0.73946
 H552 H 0.91594 0.40024 0.75117
 C553 C 0.02767 1.18001 0.82551
 C554 C 0.03521 1.16504 0.81811
 C555 C 0.04436 1.14692 0.80998
 C556 C 0.05729 1.13531 0.82228
 C557 C 0.06606 1.11754 0.81468
 C558 C 0.06199 1.11110 0.79464
 C559 C 0.04901 1.12291 0.78235
 C560 C 0.04023 1.14070 0.79000
 C561 C 0.07143 1.09224 0.78661
 C562 C 0.07921 1.09154 0.76663
 C563 C 0.08887 1.07404 0.75942
 C564 C 0.09081 1.05700 0.77204
 C565 C 0.08283 1.05743 0.79182
 C566 C 0.07319 1.07491 0.79906
 C567 C 0.10176 1.03942 0.76504
 C568 C 0.11139 1.02491 0.75940
 H569 H 0.06062 1.14001 0.83776
 H570 H 0.07623 1.10898 0.82441
 H571 H 0.04543 1.11825 0.76692
 H572 H 0.03017 1.14954 0.78038
 H573 H 0.07831 1.10470 0.75676
 H574 H 0.09510 1.07391 0.74412
 H575 H 0.08426 1.04433 0.80172
 H576 H 0.06711 1.07487 0.81441
 C577 C 0.52805 0.68100 0.32466
 C578 C 0.53554 0.66609 0.31709
 C579 C 0.54465 0.64803 0.30879
 C580 C 0.53919 0.64104 0.28939
 C581 C 0.54788 0.62325 0.28163
 C582 C 0.56211 0.61221 0.29323
 C583 C 0.56753 0.61943 0.31268
 C584 C 0.55885 0.63719 0.32039
 C585 C 0.57140 0.59330 0.28513
 C586 C 0.57455 0.57647 0.29799
 C587 C 0.58406 0.55898 0.29062
 C588 C 0.59051 0.55802 0.27031
 C589 C 0.58717 0.57455 0.25731
 C590 C 0.57763 0.59207 0.26464
 C591 C 0.60137 0.54046 0.26312
 C592 C 0.61096 0.52598 0.25733
 H593 H 0.52815 0.64927 0.28032
 H594 H 0.54326 0.61798 0.26669
 H595 H 0.57867 0.61146 0.32185
 H596 H 0.56321 0.64248 0.33541
 H597 H 0.56965 0.57684 0.31375
 H598 H 0.58659 0.54628 0.30083
 H599 H 0.59222 0.57402 0.24159
 H600 H 0.57563 0.60484 0.25444
 C601 C 0.53056 0.32582 0.17712
 C602 C 0.53657 0.34122 0.18507
 C603 C 0.54405 0.35985 0.19378
 C604 C 0.54523 0.37733 0.18168
 C605 C 0.55337 0.39527 0.18966
 C606 C 0.56049 0.39597 0.20988
 C607 C 0.55897 0.37839 0.22203
 C608 C 0.55080 0.36045 0.21401
 C609 C 0.57018 0.41474 0.21793
 C610 C 0.58784 0.41355 0.23003
 C611 C 0.59767 0.43121 0.23663
 C612 C 0.58999 0.45030 0.23127
 C613 C 0.57223 0.45167 0.21956
 C614 C 0.56236 0.43402 0.21293
 C615 C 0.60088 0.46836 0.23714
 C616 C 0.61059 0.48316 0.24192
 H617 H 0.54014 0.37701 0.16597
 H618 H 0.55461 0.40842 0.17981
 H619 H 0.56410 0.37852 0.23771
 H620 H 0.54995 0.34701 0.22350
 H621 H 0.59441 0.39898 0.23389
 H622 H 0.61147 0.42998 0.24561
 H623 H 0.56614 0.46637 0.21533
 H624 H 0.54865 0.43543 0.20386
 C625 C 0.03117 0.82478 0.67941
 C626 C 0.03732 0.83984 0.68788
 C627 C 0.04495 0.85809 0.69728
 C628 C 0.06327 0.85771 0.70819
 C629 C 0.07141 0.87569 0.71611
 C630 C 0.06134 0.89432 0.71316
 C631 C 0.04274 0.89448 0.70249
 C632 C 0.03462 0.87647 0.69460
 C633 C 0.07063 0.91357 0.72050
 C634 C 0.07027 0.93110 0.70821
 C635 C 0.07997 0.94892 0.71460
 C636 C 0.09011 0.94948 0.73335
 C637 C 0.09026 0.93225 0.74585
 C638 C 0.08058 0.91441 0.73949
 C639 C 0.10121 0.96738 0.73932
 C640 C 0.11103 0.98209 0.74416
 H641 H 0.07146 0.84358 0.71022
 H642 H 0.08589 0.87509 0.72399
 H643 H 0.03451 0.90853 0.70018
 H644 H 0.02044 0.87695 0.68614
 H645 H 0.06300 0.93087 0.69339
 H646 H 0.07988 0.96213 0.70474
 H647 H 0.09809 0.93251 0.76039
 H648 H 0.08092 0.90125 0.74939
 C649 C 0.96708 0.67947 0.67830
 C650 C 0.95923 0.66469 0.68584
 C651 C 0.94963 0.64685 0.69419
 C652 C 0.92837 0.64569 0.69525
 C653 C 0.91893 0.62799 0.70232
 C654 C 0.93065 0.61116 0.70838
 C655 C 0.95203 0.61257 0.70754
 C656 C 0.96145 0.63030 0.70044
 C657 C 0.92056 0.59209 0.71513
 C658 C 0.92825 0.58091 0.73172
 C659 C 0.91861 0.56300 0.73803
 C660 C 0.90124 0.55602 0.72781
 C661 C 0.89356 0.56698 0.71123
 C662 C 0.90314 0.58487 0.70492
 C663 C 0.89094 0.53788 0.73448
 C664 C 0.88180 0.52293 0.73988
 H665 H 0.91908 0.65840 0.69043
 H666 H 0.90245 0.62748 0.70306
 H667 H 0.96146 0.59980 0.71188
 H668 H 0.97792 0.63099 0.69955
 H669 H 0.94151 0.58618 0.74001
 H670 H 0.92462 0.55468 0.75095
 H671 H 0.88013 0.56170 0.70320
 H672 H 0.89704 0.59295 0.69190
 C673 C 0.46963 0.17907 0.18021
 C674 C 0.46239 0.16419 0.18816
 C675 C 0.45363 0.14616 0.19700
 C676 C 0.43419 0.14681 0.20572
 C677 C 0.42518 0.12905 0.21322
 C678 C 0.43551 0.11037 0.21203
 C679 C 0.45518 0.10994 0.20351
 C680 C 0.46416 0.12772 0.19604
 C681 C 0.42553 0.09135 0.21907
 C682 C 0.42731 0.07335 0.20763
 C683 C 0.41719 0.05566 0.21375
 C684 C 0.40520 0.05570 0.23140
 C685 C 0.40356 0.07343 0.24304
 C686 C 0.41365 0.09114 0.23694
 C687 C 0.39392 0.03782 0.23713
 C688 C 0.38403 0.02310 0.24179
 H689 H 0.42584 0.16098 0.20641
 H690 H 0.40992 0.12985 0.21943
 H691 H 0.46362 0.09585 0.20262
 H692 H 0.47921 0.12704 0.18929
 H693 H 0.43609 0.07308 0.19366
 H694 H 0.41845 0.04206 0.20456
 H695 H 0.39431 0.07363 0.25672
 H696 H 0.41218 0.10467 0.24619
 C697 C 0.32429 0.46458 -0.17097
 C698 C 0.31604 0.45801 -0.15591
 C699 C 0.30686 0.44986 -0.13772
 C700 C 0.31807 0.44920 -0.11959
 C701 C 0.30965 0.44044 -0.10209
 C702 C 0.28987 0.43217 -0.10250
 C703 C 0.27859 0.43317 -0.12074
 C704 C 0.28705 0.44195 -0.13824
 C705 C 0.28138 0.42190 -0.08419
 C706 C 0.27037 0.40365 -0.08616
 C707 C 0.26326 0.39341 -0.06889
 C708 C 0.26701 0.40126 -0.04942
 C709 C 0.27768 0.41956 -0.04729
 C710 C 0.28481 0.42983 -0.06455
 C711 C 0.26051 0.39010 -0.03170
 C712 C 0.25523 0.38029 -0.01710
 H713 H 0.33345 0.45518 -0.11905
 H714 H 0.31883 0.43965 -0.08840
 H715 H 0.26325 0.42715 -0.12148
 H716 H 0.27824 0.44239 -0.15219
 H717 H 0.26772 0.39699 -0.10102
 H718 H 0.25511 0.37920 -0.07071
 H719 H 0.28066 0.42577 -0.03229
 H720 H 0.29303 0.44397 -0.06255
 C721 C 0.82369 0.96514 0.32699
 C722 C 0.81540 0.95875 0.34209
 C723 C 0.80620 0.95081 0.36036
 C724 C 0.78668 0.94225 0.35980
 C725 C 0.77828 0.93362 0.37740
 C726 C 0.78933 0.93344 0.39580
 C727 C 0.80882 0.94238 0.39625
 C728 C 0.81718 0.95098 0.37865
 C729 C 0.78097 0.92331 0.41424
 C730 C 0.78389 0.93180 0.43373
 C731 C 0.77693 0.92166 0.45114
 C732 C 0.76696 0.90294 0.44931
 C733 C 0.76371 0.89454 0.42999
 C734 C 0.77064 0.90464 0.41257
 C735 C 0.76068 0.89195 0.46721
 C736 C 0.75560 0.88225 0.48195
 H737 H 0.77805 0.94204 0.34572
 H738 H 0.76315 0.92707 0.37662
 H739 H 0.81784 0.94222 0.41007
 H740 H 0.83236 0.95746 0.37923
 H741 H 0.79157 0.94626 0.43549
 H742 H 0.77952 0.92831 0.46603
 H743 H 0.75609 0.88001 0.42841
 H744 H 0.76841 0.89756 0.39784
 C745 C 0.82242 0.02656 1.18174
 C746 C 0.81426 0.03368 1.16690
 C747 C 0.80515 0.04230 1.14892
 C748 C 0.80578 0.03168 1.13045
 C749 C 0.79799 0.04049 1.11269
 C750 C 0.78948 0.06009 1.11317
 C751 C 0.78865 0.07051 1.13189
 C752 C 0.79646 0.06167 1.14963
 C753 C 0.78207 0.06988 1.09416
 C754 C 0.76420 0.08167 1.09424
 C755 C 0.75773 0.09154 1.07651
 C756 C 0.76899 0.08975 1.05848
 C757 C 0.78664 0.07787 1.05817
 C758 C 0.79313 0.06797 1.07587
 C759 C 0.76286 0.10076 1.04054
 C760 C 0.75785 0.11041 1.02576
 H761 H 0.81250 0.01668 1.12973
 H762 H 0.79862 0.03198 1.09858
 H763 H 0.78246 0.08572 1.13271
 H764 H 0.79602 0.07009 1.16381
 H765 H 0.75523 0.08324 1.10800
 H766 H 0.74406 0.10073 1.07692
 H767 H 0.79554 0.07649 1.04433
 H768 H 0.80710 0.05925 1.07538
 C769 C 0.32144 0.52641 0.68282
 C770 C 0.31327 0.53343 0.66794
 C771 C 0.30414 0.54191 0.64990
 C772 C 0.30458 0.53108 0.63155
 C773 C 0.29677 0.53975 0.61373
 C774 C 0.28843 0.55942 0.61403
 C775 C 0.28778 0.57007 0.63263
 C776 C 0.29561 0.56137 0.65043
 C777 C 0.28101 0.56906 0.59495
 C778 C 0.26324 0.58100 0.59499
 C779 C 0.25681 0.59080 0.57721
 C780 C 0.26801 0.58881 0.55917
 C781 C 0.28554 0.57675 0.55889
 C782 C 0.29200 0.56692 0.57664
 C783 C 0.26201 0.59987 0.54122
 C784 C 0.25715 0.60961 0.52645
 H785 H 0.31117 0.51601 0.63097
 H786 H 0.29726 0.53108 0.59972
 H787 H 0.28172 0.58534 0.63331
 H788 H 0.29532 0.56995 0.66451
 H789 H 0.25433 0.58274 0.60877
 H790 H 0.24323 0.60013 0.57760
 H791 H 0.29440 0.57522 0.54504
 H792 H 0.30588 0.55808 0.57617
 C793 C 0.17442 0.53068 0.32634
 C794 C 0.18256 0.53667 0.34169
 C795 C 0.19150 0.54414 0.36028
 C796 C 0.21200 0.55002 0.36084
 C797 C 0.22031 0.55812 0.37873
 C798 C 0.20819 0.56045 0.39629
 C799 C 0.18768 0.55423 0.39562
 C800 C 0.17942 0.54615 0.37773
 C801 C 0.21662 0.57000 0.41501
 C802 C 0.21122 0.56271 0.43446
 C803 C 0.21829 0.57244 0.45205
 C804 C 0.23086 0.58955 0.45044
 C805 C 0.23660 0.59671 0.43118
 C806 C 0.22956 0.58701 0.41358
 C807 C 0.23725 0.60031 0.46844
 C808 C 0.24244 0.60986 0.48324
 H809 H 0.22150 0.54852 0.34741
 H810 H 0.23620 0.56255 0.37884
 H811 H 0.17786 0.55611 0.40875
 H812 H 0.16350 0.54175 0.37744
 H813 H 0.20149 0.54950 0.43607
 H814 H 0.21375 0.56677 0.46689
 H815 H 0.24625 0.61001 0.42976
 H816 H 0.23377 0.59318 0.39886
 C817 C 0.67682 0.03133 0.82498
 C818 C 0.68536 0.03733 0.84011
 C819 C 0.69487 0.04479 0.85842
 C820 C 0.70623 0.06279 0.85797
 C821 C 0.71430 0.07078 0.87600
 C822 C 0.71106 0.06088 0.89475
 C823 C 0.69992 0.04260 0.89498
 C824 C 0.69188 0.03463 0.87693
 C825 C 0.71858 0.07004 0.91404
 C826 C 0.70625 0.07002 0.93161
 C827 C 0.71283 0.07962 0.94945
 C828 C 0.73181 0.08930 0.95001
 C829 C 0.74435 0.08910 0.93275
 C830 C 0.73780 0.07953 0.91488
 C831 C 0.73799 0.10033 0.96792
 C832 C 0.74303 0.11009 0.98262
 H833 H 0.70851 0.07087 0.84375
 H834 H 0.72254 0.08503 0.87534
 H835 H 0.69735 0.03451 0.90913
 H836 H 0.68306 0.02071 0.87746
 H837 H 0.69127 0.06312 0.93137
 H838 H 0.70294 0.07982 0.96268
 H839 H 0.75906 0.09659 0.93301
 H840 H 0.74773 0.07960 0.90169
 C841 C 0.67626 0.96939 0.67940
 C842 C 0.68361 0.96178 0.66440
 C843 C 0.69166 0.95256 0.64621
 C844 C 0.67828 0.94516 0.63135
 C845 C 0.68587 0.93605 0.61369
 C846 C 0.70701 0.93421 0.61064
 C847 C 0.72036 0.94175 0.62564
 C848 C 0.71272 0.95089 0.64331
 C849 C 0.71500 0.92411 0.59204
 C850 C 0.73157 0.91063 0.59329
 C851 C 0.73847 0.90043 0.57593
 C852 C 0.72897 0.90358 0.55710
 C853 C 0.71269 0.91719 0.55562
 C854 C 0.70575 0.92741 0.57296
 C855 C 0.73541 0.89226 0.53949
 C856 C 0.74061 0.88237 0.52494
 H857 H 0.66194 0.94632 0.63347
 H858 H 0.67519 0.93012 0.60260
 H859 H 0.73671 0.94075 0.62363
 H860 H 0.72321 0.95662 0.65470
 H861 H 0.73885 0.90758 0.60779
 H862 H 0.75102 0.88983 0.57726
 H863 H 0.70522 0.91975 0.54111
 H864 H 0.69315 0.93790 0.57144
 C865 C 0.17508 0.46763 0.17981
 C866 C 0.18253 0.45990 0.16491
 C867 C 0.19069 0.45060 0.14682
 C868 C 0.21171 0.44776 0.14463
 C869 C 0.21946 0.43855 0.12705
 C870 C 0.20625 0.43208 0.11142
 C871 C 0.18516 0.43508 0.11377
 C872 C 0.17746 0.44427 0.13134
 C873 C 0.21432 0.42191 0.09289
 C874 C 0.20596 0.42609 0.07358
 C875 C 0.21294 0.41584 0.05627
 C876 C 0.22838 0.40132 0.05802
 C877 C 0.23700 0.39726 0.07711
 C878 C 0.23005 0.40750 0.09443
 C879 C 0.23483 0.39003 0.04039
 C880 C 0.24002 0.38019 0.02581
 H881 H 0.22209 0.45265 0.15651
 H882 H 0.23577 0.43665 0.12559
 H883 H 0.17457 0.42999 0.10218
 H884 H 0.16115 0.44633 0.13291
 H885 H 0.19403 0.43730 0.07185
 H886 H 0.20616 0.41910 0.04157
 H887 H 0.24889 0.38596 0.07865
 H888 H 0.23662 0.40375 0.10910
 C889 C -0.17359 0.32370 0.46354
 C890 C -0.15877 0.31500 0.45712
 C891 C -0.14085 0.30526 0.44914
 C892 C -0.14189 0.29434 0.43088
 C893 C -0.12423 0.28601 0.42241
 C894 C -0.10526 0.28855 0.43209
 C895 C -0.10443 0.29926 0.45064
 C896 C -0.12212 0.30756 0.45909
 C897 C -0.08635 0.28074 0.42246
 C898 C -0.06845 0.29256 0.42242
 C899 C -0.05095 0.28571 0.41242
 C900 C -0.05107 0.26697 0.40238
 C901 C -0.06867 0.25494 0.40263
 C902 C -0.08620 0.26176 0.41261
 C903 C -0.03349 0.26053 0.39100
 C904 C -0.01902 0.25532 0.38098
 H905 H -0.15629 0.29259 0.42298
 H906 H -0.12534 0.27810 0.40798
 H907 H -0.09010 0.30126 0.45858
 H908 H -0.12113 0.31602 0.47322
 H909 H -0.06815 0.30735 0.42961
 H910 H -0.03744 0.29521 0.41220
 H911 H -0.06894 0.24041 0.39488
 H912 H -0.09966 0.25222 0.41258
 C913 C 0.32841 0.82431 0.96392
 C914 C 0.34322 0.81563 0.95746
 C915 C 0.36112 0.80592 0.94940
 C916 C 0.35995 0.79472 0.93132
 C917 C 0.37757 0.78643 0.92275
 C918 C 0.39665 0.78928 0.93215
 C919 C 0.39760 0.80026 0.95053
 C920 C 0.37995 0.80853 0.95908
 C921 C 0.41551 0.78150 0.92240
 C922 C 0.43330 0.79348 0.92197
 C923 C 0.45074 0.78665 0.91185
 C924 C 0.45067 0.76776 0.90209
 C925 C 0.43318 0.75558 0.90272
 C926 C 0.41571 0.76238 0.91282
 C927 C 0.46819 0.76130 0.89062
 C928 C 0.48261 0.75607 0.88055
 H929 H 0.34547 0.79273 0.92362
 H930 H 0.37636 0.77830 0.90845
 H931 H 0.41201 0.80251 0.95826
 H932 H 0.38104 0.81721 0.97307
 H933 H 0.43355 0.80838 0.92894
 H934 H 0.46415 0.79625 0.91134
 H935 H 0.43296 0.74094 0.89519
 H936 H 0.40234 0.75272 0.91309
 C937 C 1.18248 0.82633 0.02669
 C938 C 1.16737 0.81885 0.03401
 C939 C 1.14905 0.81062 0.04284
 C940 C 1.14519 0.78971 0.04226
 C941 C 1.12731 0.78188 0.05087
 C942 C 1.11305 0.79490 0.06013
 C943 C 1.11710 0.81589 0.06059
 C944 C 1.13496 0.82366 0.05199
 C945 C 1.09417 0.78668 0.06955
 C946 C 1.07556 0.79709 0.06752
 C947 C 1.05797 0.78986 0.07715
 C948 C 1.05873 0.77212 0.08889
 C949 C 1.07708 0.76148 0.09073
 C950 C 1.09469 0.76868 0.08111
 C951 C 1.04094 0.76536 0.09979
 C952 C 1.02626 0.75990 0.10939
 H953 H 1.15596 0.77948 0.03514
 H954 H 1.12453 0.76568 0.05010
 H955 H 1.10660 0.82627 0.06788
 H956 H 1.13781 0.83987 0.05256
 H957 H 1.07460 0.81083 0.05850
 H958 H 1.04385 0.79822 0.07564
 H959 H 1.07786 0.74780 0.09989
 H960 H 1.10881 0.76046 0.08316
 C961 C 0.68025 0.32536 0.52540
 C962 C 0.66514 0.31777 0.53259
 C963 C 0.64684 0.30939 0.54131
 C964 C 0.63032 0.32214 0.54546
 C965 C 0.61263 0.31428 0.55434
 C966 C 0.61121 0.29351 0.55921
 C967 C 0.62786 0.28077 0.55484
 C968 C 0.64555 0.28868 0.54594
 C969 C 0.59262 0.28534 0.56923
 C970 C 0.59422 0.27116 0.58521
 C971 C 0.57678 0.26418 0.59528
 C972 C 0.55752 0.27124 0.58951
 C973 C 0.55573 0.28511 0.57344
 C974 C 0.57315 0.29211 0.56335
 C975 C 0.53974 0.26482 0.60063
 C976 C 0.52510 0.25961 0.61042
 H977 H 0.63118 0.33822 0.54201
 H978 H 0.60023 0.32454 0.55779
 H979 H 0.62714 0.26468 0.55819
 H980 H 0.65824 0.27866 0.54274
 H981 H 0.60899 0.26586 0.59028
 H982 H 0.57835 0.25353 0.60777
 H983 H 0.54089 0.29067 0.56885
 H984 H 0.57140 0.30282 0.55094
 C985 C 0.32580 0.17748 0.52936
 C986 C 0.34102 0.18577 0.53546
 C987 C 0.35944 0.19491 0.54311
 C988 C 0.37774 0.18407 0.54235
 C989 C 0.39549 0.19232 0.55076
 C990 C 0.39516 0.21156 0.56009
 C991 C 0.37674 0.22249 0.56048
 C992 C 0.35900 0.21420 0.55205
 C993 C 0.41376 0.21976 0.57007
 C994 C 0.41240 0.22970 0.58900
 C995 C 0.42997 0.23647 0.59895
 C996 C 0.44914 0.23345 0.59012
 C997 C 0.45066 0.22387 0.57115
 C998 C 0.43309 0.21707 0.56116
 C999 C 0.46719 0.23959 0.60096
 C1000 C 0.48202 0.24459 0.61057
 H1001 H 0.37823 0.16907 0.53557
 H1002 H 0.40932 0.18339 0.55047
 H1003 H 0.37605 0.23743 0.56733
 H1004 H 0.34491 0.22272 0.55272
 H1005 H 0.39780 0.23174 0.59641
 H1006 H 0.42863 0.24379 0.61368
 H1007 H 0.46543 0.22146 0.56417
 H1008 H 0.43462 0.20969 0.54649
 C1009 C 0.82697 0.67679 0.02868
 C1010 C 0.84225 0.68505 0.03466
 C1011 C 0.86074 0.69417 0.04215
 C1012 C 0.86068 0.71404 0.04969
 C1013 C 0.87847 0.72241 0.05795
 C1014 C 0.89655 0.71096 0.05877
 C1015 C 0.89651 0.69111 0.05083
 C1016 C 0.87872 0.68279 0.04260
 C1017 C 0.91517 0.71932 0.06859
 C1018 C 0.93460 0.71547 0.06036
 C1019 C 0.95215 0.72242 0.07027
 C1020 C 0.95050 0.73331 0.08851
 C1021 C 0.93125 0.73750 0.09663
 C1022 C 0.91370 0.73058 0.08675
 C1023 C 0.96849 0.73954 0.09940
 C1024 C 0.98325 0.74460 0.10909
 H1025 H 0.84684 0.72299 0.04942
 H1026 H 0.87808 0.73781 0.06371
 H1027 H 0.91007 0.68179 0.05151
 H1028 H 0.87891 0.66735 0.03690
 H1029 H 0.93622 0.70705 0.04627
 H1030 H 0.96698 0.71909 0.06385
 H1031 H 0.92981 0.74583 0.11081
 H1032 H 0.89901 0.73354 0.09365
 C1033 C 0.68046 0.67664 0.96597
 C1034 C 0.66551 0.68401 0.95829
 C1035 C 0.64735 0.69206 0.94904
 C1036 C 0.64488 0.71303 0.94656
 C1037 C 0.62719 0.72067 0.93745
 C1038 C 0.61174 0.70739 0.93075
 C1039 C 0.61438 0.68635 0.93339
 C1040 C 0.63205 0.67877 0.94246
 C1041 C 0.59307 0.71535 0.92076
 C1042 C 0.57390 0.70665 0.92492
 C1043 C 0.55646 0.71356 0.91485
 C1044 C 0.55792 0.72925 0.90053
 C1045 C 0.57686 0.73820 0.89650
 C1046 C 0.59433 0.73133 0.90655
 C1047 C 0.54014 0.73567 0.88944
 C1048 C 0.52543 0.74085 0.87978
 H1049 H 0.65661 0.72346 0.95165
 H1050 H 0.62551 0.73694 0.93583
 H1051 H 0.60293 0.67573 0.92811
 H1052 H 0.63383 0.66251 0.94426
 H1053 H 0.57240 0.69452 0.93597
 H1054 H 0.54188 0.70653 0.91810
 H1055 H 0.57817 0.75029 0.88536
 H1056 H 0.60888 0.73816 0.90283
 C1057 C 0.17938 0.17640 0.46601
 C1058 C 0.16438 0.18363 0.45827
 C1059 C 0.14618 0.19152 0.44896
 C1060 C 0.13227 0.17814 0.43992
 C1061 C 0.11451 0.18557 0.43089
 C1062 C 0.11038 0.20653 0.43077
 C1063 C 0.12446 0.21988 0.43990
 C1064 C 0.14224 0.21240 0.44895
 C1065 C 0.09157 0.21437 0.42094
 C1066 C 0.09215 0.23211 0.40898
 C1067 C 0.07461 0.23898 0.39904
 C1068 C 0.05627 0.22827 0.40097
 C1069 C 0.05546 0.21078 0.41308
 C1070 C 0.07298 0.20388 0.42301
 C1071 C 0.03850 0.23478 0.38992
 C1072 C 0.02381 0.24005 0.38027
 H1073 H 0.13519 0.16195 0.43980
 H1074 H 0.10415 0.17493 0.42372
 H1075 H 0.12161 0.23607 0.44024
 H1076 H 0.15287 0.22289 0.45597
 H1077 H 0.10627 0.24038 0.40688
 H1078 H 0.07543 0.25248 0.38961
 H1079 H 0.04134 0.20237 0.41468
 H1080 H 0.07197 0.19034 0.43234
 C1081 C 0.58082 0.07689 0.72436
 C1082 C 0.57217 0.09173 0.71799
 C1083 C 0.56242 0.10959 0.70999
 C1084 C 0.55075 0.10833 0.69218
 C1085 C 0.54233 0.12587 0.68365
 C1086 C 0.54552 0.14494 0.69282
 C1087 C 0.55700 0.14599 0.71092
 C1088 C 0.56540 0.12842 0.71943
 C1089 C 0.53756 0.16369 0.68310
 C1090 C 0.54965 0.18135 0.68221
 C1091 C 0.54261 0.19870 0.67217
 C1092 C 0.52340 0.19866 0.66292
 C1093 C 0.51112 0.18129 0.66399
 C1094 C 0.51814 0.16391 0.67402
 C1095 C 0.51668 0.21613 0.65161
 C1096 C 0.51131 0.23059 0.64173
 H1097 H 0.54848 0.09385 0.68467
 H1098 H 0.53383 0.12459 0.66956
 H1099 H 0.55952 0.16040 0.71846
 H1100 H 0.57444 0.12956 0.73320
 H1101 H 0.56479 0.18157 0.68879
 H1102 H 0.55229 0.21202 0.67131
 H1103 H 0.49623 0.18110 0.65686
 H1104 H 0.50839 0.15064 0.67465
 C1105 C 1.07969 0.57597 0.22320
 C1106 C 1.07120 0.59088 0.21678
 C1107 C 1.06165 0.60883 0.20873
 C1108 C 1.05024 0.60773 0.19074
 C1109 C 1.04206 0.62537 0.18218
 C1110 C 1.04524 0.64437 0.19148
 C1111 C 1.05644 0.64526 0.20976
 C1112 C 1.06460 0.62760 0.21830
 C1113 C 1.03756 0.66323 0.18173
 C1114 C 1.04978 0.68081 0.18113
 C1115 C 1.04301 0.69826 0.17107
 C1116 C 1.02395 0.69840 0.16152
 C1117 C 1.01155 0.68111 0.16229
 C1118 C 1.01829 0.66362 0.17233
 C1119 C 1.01749 0.71599 0.15023
 C1120 C 1.01228 0.73053 0.14039
 H1121 H 1.04800 0.59330 0.18313
 H1122 H 1.03377 0.62421 0.16795
 H1123 H 1.05895 0.65962 0.21740
 H1124 H 1.07345 0.62862 0.23222
 H1125 H 1.06481 0.68090 0.18794
 H1126 H 1.05279 0.71153 0.17045
 H1127 H 0.99677 0.68105 0.15492
 H1128 H 1.00844 0.65042 0.17273
 C1129 C 0.92093 0.92226 0.22566
 C1130 C 0.92994 0.90761 0.21937
 C1131 C 0.94015 0.89000 0.21142
 C1132 C 0.95987 0.89164 0.20348
 C1133 C 0.96928 0.87473 0.19470
 C1134 C 0.95903 0.85595 0.19372
 C1135 C 0.93934 0.85439 0.20207
 C1136 C 0.92997 0.87131 0.21084
 C1137 C 0.96844 0.83827 0.18332
 C1138 C 0.96614 0.81852 0.19124
 C1139 C 0.97401 0.80178 0.18077
 C1140 C 0.98431 0.80457 0.16229
 C1141 C 0.98700 0.82417 0.15448
 C1142 C 0.97915 0.84092 0.16492
 C1143 C 0.99135 0.78733 0.15084
 C1144 C 0.99692 0.77307 0.14080
 H1145 H 0.96788 0.90604 0.20386
 H1146 H 0.98454 0.87634 0.18862
 H1147 H 0.93093 0.84025 0.20130
 H1148 H 0.91465 0.86991 0.21683
 H1149 H 0.95819 0.81601 0.20549
 H1150 H 0.97184 0.78667 0.18694
 H1151 H 0.99485 0.82649 0.14013
 H1152 H 0.98093 0.85587 0.15827
 C1153 C 0.42156 0.42278 0.72739
 C1154 C 0.43061 0.40818 0.72104
 C1155 C 0.44079 0.39059 0.71302
 C1156 C 0.43106 0.37167 0.71354
 C1157 C 0.44030 0.35473 0.70467
 C1158 C 0.45941 0.35651 0.69510
 C1159 C 0.46924 0.37553 0.69497
 C1160 C 0.45997 0.39246 0.70387
 C1161 C 0.46859 0.33877 0.68458
 C1162 C 0.47810 0.34119 0.66549
 C1163 C 0.48570 0.32437 0.65500
 C1164 C 0.48395 0.30492 0.66343
 C1165 C 0.47484 0.30237 0.68255
 C1166 C 0.46722 0.31919 0.69308
 C1167 C 0.49075 0.28756 0.65201
 C1168 C 0.49613 0.27320 0.64200
 H1169 H 0.41616 0.37008 0.72048
 H1170 H 0.43220 0.34039 0.70477
 H1171 H 0.48406 0.37732 0.68794
 H1172 H 0.46763 0.40704 0.70337
 H1173 H 0.47913 0.35601 0.65840
 H1174 H 0.49261 0.32649 0.64015
 H1175 H 0.47340 0.28737 0.68921
 H1176 H 0.46020 0.31687 0.70785
 C1177 C 0.41967 0.57132 0.77664
 C1178 C 0.42831 0.58683 0.78124
 C1179 C 0.43816 0.60540 0.78732
 C1180 C 0.45921 0.60587 0.79074
 C1181 C 0.46852 0.62364 0.79785
 C1182 C 0.45686 0.64116 0.80165
 C1183 C 0.43578 0.64062 0.79780
 C1184 C 0.42651 0.62285 0.79070
 C1185 C 0.46643 0.65965 0.81044
 C1186 C 0.46038 0.67913 0.80399
 C1187 C 0.46843 0.69650 0.81327
 C1188 C 0.48264 0.69464 0.82905
 C1189 C 0.48907 0.67536 0.83529
 C1190 C 0.48105 0.65798 0.82604
 C1191 C 0.48984 0.71238 0.83964
 C1192 C 0.49559 0.72698 0.84911
 H1193 H 0.46837 0.59244 0.78817
 H1194 H 0.48481 0.62365 0.80044
 H1195 H 0.42633 0.65373 0.80086
 H1196 H 0.41019 0.62262 0.78822
 H1197 H 0.44934 0.68092 0.79185
 H1198 H 0.46333 0.71136 0.80834
 H1199 H 0.49996 0.67375 0.84759
 H1200 H 0.48581 0.64323 0.83155
 C1201 C -0.07927 0.07033 0.27547
 C1202 C -0.07034 0.08560 0.28030
 C1203 C -0.06013 0.10388 0.28668
 C1204 C -0.04598 0.10320 0.30262
 C1205 C -0.03710 0.12111 0.30985
 C1206 C -0.04232 0.13999 0.30126
 C1207 C -0.05628 0.14048 0.28498
 C1208 C -0.06513 0.12253 0.27776
 C1209 C -0.03394 0.15911 0.30991
 C1210 C -0.04659 0.17613 0.31260
 C1211 C -0.03911 0.19370 0.32194
 C1212 C -0.01889 0.19453 0.32867
 C1213 C -0.00606 0.17784 0.32569
 C1214 C -0.01352 0.16024 0.31636
 C1215 C -0.01169 0.21205 0.33962
 C1216 C -0.00595 0.22649 0.34933
 H1217 H -0.04212 0.08886 0.30974
 H1218 H -0.02666 0.12024 0.32261
 H1219 H -0.06044 0.15474 0.27791
 H1220 H -0.07611 0.12324 0.26544
 H1221 H -0.06246 0.17565 0.30810
 H1222 H -0.04921 0.20648 0.32431
 H1223 H 0.00961 0.17831 0.33088
 H1224 H -0.00335 0.14747 0.31429
 C1225 C 0.07704 0.42723 0.27404
 C1226 C 0.06840 0.41179 0.27885
 C1227 C 0.05869 0.39324 0.28526
 C1228 C 0.04462 0.39352 0.30129
 C1229 C 0.03642 0.37535 0.30868
 C1230 C 0.04223 0.35662 0.30015
 C1231 C 0.05604 0.35654 0.28374
 C1232 C 0.06423 0.37474 0.27636
 C1233 C 0.03467 0.33727 0.30903
 C1234 C 0.04799 0.32075 0.31173
 C1235 C 0.04128 0.30298 0.32128
 C1236 C 0.02118 0.30144 0.32823
 C1237 C 0.00769 0.31761 0.32526
 C1238 C 0.01437 0.33542 0.31571
 C1239 C 0.01474 0.28372 0.33935
 C1240 C 0.00958 0.26914 0.34919
 H1241 H 0.04036 0.40775 0.30839
 H1242 H 0.02606 0.37591 0.32152
 H1243 H 0.06064 0.34239 0.27671
 H1244 H 0.07515 0.37435 0.26398
 H1245 H 0.06378 0.32181 0.30705
 H1246 H 0.05189 0.29061 0.32364
 H1247 H -0.00790 0.31659 0.33062
 H1248 H 0.00370 0.34777 0.31365
 C1249 C 0.57927 0.92797 0.77441
 C1250 C 0.57063 0.91251 0.77917
 C1251 C 0.56087 0.89396 0.78548
 C1252 C 0.54694 0.89416 0.80163
 C1253 C 0.53862 0.87598 0.80886
 C1254 C 0.54419 0.85730 0.80005
 C1255 C 0.55787 0.85730 0.78353
 C1256 C 0.56616 0.87552 0.77632
 C1257 C 0.53649 0.83791 0.80873
 C1258 C 0.54966 0.82122 0.81112
 C1259 C 0.54285 0.80341 0.82053
 C1260 C 0.52279 0.80200 0.82764
 C1261 C 0.50944 0.81834 0.82496
 C1262 C 0.51623 0.83618 0.81555
 C1263 C 0.51630 0.78428 0.83872
 C1264 C 0.51111 0.76971 0.84857
 H1265 H 0.54285 0.90834 0.80894
 H1266 H 0.52837 0.87647 0.82178
 H1267 H 0.56227 0.84320 0.77628
 H1268 H 0.57697 0.87519 0.76383
 H1269 H 0.56542 0.82217 0.80631
 H1270 H 0.55335 0.79091 0.82267
 H1271 H 0.49390 0.81742 0.83045
 H1272 H 0.50567 0.84867 0.81373
 C1273 C 0.72474 0.58305 0.07340
 C1274 C 0.71830 0.57455 0.08837
 C1275 C 0.71021 0.56500 0.10638
 C1276 C 0.71197 0.57470 0.12528
 C1277 C 0.70315 0.56608 0.14264
 C1278 C 0.69239 0.54761 0.14133
 C1279 C 0.69100 0.53780 0.12232
 C1280 C 0.69984 0.54646 0.10496
 C1281 C 0.68208 0.53905 0.15958
 C1282 C 0.66244 0.53059 0.15796
 C1283 C 0.65231 0.52339 0.17526
 C1284 C 0.66164 0.52450 0.19440
 C1285 C 0.68128 0.53263 0.19616
 C1286 C 0.69145 0.53986 0.17887
 C1287 C 0.65078 0.51784 0.21225
 C1288 C 0.64130 0.51247 0.22704
 H1289 H 0.71986 0.58912 0.12652
 H1290 H 0.70425 0.57415 0.15698
 H1291 H 0.68303 0.52346 0.12086
 H1292 H 0.69838 0.53883 0.09040
 H1293 H 0.65469 0.53003 0.14340
 H1294 H 0.63707 0.51720 0.17374
 H1295 H 0.68865 0.53355 0.21092
 H1296 H 0.70664 0.54607 0.18058
 C1297 C 0.22390 1.08196 0.57504
 C1298 C 0.21762 1.07346 0.59006
 C1299 C 0.20973 1.06390 0.60816
 C1300 C 0.19974 1.04515 0.60691
 C1301 C 0.19110 1.03645 0.62435
 C1302 C 0.19233 1.04644 0.64329
 C1303 C 0.20270 1.06514 0.64443
 C1304 C 0.21131 1.07379 0.62697
 C1305 C 0.18220 1.03783 0.66162
 C1306 C 0.19156 1.03902 0.68090
 C1307 C 0.18154 1.03175 0.69827
 C1308 C 0.16207 1.02321 0.69659
 C1309 C 0.15276 1.02172 0.67746
 C1310 C 0.16274 1.02895 0.66009
 C1311 C 0.15130 1.01658 0.71451
 C1312 C 0.14186 1.01126 0.72934
 H1313 H 0.19842 1.03736 0.59242
 H1314 H 0.18344 1.02193 0.62304
 H1315 H 0.20365 1.07335 0.65869
 H1316 H 0.21890 1.08838 0.62808
 H1317 H 0.20663 1.04555 0.68255
 H1318 H 0.18889 1.03298 0.71301
 H1319 H 0.13765 1.01522 0.67601
 H1320 H 0.15500 1.02809 0.64554
 C1321 C 0.22948 0.92175 0.92193
 C1322 C 0.22320 0.93070 0.90717
 C1323 C 0.21522 0.94077 0.88943
 C1324 C 0.20715 0.96037 0.89096
 C1325 C 0.19823 0.96959 0.87395
 C1326 C 0.19724 0.95927 0.85518
 C1327 C 0.20575 0.93972 0.85372
 C1328 C 0.21465 0.93055 0.87074
 C1329 C 0.18662 0.96843 0.83742
 C1330 C 0.19436 0.96607 0.81755
 C1331 C 0.18367 0.97370 0.80077
 C1332 C 0.16514 0.98379 0.80364
 C1333 C 0.15750 0.98652 0.82336
 C1334 C 0.16816 0.97892 0.84015
 C1335 C 0.15347 0.99059 0.78638
 C1336 C 0.14320 0.99598 0.77215
 H1337 H 0.20750 0.96842 0.90537
 H1338 H 0.19204 0.98474 0.87549
 H1339 H 0.20497 0.93126 0.83959
 H1340 H 0.22074 0.91532 0.86942
 H1341 H 0.20864 0.95828 0.81498
 H1342 H 0.18971 0.97149 0.78556
 H1343 H 0.14311 0.99421 0.82574
 H1344 H 0.16163 0.98072 0.85520
 C1345 C 0.72737 0.42329 0.42062
 C1346 C 0.72114 0.43248 0.40600
 C1347 C 0.71321 0.44290 0.38844
 C1348 C 0.72237 0.44032 0.36935
 C1349 C 0.71383 0.44931 0.35204
 C1350 C 0.69596 0.46100 0.35361
 C1351 C 0.68709 0.46382 0.37294
 C1352 C 0.69566 0.45481 0.39022
 C1353 C 0.68608 0.46948 0.33510
 C1354 C 0.67717 0.48891 0.33545
 C1355 C 0.66679 0.49632 0.31839
 C1356 C 0.66520 0.48445 0.30077
 C1357 C 0.67432 0.46527 0.30014
 C1358 C 0.68472 0.45783 0.31716
 C1359 C 0.65331 0.49145 0.28375
 C1360 C 0.64289 0.49698 0.26969
 H1361 H 0.73594 0.43110 0.36780
 H1362 H 0.72114 0.44706 0.33741
 H1363 H 0.67318 0.47246 0.37462
 H1364 H 0.68836 0.45678 0.40490
 H1365 H 0.67816 0.49832 0.34895
 H1366 H 0.65975 0.51118 0.31906
 H1367 H 0.67306 0.45590 0.28662
 H1368 H 0.69114 0.44271 0.31650
 C1369 C 0.77681 0.42113 0.56942
 C1370 C 0.78173 0.42984 0.58483
 C1371 C 0.78819 0.43978 0.60327
 C1372 C 0.80381 0.45424 0.60262
 C1373 C 0.81113 0.46288 0.62066
 C1374 C 0.80293 0.45711 0.63963
 C1375 C 0.78694 0.44284 0.64009
 C1376 C 0.77964 0.43423 0.62202
 C1377 C 0.81167 0.46528 0.65884
 C1378 C 0.81487 0.45240 0.67568
 C1379 C 0.82427 0.45974 0.69332
 C1380 C 0.83056 0.48003 0.69442
 C1381 C 0.82709 0.49306 0.67793
 C1382 C 0.81769 0.48576 0.66025
 C1383 C 0.84154 0.48713 0.71201
 C1384 C 0.85129 0.49284 0.72649
 H1385 H 0.81064 0.45854 0.58820
 H1386 H 0.82364 0.47359 0.61980
 H1387 H 0.78016 0.43827 0.65443
 H1388 H 0.76754 0.42302 0.62270
 H1389 H 0.81069 0.43650 0.67497
 H1390 H 0.82703 0.44948 0.70595
 H1391 H 0.83193 0.50879 0.67860
 H1392 H 0.81523 0.49609 0.64764
 C1393 C 0.27891 -0.07799 0.06965
 C1394 C 0.28377 -0.06947 0.08517
 C1395 C 0.29015 -0.05983 0.10380
 C1396 C 0.29139 -0.07120 0.12178
 C1397 C 0.29880 -0.06228 0.13965
 C1398 C 0.30510 -0.04184 0.13976
 C1399 C 0.30343 -0.03043 0.12168
 C1400 C 0.29602 -0.03938 0.10382
 C1401 C 0.31421 -0.03281 0.15841
 C1402 C 0.33147 -0.02017 0.15698
 C1403 C 0.34086 -0.01269 0.17458
 C1404 C 0.33312 -0.01769 0.19382
 C1405 C 0.31573 -0.02991 0.19541
 C1406 C 0.30631 -0.03741 0.17783
 C1407 C 0.34368 -0.01107 0.21187
 C1408 C 0.35306 -0.00584 0.22676
 H1409 H 0.28701 -0.08707 0.12191
 H1410 H 0.30017 -0.07157 0.15321
 H1411 H 0.30794 -0.01460 0.12134
 H1412 H 0.29513 -0.03045 0.08997
 H1413 H 0.33810 -0.01658 0.14230
 H1414 H 0.35439 -0.00334 0.17318
 H1415 H 0.30963 -0.03388 0.21024
 H1416 H 0.29290 -0.04690 0.17941
 C1417 C 0.27445 0.07996 0.42541
 C1418 C 0.27932 0.07145 0.40989
 C1419 C 0.28580 0.06189 0.39127
 C1420 C 0.28810 0.07354 0.37356
 C1421 C 0.29578 0.06472 0.35579
 C1422 C 0.30133 0.04408 0.35549
 C1423 C 0.29856 0.03238 0.37325
 C1424 C 0.29086 0.04125 0.39103
 C1425 C 0.31089 0.03514 0.33703
 C1426 C 0.32764 0.02196 0.33891
 C1427 C 0.33757 0.01462 0.32157
 C1428 C 0.33091 0.02031 0.30213
 C1429 C 0.31401 0.03308 0.30007
 C1430 C 0.30404 0.04044 0.31740
 C1431 C 0.34212 0.01387 0.28444
 C1432 C 0.35210 0.00876 0.26990
 H1433 H 0.28436 0.08956 0.37363
 H1434 H 0.29802 0.07421 0.34249
 H1435 H 0.30247 0.01641 0.37343
 H1436 H 0.28918 0.03210 0.40466
 H1437 H 0.33349 0.01784 0.35378
 H1438 H 0.35072 0.00485 0.32335
 H1439 H 0.30874 0.03760 0.28508
 H1440 H 0.29105 0.05037 0.31545
 C1441 C 0.77478 0.57908 0.92551
 C1442 C 0.77959 0.57047 0.91004
 C1443 C 0.78600 0.56080 0.89145
 C1444 C 0.78719 0.57212 0.87343
 C1445 C 0.79482 0.56328 0.85564
 C1446 C 0.80142 0.54296 0.85565
 C1447 C 0.79976 0.53156 0.87374
 C1448 C 0.79212 0.54045 0.89153
 C1449 C 0.81091 0.53408 0.83713
 C1450 C 0.82837 0.52182 0.83880
 C1451 C 0.83816 0.51457 0.82135
 C1452 C 0.83064 0.51943 0.80199
 C1453 C 0.81305 0.53126 0.80015
 C1454 C 0.80322 0.53853 0.81760
 C1455 C 0.84161 0.51310 0.78411
 C1456 C 0.85133 0.50808 0.76937
 H1457 H 0.78264 0.58794 0.87324
 H1458 H 0.79617 0.57255 0.84207
 H1459 H 0.80448 0.51582 0.87416
 H1460 H 0.79129 0.53155 0.90541
 H1461 H 0.83485 0.51836 0.85358
 H1462 H 0.85185 0.50553 0.82294
 H1463 H 0.80710 0.53512 0.78523
 H1464 H 0.78967 0.54773 0.81582
 C1465 C 0.07515 0.72405 0.58184
 C1466 C 0.08999 0.71781 0.57302
 C1467 C 0.10786 0.70994 0.56309
 C1468 C 0.10654 0.69230 0.55129
 C1469 C 0.12412 0.68384 0.54279
 C1470 C 0.14328 0.69291 0.54604
 C1471 C 0.14438 0.71088 0.55760
 C1472 C 0.12678 0.71931 0.56608
 C1473 C 0.16208 0.68318 0.53811
 C1474 C 0.17972 0.68219 0.55028
 C1475 C 0.19708 0.67207 0.54331
 C1476 C 0.19707 0.66284 0.52410
 C1477 C 0.17973 0.66403 0.51173
 C1478 C 0.16235 0.67414 0.51868
 C1479 C 0.21449 0.65135 0.51751
 C1480 C 0.22887 0.64128 0.51227
 H1481 H 0.09199 0.68485 0.54899
 H1482 H 0.12279 0.66986 0.53420
 H1483 H 0.15887 0.71835 0.56016
 H1484 H 0.12797 0.73297 0.57522
 H1485 H 0.17991 0.68873 0.56542
 H1486 H 0.21037 0.67112 0.55306
 H1487 H 0.17956 0.65691 0.49684
 H1488 H 0.14909 0.67485 0.50887
 C1489 C 0.57496 0.22358 1.08128
 C1490 C 0.58976 0.21732 1.07240
 C1491 C 0.60758 0.20943 1.06240
 C1492 C 0.60643 0.19119 1.05152
 C1493 C 0.62400 0.18278 1.04297
 C1494 C 0.64299 0.19249 1.04523
 C1495 C 0.64392 0.21102 1.05588
 C1496 C 0.62632 0.21941 1.06442
 C1497 C 0.66183 0.18288 1.03723
 C1498 C 0.67984 0.18296 1.04888
 C1499 C 0.69726 0.17295 1.04190
 C1500 C 0.69694 0.16277 1.02318
 C1501 C 0.67923 0.16290 1.01130
 C1502 C 0.66178 0.17289 1.01826
 C1503 C 0.71448 0.15144 1.01664
 C1504 C 0.72899 0.14153 1.01144
 H1505 H 0.59203 0.18327 1.04999
 H1506 H 0.62282 0.16836 1.03512
 H1507 H 0.65826 0.21898 1.05767
 H1508 H 0.62738 0.23353 1.07284
 H1509 H 0.68029 0.19025 1.06367
 H1510 H 0.71085 0.17284 1.05128
 H1511 H 0.67882 0.15505 0.99679
 H1512 H 0.64824 0.17277 1.00883
 C1513 C 0.92233 0.22592 0.92087
 C1514 C 0.90762 0.21960 0.92988
 C1515 C 0.88992 0.21161 0.94009
 C1516 C 0.89169 0.20283 0.95945
 C1517 C 0.87468 0.19403 0.96880
 C1518 C 0.85566 0.19388 0.95888
 C1519 C 0.85398 0.20306 0.93957
 C1520 C 0.87101 0.21184 0.93026
 C1521 C 0.83782 0.18350 0.96820
 C1522 C 0.81817 0.19189 0.96659
 C1523 C 0.80127 0.18151 0.97440
 C1524 C 0.80378 0.16265 0.98392
 C1525 C 0.82330 0.15435 0.98590
 C1526 C 0.84021 0.16470 0.97811
 C1527 C 0.78633 0.15137 0.99089
 C1528 C 0.77186 0.14149 0.99639
 H1529 H 0.90627 0.20256 0.96719
 H1530 H 0.87640 0.18730 0.98377
 H1531 H 0.83964 0.20294 0.93140
 H1532 H 0.86949 0.21849 0.91522
 H1533 H 0.81586 0.20644 0.95926
 H1534 H 0.78622 0.18807 0.97279
 H1535 H 0.82540 0.13971 0.99313
 H1536 H 0.85507 0.15769 0.97933
 C1537 C 0.42290 0.72530 0.42348
 C1538 C 0.40837 0.71882 0.43268
 C1539 C 0.39089 0.71064 0.44310
 C1540 C 0.39346 0.69748 0.45966
 C1541 C 0.37650 0.68845 0.46889
 C1542 C 0.35673 0.69246 0.46163
 C1543 C 0.35429 0.70604 0.44524
 C1544 C 0.37126 0.71504 0.43604
 C1545 C 0.33879 0.68187 0.47051
 C1546 C 0.32023 0.69216 0.47335
 C1547 C 0.30310 0.68184 0.48076
 C1548 C 0.30433 0.66114 0.48542
 C1549 C 0.32279 0.65084 0.48292
 C1550 C 0.33991 0.66112 0.47553
 C1551 C 0.28654 0.65020 0.49212
 C1552 C 0.27182 0.64060 0.49741
 H1553 H 0.40859 0.69396 0.46525
 H1554 H 0.37886 0.67827 0.48164
 H1555 H 0.33930 0.70922 0.43911
 H1556 H 0.36910 0.72511 0.42314
 H1557 H 0.31895 0.70818 0.46984
 H1558 H 0.28888 0.68996 0.48266
 H1559 H 0.32387 0.63478 0.48639
 H1560 H 0.35387 0.65268 0.47322
 C1561 C 0.57140 0.77576 0.42147
 C1562 C 0.58688 0.78056 0.43011
 C1563 C 0.60544 0.78689 0.43994
 C1564 C 0.62311 0.78976 0.42835
 C1565 C 0.64084 0.79716 0.43752
 C1566 C 0.64113 0.80184 0.45845
 C1567 C 0.62338 0.79855 0.47006
 C1568 C 0.60565 0.79113 0.46085
 C1569 C 0.65957 0.81102 0.46784
 C1570 C 0.65770 0.82716 0.48177
 C1571 C 0.67504 0.83676 0.48956
 C1572 C 0.69446 0.83035 0.48361
 C1573 C 0.69651 0.81403 0.47010
 C1574 C 0.67918 0.80439 0.46228
 C1575 C 0.71217 0.84127 0.49050
 C1576 C 0.72676 0.85099 0.49594
 H1577 H 0.62307 0.78665 0.41212
 H1578 H 0.65413 0.79982 0.42810
 H1579 H 0.62319 0.80180 0.48624
 H1580 H 0.59204 0.78899 0.46996
 H1581 H 0.64285 0.83282 0.48613
 H1582 H 0.67329 0.84947 0.49990
 H1583 H 0.71148 0.80896 0.46537
 H1584 H 0.68111 0.79185 0.45179
 C1585 C 0.06974 0.27561 -0.07814
 C1586 C 0.08522 0.28040 -0.06947
 C1587 C 0.10379 0.28667 -0.05963
 C1588 C 0.10391 0.29136 -0.03882
 C1589 C 0.12171 0.29864 -0.02961
 C1590 C 0.13961 0.30135 -0.04113
 C1591 C 0.13940 0.29623 -0.06196
 C1592 C 0.12161 0.28896 -0.07112
 C1593 C 0.15816 0.31032 -0.03176
 C1594 C 0.17768 0.30317 -0.03699
 C1595 C 0.19514 0.31255 -0.02915
 C1596 C 0.19332 0.32914 -0.01596
 C1597 C 0.17399 0.33610 -0.01033
 C1598 C 0.15652 0.32676 -0.01815
 C1599 C 0.21120 0.33975 -0.00901
 C1600 C 0.22593 0.34923 -0.00349
 H1601 H 0.09020 0.28966 -0.02978
 H1602 H 0.12145 0.30223 -0.01350
 H1603 H 0.15282 0.29842 -0.07131
 H1604 H 0.12165 0.28549 -0.08727
 H1605 H 0.17943 0.29040 -0.04724
 H1606 H 0.21003 0.30705 -0.03362
 H1607 H 0.17242 0.34902 -0.00024
 H1608 H 0.14176 0.33281 -0.01405
 C1609 C 0.42522 0.27249 0.08251
 C1610 C 0.40956 0.27723 0.07417
 C1611 C 0.39081 0.28360 0.06478
 C1612 C 0.39026 0.28839 0.04399
 C1613 C 0.37238 0.29600 0.03527
 C1614 C 0.35484 0.29895 0.04725
 C1615 C 0.35545 0.29366 0.06803
 C1616 C 0.37332 0.28606 0.07672
 C1617 C 0.33628 0.30839 0.03842
 C1618 C 0.31673 0.30163 0.04411
 C1619 C 0.29932 0.31144 0.03677
 C1620 C 0.30122 0.32809 0.02364
 C1621 C 0.32058 0.33468 0.01758
 C1622 C 0.33799 0.32491 0.02489
 C1623 C 0.28345 0.33907 0.01710
 C1624 C 0.26885 0.34884 0.01185
 H1625 H 0.40372 0.28657 0.03461
 H1626 H 0.37231 0.29970 0.01918
 H1627 H 0.34232 0.29601 0.07774
 H1628 H 0.37363 0.28252 0.09285
 H1629 H 0.31491 0.28881 0.05430
 H1630 H 0.28440 0.30622 0.04157
 H1631 H 0.32223 0.34764 0.00752
 H1632 H 0.35280 0.33068 0.02045
 C1633 C 0.92610 0.77505 0.58215
 C1634 C 0.91054 0.78002 0.57376
 C1635 C 0.89187 0.78656 0.56434
 C1636 C 0.87431 0.78890 0.57621
 C1637 C 0.85646 0.79652 0.56749
 C1638 C 0.85594 0.80195 0.54674
 C1639 C 0.87357 0.79918 0.53484
 C1640 C 0.89142 0.79155 0.54360
 C1641 C 0.83737 0.81130 0.53787
 C1642 C 0.83901 0.82793 0.52447
 C1643 C 0.82155 0.83759 0.51711
 C1644 C 0.80222 0.83076 0.52299
 C1645 C 0.80039 0.81400 0.53599
 C1646 C 0.81784 0.80431 0.54338
 C1647 C 0.78438 0.84159 0.51640
 C1648 C 0.76969 0.85120 0.51112
 H1649 H 0.87453 0.78522 0.59231
 H1650 H 0.84327 0.79875 0.57714
 H1651 H 0.87358 0.80301 0.51878
 H1652 H 0.90493 0.78982 0.53428
 H1653 H 0.85380 0.83387 0.52017
 H1654 H 0.82314 0.85063 0.50715
 H1655 H 0.78549 0.80860 0.54064
 H1656 H 0.81608 0.79140 0.55347
   
