data_POSCAR
  _audit_creation_date              2014-09-24
  _audit_creation_method            'ToBaCCo'
  _symmetry_space_group_name_H-M    'P1'
  _symmetry_Int_Tables_number       1
  _symmetry_cell_setting            triclinic
  loop_
  _symmetry_equiv_pos_as_xyz
 x,y,z
_cell_length_a 40.8360
_cell_length_b 41.9490
_cell_length_c 48.8137
_cell_angle_alpha 89.945700
_cell_angle_beta 89.970900
_cell_angle_gamma 90.043600
loop_
  _atom_site_label
  _atom_site_type_symbol
  _atom_site_fract_x
  _atom_site_fract_y
  _atom_site_fract_z
Zr1 Zr 0.24805 0.24836 0.29809
 O2 O 0.27351 0.27256 0.32962
 O3 O 0.21574 0.21951 0.32060
 O4 O 0.21663 0.27897 0.32030
 O5 O 0.30809 0.19166 0.28768
 O6 O 0.19242 0.30920 0.28709
 O7 O 0.27863 0.21733 0.32075
 O8 O 0.18431 0.19652 0.28739
 O9 O 0.20541 0.25146 0.27438
 O10 O 0.24657 0.20700 0.27424
 O11 O 0.25283 0.29059 0.27506
 O12 O 0.29219 0.24813 0.27548
 Zr13 Zr 0.25172 0.25133 0.20213
 Zr14 Zr 0.21135 0.29212 0.24992
 Zr15 Zr 0.28877 0.20782 0.25026
 Zr16 Zr 0.20514 0.21088 0.24976
 O17 O 0.34061 0.20868 0.24956
 O18 O 0.15441 0.22152 0.24819
 O19 O 0.24723 0.20868 0.22493
 O20 O 0.20807 0.25162 0.22507
 O21 O 0.25353 0.29307 0.22563
 O22 O 0.29407 0.24845 0.22613
 C23 C 0.19205 0.20161 0.31258
 C24 C 0.30099 0.19767 0.31284
 C25 C 0.19728 0.30136 0.31223
 O26 O 0.15965 0.29092 0.24724
 O27 O 0.19708 0.31307 0.21261
 O28 O 0.22306 0.28412 0.17954
 C29 C 0.20363 0.30652 0.18744
 O30 O 0.31691 0.30554 0.28726
 Zr31 Zr 0.29479 0.28892 0.25053
 O32 O 0.28381 0.28050 0.17965
 O33 O 0.21831 0.34203 0.25251
 O34 O 0.28938 0.33919 0.25118
 O35 O 0.34587 0.27978 0.24987
 O36 O 0.31282 0.30633 0.21290
 C37 C 0.30575 0.30040 0.18772
 O38 O 0.22478 0.22859 0.17064
 O39 O 0.28170 0.15786 0.25104
 O40 O 0.28062 0.21864 0.17971
 O41 O 0.30484 0.18841 0.21295
 O42 O 0.20828 0.16045 0.25142
 O43 O 0.18668 0.19085 0.21288
 C44 C 0.29957 0.19592 0.18777
 H45 H 0.24581 0.18726 0.28535
 H46 H 0.18865 0.25252 0.21295
 H47 H 0.31440 0.24716 0.21514
 H48 H 0.25410 0.30948 0.28716
 H49 H 0.14234 0.20172 0.25280
 H50 H 0.15206 0.31333 0.24813
 H51 H 0.19634 0.35196 0.25139
 H52 H 0.31090 0.34863 0.24642
 H53 H 0.18611 0.15222 0.25570
 H54 H 0.30375 0.14811 0.25206
 H55 H 0.34807 0.18621 0.24897
 H56 H 0.35706 0.30007 0.24529
 H57 H 0.16736 0.17742 0.21704
 H58 H 0.23371 0.23623 0.15289
 H59 H 0.26469 0.26469 0.34733
 H60 H 0.33273 0.32271 0.28287
 Zr61 Zr 0.75207 0.75155 0.29778
 O62 O 0.72681 0.72727 0.32944
 O63 O 0.78424 0.78064 0.32015
 O64 O 0.78367 0.72115 0.32003
 O65 O 0.69162 0.80783 0.28731
 O66 O 0.80806 0.69101 0.28687
 O67 O 0.72130 0.78242 0.32040
 O68 O 0.81544 0.80381 0.28682
 O69 O 0.79471 0.74868 0.27401
 O70 O 0.75324 0.79287 0.27381
 O71 O 0.74755 0.70924 0.27488
 O72 O 0.70790 0.75142 0.27525
 Zr73 Zr 0.74830 0.74834 0.20182
 Zr74 Zr 0.78902 0.70793 0.24967
 Zr75 Zr 0.71101 0.79170 0.24990
 Zr76 Zr 0.79466 0.78921 0.24926
 O77 O 0.65919 0.79050 0.24930
 O78 O 0.84546 0.77890 0.24765
 O79 O 0.75252 0.79106 0.22450
 O80 O 0.79198 0.74841 0.22469
 O81 O 0.74681 0.70664 0.22545
 O82 O 0.70596 0.75100 0.22589
 C83 C 0.80780 0.79870 0.31204
 C84 C 0.69880 0.80192 0.31248
 C85 C 0.80313 0.69885 0.31199
 O86 O 0.84070 0.70948 0.24694
 O87 O 0.80346 0.68704 0.21240
 O88 O 0.77720 0.71572 0.17928
 C89 C 0.79684 0.69350 0.18722
 O90 O 0.68361 0.69386 0.28723
 Zr91 Zr 0.70555 0.71057 0.25042
 O92 O 0.71633 0.71892 0.17949
 O93 O 0.78241 0.65799 0.25238
 O94 O 0.71132 0.66035 0.25121
 O95 O 0.65442 0.71940 0.24984
 O96 O 0.68757 0.69296 0.21289
 C97 C 0.69454 0.69890 0.18767
 O98 O 0.77501 0.77118 0.17019
 O99 O 0.71773 0.84172 0.25052
 O100 O 0.71917 0.78085 0.17937
 O101 O 0.69479 0.81096 0.21258
 O102 O 0.79114 0.83962 0.25075
 O103 O 0.81294 0.80929 0.21229
 C104 C 0.70009 0.80347 0.18741
 H105 H 0.75388 0.81264 0.28486
 H106 H 0.81139 0.74762 0.21255
 H107 H 0.68561 0.75215 0.21494
 H108 H 0.74643 0.69036 0.28703
 H109 H 0.85740 0.79878 0.25217
 H110 H 0.84846 0.68713 0.24790
 H111 H 0.80445 0.64820 0.25128
 H112 H 0.68987 0.65075 0.24652
 H113 H 0.81326 0.84802 0.25498
 H114 H 0.69561 0.85133 0.25155
 H115 H 0.65156 0.81291 0.24864
 H116 H 0.64335 0.69903 0.24534
 H117 H 0.83218 0.82285 0.21639
 H118 H 0.76609 0.76345 0.15249
 H119 H 0.73560 0.73522 0.34711
 H120 H 0.66790 0.67660 0.28292
 Zr121 Zr 0.75208 0.24822 -0.29803
 O122 O 0.72687 0.27234 -0.32977
 O123 O 0.78427 0.21907 -0.32032
 O124 O 0.78368 0.27860 -0.32036
 O125 O 0.69158 0.19194 -0.28737
 O126 O 0.80804 0.30887 -0.28726
 O127 O 0.72128 0.21724 -0.32055
 O128 O 0.81542 0.19606 -0.28692
 O129 O 0.79468 0.25124 -0.27427
 O130 O 0.75321 0.20700 -0.27394
 O131 O 0.74754 0.29061 -0.27524
 O132 O 0.70789 0.24839 -0.27548
 Zr133 Zr 0.74822 0.25180 -0.20207
 Zr134 Zr 0.78897 0.29206 -0.25004
 Zr135 Zr 0.71097 0.20821 -0.25003
 Zr136 Zr 0.79461 0.21081 -0.24941
 O137 O 0.65914 0.20934 -0.24940
 O138 O 0.84541 0.22119 -0.24785
 O139 O 0.75246 0.20900 -0.22464
 O140 O 0.79192 0.25169 -0.22495
 O141 O 0.74675 0.29341 -0.22582
 O142 O 0.70590 0.24899 -0.22612
 C143 C 0.80781 0.20107 -0.31216
 C144 C 0.69875 0.19777 -0.31255
 C145 C 0.80312 0.30096 -0.31237
 O146 O 0.84065 0.29059 -0.24731
 O147 O 0.80335 0.31316 -0.21285
 O148 O 0.77707 0.28458 -0.17964
 C149 C 0.79670 0.30681 -0.18765
 O150 O 0.68360 0.30587 -0.28761
 Zr151 Zr 0.70551 0.28932 -0.25076
 O152 O 0.71625 0.28125 -0.17982
 O153 O 0.78238 0.34199 -0.25291
 O154 O 0.71129 0.33955 -0.25171
 O155 O 0.65438 0.28042 -0.25013
 O156 O 0.68752 0.30707 -0.21327
 C157 C 0.69447 0.30123 -0.18804
 O158 O 0.77492 0.22912 -0.17039
 O159 O 0.71768 0.15820 -0.25051
 O160 O 0.71907 0.21936 -0.17953
 O161 O 0.69472 0.18909 -0.21265
 O162 O 0.79108 0.16038 -0.25075
 O163 O 0.81287 0.19089 -0.21239
 C164 C 0.70000 0.19669 -0.18751
 H165 H 0.75385 0.18719 -0.28494
 H166 H 0.81132 0.25256 -0.21281
 H167 H 0.68554 0.24786 -0.21516
 H168 H 0.74642 0.30944 -0.28744
 H169 H 0.85736 0.20131 -0.25232
 H170 H 0.84842 0.31295 -0.24833
 H171 H 0.80443 0.35181 -0.25183
 H172 H 0.68984 0.34915 -0.24703
 H173 H 0.81319 0.15198 -0.25496
 H174 H 0.69556 0.14856 -0.25151
 H175 H 0.65151 0.18692 -0.24867
 H176 H 0.64331 0.30078 -0.24567
 H177 H 0.83211 0.17734 -0.21646
 H178 H 0.76599 0.23691 -0.15271
 H179 H 0.73568 0.26431 -0.34741
 H180 H 0.66786 0.32312 -0.28333
 Zr181 Zr 0.24712 0.75361 -0.29797
 O182 O 0.27237 0.72992 -0.32991
 O183 O 0.21515 0.78330 -0.32002
 O184 O 0.21548 0.72350 -0.32059
 O185 O 0.30784 0.80944 -0.28675
 O186 O 0.19095 0.69297 -0.28768
 O187 O 0.27801 0.78500 -0.32018
 O188 O 0.18392 0.80571 -0.28647
 O189 O 0.20444 0.75042 -0.27427
 O190 O 0.24611 0.79447 -0.27351
 O191 O 0.25142 0.71092 -0.27547
 O192 O 0.29125 0.75288 -0.27536
 Zr193 Zr 0.25065 0.74869 -0.20192
 Zr194 Zr 0.20992 0.70928 -0.25031
 Zr195 Zr 0.28828 0.79270 -0.24956
 Zr196 Zr 0.20463 0.79050 -0.24906
 O197 O 0.34009 0.79126 -0.24893
 O198 O 0.15378 0.78031 -0.24758
 O199 O 0.24672 0.79178 -0.22421
 O200 O 0.20705 0.74932 -0.22491
 O201 O 0.25202 0.70739 -0.22601
 O202 O 0.29305 0.75162 -0.22593
 C203 C 0.19158 0.80131 -0.31182
 C204 C 0.30066 0.80434 -0.31209
 C205 C 0.19596 0.70108 -0.31274
 O206 O 0.15824 0.71091 -0.24769
 O207 O 0.19528 0.68777 -0.21331
 O208 O 0.22111 0.71601 -0.17980
 C209 C 0.20138 0.69388 -0.18795
 O210 O 0.31534 0.69537 -0.28780
 Zr211 Zr 0.29334 0.71163 -0.25090
 O212 O 0.28236 0.71869 -0.17990
 O213 O 0.21632 0.65936 -0.25355
 O214 O 0.28729 0.66144 -0.25229
 O215 O 0.34450 0.72037 -0.25012
 O216 O 0.31113 0.69327 -0.21352
 C217 C 0.30410 0.69875 -0.18825
 O218 O 0.22418 0.77116 -0.17001
 O219 O 0.28185 0.84275 -0.24961
 O220 O 0.27997 0.78078 -0.17913
 O221 O 0.30457 0.81128 -0.21205
 O222 O 0.20836 0.84092 -0.25005
 O223 O 0.18641 0.81007 -0.21191
 C224 C 0.29921 0.80344 -0.18696
 H225 H 0.24559 0.81445 -0.28431
 H226 H 0.18759 0.74840 -0.21284
 H227 H 0.31339 0.75250 -0.21493
 H228 H 0.25250 0.69223 -0.28781
 H229 H 0.14194 0.80030 -0.25190
 H230 H 0.15038 0.68860 -0.24887
 H231 H 0.19423 0.64960 -0.25256
 H232 H 0.30866 0.65167 -0.24762
 H233 H 0.18629 0.84945 -0.25424
 H234 H 0.30402 0.85229 -0.25056
 H235 H 0.34786 0.81363 -0.24802
 H236 H 0.35550 0.69994 -0.24574
 H237 H 0.16723 0.82374 -0.21588
 H238 H 0.23303 0.76302 -0.15241
 H239 H 0.26362 0.73825 -0.34747
 H240 H 0.33106 0.67808 -0.28359
 Zr241 Zr 1.25207 1.25255 0.79781
 O242 O 1.22613 1.22884 0.82942
 O243 O 1.28447 1.28126 0.82022
 O244 O 1.28286 1.22184 0.82059
 O245 O 1.19415 1.31125 0.78655
 O246 O 1.30899 1.19280 0.78767
 O247 O 1.22135 1.28379 0.81995
 O248 O 1.31648 1.30363 0.78699
 O249 O 1.29490 1.24911 0.77437
 O250 O 1.25431 1.29371 0.77361
 O251 O 1.24727 1.21013 0.77521
 O252 O 1.20813 1.25324 0.77499
 Zr253 Zr 1.24890 1.24858 0.70191
 Zr254 Zr 1.28897 1.20831 0.75031
 Zr255 Zr 1.21236 1.29328 0.74938
 Zr256 Zr 1.29579 1.28932 0.74931
 O257 O 1.16055 1.29273 0.74854
 O258 O 1.34639 1.27809 0.74796
 O259 O 1.25396 1.29149 0.72422
 O260 O 1.29247 1.24843 0.72498
 O261 O 1.24683 1.20721 0.72591
 O262 O 1.20651 1.25234 0.72574
 C263 C 1.30847 1.29877 0.81218
 C264 C 1.20054 1.30483 0.81177
 C265 C 1.30356 1.20051 0.81276
 O266 O 1.34071 1.20885 0.74754
 O267 O 1.30432 1.18774 0.71330
 O268 O 1.27709 1.21501 0.67984
 C269 C 1.29749 1.19362 0.68809
 O270 O 1.18309 1.19653 0.78759
 Zr271 Zr 1.20538 1.21208 0.75055
 O272 O 1.21665 1.21936 0.67967
 O273 O 1.28147 1.15854 0.75352
 O274 O 1.21015 1.16177 0.75182
 O275 O 1.15435 1.22139 0.74955
 O276 O 1.18731 1.19421 0.71314
 C277 C 1.19454 1.19969 0.68790
 O278 O 1.27620 1.27062 0.67022
 O279 O 1.21978 1.34323 0.74966
 O280 O 1.22019 1.28106 0.67900
 O281 O 1.19803 1.31336 0.71177
 O282 O 1.29289 1.33978 0.75054
 O283 O 1.31496 1.30901 0.71250
 C284 C 1.20282 1.30512 0.68669
 H285 H 1.25533 1.31355 0.78453
 H286 H 1.31193 1.24738 0.71291
 H287 H 1.18628 1.25380 0.71465
 H288 H 1.24597 1.19137 0.78749
 H289 H 1.35867 1.29772 0.75267
 H290 H 1.34817 1.18643 0.74889
 H291 H 1.30340 1.14849 0.75271
 H292 H 1.18847 1.15252 0.74734
 H293 H 1.31498 1.34793 0.75519
 H294 H 1.19781 1.35325 0.75024
 H295 H 1.15336 1.31525 0.74744
 H296 H 1.14309 1.20099 0.74552
 H297 H 1.33422 1.32246 0.71680
 H298 H 1.26728 1.26278 0.65256
 H299 H 1.23478 1.23685 0.84712
 H300 H 1.16728 1.17925 0.78356
 Zr301 Zr 0.74802 0.74739 0.79812
 O302 O 0.77401 0.77109 0.82964
 O303 O 0.71552 0.71884 0.82064
 O304 O 0.71729 0.77822 0.82084
 O305 O 0.80577 0.68851 0.78701
 O306 O 0.69123 0.80725 0.78784
 O307 O 0.77867 0.71614 0.82033
 O308 O 0.68340 0.69657 0.78749
 O309 O 0.70521 0.75087 0.77469
 O310 O 0.74568 0.70617 0.77406
 O311 O 0.75292 0.78975 0.77540
 O312 O 0.79195 0.74653 0.77527
 Zr313 Zr 0.75121 0.75112 0.70221
 Zr314 Zr 0.71123 0.79161 0.75052
 Zr315 Zr 0.78763 0.70644 0.74979
 Zr316 Zr 0.70422 0.71061 0.74976
 O317 O 0.83944 0.70684 0.74895
 O318 O 0.65364 0.72191 0.74832
 O319 O 0.74605 0.70826 0.72465
 O320 O 0.70764 0.75144 0.72531
 O321 O 0.75338 0.79255 0.72608
 O322 O 0.79358 0.74733 0.72604
 C323 C 0.69141 0.70146 0.81266
 C324 C 0.79942 0.69504 0.81221
 C325 C 0.69664 0.79957 0.81296
 O326 O 0.65949 0.79118 0.74781
 O327 O 0.69593 0.81210 0.71345
 O328 O 0.72306 0.78468 0.68006
 C329 C 0.70270 0.80612 0.68825
 O330 O 0.81711 0.80321 0.78770
 Zr331 Zr 0.79480 0.78763 0.75072
 O332 O 0.78353 0.78022 0.67988
 O333 O 0.71886 0.84137 0.75354
 O334 O 0.79015 0.83796 0.75179
 O335 O 0.84582 0.77823 0.74974
 O336 O 0.81296 0.80533 0.71325
 C337 C 0.80572 0.79980 0.68804
 O338 O 0.72388 0.72905 0.67062
 O339 O 0.78004 0.65652 0.75020
 O340 O 0.77991 0.71860 0.67939
 O341 O 0.80203 0.68632 0.71222
 O342 O 0.70696 0.66015 0.75126
 O343 O 0.68509 0.69084 0.71301
 C344 C 0.79729 0.69455 0.68712
 H345 H 0.74459 0.68636 0.78506
 H346 H 0.68818 0.75250 0.71325
 H347 H 0.81382 0.74581 0.71495
 H348 H 0.75426 0.80853 0.78762
 H349 H 0.64131 0.70231 0.75308
 H350 H 0.65208 0.81363 0.74907
 H351 H 0.69695 0.85147 0.75272
 H352 H 0.81186 0.84714 0.74727
 H353 H 0.68483 0.65209 0.75593
 H354 H 0.80196 0.64643 0.75081
 H355 H 0.84657 0.68430 0.74793
 H356 H 0.85712 0.79861 0.74567
 H357 H 0.66583 0.67740 0.71735
 H358 H 0.73282 0.73683 0.65293
 H359 H 0.76532 0.76315 0.84737
 H360 H 0.83291 0.82049 0.78362
 Zr361 Zr 1.25217 0.74736 0.20204
 O362 O 1.22635 0.77118 0.17047
 O363 O 1.28448 0.71862 0.17958
 O364 O 1.28309 0.77800 0.17929
 O365 O 1.19402 0.68876 0.21319
 O366 O 1.30932 0.80694 0.21223
 O367 O 1.22140 0.71623 0.17985
 O368 O 1.31639 0.69614 0.21278
 O369 O 1.29499 0.75068 0.22547
 O370 O 1.25423 0.70615 0.22618
 O371 O 1.24751 0.78976 0.22467
 O372 O 1.20820 0.74673 0.22484
 Zr373 Zr 1.24891 0.75120 0.29790
 Zr374 Zr 1.28919 0.79146 0.24957
 Zr375 Zr 1.21225 0.70663 0.25039
 Zr376 Zr 1.29570 0.71043 0.25048
 O377 O 1.16044 0.70728 0.25126
 O378 O 1.34635 0.72155 0.25184
 O379 O 1.25383 0.70830 0.27555
 O380 O 1.29252 0.75129 0.27485
 O381 O 1.24701 0.79262 0.27397
 O382 O 1.20653 0.74756 0.27408
 C383 C 1.30842 0.70105 0.18759
 C384 C 1.20049 0.69523 0.18798
 C385 C 1.30387 0.79925 0.18713
 O386 O 1.34092 0.79083 0.25236
 O387 O 1.30455 0.81195 0.28662
 O388 O 1.27715 0.78467 0.32001
 C389 C 1.29764 0.80603 0.31182
 O390 O 1.18339 0.80352 0.21230
 Zr391 Zr 1.20557 0.78786 0.24932
 O392 O 1.21673 0.78042 0.32018
 O393 O 1.28188 0.84125 0.24639
 O394 O 1.21053 0.83816 0.24812
 O395 O 1.15450 0.77866 0.25031
 O396 O 1.18752 0.80570 0.28676
 C397 C 1.19470 0.80014 0.31199
 O398 O 1.27612 0.72905 0.32955
 O399 O 1.21946 0.65667 0.25003
 O400 O 1.22010 0.71877 0.32077
 O401 O 1.19786 0.68653 0.28800
 O402 O 1.29264 0.65997 0.24918
 O403 O 1.31473 0.69065 0.28727
 C404 C 1.20267 0.69475 0.31307
 H405 H 1.25519 0.68633 0.21523
 H406 H 1.31196 0.75229 0.28693
 H407 H 1.18628 0.74612 0.28517
 H408 H 1.24629 0.80854 0.21241
 H409 H 1.35856 0.70190 0.24712
 H410 H 1.34846 0.81325 0.25102
 H411 H 1.30385 0.85125 0.24722
 H412 H 1.18888 0.84744 0.25261
 H413 H 1.31472 0.65180 0.24453
 H414 H 1.19746 0.64670 0.24946
 H415 H 1.15317 0.68477 0.25234
 H416 H 1.14332 0.79909 0.25435
 H417 H 1.33397 0.67718 0.28297
 H418 H 1.26722 0.73688 0.34722
 H419 H 1.23498 0.76319 0.15275
 H420 H 1.16764 0.82082 0.21635
 Zr421 Zr 0.74828 1.25263 0.20195
 O422 O 0.77393 1.22893 0.17023
 O423 O 0.71607 1.28171 0.17964
 O424 O 0.71722 1.22218 0.17913
 O425 O 0.80688 1.31078 0.21329
 O426 O 0.69083 1.19319 0.21202
 O427 O 0.77933 1.28376 0.17985
 O428 O 0.68438 1.30417 0.21298
 O429 O 0.70545 1.24939 0.22544
 O430 O 0.74649 1.29366 0.22625
 O431 O 0.75267 1.21005 0.22447
 O432 O 0.79224 1.25281 0.22474
 Zr433 Zr 0.75154 1.24808 0.29788
 Zr434 Zr 0.71098 1.20841 0.24941
 Zr435 Zr 0.78847 1.29276 0.25044
 Zr436 Zr 0.70501 1.28947 0.25059
 O437 O 0.84027 1.29176 0.25126
 O438 O 0.65429 1.27864 0.25197
 O439 O 0.74689 1.29115 0.27565
 O440 O 0.70793 1.24842 0.27484
 O441 O 0.75315 1.20682 0.27378
 O442 O 0.79392 1.25164 0.27400
 C443 C 0.69226 1.29938 0.18776
 C444 C 0.80041 1.30456 0.18805
 C445 C 0.69636 1.20094 0.18693
 O446 O 0.65925 1.20940 0.25218
 O447 O 0.69540 1.18776 0.28640
 O448 O 0.72300 1.21458 0.31989
 C449 C 0.70234 1.19341 0.31163
 O450 O 0.81667 1.19592 0.21200
 Zr451 Zr 0.79461 1.21151 0.24909
 O452 O 0.78360 1.21851 0.32000
 O453 O 0.71798 1.15860 0.24612
 O454 O 0.78931 1.16124 0.24774
 O455 O 0.84573 1.22043 0.25003
 O456 O 0.81261 1.19330 0.28644
 C457 C 0.80551 1.19874 0.31170
 O458 O 0.72450 1.27014 0.32966
 O459 O 0.78154 1.34276 0.25027
 O460 O 0.78057 1.28026 0.32082
 O461 O 0.80302 1.31252 0.28810
 O462 O 0.70844 1.33991 0.24949
 O463 O 0.68609 1.30912 0.28747
 C464 C 0.79817 1.30422 0.31317
 H465 H 0.74566 1.31357 0.21537
 H466 H 0.68848 1.24746 0.28693
 H467 H 0.81418 1.25288 0.28507
 H468 H 0.75378 1.19134 0.21216
 H469 H 0.64220 1.29840 0.24734
 H470 H 0.65155 1.18705 0.25078
 H471 H 0.69595 1.14872 0.24692
 H472 H 0.81090 1.15179 0.25217
 H473 H 0.68642 1.34827 0.24489
 H474 H 0.80361 1.35260 0.24971
 H475 H 0.84769 1.31422 0.25242
 H476 H 0.85681 1.19992 0.25400
 H477 H 0.66696 1.32274 0.28323
 H478 H 0.73338 1.26211 0.34729
 H479 H 0.76533 1.23712 0.15256
 H480 H 0.83233 1.17852 0.21599
 N481 N 0.55838 1.03373 0.02958
 N482 N 0.58123 1.05494 0.03576
 N483 N 0.53535 0.96676 0.04840
 N484 N 0.54220 0.94618 0.06800
 N485 N 0.55835 0.96660 0.02958
 N486 N 0.58146 0.94579 0.03590
 N487 N 0.53523 1.03366 0.04828
 N488 N 0.54168 1.05466 0.06760
 C489 C 0.57016 1.06805 0.05940
 C490 C 0.57072 0.93296 0.05975
 N491 N 0.44164 0.96649 0.02976
 N492 N 0.41893 0.94514 0.03595
 N493 N 0.46467 1.03351 0.04833
 N494 N 0.45773 1.05398 0.06795
 N495 N 0.44163 1.03360 0.02955
 N496 N 0.41843 1.05428 0.03594
 N497 N 0.46481 0.96663 0.04843
 N498 N 0.45851 0.94552 0.06774
 Mn499 Mn 0.50001 1.00014 0.04852
 C500 C 0.43010 0.93202 0.05954
 C501 C 0.42914 1.06710 0.05977
 N502 N 0.55832 0.96642 -0.02967
 N503 N 0.58119 0.94529 -0.03591
 N504 N 0.53525 1.03334 -0.04847
 N505 N 0.54202 1.05402 -0.06801
 N506 N 0.55827 1.03354 -0.02968
 N507 N 0.58130 1.05448 -0.03597
 N508 N 0.53515 0.96646 -0.04834
 N509 N 0.54162 0.94550 -0.06770
 Mn510 Mn 0.55868 1.00007 -0.00005
 C511 C 0.57012 0.93217 -0.05954
 C512 C 0.57050 1.06733 -0.05976
 N513 N 0.44158 1.03356 -0.02972
 N514 N 0.41878 1.05476 -0.03594
 N515 N 0.46456 0.96649 -0.04828
 N516 N 0.45767 0.94582 -0.06777
 N517 N 0.44155 0.96642 -0.02946
 N518 N 0.41842 0.94556 -0.03568
 N519 N 0.46470 1.03340 -0.04844
 N520 N 0.45828 1.05436 -0.06783
 Mn521 Mn 0.44125 1.00002 0.00004
 Mn522 Mn 0.49992 0.99992 -0.04855
 Cl523 Cl 0.49997 1.00004 -0.00001
 C524 C 0.42985 1.06780 -0.05963
 C525 C 0.42913 0.93262 -0.05945
 N526 N 1.03450 0.53483 0.54825
 N527 N 1.05547 0.54197 0.56784
 N528 N 0.96548 0.55681 0.52970
 N529 N 0.94382 0.57909 0.53596
 N530 N 0.96572 0.53437 0.54849
 N531 N 0.94430 0.54075 0.56795
 N532 N 1.03436 0.55716 0.52935
 N533 N 1.05530 0.58006 0.53563
 C534 C 1.06860 0.56995 0.55949
 C535 C 0.93052 0.56845 0.55971
 N536 N 0.96543 0.53431 0.45166
 N537 N 0.94439 0.54112 0.43204
 N538 N 1.03418 0.55700 0.47017
 N539 N 1.05592 0.57929 0.46402
 N540 N 1.03417 0.53450 0.45148
 N541 N 1.05583 0.54082 0.43218
 N542 N 0.96532 0.55669 0.47047
 N543 N 0.94414 0.57932 0.46409
 Mn544 Mn 0.99983 0.55722 0.49992
 C545 C 0.93096 0.56897 0.44027
 C546 C 1.06948 0.56857 0.44042
 N547 N 0.96613 0.46563 0.54853
 N548 N 0.94500 0.45881 0.56811
 N549 N 1.03490 0.44352 0.52962
 N550 N 1.05657 0.42122 0.53580
 N551 N 1.03489 0.46602 0.54833
 N552 N 1.05647 0.45965 0.56766
 N553 N 0.96605 0.44327 0.52970
 N554 N 0.94481 0.42064 0.53601
 Mn555 Mn 1.00032 0.50021 0.54858
 C556 C 0.93158 0.43097 0.55982
 C557 C 1.07010 0.43190 0.55942
 N558 N 1.03436 0.46578 0.45153
 N559 N 1.05532 0.45895 0.43184
 N560 N 0.96571 0.44310 0.47050
 N561 N 0.94428 0.42056 0.46431
 N562 N 0.96559 0.46557 0.45173
 N563 N 0.94414 0.45895 0.43236
 N564 N 1.03460 0.44344 0.47041
 N565 N 1.05579 0.42083 0.46403
 Mn566 Mn 0.99989 0.50004 0.45142
 Mn567 Mn 1.00032 0.44303 0.50007
 Cl568 Cl 1.00009 0.50013 0.50000
 C569 C 1.06883 0.43114 0.44011
 C570 C 0.93073 0.43107 0.44063
 N571 N 1.03496 0.46609 -0.04882
 N572 N 1.05628 0.45960 -0.06829
 N573 N 0.96606 0.44365 -0.03011
 N574 N 0.94441 0.42134 -0.03643
 N575 N 0.96622 0.46620 -0.04881
 N576 N 0.94480 0.45985 -0.06827
 N577 N 1.03500 0.44360 -0.03007
 N578 N 1.05646 0.42117 -0.03635
 C579 C 1.06981 0.43180 -0.06007
 C580 C 0.93107 0.43207 -0.06014
 N581 N 0.96632 0.46610 0.04796
 N582 N 0.94526 0.45945 0.06762
 N583 N 1.03511 0.44346 0.02926
 N584 N 1.05663 0.42106 0.03563
 N585 N 1.03507 0.46600 0.04793
 N586 N 1.05645 0.45957 0.06740
 N587 N 0.96614 0.44362 0.02923
 N588 N 0.94484 0.42107 0.03573
 Mn589 Mn 1.00058 0.44325 -0.00043
 C590 C 0.93171 0.43160 0.05955
 C591 C 1.07003 0.43175 0.05932
 N592 N 0.96651 0.53487 -0.04877
 N593 N 0.94500 0.54126 -0.06811
 N594 N 1.03553 0.55732 -0.03031
 N595 N 1.05683 0.57987 -0.03695
 N596 N 1.03524 0.53483 -0.04903
 N597 N 1.05615 0.54151 -0.06883
 N598 N 0.96652 0.55737 -0.03006
 N599 N 0.94492 0.57971 -0.03625
 Mn600 Mn 1.00073 0.50049 -0.04900
 C601 C 0.93143 0.56901 -0.05987
 C602 C 1.06981 0.56938 -0.06089
 N603 N 1.03521 0.53463 0.04781
 N604 N 1.05650 0.54105 0.06731
 N605 N 0.96648 0.55740 0.02926
 N606 N 0.94494 0.57978 0.03562
 N607 N 0.96648 0.53481 0.04793
 N608 N 0.94507 0.54119 0.06739
 N609 N 1.03543 0.55714 0.02907
 N610 N 1.05697 0.57950 0.03541
 Mn611 Mn 1.00077 0.50039 0.04805
 Mn612 Mn 1.00100 0.55764 -0.00051
 Cl613 Cl 1.00077 0.50045 -0.00047
 C614 C 1.07019 0.56880 0.05914
 C615 C 0.93151 0.56904 0.05932
 N616 N 0.55790 1.03304 0.52995
 N617 N 0.58095 1.05397 0.53626
 N618 N 0.53506 0.96601 0.54875
 N619 N 0.54230 0.94575 0.56849
 N620 N 0.55802 0.96598 0.52988
 N621 N 0.58146 0.94559 0.53632
 N622 N 0.53482 1.03290 0.54871
 N623 N 0.54153 1.05363 0.56821
 C624 C 0.57009 1.06690 0.56001
 C625 C 0.57099 0.93285 0.56026
 N626 N 0.44128 0.96546 0.53020
 N627 N 0.41795 0.94494 0.53688
 N628 N 0.46418 1.03257 0.54879
 N629 N 0.45700 1.05287 0.56850
 N630 N 0.44117 1.03258 0.52999
 N631 N 0.41776 1.05301 0.53643
 N632 N 0.46435 0.96568 0.54896
 N633 N 0.45728 0.94549 0.56883
 Mn634 Mn 0.49961 0.99929 0.54896
 C635 C 0.42858 0.93235 0.56086
 C636 C 0.42830 1.06577 0.56031
 N637 N 0.55805 0.96593 0.47064
 N638 N 0.58120 0.94515 0.46425
 N639 N 0.53493 1.03286 0.45187
 N640 N 0.54225 1.05289 0.43194
 N641 N 0.55793 1.03302 0.47068
 N642 N 0.58145 1.05329 0.46402
 N643 N 0.53493 0.96594 0.45194
 N644 N 0.54170 0.94529 0.43240
 Mn645 Mn 0.55828 0.99949 0.50030
 C646 C 0.57034 0.93218 0.44050
 C647 C 0.57101 1.06583 0.43999
 N648 N 0.44115 1.03267 0.47075
 N649 N 0.41805 1.05353 0.46442
 N650 N 0.46434 0.96584 0.45205
 N651 N 0.45719 0.94564 0.43227
 N652 N 0.44136 0.96560 0.47090
 N653 N 0.41799 0.94514 0.46440
 N654 N 0.46427 1.03272 0.45202
 N655 N 0.45755 1.05349 0.43254
 Mn656 Mn 0.44093 0.99907 0.50045
 Mn657 Mn 0.49961 0.99935 0.45182
 Cl658 Cl 0.49961 0.99930 0.50038
 C659 C 0.42893 1.06660 0.44070
 C660 C 0.42855 0.93256 0.44044
 N661 N 1.05878 1.03298 0.52984
 N662 N 1.08148 1.05431 0.53602
 N663 N 1.03529 0.96615 0.54859
 N664 N 1.04131 0.94522 0.56804
 N665 N 1.05861 0.96587 0.53006
 N666 N 1.08124 0.94456 0.53652
 N667 N 1.03548 1.03296 0.54839
 N668 N 1.04159 1.05415 0.56759
 C669 C 1.07006 1.06754 0.55948
 C670 C 1.06974 0.93164 0.56013
 N671 N 0.94184 0.96612 0.52983
 N672 N 0.91925 0.94465 0.53596
 N673 N 0.96524 1.03309 0.54831
 N674 N 0.95938 1.05446 0.56741
 N675 N 0.94194 1.03320 0.52978
 N676 N 0.91946 1.05477 0.53590
 N677 N 0.96505 0.96627 0.54845
 N678 N 0.95899 0.94501 0.56764
 Mn679 Mn 1.00025 0.99962 0.54858
 C680 C 0.93064 0.93147 0.55945
 C681 C 0.93104 1.06805 0.55930
 N682 N 1.05871 0.96584 0.47073
 N683 N 1.08140 0.94454 0.46449
 N684 N 1.03551 1.03282 0.45205
 N685 N 1.04122 1.05440 0.43305
 N686 N 1.05883 1.03292 0.47057
 N687 N 1.08117 1.05470 0.46455
 N688 N 1.03549 0.96600 0.45213
 N689 N 1.04164 0.94493 0.43284
 Mn690 Mn 1.05916 0.99939 0.50030
 C691 C 1.07005 0.93146 0.44095
 C692 C 1.06950 1.06808 0.44122
 N693 N 0.94200 1.03306 0.47049
 N694 N 0.91925 1.05423 0.46411
 N695 N 0.96527 0.96605 0.45206
 N696 N 0.95942 0.94470 0.43294
 N697 N 0.94191 0.96598 0.47056
 N698 N 0.91938 0.94445 0.46439
 N699 N 0.96527 1.03288 0.45191
 N700 N 0.95906 1.05381 0.43248
 Mn701 Mn 0.94150 0.99959 0.50017
 Mn702 Mn 1.00040 0.99944 0.45188
 Cl703 Cl 1.00033 0.99951 0.50023
 C704 C 0.93059 1.06723 0.44050
 C705 C 0.93100 0.93116 0.44101
 N706 N 0.55809 0.53353 0.02943
 N707 N 0.58068 0.55497 0.03555
 N708 N 0.53478 0.46655 0.04798
 N709 N 0.54052 0.44505 0.06703
 N710 N 0.55811 0.46648 0.02946
 N711 N 0.58051 0.44482 0.03552
 N712 N 0.53486 0.53335 0.04803
 N713 N 0.54090 0.55456 0.06723
 C714 C 0.56926 0.56811 0.05904
 C715 C 0.56884 0.43145 0.05888
 N716 N 0.44139 0.46640 0.02939
 N717 N 0.41892 0.44479 0.03542
 N718 N 0.46470 0.53331 0.04799
 N719 N 0.45916 0.55497 0.06690
 N720 N 0.44137 0.53345 0.02950
 N721 N 0.41916 0.55533 0.03544
 N722 N 0.46463 0.46652 0.04797
 N723 N 0.45873 0.44509 0.06704
 Mn724 Mn 0.49973 0.49993 0.04817
 C725 C 0.43044 0.43148 0.05882
 C726 C 0.43095 0.56873 0.05871
 N727 N 0.55811 0.46665 -0.02976
 N728 N 0.58071 0.44525 -0.03590
 N729 N 0.53468 0.53360 -0.04824
 N730 N 0.54010 0.55551 -0.06701
 N731 N 0.55801 0.53369 -0.02974
 N732 N 0.58010 0.55577 -0.03553
 N733 N 0.53489 0.46681 -0.04836
 N734 N 0.54096 0.44563 -0.06757
 Mn735 Mn 0.55852 0.50008 -0.00016
 C736 C 0.56932 0.43212 -0.05940
 C737 C 0.56824 0.56934 -0.05870
 N738 N 0.44128 0.53353 -0.02973
 N739 N 0.41847 0.55467 -0.03602
 N740 N 0.46474 0.46666 -0.04832
 N741 N 0.45923 0.44499 -0.06723
 N742 N 0.44141 0.46647 -0.02980
 N743 N 0.41922 0.44455 -0.03574
 N744 N 0.46451 0.53346 -0.04834
 N745 N 0.45823 0.55445 -0.06769
 Mn746 Mn 0.44092 0.49996 -0.00016
 Mn747 Mn 0.49972 0.50014 -0.04849
 Cl748 Cl 0.49972 0.50003 -0.00016
 C749 C 0.42975 0.56778 -0.05959
 C750 C 0.43103 0.43117 -0.05901
 C751 C 0.35388 1.14424 0.13036
 N752 N 0.36083 1.14270 0.15748
 N753 N 0.34315 1.15895 0.17555
 C754 C 0.31791 1.17760 0.16725
 N755 N 0.31090 1.17933 0.14006
 N756 N 0.32849 1.16275 0.12192
 C757 C 0.37382 1.12580 0.11101
 N758 N 0.36388 1.12044 0.08484
 N759 N 0.38170 1.10216 0.06814
 C760 C 0.41016 1.08892 0.07701
 N761 N 0.42020 1.09466 0.10300
 N762 N 0.40233 1.11266 0.11968
 C763 C 0.84738 0.63945 0.62921
 N764 N 0.84409 0.62950 0.65551
 N765 N 0.82772 0.64695 0.67365
 C766 C 0.81375 0.67500 0.66623
 N767 N 0.81668 0.68491 0.63981
 N768 N 0.83331 0.66747 0.62163
 C769 C 0.86716 0.62049 0.60998
 N770 N 0.87541 0.63180 0.58479
 N771 N 0.89509 0.61503 0.56839
 C772 C 0.90708 0.58634 0.57657
 N773 N 0.89851 0.57497 0.60158
 N774 N 0.87898 0.59172 0.61796
 C775 C 0.64564 0.85514 0.13006
 N776 N 0.67114 0.83678 0.12160
 N777 N 0.68875 0.82017 0.13971
 C778 C 0.68165 0.82171 0.16689
 N779 N 0.65630 0.84018 0.17521
 N780 N 0.63860 0.85647 0.15717
 C781 C 0.62575 0.87371 0.11076
 N782 N 0.59725 0.88683 0.11947
 N783 N 0.57947 0.90501 0.10286
 C784 C 0.58958 0.91095 0.07690
 N785 N 0.61803 0.89771 0.06800
 N786 N 0.63577 0.87926 0.08463
 C787 C 1.15310 0.36052 0.62874
 N788 N 1.15646 0.37045 0.65502
 N789 N 1.17272 0.35289 0.67317
 C790 C 1.18648 0.32475 0.66578
 N791 N 1.18348 0.31486 0.63938
 N792 N 1.16697 0.33240 0.62119
 C793 C 1.13343 0.37960 0.60952
 N794 N 1.12498 0.36830 0.58440
 N795 N 1.10533 0.38517 0.56804
 C796 C 1.09357 0.41394 0.57620
 N797 N 1.10235 0.42531 0.60113
 N798 N 1.12184 0.40846 0.61747
 C799 C 0.64537 1.14529 -0.13006
 N800 N 0.67093 1.16361 -0.12163
 N801 N 0.68861 1.18014 -0.13978
 C802 C 0.68150 1.17855 -0.16696
 N803 N 0.65608 1.16011 -0.17523
 N804 N 0.63832 1.14391 -0.15715
 C805 C 0.62545 1.12677 -0.11072
 N806 N 0.59691 1.11369 -0.11941
 N807 N 0.57913 1.09546 -0.10279
 C808 C 0.58929 1.08946 -0.07687
 N809 N 0.61777 1.10267 -0.06800
 N810 N 0.63551 1.12116 -0.08463
 C811 C 1.15291 0.63950 0.37112
 N812 N 1.15625 0.62950 0.34486
 N813 N 1.17252 0.64701 0.32666
 C814 C 1.18631 0.67517 0.33399
 N815 N 1.18334 0.68513 0.36037
 N816 N 1.16682 0.66764 0.37861
 C817 C 1.13318 0.62053 0.39036
 N818 N 1.12466 0.63196 0.41542
 N819 N 1.10488 0.61519 0.43179
 C820 C 1.09308 0.58641 0.42368
 N821 N 1.10195 0.57490 0.39882
 N822 N 1.12157 0.59165 0.38247
 C823 C 0.35404 0.85451 -0.12945
 N824 N 0.32833 0.83635 -0.12102
 N825 N 0.31061 0.81987 -0.13915
 C826 C 0.31783 0.82136 -0.16632
 N827 N 0.34342 0.83962 -0.17459
 N828 N 0.36121 0.85577 -0.15653
 C829 C 0.37400 0.87306 -0.11016
 N830 N 0.40261 0.88602 -0.11889
 N831 N 0.42042 0.90429 -0.10236
 C832 C 0.41024 0.91048 -0.07648
 N833 N 0.38169 0.89739 -0.06756
 N834 N 0.36392 0.87886 -0.08410
 C835 C 0.84818 0.35932 0.37116
 N836 N 0.83417 0.33122 0.37871
 N837 N 0.81760 0.31375 0.36050
 C838 C 0.81467 0.32370 0.33410
 N839 N 0.82859 0.35181 0.32671
 N840 N 0.84489 0.36929 0.34488
 C841 C 0.86781 0.37841 0.39041
 N842 N 0.87932 0.40733 0.38246
 N843 N 0.89869 0.42426 0.39884
 C844 C 0.90744 0.41292 0.42380
 N845 N 0.89578 0.38407 0.43196
 N846 N 0.87623 0.36712 0.41556
 C847 C 1.15312 0.36132 0.12947
 N848 N 1.16883 0.33424 0.12166
 N849 N 1.18560 0.31698 0.13989
 C850 C 1.18704 0.32610 0.16659
 N851 N 1.17143 0.35320 0.17426
 N852 N 1.15493 0.37051 0.15606
 C853 C 1.13329 0.38009 0.11010
 N854 N 1.12077 0.40855 0.11810
 N855 N 1.10128 0.42514 0.10156
 C856 C 1.09336 0.41390 0.07637
 N857 N 1.10601 0.38550 0.06818
 N858 N 1.12571 0.36891 0.08474
 C859 C 0.64808 0.85767 0.63099
 N860 N 0.67413 0.84003 0.62257
 N861 N 0.69196 0.82364 0.64068
 C862 C 0.68451 0.82469 0.66782
 N863 N 0.65864 0.84251 0.67609
 N864 N 0.64076 0.85860 0.65806
 C865 C 0.62773 0.87567 0.61165
 N866 N 0.59891 0.88815 0.62033
 N867 N 0.58057 0.90566 0.60360
 C868 C 0.59041 0.91149 0.57756
 N869 N 0.61918 0.89889 0.56870
 N870 N 0.63748 0.88113 0.58544
 C871 C 1.15137 0.64080 -0.13201
 N872 N 1.17126 0.66491 -0.12360
 N873 N 1.18819 0.68213 -0.14182
 C874 C 1.18558 0.67612 -0.16915
 N875 N 1.16569 0.65194 -0.17736
 N876 N 1.14912 0.63460 -0.15920
 C877 C 1.13181 0.62178 -0.11251
 N878 N 1.12658 0.63159 -0.08631
 N879 N 1.10720 0.61482 -0.06956
 C880 C 1.09260 0.58754 -0.07836
 N881 N 1.09819 0.57766 -0.10439
 N882 N 1.11727 0.59448 -0.12114
 C883 C 0.64786 1.14129 0.36886
 N884 N 0.67401 1.15885 0.37725
 N885 N 0.69173 1.17543 0.35916
 C886 C 0.68409 1.17471 0.33205
 N887 N 0.65812 1.15698 0.32380
 N888 N 0.64033 1.14068 0.34183
 C889 C 0.62763 1.12304 0.38824
 N890 N 0.59884 1.11037 0.37965
 N891 N 0.58058 1.09281 0.39646
 C892 C 0.59046 1.08710 0.42250
 N893 N 0.61921 1.09985 0.43127
 N894 N 0.63743 1.11766 0.41445
 C895 C 0.84792 0.63907 0.12936
 N896 N 0.84611 0.62986 0.15597
 N897 N 0.82943 0.64705 0.17412
 C898 C 0.81362 0.67403 0.16640
 N899 N 0.81506 0.68316 0.13969
 N900 N 0.83201 0.66604 0.12150
 C901 C 0.86793 0.62042 0.11002
 N902 N 0.87551 0.63165 0.08465
 N903 N 0.89532 0.61517 0.06812
 C904 C 0.90809 0.58682 0.07636
 N905 N 0.90018 0.57552 0.10155
 N906 N 0.88057 0.59201 0.11806
 C907 C 0.35178 1.14163 0.63092
 N908 N 0.35927 1.14091 0.65796
 N909 N 0.34151 1.15716 0.67597
 C910 C 0.31562 1.17495 0.66769
 N911 N 0.30801 1.17579 0.64059
 N912 N 0.32570 1.15923 0.62251
 C913 C 0.37197 1.12341 0.61161
 N914 N 0.36207 1.11783 0.58547
 N915 N 0.38023 1.09990 0.56876
 C916 C 0.40899 1.08725 0.57758
 N917 N 0.41897 1.09320 0.60355
 N918 N 0.40078 1.11087 0.62025
 C919 C 0.84754 0.36171 -0.12998
 N920 N 0.83163 0.33476 -0.12201
 N921 N 0.81475 0.31748 -0.14014
 C922 C 0.81340 0.32643 -0.16690
 N923 N 0.82921 0.35341 -0.17473
 N924 N 0.84582 0.37075 -0.15663
 C925 C 0.86749 0.38050 -0.11071
 N926 N 0.88022 0.40885 -0.11885
 N927 N 0.89981 0.42543 -0.10238
 C928 C 0.90762 0.41427 -0.07714
 N929 N 0.89477 0.38597 -0.06880
 N930 N 0.87497 0.36940 -0.08528
 C931 C 0.35195 0.85753 0.36928
 N932 N 0.32579 0.83990 0.37757
 N933 N 0.30808 0.82354 0.35938
 C934 C 0.31576 0.82458 0.33229
 N935 N 0.34172 0.84238 0.32413
 N936 N 0.35950 0.85846 0.34225
 C937 C 0.37216 0.87550 0.38872
 N938 N 0.40103 0.88807 0.38019
 N939 N 0.41924 0.90554 0.39703
 C940 C 0.40924 0.91124 0.42304
 N941 N 0.38042 0.89855 0.43175
 N942 N 0.36223 0.88083 0.41490
 C943 C 1.13783 1.15159 0.37111
 N944 N 1.16610 1.16642 0.37833
 N945 N 1.18316 1.18298 0.35984
 C946 C 1.17264 1.18504 0.33349
 N947 N 1.14433 1.17031 0.32638
 N948 N 1.12721 1.15400 0.34486
 C949 C 1.11949 1.13190 0.39066
 N950 N 1.08998 1.11984 0.38331
 N951 N 1.07389 1.10019 0.39991
 C952 C 1.08671 1.09172 0.42447
 N953 N 1.11613 1.10397 0.43207
 N954 N 1.13224 1.12382 0.41543
 C955 C 0.63647 0.65287 -0.12854
 N956 N 0.66512 0.66707 -0.12147
 N957 N 0.68244 0.68318 -0.14007
 C958 C 0.67180 0.68535 -0.16638
 N959 N 0.64310 0.67127 -0.17334
 N960 N 0.62572 0.65542 -0.15474
 C961 C 0.61800 0.63347 -0.10894
 N962 N 0.58831 0.62177 -0.11617
 N963 N 0.57222 0.60208 -0.09961
 C964 C 0.58525 0.59324 -0.07523
 N965 N 0.61483 0.60519 -0.06772
 N966 N 0.63093 0.62506 -0.08432
 C967 C 0.86206 1.15074 0.62960
 N968 N 0.87246 1.15299 0.65592
 N969 N 0.85531 1.16935 0.67431
 C970 C 0.82719 1.18431 0.66704
 N971 N 0.81688 1.18238 0.64062
 N972 N 0.83396 1.16577 0.62222
 C973 C 0.88051 1.13113 0.61008
 N974 N 0.86800 1.12333 0.58516
 N975 N 0.88426 1.10370 0.56848
 C976 C 0.91362 1.09139 0.57617
 N977 N 0.92619 1.09956 0.60089
 N978 N 0.90994 1.11899 0.61754
 C979 C 0.36282 0.65185 0.12888
 N980 N 0.37356 0.65427 0.15509
 N981 N 0.35636 0.67031 0.17365
 C982 C 0.32785 0.68471 0.16666
 N983 N 0.31722 0.68264 0.14034
 N984 N 0.33435 0.66637 0.12178
 C985 C 0.38117 0.63240 0.10926
 N986 N 0.36828 0.62424 0.08457
 N987 N 0.38436 0.60448 0.06790
 C988 C 0.41387 0.59240 0.07540
 N989 N 0.42684 0.60097 0.09986
 N990 N 0.41079 0.62054 0.11650
 C991 C 1.13929 0.85073 0.63171
 N992 N 1.16494 0.83233 0.62378
 N993 N 1.18191 0.81565 0.64223
 C994 C 1.17406 0.81704 0.66932
 N995 N 1.14833 0.83545 0.67708
 N996 N 1.13123 0.85182 0.65865
 C997 C 1.12073 0.87000 0.61199
 N998 N 1.09220 0.88367 0.61992
 N999 N 1.07580 0.90265 0.60297
 C1000 C 1.08738 0.90890 0.57749
 N1001 N 1.11587 0.89512 0.56936
 N1002 N 1.13223 0.87587 0.58633
 C1003 C 0.63777 0.34900 0.12928
 N1004 N 0.66612 0.33433 0.12204
 N1005 N 0.68330 0.31797 0.14053
 C1006 C 0.67284 0.31595 0.16692
 N1007 N 0.64447 0.33052 0.17405
 N1008 N 0.62722 0.34665 0.15556
 C1009 C 0.61928 0.36840 0.10968
 N1010 N 0.58970 0.38028 0.11703
 N1011 N 0.57344 0.39967 0.10034
 C1012 C 0.58618 0.40804 0.07571
 N1013 N 0.61566 0.39596 0.06812
 N1014 N 0.63193 0.37638 0.08483
 C1015 C 0.86202 0.84877 0.37046
 N1016 N 0.83387 0.83373 0.37777
 N1017 N 0.81679 0.81720 0.35931
 C1018 C 0.82716 0.81537 0.33289
 N1019 N 0.85533 0.83034 0.32569
 N1020 N 0.87248 0.84662 0.34414
 C1021 C 0.88046 0.86828 0.39005
 N1022 N 0.90997 0.88037 0.38267
 N1023 N 0.92622 0.89973 0.39938
 C1024 C 0.91357 0.90787 0.42408
 N1025 N 0.88414 0.89561 0.43169
 N1026 N 0.86788 0.87605 0.41496
 C1027 C 0.36293 0.34796 -0.12914
 N1028 N 0.33443 0.33345 -0.12202
 N1029 N 0.31728 0.31718 -0.14058
 C1030 C 0.32793 0.31511 -0.16690
 N1031 N 0.35646 0.32950 -0.17391
 N1032 N 0.37368 0.34553 -0.15535
 C1033 C 0.38128 0.36742 -0.10953
 N1034 N 0.41090 0.37932 -0.11678
 N1035 N 0.42696 0.39892 -0.10015
 C1036 C 0.41397 0.40747 -0.07568
 N1037 N 0.38445 0.39535 -0.06817
 N1038 N 0.36838 0.37556 -0.08483
 C1039 C 1.14987 0.35943 -0.13056
 N1040 N 1.16643 0.33295 -0.12248
 N1041 N 1.18288 0.31547 -0.14071
 C1042 C 1.18301 0.32373 -0.16764
 N1043 N 1.16642 0.35016 -0.17560
 N1044 N 1.15026 0.36770 -0.15741
 C1045 C 1.13096 0.37874 -0.11114
 N1046 N 1.11852 0.40714 -0.11938
 N1047 N 1.09978 0.42428 -0.10270
 C1048 C 1.09261 0.41364 -0.07717
 N1049 N 1.10521 0.38532 -0.06872
 N1050 N 1.12419 0.36818 -0.08541
 C1051 C 0.64368 0.85251 0.37025
 N1052 N 0.67123 0.83679 0.37815
 N1053 N 0.68879 0.82025 0.35996
 C1054 C 0.67953 0.81910 0.33322
 N1055 N 0.65203 0.83482 0.32546
 N1056 N 0.63442 0.85108 0.34360
 C1057 C 0.62425 0.87160 0.38961
 N1058 N 0.59503 0.88374 0.38149
 N1059 N 0.57770 0.90239 0.39806
 C1060 C 0.58895 0.90980 0.42340
 N1061 N 0.61811 0.89754 0.43172
 N1062 N 0.63543 0.87868 0.41512
 C1063 C 0.85039 0.64073 -0.13006
 N1064 N 0.84973 0.63225 -0.15685
 N1065 N 0.83344 0.64968 -0.17504
 C1066 C 0.81698 0.67620 -0.16717
 N1067 N 0.81736 0.68467 -0.14030
 N1068 N 0.83395 0.66730 -0.12206
 C1069 C 0.86951 0.62159 -0.11066
 N1070 N 0.87659 0.63234 -0.08508
 N1071 N 0.89581 0.61536 -0.06846
 C1072 C 0.90837 0.58702 -0.07684
 N1073 N 0.90090 0.57617 -0.10222
 N1074 N 0.88191 0.59316 -0.11883
 C1075 C 0.35588 1.14679 0.37061
 N1076 N 0.32839 1.16259 0.37852
 N1077 N 0.31090 1.17923 0.36033
 C1078 C 0.32019 1.18040 0.33359
 N1079 N 0.34763 1.16461 0.32583
 N1080 N 0.36517 1.14824 0.34396
 C1081 C 0.37524 1.12758 0.38994
 N1082 N 0.40444 1.11542 0.38181
 N1083 N 0.42169 1.09664 0.39834
 C1084 C 0.41039 1.08912 0.42366
 N1085 N 0.38125 1.10140 0.43199
 N1086 N 0.36399 1.12039 0.41544
 C1087 C 1.14994 0.64089 0.13006
 N1088 N 1.16664 0.66736 0.12209
 N1089 N 1.18304 0.68476 0.14041
 C1090 C 1.18296 0.67643 0.16733
 N1091 N 1.16622 0.65002 0.17518
 N1092 N 1.15012 0.63256 0.15690
 C1093 C 1.13113 0.62166 0.11052
 N1094 N 1.11859 0.59324 0.11865
 N1095 N 1.09993 0.57616 0.10185
 C1096 C 1.09295 0.58689 0.07632
 N1097 N 1.10566 0.61523 0.06799
 N1098 N 1.12455 0.63230 0.08480
 C1099 C 0.64346 1.14699 0.62991
 N1100 N 0.67100 1.16271 0.62191
 N1101 N 0.68862 1.17932 0.64002
 C1102 C 0.67943 1.18052 0.66678
 N1103 N 0.65193 1.16480 0.67464
 N1104 N 0.63427 1.14848 0.65657
 C1105 C 0.62399 1.12781 0.61065
 N1106 N 0.59482 1.11559 0.61888
 N1107 N 0.57748 1.09683 0.60239
 C1108 C 0.58866 1.08942 0.57702
 N1109 N 0.61776 1.10176 0.56860
 N1110 N 0.63510 1.12072 0.58511
 C1111 C 0.85183 0.35896 0.13044
 N1112 N 0.83482 0.33276 0.12230
 N1113 N 0.81815 0.31536 0.14050
 C1114 C 0.81821 0.32341 0.16748
 N1115 N 0.83526 0.34954 0.17549
 N1116 N 0.85165 0.36701 0.15733
 C1117 C 0.87088 0.37827 0.11099
 N1118 N 0.88367 0.40652 0.11926
 N1119 N 0.90234 0.42371 0.10250
 C1120 C 0.90911 0.41328 0.07684
 N1121 N 0.89618 0.38510 0.06838
 N1122 N 0.87727 0.36792 0.08516
 C1123 C 0.35395 0.85431 0.63204
 N1124 N 0.32901 0.83516 0.62364
 N1125 N 0.31150 0.81848 0.64184
 C1126 C 0.31807 0.82059 0.66913
 N1127 N 0.34296 0.83988 0.67733
 N1128 N 0.36057 0.85624 0.65920
 C1129 C 0.37369 0.87314 0.61257
 N1130 N 0.40190 0.88694 0.62124
 N1131 N 0.41954 0.90516 0.60447
 C1132 C 0.40959 0.91053 0.57837
 N1133 N 0.38140 0.89667 0.56953
 N1134 N 0.36381 0.87817 0.58632
 C1135 C 0.35826 1.14948 -0.12947
 N1136 N 0.33162 1.16648 -0.12137
 N1137 N 0.31428 1.18327 -0.13955
 C1138 C 0.32283 1.18336 -0.16648
 N1139 N 0.34944 1.16639 -0.17444
 N1140 N 0.36686 1.14991 -0.15630
 C1141 C 0.37733 1.12998 -0.11016
 N1142 N 0.40610 1.11705 -0.11845
 N1143 N 0.42299 1.09789 -0.10198
 C1144 C 0.41172 1.09072 -0.07658
 N1145 N 0.38300 1.10378 -0.06808
 N1146 N 0.36613 1.12317 -0.08457
 C1147 C 0.85324 0.64363 0.36965
 N1148 N 0.85225 0.63515 0.34288
 N1149 N 0.83640 0.65300 0.32472
 C1150 C 0.82077 0.68000 0.33259
 N1151 N 0.82156 0.68854 0.35944
 N1152 N 0.83769 0.67072 0.37765
 C1153 C 0.87159 0.62377 0.38906
 N1154 N 0.87839 0.63397 0.41485
 N1155 N 0.89675 0.61624 0.43157
 C1156 C 0.90869 0.58767 0.42310
 N1157 N 0.90150 0.57738 0.39749
 N1158 N 0.88334 0.59512 0.38079
 C1159 C 0.64167 1.14995 0.12913
 N1160 N 0.66844 1.16684 0.12107
 N1161 N 0.68575 1.18365 0.13925
 C1162 C 0.67703 1.18388 0.16615
 N1163 N 0.65028 1.16703 0.17406
 N1164 N 0.63289 1.15053 0.15592
 C1165 C 0.62263 1.13039 0.10983
 N1166 N 0.59378 1.11752 0.11808
 N1167 N 0.57692 1.09831 0.10163
 C1168 C 0.58829 1.09102 0.07631
 N1169 N 0.61709 1.10401 0.06785
 N1170 N 0.63394 1.12345 0.08431
 C1171 C 1.14599 0.64566 0.62963
 N1172 N 1.16143 0.67284 0.62156
 N1173 N 1.17752 0.69077 0.63973
 C1174 C 1.17837 0.68224 0.66660
 N1175 N 1.16284 0.65516 0.67451
 N1176 N 1.14705 0.63722 0.65641
 C1177 C 1.12771 0.62558 0.61031
 N1178 N 1.11621 0.59685 0.61875
 N1179 N 1.09813 0.57888 0.60218
 C1180 C 1.09075 0.58897 0.57655
 N1181 N 1.10243 0.61762 0.56791
 N1182 N 1.12071 0.63560 0.58449
 C1183 C 0.64194 0.85070 -0.12936
 N1184 N 0.66854 0.83366 -0.12123
 N1185 N 0.68589 0.81685 -0.13939
 C1186 C 0.67738 0.81678 -0.16632
 N1187 N 0.65081 0.83381 -0.17430
 N1188 N 0.63338 0.85030 -0.15619
 C1189 C 0.62282 0.87017 -0.11006
 N1190 N 0.59403 0.88307 -0.11835
 N1191 N 0.57709 0.90217 -0.10188
 C1192 C 0.58832 0.90932 -0.07649
 N1193 N 0.61706 0.89631 -0.06799
 N1194 N 0.63399 0.87697 -0.08448
 C1195 C 1.14699 0.35663 0.36971
 N1196 N 1.16251 0.32953 0.37779
 N1197 N 1.17872 0.31172 0.35964
 C1198 C 1.17965 0.32027 0.33278
 N1199 N 1.16407 0.34728 0.32484
 N1200 N 1.14813 0.36513 0.34294
 C1201 C 1.12849 0.37645 0.38905
 N1202 N 1.11661 0.40504 0.38068
 N1203 N 1.09834 0.42273 0.39732
 C1204 C 1.09116 0.41247 0.42296
 N1205 N 1.10321 0.38397 0.43153
 N1206 N 1.12168 0.36628 0.41487
 C1207 C 0.35872 0.85008 0.12932
 N1208 N 0.33198 0.83319 0.12126
 N1209 N 0.31459 0.81646 0.13947
 C1210 C 0.32320 0.81633 0.16638
 N1211 N 0.34993 0.83318 0.17429
 N1212 N 0.36739 0.84960 0.15612
 C1213 C 0.37779 0.86956 0.10999
 N1214 N 0.40663 0.88243 0.11822
 N1215 N 0.42348 0.90166 0.10175
 C1216 C 0.41209 0.90896 0.07643
 N1217 N 0.38331 0.89596 0.06799
 N1218 N 0.36648 0.87649 0.08448
 C1219 C 0.85328 0.35629 0.63005
 N1220 N 0.83784 0.32914 0.62202
 N1221 N 0.82167 0.31126 0.64021
 C1222 C 0.82075 0.31983 0.66705
 N1223 N 0.83627 0.34690 0.67493
 N1224 N 0.85214 0.36480 0.65680
 C1225 C 0.87172 0.37618 0.61070
 N1226 N 0.88343 0.40484 0.61904
 N1227 N 0.90174 0.42258 0.60244
 C1228 C 0.90914 0.41229 0.57687
 N1229 N 0.89724 0.38372 0.56833
 N1230 N 0.87872 0.36598 0.58495
 C1231 C 1.14069 1.14859 0.62995
 N1232 N 1.13098 1.14993 0.65649
 N1233 N 1.14818 1.16633 0.67481
 C1234 C 1.17567 1.18222 0.66725
 N1235 N 1.18535 1.18114 0.64062
 N1236 N 1.16822 1.16448 0.62229
 C1237 C 1.12188 1.12935 0.61044
 N1238 N 1.13385 1.12207 0.58522
 N1239 N 1.11716 1.10284 0.56850
 C1240 C 1.08790 1.09046 0.57644
 N1241 N 1.07586 1.09811 0.60146
 N1242 N 1.09255 1.11713 0.61816
 C1243 C 0.64025 0.64859 0.12956
 N1244 N 0.66770 0.66459 0.12188
 N1245 N 0.68501 0.68098 0.14028
 C1246 C 0.67559 0.68162 0.16698
 N1247 N 0.64819 0.66562 0.17456
 N1248 N 0.63081 0.64950 0.15619
 C1249 C 0.62127 0.62964 0.11001
 N1250 N 0.59197 0.61741 0.11778
 N1251 N 0.57517 0.59853 0.10107
 C1252 C 0.58708 0.59102 0.07598
 N1253 N 0.61630 0.60343 0.06797
 N1254 N 0.63310 0.62253 0.08471
 C1255 C 1.14084 0.85100 0.37011
 N1256 N 1.13122 0.84986 0.34354
 N1257 N 1.14843 0.83355 0.32517
 C1258 C 1.17584 0.81757 0.33269
 N1259 N 1.18544 0.81845 0.35933
 N1260 N 1.16830 0.83502 0.37773
 C1261 C 1.12200 0.87010 0.38970
 N1262 N 1.13387 0.87716 0.41499
 N1263 N 1.11714 0.89625 0.43180
 C1264 C 1.08792 0.90868 0.42388
 N1265 N 1.07598 0.90123 0.39879
 N1266 N 1.09271 0.88237 0.38200
 C1267 C 0.64027 0.35169 -0.12998
 N1268 N 0.63084 0.35075 -0.15659
 N1269 N 0.64820 0.33460 -0.17495
 C1270 C 0.67555 0.31857 -0.16737
 N1271 N 0.68496 0.31925 -0.14067
 N1272 N 0.66767 0.33568 -0.12229
 C1273 C 0.62131 0.37067 -0.11042
 N1274 N 0.63312 0.37775 -0.08512
 N1275 N 0.61633 0.39684 -0.06836
 C1276 C 0.58715 0.40925 -0.07636
 N1277 N 0.57525 0.40176 -0.10145
 N1278 N 0.59204 0.38290 -0.11819
 C1279 C 0.85944 1.14745 0.36957
 N1280 N 0.83214 1.16359 0.37733
 N1281 N 0.81496 1.18026 0.35901
 C1282 C 0.82436 1.18110 0.33230
 N1283 N 0.85161 1.16494 0.32465
 N1284 N 0.86886 1.14853 0.34294
 C1285 C 0.87836 1.12831 0.38911
 N1286 N 0.90754 1.11590 0.38130
 N1287 N 0.92437 1.09710 0.39810
 C1288 C 0.91261 1.08987 0.42333
 N1289 N 0.88349 1.10242 0.43134
 N1290 N 0.86667 1.12143 0.41452
 C1291 C 0.35813 0.64758 -0.13043
 N1292 N 0.33085 0.66374 -0.12264
 N1293 N 0.31360 0.68034 -0.14095
 C1294 C 0.32290 0.68105 -0.16769
 N1295 N 0.35010 0.66486 -0.17538
 N1296 N 0.36743 0.64853 -0.15709
 C1297 C 0.37717 0.62860 -0.11090
 N1298 N 0.40641 0.61633 -0.11874
 N1299 N 0.42335 0.59764 -0.10195
 C1300 C 0.41167 0.59036 -0.07671
 N1301 N 0.38250 0.60278 -0.06866
 N1302 N 0.36556 0.62170 -0.08547
 C1303 C 0.85994 0.85039 0.62992
 N1304 N 0.83231 0.83466 0.62231
 N1305 N 0.81505 0.81815 0.64071
 C1306 C 0.82470 0.81710 0.66733
 N1307 N 0.85229 0.83283 0.67483
 N1308 N 0.86962 0.84907 0.65646
 C1309 C 0.87882 0.86954 0.61037
 N1310 N 0.90816 0.88170 0.61808
 N1311 N 0.92488 0.90073 0.60138
 C1312 C 0.91285 0.90845 0.57637
 N1313 N 0.88360 0.89611 0.56843
 N1314 N 0.86688 0.87686 0.58515
 C1315 C 0.35999 0.35043 0.12933
 N1316 N 0.33236 0.33467 0.12180
 N1317 N 0.31508 0.31833 0.14030
 C1318 C 0.32471 0.31753 0.16693
 N1319 N 0.35229 0.33330 0.17435
 N1320 N 0.36965 0.34935 0.15588
 C1321 C 0.37886 0.36942 0.10971
 N1322 N 0.40827 0.38150 0.11733
 N1323 N 0.42493 0.40053 0.10061
 C1324 C 0.41279 0.40834 0.07567
 N1325 N 0.38348 0.39607 0.06780
 N1326 N 0.36681 0.37681 0.08454
   
