data_POSCAR
  _audit_creation_date              2014-09-24
  _audit_creation_method            'ToBaCCo'
  _symmetry_space_group_name_H-M    'P1'
  _symmetry_Int_Tables_number       1
  _symmetry_cell_setting            triclinic
  loop_
  _symmetry_equiv_pos_as_xyz
 x,y,z
_cell_length_a 42.0632
_cell_length_b 42.0684
_cell_length_c 42.0734
_cell_angle_alpha 90.410400
_cell_angle_beta 90.225700
_cell_angle_gamma 89.336900
loop_
  _atom_site_label
  _atom_site_type_symbol
  _atom_site_fract_x
  _atom_site_fract_y
  _atom_site_fract_z
C1 C 0.09983 -0.00139 0.22030
 C2 C 0.12173 0.02690 0.22498
 C3 C 0.14089 0.02480 0.25105
 C4 C 0.13674 -0.00622 0.26998
 C5 C 0.12178 -0.03060 0.21969
 C6 C 0.14104 -0.03359 0.24552
 C7 C 0.08179 -0.00382 0.25166
 C8 C 0.10096 -0.00645 0.27783
 H9 H 0.12167 0.04706 0.20910
 H10 H 0.15239 -0.00777 0.29120
 H11 H 0.12079 -0.04843 0.20099
 H12 H 0.05617 -0.00167 0.25282
 C13 C 0.40389 -0.00235 0.73412
 C14 C 0.37909 -0.02854 0.73608
 C15 C 0.35919 -0.02572 0.76147
 C16 C 0.36600 0.00384 0.78250
 C17 C 0.38474 0.02874 0.73421
 C18 C 0.36504 0.03252 0.75959
 C19 C 0.42023 -0.00282 0.76462
 C20 C 0.39949 0.00083 0.79152
 H21 H 0.37962 -0.04922 0.72059
 H22 H 0.34951 0.00653 0.80295
 H23 H 0.38708 0.04637 0.71575
 H24 H 0.44562 -0.00676 0.76649
 C25 C 0.89524 0.49675 0.21256
 C26 C 0.87141 0.47049 0.21799
 C27 C 0.85270 0.47494 0.24390
 C28 C 0.85932 0.50606 0.26209
 C29 C 0.87547 0.52726 0.21120
 C30 C 0.85693 0.53263 0.23715
 C31 C 0.91394 0.49904 0.24379
 C32 C 0.89514 0.50404 0.26993
 H33 H 0.87023 0.44949 0.20297
 H34 H 0.84387 0.50994 0.28316
 H35 H 0.87638 0.54315 0.19110
 H36 H 0.93943 0.49561 0.24485
 C37 C 0.62127 0.49487 0.71468
 C38 C 0.63699 0.52676 0.72140
 C39 C 0.65312 0.52799 0.74944
 C40 C 0.65195 0.49703 0.76847
 C41 C 0.64845 0.47050 0.71710
 C42 C 0.66431 0.47143 0.74526
 C43 C 0.60028 0.48874 0.74383
 C44 C 0.61639 0.48990 0.77214
 H45 H 0.63476 0.54685 0.70556
 H46 H 0.66535 0.49804 0.79126
 H47 H 0.65373 0.45304 0.69875
 H48 H 0.57504 0.48462 0.74179
 C49 C 0.22214 0.10283 0.99880
 C50 C 0.22203 0.12315 1.02896
 C51 C 0.24752 0.14270 1.03167
 C52 C 0.27069 0.14045 1.00336
 C53 C 0.22439 0.12670 0.97190
 C54 C 0.24998 0.14613 0.97360
 C55 C 0.25409 0.08531 0.99899
 C56 C 0.27968 0.10468 1.00159
 H57 H 0.20314 0.12230 1.04634
 H58 H 0.29091 0.15700 1.00540
 H59 H 0.20640 0.12847 0.95351
 H60 H 0.25614 0.05962 0.99798
 C61 C 0.72405 0.39176 1.00706
 C62 C 0.72748 0.36690 0.98310
 C63 C 0.75596 0.34822 0.98610
 C64 C 0.77521 0.35732 1.01386
 C65 C 0.72594 0.37574 1.03746
 C66 C 0.75380 0.35652 1.04162
 C67 C 0.75333 0.41020 1.00539
 C68 C 0.78189 0.39115 1.00932
 H69 H 0.71257 0.36614 0.96202
 H70 H 0.79700 0.34241 1.01652
 H71 H 0.70848 0.37921 1.05613
 H72 H 0.75338 0.43545 1.00069
 C73 C 0.21397 0.89774 0.50189
 C74 C 0.21909 0.87585 0.47327
 C75 C 0.24549 0.85694 0.47523
 C76 C 0.26461 0.86170 0.50629
 C77 C 0.21412 0.87586 0.53063
 C78 C 0.24032 0.85699 0.53335
 C79 C 0.24499 0.91643 0.50475
 C80 C 0.27174 0.89760 0.50707
 H81 H 0.20448 0.87745 0.45206
 H82 H 0.28610 0.84622 0.50783
 H83 H 0.19517 0.87605 0.54803
 H84 H 0.24536 0.94207 0.50351
 C85 C 0.72496 0.61951 0.49401
 C86 C 0.72588 0.63964 0.52428
 C87 C 0.75319 0.65621 0.52820
 C88 C 0.77739 0.65108 0.50136
 C89 C 0.73150 0.64286 0.46721
 C90 C 0.75898 0.65935 0.47103
 C91 C 0.75485 0.59834 0.49548
 C92 C 0.78242 0.61467 0.49894
 H93 H 0.70701 0.63950 0.54172
 H94 H 0.79924 0.66521 0.50474
 H95 H 0.71625 0.64543 0.44655
 H96 H 0.75429 0.57277 0.49229
 C97 C 0.00683 0.20996 0.09531
 C98 C 0.03636 0.21579 0.11546
 C99 C 0.03575 0.24371 0.13181
 C100 C 0.00457 0.26291 0.12749
 C101 C -0.02080 0.21210 0.11858
 C102 C -0.02271 0.24004 0.13491
 C103 C 0.00319 0.23951 0.07437
 C104 C 0.00186 0.26739 0.09127
 H105 H 0.05660 0.19963 0.11577
 H106 H 0.00366 0.28544 0.14142
 H107 H -0.03878 0.19394 0.12011
 H108 H 0.00197 0.23798 0.04873
 C109 C -0.01415 0.72895 0.39763
 C110 C -0.03727 0.73119 0.37215
 C111 C -0.03272 0.75770 0.35168
 C112 C -0.00507 0.77671 0.36007
 C113 C 0.01819 0.72800 0.38120
 C114 C 0.02332 0.75300 0.36143
 C115 C -0.01524 0.76127 0.41463
 C116 C -0.01042 0.78646 0.39515
 H117 H -0.05835 0.71663 0.37134
 H118 H -0.00089 0.79658 0.34350
 H119 H 0.03479 0.70841 0.38424
 H120 H -0.01902 0.76390 0.43998
 C121 C 0.49335 0.21165 0.89441
 C122 C 0.46578 0.21596 0.87141
 C123 C 0.46809 0.24190 0.85261
 C124 C 0.49839 0.26129 0.85837
 C125 C 0.52304 0.21139 0.87386
 C126 C 0.52617 0.23755 0.85550
 C127 C 0.49479 0.24311 0.91311
 C128 C 0.49778 0.26928 0.89432
 H129 H 0.44596 0.19974 0.87031
 H130 H 0.50021 0.28166 0.84200
 H131 H 0.54104 0.19282 0.87542
 H132 H 0.49459 0.24440 0.93883
 C133 C 0.49752 0.72474 0.61200
 C134 C 0.52318 0.72687 0.63765
 C135 C 0.52165 0.75388 0.65558
 C136 C 0.49442 0.77651 0.64618
 C137 C 0.46603 0.72928 0.62954
 C138 C 0.46427 0.75649 0.64721
 C139 C 0.50111 0.75536 0.59263
 C140 C 0.49918 0.78259 0.61062
 H141 H 0.54267 0.70988 0.63915
 H142 H 0.49302 0.79851 0.66093
 H143 H 0.44651 0.71284 0.62723
 H144 H 0.50452 0.75516 0.56716
 C145 C 0.88817 1.00650 0.77602
 C146 C 0.87075 1.03597 0.77177
 C147 C 0.85185 1.03707 0.74348
 C148 C 0.85289 1.00755 0.72523
 C149 C 0.86303 0.98062 0.77533
 C150 C 0.84453 0.98084 0.74864
 C151 C 0.90706 1.00177 0.74519
 C152 C 0.88858 1.00268 0.71840
 H153 H 0.87193 1.05548 0.78866
 H154 H 0.83781 1.00788 0.70346
 H155 H 0.86238 0.96192 0.79285
 H156 H 0.93266 0.99892 0.74490
 C157 C 0.40656 0.49746 0.26943
 C158 C 0.38562 0.52743 0.27027
 C159 C 0.36429 0.52970 0.24580
 C160 C 0.36538 0.50074 0.22306
 C161 C 0.38338 0.46986 0.26854
 C162 C 0.36183 0.47112 0.24433
 C163 C 0.42167 0.49743 0.23641
 C164 C 0.40030 0.49951 0.21195
 H165 H 0.38814 0.54545 0.28857
 H166 H 0.34784 0.50208 0.20329
 H167 H 0.38382 0.45126 0.28619
 H168 H 0.44710 0.49541 0.23300
 C169 C 0.61265 1.01025 0.29029
 C170 C 0.63177 0.97925 0.28906
 C171 C 0.65013 0.97575 0.26271
 C172 C 0.64744 1.00429 0.23961
 C173 C 0.63596 1.03490 0.28714
 C174 C 0.65491 1.03208 0.25920
 C175 C 0.59341 1.01083 0.25922
 C176 C 0.61151 1.00704 0.23253
 H177 H 0.63086 0.96160 0.30768
 H178 H 0.66239 1.00198 0.21801
 H179 H 0.63720 1.05517 0.30315
 H180 H 0.56791 1.01442 0.25877
 C181 C 0.10498 0.50098 0.77404
 C182 C 0.12530 0.47083 0.77297
 C183 C 0.14285 0.46703 0.74627
 C184 C 0.13861 0.49472 0.72248
 C185 C 0.12795 0.52814 0.76871
 C186 C 0.14559 0.52531 0.74177
 C187 C 0.08484 0.49971 0.74356
 C188 C 0.10244 0.49636 0.71635
 H189 H 0.12458 0.45307 0.79150
 H190 H 0.15304 0.49237 0.70055
 H191 H 0.12755 0.54945 0.78333
 H192 H 0.05926 0.50238 0.74388
 C193 C 0.78340 0.89911 0.00260
 C194 C 0.77836 0.88095 0.03340
 C195 C 0.75078 0.86446 0.03417
 C196 C 0.73097 0.86695 0.00361
 C197 C 0.78079 0.87439 -0.02393
 C198 C 0.75348 0.85747 -0.02358
 C199 C 0.75326 0.91991 -0.00086
 C200 C 0.72563 0.90307 -0.00031
 H201 H 0.79454 0.88245 0.05344
 H202 H 0.70928 0.85231 0.00451
 H203 H 0.79768 0.87317 -0.04328
 H204 H 0.75371 0.94561 -0.00203
 C205 C 0.28057 0.41065 0.50345
 C206 C 0.28408 0.38848 0.53190
 C207 C 0.26082 0.36648 0.53422
 C208 C 0.23574 0.36875 0.50740
 C209 C 0.27830 0.38871 0.47452
 C210 C 0.25484 0.36683 0.47634
 C211 C 0.24739 0.42533 0.50675
 C212 C 0.22377 0.40345 0.50897
 H213 H 0.30294 0.39080 0.54936
 H214 H 0.21638 0.35115 0.50844
 H215 H 0.29456 0.39012 0.45471
 H216 H 0.24315 0.45072 0.50561
 C217 C 0.27927 0.60001 -0.00734
 C218 C 0.27828 0.62482 -0.03349
 C219 C 0.25169 0.64326 -0.03389
 C220 C 0.22769 0.63505 -0.00744
 C221 C 0.27406 0.61868 0.02354
 C222 C 0.24715 0.63710 0.02378
 C223 C 0.24873 0.58101 -0.01199
 C224 C 0.22153 0.59900 -0.01177
 H225 H 0.29719 0.62730 -0.05071
 H226 H 0.20623 0.65055 -0.00750
 H227 H 0.28926 0.61559 0.04414
 H228 H 0.24861 0.55533 -0.01409
 C229 C 0.77166 0.10574 0.50575
 C230 C 0.76795 0.12638 0.47846
 C231 C 0.73913 0.14469 0.47811
 C232 C 0.71957 0.13939 0.50635
 C233 C 0.76926 0.12695 0.53313
 C234 C 0.74032 0.14533 0.53391
 C235 C 0.74288 0.08644 0.50598
 C236 C 0.71376 0.10505 0.50609
 H237 H 0.78672 0.12978 0.46129
 H238 H 0.69744 0.15417 0.50657
 H239 H 0.78624 0.12662 0.55257
 H240 H 0.74372 0.06074 0.50551
 C241 C 0.99032 0.76628 0.88956
 C242 C 1.02315 0.76510 0.87417
 C243 C 1.02659 0.74206 0.85149
 C244 C 0.99640 0.72261 0.84581
 C245 C 0.96686 0.76982 0.86202
 C246 C 0.96998 0.74713 0.83901
 C247 C 0.98515 0.73262 0.90177
 C248 C 0.98855 0.70967 0.87882
 H249 H 1.04194 0.78122 0.88092
 H250 H 0.99900 0.70391 0.82716
 H251 H 0.94720 0.78665 0.86278
 H252 H 0.97950 0.72757 0.92629
 C253 C 0.50787 0.28609 0.39005
 C254 C 0.53408 0.27909 0.36587
 C255 C 0.53262 0.24961 0.35218
 C256 C 0.50426 0.22994 0.36373
 C257 C 0.47701 0.28069 0.37177
 C258 C 0.47479 0.25139 0.35801
 C259 C 0.51020 0.25875 0.41374
 C260 C 0.50828 0.22928 0.40041
 H261 H 0.55216 0.29622 0.36010
 H262 H 0.50264 0.20637 0.35194
 H263 H 0.45924 0.29927 0.36877
 H264 H 0.51332 0.26254 0.43906
 C265 C 0.99009 0.28460 0.60037
 C266 C 0.96140 0.28245 0.62217
 C267 C 0.96141 0.25621 0.64086
 C268 C 0.99091 0.23479 0.63674
 C269 C 1.01870 0.28296 0.62261
 C270 C 1.01955 0.25676 0.64131
 C271 C 0.99062 0.25305 0.58191
 C272 C 0.99099 0.22677 0.60080
 H273 H 0.94217 0.29981 0.62204
 H274 H 0.99120 0.21427 0.65308
 H275 H 1.03691 0.30096 0.62317
 H276 H 0.99007 0.25172 0.55619
 C277 C 0.49903 0.76889 0.10158
 C278 C 0.46791 0.77098 0.12010
 C279 C 0.46411 0.74739 0.14180
 C280 C 0.49269 0.72420 0.14351
 C281 C 0.52514 0.76826 0.12681
 C282 C 0.52200 0.74510 0.14886
 C283 C 0.49961 0.73532 0.08722
 C284 C 0.49629 0.71180 0.10926
 H285 H 0.45058 0.78973 0.11604
 H286 H 0.49007 0.70515 0.16144
 H287 H 0.54617 0.78278 0.12510
 H288 H 0.50380 0.73082 0.06223
 O289 O -0.01393 0.90736 0.96390
 O290 O 0.00582 0.90114 1.01683
 O291 O -0.08454 0.98259 0.97785
 O292 O -0.08566 1.03263 0.99319
 O293 O -0.01788 0.98393 0.89893
 O294 O 0.03655 1.00010 0.89523
 O295 O 0.00917 1.05906 1.05609
 O296 O -0.04100 1.03474 1.06385
 O297 O 0.07518 0.98323 1.05123
 O298 O 0.07924 0.93432 1.01890
 O299 O 0.07634 1.05576 0.98464
 O300 O 0.04545 1.06746 0.93546
 O301 O 0.02949 1.08174 1.01179
 O302 O 0.00857 1.08816 0.95787
 O303 O 0.09775 1.00977 1.00365
 O304 O 0.09680 0.95478 0.97963
 O305 O 0.03392 1.00725 1.07702
 O306 O -0.02085 0.99070 1.08272
 O307 O 0.00692 0.93111 0.92033
 O308 O 0.05624 0.95712 0.91206
 O309 O -0.05989 1.00696 0.92446
 O310 O -0.06049 1.05689 0.95619
 O311 O -0.06359 0.93578 0.99546
 O312 O -0.03171 0.92255 1.04067
 Zr313 Zr -0.01427 0.94369 0.99888
 O314 O 0.01768 0.96769 1.02906
 Zr315 Zr -0.04491 1.01162 0.97205
 O316 O -0.01469 1.03847 1.00141
 Zr317 Zr 0.01618 0.97756 0.93489
 O318 O 0.04932 1.00308 0.96209
 Zr319 Zr -0.00148 1.01234 1.04182
 O320 O -0.03514 0.98682 1.01451
 Zr321 Zr 0.05934 0.97827 1.00414
 O322 O 0.02900 0.95072 0.97506
 Zr323 Zr 0.02818 1.04592 0.97723
 O324 O -0.00358 1.02217 0.94648
 O325 O -0.02643 0.96786 0.95770
 O326 O 0.04092 1.02217 1.01877
 C327 C -0.00440 0.90716 0.93484
 C328 C -0.08714 0.95394 0.98758
 C329 C -0.04610 0.99585 0.89950
 C330 C 0.02082 1.08261 1.04094
 C331 C 0.06214 0.99523 1.07612
 C332 C 0.09955 1.03903 0.99548
 H333 H 0.02230 0.95440 1.04781
 H334 H 0.06867 1.00662 0.94942
 H335 H -0.04160 0.95562 0.94450
 H336 H -0.02554 1.05861 1.00733
 H337 H -0.06020 1.02358 1.05616
 H338 H -0.07828 1.04579 1.01126
 H339 H 0.10337 0.96846 0.96185
 H340 H 0.06536 0.94133 0.92697
 H341 H -0.01060 0.96962 1.08539
 H342 H -0.04434 0.93919 1.05182
 H343 H 0.06288 1.05393 0.92698
 H344 H 0.02746 1.02190 0.89462
 H345 H 0.02694 0.89866 1.00675
 H346 H 0.06619 0.92636 1.03659
 H347 H -0.04693 1.06262 0.93798
 H348 H -0.01070 1.09375 0.97020
 O349 O 0.57300 0.57305 0.48844
 O350 O 0.53964 0.57957 0.44194
 O351 O 0.50265 0.57388 0.56284
 O352 O 0.46024 0.54557 0.57589
 O353 O 0.57736 0.50090 0.56181
 O354 O 0.58605 0.45399 0.52948
 O355 O 0.42000 0.48194 0.48807
 O356 O 0.41658 0.53527 0.50981
 O357 O 0.48212 0.49003 0.41004
 O358 O 0.53780 0.51139 0.40492
 O359 O 0.49572 0.41689 0.47716
 O360 O 0.51924 0.41542 0.53197
 O361 O 0.44735 0.43836 0.50525
 O362 O 0.47937 0.43114 0.55323
 O363 O 0.51236 0.44041 0.43181
 O364 O 0.55855 0.47102 0.41951
 O365 O 0.43853 0.50771 0.43697
 O366 O 0.42960 0.55606 0.46389
 O367 O 0.59853 0.52992 0.50911
 O368 O 0.60307 0.47736 0.48986
 O369 O 0.53414 0.52221 0.58671
 O370 O 0.48183 0.50091 0.59125
 O371 O 0.52150 0.59692 0.51805
 O372 O 0.50057 0.59877 0.46580
 Zr373 Zr 0.52501 0.55920 0.48522
 O374 O 0.49499 0.53097 0.45678
 Zr375 Zr 0.49926 0.52524 0.55111
 O376 O 0.46878 0.49492 0.52555
 Zr377 Zr 0.56288 0.49599 0.51393
 O378 O 0.53529 0.46505 0.48595
 Zr379 Zr 0.45514 0.51681 0.48301
 O380 O 0.48296 0.54878 0.51007
 Zr381 Zr 0.51854 0.48831 0.44491
 O382 O 0.54998 0.51797 0.47081
 Zr383 Zr 0.49401 0.45383 0.51107
 O384 O 0.52323 0.48224 0.54039
 O385 O 0.54025 0.53818 0.52731
 O386 O 0.47782 0.47465 0.46911
 C387 C 0.59812 0.55834 0.49822
 C388 C 0.51151 0.59816 0.54681
 C389 C 0.56264 0.51097 0.58673
 C390 C 0.42180 0.45267 0.49660
 C391 C 0.45250 0.49799 0.41167
 C392 C 0.50340 0.41616 0.44764
 H393 H 0.48882 0.54298 0.43759
 H394 H 0.54809 0.44590 0.48066
 H395 H 0.55390 0.55220 0.54038
 H396 H 0.45010 0.48990 0.53871
 H397 H 0.42423 0.55463 0.52085
 H398 H 0.44074 0.53519 0.56798
 H399 H 0.57042 0.45644 0.43369
 H400 H 0.60242 0.48633 0.46817
 H401 H 0.44385 0.56737 0.44931
 H402 H 0.47949 0.59966 0.47618
 H403 H 0.53713 0.40962 0.51780
 H404 H 0.57222 0.44456 0.54580
 H405 H 0.55544 0.56471 0.43248
 H406 H 0.52362 0.52951 0.39955
 H407 H 0.49338 0.48030 0.59223
 H408 H 0.46180 0.44393 0.56253
 O409 O 0.42729 -0.06315 0.49731
 O410 O 0.45869 -0.07406 0.45005
 O411 O 0.50134 -0.06191 0.56914
 O412 O 0.54333 -0.03261 0.58152
 O413 O 0.42699 0.01262 0.56472
 O414 O 0.42115 0.05902 0.53235
 O415 O 0.58543 0.01945 0.48956
 O416 O 0.58635 -0.03165 0.51175
 O417 O 0.51820 0.00873 0.41200
 O418 O 0.46193 -0.00913 0.40954
 O419 O 0.51190 0.08828 0.47299
 O420 O 0.49050 0.09557 0.52859
 O421 O 0.56151 0.06588 0.50437
 O422 O 0.52985 0.07982 0.55010
 O423 O 0.49296 0.06106 0.43021
 O424 O 0.44381 0.03312 0.42241
 O425 O 0.56286 -0.00694 0.43849
 O426 O 0.56955 -0.05548 0.46910
 O427 O 0.40396 -0.01693 0.51392
 O428 O 0.40268 0.03556 0.49225
 O429 O 0.46971 -0.00853 0.59067
 O430 O 0.52318 0.01330 0.59332
 O431 O 0.48002 -0.08692 0.52611
 O432 O 0.49736 -0.09353 0.47396
 Zr433 Zr 0.47573 -0.05147 0.49172
 O434 O 0.50619 -0.02700 0.46117
 Zr435 Zr 0.50462 -0.01386 0.55510
 O436 O 0.53595 0.01277 0.52695
 Zr437 Zr 0.44165 0.01541 0.51715
 O438 O 0.47015 0.04299 0.48710
 Zr439 Zr 0.54755 -0.01280 0.48554
 O440 O 0.51886 -0.04099 0.51520
 Zr441 Zr 0.48400 0.01561 0.44751
 O442 O 0.45199 -0.01048 0.47543
 Zr443 Zr 0.51309 0.05423 0.51006
 O444 O 0.48289 0.02948 0.54171
 O445 O 0.46261 -0.02681 0.53264
 O446 O 0.52657 0.02926 0.46929
 C447 C 0.40285 -0.04637 0.50556
 C448 C 0.49164 -0.08691 0.55435
 C449 C 0.44114 0.00267 0.58991
 C450 C 0.58631 0.04909 0.49730
 C451 C 0.54763 0.00045 0.41307
 C452 C 0.50339 0.08632 0.44355
 H453 H 0.51103 -0.04073 0.44263
 H454 H 0.45819 0.06229 0.48077
 H455 H 0.44884 -0.03971 0.54642
 H456 H 0.55510 0.01767 0.53967
 H457 H 0.57775 -0.04833 0.52570
 H458 H 0.56308 -0.02492 0.57166
 H459 H 0.43446 0.05084 0.43495
 H460 H 0.40162 0.02440 0.47148
 H461 H 0.55682 -0.06409 0.45130
 H462 H 0.51965 -0.09335 0.48161
 H463 H 0.47199 0.10057 0.51486
 H464 H 0.43656 0.06879 0.54723
 H465 H 0.44243 -0.05968 0.44072
 H466 H 0.47434 -0.02886 0.40550
 H467 H 0.51084 0.03348 0.59413
 H468 H 0.54419 0.06544 0.56210
 O469 O 0.01108 0.41767 1.05126
 O470 O 0.05950 0.44346 1.05912
 O471 O -0.05681 0.49346 1.06604
 O472 O -0.06975 0.53977 1.04543
 O473 O -0.06764 0.42882 0.98726
 O474 O -0.04272 0.42525 0.93634
 O475 O 0.02106 0.58110 0.98430
 O476 O 0.00502 0.57972 1.03700
 O477 O 0.09044 0.51017 0.97325
 O478 O 0.09278 0.45268 0.98494
 O479 O 0.01573 0.51670 0.90647
 O480 O -0.03761 0.50327 0.90422
 O481 O -0.00468 0.56502 0.93944
 O482 O -0.05800 0.53643 0.93297
 O483 O 0.06084 0.49158 0.92315
 O484 O 0.06967 0.43791 0.94626
 O485 O 0.07131 0.55274 1.00101
 O486 O 0.04717 0.55413 1.05473
 O487 O -0.01377 0.39972 1.00658
 O488 O -0.00046 0.40312 0.95082
 O489 O -0.08745 0.47231 1.01299
 O490 O -0.08700 0.52947 0.99910
 O491 O -0.01225 0.46794 1.08372
 O492 O 0.04264 0.48367 1.08331
 Zr493 Zr 0.01730 0.46626 1.04344
 O494 O 0.04693 0.49604 1.01709
 Zr495 Zr -0.04837 0.50296 1.01819
 O496 O -0.02148 0.53551 0.99209
 Zr497 Zr -0.01983 0.44076 0.97840
 O498 O 0.00730 0.47068 0.94924
 Zr499 Zr 0.02422 0.54028 1.01187
 O500 O -0.00434 0.51148 1.04085
 Zr501 Zr 0.05186 0.47862 0.97046
 O502 O 0.02587 0.44614 0.99823
 Zr503 Zr -0.01368 0.51627 0.94657
 O504 O -0.04327 0.48480 0.97186
 O505 O -0.02754 0.45835 1.02396
 O506 O 0.03151 0.52371 0.96558
 C507 C -0.00082 0.39552 1.03404
 C508 C -0.04012 0.47998 1.08784
 C509 C -0.09061 0.44465 1.00018
 C510 C 0.00881 0.58621 0.95693
 C511 C 0.09352 0.53786 0.98594
 C512 C 0.04400 0.50598 0.90200
 H513 H 0.06774 0.49780 1.02787
 H514 H 0.00933 0.46077 0.92796
 H515 H -0.04051 0.44401 1.03708
 H516 H -0.03288 0.55618 0.99149
 H517 H -0.00793 0.57109 1.05447
 H518 H -0.05771 0.55933 1.04125
 H519 H 0.05508 0.43322 0.92838
 H520 H 0.02138 0.39930 0.95890
 H521 H 0.06638 0.54070 1.05769
 H522 H 0.03327 0.50473 1.08862
 H523 H -0.03310 0.48044 0.90048
 H524 H -0.05813 0.44220 0.93047
 H525 H 0.06811 0.43167 1.04055
 H526 H 0.09992 0.46154 1.00557
 H527 H -0.09346 0.51879 0.97909
 H528 H -0.06153 0.55590 0.94587
 O529 O 0.08781 0.48158 0.51320
 O530 O 0.09050 0.53423 0.49395
 O531 O 0.01549 0.48863 0.58402
 O532 O -0.03547 0.50193 0.58679
 O533 O 0.01531 0.41113 0.51516
 O534 O 0.00032 0.40638 0.46203
 O535 O -0.06885 0.56554 0.49401
 O536 O -0.04386 0.57508 0.54182
 O537 O 0.00370 0.56278 0.42487
 O538 O 0.05321 0.53542 0.41870
 O539 O -0.06471 0.49307 0.42435
 O540 O -0.07436 0.44554 0.45413
 O541 O -0.09061 0.52061 0.47349
 O542 O -0.09188 0.46441 0.49417
 O543 O -0.01966 0.51244 0.40250
 O544 O 0.03768 0.49258 0.40413
 O545 O -0.01978 0.58784 0.46687
 O546 O 0.00030 0.59362 0.52283
 O547 O 0.06771 0.43650 0.49120
 O548 O 0.03952 0.42775 0.44096
 O549 O -0.00851 0.43459 0.55786
 O550 O -0.05929 0.46517 0.56112
 O551 O 0.06010 0.50977 0.56278
 O552 O 0.06741 0.55734 0.53157
 Zr553 Zr 0.04953 0.51386 0.51394
 O554 O 0.02307 0.54233 0.48231
 Zr555 Zr -0.01525 0.48260 0.54488
 O556 O -0.04472 0.51110 0.51580
 Zr557 Zr 0.01947 0.44801 0.48255
 O558 O -0.00971 0.47356 0.45079
 Zr559 Zr -0.02133 0.55285 0.50256
 O560 O 0.00629 0.52668 0.53575
 Zr561 Zr 0.01242 0.51662 0.44069
 O562 O 0.04315 0.48982 0.47027
 Zr563 Zr -0.05284 0.48701 0.47262
 O564 O -0.02549 0.45716 0.50290
 O565 O 0.02867 0.47095 0.52551
 O566 O -0.03160 0.52949 0.45991
 C567 C 0.09058 0.45280 0.50311
 C568 C 0.04378 0.49974 0.58638
 C569 C 0.00320 0.41035 0.54304
 C570 C -0.09238 0.54972 0.48294
 C571 C -0.00912 0.58710 0.43824
 C572 C -0.04853 0.50296 0.40065
 H573 H 0.03509 0.56174 0.47751
 H574 H -0.01319 0.46056 0.43146
 H575 H 0.04193 0.45802 0.54014
 H576 H -0.06463 0.51608 0.52731
 H577 H -0.03305 0.56701 0.56114
 H578 H -0.04855 0.52049 0.58037
 H579 H 0.02465 0.47450 0.39678
 H580 H 0.05654 0.44217 0.43402
 H581 H 0.01841 0.59975 0.50937
 H582 H 0.05111 0.56616 0.54618
 H583 H -0.05902 0.43526 0.43946
 H584 H -0.02215 0.40564 0.46886
 H585 H 0.09297 0.52461 0.47254
 H586 H 0.06276 0.55083 0.43368
 H587 H -0.06477 0.44679 0.54741
 H588 H -0.09919 0.47803 0.51203
 O589 O 0.59219 0.98517 0.02756
 O590 O 0.59079 1.03872 0.00935
 O591 O 0.52206 0.99023 0.10291
 O592 O 0.47041 1.00298 0.10703
 O593 O 0.52009 0.91181 0.03497
 O594 O 0.50354 0.90741 -0.01895
 O595 O 0.43120 1.06335 0.01536
 O596 O 0.45692 1.07009 0.06573
 O597 O 0.50056 1.06555 -0.05296
 O598 O 0.55380 1.03810 -0.06022
 O599 O 0.43671 0.99132 -0.05486
 O600 O 0.43112 0.94195 -0.02308
 O601 O 0.41132 1.01800 -0.00623
 O602 O 0.41041 0.96306 0.01441
 O603 O 0.48027 1.01301 -0.07733
 O604 O 0.53598 0.99902 -0.07964
 O605 O 0.47875 1.08859 -0.00899
 O606 O 0.49793 1.09445 0.04403
 O607 O 0.57202 0.93950 0.00689
 O608 O 0.54244 0.92776 -0.03985
 O609 O 0.49936 0.93592 0.07895
 O610 O 0.44826 0.96193 0.08350
 O611 O 0.56567 1.01130 0.07962
 O612 O 0.57043 1.05895 0.04982
 Zr613 Zr 0.55249 1.01573 0.03161
 O614 O 0.52334 1.04396 0.00222
 Zr615 Zr 0.48991 0.98272 0.06512
 O616 O 0.45784 1.00931 0.03695
 Zr617 Zr 0.52299 0.94892 0.00156
 O618 O 0.49280 0.97432 -0.02951
 Zr619 Zr 0.47917 1.05207 0.02423
 O620 O 0.50987 1.02721 0.05548
 Zr621 Zr 0.51251 1.01876 -0.03958
 O622 O 0.54468 0.99168 -0.01173
 Zr623 Zr 0.44979 0.98560 -0.00658
 O624 O 0.47874 0.95701 0.02344
 O625 O 0.53346 0.97214 0.04402
 O626 O 0.46875 1.02928 -0.01880
 C627 C 0.59524 0.95679 0.01653
 C628 C 0.55034 1.00160 0.10394
 C629 C 0.50993 0.91154 0.06378
 C630 C 0.40857 1.04703 0.00311
 C631 C 0.48796 1.08921 -0.03788
 C632 C 0.45200 1.00187 -0.07895
 H633 H 0.53435 1.06400 -0.00243
 H634 H 0.48947 0.96145 -0.04896
 H635 H 0.54795 0.95958 0.05780
 H636 H 0.43790 1.01332 0.04874
 H637 H 0.47080 1.06431 0.08392
 H638 H 0.45266 1.01723 0.10069
 H639 H 0.52745 0.97747 -0.08320
 H640 H 0.55605 0.94398 -0.04971
 H641 H 0.51883 1.09827 0.03420
 H642 H 0.55425 1.06749 0.06473
 H643 H 0.44440 0.93453 -0.04107
 H644 H 0.48191 0.90536 -0.01008
 H645 H 0.59273 1.02921 -0.01215
 H646 H 0.55862 1.05824 -0.04902
 H647 H 0.44146 0.94555 0.06798
 H648 H 0.40491 0.97491 0.03405
 O649 O 0.41031 0.50534 0.00289
 O650 O 0.41372 0.45041 -0.01106
 O651 O 0.47973 0.51356 0.07675
 O652 O 0.53135 0.50681 0.08343
 O653 O 0.47732 0.58204 -0.00143
 O654 O 0.49308 0.58032 -0.05458
 O655 O 0.57517 0.43471 -0.00050
 O656 O 0.54925 0.43039 0.04836
 O657 O 0.50532 0.41997 -0.07029
 O658 O 0.45636 0.44122 -0.08391
 O659 O 0.56777 0.49714 -0.07730
 O660 O 0.57078 0.54935 -0.05236
 O661 O 0.59394 0.47904 -0.02409
 O662 O 0.58920 0.53655 -0.01076
 O663 O 0.52613 0.47074 -0.09915
 O664 O 0.46666 0.48430 -0.10156
 O665 O 0.52773 0.40319 -0.02404
 O666 O 0.50877 0.40395 0.03028
 O667 O 0.42822 0.54937 -0.02215
 O668 O 0.45634 0.55262 -0.07318
 O669 O 0.49952 0.56682 0.04553
 O670 O 0.55265 0.54233 0.05449
 O671 O 0.43830 0.48572 0.05627
 O672 O 0.43652 0.43444 0.03025
 Zr673 Zr 0.45144 0.47696 0.00866
 O674 O 0.48225 0.44728 -0.01773
 Zr675 Zr 0.51153 0.51823 0.03862
 O676 O 0.54501 0.48913 0.01466
 Zr677 Zr 0.47717 0.54053 -0.02899
 O678 O 0.51014 0.51387 -0.05597
 Zr679 Zr 0.52637 0.44383 0.00559
 O680 O 0.49455 0.47135 0.03381
 Zr681 Zr 0.49288 0.46767 -0.06184
 O682 O 0.45815 0.49525 -0.03732
 Zr683 Zr 0.55307 0.50792 -0.03071
 O684 O 0.52157 0.53871 -0.00564
 O685 O 0.46787 0.52285 0.01602
 O686 O 0.53685 0.46192 -0.03922
 C687 C 0.40611 0.53294 -0.00935
 C688 C 0.45268 0.49982 0.07928
 C689 C 0.48719 0.58776 0.02683
 C690 C 0.59788 0.45138 -0.01182
 C691 C 0.51796 0.39847 -0.05263
 C692 C 0.55382 0.48330 -0.10069
 H693 H 0.47212 0.42636 -0.02050
 H694 H 0.51329 0.52459 -0.07652
 H695 H 0.45303 0.53628 0.02862
 H696 H 0.56470 0.48765 0.02751
 H697 H 0.53648 0.43960 0.06595
 H698 H 0.54706 0.48950 0.07988
 H699 H 0.47807 0.50263 -0.11045
 H700 H 0.44052 0.53606 -0.07820
 H701 H 0.48926 0.39669 0.01939
 H702 H 0.45243 0.42931 0.04690
 H703 H 0.55639 0.55490 -0.07017
 H704 H 0.51504 0.58435 -0.04719
 H705 H 0.41061 0.45811 -0.03305
 H706 H 0.44455 0.43058 -0.06682
 H707 H 0.55712 0.55902 0.03870
 H708 H 0.59577 0.52698 0.00969
 O709 O -0.01110 -0.06173 0.43333
 O710 O -0.06052 -0.03526 0.42538
 O711 O 0.05473 0.01631 0.42893
 O712 O 0.06120 0.06255 0.45441
 O713 O 0.06400 -0.05316 0.50265
 O714 O 0.03647 -0.06239 0.55119
 O715 O -0.03144 0.09502 0.51738
 O716 O -0.01288 0.09866 0.46478
 O717 O -0.09834 0.02190 0.51753
 O718 O -0.09779 -0.03343 0.49719
 O719 O -0.02816 0.02253 0.58673
 O720 O 0.02891 0.00876 0.58842
 O721 O -0.00732 0.07461 0.56130
 O722 O 0.04446 0.04866 0.56925
 O723 O -0.07078 -0.00255 0.56521
 O724 O -0.07538 -0.05293 0.53466
 O725 O -0.08015 0.06654 0.49397
 O726 O -0.05412 0.07584 0.44363
 O727 O 0.01352 -0.08214 0.47704
 O728 O -0.00280 -0.08493 0.53148
 O729 O 0.08300 -0.00796 0.48074
 O730 O 0.07980 0.04664 0.50061
 O731 O 0.01237 -0.00948 0.40755
 O732 O -0.04294 0.00671 0.40572
 Zr733 Zr -0.01982 -0.01385 0.44541
 O734 O -0.05197 0.01298 0.47326
 Zr735 Zr 0.04269 0.02211 0.47716
 O736 O 0.01317 0.05096 0.50603
 Zr737 Zr 0.01526 -0.04391 0.50948
 O738 O -0.01498 -0.01807 0.54012
 Zr739 Zr -0.03177 0.05697 0.48479
 O740 O -0.00087 0.03156 0.45377
 Zr741 Zr -0.05865 -0.00911 0.51727
 O742 O -0.02960 -0.03819 0.48778
 Zr743 Zr 0.00386 0.02725 0.54878
 O744 O 0.03626 -0.00022 0.52126
 O745 O 0.02429 -0.02231 0.46633
 O746 O -0.04069 0.03568 0.52844
 C747 C 0.00187 -0.08468 0.44889
 C748 C 0.03998 0.00320 0.40556
 C749 C 0.08664 -0.03625 0.49158
 C750 C -0.02056 0.09746 0.54582
 C751 C -0.10218 0.05033 0.50711
 C752 C -0.05576 0.00989 0.58866
 H753 H -0.07228 0.01550 0.46164
 H754 H -0.01756 -0.03029 0.55989
 H755 H 0.03860 -0.03531 0.45271
 H756 H 0.02349 0.07167 0.50966
 H757 H 0.00086 0.09179 0.44688
 H758 H 0.05052 0.08149 0.46370
 H759 H -0.06155 -0.05933 0.55263
 H760 H -0.02399 -0.08871 0.52194
 H761 H -0.06923 0.05997 0.43533
 H762 H -0.03402 0.02822 0.40326
 H763 H 0.01959 -0.01204 0.59362
 H764 H 0.05026 -0.04548 0.55987
 H765 H -0.06931 -0.04912 0.44203
 H766 H -0.10482 -0.02179 0.47802
 H767 H 0.08411 0.03534 0.52076
 H768 H 0.05080 0.06634 0.55534
 O769 O 0.74632 0.21905 0.34143
 O770 O 0.76823 0.27166 0.34691
 O771 O 0.67284 0.23079 0.27315
 O772 O 0.66796 0.24826 0.22333
 O773 O 0.74267 0.15454 0.26400
 O774 O 0.79560 0.15177 0.24450
 O775 O 0.75912 0.31278 0.18979
 O776 O 0.71013 0.31887 0.21770
 O777 O 0.82935 0.30870 0.26157
 O778 O 0.83768 0.27673 0.30919
 O779 O 0.82995 0.24218 0.18808
 O780 O 0.79813 0.19261 0.17709
 O781 O 0.78112 0.26990 0.16480
 O782 O 0.76115 0.21640 0.15802
 O783 O 0.85323 0.26012 0.23349
 O784 O 0.85538 0.23780 0.28752
 O785 O 0.78535 0.33433 0.24260
 O786 O 0.73198 0.33833 0.26040
 O787 O 0.76958 0.17691 0.31617
 O788 O 0.81757 0.16907 0.28561
 O789 O 0.69923 0.17807 0.24156
 O790 O 0.69197 0.21174 0.19552
 O791 O 0.69736 0.24965 0.31766
 O792 O 0.72790 0.29564 0.32884
 Zr793 Zr 0.74512 0.25411 0.30576
 O794 O 0.77401 0.28513 0.28012
 Zr795 Zr 0.71070 0.22698 0.23980
 O796 O 0.73842 0.25722 0.21127
 Zr797 Zr 0.77546 0.19125 0.26878
 O798 O 0.80582 0.21930 0.24133
 Zr799 Zr 0.75174 0.29786 0.23710
 O800 O 0.72083 0.26959 0.26460
 Zr801 Zr 0.81589 0.26126 0.26644
 O802 O 0.78865 0.23129 0.29557
 Zr803 Zr 0.78200 0.23467 0.20012
 O804 O 0.75274 0.20311 0.22572
 O805 O 0.73265 0.21275 0.28168
 O806 O 0.79464 0.27624 0.22401
 C807 C 0.75744 0.19045 0.34087
 C808 C 0.67268 0.24085 0.30222
 C809 C 0.71456 0.15360 0.25208
 C810 C 0.77079 0.29876 0.16504
 C811 C 0.81429 0.33371 0.25254
 C812 C 0.85412 0.25192 0.20412
 H813 H 0.77854 0.30388 0.29358
 H814 H 0.82528 0.20689 0.23633
 H815 H 0.71875 0.19885 0.29428
 H816 H 0.72630 0.26314 0.19198
 H817 H 0.69197 0.31085 0.23010
 H818 H 0.67386 0.26574 0.20900
 H819 H 0.86039 0.21872 0.27453
 H820 H 0.82649 0.18335 0.30210
 H821 H 0.74144 0.33975 0.28190
 H822 H 0.71278 0.30594 0.31393
 H823 H 0.81729 0.18488 0.18848
 H824 H 0.78595 0.15154 0.22300
 H825 H 0.78873 0.25996 0.34862
 H826 H 0.82373 0.29315 0.31892
 H827 H 0.70754 0.19644 0.18638
 H828 H 0.74092 0.22807 0.15440
 O829 O 0.66181 0.75631 0.71202
 O830 O 0.67552 0.81018 0.70784
 O831 O 0.74815 0.71362 0.66950
 O832 O 0.79794 0.70548 0.68180
 O833 O 0.70492 0.67339 0.75653
 O834 O 0.70528 0.69018 0.81045
 O835 O 0.83047 0.79574 0.75238
 O836 O 0.82163 0.78643 0.69784
 O837 O 0.75097 0.84278 0.78752
 O838 O 0.69259 0.83344 0.78404
 O839 O 0.78690 0.76478 0.83498
 O840 O 0.78478 0.70910 0.83008
 O841 O 0.82995 0.75805 0.79086
 O842 O 0.81367 0.70028 0.79350
 O843 O 0.74710 0.80175 0.83316
 O844 O 0.69084 0.80272 0.81948
 O845 O 0.78765 0.83953 0.74805
 O846 O 0.78563 0.82401 0.69277
 O847 O 0.66069 0.71909 0.75097
 O848 O 0.67155 0.72683 0.80688
 O849 O 0.74145 0.67002 0.71693
 O850 O 0.79974 0.68066 0.72448
 O851 O 0.70724 0.74933 0.66684
 O852 O 0.71129 0.80601 0.67450
 Zr853 Zr 0.70885 0.77239 0.71150
 O854 O 0.73685 0.80415 0.73799
 Zr855 Zr 0.76318 0.71486 0.71690
 O856 O 0.79404 0.74444 0.74263
 Zr857 Zr 0.70645 0.72120 0.77117
 O858 O 0.73502 0.75036 0.79996
 Zr859 Zr 0.78508 0.79237 0.73182
 O860 O 0.75722 0.76252 0.70256
 Zr861 Zr 0.72875 0.79810 0.78678
 O862 O 0.69743 0.76920 0.76007
 Zr863 Zr 0.78335 0.74072 0.79119
 O864 O 0.75458 0.70837 0.76561
 O865 O 0.71502 0.72466 0.72267
 O866 O 0.77721 0.78880 0.78064
 C867 C 0.64754 0.73550 0.72883
 C868 C 0.72569 0.72807 0.65452
 C869 C 0.72011 0.65802 0.73479
 C870 C 0.84383 0.77933 0.77435
 C871 C 0.77274 0.85470 0.77009
 C872 C 0.76990 0.78706 0.84743
 H873 H 0.73187 0.82609 0.73125
 H874 H 0.72943 0.74682 0.82244
 H875 H 0.70132 0.71076 0.70953
 H876 H 0.81622 0.73819 0.73766
 H877 H 0.81238 0.77450 0.67973
 H878 H 0.81442 0.72189 0.68426
 H879 H 0.69112 0.78359 0.83301
 H880 H 0.66073 0.74747 0.80293
 H881 H 0.76582 0.83688 0.69318
 H882 H 0.73209 0.80262 0.66399
 H883 H 0.76342 0.70930 0.83981
 H884 H 0.72645 0.67970 0.81152
 H885 H 0.66670 0.81350 0.72940
 H886 H 0.69658 0.84648 0.76503
 H887 H 0.79366 0.66807 0.74326
 H888 H 0.82926 0.70181 0.77604
 O889 O 0.23112 0.18327 0.80942
 O890 O 0.18717 0.17521 0.77401
 O891 O 0.31053 0.18102 0.74794
 O892 O 0.32641 0.20665 0.70438
 O893 O 0.30190 0.25528 0.81831
 O894 O 0.27056 0.30213 0.82301
 O895 O 0.23808 0.26934 0.65416
 O896 O 0.26095 0.21800 0.65277
 O897 O 0.15831 0.26354 0.71296
 O898 O 0.14743 0.24854 0.76535
 O899 O 0.22578 0.33764 0.72502
 O900 O 0.27778 0.34032 0.75183
 O901 O 0.25673 0.31303 0.67994
 O902 O 0.30332 0.32040 0.71647
 O903 O 0.17949 0.31522 0.74051
 O904 O 0.16609 0.28409 0.79073
 O905 O 0.18724 0.24420 0.67138
 O906 O 0.21706 0.19372 0.66767
 O907 O 0.24966 0.22664 0.83598
 O908 O 0.22738 0.28044 0.83566
 O909 O 0.33126 0.23528 0.77729
 O910 O 0.33916 0.25302 0.72311
 O911 O 0.26394 0.15808 0.76189
 O912 O 0.21304 0.15640 0.73584
 Zr913 Zr 0.23083 0.19594 0.76130
 O914 O 0.20414 0.22363 0.72929
 Zr915 Zr 0.29843 0.22923 0.73978
 O916 O 0.27474 0.25782 0.70589
 Zr917 Zr 0.25601 0.26018 0.79943
 O918 O 0.23125 0.29087 0.76836
 Zr919 Zr 0.23275 0.23587 0.69054
 O920 O 0.25877 0.20513 0.72102
 Zr921 Zr 0.19128 0.26732 0.75036
 O922 O 0.21424 0.23763 0.78406
 Zr923 Zr 0.25906 0.30009 0.72808
 O924 O 0.28552 0.27284 0.76127
 O925 O 0.27141 0.21760 0.77905
 O926 O 0.21790 0.27903 0.71055
 C927 C 0.23940 0.19795 0.83493
 C928 C 0.29384 0.15685 0.75601
 C929 C 0.32817 0.24599 0.80583
 C930 C 0.24768 0.29821 0.65478
 C931 C 0.16124 0.25425 0.68397
 C932 C 0.19590 0.33894 0.73102
 H933 H 0.18521 0.21150 0.72273
 H934 H 0.22534 0.31062 0.77985
 H935 H 0.28358 0.20418 0.79414
 H936 H 0.28896 0.26186 0.68775
 H937 H 0.27357 0.19998 0.66136
 H938 H 0.31911 0.21492 0.68363
 H939 H 0.17614 0.30400 0.79806
 H940 H 0.20711 0.26872 0.83547
 H941 H 0.19748 0.18661 0.67827
 H942 H 0.22597 0.15434 0.71630
 H943 H 0.26353 0.34564 0.76980
 H944 H 0.28633 0.31221 0.80901
 H945 H 0.17633 0.19050 0.78844
 H946 H 0.14692 0.22609 0.75825
 H947 H 0.34006 0.27364 0.73454
 H948 H 0.31220 0.30851 0.69812
 O949 O 0.18191 0.81693 0.24639
 O950 O 0.17760 0.79312 0.19454
 O951 O 0.17001 0.73548 0.30648
 O952 O 0.19687 0.68448 0.30922
 O953 O 0.24481 0.80005 0.32748
 O954 O 0.29501 0.81068 0.30377
 O955 O 0.26427 0.65841 0.22363
 O956 O 0.20555 0.65749 0.23653
 O957 O 0.27020 0.73622 0.16185
 O958 O 0.25076 0.79260 0.16480
 O959 O 0.33418 0.72809 0.23620
 O960 O 0.33221 0.73934 0.29335
 O961 O 0.30609 0.67668 0.25247
 O962 O 0.30956 0.70018 0.30671
 O963 O 0.31613 0.75676 0.19420
 O964 O 0.28813 0.80826 0.18980
 O965 O 0.24361 0.69122 0.17415
 O966 O 0.19333 0.67956 0.19611
 O967 O 0.22323 0.83466 0.27655
 O968 O 0.27868 0.83656 0.26490
 O969 O 0.21864 0.75476 0.34002
 O970 O 0.23596 0.70034 0.33609
 O971 O 0.15207 0.76422 0.26436
 O972 O 0.15430 0.75189 0.20880
 Zr973 Zr 0.19297 0.76909 0.23590
 O974 O 0.22280 0.74321 0.20467
 Zr975 Zr 0.21875 0.72790 0.29774
 O976 O 0.24989 0.70032 0.26938
 Zr977 Zr 0.25460 0.79496 0.27838
 O978 O 0.28712 0.77034 0.24883
 Zr979 Zr 0.23207 0.69751 0.22267
 O980 O 0.19885 0.72213 0.25208
 Zr981 Zr 0.26761 0.76464 0.20313
 O982 O 0.23660 0.79272 0.23156
 Zr983 Zr 0.29361 0.72360 0.26512
 O984 O 0.26376 0.74935 0.29686
 O985 O 0.21038 0.77395 0.28193
 O986 O 0.27663 0.71842 0.21873
 C987 C 0.19645 0.83875 0.26207
 C988 C 0.14792 0.75028 0.29110
 C989 C 0.23046 0.78189 0.34719
 C990 C 0.29175 0.65477 0.23675
 C991 C 0.25911 0.70876 0.15481
 C992 C 0.33822 0.74194 0.20943
 H993 H 0.21272 0.74224 0.18343
 H994 H 0.30735 0.78203 0.24834
 H995 H 0.19600 0.78649 0.29589
 H996 H 0.25238 0.67910 0.27907
 H997 H 0.21605 0.64818 0.25543
 H998 H 0.18250 0.67923 0.29130
 H999 H 0.30437 0.81374 0.20593
 H1000 H 0.27166 0.84140 0.24296
 H1001 H 0.18387 0.69754 0.18422
 H1002 H 0.15078 0.72976 0.21571
 H1003 H 0.33828 0.76062 0.28579
 H1004 H 0.30273 0.79234 0.31635
 H1005 H 0.19473 0.80800 0.18896
 H1006 H 0.23278 0.78136 0.15472
 H1007 H 0.25698 0.70902 0.34193
 H1008 H 0.29565 0.68173 0.31017
 O1009 O 0.24415 0.66136 0.77126
 O1010 O 0.29858 0.66829 0.75689
 O1011 O 0.22719 0.73337 0.84065
 O1012 O 0.23461 0.78598 0.84400
 O1013 O 0.16062 0.72115 0.76462
 O1014 O 0.15953 0.73457 0.71037
 O1015 O 0.29797 0.83061 0.75772
 O1016 O 0.30507 0.80787 0.80797
 O1017 O 0.31840 0.75700 0.69213
 O1018 O 0.29972 0.70247 0.68383
 O1019 O 0.23559 0.81175 0.68073
 O1020 O 0.18327 0.81304 0.70669
 O1021 O 0.25322 0.84264 0.72955
 O1022 O 0.19620 0.83635 0.74615
 O1023 O 0.26800 0.77222 0.66232
 O1024 O 0.25919 0.71392 0.66120
 O1025 O 0.33371 0.78441 0.73624
 O1026 O 0.33603 0.76890 0.79149
 O1027 O 0.19915 0.67288 0.74314
 O1028 O 0.18963 0.69890 0.69286
 O1029 O 0.17509 0.74906 0.80877
 O1030 O 0.19410 0.80323 0.81451
 O1031 O 0.26027 0.69414 0.82255
 O1032 O 0.31184 0.69417 0.79729
 Zr1033 Zr 0.26821 0.70474 0.77436
 O1034 O 0.29454 0.73578 0.74601
 Zr1035 Zr 0.22201 0.76323 0.80081
 O1036 O 0.24699 0.79718 0.77425
 Zr1037 Zr 0.20141 0.72261 0.73572
 O1038 O 0.22470 0.75531 0.70628
 Zr1039 Zr 0.29392 0.78155 0.76645
 O1040 O 0.27023 0.74953 0.79684
 Zr1041 Zr 0.27244 0.74132 0.70144
 O1042 O 0.24839 0.70673 0.72829
 Zr1043 Zr 0.22695 0.80019 0.72849
 O1044 O 0.19981 0.76854 0.75617
 O1045 O 0.22096 0.71792 0.78087
 O1046 O 0.27419 0.78692 0.72116
 C1047 C 0.21800 0.65343 0.75773
 C1048 C 0.24348 0.70759 0.84442
 C1049 C 0.15486 0.73339 0.79209
 C1050 C 0.27995 0.85007 0.74234
 C1051 C 0.33872 0.77298 0.70828
 C1052 C 0.25237 0.79840 0.65885
 H1053 H 0.31637 0.72715 0.74387
 H1054 H 0.21364 0.75636 0.68554
 H1055 H 0.20905 0.70269 0.79398
 H1056 H 0.24661 0.81789 0.78549
 H1057 H 0.29814 0.79504 0.82628
 H1058 H 0.24717 0.80490 0.83858
 H1059 H 0.23855 0.72221 0.65332
 H1060 H 0.20876 0.68656 0.68643
 H1061 H 0.34450 0.74885 0.78231
 H1062 H 0.31567 0.71166 0.81265
 H1063 H 0.17902 0.79733 0.68964
 H1064 H 0.15354 0.75640 0.71715
 H1065 H 0.29134 0.66348 0.73498
 H1066 H 0.31705 0.69819 0.69922
 H1067 H 0.17813 0.80670 0.79750
 H1068 H 0.20642 0.84603 0.76503
 O1069 O 0.24698 0.17462 0.20047
 O1070 O 0.29275 0.16636 0.23490
 O1071 O 0.17268 0.19341 0.26700
 O1072 O 0.16545 0.22748 0.30857
 O1073 O 0.18284 0.25389 0.18694
 O1074 O 0.21951 0.29588 0.17392
 O1075 O 0.25713 0.28380 0.34243
 O1076 O 0.23126 0.23319 0.35049
 O1077 O 0.33539 0.25664 0.28167
 O1078 O 0.33860 0.22969 0.22999
 O1079 O 0.27709 0.33779 0.25830
 O1080 O 0.22248 0.34310 0.23582
 O1081 O 0.24732 0.32602 0.31025
 O1082 O 0.20034 0.33588 0.27701
 O1083 O 0.31938 0.30531 0.24779
 O1084 O 0.32627 0.26656 0.20302
 O1085 O 0.30660 0.25093 0.32685
 O1086 O 0.27736 0.20851 0.34111
 O1087 O 0.23419 0.21700 0.16942
 O1088 O 0.25655 0.26648 0.15980
 O1089 O 0.15567 0.24372 0.23233
 O1090 O 0.15395 0.27114 0.28199
 O1091 O 0.21473 0.16183 0.25318
 O1092 O 0.26664 0.15521 0.27502
 Zr1093 Zr 0.25207 0.19400 0.24652
 O1094 O 0.28376 0.22187 0.27342
 Zr1095 Zr 0.19102 0.23992 0.26735
 O1096 O 0.22009 0.27044 0.29440
 Zr1097 Zr 0.23111 0.25547 0.20143
 O1098 O 0.26266 0.28575 0.22575
 Zr1099 Zr 0.25974 0.24479 0.31097
 O1100 O 0.22892 0.21314 0.28680
 Zr1101 Zr 0.30053 0.25922 0.24544
 O1102 O 0.27120 0.22942 0.21737
 Zr1103 Zr 0.23934 0.30584 0.26519
 O1104 O 0.20671 0.27783 0.23904
 O1105 O 0.21300 0.21868 0.22833
 O1106 O 0.27848 0.28154 0.28406
 C1107 C 0.24089 0.18743 0.17345
 C1108 C 0.18554 0.16609 0.26119
 C1109 C 0.15691 0.24968 0.20255
 C1110 C 0.25286 0.31365 0.33752
 C1111 C 0.33291 0.25427 0.31202
 C1112 C 0.30670 0.33289 0.25227
 H1113 H 0.30130 0.20822 0.28139
 H1114 H 0.27017 0.30214 0.21094
 H1115 H 0.19854 0.20498 0.21581
 H1116 H 0.20753 0.27952 0.31215
 H1117 H 0.21977 0.21346 0.34495
 H1118 H 0.17470 0.23936 0.32667
 H1119 H 0.31701 0.28537 0.19230
 H1120 H 0.27799 0.25687 0.16242
 H1121 H 0.28079 0.18945 0.32770
 H1122 H 0.25426 0.15664 0.29496
 H1123 H 0.23610 0.34360 0.21672
 H1124 H 0.20381 0.30850 0.18630
 H1125 H 0.30348 0.17737 0.21728
 H1126 H 0.33958 0.21104 0.24416
 H1127 H 0.15581 0.29060 0.26907
 H1128 H 0.18978 0.32684 0.29580
 O1129 O 0.80189 0.67968 0.22685
 O1130 O 0.80345 0.70903 0.17805
 O1131 O 0.82765 0.75623 0.29230
 O1132 O 0.80593 0.79606 0.31709
 O1133 O 0.74884 0.68704 0.31070
 O1134 O 0.69490 0.68645 0.29326
 O1135 O 0.73172 0.84452 0.23154
 O1136 O 0.78615 0.84294 0.24330
 O1137 O 0.71456 0.77722 0.16163
 O1138 O 0.72320 0.72368 0.15329
 O1139 O 0.65797 0.78123 0.24488
 O1140 O 0.66415 0.76259 0.29858
 O1141 O 0.69208 0.82673 0.26310
 O1142 O 0.69344 0.79646 0.31530
 O1143 O 0.66752 0.75622 0.19767
 O1144 O 0.69292 0.70250 0.18308
 O1145 O 0.74530 0.81771 0.17954
 O1146 O 0.80070 0.81916 0.19888
 O1147 O 0.76092 0.66108 0.25616
 O1148 O 0.70394 0.66609 0.24815
 O1149 O 0.77933 0.72735 0.32979
 O1150 O 0.76223 0.78613 0.33499
 O1151 O 0.83658 0.72566 0.24840
 O1152 O 0.83030 0.74730 0.19510
 Zr1153 Zr 0.79340 0.72885 0.22327
 O1154 O 0.76317 0.76083 0.19932
 Zr1155 Zr 0.77769 0.76204 0.29338
 O1156 O 0.74762 0.79647 0.27224
 Zr1157 Zr 0.73375 0.70224 0.26607
 O1158 O 0.70106 0.73386 0.24506
 Zr1159 Zr 0.76061 0.80390 0.22485
 O1160 O 0.79368 0.77306 0.24732
 Zr1161 Zr 0.71630 0.74405 0.19887
 O1162 O 0.74759 0.70965 0.21876
 Zr1163 Zr 0.70153 0.77790 0.26908
 O1164 O 0.73100 0.74456 0.29304
 O1165 O 0.78007 0.71878 0.26946
 O1166 O 0.71394 0.78787 0.22230
 C1167 C 0.78693 0.65722 0.24073
 C1168 C 0.84590 0.73959 0.27396
 C1169 C 0.76616 0.69995 0.33214
 C1170 C 0.70593 0.84861 0.24736
 C1171 C 0.72800 0.80423 0.15828
 C1172 C 0.64921 0.77063 0.21765
 H1173 H 0.77131 0.76361 0.17753
 H1174 H 0.67982 0.72407 0.24526
 H1175 H 0.79505 0.70367 0.27972
 H1176 H 0.74835 0.81660 0.28450
 H1177 H 0.80460 0.83393 0.25494
 H1178 H 0.80443 0.81572 0.30440
 H1179 H 0.67522 0.69844 0.19788
 H1180 H 0.71062 0.66185 0.22597
 H1181 H 0.80303 0.80529 0.17994
 H1182 H 0.83754 0.76696 0.20585
 H1183 H 0.65663 0.74205 0.29001
 H1184 H 0.69127 0.70265 0.31008
 H1185 H 0.78526 0.69532 0.17244
 H1186 H 0.74605 0.72559 0.14831
 H1187 H 0.74498 0.77335 0.34423
 H1188 H 0.70719 0.81517 0.31829
 O1189 O 0.68941 0.32395 0.76469
 O1190 O 0.68580 0.30860 0.70903
 O1191 O 0.67529 0.23707 0.81230
 O1192 O 0.69797 0.18904 0.81596
 O1193 O 0.75622 0.29670 0.83981
 O1194 O 0.80556 0.30789 0.81424
 O1195 O 0.76296 0.16572 0.72126
 O1196 O 0.70899 0.16409 0.73830
 O1197 O 0.77293 0.24661 0.66809
 O1198 O 0.75497 0.30495 0.67695
 O1199 O 0.83732 0.22974 0.73956
 O1200 O 0.83733 0.23505 0.79718
 O1201 O 0.80661 0.17970 0.74978
 O1202 O 0.81232 0.19597 0.80700
 O1203 O 0.81970 0.26249 0.70045
 O1204 O 0.79585 0.31503 0.70011
 O1205 O 0.74194 0.20364 0.67658
 O1206 O 0.69158 0.19423 0.69955
 O1207 O 0.73367 0.33723 0.79302
 O1208 O 0.78855 0.33820 0.77966
 O1209 O 0.72468 0.25399 0.84789
 O1210 O 0.74346 0.19880 0.83834
 O1211 O 0.65835 0.27106 0.77385
 O1212 O 0.65950 0.26733 0.71789
 Zr1213 Zr 0.69926 0.27820 0.74670
 O1214 O 0.72630 0.25368 0.71224
 Zr1215 Zr 0.72395 0.22997 0.80387
 O1216 O 0.75225 0.20343 0.77189
 Zr1217 Zr 0.76316 0.29643 0.78981
 O1218 O 0.79317 0.27305 0.75685
 Zr1219 Zr 0.73299 0.20608 0.72580
 O1220 O 0.70245 0.22963 0.75848
 Zr1221 Zr 0.77218 0.27248 0.71139
 O1222 O 0.74405 0.29967 0.74347
 Zr1223 Zr 0.79709 0.22481 0.76868
 O1224 O 0.77001 0.24900 0.80374
 O1225 O 0.71783 0.27757 0.79263
 O1226 O 0.77858 0.22476 0.72264
 C1227 C 0.70588 0.34330 0.78155
 C1228 C 0.65372 0.25383 0.79832
 C1229 C 0.73964 0.27862 0.85782
 C1230 C 0.79092 0.16006 0.73248
 C1231 C 0.75911 0.22107 0.65866
 C1232 C 0.84117 0.24512 0.71368
 H1233 H 0.71567 0.25549 0.69134
 H1234 H 0.81409 0.28351 0.75679
 H1235 H 0.70407 0.28892 0.80812
 H1236 H 0.75378 0.18114 0.77905
 H1237 H 0.69068 0.17065 0.75167
 H1238 H 0.70608 0.17123 0.80271
 H1239 H 0.81062 0.31975 0.71781
 H1240 H 0.78136 0.34524 0.75839
 H1241 H 0.68470 0.21319 0.68748
 H1242 H 0.65482 0.24462 0.72145
 H1243 H 0.84454 0.25661 0.79168
 H1244 H 0.81275 0.28824 0.82505
 H1245 H 0.70329 0.32389 0.70638
 H1246 H 0.73831 0.29424 0.66429
 H1247 H 0.76342 0.20843 0.84611
 H1248 H 0.79799 0.17755 0.80814
 C1249 C 0.07853 1.00140 1.19154
 C1250 C 0.09042 1.00032 1.16216
 C1251 C 0.06973 1.00192 1.13396
 C1252 C 0.08153 0.99508 1.10526
 H1253 H 0.11585 0.99726 1.15894
 H1254 H 0.04473 1.00779 1.13677
 H1255 H 0.05313 1.00445 1.19485
 H1256 H 0.10637 0.98823 1.10308
 C1257 C 0.60425 0.49415 0.68311
 C1258 C 0.58111 0.51516 0.67626
 C1259 C 0.56547 0.51736 0.64490
 C1260 C 0.57956 0.50908 0.61742
 H1261 H 0.57271 0.53127 0.69468
 H1262 H 0.54172 0.52759 0.64463
 H1263 H 0.61182 0.47685 0.66544
 H1264 H 0.60384 0.50025 0.61730
 C1265 C 0.42546 -0.00570 0.70560
 C1266 C 0.41385 -0.00272 0.67610
 C1267 C 0.43435 -0.00422 0.64785
 C1268 C 0.42243 0.00352 0.61939
 H1269 H 0.38861 0.00185 0.67285
 H1270 H 0.45913 -0.01111 0.65040
 H1271 H 0.45066 -0.01023 0.70907
 H1272 H 0.39772 0.01100 0.61754
 C1273 C -0.08535 0.49150 1.18308
 C1274 C -0.10030 0.48760 1.15518
 C1275 C -0.08461 0.48620 1.12422
 C1276 C -0.05404 0.47838 1.11970
 H1277 H -0.12608 0.48795 1.15459
 H1278 H -0.09971 0.49169 1.10402
 H1279 H -0.05973 0.49329 1.18441
 H1280 H -0.03907 0.47092 1.13933
 C1281 C -0.09299 0.50602 0.30306
 C1282 C -0.06237 0.51112 0.31034
 C1283 C -0.04916 0.51247 0.34295
 C1284 C -0.06422 0.50288 0.36921
 H1285 H -0.04551 0.51534 0.29156
 H1286 H -0.02491 0.52068 0.34486
 H1287 H -0.11045 0.50397 0.32168
 H1288 H -0.08811 0.49377 0.36786
 C1289 C 0.40972 1.00234 -0.17655
 C1290 C 0.44167 1.00634 -0.16789
 C1291 C 0.45365 1.00786 -0.13679
 C1292 C 0.43709 1.00068 -0.10885
 H1293 H 0.45903 1.01025 -0.18627
 H1294 H 0.47858 1.01388 -0.13488
 H1295 H 0.39174 1.00236 -0.15824
 H1296 H 0.41285 0.99241 -0.11016
 C1297 C 0.60230 0.48575 -0.19588
 C1298 C 0.57233 0.47638 -0.19067
 C1299 C 0.55749 0.47358 -0.15878
 C1300 C 0.57090 0.48305 -0.13132
 H1301 H 0.55722 0.47041 -0.21061
 H1302 H 0.53347 0.46456 -0.15844
 H1303 H 0.61795 0.49055 -0.17609
 H1304 H 0.59447 0.49294 -0.13101
 C1305 C 0.08889 -0.00694 0.31086
 C1306 C 0.05885 -0.01485 0.31769
 C1307 C 0.04465 -0.01401 0.34974
 C1308 C 0.05636 0.00223 0.37461
 H1309 H 0.04337 -0.02334 0.29898
 H1310 H 0.02235 -0.02636 0.35219
 H1311 H 0.10543 -0.00107 0.32968
 H1312 H 0.07821 0.01534 0.37248
 C1313 C 0.19394 1.08171 0.99489
 C1314 C 0.18512 1.06076 1.01683
 C1315 C 0.15532 1.04287 1.01358
 C1316 C 0.12992 1.05531 0.99866
 H1317 H 0.19988 1.05674 1.03759
 H1318 H 0.15379 1.02005 1.02521
 H1319 H 0.18043 1.08367 0.97301
 H1320 H 0.13069 1.07926 0.98945
 C1321 C 0.69430 0.60181 0.49010
 C1322 C 0.68571 0.57981 0.51110
 C1323 C 0.65512 0.56315 0.51001
 C1324 C 0.62840 0.57551 0.49738
 H1325 H 0.70216 0.57308 0.52983
 H1326 H 0.65444 0.54048 0.52200
 H1327 H 0.67871 0.60799 0.47051
 H1328 H 0.62833 0.59902 0.48709
 C1329 C 0.69494 0.40972 0.00299
 C1330 C 0.66538 0.39473 0.00609
 C1331 C 0.63530 0.40855 0.00167
 C1332 C 0.62895 0.43903 -0.01022
 H1333 H 0.66547 0.37003 0.01330
 H1334 H 0.61542 0.39359 0.00762
 H1335 H 0.69597 0.43451 -0.00360
 H1336 H 0.64819 0.45366 -0.01843
 C1337 C 0.18382 -0.08252 0.49956
 C1338 C 0.15558 -0.09698 0.49736
 C1339 C 0.12423 -0.08092 0.49767
 C1340 C 0.11899 -0.05024 0.49082
 H1341 H 0.15514 -0.12274 0.49714
 H1342 H 0.10424 -0.09598 0.50294
 H1343 H 0.18523 -0.05691 0.50126
 H1344 H 0.13844 -0.03521 0.48388
 C1345 C 0.30492 -0.09055 0.50830
 C1346 C 0.31218 -0.05990 0.51337
 C1347 C 0.34475 -0.04668 0.51405
 C1348 C 0.37155 -0.06222 0.50558
 H1349 H 0.29336 -0.04281 0.51793
 H1350 H 0.34617 -0.02194 0.52119
 H1351 H 0.32368 -0.10807 0.50532
 H1352 H 0.37083 -0.08675 0.49782
 C1353 C -0.18676 0.40268 1.00872
 C1354 C -0.17925 0.43507 1.01027
 C1355 C -0.14834 0.44740 1.00956
 C1356 C -0.12073 0.43057 1.00041
 H1357 H -0.19817 0.45223 1.01427
 H1358 H -0.14634 0.47250 1.01507
 H1359 H -0.16763 0.38529 1.00898
 H1360 H -0.12260 0.40646 0.99150
 C1361 C -0.18646 0.59795 0.49761
 C1362 C -0.15904 0.61271 0.49187
 C1363 C -0.12788 0.59618 0.49054
 C1364 C -0.12384 0.56560 0.48190
 H1365 H -0.15863 0.63821 0.48918
 H1366 H -0.10732 0.61044 0.49623
 H1367 H -0.18644 0.57244 0.50084
 H1368 H -0.14400 0.55163 0.47434
 C1369 C 0.31195 1.09064 0.00381
 C1370 C 0.33883 1.10738 0.00502
 C1371 C 0.37072 1.09230 0.00787
 C1372 C 0.37705 1.06207 -0.00071
 H1373 H 0.33793 1.13305 0.00523
 H1374 H 0.38971 1.10710 0.01681
 H1375 H 0.31317 1.06500 0.00519
 H1376 H 0.35880 1.04756 -0.01141
 C1377 C 0.00786 1.17895 1.07768
 C1378 C 0.03220 1.17066 1.05895
 C1379 C 0.03414 1.13917 1.04380
 C1380 C 0.02302 1.11304 1.05784
 H1381 H 0.05067 1.18763 1.05392
 H1382 H 0.04517 1.13767 1.02061
 H1383 H -0.01172 1.16275 1.08074
 H1384 H 0.01388 1.11426 1.08187
 C1385 C 0.49937 0.69424 0.59296
 C1386 C 0.49711 0.66596 0.60740
 C1387 C 0.49877 0.63467 0.59123
 C1388 C 0.51046 0.62986 0.56199
 H1389 H 0.49300 0.66555 0.63280
 H1390 H 0.49069 0.61455 0.60481
 H1391 H 0.50218 0.69570 0.56749
 H1392 H 0.51955 0.64952 0.54847
 C1393 C -0.01918 0.70137 0.41956
 C1394 C -0.01799 0.67162 0.40854
 C1395 C -0.01907 0.64426 0.42989
 C1396 C -0.01141 0.61558 0.41854
 H1397 H -0.01434 0.66750 0.38332
 H1398 H -0.02448 0.64772 0.45486
 H1399 H -0.02212 0.70573 0.44481
 H1400 H -0.00508 0.61295 0.39367
 C1401 C 0.49101 1.18204 -0.08626
 C1402 C 0.48984 1.15366 -0.10103
 C1403 C 0.49161 1.12305 -0.08467
 C1404 C 0.48396 1.11953 -0.05419
 H1405 H 0.49001 1.15270 -0.12678
 H1406 H 0.49930 1.10267 -0.09866
 H1407 H 0.49295 1.18394 -0.06068
 H1408 H 0.47454 1.13936 -0.04050
 C1409 C 0.50169 0.30142 -0.09174
 C1410 C 0.51031 0.32666 -0.10884
 C1411 C 0.51213 0.35914 -0.09564
 C1412 C 0.52013 0.36583 -0.06546
 H1413 H 0.51422 0.32453 -0.13408
 H1414 H 0.50694 0.37831 -0.11198
 H1415 H 0.49706 0.30429 -0.06658
 H1416 H 0.52734 0.34696 -0.04951
 C1417 C -0.00970 -0.18094 0.40828
 C1418 C -0.00808 -0.15467 0.39059
 C1419 C -0.00779 -0.12242 0.40475
 C1420 C 0.00367 -0.11632 0.43393
 H1421 H -0.00890 -0.15621 0.36497
 H1422 H -0.01689 -0.10315 0.39026
 H1423 H -0.01149 -0.17869 0.43386
 H1424 H 0.01457 -0.13516 0.44775
 C1425 C 0.49938 -0.18459 0.59815
 C1426 C 0.49204 -0.17770 0.56796
 C1427 C 0.48931 -0.14527 0.55476
 C1428 C 0.49434 -0.11786 0.57063
 H1429 H 0.48654 -0.19676 0.55153
 H1430 H 0.48274 -0.14441 0.52986
 H1431 H 0.50358 -0.16577 0.61519
 H1432 H 0.50154 -0.11780 0.59531
 C1433 C -0.00200 0.29944 1.07750
 C1434 C -0.00746 0.30515 1.04655
 C1435 C -0.01049 0.33752 1.03311
 C1436 C 0.00094 0.36345 1.04761
 H1437 H -0.01069 0.28565 1.03006
 H1438 H -0.02128 0.33961 1.00979
 H1439 H -0.00101 0.31895 1.09428
 H1440 H 0.01325 0.36145 1.07012
 C1441 C 0.75875 0.34148 0.07111
 C1442 C 0.78290 0.31951 0.07847
 C1443 C 0.78588 0.30488 0.10845
 C1444 C 0.77136 0.31609 0.13663
 H1445 H 0.79845 0.31102 0.05977
 H1446 H 0.80115 0.28401 0.10974
 H1447 H 0.74095 0.34630 0.08906
 H1448 H 0.76027 0.33943 0.13698
 C1449 C 0.24323 0.83591 0.56126
 C1450 C 0.27037 0.82323 0.57243
 C1451 C 0.27144 0.80612 0.60327
 C1452 C 0.25278 0.81467 0.62786
 H1453 H 0.29218 0.82530 0.55913
 H1454 H 0.28893 0.78725 0.60614
 H1455 H 0.22154 0.83218 0.57448
 H1456 H 0.23718 0.83522 0.62563
 C1457 C 0.75986 0.67563 0.55662
 C1458 C 0.73667 0.68994 0.57325
 C1459 C 0.74322 0.70407 0.60448
 C1460 C 0.72041 0.71891 0.62118
 H1461 H 0.71235 0.68968 0.56464
 H1462 H 0.76668 0.70060 0.61478
 H1463 H 0.78435 0.67749 0.56442
 H1464 H 0.69731 0.72351 0.61055
 C1465 C 0.25248 0.16378 0.05943
 C1466 C 0.24303 0.15544 0.08853
 C1467 C 0.24540 0.17711 0.11598
 C1468 C 0.24081 0.16635 0.14544
 H1469 H 0.23308 0.13212 0.09228
 H1470 H 0.25048 0.20199 0.11207
 H1471 H 0.26454 0.18609 0.05595
 H1472 H 0.23739 0.14115 0.14923
 C1473 C 0.25711 0.16949 0.94838
 C1474 C 0.24712 0.16436 0.91850
 C1475 C 0.25032 0.18704 0.89220
 C1476 C 0.23730 0.17926 0.86415
 H1477 H 0.23573 0.14207 0.91279
 H1478 H 0.26290 0.20915 0.89551
 H1479 H 0.27052 0.19055 0.95429
 H1480 H 0.22518 0.15671 0.86184
 C1481 C 0.77106 0.68078 0.44655
 C1482 C 0.77153 0.67087 0.41644
 C1483 C 0.77635 0.69224 0.38948
 C1484 C 0.77091 0.68059 0.36048
 H1485 H 0.76531 0.64636 0.41135
 H1486 H 0.78042 0.71738 0.39330
 H1487 H 0.77853 0.70451 0.45305
 H1488 H 0.76549 0.65553 0.35780
 C1489 C 0.25673 0.83778 0.44771
 C1490 C 0.23606 0.82465 0.42729
 C1491 C 0.24553 0.81120 0.39621
 C1492 C 0.22501 0.79326 0.37989
 H1493 H 0.21094 0.82502 0.43301
 H1494 H 0.26847 0.81688 0.38623
 H1495 H 0.28205 0.83574 0.44347
 H1496 H 0.20303 0.78623 0.39111
 C1497 C 0.76723 0.32924 0.96074
 C1498 C 0.74651 0.31616 0.93811
 C1499 C 0.75608 0.30563 0.90794
 C1500 C 0.73584 0.28626 0.89002
 H1501 H 0.72159 0.31411 0.94424
 H1502 H 0.77910 0.31217 0.89870
 H1503 H 0.79255 0.32467 0.95869
 H1504 H 0.71632 0.27510 0.90232
 C1505 C 0.83098 0.44986 0.25442
 C1506 C 0.84075 0.41955 0.25253
 C1507 C 0.81960 0.39219 0.25507
 C1508 C 0.83254 0.36309 0.25323
 H1509 H 0.86548 0.41460 0.24681
 H1510 H 0.79410 0.39562 0.25694
 H1511 H 0.80711 0.45603 0.26201
 H1512 H 0.85823 0.36044 0.25262
 C1513 C 0.33813 0.94797 0.77103
 C1514 C 0.32439 0.92877 0.74952
 C1515 C 0.30975 0.89826 0.75822
 C1516 C 0.29106 0.88286 0.73749
 H1517 H 0.32549 0.93474 0.72452
 H1518 H 0.31557 0.88762 0.78093
 H1519 H 0.33541 0.94332 0.79615
 H1520 H 0.28392 0.89457 0.71568
 C1521 C 0.16079 0.93716 0.24897
 C1522 C 0.17548 0.92768 0.27570
 C1523 C 0.19176 0.89613 0.27779
 C1524 C 0.18064 0.87033 0.26254
 H1525 H 0.17614 0.94311 0.29634
 H1526 H 0.21247 0.89402 0.29302
 H1527 H 0.16209 0.92178 0.22824
 H1528 H 0.15865 0.87230 0.24917
 C1529 C 0.68917 0.44791 0.75282
 C1530 C 0.68782 0.43092 0.77938
 C1531 C 0.70627 0.40121 0.78167
 C1532 C 0.69122 0.37433 0.78814
 H1533 H 0.66915 0.43569 0.79654
 H1534 H 0.73045 0.40036 0.77283
 H1535 H 0.70528 0.44057 0.73402
 H1536 H 0.66593 0.37508 0.79311
 C1537 C 0.66951 0.55681 0.76053
 C1538 C 0.68351 0.57614 0.73991
 C1539 C 0.69545 0.60746 0.74938
 C1540 C 0.71164 0.62480 0.72861
 H1541 H 0.68504 0.56931 0.71506
 H1542 H 0.68964 0.61697 0.77269
 H1543 H 0.66966 0.56232 0.78572
 H1544 H 0.71831 0.61453 0.70584
 C1545 C 0.16233 0.05088 0.26068
 C1546 C 0.15352 0.08143 0.25719
 C1547 C 0.17559 0.10807 0.26203
 C1548 C 0.16463 0.13816 0.26200
 H1549 H 0.12951 0.08702 0.24935
 H1550 H 0.20088 0.10316 0.26388
 H1551 H 0.18542 0.04491 0.27058
 H1552 H 0.13919 0.14256 0.26130
 C1553 C 0.34665 0.06242 0.76515
 C1554 C 0.35805 0.09055 0.75551
 C1555 C 0.34116 0.12159 0.75652
 C1556 C 0.30962 0.12536 0.75901
 H1557 H 0.38193 0.09143 0.74607
 H1558 H 0.35567 0.14227 0.75244
 H1559 H 0.32421 0.06114 0.77749
 H1560 H 0.29468 0.10490 0.76243
 C1561 C 0.83830 0.56235 0.24168
 C1562 C 0.84757 0.58949 0.22806
 C1563 C 0.83102 0.62041 0.23004
 C1564 C 0.80112 0.62504 0.23994
 H1565 H 0.86974 0.58994 0.21512
 H1566 H 0.84454 0.64046 0.22175
 H1567 H 0.81791 0.56195 0.25722
 H1568 H 0.78705 0.60541 0.24821
 C1569 C 0.94828 0.24942 0.15260
 C1570 C 0.91950 0.24130 0.14129
 C1571 C 0.88875 0.24606 0.15749
 C1572 C 0.88539 0.25294 0.18839
 H1573 H 0.91793 0.22975 0.11825
 H1574 H 0.86784 0.24083 0.14336
 H1575 H 0.95072 0.26360 0.17398
 H1576 H 0.90600 0.25771 0.20306
 C1577 C 0.43494 0.76723 0.66318
 C1578 C 0.40674 0.76313 0.64898
 C1579 C 0.37547 0.76843 0.66374
 C1580 C 0.37039 0.77689 0.69412
 H1581 H 0.40610 0.75344 0.62505
 H1582 H 0.35544 0.76202 0.64884
 H1583 H 0.43694 0.77878 0.68611
 H1584 H 0.38970 0.78413 0.70947
 C1585 C 0.44260 0.25074 0.83013
 C1586 C 0.41229 0.24640 0.83823
 C1587 C 0.38578 0.24901 0.81566
 C1588 C 0.35613 0.24680 0.82656
 H1589 H 0.40681 0.23925 0.86231
 H1590 H 0.39037 0.25143 0.79047
 H1591 H 0.44869 0.26000 0.80701
 H1592 H 0.35203 0.24589 0.85198
 C1593 C 0.94395 0.76756 0.32996
 C1594 C 0.92287 0.74607 0.31616
 C1595 C 0.89401 0.75563 0.30281
 C1596 C 0.87764 0.73515 0.28250
 H1597 H 0.92904 0.72095 0.31597
 H1598 H 0.88433 0.77905 0.30819
 H1599 H 0.94256 0.79240 0.32337
 H1600 H 0.89056 0.71534 0.27182
 C1601 C 0.05310 0.75661 0.34295
 C1602 C 0.08052 0.74297 0.35259
 C1603 C 0.11128 0.74331 0.33576
 C1604 C 0.11591 0.75225 0.30559
 H1605 H 0.08130 0.73088 0.37519
 H1606 H 0.13129 0.73426 0.34937
 H1607 H 0.05233 0.77107 0.32180
 H1608 H 0.09637 0.76135 0.29141
 C1609 C 0.55625 0.24504 0.83969
 C1610 C 0.58399 0.23651 0.85322
 C1611 C 0.61560 0.24026 0.83930
 C1612 C 0.62140 0.25344 0.81116
 H1613 H 0.58401 0.22523 0.87627
 H1614 H 0.63515 0.23062 0.85320
 H1615 H 0.55522 0.25833 0.81784
 H1616 H 0.60255 0.26397 0.79709
 C1617 C 0.54728 0.76326 0.67749
 C1618 C 0.56528 0.74174 0.69256
 C1619 C 0.59591 0.75060 0.70653
 C1620 C 0.61417 0.72905 0.72123
 H1621 H 0.55887 0.71685 0.69201
 H1622 H 0.60482 0.77431 0.70239
 H1623 H 0.55282 0.78830 0.67938
 H1624 H 0.60490 0.70575 0.72652
 C1625 C 0.06404 0.25505 0.14929
 C1626 C 0.09327 0.25064 0.13701
 C1627 C 0.12337 0.25543 0.15447
 C1628 C 0.12608 0.25064 0.18574
 H1629 H 0.09558 0.24213 0.11275
 H1630 H 0.14454 0.25896 0.14043
 H1631 H 0.06080 0.26647 0.17219
 H1632 H 0.10509 0.24537 0.19950
 C1633 C -0.09182 1.00651 0.80567
 C1634 C -0.07340 0.98172 0.81373
 C1635 C -0.05488 0.98113 0.84349
 C1636 C -0.06448 0.99644 0.86987
 H1637 H -0.07109 0.96160 0.79766
 H1638 H -0.03355 0.96645 0.84391
 H1639 H -0.09258 1.02740 0.82087
 H1640 H -0.08708 1.00903 0.87028
 C1641 C 0.43035 0.49555 0.29638
 C1642 C 0.42076 0.49467 0.32659
 C1643 C 0.44333 0.49380 0.35349
 C1644 C 0.43227 0.49624 0.38312
 H1645 H 0.39546 0.49524 0.33156
 H1646 H 0.46868 0.49226 0.34910
 H1647 H 0.45555 0.49539 0.29110
 H1648 H 0.40683 0.49876 0.38672
 C1649 C 0.59328 0.01342 0.32005
 C1650 C 0.56766 -0.00436 0.32497
 C1651 C 0.55029 -0.00324 0.35512
 C1652 C 0.56522 -0.00068 0.38317
 H1653 H 0.55853 -0.01942 0.30614
 H1654 H 0.52478 -0.00640 0.35416
 H1655 H 0.60167 0.02908 0.33878
 H1656 H 0.59096 -0.00062 0.38432
 C1657 C 0.08682 0.50398 0.80474
 C1658 C 0.10273 0.50535 0.83245
 C1659 C 0.08807 0.50336 0.86407
 C1660 C 0.05755 0.51013 0.87013
 H1661 H 0.12850 0.50524 0.83206
 H1662 H 0.10373 0.49624 0.88332
 H1663 H 0.06120 0.50214 0.80417
 H1664 H 0.04204 0.51904 0.85156
 C1665 C 0.08924 0.49549 0.68356
 C1666 C 0.05817 0.49220 0.67695
 C1667 C 0.04438 0.49105 0.64447
 C1668 C 0.05910 0.50083 0.61807
 H1669 H 0.04149 0.48889 0.69607
 H1670 H 0.02021 0.48259 0.64272
 H1671 H 0.10623 0.49672 0.66442
 H1672 H 0.08279 0.51047 0.61941
 C1673 C 0.59841 1.00497 0.19985
 C1674 C 0.56800 0.99728 0.19393
 C1675 C 0.55335 0.99445 0.16201
 C1676 C 0.56684 1.00378 0.13488
 H1677 H 0.55249 0.99165 0.21347
 H1678 H 0.52954 0.98491 0.16132
 H1679 H 0.61486 1.00843 0.18058
 H1680 H 0.59027 1.01404 0.13500
 C1681 C 0.40961 0.50112 0.17801
 C1682 C 0.43810 0.51214 0.16916
 C1683 C 0.45027 0.51365 0.13625
 C1684 C 0.43698 0.49983 0.11070
 H1685 H 0.45410 0.52133 0.18710
 H1686 H 0.47269 0.52575 0.13359
 H1687 H 0.39223 0.49414 0.16039
 H1688 H 0.41491 0.48710 0.11281
 C1689 C -0.09883 0.00289 0.68572
 C1690 C -0.06957 0.01334 0.67906
 C1691 C -0.05602 0.01591 0.64683
 C1692 C -0.07136 0.00862 0.61983
 H1693 H -0.05427 0.02128 0.69818
 H1694 H -0.03169 0.02400 0.64570
 H1695 H -0.11515 -0.00373 0.66703
 H1696 H -0.09549 0.00017 0.62016
 C1697 C -0.18541 0.91631 1.00176
 C1698 C -0.15797 0.89987 1.00470
 C1699 C -0.12589 0.91345 1.00262
 C1700 C -0.11963 0.94156 0.98954
 H1701 H -0.15890 0.87458 1.00925
 H1702 H -0.10648 0.89869 1.01126
 H1703 H -0.18564 0.94175 0.99825
 H1704 H -0.13864 0.95623 0.98002
 C1705 C 0.30696 0.43427 0.50094
 C1706 C 0.33684 0.42393 0.49769
 C1707 C 0.36378 0.44557 0.49572
 C1708 C 0.39313 0.43338 0.49670
 H1709 H 0.34155 0.39851 0.49706
 H1710 H 0.35976 0.47103 0.49445
 H1711 H 0.30169 0.45954 0.50197
 H1712 H 0.39642 0.40788 0.49912
 C1713 C 0.30954 0.58039 -0.00791
 C1714 C 0.33793 0.59458 -0.00628
 C1715 C 0.36899 0.57835 -0.01009
 C1716 C 0.37393 0.54699 -0.00717
 H1717 H 0.33858 0.62023 -0.00381
 H1718 H 0.38907 0.59366 -0.01425
 H1719 H 0.30792 0.55499 -0.01158
 H1720 H 0.35463 0.53149 -0.00091
 C1721 C -0.19878 0.08820 0.50414
 C1722 C -0.18846 0.06589 0.52660
 C1723 C -0.15784 0.05204 0.52614
 C1724 C -0.13204 0.06501 0.50967
 H1725 H -0.20510 0.05789 0.54433
 H1726 H -0.15379 0.03129 0.54077
 H1727 H -0.18334 0.09246 0.48413
 H1728 H -0.13446 0.08833 0.49917
 C1729 C 0.68262 0.09286 0.50384
 C1730 C 0.67567 0.06061 0.49871
 C1731 C 0.64503 0.04768 0.49545
 C1732 C 0.61596 0.06421 0.49904
 H1733 H 0.69511 0.04378 0.49621
 H1734 H 0.64429 0.02237 0.49055
 H1735 H 0.66327 0.10994 0.50478
 H1736 H 0.61589 0.08925 0.50500
 C1737 C 0.19000 0.58354 0.98619
 C1738 C 0.16247 0.59812 0.99375
 C1739 C 0.13109 0.58217 0.99483
 C1740 C 0.12493 0.55310 0.98291
 H1741 H 0.16263 0.62264 1.00156
 H1742 H 0.11208 0.59552 1.00622
 H1743 H 0.19015 0.55854 0.98010
 H1744 H 0.14316 0.53970 0.97049
 C1745 C 0.18962 0.41182 0.51051
 C1746 C 0.17950 0.44033 0.52097
 C1747 C 0.14626 0.45177 0.52046
 C1748 C 0.12215 0.43743 0.50534
 H1749 H 0.19648 0.45700 0.53057
 H1750 H 0.14216 0.47457 0.53195
 H1751 H 0.17290 0.39390 0.50308
 H1752 H 0.12550 0.41475 0.49352
 C1753 C 0.69401 0.91890 0.00031
 C1754 C 0.66692 0.90297 -0.00446
 C1755 C 0.63470 0.91707 -0.00171
 C1756 C 0.62781 0.94360 0.01481
 H1757 H 0.66776 0.87837 -0.01193
 H1758 H 0.61566 0.90399 -0.01302
 H1759 H 0.69328 0.94424 0.00488
 H1760 H 0.64641 0.95659 0.02686
 C1761 C -0.01294 0.79225 0.91413
 C1762 C -0.01099 0.82242 0.90500
 C1763 C -0.01186 0.84940 0.92721
 C1764 C -0.00666 0.87824 0.91560
 H1765 H -0.00770 0.82730 0.87992
 H1766 H -0.01549 0.84577 0.95241
 H1767 H -0.01552 0.78645 0.93904
 H1768 H -0.00226 0.88080 0.89034
 C1769 C 0.50984 0.31862 0.40516
 C1770 C 0.48921 0.32807 0.42762
 C1771 C 0.49033 0.35932 0.44376
 C1772 C 0.50237 0.38547 0.43059
 H1773 H 0.47152 0.31154 0.43581
 H1774 H 0.47955 0.36083 0.46707
 H1775 H 0.52866 0.33422 0.39777
 H1776 H 0.51132 0.38469 0.40650
 C1777 C -0.01068 0.31400 0.58044
 C1778 C 0.01370 0.32203 0.56201
 C1779 C 0.01506 0.35307 0.54624
 C1780 C 0.00255 0.37962 0.55924
 H1781 H 0.03331 0.30548 0.55846
 H1782 H 0.02806 0.35415 0.52411
 H1783 H -0.03112 0.32979 0.58241
 H1784 H -0.00856 0.37891 0.58240
 C1785 C 0.50297 0.79561 0.07826
 C1786 C 0.50597 0.82535 0.08913
 C1787 C 0.50952 0.85300 0.06835
 C1788 C 0.51030 0.88185 0.08171
 H1789 H 0.50541 0.82946 0.11462
 H1790 H 0.51009 0.85003 0.04275
 H1791 H 0.50288 0.79074 0.05293
 H1792 H 0.50843 0.88405 0.10736
 C1793 C 0.49762 0.67742 0.10196
 C1794 C 0.49062 0.66576 0.07324
 C1795 C 0.49291 0.63152 0.06605
 C1796 C 0.48383 0.62095 0.03750
 H1797 H 0.48286 0.68167 0.05455
 H1798 H 0.50255 0.61527 0.08360
 H1799 H 0.50371 0.66127 0.12105
 H1800 H 0.47408 0.63773 0.02048
 C1801 C -0.00998 0.19446 0.58670
 C1802 C -0.00917 0.16766 0.60378
 C1803 C -0.00965 0.13552 0.58932
 C1804 C -0.02277 0.12910 0.56093
 H1805 H -0.00618 0.16859 0.62924
 H1806 H 0.00096 0.11647 0.60308
 H1807 H -0.01085 0.19294 0.56102
 H1808 H -0.03477 0.14769 0.54769
 C1809 C 0.51038 0.20080 0.42097
 C1810 C 0.50863 0.17084 0.41050
 C1811 C 0.50984 0.14397 0.43305
 C1812 C 0.50515 0.11432 0.42270
 H1813 H 0.50561 0.16583 0.38544
 H1814 H 0.51345 0.14856 0.45819
 H1815 H 0.51320 0.20484 0.44632
 H1816 H 0.50079 0.11038 0.39756
 C1817 C -0.01300 0.67537 0.88504
 C1818 C -0.00287 0.66356 0.91259
 C1819 C -0.00324 0.62942 0.91930
 C1820 C 0.01010 0.61913 0.94612
 H1821 H 0.00664 0.67942 0.93060
 H1822 H -0.01483 0.61313 0.90301
 H1823 H -0.02044 0.65957 0.86605
 H1824 H 0.02164 0.63604 0.96186
 C1825 C 0.24880 0.66801 0.94148
 C1826 C 0.22151 0.67783 0.92814
 C1827 C 0.22142 0.69664 0.89830
 C1828 C 0.24319 0.69140 0.87542
 H1829 H 0.19896 0.67105 0.93822
 H1830 H 0.20183 0.71303 0.89411
 H1831 H 0.27096 0.67601 0.93139
 H1832 H 0.26087 0.67275 0.87859
 C1833 C 0.73061 0.16441 0.45240
 C1834 C 0.74500 0.16009 0.42260
 C1835 C 0.74174 0.18066 0.39687
 C1836 C 0.75645 0.17198 0.36818
 H1837 H 0.75938 0.13893 0.41873
 H1838 H 0.72859 0.20284 0.39922
 H1839 H 0.71169 0.18188 0.45520
 H1840 H 0.76784 0.14872 0.36662
 C1841 C 0.24855 0.34344 0.45081
 C1842 C 0.25478 0.35010 0.42044
 C1843 C 0.25135 0.32659 0.39473
 C1844 C 0.25459 0.33574 0.36458
 H1845 H 0.26283 0.37361 0.41417
 H1846 H 0.24659 0.30200 0.40038
 H1847 H 0.23841 0.32078 0.45702
 H1848 H 0.25806 0.36067 0.35937
 C1849 C 0.74368 0.83717 0.94946
 C1850 C 0.76498 0.82320 0.93025
 C1851 C 0.75574 0.81025 0.89913
 C1852 C 0.77740 0.79648 0.88023
 H1853 H 0.79002 0.82333 0.93644
 H1854 H 0.73147 0.81356 0.89089
 H1855 H 0.71852 0.83561 0.94411
 H1856 H 0.80130 0.79203 0.88901
 C1857 C 0.73913 0.84922 0.06323
 C1858 C 0.74329 0.86334 0.09159
 C1859 C 0.73754 0.84872 0.12268
 C1860 C 0.72501 0.81998 0.12725
 H1861 H 0.75389 0.88668 0.09254
 H1862 H 0.74663 0.86196 0.14288
 H1863 H 0.72719 0.82672 0.06089
 H1864 H 0.71485 0.80661 0.10774
 C1865 C 0.26023 0.34506 0.56188
 C1866 C 0.23721 0.32421 0.56780
 C1867 C 0.23662 0.30536 0.59737
 C1868 C 0.24863 0.31617 0.62495
 H1869 H 0.21848 0.32011 0.55069
 H1870 H 0.22440 0.28284 0.59663
 H1871 H 0.27983 0.34712 0.57851
 H1872 H 0.25865 0.33974 0.62627
 C1873 C 0.73120 0.16415 0.56015
 C1874 C 0.75323 0.17741 0.58138
 C1875 C 0.74414 0.19059 0.61063
 C1876 C 0.76411 0.21148 0.62712
 H1877 H 0.77803 0.17832 0.57459
 H1878 H 0.72098 0.18513 0.62029
 H1879 H 0.70619 0.16977 0.56328
 H1880 H 0.78381 0.22185 0.61443
 C1881 C 0.23599 0.65410 0.05278
 C1882 C 0.25644 0.66556 0.07444
 C1883 C 0.24619 0.67873 0.10548
 C1884 C 0.26619 0.69656 0.12264
 H1885 H 0.28171 0.66485 0.06947
 H1886 H 0.22273 0.67349 0.11446
 H1887 H 0.21063 0.65676 0.05650
 H1888 H 0.28869 0.70332 0.11233
 C1889 C 0.16432 0.55238 0.72988
 C1890 C 0.17873 0.57229 0.75022
 C1891 C 0.19053 0.60387 0.74112
 C1892 C 0.20859 0.62009 0.76171
 H1893 H 0.18018 0.56596 0.77514
 H1894 H 0.18321 0.61439 0.71879
 H1895 H 0.16434 0.55714 0.70462
 H1896 H 0.21698 0.60832 0.78307
 C1897 C 0.67685 0.05538 0.25121
 C1898 C 0.69343 0.07136 0.27521
 C1899 C 0.70979 0.09956 0.27133
 C1900 C 0.69947 0.12416 0.25139
 H1901 H 0.69549 0.06012 0.29825
 H1902 H 0.72780 0.10467 0.28909
 H1903 H 0.68277 0.05935 0.22653
 H1904 H 0.67749 0.12166 0.23811
 C1905 C 0.83772 0.06521 0.73235
 C1906 C 0.85014 0.09458 0.74157
 C1907 C 0.83605 0.12425 0.73751
 C1908 C 0.80509 0.13037 0.72659
 H1909 H 0.87298 0.09503 0.75352
 H1910 H 0.85002 0.14385 0.74658
 H1911 H 0.81920 0.06403 0.71447
 H1912 H 0.79131 0.11189 0.71524
 C1913 C 0.34436 0.55865 0.24001
 C1914 C 0.35426 0.58754 0.24942
 C1915 C 0.33670 0.61818 0.24698
 C1916 C 0.30760 0.62303 0.23447
 H1917 H 0.37746 0.58956 0.26041
 H1918 H 0.34902 0.63819 0.25743
 H1919 H 0.32221 0.55605 0.22718
 H1920 H 0.29480 0.60364 0.22353
 C1921 C 0.33764 0.44604 0.23928
 C1922 C 0.34342 0.41577 0.24775
 C1923 C 0.31937 0.39039 0.24627
 C1924 C 0.32848 0.36013 0.25110
 H1925 H 0.36688 0.40922 0.25641
 H1926 H 0.29462 0.39637 0.24193
 H1927 H 0.31511 0.45251 0.22845
 H1928 H 0.35360 0.35474 0.25400
 C1929 C 0.82322 0.95440 0.74028
 C1930 C 0.80977 0.93633 0.76245
 C1931 C 0.79580 0.90547 0.75424
 C1932 C 0.78175 0.88784 0.77636
 H1933 H 0.81120 0.94313 0.78730
 H1934 H 0.79890 0.89615 0.73033
 H1935 H 0.82032 0.94846 0.71535
 H1936 H 0.77747 0.89766 0.79987
 C1937 C 0.67002 0.94681 0.25925
 C1938 C 0.68318 0.93635 0.23216
 C1939 C 0.69957 0.90492 0.23031
 C1940 C 0.69054 0.88021 0.24811
 H1941 H 0.68213 0.95071 0.21096
 H1942 H 0.71831 0.90180 0.21296
 H1943 H 0.67280 0.93259 0.28047
 H1944 H 0.67008 0.88270 0.26350
 C1945 C 0.16098 0.43692 0.74208
 C1946 C 0.17585 0.42721 0.71565
 C1947 C 0.19171 0.39550 0.71431
 C1948 C 0.17909 0.36980 0.72810
 H1949 H 0.17783 0.44282 0.69546
 H1950 H 0.21403 0.39342 0.70168
 H1951 H 0.16140 0.42118 0.76239
 H1952 H 0.15558 0.37154 0.73845
 C1953 C 0.05698 0.73538 0.83516
 C1954 C 0.08477 0.74032 0.85003
 C1955 C 0.11648 0.73837 0.83540
 C1956 C 0.12273 0.72965 0.80534
 H1957 H 0.08470 0.74777 0.87471
 H1958 H 0.13578 0.74615 0.85060
 H1959 H 0.05608 0.72621 0.81113
 H1960 H 0.10421 0.72085 0.78983
 C1961 C 0.55706 0.23739 0.32965
 C1962 C 0.58741 0.24607 0.33301
 C1963 C 0.61361 0.23672 0.31136
 C1964 C 0.64312 0.24383 0.32071
 H1965 H 0.59356 0.26096 0.35321
 H1966 H 0.60897 0.22581 0.28844
 H1967 H 0.55036 0.22060 0.31126
 H1968 H 0.64619 0.25419 0.34423
 C1969 C 0.54818 0.73717 0.17091
 C1970 C 0.56702 0.75992 0.18248
 C1971 C 0.59870 0.75273 0.19546
 C1972 C 0.61592 0.77577 0.20871
 H1973 H 0.56023 0.78469 0.17958
 H1974 H 0.60879 0.72906 0.19243
 H1975 H 0.55374 0.71234 0.17515
 H1976 H 0.60526 0.79891 0.21344
 C1977 C 0.04665 0.24960 0.66246
 C1978 C 0.07624 0.25658 0.65359
 C1979 C 0.10365 0.25292 0.67492
 C1980 C 0.13308 0.25536 0.66343
 H1981 H 0.08042 0.26575 0.62996
 H1982 H 0.09981 0.24887 0.70003
 H1983 H 0.04234 0.23820 0.68501
 H1984 H 0.13669 0.25763 0.63804
 C1985 C 0.93375 0.24768 0.66027
 C1986 C 0.90436 0.25381 0.64935
 C1987 C 0.87466 0.25059 0.66715
 C1988 C 0.87226 0.24296 0.69789
 H1989 H 0.90141 0.26304 0.62553
 H1990 H 0.85335 0.25685 0.65393
 H1991 H 0.93776 0.23618 0.68285
 H1992 H 0.89281 0.23564 0.71164
 C1993 C 0.43457 0.74331 0.16048
 C1994 C 0.40644 0.75445 0.14983
 C1995 C 0.37552 0.75269 0.16621
 C1996 C 0.37038 0.74090 0.19527
 H1997 H 0.40522 0.76572 0.12682
 H1998 H 0.35566 0.76265 0.15300
 H1999 H 0.43610 0.73007 0.18236
 H2000 H 0.38965 0.73060 0.20899
 C2001 C 0.44734 0.24218 0.33791
 C2002 C 0.41818 0.25409 0.34344
 C2003 C 0.39087 0.24865 0.32208
 C2004 C 0.36161 0.25654 0.33195
 H2005 H 0.41421 0.26879 0.36436
 H2006 H 0.39464 0.23891 0.29846
 H2007 H 0.45120 0.22563 0.31843
 H2008 H 0.35828 0.26462 0.35627
 C2009 C 0.94554 0.74244 0.81439
 C2010 C 0.92778 0.76667 0.80371
 C2011 C 0.89657 0.76089 0.78946
 C2012 C 0.87742 0.78499 0.78119
 H2013 H 0.93433 0.79096 0.80919
 H2014 H 0.88780 0.73673 0.78869
 H2015 H 0.93978 0.71824 0.80774
 H2016 H 0.88620 0.80910 0.78047
   
