data_POSCAR
  _audit_creation_date              2014-09-24
  _audit_creation_method            'ToBaCCo'
  _symmetry_space_group_name_H-M    'P1'
  _symmetry_Int_Tables_number       1
  _symmetry_cell_setting            triclinic
  loop_
  _symmetry_equiv_pos_as_xyz
 x,y,z
_cell_length_a 62.3381
_cell_length_b 61.4458
_cell_length_c 61.0848
_cell_angle_alpha 89.980400
_cell_angle_beta 90.498000
_cell_angle_gamma 90.038300
loop_
  _atom_site_label
  _atom_site_type_symbol
  _atom_site_fract_x
  _atom_site_fract_y
  _atom_site_fract_z
N1 N 0.29193 0.43559 0.89329
 N2 N 0.30420 0.45297 0.89307
 C3 C 0.29742 0.46648 0.87721
 C4 C 0.28006 0.45692 0.86672
 C5 C 0.27702 0.43730 0.87732
 H6 H 0.30543 0.48145 0.87287
 H7 H 0.26552 0.42477 0.87307
 Cu8 Cu 0.32991 0.45501 0.91087
 Cu9 Cu 0.29784 0.41145 0.91296
 Cu10 Cu 0.32960 0.42617 0.95755
 N11 N 0.35169 0.45921 0.93311
 N12 N 0.35143 0.44812 0.95150
 C13 C 0.36815 0.45438 0.96405
 C14 C 0.37960 0.47017 0.95271
 C15 C 0.36862 0.47281 0.93319
 H16 H 0.37178 0.44750 0.97994
 H17 H 0.37281 0.48364 0.91993
 N18 N 0.31141 0.39983 0.95710
 N19 N 0.29950 0.39430 0.94002
 C20 C 0.28933 0.37551 0.94432
 C21 C 0.29526 0.36872 0.96510
 C22 C 0.30938 0.38442 0.97268
 H23 H 0.27880 0.36720 0.93293
 H24 H 0.31778 0.38444 0.98825
 H25 H 0.30587 0.43482 0.93472
 H26 H 0.32887 0.41787 0.92538
 N27 N 0.44673 0.85077 0.45688
 N28 N 0.46144 0.84844 0.44177
 C29 C 0.47634 0.86411 0.44394
 C30 C 0.47107 0.87690 0.46161
 C31 C 0.45210 0.86798 0.46957
 H32 H 0.48995 0.86624 0.43326
 H33 H 0.44263 0.87384 0.48310
 Cu34 Cu 0.45994 0.82525 0.42053
 Cu35 Cu 0.42121 0.83172 0.45765
 Cu36 Cu 0.41888 0.79084 0.41783
 N37 N 0.45521 0.80756 0.39480
 N38 N 0.43927 0.79360 0.39383
 C39 C 0.44039 0.78248 0.37485
 C40 C 0.45798 0.79012 0.36337
 C41 C 0.46687 0.80609 0.37646
 H42 H 0.42938 0.76974 0.36996
 H43 H 0.48101 0.81569 0.37301
 N44 N 0.39645 0.79504 0.44010
 N45 N 0.39708 0.81046 0.45520
 C46 C 0.37911 0.80905 0.46737
 C47 C 0.36666 0.79198 0.45942
 C48 C 0.37817 0.78359 0.44219
 H49 H 0.37525 0.81979 0.48077
 H50 H 0.37332 0.77026 0.43171
 H51 H 0.43512 0.80504 0.44416
 H52 H 0.42132 0.82360 0.42462
 N53 N 0.95025 0.90050 0.78700
 N54 N 0.96494 0.90219 0.80246
 C55 C 0.97943 0.88616 0.80004
 C56 C 0.97344 0.87373 0.78219
 C57 C 0.95485 0.88332 0.77423
 H58 H 0.99267 0.88299 0.81114
 H59 H 0.94470 0.87760 0.76099
 Cu60 Cu 0.96230 0.92321 0.82598
 Cu61 Cu 0.92482 0.91876 0.78651
 Cu62 Cu 0.92632 0.96388 0.82059
 N63 N 0.96301 0.94854 0.84487
 N64 N 0.94903 0.96443 0.84280
 C65 C 0.95239 0.97899 0.85897
 C66 C 0.96936 0.97180 0.87183
 C67 C 0.97582 0.95246 0.86227
 H68 H 0.94266 0.99328 0.86173
 H69 H 0.98827 0.94156 0.86795
 N70 N 0.90456 0.95992 0.79720
 N71 N 0.90384 0.94257 0.78448
 C72 C 0.88637 0.94378 0.77141
 C73 C 0.87546 0.96269 0.77619
 C74 C 0.88746 0.97259 0.79261
 H75 H 0.88144 0.93142 0.75982
 H76 H 0.88359 0.98739 0.80125
 H77 H 0.94268 0.94420 0.79865
 H78 H 0.92425 0.93083 0.81844
 N79 N 0.43732 -0.11038 0.29884
 N80 N 0.45231 -0.10804 0.31393
 C81 C 0.46639 -0.12462 0.31233
 C82 C 0.46003 -0.13788 0.29518
 C83 C 0.44146 -0.12835 0.28703
 H84 H 0.48019 -0.12703 0.32291
 H85 H 0.43140 -0.13425 0.27380
 Cu86 Cu 0.45174 -0.08382 0.33450
 Cu87 Cu 0.41331 -0.09024 0.29588
 Cu88 Cu 0.41325 -0.04548 0.33036
 N89 N 0.44908 -0.06045 0.35585
 N90 N 0.43390 -0.04567 0.35438
 C91 C 0.43581 -0.03171 0.37130
 C92 C 0.45317 -0.03801 0.38399
 C93 C 0.46117 -0.05638 0.37374
 H94 H 0.42535 -0.01798 0.37418
 H95 H 0.47457 -0.06627 0.37902
 N96 N 0.39060 -0.05083 0.30834
 N97 N 0.39050 -0.06798 0.29534
 C98 C 0.37271 -0.06737 0.28266
 C99 C 0.36106 -0.04903 0.28794
 C100 C 0.37286 -0.03890 0.30433
 H101 H 0.36831 -0.07951 0.27061
 H102 H 0.36870 -0.02418 0.31298
 H103 H 0.42996 -0.06401 0.30752
 H104 H 0.41346 -0.07898 0.32801
 N105 N 0.79915 0.31094 0.35347
 N106 N 0.81403 0.29577 0.35334
 C107 C 0.81125 0.28259 0.37070
 C108 C 0.79377 0.28986 0.38232
 C109 C 0.78642 0.30792 0.37093
 H110 H 0.82145 0.26897 0.37496
 H111 H 0.77315 0.31834 0.37522
 Cu112 Cu 0.83618 0.29531 0.33109
 Cu113 Cu 0.79797 0.33402 0.33147
 Cu114 Cu 0.83724 0.33310 0.29160
 N115 N 0.85804 0.29481 0.30851
 N116 N 0.85816 0.30974 0.29309
 C117 C 0.87501 0.30640 0.27996
 C118 C 0.88613 0.28851 0.28751
 C119 C 0.87498 0.28146 0.30571
 H120 H 0.87924 0.31657 0.26620
 H121 H 0.87914 0.26803 0.31636
 N122 N 0.81475 0.35543 0.29269
 N123 N 0.79968 0.35585 0.30775
 C124 C 0.78719 0.37346 0.30431
 C125 C 0.79488 0.38454 0.28624
 C126 C 0.81229 0.37269 0.27936
 H127 H 0.77387 0.37813 0.31450
 H128 H 0.82263 0.37670 0.26583
 H129 H 0.81275 0.31656 0.30715
 H130 H 0.83028 0.33404 0.32475
 N131 N -0.19061 0.85355 0.79813
 N132 N -0.20472 0.85279 0.81403
 C133 C -0.21694 0.87080 0.81342
 C134 C -0.21036 0.88361 0.79621
 C135 C -0.19358 0.87214 0.78670
 H136 H -0.22969 0.87445 0.82475
 H137 H -0.18414 0.87691 0.77272
 Cu138 Cu -0.20613 0.82843 0.83415
 Cu139 Cu -0.16969 0.82997 0.79378
 Cu140 Cu -0.16451 0.79505 0.83822
 N141 N -0.20762 0.80217 0.85187
 N142 N -0.19110 0.78896 0.85304
 C143 C -0.19499 0.77328 0.86778
 C144 C -0.21499 0.77684 0.87646
 C145 C -0.22269 0.79533 0.86599
 H146 H -0.18348 0.76109 0.87291
 H147 H -0.23748 0.80385 0.86927
 N148 N -0.14356 0.79649 0.81471
 N149 N -0.14555 0.80894 0.79719
 C150 C -0.12892 0.80474 0.78375
 C151 C -0.11614 0.78884 0.79351
 C152 C -0.12591 0.78418 0.81302
 H153 H -0.12630 0.81265 0.76818
 H154 H -0.12068 0.77230 0.82499
 H155 H -0.18296 0.80502 0.81253
 H156 H -0.16766 0.82717 0.82653
 N157 N 0.95681 0.35305 0.44975
 N158 N 0.93954 0.35313 0.46195
 C159 C 0.94012 0.37093 0.47498
 C160 C 0.95882 0.38245 0.47070
 C161 C 0.96900 0.37044 0.45465
 H162 H 0.92770 0.37549 0.48635
 H163 H 0.98370 0.37441 0.44634
 Cu164 Cu 0.91803 0.32997 0.45860
 Cu165 Cu 0.96146 0.33203 0.42654
 Cu166 Cu 0.92325 0.29159 0.41955
 N167 N 0.89676 0.30665 0.45492
 N168 N 0.89876 0.29196 0.43940
 C169 C 0.88175 0.27838 0.43990
 C170 C 0.86844 0.28464 0.45676
 C171 C 0.87847 0.30272 0.46593
 H172 H 0.87914 0.26497 0.42873
 H173 H 0.87261 0.31258 0.47925
 N174 N 0.94922 0.29399 0.40118
 N175 N 0.96365 0.30952 0.40380
 C176 C 0.97864 0.30767 0.38813
 C177 C 0.97362 0.29002 0.37516
 C178 C 0.95483 0.28170 0.38386
 H179 H 0.99198 0.31868 0.38588
 H180 H 0.94545 0.26829 0.37751
 H181 H 0.92948 0.32445 0.42087
 H182 H 0.94435 0.30674 0.44062
 N183 N 0.45982 0.43954 0.84896
 N184 N 0.44489 0.45465 0.84916
 C185 C 0.44839 0.46756 0.86675
 C186 C 0.46649 0.45990 0.87785
 C187 C 0.47320 0.44224 0.86605
 H188 H 0.43826 0.48103 0.87140
 H189 H 0.48646 0.43163 0.87017
 Cu190 Cu 0.42223 0.45495 0.82650
 Cu191 Cu 0.46015 0.41596 0.82826
 Cu192 Cu 0.41960 0.41420 0.78954
 N193 N 0.39905 0.45346 0.80444
 N194 N 0.39852 0.43746 0.79012
 C195 C 0.38132 0.43979 0.77694
 C196 C 0.37032 0.45819 0.78309
 C197 C 0.38198 0.46658 0.80070
 H198 H 0.37688 0.42872 0.76390
 H199 H 0.37820 0.48093 0.81015
 N200 N 0.44242 0.39216 0.79155
 N201 N 0.45806 0.39317 0.80619
 C202 C 0.47063 0.37554 0.80424
 C203 C 0.46252 0.36279 0.78768
 C204 C 0.44463 0.37373 0.77985
 H205 H 0.48427 0.37175 0.81460
 H206 H 0.43370 0.36842 0.76711
 H207 H 0.44422 0.43202 0.80316
 H208 H 0.42728 0.41587 0.82242
 N209 N 0.79900 0.89390 0.95055
 N210 N 0.81662 0.89250 0.96246
 C211 C 0.81556 0.87465 0.97520
 C212 C 0.79622 0.86441 0.97118
 C213 C 0.78606 0.87708 0.95542
 H214 H 0.82808 0.86916 0.98625
 H215 H 0.77074 0.87406 0.94757
 Cu216 Cu 0.83930 0.91390 0.95958
 Cu217 Cu 0.79451 0.91707 0.92912
 Cu218 Cu 0.83740 0.95206 0.92036
 N219 N 0.86170 0.93558 0.95679
 N220 N 0.86102 0.95040 0.94126
 C221 C 0.87871 0.96295 0.94263
 C222 C 0.89102 0.95550 0.96000
 C223 C 0.87980 0.93820 0.96858
 H224 H 0.88232 0.97633 0.93177
 H225 H 0.88470 0.92815 0.98227
 N226 N 0.81187 0.95116 0.90129
 N227 N 0.79551 0.93793 0.90457
 C228 C 0.78117 0.94053 0.88815
 C229 C 0.78881 0.95624 0.87405
 C230 C 0.80830 0.96264 0.88286
 H231 H 0.76649 0.93131 0.88625
 H232 H 0.81941 0.97425 0.87602
 H233 H 0.82673 0.91996 0.92242
 H234 H 0.81552 0.94026 0.94199
 N235 N 0.29146 0.84503 0.30457
 N236 N 0.30701 0.84458 0.29018
 C237 C 0.30651 0.86295 0.27822
 C238 C 0.28967 0.87551 0.28538
 C239 C 0.28034 0.86363 0.30211
 H240 H 0.31758 0.86694 0.26529
 H241 H 0.26672 0.86813 0.31196
 Cu242 Cu 0.32618 0.81994 0.28809
 Cu243 Cu 0.28707 0.82132 0.32535
 Cu244 Cu 0.33257 0.78966 0.33284
 N245 N 0.34440 0.79442 0.28816
 N246 N 0.34658 0.78243 0.30584
 C247 C 0.36198 0.76756 0.30273
 C248 C 0.37000 0.77049 0.28204
 C249 C 0.35843 0.78758 0.27307
 H250 H 0.36819 0.75678 0.31528
 H251 H 0.36099 0.79539 0.25746
 N252 N 0.30973 0.79144 0.35428
 N253 N 0.29194 0.80272 0.35129
 C254 C 0.27938 0.80006 0.36893
 C255 C 0.28993 0.78631 0.38347
 C256 C 0.30901 0.78121 0.37365
 H257 H 0.26402 0.80788 0.37111
 H258 H 0.32153 0.77085 0.38021
 H259 H 0.31935 0.82072 0.32742
 H260 H 0.30704 0.79657 0.31366
 N261 N 0.78989 0.40641 0.44543
 N262 N 0.80392 0.40529 0.46158
 C263 C 0.79843 0.38888 0.47505
 C264 C 0.77999 0.37920 0.46678
 C265 C 0.77503 0.39077 0.44803
 H266 H 0.80779 0.38364 0.48906
 H267 H 0.76226 0.38725 0.43645
 Cu268 Cu 0.82946 0.42347 0.46164
 Cu269 Cu 0.79362 0.42591 0.42062
 Cu270 Cu 0.83106 0.46704 0.42860
 N271 N 0.85455 0.44221 0.46081
 N272 N 0.85509 0.45922 0.44775
 C273 C 0.87398 0.46950 0.45040
 C274 C 0.88601 0.45824 0.46591
 C275 C 0.87315 0.44105 0.47216
 H276 H 0.87847 0.48406 0.44162
 H277 H 0.87715 0.42860 0.48403
 N278 N 0.80942 0.46760 0.40479
 N279 N 0.79530 0.45185 0.40174
 C280 C 0.78338 0.45638 0.38383
 C281 C 0.79045 0.47587 0.37504
 C282 C 0.80702 0.48246 0.38871
 H283 H 0.77097 0.44587 0.37732
 H284 H 0.81698 0.49672 0.38669
 H285 H 0.82598 0.43497 0.42348
 H286 H 0.80591 0.44836 0.44147
 N287 N 0.93153 0.85845 -0.04989
 N288 N 0.94907 0.85540 -0.06126
 C289 C 0.96326 0.87122 -0.05614
 C290 C 0.95392 0.88478 -0.04073
 C291 C 0.93380 0.87625 -0.03732
 H292 H 0.97892 0.87296 -0.06342
 H293 H 0.92161 0.88265 -0.02659
 Cu294 Cu 0.95086 0.83158 -0.08236
 Cu295 Cu 0.90684 0.83945 -0.05223
 Cu296 Cu 0.91574 0.79036 -0.07839
 N297 N 0.94863 0.80925 -0.10505
 N298 N 0.93483 0.79315 -0.10329
 C299 C 0.93656 0.77996 -0.12074
 C300 C 0.95220 0.78820 -0.13427
 C301 C 0.95959 0.80686 -0.12384
 H302 H 0.92704 0.76546 -0.12346
 H303 H 0.97182 0.81795 -0.12949
 N304 N 0.89143 0.79526 -0.05875
 N305 N 0.88783 0.81419 -0.04927
 C306 C 0.87007 0.81267 -0.03707
 C307 C 0.86199 0.79190 -0.03910
 C308 C 0.87585 0.78121 -0.05304
 H309 H 0.86343 0.82575 -0.02741
 H310 H 0.87469 0.76458 -0.05872
 H311 H 0.92716 0.81399 -0.05600
 H312 H 0.91266 0.82283 -0.08134
 N313 N 0.28887 0.35039 0.81096
 N314 N 0.30462 0.35329 0.79707
 C315 C 0.30210 0.37266 0.78710
 C316 C 0.28368 0.38243 0.79509
 C317 C 0.27573 0.36780 0.81021
 H318 H 0.31292 0.37913 0.77500
 H319 H 0.26139 0.36964 0.81989
 Cu320 Cu 0.32684 0.33132 0.79329
 Cu321 Cu 0.28642 0.32381 0.82835
 Cu322 Cu 0.33266 0.29226 0.83081
 N323 N 0.34736 0.30771 0.78923
 N324 N 0.34939 0.29237 0.80410
 C325 C 0.36558 0.27906 0.79862
 C326 C 0.37423 0.28642 0.77917
 C327 C 0.36228 0.30464 0.77368
 H328 H 0.37117 0.26568 0.80864
 H329 H 0.36493 0.31534 0.75991
 N330 N 0.30880 0.28888 0.85130
 N331 N 0.29102 0.30051 0.85023
 C332 C 0.27815 0.29460 0.86683
 C333 C 0.28838 0.27838 0.87877
 C334 C 0.30768 0.27518 0.86842
 H335 H 0.26287 0.30207 0.87032
 H336 H 0.32024 0.26403 0.87338
 H337 H 0.31873 0.32341 0.83154
 H338 H 0.30754 0.30256 0.81241
 N339 N 0.15061 0.56128 0.54287
 N340 N 0.15401 0.54605 0.55761
 C341 C 0.13821 0.53109 0.55625
 C342 C 0.12426 0.53710 0.53965
 C343 C 0.13260 0.55641 0.53151
 H344 H 0.13673 0.51694 0.56666
 H345 H 0.12577 0.56654 0.51878
 Cu346 Cu 0.17857 0.54754 0.57742
 Cu347 Cu 0.16910 0.58701 0.54042
 Cu348 Cu 0.21276 0.58970 0.57599
 N349 N 0.20334 0.54903 0.59697
 N350 N 0.21660 0.56564 0.59640
 C351 C 0.23126 0.56352 0.61258
 C352 C 0.22701 0.54455 0.62386
 C353 C 0.20917 0.53571 0.61349
 H354 H 0.24350 0.57539 0.61656
 H355 H 0.20043 0.52132 0.61831
 N356 N 0.20635 0.61249 0.55422
 N357 N 0.18975 0.61162 0.54067
 C358 C 0.18950 0.62990 0.52841
 C359 C 0.20673 0.64283 0.53454
 C360 C 0.21705 0.63125 0.55095
 H361 H 0.17750 0.63378 0.51613
 H362 H 0.23112 0.63623 0.56009
 H363 H 0.19647 0.57216 0.55209
 H364 H 0.17973 0.58693 0.57244
 N365 N 0.59833 0.68757 0.03895
 N366 N 0.59886 0.70587 0.05007
 C367 C 0.61733 0.71630 0.04604
 C368 C 0.62903 0.70384 0.03155
 C369 C 0.61649 0.68577 0.02732
 H370 H 0.62182 0.73175 0.05318
 H371 H 0.62035 0.67231 0.01665
 Cu372 Cu 0.57581 0.71443 0.06914
 Cu373 Cu 0.57408 0.66768 0.04023
 Cu374 Cu 0.53037 0.68523 0.06990
 N375 N 0.55507 0.71782 0.09229
 N376 N 0.53695 0.70695 0.09174
 C377 C 0.52554 0.71165 0.10956
 C378 C 0.53732 0.72600 0.12233
 C379 C 0.55596 0.72972 0.11081
 H380 H 0.51035 0.70409 0.11325
 H381 H 0.56949 0.73959 0.11592
 N382 N 0.53072 0.65747 0.05445
 N383 N 0.54757 0.65057 0.04357
 C384 C 0.54347 0.63051 0.03595
 C385 C 0.52306 0.62448 0.04245
 C386 C 0.51550 0.64187 0.05433
 H387 H 0.55475 0.62076 0.02688
 H388 H 0.50025 0.64296 0.06257
 H389 H 0.55308 0.69193 0.04509
 H390 H 0.56275 0.67746 0.07024
 N391 N 0.68270 0.20927 0.64827
 N392 N 0.69932 0.19613 0.64777
 C393 C 0.71118 0.20082 0.63003
 C394 C 0.70147 0.21786 0.61885
 C395 C 0.68346 0.22279 0.63092
 H396 H 0.72566 0.19233 0.62553
 H397 H 0.67169 0.23520 0.62719
 Cu398 Cu 0.70363 0.17365 0.66989
 Cu399 Cu 0.66124 0.20765 0.67128
 Cu400 Cu 0.67041 0.17039 0.71297
 N401 N 0.70604 0.15033 0.69143
 N402 N 0.69310 0.14919 0.70826
 C403 C 0.69821 0.13162 0.72041
 C404 C 0.71528 0.12111 0.71059
 C405 C 0.71977 0.13341 0.69224
 H406 H 0.68984 0.12672 0.73503
 H407 H 0.73198 0.13004 0.68024
 N408 N 0.64503 0.18950 0.71198
 N409 N 0.64151 0.20364 0.69608
 C410 C 0.62266 0.21370 0.69964
 C411 C 0.61383 0.20540 0.71865
 C412 C 0.62841 0.19005 0.72596
 H413 H 0.61563 0.22571 0.68885
 H414 H 0.62675 0.17973 0.74018
 H415 H 0.68218 0.19630 0.69441
 H416 H 0.66593 0.17520 0.67979
 N417 N 1.09182 0.04965 0.21638
 N418 N 1.09391 0.03439 0.20149
 C419 C 1.11178 0.02288 0.20584
 C420 C 1.12137 0.03147 0.22447
 C421 C 1.10827 0.04839 0.23072
 H422 H 1.11787 0.01000 0.19561
 H423 H 1.11113 0.05961 0.24408
 Cu424 Cu 1.07423 0.03258 0.17677
 Cu425 Cu 1.06947 0.07158 0.21468
 Cu426 Cu 1.03419 0.06863 0.17050
 N427 N 1.05438 0.03072 0.15223
 N428 N 1.03863 0.04479 0.15001
 C429 C 1.02806 0.04077 0.13116
 C430 C 1.03781 0.02326 0.12100
 C431 C 1.05439 0.01729 0.13482
 H432 H 1.01491 0.05050 0.12496
 H433 H 1.06610 0.00467 0.13189
 N434 N 1.03255 0.09144 0.19312
 N435 N 1.04590 0.09227 0.20999
 C436 C 1.04204 0.11044 0.22151
 C437 C 1.02557 0.12174 0.21135
 C438 C 1.01981 0.10917 0.19350
 H439 H 1.05127 0.11549 0.23566
 H440 H 1.00797 0.11327 0.18114
 H441 H 1.04761 0.05307 0.19711
 H442 H 1.06570 0.07104 0.18093
 N443 N 0.05686 0.14874 1.04462
 N444 N 0.04319 0.14958 1.06086
 C445 C 0.03007 0.13211 1.05962
 C446 C 0.03584 0.11976 1.04163
 C447 C 0.05292 0.13088 1.03250
 H448 H 0.01750 0.12838 1.07112
 H449 H 0.06212 0.12623 1.01834
 Cu450 Cu 0.04454 0.17321 1.08231
 Cu451 Cu 0.07916 0.17054 1.04045
 Cu452 Cu 0.08525 0.20926 1.08119
 N453 N 0.04658 0.19713 1.10335
 N454 N 0.06271 0.21092 1.10289
 C455 C 0.06115 0.22482 1.11982
 C456 C 0.04312 0.21955 1.13161
 C457 C 0.03419 0.20185 1.12071
 H458 H 0.07267 0.23743 1.12374
 H459 H 0.02027 0.19257 1.12550
 N460 N 0.10624 0.20516 1.05773
 N461 N 0.10387 0.19051 1.04210
 C462 C 0.12104 0.19138 1.02887
 C463 C 0.13474 0.20740 1.03647
 C464 C 0.12488 0.21581 1.05480
 H465 H 0.12361 0.18089 1.01493
 H466 H 0.13095 0.22848 1.06545
 H467 H 0.08236 0.17636 1.07357
 H468 H 0.06547 0.19620 1.05786
 N469 N 0.15074 0.71652 0.69474
 N470 N 0.14867 0.70097 0.70936
 C471 C 0.13033 0.70406 0.72039
 C472 C 0.12041 0.72253 0.71216
 C473 C 0.13379 0.72999 0.69594
 H474 H 0.12418 0.69315 0.73271
 H475 H 0.13093 0.74372 0.68522
 Cu476 Cu 0.16901 0.67704 0.71096
 Cu477 Cu 0.17412 0.71706 0.67389
 Cu478 Cu 0.21062 0.67462 0.67636
 N479 N 0.18958 0.65331 0.71222
 N480 N 0.20584 0.65262 0.69867
 C481 C 0.21700 0.63423 0.70216
 C482 C 0.20716 0.62268 0.71876
 C483 C 0.18984 0.63526 0.72477
 H484 H 0.23083 0.62942 0.69279
 H485 H 0.17801 0.63120 0.73696
 N486 N 0.21265 0.69848 0.65497
 N487 N 0.19882 0.71472 0.65420
 C488 C 0.20359 0.72763 0.63714
 C489 C 0.22124 0.71906 0.62660
 C490 C 0.22657 0.70063 0.63835
 H491 H 0.19427 0.74164 0.63222
 H492 H 0.23915 0.68919 0.63447
 H493 H 0.17887 0.68369 0.67298
 H494 H 0.19569 0.69952 0.69279
 N495 N 1.19792 0.14532 0.20526
 N496 N 1.21230 0.14736 0.18979
 C497 C 1.22511 0.12963 0.19006
 C498 C 1.21837 0.11591 0.20665
 C499 C 1.20108 0.12649 0.21593
 H500 H 1.23809 0.12665 0.17881
 H501 H 1.19099 0.12070 0.22897
 Cu502 Cu 1.21166 0.17271 0.17049
 Cu503 Cu 1.17493 0.16615 0.20960
 Cu504 Cu 1.17305 0.21083 0.17503
 N505 N 1.21107 0.19822 0.15146
 N506 N 1.19582 0.21291 0.15313
 C507 C 1.19838 0.22795 0.13730
 C508 C 1.21617 0.22248 0.12509
 C509 C 1.22382 0.20346 0.13453
 H510 H 1.18762 0.24146 0.13433
 H511 H 1.23711 0.19369 0.12893
 N512 N 1.15166 0.20563 0.19840
 N513 N 1.15273 0.18870 0.21167
 C514 C 1.13583 0.18904 0.22524
 C515 C 1.12340 0.20694 0.22037
 C516 C 1.13389 0.21719 0.20323
 H517 H 1.13232 0.17680 0.23740
 H518 H 1.12871 0.23163 0.19458
 H519 H 1.17346 0.17750 0.17752
 H520 H 1.19076 0.19311 0.19704
 N521 N 0.65608 1.04164 0.55902
 N522 N 0.65481 1.05612 0.54317
 C523 C 0.63769 1.05110 0.53033
 C524 C 0.62793 1.03254 0.53877
 C525 C 0.64003 1.02717 0.55691
 H526 H 0.63245 1.06047 0.51629
 H527 H 0.63707 1.01382 0.56802
 Cu528 Cu 0.67562 1.08035 0.54175
 Cu529 Cu 0.67780 1.04240 0.58193
 Cu530 Cu 0.71526 1.08346 0.57953
 N531 N 0.69707 1.10408 0.54137
 N532 N 0.71279 1.10418 0.55589
 C533 C 0.72521 1.12172 0.55287
 C534 C 0.71705 1.13362 0.53572
 C535 C 0.69907 1.12202 0.52859
 H536 H 0.73883 1.12611 0.56304
 H537 H 0.68811 1.12652 0.51555
 N538 N 0.71550 1.06130 0.60251
 N539 N 0.70100 1.04573 0.60367
 C540 C 0.70443 1.03418 0.62212
 C541 C 0.72192 1.04306 0.63302
 C542 C 0.72852 1.06013 0.62014
 H543 H 0.69449 1.02086 0.62755
 H544 H 0.74138 1.07138 0.62390
 H545 H 0.68288 1.07547 0.58074
 H546 H 0.70026 1.05792 0.56319
 N547 N 0.55992 0.53981 0.15092
 N548 N 0.54147 0.55004 0.15232
 C549 C 0.52931 0.54475 0.13475
 C550 C 0.54089 0.53040 0.12178
 C551 C 0.56023 0.52779 0.13253
 H552 H 0.51349 0.55123 0.13150
 H553 H 0.57368 0.51810 0.12715
 Cu554 Cu 0.53584 0.57004 0.17663
 Cu555 Cu 0.58259 0.54340 0.17247
 Cu556 Cu 0.56768 0.56736 0.22119
 N557 N 0.53381 0.59141 0.20030
 N558 N 0.54596 0.58964 0.21792
 C559 C 0.54216 0.60642 0.23142
 C560 C 0.52703 0.61968 0.22175
 C561 C 0.52191 0.60965 0.20197
 H562 H 0.55073 0.60943 0.24660
 H563 H 0.51107 0.61553 0.18939
 N564 N 0.59482 0.55199 0.21759
 N565 N 0.60063 0.54319 0.19887
 C566 C 0.62049 0.53504 0.20110
 C567 C 0.62751 0.53904 0.22225
 C568 C 0.61093 0.54991 0.23223
 H569 H 0.62940 0.52747 0.18805
 H570 H 0.61085 0.55640 0.24869
 H571 H 0.56003 0.54503 0.19555
 H572 H 0.57304 0.57151 0.18831
 N573 N 0.64173 0.69712 0.20689
 N574 N 0.64299 0.71170 0.19123
 C575 C 0.62489 0.72367 0.19087
 C576 C 0.61166 0.71634 0.20737
 C577 C 0.62288 0.69943 0.21724
 H578 H 0.62157 0.73674 0.17945
 H579 H 0.61778 0.68945 0.23081
 Cu580 Cu 0.66851 0.71386 0.17336
 Cu581 Cu 0.66494 0.67651 0.21265
 Cu582 Cu 0.70277 0.67184 0.17113
 N583 N 0.68870 0.71106 0.14959
 N584 N 0.70221 0.69466 0.14866
 C585 C 0.71414 0.69668 0.13044
 C586 C 0.70761 0.71534 0.11944
 C587 C 0.69141 0.72394 0.13203
 H588 H 0.72638 0.68529 0.12549
 H589 H 0.68205 0.73835 0.12845
 N590 N 0.70051 0.65076 0.19568
 N591 N 0.68614 0.65266 0.21136
 C592 C 0.68818 0.63574 0.22523
 C593 C 0.70468 0.62263 0.21817
 C594 C 0.71220 0.63262 0.19937
 H595 H 0.67814 0.63289 0.23929
 H596 H 0.72487 0.62686 0.18890
 H597 H 0.69098 0.68981 0.19628
 H598 H 0.67070 0.67480 0.17972
 N599 N 0.14848 0.06152 1.04992
 N600 N 0.15220 0.04222 1.05841
 C601 C 0.13700 0.02832 1.05103
 C602 C 0.12334 0.03983 1.03712
 C603 C 0.13108 0.06072 1.03695
 H604 H 0.13598 0.01130 1.05541
 H605 H 0.12446 0.07447 1.02811
 Cu606 Cu 0.17663 0.03803 1.07833
 Cu607 Cu 0.16602 0.08651 1.05622
 Cu608 Cu 0.21683 0.07454 1.07522
 N609 N 0.19986 0.03871 1.10002
 N610 N 0.21567 0.05284 1.09860
 C611 C 0.22893 0.05037 1.11593
 C612 C 0.22100 0.03392 1.12898
 C613 C 0.20251 0.02681 1.11837
 H614 H 0.24284 0.06041 1.11924
 H615 H 0.19133 0.01459 1.12394
 N616 N 0.20997 0.10145 1.05908
 N617 N 0.19016 0.10629 1.05313
 C618 C 0.19001 0.12527 1.04232
 C619 C 0.21070 0.13283 1.04135
 C620 C 0.22311 0.11747 1.05227
 H621 H 0.17594 0.13267 1.03499
 H622 H 0.24030 0.11769 1.05482
 H623 H 0.19131 0.06581 1.05421
 H624 H 0.18573 0.07658 1.08218
 N625 N 0.60124 0.20861 0.55026
 N626 N 0.60158 0.19157 0.53725
 C627 C 0.61832 0.19329 0.52357
 C628 C 0.62916 0.21231 0.52828
 C629 C 0.61785 0.22171 0.54532
 H630 H 0.62277 0.18125 0.51152
 H631 H 0.62170 0.23657 0.55395
 Cu632 Cu 0.58129 0.16783 0.54023
 Cu633 Cu 0.58007 0.21176 0.57346
 Cu634 Cu 0.54016 0.17267 0.57522
 N635 N 0.55733 0.14766 0.53985
 N636 N 0.54128 0.14964 0.55350
 C637 C 0.52791 0.13265 0.55090
 C638 C 0.53598 0.11934 0.53478
 C639 C 0.55467 0.12936 0.52802
 H640 H 0.51386 0.12959 0.56071
 H641 H 0.56599 0.12332 0.51618
 N642 N 0.54170 0.19710 0.59592
 N643 N 0.55705 0.21189 0.59558
 C644 C 0.55455 0.22532 0.61285
 C645 C 0.53680 0.21863 0.62454
 C646 C 0.52905 0.20072 0.61328
 H647 H 0.56527 0.23853 0.61713
 H648 H 0.51572 0.19049 0.61785
 H649 H 0.57272 0.17932 0.57744
 H650 H 0.55718 0.19455 0.55604
 N651 N 0.10165 0.56017 0.70907
 N652 N 0.10215 0.54376 0.69527
 C653 C 0.12034 0.53231 0.69856
 C654 C 0.13190 0.54209 0.71538
 C655 C 0.11954 0.55971 0.72161
 H656 H 0.12494 0.51820 0.68913
 H657 H 0.12346 0.57147 0.73419
 Cu658 Cu 0.07944 0.53950 0.67362
 Cu659 Cu 0.07778 0.58092 0.70966
 Cu660 Cu 0.03805 0.57418 0.67007
 N661 N 0.06135 0.54084 0.64748
 N662 N 0.04516 0.55448 0.64612
 C663 C 0.03516 0.55183 0.62665
 C664 C 0.04574 0.53565 0.61515
 C665 C 0.06229 0.52911 0.62888
 H666 H 0.02128 0.56102 0.62135
 H667 H 0.07410 0.51668 0.62555
 N668 N 0.03709 0.59735 0.69247
 N669 N 0.05218 0.60002 0.70755
 C670 C 0.04725 0.61759 0.71979
 C671 C 0.02819 0.62643 0.71195
 C672 C 0.02231 0.61319 0.69462
 H673 H 0.05717 0.62393 0.73292
 H674 H 0.00853 0.61536 0.68397
 H675 H 0.05500 0.56091 0.69651
 H676 H 0.07024 0.57785 0.67669
 N677 N 0.64526 0.54251 0.05249
 N678 N 0.64814 0.55821 0.03818
 C679 C 0.63100 0.55933 0.02463
 C680 C 0.61674 0.54326 0.03050
 C681 C 0.62626 0.53290 0.04833
 H682 H 0.62891 0.57103 0.01155
 H683 H 0.61977 0.51968 0.05790
 Cu684 Cu 0.67377 0.57583 0.03953
 Cu685 Cu 0.66612 0.53630 0.07599
 Cu686 Cu 0.71373 0.56634 0.07468
 N687 N 0.69756 0.59584 0.04218
 N688 N 0.71333 0.59214 0.05608
 C689 C 0.72753 0.60864 0.05503
 C690 C 0.72011 0.62347 0.03971
 C691 C 0.70097 0.61486 0.03198
 H692 H 0.74197 0.60991 0.06490
 H693 H 0.69003 0.62206 0.02024
 N694 N 0.70777 0.54397 0.09695
 N695 N 0.68967 0.53280 0.09783
 C696 C 0.69005 0.52035 0.11602
 C697 C 0.70918 0.52397 0.12711
 C698 C 0.72002 0.53901 0.11449
 H699 H 0.67705 0.51002 0.12136
 H700 H 0.73527 0.54658 0.11822
 H701 H 0.68083 0.56666 0.07743
 H702 H 0.69201 0.54589 0.05858
 N703 N 0.06061 0.71002 0.59885
 N704 N 0.04495 0.69569 0.59900
 C705 C 0.03328 0.69855 0.61724
 C706 C 0.04222 0.71561 0.62900
 C707 C 0.05945 0.72249 0.61686
 H708 H 0.01964 0.68872 0.62177
 H709 H 0.07063 0.73529 0.62114
 Cu710 Cu 0.04214 0.67433 0.57569
 Cu711 Cu 0.08219 0.71068 0.57619
 Cu712 Cu 0.07764 0.67264 0.53452
 N713 N 0.03927 0.65344 0.55197
 N714 N 0.05319 0.65291 0.53592
 C715 C 0.04836 0.63620 0.52252
 C716 C 0.03048 0.62567 0.53069
 C717 C 0.02515 0.63705 0.54933
 H718 H 0.05779 0.63153 0.50853
 H719 H 0.01249 0.63299 0.56062
 N720 N 0.10111 0.69415 0.53618
 N721 N 0.10249 0.70878 0.55194
 C722 C 0.12031 0.72072 0.54914
 C723 C 0.13073 0.71327 0.53074
 C724 C 0.11817 0.69640 0.52293
 H725 H 0.12563 0.73341 0.56014
 H726 H 0.12149 0.68628 0.50889
 H727 H 0.06323 0.69733 0.55158
 H728 H 0.08021 0.67800 0.56774
 N729 N 0.56156 1.04231 0.64898
 N730 N 0.54916 1.05959 0.64917
 C731 C 0.53833 1.06085 0.63004
 C732 C 0.54422 1.04340 0.61720
 C733 C 0.55902 1.03189 0.62978
 H734 H 0.52699 1.07349 0.62571
 H735 H 0.56728 1.01703 0.62557
 Cu736 Cu 0.54844 1.07859 0.67446
 Cu737 Cu 0.57953 1.03433 0.67399
 Cu738 Cu 0.58841 1.07628 0.71127
 N739 N 0.54859 1.09702 0.70019
 N740 N 0.56466 1.09678 0.71427
 C741 C 0.56224 1.11332 0.72855
 C742 C 0.54360 1.12442 0.72312
 C743 C 0.53527 1.11342 0.70513
 H744 H 0.57365 1.11752 0.74131
 H745 H 0.52137 1.11776 0.69541
 N746 N 0.60600 1.04955 0.71035
 N747 N 0.60258 1.03362 0.69623
 C748 C 0.61795 1.01840 0.69885
 C749 C 0.63152 1.02488 0.71560
 C750 C 0.62345 1.04471 0.72255
 H751 H 0.61964 1.00406 0.68875
 H752 H 0.63032 1.05534 0.73484
 H753 H 0.56747 1.05401 0.69925
 H754 H 0.58552 1.06641 0.67848
 N755 N 0.45686 0.35225 0.94578
 N756 N 0.44389 0.34845 0.96218
 C757 C 0.44394 0.36555 0.97592
 C758 C 0.45784 0.38099 0.96787
 C759 C 0.46590 0.37197 0.94867
 H760 H 0.43429 0.36679 0.99051
 H761 H 0.47713 0.37918 0.93739
 Cu762 Cu 0.42711 0.32222 0.96339
 Cu763 Cu 0.46048 0.33098 0.92206
 Cu764 Cu 0.41947 0.29267 0.91785
 N765 N 0.40277 0.30331 0.96033
 N766 N 0.39912 0.29216 0.94231
 C767 C 0.37981 0.28236 0.94399
 C768 C 0.37111 0.28795 0.96411
 C769 C 0.38614 0.30115 0.97396
 H770 H 0.37241 0.27262 0.93126
 H771 H 0.38465 0.30942 0.98951
 N772 N 0.44213 0.29610 0.89530
 N773 N 0.45751 0.31086 0.89679
 C774 C 0.47025 0.30920 0.87912
 C775 C 0.46278 0.29245 0.86598
 C776 C 0.44486 0.28454 0.87674
 H777 H 0.48413 0.31930 0.87607
 H778 H 0.43450 0.27143 0.87140
 H779 H 0.42840 0.32445 0.92378
 H780 H 0.44643 0.30275 0.93456
 N781 N 0.95607 0.44154 0.34715
 N782 N 0.94288 0.45807 0.34463
 C783 C 0.94604 0.47241 0.36097
 C784 C 0.96216 0.46459 0.37446
 C785 C 0.96823 0.44490 0.36520
 H786 H 0.93708 0.48733 0.36308
 H787 H 0.98025 0.43368 0.37123
 Cu788 Cu 0.92229 0.45930 0.32075
 Cu789 Cu 0.95614 0.41685 0.32688
 Cu790 Cu 0.91981 0.41949 0.28356
 N791 N 0.89715 0.45537 0.30218
 N792 N 0.89641 0.43969 0.28759
 C793 C 0.87769 0.44066 0.27661
 C794 C 0.86601 0.45781 0.28480
 C795 C 0.87879 0.46688 0.30108
 H796 H 0.87291 0.42966 0.26362
 H797 H 0.87513 0.48074 0.31128
 N798 N 0.93980 0.39529 0.28763
 N799 N 0.95348 0.39390 0.30418
 C800 C 0.96417 0.37489 0.30260
 C801 C 0.95664 0.36390 0.28422
 C802 C 0.94123 0.37728 0.27524
 H803 H 0.97620 0.36934 0.31415
 H804 H 0.93147 0.37394 0.26090
 H805 H 0.94553 0.43398 0.30067
 H806 H 0.92447 0.42004 0.31701
 N807 N 0.29436 0.95560 0.40660
 N808 N 0.31095 0.96859 0.40442
 C809 C 0.30850 0.98039 0.38601
 C810 C 0.28945 0.97442 0.37606
 C811 C 0.28081 0.95862 0.38958
 H812 H 0.31997 0.99205 0.37987
 H813 H 0.26613 0.94958 0.38698
 Cu814 Cu 0.33487 0.96835 0.42497
 Cu815 Cu 0.29239 0.93480 0.43055
 Cu816 Cu 0.33319 0.93581 0.46938
 N817 N 0.35682 0.96932 0.44769
 N818 N 0.35607 0.95678 0.46510
 C819 C 0.37390 0.95989 0.47730
 C820 C 0.38651 0.97521 0.46684
 C821 C 0.37511 0.98095 0.44826
 H822 H 0.37770 0.95100 0.49210
 H823 H 0.38023 0.99213 0.43566
 N824 N 0.30878 0.91564 0.47088
 N825 N 0.29333 0.91506 0.45599
 C826 C 0.28030 0.89812 0.46031
 C827 C 0.28802 0.88755 0.47878
 C828 C 0.30599 0.89913 0.48507
 H829 H 0.26691 0.89321 0.45010
 H830 H 0.31688 0.89500 0.49829
 H831 H 0.31037 0.95352 0.45201
 H832 H 0.32487 0.93174 0.43673
 O833 O 0.25043 0.55851 0.71671
 O834 O 0.28761 0.55264 0.71921
 O835 O 0.22870 0.49855 0.68679
 O836 O 0.22915 0.46316 0.69465
 O837 O 0.19462 0.52659 0.74079
 O838 O 0.20046 0.52600 0.77942
 O839 O 0.28440 0.44682 0.75089
 O840 O 0.28342 0.45182 0.71336
 O841 O 0.30774 0.50463 0.77841
 O842 O 0.29800 0.54354 0.77379
 O843 O 0.25423 0.47564 0.80449
 O844 O 0.21676 0.47360 0.79577
 O845 O 0.25793 0.44571 0.77627
 O846 O 0.21748 0.45157 0.77096
 O847 O 0.27751 0.50415 0.80516
 O848 O 0.27354 0.54334 0.79513
 O849 O 0.31047 0.47714 0.75371
 O850 O 0.30516 0.48010 0.71215
 O851 O 0.22337 0.55823 0.74152
 O852 O 0.22357 0.55089 0.78076
 O853 O 0.19702 0.49921 0.71588
 O854 O 0.20781 0.46035 0.72211
 O855 O 0.25199 0.52712 0.68707
 O856 O 0.29012 0.52667 0.69700
 Zr857 Zr 0.26438 0.52758 0.71930
 O858 O 0.28536 0.51098 0.74070
 Zr859 Zr 0.22875 0.48734 0.71926
 O860 O 0.24871 0.46838 0.73981
 Zr861 Zr 0.22511 0.52702 0.75590
 O862 O 0.24407 0.50947 0.77852
 Zr863 Zr 0.28104 0.47743 0.73632
 O864 O 0.26142 0.49399 0.71327
 Zr865 Zr 0.27654 0.51681 0.77327
 O866 O 0.25746 0.53596 0.75196
 Zr867 Zr 0.24163 0.47578 0.77252
 O868 O 0.22013 0.49331 0.75192
 O869 O 0.23202 0.52071 0.72336
 O870 O 0.27396 0.48326 0.76901
 C871 C 0.23472 0.56750 0.72667
 C872 C 0.23829 0.51455 0.67752
 C873 C 0.18670 0.51457 0.72550
 C874 C 0.27420 0.43745 0.76639
 C875 C 0.31789 0.48876 0.76961
 C876 C 0.26815 0.48786 0.81406
 H877 H 0.30030 0.51548 0.73796
 H878 H 0.23958 0.51321 0.79353
 H879 H 0.22286 0.52924 0.71320
 H880 H 0.24664 0.45278 0.73646
 H881 H 0.27578 0.45672 0.69997
 H882 H 0.24012 0.45237 0.69905
 H883 H 0.26087 0.54063 0.80439
 H884 H 0.23696 0.55951 0.77984
 H885 H 0.31583 0.49105 0.71700
 H886 H 0.28945 0.51232 0.68966
 H887 H 0.21475 0.48829 0.80201
 H888 H 0.19442 0.51110 0.77891
 H889 H 0.28743 0.55918 0.73402
 H890 H 0.30839 0.54153 0.76182
 H891 H 0.19813 0.46343 0.73449
 H892 H 0.22192 0.44058 0.76007
 O893 O 0.18468 0.01862 0.24876
 O894 O 0.19121 0.01942 0.28762
 O895 O 0.24069 0.05095 0.22389
 O896 O 0.27625 0.04589 0.22545
 O897 O 0.21741 -0.00877 0.19480
 O898 O 0.22138 -0.04646 0.20487
 O899 O 0.29788 -0.00379 0.28526
 O900 O 0.29037 0.03346 0.27928
 O901 O 0.24322 -0.03089 0.31304
 O902 O 0.20429 -0.03045 0.30307
 O903 O 0.27186 -0.06162 0.26066
 O904 O 0.27130 -0.05495 0.21955
 O905 O 0.29965 -0.03169 0.26091
 O906 O 0.29481 -0.03231 0.22150
 O907 O 0.24498 -0.06119 0.28559
 O908 O 0.20616 -0.05500 0.28127
 O909 O 0.26855 -0.00425 0.31270
 O910 O 0.26423 0.03498 0.30335
 O911 O 0.18678 -0.00908 0.22413
 O912 O 0.19651 -0.04663 0.22796
 O913 O 0.24181 0.01880 0.19449
 O914 O 0.28011 0.01689 0.20452
 O915 O 0.21385 0.05066 0.24895
 O916 O 0.21362 0.04458 0.28738
 Zr917 Zr 0.21534 0.01977 0.26351
 O918 O 0.23410 0.00265 0.28649
 Zr919 Zr 0.25434 0.01961 0.22672
 O920 O 0.27495 0.00239 0.24825
 Zr921 Zr 0.21842 -0.02036 0.22719
 O922 O 0.23726 -0.03933 0.24859
 Zr923 Zr 0.26677 0.00879 0.28088
 O924 O 0.24786 0.02816 0.25948
 Zr925 Zr 0.23039 -0.03084 0.28111
 O926 O 0.20962 -0.01376 0.25972
 Zr927 Zr 0.26975 -0.03127 0.24465
 O928 O 0.25102 -0.01407 0.22122
 O929 O 0.22197 0.01307 0.23096
 O930 O 0.26302 -0.02468 0.27726
 C931 C 0.17659 0.00617 0.23388
 C932 C 0.22501 0.05995 0.23406
 C933 C 0.22757 0.00664 0.18518
 C934 C 0.30762 -0.01985 0.27631
 C935 C 0.25823 -0.01971 0.32213
 C936 C 0.26096 -0.07023 0.27623
 H937 H 0.22981 0.00678 0.30145
 H938 H 0.23449 -0.05490 0.24564
 H939 H 0.21273 0.02160 0.22088
 H940 H 0.29004 0.00641 0.24551
 H941 H 0.28390 0.04571 0.27102
 H942 H 0.28870 0.04204 0.23480
 H943 H 0.20856 -0.06468 0.26859
 H944 H 0.18849 -0.04529 0.24182
 H945 H 0.25184 0.03223 0.31296
 H946 H 0.22791 0.05161 0.28781
 H947 H 0.25961 -0.06555 0.22199
 H948 H 0.23554 -0.04483 0.19783
 H949 H 0.18479 0.00469 0.28731
 H950 H 0.20578 -0.01744 0.31250
 H951 H 0.27866 0.00257 0.19724
 H952 H 0.30212 -0.01803 0.22177
 O953 O 0.54506 0.71353 0.24679
 O954 O 0.53433 0.71427 0.28430
 O955 O 0.48964 0.68751 0.21412
 O956 O 0.45511 0.69533 0.21103
 O957 O 0.52105 0.74460 0.18843
 O958 O 0.52141 0.78207 0.19877
 O959 O 0.43121 0.74719 0.26597
 O960 O 0.43678 0.70881 0.26204
 O961 O 0.48365 0.77013 0.30202
 O962 O 0.52318 0.76705 0.29800
 O963 O 0.46370 0.80203 0.24565
 O964 O 0.46914 0.79656 0.20635
 O965 O 0.43449 0.77425 0.24081
 O966 O 0.44669 0.77349 0.20179
 O967 O 0.48678 0.80019 0.27461
 O968 O 0.52612 0.79091 0.27552
 O969 O 0.45653 0.74562 0.29835
 O970 O 0.45786 0.70745 0.29114
 O971 O 0.54860 0.74053 0.22153
 O972 O 0.54282 0.77916 0.22568
 O973 O 0.49404 0.71980 0.18529
 O974 O 0.45541 0.72399 0.19051
 O975 O 0.51314 0.68480 0.24272
 O976 O 0.50920 0.69186 0.28155
 Zr977 Zr 0.51302 0.71603 0.25726
 O978 O 0.49341 0.73557 0.27720
 Zr979 Zr 0.47872 0.71969 0.21559
 O980 O 0.45745 0.73889 0.23365
 Zr981 Zr 0.51832 0.75579 0.22086
 O982 O 0.49858 0.77696 0.23891
 Zr983 Zr 0.46129 0.73216 0.26715
 O984 O 0.48062 0.71070 0.24885
 Zr985 Zr 0.50030 0.76871 0.27224
 O986 O 0.52201 0.74900 0.25445
 Zr987 Zr 0.46631 0.77172 0.23020
 O988 O 0.48627 0.75261 0.21014
 O989 O 0.51089 0.72297 0.22405
 O990 O 0.46812 0.76516 0.26363
 C991 C 0.55594 0.72434 0.23268
 C992 C 0.50298 0.67685 0.22607
 C993 C 0.50984 0.73063 0.17761
 C994 C 0.42381 0.76331 0.25487
 C995 C 0.46683 0.76031 0.30903
 C996 C 0.47252 0.81003 0.26289
 H997 H 0.49551 0.73142 0.29269
 H998 H 0.50297 0.79219 0.23637
 H999 H 0.52018 0.71352 0.21507
 H1000 H 0.44262 0.73603 0.22856
 H1001 H 0.44374 0.69547 0.25640
 H1002 H 0.44257 0.69952 0.21989
 H1003 H 0.52518 0.80141 0.26328
 H1004 H 0.54819 0.77718 0.24085
 H1005 H 0.47107 0.70707 0.30018
 H1006 H 0.49473 0.68557 0.27926
 H1007 H 0.48219 0.80510 0.20978
 H1008 H 0.50755 0.78316 0.19083
 H1009 H 0.54129 0.72872 0.28545
 H1010 H 0.52015 0.75381 0.30664
 H1011 H 0.45901 0.73765 0.18276
 H1012 H 0.43584 0.76178 0.20272
 O1013 O 0.05514 0.72175 0.75343
 O1014 O 0.04594 0.72811 0.79085
 O1015 O 0.00020 0.68867 0.72793
 O1016 O -0.03591 0.69488 0.72935
 O1017 O 0.02638 0.74034 0.69186
 O1018 O 0.02617 0.77918 0.69466
 O1019 O -0.05772 0.75838 0.77439
 O1020 O -0.05283 0.71888 0.77569
 O1021 O -0.00341 0.78564 0.80139
 O1022 O 0.03514 0.78219 0.79531
 O1023 O -0.02752 0.80723 0.74104
 O1024 O -0.02429 0.79298 0.70239
 O1025 O -0.05667 0.78006 0.74428
 O1026 O -0.04883 0.77151 0.70583
 O1027 O -0.00274 0.81020 0.76842
 O1028 O 0.03684 0.80105 0.76815
 O1029 O -0.03011 0.76059 0.80410
 O1030 O -0.02852 0.72376 0.80435
 O1031 O 0.05628 0.74384 0.72353
 O1032 O 0.04922 0.78192 0.71929
 O1033 O -0.00028 0.71514 0.69439
 O1034 O -0.03816 0.71907 0.70196
 O1035 O 0.02541 0.69190 0.75490
 O1036 O 0.02182 0.70493 0.79313
 Zr1037 Zr 0.02356 0.72476 0.76486
 O1038 O 0.00473 0.74725 0.78221
 Zr1039 Zr -0.01321 0.72019 0.72567
 O1040 O -0.03382 0.74254 0.74131
 Zr1041 Zr 0.02539 0.75756 0.72158
 O1042 O 0.00662 0.78140 0.73697
 Zr1043 Zr -0.02790 0.74226 0.77516
 O1044 O -0.00923 0.71762 0.75994
 Zr1045 Zr 0.01090 0.77899 0.77105
 O1046 O 0.03169 0.75674 0.75548
 Zr1047 Zr -0.02599 0.77439 0.73152
 O1048 O -0.00712 0.75189 0.71396
 O1049 O 0.01924 0.72583 0.73115
 O1050 O -0.02168 0.77400 0.76537
 C1051 C 0.06487 0.73037 0.73713
 C1052 C 0.01538 0.68093 0.74009
 C1053 C 0.01501 0.72459 0.68413
 C1054 C -0.06590 0.77276 0.76145
 C1055 C -0.01925 0.77689 0.81140
 C1056 C -0.01760 0.81801 0.75601
 H1057 H 0.00761 0.74560 0.79807
 H1058 H 0.01059 0.79593 0.73138
 H1059 H 0.02855 0.71552 0.72322
 H1060 H -0.04899 0.73894 0.73811
 H1061 H -0.04606 0.70452 0.77328
 H1062 H -0.04874 0.70128 0.73624
 H1063 H 0.03447 0.80986 0.75479
 H1064 H 0.05566 0.78339 0.73408
 H1065 H -0.01982 0.71064 0.80163
 H1066 H 0.01017 0.69424 0.79062
 H1067 H -0.01234 0.80346 0.70405
 H1068 H 0.01206 0.77798 0.68720
 H1069 H 0.05326 0.74223 0.78863
 H1070 H 0.03343 0.77004 0.80579
 H1071 H -0.03647 0.73209 0.69258
 H1072 H -0.05856 0.75933 0.70945
 O1073 O 0.06586 0.02185 0.00360
 O1074 O 0.06285 0.02017 -0.03622
 O1075 O 0.00974 0.05735 0.02098
 O1076 O -0.02594 0.05387 0.01412
 O1077 O 0.02701 -0.00019 0.05557
 O1078 O 0.02274 -0.03891 0.04741
 O1079 O -0.04462 -0.00003 -0.04186
 O1080 O -0.03608 0.03776 -0.03781
 O1081 O 0.01122 -0.03020 -0.06284
 O1082 O 0.04980 -0.02959 -0.04911
 O1083 O -0.02289 -0.05595 -0.01221
 O1084 O -0.02464 -0.04763 0.02871
 O1085 O -0.04897 -0.02541 -0.01521
 O1086 O -0.04680 -0.02412 0.02439
 O1087 O 0.00642 -0.05844 -0.03394
 O1088 O 0.04484 -0.05325 -0.02687
 O1089 O -0.01317 -0.00293 -0.06667
 O1090 O -0.00842 0.03613 -0.06035
 O1091 O 0.06073 -0.00401 0.02974
 O1092 O 0.05043 -0.04077 0.02799
 O1093 O 0.00308 0.02749 0.05127
 O1094 O -0.03332 0.02702 0.03751
 O1095 O 0.03837 0.05483 -0.00177
 O1096 O 0.04174 0.04628 -0.03940
 Zr1097 Zr 0.03683 0.02303 -0.01444
 O1098 O 0.01947 0.00488 -0.03789
 Zr1099 Zr -0.00540 0.02670 0.01799
 O1100 O -0.02455 0.00826 -0.00376
 Zr1101 Zr 0.02912 -0.01428 0.02417
 O1102 O 0.01193 -0.03434 0.00232
 Zr1103 Zr -0.01344 0.01219 -0.03586
 O1104 O 0.00435 0.03264 -0.01441
 Zr1105 Zr 0.02167 -0.02825 -0.02999
 O1106 O 0.04098 -0.01031 -0.00781
 Zr1107 Zr -0.02043 -0.02513 0.00283
 O1108 O -0.00358 -0.00653 0.02646
 O1109 O 0.02698 0.01885 0.01764
 O1110 O -0.01094 -0.02098 -0.02945
 C1111 C 0.07216 0.01037 0.02011
 C1112 C 0.02663 0.06522 0.01190
 C1113 C 0.01591 0.01586 0.06288
 C1114 C -0.05551 -0.01487 -0.03210
 C1115 C -0.00273 -0.01937 -0.07397
 C1116 C -0.01110 -0.06597 -0.02615
 H1117 H 0.02518 0.00782 -0.05262
 H1118 H 0.01392 -0.04977 0.00644
 H1119 H 0.03551 0.02769 0.02809
 H1120 H -0.03971 0.01280 -0.00256
 H1121 H -0.02937 0.05063 -0.03079
 H1122 H -0.03819 0.04927 0.00481
 H1123 H 0.04133 -0.06182 -0.01367
 H1124 H 0.05858 -0.04177 0.01420
 H1125 H 0.00532 0.03300 -0.06768
 H1126 H 0.02765 0.05324 -0.04213
 H1127 H -0.01381 -0.05927 0.02713
 H1128 H 0.00814 -0.03613 0.05301
 H1129 H 0.06902 0.00550 -0.03389
 H1130 H 0.04900 -0.01783 -0.06015
 H1131 H -0.03368 0.01303 0.04553
 H1132 H -0.05409 -0.00998 0.02223
 O1133 O 0.06302 0.53119 0.49249
 O1134 O 0.05694 0.52515 0.45461
 O1135 O 0.00636 0.56281 0.51344
 O1136 O -0.02912 0.55650 0.51249
 O1137 O 0.03167 0.50971 0.55103
 O1138 O 0.03123 0.47140 0.54684
 O1139 O -0.04873 0.49866 0.46118
 O1140 O -0.04223 0.53562 0.45995
 O1141 O 0.00699 0.46798 0.43798
 O1142 O 0.04494 0.47067 0.44661
 O1143 O -0.02197 0.44546 0.49378
 O1144 O -0.02167 0.45598 0.53212
 O1145 O -0.05007 0.47482 0.48963
 O1146 O -0.04285 0.48111 0.53033
 O1147 O 0.00584 0.44281 0.47010
 O1148 O 0.04554 0.45202 0.47411
 O1149 O -0.01935 0.49330 0.43411
 O1150 O -0.01557 0.53421 0.43676
 O1151 O 0.06277 0.50817 0.52173
 O1152 O 0.05505 0.46873 0.52280
 O1153 O 0.00567 0.53542 0.54713
 O1154 O -0.03243 0.53079 0.53698
 O1155 O 0.03284 0.56056 0.48809
 O1156 O 0.03206 0.54810 0.45030
 Zr1157 Zr 0.03251 0.52777 0.47824
 O1158 O 0.01489 0.50605 0.45852
 Zr1159 Zr -0.00633 0.53111 0.51501
 O1160 O -0.02613 0.51018 0.49637
 Zr1161 Zr 0.03181 0.49369 0.52051
 O1162 O 0.01324 0.47070 0.50286
 Zr1163 Zr -0.01790 0.51183 0.46312
 O1164 O -0.00028 0.53515 0.48131
 Zr1165 Zr 0.01975 0.47398 0.46938
 O1166 O 0.03992 0.49550 0.48717
 Zr1167 Zr -0.01975 0.47776 0.50535
 O1168 O -0.00124 0.49889 0.52564
 O1169 O 0.02629 0.52576 0.51157
 O1170 O -0.01309 0.47950 0.47212
 C1171 C 0.07183 0.52251 0.50942
 C1172 C 0.02168 0.57107 0.50215
 C1173 C 0.02034 0.52561 0.55828
 C1174 C -0.05833 0.48434 0.47275
 C1175 C -0.00852 0.47686 0.42730
 C1176 C -0.01054 0.43492 0.47994
 H1177 H 0.01905 0.50781 0.44306
 H1178 H 0.01656 0.45588 0.50819
 H1179 H 0.03495 0.53611 0.52036
 H1180 H -0.04131 0.51417 0.49858
 H1181 H -0.03651 0.54917 0.46655
 H1182 H -0.04087 0.55124 0.50288
 H1183 H 0.04194 0.44238 0.48652
 H1184 H 0.06326 0.46910 0.50901
 H1185 H -0.00419 0.52923 0.42676
 H1186 H 0.01805 0.55568 0.45024
 H1187 H -0.00790 0.44806 0.53312
 H1188 H 0.01621 0.47098 0.55192
 H1189 H 0.06361 0.51069 0.45678
 H1190 H 0.04474 0.48365 0.43705
 H1191 H -0.03021 0.51826 0.54694
 H1192 H -0.05314 0.49249 0.52568
 O1193 O 0.44967 -0.00574 0.47873
 O1194 O 0.45816 0.03161 0.47520
 O1195 O 0.50244 -0.03556 0.44421
 O1196 O 0.53736 -0.03971 0.44788
 O1197 O 0.47934 -0.06056 0.50641
 O1198 O 0.48709 -0.05057 0.54332
 O1199 O 0.56540 0.02432 0.49268
 O1200 O 0.55570 0.01661 0.45646
 O1201 O 0.51540 0.05466 0.52280
 O1202 O 0.47819 0.04905 0.52765
 O1203 O 0.54338 -0.00039 0.55366
 O1204 O 0.54305 -0.03788 0.54853
 O1205 O 0.56814 0.00131 0.52171
 O1206 O 0.56008 -0.04102 0.51986
 O1207 O 0.51911 0.02721 0.55444
 O1208 O 0.47810 0.02522 0.55029
 O1209 O 0.53743 0.05248 0.49340
 O1210 O 0.52924 0.04091 0.45468
 O1211 O 0.45171 -0.02904 0.50763
 O1212 O 0.46540 -0.02417 0.54516
 O1213 O 0.50176 -0.06390 0.47740
 O1214 O 0.54237 -0.05652 0.47800
 O1215 O 0.47595 -0.01007 0.44506
 O1216 O 0.48003 0.02938 0.44962
 Zr1217 Zr 0.48100 0.00620 0.47520
 O1218 O 0.50200 0.02810 0.49089
 Zr1219 Zr 0.51743 -0.03331 0.47493
 O1220 O 0.54068 -0.01245 0.48910
 Zr1221 Zr 0.48436 -0.02843 0.51694
 O1222 O 0.50663 -0.00871 0.53376
 Zr1223 Zr 0.53356 0.02028 0.48222
 O1224 O 0.51244 -0.00071 0.46498
 Zr1225 Zr 0.50113 0.02385 0.52507
 O1226 O 0.47753 0.00430 0.50951
 Zr1227 Zr 0.53813 -0.01495 0.52319
 O1228 O 0.51604 -0.03731 0.50903
 O1229 O 0.48595 -0.02620 0.48307
 O1230 O 0.53267 0.01771 0.51622
 C1231 C 0.44132 -0.01929 0.49223
 C1232 C 0.48622 -0.02570 0.43578
 C1233 C 0.48725 -0.07130 0.49040
 C1234 C 0.57568 0.01619 0.50899
 C1235 C 0.52913 0.06278 0.50954
 C1236 C 0.53463 0.01605 0.56282
 H1237 H 0.49809 0.04312 0.48667
 H1238 H 0.50506 -0.01125 0.54965
 H1239 H 0.47539 -0.03556 0.47540
 H1240 H 0.55522 -0.01622 0.48401
 H1241 H 0.54845 0.00773 0.44508
 H1242 H 0.54878 -0.02854 0.44809
 H1243 H 0.48249 0.01478 0.56182
 H1244 H 0.45727 -0.01048 0.54307
 H1245 H 0.51808 0.05176 0.45820
 H1246 H 0.49251 0.02638 0.44017
 H1247 H 0.52918 -0.03949 0.55610
 H1248 H 0.50059 -0.05872 0.54112
 H1249 H 0.45337 0.03318 0.49053
 H1250 H 0.47528 0.05449 0.51269
 H1251 H 0.53923 -0.06544 0.49109
 H1252 H 0.57174 -0.03623 0.51008
 O1253 O 0.55306 0.52954 0.00350
 O1254 O 0.54459 0.52700 -0.03676
 O1255 O 0.49692 0.55992 0.02817
 O1256 O 0.46070 0.55318 0.02631
 O1257 O 0.52270 0.50315 0.05844
 O1258 O 0.51887 0.46337 0.04855
 O1259 O 0.43899 0.49995 -0.02785
 O1260 O 0.44578 0.53961 -0.02127
 O1261 O 0.49257 0.47768 -0.05909
 O1262 O 0.53364 0.48211 -0.05023
 O1263 O 0.46985 0.44477 -0.00602
 O1264 O 0.47391 0.45178 0.03615
 O1265 O 0.44020 0.47323 -0.00209
 O1266 O 0.44745 0.47134 0.03505
 O1267 O 0.49577 0.44708 -0.03188
 O1268 O 0.53201 0.45424 -0.03159
 O1269 O 0.46650 0.50346 -0.05742
 O1270 O 0.46739 0.53950 -0.05027
 O1271 O 0.55271 0.50167 0.02804
 O1272 O 0.54508 0.46504 0.02772
 O1273 O 0.49653 0.52897 0.05843
 O1274 O 0.45971 0.52587 0.05069
 O1275 O 0.52260 0.55989 0.00188
 O1276 O 0.52405 0.55346 -0.03507
 Zr1277 Zr 0.52199 0.52868 -0.01118
 O1278 O 0.50214 0.51132 -0.03306
 Zr1279 Zr 0.48392 0.52804 0.02666
 O1280 O 0.46341 0.50847 0.00730
 Zr1281 Zr 0.52148 0.48968 0.02638
 O1282 O 0.50370 0.46943 0.00508
 Zr1283 Zr 0.46940 0.51531 -0.02562
 O1284 O 0.48913 0.53600 -0.00638
 Zr1285 Zr 0.50804 0.47826 -0.02798
 O1286 O 0.52899 0.49560 -0.00681
 Zr1287 Zr 0.47115 0.47514 0.01078
 O1288 O 0.48896 0.49459 0.03313
 O1289 O 0.51644 0.52274 0.02174
 O1290 O 0.47539 0.48214 -0.02224
 C1291 C 0.56201 0.51741 0.01822
 C1292 C 0.51184 0.56913 0.01694
 C1293 C 0.51160 0.51821 0.06778
 C1294 C 0.43069 0.48387 -0.01730
 C1295 C 0.47671 0.48849 -0.06739
 C1296 C 0.48071 0.43699 -0.02214
 H1297 H 0.50524 0.51580 -0.04824
 H1298 H 0.50769 0.45408 0.00773
 H1299 H 0.52558 0.53194 0.03130
 H1300 H 0.44831 0.51142 0.01109
 H1301 H 0.45333 0.55298 -0.01640
 H1302 H 0.44720 0.54718 0.02017
 H1303 H 0.53464 0.44796 -0.01691
 H1304 H 0.55089 0.46382 0.01274
 H1305 H 0.48222 0.54355 -0.05409
 H1306 H 0.50957 0.55999 -0.03627
 H1307 H 0.48360 0.44009 0.03113
 H1308 H 0.50649 0.46652 0.05809
 H1309 H 0.55408 0.51445 -0.03355
 H1310 H 0.52906 0.49255 -0.06169
 H1311 H 0.46064 0.51109 0.05708
 H1312 H 0.44097 0.48583 0.03742
 O1313 O 0.80515 0.25910 0.47326
 O1314 O 0.79481 0.22048 0.47122
 O1315 O 0.75004 0.29111 0.44726
 O1316 O 0.71474 0.29237 0.45417
 O1317 O 0.77906 0.31251 0.50796
 O1318 O 0.77695 0.29893 0.54533
 O1319 O 0.69016 0.23249 0.50152
 O1320 O 0.69642 0.24206 0.46308
 O1321 O 0.74215 0.19666 0.52148
 O1322 O 0.78287 0.20262 0.51914
 O1323 O 0.72131 0.24849 0.55866
 O1324 O 0.72693 0.28909 0.55630
 O1325 O 0.69256 0.25565 0.53048
 O1326 O 0.70311 0.29370 0.53413
 O1327 O 0.74571 0.22130 0.55478
 O1328 O 0.78327 0.22015 0.54708
 O1329 O 0.71593 0.20195 0.49596
 O1330 O 0.71788 0.21338 0.45907
 O1331 O 0.80694 0.28106 0.50325
 O1332 O 0.79995 0.27395 0.54099
 O1333 O 0.75339 0.31733 0.48168
 O1334 O 0.71489 0.31164 0.48484
 O1335 O 0.77450 0.26387 0.44375
 O1336 O 0.77124 0.22531 0.44668
 Zr1337 Zr 0.77322 0.24688 0.47357
 O1338 O 0.75281 0.22486 0.48990
 Zr1339 Zr 0.73791 0.28700 0.47913
 O1340 O 0.71628 0.26689 0.49617
 Zr1341 Zr 0.77612 0.27947 0.51680
 O1342 O 0.75641 0.25866 0.53525
 Zr1343 Zr 0.72051 0.23445 0.48645
 O1344 O 0.74070 0.25481 0.46752
 Zr1345 Zr 0.75888 0.22654 0.52366
 O1346 O 0.78098 0.24694 0.50718
 Zr1347 Zr 0.72418 0.26708 0.52976
 O1348 O 0.74404 0.28944 0.51304
 O1349 O 0.77001 0.27900 0.48333
 O1350 O 0.72665 0.23469 0.52001
 C1351 C 0.81519 0.27237 0.48616
 C1352 C 0.76433 0.28062 0.43647
 C1353 C 0.76900 0.32418 0.49373
 C1354 C 0.68238 0.24190 0.51854
 C1355 C 0.72582 0.19018 0.51014
 C1356 C 0.73100 0.23124 0.56543
 H1357 H 0.75519 0.21001 0.48424
 H1358 H 0.76045 0.25972 0.55089
 H1359 H 0.77949 0.28886 0.47502
 H1360 H 0.70139 0.27176 0.49340
 H1361 H 0.70370 0.24895 0.45050
 H1362 H 0.70141 0.28486 0.45852
 H1363 H 0.78500 0.23340 0.55610
 H1364 H 0.80602 0.25938 0.53800
 H1365 H 0.73168 0.20565 0.45750
 H1366 H 0.75691 0.22755 0.43994
 H1367 H 0.73867 0.28398 0.56600
 H1368 H 0.76350 0.30749 0.54531
 H1369 H 0.80284 0.21990 0.48526
 H1370 H 0.77873 0.19369 0.50630
 H1371 H 0.71773 0.31743 0.49971
 H1372 H 0.69418 0.29501 0.52074
 O1373 O 0.77660 0.80185 -0.00429
 O1374 O 0.77852 0.79181 0.03411
 O1375 O 0.80070 0.74497 -0.03600
 O1376 O 0.79269 0.70958 -0.03766
 O1377 O 0.74250 0.77609 -0.05895
 O1378 O 0.70604 0.77488 -0.04663
 O1379 O 0.74569 0.68658 0.02276
 O1380 O 0.78293 0.69185 0.01521
 O1381 O 0.72560 0.74074 0.05725
 O1382 O 0.72949 0.78111 0.05154
 O1383 O 0.69034 0.71945 0.00441
 O1384 O 0.69321 0.72325 -0.03584
 O1385 O 0.71746 0.68945 -0.00090
 O1386 O 0.71500 0.69962 -0.04001
 O1387 O 0.69433 0.74466 0.03139
 O1388 O 0.70391 0.78344 0.03141
 O1389 O 0.74974 0.71335 0.05323
 O1390 O 0.78764 0.71508 0.04234
 O1391 O 0.74758 0.80443 -0.02706
 O1392 O 0.71006 0.79788 -0.02124
 O1393 O 0.76721 0.74917 -0.06301
 O1394 O 0.76272 0.70976 -0.05648
 O1395 O 0.80456 0.77027 -0.00903
 O1396 O 0.80139 0.76680 0.02998
 Zr1397 Zr 0.77532 0.76966 0.00781
 O1398 O 0.75813 0.75011 0.02994
 Zr1399 Zr 0.76907 0.73367 -0.03231
 O1400 O 0.75170 0.71250 -0.01193
 Zr1401 Zr 0.73342 0.77345 -0.02601
 O1402 O 0.71440 0.75411 -0.00551
 Zr1403 Zr 0.76074 0.71720 0.02094
 O1404 O 0.78020 0.73654 0.00029
 Zr1405 Zr 0.72531 0.75711 0.02699
 O1406 O 0.74274 0.77862 0.00679
 Zr1407 Zr 0.71909 0.72117 -0.01325
 O1408 O 0.73617 0.74072 -0.03563
 O1409 O 0.76598 0.76641 -0.02470
 O1410 O 0.72807 0.72416 0.01951
 C1411 C 0.76439 0.81234 -0.01775
 C1412 C 0.81146 0.75960 -0.02566
 C1413 C 0.75609 0.76531 -0.07028
 C1414 C 0.72892 0.67897 0.01304
 C1415 C 0.73572 0.72388 0.06430
 C1416 C 0.68364 0.72992 0.02122
 H1417 H 0.76341 0.75269 0.04500
 H1418 H 0.69923 0.75850 -0.00717
 H1419 H 0.77450 0.77580 -0.03451
 H1420 H 0.75413 0.69727 -0.01650
 H1421 H 0.79519 0.69840 0.00736
 H1422 H 0.78872 0.69668 -0.02889
 H1423 H 0.69354 0.78330 0.01906
 H1424 H 0.71301 0.80432 -0.00667
 H1425 H 0.78767 0.72798 0.05199
 H1426 H 0.80734 0.75201 0.02794
 H1427 H 0.68484 0.73643 -0.03228
 H1428 H 0.70545 0.76088 -0.05465
 H1429 H 0.76469 0.79965 0.03508
 H1430 H 0.74244 0.77735 0.06021
 H1431 H 0.74876 0.71350 -0.06335
 H1432 H 0.72746 0.68966 -0.04017
 O1433 O 1.06135 0.22047 0.24832
 O1434 O 1.05640 0.22167 0.28803
 O1435 O 1.00454 0.18682 0.22699
 O1436 O 0.96897 0.19146 0.22932
 O1437 O 1.02587 0.24525 0.19503
 O1438 O 1.02104 0.28402 0.20451
 O1439 O 0.94897 0.24227 0.28729
 O1440 O 0.95708 0.20438 0.28069
 O1441 O 1.00220 0.27087 0.31341
 O1442 O 1.04280 0.26881 0.30276
 O1443 O 0.97355 0.29997 0.26111
 O1444 O 0.97286 0.29278 0.22034
 O1445 O 0.94622 0.26942 0.26213
 O1446 O 0.95000 0.26974 0.22251
 O1447 O 1.00138 0.30045 0.28541
 O1448 O 1.03894 0.29503 0.28248
 O1449 O 0.97883 0.24245 0.31413
 O1450 O 0.98310 0.20430 0.30584
 O1451 O 1.05778 0.24772 0.22330
 O1452 O 1.04786 0.28471 0.22576
 O1453 O 1.00142 0.21776 0.19649
 O1454 O 0.96423 0.21943 0.20690
 O1455 O 1.03253 0.18818 0.25118
 O1456 O 1.03524 0.19543 0.28887
 Zr1457 Zr 1.03140 0.21957 0.26450
 O1458 O 1.01280 0.23651 0.28755
 Zr1459 Zr 0.99064 0.21800 0.22890
 O1460 O 0.97059 0.23566 0.25003
 Zr1461 Zr 1.02607 0.25839 0.22709
 O1462 O 1.00807 0.27760 0.24884
 Zr1463 Zr 0.98003 0.22972 0.28249
 O1464 O 0.99885 0.21034 0.26153
 Zr1465 Zr 1.01571 0.26994 0.28162
 O1466 O 1.03610 0.25311 0.25976
 Zr1467 Zr 0.97554 0.26930 0.24557
 O1468 O 0.99336 0.25154 0.22220
 O1469 O 1.02313 0.22508 0.23199
 O1470 O 0.98315 0.26321 0.27820
 C1471 C 1.06860 0.23265 0.23283
 C1472 C 1.02070 0.17829 0.23705
 C1473 C 1.01523 0.22940 0.18635
 C1474 C 0.93883 0.25800 0.27799
 C1475 C 0.98798 0.25896 0.32289
 C1476 C 0.98494 0.30911 0.27622
 H1477 H 1.01759 0.23277 0.30254
 H1478 H 1.01066 0.29314 0.24562
 H1479 H 1.03202 0.21631 0.22197
 H1480 H 0.95544 0.23149 0.24756
 H1481 H 0.96421 0.19180 0.27371
 H1482 H 0.95629 0.19590 0.23785
 H1483 H 1.03813 0.30272 0.26827
 H1484 H 1.05553 0.28489 0.24002
 H1485 H 0.99680 0.20628 0.31387
 H1486 H 1.02102 0.18848 0.29055
 H1487 H 0.98468 0.30337 0.22229
 H1488 H 1.00707 0.28120 0.19722
 H1489 H 1.06308 0.23617 0.28621
 H1490 H 1.03955 0.25878 0.31496
 H1491 H 0.96471 0.23386 0.19969
 H1492 H 0.94270 0.25547 0.22324
 O1493 O 0.72185 1.00116 0.69936
 O1494 O 0.72606 0.96376 0.70718
 O1495 O 0.69471 1.02495 0.75975
 O1496 O 0.70382 1.02549 0.79499
 O1497 O 0.74463 1.06017 0.72793
 O1498 O 0.78275 1.05623 0.72705
 O1499 O 0.76265 0.97359 0.81162
 O1500 O 0.72513 0.97341 0.80842
 O1501 O 0.78637 0.94816 0.75306
 O1502 O 0.78148 0.95651 0.71456
 O1503 O 0.81194 1.00613 0.77913
 O1504 O 0.80158 1.04344 0.77960
 O1505 O 0.78584 1.00214 0.81027
 O1506 O 0.77851 1.04242 0.80277
 O1507 O 0.81206 0.97961 0.75320
 O1508 O 0.80070 0.98295 0.71295
 O1509 O 0.76342 0.94531 0.78164
 O1510 O 0.72377 0.94901 0.78221
 O1511 O 0.74539 1.02942 0.69743
 O1512 O 0.78386 1.03169 0.70315
 O1513 O 0.72178 1.05783 0.75670
 O1514 O 0.73002 1.04911 0.79580
 O1515 O 0.69443 1.00020 0.73201
 O1516 O 0.70547 0.96180 0.73426
 Zr1517 Zr 0.72642 0.98866 0.73103
 O1518 O 0.74910 0.96936 0.74783
 Zr1519 Zr 0.72690 1.02646 0.76983
 O1520 O 0.74878 1.00827 0.78892
 Zr1521 Zr 0.76078 1.03004 0.72826
 O1522 O 0.78459 1.01288 0.74580
 Zr1523 Zr 0.74625 0.97494 0.78156
 O1524 O 0.72203 0.99280 0.76489
 Zr1525 Zr 0.78048 0.97940 0.74041
 O1526 O 0.75781 0.99666 0.72108
 Zr1527 Zr 0.78003 1.01683 0.77963
 O1528 O 0.75812 1.03663 0.76196
 O1529 O 0.72954 1.02187 0.73628
 O1530 O 0.77769 0.98346 0.77410
 C1531 C 0.73079 1.01699 0.68921
 C1532 C 0.68524 1.01437 0.74435
 C1533 C 0.72995 1.06798 0.74035
 C1534 C 0.77766 0.98548 0.81978
 C1535 C 0.77839 0.93785 0.76933
 C1536 C 0.82122 0.99107 0.76823
 H1537 H 0.74680 0.95391 0.74398
 H1538 H 0.79893 1.01793 0.74127
 H1539 H 0.71893 1.03030 0.72764
 H1540 H 0.74621 1.01096 0.80463
 H1541 H 0.71137 0.97983 0.80343
 H1542 H 0.70967 1.01611 0.80677
 H1543 H 0.81087 0.99495 0.71602
 H1544 H 0.78361 1.01741 0.69567
 H1545 H 0.72547 0.94029 0.76874
 H1546 H 0.69866 0.96315 0.74878
 H1547 H 0.80694 1.04506 0.76450
 H1548 H 0.78247 1.06325 0.74163
 H1549 H 0.73995 0.96470 0.69952
 H1550 H 0.76889 0.94685 0.71604
 H1551 H 0.74157 1.05940 0.79175
 H1552 H 0.76862 1.03792 0.81451
 O1553 O 0.69176 0.52874 0.24507
 O1554 O 0.69701 0.53084 0.28343
 O1555 O 0.74998 0.55913 0.22164
 O1556 O 0.78539 0.55317 0.22528
 O1557 O 0.72571 0.50120 0.19179
 O1558 O 0.72843 0.46324 0.20155
 O1559 O 0.80274 0.50307 0.28573
 O1560 O 0.79642 0.54021 0.28051
 O1561 O 0.74602 0.47687 0.31074
 O1562 O 0.70759 0.47878 0.29926
 O1563 O 0.77621 0.44608 0.25980
 O1564 O 0.77801 0.45154 0.21987
 O1565 O 0.80448 0.47546 0.26103
 O1566 O 0.80019 0.47532 0.22039
 O1567 O 0.74824 0.44699 0.28341
 O1568 O 0.70929 0.45474 0.27681
 O1569 O 0.77258 0.50224 0.31190
 O1570 O 0.76848 0.54234 0.30277
 O1571 O 0.69418 0.50143 0.22000
 O1572 O 0.70248 0.46364 0.22353
 O1573 O 0.75181 0.52710 0.19275
 O1574 O 0.78969 0.52416 0.20515
 O1575 O 0.72157 0.56008 0.24479
 O1576 O 0.72111 0.55434 0.28424
 Zr1577 Zr 0.72210 0.52941 0.26043
 O1578 O 0.73898 0.51119 0.28420
 Zr1579 Zr 0.76263 0.52763 0.22558
 O1580 O 0.78152 0.50974 0.24803
 Zr1581 Zr 0.72525 0.48913 0.22407
 O1582 O 0.74244 0.46932 0.24611
 Zr1583 Zr 0.77206 0.51625 0.28033
 O1584 O 0.75507 0.53648 0.25800
 Zr1585 Zr 0.73449 0.47783 0.27834
 O1586 O 0.71539 0.49602 0.25624
 Zr1587 Zr 0.77529 0.47636 0.24372
 O1588 O 0.75825 0.49419 0.21955
 O1589 O 0.72988 0.52235 0.22823
 O1590 O 0.76740 0.48296 0.27604
 C1591 C 0.68397 0.51665 0.22976
 C1592 C 0.73375 0.56868 0.23021
 C1593 C 0.73719 0.51604 0.18277
 C1594 C 0.81235 0.48696 0.27672
 C1595 C 0.76131 0.48700 0.32057
 C1596 C 0.76457 0.43767 0.27489
 H1597 H 0.73414 0.51531 0.29898
 H1598 H 0.73930 0.45387 0.24299
 H1599 H 0.72126 0.53105 0.21774
 H1600 H 0.79683 0.51331 0.24595
 H1601 H 0.79074 0.55281 0.27217
 H1602 H 0.79664 0.54948 0.23617
 H1603 H 0.71291 0.44389 0.26547
 H1604 H 0.69459 0.46456 0.23749
 H1605 H 0.75693 0.53865 0.31313
 H1606 H 0.73532 0.56154 0.28407
 H1607 H 0.76471 0.44276 0.22024
 H1608 H 0.74305 0.46433 0.19545
 H1609 H 0.69098 0.51597 0.28431
 H1610 H 0.70914 0.49160 0.30894
 H1611 H 0.78794 0.51023 0.19720
 H1612 H 0.80949 0.48815 0.22282
 O1613 O 0.49608 0.18385 0.72063
 O1614 O 0.45841 0.18872 0.72209
 O1615 O 0.51698 0.24186 0.68770
 O1616 O 0.51375 0.27781 0.69297
 O1617 O 0.55057 0.21889 0.74424
 O1618 O 0.54384 0.22160 0.78291
 O1619 O 0.45910 0.29666 0.74627
 O1620 O 0.46134 0.28908 0.70909
 O1621 O 0.43608 0.24008 0.77623
 O1622 O 0.44726 0.20072 0.77472
 O1623 O 0.48786 0.27207 0.80302
 O1624 O 0.52629 0.27334 0.79561
 O1625 O 0.48534 0.29953 0.77222
 O1626 O 0.52556 0.29421 0.77008
 O1627 O 0.46500 0.24327 0.80443
 O1628 O 0.47039 0.20372 0.79780
 O1629 O 0.43341 0.26625 0.75002
 O1630 O 0.43910 0.26099 0.70951
 O1631 O 0.52291 0.18630 0.74607
 O1632 O 0.52160 0.19551 0.78452
 O1633 O 0.54749 0.24467 0.71763
 O1634 O 0.53610 0.28288 0.72068
 O1635 O 0.49331 0.21364 0.68889
 O1636 O 0.45557 0.21248 0.69790
 Zr1637 Zr 0.48100 0.21434 0.72094
 O1638 O 0.45936 0.23188 0.74041
 Zr1639 Zr 0.51555 0.25544 0.71927
 O1640 O 0.49519 0.27506 0.73825
 Zr1641 Zr 0.51980 0.21818 0.75854
 O1642 O 0.49993 0.23638 0.77956
 Zr1643 Zr 0.46313 0.26520 0.73399
 O1644 O 0.48320 0.24751 0.71269
 Zr1645 Zr 0.46766 0.22826 0.77360
 O1646 O 0.48766 0.20829 0.75427
 Zr1647 Zr 0.50181 0.26964 0.77167
 O1648 O 0.52390 0.25168 0.75255
 O1649 O 0.51310 0.22232 0.72546
 O1650 O 0.46970 0.26148 0.76729
 C1651 C 0.51206 0.17594 0.73137
 C1652 C 0.50722 0.22551 0.67901
 C1653 C 0.55819 0.23034 0.72843
 C1654 C 0.46923 0.30704 0.76130
 C1655 C 0.42591 0.25533 0.76619
 C1656 C 0.47362 0.26042 0.81271
 H1657 H 0.44457 0.22686 0.73745
 H1658 H 0.50408 0.23367 0.79496
 H1659 H 0.52261 0.21351 0.71608
 H1660 H 0.49714 0.29047 0.73405
 H1661 H 0.46868 0.28297 0.69616
 H1662 H 0.50412 0.28975 0.69747
 H1663 H 0.48304 0.20714 0.80707
 H1664 H 0.50794 0.18730 0.78424
 H1665 H 0.42940 0.24910 0.71404
 H1666 H 0.45497 0.22676 0.69043
 H1667 H 0.52708 0.25966 0.80410
 H1668 H 0.54924 0.23671 0.78177
 H1669 H 0.45911 0.18277 0.73714
 H1670 H 0.43653 0.20213 0.76278
 H1671 H 0.54508 0.28132 0.73404
 H1672 H 0.52192 0.30383 0.75760
 O1673 O 0.30414 0.76933 0.47832
 O1674 O 0.29848 0.73068 0.48143
 O1675 O 0.24559 0.79042 0.44685
 O1676 O 0.21096 0.79003 0.45323
 O1677 O 0.27149 0.82456 0.50304
 O1678 O 0.27020 0.81762 0.54180
 O1679 O 0.19263 0.73394 0.50825
 O1680 O 0.19883 0.73679 0.47001
 O1681 O 0.24861 0.70892 0.53577
 O1682 O 0.28714 0.71921 0.53435
 O1683 O 0.21989 0.76423 0.56311
 O1684 O 0.21885 0.80256 0.55440
 O1685 O 0.19141 0.76102 0.53359
 O1686 O 0.19731 0.80149 0.52975
 O1687 O 0.24643 0.73888 0.56420
 O1688 O 0.28551 0.74283 0.55695
 O1689 O 0.22232 0.70671 0.50983
 O1690 O 0.22511 0.71267 0.47013
 O1691 O 0.30302 0.79599 0.50413
 O1692 O 0.29516 0.79455 0.54277
 O1693 O 0.24571 0.82225 0.47654
 O1694 O 0.20745 0.81162 0.48110
 O1695 O 0.27345 0.76649 0.44790
 O1696 O 0.27456 0.72843 0.45715
 Zr1697 Zr 0.27375 0.75418 0.48008
 O1698 O 0.25615 0.73272 0.50000
 Zr1699 Zr 0.23395 0.79020 0.47889
 O1700 O 0.21448 0.77010 0.49831
 Zr1701 Zr 0.27198 0.79338 0.51733
 O1702 O 0.25397 0.77386 0.53878
 Zr1703 Zr 0.22316 0.73731 0.49436
 O1704 O 0.24079 0.75714 0.47259
 Zr1705 Zr 0.26074 0.74085 0.53310
 O1706 O 0.28070 0.76054 0.51327
 Zr1707 Zr 0.22113 0.77698 0.53135
 O1708 O 0.23901 0.79876 0.51185
 O1709 O 0.26674 0.78688 0.48438
 O1710 O 0.22791 0.74401 0.52748
 C1711 C 0.31259 0.78532 0.48898
 C1712 C 0.26127 0.78033 0.43799
 C1713 C 0.26025 0.83266 0.48727
 C1714 C 0.18326 0.74464 0.52348
 C1715 C 0.23349 0.69870 0.52567
 C1716 C 0.23067 0.74924 0.57276
 H1717 H 0.26063 0.71760 0.49704
 H1718 H 0.25719 0.77811 0.55405
 H1719 H 0.27530 0.79628 0.47462
 H1720 H 0.19922 0.77242 0.49445
 H1721 H 0.20494 0.74366 0.45678
 H1722 H 0.19955 0.77968 0.45740
 H1723 H 0.28290 0.75592 0.56596
 H1724 H 0.30274 0.78040 0.54253
 H1725 H 0.23833 0.70414 0.47277
 H1726 H 0.26016 0.72785 0.45023
 H1727 H 0.23255 0.80312 0.56266
 H1728 H 0.25568 0.82405 0.54062
 H1729 H 0.30534 0.73213 0.49603
 H1730 H 0.28612 0.70951 0.52147
 H1731 H 0.21009 0.82119 0.49388
 H1732 H 0.18725 0.79774 0.51772
 O1733 O 0.23297 0.24949 1.06270
 O1734 O 0.23473 0.28765 1.05407
 O1735 O 0.19664 0.22243 1.01085
 O1736 O 0.19790 0.21879 0.97501
 O1737 O 0.25765 0.19297 1.03123
 O1738 O 0.29380 0.20173 1.02509
 O1739 O 0.24565 0.27612 0.94340
 O1740 O 0.20993 0.27253 0.95516
 O1741 O 0.28002 0.30645 0.99296
 O1742 O 0.28516 0.30233 1.03023
 O1743 O 0.30417 0.24925 0.96476
 O1744 O 0.29674 0.21104 0.96822
 O1745 O 0.27199 0.25071 0.94074
 O1746 O 0.26899 0.20985 0.95034
 O1747 O 0.30843 0.27626 0.98986
 O1748 O 0.30507 0.27570 1.03226
 O1749 O 0.25055 0.30542 0.97077
 O1750 O 0.21234 0.29836 0.98030
 O1751 O 0.25939 0.22406 1.06036
 O1752 O 0.29663 0.22806 1.04700
 O1753 O 0.22766 0.19191 1.00974
 O1754 O 0.22538 0.19882 0.96914
 O1755 O 0.19997 0.24965 1.03593
 O1756 O 0.20846 0.28821 1.03209
 Zr1757 Zr 0.23090 0.26247 1.03078
 O1758 O 0.24698 0.28259 1.00830
 Zr1759 Zr 0.22601 0.22257 0.99425
 O1760 O 0.24079 0.24143 0.96984
 Zr1761 Zr 0.26881 0.22484 1.02720
 O1762 O 0.28600 0.24271 1.00373
 Zr1763 Zr 0.23680 0.27470 0.97642
 O1764 O 0.21913 0.25588 0.99899
 Zr1765 Zr 0.28006 0.27594 1.00860
 O1766 O 0.26437 0.25816 1.03360
 Zr1767 Zr 0.27402 0.23630 0.97203
 O1768 O 0.25906 0.21589 0.99528
 O1769 O 0.23579 0.22942 1.02601
 O1770 O 0.26983 0.26955 0.97676
 C1771 C 0.24486 0.23441 1.07098
 C1772 C 0.18946 0.23416 1.02659
 C1773 C 0.24106 0.18334 1.02341
 C1774 C 0.26024 0.26605 0.93277
 C1775 C 0.26738 0.31481 0.97851
 C1776 C 0.31488 0.26480 0.97352
 H1777 H 0.24426 0.29802 1.01190
 H1778 H 0.30140 0.23912 1.00515
 H1779 H 0.22784 0.22039 1.03661
 H1780 H 0.23490 0.23766 0.95525
 H1781 H 0.19833 0.26543 0.96354
 H1782 H 0.19906 0.22906 0.96262
 H1783 H 0.31562 0.26456 1.02780
 H1784 H 0.29494 0.24159 1.05560
 H1785 H 0.21711 0.30899 0.99148
 H1786 H 0.19900 0.28660 1.01909
 H1787 H 0.30683 0.21187 0.98077
 H1788 H 0.29205 0.19446 1.01073
 H1789 H 0.24950 0.28631 1.06003
 H1790 H 0.27101 0.30617 1.03627
 H1791 H 0.23846 0.18984 0.97095
 H1792 H 0.25728 0.21381 0.94006
 C1793 C 0.27429 0.40377 0.78906
 C1794 C 0.28239 0.41586 0.77288
 H1795 H 0.26052 0.40951 0.79808
 H1796 H 0.29603 0.40990 0.76385
 C1797 C 0.28367 -0.10297 0.27673
 C1798 C 0.26690 -0.09191 0.28434
 H1799 H 0.29344 -0.09612 0.26386
 H1800 H 0.25718 -0.09876 0.29724
 C1801 C 0.78080 0.90386 0.79078
 C1802 C 0.78747 0.91611 0.77403
 H1803 H 0.76794 0.90983 0.80099
 H1804 H 0.80020 0.91036 0.76355
 C1805 C 0.47036 0.84161 0.28820
 C1806 C 0.46474 0.83169 0.26950
 H1807 H 0.48241 0.83444 0.29884
 H1808 H 0.45295 0.83924 0.25882
 C1809 C -0.01694 0.85276 0.77601
 C1810 C -0.02462 0.84059 0.75956
 H1811 H -0.00402 0.84664 0.78627
 H1812 H -0.03752 0.84668 0.74929
 C1813 C -0.03777 -0.09514 -0.03058
 C1814 C -0.01821 -0.08726 -0.03456
 H1815 H -0.04855 -0.08624 -0.02002
 H1816 H -0.00751 -0.09597 -0.04533
 C1817 C -0.03496 0.40268 0.47949
 C1818 C -0.01647 0.41244 0.47391
 H1819 H -0.04583 0.41085 0.49052
 H1820 H -0.00540 0.40427 0.46315
 C1821 C 0.48249 -0.10461 0.46830
 C1822 C 0.47739 -0.09272 0.48586
 H1823 H 0.49582 -0.09951 0.45824
 H1824 H 0.46443 -0.09788 0.49637
 C1825 C 0.46193 0.40133 -0.02262
 C1826 C 0.47608 0.41524 -0.03105
 H1827 H 0.45333 0.40576 -0.00793
 H1828 H 0.48504 0.41068 -0.04545
 C1829 C 0.76957 0.35882 0.47360
 C1830 C 0.77698 0.34645 0.49008
 H1831 H 0.75628 0.35312 0.46359
 H1832 H 0.79041 0.35195 0.49998
 C1833 C 0.78935 0.84345 -0.01945
 C1834 C 0.77027 0.83461 -0.02420
 H1835 H 0.80071 0.83471 -0.00920
 H1836 H 0.75901 0.84332 -0.03455
 C1837 C 0.78623 0.28060 0.40314
 C1838 C 0.77000 0.28902 0.41463
 H1839 H 0.79500 0.26672 0.40951
 H1840 H 0.76131 0.30300 0.40844
 C1841 C 0.77666 0.76557 -0.10421
 C1842 C 0.76024 0.77319 -0.09257
 H1843 H 0.78595 0.75192 -0.09811
 H1844 H 0.75117 0.78711 -0.09836
 C1845 C 0.26954 0.46391 0.84628
 C1846 C 0.27475 0.48265 0.83652
 H1847 H 0.25857 0.45265 0.83836
 H1848 H 0.28577 0.49383 0.84440
 C1849 C 0.28175 -0.01773 0.35461
 C1850 C 0.26423 -0.02573 0.34469
 H1851 H 0.29151 -0.00572 0.34634
 H1852 H 0.25469 -0.03804 0.35273
 C1853 C -0.02347 -0.01871 -0.10862
 C1854 C -0.00762 -0.02722 -0.09627
 H1855 H -0.03189 -0.00439 -0.10292
 H1856 H 0.00114 -0.04134 -0.10183
 C1857 C -0.03049 0.47472 0.39360
 C1858 C -0.01458 0.46682 0.40619
 H1859 H -0.03844 0.48962 0.39844
 H1860 H -0.00615 0.45218 0.40142
 C1861 C 0.46076 -0.02763 0.40445
 C1862 C 0.47897 -0.03388 0.41433
 H1863 H 0.45096 -0.01499 0.41163
 H1864 H 0.48875 -0.04639 0.40695
 C1865 C 0.47618 0.46671 -0.10117
 C1866 C 0.46877 0.48337 -0.08956
 H1867 H 0.48936 0.45705 -0.09477
 H1868 H 0.45555 0.49296 -0.09594
 C1869 C 0.46647 0.78313 0.34208
 C1870 C 0.45836 0.76644 0.33063
 H1871 H 0.47993 0.79223 0.33570
 H1872 H 0.44486 0.75735 0.33691
 C1873 C -0.04133 0.77862 0.84465
 C1874 C -0.02528 0.78653 0.83259
 H1875 H -0.05019 0.76449 0.83900
 H1876 H -0.01629 0.80054 0.83828
 C1877 C 0.38989 0.76077 0.27426
 C1878 C 0.40176 0.77025 0.25889
 H1879 H 0.39603 0.74689 0.28330
 H1880 H 0.39595 0.78453 0.25030
 C1881 C -0.09614 0.77847 0.78623
 C1882 C -0.08694 0.78227 0.76693
 H1883 H -0.08850 0.76743 0.79773
 H1884 H -0.09433 0.79347 0.75543
 C1885 C 0.84747 0.27471 0.46239
 C1886 C 0.83725 0.27957 0.48097
 H1887 H 0.84020 0.26355 0.45078
 H1888 H 0.84487 0.29048 0.49259
 C1889 C 0.84229 0.78400 -0.02875
 C1890 C 0.83270 0.76530 -0.03430
 H1891 H 0.83479 0.79479 -0.01706
 H1892 H 0.83957 0.75495 -0.04675
 C1893 C -0.08811 -0.03690 -0.03189
 C1894 C -0.07688 -0.02060 -0.04085
 H1895 H -0.08163 -0.04567 -0.01793
 H1896 H -0.08310 -0.01184 -0.05491
 C1897 C -0.09213 0.46303 0.47416
 C1898 C -0.08036 0.47909 0.46567
 H1899 H -0.08556 0.45291 0.48710
 H1900 H -0.08687 0.48881 0.45242
 C1901 C 0.40716 -0.01763 0.47203
 C1902 C 0.41853 -0.02496 0.48925
 H1903 H 0.41447 -0.00624 0.46078
 H1904 H 0.41159 -0.03644 0.50063
 C1905 C 0.39880 0.48053 -0.04143
 C1906 C 0.40895 0.47621 -0.02258
 H1907 H 0.40602 0.49161 -0.05306
 H1908 H 0.40200 0.46496 -0.01100
 C1909 C 0.35001 0.46553 0.77284
 C1910 C 0.33917 0.48325 0.77906
 H1911 H 0.34350 0.45537 0.75989
 H1912 H 0.34547 0.49338 0.79212
 C1913 C 0.34008 -0.04281 0.27844
 C1914 C 0.32925 -0.02510 0.28478
 H1915 H 0.33320 -0.05356 0.26619
 H1916 H 0.33600 -0.01446 0.29717
 C1917 C 0.15323 0.53628 0.72447
 C1918 C 0.16464 0.51910 0.71758
 H1919 H 0.15990 0.54694 0.73691
 H1920 H 0.15807 0.50852 0.70504
 C1921 C 0.14243 0.02620 0.23409
 C1922 C 0.15443 0.00989 0.22652
 H1923 H 0.14851 0.03663 0.24704
 H1924 H 0.14827 -0.00063 0.21372
 C1925 C 0.59014 0.72491 0.21249
 C1926 C 0.57805 0.71684 0.22862
 H1927 H 0.58398 0.73796 0.20229
 H1928 H 0.58409 0.70365 0.23866
 C1929 C 0.09902 0.73122 0.71719
 C1930 C 0.08713 0.72340 0.73354
 H1931 H 0.09274 0.74397 0.70670
 H1932 H 0.09356 0.71096 0.74429
 C1933 C 0.64963 0.21922 0.51846
 C1934 C 0.66050 0.23657 0.52570
 H1935 H 0.65647 0.20898 0.50588
 H1936 H 0.65391 0.24644 0.53868
 C1937 C 0.65030 0.70846 0.02243
 C1938 C 0.66228 0.72502 0.02975
 H1939 H 0.65629 0.69778 0.00976
 H1940 H 0.65655 0.73524 0.04288
 C1941 C 0.10400 0.03293 0.02520
 C1942 C 0.09349 0.01459 0.02964
 H1943 H 0.09723 0.04445 0.01360
 H1944 H 0.09959 0.00357 0.04205
 C1945 C 0.10404 0.52593 0.53348
 C1946 C 0.09332 0.53098 0.51512
 H1947 H 0.09773 0.51373 0.54449
 H1948 H 0.10002 0.54293 0.50407
 C1949 C 0.60802 0.02114 0.53208
 C1950 C 0.59705 0.02569 0.51375
 H1951 H 0.60191 0.00891 0.54320
 H1952 H 0.60312 0.03790 0.50261
 C1953 C 0.59553 0.53914 0.02035
 C1954 C 0.58413 0.52155 0.02560
 H1955 H 0.58912 0.55095 0.00887
 H1956 H 0.59087 0.50982 0.03695
 C1957 C 0.03361 0.01427 0.09904
 C1958 C 0.01840 0.02241 0.08587
 H1959 H 0.04406 0.00146 0.09325
 H1960 H 0.00814 0.03539 0.09157
 C1961 C 0.04101 0.52682 0.59309
 C1962 C 0.02460 0.53386 0.58063
 H1963 H 0.05158 0.51430 0.58693
 H1964 H 0.01418 0.54656 0.58668
 C1965 C 0.53629 0.03877 0.59623
 C1966 C 0.54315 0.02174 0.58458
 H1967 H 0.52414 0.04944 0.58935
 H1968 H 0.55553 0.01119 0.59113
 C1969 C 0.53522 0.52075 0.10035
 C1970 C 0.51650 0.52483 0.09043
 H1971 H 0.54721 0.51099 0.09216
 H1972 H 0.50482 0.53511 0.09842
 C1973 C 0.23728 0.53770 0.64456
 C1974 C 0.23177 0.51930 0.65481
 H1975 H 0.24853 0.54886 0.65221
 H1976 H 0.22052 0.50818 0.64714
 C1977 C 0.22944 0.02768 0.15075
 C1978 C 0.22131 0.01113 0.16228
 H1979 H 0.24218 0.03756 0.15772
 H1980 H 0.20877 0.00111 0.15516
 C1981 C 0.70804 0.22845 0.59822
 C1982 C 0.72497 0.22170 0.58668
 H1983 H 0.69830 0.24179 0.59217
 H1984 H 0.73443 0.20808 0.59251
 C1985 C 0.71490 0.72437 0.09838
 C1986 C 0.73042 0.71545 0.08628
 H1987 H 0.70663 0.73875 0.09247
 H1988 H 0.73870 0.70104 0.09205
 C1989 C 0.53239 0.73342 0.14463
 C1990 C 0.51509 0.72585 0.15489
 H1991 H 0.54351 0.74425 0.15293
 H1992 H 0.50426 0.71474 0.14666
 C1993 C 0.03614 0.72440 0.65043
 C1994 C 0.02005 0.71625 0.66221
 H1995 H 0.04565 0.73777 0.65681
 H1996 H 0.01056 0.70283 0.65594
 C1997 C 0.52065 0.64119 0.23014
 C1998 C 0.50729 0.65431 0.21922
 H1999 H 0.52799 0.64665 0.24532
 H2000 H 0.49982 0.64876 0.20416
 C2001 C 0.01737 0.64690 0.71838
 C2002 C 0.02329 0.65859 0.73597
 H2003 H 0.00484 0.65298 0.70760
 H2004 H 0.03577 0.65245 0.74674
 C2005 C 0.02641 0.09864 0.03481
 C2006 C 0.03399 0.08732 0.01779
 H2007 H 0.01354 0.09198 0.04456
 H2008 H 0.04712 0.09385 0.00835
 C2009 C 0.02085 0.60492 0.52360
 C2010 C 0.02812 0.59373 0.50640
 H2011 H 0.00848 0.59801 0.53384
 H2012 H 0.04064 0.60050 0.49630
 C2013 C 0.52757 0.09776 0.52886
 C2014 C 0.53632 0.08529 0.51333
 H2015 H 0.51413 0.09173 0.53823
 H2016 H 0.54945 0.09140 0.50361
 C2017 C 0.51227 0.60355 0.03826
 C2018 C 0.51846 0.59155 0.02131
 H2019 H 0.49986 0.59792 0.04920
 H2020 H 0.53033 0.59808 0.01022
 C2021 C 0.72591 0.15491 0.52913
 C2022 C 0.71728 0.16799 0.51397
 H2023 H 0.73998 0.16036 0.53814
 H2024 H 0.70314 0.16282 0.50494
 C2025 C 0.72985 0.64456 0.03404
 C2026 C 0.72160 0.65687 0.01800
 H2027 H 0.74346 0.65023 0.04359
 H2028 H 0.70811 0.65101 0.00843
 C2029 C 0.21266 0.60092 0.72730
 C2030 C 0.22946 0.58977 0.71975
 H2031 H 0.20237 0.59382 0.73959
 H2032 H 0.23966 0.59690 0.70744
 C2033 C 0.22682 0.09404 0.21211
 C2034 C 0.21849 0.08229 0.22846
 H2035 H 0.23964 0.08744 0.20229
 H2036 H 0.20569 0.08901 0.23817
 C2037 C 0.72596 1.10060 0.71698
 C2038 C 0.72087 1.08957 0.73514
 H2039 H 0.73794 1.09416 0.70599
 H2040 H 0.70884 1.09595 0.74608
 C2041 C 0.71120 0.60174 0.22818
 C2042 C 0.72844 0.59055 0.22168
 H2043 H 0.70116 0.59526 0.24103
 H2044 H 0.73861 0.59716 0.20903
 C2045 C 0.53639 0.14396 0.73229
 C2046 C 0.51846 0.15381 0.72512
 H2047 H 0.54616 0.15164 0.74484
 H2048 H 0.50837 0.14605 0.71292
 C2049 C 1.01754 0.14367 0.21661
 C2050 C 1.02686 0.15579 0.23219
 H2051 H 1.00441 0.15020 0.20690
 H2052 H 1.04023 0.14937 0.24155
 C2053 C 0.21203 0.66465 0.52580
 C2054 C 0.22872 0.67640 0.53329
 H2055 H 0.20161 0.67130 0.51319
 H2056 H 0.23900 0.66983 0.54602
 C2057 C 0.21694 0.15304 1.03041
 C2058 C 0.23659 0.16147 1.03185
 H2059 H 0.20434 0.16190 1.02192
 H2060 H 0.24902 0.15318 1.04111
 C2061 C 0.23085 0.72608 0.60579
 C2062 C 0.22368 0.74356 0.59494
 H2063 H 0.24328 0.71599 0.59880
 H2064 H 0.21114 0.75350 0.60187
 C2065 C 0.22309 0.23318 1.10462
 C2066 C 0.24055 0.22698 1.09354
 H2067 H 0.21268 0.24567 1.09790
 H2068 H 0.25093 0.21448 1.10026
 C2069 C 0.71510 0.51540 0.14895
 C2070 C 0.73280 0.52191 0.15975
 H2071 H 0.70391 0.50445 0.15677
 H2072 H 0.74370 0.53331 0.15218
 C2073 C 0.73081 1.03753 0.65469
 C2074 C 0.72303 1.02132 0.66685
 H2075 H 0.74376 1.04759 0.66096
 H2076 H 0.71016 1.01119 0.66057
 C2077 C 0.52952 0.22745 0.64573
 C2078 C 0.51284 0.21897 0.65656
 H2079 H 0.53880 0.24054 0.65299
 H2080 H 0.50370 0.20576 0.64940
 C2081 C 1.03689 0.22938 0.15268
 C2082 C 1.01962 0.22278 0.16366
 H2083 H 1.04754 0.24142 0.15985
 H2084 H 1.00918 0.21052 0.15658
 C2085 C 0.59273 0.21028 0.72840
 C2086 C 0.58031 0.22650 0.72099
 H2087 H 0.58715 0.19990 0.74151
 H2088 H 0.58607 0.23691 0.70800
 C2089 C 1.10260 0.21206 0.23061
 C2090 C 1.09042 0.22890 0.22439
 H2091 H 1.09684 0.20103 0.24309
 H2092 H 1.09609 0.23980 0.21176
 C2093 C 0.15154 0.72052 0.52210
 C2094 C 0.16180 0.73783 0.53043
 H2095 H 0.15865 0.71119 0.50898
 H2096 H 0.15453 0.74727 0.54333
 C2097 C 0.15576 0.21312 1.02718
 C2098 C 0.16795 0.22931 1.03513
 H2099 H 0.16137 0.20345 1.01355
 H2100 H 0.16230 0.23909 1.04864
 C2101 C 0.64872 0.53442 0.23171
 C2102 C 0.66211 0.52064 0.22194
 H2103 H 0.65333 0.54254 0.24678
 H2104 H 0.65701 0.51186 0.20743
 C2105 C 0.65194 1.01442 0.72203
 C2106 C 0.66278 1.02053 0.74000
 H2107 H 0.65871 1.00246 0.71105
 H2108 H 0.65570 1.03227 0.75101
 C2109 C 0.84461 0.46427 0.27702
 C2110 C 0.83384 0.48126 0.28506
 H2111 H 0.83757 0.45447 0.26407
 H2112 H 0.84073 0.49107 0.29806
 C2113 C 0.85424 0.96891 0.76731
 C2114 C 0.84371 0.98654 0.77426
 H2115 H 0.84664 0.95795 0.75570
 H2116 H 0.85117 0.99729 0.78610
 C2117 C 0.39375 0.27872 0.76804
 C2118 C 0.40462 0.26108 0.77474
 H2119 H 0.39984 0.28854 0.75473
 H2120 H 0.39854 0.25131 0.78807
 C2121 C 0.90641 0.28059 0.27835
 C2122 C 0.91750 0.26373 0.28652
 H2123 H 0.91272 0.28966 0.26461
 H2124 H 0.91133 0.25459 0.30026
 C2125 C 0.34534 0.78412 0.46641
 C2126 C 0.33443 0.79270 0.48313
 H2127 H 0.33828 0.77093 0.45703
 H2128 H 0.34135 0.80601 0.49242
 C2129 C 0.34993 0.28306 0.97335
 C2130 C 0.33596 0.26948 0.96390
 H2131 H 0.34588 0.29089 0.98866
 H2132 H 0.34017 0.26118 0.94890
 C2133 C 0.78374 0.48630 0.35427
 C2134 C 0.76647 0.47956 0.34295
 H2135 H 0.79377 0.49914 0.34778
 H2136 H 0.75637 0.46691 0.34966
 C2137 C 0.77883 0.96308 0.85324
 C2138 C 0.78657 0.97959 0.84134
 H2139 H 0.76493 0.95406 0.84751
 H2140 H 0.80013 0.98893 0.84731
 C2141 C 0.28368 0.77904 0.40537
 C2142 C 0.26588 0.78588 0.41515
 H2143 H 0.29474 0.76840 0.41401
 H2144 H 0.25502 0.79686 0.40673
 C2145 C 0.28199 0.26799 0.89945
 C2146 C 0.26425 0.27356 0.91026
 H2147 H 0.29312 0.25644 0.90666
 H2148 H 0.25337 0.28551 0.90337
 C2149 C 0.47207 0.28534 0.84485
 C2150 C 0.46581 0.26709 0.83456
 H2151 H 0.48430 0.29553 0.83761
 H2152 H 0.45381 0.25681 0.84204
 C2153 C 0.98482 0.28341 0.35498
 C2154 C 0.98036 0.26462 0.34493
 H2155 H 0.99624 0.29463 0.34789
 H2156 H 0.96910 0.25345 0.35234
 C2157 C 0.47080 0.34132 0.78162
 C2158 C 0.46154 0.32902 0.76624
 H2159 H 0.48467 0.33535 0.79059
 H2160 H 0.44768 0.33493 0.75725
 C2161 C 0.96260 0.34225 0.27583
 C2162 C 0.97906 0.33093 0.28408
 H2163 H 0.95318 0.33561 0.26242
 H2164 H 0.98868 0.33778 0.29722
 C2165 C 0.28114 0.86667 0.48828
 C2166 C 0.26491 0.85497 0.47993
 H2167 H 0.29058 0.86025 0.50178
 H2168 H 0.25555 0.86128 0.46634
 C2169 C 0.28919 0.34837 0.97628
 C2170 C 0.27258 0.33631 0.96935
 H2171 H 0.29877 0.34317 0.99020
 H2172 H 0.26260 0.34205 0.95595
 C2173 C 0.78772 0.40531 0.27664
 C2174 C 0.77041 0.41606 0.28354
 H2175 H 0.79744 0.41211 0.26369
 H2176 H 0.76059 0.40926 0.29638
   
