data_POSCAR
  _audit_creation_date              2014-09-24
  _audit_creation_method            'ToBaCCo'
  _symmetry_space_group_name_H-M    'P1'
  _symmetry_Int_Tables_number       1
  _symmetry_cell_setting            triclinic
  loop_
  _symmetry_equiv_pos_as_xyz
 x,y,z
_cell_length_a 51.4624
_cell_length_b 51.1976
_cell_length_c 50.6590
_cell_angle_alpha 90.058800
_cell_angle_beta 89.909400
_cell_angle_gamma 89.821900
loop_
  _atom_site_label
  _atom_site_type_symbol
  _atom_site_fract_x
  _atom_site_fract_y
  _atom_site_fract_z
C1 C 0.33737 1.37625 0.35022
 C2 C 0.34365 1.39292 0.32933
 C3 C 0.36663 1.38948 0.31481
 C4 C 0.38340 1.36848 0.32149
 C5 C 0.37688 1.35113 0.34197
 C6 C 0.35377 1.35513 0.35642
 C7 C 0.31450 1.38022 0.36457
 C8 C 0.30739 1.36319 0.38526
 C9 C 0.32340 1.34157 0.39064
 C10 C 0.34661 1.33760 0.37658
 C11 C 0.36253 1.31611 0.38211
 C12 C 0.38577 1.31192 0.36799
 C13 C 0.39271 1.32944 0.34782
 H14 H 0.33055 1.40885 0.32444
 H15 H 0.40083 1.36458 0.31020
 H16 H 0.30194 1.39605 0.35847
 H17 H 0.31798 1.32795 0.40609
 H18 H 0.35624 1.30226 0.39692
 H19 H 0.41036 1.32605 0.33659
 C20 C 0.32715 0.85710 0.81746
 C21 C 0.34199 0.86249 0.79467
 C22 C 0.36205 0.84535 0.78660
 C23 C 0.36715 0.82286 0.80145
 C24 C 0.35310 0.81761 0.82452
 C25 C 0.33299 0.83467 0.83254
 C26 C 0.30646 0.87350 0.82533
 C27 C 0.29173 0.86809 0.84827
 C28 C 0.29812 0.84555 0.86309
 C29 C 0.31849 0.82901 0.85543
 C30 C 0.32440 0.80664 0.87033
 C31 C 0.34482 0.79002 0.86285
 C32 C 0.35882 0.79542 0.83962
 H33 H 0.33755 0.87960 0.78291
 H34 H 0.38244 0.80960 0.79517
 H35 H 0.30187 0.89058 0.81355
 H36 H 0.28698 0.83987 0.88020
 H37 H 0.31330 0.80227 0.88799
 H38 H 0.37392 0.78217 0.83295
 C39 C 0.80546 1.35603 0.81200
 C40 C 0.81794 1.36689 0.79022
 C41 C 0.84363 1.36006 0.78389
 C42 C 0.85623 1.34044 0.79891
 C43 C 0.84348 1.32864 0.82044
 C44 C 0.81822 1.33701 0.82736
 C45 C 0.78069 1.36478 0.81920
 C46 C 0.76892 1.35564 0.84223
 C47 C 0.78125 1.33617 0.85730
 C48 C 0.80579 1.32667 0.84985
 C49 C 0.81823 1.30732 0.86475
 C50 C 0.84283 1.29788 0.85741
 C51 C 0.85559 1.30891 0.83541
 H52 H 0.80788 1.38171 0.77878
 H53 H 0.87567 1.33397 0.79399
 H54 H 0.77109 1.37978 0.80762
 H55 H 0.77184 1.32858 0.87483
 H56 H 0.80857 1.29925 0.88194
 H57 H 0.87501 1.30252 0.83017
 C58 C 0.83928 0.85936 0.33376
 C59 C 0.84967 0.87165 0.31108
 C60 C 0.86951 0.85925 0.29608
 C61 C 0.87822 0.83446 0.30385
 C62 C 0.86890 0.82263 0.32667
 C63 C 0.84953 0.83503 0.34187
 C64 C 0.81895 0.87084 0.34856
 C65 C 0.80916 0.85838 0.37144
 C66 C 0.82060 0.83485 0.37982
 C67 C 0.84056 0.82301 0.36522
 C68 C 0.85175 0.79930 0.37355
 C69 C 0.87132 0.78724 0.35833
 C70 C 0.87924 0.79869 0.33469
 H71 H 0.84196 0.89042 0.30515
 H72 H 0.89322 0.82452 0.29252
 H73 H 0.81107 0.88948 0.34239
 H74 H 0.81354 0.82542 0.39760
 H75 H 0.84503 0.79011 0.39156
 H76 H 0.89424 0.78929 0.32293
 C77 C 0.68047 0.64379 0.33161
 C78 C 0.67285 0.62785 0.31023
 C79 C 0.65149 0.63481 0.29420
 C80 C 0.63882 0.65882 0.29914
 C81 C 0.64620 0.67478 0.32014
 C82 C 0.66685 0.66723 0.33668
 C83 C 0.70152 0.63681 0.34791
 C84 C 0.70901 0.65298 0.36921
 C85 C 0.69518 0.67623 0.37396
 C86 C 0.67408 0.68340 0.35801
 C87 C 0.66018 0.70661 0.36285
 C88 C 0.63955 0.71404 0.34622
 C89 C 0.63305 0.69831 0.32471
 H90 H 0.68325 0.60978 0.30642
 H91 H 0.62365 0.66600 0.28630
 H92 H 0.71237 0.61919 0.34351
 H93 H 0.70093 0.68880 0.39017
 H94 H 0.66568 0.71909 0.37920
 H95 H 0.61722 0.70417 0.31187
 C96 C 0.65059 0.12410 0.84042
 C97 C 0.63668 0.11970 0.81721
 C98 C 0.61620 0.13638 0.80976
 C99 C 0.61040 0.15825 0.82554
 C100 C 0.62438 0.16304 0.84892
 C101 C 0.64442 0.14572 0.85647
 C102 C 0.67097 0.10737 0.84743
 C103 C 0.68519 0.11139 0.87068
 C104 C 0.67883 0.13311 0.88682
 C105 C 0.65880 0.15039 0.87965
 C106 C 0.65339 0.17266 0.89494
 C107 C 0.63356 0.19009 0.88764
 C108 C 0.61906 0.18510 0.86456
 H109 H 0.64244 0.10358 0.80463
 H110 H 0.59503 0.17152 0.81959
 H111 H 0.67572 0.09098 0.83467
 H112 H 0.68996 0.13760 0.90430
 H113 H 0.66472 0.17656 0.91254
 H114 H 0.60423 0.19875 0.85821
 C115 C 1.16039 0.63140 0.83508
 C116 C 1.14642 0.62607 0.81212
 C117 C 1.12503 0.64158 0.80482
 C118 C 1.11853 0.66350 0.82032
 C119 C 1.13264 0.66930 0.84341
 C120 C 1.15348 0.65293 0.85094
 C121 C 1.18134 0.61545 0.84219
 C122 C 1.19523 0.61998 0.86553
 C123 C 1.18834 0.64176 0.88135
 C124 C 1.16781 0.65838 0.87398
 C125 C 1.16169 0.68060 0.88905
 C126 C 1.14113 0.69717 0.88177
 C127 C 1.12656 0.69131 0.85892
 H128 H 1.15268 0.61000 0.79972
 H129 H 1.10245 0.67592 0.81444
 H130 H 1.18654 0.59902 0.82966
 H131 H 1.19933 0.64669 0.89881
 H132 H 1.17298 0.68508 0.90653
 H133 H 1.11105 0.70424 0.85269
 C134 C 1.19112 0.14753 0.30673
 C135 C 1.17995 0.13994 0.28298
 C136 C 1.15579 0.14981 0.27501
 C137 C 1.14352 0.16930 0.29068
 C138 C 1.15536 0.17822 0.31422
 C139 C 1.17894 0.16662 0.32249
 C140 C 1.21406 0.13554 0.31519
 C141 C 1.22454 0.14126 0.33999
 C142 C 1.21300 0.16125 0.35530
 C143 C 1.19053 0.17412 0.34647
 C144 C 1.17957 0.19440 0.36130
 C145 C 1.15680 0.20705 0.35300
 C146 C 1.14436 0.19852 0.32961
 H147 H 1.18972 0.12514 0.27117
 H148 H 1.12529 0.17793 0.28455
 H149 H 1.22300 0.12058 0.30294
 H150 H 1.22155 0.16738 0.37379
 H151 H 1.18896 0.20056 0.37942
 H152 H 1.12679 0.20810 0.32291
 C153 C 0.67623 1.36110 0.67130
 C154 C 0.66769 1.37613 0.69294
 C155 C 0.64716 1.36742 0.70896
 C156 C 0.63590 1.34298 0.70385
 C157 C 0.64403 1.32797 0.68236
 C158 C 0.66413 1.33705 0.66583
 C159 C 0.69671 1.36970 0.65520
 C160 C 0.70548 1.35452 0.63349
 C161 C 0.69286 1.33067 0.62818
 C162 C 0.67222 1.32194 0.64401
 C163 C 0.65950 1.29829 0.63850
 C164 C 0.63927 1.28944 0.65496
 C165 C 0.63212 1.30404 0.67711
 H166 H 0.67679 1.39474 0.69719
 H167 H 0.62094 1.33535 0.71675
 H168 H 0.70590 1.38790 0.66045
 H169 H 0.69914 1.31875 0.61162
 H170 H 0.66550 1.28664 0.62166
 H171 H 0.61662 1.29709 0.68981
 C172 C 0.67449 0.84707 1.17635
 C173 C 0.66289 0.85940 1.19836
 C174 C 0.64262 0.84693 1.21249
 C175 C 0.63477 0.82190 1.20469
 C176 C 0.64522 0.81006 1.18231
 C177 C 0.66504 0.82258 1.16794
 C178 C 0.69534 0.85864 1.16261
 C179 C 0.70651 0.84606 1.14045
 C180 C 0.69600 0.82227 1.13173
 C181 C 0.67529 0.81054 1.14513
 C182 C 0.66453 0.78700 1.13605
 C183 C 0.64422 0.77507 1.15012
 C184 C 0.63538 0.78615 1.17366
 H185 H 0.67011 0.87825 1.20455
 H186 H 0.61942 0.81197 1.21541
 H187 H 0.70315 0.87694 1.16971
 H188 H 0.70419 0.81267 1.11452
 H189 H 0.67183 0.77801 1.11812
 H190 H 0.61979 0.77678 1.18451
 C191 C 1.15931 1.36542 1.16693
 C192 C 1.14340 1.36901 1.18907
 C193 C 1.12096 1.35380 1.19270
 C194 C 1.11511 1.33413 1.17435
 C195 C 1.13087 1.33035 1.15195
 C196 C 1.15293 1.34623 1.14810
 C197 C 1.18157 1.38074 1.16352
 C198 C 1.19730 1.37802 1.14100
 C199 C 1.19074 1.35868 1.12210
 C200 C 1.16888 1.34262 1.12571
 C201 C 1.16288 1.32274 1.10750
 C202 C 1.14092 1.30685 1.11113
 C203 C 1.12504 1.31081 1.13349
 H204 H 1.14877 1.38347 1.20370
 H205 H 1.09811 1.32203 1.17737
 H206 H 1.18636 1.39529 1.17832
 H207 H 1.20297 1.35514 1.10509
 H208 H 1.17528 1.31959 1.09046
 H209 H 1.10854 1.29820 1.13704
 C210 C 1.17693 0.86111 0.66394
 C211 C 1.16879 0.87629 0.68581
 C212 C 1.14819 0.86793 0.70220
 C213 C 1.13625 0.84386 0.69680
 C214 C 1.14384 0.82878 0.67514
 C215 C 1.16421 0.83730 0.65862
 C216 C 1.19767 0.86908 0.64751
 C217 C 1.20605 0.85330 0.62597
 C218 C 1.19291 0.82967 0.62119
 C219 C 1.17205 0.82172 0.63707
 C220 C 1.15903 0.79820 0.63182
 C221 C 1.13836 0.78999 0.64805
 C222 C 1.13131 0.80512 0.66991
 H223 H 1.17846 0.89458 0.69011
 H224 H 1.12133 0.83629 0.70975
 H225 H 1.20741 0.88715 0.65224
 H226 H 1.19889 0.81729 0.60486
 H227 H 1.16531 0.78613 0.61541
 H228 H 1.11562 0.79863 0.68262
 C229 C 0.34676 0.62888 0.65432
 C230 C 0.35874 0.61412 0.67439
 C231 C 0.38252 0.62228 0.68535
 C232 C 0.39431 0.64506 0.67604
 C233 C 0.38238 0.66022 0.65661
 C234 C 0.35864 0.65211 0.64547
 C235 C 0.32297 0.62105 0.64331
 C236 C 0.31085 0.63608 0.62343
 C237 C 0.32287 0.65934 0.61500
 C238 C 0.34663 0.66750 0.62585
 C239 C 0.35839 0.69104 0.61782
 C240 C 0.38189 0.69929 0.62944
 C241 C 0.39366 0.68371 0.64868
 H242 H 0.34969 0.59629 0.68127
 H243 H 0.41254 0.65143 0.68458
 H244 H 0.31386 0.60356 0.65081
 H245 H 0.31361 0.67120 0.59997
 H246 H 0.34886 0.70320 0.60326
 H247 H 0.41171 0.69004 0.65766
 C248 C 0.31153 0.13952 1.17776
 C249 C 0.32364 0.12776 1.19934
 C250 C 0.34722 0.13732 1.20935
 C251 C 0.35852 0.15956 1.19732
 C252 C 0.34629 0.17185 1.17571
 C253 C 0.32279 0.16160 1.16585
 C254 C 0.28818 0.12945 1.16799
 C255 C 0.27602 0.14087 1.14615
 C256 C 0.28702 0.16316 1.13448
 C257 C 0.31027 0.17359 1.14427
 C258 C 0.32099 0.19600 1.13296
 C259 C 0.34419 0.20669 1.14261
 C260 C 0.35689 0.19442 1.16401
 H261 H 0.31460 0.11081 1.20831
 H262 H 0.37638 0.16780 1.20474
 H263 H 0.27957 0.11242 1.17720
 H264 H 0.27733 0.17272 1.11815
 H265 H 0.31113 0.20530 1.11654
 H266 H 0.37454 0.20262 1.17206
 C267 C 0.81238 0.64616 1.18523
 C268 C 0.82274 0.63728 1.20902
 C269 C 0.84650 0.64672 1.21831
 C270 C 0.85966 0.66626 1.20392
 C271 C 0.84904 0.67603 1.18019
 C272 C 0.82548 0.66551 1.17063
 C273 C 0.78914 0.63568 1.17580
 C274 C 0.77890 0.64362 1.15154
 C275 C 0.79177 0.66313 1.13695
 C276 C 0.81493 0.67428 1.14651
 C277 C 0.82761 0.69410 1.13245
 C278 C 0.85057 0.70553 1.14208
 C279 C 0.86142 0.69607 1.16587
 H280 H 0.81254 0.62237 1.22014
 H281 H 0.87776 0.67411 1.21136
 H282 H 0.77918 0.62078 1.18716
 H283 H 0.78362 0.66998 1.11850
 H284 H 0.81935 0.70098 1.11403
 H285 H 0.87952 0.70397 1.17317
 C286 C 0.84890 0.12361 0.65045
 C287 C 0.85915 0.10815 0.67104
 C288 C 0.88392 0.11370 0.68179
 C289 C 0.89836 0.13438 0.67116
 C290 C 0.88797 0.15049 0.65167
 C291 C 0.86325 0.14515 0.64113
 C292 C 0.82437 0.11826 0.63942
 C293 C 0.81382 0.13445 0.61935
 C294 C 0.82821 0.15631 0.61106
 C295 C 0.85271 0.16175 0.62172
 C296 C 0.86656 0.18397 0.61371
 C297 C 0.89101 0.18962 0.62479
 C298 C 0.90166 0.17256 0.64341
 H299 H 0.84787 0.09185 0.67825
 H300 H 0.91739 0.13894 0.67912
 H301 H 0.81375 0.10174 0.64702
 H302 H 0.82036 0.16923 0.59607
 H303 H 0.85773 0.19725 0.59972
 H304 H 0.92043 0.17693 0.65206
 C305 C 1.36126 0.33000 0.67779
 C306 C 1.36549 0.34541 0.70015
 C307 C 1.34860 0.36631 0.70662
 C308 C 1.32662 0.37063 0.69065
 C309 C 1.32227 0.35540 0.66796
 C310 C 1.33979 0.33514 0.66143
 C311 C 1.37829 0.30943 0.67168
 C312 C 1.37490 0.29446 0.64873
 C313 C 1.35318 0.29968 0.63245
 C314 C 1.33559 0.31969 0.63881
 C315 C 1.31372 0.32430 0.62298
 C316 C 1.29636 0.34456 0.62908
 C317 C 1.30068 0.36003 0.65169
 H318 H 1.38158 0.34016 0.71278
 H319 H 1.31315 0.38624 0.69555
 H320 H 1.39469 0.30550 0.68453
 H321 H 1.34903 0.28770 0.61539
 H322 H 1.31029 0.31229 0.60569
 H323 H 1.28698 0.37529 0.65694
 C324 C 1.36302 0.84692 1.16585
 C325 C 1.37005 0.86216 1.18769
 C326 C 1.35499 0.88396 1.19519
 C327 C 1.33238 0.88995 1.18099
 C328 C 1.32519 0.87498 1.15898
 C329 C 1.34064 0.85346 1.15126
 C330 C 1.37795 0.82510 1.15861
 C331 C 1.37132 0.80978 1.13656
 C332 C 1.34882 0.81662 1.12196
 C333 C 1.33344 0.83820 1.12930
 C334 C 1.31072 0.84455 1.11526
 C335 C 1.29527 0.86604 1.12270
 C336 C 1.30261 0.88104 1.14478
 H337 H 1.38695 0.85663 1.19914
 H338 H 1.32050 0.90646 1.18700
 H339 H 1.39501 0.82015 1.17015
 H340 H 1.34243 0.80497 1.10543
 H341 H 1.30499 0.83274 1.09847
 H342 H 1.29051 0.89705 1.15151
 C343 C 0.86246 0.34483 1.16619
 C344 C 0.86945 0.35939 1.18861
 C345 C 0.85337 0.37986 1.19786
 C346 C 0.83008 0.38536 1.18458
 C347 C 0.82289 0.37107 1.16214
 C348 C 0.83912 0.35075 1.15292
 C349 C 0.87826 0.32425 1.15699
 C350 C 0.87134 0.30977 1.13437
 C351 C 0.84771 0.31582 1.12158
 C352 C 0.83171 0.33601 1.13070
 C353 C 0.80816 0.34142 1.11798
 C354 C 0.79216 0.36178 1.12674
 C355 C 0.79954 0.37655 1.14894
 H356 H 0.88703 0.35425 1.19912
 H357 H 0.81751 0.40086 1.19178
 H358 H 0.89614 0.31967 1.16734
 H359 H 0.84081 0.30443 1.10507
 H360 H 0.80234 0.32994 1.10099
 H361 H 0.78689 0.39186 1.15634
 C362 C 0.85805 0.81482 0.67176
 C363 C 0.87181 0.82023 0.69496
 C364 C 0.86520 0.84183 0.71055
 C365 C 0.84386 0.85757 0.70336
 C366 C 0.82972 0.85219 0.68036
 C367 C 0.83699 0.83086 0.66431
 C368 C 0.86508 0.79354 0.65598
 C369 C 0.85163 0.78812 0.63247
 C370 C 0.83034 0.80386 0.62532
 C371 C 0.82300 0.82534 0.64103
 C372 C 0.80183 0.84128 0.63400
 C373 C 0.79448 0.86264 0.65002
 C374 C 0.80839 0.86774 0.67324
 H375 H 0.88804 0.80792 0.70068
 H376 H 0.83798 0.87375 0.71582
 H377 H 0.88078 0.78094 0.66242
 H378 H 0.81965 0.79948 0.60744
 H379 H 0.79080 0.83663 0.61644
 H380 H 0.80267 0.88402 0.68569
 C381 C 0.63755 0.66476 0.67236
 C382 C 0.62984 0.64962 0.69422
 C383 C 0.64547 0.62869 0.70308
 C384 C 0.66880 0.62310 0.68996
 C385 C 0.67643 0.63758 0.66785
 C386 C 0.66087 0.65853 0.65901
 C387 C 0.62262 0.68624 0.66384
 C388 C 0.63054 0.70147 0.64212
 C389 C 0.65385 0.69491 0.62895
 C390 C 0.66893 0.67352 0.63714
 C391 C 0.69216 0.66706 0.62396
 C392 C 0.70736 0.64576 0.63225
 C393 C 0.69956 0.63147 0.65460
 H394 H 0.61212 0.65455 0.70469
 H395 H 0.68093 0.60715 0.69686
 H396 H 0.60486 0.69125 0.67424
 H397 H 0.66085 0.70674 0.61278
 H398 H 0.69835 0.67848 0.60708
 H399 H 0.71161 0.61581 0.66215
 C400 C 0.66328 1.19159 1.18869
 C401 C 0.65212 1.18176 1.21211
 C402 C 0.66577 1.16338 1.22756
 C403 C 0.69046 1.15501 1.21974
 C404 C 0.70128 1.16369 1.19610
 C405 C 0.68783 1.18217 1.18057
 C406 C 0.65032 1.21035 1.17310
 C407 C 0.66177 1.21985 1.14948
 C408 C 0.68603 1.20973 1.14165
 C409 C 0.69885 1.19083 1.15670
 C410 C 0.72225 1.17988 1.14780
 C411 C 0.73473 1.16032 1.16255
 C412 C 0.72484 1.15321 1.18720
 H413 H 0.63310 1.18845 1.21841
 H414 H 0.70080 1.14072 1.23159
 H415 H 0.63171 1.21756 1.17988
 H416 H 0.69496 1.21638 1.12345
 H417 H 0.73041 1.18610 1.12910
 H418 H 0.73469 1.13830 1.19868
 C419 C 0.13830 0.68503 1.17449
 C420 C 0.12334 0.67772 1.19645
 C421 C 0.12949 0.65522 1.21102
 C422 C 0.15192 0.64076 1.20399
 C423 C 0.16732 0.64822 1.18247
 C424 C 0.16035 0.67026 1.16742
 C425 C 0.13136 0.70692 1.15956
 C426 C 0.14604 0.71444 1.13720
 C427 C 0.16849 0.69986 1.13077
 C428 C 0.17563 0.67775 1.14558
 C429 C 0.19784 0.66303 1.13901
 C430 C 0.20493 0.64099 1.15412
 C431 C 0.18969 0.63396 1.17590
 H432 H 0.10638 0.68924 1.20177
 H433 H 0.15824 0.62419 1.21556
 H434 H 0.11483 0.71818 1.16622
 H435 H 0.18026 0.70550 1.11395
 H436 H 0.20984 0.66908 1.12254
 H437 H 0.19518 0.61710 1.18762
 C438 C 0.13174 1.14941 0.66589
 C439 C 0.12415 1.13208 0.68583
 C440 C 0.14019 1.11077 0.69310
 C441 C 0.16413 1.10744 0.68008
 C442 C 0.17163 1.12426 0.65959
 C443 C 0.15544 1.14536 0.65252
 C444 C 0.11612 1.17099 0.65939
 C445 C 0.12364 1.18827 0.63936
 C446 C 0.14730 1.18406 0.62598
 C447 C 0.16320 1.16274 0.63241
 C448 C 0.18685 1.15865 0.61921
 C449 C 0.20272 1.13728 0.62562
 C450 C 0.19518 1.12038 0.64618
 H451 H 0.10626 1.13622 0.69626
 H452 H 0.17682 1.09138 0.68558
 H453 H 0.09802 1.17435 0.66987
 H454 H 0.15377 1.19773 0.61106
 H455 H 0.19282 1.17195 0.60371
 H456 H 0.20776 1.10444 0.65210
 C457 C 1.35357 0.67480 0.33581
 C458 C 1.36407 0.66113 0.31395
 C459 C 1.35432 0.63615 0.30672
 C460 C 1.33456 0.62503 0.32221
 C461 C 1.32376 0.63845 0.34360
 C462 C 1.33299 0.66348 0.35022
 C463 C 1.36302 0.69963 0.34352
 C464 C 1.35126 0.71339 0.36481
 C465 C 1.33012 0.70204 0.37789
 C466 C 1.32135 0.67724 0.37122
 C467 C 1.30101 0.66604 0.38550
 C468 C 1.29217 0.64100 0.37940
 C469 C 1.30347 0.62728 0.35822
 H470 H 1.37970 0.67008 0.30297
 H471 H 1.32701 0.60587 0.31725
 H472 H 1.37889 0.70821 0.33255
 H473 H 1.32076 0.71229 0.39413
 H474 H 1.29209 0.67680 0.40163
 H475 H 1.29615 0.60829 0.35255
 C476 C 1.36255 1.16897 0.83999
 C477 C 1.37919 1.16305 0.81867
 C478 C 1.37325 1.14273 0.80096
 C479 C 1.35009 1.12857 0.80457
 C480 C 1.33330 1.13423 0.82564
 C481 C 1.33949 1.15453 0.84341
 C482 C 1.36842 1.18933 0.85768
 C483 C 1.35127 1.19591 0.87863
 C484 C 1.32813 1.18150 0.88136
 C485 C 1.32233 1.16070 0.86425
 C486 C 1.29945 1.14612 0.86751
 C487 C 1.29342 1.12549 0.85011
 C488 C 1.31024 1.12003 0.82901
 H489 H 1.39682 1.17425 0.81581
 H490 H 1.34462 1.11354 0.79061
 H491 H 1.38587 1.20049 0.85413
 H492 H 1.31464 1.18628 0.89714
 H493 H 1.28613 1.15123 0.88329
 H494 H 1.30546 1.10447 0.81533
 C495 C 0.86337 0.66318 0.83271
 C496 C 0.87170 0.64816 0.81108
 C497 C 0.85738 0.62622 0.80281
 C498 C 0.83439 0.61975 0.81614
 C499 C 0.82591 0.63448 0.83787
 C500 C 0.84046 0.65624 0.84628
 C501 C 0.87737 0.68527 0.84070
 C502 C 0.86908 0.70036 0.86230
 C503 C 0.84615 0.69332 0.87578
 C504 C 0.83178 0.67137 0.86788
 C505 C 0.80865 0.66454 0.88093
 C506 C 0.79418 0.64271 0.87282
 C507 C 0.80289 0.62795 0.85104
 H508 H 0.88894 0.65406 0.80039
 H509 H 0.82312 0.60309 0.80959
 H510 H 0.89485 0.69076 0.83011
 H511 H 0.83900 0.70522 0.89192
 H512 H 0.80186 0.67622 0.89744
 H513 H 0.79152 0.61174 0.84373
 C514 C 0.86685 1.17110 0.32661
 C515 C 0.87341 1.15600 0.30458
 C516 C 0.85845 1.13400 0.29737
 C517 C 0.83658 1.12763 0.31284
 C518 C 0.82993 1.14252 0.33518
 C519 C 0.84506 1.16441 0.34198
 C520 C 0.88162 1.19310 0.33325
 C521 C 0.87505 1.20832 0.35525
 C522 C 0.85303 1.20184 0.37031
 C523 C 0.83811 1.17998 0.36388
 C524 C 0.81621 1.17361 0.37890
 C525 C 0.80143 1.15156 0.37272
 C526 C 0.80823 1.13612 0.35069
 H527 H 0.88966 1.16247 0.29279
 H528 H 0.82472 1.11095 0.30755
 H529 H 0.89837 1.19836 0.32139
 H530 H 0.84705 1.21407 0.38671
 H531 H 0.81078 1.18565 0.39567
 H532 H 0.79637 1.11952 0.34527
 C533 C 0.64331 0.33065 0.33640
 C534 C 0.62648 0.33828 0.31588
 C535 C 0.63170 0.36066 0.30052
 C536 C 0.65483 0.37463 0.30543
 C537 C 0.67178 0.36715 0.32558
 C538 C 0.66598 0.34525 0.34132
 C539 C 0.63793 0.30861 0.35202
 C540 C 0.65497 0.30103 0.37247
 C541 C 0.67757 0.31564 0.37699
 C542 C 0.68309 0.33781 0.36175
 C543 C 0.70550 0.35266 0.36652
 C544 C 0.71118 0.37458 0.35081
 C545 C 0.69455 0.38137 0.33014
 H546 H 0.60905 0.32701 0.31215
 H547 H 0.66055 0.39092 0.29322
 H548 H 0.62080 0.29710 0.34782
 H549 H 0.69081 0.30978 0.39254
 H550 H 0.71870 0.34695 0.38216
 H551 H 0.69908 0.39820 0.31798
 C552 C 0.64290 0.81175 0.82098
 C553 C 0.63069 0.81879 0.79740
 C554 C 0.63710 0.84208 0.78462
 C555 C 0.65665 0.85825 0.79524
 C556 C 0.66968 0.85100 0.81860
 C557 C 0.66255 0.82773 0.83160
 C558 C 0.63562 0.78892 0.83409
 C559 C 0.64745 0.78188 0.85802
 C560 C 0.66769 0.79723 0.86805
 C561 C 0.67525 0.82020 0.85506
 C562 C 0.69535 0.83563 0.86516
 C563 C 0.70280 0.85887 0.85239
 C564 C 0.68983 0.86637 0.82908
 H565 H 0.61572 0.80634 0.78918
 H566 H 0.66209 0.87603 0.78508
 H567 H 0.62082 0.77658 0.82546
 H568 H 0.67720 0.79151 0.88625
 H569 H 0.70548 0.82895 0.88259
 H570 H 0.69556 0.88412 0.81901
 C571 C 0.15293 0.31580 0.82613
 C572 C 0.14207 0.33300 0.80761
 C573 C 0.15371 0.35740 0.80241
 C574 C 0.17551 0.36501 0.81719
 C575 C 0.18654 0.34805 0.83587
 C576 C 0.17560 0.32311 0.83981
 C577 C 0.14135 0.29150 0.83138
 C578 C 0.15267 0.27410 0.84974
 C579 C 0.17611 0.28109 0.86196
 C580 C 0.18722 0.30555 0.85766
 C581 C 0.20937 0.31293 0.87168
 C582 C 0.21948 0.33807 0.86898
 C583 C 0.20828 0.35554 0.85077
 H584 H 0.12443 0.32735 0.79753
 H585 H 0.18417 0.38399 0.81379
 H586 H 0.12386 0.28633 0.82083
 H587 H 0.18520 0.26791 0.87598
 H588 H 0.21818 0.29948 0.88560
 H589 H 0.21659 0.37479 0.84810
 C590 C 0.13173 0.82822 0.32835
 C591 C 0.12166 0.83983 0.30570
 C592 C 0.13121 0.86370 0.29623
 C593 C 0.15232 0.87558 0.30969
 C594 C 0.16331 0.86356 0.33233
 C595 C 0.15249 0.83998 0.34184
 C596 C 0.12093 0.80496 0.33767
 C597 C 0.13002 0.79309 0.36085
 C598 C 0.15100 0.80485 0.37437
 C599 C 0.16233 0.82805 0.36485
 C600 C 0.18341 0.83941 0.37799
 C601 C 0.19517 0.86234 0.36853
 C602 C 0.18481 0.87454 0.34573
 H603 H 0.10564 0.83032 0.29566
 H604 H 0.16051 0.89370 0.30258
 H605 H 0.10492 0.79623 0.32691
 H606 H 0.15901 0.79610 0.39199
 H607 H 0.19101 0.83012 0.39561
 H608 H 0.19312 0.89260 0.33859
 O609 O 0.96776 0.89978 0.87640
 O610 O 0.96682 0.86768 0.84737
 C611 C 0.95805 0.88931 0.85595
 C612 C 0.93587 0.90220 0.84259
 C613 C 0.92823 0.89478 0.81700
 H614 H 0.93912 0.87994 0.80643
 O615 O 1.01196 1.07865 0.85475
 O616 O 1.01043 1.10377 0.81945
 C617 C 1.02023 1.08462 0.83190
 C618 C 1.04225 1.07015 0.81995
 C619 C 1.04976 1.07576 0.79400
 H620 H 1.03837 1.08940 0.78239
 O621 O 0.85827 0.96496 0.91503
 O622 O 0.82672 0.96148 0.88586
 C623 C 0.83728 0.95440 0.90730
 C624 C 0.82553 0.93296 0.92280
 C625 C 0.80205 0.92159 0.91467
 H626 H 0.79177 0.93001 0.89814
 O627 O 1.12388 1.02146 0.89851
 O628 O 1.15409 1.01964 0.86766
 C629 C 1.14458 1.03031 0.88822
 C630 C 1.15706 1.05354 0.90030
 C631 C 1.18275 1.06090 0.89395
 H632 H 1.19405 1.04935 0.88014
 O633 O 0.90393 0.86831 0.98972
 O634 O 0.87515 0.83669 0.99307
 C635 C 0.89544 0.84626 0.98238
 C636 C 0.90857 0.83206 0.96045
 C637 C 0.89978 0.80725 0.95295
 H638 H 0.88428 0.79805 0.96404
 O639 O 1.07928 1.13240 0.95460
 O640 O 1.10892 1.16303 0.94982
 C641 C 1.08802 1.15205 0.94230
 C642 C 1.07431 1.16143 0.91838
 C643 C 1.08326 1.18343 0.90470
 H644 H 1.09924 1.19459 0.91274
 O645 O 0.89039 1.01360 0.87264
 O646 O 0.85831 1.01028 0.84399
 C647 C 0.87995 1.01995 0.85081
 C648 C 0.89310 1.03862 0.83305
 C649 C 0.88272 1.04401 0.80802
 H650 H 0.86509 1.03437 0.80163
 O651 O 1.08910 0.96634 0.86873
 O652 O 1.11864 0.96438 0.83719
 C653 C 1.09783 0.95594 0.84776
 C654 C 1.08372 0.93366 0.83575
 C655 C 1.09177 0.92334 0.81137
 H656 H 1.10771 0.93257 0.80114
 O657 O 1.01971 0.86662 0.91325
 O658 O 1.01854 0.83407 0.88475
 C659 C 1.02808 0.84464 0.90527
 C660 C 1.04951 0.83151 0.91963
 C661 C 1.05709 0.80616 0.91272
 H662 H 1.04656 0.79587 0.89740
 O663 O 0.96190 1.12038 0.88538
 O664 O 0.96107 1.14571 0.85019
 C665 C 0.95305 1.14021 0.87320
 C666 C 0.93290 1.15667 0.88580
 C667 C 0.92350 1.17929 0.87341
 H668 H 0.93165 1.18524 0.85462
 O669 O 0.86610 1.09701 0.96491
 O670 O 0.83474 1.12648 0.96327
 C671 C 0.84368 1.10410 0.95731
 C672 C 0.82751 1.08600 0.94191
 C673 C 0.80085 1.09058 0.93957
 H674 H 0.79220 1.10747 0.94913
 O675 O 1.12455 0.90639 0.97615
 O676 O 1.15510 0.87628 0.97924
 C677 C 1.14587 0.89655 0.96816
 C678 C 1.15975 0.90851 0.94544
 C679 C 1.18374 0.89852 0.93687
 H680 H 1.19250 0.88237 0.94747
 O681 O 0.96070 1.07858 0.85651
 O682 O 0.95933 1.10390 0.82137
 C683 C 0.95068 1.08461 0.83445
 C684 C 0.92810 1.06961 0.82456
 C685 C 0.91747 1.07471 0.79953
 H686 H 0.92634 1.08944 0.78719
 O687 O 1.01904 0.89912 0.87407
 O688 O 1.01807 0.86677 0.84535
 C689 C 1.02757 0.88837 0.85308
 C690 C 1.04925 0.90081 0.83809
 C691 C 1.05779 0.89065 0.81368
 H692 H 1.04797 0.87394 0.80521
 O693 O 1.12609 0.97029 0.90278
 O694 O 1.15599 0.96814 0.87165
 C695 C 1.14714 0.96068 0.89382
 C696 C 1.16068 0.93994 0.90907
 C697 C 1.18470 0.92950 0.90063
 H698 H 1.19407 0.93764 0.88340
 O699 O 0.85730 1.01622 0.91130
 O700 O 0.82519 1.01274 0.88272
 C701 C 0.83553 1.02391 0.90249
 C702 C 0.82296 1.04671 0.91510
 C703 C 0.79623 1.05199 0.91217
 H704 H 0.78415 1.03889 0.90076
 O705 O 0.90030 1.13364 0.95753
 O706 O 0.86905 1.16308 0.95513
 C707 C 0.88987 1.15310 0.94613
 C708 C 0.90192 1.16333 0.92168
 C709 C 0.89257 1.18596 0.90904
 H710 H 0.87644 1.19649 0.91773
 O711 O 1.08955 0.87016 0.97999
 O712 O 1.11983 0.83976 0.98268
 C713 C 1.09869 0.84816 0.97280
 C714 C 1.08455 0.83293 0.95228
 C715 C 1.09235 0.80753 0.94454
 H716 H 1.10876 0.79826 0.95409
 O717 O 1.08781 1.01644 0.86305
 O718 O 1.11763 1.01485 0.83178
 C719 C 1.09599 1.02334 0.84044
 C720 C 1.08006 1.04140 0.82422
 C721 C 1.08760 1.04786 0.79828
 H722 H 1.10502 1.03930 0.78994
 O723 O 0.89381 0.96388 0.87894
 O724 O 0.86254 0.96057 0.84936
 C725 C 0.88465 0.95360 0.85820
 C726 C 0.89997 0.93357 0.84406
 C727 C 0.89310 0.92644 0.81838
 H728 H 0.87667 0.93581 0.80887
 O729 O 1.01207 1.11913 0.88522
 O730 O 1.01129 1.14447 0.85003
 C731 C 1.02048 1.13877 0.87261
 C732 C 1.04148 1.15479 0.88414
 C733 C 1.05067 1.17695 0.87082
 H734 H 1.04193 1.18287 0.85231
 O735 O 0.96908 0.86624 0.91479
 O736 O 0.96783 0.83396 0.88600
 C737 C 0.95985 0.84443 0.90733
 C738 C 0.93938 0.83132 0.92341
 C739 C 0.92994 0.80652 0.91613
 H740 H 0.93830 0.79663 0.89925
 O741 O 1.11741 1.09912 0.95854
 O742 O 1.14702 1.12996 0.95462
 C743 C 1.13862 1.10740 0.94876
 C744 C 1.15379 1.09083 0.93038
 C745 C 1.17955 1.09730 0.92451
 H746 H 1.18842 1.11405 0.93399
 O747 O 0.86477 0.90020 0.98793
 O748 O 0.83593 0.86864 0.99155
 C749 C 0.84378 0.88939 0.98045
 C750 C 0.82880 0.90085 0.95826
 C751 C 0.80536 0.88956 0.94970
 H752 H 0.79773 0.87259 0.95982
 Cu753 Cu 0.99397 0.88626 0.89733
 Cu754 Cu 0.99270 0.84745 0.86296
 Cu755 Cu 0.98665 1.09648 0.87390
 Cu756 Cu 0.98551 1.12680 0.83156
 Cu757 Cu 0.87788 0.99016 0.89765
 Cu758 Cu 0.83985 0.98580 0.86274
 Cu759 Cu 1.10397 0.99396 0.88655
 Cu760 Cu 1.13968 0.99163 0.84902
 C761 C 0.92162 0.92168 0.85593
 H762 H 0.92704 0.92720 0.87582
 C763 C 0.90694 0.90711 0.80479
 C764 C 1.05730 1.05266 0.83485
 H765 H 1.05170 1.04840 0.85501
 C766 C 1.07250 1.06521 0.78315
 C767 C 0.83862 0.92261 0.94471
 H768 H 0.85689 0.93113 0.95082
 C769 C 0.79196 0.89957 0.92770
 C770 C 1.14281 1.06872 0.91853
 H771 H 1.12291 1.06361 0.92317
 C772 C 1.19413 1.08266 0.90642
 C773 C 0.92857 0.84388 0.94568
 H774 H 0.93528 0.86317 0.95114
 C775 C 0.90998 0.79446 0.93075
 C776 C 1.05329 1.14729 0.90800
 H777 H 1.04654 1.12999 0.91816
 C778 C 1.07181 1.19102 0.88068
 C779 C 0.91592 1.05126 0.84103
 H780 H 0.92380 1.04736 0.86045
 C781 C 0.89488 1.06169 0.79099
 C782 C 1.06239 0.92239 0.84884
 H783 H 1.05627 0.93017 0.86775
 C784 C 1.07912 0.90168 0.80018
 C785 C 1.06310 0.84459 0.93960
 H786 H 1.05725 0.86425 0.94490
 C787 C 1.07843 0.79401 0.92476
 C788 C 0.92226 1.14913 0.91002
 H789 H 0.92933 1.13151 0.91945
 C790 C 0.90353 1.19427 0.88488
 C791 C 0.83837 1.06385 0.93002
 H792 H 0.85904 1.06026 0.93196
 C793 C 0.78512 1.07387 0.92479
 C794 C 1.14855 0.92938 0.93156
 H795 H 1.12990 0.93699 0.93791
 C796 C 1.19640 0.90867 0.91449
 O797 O 1.02400 0.92187 1.13983
 O798 O 1.02581 0.89507 1.17377
 C799 C 1.03416 0.91508 1.16169
 C800 C 1.05652 0.93017 1.17244
 C801 C 1.06901 0.92279 1.19611
 H802 H 1.06126 0.90671 1.20746
 O803 O 0.96885 1.10964 1.11626
 O804 O 0.96881 1.14182 1.14526
 C805 C 0.96044 1.11978 1.13749
 C806 C 0.94073 1.10587 1.15331
 C807 C 0.93493 1.11422 1.17901
 H808 H 0.94524 1.13073 1.18731
 O809 O 0.86764 1.03517 1.08851
 O810 O 0.83791 1.03952 1.11961
 C811 C 0.84726 1.04614 1.09735
 C812 C 0.83488 1.06763 1.08232
 C813 C 0.81235 1.07970 1.09224
 H814 H 0.80330 1.07245 1.11011
 O815 O 1.12340 0.98853 1.08973
 O816 O 1.15529 0.99284 1.11839
 C817 C 1.14531 0.98121 1.09866
 C818 C 1.15902 0.95855 1.08650
 C819 C 1.18405 0.95158 1.09501
 H820 H 1.19366 0.96333 1.10987
 O821 O 1.08908 0.87614 1.03155
 O822 O 1.11938 0.84576 1.03449
 C823 C 1.09838 0.85603 1.04283
 C824 C 1.08502 0.84493 1.06630
 C825 C 1.09296 0.82075 1.07683
 H826 H 1.10807 0.80972 1.06696
 O827 O 0.90258 1.14019 1.00895
 O828 O 0.87165 1.17001 1.00658
 C829 C 0.89308 1.16206 1.01599
 C830 C 0.90651 1.17760 1.03636
 C831 C 0.89735 1.20239 1.04379
 H832 H 0.88104 1.21096 1.03337
 O833 O 0.90266 0.98798 1.13018
 O834 O 0.87259 0.99197 1.16101
 C835 C 0.89369 0.98191 1.15271
 C836 C 0.90746 0.96242 1.16916
 C837 C 0.89732 0.95524 1.19377
 H838 H 0.87992 0.96472 1.20120
 O839 O 1.08827 1.04238 1.12276
 O840 O 1.11989 1.04659 1.15175
 C841 C 1.09807 1.05392 1.14262
 C842 C 1.08410 1.07651 1.15456
 C843 C 1.09274 1.08829 1.17815
 H844 H 1.10935 1.08020 1.18840
 O845 O 0.97260 0.88150 1.10954
 O846 O 0.97444 0.85465 1.14348
 C847 C 0.96461 0.86114 1.12145
 C848 C 0.94329 0.84528 1.10986
 C849 C 0.93432 0.82265 1.12266
 H850 H 0.94358 0.81628 1.14075
 O851 O 1.01815 1.14404 1.07735
 O852 O 1.01789 1.17655 1.10598
 C853 C 1.02642 1.16616 1.08487
 C854 C 1.04642 1.17969 1.06907
 C855 C 1.05440 1.20494 1.07574
 H856 H 1.04519 1.21500 1.09214
 O857 O 0.86719 0.90632 1.03877
 O858 O 0.83808 0.87505 1.04254
 C859 C 0.84645 0.89754 1.04899
 C860 C 0.83244 0.91369 1.06884
 C861 C 0.80891 0.90533 1.08019
 H862 H 0.80042 0.88727 1.07338
 O863 O 1.11600 1.10391 1.00940
 O864 O 1.14565 1.13469 1.00546
 C865 C 1.13708 1.11429 1.01685
 C866 C 1.15154 1.10272 1.03922
 C867 C 1.17528 1.11352 1.04726
 H868 H 1.18333 1.13008 1.03677
 O869 O 1.01940 1.11103 1.11606
 O870 O 1.01916 1.14345 1.14478
 C871 C 1.02821 1.12174 1.13681
 C872 C 1.04956 1.10924 1.15162
 C873 C 1.05800 1.12025 1.17541
 H874 H 1.04815 1.13727 1.18340
 O875 O 0.97277 0.92232 1.14003
 O876 O 0.97409 0.89550 1.17399
 C877 C 0.96421 0.91523 1.16240
 C878 C 0.94182 0.92961 1.17417
 C879 C 0.93099 0.92229 1.19863
 H880 H 0.93995 0.90674 1.20989
 O881 O 1.12136 1.03958 1.08428
 O882 O 1.15307 1.04373 1.11319
 C883 C 1.14243 1.05025 1.09155
 C884 C 1.15427 1.07117 1.07533
 C885 C 1.17803 1.08220 1.08293
 H886 H 1.18842 1.07402 1.09955
 O887 O 0.86549 0.98409 1.09599
 O888 O 0.83534 0.98847 1.12665
 C889 C 0.84446 0.97650 1.10672
 C890 C 0.83125 0.95277 1.09662
 C891 C 0.80777 0.94414 1.10777
 H892 H 0.79848 0.95565 1.12310
 O893 O 1.08251 1.14132 1.00580
 O894 O 1.11174 1.17235 1.00113
 C895 C 1.09144 1.16363 1.01218
 C896 C 1.07848 1.17879 1.03348
 C897 C 1.08690 1.20399 1.04094
 H898 H 1.10259 1.21332 1.03030
 O899 O 0.90328 0.87093 1.04175
 O900 O 0.87453 0.83932 1.04531
 C901 C 0.89519 0.85034 1.05316
 C902 C 0.90951 0.83978 1.07635
 C903 C 0.90084 0.81714 1.08949
 H904 H 0.88390 0.80711 1.08207
 O905 O 1.08986 0.99153 1.12795
 O906 O 1.12173 0.99578 1.15666
 C907 C 1.10055 0.98520 1.14963
 C908 C 1.08877 0.96468 1.16640
 C909 C 1.10073 0.95724 1.19014
 H910 H 1.11800 0.96738 1.19675
 O911 O 0.90231 1.03840 1.12522
 O912 O 0.87253 1.04221 1.15640
 C913 C 0.89370 1.04955 1.14591
 C914 C 0.90821 1.07155 1.15759
 C915 C 0.90256 1.08025 1.18331
 H916 H 0.88816 1.06999 1.19487
 O917 O 0.96799 1.14448 1.07900
 O918 O 0.96769 1.17675 1.10789
 C919 C 0.95914 1.16633 1.08693
 C920 C 0.93846 1.17942 1.07170
 C921 C 0.92920 1.20426 1.07895
 H922 H 0.93827 1.21432 1.09525
 O923 O 1.02302 0.88460 1.10520
 O924 O 1.02489 0.85732 1.13879
 C925 C 1.03259 0.86442 1.11597
 C926 C 1.05304 0.84923 1.10197
 C927 C 1.06117 0.82505 1.11196
 H928 H 1.05208 0.81734 1.12961
 O929 O 1.12427 0.91190 1.02728
 O930 O 1.15491 0.88190 1.03058
 C931 C 1.14553 0.90401 1.03719
 C932 C 1.15913 0.92064 1.05687
 C933 C 1.18415 0.91397 1.06585
 H934 H 1.19382 0.89706 1.05756
 O935 O 0.86998 1.10252 1.01490
 O936 O 0.83887 1.13224 1.01320
 C937 C 0.84890 1.11201 1.02372
 C938 C 0.83590 1.09979 1.04660
 C939 C 0.81303 1.11099 1.05652
 H940 H 0.80462 1.12802 1.04708
 Cu941 Cu 0.99787 0.90536 1.12048
 Cu942 Cu 1.00012 0.87308 1.16094
 Cu943 Cu 0.99355 1.12403 1.09426
 Cu944 Cu 0.99336 1.16285 1.12896
 Cu945 Cu 0.88771 0.88948 1.01425
 Cu946 Cu 0.85324 0.85163 1.01856
 Cu947 Cu 1.10376 0.89401 1.00336
 Cu948 Cu 1.14030 0.85787 1.00710
 Cu949 Cu 0.88823 1.11566 0.98652
 Cu950 Cu 0.85055 1.15110 0.98426
 Cu951 Cu 1.09565 1.11634 0.98243
 Cu952 Cu 1.13117 1.15319 0.97729
 Cu953 Cu 0.88737 1.01095 1.10672
 Cu954 Cu 0.85141 1.01591 1.14384
 Cu955 Cu 1.10254 1.01508 1.10332
 Cu956 Cu 1.14072 1.02011 1.13781
 C957 C 1.06658 0.95122 1.15789
 H958 H 1.05753 0.95672 1.13942
 C959 C 1.09139 0.93616 1.20497
 C960 C 0.92744 1.08435 1.14281
 H961 H 0.93168 1.07791 1.12288
 C962 C 0.91592 1.10164 1.19415
 C963 C 0.84662 1.07785 1.05940
 H964 H 0.86445 1.06922 1.05199
 C965 C 0.80164 1.10150 1.07954
 C966 C 1.14680 0.94304 1.06726
 H967 H 1.12739 0.94812 1.06076
 C968 C 1.19673 0.92932 1.08504
 C969 C 1.06493 0.85894 1.07895
 H970 H 1.05894 0.87773 1.07121
 C971 C 1.08109 0.81072 1.09970
 C972 C 0.92724 1.16647 1.05023
 H973 H 0.93407 1.14713 1.04489
 C974 C 0.90839 1.21583 1.06519
 C975 C 0.92986 0.94978 1.15969
 H976 H 0.93757 0.95519 1.14056
 C977 C 0.90852 0.93498 1.20841
 C978 C 1.06244 1.08719 1.14152
 H979 H 1.05599 1.07877 1.12304
 C980 C 1.07967 1.11030 1.18860
 C981 C 0.93091 0.85346 1.08657
 H982 H 0.93746 0.87107 1.07682
 C983 C 0.91323 0.80828 1.11267
 C984 C 1.05823 1.16699 1.04770
 H985 H 1.05207 1.14742 1.04256
 C986 C 1.07467 1.21720 1.06205
 C987 C 0.84325 0.93749 1.07709
 H988 H 0.86154 0.94387 1.06873
 C989 C 0.79649 0.92037 1.09995
 C990 C 1.14119 1.08146 1.05332
 H991 H 1.12265 1.07331 1.04756
 C992 C 1.18838 1.10371 1.06933
 O993 O 0.97513 0.40737 0.36840
 O994 O 0.97231 0.37677 0.33785
 C995 C 0.96539 0.39880 0.34704
 C996 C 0.94577 0.41439 0.33263
 C997 C 0.93867 0.40726 0.30694
 H998 H 0.94811 0.39076 0.29747
 O999 O 1.03028 0.59624 0.37714
 O1000 O 1.03186 0.62880 0.34871
 C1001 C 1.03943 0.60634 0.35624
 C1002 C 1.05926 0.59167 0.34099
 C1003 C 1.06801 0.60048 0.31618
 H1004 H 1.05972 0.61802 0.30776
 O1005 O 0.87449 0.48051 0.40297
 O1006 O 0.84430 0.48162 0.37215
 C1007 C 0.85300 0.47252 0.39379
 C1008 C 0.83823 0.45263 0.40887
 C1009 C 0.81312 0.44481 0.40117
 H1010 H 0.80419 0.45330 0.38382
 O1011 O 1.12911 0.51687 0.40579
 O1012 O 1.15906 0.51768 0.37455
 C1013 C 1.15088 0.52474 0.39711
 C1014 C 1.16690 0.54222 0.41340
 C1015 C 1.19265 0.54749 0.40614
 H1016 H 1.20095 0.53842 0.38870
 O1017 O 0.90408 0.37915 0.47565
 O1018 O 0.87278 0.34978 0.47460
 C1019 C 0.89449 0.35825 0.46631
 C1020 C 0.90871 0.34332 0.44587
 C1021 C 0.90121 0.31766 0.44007
 H1022 H 0.88514 0.30886 0.45066
 O1023 O 1.10495 0.61808 0.48172
 O1024 O 1.13717 0.64640 0.48114
 C1025 C 1.11512 0.63893 0.47291
 C1026 C 1.10126 0.65494 0.45308
 C1027 C 1.11113 0.67945 0.44599
 H1028 H 1.12873 0.68658 0.45523
 O1029 O 0.91112 0.53166 0.36898
 O1030 O 0.88137 0.53381 0.33782
 C1031 C 0.90232 0.54215 0.34812
 C1032 C 0.91646 0.56474 0.33657
 C1033 C 0.90827 0.57673 0.31297
 H1034 H 0.89182 0.56890 0.30230
 O1035 O 1.09143 0.47075 0.36611
 O1036 O 1.12135 0.47150 0.33489
 C1037 C 1.10012 0.46281 0.34401
 C1038 C 1.08572 0.44258 0.32939
 C1039 C 1.09238 0.43591 0.30344
 H1040 H 1.10773 0.44649 0.29346
 O1041 O 1.02536 0.36827 0.40238
 O1042 O 1.02211 0.33795 0.37163
 C1043 C 1.03275 0.34666 0.39243
 C1044 C 1.05457 0.33188 0.40445
 C1045 C 1.06292 0.30828 0.39317
 H1046 H 1.05254 0.30029 0.37642
 O1047 O 0.98117 0.63096 0.41630
 O1048 O 0.98215 0.66384 0.38827
 C1049 C 0.97261 0.65296 0.40866
 C1050 C 0.95072 0.66532 0.42321
 C1051 C 0.94174 0.69046 0.41653
 H1052 H 0.95135 0.70147 0.40111
 O1053 O 0.87070 0.59165 0.48022
 O1054 O 0.84086 0.62257 0.48213
 C1055 C 0.84988 0.60198 0.47149
 C1056 C 0.83687 0.59016 0.44815
 C1057 C 0.81215 0.59855 0.43931
 H1058 H 0.80168 0.61355 0.45006
 O1059 O 1.13026 0.39809 0.47132
 O1060 O 1.16114 0.36813 0.46975
 C1061 C 1.15150 0.38961 0.46188
 C1062 C 1.16456 0.40477 0.44109
 C1063 C 1.19079 0.40037 0.43478
 H1064 H 1.20181 0.38614 0.44593
 O1065 O 0.98016 0.59853 0.37711
 O1066 O 0.98158 0.63124 0.34884
 C1067 C 0.97202 0.60958 0.35624
 C1068 C 0.95086 0.59747 0.34070
 C1069 C 0.94290 0.60862 0.31677
 H1070 H 0.95286 0.62564 0.30912
 O1071 O 1.02507 0.40379 0.36621
 O1072 O 1.02232 0.37362 0.33524
 C1073 C 1.03238 0.39445 0.34419
 C1074 C 1.05299 0.40825 0.32949
 C1075 C 1.06008 0.40137 0.30355
 H1076 H 1.04998 0.38569 0.29359
 O1077 O 1.12625 0.46701 0.40266
 O1078 O 1.15646 0.46801 0.37168
 C1079 C 1.14746 0.45862 0.39299
 C1080 C 1.16216 0.43822 0.40704
 C1081 C 1.18835 0.43381 0.40104
 H1082 H 1.19767 0.44522 0.38571
 O1083 O 0.87499 0.53065 0.40450
 O1084 O 0.84491 0.53206 0.37356
 C1085 C 0.85373 0.53973 0.39566
 C1086 C 0.83917 0.55947 0.41115
 C1087 C 0.81435 0.56739 0.40318
 H1088 H 0.80559 0.55856 0.38591
 O1089 O 0.90897 0.62428 0.48245
 O1090 O 0.87951 0.65563 0.48439
 C1091 C 0.90073 0.64651 0.47523
 C1092 C 0.91574 0.66191 0.45586
 C1093 C 0.90777 0.68730 0.44958
 H1094 H 0.89106 0.69586 0.45943
 O1095 O 1.09550 0.36212 0.46906
 O1096 O 1.12589 0.33174 0.46697
 C1097 C 1.10467 0.34147 0.45856
 C1098 C 1.09040 0.32934 0.43611
 C1099 C 1.09887 0.30588 0.42407
 H1100 H 1.11583 0.29591 0.43169
 O1101 O 1.09240 0.52172 0.37101
 O1102 O 1.12232 0.52234 0.33979
 C1103 C 1.10178 0.53165 0.35016
 C1104 C 1.08916 0.55463 0.33808
 C1105 C 1.09732 0.56341 0.31332
 H1106 H 1.11221 0.55264 0.30271
 O1107 O 0.90986 0.48028 0.36664
 O1108 O 0.88022 0.48189 0.33532
 C1109 C 0.90080 0.47196 0.34488
 C1110 C 0.91406 0.45000 0.33123
 C1111 C 0.90669 0.44210 0.30563
 H1112 H 0.89169 0.45275 0.29518
 O1113 O 1.03250 0.62918 0.41569
 O1114 O 1.03370 0.66204 0.38765
 C1115 C 1.04261 0.65044 0.40787
 C1116 C 1.06564 0.66110 0.42180
 C1117 C 1.07600 0.68561 0.41486
 H1118 H 1.06607 0.69741 0.40031
 O1119 O 0.97459 0.37266 0.40563
 O1120 O 0.97137 0.34187 0.37533
 C1121 C 0.96402 0.35202 0.39705
 C1122 C 0.94270 0.34003 0.41230
 C1123 C 0.93477 0.31445 0.40669
 H1124 H 0.94512 0.30323 0.39190
 O1125 O 1.13744 0.57909 0.48169
 O1126 O 1.16965 0.60743 0.48117
 C1127 C 1.15895 0.58683 0.47240
 C1128 C 1.17108 0.57223 0.45052
 C1129 C 1.19675 0.57740 0.44294
 H1130 H 1.20823 0.59106 0.45432
 O1131 O 0.87018 0.41682 0.47740
 O1132 O 0.83899 0.38738 0.47662
 C1133 C 0.84891 0.40846 0.46809
 C1134 C 0.83601 0.42259 0.44633
 C1135 C 0.81080 0.41574 0.43888
 H1136 H 0.80025 0.40127 0.45021
 Cu1137 Cu 1.00037 0.39099 0.38882
 Cu1138 Cu 0.99657 0.35429 0.35210
 Cu1139 Cu 1.00591 0.61063 0.39957
 Cu1140 Cu 1.00745 0.64996 0.36573
 Cu1141 Cu 0.89581 0.50559 0.38862
 Cu1142 Cu 0.85988 0.50747 0.35136
 Cu1143 Cu 1.10653 0.49403 0.38935
 Cu1144 Cu 1.14266 0.49500 0.35186
 C1145 C 0.93368 0.43600 0.34448
 H1146 H 0.93911 0.44150 0.36437
 C1147 C 0.91914 0.42075 0.29336
 C1148 C 1.06994 0.56867 0.35168
 H1149 H 1.06373 0.56198 0.37096
 C1150 C 1.08715 0.58630 0.30229
 C1151 C 0.84946 0.44132 0.43150
 H1152 H 0.86903 0.44658 0.43725
 C1153 C 0.79937 0.42636 0.41629
 C1154 C 1.15635 0.55438 0.43582
 H1155 H 1.13632 0.55069 0.44124
 C1156 C 1.20748 0.56534 0.42051
 C1157 C 0.92968 0.35434 0.43209
 H1158 H 0.93550 0.37422 0.43636
 C1159 C 0.91394 0.30322 0.42048
 C1160 C 1.07839 0.64598 0.44106
 H1161 H 1.07084 0.62695 0.44630
 C1162 C 1.09891 0.69485 0.42686
 C1163 C 0.93780 0.57535 0.35022
 H1164 H 0.94391 0.56676 0.36873
 C1165 C 0.92152 0.59871 0.30301
 C1166 C 1.06592 0.42886 0.34207
 H1167 H 1.06095 0.43392 0.36222
 C1168 C 1.07982 0.41531 0.29039
 C1169 C 1.06823 0.34207 0.42603
 H1170 H 1.06185 0.36037 0.43465
 C1171 C 1.08511 0.29526 0.40243
 C1172 C 0.93751 0.65120 0.44294
 H1173 H 0.94372 0.63155 0.44776
 C1174 C 0.92028 0.70143 0.42979
 C1175 C 0.85009 0.57065 0.43381
 H1176 H 0.86928 0.56447 0.44001
 C1177 C 0.80073 0.58689 0.41688
 C1178 C 1.15044 0.42377 0.42719
 H1179 H 1.13014 0.42713 0.43185
 C1180 C 1.20280 0.41503 0.41476
 O1181 O 1.03182 0.39394 0.62856
 O1182 O 1.02992 0.36144 0.65704
 C1183 C 1.03996 0.38278 0.64934
 C1184 C 1.06159 0.39459 0.66434
 C1185 C 1.07212 0.38179 0.68630
 H1186 H 1.06383 0.36343 0.69276
 O1187 O 0.98366 0.58995 0.63575
 O1188 O 0.98501 0.62067 0.66628
 C1189 C 0.97586 0.59933 0.65761
 C1190 C 0.95560 0.58552 0.67281
 C1191 C 0.94827 0.59439 0.69793
 H1192 H 0.95807 0.61102 0.70660
 O1193 O 0.87934 0.52298 0.60507
 O1194 O 0.85045 0.52268 0.63729
 C1195 C 0.85845 0.53157 0.61528
 C1196 C 0.84338 0.55204 0.60130
 C1197 C 0.81878 0.55978 0.61043
 H1198 H 0.81058 0.55054 0.62778
 O1199 O 1.13026 0.46391 0.59518
 O1200 O 1.16027 0.46082 0.62612
 C1201 C 1.15103 0.45375 0.60385
 C1202 C 1.16461 0.43336 0.58822
 C1203 C 1.19006 0.42643 0.59481
 H1204 H 1.19985 0.43659 0.61072
 O1205 O 1.09475 0.36007 0.52022
 O1206 O 1.12494 0.32943 0.51866
 C1207 C 1.10371 0.33829 0.52792
 C1208 C 1.08948 0.32363 0.54834
 C1209 C 1.09647 0.29795 0.55460
 H1210 H 1.11200 0.28843 0.54372
 O1211 O 0.90837 0.62313 0.53316
 O1212 O 0.87869 0.65427 0.53513
 C1213 C 0.90005 0.64445 0.54296
 C1214 C 0.91531 0.65798 0.56365
 C1215 C 0.90763 0.68283 0.57258
 H1216 H 0.89101 0.69222 0.56359
 O1217 O 0.91582 0.47028 0.63753
 O1218 O 0.88728 0.46970 0.67002
 C1219 C 0.90752 0.46044 0.65892
 C1220 C 0.92106 0.43743 0.67037
 C1221 C 0.91272 0.42652 0.69441
 H1222 H 0.89710 0.43575 0.70535
 O1223 O 1.09742 0.51452 0.63405
 O1224 O 1.12678 0.51164 0.66559
 C1225 C 1.10653 0.52238 0.65589
 C1226 C 1.09391 0.54480 0.66950
 C1227 C 1.10179 0.55261 0.69483
 H1228 H 1.11677 0.54164 0.70501
 O1229 O 0.97886 0.36483 0.59043
 O1230 O 0.97678 0.33201 0.61854
 C1231 C 0.96859 0.34361 0.59798
 C1232 C 0.94664 0.33269 0.58287
 C1233 C 0.93938 0.30643 0.58586
 H1234 H 0.95071 0.29395 0.59868
 O1235 O 1.03374 0.62486 0.59827
 O1236 O 1.03504 0.65579 0.62856
 C1237 C 1.04343 0.64590 0.60720
 C1238 C 1.06529 0.65821 0.59291
 C1239 C 1.07396 0.68355 0.59913
 H1240 H 1.06395 0.69490 0.61407
 O1241 O 0.86904 0.41245 0.52942
 O1242 O 0.83788 0.38303 0.52843
 C1243 C 0.84802 0.40313 0.53870
 C1244 C 0.83612 0.41540 0.56235
 C1245 C 0.81158 0.40769 0.57206
 H1246 H 0.80042 0.39326 0.56139
 O1247 O 1.13973 0.58133 0.53333
 O1248 O 1.17163 0.60998 0.53276
 C1249 C 1.16134 0.58956 0.54223
 C1250 C 1.17417 0.57549 0.56421
 C1251 C 1.19884 0.58299 0.57352
 H1252 H 1.20909 0.59858 0.56362
 O1253 O 1.03374 0.58785 0.63291
 O1254 O 1.03516 0.61838 0.66363
 C1255 C 1.04305 0.59665 0.65432
 C1256 C 1.06326 0.58145 0.66841
 C1257 C 1.07140 0.58893 0.69374
 H1258 H 1.06219 0.60552 0.70316
 O1259 O 0.98164 0.39761 0.62923
 O1260 O 0.97961 0.36504 0.65762
 C1261 C 0.97246 0.38764 0.65019
 C1262 C 0.95290 0.40208 0.66593
 C1263 C 0.94464 0.39189 0.69016
 H1264 H 0.95330 0.37408 0.69773
 O1265 O 1.13579 0.51317 0.60189
 O1266 O 1.16576 0.51107 0.63288
 C1267 C 1.15726 0.52090 0.61162
 C1268 C 1.17209 0.54184 0.59822
 C1269 C 1.19677 0.54944 0.60723
 H1270 H 1.20543 0.53943 0.62390
 O1271 O 0.87757 0.47279 0.60440
 O1272 O 0.84890 0.47239 0.63682
 C1273 C 0.85648 0.46447 0.61433
 C1274 C 0.84074 0.44533 0.59955
 C1275 C 0.81621 0.43784 0.60875
 H1276 H 0.80857 0.44651 0.62670
 O1277 O 1.10430 0.61728 0.53252
 O1278 O 1.13596 0.64625 0.53184
 C1279 C 1.11414 0.63848 0.54059
 C1280 C 1.10000 0.65421 0.56029
 C1281 C 1.10799 0.67964 0.56613
 H1282 H 1.12446 0.68797 0.55580
 O1283 O 0.90540 0.37756 0.52635
 O1284 O 0.87440 0.34789 0.52497
 C1285 C 0.89623 0.35572 0.53354
 C1286 C 0.91117 0.33893 0.55164
 C1287 C 0.90423 0.31270 0.55476
 H1288 H 0.88786 0.30490 0.54389
 O1289 O 1.09872 0.46196 0.63611
 O1290 O 1.12879 0.45984 0.66691
 C1291 C 1.10783 0.45152 0.65696
 C1292 C 1.09451 0.42861 0.66867
 C1293 C 1.10483 0.41552 0.69080
 H1294 H 1.12215 0.42300 0.70019
 O1295 O 0.91581 0.52162 0.64021
 O1296 O 0.88734 0.52133 0.67276
 C1297 C 0.90787 0.53032 0.66230
 C1298 C 0.92229 0.55175 0.67531
 C1299 C 0.91490 0.56114 0.70035
 H1300 H 0.89924 0.55170 0.71094
 O1301 O 0.98257 0.62416 0.59809
 O1302 O 0.98379 0.65492 0.62854
 C1303 C 0.97393 0.64541 0.60762
 C1304 C 0.95167 0.65873 0.59473
 C1305 C 0.94360 0.68353 0.60336
 H1306 H 0.95428 0.69334 0.61888
 O1307 O 1.02932 0.35964 0.59093
 O1308 O 1.02721 0.32705 0.61929
 C1309 C 1.03663 0.33710 0.59852
 C1310 C 1.05674 0.32294 0.58319
 C1311 C 1.06413 0.29719 0.58952
 H1312 H 1.05424 0.28703 0.60531
 O1313 O 1.13025 0.39563 0.52268
 O1314 O 1.16092 0.36549 0.52144
 C1315 C 1.15147 0.38631 0.53141
 C1316 C 1.16499 0.39992 0.55347
 C1317 C 1.19041 0.39277 0.56106
 H1318 H 1.20055 0.37730 0.55066
 O1319 O 0.87245 0.58777 0.53243
 O1320 O 0.84276 0.61885 0.53447
 C1321 C 0.85204 0.59733 0.54275
 C1322 C 0.83985 0.58379 0.56542
 C1323 C 0.81533 0.59148 0.57500
 H1324 H 0.80454 0.60645 0.56465
 Cu1325 Cu 1.00569 0.38217 0.60682
 Cu1326 Cu 1.00309 0.34312 0.64101
 Cu1327 Cu 1.00830 0.60381 0.61303
 Cu1328 Cu 1.00992 0.64066 0.64967
 Cu1329 Cu 0.89004 0.39979 0.50236
 Cu1330 Cu 0.85268 0.36426 0.50104
 Cu1331 Cu 1.10968 0.38199 0.49599
 Cu1332 Cu 1.14633 0.34563 0.49415
 Cu1333 Cu 0.89274 0.60326 0.50687
 Cu1334 Cu 0.85729 0.64077 0.50912
 Cu1335 Cu 1.11857 0.59586 0.50737
 Cu1336 Cu 1.15694 0.63027 0.50666
 Cu1337 Cu 0.90020 0.49694 0.61875
 Cu1338 Cu 0.86582 0.49654 0.65769
 Cu1339 Cu 1.11228 0.48826 0.61454
 Cu1340 Cu 1.14826 0.48544 0.65097
 C1341 C 1.07269 0.41814 0.65591
 H1342 H 1.06486 0.42787 0.63868
 C1343 C 1.09364 0.39201 0.69971
 C1344 C 0.94274 0.56402 0.66181
 H1345 H 0.94820 0.55727 0.64230
 C1346 C 0.92781 0.58260 0.71170
 C1347 C 0.85362 0.56400 0.57864
 H1348 H 0.87270 0.55828 0.57161
 C1349 C 0.80468 0.57952 0.59756
 C1350 C 1.15228 0.42030 0.56725
 H1351 H 1.13258 0.42568 0.56202
 C1352 C 1.20302 0.40625 0.58161
 C1353 C 1.06944 0.33583 0.56248
 H1354 H 1.06420 0.35580 0.55781
 C1355 C 1.08411 0.28461 0.57522
 C1356 C 0.93746 0.64615 0.57473
 H1357 H 0.94333 0.62687 0.56815
 C1358 C 0.92153 0.69564 0.59262
 C1359 C 0.94130 0.42506 0.65631
 H1360 H 0.94744 0.43282 0.63743
 C1361 C 0.92433 0.40356 0.70421
 C1362 C 1.07452 0.55932 0.65654
 H1363 H 1.06848 0.55363 0.63689
 C1364 C 1.09078 0.57472 0.70706
 C1365 C 0.93253 0.34877 0.56557
 H1366 H 0.93788 0.36910 0.56330
 C1367 C 0.91807 0.29632 0.57180
 C1368 C 1.07845 0.64379 0.57345
 H1369 H 1.07229 0.62407 0.56896
 C1370 C 1.09528 0.69435 0.58554
 C1371 C 0.85037 0.43426 0.57623
 H1372 H 0.86941 0.43995 0.56919
 C1373 C 0.80148 0.41903 0.59534
 C1374 C 1.16111 0.55488 0.57664
 H1375 H 1.14200 0.54926 0.56977
 C1376 C 1.21031 0.57008 0.59518
 O1377 O 0.48238 0.91664 0.36019
 O1378 O 0.48348 0.88740 0.32819
 C1379 C 0.47430 0.90833 0.33806
 C1380 C 0.45342 0.92271 0.32414
 C1381 C 0.44581 0.91526 0.29869
 H1382 H 0.45603 0.89956 0.28869
 O1383 O 0.53014 1.10448 0.37439
 O1384 O 0.52994 1.13675 0.34556
 C1385 C 0.53877 1.11493 0.35343
 C1386 C 0.55994 1.10217 0.33850
 C1387 C 0.56817 1.11278 0.31444
 H1388 H 0.55806 1.12942 0.30605
 O1389 O 0.37386 0.98026 0.39546
 O1390 O 0.34483 0.98342 0.36366
 C1391 C 0.35285 0.97267 0.38471
 C1392 C 0.33795 0.95083 0.39665
 C1393 C 0.31500 0.94165 0.38495
 H1394 H 0.30769 0.95116 0.36734
 O1395 O 0.63596 1.03293 0.40498
 O1396 O 0.66613 1.03473 0.37404
 C1397 C 0.65743 1.04165 0.39644
 C1398 C 0.67221 1.06042 0.41245
 C1399 C 0.69789 1.06643 0.40592
 H1400 H 0.70730 1.05649 0.38956
 O1401 O 0.40589 0.87780 0.46040
 O1402 O 0.37667 0.84648 0.45848
 C1403 C 0.39768 0.85673 0.45013
 C1404 C 0.41273 0.84444 0.42810
 C1405 C 0.40478 0.82063 0.41665
 H1406 H 0.38790 0.81077 0.42450
 O1407 O 0.60352 1.13358 0.47821
 O1408 O 0.63357 1.16413 0.47978
 C1409 C 0.61251 1.15530 0.47023
 C1410 C 0.59804 1.17009 0.44965
 C1411 C 0.60593 1.19520 0.44137
 H1412 H 0.62285 1.20423 0.45015
 O1413 O 0.41167 1.03386 0.36573
 O1414 O 0.38275 1.03684 0.33381
 C1415 C 0.40338 1.04487 0.34487
 C1416 C 0.41735 1.06778 0.33389
 C1417 C 0.40923 1.07928 0.31003
 H1418 H 0.39369 1.07026 0.29900
 O1419 O 0.59912 0.98623 0.36516
 O1420 O 0.62898 0.98864 0.33397
 C1421 C 0.60809 0.97898 0.34298
 C1422 C 0.59501 0.95803 0.32816
 C1423 C 0.60545 0.94943 0.30413
 H1424 H 0.62197 0.95944 0.29556
 O1425 O 0.53150 0.87884 0.39640
 O1426 O 0.53244 0.84912 0.36488
 C1427 C 0.54054 0.85769 0.38691
 C1428 C 0.56097 0.84338 0.40163
 C1429 C 0.56845 0.81778 0.39457
 H1430 H 0.55902 0.80794 0.37826
 O1431 O 0.47987 1.13898 0.41239
 O1432 O 0.47987 1.17135 0.38368
 C1433 C 0.47100 1.16080 0.40444
 C1434 C 0.44960 1.17346 0.41917
 C1435 C 0.44190 1.19928 0.41368
 H1436 H 0.45260 1.21051 0.39924
 O1437 O 0.37634 1.09442 0.47626
 O1438 O 0.34558 1.12449 0.47783
 C1439 C 0.35513 1.10382 0.46777
 C1440 C 0.34166 1.09121 0.44549
 C1441 C 0.31747 1.10074 0.43740
 H1442 H 0.30818 1.11644 0.44830
 O1443 O 0.63765 0.91127 0.46656
 O1444 O 0.66759 0.88045 0.46485
 C1445 C 0.65841 0.90194 0.45648
 C1446 C 0.67131 0.91599 0.43427
 C1447 C 0.69422 0.90629 0.42222
 H1448 H 0.70305 0.88857 0.42966
 O1449 O 0.47958 1.10432 0.37494
 O1450 O 0.47967 1.13669 0.34625
 C1451 C 0.47090 1.11484 0.35402
 C1452 C 0.45015 1.10191 0.33862
 C1453 C 0.44176 1.11300 0.31477
 H1454 H 0.45092 1.13061 0.30746
 O1455 O 0.53291 0.91608 0.36153
 O1456 O 0.53410 0.88655 0.32984
 C1457 C 0.54246 0.90759 0.33999
 C1458 C 0.56378 0.92224 0.32703
 C1459 C 0.57500 0.91344 0.30323
 H1460 H 0.56742 0.89615 0.29368
 O1461 O 0.63533 0.98245 0.40017
 O1462 O 0.66517 0.98443 0.36893
 C1463 C 0.65617 0.97390 0.38973
 C1464 C 0.66978 0.95116 0.40157
 C1465 C 0.69245 0.94118 0.38986
 H1466 H 0.70036 0.95065 0.37250
 O1467 O 0.37594 1.03059 0.40131
 O1468 O 0.34666 1.03409 0.36975
 C1469 C 0.35528 1.04076 0.39231
 C1470 C 0.34173 1.06095 0.40815
 C1471 C 0.31771 1.07125 0.39997
 H1472 H 0.30848 1.06368 0.38238
 O1473 O 0.40958 1.13240 0.47860
 O1474 O 0.37881 1.16248 0.48012
 C1475 C 0.40034 1.15422 0.47111
 C1476 C 0.41483 1.17000 0.45168
 C1477 C 0.40747 1.19582 0.44623
 H1478 H 0.39115 1.20445 0.45665
 O1479 O 0.59978 0.87802 0.46678
 O1480 O 0.62955 0.84692 0.46553
 C1481 C 0.60824 0.85665 0.45743
 C1482 C 0.59349 0.84303 0.43670
 C1483 C 0.59992 0.81731 0.43013
 H1484 H 0.61503 0.80717 0.44100
 O1485 O 0.60038 1.03711 0.36887
 O1486 O 0.63038 1.03953 0.33785
 C1487 C 0.60939 1.04781 0.34815
 C1488 C 0.59529 1.07022 0.33625
 C1489 C 0.60395 1.08192 0.31266
 H1490 H 0.62113 1.07455 0.30272
 O1491 O 0.41209 0.98284 0.36195
 O1492 O 0.38326 0.98561 0.32993
 C1493 C 0.40395 0.97574 0.33945
 C1494 C 0.41860 0.95536 0.32478
 C1495 C 0.41098 0.94734 0.29938
 H1496 H 0.39470 0.95686 0.28986
 O1497 O 0.53087 1.13766 0.41295
 O1498 O 0.53053 1.16988 0.38409
 C1499 C 0.53979 1.15929 0.40472
 C1500 C 0.56168 1.17204 0.41858
 C1501 C 0.56937 1.19721 0.41125
 H1502 H 0.55843 1.20771 0.39635
 O1503 O 0.48053 0.88038 0.39548
 O1504 O 0.48156 0.85101 0.36363
 C1505 C 0.47169 0.85973 0.38494
 C1506 C 0.44926 0.84595 0.39693
 C1507 C 0.44111 0.82215 0.38615
 H1508 H 0.45186 0.81355 0.36988
 O1509 O 0.63840 1.09700 0.47768
 O1510 O 0.66888 1.12713 0.47946
 C1511 C 0.65978 1.10628 0.46952
 C1512 C 0.67351 1.09267 0.44786
 C1513 C 0.69910 1.09915 0.44059
 H1514 H 0.70949 1.11413 0.45133
 O1515 O 0.36823 0.91164 0.46222
 O1516 O 0.33871 0.88065 0.46059
 C1517 C 0.34753 0.90229 0.45230
 C1518 C 0.33473 0.91645 0.43006
 C1519 C 0.31160 0.90745 0.41803
 H1520 H 0.30215 0.89024 0.42578
 Cu1521 Cu 0.50691 0.90089 0.38162
 Cu1522 Cu 0.50800 0.86551 0.34351
 Cu1523 Cu 0.50504 1.11819 0.39670
 Cu1524 Cu 0.50499 1.15693 0.36203
 Cu1525 Cu 0.39632 1.00645 0.38418
 Cu1526 Cu 0.36152 1.01030 0.34605
 Cu1527 Cu 0.61461 1.00960 0.38787
 Cu1528 Cu 0.65062 1.01216 0.35050
 C1529 C 0.43991 0.94297 0.33688
 H1530 H 0.44559 0.94861 0.35665
 C1531 C 0.42452 0.92717 0.28630
 C1532 C 0.57326 1.08060 0.34902
 H1533 H 0.56688 1.07235 0.36761
 C1534 C 0.59027 1.10314 0.30173
 C1535 C 0.34733 0.93833 0.41931
 H1536 H 0.36521 0.94521 0.42814
 C1537 C 0.30147 0.92016 0.39540
 C1538 C 0.66032 1.07324 0.43367
 H1539 H 0.64038 1.06861 0.43863
 C1540 C 0.71136 1.08584 0.41962
 C1541 C 0.43508 0.85690 0.41802
 H1542 H 0.44122 0.87540 0.42626
 C1543 C 0.41889 0.80947 0.39547
 C1544 C 0.57590 1.15875 0.43801
 H1545 H 0.56996 1.13927 0.44370
 C1546 C 0.59145 1.20886 0.42218
 C1547 C 0.43796 1.07921 0.34798
 H1548 H 0.44410 1.07078 0.36656
 C1549 C 0.42117 1.10216 0.30050
 C1550 C 0.57393 0.94462 0.33926
 H1551 H 0.56602 0.95111 0.35799
 C1552 C 0.59610 0.92692 0.29188
 C1553 C 0.57367 0.85580 0.42275
 H1554 H 0.56864 0.87573 0.42789
 C1555 C 0.58781 0.80468 0.40908
 C1556 C 0.43604 1.15910 0.43826
 H1557 H 0.44164 1.13908 0.44226
 C1558 C 0.42076 1.21060 0.42722
 C1559 C 0.35353 1.07104 0.43102
 H1560 H 0.37240 1.06381 0.43711
 C1561 C 0.30568 1.09134 0.41453
 C1562 C 0.65954 0.93858 0.42387
 H1563 H 0.64183 0.94603 0.43272
 C1564 C 0.70495 0.91891 0.39991
 O1565 O 0.52790 0.90093 0.62174
 O1566 O 0.52787 0.86863 0.65050
 C1567 C 0.53669 0.89056 0.64267
 C1568 C 0.55757 0.90427 0.65752
 C1569 C 0.56571 0.89575 0.68269
 H1570 H 0.55668 0.87892 0.69178
 O1571 O 0.47863 1.09240 0.63254
 O1572 O 0.47807 1.12166 0.66451
 C1573 C 0.46932 1.10078 0.65421
 C1574 C 0.44784 1.08613 0.66706
 C1575 C 0.43810 1.09354 0.69204
 H1576 H 0.44684 1.10977 0.70241
 O1577 O 0.37599 1.02185 0.59279
 O1578 O 0.34574 1.02042 0.62367
 C1579 C 0.35463 1.02994 0.60240
 C1580 C 0.34017 1.05094 0.58899
 C1581 C 0.31461 1.05686 0.59642
 H1582 H 0.30514 1.04540 0.61161
 O1583 O 0.63498 0.97325 0.59297
 O1584 O 0.66406 0.97106 0.62481
 C1585 C 0.65585 0.96369 0.60240
 C1586 C 0.67020 0.94355 0.58709
 C1587 C 0.69444 0.93367 0.59552
 H1588 H 0.70333 0.94135 0.61323
 O1589 O 0.60169 0.87467 0.51790
 O1590 O 0.63195 0.84411 0.51647
 C1591 C 0.61073 0.85289 0.52589
 C1592 C 0.59664 0.83763 0.54643
 C1593 C 0.60611 0.81311 0.55442
 H1594 H 0.62348 0.80521 0.54523
 O1595 O 0.41097 1.12814 0.52940
 O1596 O 0.38023 1.15828 0.53073
 C1597 C 0.40174 1.14913 0.53891
 C1598 C 0.41609 1.16320 0.55960
 C1599 C 0.40927 1.18887 0.56592
 H1600 H 0.39367 1.19843 0.55525
 O1601 O 0.41222 0.96991 0.62665
 O1602 O 0.38214 0.96908 0.65771
 C1603 C 0.40314 0.96038 0.64787
 C1604 C 0.41656 0.93838 0.66086
 C1605 C 0.40872 0.93023 0.68596
 H1606 H 0.39372 0.94102 0.69640
 O1607 O 0.59735 1.02209 0.63033
 O1608 O 0.62632 1.02006 0.66231
 C1609 C 0.60556 1.02960 0.65275
 C1610 C 0.59105 1.04996 0.66754
 C1611 C 0.59745 1.05587 0.69381
 H1612 H 0.61273 1.04497 0.70362
 O1613 O 0.47770 0.86842 0.58201
 O1614 O 0.47706 0.83560 0.61009
 C1615 C 0.46834 0.84671 0.58935
 C1616 C 0.44672 0.83475 0.57389
 C1617 C 0.43776 0.80943 0.57985
 H1618 H 0.44727 0.79824 0.59518
 O1619 O 0.53022 1.12867 0.59839
 O1620 O 0.53017 1.15829 0.63002
 C1621 C 0.53920 1.14956 0.60833
 C1622 C 0.56050 1.16347 0.59444
 C1623 C 0.56826 1.18870 0.60221
 H1624 H 0.55861 1.19843 0.61853
 O1625 O 0.36920 0.90915 0.51440
 O1626 O 0.33953 0.87827 0.51337
 C1627 C 0.34871 0.89891 0.52382
 C1628 C 0.33650 0.91104 0.54772
 C1629 C 0.31201 0.90307 0.55775
 H1630 H 0.30106 0.88810 0.54761
 O1631 O 0.63797 1.09595 0.52907
 O1632 O 0.66835 1.12613 0.53132
 C1633 C 0.65886 1.10460 0.53919
 C1634 C 0.67154 1.08938 0.56063
 C1635 C 0.69647 1.09576 0.57029
 H1636 H 0.70698 1.11177 0.56143
 O1637 O 0.52912 1.09156 0.63290
 O1638 O 0.52898 1.12067 0.66502
 C1639 C 0.53764 1.09961 0.65492
 C1640 C 0.55805 1.08440 0.66856
 C1641 C 0.56483 1.09014 0.69476
 H1642 H 0.55432 1.10527 0.70526
 O1643 O 0.47744 0.89886 0.62322
 O1644 O 0.47690 0.86632 0.65165
 C1645 C 0.46835 0.88833 0.64404
 C1646 C 0.44751 0.90213 0.65897
 C1647 C 0.43861 0.89350 0.68393
 H1648 H 0.44701 0.87626 0.69294
 O1649 O 0.63330 1.02414 0.59445
 O1650 O 0.66243 1.02194 0.62626
 C1651 C 0.65417 1.03216 0.60499
 C1652 C 0.66889 1.05374 0.59262
 C1653 C 0.69366 1.06021 0.60185
 H1654 H 0.70214 1.04892 0.61777
 O1655 O 0.37658 0.97112 0.59023
 O1656 O 0.34663 0.97012 0.62139
 C1657 C 0.35533 0.96217 0.59929
 C1658 C 0.34040 0.94228 0.58430
 C1659 C 0.31589 0.93463 0.59337
 H1660 H 0.30788 0.94376 0.61092
 O1661 O 0.60041 1.12952 0.52915
 O1662 O 0.63030 1.16025 0.53108
 C1663 C 0.60887 1.15059 0.53896
 C1664 C 0.59391 1.16391 0.55995
 C1665 C 0.60058 1.18930 0.56731
 H1666 H 0.61607 1.19939 0.55701
 O1667 O 0.40678 0.87555 0.51173
 O1668 O 0.37748 0.84428 0.51009
 C1669 C 0.39855 0.85347 0.51939
 C1670 C 0.41311 0.83828 0.53960
 C1671 C 0.40504 0.81288 0.54564
 H1672 H 0.38890 0.80433 0.53499
 O1673 O 0.59593 0.97121 0.62555
 O1674 O 0.62491 0.96940 0.65752
 C1675 C 0.60409 0.96119 0.64688
 C1676 C 0.58971 0.93948 0.65945
 C1677 C 0.59667 0.93134 0.68481
 H1678 H 0.61176 0.94164 0.69548
 O1679 O 0.41205 1.02133 0.62857
 O1680 O 0.38173 1.02000 0.65934
 C1681 C 0.40270 1.02956 0.65032
 C1682 C 0.41578 1.05091 0.66507
 C1683 C 0.40666 1.05838 0.69009
 H1684 H 0.39066 1.04781 0.69897
 O1685 O 0.47961 1.12944 0.59807
 O1686 O 0.47917 1.15917 0.62961
 C1687 C 0.47063 1.15048 0.60779
 C1688 C 0.44961 1.16427 0.59358
 C1689 C 0.44206 1.18993 0.60025
 H1690 H 0.45207 1.20028 0.61585
 O1691 O 0.52903 0.86678 0.58438
 O1692 O 0.52873 0.83399 0.61251
 C1693 C 0.53834 0.84514 0.59234
 C1694 C 0.56120 0.83349 0.57858
 C1695 C 0.57125 0.80903 0.58640
 H1696 H 0.56135 0.79806 0.60160
 O1697 O 0.63683 0.91115 0.51852
 O1698 O 0.66702 0.88054 0.51682
 C1699 C 0.65792 0.90138 0.52692
 C1700 C 0.67135 0.91374 0.54942
 C1701 C 0.69566 0.90456 0.55767
 H1702 H 0.70533 0.88927 0.54652
 O1703 O 0.37413 1.09381 0.52765
 O1704 O 0.34316 1.12367 0.52915
 C1705 C 0.35268 1.10216 0.53694
 C1706 C 0.33912 1.08666 0.55728
 C1707 C 0.31358 1.09274 0.56524
 H1708 H 0.30328 1.10868 0.55586
 Cu1709 Cu 0.50290 0.88684 0.60002
 Cu1710 Cu 0.50261 0.84775 0.63382
 Cu1711 Cu 0.50441 1.10766 0.61229
 Cu1712 Cu 0.50415 1.14291 0.65052
 Cu1713 Cu 0.39014 0.89683 0.48726
 Cu1714 Cu 0.35510 0.85939 0.48555
 Cu1715 Cu 0.61618 0.89701 0.49263
 Cu1716 Cu 0.65211 0.86001 0.49074
 Cu1717 Cu 0.39578 1.10908 0.50284
 Cu1718 Cu 0.35875 1.14517 0.50464
 Cu1719 Cu 0.61722 1.11092 0.50323
 Cu1720 Cu 0.65332 1.14749 0.50567
 Cu1721 Cu 0.39737 0.99617 0.60653
 Cu1722 Cu 0.36115 0.99472 0.64371
 Cu1723 Cu 0.61252 0.99784 0.60762
 Cu1724 Cu 0.64728 0.99541 0.64596
 C1725 C 0.56985 0.92616 0.64609
 H1726 H 0.56435 0.93252 0.62649
 C1727 C 0.58515 0.90953 0.69642
 C1728 C 0.43653 1.06476 0.65384
 H1729 H 0.44353 1.05918 0.63446
 C1730 C 0.41743 1.07967 0.70369
 C1731 C 0.35216 1.06570 0.56923
 H1732 H 0.37199 1.06120 0.56357
 C1733 C 0.30122 1.07775 0.58484
 C1734 C 0.65899 0.93347 0.56399
 H1735 H 0.64009 0.94045 0.55771
 C1736 C 0.70726 0.91411 0.58073
 C1737 C 0.57405 0.84756 0.55853
 H1738 H 0.56673 0.86654 0.55266
 C1739 C 0.59382 0.79873 0.57445
 C1740 C 0.43648 1.15115 0.57320
 H1741 H 0.44175 1.13123 0.56826
 C1742 C 0.42193 1.20232 0.58617
 C1743 C 0.43619 0.92454 0.64772
 H1744 H 0.44224 0.93096 0.62830
 C1745 C 0.41930 0.90784 0.69756
 C1746 C 0.57117 1.06422 0.65517
 H1747 H 0.56626 1.05994 0.63484
 C1748 C 0.58459 1.07598 0.70750
 C1749 C 0.43420 0.84902 0.55362
 H1750 H 0.44047 0.86871 0.54916
 C1751 C 0.41684 0.79847 0.56577
 C1752 C 0.57354 1.15124 0.57325
 H1753 H 0.56825 1.13159 0.56748
 C1754 C 0.58817 1.20166 0.58842
 C1755 C 0.35039 0.93065 0.56133
 H1756 H 0.36935 0.93662 0.55432
 C1757 C 0.30153 0.91516 0.58059
 C1758 C 0.65809 1.06826 0.57192
 H1759 H 0.63883 1.06337 0.56491
 C1760 C 0.70771 1.08104 0.59098
 O1761 O 0.58975 0.53588 1.12908
 O1762 O 0.62125 0.53754 1.15850
 C1763 C 0.59964 0.54582 1.14972
 C1764 C 0.58608 0.56764 1.16313
 C1765 C 0.59493 0.57726 1.18752
 H1766 H 0.61117 0.56775 1.19705
 O1767 O 0.40459 0.48520 1.13950
 O1768 O 0.37478 0.48600 1.17079
 C1769 C 0.39622 0.47736 1.16170
 C1770 C 0.41169 0.45772 1.17648
 C1771 C 0.40695 0.45239 1.20340
 H1772 H 0.39176 0.46281 1.21386
 O1773 O 0.52101 0.63565 1.08763
 O1774 O 0.52287 0.66834 1.11593
 C1775 C 0.53076 0.65721 1.09490
 C1776 C 0.55178 0.66916 1.07898
 C1777 C 0.56343 0.69261 1.08715
 H1778 H 0.55677 0.70236 1.10491
 O1779 O 0.47278 0.37499 1.10875
 O1780 O 0.47353 0.34791 1.14258
 C1781 C 0.46439 0.35468 1.12035
 C1782 C 0.44364 0.33902 1.10787
 C1783 C 0.43589 0.31503 1.11869
 H1784 H 0.44554 0.30758 1.13614
 O1785 O 0.62245 0.59517 1.01581
 O1786 O 0.65184 0.62631 1.01271
 C1787 C 0.64336 0.60570 1.02365
 C1788 C 0.65751 0.59439 1.04628
 C1789 C 0.68132 0.60496 1.05428
 H1790 H 0.68998 0.62076 1.04310
 O1791 O 0.37318 0.40453 1.03819
 O1792 O 0.34209 0.37511 1.04122
 C1793 C 0.35186 0.39696 1.04809
 C1794 C 0.33773 0.41364 1.06740
 C1795 C 0.31155 0.40844 1.07229
 H1796 H 0.30202 0.39272 1.06174
 O1797 O 0.47051 0.60408 1.12768
 O1798 O 0.47183 0.63685 1.15591
 C1799 C 0.46223 0.61517 1.14847
 C1800 C 0.44077 0.60316 1.16380
 C1801 C 0.43150 0.61543 1.18664
 H1802 H 0.44074 0.63320 1.19345
 O1803 O 0.52446 0.41405 1.13929
 O1804 O 0.52536 0.38693 1.17308
 C1805 C 0.53400 0.40699 1.16130
 C1806 C 0.55576 0.42192 1.17296
 C1807 C 0.56640 0.41457 1.19743
 H1808 H 0.55774 0.39863 1.20828
 O1809 O 0.62335 0.48319 1.09336
 O1810 O 0.65523 0.48524 1.12234
 C1811 C 0.64500 0.47499 1.10198
 C1812 C 0.65826 0.45287 1.08877
 C1813 C 0.68383 0.44660 1.09573
 H1814 H 0.69408 0.45864 1.10990
 O1815 O 0.36726 0.53259 1.10067
 O1816 O 0.33688 0.53397 1.13135
 C1817 C 0.34607 0.54195 1.10948
 C1818 C 0.33276 0.56290 1.09430
 C1819 C 0.30829 0.57279 1.10203
 H1820 H 0.29836 0.56442 1.11886
 O1821 O 0.40380 0.63347 1.02246
 O1822 O 0.37319 0.66364 1.02034
 C1823 C 0.39462 0.65546 1.02953
 C1824 C 0.40851 0.67131 1.04930
 C1825 C 0.39981 0.69647 1.05558
 H1826 H 0.38353 0.70473 1.04486
 O1827 O 0.58761 0.36788 1.03608
 O1828 O 0.61902 0.33855 1.03724
 C1829 C 0.59797 0.34780 1.04647
 C1830 C 0.58560 0.33603 1.07011
 C1831 C 0.59563 0.31341 1.08238
 H1832 H 0.61207 0.30348 1.07358
 O1833 O 0.40280 0.53599 1.13627
 O1834 O 0.37285 0.53748 1.16736
 C1835 C 0.39358 0.54645 1.15707
 C1836 C 0.40701 0.56973 1.16848
 C1837 C 0.39793 0.58251 1.19152
 H1838 H 0.38102 0.57497 1.20163
 O1839 O 0.59066 0.48499 1.13212
 O1840 O 0.62242 0.48672 1.16124
 C1841 C 0.60099 0.47718 1.15349
 C1842 C 0.58834 0.45632 1.16911
 C1843 C 0.59863 0.44874 1.19358
 H1844 H 0.61541 0.45885 1.20143
 O1845 O 0.52317 0.37522 1.10666
 O1846 O 0.52391 0.34811 1.14047
 C1847 C 0.53216 0.35497 1.11789
 C1848 C 0.55299 0.33975 1.10494
 C1849 C 0.56289 0.31710 1.11674
 H1850 H 0.55435 0.31009 1.13497
 O1851 O 0.47070 0.63942 1.09107
 O1852 O 0.47222 0.67236 1.11908
 C1853 C 0.46261 0.66170 1.09870
 C1854 C 0.44138 0.67460 1.08378
 C1855 C 0.43211 0.69981 1.09026
 H1856 H 0.44123 0.71065 1.10606
 O1857 O 0.36888 0.59727 1.02727
 O1858 O 0.33831 0.62750 1.02535
 C1859 C 0.34775 0.60701 1.03580
 C1860 C 0.33398 0.59459 1.05817
 C1861 C 0.30942 0.60371 1.06578
 H1862 H 0.30036 0.61950 1.05487
 O1863 O 0.62108 0.40546 1.03198
 O1864 O 0.65277 0.37638 1.03295
 C1865 C 0.64309 0.39804 1.04051
 C1866 C 0.65733 0.41483 1.05949
 C1867 C 0.68290 0.40863 1.06714
 H1868 H 0.69249 0.39175 1.05866
 O1869 O 0.47381 0.41567 1.13963
 O1870 O 0.47497 0.38870 1.17354
 C1871 C 0.46607 0.40910 1.16244
 C1872 C 0.44645 0.42504 1.17643
 C1873 C 0.44213 0.42075 1.20327
 H1874 H 0.45378 0.40641 1.21369
 O1875 O 0.52131 0.60434 1.12775
 O1876 O 0.52279 0.63680 1.15635
 C1877 C 0.53096 0.61475 1.14830
 C1878 C 0.55235 0.60129 1.16242
 C1879 C 0.56139 0.61064 1.18676
 H1880 H 0.55200 0.62743 1.19575
 O1881 O 0.36937 0.48143 1.10321
 O1882 O 0.33879 0.48229 1.13371
 C1883 C 0.34844 0.47233 1.11277
 C1884 C 0.33556 0.44986 1.09928
 C1885 C 0.30931 0.44351 1.10446
 H1886 H 0.29811 0.45497 1.11842
 O1887 O 0.62449 0.53425 1.09193
 O1888 O 0.65607 0.53626 1.12122
 C1889 C 0.64590 0.54390 1.09975
 C1890 C 0.65865 0.56458 1.08389
 C1891 C 0.68233 0.57578 1.09193
 H1892 H 0.69194 0.56860 1.10949
 O1893 O 0.40592 0.36613 1.03968
 O1894 O 0.37530 0.33630 1.04303
 C1895 C 0.39667 0.34594 1.05080
 C1896 C 0.41060 0.33445 1.07362
 C1897 C 0.40293 0.31052 1.08478
 H1898 H 0.38747 0.29956 1.07555
 O1899 O 0.58616 0.63002 1.01350
 O1900 O 0.61553 0.66114 1.01007
 C1901 C 0.59497 0.65212 1.02048
 C1902 C 0.58218 0.66704 1.04185
 C1903 C 0.59275 0.69098 1.04977
 H1904 H 0.60902 0.69929 1.03910
 Cu1905 Cu 0.60388 0.50951 1.10870
 Cu1906 Cu 0.64195 0.51158 1.14372
 Cu1907 Cu 0.38892 0.50865 1.11690
 Cu1908 Cu 0.35277 0.50985 1.15387
 Cu1909 Cu 0.49569 0.61765 1.10573
 Cu1910 Cu 0.49764 0.65680 1.13972
 Cu1911 Cu 0.49841 0.39769 1.12016
 Cu1912 Cu 0.49937 0.36522 1.16087
 C1913 C 0.56469 0.57964 1.15091
 H1914 H 0.55805 0.57254 1.13193
 C1915 C 0.58269 0.59887 1.19948
 C1916 C 0.43152 0.44386 1.16322
 H1917 H 0.43494 0.44724 1.14240
 C1918 C 0.42246 0.43398 1.21685
 C1919 C 0.56136 0.65644 1.05627
 H1920 H 0.55324 0.63785 1.05033
 C1921 C 0.58405 0.70337 1.07266
 C1922 C 0.43104 0.34839 1.08526
 H1923 H 0.43678 0.36703 1.07704
 C1924 C 0.41547 0.30071 1.10749
 C1925 C 0.64648 0.57402 1.06100
 H1926 H 0.62798 0.56595 1.05497
 C1927 C 0.69366 0.59613 1.07720
 C1928 C 0.34958 0.43470 1.08062
 H1929 H 0.36979 0.43906 1.07663
 C1930 C 0.29724 0.42304 1.09052
 C1931 C 0.42861 0.58023 1.15504
 H1932 H 0.43560 0.57091 1.13717
 C1933 C 0.41027 0.60547 1.20074
 C1934 C 0.56677 0.44290 1.15905
 H1935 H 0.55893 0.44840 1.14001
 C1936 C 0.58804 0.42778 1.20778
 C1937 C 0.64520 0.43709 1.07040
 H1938 H 0.62535 0.44178 1.06509
 C1939 C 0.69617 0.42449 1.08536
 C1940 C 0.34537 0.57399 1.07231
 H1941 H 0.36440 0.56695 1.06647
 C1942 C 0.29654 0.59324 1.08767
 C1943 C 0.42947 0.66071 1.06319
 H1944 H 0.43602 0.64114 1.05842
 C1945 C 0.41119 0.71085 1.07605
 C1946 C 0.56418 0.34880 1.08152
 H1947 H 0.55666 0.36647 1.07257
 C1948 C 0.58429 0.30388 1.10592
 O1949 O 0.58429 0.46845 0.86922
 O1950 O 0.61422 0.46529 0.83814
 C1951 C 0.59291 0.45786 0.84831
 C1952 C 0.57848 0.43613 0.83616
 C1953 C 0.58592 0.42651 0.81137
 H1954 H 0.60107 0.43645 0.80054
 O1955 O 0.39523 0.51645 0.87346
 O1956 O 0.36282 0.51376 0.84515
 C1957 C 0.38445 0.52341 0.85205
 C1958 C 0.39706 0.54322 0.83527
 C1959 C 0.38605 0.55059 0.81110
 H1960 H 0.36842 0.54124 0.80427
 O1961 O 0.46488 0.61953 0.89639
 O1962 O 0.46371 0.64822 0.86395
 C1963 C 0.45600 0.64048 0.88644
 C1964 C 0.43638 0.65594 0.90099
 C1965 C 0.42917 0.68076 0.89194
 H1966 H 0.43846 0.68882 0.87455
 O1967 O 0.51866 0.36472 0.91497
 O1968 O 0.51798 0.33302 0.88545
 C1969 C 0.52710 0.34295 0.90649
 C1970 C 0.54779 0.32904 0.92113
 C1971 C 0.55441 0.30336 0.91445
 H1972 H 0.54393 0.29354 0.89878
 O1973 O 0.61848 0.40275 0.98096
 O1974 O 0.64989 0.37336 0.98181
 C1975 C 0.63971 0.39380 0.97190
 C1976 C 0.65265 0.40669 0.94927
 C1977 C 0.67679 0.39721 0.94075
 H1978 H 0.68622 0.38138 0.95127
 O1979 O 0.36717 0.59217 0.97645
 O1980 O 0.33655 0.62241 0.97485
 C1981 C 0.34539 0.60025 0.96798
 C1982 C 0.33007 0.58398 0.94982
 C1983 C 0.30401 0.59012 0.94522
 H1984 H 0.29505 0.60631 0.95568
 O1985 O 0.51432 0.58186 0.86028
 O1986 O 0.51274 0.61033 0.82767
 C1987 C 0.52249 0.59001 0.83811
 C1988 C 0.54447 0.57658 0.82500
 C1989 C 0.55303 0.58481 0.80016
 H1990 H 0.54240 0.59994 0.78976
 O1991 O 0.46652 0.39880 0.87925
 O1992 O 0.46621 0.36738 0.84942
 C1993 C 0.45729 0.38883 0.85833
 C1994 C 0.43573 0.40204 0.84438
 C1995 C 0.42865 0.39403 0.81899
 H1996 H 0.43952 0.37852 0.80938
 O1997 O 0.62231 0.52001 0.90080
 O1998 O 0.65265 0.51664 0.87018
 C1999 C 0.64379 0.52733 0.89095
 C2000 C 0.65802 0.54903 0.90351
 C2001 C 0.68302 0.55610 0.89512
 H2002 H 0.69254 0.54494 0.87968
 O2003 O 0.36402 0.46831 0.91659
 O2004 O 0.33174 0.46560 0.88812
 C2005 C 0.34248 0.45860 0.90955
 C2006 C 0.32995 0.43838 0.92584
 C2007 C 0.30467 0.43046 0.91981
 H2008 H 0.29391 0.44017 0.90423
 O2009 O 0.58509 0.62528 0.96218
 O2010 O 0.61449 0.65637 0.95899
 C2011 C 0.59346 0.64592 0.95129
 C2012 C 0.57894 0.65762 0.92910
 C2013 C 0.58681 0.68160 0.91847
 H2014 H 0.60262 0.69206 0.92767
 O2015 O 0.40408 0.36275 0.98786
 O2016 O 0.37344 0.33293 0.99082
 C2017 C 0.39414 0.34135 0.98014
 C2018 C 0.40680 0.32704 0.95795
 C2019 C 0.39880 0.30189 0.94957
 H2020 H 0.38323 0.29193 0.95980
 O2021 O 0.39624 0.46602 0.87744
 O2022 O 0.36426 0.46313 0.84864
 C2023 C 0.38624 0.45551 0.85717
 C2024 C 0.40052 0.43416 0.84374
 C2025 C 0.39343 0.42562 0.81833
 H2026 H 0.37744 0.43502 0.80821
 O2027 O 0.58642 0.51891 0.86496
 O2028 O 0.61647 0.51604 0.83403
 C2029 C 0.59551 0.52604 0.84276
 C2030 C 0.58125 0.54629 0.82745
 C2031 C 0.59013 0.55547 0.80274
 H2032 H 0.60774 0.54752 0.79417
 O2033 O 0.46815 0.36344 0.91579
 O2034 O 0.46773 0.33200 0.88598
 C2035 C 0.45949 0.34170 0.90750
 C2036 C 0.43936 0.32768 0.92273
 C2037 C 0.43184 0.30253 0.91526
 H2038 H 0.44153 0.29307 0.89879
 O2039 O 0.51512 0.61955 0.89398
 O2040 O 0.51392 0.64819 0.86147
 C2041 C 0.52348 0.64025 0.88316
 C2042 C 0.54486 0.65489 0.89574
 C2043 C 0.55313 0.67884 0.88527
 H2044 H 0.54343 0.68699 0.86816
 O2045 O 0.36921 0.39945 0.98748
 O2046 O 0.33839 0.36976 0.99051
 C2047 C 0.34740 0.39043 0.98014
 C2048 C 0.33253 0.40416 0.95932
 C2049 C 0.30753 0.39570 0.95205
 H2050 H 0.29886 0.37892 0.96159
 O2051 O 0.62308 0.59191 0.96461
 O2052 O 0.65255 0.62297 0.96162
 C2053 C 0.64401 0.60079 0.95476
 C2054 C 0.65807 0.58527 0.93470
 C2055 C 0.68309 0.59228 0.92612
 H2056 H 0.69266 0.60872 0.93528
 O2057 O 0.51725 0.39825 0.87638
 O2058 O 0.51673 0.36661 0.84681
 C2059 C 0.52548 0.38833 0.85490
 C2060 C 0.54575 0.40194 0.83943
 C2061 C 0.55364 0.39237 0.81464
 H2062 H 0.54437 0.37522 0.80641
 O2063 O 0.46346 0.58220 0.86183
 O2064 O 0.46176 0.61068 0.82925
 C2065 C 0.45341 0.59014 0.84039
 C2066 C 0.43114 0.57568 0.82915
 C2067 C 0.42003 0.58275 0.80482
 H2068 H 0.42836 0.59867 0.79363
 O2069 O 0.36202 0.51879 0.91176
 O2070 O 0.32939 0.51617 0.88371
 C2071 C 0.34000 0.52667 0.90371
 C2072 C 0.32712 0.54849 0.91781
 C2073 C 0.30107 0.55545 0.91276
 H2074 H 0.28985 0.54451 0.89848
 O2075 O 0.61925 0.46939 0.90557
 O2076 O 0.64944 0.46579 0.87482
 C2077 C 0.63988 0.45876 0.89691
 C2078 C 0.65266 0.43773 0.91242
 C2079 C 0.67648 0.42720 0.90386
 H2080 H 0.68581 0.43482 0.88631
 O2081 O 0.58595 0.36462 0.98444
 O2082 O 0.61701 0.33488 0.98522
 C2083 C 0.59550 0.34320 0.97615
 C2084 C 0.58150 0.32870 0.95512
 C2085 C 0.58837 0.30298 0.94770
 H2086 H 0.60386 0.29293 0.95799
 O2087 O 0.40179 0.62842 0.97106
 O2088 O 0.37125 0.65869 0.96919
 C2089 C 0.39207 0.64861 0.96029
 C2090 C 0.40494 0.66007 0.93689
 C2091 C 0.39757 0.68478 0.92724
 H2092 H 0.38283 0.69599 0.93752
 Cu2093 Cu 0.60008 0.49471 0.88821
 Cu2094 Cu 0.63629 0.49055 0.85124
 Cu2095 Cu 0.38263 0.49273 0.89766
 Cu2096 Cu 0.34373 0.48931 0.86357
 Cu2097 Cu 0.60124 0.60742 0.98921
 Cu2098 Cu 0.63648 0.64491 0.98550
 Cu2099 Cu 0.59995 0.38787 1.00842
 Cu2100 Cu 0.63781 0.35282 1.00937
 Cu2101 Cu 0.38867 0.60991 0.99949
 Cu2102 Cu 0.35180 0.64617 0.99724
 Cu2103 Cu 0.39141 0.38587 1.01284
 Cu2104 Cu 0.35431 0.35047 1.01690
 Cu2105 Cu 0.48949 0.59776 0.88127
 Cu2106 Cu 0.48782 0.63214 0.84220
 Cu2107 Cu 0.49276 0.38453 0.89953
 Cu2108 Cu 0.49215 0.34663 0.86390
 C2109 C 0.55821 0.42393 0.84995
 H2110 H 0.55266 0.43112 0.86929
 C2111 C 0.57392 0.40434 0.80063
 C2112 C 0.41972 0.55560 0.84394
 H2113 H 0.42800 0.55020 0.86282
 C2114 C 0.39752 0.57003 0.79559
 C2115 C 0.42440 0.64586 0.92365
 H2116 H 0.42986 0.62663 0.93068
 C2117 C 0.40975 0.69523 0.90473
 C2118 C 0.56118 0.34141 0.94165
 H2119 H 0.55606 0.36132 0.94679
 C2120 C 0.57459 0.29016 0.92740
 C2121 C 0.64077 0.42727 0.93522
 H2122 H 0.62206 0.43467 0.94164
 C2123 C 0.68844 0.40689 0.91795
 C2124 C 0.34140 0.56292 0.93642
 H2125 H 0.36162 0.55820 0.94004
 C2126 C 0.28947 0.57628 0.92667
 C2127 C 0.55841 0.55708 0.83827
 H2128 H 0.55176 0.55077 0.85752
 C2129 C 0.57590 0.57479 0.78903
 C2130 C 0.42173 0.42228 0.85653
 H2131 H 0.42710 0.42848 0.87622
 C2132 C 0.40762 0.40557 0.80581
 C2133 C 0.64587 0.56358 0.92343
 H2134 H 0.62643 0.55840 0.92973
 C2135 C 0.69572 0.57777 0.90619
 C2136 C 0.34361 0.42555 0.94602
 H2137 H 0.36318 0.43169 0.95076
 C2138 C 0.29362 0.40898 0.93236
 C2139 C 0.55784 0.64446 0.91774
 H2140 H 0.55186 0.62578 0.92570
 C2141 C 0.57427 0.69213 0.89628
 C2142 C 0.42705 0.33958 0.94424
 H2143 H 0.43297 0.35906 0.94996
 C2144 C 0.41165 0.28948 0.92826
 C2145 C 1.14539 1.13895 1.25179
 C2146 C 1.12081 1.14089 1.24357
 C2147 C 1.11288 1.12600 1.21993
 C2148 C 1.08803 1.12390 1.21296
 H2149 H 1.10642 1.15184 1.25461
 H2150 H 1.12775 1.11679 1.20792
 H2151 H 1.15810 1.12631 1.24028
 H2152 H 1.07341 1.13414 1.22446
 C2153 C 1.11030 0.63570 0.78035
 C2154 C 1.10882 0.61144 0.77046
 C2155 C 1.09747 0.60593 0.74440
 C2156 C 1.09977 0.58197 0.73388
 H2157 H 1.11684 0.59515 0.78139
 H2158 H 1.08871 0.62179 0.73345
 H2159 H 1.10091 0.65169 0.77004
 H2160 H 1.10999 0.56707 0.74504
 C2161 C 0.60190 1.13202 0.78474
 C2162 C 0.59978 1.10829 0.77381
 C2163 C 0.58932 1.10445 0.74709
 C2164 C 0.59214 1.08124 0.73517
 H2165 H 0.60683 1.09124 0.78424
 H2166 H 0.58104 1.12097 0.73673
 H2167 H 0.59355 1.14878 0.77477
 H2168 H 0.60200 1.06566 0.74569
 C2169 C 0.64383 0.61827 1.27322
 C2170 C 0.62086 0.62052 1.26076
 C2171 C 0.61414 0.60554 1.23685
 C2172 C 0.59125 0.61014 1.22502
 H2173 H 0.60614 0.63379 1.26804
 H2174 H 0.62832 0.59229 1.22847
 H2175 H 0.65694 0.60277 1.26709
 H2176 H 0.57822 0.62428 1.23403
 C2177 C 0.88158 0.86998 1.27360
 C2178 C 0.87957 0.89460 1.26504
 C2179 C 0.89473 0.90248 1.24157
 C2180 C 0.89540 0.92717 1.23324
 H2181 H 0.86782 0.90895 1.27530
 H2182 H 0.90496 0.88754 1.23047
 H2183 H 0.89478 0.85732 1.26272
 H2184 H 0.88407 0.94176 1.24373
 C2185 C 0.85528 0.37368 0.76290
 C2186 C 0.88055 0.37330 0.75672
 C2187 C 0.88987 0.38935 0.73458
 C2188 C 0.91500 0.39028 0.72827
 H2189 H 0.89446 0.36200 0.76793
 H2190 H 0.87577 0.39966 0.72257
 H2191 H 0.84290 0.38656 0.75139
 H2192 H 0.92877 0.37873 0.73953
 C2193 C 0.37752 0.84971 0.76229
 C2194 C 0.38603 0.87326 0.75505
 C2195 C 0.40144 0.87702 0.73066
 C2196 C 0.40950 0.90091 0.72409
 H2197 H 0.38144 0.89009 0.76723
 H2198 H 0.40447 0.86079 0.71723
 H2199 H 0.38339 0.83276 0.75087
 H2200 H 0.40501 0.91700 0.73731
 C2201 C 0.37103 0.40644 1.29339
 C2202 C 0.39369 0.40885 1.28074
 C2203 C 0.39574 0.42416 1.25621
 C2204 C 0.41891 0.42688 1.24482
 H2205 H 0.41094 0.39903 1.28787
 H2206 H 0.37825 0.43048 1.24615
 H2207 H 0.35501 0.41862 1.28675
 H2208 H 0.43587 0.41944 1.25513
 C2209 C 0.89495 1.10042 0.70336
 C2210 C 0.88222 1.08492 0.72021
 C2211 C 0.89561 1.07625 0.74440
 C2212 C 0.88244 1.06735 0.76523
 H2213 H 0.86175 1.08080 0.71792
 H2214 H 0.91650 1.07852 0.74555
 H2215 H 0.91502 1.10493 0.70816
 H2216 H 0.86168 1.06427 0.76345
 C2217 C 0.85624 0.63556 0.24335
 C2218 C 0.88130 0.63110 0.24845
 C2219 C 0.88871 0.61631 0.27231
 C2220 C 0.91357 0.61207 0.27841
 H2221 H 0.89614 0.63719 0.23458
 H2222 H 0.87357 0.60922 0.28535
 H2223 H 0.84184 0.62820 0.25712
 H2224 H 0.92862 0.62056 0.26614
 C2225 C 0.35784 1.12411 0.23126
 C2226 C 0.38100 1.12867 0.24234
 C2227 C 0.38899 1.11335 0.26566
 C2228 C 0.41272 1.11573 0.27605
 H2229 H 0.39420 1.14312 0.23454
 H2230 H 0.37484 1.10063 0.27477
 H2231 H 0.34633 1.10849 0.23979
 H2232 H 0.42613 1.12941 0.26707
 C2233 C 0.39569 0.60816 0.70695
 C2234 C 0.38291 0.59637 0.72650
 C2235 C 0.39710 0.58731 0.75001
 C2236 C 0.38441 0.57771 0.77081
 H2237 H 0.36189 0.59529 0.72621
 H2238 H 0.41806 0.58914 0.75048
 H2239 H 0.41661 0.61025 0.70850
 H2240 H 0.36357 0.57488 0.76951
 C2241 C 1.14027 0.88364 0.72572
 C2242 C 1.11678 0.88145 0.73725
 C2243 C 1.11019 0.89474 0.76232
 C2244 C 1.08728 0.89022 0.77436
 H2245 H 1.10197 0.86932 0.72841
 H2246 H 1.12466 0.90720 0.77120
 H2247 H 1.15432 0.89704 0.73403
 H2248 H 1.07394 0.87664 0.76514
 C2249 C 1.10411 0.35779 0.21610
 C2250 C 1.10056 0.38153 0.22655
 C2251 C 1.08741 0.38569 0.25205
 C2252 C 1.08811 0.40942 0.26307
 H2253 H 1.10875 0.39839 0.21667
 H2254 H 1.07934 0.36919 0.26258
 H2255 H 1.09481 0.34099 0.22500
 H2256 H 1.09762 0.42507 0.25236
 C2257 C 0.62931 0.85808 0.23400
 C2258 C 0.62958 0.88331 0.24076
 C2259 C 0.61330 0.89219 0.26298
 C2260 C 0.60998 0.91751 0.26813
 H2261 H 0.64055 0.89753 0.22960
 H2262 H 0.60450 0.87769 0.27572
 H2263 H 0.61641 0.84545 0.24515
 H2264 H 0.61986 0.93176 0.25591
 C2265 C 0.63829 0.38350 0.73155
 C2266 C 0.61393 0.38235 0.74081
 C2267 C 0.60618 0.39615 0.76500
 C2268 C 0.58234 0.39293 0.77513
 H2269 H 0.59950 0.37060 0.73082
 H2270 H 0.62064 0.40764 0.77520
 H2271 H 0.65215 0.39650 0.74082
 H2272 H 0.56888 0.38005 0.76509
 C2273 C 1.25155 1.12930 1.13659
 C2274 C 1.24393 1.13035 1.11143
 C2275 C 1.21994 1.11721 1.10325
 C2276 C 1.21261 1.11658 1.07797
 H2277 H 1.25571 1.14007 1.09669
 H2278 H 1.20797 1.10828 1.11833
 H2279 H 1.24008 1.11817 1.15058
 H2280 H 1.22406 1.12688 1.06333
 C2281 C 1.28526 0.62893 0.61162
 C2282 C 1.27392 0.60544 0.61391
 C2283 C 1.24819 0.60011 0.60203
 C2284 C 1.23648 0.57698 0.60559
 H2285 H 1.28348 0.58977 0.62441
 H2286 H 1.23864 0.61550 0.59105
 H2287 H 1.27533 0.64380 0.60018
 H2288 H 1.24619 0.56251 0.61773
 C2289 C 0.78939 1.13021 0.60728
 C2290 C 0.77396 1.10957 0.61146
 C2291 C 0.74858 1.10707 0.59796
 C2292 C 0.73402 1.08586 0.60209
 H2293 H 0.77971 1.09402 0.62462
 H2294 H 0.74186 1.12270 0.58533
 H2295 H 0.78264 1.14465 0.59317
 H2296 H 0.74163 1.07107 0.61535
 C2297 C 0.75449 0.63120 1.14268
 C2298 C 0.74842 0.62731 1.11737
 C2299 C 0.72467 0.61285 1.11035
 C2300 C 0.71816 0.60895 1.08516
 H2301 H 0.76126 0.63401 1.10184
 H2302 H 0.71206 0.60598 1.12601
 H2303 H 0.74184 0.62318 1.15776
 H2304 H 0.73026 0.61723 1.06976
 C2305 C 1.27065 0.88476 0.85508
 C2306 C 1.25743 0.88354 0.87802
 C2307 C 1.23390 0.89939 0.88351
 C2308 C 1.22154 0.89639 0.90669
 H2309 H 1.26365 0.87058 0.89358
 H2310 H 1.22632 0.91215 0.86835
 H2311 H 1.26476 0.89953 0.84094
 H2312 H 1.22988 0.88283 0.92080
 C2313 C 1.28423 0.36645 0.39975
 C2314 C 1.27041 0.38864 0.39979
 C2315 C 1.24432 0.39029 0.41141
 C2316 C 1.23044 0.41206 0.40772
 H2317 H 1.27787 0.40611 0.39058
 H2318 H 1.23597 0.37329 0.42080
 H2319 H 1.27725 0.35024 0.41155
 H2320 H 1.23929 0.42811 0.39702
 C2321 C 0.78734 0.86914 0.38757
 C2322 C 0.76872 0.88492 0.37819
 C2323 C 0.74643 0.89318 0.39490
 C2324 C 0.72803 0.90899 0.38512
 H2325 H 0.76930 0.89117 0.35778
 H2326 H 0.74536 0.88655 0.41516
 H2327 H 0.78561 0.86233 0.40777
 H2328 H 0.73043 0.91591 0.36503
 C2329 C 0.74441 0.36788 0.85072
 C2330 C 0.74010 0.37399 0.87591
 C2331 C 0.71692 0.38882 0.88367
 C2332 C 0.71272 0.39458 0.90896
 H2333 H 0.75425 0.36882 0.89087
 H2334 H 0.70278 0.39426 0.86878
 H2335 H 0.73093 0.37452 0.83569
 H2336 H 0.72625 0.38765 0.92381
 C2337 C 0.72993 0.85595 1.12644
 C2338 C 0.73895 0.88044 1.12766
 C2339 C 0.76289 0.88759 1.11318
 C2340 C 0.77192 0.91212 1.11314
 H2341 H 0.72882 0.89524 1.13899
 H2342 H 0.77345 0.87224 1.10311
 H2343 H 0.74024 0.84211 1.11398
 H2344 H 0.76130 0.92679 1.12428
 C2345 C 0.72683 0.36169 0.61737
 C2346 C 0.73940 0.38460 0.61873
 C2347 C 0.76319 0.38982 0.60320
 C2348 C 0.77571 0.41245 0.60666
 H2349 H 0.73276 0.39996 0.63171
 H2350 H 0.77113 0.37476 0.59050
 H2351 H 0.73374 0.34759 0.60295
 H2352 H 0.76746 0.42650 0.62039
 C2353 C 0.22739 0.85942 0.60928
 C2354 C 0.24047 0.88207 0.60913
 C2355 C 0.26378 0.88606 0.59217
 C2356 C 0.27559 0.90931 0.59220
 H2357 H 0.23442 0.89807 0.62165
 H2358 H 0.27206 0.86980 0.58132
 H2359 H 0.23367 0.84466 0.59524
 H2360 H 0.26687 0.92473 0.60401
 C2361 C 0.21942 0.39416 1.13887
 C2362 C 0.23294 0.39775 1.11659
 C2363 C 0.25751 0.41261 1.11615
 C2364 C 0.26953 0.41623 1.09310
 H2365 H 0.22625 0.38945 1.09818
 H2366 H 0.26692 0.41802 1.13448
 H2367 H 0.22559 0.40490 1.15624
 H2368 H 0.25993 0.40957 1.07526
 C2369 C 0.70612 1.09437 0.87588
 C2370 C 0.71907 1.09340 0.89870
 C2371 C 0.74361 1.07873 0.90098
 C2372 C 0.75735 1.08065 0.92315
 H2373 H 0.71253 1.10439 0.91570
 H2374 H 0.75181 1.06923 0.88373
 H2375 H 0.71241 1.08129 0.86022
 H2376 H 0.74912 1.09149 0.93961
 C2377 C 0.73200 0.64706 0.38601
 C2378 C 0.74083 0.62284 0.39042
 C2379 C 0.76496 0.61788 0.40555
 C2380 C 0.77446 0.59359 0.40699
 H2381 H 0.73053 0.60630 0.38223
 H2382 H 0.77586 0.63412 0.41360
 H2383 H 0.74185 0.66332 0.39535
 H2384 H 0.76372 0.57802 0.39746
 C2385 C 0.24593 1.12643 0.34845
 C2386 C 0.25358 1.12466 0.37355
 C2387 C 0.27573 1.10806 0.38071
 C2388 C 0.28149 1.10416 0.40601
 H2389 H 0.24315 1.13452 0.38923
 H2390 H 0.28805 1.10019 0.36524
 H2391 H 0.25585 1.11425 0.33402
 H2392 H 0.26945 1.11324 0.42108
 C2393 C 0.21604 0.60306 0.87144
 C2394 C 0.22778 0.60174 0.89490
 C2395 C 0.25135 0.58583 0.89865
 C2396 C 0.26256 0.58519 0.92233
 H2397 H 0.22053 0.61274 0.91161
 H2398 H 0.26082 0.57704 0.88170
 H2399 H 0.22279 0.58986 0.85608
 H2400 H 0.25304 0.59518 0.93861
 C2401 C 1.13571 1.28517 1.09232
 C2402 C 1.11160 1.27687 1.08715
 C2403 C 1.10634 1.25268 1.07210
 C2404 C 1.08194 1.24378 1.07085
 H2405 H 1.09520 1.28740 1.09541
 H2406 H 1.12234 1.24108 1.06452
 H2407 H 1.15211 1.27554 1.08298
 H2408 H 1.06666 1.25536 1.07995
 C2409 C 1.12410 0.76544 0.64318
 C2410 C 1.12022 0.75595 0.61899
 C2411 C 1.10636 0.73119 0.61490
 C2412 C 1.10511 0.72086 0.59077
 H2413 H 1.12750 0.76639 0.60193
 H2414 H 1.09874 0.72065 0.63175
 H2415 H 1.11560 0.75546 0.65997
 H2416 H 1.11426 0.73111 0.57450
 C2417 C 0.62510 1.26508 0.64954
 C2418 C 0.61757 1.25871 0.62524
 C2419 C 0.60303 1.23456 0.62018
 C2420 C 0.59717 1.22796 0.59548
 H2421 H 0.62232 1.27143 0.60883
 H2422 H 0.59893 1.22126 0.63630
 H2423 H 0.61909 1.25313 0.66611
 H2424 H 0.60287 1.24081 0.57948
 C2425 C 0.63082 0.75172 1.14026
 C2426 C 0.62316 0.74984 1.11523
 C2427 C 0.60630 0.72833 1.10688
 C2428 C 0.59834 0.72642 1.08195
 H2429 H 0.62836 0.76488 1.10113
 H2430 H 0.60096 0.71343 1.12109
 H2431 H 0.62417 0.73744 1.15454
 H2432 H 0.60505 0.74045 1.06745
 C2433 C 0.85455 1.27682 0.87361
 C2434 C 0.87075 1.25872 0.86391
 C2435 C 0.87974 1.23677 0.88049
 C2436 C 0.89406 1.21747 0.87007
 H2437 H 0.87645 1.25929 0.84333
 H2438 H 0.87446 1.23656 0.90117
 H2439 H 0.84799 1.27496 0.89388
 H2440 H 0.89957 1.21892 0.84944
 C2441 C 0.88414 0.76272 0.36628
 C2442 C 0.89019 0.75738 0.39126
 C2443 C 0.90488 0.73358 0.39769
 C2444 C 0.90945 0.72710 0.42271
 H2445 H 0.88475 0.77077 0.40692
 H2446 H 0.91080 0.72050 0.38191
 H2447 H 0.89087 0.74970 0.35078
 H2448 H 0.90196 0.73940 0.43843
 C2449 C 0.40202 1.28842 0.37284
 C2450 C 0.40258 1.27633 0.39625
 C2451 C 0.41535 1.25080 0.39988
 C2452 C 0.41185 1.23773 0.42249
 H2453 H 0.39249 1.28481 0.41298
 H2454 H 0.42578 1.24206 0.38352
 H2455 H 0.41329 1.28054 0.35656
 H2456 H 0.40008 1.24672 0.43782
 C2457 C 0.35059 0.76670 0.87914
 C2458 C 0.37446 0.75649 0.88079
 C2459 C 0.37968 0.73217 0.89535
 C2460 C 0.40324 0.72121 0.89387
 H2461 H 0.39052 0.76589 0.87077
 H2462 H 0.36397 0.72251 0.90568
 H2463 H 0.33489 0.75798 0.89035
 H2464 H 0.41806 0.73081 0.88215
 C2465 C 1.13634 0.72118 0.89761
 C2466 C 1.11278 0.73194 0.90035
 C2467 C 1.10868 0.75694 0.91452
 C2468 C 1.08476 0.76715 0.91574
 H2469 H 1.09613 0.72244 0.89153
 H2470 H 1.12519 0.76766 0.92206
 H2471 H 1.15269 0.72999 0.90769
 H2472 H 1.06898 0.75614 0.90698
 C2473 C 1.14802 0.22990 0.36890
 C2474 C 1.12364 0.23893 0.37007
 C2475 C 1.11722 0.26184 0.38684
 C2476 C 1.09285 0.27084 0.38848
 H2477 H 1.10838 0.22943 0.35897
 H2478 H 1.13276 0.27195 0.39696
 H2479 H 1.16251 0.23932 0.38116
 H2480 H 1.07795 0.26084 0.37725
 C2481 C 0.62458 0.73829 0.35052
 C2482 C 0.61717 0.74590 0.37454
 C2483 C 0.60247 0.77028 0.37853
 C2484 C 0.59660 0.77798 0.40295
 H2485 H 0.62232 0.73413 0.39155
 H2486 H 0.59841 0.78290 0.36186
 H2487 H 0.61820 0.74926 0.33341
 H2488 H 0.60222 0.76568 0.41943
 C2489 C 0.62951 0.21415 0.90356
 C2490 C 0.60638 0.22593 0.90568
 C2491 C 0.60307 0.25129 0.91928
 C2492 C 0.57979 0.26293 0.91892
 H2493 H 0.58953 0.21710 0.89654
 H2494 H 0.61978 0.26111 0.92759
 H2495 H 0.64604 0.22229 0.91391
 H2496 H 0.56388 0.25278 0.90936
 C2497 C 0.86251 0.72690 1.12620
 C2498 C 0.87900 0.74489 1.13565
 C2499 C 0.88822 0.76657 1.11864
 C2500 C 0.90389 0.78528 1.12811
 H2501 H 0.88495 0.74441 1.15612
 H2502 H 0.88199 0.76702 1.09827
 H2503 H 0.85623 0.72874 1.10586
 H2504 H 0.91050 0.78358 1.14835
 C2505 C 0.90500 0.21418 0.61940
 C2506 C 0.90166 0.22834 0.59761
 C2507 C 0.91407 0.25401 0.59513
 C2508 C 0.90932 0.26896 0.57415
 H2509 H 0.88924 0.22147 0.58185
 H2510 H 0.92559 0.26123 0.61142
 H2511 H 0.91850 0.22106 0.63428
 H2512 H 0.89670 0.26143 0.55880
 C2513 C 0.39424 0.72463 0.62331
 C2514 C 0.39322 0.73603 0.59968
 C2515 C 0.40664 0.76103 0.59508
 C2516 C 0.40631 0.77214 0.57127
 H2517 H 0.38286 0.72679 0.58360
 H2518 H 0.41586 0.77082 0.61154
 H2519 H 0.40586 0.73363 0.63867
 H2520 H 0.39593 0.76238 0.55548
 C2521 C 0.35341 0.23125 1.13018
 C2522 C 0.37749 0.24082 1.13210
 C2523 C 0.38424 0.26534 1.11840
 C2524 C 0.40804 0.27561 1.12006
 H2525 H 0.39230 0.23064 1.14324
 H2526 H 0.36920 0.27539 1.10743
 H2527 H 0.33955 0.24178 1.11803
 H2528 H 0.42240 0.26587 1.13227
 C2529 C 1.13364 1.09345 0.71369
 C2530 C 1.10962 1.09109 0.72362
 C2531 C 1.10429 1.07576 0.74761
 C2532 C 1.07985 1.07407 0.75639
 H2533 H 1.09336 1.10094 0.71447
 H2534 H 1.12037 1.06831 0.75916
 H2535 H 1.14881 1.08108 0.72178
 H2536 H 1.06452 1.08262 0.74448
 C2537 C 1.11334 0.64832 0.23238
 C2538 C 1.11349 0.62470 0.24367
 C2539 C 1.09784 0.61877 0.26723
 C2540 C 1.09783 0.59436 0.27647
 H2541 H 1.12514 0.60903 0.23553
 H2542 H 1.08815 0.63445 0.27773
 H2543 H 1.09938 0.66259 0.23957
 H2544 H 1.10842 0.57957 0.26543
 C2545 C 0.65496 1.15176 0.25177
 C2546 C 0.63104 1.14190 0.25287
 C2547 C 0.62310 1.12604 0.27571
 C2548 C 0.59911 1.11651 0.27764
 H2549 H 0.61787 1.14434 0.23636
 H2550 H 0.63686 1.12260 0.29155
 H2551 H 0.66831 1.14789 0.26787
 H2552 H 0.58482 1.12134 0.26270
 C2553 C 0.63875 0.61285 0.72661
 C2554 C 0.61437 0.60668 0.73310
 C2555 C 0.60859 0.59104 0.75691
 C2556 C 0.58397 0.58569 0.76324
 H2557 H 0.59844 0.61331 0.72082
 H2558 H 0.62423 0.58550 0.77009
 H2559 H 0.65458 0.60495 0.73827
 H2560 H 0.56868 0.59262 0.75028
 C2561 C 0.88051 0.84716 0.73458
 C2562 C 0.88465 0.87142 0.74318
 C2563 C 0.89811 0.87652 0.76820
 C2564 C 0.89839 0.90076 0.77783
 H2565 H 0.87728 0.88788 0.73198
 H2566 H 0.90577 0.86037 0.77964
 H2567 H 0.88902 0.83081 0.74509
 H2568 H 0.88914 0.91625 0.76661
 C2569 C 0.85953 0.39500 0.22208
 C2570 C 0.88371 0.39834 0.23108
 C2571 C 0.88879 0.41178 0.25634
 C2572 C 0.91277 0.41171 0.26640
 H2573 H 0.90007 0.39057 0.22010
 H2574 H 0.87272 0.41996 0.26750
 H2575 H 0.84353 0.40393 0.23276
 H2576 H 0.92814 0.40202 0.25539
 C2577 C 0.36180 0.90001 0.21850
 C2578 C 0.38633 0.90326 0.22647
 C2579 C 0.39253 0.91715 0.25111
 C2580 C 0.41700 0.91746 0.25991
 H2581 H 0.40216 0.89495 0.21508
 H2582 H 0.37689 0.92530 0.26287
 H2583 H 0.34621 0.90955 0.22927
 H2584 H 0.43193 0.90782 0.24827
 C2585 C 0.35268 0.38230 0.72895
 C2586 C 0.37549 0.38362 0.74166
 C2587 C 0.37888 0.39758 0.76685
 C2588 C 0.40197 0.39610 0.77887
 H2589 H 0.39251 0.37403 0.73366
 H2590 H 0.36242 0.40707 0.77616
 H2591 H 0.33680 0.39446 0.73595
 H2592 H 0.41749 0.38543 0.76906
 C2593 C 1.11872 0.87388 1.27362
 C2594 C 1.12192 0.89754 1.26283
 C2595 C 1.10613 0.90463 1.23937
 C2596 C 1.10601 0.92874 1.22925
 H2597 H 1.13512 0.91168 1.27124
 H2598 H 1.09473 0.88950 1.23001
 H2599 H 1.10422 0.86150 1.26438
 H2600 H 1.11836 0.94337 1.23825
 C2601 C 1.14345 0.37545 0.78192
 C2602 C 1.12970 0.36721 0.76112
 C2603 C 1.12003 0.38529 0.74067
 C2604 C 1.10481 0.37613 0.72140
 H2605 H 1.12579 0.34660 0.75861
 H2606 H 1.12491 0.40582 0.74176
 H2607 H 1.14829 0.39600 0.78340
 H2608 H 1.09952 0.35563 0.72187
 C2609 C 0.62331 0.84835 0.75984
 C2610 C 0.61557 0.87247 0.75372
 C2611 C 0.60116 0.87769 0.72912
 C2612 C 0.59440 0.90207 0.72291
 H2613 H 0.61985 0.88851 0.76700
 H2614 H 0.59769 0.86193 0.71526
 H2615 H 0.61772 0.83226 0.74713
 H2616 H 0.59940 0.91774 0.73639
 C2617 C 0.61425 0.36788 1.28025
 C2618 C 0.61477 0.39113 1.26794
 C2619 C 0.59840 0.39707 1.24484
 C2620 C 0.60064 0.42037 1.23300
 H2621 H 0.62750 0.40649 1.27462
 H2622 H 0.58609 0.38194 1.23681
 H2623 H 0.59939 0.35404 1.27448
 H2624 H 0.61400 0.43446 1.24141
 C2625 C 0.86394 1.11891 1.27468
 C2626 C 0.88594 1.12082 1.26058
 C2627 C 0.88946 1.10727 1.23519
 C2628 C 0.91109 1.11156 1.22117
 H2629 H 0.90188 1.13277 1.26726
 H2630 H 0.87385 1.09540 1.22751
 H2631 H 0.84948 1.10495 1.26815
 H2632 H 0.92567 1.12450 1.22937
 C2633 C 0.86511 0.61040 0.77955
 C2634 C 0.88967 0.60821 0.77121
 C2635 C 0.89613 0.59361 0.74700
 C2636 C 0.92042 0.59373 0.73762
 H2637 H 0.90523 0.61756 0.78201
 H2638 H 0.88069 0.58425 0.73604
 H2639 H 0.85001 0.59986 0.76914
 H2640 H 0.93515 0.60453 0.74831
 C2641 C 0.39069 1.13755 0.77802
 C2642 C 0.39242 1.11406 0.76640
 C2643 C 0.40734 1.10958 0.74179
 C2644 C 0.40628 1.08615 0.73000
 H2645 H 0.38203 1.09767 0.77478
 H2646 H 0.41758 1.12569 0.73272
 H2647 H 0.40225 1.15354 0.77043
 H2648 H 0.39485 1.07101 0.73944
 C2649 C 0.36290 0.62145 1.28467
 C2650 C 0.37948 0.62950 1.26599
 C2651 C 0.38601 0.61230 1.24332
 C2652 C 0.40151 0.62093 1.22404
 H2653 H 0.38791 0.64880 1.26669
 H2654 H 0.37842 0.59262 1.24275
 H2655 H 0.35474 0.60209 1.28209
 H2656 H 0.40910 0.64060 1.22588
 C2657 C 1.14144 1.25029 0.85736
 C2658 C 1.11704 1.24285 0.85227
 C2659 C 1.10710 1.21913 0.86503
 C2660 C 1.08181 1.21348 0.86552
 H2661 H 1.10379 1.25484 0.84098
 H2662 H 1.12076 1.20651 0.87518
 H2663 H 1.15290 1.23771 0.87013
 H2664 H 1.06823 1.22527 0.85429
 C2665 C 1.11758 0.76992 0.36899
 C2666 C 1.12194 0.75707 0.39158
 C2667 C 1.10761 0.73279 0.39740
 C2668 C 1.11101 0.72031 0.42028
 H2669 H 1.13567 0.76414 0.40602
 H2670 H 1.09495 0.72477 0.38242
 H2671 H 1.10280 0.76195 0.35602
 H2672 H 1.12461 0.72842 0.43440
 C2673 C 0.65035 1.27730 0.38865
 C2674 C 0.62654 1.26871 0.39459
 C2675 C 0.62232 1.24400 0.40905
 C2676 C 0.59809 1.23539 0.41275
 H2677 H 0.60971 1.27977 0.38818
 H2678 H 0.63881 1.23208 0.41475
 H2679 H 0.66710 1.26689 0.39630
 H2680 H 0.58213 1.24733 0.40560
 C2681 C 0.63920 0.75836 0.87260
 C2682 C 0.61477 0.74960 0.87177
 C2683 C 0.60718 0.72569 0.88563
 C2684 C 0.58281 0.71683 0.88402
 H2685 H 0.60005 0.76016 0.86082
 H2686 H 0.62194 0.71487 0.89623
 H2687 H 0.65335 0.74848 0.88493
 H2688 H 0.56887 0.72740 0.87201
 C2689 C 0.88761 1.28909 1.12595
 C2690 C 0.88524 1.27682 1.10262
 C2691 C 0.90048 1.25329 1.09607
 C2692 C 0.89688 1.24137 1.07278
 H2693 H 0.87179 1.28370 1.08783
 H2694 H 0.91314 1.24511 1.11095
 H2695 H 0.90305 1.28278 1.13905
 H2696 H 0.88332 1.25008 1.05895
 C2697 C 0.85885 0.76532 0.61593
 C2698 C 0.88320 0.75606 0.61492
 C2699 C 0.88964 0.73147 0.60134
 C2700 C 0.91372 0.72157 0.60305
 H2701 H 0.89867 0.76631 0.62499
 H2702 H 0.87427 0.72086 0.59155
 H2703 H 0.84375 0.75580 0.60457
 H2704 H 0.92815 0.73233 0.61419
 C2705 C 0.39275 1.27422 0.64341
 C2706 C 0.39532 1.26290 0.61976
 C2707 C 0.41148 1.23947 0.61578
 C2708 C 0.41282 1.22908 0.59167
 H2709 H 0.38501 1.27050 0.60282
 H2710 H 0.41971 1.22943 0.63264
 H2711 H 0.40552 1.26778 0.65916
 H2712 H 0.40341 1.23931 0.57552
 C2713 C 0.38712 0.78787 1.13064
 C2714 C 0.38553 0.77362 1.10849
 C2715 C 0.40141 0.74981 1.10450
 C2716 C 0.39981 0.73696 1.08157
 H2717 H 0.37248 0.77919 1.09278
 H2718 H 0.41291 0.74220 1.12064
 H2719 H 0.40188 0.78231 1.14485
 H2720 H 0.38749 0.74520 1.06631
 C2721 C 0.88411 0.72407 0.86929
 C2722 C 0.88467 0.73426 0.89361
 C2723 C 0.89894 0.75860 0.89927
 C2724 C 0.89878 0.76871 0.92364
 H2725 H 0.87443 0.72472 0.90959
 H2726 H 0.90834 0.76877 0.88318
 H2727 H 0.89560 0.73317 0.85389
 H2728 H 0.88820 0.75840 0.93894
 C2729 C 0.89073 0.23161 0.36135
 C2730 C 0.89304 0.24088 0.38585
 C2731 C 0.90609 0.26575 0.39094
 C2732 C 0.90465 0.27660 0.41485
 H2733 H 0.88441 0.23055 0.40232
 H2734 H 0.91500 0.27604 0.37462
 H2735 H 0.90057 0.24142 0.34523
 H2736 H 0.89415 0.26651 0.43036
 C2737 C 0.35922 0.73801 0.37420
 C2738 C 0.38160 0.75001 0.36867
 C2739 C 0.38762 0.77487 0.38222
 C2740 C 0.41164 0.78455 0.38238
 H2741 H 0.39598 0.74116 0.35584
 H2742 H 0.37210 0.78513 0.39234
 H2743 H 0.34671 0.74753 0.38861
 H2744 H 0.42663 0.77422 0.37145
 C2745 C 0.35579 0.21690 0.89633
 C2746 C 0.37872 0.22900 0.89927
 C2747 C 0.38199 0.25264 0.91591
 C2748 C 0.40578 0.26278 0.91859
 H2749 H 0.39577 0.22174 0.88912
 H2750 H 0.36513 0.26281 0.92367
 H2751 H 0.33983 0.22341 0.90873
 H2752 H 0.42193 0.25226 0.90972
 C2753 C 1.13940 0.73631 1.12153
 C2754 C 1.11660 0.74905 1.12315
 C2755 C 1.11112 0.77302 1.10801
 C2756 C 1.08835 0.78529 1.11156
 H2757 H 1.10118 0.74203 1.13572
 H2758 H 1.12601 0.78107 1.09534
 H2759 H 1.15339 0.74303 1.10702
 H2760 H 1.07452 0.77687 1.12531
 C2761 C 1.10720 0.21136 0.63370
 C2762 C 1.10583 0.22199 0.60968
 C2763 C 1.09203 0.24677 0.60495
 C2764 C 1.09321 0.25782 0.58110
 H2765 H 1.11587 0.21279 0.59328
 H2766 H 1.08286 0.25677 0.62136
 H2767 H 1.09599 0.21982 0.64973
 H2768 H 1.10366 0.24764 0.56555
 C2769 C 0.61483 0.72488 0.63468
 C2770 C 0.61609 0.73647 0.61095
 C2771 C 0.60179 0.76093 0.60506
 C2772 C 0.60530 0.77302 0.58183
 H2773 H 0.62806 0.72815 0.59550
 H2774 H 0.58956 0.76950 0.62017
 H2775 H 0.60175 0.73293 0.64941
 H2776 H 0.61866 0.76425 0.56778
 C2777 C 0.65056 0.23922 1.13320
 C2778 C 0.62689 0.24979 1.13617
 C2779 C 0.61808 0.27093 1.11839
 C2780 C 0.59408 0.28074 1.12058
 H2781 H 0.61383 0.24331 1.15153
 H2782 H 0.63173 0.27912 1.10443
 H2783 H 0.66206 0.24616 1.11665
 H2784 H 0.58130 0.27240 1.13538
 C2785 C 1.26919 1.11005 0.85285
 C2786 C 1.25821 1.10520 0.87626
 C2787 C 1.23295 1.09176 0.87868
 C2788 C 1.22141 1.09059 0.90229
 H2789 H 1.26762 1.11196 0.89412
 H2790 H 1.22295 1.08493 0.86118
 H2791 H 1.26040 1.10213 0.83514
 H2792 H 1.23134 1.09901 0.91914
 C2793 C 1.27022 0.63064 0.39481
 C2794 C 1.26494 0.60527 0.39708
 C2795 C 1.24162 0.59712 0.41139
 C2796 C 1.23330 0.57252 0.41036
 H2797 H 1.27721 0.59060 0.38796
 H2798 H 1.22991 0.61198 0.42102
 H2799 H 1.25793 0.64465 0.40503
 H2800 H 1.24416 0.55820 0.39901
 C2801 C 0.77843 1.14576 0.38910
 C2802 C 0.77076 1.12142 0.39403
 C2803 C 0.74672 1.11628 0.40879
 C2804 C 0.73787 1.09192 0.41064
 H2805 H 0.78188 1.10504 0.38640
 H2806 H 0.73513 1.13252 0.41596
 H2807 H 0.76793 1.16199 0.39789
 H2808 H 0.74911 1.07617 0.40186
 C2809 C 0.76941 0.63660 0.88654
 C2810 C 0.75873 0.61277 0.88650
 C2811 C 0.73313 0.60784 0.89857
 C2812 C 0.72211 0.58426 0.89641
 H2813 H 0.76874 0.59655 0.87725
 H2814 H 0.72298 0.62387 0.90800
 H2815 H 0.75968 0.65227 0.89711
 H2816 H 0.73250 0.56913 0.88569
 C2817 C 1.27089 0.87152 1.10798
 C2818 C 1.25970 0.89518 1.10720
 C2819 C 1.23439 0.89956 1.09424
 C2820 C 1.22308 0.92316 1.09531
 H2821 H 1.26908 0.91169 1.11651
 H2822 H 1.22465 0.88318 1.08512
 H2823 H 1.26191 0.85554 1.09735
 H2824 H 1.23316 0.93867 1.10565
 C2825 C 1.27334 0.34860 0.61208
 C2826 C 1.26384 0.37237 0.60715
 C2827 C 1.23946 0.37631 0.59243
 C2828 C 1.22980 0.40043 0.59021
 H2829 H 1.27376 0.38935 0.61498
 H2830 H 1.22841 0.35960 0.58570
 H2831 H 1.26430 0.33168 0.60311
 H2832 H 1.24082 0.41655 0.59841
 C2833 C 0.77174 0.87934 0.64368
 C2834 C 0.76404 0.88410 0.61896
 C2835 C 0.74047 0.89962 0.61334
 C2836 C 0.73259 0.90263 0.58840
 H2837 H 0.77501 0.87616 0.60253
 H2838 H 0.72880 0.90696 0.62955
 H2839 H 0.76139 0.88852 0.65990
 H2840 H 0.74419 0.89392 0.57278
 C2841 C 0.76746 0.36659 1.11277
 C2842 C 0.75752 0.39050 1.10994
 C2843 C 0.73245 0.39465 1.09671
 C2844 C 0.72276 0.41875 1.09464
 H2845 H 0.76789 0.40725 1.11763
 H2846 H 0.72133 0.37790 1.09025
 H2847 H 0.75772 0.35011 1.10371
 H2848 H 0.73396 0.43493 1.10246
 C2849 C 0.75694 1.14561 1.15182
 C2850 C 0.75767 1.13855 1.12649
 C2851 C 0.77842 1.12170 1.11637
 C2852 C 0.77951 1.11585 1.09076
 H2853 H 0.74234 1.14460 1.11315
 H2854 H 0.79344 1.11486 1.12970
 H2855 H 0.77148 1.13818 1.16537
 H2856 H 0.76538 1.12421 1.07731
 C2857 C 0.73175 0.63943 0.61788
 C2858 C 0.74238 0.61552 0.61794
 C2859 C 0.76746 0.60997 0.60502
 C2860 C 0.77873 0.58657 0.60813
 H2861 H 0.73264 0.59958 0.62786
 H2862 H 0.77711 0.62536 0.59417
 H2863 H 0.74108 0.65483 0.60669
 H2864 H 0.76906 0.57217 0.62036
 C2865 C 0.22747 1.13352 0.61115
 C2866 C 0.23792 1.10990 0.60729
 C2867 C 0.26344 1.10652 0.59456
 C2868 C 0.27436 1.08282 0.59385
 H2869 H 0.22778 1.09265 0.61408
 H2870 H 0.27385 1.12348 0.58748
 H2871 H 0.23707 1.15056 0.60307
 H2872 H 0.26389 1.06654 0.60244
 C2873 C 0.22855 0.62537 1.14835
 C2874 C 0.23775 0.62187 1.12393
 C2875 C 0.26169 0.60671 1.11899
 C2876 C 0.27086 0.60452 1.09442
 H2877 H 0.22759 0.63039 1.10730
 H2878 H 0.27251 0.59880 1.13550
 H2879 H 0.23811 0.61560 1.16467
 H2880 H 0.26010 0.61376 1.07854
 C2881 C 0.72497 0.87489 0.86202
 C2882 C 0.73435 0.87377 0.88673
 C2883 C 0.75770 0.88859 0.89450
 C2884 C 0.76770 0.88643 0.91889
 H2885 H 0.72504 0.86177 0.90151
 H2886 H 0.76720 0.90036 0.87966
 H2887 H 0.73403 0.88810 0.84808
 H2888 H 0.75829 0.87341 0.93279
 C2889 C 0.73453 0.39059 0.35545
 C2890 C 0.74218 0.39681 0.37977
 C2891 C 0.76601 0.41190 0.38450
 C2892 C 0.77329 0.41687 0.40924
 H2893 H 0.73089 0.39023 0.39658
 H2894 H 0.77853 0.41694 0.36806
 H2895 H 0.74486 0.39840 0.33855
 H2896 H 0.76089 0.41039 0.42529
 C2897 C 0.21772 0.87272 0.38382
 C2898 C 0.23636 0.88828 0.37412
 C2899 C 0.25914 0.89581 0.39054
 C2900 C 0.27792 0.91114 0.38074
 H2901 H 0.23541 0.89482 0.35383
 H2902 H 0.26026 0.88894 0.41071
 H2903 H 0.21991 0.86581 0.40393
 H2904 H 0.27556 0.91828 0.36073
 C2905 C 0.24169 0.34544 0.88562
 C2906 C 0.24313 0.36875 0.89724
 C2907 C 0.26556 0.37554 0.91370
 C2908 C 0.26839 0.39983 0.92263
 H2909 H 0.22787 0.38308 0.89419
 H2910 H 0.28105 0.36137 0.91641
 H2911 H 0.25632 0.33074 0.88981
 H2912 H 0.25367 0.41437 0.91817
   
