data_POSCAR
  _audit_creation_date              2014-09-24
  _audit_creation_method            'ToBaCCo'
  _symmetry_space_group_name_H-M    'P1'
  _symmetry_Int_Tables_number       1
  _symmetry_cell_setting            triclinic
  loop_
  _symmetry_equiv_pos_as_xyz
 x,y,z
_cell_length_a 63.0501
_cell_length_b 66.8674
_cell_length_c 71.0891
_cell_angle_alpha 88.867100
_cell_angle_beta 89.963600
_cell_angle_gamma 88.430000
loop_
  _atom_site_label
  _atom_site_type_symbol
  _atom_site_fract_x
  _atom_site_fract_y
  _atom_site_fract_z
C1 C 0.18955 0.20627 0.19619
 C2 C 0.20069 0.21055 0.17955
 C3 C 0.21712 0.19790 0.17397
 C4 C 0.22263 0.18086 0.18482
 C5 C 0.21175 0.17664 0.20123
 C6 C 0.19506 0.18943 0.20694
 C7 C 0.17318 0.21604 0.20534
 N8 N 0.16863 0.20557 0.22132
 C9 C 0.18196 0.18925 0.22241
 C10 C 0.22091 0.15946 0.20904
 N11 N 0.23706 0.15328 0.19767
 C12 C 0.23815 0.16625 0.18283
 C13 C 0.22562 0.20594 0.15784
 N14 N 0.21477 0.22314 0.15338
 C15 C 0.19943 0.22615 0.16657
 H16 H 0.16523 0.22986 0.20079
 H17 H 0.18236 0.17804 0.23359
 H18 H 0.21609 0.15212 0.22198
 H19 H 0.24959 0.16521 0.17150
 H20 H 0.23900 0.19989 0.15003
 H21 H 0.18854 0.23892 0.16707
 C22 C 0.67499 0.73020 0.71549
 C23 C 0.68320 0.73173 0.69721
 C24 C 0.69950 0.71891 0.69161
 C25 C 0.70781 0.70435 0.70427
 C26 C 0.69970 0.70289 0.72231
 C27 C 0.68320 0.71589 0.72796
 C28 C 0.65905 0.74051 0.72470
 N29 N 0.65741 0.73280 0.74243
 C30 C 0.67215 0.71770 0.74455
 C31 C 0.71070 0.68758 0.73149
 N32 N 0.72523 0.67966 0.71948
 C33 C 0.72362 0.68986 0.70276
 C34 C 0.70436 0.72395 0.67326
 N35 N 0.69137 0.73952 0.66765
 C36 C 0.67841 0.74433 0.68221
 H37 H 0.64921 0.75265 0.71890
 H38 H 0.67462 0.70846 0.75705
 H39 H 0.70830 0.68251 0.74587
 H40 H 0.73322 0.68714 0.69042
 H41 H 0.71658 0.71685 0.66483
 H42 H 0.66646 0.75628 0.68192
 C43 C 0.31536 0.76919 0.72010
 C44 C 0.30548 0.76509 0.70303
 C45 C 0.28898 0.77733 0.69631
 C46 C 0.28219 0.79403 0.70672
 C47 C 0.29210 0.79801 0.72356
 C48 C 0.30872 0.78553 0.73029
 C49 C 0.33179 0.75989 0.72990
 N50 N 0.33526 0.77022 0.74578
 C51 C 0.32117 0.78598 0.74615
 C52 C 0.28273 0.81504 0.73058
 N53 N 0.26729 0.82164 0.71853
 C54 C 0.26678 0.80887 0.70382
 C55 C 0.28276 0.76967 0.67933
 N56 N 0.29517 0.75319 0.67575
 C57 C 0.30905 0.75037 0.69015
 H58 H 0.34066 0.74659 0.72576
 H59 H 0.31990 0.79701 0.75703
 H60 H 0.28690 0.82219 0.74356
 H61 H 0.25625 0.81020 0.69183
 H62 H 0.27036 0.77584 0.67025
 H63 H 0.32101 0.73845 0.69113
 C64 C 0.81037 0.29076 0.23284
 C65 C 0.79784 0.28974 0.21662
 C66 C 0.78235 0.30429 0.21297
 C67 C 0.77921 0.32008 0.22540
 C68 C 0.79152 0.32115 0.24143
 C69 C 0.80728 0.30635 0.24517
 C70 C 0.82661 0.27871 0.23990
 N71 N 0.83358 0.28656 0.25617
 C72 C 0.82180 0.30351 0.25953
 C73 C 0.78471 0.33801 0.25082
 N74 N 0.76875 0.34715 0.24078
 C75 C 0.76525 0.33619 0.22525
 C76 C 0.77264 0.29959 0.19640
 N77 N 0.78190 0.28257 0.18982
 C78 C 0.79736 0.27638 0.20213
 H79 H 0.83300 0.26522 0.23358
 H80 H 0.82346 0.31319 0.27142
 H81 H 0.79090 0.34327 0.26399
 H82 H 0.75321 0.33934 0.21470
 H83 H 0.75978 0.30795 0.18955
 H84 H 0.80744 0.26314 0.20084
 C85 C 0.81389 0.73204 0.26073
 C86 C 0.80307 0.73524 0.27767
 C87 C 0.78575 0.72394 0.28229
 C88 C 0.77902 0.70924 0.27000
 C89 C 0.78969 0.70602 0.25325
 C90 C 0.80732 0.71755 0.24855
 C91 C 0.83130 0.74081 0.25283
 N92 N 0.83560 0.73209 0.23613
 C93 C 0.82098 0.71778 0.23335
 C94 C 0.77970 0.69071 0.24439
 N95 N 0.76332 0.68462 0.25533
 C96 C 0.76283 0.69592 0.27104
 C97 C 0.77855 0.73015 0.29957
 N98 N 0.79115 0.74498 0.30549
 C99 C 0.80618 0.74813 0.29218
 H100 H 0.84027 0.75270 0.25886
 H101 H 0.82019 0.70817 0.22133
 H102 H 0.78409 0.68436 0.23100
 H103 H 0.75171 0.69462 0.28255
 H104 H 0.76527 0.72412 0.30722
 H105 H 0.81854 0.75900 0.29306
 C106 C 0.29873 0.20965 -0.21040
 C107 C 0.28881 0.21647 -0.19399
 C108 C 0.27069 0.20746 -0.18728
 C109 C 0.26231 0.19130 -0.19700
 C110 C 0.27217 0.18469 -0.21320
 C111 C 0.29043 0.19390 -0.21993
 C112 C 0.31653 0.21553 -0.22005
 N113 N 0.31918 0.20363 -0.23526
 C114 C 0.30324 0.19038 -0.23524
 C115 C 0.26103 0.16891 -0.21968
 N116 N 0.24449 0.16555 -0.20781
 C117 C 0.24518 0.17921 -0.19389
 C118 C 0.26475 0.21727 -0.17110
 N119 N 0.27888 0.23190 -0.16798
 C120 C 0.29360 0.23141 -0.18187
 H121 H 0.32662 0.22757 -0.21611
 H122 H 0.30115 0.17895 -0.24561
 H123 H 0.26511 0.16053 -0.23207
 H124 H 0.23408 0.18023 -0.18229
 H125 H 0.25134 0.21381 -0.16224
 H126 H 0.30690 0.24128 -0.18304
 C127 C 0.69855 0.28991 -0.20694
 C128 C 0.70686 0.28569 -0.18894
 C129 C 0.72347 0.29663 -0.18221
 C130 C 0.73201 0.31195 -0.19342
 C131 C 0.72378 0.31608 -0.21112
 C132 C 0.70696 0.30503 -0.21790
 C133 C 0.68236 0.28186 -0.21710
 N134 N 0.68078 0.29185 -0.23397
 C135 C 0.69579 0.30602 -0.23450
 C136 C 0.73493 0.33159 -0.21884
 N137 N 0.74985 0.33705 -0.20623
 C138 C 0.74813 0.32509 -0.19064
 C139 C 0.72821 0.28932 -0.16442
 N140 N 0.71486 0.27421 -0.16022
 C141 C 0.70180 0.27192 -0.17514
 H142 H 0.67251 0.26979 -0.21233
 H143 H 0.69835 0.31637 -0.24614
 H144 H 0.73214 0.33821 -0.23264
 H145 H 0.75790 0.32590 -0.17817
 H146 H 0.74050 0.29468 -0.15536
 H147 H 0.68948 0.26099 -0.17587
 C148 C 0.18818 0.76755 0.28520
 C149 C 0.19716 0.76166 0.30255
 C150 C 0.21457 0.77138 0.30922
 C151 C 0.22329 0.78702 0.29868
 C152 C 0.21450 0.79291 0.28155
 C153 C 0.19671 0.78308 0.27476
 C154 C 0.17129 0.76067 0.27525
 N155 N 0.16923 0.77162 0.25907
 C156 C 0.18474 0.78539 0.25858
 C157 C 0.22644 0.80838 0.27454
 N158 N 0.24219 0.81190 0.28709
 C159 C 0.24029 0.79888 0.30183
 C160 C 0.22005 0.76259 0.32623
 N161 N 0.20632 0.74772 0.33008
 C162 C 0.19232 0.74701 0.31563
 H163 H 0.16119 0.74853 0.27946
 H164 H 0.18734 0.79617 0.24733
 H165 H 0.22370 0.81631 0.26132
 H166 H 0.25061 0.79809 0.31402
 H167 H 0.23329 0.76664 0.33489
 H168 H 0.17957 0.73654 0.31472
 C169 C 0.48795 0.43491 0.47901
 C170 C 0.49208 0.44680 0.46304
 C171 C 0.47981 0.46386 0.45923
 C172 C 0.46318 0.46928 0.47143
 C173 C 0.45914 0.45753 0.48721
 C174 C 0.47158 0.44021 0.49101
 C175 C 0.49728 0.41752 0.48611
 N176 N 0.48694 0.41208 0.50207
 C177 C 0.47118 0.42592 0.50522
 C178 C 0.44221 0.46629 0.49642
 N179 N 0.43582 0.48302 0.48667
 C180 C 0.44858 0.48501 0.47133
 C181 C 0.48742 0.47230 0.44279
 N182 N 0.50398 0.46070 0.43662
 C183 C 0.50689 0.44512 0.44893
 H184 H 0.51061 0.40933 0.48008
 H185 H 0.46025 0.42582 0.51694
 H186 H 0.43500 0.46087 0.50931
 H187 H 0.44751 0.49693 0.46085
 H188 H 0.48123 0.48581 0.43594
 H189 H 0.51893 0.43336 0.44766
 C190 C -0.04023 -0.04087 0.95211
 C191 C -0.03571 -0.03084 0.93503
 C192 C -0.04694 -0.01341 0.93021
 C193 C -0.06268 -0.00577 0.94215
 C194 C -0.06720 -0.01557 0.95886
 C195 C -0.05593 -0.03326 0.96384
 C196 C -0.03201 -0.05807 0.96075
 N197 N -0.04244 -0.06099 0.97735
 C198 C -0.05705 -0.04588 0.97925
 C199 C -0.08304 -0.00458 0.96762
 N200 N -0.08814 0.01168 0.95651
 C201 C -0.07575 0.01098 0.94091
 C202 C -0.03943 -0.00669 0.91322
 N203 N -0.02390 -0.01951 0.90739
 C204 C -0.02141 -0.03441 0.92062
 H205 H -0.01951 -0.06764 0.95518
 H206 H -0.06776 -0.04417 0.99107
 H207 H -0.09008 -0.00826 0.98108
 H208 H -0.07614 0.02196 0.92950
 H209 H -0.04486 0.00666 0.90558
 H210 H -0.01008 -0.04681 0.91996
 C211 C 1.04025 0.58164 0.94036
 C212 C 1.03318 0.57126 0.92477
 C213 C 1.04228 0.55292 0.92053
 C214 C 1.05865 0.54473 0.93181
 C215 C 1.06575 0.55492 0.94727
 C216 C 1.05636 0.57360 0.95164
 C217 C 1.03390 0.59959 0.94775
 N218 N 1.04556 0.60280 0.96336
 C219 C 1.05944 0.58697 0.96591
 C220 C 1.08172 0.54318 0.95548
 N221 N 1.08431 0.52622 0.94529
 C222 C 1.07022 0.52712 0.93088
 C223 C 1.03210 0.54613 0.90488
 N224 N 1.01696 0.55999 0.89957
 C225 C 1.01756 0.57540 0.91166
 H226 H 1.02145 0.60956 0.94226
 H227 H 1.07087 0.58514 0.97719
 H228 H 1.09059 0.54684 0.96790
 H229 H 1.06852 0.51573 0.92039
 H230 H 1.03549 0.53208 0.89809
 H231 H 1.00722 0.58860 0.91103
 C232 C 0.51292 0.05221 0.47755
 C233 C 0.50727 0.04150 0.46163
 C234 C 0.51894 0.02461 0.45673
 C235 C 0.53642 0.01819 0.46765
 C236 C 0.54205 0.02872 0.48334
 C237 C 0.53018 0.04589 0.48836
 C238 C 0.50456 0.06926 0.48550
 N239 N 0.51624 0.07348 0.50086
 C240 C 0.53199 0.05926 0.50275
 C241 C 0.55974 0.01913 0.49099
 N242 N 0.56496 0.00307 0.48032
 C243 C 0.55069 0.00242 0.46598
 C244 C 0.51009 0.01740 0.44063
 N245 N 0.49329 0.02955 0.43564
 C246 C 0.49148 0.04432 0.44842
 H247 H 0.49098 0.07805 0.48043
 H248 H 0.54401 0.05862 0.51360
 H249 H 0.56827 0.02356 0.50339
 H250 H 0.55051 -0.00850 0.45498
 H251 H 0.51570 0.00437 0.43315
 H252 H 0.47958 0.05631 0.44803
 C253 C -0.04295 0.03735 0.52486
 C254 C -0.03878 0.02581 0.54127
 C255 C -0.05021 0.00874 0.54492
 C256 C -0.06598 0.00300 0.53236
 C257 C -0.07005 0.01440 0.51630
 C258 C -0.05852 0.03160 0.51255
 C259 C -0.03438 0.05455 0.51735
 N260 N -0.04450 0.05919 0.50085
 C261 C -0.05925 0.04524 0.49789
 C262 C -0.08595 0.00543 0.50665
 N263 N -0.09172 -0.01114 0.51644
 C264 C -0.07957 -0.01281 0.53224
 C265 C -0.04271 0.00039 0.56152
 N266 N -0.02711 0.01192 0.56813
 C267 C -0.02454 0.02752 0.55583
 H268 H -0.02180 0.06295 0.52349
 H269 H -0.06973 0.04502 0.48584
 H270 H -0.09287 0.01058 0.49342
 H271 H -0.08039 -0.02458 0.54285
 H272 H -0.04815 -0.01318 0.56831
 H273 H -0.01303 0.03912 0.55712
 C274 C 0.46447 0.55467 0.03704
 C275 C 0.46760 0.54585 0.05488
 C276 C 0.45956 0.52720 0.05912
 C277 C 0.44801 0.51719 0.04538
 C278 C 0.44512 0.52599 0.02773
 C279 C 0.45335 0.54478 0.02356
 C280 C 0.47028 0.57271 0.02921
 N281 N 0.46282 0.57396 0.01123
 C282 C 0.45247 0.55690 0.00772
 C283 C 0.43335 0.51339 0.01725
 N284 N 0.42869 0.49717 0.02802
 C285 C 0.43761 0.49924 0.04530
 C286 C 0.46528 0.52256 0.07750
 N287 N 0.47649 0.53798 0.08429
 C288 C 0.47781 0.55225 0.07059
 H289 H 0.47910 0.58397 0.03630
 H290 H 0.44470 0.55360 -0.00541
 H291 H 0.42815 0.51598 0.00287
 H292 H 0.43661 0.48861 0.05692
 H293 H 0.46146 0.50906 0.08528
 H294 H 0.48585 0.56626 0.07193
 C295 C 0.53415 -0.04375 0.03730
 C296 C 0.52775 -0.03494 0.05415
 C297 C 0.53784 -0.01826 0.06062
 C298 C 0.55453 -0.01010 0.05009
 C299 C 0.56080 -0.01893 0.03345
 C300 C 0.55060 -0.03582 0.02705
 C301 C 0.52749 -0.06028 0.02796
 N302 N 0.53958 -0.06251 0.01225
 C303 C 0.55375 -0.04761 0.01161
 C304 C 0.57739 -0.00834 0.02631
 N305 N 0.58140 0.00681 0.03804
 C306 C 0.56754 0.00591 0.05271
 C307 C 0.52839 -0.01330 0.07748
 N308 N 0.51289 -0.02659 0.08123
 C309 C 0.51240 -0.03977 0.06701
 H310 H 0.51501 -0.07002 0.03254
 H311 H 0.56563 -0.04564 0.00077
 H312 H 0.58601 -0.01144 0.01346
 H313 H 0.56702 0.01590 0.06449
 H314 H 0.53249 -0.00092 0.08623
 H315 H 0.50169 -0.05210 0.06618
 C316 C 1.03974 0.42725 0.53164
 C317 C 1.03264 0.43988 0.54589
 C318 C 1.04332 0.45711 0.54965
 C319 C 1.06132 0.46194 0.53903
 C320 C 1.06834 0.44943 0.52488
 C321 C 1.05746 0.43190 0.52115
 C322 C 1.03232 0.40957 0.52518
 N323 N 1.04502 0.40328 0.51098
 C324 C 1.06051 0.41683 0.50834
 C325 C 1.08601 0.45787 0.51700
 N326 N 1.08990 0.47515 0.52596
 C327 C 1.07482 0.47774 0.53950
 C328 C 1.03279 0.46635 0.56427
 N329 N 1.01602 0.45502 0.56931
 C330 C 1.01583 0.43888 0.55810
 H331 H 1.01861 0.40179 0.53042
 H332 H 1.07309 0.41588 0.49802
 H333 H 1.09537 0.45186 0.50553
 H334 H 1.07351 0.49007 0.54908
 H335 H 1.03700 0.48029 0.57056
 H336 H 1.00427 0.42721 0.55884
 C337 C 0.41680 -0.00139 0.23557
 H338 H 0.41561 0.01055 0.24560
 C339 C 0.43171 -0.00054 0.22107
 H340 H 0.44199 0.01215 0.21997
 C341 C 0.40477 -0.03243 0.22485
 H342 H 0.39446 -0.04497 0.22652
 C343 C 0.41946 -0.03219 0.21014
 H344 H 0.42031 -0.04479 0.20084
 N345 N 0.40338 -0.01693 0.23693
 C346 C 0.34650 0.00692 0.26421
 H347 H 0.34506 -0.00364 0.27584
 C348 C 0.33117 0.02217 0.26155
 H349 H 0.31795 0.02335 0.27124
 C350 C 0.36534 0.01801 0.23729
 H351 H 0.37853 0.01624 0.22773
 C352 C 0.35039 0.03347 0.23410
 H353 H 0.35281 0.04369 0.22238
 Zn354 Zn 0.38282 -0.01637 0.25635
 N355 N 0.36324 0.00520 0.25223
 C356 C 0.39292 0.00263 0.29039
 N357 N 0.39727 -0.01339 0.27943
 C358 C 0.41268 -0.02713 0.28425
 C359 C 0.42415 -0.02526 0.30089
 C360 C 0.40398 0.00512 0.30715
 C361 C 0.35416 -0.04303 0.24165
 C362 C 0.34079 -0.05931 0.24154
 C363 C 0.35377 -0.06903 0.27245
 C364 C 0.36689 -0.05252 0.27193
 N365 N 0.36688 -0.03995 0.25668
 H366 H 0.38101 0.01370 0.28609
 H367 H 0.41607 -0.03956 0.27511
 H368 H 0.43632 -0.03646 0.30443
 H369 H 0.39992 0.01812 0.31528
 H370 H 0.35419 -0.03259 0.22983
 H371 H 0.33069 -0.06131 0.22943
 H372 H 0.35423 -0.07840 0.28497
 H373 H 0.37673 -0.04956 0.28394
 C374 C 0.33288 0.03557 0.24625
 C375 C 0.43287 -0.01583 0.20787
 C376 C 0.34025 -0.07259 0.25711
 C377 C 0.41994 -0.00899 0.31270
 C378 C 0.08081 -0.01279 0.71198
 H379 H 0.07954 -0.02671 0.71985
 C380 C 0.06741 -0.00869 0.69664
 H381 H 0.05577 -0.01957 0.69319
 C382 C 0.09732 0.01835 0.70763
 H383 H 0.10884 0.02895 0.71203
 C384 C 0.08429 0.02304 0.69219
 H385 H 0.08607 0.03721 0.68478
 N386 N 0.09566 0.00049 0.71694
 C387 C 0.14670 -0.03521 0.74355
 H388 H 0.14796 -0.02779 0.75687
 C389 C 0.16016 -0.05153 0.73958
 H390 H 0.17138 -0.05660 0.75024
 C391 C 0.12993 -0.03758 0.71391
 H392 H 0.11830 -0.03201 0.70383
 C393 C 0.14310 -0.05391 0.70934
 H394 H 0.14131 -0.06084 0.69581
 Zn395 Zn 0.11387 -0.00666 0.73739
 N396 N 0.13175 -0.02875 0.73089
 C397 C 0.09897 -0.03127 0.76761
 N398 N 0.09667 -0.01333 0.75840
 C399 C 0.08187 0.00050 0.76388
 C400 C 0.06922 -0.00308 0.77966
 C401 C 0.08669 -0.03550 0.78349
 C402 C 0.14616 0.02045 0.73029
 C403 C 0.15953 0.03627 0.73374
 C404 C 0.14291 0.04022 0.76410
 C405 C 0.12990 0.02426 0.76006
 N406 N 0.13150 0.01494 0.74326
 H407 H 0.11042 -0.04232 0.76280
 H408 H 0.08014 0.01453 0.75612
 H409 H 0.05799 0.00858 0.78354
 H410 H 0.08907 -0.04979 0.79075
 H411 H 0.14737 0.01258 0.71716
 H412 H 0.17096 0.04044 0.72307
 H413 H 0.14100 0.04715 0.77761
 H414 H 0.11856 0.01936 0.77043
 C415 C 0.15848 -0.06112 0.72221
 C416 C 0.06932 0.00934 0.68629
 C417 C 0.15799 0.04659 0.75077
 C418 C 0.07168 -0.02128 0.78995
 C419 C 0.57728 0.50291 0.23565
 H420 H 0.57880 0.49066 0.24577
 C421 C 0.56237 0.50218 0.22119
 H422 H 0.55241 0.48929 0.22027
 C423 C 0.58871 0.53444 0.22445
 H424 H 0.59906 0.54694 0.22575
 C425 C 0.57397 0.53434 0.20976
 H426 H 0.57361 0.54673 0.19977
 N427 N 0.59032 0.51871 0.23684
 C428 C 0.64743 0.49365 0.26391
 H429 H 0.64872 0.50315 0.27598
 C430 C 0.66276 0.47855 0.26083
 H431 H 0.67584 0.47675 0.27058
 C432 C 0.62919 0.48531 0.23615
 H433 H 0.61637 0.48819 0.22633
 C434 C 0.64416 0.47015 0.23249
 H435 H 0.64249 0.46133 0.21998
 Zn436 Zn 0.61086 0.51757 0.25631
 N437 N 0.63090 0.49654 0.25178
 C438 C 0.60091 0.49647 0.29018
 N439 N 0.59624 0.51292 0.27926
 C440 C 0.58036 0.52601 0.28401
 C441 C 0.56877 0.52305 0.30054
 C442 C 0.58975 0.49291 0.30683
 C443 C 0.63907 0.54604 0.24248
 C444 C 0.65188 0.56277 0.24291
 C445 C 0.63777 0.57010 0.27369
 C446 C 0.62534 0.55320 0.27267
 N447 N 0.62614 0.54158 0.25720
 H448 H 0.61318 0.48592 0.28593
 H449 H 0.57669 0.53879 0.27490
 H450 H 0.55625 0.53378 0.30402
 H451 H 0.59411 0.47962 0.31493
 H452 H 0.63965 0.53637 0.23045
 H453 H 0.66190 0.56562 0.23090
 H454 H 0.63691 0.57901 0.28625
 H455 H 0.61537 0.54921 0.28443
 C456 C 0.66109 0.46646 0.24497
 C457 C 0.56059 0.51796 0.20796
 C458 C 0.65150 0.57508 0.25881
 C459 C 0.57335 0.50636 0.31233
 C460 C 0.91488 0.51826 0.71095
 H461 H 0.91488 0.53173 0.71913
 C462 C 0.92922 0.51588 0.69616
 H463 H 0.94021 0.52764 0.69294
 C464 C 0.90074 0.48643 0.70546
 H465 H 0.88994 0.47481 0.70941
 C466 C 0.91483 0.48341 0.69055
 H467 H 0.91466 0.46933 0.68336
 N468 N 0.90083 0.50377 0.71513
 C469 C 0.84895 0.53532 0.74340
 H470 H 0.84819 0.52676 0.75645
 C471 C 0.83458 0.55125 0.74000
 H472 H 0.82273 0.55455 0.75055
 C473 C 0.86487 0.54042 0.71355
 H474 H 0.87640 0.53595 0.70311
 C475 C 0.85084 0.55645 0.70958
 H476 H 0.85191 0.56431 0.69616
 Zn477 Zn 0.88245 0.50833 0.73569
 N478 N 0.86387 0.53039 0.73035
 C479 C 0.89805 0.53068 0.76622
 N480 N 0.89985 0.51337 0.75657
 C481 C 0.91499 0.49924 0.76101
 C482 C 0.92883 0.50201 0.77596
 C483 C 0.91158 0.53412 0.78130
 C484 C 0.85157 0.48045 0.72738
 C485 C 0.83833 0.46436 0.73065
 C486 C 0.85388 0.45983 0.76154
 C487 C 0.86683 0.47601 0.75764
 N488 N 0.86560 0.48584 0.74074
 H489 H 0.88623 0.54195 0.76216
 H490 H 0.91628 0.48575 0.75288
 H491 H 0.94070 0.49044 0.77924
 H492 H 0.90951 0.54807 0.78853
 H493 H 0.85065 0.48875 0.71417
 H494 H 0.82732 0.46035 0.71974
 H495 H 0.85547 0.45258 0.77518
 H496 H 0.87766 0.48083 0.76828
 C497 C 0.83558 0.56219 0.72292
 C498 C 0.92917 0.49840 0.68560
 C499 C 0.83928 0.45371 0.74791
 C500 C 0.92731 0.51961 0.78642
 C501 C 0.22595 0.40390 0.00415
 H502 H 0.23493 0.40175 0.01704
 C503 C 0.21232 0.42058 0.00188
 H504 H 0.21078 0.43121 0.01313
 C505 C 0.21730 0.39273 -0.02624
 H506 H 0.21961 0.38204 -0.03730
 C507 C 0.20351 0.40921 -0.02912
 H508 H 0.19558 0.41093 -0.04255
 N509 N 0.22793 0.39022 -0.00968
 C510 C 0.24843 0.33481 0.01856
 H511 H 0.26205 0.33097 0.00996
 C512 C 0.24264 0.32215 0.03340
 H513 H 0.25182 0.30844 0.03575
 C514 C 0.21955 0.35703 0.02501
 H515 H 0.21042 0.37050 0.02154
 C516 C 0.21323 0.34483 0.04007
 H517 H 0.19936 0.34914 0.04819
 Zn518 Zn 0.24678 0.36809 -0.00538
 N519 N 0.23712 0.35202 0.01486
 C520 C 0.28215 0.37496 0.01802
 N521 N 0.27358 0.37844 0.00067
 C522 C 0.28305 0.39069 -0.01208
 C523 C 0.30199 0.39992 -0.00766
 C524 C 0.30097 0.38397 0.02310
 C525 C 0.23049 0.34197 -0.03155
 C526 C 0.23069 0.32863 -0.04641
 C527 C 0.26788 0.33494 -0.05109
 C528 C 0.26692 0.34816 -0.03608
 N529 N 0.24839 0.35150 -0.02673
 H530 H 0.27414 0.36563 0.02818
 H531 H 0.27563 0.39358 -0.02562
 H532 H 0.30863 0.40977 -0.01817
 H533 H 0.30728 0.38115 0.03711
 H534 H 0.21603 0.34461 -0.02366
 H535 H 0.21618 0.32121 -0.04989
 H536 H 0.28300 0.33270 -0.05794
 H537 H 0.28113 0.35547 -0.03174
 C538 C 0.22503 0.32732 0.04464
 C539 C 0.20064 0.42327 -0.01480
 C540 C 0.24954 0.32482 -0.05647
 C541 C 0.31121 0.39676 0.01029
 C542 C 0.71578 0.13319 0.01165
 H543 H 0.72410 0.13258 -0.00165
 C544 C 0.69826 0.12128 0.01480
 H545 H 0.69297 0.11200 0.00354
 C546 C 0.71276 0.14636 0.04226
 H547 H 0.71872 0.15582 0.05308
 C548 C 0.69516 0.13466 0.04602
 H549 H 0.68760 0.13537 0.05969
 N550 N 0.72269 0.14540 0.02529
 C551 C 0.76069 0.18945 -0.00468
 H552 H 0.77519 0.18819 0.00344
 C553 C 0.75922 0.20282 -0.01999
 H554 H 0.77271 0.21182 -0.02363
 C555 C 0.72551 0.17922 -0.00976
 H556 H 0.71228 0.17024 -0.00555
 C557 C 0.72337 0.19238 -0.02520
 H558 H 0.70834 0.19338 -0.03251
 Zn559 Zn 0.74789 0.15929 0.02033
 N560 N 0.74413 0.17769 -0.00011
 C561 C 0.77942 0.14017 -0.00224
 N562 N 0.76900 0.13968 0.01450
 C563 C 0.77257 0.12453 0.02721
 C564 C 0.78747 0.10929 0.02350
 C565 C 0.79446 0.12524 -0.00657
 C566 C 0.74280 0.18893 0.04732
 C567 C 0.74775 0.19997 0.06313
 C568 C 0.78009 0.18002 0.06659
 C569 C 0.77450 0.16941 0.05072
 N570 N 0.75595 0.17379 0.04162
 H571 H 0.77596 0.15202 -0.01240
 H572 H 0.76377 0.12429 0.04028
 H573 H 0.79005 0.09743 0.03392
 H574 H 0.80225 0.12636 -0.02004
 H575 H 0.72829 0.19229 0.03963
 H576 H 0.73664 0.21166 0.06718
 H577 H 0.79487 0.17608 0.07369
 H578 H 0.78502 0.15766 0.04573
 C579 C 0.74056 0.20412 -0.03071
 C580 C 0.68796 0.12163 0.03235
 C581 C 0.76664 0.19547 0.07318
 C582 C 0.79875 0.10941 0.00643
 C583 C 0.22811 0.59866 0.49873
 H584 H 0.23737 0.59812 0.48593
 C585 C 0.21175 0.58525 0.50163
 H586 H 0.20844 0.57476 0.49072
 C587 C 0.22122 0.61345 0.52820
 H588 H 0.22511 0.62425 0.53865
 C589 C 0.20475 0.60036 0.53167
 H590 H 0.19598 0.60138 0.54474
 N591 N 0.23237 0.61253 0.51184
 C592 C 0.26298 0.66135 0.48194
 H593 H 0.27691 0.66268 0.49066
 C594 C 0.25961 0.67444 0.46666
 H595 H 0.27110 0.68582 0.46363
 C596 C 0.23096 0.64504 0.47554
 H597 H 0.21962 0.63383 0.47929
 C598 C 0.22696 0.65783 0.46009
 H599 H 0.21244 0.65623 0.45226
 Zn600 Zn 0.25491 0.63009 0.50714
 N601 N 0.24890 0.64683 0.48593
 C602 C 0.29049 0.61594 0.48631
 N603 N 0.27976 0.61419 0.50283
 C604 C 0.28586 0.60036 0.51615
 C605 C 0.30356 0.58773 0.51324
 C606 C 0.30828 0.60370 0.48282
 C607 C 0.24247 0.66061 0.53125
 C608 C 0.24398 0.67388 0.54606
 C609 C 0.27860 0.65944 0.55340
 C610 C 0.27639 0.64645 0.53839
 N611 N 0.25843 0.64710 0.52782
 H612 H 0.28515 0.62665 0.47566
 H613 H 0.27683 0.59905 0.52905
 H614 H 0.30776 0.57703 0.52427
 H615 H 0.31649 0.60541 0.46951
 H616 H 0.22847 0.66101 0.52243
 H617 H 0.23094 0.68440 0.54852
 H618 H 0.29316 0.65830 0.56135
 H619 H 0.28911 0.63592 0.53518
 C620 C 0.24156 0.67266 0.45537
 C621 C 0.19984 0.58599 0.51836
 C622 C 0.26216 0.67345 0.55751
 C623 C 0.31510 0.58924 0.49627
 C624 C 0.70796 0.87512 0.49672
 H625 H 0.71695 0.87407 0.50968
 C626 C 0.69121 0.88912 0.49484
 H627 H 0.68736 0.89845 0.50667
 C628 C 0.70216 0.86369 0.46587
 H629 H 0.70663 0.85395 0.45451
 C630 C 0.68532 0.87748 0.46338
 H631 H 0.67683 0.87807 0.45012
 N632 N 0.71295 0.86261 0.48243
 C633 C 0.74499 0.81147 0.51028
 H634 H 0.75961 0.81063 0.50233
 C635 C 0.74177 0.79817 0.52534
 H636 H 0.75404 0.78711 0.52897
 C637 C 0.71129 0.82701 0.51524
 H638 H 0.69930 0.83806 0.51109
 C639 C 0.70739 0.81399 0.53036
 H640 H 0.69226 0.81521 0.53746
 Zn641 Zn 0.73612 0.84433 0.48618
 N642 N 0.73009 0.82588 0.50587
 C643 C 0.77020 0.85665 0.50914
 N644 N 0.75983 0.85964 0.49252
 C645 C 0.76541 0.87445 0.48028
 C646 C 0.78231 0.88672 0.48434
 C647 C 0.78719 0.86855 0.51379
 C648 C 0.72642 0.81706 0.45825
 C649 C 0.72950 0.80595 0.44199
 C650 C 0.76401 0.82036 0.43838
 C651 C 0.76025 0.83116 0.45473
 N652 N 0.74156 0.82959 0.46412
 H653 H 0.76520 0.84520 0.51896
 H654 H 0.75661 0.87675 0.46732
 H655 H 0.78607 0.89822 0.47411
 H656 H 0.79518 0.86584 0.52713
 H657 H 0.71184 0.81583 0.46616
 H658 H 0.71706 0.79624 0.43752
 H659 H 0.77908 0.82219 0.43146
 H660 H 0.77235 0.84075 0.45989
 C661 C 0.72301 0.79965 0.53589
 C662 C 0.67967 0.89048 0.47792
 C663 C 0.74839 0.80760 0.43162
 C664 C 0.79357 0.88388 0.50139
 C665 C 0.02782 0.20648 0.40882
 H666 H 0.04298 0.21363 0.40786
 C667 C 0.02494 0.19087 0.42183
 H668 H 0.03804 0.18595 0.43079
 C669 C -0.00781 0.20461 0.39860
 H670 H -0.02068 0.21033 0.38984
 C671 C -0.01139 0.18895 0.41142
 H672 H -0.02714 0.18302 0.41232
 N673 N 0.01161 0.21289 0.39741
 C674 C 0.04139 0.24214 0.34915
 H675 H 0.03340 0.25666 0.34939
 C676 C 0.05623 0.23790 0.33509
 H677 H 0.05969 0.24952 0.32487
 C678 C 0.04651 0.20969 0.36263
 H679 H 0.04251 0.19864 0.37323
 C680 C 0.06143 0.20480 0.34883
 H681 H 0.06891 0.19002 0.34907
 Zn682 Zn 0.01649 0.23497 0.38104
 N683 N 0.03701 0.22818 0.36266
 C684 C 0.04412 0.26572 0.39245
 N685 N 0.02592 0.25592 0.39612
 C686 C 0.01362 0.26056 0.41118
 C687 C 0.01907 0.27598 0.42300
 C688 C 0.05016 0.28135 0.40387
 C689 C -0.01705 0.23063 0.35558
 C690 C -0.03515 0.23637 0.34525
 C691 C -0.03576 0.26796 0.36118
 C692 C -0.01763 0.26163 0.37110
 N693 N -0.00874 0.24319 0.36826
 H694 H 0.05394 0.26154 0.38064
 H695 H -0.00066 0.25235 0.41386
 H696 H 0.00846 0.27923 0.43451
 H697 H 0.06460 0.28911 0.40053
 H698 H -0.00950 0.21613 0.35343
 H699 H -0.04118 0.22583 0.33542
 H700 H -0.04249 0.28275 0.36372
 H701 H -0.01058 0.27162 0.38091
 C702 C 0.06643 0.21893 0.33479
 C703 C 0.00521 0.18178 0.42316
 C704 C -0.04480 0.25540 0.34792
 C705 C 0.03759 0.28682 0.41939
 C706 C 0.00951 0.73724 0.07226
 H707 H -0.00516 0.74565 0.06978
 C708 C 0.01517 0.72138 0.06064
 H709 H 0.00440 0.71755 0.04954
 C710 C 0.04082 0.73190 0.09028
 H711 H 0.05090 0.73617 0.10171
 C712 C 0.04710 0.71592 0.07901
 H713 H 0.06193 0.70791 0.08197
 N714 N 0.02218 0.74206 0.08685
 C715 C -0.01985 0.77131 0.12733
 H716 H -0.01194 0.78531 0.12900
 C717 C -0.03794 0.76723 0.13795
 H718 H -0.04397 0.77849 0.14740
 C719 C -0.02148 0.73991 0.11263
 H720 H -0.01485 0.72911 0.10302
 C721 C -0.03961 0.73522 0.12295
 H722 H -0.04685 0.72091 0.12101
 Zn723 Zn 0.01328 0.76390 0.10177
 N724 N -0.01205 0.75776 0.11490
 C725 C -0.01009 0.79642 0.08461
 N726 N 0.00893 0.78635 0.08535
 C727 C 0.02503 0.79134 0.07360
 C728 C 0.02244 0.80719 0.06062
 C729 C -0.01336 0.81245 0.07194
 C730 C 0.03736 0.75477 0.13373
 C731 C 0.05248 0.75727 0.14776
 C732 C 0.06061 0.78927 0.13355
 C733 C 0.04527 0.78614 0.11981
 N734 N 0.03420 0.76898 0.12003
 H735 H -0.02291 0.79190 0.09369
 H736 H 0.03989 0.78287 0.07422
 H737 H 0.03555 0.81082 0.05141
 H738 H -0.02882 0.81976 0.07180
 H739 H 0.02815 0.74136 0.13367
 H740 H 0.05444 0.74539 0.15814
 H741 H 0.06933 0.80301 0.13301
 H742 H 0.04227 0.79743 0.10899
 C743 C -0.04795 0.74884 0.13595
 C744 C 0.03431 0.71055 0.06389
 C745 C 0.06452 0.77475 0.14783
 C746 C 0.00309 0.81813 0.05963
 C747 C 0.49312 0.21222 0.61177
 H748 H 0.47872 0.22138 0.61104
 C749 C 0.49558 0.19564 0.60022
 H750 H 0.48270 0.19210 0.59096
 C751 C 0.52706 0.20580 0.62519
 H752 H 0.53943 0.20993 0.63475
 C753 C 0.53019 0.18912 0.61392
 H754 H 0.54492 0.18046 0.61504
 N755 N 0.50868 0.21687 0.62405
 C756 C 0.47791 0.25143 0.66820
 H757 H 0.48800 0.26427 0.66803
 C758 C 0.46157 0.25011 0.68135
 H759 H 0.45909 0.26208 0.69124
 C760 C 0.46927 0.22009 0.65572
 H761 H 0.47264 0.20823 0.64598
 C762 C 0.45272 0.21814 0.66867
 H763 H 0.44369 0.20465 0.66863
 Zn764 Zn 0.50452 0.23978 0.63901
 N765 N 0.48131 0.23667 0.65559
 C766 C 0.48117 0.27322 0.62394
 N767 N 0.49951 0.26217 0.62267
 C768 C 0.51431 0.26651 0.60940
 C769 C 0.51124 0.28287 0.59705
 C770 C 0.47743 0.28970 0.61194
 C771 C 0.53256 0.22946 0.66801
 C772 C 0.54916 0.23170 0.68069
 C773 C 0.55722 0.26303 0.66512
 C774 C 0.54038 0.26017 0.65276
 N775 N 0.52853 0.24355 0.65436
 H776 H 0.46930 0.26928 0.63422
 H777 H 0.52861 0.25726 0.60848
 H778 H 0.52354 0.28580 0.58689
 H779 H 0.46273 0.29831 0.61337
 H780 H 0.52265 0.21654 0.66917
 H781 H 0.55192 0.22027 0.69150
 H782 H 0.56600 0.27656 0.66341
 H783 H 0.53661 0.27145 0.64212
 C784 C 0.44861 0.23341 0.68165
 C785 C 0.51443 0.18389 0.60115
 C786 C 0.56179 0.24867 0.67949
 C787 C 0.49254 0.29488 0.59827
 C788 C 0.51125 0.73326 0.92675
 H789 H 0.52447 0.74319 0.92750
 C790 C 0.50970 0.71734 0.93961
 H791 H 0.52187 0.71499 0.95024
 C792 C 0.47912 0.72449 0.91215
 H793 H 0.46700 0.72759 0.90168
 C794 C 0.47698 0.70835 0.92470
 H795 H 0.46305 0.69935 0.92373
 N796 N 0.49622 0.73638 0.91322
 C797 C 0.52709 0.76861 0.86751
 H798 H 0.51666 0.78169 0.86623
 C799 C 0.54404 0.76612 0.85506
 H800 H 0.54669 0.77767 0.84453
 C801 C 0.53617 0.73793 0.88312
 H802 H 0.53284 0.72680 0.89385
 C803 C 0.55330 0.73485 0.87098
 H804 H 0.56315 0.72139 0.87261
 Zn805 Zn 0.49939 0.75852 0.89666
 N806 N 0.52352 0.75465 0.88122
 C807 C 0.51935 0.79311 0.90998
 N808 N 0.50218 0.78135 0.91158
 C809 C 0.48678 0.78510 0.92451
 C810 C 0.48808 0.80150 0.93625
 C811 C 0.52130 0.80971 0.92140
 C812 C 0.47259 0.74721 0.86773
 C813 C 0.45598 0.74908 0.85478
 C814 C 0.44609 0.78086 0.86831
 C815 C 0.46292 0.77837 0.88095
 N816 N 0.47569 0.76168 0.88051
 H817 H 0.53169 0.78958 0.89995
 H818 H 0.47346 0.77529 0.92569
 H819 H 0.47554 0.80418 0.94640
 H820 H 0.53526 0.81852 0.91961
 H821 H 0.48320 0.73422 0.86752
 H822 H 0.45422 0.73716 0.84494
 H823 H 0.43620 0.79435 0.86892
 H824 H 0.46590 0.78993 0.89092
 C825 C 0.55726 0.74888 0.85659
 C826 C 0.49257 0.70449 0.93853
 C827 C 0.44241 0.76621 0.85486
 C828 C 0.50544 0.81419 0.93482
 C829 C 0.15247 0.21149 0.23451
 C830 C 0.14857 0.20063 0.25107
 C831 C 0.13218 0.20686 0.26464
 N832 N 0.12937 0.19586 0.28064
 N833 N 0.11466 0.20129 0.29313
 C834 C 0.10220 0.21793 0.29009
 N835 N 0.10500 0.22893 0.27408
 N836 N 0.11972 0.22350 0.26158
 C837 C 0.08592 0.22415 0.30378
 C838 C 0.08253 0.21334 0.32048
 H839 H 0.15778 0.18717 0.25442
 H840 H 0.07635 0.23736 0.30032
 H841 H 0.14310 0.22499 0.23146
 H842 H 0.09186 0.19971 0.32306
 C843 C 0.64197 0.73955 0.75593
 C844 C 0.64132 0.73191 0.77432
 C845 C 0.62477 0.73810 0.78774
 N846 N 0.62464 0.72989 0.80534
 N847 N 0.60948 0.73498 0.81754
 C848 C 0.59389 0.74848 0.81259
 N849 N 0.59407 0.75676 0.79501
 N850 N 0.60923 0.75167 0.78281
 C851 C 0.57671 0.75386 0.82570
 C852 C 0.57516 0.74496 0.84356
 H853 H 0.65302 0.72085 0.77912
 H854 H 0.56459 0.76441 0.82069
 H855 H 0.63034 0.75091 0.75151
 H856 H 0.58695 0.73366 0.84779
 C857 C 0.35134 0.76485 0.75942
 C858 C 0.35524 0.77642 0.77510
 C859 C 0.37204 0.77104 0.78877
 N860 N 0.37572 0.78328 0.80334
 N861 N 0.39103 0.77877 0.81573
 C862 C 0.40323 0.76184 0.81403
 N863 N 0.39949 0.74957 0.79950
 N864 N 0.38419 0.75408 0.78709
 C865 C 0.42045 0.75680 0.82741
 C866 C 0.42562 0.76954 0.84202
 H867 H 0.34604 0.79000 0.77745
 H868 H 0.42923 0.74299 0.82515
 H869 H 0.36094 0.75141 0.75721
 H870 H 0.41616 0.78323 0.84334
 C871 C -0.15024 0.27826 0.26662
 C872 C -0.14258 0.28675 0.28302
 C873 C -0.12467 0.27759 0.29367
 N874 N -0.11664 0.28713 0.30864
 N875 N -0.10024 0.27917 0.31825
 C876 C -0.09127 0.26133 0.31327
 N877 N -0.09938 0.25174 0.29837
 N878 N -0.11575 0.25972 0.28873
 C879 C -0.07293 0.25243 0.32354
 C880 C -0.06282 0.26256 0.33791
 H881 H -0.14939 0.30062 0.28812
 H882 H -0.06724 0.23792 0.31907
 H883 H -0.14271 0.26450 0.26183
 H884 H -0.06914 0.27730 0.34132
 C885 C -0.14795 0.73745 0.22485
 C886 C -0.14325 0.72855 0.20765
 C887 C -0.12503 0.73485 0.19613
 N888 N -0.12064 0.72582 0.17959
 N889 N -0.10412 0.73135 0.16917
 C890 C -0.09137 0.74611 0.17493
 N891 N -0.09580 0.75514 0.19145
 N892 N -0.11230 0.74963 0.20184
 C893 C -0.07290 0.75237 0.16381
 C894 C -0.06699 0.74333 0.14698
 H895 H -0.15285 0.71672 0.20241
 H896 H -0.06340 0.76402 0.16953
 H897 H -0.13788 0.74926 0.22953
 H898 H -0.07615 0.73097 0.14211
 C899 C 0.33470 0.20417 0.75142
 C900 C 0.35118 0.21773 0.75161
 C901 C 0.36772 0.21793 0.73699
 N902 N 0.38358 0.23118 0.73793
 N903 N 0.39867 0.23157 0.72481
 C904 C 0.39845 0.21872 0.71024
 N905 N 0.38259 0.20548 0.70930
 N906 N 0.36750 0.20508 0.72242
 C907 C 0.41500 0.21897 0.69562
 C908 C 0.43158 0.23237 0.69600
 H909 H 0.35227 0.22851 0.76266
 H910 H 0.41368 0.20856 0.68428
 H911 H 0.33426 0.19352 0.74013
 H912 H 0.43184 0.24313 0.70719
 C913 C 0.66683 0.28904 0.75178
 C914 C 0.65160 0.27423 0.75222
 C915 C 0.63638 0.27209 0.73674
 N916 N 0.62241 0.25701 0.73731
 N917 N 0.60838 0.25504 0.72350
 C918 C 0.60778 0.26810 0.70861
 N919 N 0.62174 0.28318 0.70805
 N920 N 0.63579 0.28513 0.72184
 C921 C 0.59211 0.26644 0.69341
 C922 C 0.57798 0.25068 0.69291
 H923 H 0.65062 0.26389 0.76404
 H924 H 0.59201 0.27804 0.68264
 H925 H 0.66758 0.29881 0.73945
 H926 H 0.57957 0.23915 0.70381
 C927 C 0.15322 0.76825 0.24521
 C928 C 0.14981 0.78074 0.22947
 C929 C 0.13307 0.77680 0.21567
 N930 N 0.12944 0.78966 0.20093
 N931 N 0.11430 0.78620 0.18841
 C932 C 0.10224 0.76972 0.19018
 N933 N 0.10592 0.75687 0.20489
 N934 N 0.12102 0.76035 0.21740
 C935 C 0.08548 0.76543 0.17655
 C936 C 0.08023 0.77831 0.16139
 H937 H 0.15932 0.79379 0.22725
 H938 H 0.07723 0.75169 0.17897
 H939 H 0.14313 0.75554 0.24735
 H940 H 0.08889 0.79206 0.16003
 C941 C 0.25113 0.13621 0.20017
 C942 C 0.25233 0.12497 0.21690
 C943 C 0.26777 0.10822 0.21930
 N944 N 0.26990 0.09864 0.23623
 N945 N 0.28415 0.08372 0.23861
 C946 C 0.29676 0.07781 0.22412
 N947 N 0.29455 0.08732 0.20719
 N948 N 0.28034 0.10225 0.20482
 C949 C 0.31283 0.06162 0.22644
 C950 C 0.31643 0.05161 0.24359
 H951 H 0.24232 0.12884 0.22871
 H952 H 0.32185 0.05750 0.21411
 H953 H 0.26181 0.13246 0.18875
 H954 H 0.30633 0.05522 0.25546
 C955 C 0.73959 0.66337 0.72442
 C956 C 0.75296 0.65415 0.71136
 C957 C 0.76735 0.63729 0.71668
 N958 N 0.77943 0.62822 0.70337
 N959 N 0.79249 0.61290 0.70797
 C960 C 0.79396 0.60609 0.72607
 N961 N 0.78190 0.61518 0.73938
 N962 N 0.76883 0.63049 0.73478
 C963 C 0.80827 0.58919 0.73141
 C964 C 0.82082 0.57918 0.71822
 H965 H 0.75278 0.65909 0.69680
 H966 H 0.80904 0.58493 0.74615
 H967 H 0.73967 0.65785 0.73886
 H968 H 0.82031 0.58443 0.70370
 C969 C 0.76424 0.35178 0.79178
 C970 C 0.76570 0.36379 0.77551
 C971 C 0.78116 0.37977 0.77350
 N972 N 0.78169 0.39088 0.75734
 N973 N 0.79548 0.40549 0.75523
 C974 C 0.80928 0.40954 0.76922
 N975 N 0.80877 0.39842 0.78538
 N976 N 0.79497 0.38380 0.78750
 C977 C 0.82451 0.42575 0.76717
 C978 C 0.82551 0.43770 0.75079
 H979 H 0.75528 0.36169 0.76371
 H980 H 0.83484 0.42804 0.77898
 H981 H 0.77504 0.35429 0.80330
 H982 H 0.81474 0.43440 0.73945
 C983 C 0.25759 -0.17425 0.28602
 C984 C 0.25977 -0.16072 0.27095
 C985 C 0.27656 -0.14580 0.27083
 N986 N 0.27825 -0.13258 0.25621
 N987 N 0.29324 -0.11889 0.25615
 C988 C 0.30709 -0.11793 0.27073
 N989 N 0.30542 -0.13117 0.28531
 N990 N 0.29047 -0.14484 0.28536
 C991 C 0.32345 -0.10265 0.27128
 C992 C 0.32591 -0.08839 0.25681
 H993 H 0.24905 -0.16077 0.25909
 H994 H 0.33334 -0.10281 0.28366
 H995 H 0.26876 -0.17367 0.29757
 H996 H 0.31577 -0.08944 0.24458
 C997 C 0.25514 -0.16158 0.72155
 C998 C 0.23878 -0.15472 0.70962
 C999 C 0.22622 -0.13642 0.71389
 N1000 N 0.20920 -0.13082 0.70315
 N1001 N 0.19769 -0.11440 0.70712
 C1002 C 0.20283 -0.10296 0.72196
 N1003 N 0.21989 -0.10852 0.73261
 N1004 N 0.23135 -0.12492 0.72867
 C1005 C 0.19027 -0.08492 0.72685
 C1006 C 0.17190 -0.07880 0.71714
 H1007 H 0.23475 -0.16287 0.69720
 H1008 H 0.19590 -0.07638 0.73848
 H1009 H 0.25826 -0.15314 0.73408
 H1010 H 0.16721 -0.08723 0.70504
 C1011 C 0.75731 0.36500 0.24626
 C1012 C 0.74412 0.37574 0.23369
 C1013 C 0.73097 0.39320 0.23906
 N1014 N 0.71843 0.40251 0.22591
 N1015 N 0.70585 0.41798 0.23044
 C1016 C 0.70530 0.42474 0.24832
 N1017 N 0.71794 0.41549 0.26149
 N1018 N 0.73054 0.39998 0.25695
 C1019 C 0.69098 0.44152 0.25352
 C1020 C 0.67674 0.45030 0.24054
 H1021 H 0.74312 0.37118 0.21923
 H1022 H 0.69118 0.44635 0.26794
 H1023 H 0.75913 0.37024 0.26048
 H1024 H 0.67632 0.44440 0.22647
 C1025 C 0.74948 0.66867 0.25073
 C1026 C 0.73276 0.66300 0.26241
 C1027 C 0.71888 0.64631 0.25820
 N1028 N 0.70342 0.64133 0.27058
 N1029 N 0.69083 0.62612 0.26725
 C1030 C 0.69320 0.61529 0.25139
 N1031 N 0.70862 0.62032 0.23896
 N1032 N 0.72124 0.63553 0.24229
 C1033 C 0.67963 0.59817 0.24772
 C1034 C 0.66437 0.59183 0.26072
 H1035 H 0.72966 0.67081 0.27531
 H1036 H 0.68237 0.59040 0.23474
 H1037 H 0.75229 0.66071 0.23779
 H1038 H 0.66267 0.60027 0.27353
 C1039 C 0.22974 0.15106 0.79092
 C1040 C 0.22950 0.13757 0.77610
 C1041 C 0.21414 0.12150 0.77463
 N1042 N 0.21494 0.10950 0.75947
 N1043 N 0.20143 0.09470 0.75776
 C1044 C 0.18657 0.09128 0.77118
 N1045 N 0.18575 0.10328 0.78639
 N1046 N 0.19928 0.11813 0.78809
 C1047 C 0.17160 0.07483 0.76945
 C1048 C 0.17160 0.06262 0.75363
 H1049 H 0.24096 0.13854 0.76485
 H1050 H 0.16051 0.07274 0.78084
 H1051 H 0.21773 0.14995 0.80178
 H1052 H 0.18291 0.06592 0.74257
 C1053 C 0.22013 0.23589 0.13774
 C1054 C 0.20732 0.25207 0.13164
 C1055 C 0.21363 0.26482 0.11559
 N1056 N 0.20003 0.27913 0.10849
 N1057 N 0.20568 0.29063 0.09389
 C1058 C 0.22516 0.28826 0.08592
 N1059 N 0.23876 0.27402 0.09309
 N1060 N 0.23310 0.26251 0.10762
 C1061 C 0.23184 0.30065 0.06981
 C1062 C 0.21839 0.31479 0.06091
 H1063 H 0.19228 0.25527 0.13841
 H1064 H 0.24804 0.29856 0.06512
 H1065 H 0.23465 0.23244 0.13017
 H1066 H 0.20256 0.31731 0.06650
 C1067 C 0.69109 0.75002 0.64983
 C1068 C 0.70424 0.74461 0.63487
 C1069 C 0.70437 0.75626 0.61708
 N1070 N 0.71762 0.75072 0.60294
 N1071 N 0.71824 0.76143 0.58694
 C1072 C 0.70560 0.77806 0.58451
 N1073 N 0.69230 0.78353 0.59861
 N1074 N 0.69168 0.77284 0.61459
 C1075 C 0.70648 0.79050 0.56724
 C1076 C 0.72043 0.78621 0.55251
 H1077 H 0.71495 0.73176 0.63615
 H1078 H 0.69653 0.80392 0.56673
 H1079 H 0.68029 0.76281 0.64811
 H1080 H 0.73100 0.77321 0.55383
 C1081 C 0.78976 0.75574 0.32277
 C1082 C 0.77324 0.75337 0.33564
 C1083 C 0.77206 0.76471 0.35318
 N1084 N 0.75524 0.76262 0.36491
 N1085 N 0.75392 0.77288 0.38077
 C1086 C 0.76940 0.78559 0.38551
 N1087 N 0.78624 0.78763 0.37380
 N1088 N 0.78755 0.77739 0.35794
 C1089 C 0.76820 0.79722 0.40288
 C1090 C 0.75075 0.79649 0.41505
 H1091 H 0.76065 0.74320 0.33282
 H1092 H 0.78138 0.80671 0.40559
 H1093 H 0.80197 0.76633 0.32571
 H1094 H 0.73793 0.78688 0.41126
 C1095 C 0.27937 0.24571 -0.15276
 C1096 C 0.26269 0.24842 -0.14006
 C1097 C 0.26369 0.26328 -0.12503
 N1098 N 0.24666 0.26673 -0.11373
 N1099 N 0.24740 0.28025 -0.10022
 C1100 C 0.26523 0.29082 -0.09748
 N1101 N 0.28225 0.28730 -0.10873
 N1102 N 0.28149 0.27382 -0.12225
 C1103 C 0.26652 0.30580 -0.08261
 C1104 C 0.24921 0.31093 -0.07116
 H1105 H 0.24844 0.23992 -0.14136
 H1106 H 0.28160 0.31285 -0.08107
 H1107 H 0.29318 0.25490 -0.15154
 H1108 H 0.23439 0.30363 -0.07383
 C1109 C 0.71408 0.26220 -0.14325
 C1110 C 0.72741 0.26506 -0.12791
 C1111 C 0.72662 0.25240 -0.11075
 N1112 N 0.74011 0.25560 -0.09632
 N1113 N 0.73974 0.24414 -0.08078
 C1114 C 0.72584 0.22904 -0.07909
 N1115 N 0.71231 0.22588 -0.09349
 N1116 N 0.71268 0.23734 -0.10903
 C1117 C 0.72543 0.21597 -0.06218
 C1118 C 0.73964 0.21790 -0.04730
 H1119 H 0.73889 0.27677 -0.12837
 H1120 H 0.71417 0.20406 -0.06197
 H1121 H 0.70263 0.25042 -0.14243
 H1122 H 0.75151 0.22928 -0.04837
 C1123 C 0.20643 0.73442 0.34621
 C1124 C 0.21940 0.73731 0.36177
 C1125 C 0.22027 0.72342 0.37806
 N1126 N 0.23323 0.72723 0.39270
 N1127 N 0.23457 0.71470 0.40747
 C1128 C 0.22299 0.69788 0.40816
 N1129 N 0.20996 0.69408 0.39354
 N1130 N 0.20862 0.70662 0.37874
 C1131 C 0.22463 0.68375 0.42428
 C1132 C 0.23849 0.68676 0.43921
 H1133 H 0.22940 0.75016 0.36219
 H1134 H 0.21523 0.67048 0.42389
 H1135 H 0.19594 0.72185 0.34627
 H1136 H 0.24837 0.69977 0.43867
 C1137 C 0.29489 0.74051 0.65970
 C1138 C 0.27922 0.74184 0.64585
 C1139 C 0.27941 0.72803 0.62993
 N1140 N 0.26324 0.72855 0.61732
 N1141 N 0.26323 0.71591 0.60303
 C1142 C 0.27942 0.70230 0.60083
 N1143 N 0.29560 0.70186 0.61339
 N1144 N 0.29560 0.71446 0.62766
 C1145 C 0.27972 0.68804 0.58530
 C1146 C 0.26301 0.68699 0.57243
 H1147 H 0.26634 0.75279 0.64683
 H1148 H 0.29344 0.67809 0.58452
 H1149 H 0.30727 0.72903 0.65864
 H1150 H 0.24960 0.69727 0.57423
 C1151 C 0.77561 0.27326 0.17275
 C1152 C 0.78669 0.25696 0.16519
 C1153 C 0.77999 0.24776 0.14760
 N1154 N 0.79162 0.23236 0.14038
 N1155 N 0.78570 0.22387 0.12449
 C1156 C 0.76793 0.23047 0.11523
 N1157 N 0.75630 0.24586 0.12246
 N1158 N 0.76223 0.25436 0.13834
 C1159 C 0.76099 0.22117 0.09775
 C1160 C 0.77262 0.20552 0.08950
 H1161 H 0.80076 0.25084 0.17210
 H1162 H 0.74639 0.22701 0.09163
 H1163 H 0.76185 0.27946 0.16534
 H1164 H 0.78732 0.20067 0.09629
 C1165 C 0.49245 0.39458 0.51328
 C1166 C 0.48019 0.38816 0.52847
 C1167 C 0.48586 0.37009 0.53975
 N1168 N 0.47293 0.36413 0.55392
 N1169 N 0.47779 0.34782 0.56427
 C1170 C 0.49579 0.33685 0.56085
 N1171 N 0.50875 0.34284 0.54669
 N1172 N 0.50387 0.35915 0.53632
 C1173 C 0.50145 0.31882 0.57222
 C1174 C 0.48822 0.31177 0.58658
 H1175 H 0.46583 0.39635 0.53220
 H1176 H 0.51628 0.31124 0.56892
 H1177 H 0.50651 0.38588 0.50948
 H1178 H 0.47344 0.32002 0.58891
 C1179 C -0.03968 0.92392 -0.00966
 C1180 C -0.02413 0.90869 -0.01100
 C1181 C -0.02213 0.89262 0.00346
 N1182 N -0.00554 0.87924 0.00305
 N1183 N -0.00365 0.86469 0.01610
 C1184 C -0.01832 0.86296 0.03002
 N1185 N -0.03493 0.87627 0.03036
 N1186 N -0.03678 0.89083 0.01737
 C1187 C -0.01677 0.84693 0.04453
 C1188 C 0.00096 0.83394 0.04626
 H1189 H -0.01297 0.90855 -0.02255
 H1190 H -0.02993 0.84599 0.05418
 H1191 H -0.05002 0.92384 0.00254
 H1192 H 0.01413 0.83644 0.03676
 C1193 C 0.04271 0.61931 -0.02595
 C1194 C 0.05364 0.62252 -0.00923
 C1195 C 0.04895 0.64046 0.00194
 N1196 N 0.05785 0.64250 0.01916
 N1197 N 0.05316 0.65850 0.02946
 C1198 C 0.03946 0.67304 0.02287
 N1199 N 0.03071 0.67105 0.00563
 N1200 N 0.03535 0.65508 -0.00463
 C1201 C 0.03352 0.69059 0.03406
 C1202 C 0.04110 0.69339 0.05222
 H1203 H 0.06523 0.61164 -0.00386
 H1204 H 0.02279 0.70158 0.02759
 H1205 H 0.03089 0.63045 -0.03052
 H1206 H 0.05286 0.68286 0.05799
 C1207 C 0.51202 0.09048 0.51249
 C1208 C 0.52374 0.09429 0.52862
 C1209 C 0.51916 0.11190 0.54022
 N1210 N 0.53078 0.11493 0.55592
 N1211 N 0.52684 0.13083 0.56651
 C1212 C 0.51114 0.14432 0.56178
 N1213 N 0.49952 0.14128 0.54609
 N1214 N 0.50344 0.12538 0.53551
 C1215 C 0.50659 0.16204 0.57324
 C1216 C 0.51821 0.16606 0.58939
 H1217 H 0.53657 0.08421 0.53299
 H1218 H 0.49408 0.17226 0.56843
 H1219 H 0.49909 0.10069 0.50850
 H1220 H 0.53129 0.15597 0.59330
 C1221 C -0.04110 0.07564 0.48802
 C1222 C -0.02512 0.08942 0.49024
 C1223 C -0.02215 0.10574 0.47631
 N1224 N -0.00628 0.11883 0.47841
 N1225 N -0.00350 0.13354 0.46577
 C1226 C -0.01650 0.13566 0.45056
 N1227 N -0.03235 0.12260 0.44850
 N1228 N -0.03512 0.10793 0.46111
 C1229 C -0.01385 0.15175 0.43640
 C1230 C 0.00241 0.16544 0.43728
 H1231 H -0.01448 0.08821 0.50216
 H1232 H -0.02490 0.15238 0.42476
 H1233 H -0.05139 0.07713 0.47584
 H1234 H 0.01405 0.16373 0.44844
 C1235 C 0.46463 0.58929 0.99850
 C1236 C 0.47522 0.60685 1.00229
 C1237 C 0.47641 0.62334 0.98836
 N1238 N 0.48721 0.63996 0.99247
 N1239 N 0.48831 0.65507 0.98003
 C1240 C 0.47861 0.65410 0.96303
 N1241 N 0.46779 0.63748 0.95893
 N1242 N 0.46671 0.62238 0.97135
 C1243 C 0.47955 0.67065 0.94916
 C1244 C 0.49123 0.68768 0.95229
 H1245 H 0.48285 0.60883 1.01570
 H1246 H 0.47122 0.66899 0.93601
 H1247 H 0.45741 0.58782 0.98478
 H1248 H 0.50056 0.68840 0.96504
 C1249 C 0.53867 0.92200 0.99860
 C1250 C 0.52317 0.90751 0.99900
 C1251 C 0.52286 0.89137 0.98527
 N1252 N 0.50731 0.87776 0.98607
 N1253 N 0.50694 0.86292 0.97386
 C1254 C 0.52214 0.86114 0.96040
 N1255 N 0.53769 0.87475 0.95960
 N1256 N 0.53804 0.88960 0.97180
 C1257 C 0.52216 0.84472 0.94693
 C1258 C 0.50623 0.83054 0.94694
 H1259 H 0.51090 0.90782 1.00962
 H1260 H 0.53507 0.84418 0.93698
 H1261 H 0.55055 0.92166 0.98758
 H1262 H 0.49348 0.83233 0.95707
 C1263 C 0.04163 0.38517 0.50107
 C1264 C 0.05377 0.37915 0.48568
 C1265 C 0.04890 0.36076 0.47565
 N1266 N 0.06015 0.35543 0.46016
 N1267 N 0.05543 0.33900 0.45085
 C1268 C 0.03929 0.32734 0.45674
 N1269 N 0.02814 0.33265 0.47224
 N1270 N 0.03285 0.34903 0.48151
 C1271 C 0.03323 0.30949 0.44651
 C1272 C 0.04382 0.30299 0.43035
 H1273 H 0.06669 0.38810 0.48062
 H1274 H 0.01985 0.30163 0.45215
 H1275 H 0.02865 0.37599 0.50568
 H1276 H 0.05771 0.31105 0.42593
 C1277 C 0.41844 0.49591 0.49232
 C1278 C 0.41121 0.51237 0.48151
 C1279 C 0.39313 0.52518 0.48742
 N1280 N 0.38616 0.54056 0.47610
 N1281 N 0.36972 0.55218 0.48118
 C1282 C 0.35963 0.54889 0.49780
 N1283 N 0.36663 0.53355 0.50915
 N1284 N 0.38306 0.52191 0.50406
 C1285 C 0.34128 0.56146 0.50358
 C1286 C 0.33291 0.57693 0.49201
 H1287 H 0.41870 0.51593 0.46823
 H1288 H 0.33434 0.55796 0.51709
 H1289 H 0.41048 0.49245 0.50546
 H1290 H 0.34061 0.57947 0.47857
 C1291 C 0.89728 0.02662 -0.04032
 C1292 C 0.88470 0.02760 -0.02415
 C1293 C 0.86937 0.04429 -0.02129
 N1294 N 0.85763 0.04508 -0.00530
 N1295 N 0.84379 0.06018 -0.00257
 C1296 C 0.84118 0.07504 -0.01576
 N1297 N 0.85290 0.07422 -0.03173
 N1298 N 0.86673 0.05915 -0.03445
 C1299 C 0.82602 0.09188 -0.01311
 C1300 C 0.81360 0.09373 0.00312
 H1301 H 0.88602 0.01615 -0.01324
 H1302 H 0.82499 0.10285 -0.02442
 H1303 H 0.89544 0.03847 -0.05088
 H1304 H 0.81559 0.08220 0.01397
 C1305 C 0.59807 0.02064 0.03476
 C1306 C 0.60083 0.03768 0.04540
 C1307 C 0.61799 0.05155 0.04095
 N1308 N 0.61993 0.06867 0.05068
 N1309 N 0.63539 0.08127 0.04656
 C1310 C 0.64944 0.07718 0.03255
 N1311 N 0.64749 0.06007 0.02287
 N1312 N 0.63207 0.04751 0.02698
 C1313 C 0.66670 0.09067 0.02766
 C1314 C 0.66997 0.10856 0.03688
 H1315 H 0.59016 0.04115 0.05687
 H1316 H 0.67752 0.08584 0.01674
 H1317 H 0.60867 0.01782 0.02305
 H1318 H 0.65976 0.11253 0.04856
 C1319 C 0.10630 0.48725 0.52158
 C1320 C 0.11002 0.50504 0.53091
 C1321 C 0.12785 0.51790 0.52602
 N1322 N 0.13057 0.53504 0.53551
 N1323 N 0.14663 0.54687 0.53133
 C1324 C 0.16060 0.54200 0.51749
 N1325 N 0.15788 0.52486 0.50799
 N1326 N 0.14180 0.51302 0.51216
 C1327 C 0.17845 0.55492 0.51274
 C1328 C 0.18206 0.57249 0.52240
 H1329 H 0.09973 0.50993 0.54217
 H1330 H 0.18907 0.55009 0.50168
 H1331 H 0.11695 0.48290 0.51031
 H1332 H 0.17163 0.57634 0.53397
 C1333 C 0.09820 0.51051 -0.05187
 C1334 C 0.11328 0.50946 -0.03745
 C1335 C 0.12796 0.49199 -0.03537
 N1336 N 0.14335 0.49162 -0.02201
 N1337 N 0.15672 0.47589 -0.02017
 C1338 C 0.15514 0.45995 -0.03162
 N1339 N 0.13973 0.46032 -0.04492
 N1340 N 0.12642 0.47603 -0.04677
 C1341 C 0.16964 0.44238 -0.02996
 C1342 C 0.18608 0.44099 -0.01682
 H1343 H 0.11468 0.52153 -0.02768
 H1344 H 0.16682 0.43011 -0.03922
 H1345 H 0.09764 0.49816 -0.06150
 H1346 H 0.18785 0.45307 -0.00705
 C1347 C 0.58179 0.99033 0.48386
 C1348 C 0.58676 0.97388 0.47264
 C1349 C 0.60506 0.96027 0.47643
 N1350 N 0.60879 0.94450 0.46506
 N1351 N 0.62529 0.93200 0.46817
 C1352 C 0.63869 0.93482 0.48276
 N1353 N 0.63496 0.95060 0.49414
 N1354 N 0.61845 0.96310 0.49104
 C1355 C 0.65699 0.92112 0.48636
 C1356 C 0.66152 0.90478 0.47494
 H1357 H 0.57710 0.97060 0.46061
 H1358 H 0.66714 0.92436 0.49810
 H1359 H 0.59179 0.99306 0.49589
 H1360 H 0.65151 0.90255 0.46282
 C1361 C 0.89197 0.97590 0.51032
 C1362 C 0.88523 0.95950 0.52095
 C1363 C 0.86808 0.94687 0.51435
 N1364 N 0.86135 0.93141 0.52526
 N1365 N 0.84567 0.92005 0.51947
 C1366 C 0.83617 0.92373 0.50255
 N1367 N 0.84295 0.93914 0.49164
 N1368 N 0.85860 0.95050 0.49743
 C1369 C 0.81867 0.91156 0.49592
 C1370 C 0.81064 0.89573 0.50668
 H1371 H 0.89235 0.95590 0.53447
 H1372 H 0.81216 0.91562 0.48230
 H1373 H 0.88441 0.97930 0.49691
 H1374 H 0.81806 0.89243 0.52019
 C1375 C 0.41594 0.48134 0.02136
 C1376 C 0.40598 0.46766 0.03325
 C1377 C 0.39019 0.45396 0.02584
 N1378 N 0.37903 0.44207 0.03771
 N1379 N 0.36389 0.43054 0.03114
 C1380 C 0.35936 0.43048 0.01244
 N1381 N 0.37065 0.44222 0.00059
 N1382 N 0.38576 0.45372 0.00715
 C1383 C 0.34189 0.41885 0.00490
 C1384 C 0.32961 0.40635 0.01625
 H1385 H 0.40865 0.46789 0.04828
 H1386 H 0.33871 0.42074 -0.00996
 H1387 H 0.41253 0.48116 0.00643
 H1388 H 0.33450 0.40411 0.03078
 C1389 C 0.51671 0.46353 0.42006
 C1390 C 0.51349 0.47949 0.40733
 C1391 C 0.52673 0.48177 0.39038
 N1392 N 0.52312 0.49742 0.37823
 N1393 N 0.53497 0.49956 0.36281
 C1394 C 0.55087 0.48613 0.35898
 N1395 N 0.55447 0.47051 0.37113
 N1396 N 0.54264 0.46837 0.38653
 C1397 C 0.56414 0.48808 0.34202
 C1398 C 0.56130 0.50381 0.32889
 H1399 H 0.50101 0.49057 0.40968
 H1400 H 0.57632 0.47663 0.34021
 H1401 H 0.52934 0.45263 0.41738
 H1402 H 0.54887 0.51488 0.33171
 C1403 C -0.01262 -0.01657 0.89005
 C1404 C 0.00281 -0.02993 0.88326
 C1405 C 0.01372 -0.02579 0.86527
 N1406 N 0.02855 -0.03891 0.85853
 N1407 N 0.03847 -0.03507 0.84231
 C1408 C 0.03389 -0.01798 0.83227
 N1409 N 0.01907 -0.00493 0.83902
 N1410 N 0.00919 -0.00876 0.85518
 C1411 C 0.04475 -0.01309 0.81449
 C1412 C 0.06012 -0.02577 0.80644
 H1413 H 0.00693 -0.04353 0.89106
 H1414 H 0.04029 0.00110 0.80795
 H1415 H -0.01654 -0.00318 0.88179
 H1416 H 0.06352 -0.03999 0.81356
 C1417 C -0.01545 0.00733 0.58511
 C1418 C -0.00167 0.02067 0.59324
 C1419 C 0.01005 0.01553 0.61069
 N1420 N 0.02221 0.02935 0.61890
 N1421 N 0.03294 0.02483 0.63464
 C1422 C 0.03194 0.00629 0.64274
 N1423 N 0.01981 -0.00751 0.63450
 N1424 N 0.00906 -0.00298 0.61880
 C1425 C 0.04391 0.00084 0.65996
 C1426 C 0.05619 0.01450 0.66944
 H1427 H 0.00041 0.03534 0.58694
 H1428 H 0.04323 -0.01453 0.66484
 H1429 H -0.01791 -0.00699 0.59205
 H1430 H 0.05691 0.02964 0.66380
 C1431 C 0.48584 0.53989 0.10255
 C1432 C 0.48921 0.52378 0.11505
 C1433 C 0.50125 0.52609 0.13263
 N1434 N 0.50648 0.50986 0.14361
 N1435 N 0.51815 0.51177 0.15908
 C1436 C 0.52499 0.53001 0.16416
 N1437 N 0.51959 0.54623 0.15327
 N1438 N 0.50797 0.54431 0.13782
 C1439 C 0.53863 0.53243 0.18073
 C1440 C 0.54542 0.51629 0.19215
 H1441 H 0.48405 0.50903 0.11148
 H1442 H 0.54353 0.54740 0.18373
 H1443 H 0.49184 0.55436 0.10615
 H1444 H 0.53926 0.50165 0.18945
 C1445 C 0.49881 -0.02740 0.09708
 C1446 C 0.50128 -0.01597 0.11310
 C1447 C 0.48684 -0.01800 0.12930
 N1448 N 0.49017 -0.00767 0.14523
 N1449 N 0.47722 -0.00961 0.15996
 C1450 C 0.46047 -0.02194 0.15927
 N1451 N 0.45714 -0.03222 0.14334
 N1452 N 0.47007 -0.03030 0.12865
 C1453 C 0.44585 -0.02432 0.17524
 C1454 C 0.44814 -0.01424 0.19209
 H1455 H 0.51422 -0.00575 0.11406
 H1456 H 0.43253 -0.03390 0.17326
 H1457 H 0.48609 -0.03795 0.09671
 H1458 H 0.46093 -0.00385 0.19336
 C1459 C 1.00055 0.45866 0.58373
 C1460 C 1.00236 0.47367 0.59692
 C1461 C 0.98658 0.47625 0.61201
 N1462 N 0.98945 0.49000 0.62549
 N1463 N 0.97539 0.49219 0.63937
 C1464 C 0.95794 0.48071 0.64023
 N1465 N 0.95505 0.46703 0.62671
 N1466 N 0.96911 0.46483 0.61288
 C1467 C 0.94233 0.48268 0.65549
 C1468 C 0.94458 0.49620 0.67000
 H1469 H 1.01580 0.48337 0.59659
 H1470 H 0.92862 0.47335 0.65496
 H1471 H 0.98723 0.44878 0.58467
 H1472 H 0.95788 0.50612 0.66962
 C1473 C 1.00227 0.55909 0.88420
 C1474 C 1.00165 0.54278 0.87230
 C1475 C 0.98621 0.54184 0.85689
 N1476 N 0.98619 0.52556 0.84580
 N1477 N 0.97224 0.52440 0.83184
 C1478 C 0.95778 0.53947 0.82844
 N1479 N 0.95781 0.55575 0.83952
 N1480 N 0.97177 0.55692 0.85349
 C1481 C 0.94222 0.53839 0.81309
 C1482 C 0.94162 0.52184 0.80138
 H1483 H 1.01259 0.53020 0.87428
 H1484 H 0.93128 0.55098 0.81132
 H1485 H 0.99115 0.57155 0.88196
 H1486 H 0.95311 0.50975 0.80405
 C1487 C 0.47959 0.02792 0.41962
 C1488 C 0.48179 0.01249 0.40676
 C1489 C 0.46799 0.01125 0.39017
 N1490 N 0.47094 -0.00396 0.37799
 N1491 N 0.45871 -0.00520 0.36280
 C1492 C 0.44307 0.00873 0.35923
 N1493 N 0.44011 0.02391 0.37142
 N1494 N 0.45233 0.02516 0.38661
 C1495 C 0.42953 0.00778 0.34242
 C1496 C 0.43196 -0.00746 0.32929
 H1497 H 0.49400 0.00098 0.40868
 H1498 H 0.41761 0.01955 0.34068
 H1499 H 0.46715 0.03924 0.41748
 H1500 H 0.44410 -0.01893 0.33210
   
