data_POSCAR
  _audit_creation_date              2014-09-24
  _audit_creation_method            'ToBaCCo'
  _symmetry_space_group_name_H-M    'P1'
  _symmetry_Int_Tables_number       1
  _symmetry_cell_setting            triclinic
  loop_
  _symmetry_equiv_pos_as_xyz
 x,y,z
_cell_length_a 47.8628
_cell_length_b 48.7495
_cell_length_c 59.6972
_cell_angle_alpha 89.937100
_cell_angle_beta 90.017100
_cell_angle_gamma 90.069100
loop_
  _atom_site_label
  _atom_site_type_symbol
  _atom_site_fract_x
  _atom_site_fract_y
  _atom_site_fract_z
Zr1 Zr 0.24732 0.24970 0.28842
 O2 O 0.26775 0.26985 0.31529
 O3 O 0.21931 0.22436 0.30589
 O4 O 0.22084 0.27577 0.30687
 O5 O 0.30116 0.20319 0.28005
 O6 O 0.19894 0.30202 0.28058
 O7 O 0.27481 0.22435 0.30673
 O8 O 0.19362 0.20491 0.27796
 O9 O 0.21107 0.25153 0.26885
 O10 O 0.24762 0.21437 0.26859
 O11 O 0.25017 0.28662 0.27037
 O12 O 0.28522 0.25089 0.27043
 Zr13 Zr 0.25136 0.25423 0.21042
 Zr14 Zr 0.21478 0.28732 0.24969
 Zr15 Zr 0.28394 0.21653 0.24929
 Zr16 Zr 0.21260 0.21712 0.24806
 O17 O 0.32806 0.21885 0.24796
 O18 O 0.16892 0.22363 0.24523
 O19 O 0.24874 0.21690 0.22827
 O20 O 0.21388 0.25277 0.22878
 O21 O 0.25114 0.28968 0.23024
 O22 O 0.28741 0.25226 0.23016
 C23 C 0.19912 0.20933 0.29868
 C24 C 0.29497 0.20851 0.30063
 C25 C 0.20414 0.29524 0.30108
 O26 O 0.17070 0.28436 0.24884
 O27 O 0.20017 0.30365 0.21905
 O28 O 0.22537 0.28132 0.19227
 C29 C 0.20633 0.29843 0.19845
 O30 O 0.30461 0.29876 0.28172
 Zr31 Zr 0.28627 0.28654 0.25086
 O32 O 0.27838 0.28073 0.19300
 O33 O 0.21949 0.33044 0.25076
 O34 O 0.28114 0.32964 0.25350
 O35 O 0.33013 0.28074 0.24920
 O36 O 0.29985 0.30444 0.22102
 C37 C 0.29501 0.29948 0.20029
 O38 O 0.22989 0.23532 0.18346
 O39 O 0.27962 0.17334 0.25043
 O40 O 0.27595 0.22627 0.19189
 O41 O 0.29680 0.19954 0.21844
 O42 O 0.21676 0.17386 0.24991
 O43 O 0.19938 0.19977 0.21716
 C44 C 0.29154 0.20596 0.19789
 H45 H 0.24731 0.19737 0.27769
 H46 H 0.19738 0.25276 0.21879
 H47 H 0.30469 0.25192 0.22105
 H48 H 0.25091 0.30269 0.28047
 H49 H 0.15951 0.20586 0.24813
 H50 H 0.16344 0.30338 0.24935
 H51 H 0.20040 0.33829 0.25038
 H52 H 0.29955 0.33825 0.25056
 H53 H 0.19791 0.16618 0.25275
 H54 H 0.29878 0.16568 0.25088
 H55 H 0.33503 0.19973 0.24749
 H56 H 0.33875 0.29895 0.24654
 H57 H 0.18406 0.18652 0.21991
 H58 H 0.23781 0.24270 0.16930
 H59 H 0.26008 0.26235 0.32949
 H60 H 0.31817 0.31375 0.27900
 Zr61 Zr 0.75104 0.75101 0.29062
 O62 O 0.73238 0.73046 0.31814
 O63 O 0.77769 0.77853 0.30739
 O64 O 0.77903 0.72634 0.30913
 O65 O 0.69380 0.79338 0.28187
 O66 O 0.80223 0.70128 0.28279
 O67 O 0.72211 0.77515 0.30877
 O68 O 0.79960 0.80099 0.27884
 O69 O 0.78708 0.75090 0.27067
 O70 O 0.74810 0.78573 0.27013
 O71 O 0.75014 0.71366 0.27298
 O72 O 0.71300 0.74716 0.27295
 Zr73 Zr 0.74590 0.74452 0.21269
 Zr74 Zr 0.78521 0.71455 0.25190
 Zr75 Zr 0.71174 0.78105 0.25120
 Zr76 Zr 0.78297 0.78469 0.24935
 O77 O 0.66783 0.77611 0.24976
 O78 O 0.82699 0.78004 0.24784
 O79 O 0.74662 0.78225 0.22994
 O80 O 0.78357 0.74867 0.23054
 O81 O 0.74866 0.70956 0.23297
 O82 O 0.71007 0.74481 0.23269
 C83 C 0.79507 0.79636 0.29968
 C84 C 0.70065 0.78923 0.30250
 C85 C 0.79674 0.70774 0.30329
 O86 O 0.82903 0.71992 0.25055
 O87 O 0.80043 0.69847 0.22119
 O88 O 0.77271 0.71834 0.19470
 C89 C 0.79310 0.70270 0.20064
 O90 O 0.69689 0.69826 0.28518
 Zr91 Zr 0.71374 0.71112 0.25393
 O92 O 0.71981 0.71646 0.19595
 O93 O 0.78305 0.67126 0.25358
 O94 O 0.72146 0.66844 0.25703
 O95 O 0.66958 0.71458 0.25290
 O96 O 0.70049 0.69193 0.22453
 C97 C 0.70439 0.69698 0.20367
 O98 O 0.76597 0.76372 0.18516
 O99 O 0.71312 0.82443 0.25225
 O100 O 0.71991 0.77097 0.19401
 O101 O 0.69835 0.79753 0.22021
 O102 O 0.77578 0.82761 0.24888
 O103 O 0.79603 0.80140 0.21814
 C104 C 0.70391 0.79104 0.19973
 H105 H 0.74726 0.80297 0.27885
 H106 H 0.79987 0.74939 0.22035
 H107 H 0.69268 0.74408 0.22372
 H108 H 0.75049 0.69773 0.28326
 H109 H 0.83544 0.79831 0.25052
 H110 H 0.83738 0.70135 0.25132
 H111 H 0.80255 0.66448 0.25304
 H112 H 0.70354 0.65874 0.25445
 H113 H 0.79403 0.83683 0.25118
 H114 H 0.69349 0.83085 0.25267
 H115 H 0.65972 0.79478 0.24907
 H116 H 0.66190 0.69592 0.25051
 H117 H 0.81149 0.81455 0.22064
 H118 H 0.75816 0.75570 0.17121
 H119 H 0.73979 0.73886 0.33208
 H120 H 0.68396 0.68267 0.28278
 Zr121 Zr 0.75616 0.24235 -0.28930
 O122 O 0.73760 0.26128 -0.31762
 O123 O 0.78391 0.21512 -0.30506
 O124 O 0.78354 0.26762 -0.30795
 O125 O 0.70064 0.19750 -0.28060
 O126 O 0.80494 0.29447 -0.28180
 O127 O 0.72831 0.21704 -0.30733
 O128 O 0.80669 0.19497 -0.27586
 O129 O 0.79171 0.24458 -0.26892
 O130 O 0.75428 0.20807 -0.26823
 O131 O 0.75314 0.28010 -0.27251
 O132 O 0.71761 0.24488 -0.27226
 Zr133 Zr 0.74907 0.25086 -0.21163
 Zr134 Zr 0.78771 0.28134 -0.25097
 Zr135 Zr 0.71735 0.21157 -0.24990
 Zr136 Zr 0.78859 0.21127 -0.24697
 O137 O 0.67324 0.21448 -0.24927
 O138 O 0.83233 0.21779 -0.24482
 O139 O 0.75176 0.21265 -0.22809
 O140 O 0.78720 0.24785 -0.22893
 O141 O 0.75061 0.28530 -0.23258
 O142 O 0.71375 0.24822 -0.23216
 C143 C 0.80209 0.19848 -0.29683
 C144 C 0.70750 0.20200 -0.30118
 C145 C 0.80026 0.28716 -0.30222
 O146 O 0.83169 0.27792 -0.24887
 O147 O 0.80149 0.29902 -0.22058
 O148 O 0.77466 0.27859 -0.19377
 C149 C 0.79433 0.29501 -0.20000
 O150 O 0.69995 0.29315 -0.28573
 Zr151 Zr 0.71627 0.28144 -0.25400
 O152 O 0.72131 0.27816 -0.19591
 O153 O 0.78382 0.32444 -0.25363
 O154 O 0.72240 0.32440 -0.25698
 O155 O 0.67232 0.27581 -0.25435
 O156 O 0.70030 0.29983 -0.22522
 C157 C 0.70416 0.29577 -0.20424
 O158 O 0.76924 0.23342 -0.18338
 O159 O 0.72083 0.16830 -0.24992
 O160 O 0.72377 0.22387 -0.19280
 O161 O 0.70380 0.19566 -0.21872
 O162 O 0.78319 0.16810 -0.24581
 O163 O 0.80155 0.19610 -0.21522
 C164 C 0.70859 0.20307 -0.19832
 H165 H 0.75434 0.19056 -0.27662
 H166 H 0.80333 0.24816 -0.21856
 H167 H 0.69609 0.24832 -0.22353
 H168 H 0.75304 0.29573 -0.28309
 H169 H 0.84158 0.19980 -0.24692
 H170 H 0.83929 0.29680 -0.24990
 H171 H 0.80300 0.33208 -0.25293
 H172 H 0.70402 0.33335 -0.25479
 H173 H 0.80185 0.15962 -0.24774
 H174 H 0.70154 0.16093 -0.25053
 H175 H 0.66598 0.19548 -0.24829
 H176 H 0.66359 0.29412 -0.25264
 H177 H 0.81746 0.18337 -0.21722
 H178 H 0.76074 0.24153 -0.16973
 H179 H 0.74569 0.25273 -0.33125
 H180 H 0.68699 0.30879 -0.28383
 Zr181 Zr 0.24659 0.75578 -0.28824
 O182 O 0.26543 0.73732 -0.31660
 O183 O 0.21718 0.78144 -0.30399
 O184 O 0.21983 0.72954 -0.30643
 O185 O 0.30050 0.80247 -0.28024
 O186 O 0.19996 0.70182 -0.28009
 O187 O 0.27346 0.78184 -0.30668
 O188 O 0.19381 0.80051 -0.27481
 O189 O 0.21142 0.75243 -0.26756
 O190 O 0.24739 0.79033 -0.26753
 O191 O 0.25113 0.71828 -0.27116
 O192 O 0.28534 0.75460 -0.27141
 Zr193 Zr 0.25468 0.74819 -0.21047
 Zr194 Zr 0.21685 0.71598 -0.24940
 Zr195 Zr 0.28459 0.78811 -0.24937
 Zr196 Zr 0.21352 0.78607 -0.24595
 O197 O 0.32879 0.78677 -0.24918
 O198 O 0.17006 0.77833 -0.24286
 O199 O 0.25052 0.78611 -0.22728
 O200 O 0.21635 0.74972 -0.22766
 O201 O 0.25420 0.71346 -0.23112
 O202 O 0.28965 0.75181 -0.23129
 C203 C 0.19780 0.79686 -0.29587
 C204 C 0.29393 0.79761 -0.30085
 C205 C 0.20401 0.70935 -0.30057
 O206 O 0.17278 0.71792 -0.24728
 O207 O 0.20377 0.69831 -0.21875
 O208 O 0.22967 0.72019 -0.19225
 C209 C 0.21041 0.70305 -0.19812
 O210 O 0.30460 0.70666 -0.28448
 Zr211 Zr 0.28817 0.71830 -0.25281
 O212 O 0.28346 0.72186 -0.19469
 O213 O 0.22232 0.67302 -0.25158
 O214 O 0.28345 0.67514 -0.25531
 O215 O 0.33188 0.72551 -0.25354
 O216 O 0.30522 0.70088 -0.22395
 C217 C 0.30129 0.70489 -0.20297
 O218 O 0.23444 0.76522 -0.18214
 O219 O 0.27946 0.83122 -0.24954
 O220 O 0.27921 0.77632 -0.19207
 O221 O 0.29833 0.80447 -0.21850
 O222 O 0.21728 0.82942 -0.24579
 O223 O 0.20083 0.80143 -0.21422
 C224 C 0.29396 0.79727 -0.19799
 H225 H 0.24649 0.80768 -0.27615
 H226 H 0.20030 0.74905 -0.21723
 H227 H 0.30740 0.75240 -0.22278
 H228 H 0.25171 0.70258 -0.28164
 H229 H 0.16019 0.79602 -0.24496
 H230 H 0.16586 0.69878 -0.24805
 H231 H 0.20343 0.66473 -0.25076
 H232 H 0.30212 0.66681 -0.25310
 H233 H 0.19828 0.83713 -0.24777
 H234 H 0.29844 0.83928 -0.25043
 H235 H 0.33540 0.80602 -0.24842
 H236 H 0.34132 0.70757 -0.25168
 H237 H 0.18479 0.81401 -0.21619
 H238 H 0.24341 0.75748 -0.16852
 H239 H 0.25682 0.74546 -0.33020
 H240 H 0.31816 0.69153 -0.28247
 Zr241 Zr 1.25128 1.25191 0.79059
 O242 O 1.23264 1.23189 0.81838
 O243 O 1.27862 1.27908 0.80697
 O244 O 1.27911 1.22696 0.80902
 O245 O 1.19493 1.29555 0.78209
 O246 O 1.30148 1.20128 0.78262
 O247 O 1.22300 1.27659 0.80882
 O248 O 1.30067 1.30085 0.77814
 O249 O 1.28703 1.25098 0.77035
 O250 O 1.24874 1.28653 0.76995
 O251 O 1.24941 1.21443 0.77323
 O252 O 1.21293 1.24871 0.77331
 Zr253 Zr 1.24490 1.24487 0.71281
 Zr254 Zr 1.28417 1.21452 0.75183
 Zr255 Zr 1.21203 1.28242 0.75136
 Zr256 Zr 1.28329 1.28467 0.74887
 O257 O 1.16803 1.27825 0.75043
 O258 O 1.32718 1.27916 0.74699
 O259 O 1.24663 1.28276 0.72978
 O260 O 1.28289 1.24847 0.73028
 O261 O 1.24726 1.21005 0.73328
 O262 O 1.20937 1.24604 0.73312
 C263 C 1.29632 1.29644 0.79903
 C264 C 1.20189 1.29123 0.80267
 C265 C 1.29645 1.20806 0.80313
 O266 O 1.32807 1.21903 0.75001
 O267 O 1.29864 1.19793 0.72111
 O268 O 1.27092 1.21804 0.69475
 C269 C 1.29111 1.20213 0.70061
 O270 O 1.19604 1.20027 0.78604
 Zr271 Zr 1.21268 1.21247 0.75455
 O272 O 1.21809 1.21708 0.69651
 O273 O 1.28120 1.17129 0.75381
 O274 O 1.21960 1.16968 0.75781
 O275 O 1.16858 1.21672 0.75393
 O276 O 1.19859 1.19333 0.72543
 C277 C 1.20235 1.19801 0.70452
 O278 O 1.26495 1.26345 0.68498
 O279 O 1.21427 1.32577 0.75204
 O280 O 1.21918 1.27161 0.69417
 O281 O 1.19848 1.29882 0.72036
 O282 O 1.27688 1.32771 0.74823
 O283 O 1.29629 1.30092 0.71749
 C284 C 1.20364 1.29202 0.69989
 H285 H 1.24837 1.30386 0.77858
 H286 H 1.29905 1.24881 0.71995
 H287 H 1.19184 1.24555 0.72431
 H288 H 1.24962 1.19860 0.78362
 H289 H 1.33604 1.29727 0.74953
 H290 H 1.33607 1.20032 0.75083
 H291 H 1.30055 1.16414 0.75314
 H292 H 1.20144 1.16030 0.75549
 H293 H 1.29530 1.33662 0.75045
 H294 H 1.19479 1.33258 0.75257
 H295 H 1.16026 1.29706 0.74968
 H296 H 1.16051 1.19818 0.75176
 H297 H 1.31200 1.31383 0.71982
 H298 H 1.25681 1.25543 0.67115
 H299 H 1.24038 1.24027 0.83222
 H300 H 1.18287 1.18481 0.78389
 Zr301 Zr 0.74768 0.74962 0.78788
 O302 O 0.76815 0.77010 0.81456
 O303 O 0.72023 0.72393 0.80558
 O304 O 0.72103 0.77537 0.80650
 O305 O 0.80208 0.70385 0.77916
 O306 O 0.69850 0.80128 0.78032
 O307 O 0.77566 0.72463 0.80601
 O308 O 0.69453 0.70407 0.77784
 O309 O 0.71119 0.75090 0.76856
 O310 O 0.74829 0.71427 0.76807
 O311 O 0.74981 0.78654 0.76976
 O312 O 0.78538 0.75130 0.76963
 Zr313 Zr 0.75081 0.75399 0.70988
 Zr314 Zr 0.71418 0.78671 0.74935
 Zr315 Zr 0.78438 0.71690 0.74852
 Zr316 Zr 0.71301 0.71648 0.74780
 O317 O 0.82844 0.71990 0.74687
 O318 O 0.66921 0.72236 0.74527
 O319 O 0.74894 0.71669 0.72777
 O320 O 0.71354 0.75210 0.72849
 O321 O 0.75029 0.78946 0.72968
 O322 O 0.78714 0.75263 0.72931
 C323 C 0.70018 0.70863 0.79851
 C324 C 0.79598 0.70907 0.79978
 C325 C 0.70400 0.79462 0.80080
 O326 O 0.67014 0.78317 0.74877
 O327 O 0.69914 0.80285 0.71876
 O328 O 0.72430 0.78066 0.69188
 C329 C 0.70520 0.79763 0.69814
 O330 O 0.80442 0.79910 0.78073
 Zr331 Zr 0.78571 0.78691 0.75001
 O332 O 0.77689 0.78113 0.69221
 O333 O 0.71833 0.82989 0.75034
 O334 O 0.78024 0.82993 0.75302
 O335 O 0.82961 0.78178 0.74763
 O336 O 0.79808 0.80538 0.72006
 C337 C 0.79289 0.80045 0.69938
 O338 O 0.72932 0.73464 0.68315
 O339 O 0.78077 0.67365 0.74975
 O340 O 0.77566 0.72643 0.69117
 O341 O 0.79714 0.70000 0.71760
 O342 O 0.71779 0.67328 0.74969
 O343 O 0.69972 0.69891 0.71701
 C344 C 0.79158 0.70632 0.69708
 H345 H 0.74832 0.69729 0.77718
 H346 H 0.69693 0.75187 0.71861
 H347 H 0.80428 0.75258 0.72002
 H348 H 0.75044 0.80263 0.77985
 H349 H 0.66009 0.70446 0.74824
 H350 H 0.66263 0.80210 0.74929
 H351 H 0.69914 0.83750 0.75009
 H352 H 0.79853 0.83873 0.74997
 H353 H 0.69908 0.66535 0.75264
 H354 H 0.80005 0.66628 0.75007
 H355 H 0.83571 0.70089 0.74639
 H356 H 0.83785 0.80013 0.74485
 H357 H 0.68464 0.68544 0.71987
 H358 H 0.73690 0.74210 0.66891
 H359 H 0.76074 0.76253 0.82883
 H360 H 0.81802 0.81403 0.77791
 Zr361 Zr 1.25603 0.74233 0.21038
 O362 O 1.23801 0.76092 0.18168
 O363 O 1.28361 0.71450 0.19517
 O364 O 1.28392 0.76691 0.19163
 O365 O 1.19987 0.69833 0.21920
 O366 O 1.30481 0.79457 0.21746
 O367 O 1.22815 0.71701 0.19247
 O368 O 1.30613 0.69498 0.22476
 O369 O 1.29139 0.74467 0.23094
 O370 O 1.25362 0.70845 0.23184
 O371 O 1.25311 0.78041 0.22664
 O372 O 1.21733 0.74548 0.22709
 Zr373 Zr 1.24816 0.75229 0.28785
 Zr374 Zr 1.28748 0.78180 0.24837
 Zr375 Zr 1.21653 0.71260 0.24985
 Zr376 Zr 1.28774 0.71180 0.25329
 O377 O 1.17244 0.71590 0.25030
 O378 O 1.33151 0.71798 0.25576
 O379 O 1.25072 0.71378 0.27187
 O380 O 1.28645 0.74872 0.27083
 O381 O 1.25022 0.78634 0.26647
 O382 O 1.21303 0.74959 0.26713
 C383 C 1.30168 0.69800 0.20373
 C384 C 1.20701 0.70242 0.19862
 C385 C 1.30040 0.78675 0.19712
 O386 O 1.33141 0.77803 0.25057
 O387 O 1.30120 0.79977 0.27865
 O388 O 1.27384 0.78010 0.30550
 C389 C 1.29378 0.79616 0.29922
 O390 O 1.20003 0.79347 0.21292
 Zr391 Zr 1.21608 0.78238 0.24488
 O392 O 1.22050 0.78013 0.30301
 O393 O 1.28394 0.82490 0.24541
 O394 O 1.22257 0.82520 0.24119
 O395 O 1.17208 0.77714 0.24452
 O396 O 1.20029 0.80166 0.27328
 C397 C 1.20382 0.79793 0.29434
 O398 O 1.26785 0.73527 0.31648
 O399 O 1.21954 0.66929 0.25019
 O400 O 1.22251 0.72575 0.30684
 O401 O 1.20269 0.69720 0.28110
 O402 O 1.28193 0.66870 0.25486
 O403 O 1.30025 0.69708 0.28530
 C404 C 1.20732 0.70489 0.30145
 H405 H 1.25362 0.69080 0.22365
 H406 H 1.30247 0.74906 0.28130
 H407 H 1.19530 0.75001 0.27566
 H408 H 1.25320 0.79583 0.21585
 H409 H 1.34064 0.69988 0.25393
 H410 H 1.33916 0.79683 0.24943
 H411 H 1.30318 0.83240 0.24606
 H412 H 1.20426 0.83436 0.24313
 H413 H 1.30052 0.66002 0.25310
 H414 H 1.20018 0.66211 0.24957
 H415 H 1.16499 0.69698 0.25140
 H416 H 1.16351 0.79555 0.24601
 H417 H 1.31594 0.68405 0.28354
 H418 H 1.25925 0.74370 0.32995
 H419 H 1.24616 0.75204 0.16822
 H420 H 1.18704 0.80914 0.21454
 Zr421 Zr 0.74722 1.25522 0.21198
 O422 O 0.76558 1.23639 0.18358
 O423 O 0.71916 1.28235 0.19637
 O424 O 0.71950 1.23031 0.19339
 O425 O 0.80346 1.29900 0.22072
 O426 O 0.69802 1.20335 0.21945
 O427 O 0.77508 1.28065 0.19394
 O428 O 0.69670 1.30231 0.22574
 O429 O 0.71178 1.25331 0.23251
 O430 O 0.74968 1.28932 0.23313
 O431 O 0.74974 1.21731 0.22871
 O432 O 0.78580 1.25193 0.22891
 Zr433 Zr 0.75454 1.24612 0.28969
 Zr434 Zr 0.71523 1.21639 0.25033
 Zr435 Zr 0.78666 1.28502 0.25137
 Zr436 Zr 0.71548 1.28645 0.25452
 O437 O 0.83072 1.28140 0.25185
 O438 O 0.67168 1.28073 0.25740
 O439 O 0.75237 1.28442 0.27328
 O440 O 0.71638 1.24976 0.27245
 O441 O 0.75233 1.21187 0.26860
 O442 O 0.78983 1.24822 0.26911
 C443 C 0.70072 1.29858 0.20473
 C444 C 0.79629 1.29515 0.20013
 C445 C 0.70273 1.21076 0.19903
 O446 O 0.67131 1.22052 0.25224
 O447 O 0.70114 1.19890 0.28079
 O448 O 0.72828 1.21903 0.30755
 C449 C 0.70834 1.20292 0.30137
 O450 O 0.80314 1.20419 0.21533
 Zr451 Zr 0.78665 1.21527 0.24712
 O452 O 0.78128 1.21761 0.30524
 O453 O 0.71855 1.17323 0.24788
 O454 O 0.78015 1.17249 0.24311
 O455 O 0.83070 1.22013 0.24760
 O456 O 0.80115 1.19538 0.27577
 C457 C 0.79715 1.19898 0.29679
 O458 O 0.73504 1.26380 0.31810
 O459 O 0.78386 1.32834 0.25147
 O460 O 0.78040 1.27269 0.30852
 O461 O 0.80078 1.30046 0.28243
 O462 O 0.72142 1.32957 0.25512
 O463 O 0.70341 1.30198 0.28634
 C464 C 0.79597 1.29318 0.30285
 H465 H 0.74969 1.30684 0.22472
 H466 H 0.70028 1.24971 0.28285
 H467 H 0.80744 1.24762 0.27780
 H468 H 0.74964 1.20175 0.21808
 H469 H 0.66269 1.29887 0.25537
 H470 H 0.66343 1.20175 0.25129
 H471 H 0.69926 1.16586 0.24847
 H472 H 0.79844 1.16329 0.24511
 H473 H 0.70284 1.33823 0.25321
 H474 H 0.80325 1.33543 0.25080
 H475 H 0.83832 1.30028 0.25276
 H476 H 0.83901 1.20164 0.24938
 H477 H 0.68795 1.31526 0.28444
 H478 H 0.74344 1.25539 0.33168
 H479 H 0.75746 1.24508 0.17000
 H480 H 0.81660 1.18894 0.21715
 O481 O 0.46232 0.94892 -0.03656
 O482 O 0.43037 0.97607 -0.01835
 C483 C 0.43692 0.95606 -0.03185
 O484 O 0.53885 0.95179 0.04222
 O485 O 0.57113 0.97592 0.02157
 C486 C 0.56431 0.95782 0.03673
 O487 O 0.46200 0.94939 0.03948
 O488 O 0.43012 0.97550 0.02008
 C489 C 0.43665 0.95591 0.03404
 O490 O 0.53891 0.95108 -0.03900
 O491 O 0.57113 0.97567 -0.01863
 C492 C 0.56436 0.95734 -0.03361
 Zr493 Zr 0.50073 0.96591 -0.02669
 O494 O 0.50227 0.92258 -0.02817
 O495 O 0.49959 0.96969 -0.06195
 Zr496 Zr 0.50057 0.96594 0.02940
 O497 O 0.50160 0.92260 0.02790
 O498 O 0.49794 0.96622 0.06480
 O499 O 0.47551 0.96070 0.00134
 O500 O 0.52522 0.96070 0.00144
 O501 O 0.53980 1.04883 -0.03884
 O502 O 0.57162 1.02379 -0.01852
 C503 C 0.56516 1.04227 -0.03346
 O504 O 0.46276 1.05116 0.03962
 O505 O 0.43052 1.02504 0.02073
 C506 C 0.43729 1.04465 0.03455
 O507 O 0.53941 1.04878 0.04169
 O508 O 0.57139 1.02397 0.02135
 C509 C 0.56478 1.04243 0.03625
 O510 O 0.46328 1.05242 -0.03614
 O511 O 0.43083 1.02541 -0.01831
 C512 C 0.43776 1.04555 -0.03160
 Zr513 Zr 0.50121 1.03402 -0.02708
 O514 O 0.50299 1.07704 -0.03125
 O515 O 0.49840 1.02970 -0.06233
 Zr516 Zr 0.50107 1.03433 0.02931
 O517 O 0.50353 1.07766 0.03092
 O518 O 0.49995 1.03046 0.06457
 Zr519 Zr 0.45824 1.00047 0.00125
 Zr520 Zr 0.54359 0.99993 0.00137
 O521 O 0.52555 1.03930 0.00117
 O522 O 0.47625 1.04001 0.00110
 O523 O 0.52652 0.99980 -0.03123
 O524 O 0.47597 1.00030 0.03349
 O525 O 0.47597 1.00012 -0.03103
 O526 O 0.52621 1.00005 0.03383
 H527 H 0.53723 0.94416 0.00152
 H528 H 0.46334 1.00024 0.04665
 H529 H 0.53770 1.05577 0.00124
 H530 H 0.46321 1.00022 -0.04412
 H531 H 0.51222 0.97925 0.07035
 H532 H 0.49966 1.04940 0.07057
 H533 H 0.49049 1.08509 0.01958
 H534 H 0.50518 1.08504 -0.01616
 H535 H 0.51621 1.02179 -0.06771
 H536 H 0.49890 0.95074 -0.06790
 H537 H 0.49378 0.91569 -0.01415
 H538 H 0.50142 0.91594 0.04360
 O539 O 1.03861 0.54926 0.54149
 O540 O 1.07088 0.52466 0.52129
 C541 C 1.06407 0.54310 0.53615
 O542 O 0.96263 0.44860 0.53920
 O543 O 0.93031 0.47423 0.51989
 C544 C 0.93718 0.45468 0.53377
 O545 O 1.03932 0.45157 0.54156
 O546 O 1.07121 0.47655 0.52116
 C547 C 1.06468 0.45808 0.53612
 O548 O 0.96196 0.55127 0.53880
 O549 O 0.92997 0.52447 0.52019
 C550 C 0.93654 0.54438 0.53382
 Zr551 Zr 1.00041 0.53396 0.52949
 O552 O 0.99961 0.52805 0.56455
 O553 O 1.00051 0.57703 0.53371
 Zr554 Zr 1.00091 0.46592 0.52928
 O555 O 0.99980 0.47003 0.56451
 O556 O 1.00345 0.42263 0.53123
 O557 O 1.02620 0.50015 0.53377
 O558 O 0.97556 0.49972 0.53351
 O559 O 0.96184 0.55103 0.46318
 O560 O 0.92993 0.52475 0.48242
 C561 C 0.93648 0.54441 0.46852
 O562 O 1.03949 0.45159 0.46107
 O563 O 1.07134 0.47690 0.48117
 C564 C 1.06483 0.45831 0.46636
 O565 O 0.96295 0.44790 0.46383
 O566 O 0.93059 0.47503 0.48151
 C567 C 0.93744 0.45484 0.46830
 O568 O 1.03862 0.54929 0.46073
 O569 O 1.07087 0.52489 0.48118
 C570 C 1.06410 0.54318 0.46614
 Zr571 Zr 1.00042 0.53442 0.47311
 O572 O 0.99923 0.53069 0.43786
 O573 O 1.00221 0.57777 0.47155
 Zr574 Zr 1.00093 0.46637 0.47279
 O575 O 0.99805 0.47087 0.43755
 O576 O 1.00257 0.42337 0.46851
 Zr577 Zr 1.04334 0.50052 0.50118
 Zr578 Zr 0.95809 0.49975 0.50119
 O579 O 0.97563 0.50021 0.46886
 O580 O 1.02622 0.50065 0.46859
 O581 O 0.97551 0.53953 0.50131
 O582 O 1.02531 0.46109 0.50105
 O583 O 1.02480 0.53963 0.50130
 O584 O 0.97613 0.46026 0.50102
 H585 H 0.96264 0.49959 0.54649
 H586 H 1.03750 0.44469 0.50112
 H587 H 0.96276 0.50017 0.45584
 H588 H 1.03682 0.55617 0.50123
 H589 H 0.99130 0.41510 0.51931
 H590 H 1.00550 0.41530 0.48350
 H591 H 1.01598 0.47855 0.43213
 H592 H 0.99857 0.54966 0.43189
 H593 H 0.99012 0.58488 0.48366
 H594 H 1.00634 0.58517 0.51929
 H595 H 0.99816 0.54660 0.57121
 H596 H 0.99929 0.45112 0.57060
 O597 O 0.94762 0.54069 -0.03911
 O598 O 0.97545 0.57201 -0.02096
 C599 C 0.95510 0.56561 -0.03451
 O600 O 0.95101 0.46631 0.04091
 O601 O 0.97434 0.43411 0.02004
 C602 C 0.95661 0.44116 0.03560
 O603 O 0.94917 0.54149 0.03807
 O604 O 0.97587 0.57240 0.01834
 C605 C 0.95622 0.56627 0.03267
 O606 O 0.94907 0.46534 -0.04094
 O607 O 0.97371 0.43371 -0.02029
 C608 C 0.95519 0.44035 -0.03541
 Zr609 Zr 0.96427 0.50285 -0.02881
 O610 O 0.92010 0.50130 -0.03002
 O611 O 0.96770 0.50361 -0.06410
 Zr612 Zr 0.96462 0.50355 0.02709
 O613 O 0.92065 0.50325 0.02375
 O614 O 0.96132 0.50431 0.06243
 O615 O 0.95935 0.52810 -0.00101
 O616 O 0.95891 0.47897 -0.00053
 O617 O 1.04810 0.46374 -0.04095
 O618 O 1.02273 0.43284 -0.02016
 C619 C 1.04141 0.43893 -0.03528
 O620 O 1.05174 0.54028 0.03697
 O621 O 1.02543 0.57189 0.01777
 C622 C 1.04526 0.56526 0.03170
 O623 O 1.04875 0.46500 0.03947
 O624 O 1.02305 0.43349 0.01960
 C625 C 1.04195 0.44005 0.03441
 O626 O 1.05261 0.53885 -0.03897
 O627 O 1.02570 0.57117 -0.02122
 C628 C 1.04600 0.56403 -0.03460
 Zr629 Zr 1.03367 0.50186 -0.02940
 O630 O 1.07745 0.49979 -0.03368
 O631 O 1.02916 0.50423 -0.06468
 Zr632 Zr 1.03454 0.50264 0.02682
 O633 O 1.07869 0.49965 0.02700
 O634 O 1.03388 0.50553 0.06222
 Zr635 Zr 1.00011 0.54463 -0.00134
 Zr636 Zr 0.99877 0.46079 -0.00051
 O637 O 1.03907 0.47819 -0.00106
 O638 O 1.04025 0.52672 -0.00154
 O639 O 0.99854 0.47725 -0.03323
 O640 O 1.00004 0.52734 0.03097
 O641 O 0.99935 0.52684 -0.03346
 O642 O 0.99929 0.47842 0.03178
 H643 H 0.94208 0.46712 -0.00025
 H644 H 1.00047 0.53979 0.04406
 H645 H 1.05569 0.46610 -0.00096
 H646 H 0.99953 0.53919 -0.04666
 H647 H 0.97937 0.51082 0.06843
 H648 H 1.02282 0.48987 0.06799
 H649 H 1.08607 0.51387 0.01673
 H650 H 1.08568 0.49753 -0.01863
 H651 H 1.02053 0.48689 -0.06986
 H652 H 0.94833 0.50428 -0.06994
 H653 H 0.91308 0.51248 -0.01740
 H654 H 0.91297 0.50286 0.03916
 O655 O 0.54802 0.96322 0.53937
 O656 O 0.52212 0.93204 0.51927
 C657 C 0.54119 0.93836 0.53401
 O658 O 0.44630 1.03931 0.53814
 O659 O 0.47390 1.07070 0.51981
 C660 C 0.45365 1.06424 0.53344
 O661 O 0.44859 0.96419 0.54052
 O662 O 0.47303 0.93250 0.51988
 C663 C 0.45462 0.93917 0.53507
 O664 O 0.55153 1.03842 0.53708
 O665 O 0.52400 1.07033 0.51937
 C666 C 0.54450 1.06349 0.53263
 Zr667 Zr 0.53310 1.00107 0.52769
 O668 O 0.52823 1.00171 0.56287
 O669 O 0.57708 1.00024 0.53112
 Zr670 Zr 0.46385 1.00174 0.52842
 O671 O 0.46990 1.00239 0.56349
 O672 O 0.41997 1.00157 0.53270
 O673 O 0.49828 0.97628 0.53236
 O674 O 0.49880 1.02600 0.53224
 O675 O 0.54965 1.03912 0.46132
 O676 O 0.52400 1.07080 0.48100
 C677 C 0.54352 1.06411 0.46680
 O678 O 0.44787 0.96471 0.45951
 O679 O 0.47267 0.93280 0.47972
 C680 C 0.45413 0.93966 0.46471
 O681 O 0.44635 1.03999 0.46184
 O682 O 0.47374 1.07110 0.48063
 C683 C 0.45358 1.06485 0.46684
 O684 O 0.54595 0.96385 0.45846
 O685 O 0.52141 0.93231 0.47922
 C686 C 0.53957 0.93885 0.46377
 Zr687 Zr 0.53236 1.00144 0.47147
 O688 O 0.52835 1.00306 0.43623
 O689 O 0.57645 0.99874 0.46969
 Zr690 Zr 0.46275 1.00211 0.47217
 O691 O 0.46342 1.00487 0.43677
 O692 O 0.41855 1.00009 0.47233
 Zr693 Zr 0.49759 0.95964 0.49970
 Zr694 Zr 0.49846 1.04345 0.49998
 O695 O 0.49782 1.02617 0.46771
 O696 O 0.49725 0.97689 0.46729
 O697 O 0.53866 1.02572 0.49960
 O698 O 0.45776 0.97790 0.50023
 O699 O 0.53779 0.97716 0.49940
 O700 O 0.45786 1.02654 0.50040
 H701 H 0.49912 1.03845 0.54537
 H702 H 0.44096 0.96601 0.50022
 H703 H 0.49789 1.03860 0.45456
 H704 H 0.55437 0.96503 0.49899
 H705 H 0.41165 0.99588 0.51829
 H706 H 0.41173 1.01405 0.48303
 H707 H 0.47591 0.99024 0.43116
 H708 H 0.54763 1.00333 0.43018
 H709 H 0.58416 1.01121 0.48122
 H710 H 0.58484 0.99426 0.51660
 H711 H 0.54735 1.00260 0.56917
 H712 H 0.45100 1.00356 0.57019
 O713 O 1.05775 1.04281 0.46870
 O714 O 1.02939 1.02152 0.44304
 C715 C 1.05009 1.03738 0.44836
 O716 O 1.04586 0.94285 0.52851
 O717 O 1.02390 0.97034 0.55416
 C718 C 1.03955 0.94961 0.54885
 O719 O 1.05103 0.94896 0.46690
 O720 O 1.02650 0.97567 0.44214
 C721 C 1.04480 0.95696 0.44683
 O722 O 1.05278 1.04575 0.53061
 O723 O 1.02723 1.01964 0.55517
 C724 C 1.04516 1.03883 0.55065
 Zr725 Zr 1.04093 1.02987 0.49940
 O726 O 1.08429 1.02188 0.50103
 O727 O 1.04873 1.07252 0.49828
 Zr728 Zr 1.03583 0.96178 0.49801
 O729 O 1.07991 0.96305 0.49988
 O730 O 1.03639 0.91862 0.49470
 O731 O 1.04392 0.99611 0.47856
 O732 O 1.04333 0.99485 0.51873
 O733 O 0.95949 1.05122 0.53039
 O734 O 0.98128 1.02225 0.55507
 C735 C 0.96571 1.04323 0.55045
 O736 O 0.94853 0.95664 0.46615
 O737 O 0.97793 0.97884 0.44171
 C738 C 0.95678 0.96313 0.44618
 O739 O 0.95169 0.95021 0.52812
 O740 O 0.97772 0.97385 0.55399
 C741 C 0.95911 0.95574 0.54847
 O742 O 0.95591 1.04994 0.46849
 O743 O 0.98052 1.02459 0.44291
 C744 C 0.96231 1.04321 0.44817
 Zr745 Zr 0.97063 1.03494 0.49913
 O746 O 0.92650 1.03460 0.50039
 O747 O 0.97170 1.07834 0.49750
 Zr748 Zr 0.96555 0.96652 0.49759
 O749 O 0.92158 0.97005 0.50009
 O750 O 0.96169 0.92353 0.49354
 Zr751 Zr 1.00342 0.99944 0.46501
 Zr752 Zr 1.00287 0.99718 0.53217
 O753 O 0.96275 1.00046 0.51810
 O754 O 0.96277 1.00184 0.47829
 O755 O 1.00598 1.03731 0.51915
 O756 O 1.00050 0.95952 0.47821
 O757 O 1.00631 1.03835 0.47992
 O758 O 1.00006 0.95792 0.51752
 H759 H 1.05923 0.99349 0.52932
 H760 H 0.99943 0.94372 0.46781
 H761 H 0.94643 1.00128 0.52830
 H762 H 1.00751 1.05489 0.47030
 H763 H 1.01873 0.91179 0.50119
 H764 H 0.97223 0.91464 0.50581
 H765 H 0.91563 0.98440 0.48937
 H766 H 0.92060 1.05405 0.50094
 H767 H 0.98521 1.08477 0.50888
 H768 H 1.03077 1.08161 0.50153
 H769 H 1.09352 1.04004 0.50194
 H770 H 1.08622 0.94370 0.49971
 O771 O 0.55622 0.54466 -0.03093
 O772 O 0.52878 0.52254 -0.05685
 C773 C 0.54903 0.53891 -0.05133
 O774 O 0.54686 0.44466 0.02925
 O775 O 0.52358 0.47177 0.05439
 C776 C 0.53974 0.45133 0.04944
 O777 O 0.55318 0.45076 -0.03226
 O778 O 0.52824 0.47659 -0.05740
 C779 C 0.54713 0.45852 -0.05242
 O780 O 0.55023 0.54802 0.03099
 O781 O 0.52507 0.52119 0.05529
 C782 C 0.54250 0.54089 0.05095
 Zr783 Zr 0.53920 0.53173 -0.00029
 O784 O 0.58287 0.52619 0.00202
 O785 O 0.54408 0.57480 -0.00201
 Zr786 Zr 0.53713 0.46345 -0.00137
 O787 O 0.58103 0.46730 0.00088
 O788 O 0.54070 0.42031 -0.00342
 O789 O 0.54400 0.49797 -0.02090
 O790 O 0.54275 0.49692 0.01922
 O791 O 0.45599 0.54892 0.03005
 O792 O 0.47903 0.52123 0.05504
 C793 C 0.46225 0.54123 0.05022
 O794 O 0.45083 0.45422 -0.03429
 O795 O 0.47958 0.47766 -0.05841
 C796 C 0.45903 0.46118 -0.05416
 O797 O 0.45312 0.44835 0.02779
 O798 O 0.47755 0.47342 0.05370
 C799 C 0.45999 0.45436 0.04818
 O800 O 0.45343 0.54753 -0.03219
 O801 O 0.47995 0.52355 -0.05742
 C802 C 0.46050 0.54100 -0.05241
 Zr803 Zr 0.46886 0.53401 -0.00129
 O804 O 0.42478 0.53607 0.00100
 O805 O 0.47063 0.57736 -0.00341
 Zr806 Zr 0.46662 0.46520 -0.00271
 O807 O 0.42250 0.46669 -0.00030
 O808 O 0.46489 0.42203 -0.00632
 Zr809 Zr 0.50361 0.49952 -0.03492
 Zr810 Zr 0.50197 0.49768 0.03211
 O811 O 0.46200 0.49916 0.01751
 O812 O 0.46262 0.50034 -0.02205
 O813 O 0.50364 0.53790 0.01914
 O814 O 0.50225 0.45960 -0.02162
 O815 O 0.50462 0.53866 -0.02023
 O816 O 0.50115 0.45824 0.01762
 H817 H 0.55846 0.49618 0.03004
 H818 H 0.50201 0.44380 -0.03205
 H819 H 0.44539 0.49927 0.02743
 H820 H 0.50534 0.55504 -0.03005
 H821 H 0.52162 0.41307 -0.00560
 H822 H 0.47662 0.41394 0.00563
 H823 H 0.41550 0.47772 -0.01303
 H824 H 0.41703 0.52416 -0.01088
 H825 H 0.48055 0.58413 0.01003
 H826 H 0.52721 0.58288 0.00485
 H827 H 0.59112 0.54483 0.00252
 H828 H 0.58848 0.44836 0.00132
 C829 C 0.32753 1.15465 0.14619
 C830 C 0.30684 1.17404 0.14087
 C831 C 0.29539 1.19091 0.15754
 C832 C 0.30414 1.18859 0.17999
 C833 C 0.32462 1.16894 0.18529
 C834 C 0.33623 1.15230 0.16862
 C835 C 0.34085 1.13761 0.12840
 C836 C 0.36996 1.13401 0.12826
 C837 C 0.38288 1.11874 0.11141
 C838 C 0.36709 1.10642 0.09427
 C839 C 0.33789 1.10942 0.09458
 C840 C 0.32491 1.12510 0.11138
 C841 C 0.38170 1.09147 0.07596
 C842 C 0.37406 1.06465 0.06957
 C843 C 0.39094 1.04956 0.05465
 C844 C 0.41555 1.06121 0.04597
 C845 C 0.42180 1.08867 0.05114
 C846 C 0.40516 1.10355 0.06590
 H847 H 0.29990 1.17655 0.12372
 H848 H 0.27957 1.20569 0.15282
 H849 H 0.33183 1.16643 0.20237
 H850 H 0.35194 1.13740 0.17331
 H851 H 0.38288 1.14352 0.14096
 H852 H 0.40540 1.11657 0.11174
 H853 H 0.32523 1.10021 0.08156
 H854 H 0.30241 1.12733 0.11114
 H855 H 0.35601 1.05488 0.07706
 H856 H 0.38573 1.02839 0.05107
 H857 H 0.44043 1.09835 0.04449
 H858 H 0.41123 1.12433 0.07011
 C859 C 0.82744 0.65516 0.64522
 C860 C 0.83684 0.65338 0.66749
 C861 C 0.82529 0.66998 0.68422
 C862 C 0.80416 0.68905 0.67912
 C863 C 0.79473 0.69083 0.65681
 C864 C 0.80612 0.67398 0.64010
 C865 C 0.84062 0.63813 0.62735
 C866 C 0.82446 0.62483 0.61088
 C867 C 0.83729 0.60908 0.59405
 C868 C 0.86654 0.60679 0.59315
 C869 C 0.88257 0.61994 0.60973
 C870 C 0.86981 0.63528 0.62662
 C871 C 0.88093 0.59160 0.57483
 C872 C 0.90391 0.60378 0.56415
 C873 C 0.92047 0.58873 0.54944
 C874 C 0.91463 0.56101 0.54495
 C875 C 0.89043 0.54922 0.55423
 C876 C 0.87363 0.56448 0.56909
 H877 H 0.85306 0.63893 0.67204
 H878 H 0.83303 0.66791 0.70119
 H879 H 0.77839 0.70513 0.65225
 H880 H 0.79861 0.67603 0.62306
 H881 H 0.80191 0.62647 0.61111
 H882 H 0.82445 0.59921 0.58147
 H883 H 0.90514 0.61833 0.60962
 H884 H 0.88288 0.64541 0.63891
 H885 H 0.90971 0.62478 0.56786
 H886 H 0.93880 0.59849 0.54234
 H887 H 0.88556 0.52785 0.55120
 H888 H 0.85596 0.55461 0.57707
 C889 C 0.67146 0.84284 0.14669
 C890 C 0.68954 0.82087 0.14190
 C891 C 0.69949 0.80380 0.15900
 C892 C 0.69180 0.80824 0.18147
 C893 C 0.67364 0.83014 0.18629
 C894 C 0.66358 0.84717 0.16914
 C895 C 0.66047 0.86073 0.12831
 C896 C 0.65634 0.88906 0.13158
 C897 C 0.64465 0.90542 0.11464
 C898 C 0.63672 0.89385 0.09402
 C899 C 0.64182 0.86577 0.09049
 C900 C 0.65343 0.84945 0.10738
 C901 C 0.62071 0.91015 0.07714
 C902 C 0.59754 0.89817 0.06651
 C903 C 0.58045 0.91360 0.05244
 C904 C 0.58598 0.94148 0.04839
 C905 C 0.60988 0.95337 0.05799
 C906 C 0.62700 0.93787 0.07243
 H907 H 0.69641 0.81708 0.12491
 H908 H 0.71363 0.78735 0.15459
 H909 H 0.66725 0.83424 0.20336
 H910 H 0.64933 0.86356 0.17346
 H911 H 0.66195 0.89859 0.14733
 H912 H 0.64083 0.92691 0.11801
 H913 H 0.63627 0.85621 0.07473
 H914 H 0.65604 0.82774 0.10422
 H915 H 0.59175 0.87709 0.06991
 H916 H 0.56215 0.90389 0.04525
 H917 H 0.61449 0.97484 0.05524
 H918 H 0.64484 0.94765 0.08023
 C919 C 1.17142 0.34380 0.64672
 C920 C 1.18980 0.32204 0.64205
 C921 C 1.19967 0.30498 0.65918
 C922 C 1.19162 0.30924 0.68159
 C923 C 1.17319 0.33095 0.68631
 C924 C 1.16318 0.34795 0.66912
 C925 C 1.16050 0.36165 0.62827
 C926 C 1.15576 0.38987 0.63162
 C927 C 1.14420 0.40617 0.61457
 C928 C 1.13704 0.39466 0.59374
 C929 C 1.14275 0.36669 0.59015
 C930 C 1.15419 0.35043 0.60716
 C931 C 1.12124 0.41085 0.57666
 C932 C 1.09879 0.39852 0.56531
 C933 C 1.08175 0.41383 0.55110
 C934 C 1.08661 0.44194 0.54764
 C935 C 1.10985 0.45421 0.55793
 C936 C 1.12693 0.43882 0.57248
 H937 H 1.19699 0.31839 0.62512
 H938 H 1.21404 0.28869 0.65485
 H939 H 1.16653 0.33490 0.70334
 H940 H 1.14869 0.36416 0.67336
 H941 H 1.16080 0.39938 0.64749
 H942 H 1.13990 0.42755 0.61801
 H943 H 1.13785 0.35718 0.57425
 H944 H 1.15727 0.32880 0.60392
 H945 H 1.09343 0.37724 0.56828
 H946 H 1.06393 0.40385 0.54341
 H947 H 1.11388 0.47588 0.55568
 H948 H 1.14422 0.44890 0.58080
 C949 C 0.67545 1.15282 -0.14453
 C950 C 0.69353 1.17493 -0.14005
 C951 C 0.70380 1.19141 -0.15741
 C952 C 0.69643 1.18623 -0.17985
 C953 C 0.67835 1.16414 -0.18438
 C954 C 0.66796 1.14770 -0.16696
 C955 C 0.66398 1.13567 -0.12586
 C956 C 0.65971 1.10725 -0.12847
 C957 C 0.64755 1.09159 -0.11130
 C958 C 0.63928 1.10397 -0.09109
 C959 C 0.64453 1.13215 -0.08818
 C960 C 0.65661 1.14777 -0.10531
 C961 C 0.62280 1.08839 -0.07404
 C962 C 0.59949 1.10084 -0.06404
 C963 C 0.58197 1.08598 -0.04987
 C964 C 0.58719 1.05822 -0.04511
 C965 C 0.61125 1.04593 -0.05404
 C966 C 0.62880 1.06084 -0.06858
 H967 H 0.70012 1.17931 -0.12307
 H968 H 0.71787 1.20803 -0.15321
 H969 H 0.67219 1.15949 -0.20142
 H970 H 0.65372 1.13118 -0.17106
 H971 H 0.66557 1.09711 -0.14389
 H972 H 0.64364 1.07001 -0.11418
 H973 H 0.63874 1.14231 -0.07275
 H974 H 0.65933 1.16957 -0.10266
 H975 H 0.59393 1.12181 -0.06801
 H976 H 0.56359 1.09603 -0.04318
 H977 H 0.61568 1.02456 -0.05070
 H978 H 0.64675 1.05072 -0.07586
 C979 C 1.17402 0.65488 0.35536
 C980 C 1.19153 0.67743 0.35987
 C981 C 1.20181 0.69388 0.34247
 C982 C 1.19501 0.68824 0.31999
 C983 C 1.17743 0.66574 0.31546
 C984 C 1.16706 0.64933 0.33290
 C985 C 1.16259 0.63767 0.37403
 C986 C 1.15908 0.60913 0.37158
 C987 C 1.14690 0.59337 0.38869
 C988 C 1.13785 0.60577 0.40867
 C989 C 1.14234 0.63410 0.41143
 C990 C 1.15446 0.64981 0.39437
 C991 C 1.12133 0.58998 0.42559
 C992 C 1.09747 0.60199 0.43510
 C993 C 1.08003 0.58692 0.44920
 C994 C 1.08586 0.55939 0.45438
 C995 C 1.11041 0.54756 0.44589
 C996 C 1.12789 0.56267 0.43142
 H997 H 1.19769 0.68217 0.37688
 H998 H 1.21547 0.71083 0.34667
 H999 H 1.17171 0.66071 0.29840
 H1000 H 1.15326 0.63246 0.32877
 H1001 H 1.16552 0.59896 0.35632
 H1002 H 1.14359 0.57166 0.38592
 H1003 H 1.13593 0.64429 0.42669
 H1004 H 1.15659 0.67170 0.39689
 H1005 H 1.09147 0.62275 0.43083
 H1006 H 1.06129 0.59665 0.45554
 H1007 H 1.11534 0.52637 0.44955
 H1008 H 1.14625 0.55288 0.42450
 C1009 C 0.32915 0.84836 -0.14585
 C1010 C 0.30836 0.82892 -0.14082
 C1011 C 0.29726 0.81209 -0.15765
 C1012 C 0.30642 0.81451 -0.17998
 C1013 C 0.32701 0.83419 -0.18501
 C1014 C 0.33833 0.85077 -0.16815
 C1015 C 0.34205 0.86529 -0.12783
 C1016 C 0.37119 0.86846 -0.12697
 C1017 C 0.38371 0.88340 -0.10971
 C1018 C 0.36745 0.89582 -0.09294
 C1019 C 0.33824 0.89332 -0.09402
 C1020 C 0.32566 0.87796 -0.11120
 C1021 C 0.38157 0.91035 -0.07417
 C1022 C 0.37441 0.93736 -0.06804
 C1023 C 0.39109 0.95208 -0.05273
 C1024 C 0.41501 0.93985 -0.04339
 C1025 C 0.42063 0.91220 -0.04825
 C1026 C 0.40420 0.89768 -0.06343
 H1027 H 0.30107 0.82638 -0.12377
 H1028 H 0.28130 0.79730 -0.15316
 H1029 H 0.33452 0.83673 -0.20200
 H1030 H 0.35419 0.86568 -0.17258
 H1031 H 0.38440 0.85882 -0.13939
 H1032 H 0.40627 0.88521 -0.10943
 H1033 H 0.32524 0.90265 -0.08129
 H1034 H 0.30312 0.87604 -0.11154
 H1035 H 0.35699 0.94756 -0.07606
 H1036 H 0.38641 0.97341 -0.04940
 H1037 H 0.43874 0.90211 -0.04111
 H1038 H 0.40986 0.87675 -0.06747
 C1039 C 0.83145 0.34361 0.35533
 C1040 C 0.81023 0.32455 0.36018
 C1041 C 0.79913 0.30780 0.34329
 C1042 C 0.80873 0.30994 0.32105
 C1043 C 0.82984 0.32917 0.31622
 C1044 C 0.84114 0.34566 0.33315
 C1045 C 0.84414 0.36069 0.37338
 C1046 C 0.87328 0.36368 0.37460
 C1047 C 0.88555 0.37903 0.39173
 C1048 C 0.86906 0.39204 0.40805
 C1049 C 0.83985 0.38964 0.40665
 C1050 C 0.82751 0.37387 0.38959
 C1051 C 0.88290 0.40727 0.42662
 C1052 C 0.87541 0.43438 0.43219
 C1053 C 0.89181 0.44973 0.44728
 C1054 C 0.91579 0.43805 0.45698
 C1055 C 0.92175 0.41031 0.45268
 C1056 C 0.90558 0.39517 0.43772
 H1057 H 0.80252 0.32230 0.37714
 H1058 H 0.78277 0.29338 0.34762
 H1059 H 0.83768 0.33152 0.29931
 H1060 H 0.85732 0.36029 0.32884
 H1061 H 0.88668 0.35364 0.36251
 H1062 H 0.90811 0.38074 0.39224
 H1063 H 0.82665 0.39941 0.41902
 H1064 H 0.80496 0.37212 0.38897
 H1065 H 0.85794 0.44417 0.42388
 H1066 H 0.88686 0.47110 0.45017
 H1067 H 0.93990 0.40064 0.46011
 H1068 H 0.91148 0.37418 0.43415
 C1069 C 1.15411 0.33480 0.14727
 C1070 C 1.17460 0.31539 0.14159
 C1071 C 1.19210 0.30421 0.15806
 C1072 C 1.18939 0.31200 0.18067
 C1073 C 1.16895 0.33154 0.18628
 C1074 C 1.15162 0.34284 0.16980
 C1075 C 1.13593 0.34728 0.12973
 C1076 C 1.13073 0.37562 0.12993
 C1077 C 1.11468 0.38779 0.11311
 C1078 C 1.10319 0.37196 0.09572
 C1079 C 1.10759 0.34349 0.09577
 C1080 C 1.12403 0.33128 0.11253
 C1081 C 1.08827 0.38593 0.07710
 C1082 C 1.06096 0.37852 0.07062
 C1083 C 1.04594 0.39492 0.05531
 C1084 C 1.05822 0.41874 0.04637
 C1085 C 1.08621 0.42466 0.05164
 C1086 C 1.10097 0.40856 0.06681
 H1087 H 1.17732 0.30907 0.12434
 H1088 H 1.20749 0.28914 0.15308
 H1089 H 1.16607 0.33793 0.20350
 H1090 H 1.13590 0.35759 0.17476
 H1091 H 1.13971 0.38856 0.14279
 H1092 H 1.11145 0.40978 0.11353
 H1093 H 1.09904 0.33088 0.08251
 H1094 H 1.12746 0.30934 0.11207
 H1095 H 1.05077 0.36105 0.07830
 H1096 H 1.02439 0.38996 0.05159
 H1097 H 1.09639 0.44266 0.04476
 H1098 H 1.12214 0.41440 0.07116
 C1099 C 0.65292 0.83365 0.64692
 C1100 C 0.67295 0.81374 0.64138
 C1101 C 0.69042 0.80265 0.65788
 C1102 C 0.68814 0.81101 0.68038
 C1103 C 0.66813 0.83103 0.68587
 C1104 C 0.65083 0.84227 0.66933
 C1105 C 0.63487 0.84603 0.62931
 C1106 C 0.63055 0.87450 0.62888
 C1107 C 0.61472 0.88654 0.61188
 C1108 C 0.60258 0.87044 0.59495
 C1109 C 0.60609 0.84187 0.59564
 C1110 C 0.62232 0.82978 0.61257
 C1111 C 0.58766 0.88413 0.57623
 C1112 C 0.56008 0.87708 0.57027
 C1113 C 0.54502 0.89342 0.55499
 C1114 C 0.55752 0.91683 0.54555
 C1115 C 0.58576 0.92233 0.55023
 C1116 C 0.60059 0.90624 0.56537
 H1117 H 0.67533 0.80697 0.62422
 H1118 H 0.70547 0.78720 0.65300
 H1119 H 0.66563 0.83787 0.70300
 H1120 H 0.63547 0.85745 0.67415
 H1121 H 0.64006 0.88759 0.64139
 H1122 H 0.61214 0.90862 0.61182
 H1123 H 0.59698 0.82905 0.58275
 H1124 H 0.62509 0.80773 0.61260
 H1125 H 0.54971 0.86001 0.57840
 H1126 H 0.52326 0.88885 0.55173
 H1127 H 0.59603 0.94005 0.54298
 H1128 H 0.62196 0.91178 0.56932
 C1129 C 1.16123 0.66683 -0.14756
 C1130 C 1.18288 0.68508 -0.14208
 C1131 C 1.19996 0.69637 -0.15880
 C1132 C 1.19554 0.69020 -0.18171
 C1133 C 1.17394 0.67144 -0.18698
 C1134 C 1.15721 0.65989 -0.17017
 C1135 C 1.14326 0.65454 -0.12976
 C1136 C 1.13748 0.62630 -0.12992
 C1137 C 1.12141 0.61437 -0.11294
 C1138 C 1.11035 0.63039 -0.09549
 C1139 C 1.11543 0.65877 -0.09556
 C1140 C 1.13198 0.67070 -0.11242
 C1141 C 1.09484 0.61676 -0.07692
 C1142 C 1.06782 0.62508 -0.07045
 C1143 C 1.05212 0.60917 -0.05522
 C1144 C 1.06339 0.58489 -0.04624
 C1145 C 1.09117 0.57803 -0.05149
 C1146 C 1.10660 0.59365 -0.06664
 H1147 H 1.18676 0.69047 -0.12476
 H1148 H 1.21623 0.71049 -0.15365
 H1149 H 1.16953 0.66580 -0.20418
 H1150 H 1.14066 0.64589 -0.17492
 H1151 H 1.14596 0.61328 -0.14293
 H1152 H 1.11769 0.59245 -0.11337
 H1153 H 1.10723 0.67155 -0.08227
 H1154 H 1.13589 0.69258 -0.11197
 H1155 H 1.05832 0.64292 -0.07812
 H1156 H 1.03073 0.61485 -0.05160
 H1157 H 1.10063 0.55966 -0.04465
 H1158 H 1.12753 0.58707 -0.07097
 C1159 C 0.65700 1.16649 0.35310
 C1160 C 0.67649 1.18707 0.35831
 C1161 C 0.69371 1.19821 0.34166
 C1162 C 0.69165 1.18930 0.31927
 C1163 C 0.67218 1.16862 0.31409
 C1164 C 0.65519 1.15724 0.33083
 C1165 C 0.63911 1.15424 0.37094
 C1166 C 0.63561 1.12569 0.37215
 C1167 C 0.61987 1.11388 0.38937
 C1168 C 0.60696 1.13031 0.40572
 C1169 C 0.60975 1.15893 0.40424
 C1170 C 0.62590 1.17078 0.38712
 C1171 C 0.59162 1.11702 0.42451
 C1172 C 0.56413 1.12461 0.43027
 C1173 C 0.54864 1.10878 0.44566
 C1174 C 0.56058 1.08533 0.45545
 C1175 C 0.58873 1.07928 0.45096
 C1176 C 0.60401 1.09487 0.43571
 H1177 H 0.67862 1.19438 0.37535
 H1178 H 0.70829 1.21423 0.34629
 H1179 H 0.66989 1.16135 0.29705
 H1180 H 0.64027 1.14150 0.32627
 H1181 H 0.64564 1.11238 0.36008
 H1182 H 0.61786 1.09176 0.38997
 H1183 H 0.60005 1.17204 0.41663
 H1184 H 0.62804 1.19289 0.38650
 H1185 H 0.55413 1.14169 0.42189
 H1186 H 0.52692 1.11373 0.44869
 H1187 H 0.59855 1.06144 0.45841
 H1188 H 0.62531 1.08893 0.43198
 C1189 C 0.84358 0.66878 0.14705
 C1190 C 0.84825 0.66090 0.16947
 C1191 C 0.83166 0.67139 0.18689
 C1192 C 0.80984 0.68991 0.18232
 C1193 C 0.80506 0.69752 0.15989
 C1194 C 0.82172 0.68726 0.14259
 C1195 C 0.86105 0.65769 0.12829
 C1196 C 0.84904 0.65232 0.10722
 C1197 C 0.86502 0.64153 0.08971
 C1198 C 0.89350 0.63539 0.09273
 C1199 C 0.90575 0.64130 0.11362
 C1200 C 0.88975 0.65231 0.13115
 C1201 C 0.90949 0.62071 0.07484
 C1202 C 0.93813 0.62579 0.07091
 C1203 C 0.95334 0.60961 0.05565
 C1204 C 0.94018 0.58797 0.04426
 C1205 C 0.91140 0.58386 0.04739
 C1206 C 0.89629 0.59996 0.06239
 H1207 H 0.86457 0.64640 0.17358
 H1208 H 0.83601 0.66508 0.20393
 H1209 H 0.78871 0.71194 0.15562
 H1210 H 0.81771 0.69430 0.12569
 H1211 H 0.82701 0.65582 0.10431
 H1212 H 0.85489 0.63763 0.07382
 H1213 H 0.92752 0.63660 0.11668
 H1214 H 0.89990 0.65658 0.14698
 H1215 H 0.94892 0.64179 0.08004
 H1216 H 0.97559 0.61291 0.05380
 H1217 H 0.90079 0.56715 0.03897
 H1218 H 0.87449 0.59504 0.06510
 C1219 C 0.34081 1.16761 0.64693
 C1220 C 0.34585 1.16007 0.66937
 C1221 C 0.32944 1.17069 0.68681
 C1222 C 0.30745 1.18900 0.68226
 C1223 C 0.30224 1.19620 0.65979
 C1224 C 0.31871 1.18580 0.64245
 C1225 C 0.35818 1.15647 0.62819
 C1226 C 0.34596 1.15044 0.60732
 C1227 C 0.36188 1.13949 0.58986
 C1228 C 0.39049 1.13390 0.59274
 C1229 C 0.40295 1.14053 0.61340
 C1230 C 0.38701 1.15168 0.63089
 C1231 C 0.40644 1.11895 0.57503
 C1232 C 0.43487 1.12452 0.57065
 C1233 C 0.45016 1.10811 0.55563
 C1234 C 0.43730 1.08575 0.54498
 C1235 C 0.40867 1.08114 0.54853
 C1236 C 0.39347 1.09747 0.56329
 H1237 H 0.36237 1.14577 0.67347
 H1238 H 0.33412 1.16470 0.70388
 H1239 H 0.28572 1.21044 0.65554
 H1240 H 0.31441 1.19252 0.62552
 H1241 H 0.32383 1.15352 0.60458
 H1242 H 0.35160 1.13499 0.57412
 H1243 H 0.42484 1.13626 0.61632
 H1244 H 0.39729 1.15648 0.64655
 H1245 H 0.44544 1.14110 0.57924
 H1246 H 0.47229 1.11188 0.55338
 H1247 H 0.39825 1.06395 0.54060
 H1248 H 0.37183 1.09222 0.56638
 C1249 C 0.84498 0.33317 -0.14864
 C1250 C 0.84756 0.34113 -0.17121
 C1251 C 0.83077 0.32922 -0.18778
 C1252 C 0.81074 0.30919 -0.18221
 C1253 C 0.80791 0.30152 -0.15956
 C1254 C 0.82491 0.31326 -0.14302
 C1255 C 0.86263 0.34617 -0.13099
 C1256 C 0.87473 0.33050 -0.11367
 C1257 C 0.89066 0.34315 -0.09680
 C1258 C 0.89435 0.37173 -0.09675
 C1259 C 0.88264 0.38724 -0.11426
 C1260 C 0.86710 0.37464 -0.13119
 C1261 C 0.90904 0.38604 -0.07814
 C1262 C 0.89645 0.40907 -0.06841
 C1263 C 0.91108 0.42529 -0.05323
 C1264 C 0.93879 0.41906 -0.04732
 C1265 C 0.95088 0.39488 -0.05569
 C1266 C 0.93603 0.37841 -0.07103
 H1267 H 0.86295 0.35629 -0.17611
 H1268 H 0.83369 0.33555 -0.20502
 H1269 H 0.79286 0.28606 -0.15461
 H1270 H 0.82214 0.30696 -0.12576
 H1271 H 0.87189 0.30847 -0.11320
 H1272 H 0.89941 0.33074 -0.08348
 H1273 H 0.88536 0.40930 -0.11476
 H1274 H 0.85795 0.38733 -0.14415
 H1275 H 0.87549 0.41509 -0.07317
 H1276 H 0.90105 0.44358 -0.04681
 H1277 H 0.97222 0.38968 -0.05148
 H1278 H 0.94615 0.36064 -0.07824
 C1279 C 0.34483 0.83377 0.35048
 C1280 C 0.34784 0.84137 0.32787
 C1281 C 0.33088 0.82970 0.31131
 C1282 C 0.31027 0.81028 0.31695
 C1283 C 0.30700 0.80300 0.33964
 C1284 C 0.32415 0.81451 0.35617
 C1285 C 0.36265 0.84648 0.36811
 C1286 C 0.37413 0.83067 0.38561
 C1287 C 0.39004 0.84309 0.40258
 C1288 C 0.39434 0.87158 0.40251
 C1289 C 0.38333 0.88722 0.38479
 C1290 C 0.36779 0.87483 0.36777
 C1291 C 0.40874 0.88572 0.42129
 C1292 C 0.39593 0.90859 0.43105
 C1293 C 0.41030 0.92470 0.44645
 C1294 C 0.43797 0.91851 0.45250
 C1295 C 0.45028 0.89448 0.44406
 C1296 C 0.43567 0.87810 0.42852
 H1297 H 0.36370 0.85605 0.32293
 H1298 H 0.33414 0.83570 0.29403
 H1299 H 0.29149 0.78801 0.34464
 H1300 H 0.32104 0.80853 0.37346
 H1301 H 0.37074 0.80871 0.38618
 H1302 H 0.39825 0.83062 0.41608
 H1303 H 0.38653 0.90922 0.38425
 H1304 H 0.35912 0.88761 0.35465
 H1305 H 0.37501 0.91458 0.42614
 H1306 H 0.40012 0.94288 0.45293
 H1307 H 0.47162 0.88934 0.44836
 H1308 H 0.44594 0.86044 0.42125
 C1309 C 1.14790 1.16408 0.34386
 C1310 C 1.17350 1.17489 0.35130
 C1311 C 1.18989 1.19070 0.33692
 C1312 C 1.18089 1.19567 0.31494
 C1313 C 1.15462 1.18599 0.30797
 C1314 C 1.13827 1.17037 0.32232
 C1315 C 1.13208 1.14486 0.35795
 C1316 C 1.12104 1.12072 0.34859
 C1317 C 1.10749 1.10162 0.36211
 C1318 C 1.10498 1.10639 0.38513
 C1319 C 1.11537 1.13083 0.39439
 C1320 C 1.12885 1.14994 0.38088
 C1321 C 1.09225 1.08573 0.39979
 C1322 C 1.10541 1.07900 0.42000
 C1323 C 1.09222 1.06190 0.43525
 C1324 C 1.06562 1.05124 0.43053
 C1325 C 1.05320 1.05642 0.40966
 C1326 C 1.06650 1.07366 0.39432
 H1327 H 1.18138 1.17013 0.36786
 H1328 H 1.21005 1.19800 0.34266
 H1329 H 1.14692 1.18999 0.29122
 H1330 H 1.11833 1.16271 0.31642
 H1331 H 1.12364 1.11623 0.33095
 H1332 H 1.09974 1.08280 0.35473
 H1333 H 1.11311 1.13507 0.41210
 H1334 H 1.13682 1.16862 0.38834
 H1335 H 1.12562 1.08759 0.42424
 H1336 H 1.10245 1.05779 0.45109
 H1337 H 1.03267 1.04840 0.40570
 H1338 H 1.05611 1.07862 0.37871
 C1339 C 0.64953 0.66327 -0.15602
 C1340 C 0.67535 0.67381 -0.14881
 C1341 C 0.69160 0.68963 -0.16328
 C1342 C 0.68221 0.69486 -0.18512
 C1343 C 0.65577 0.68541 -0.19185
 C1344 C 0.63956 0.66979 -0.17741
 C1345 C 0.63368 0.64425 -0.14181
 C1346 C 0.62216 0.62028 -0.15108
 C1347 C 0.60817 0.60156 -0.13751
 C1348 C 0.60575 0.60651 -0.11451
 C1349 C 0.61673 0.63073 -0.10532
 C1350 C 0.63066 0.64947 -0.11887
 C1351 C 0.59246 0.58626 -0.09982
 C1352 C 0.60535 0.57941 -0.07952
 C1353 C 0.59163 0.56278 -0.06423
 C1354 C 0.56482 0.55267 -0.06902
 C1355 C 0.55264 0.55798 -0.08994
 C1356 C 0.56642 0.57478 -0.10531
 H1357 H 0.68345 0.66889 -0.13235
 H1358 H 0.71190 0.69674 -0.15775
 H1359 H 0.64780 0.68963 -0.20848
 H1360 H 0.61943 0.66237 -0.18310
 H1361 H 0.62464 0.61567 -0.16871
 H1362 H 0.59996 0.58289 -0.14483
 H1363 H 0.61456 0.63512 -0.08762
 H1364 H 0.63908 0.66800 -0.11147
 H1365 H 0.62577 0.58751 -0.07528
 H1366 H 0.60171 0.55847 -0.04835
 H1367 H 0.53198 0.55033 -0.09395
 H1368 H 0.55623 0.57981 -0.12099
 C1369 C 0.85216 1.14951 0.65960
 C1370 C 0.84892 1.14229 0.68215
 C1371 C 0.83247 1.15821 0.69616
 C1372 C 0.81875 1.18159 0.68786
 C1373 C 0.82152 1.18860 0.66518
 C1374 C 0.83823 1.17271 0.65116
 C1375 C 0.87018 1.13287 0.64499
 C1376 C 0.86183 1.12710 0.62300
 C1377 C 0.87918 1.11209 0.60897
 C1378 C 0.90504 1.10249 0.61675
 C1379 C 0.91314 1.10749 0.63890
 C1380 C 0.89587 1.12275 0.65293
 C1381 C 0.92379 1.08837 0.60121
 C1382 C 0.93518 1.06264 0.60648
 C1383 C 0.95012 1.04810 0.59027
 C1384 C 0.95370 1.05932 0.56878
 C1385 C 0.94379 1.08584 0.56420
 C1386 C 0.92892 1.10019 0.58025
 H1387 H 0.85896 1.12420 0.68895
 H1388 H 0.83042 1.15208 0.71353
 H1389 H 0.81126 1.20659 0.65843
 H1390 H 0.84067 1.17884 0.63383
 H1391 H 0.84188 1.13413 0.61666
 H1392 H 0.87247 1.10802 0.59196
 H1393 H 0.93313 1.10032 0.64508
 H1394 H 0.90287 1.12717 0.66979
 H1395 H 0.93140 1.05333 0.62268
 H1396 H 0.95767 1.02771 0.59416
 H1397 H 0.94678 1.09525 0.54793
 H1398 H 0.92074 1.12028 0.57611
 C1399 C 0.35022 0.64674 0.16085
 C1400 C 0.33492 0.66868 0.15174
 C1401 C 0.31898 0.68549 0.16560
 C1402 C 0.31828 0.68062 0.18874
 C1403 C 0.33362 0.65862 0.19775
 C1404 C 0.34938 0.64183 0.18393
 C1405 C 0.36710 0.62899 0.14634
 C1406 C 0.39403 0.62081 0.15296
 C1407 C 0.41042 0.60494 0.13872
 C1408 C 0.40007 0.59733 0.11769
 C1409 C 0.37286 0.60468 0.11141
 C1410 C 0.35646 0.62036 0.12564
 C1411 C 0.41814 0.58371 0.10140
 C1412 C 0.42024 0.59480 0.07986
 C1413 C 0.43548 0.58134 0.06354
 C1414 C 0.44882 0.55639 0.06844
 C1415 C 0.44786 0.54587 0.09034
 C1416 C 0.43257 0.55956 0.10682
 H1417 H 0.33559 0.67303 0.13395
 H1418 H 0.30746 0.70237 0.15826
 H1419 H 0.33330 0.65414 0.21552
 H1420 H 0.36064 0.62478 0.19126
 H1421 H 0.40272 0.62742 0.16882
 H1422 H 0.43149 0.59958 0.14368
 H1423 H 0.36450 0.59864 0.09528
 H1424 H 0.33554 0.62591 0.12043
 H1425 H 0.40971 0.61377 0.07558
 H1426 H 0.43633 0.59030 0.04694
 H1427 H 0.45808 0.52673 0.09452
 H1428 H 0.43116 0.55088 0.12349
 C1429 C 1.14362 0.83826 0.66123
 C1430 C 1.16415 0.82085 0.65237
 C1431 C 1.18251 0.80701 0.66660
 C1432 C 1.18046 0.81018 0.69003
 C1433 C 1.15944 0.82765 0.69862
 C1434 C 1.14140 0.84151 0.68439
 C1435 C 1.12472 0.85351 0.64640
 C1436 C 1.12030 0.88165 0.64983
 C1437 C 1.10326 0.89644 0.63530
 C1438 C 1.09033 0.88324 0.61719
 C1439 C 1.09391 0.85485 0.61430
 C1440 C 1.11112 0.84012 0.62874
 C1441 C 1.07557 0.89945 0.60008
 C1442 C 1.08072 0.89408 0.57742
 C1443 C 1.06870 0.91028 0.56095
 C1444 C 1.05128 0.93234 0.56673
 C1445 C 1.04576 0.93761 0.58943
 C1446 C 1.05789 0.92126 0.60602
 H1447 H 1.16626 0.81832 0.63443
 H1448 H 1.19819 0.79385 0.65915
 H1449 H 1.15675 0.83088 0.71645
 H1450 H 1.12550 0.85467 0.69152
 H1451 H 1.13079 0.89237 0.66333
 H1452 H 1.10118 0.91837 0.63766
 H1453 H 1.08382 0.84417 0.60060
 H1454 H 1.11391 0.81832 0.62608
 H1455 H 1.09479 0.87783 0.57239
 H1456 H 1.07355 0.90567 0.54364
 H1457 H 1.03236 0.95444 0.59436
 H1458 H 1.05359 0.92570 0.62345
 C1459 C 0.64482 0.34238 0.16189
 C1460 C 0.66201 0.32178 0.15293
 C1461 C 0.68077 0.30776 0.16668
 C1462 C 0.68241 0.31412 0.18957
 C1463 C 0.66531 0.33494 0.19835
 C1464 C 0.64671 0.34889 0.18465
 C1465 C 0.62508 0.35737 0.14756
 C1466 C 0.62304 0.38602 0.14917
 C1467 C 0.60529 0.40043 0.13495
 C1468 C 0.58934 0.38636 0.11894
 C1469 C 0.59053 0.35761 0.11797
 C1470 C 0.60836 0.34321 0.13214
 C1471 C 0.57415 0.40183 0.10167
 C1472 C 0.57708 0.39417 0.07919
 C1473 C 0.56548 0.41013 0.06236
 C1474 C 0.55071 0.43414 0.06764
 C1475 C 0.54698 0.44143 0.09020
 C1476 C 0.55874 0.42539 0.10713
 H1477 H 0.66104 0.31668 0.13529
 H1478 H 0.69363 0.29176 0.15951
 H1479 H 0.66605 0.34038 0.21593
 H1480 H 0.63346 0.36452 0.19194
 H1481 H 0.63592 0.39735 0.16087
 H1482 H 0.60505 0.42262 0.13575
 H1483 H 0.57814 0.34635 0.10588
 H1484 H 0.60924 0.32106 0.13096
 H1485 H 0.58927 0.37637 0.07453
 H1486 H 0.56858 0.40382 0.04515
 H1487 H 0.53552 0.45975 0.09474
 H1488 H 0.55613 0.43156 0.12442
 C1489 C 0.84533 0.84528 0.34321
 C1490 C 0.83663 0.85536 0.32235
 C1491 C 0.81980 0.83951 0.30856
 C1492 C 0.81099 0.81334 0.31541
 C1493 C 0.81880 0.80347 0.33656
 C1494 C 0.83604 0.81930 0.35036
 C1495 C 0.86367 0.86228 0.35743
 C1496 C 0.85906 0.86383 0.38058
 C1497 C 0.87492 0.88158 0.39368
 C1498 C 0.89547 0.89835 0.38385
 C1499 C 0.90076 0.89611 0.36082
 C1500 C 0.88507 0.87813 0.34775
 C1501 C 0.91102 0.91820 0.39773
 C1502 C 0.93992 0.92213 0.39483
 C1503 C 0.95486 0.93866 0.40974
 C1504 C 0.94103 0.95105 0.42775
 C1505 C 0.91201 0.94846 0.42985
 C1506 C 0.89708 0.93241 0.41483
 H1507 H 0.84275 0.87560 0.31668
 H1508 H 0.81369 0.84775 0.29242
 H1509 H 0.81236 0.78325 0.34209
 H1510 H 0.84257 0.81101 0.36635
 H1511 H 0.84269 0.85192 0.38848
 H1512 H 0.87095 0.88232 0.41152
 H1513 H 0.91653 0.90870 0.35283
 H1514 H 0.88948 0.87686 0.32999
 H1515 H 0.95119 0.91135 0.38182
 H1516 H 0.97735 0.94028 0.40809
 H1517 H 0.90104 0.95811 0.44362
 H1518 H 0.87471 0.93042 0.41703
 C1519 C 0.34819 0.34403 -0.15773
 C1520 C 0.33984 0.35426 -0.17864
 C1521 C 0.32252 0.33885 -0.19238
 C1522 C 0.31290 0.31301 -0.18541
 C1523 C 0.32048 0.30297 -0.16426
 C1524 C 0.33817 0.31834 -0.15053
 C1525 C 0.36671 0.36070 -0.14344
 C1526 C 0.36179 0.36246 -0.12035
 C1527 C 0.37774 0.38004 -0.10718
 C1528 C 0.39868 0.39643 -0.11690
 C1529 C 0.40425 0.39400 -0.13985
 C1530 C 0.38846 0.37620 -0.15301
 C1531 C 0.41414 0.41628 -0.10300
 C1532 C 0.44316 0.41979 -0.10544
 C1533 C 0.45791 0.43623 -0.09036
 C1534 C 0.44372 0.44899 -0.07272
 C1535 C 0.41463 0.44692 -0.07116
 C1536 C 0.39991 0.43091 -0.08630
 H1537 H 0.34652 0.37432 -0.18434
 H1538 H 0.31665 0.34719 -0.20854
 H1539 H 0.31346 0.28297 -0.15869
 H1540 H 0.34442 0.30994 -0.13450
 H1541 H 0.34504 0.35093 -0.11256
 H1542 H 0.37342 0.38105 -0.08940
 H1543 H 0.42024 0.40641 -0.14775
 H1544 H 0.39300 0.37488 -0.17074
 H1545 H 0.45460 0.40876 -0.11821
 H1546 H 0.48046 0.43751 -0.09156
 H1547 H 0.40343 0.45693 -0.05769
 H1548 H 0.37746 0.42927 -0.08448
 C1549 C 1.14897 0.32649 -0.14615
 C1550 C 1.14441 0.33221 -0.16894
 C1551 C 1.16165 0.32093 -0.18543
 C1552 C 1.18404 0.30365 -0.17960
 C1553 C 1.18851 0.29777 -0.15678
 C1554 C 1.17112 0.30899 -0.14026
 C1555 C 1.13147 0.33987 -0.12865
 C1556 C 1.12189 0.32531 -0.10973
 C1557 C 1.10616 0.33858 -0.09308
 C1558 C 1.10020 0.36669 -0.09492
 C1559 C 1.10937 0.38101 -0.11399
 C1560 C 1.12470 0.36779 -0.13065
 C1561 C 1.08624 0.38207 -0.07663
 C1562 C 1.09884 0.40612 -0.06871
 C1563 C 1.08467 0.42335 -0.05406
 C1564 C 1.05738 0.41716 -0.04693
 C1565 C 1.04538 0.39206 -0.05345
 C1566 C 1.05978 0.37456 -0.06826
 H1567 H 1.12734 0.34537 -0.17406
 H1568 H 1.15736 0.32580 -0.20280
 H1569 H 1.20545 0.28446 -0.15164
 H1570 H 1.17538 0.30445 -0.12283
 H1571 H 1.12659 0.30372 -0.10783
 H1572 H 1.09943 0.32715 -0.07848
 H1573 H 1.10494 0.40268 -0.11585
 H1574 H 1.13196 0.37967 -0.14484
 H1575 H 1.11940 0.41210 -0.07454
 H1576 H 1.09476 0.44227 -0.04900
 H1577 H 1.02442 0.38677 -0.04817
 H1578 H 1.04970 0.35599 -0.07409
 C1579 C 0.64629 0.82361 0.35329
 C1580 C 0.67094 0.80980 0.35942
 C1581 C 0.68870 0.79874 0.34303
 C1582 C 0.68221 0.80121 0.32010
 C1583 C 0.65735 0.81472 0.31406
 C1584 C 0.63966 0.82570 0.33040
 C1585 C 0.62822 0.83708 0.37046
 C1586 C 0.61695 0.86318 0.36618
 C1587 C 0.60130 0.87681 0.38245
 C1588 C 0.59632 0.86475 0.40346
 C1589 C 0.60667 0.83829 0.40764
 C1590 C 0.62266 0.82464 0.39133
 C1591 C 0.58288 0.88139 0.42131
 C1592 C 0.55868 0.87274 0.43279
 C1593 C 0.54479 0.89072 0.44760
 C1594 C 0.55509 0.91744 0.45108
 C1595 C 0.58027 0.92507 0.44056
 C1596 C 0.59381 0.90742 0.42588
 H1597 H 0.67686 0.80810 0.37687
 H1598 H 0.70760 0.78843 0.34835
 H1599 H 0.65140 0.81678 0.29664
 H1600 H 0.62066 0.83581 0.32506
 H1601 H 0.62102 0.87356 0.35047
 H1602 H 0.59357 0.89721 0.37881
 H1603 H 0.60330 0.82867 0.42378
 H1604 H 0.63083 0.80445 0.39509
 H1605 H 0.54992 0.85263 0.42958
 H1606 H 0.52555 0.88419 0.45551
 H1607 H 0.58928 0.94521 0.44314
 H1608 H 0.61267 0.91441 0.41760
 C1609 C 0.84849 0.67394 -0.14870
 C1610 C 0.82838 0.69383 -0.14332
 C1611 C 0.81114 0.70497 -0.15996
 C1612 C 0.81377 0.69666 -0.18245
 C1613 C 0.83415 0.67696 -0.18783
 C1614 C 0.85120 0.66568 -0.17116
 C1615 C 0.86571 0.66091 -0.13085
 C1616 C 0.86957 0.63237 -0.13076
 C1617 C 0.88446 0.61967 -0.11355
 C1618 C 0.89610 0.63515 -0.09601
 C1619 C 0.89305 0.66379 -0.09633
 C1620 C 0.87776 0.67656 -0.11350
 C1621 C 0.91018 0.62077 -0.07719
 C1622 C 0.93733 0.62785 -0.07010
 C1623 C 0.95173 0.61109 -0.05472
 C1624 C 0.93903 0.58720 -0.04629
 C1625 C 0.91114 0.58159 -0.05211
 C1626 C 0.89695 0.59810 -0.06736
 H1627 H 0.82556 0.70037 -0.12613
 H1628 H 0.79582 0.72019 -0.15518
 H1629 H 0.83690 0.67015 -0.20495
 H1630 H 0.86666 0.65054 -0.17586
 H1631 H 0.86038 0.61972 -0.14373
 H1632 H 0.88673 0.59756 -0.11382
 H1633 H 0.90179 0.67616 -0.08299
 H1634 H 0.87532 0.69863 -0.11324
 H1635 H 0.94793 0.64533 -0.07741
 H1636 H 0.97324 0.61580 -0.05059
 H1637 H 0.90065 0.56353 -0.04566
 H1638 H 0.87587 0.59252 -0.07216
 C1639 C 0.34682 1.17300 0.35249
 C1640 C 0.34936 1.16443 0.33009
 C1641 C 0.33251 1.17581 0.31331
 C1642 C 0.31249 1.19593 0.31852
 C1643 C 0.31000 1.20452 0.34096
 C1644 C 0.32704 1.19329 0.35770
 C1645 C 0.36393 1.15998 0.37045
 C1646 C 0.37624 1.17569 0.38763
 C1647 C 0.39151 1.16298 0.40486
 C1648 C 0.39429 1.13431 0.40540
 C1649 C 0.38235 1.11874 0.38804
 C1650 C 0.36748 1.13139 0.37076
 C1651 C 0.40846 1.12001 0.42426
 C1652 C 0.39525 1.09744 0.43427
 C1653 C 0.40951 1.08098 0.44952
 C1654 C 0.43746 1.08653 0.45520
 C1655 C 0.45015 1.11034 0.44660
 C1656 C 0.43569 1.12704 0.43121
 H1657 H 0.36457 1.14899 0.32551
 H1658 H 0.33516 1.16878 0.29624
 H1659 H 0.29495 1.22006 0.34561
 H1660 H 0.32436 1.20010 0.37482
 H1661 H 0.37406 1.19780 0.38772
 H1662 H 0.40048 1.17543 0.41804
 H1663 H 0.38441 1.09662 0.38792
 H1664 H 0.35811 1.11869 0.35793
 H1665 H 0.37411 1.09189 0.42960
 H1666 H 0.39903 1.06297 0.45608
 H1667 H 0.47171 1.11500 0.45060
 H1668 H 0.44630 1.14443 0.42376
 C1669 C 1.15405 0.66895 0.14674
 C1670 C 1.17538 0.68767 0.14145
 C1671 C 1.19287 0.69807 0.15821
 C1672 C 1.18931 0.69020 0.18073
 C1673 C 1.16783 0.67157 0.18602
 C1674 C 1.15051 0.66098 0.16922
 C1675 C 1.13636 0.65688 0.12878
 C1676 C 1.13098 0.62857 0.12862
 C1677 C 1.11584 0.61668 0.11116
 C1678 C 1.10546 0.63280 0.09350
 C1679 C 1.10995 0.66125 0.09392
 C1680 C 1.12550 0.67318 0.11132
 C1681 C 1.09130 0.61920 0.07439
 C1682 C 1.06435 0.62690 0.06730
 C1683 C 1.04966 0.61063 0.05177
 C1684 C 1.06187 0.58662 0.04322
 C1685 C 1.08964 0.58047 0.04897
 C1686 C 1.10413 0.59649 0.06437
 H1687 H 1.17885 0.69391 0.12426
 H1688 H 1.20905 0.71250 0.15349
 H1689 H 1.16434 0.66517 0.20317
 H1690 H 1.13412 0.64671 0.17383
 H1691 H 1.13922 0.61545 0.14170
 H1692 H 1.11246 0.59471 0.11131
 H1693 H 1.10217 0.67407 0.08047
 H1694 H 1.12913 0.69510 0.11112
 H1695 H 1.05409 0.64443 0.07477
 H1696 H 1.02826 0.61575 0.04767
 H1697 H 1.09973 0.56227 0.04242
 H1698 H 1.12505 0.59045 0.06921
 C1699 C 0.65484 1.16768 0.64701
 C1700 C 0.67531 1.18734 0.64176
 C1701 C 0.69270 1.19806 0.65848
 C1702 C 0.68986 1.18960 0.68093
 C1703 C 0.66923 1.17005 0.68618
 C1704 C 0.65204 1.15914 0.66941
 C1705 C 0.63725 1.15530 0.62909
 C1706 C 0.63288 1.12683 0.62864
 C1707 C 0.61758 1.11475 0.61134
 C1708 C 0.60601 1.13082 0.59411
 C1709 C 0.60959 1.15940 0.59481
 C1710 C 0.62530 1.17152 0.61204
 C1711 C 0.59136 1.11713 0.57522
 C1712 C 0.56421 1.12477 0.56857
 C1713 C 0.54921 1.10859 0.55315
 C1714 C 0.56130 1.08471 0.54424
 C1715 C 0.58920 1.07858 0.54960
 C1716 C 0.60399 1.09452 0.56490
 H1717 H 0.67820 1.19408 0.62462
 H1718 H 0.70821 1.21319 0.65379
 H1719 H 0.66632 1.16314 0.70327
 H1720 H 0.63633 1.14415 0.67401
 H1721 H 0.64195 1.11375 0.64138
 H1722 H 0.61490 1.09268 0.61132
 H1723 H 0.60090 1.17222 0.58172
 H1724 H 0.62813 1.19356 0.61207
 H1725 H 0.55406 1.14222 0.57627
 H1726 H 0.52770 1.11369 0.54940
 H1727 H 0.59923 1.06050 0.54278
 H1728 H 0.62506 1.08851 0.56936
 C1729 C 0.84939 0.33051 0.14894
 C1730 C 0.82648 0.31394 0.14303
 C1731 C 0.80900 0.30278 0.15955
 C1732 C 0.81410 0.30780 0.18243
 C1733 C 0.83717 0.32422 0.18828
 C1734 C 0.85453 0.33542 0.17178
 C1735 C 0.86714 0.34371 0.13144
 C1736 C 0.87537 0.37121 0.13389
 C1737 C 0.89077 0.38436 0.11718
 C1738 C 0.89853 0.37039 0.09757
 C1739 C 0.89121 0.34262 0.09530
 C1740 C 0.87545 0.32945 0.11203
 C1741 C 0.91228 0.38587 0.07914
 C1742 C 0.93743 0.37713 0.06916
 C1743 C 0.95160 0.39425 0.05383
 C1744 C 0.94068 0.42019 0.04838
 C1745 C 0.91460 0.42776 0.05728
 C1746 C 0.90068 0.41092 0.07244
 H1747 H 0.82174 0.31005 0.12558
 H1748 H 0.79153 0.29016 0.15438
 H1749 H 0.84196 0.32839 0.20568
 H1750 H 0.87217 0.34784 0.17694
 H1751 H 0.86915 0.38290 0.14848
 H1752 H 0.89628 0.40574 0.11941
 H1753 H 0.89685 0.33145 0.08031
 H1754 H 0.86967 0.30815 0.10976
 H1755 H 0.94671 0.35777 0.07400
 H1756 H 0.97159 0.38784 0.04718
 H1757 H 0.90523 0.44732 0.05308
 H1758 H 0.88106 0.41789 0.07945
 C1759 C 0.34458 0.83199 0.64863
 C1760 C 0.34941 0.83795 0.67131
 C1761 C 0.33243 0.82678 0.68809
 C1762 C 0.30977 0.80931 0.68275
 C1763 C 0.30488 0.80365 0.65982
 C1764 C 0.32215 0.81467 0.64309
 C1765 C 0.36226 0.84471 0.63084
 C1766 C 0.37206 0.82937 0.61245
 C1767 C 0.38809 0.84190 0.59555
 C1768 C 0.39413 0.87007 0.59655
 C1769 C 0.38469 0.88521 0.61509
 C1770 C 0.36910 0.87269 0.63204
 C1771 C 0.40857 0.88459 0.57791
 C1772 C 0.39642 0.90844 0.56917
 C1773 C 0.41093 0.92479 0.55399
 C1774 C 0.43817 0.91796 0.54714
 C1775 C 0.44974 0.89304 0.55456
 C1776 C 0.43496 0.87640 0.56987
 H1777 H 0.36663 0.85112 0.67614
 H1778 H 0.33733 0.83188 0.70532
 H1779 H 0.28785 0.79044 0.65463
 H1780 H 0.31767 0.81000 0.62572
 H1781 H 0.36732 0.80770 0.61117
 H1782 H 0.39503 0.82982 0.58139
 H1783 H 0.38915 0.90694 0.61633
 H1784 H 0.36173 0.88512 0.64585
 H1785 H 0.37592 0.91495 0.57470
 H1786 H 0.40119 0.94360 0.54829
 H1787 H 0.47067 0.88729 0.54958
 H1788 H 0.44472 0.85798 0.57632
 C1789 C 0.33389 1.15849 -0.14472
 C1790 C 0.34409 1.15746 -0.16681
 C1791 C 0.33238 1.17390 -0.18364
 C1792 C 0.31040 1.19207 -0.17876
 C1793 C 0.30056 1.19342 -0.15655
 C1794 C 0.31203 1.17672 -0.13979
 C1795 C 0.34639 1.14101 -0.12683
 C1796 C 0.32949 1.12699 -0.11123
 C1797 C 0.34154 1.11096 -0.09421
 C1798 C 0.37072 1.10906 -0.09223
 C1799 C 0.38751 1.12287 -0.10797
 C1800 C 0.37553 1.13851 -0.12508
 C1801 C 0.38416 1.09353 -0.07363
 C1802 C 0.40635 1.10560 -0.06187
 C1803 C 0.42211 1.09029 -0.04674
 C1804 C 0.41622 1.06242 -0.04293
 C1805 C 0.39268 1.05072 -0.05330
 C1806 C 0.37669 1.06623 -0.06856
 H1807 H 0.36083 1.14352 -0.17116
 H1808 H 0.34043 1.17219 -0.20054
 H1809 H 0.28354 1.20700 -0.15215
 H1810 H 0.30396 1.17825 -0.12290
 H1811 H 0.30694 1.12834 -0.11227
 H1812 H 0.32812 1.10057 -0.08231
 H1813 H 0.41007 1.12156 -0.10701
 H1814 H 0.38911 1.14916 -0.13671
 H1815 H 0.41222 1.12672 -0.06505
 H1816 H 0.43997 1.09995 -0.03883
 H1817 H 0.38784 1.02922 -0.05082
 H1818 H 0.35959 1.05645 -0.07736
 C1819 C 0.83354 0.65778 0.35549
 C1820 C 0.81158 0.67593 0.36032
 C1821 C 0.80034 0.69278 0.34357
 C1822 C 0.81053 0.69168 0.32145
 C1823 C 0.83263 0.67361 0.31667
 C1824 C 0.84410 0.65701 0.33350
 C1825 C 0.84577 0.64012 0.37338
 C1826 C 0.87488 0.63761 0.37541
 C1827 C 0.88661 0.62184 0.39257
 C1828 C 0.86957 0.60789 0.40805
 C1829 C 0.84042 0.60976 0.40577
 C1830 C 0.82863 0.62594 0.38872
 C1831 C 0.88272 0.59227 0.42672
 C1832 C 0.87566 0.56474 0.43129
 C1833 C 0.89161 0.54919 0.44655
 C1834 C 0.91466 0.56112 0.45744
 C1835 C 0.92008 0.58917 0.45413
 C1836 C 0.90438 0.60451 0.43899
 H1837 H 0.80323 0.67725 0.37714
 H1838 H 0.78321 0.70626 0.34789
 H1839 H 0.84093 0.67208 0.29984
 H1840 H 0.86092 0.64314 0.32922
 H1841 H 0.88865 0.64837 0.36399
 H1842 H 0.90915 0.62053 0.39377
 H1843 H 0.82682 0.59926 0.41747
 H1844 H 0.80611 0.62728 0.38745
 H1845 H 0.85899 0.55484 0.42206
 H1846 H 0.88721 0.52754 0.44861
 H1847 H 0.93762 0.59893 0.46241
 H1848 H 0.90992 0.62579 0.43616
 C1849 C 0.66859 1.16027 0.14595
 C1850 C 0.68717 1.18190 0.14116
 C1851 C 0.69732 1.19887 0.15824
 C1852 C 0.68938 1.19464 0.18069
 C1853 C 0.67042 1.17333 0.18546
 C1854 C 0.66011 1.15644 0.16833
 C1855 C 0.65803 1.14196 0.12767
 C1856 C 0.65325 1.11381 0.13150
 C1857 C 0.64220 1.09701 0.11459
 C1858 C 0.63567 1.10788 0.09339
 C1859 C 0.64144 1.13577 0.08934
 C1860 C 0.65232 1.15256 0.10622
 C1861 C 0.62045 1.09109 0.07635
 C1862 C 0.59853 1.10303 0.06411
 C1863 C 0.58186 1.08719 0.05000
 C1864 C 0.58658 1.05893 0.04754
 C1865 C 0.60934 1.04699 0.05871
 C1866 C 0.62607 1.06293 0.07313
 H1867 H 0.69450 1.18535 0.12424
 H1868 H 0.71207 1.21486 0.15387
 H1869 H 0.66379 1.16941 0.20251
 H1870 H 0.64541 1.14040 0.17265
 H1871 H 0.65788 1.10475 0.14763
 H1872 H 0.63784 1.07571 0.11841
 H1873 H 0.63705 1.14481 0.07314
 H1874 H 0.65549 1.17410 0.10260
 H1875 H 0.59321 1.12444 0.06632
 H1876 H 0.56436 1.09689 0.04164
 H1877 H 0.61322 1.02520 0.05726
 H1878 H 0.64296 1.05312 0.08214
 C1879 C 1.16980 0.65877 0.64641
 C1880 C 1.18767 0.68093 0.64156
 C1881 C 1.19795 0.69777 0.65866
 C1882 C 1.19088 0.69286 0.68120
 C1883 C 1.17278 0.67087 0.68608
 C1884 C 1.16234 0.65410 0.66892
 C1885 C 1.15880 0.64089 0.62802
 C1886 C 1.15477 0.61252 0.63127
 C1887 C 1.14333 0.59613 0.61426
 C1888 C 1.13562 0.60766 0.59356
 C1889 C 1.14061 0.63580 0.59006
 C1890 C 1.15189 0.65217 0.60704
 C1891 C 1.11999 0.59125 0.57652
 C1892 C 1.09717 0.60316 0.56538
 C1893 C 1.08032 0.58758 0.55122
 C1894 C 1.08573 0.55962 0.54763
 C1895 C 1.10934 0.54779 0.55771
 C1896 C 1.12625 0.56345 0.57219
 H1897 H 1.19426 0.68500 0.62453
 H1898 H 1.21202 0.71429 0.65419
 H1899 H 1.16687 0.66642 0.70322
 H1900 H 1.14823 0.63758 0.67330
 H1901 H 1.16031 0.60297 0.64703
 H1902 H 1.13959 0.57461 0.61763
 H1903 H 1.13528 0.64535 0.57424
 H1904 H 1.15443 0.67390 0.60387
 H1905 H 1.09138 0.62428 0.56846
 H1906 H 1.06222 0.59722 0.54367
 H1907 H 1.11383 0.52625 0.55534
 H1908 H 1.14384 0.55371 0.58036
 C1909 C 0.66975 0.84435 -0.14571
 C1910 C 0.68847 0.82284 -0.14114
 C1911 C 0.69886 0.80634 -0.15839
 C1912 C 0.69102 0.81092 -0.18082
 C1913 C 0.67211 0.83229 -0.18543
 C1914 C 0.66158 0.84874 -0.16811
 C1915 C 0.65862 0.86183 -0.12715
 C1916 C 0.65381 0.89008 -0.13026
 C1917 C 0.64241 0.90610 -0.11302
 C1918 C 0.63549 0.89429 -0.09223
 C1919 C 0.64117 0.86626 -0.08892
 C1920 C 0.65245 0.85026 -0.10612
 C1921 C 0.62005 0.91029 -0.07486
 C1922 C 0.59775 0.89791 -0.06336
 C1923 C 0.58102 0.91312 -0.04888
 C1924 C 0.58608 0.94116 -0.04529
 C1925 C 0.60922 0.95344 -0.05571
 C1926 C 0.62598 0.93816 -0.07053
 H1927 H 0.69560 0.81902 -0.12422
 H1928 H 0.71354 0.79029 -0.15412
 H1929 H 0.66559 0.83647 -0.20246
 H1930 H 0.64683 0.86478 -0.17226
 H1931 H 0.65874 0.89983 -0.14607
 H1932 H 0.63810 0.92754 -0.11625
 H1933 H 0.63642 0.85650 -0.07306
 H1934 H 0.65560 0.82859 -0.10308
 H1935 H 0.59223 0.87669 -0.06642
 H1936 H 0.56325 0.90314 -0.04109
 H1937 H 0.61339 0.97506 -0.05339
 H1938 H 0.64318 0.94826 -0.07896
 C1939 C 1.17004 0.34527 0.35441
 C1940 C 1.16154 0.34932 0.33205
 C1941 C 1.17205 0.33279 0.31477
 C1942 C 1.19121 0.31166 0.31940
 C1943 C 1.19937 0.30741 0.34180
 C1944 C 1.18904 0.32401 0.35899
 C1945 C 1.15898 0.36284 0.37293
 C1946 C 1.15342 0.35150 0.39415
 C1947 C 1.14228 0.36758 0.41135
 C1948 C 1.13610 0.39547 0.40785
 C1949 C 1.14238 0.40708 0.38685
 C1950 C 1.15367 0.39097 0.36962
 C1951 C 1.12077 0.41150 0.42527
 C1952 C 1.12618 0.43958 0.42909
 C1953 C 1.10938 0.45485 0.44388
 C1954 C 1.08676 0.44231 0.45482
 C1955 C 1.08228 0.41408 0.45178
 C1956 C 1.09903 0.39890 0.43729
 H1957 H 1.14657 0.36515 0.32789
 H1958 H 1.16528 0.33669 0.29775
 H1959 H 1.21428 0.29156 0.34609
 H1960 H 1.19646 0.32047 0.37588
 H1961 H 1.15694 0.32992 0.39737
 H1962 H 1.13805 0.35799 0.42737
 H1963 H 1.13765 0.42839 0.38346
 H1964 H 1.15812 0.40057 0.35365
 H1965 H 1.14295 0.44986 0.42025
 H1966 H 1.11305 0.47662 0.44576
 H1967 H 1.06490 0.40393 0.45996
 H1968 H 1.09390 0.37751 0.43463
 C1969 C 0.33435 0.83688 0.14366
 C1970 C 0.34288 0.84087 0.16601
 C1971 C 0.33266 0.82408 0.18326
 C1972 C 0.31374 0.80269 0.17864
 C1973 C 0.30577 0.79827 0.15623
 C1974 C 0.31583 0.81516 0.13903
 C1975 C 0.34470 0.85519 0.12528
 C1976 C 0.35025 0.84460 0.10382
 C1977 C 0.36084 0.86145 0.08682
 C1978 C 0.36647 0.88938 0.09076
 C1979 C 0.36014 0.90021 0.11200
 C1980 C 0.34938 0.88336 0.12901
 C1981 C 0.38128 0.90633 0.07355
 C1982 C 0.37554 0.93451 0.07058
 C1983 C 0.39208 0.95071 0.05621
 C1984 C 0.41475 0.93899 0.04479
 C1985 C 0.41949 0.91069 0.04690
 C1986 C 0.40301 0.89459 0.06099
 H1987 H 0.35755 0.85698 0.17021
 H1988 H 0.33930 0.82814 0.20028
 H1989 H 0.29104 0.78223 0.15198
 H1990 H 0.30844 0.81159 0.12215
 H1991 H 0.34715 0.82304 0.10026
 H1992 H 0.36508 0.85242 0.07061
 H1993 H 0.36443 0.92152 0.11575
 H1994 H 0.34486 0.89242 0.14514
 H1995 H 0.35878 0.94417 0.07983
 H1996 H 0.38824 0.97256 0.05509
 H1997 H 0.43696 0.90118 0.03837
 H1998 H 0.40842 0.87317 0.06299
 C1999 C 0.83627 0.33761 0.64555
 C2000 C 0.81445 0.31924 0.64075
 C2001 C 0.80349 0.30218 0.65750
 C2002 C 0.81381 0.30334 0.67958
 C2003 C 0.83577 0.32164 0.68433
 C2004 C 0.84698 0.33842 0.66749
 C2005 C 0.84819 0.35555 0.62770
 C2006 C 0.87726 0.35825 0.62546
 C2007 C 0.88870 0.37446 0.60845
 C2008 C 0.87140 0.38866 0.59332
 C2009 C 0.84229 0.38653 0.59579
 C2010 C 0.83079 0.36991 0.61269
 C2011 C 0.88426 0.40493 0.57487
 C2012 C 0.87677 0.43244 0.57074
 C2013 C 0.89245 0.44863 0.55572
 C2014 C 0.91565 0.43736 0.54464
 C2015 C 0.92153 0.40934 0.54750
 C2016 C 0.90608 0.39336 0.56239
 H2017 H 0.80599 0.31792 0.62396
 H2018 H 0.78644 0.28852 0.65324
 H2019 H 0.84416 0.32321 0.70113
 H2020 H 0.86371 0.35246 0.67174
 H2021 H 0.89121 0.34736 0.63664
 H2022 H 0.91122 0.37595 0.60711
 H2023 H 0.82849 0.39723 0.58436
 H2024 H 0.80829 0.36842 0.61414
 H2025 H 0.85998 0.44184 0.58014
 H2026 H 0.88770 0.47024 0.55400
 H2027 H 0.93921 0.40009 0.53906
 H2028 H 0.91196 0.37212 0.56486
 C2029 C 1.15220 1.14824 0.66162
 C2030 C 1.16501 1.17201 0.65307
 C2031 C 1.18227 1.18792 0.66672
 C2032 C 1.18671 1.18028 0.68909
 C2033 C 1.17453 1.15601 0.69731
 C2034 C 1.15743 1.14018 0.68371
 C2035 C 1.13291 1.13207 0.64776
 C2036 C 1.13440 1.10330 0.64776
 C2037 C 1.11664 1.08803 0.63414
 C2038 C 1.09724 1.10136 0.62034
 C2039 C 1.09496 1.13005 0.62105
 C2040 C 1.11271 1.14531 0.63464
 C2041 C 1.08197 1.08580 0.60323
 C2042 C 1.08217 1.09539 0.58113
 C2043 C 1.07000 1.08005 0.56424
 C2044 C 1.05729 1.05475 0.56907
 C2045 C 1.05643 1.04532 0.59129
 C2046 C 1.06894 1.06071 0.60830
 H2047 H 1.16152 1.17834 0.63589
 H2048 H 1.19143 1.20651 0.65999
 H2049 H 1.17774 1.14943 0.71445
 H2050 H 1.14763 1.12205 0.69070
 H2051 H 1.14992 1.09269 0.65773
 H2052 H 1.11898 1.06594 0.63358
 H2053 H 1.07989 1.14067 0.61065
 H2054 H 1.11078 1.16745 0.63482
 H2055 H 1.09253 1.11444 0.57678
 H2056 H 1.07071 1.08805 0.54731
 H2057 H 1.04662 1.02593 0.59541
 H2058 H 1.06861 1.05303 0.62532
 C2059 C 0.65433 0.64764 0.16041
 C2060 C 0.66602 0.67220 0.15234
 C2061 C 0.68346 0.68790 0.16601
 C2062 C 0.68917 0.67927 0.18796
 C2063 C 0.67829 0.65415 0.19562
 C2064 C 0.66104 0.63851 0.18198
 C2065 C 0.63437 0.63194 0.14676
 C2066 C 0.63625 0.60323 0.14558
 C2067 C 0.61758 0.58845 0.13237
 C2068 C 0.59682 0.60219 0.12017
 C2069 C 0.59429 0.63078 0.12205
 C2070 C 0.61297 0.64555 0.13521
 C2071 C 0.58019 0.58723 0.10347
 C2072 C 0.57789 0.59809 0.08182
 C2073 C 0.56504 0.58308 0.06502
 C2074 C 0.55416 0.55690 0.06951
 C2075 C 0.55540 0.54635 0.09137
 C2076 C 0.56856 0.56140 0.10827
 H2077 H 0.66137 0.67939 0.13557
 H2078 H 0.69160 0.70717 0.15973
 H2079 H 0.68253 0.64684 0.21242
 H2080 H 0.65214 0.61974 0.18860
 H2081 H 0.65266 0.59233 0.15434
 H2082 H 0.62017 0.56646 0.13087
 H2083 H 0.57822 0.64173 0.11293
 H2084 H 0.61074 0.66762 0.13634
 H2085 H 0.58702 0.61777 0.07763
 H2086 H 0.56408 0.59187 0.04837
 H2087 H 0.54705 0.52622 0.09520
 H2088 H 0.57005 0.55276 0.12494
 C2089 C 1.15236 0.84715 0.33656
 C2090 C 1.17301 0.83031 0.34610
 C2091 C 1.19008 0.81431 0.33246
 C2092 C 1.18671 0.81507 0.30913
 C2093 C 1.16615 0.83219 0.29972
 C2094 C 1.14913 0.84801 0.31330
 C2095 C 1.13392 0.86364 0.35079
 C2096 C 1.12763 0.89090 0.34500
 C2097 C 1.11097 0.90679 0.35901
 C2098 C 1.10067 0.89556 0.37895
 C2099 C 1.10603 0.86804 0.38428
 C2100 C 1.12253 0.85217 0.37028
 C2101 C 1.08691 0.91300 0.39547
 C2102 C 1.09707 0.91290 0.41741
 C2103 C 1.08371 0.92795 0.43381
 C2104 C 1.05981 0.94336 0.42860
 C2105 C 1.05021 0.94445 0.40638
 C2106 C 1.06382 0.92930 0.38980
 H2107 H 1.17604 0.82967 0.36407
 H2108 H 1.20581 0.80139 0.34014
 H2109 H 1.16283 0.83317 0.28179
 H2110 H 1.13310 0.86056 0.30563
 H2111 H 1.13633 0.90017 0.33006
 H2112 H 1.10720 0.92810 0.35484
 H2113 H 1.09795 0.85908 0.39958
 H2114 H 1.12658 0.83100 0.37476
 H2115 H 1.11530 0.90092 0.42190
 H2116 H 1.09197 0.92714 0.45069
 H2117 H 1.03187 0.95628 0.40198
 H2118 H 1.05592 0.92963 0.37279
 C2119 C 0.65379 0.34498 -0.16109
 C2120 C 0.64813 0.34367 -0.18405
 C2121 C 0.66456 0.32759 -0.19791
 C2122 C 0.68698 0.31238 -0.18908
 C2123 C 0.69250 0.31340 -0.16603
 C2124 C 0.67602 0.32967 -0.15211
 C2125 C 0.63649 0.36241 -0.14664
 C2126 C 0.62777 0.35273 -0.12567
 C2127 C 0.61211 0.36949 -0.11171
 C2128 C 0.60497 0.39613 -0.11852
 C2129 C 0.61282 0.40557 -0.13975
 C2130 C 0.62863 0.38881 -0.15372
 C2131 C 0.59111 0.41446 -0.10266
 C2132 C 0.56687 0.42895 -0.10857
 C2133 C 0.55277 0.44439 -0.09245
 C2134 C 0.56295 0.44535 -0.07041
 C2135 C 0.58807 0.43203 -0.06503
 C2136 C 0.60198 0.41671 -0.08100
 H2137 H 0.63079 0.35488 -0.19127
 H2138 H 0.65951 0.32702 -0.21559
 H2139 H 0.70966 0.30193 -0.15882
 H2140 H 0.68088 0.33062 -0.13441
 H2141 H 0.63309 0.33225 -0.12008
 H2142 H 0.60583 0.36182 -0.09543
 H2143 H 0.60762 0.42617 -0.14513
 H2144 H 0.63534 0.39675 -0.16979
 H2145 H 0.55837 0.42747 -0.12534
 H2146 H 0.53350 0.45463 -0.09696
 H2147 H 0.59676 0.43293 -0.04828
 H2148 H 0.62106 0.40620 -0.07635
 C2149 C 0.84270 1.14445 0.33937
 C2150 C 0.82642 1.16543 0.34886
 C2151 C 0.81124 1.18319 0.33514
 C2152 C 0.81221 1.18015 0.31178
 C2153 C 0.82810 1.15872 0.30247
 C2154 C 0.84314 1.14108 0.31612
 C2155 C 0.86000 1.12661 0.35355
 C2156 C 0.88771 1.12080 0.34738
 C2157 C 0.90470 1.10523 0.36140
 C2158 C 0.89419 1.09541 0.38177
 C2159 C 0.86618 1.10027 0.38751
 C2160 C 0.84920 1.11580 0.37350
 C2161 C 0.91293 1.08245 0.39806
 C2162 C 0.91261 1.09177 0.42020
 C2163 C 0.92951 1.07955 0.43615
 C2164 C 0.94704 1.05757 0.43034
 C2165 C 0.94820 1.04881 0.40795
 C2166 C 0.93123 1.06130 0.39183
 H2167 H 0.82600 1.16848 0.36682
 H2168 H 0.79914 1.19945 0.34276
 H2169 H 0.82913 1.15555 0.28454
 H2170 H 0.85519 1.12479 0.30848
 H2171 H 0.89652 1.12914 0.33211
 H2172 H 0.92634 1.10193 0.35685
 H2173 H 0.85765 1.09252 0.40309
 H2174 H 0.82774 1.11959 0.37833
 H2175 H 0.89917 1.10856 0.42520
 H2176 H 0.92839 1.08712 0.45317
 H2177 H 0.96159 1.03197 0.40303
 H2178 H 0.93185 1.05403 0.37470
 C2179 C 0.35311 0.65677 -0.15985
 C2180 C 0.35942 0.65937 -0.18263
 C2181 C 0.34261 0.67522 -0.19644
 C2182 C 0.31915 0.68893 -0.18775
 C2183 C 0.31308 0.68680 -0.16483
 C2184 C 0.32994 0.67075 -0.15097
 C2185 C 0.37063 0.63925 -0.14551
 C2186 C 0.37807 0.64803 -0.12398
 C2187 C 0.39393 0.63115 -0.11019
 C2188 C 0.40260 0.60525 -0.11772
 C2189 C 0.39596 0.59673 -0.13946
 C2190 C 0.37996 0.61360 -0.15327
 C2191 C 0.41674 0.58663 -0.10213
 C2192 C 0.44163 0.57319 -0.10800
 C2193 C 0.45574 0.55727 -0.09210
 C2194 C 0.44492 0.55475 -0.07034
 C2195 C 0.41924 0.56706 -0.06507
 C2196 C 0.40535 0.58285 -0.08078
 H2197 H 0.37747 0.64925 -0.18977
 H2198 H 0.34812 0.67672 -0.21400
 H2199 H 0.29511 0.69710 -0.15773
 H2200 H 0.32456 0.66883 -0.13342
 H2201 H 0.37161 0.66792 -0.11782
 H2202 H 0.39921 0.63816 -0.09350
 H2203 H 0.40228 0.57670 -0.14543
 H2204 H 0.37424 0.60630 -0.16977
 H2205 H 0.45058 0.57584 -0.12452
 H2206 H 0.47547 0.54787 -0.09653
 H2207 H 0.41006 0.56498 -0.04857
 H2208 H 0.38582 0.59250 -0.07614
 C2209 C 0.83763 0.85189 0.65414
 C2210 C 0.82630 0.82701 0.64644
 C2211 C 0.81080 0.81041 0.66090
 C2212 C 0.80666 0.81854 0.68317
 C2213 C 0.81699 0.84402 0.69044
 C2214 C 0.83231 0.86053 0.67606
 C2215 C 0.85601 0.86835 0.63975
 C2216 C 0.88100 0.87920 0.64840
 C2217 C 0.89895 0.89410 0.63466
 C2218 C 0.89215 0.89816 0.61209
 C2219 C 0.86688 0.88784 0.60358
 C2220 C 0.84895 0.87299 0.61731
 C2221 C 0.91177 0.91204 0.59700
 C2222 C 0.91712 0.90053 0.57597
 C2223 C 0.93357 0.91443 0.56063
 C2224 C 0.94501 0.94009 0.56604
 C2225 C 0.94109 0.95099 0.58754
 C2226 C 0.92444 0.93698 0.60300
 H2227 H 0.83029 0.81996 0.62955
 H2228 H 0.80299 0.79087 0.65493
 H2229 H 0.81363 0.85107 0.70743
 H2230 H 0.84033 0.87992 0.68215
 H2231 H 0.88699 0.87554 0.66565
 H2232 H 0.91848 0.90169 0.64143
 H2233 H 0.86110 0.89118 0.58625
 H2234 H 0.82958 0.86516 0.61043
 H2235 H 0.90813 0.88096 0.57126
 H2236 H 0.93683 0.90533 0.54429
 H2237 H 0.94981 0.97076 0.59201
 H2238 H 0.92054 0.94610 0.61924
 C2239 C 0.34434 0.34745 0.15553
 C2240 C 0.33920 0.35654 0.17736
 C2241 C 0.32232 0.34128 0.19154
 C2242 C 0.31027 0.31657 0.18419
 C2243 C 0.31451 0.30793 0.16205
 C2244 C 0.33158 0.32327 0.14780
 C2245 C 0.36390 0.36279 0.14129
 C2246 C 0.38437 0.34880 0.12901
 C2247 C 0.40317 0.36335 0.11579
 C2248 C 0.40169 0.39206 0.11464
 C2249 C 0.38166 0.40610 0.12733
 C2250 C 0.36286 0.39155 0.14056
 C2251 C 0.41900 0.40711 0.09850
 C2252 C 0.43191 0.43199 0.10433
 C2253 C 0.44600 0.44730 0.08810
 C2254 C 0.44694 0.43797 0.06589
 C2255 C 0.43466 0.41271 0.06033
 C2256 C 0.42085 0.39743 0.07648
 H2257 H 0.34900 0.37499 0.18373
 H2258 H 0.31922 0.34860 0.20848
 H2259 H 0.30543 0.28897 0.15601
 H2260 H 0.33506 0.31613 0.13086
 H2261 H 0.38592 0.32665 0.12977
 H2262 H 0.41867 0.35219 0.10623
 H2263 H 0.37988 0.42822 0.12636
 H2264 H 0.34714 0.40272 0.14986
 H2265 H 0.43072 0.43968 0.12131
 H2266 H 0.45544 0.46668 0.09277
 H2267 H 0.43535 0.40486 0.04337
 H2268 H 0.41071 0.37850 0.07155
   
