data_POSCAR
  _audit_creation_date              2014-09-24
  _audit_creation_method            'ToBaCCo'
  _symmetry_space_group_name_H-M    'P1'
  _symmetry_Int_Tables_number       1
  _symmetry_cell_setting            triclinic
  loop_
  _symmetry_equiv_pos_as_xyz
 x,y,z
_cell_length_a 88.8846
_cell_length_b 88.9677
_cell_length_c 88.9033
_cell_angle_alpha 89.917300
_cell_angle_beta 89.925700
_cell_angle_gamma 89.908000
loop_
  _atom_site_label
  _atom_site_type_symbol
  _atom_site_fract_x
  _atom_site_fract_y
  _atom_site_fract_z
N1 N 0.37369 0.33221 0.34210
 N2 N 0.37260 0.34216 0.33119
 C3 C 0.38335 0.33939 0.32086
 C4 C 0.39154 0.32714 0.32563
 C5 C 0.38516 0.32277 0.33907
 H6 H 0.38479 0.34545 0.31040
 H7 H 0.38825 0.31314 0.34583
 Cu8 Cu 0.35673 0.35719 0.33108
 Cu9 Cu 0.35937 0.33147 0.35866
 Cu10 Cu 0.33120 0.35851 0.35901
 N11 N 0.34116 0.37252 0.33162
 N12 N 0.33125 0.37309 0.34262
 C13 C 0.32145 0.38434 0.33989
 C14 C 0.32556 0.39112 0.32654
 C15 C 0.33802 0.38339 0.32155
 H16 H 0.31182 0.38708 0.34681
 H17 H 0.34402 0.38528 0.31113
 N18 N 0.33307 0.34278 0.37457
 N19 N 0.34384 0.33252 0.37444
 C20 C 0.34139 0.32268 0.38571
 C21 C 0.32856 0.32701 0.39324
 C22 C 0.32349 0.33971 0.38593
 H23 H 0.34796 0.31265 0.38781
 H24 H 0.31319 0.34576 0.38824
 H25 H 0.34148 0.34121 0.34736
 H26 H 0.35400 0.35410 0.35817
 N27 N 0.37474 0.83236 -0.15700
 N28 N 0.37366 0.84162 -0.16850
 C29 C 0.38458 0.83836 -0.17852
 C30 C 0.39285 0.82652 -0.17287
 C31 C 0.38635 0.82290 -0.15929
 H32 H 0.38601 0.84373 -0.18935
 H33 H 0.38935 0.81362 -0.15200
 Cu34 Cu 0.35752 0.85636 -0.16992
 Cu35 Cu 0.36002 0.83209 -0.14087
 Cu36 Cu 0.33194 0.85903 -0.14190
 N37 N 0.34234 0.87213 -0.16955
 N38 N 0.33247 0.87324 -0.15856
 C39 C 0.32302 0.88474 -0.16150
 C40 C 0.32732 0.89111 -0.17498
 C41 C 0.33953 0.88289 -0.17985
 H42 H 0.31347 0.88788 -0.15463
 H43 H 0.34560 0.88437 -0.19030
 N44 N 0.33331 0.84364 -0.12598
 N45 N 0.34413 0.83346 -0.12555
 C46 C 0.34138 0.82382 -0.11419
 C47 C 0.32829 0.82819 -0.10717
 C48 C 0.32338 0.84072 -0.11488
 H49 H 0.34791 0.81385 -0.11172
 H50 H 0.31295 0.84673 -0.11304
 H51 H 0.34219 0.84128 -0.15281
 H52 H 0.35476 0.85476 -0.14271
 N53 N 0.87279 0.33236 -0.15903
 N54 N 0.87163 0.34227 -0.16997
 C55 C 0.88241 0.33953 -0.18029
 C56 C 0.89068 0.32733 -0.17551
 C57 C 0.88432 0.32298 -0.16204
 H58 H 0.88387 0.34566 -0.19071
 H59 H 0.88754 0.31343 -0.15521
 Cu60 Cu 0.85581 0.35741 -0.17024
 Cu61 Cu 0.85860 0.33172 -0.14234
 Cu62 Cu 0.83158 0.35970 -0.14112
 N63 N 0.84101 0.37349 -0.16871
 N64 N 0.83177 0.37449 -0.15718
 C65 C 0.82229 0.38611 -0.15936
 C66 C 0.82590 0.39271 -0.17291
 C67 C 0.83773 0.38447 -0.17864
 H68 H 0.81305 0.38908 -0.15202
 H69 H 0.84311 0.38600 -0.18946
 N70 N 0.83302 0.34376 -0.12587
 N71 N 0.84324 0.33297 -0.12637
 C72 C 0.84037 0.32300 -0.11530
 C73 C 0.82784 0.32785 -0.10753
 C74 C 0.82342 0.34095 -0.11448
 H75 H 0.84643 0.31260 -0.11351
 H76 H 0.81345 0.34746 -0.11194
 H77 H 0.84079 0.34198 -0.15316
 H78 H 0.85429 0.35452 -0.14304
 N79 N 0.87244 0.83204 0.34140
 N80 N 0.87181 0.84236 0.33080
 C81 C 0.88258 0.83953 0.32049
 C82 C 0.89031 0.82685 0.32496
 C83 C 0.88362 0.82231 0.33821
 H84 H 0.88441 0.84591 0.31029
 H85 H 0.88638 0.81243 0.34476
 Cu86 Cu 0.85646 0.85797 0.33111
 Cu87 Cu 0.85805 0.83138 0.35799
 Cu88 Cu 0.83096 0.85949 0.35895
 N89 N 0.84126 0.87374 0.33180
 N90 N 0.83143 0.87435 0.34287
 C91 C 0.82175 0.88572 0.34034
 C92 C 0.82580 0.89256 0.32704
 C93 C 0.83814 0.88473 0.32181
 H94 H 0.81212 0.88840 0.34730
 H95 H 0.84399 0.88653 0.31128
 N96 N 0.83225 0.84347 0.37420
 N97 N 0.84249 0.83270 0.37382
 C98 C 0.83962 0.82282 0.38498
 C99 C 0.82706 0.82771 0.39267
 C100 C 0.82262 0.84075 0.38559
 H101 H 0.84573 0.81249 0.38693
 H102 H 0.81268 0.84730 0.38810
 H103 H 0.84064 0.84203 0.34689
 H104 H 0.85360 0.85410 0.35810
 N105 N 0.62783 0.66831 0.34208
 N106 N 0.62865 0.65822 0.33129
 C107 C 0.61792 0.66114 0.32100
 C108 C 0.61002 0.67364 0.32566
 C109 C 0.61656 0.67797 0.33901
 H110 H 0.61623 0.65494 0.31068
 H111 H 0.61364 0.68767 0.34574
 Cu112 Cu 0.64412 0.64272 0.33138
 Cu113 Cu 0.64205 0.66873 0.35875
 Cu114 Cu 0.66920 0.64069 0.35954
 N115 N 0.65932 0.62696 0.33207
 N116 N 0.66896 0.62613 0.34326
 C117 C 0.67863 0.61475 0.34071
 C118 C 0.67478 0.60813 0.32726
 C119 C 0.66255 0.61610 0.32200
 H120 H 0.68810 0.61189 0.34778
 H121 H 0.65683 0.61445 0.31140
 N122 N 0.66770 0.65644 0.37499
 N123 N 0.65745 0.66721 0.37466
 C124 C 0.66027 0.67699 0.38588
 C125 C 0.67279 0.67203 0.39356
 C126 C 0.67727 0.65907 0.38641
 H127 H 0.65418 0.68734 0.38783
 H128 H 0.68726 0.65256 0.38885
 H129 H 0.65964 0.65835 0.34766
 H130 H 0.64653 0.64600 0.35846
 N131 N 0.62712 0.16834 -0.15640
 N132 N 0.62764 0.15887 -0.16774
 C133 C 0.61670 0.16242 -0.17761
 C134 C 0.60899 0.17468 -0.17208
 C135 C 0.61586 0.17823 -0.15867
 H136 H 0.61478 0.15688 -0.18826
 H137 H 0.61322 0.18762 -0.15141
 Cu138 Cu 0.64301 0.14333 -0.16898
 Cu139 Cu 0.64189 0.16799 -0.14027
 Cu140 Cu 0.66885 0.13986 -0.14149
 N141 N 0.65786 0.12723 -0.16908
 N142 N 0.66781 0.12581 -0.15822
 C143 C 0.67705 0.11422 -0.16138
 C144 C 0.67255 0.10810 -0.17487
 C145 C 0.66044 0.11658 -0.17954
 H146 H 0.68662 0.11086 -0.15467
 H147 H 0.65432 0.11537 -0.18998
 N148 N 0.66809 0.15513 -0.12549
 N149 N 0.65779 0.16584 -0.12501
 C150 C 0.66104 0.17527 -0.11362
 C151 C 0.67392 0.17019 -0.10666
 C152 C 0.67816 0.15747 -0.11441
 H153 H 0.65502 0.18553 -0.11110
 H154 H 0.68828 0.15095 -0.11264
 H155 H 0.65912 0.15802 -0.15236
 H156 H 0.64620 0.14520 -0.14184
 N157 N 0.12631 0.66788 -0.15855
 N158 N 0.12786 0.65799 -0.16943
 C159 C 0.11713 0.66042 -0.17985
 C160 C 0.10847 0.67239 -0.17516
 C161 C 0.11456 0.67693 -0.16167
 H162 H 0.11600 0.65431 -0.19030
 H163 H 0.11108 0.68645 -0.15496
 Cu164 Cu 0.14420 0.64341 -0.16952
 Cu165 Cu 0.14041 0.66912 -0.14190
 Cu166 Cu 0.16861 0.64231 -0.14050
 N167 N 0.15958 0.62791 -0.16788
 N168 N 0.16895 0.62739 -0.15645
 C169 C 0.17874 0.61601 -0.15852
 C170 C 0.17522 0.60907 -0.17190
 C171 C 0.16309 0.61685 -0.17761
 H172 H 0.18805 0.61335 -0.15116
 H173 H 0.15759 0.61489 -0.18828
 N174 N 0.16649 0.65833 -0.12539
 N175 N 0.15574 0.66859 -0.12594
 C176 C 0.15805 0.67872 -0.11493
 C177 C 0.17078 0.67455 -0.10714
 C178 C 0.17591 0.66167 -0.11402
 H179 H 0.15146 0.68879 -0.11319
 H180 H 0.18617 0.65566 -0.11143
 H181 H 0.15868 0.65949 -0.15267
 H182 H 0.14576 0.64646 -0.14235
 N183 N 0.12667 0.16850 0.34167
 N184 N 0.12754 0.15805 0.33124
 C185 C 0.11683 0.16059 0.32082
 C186 C 0.10886 0.17320 0.32507
 C187 C 0.11536 0.17801 0.33827
 H188 H 0.11524 0.15410 0.31067
 H189 H 0.11242 0.18794 0.34464
 Cu190 Cu 0.14327 0.14284 0.33188
 Cu191 Cu 0.14095 0.16968 0.35826
 Cu192 Cu 0.16899 0.14249 0.35948
 N193 N 0.15899 0.12761 0.33259
 N194 N 0.16898 0.12751 0.34350
 C195 C 0.17899 0.11641 0.34100
 C196 C 0.17500 0.10923 0.32788
 C197 C 0.16234 0.11659 0.32274
 H198 H 0.18872 0.11406 0.34791
 H199 H 0.15638 0.11439 0.31239
 N200 N 0.16710 0.15861 0.37459
 N201 N 0.15644 0.16897 0.37411
 C202 C 0.15881 0.17897 0.38522
 C203 C 0.17148 0.17463 0.39301
 C204 C 0.17652 0.16176 0.38602
 H205 H 0.15225 0.18905 0.38711
 H206 H 0.18668 0.15560 0.38864
 H207 H 0.15872 0.15943 0.34726
 H208 H 0.14625 0.14711 0.35878
 N209 N 0.62737 0.33183 0.65714
 N210 N 0.62775 0.34185 0.66802
 C211 C 0.61692 0.33858 0.67814
 C212 C 0.60940 0.32596 0.67321
 C213 C 0.61629 0.32191 0.65993
 H214 H 0.61494 0.34461 0.68851
 H215 H 0.61378 0.31217 0.65312
 Cu216 Cu 0.64304 0.35751 0.66823
 Cu217 Cu 0.64198 0.33163 0.64077
 Cu218 Cu 0.66905 0.35967 0.64092
 N219 N 0.65825 0.37325 0.66823
 N220 N 0.66828 0.37408 0.65736
 C221 C 0.67792 0.38535 0.66029
 C222 C 0.67368 0.39189 0.67366
 C223 C 0.66123 0.38398 0.67851
 H224 H 0.68765 0.38817 0.65354
 H225 H 0.65517 0.38560 0.68893
 N226 N 0.66800 0.34407 0.62526
 N227 N 0.65773 0.33335 0.62522
 C228 C 0.66079 0.32373 0.61391
 C229 C 0.67349 0.32872 0.60656
 C230 C 0.67783 0.34155 0.61400
 H231 H 0.65472 0.31345 0.61166
 H232 H 0.68786 0.34808 0.61184
 H233 H 0.65920 0.34196 0.65240
 H234 H 0.64645 0.35433 0.64121
 N235 N 0.62800 0.83202 1.15804
 N236 N 0.62875 0.84203 1.16889
 C237 C 0.61797 0.83907 1.17913
 C238 C 0.61009 0.82664 1.17436
 C239 C 0.61671 0.82236 1.16100
 H240 H 0.61623 0.84520 1.18948
 H241 H 0.61381 0.81273 1.15419
 Cu242 Cu 0.64420 0.85750 1.16895
 Cu243 Cu 0.64232 0.83167 1.14140
 Cu244 Cu 0.66949 0.85959 1.14092
 N245 N 0.65941 0.87320 1.16844
 N246 N 0.66915 0.87405 1.15731
 C247 C 0.67877 0.88541 1.15995
 C248 C 0.67479 0.89199 1.17339
 C249 C 0.66255 0.88401 1.17857
 H250 H 0.68828 0.88831 1.15292
 H251 H 0.65673 0.88563 1.18914
 N252 N 0.66809 0.84396 1.12536
 N253 N 0.65782 0.83324 1.12556
 C254 C 0.66069 0.82354 1.11428
 C255 C 0.67328 0.82849 1.10668
 C256 C 0.67774 0.84136 1.11396
 H257 H 0.65459 0.81325 1.11220
 H258 H 0.68774 0.84786 1.11160
 H259 H 0.65982 0.84189 1.15265
 H260 H 0.64680 0.85437 1.14185
 N261 N 0.12764 0.33159 1.15799
 N262 N 0.12834 0.34144 1.16899
 C263 C 0.11745 0.33839 1.17910
 C264 C 0.10958 0.32606 1.17410
 C265 C 0.11629 0.32194 1.16073
 H266 H 0.11561 0.34440 1.18951
 H267 H 0.11342 0.31240 1.15378
 Cu268 Cu 0.14373 0.35692 1.16951
 Cu269 Cu 0.14211 0.33150 1.14151
 Cu270 Cu 0.16903 0.35965 1.14144
 N271 N 0.15862 0.37289 1.16898
 N272 N 0.16837 0.37404 1.15790
 C273 C 0.17771 0.38561 1.16067
 C274 C 0.17349 0.39201 1.17415
 C275 C 0.16141 0.38371 1.17918
 H276 H 0.18719 0.38878 1.15373
 H277 H 0.15549 0.38516 1.18971
 N278 N 0.16793 0.34407 1.12578
 N279 N 0.15772 0.33329 1.12582
 C280 C 0.16073 0.32369 1.11449
 C281 C 0.17335 0.32874 1.10702
 C282 C 0.17768 0.34160 1.11442
 H283 H 0.15469 0.31338 1.11229
 H284 H 0.18766 0.34819 1.11218
 H285 H 0.15952 0.34175 1.15293
 H286 H 0.14636 0.35430 1.14236
 N287 N 0.12699 0.83233 0.65806
 N288 N 0.12814 0.84175 0.66939
 C289 C 0.11711 0.83893 0.67938
 C290 C 0.10864 0.82718 0.67398
 C291 C 0.11517 0.82316 0.66048
 H292 H 0.11569 0.84457 0.69006
 H293 H 0.11197 0.81389 0.65332
 Cu294 Cu 0.14463 0.85592 0.67092
 Cu295 Cu 0.14169 0.83189 0.64178
 Cu296 Cu 0.16897 0.85963 0.64210
 N297 N 0.15867 0.87257 0.66979
 N298 N 0.16816 0.87404 0.65853
 C299 C 0.17722 0.88586 0.66119
 C300 C 0.17307 0.89207 0.67478
 C301 C 0.16134 0.88340 0.68000
 H302 H 0.18655 0.88925 0.65415
 H303 H 0.15564 0.88453 0.69069
 N304 N 0.16796 0.84400 0.62647
 N305 N 0.15759 0.83338 0.62636
 C306 C 0.16062 0.82373 0.61507
 C307 C 0.17342 0.82860 0.60780
 C308 C 0.17784 0.84140 0.61526
 H309 H 0.15443 0.81353 0.61276
 H310 H 0.18792 0.84786 0.61314
 H311 H 0.15962 0.84132 0.65310
 H312 H 0.14626 0.85457 0.64366
 N313 N 0.37256 0.66840 0.65698
 N314 N 0.37177 0.65879 0.66822
 C315 C 0.38257 0.66211 0.67832
 C316 C 0.39046 0.67436 0.67303
 C317 C 0.38385 0.67813 0.65953
 H318 H 0.38428 0.65638 0.68892
 H319 H 0.38672 0.68755 0.65238
 Cu320 Cu 0.35624 0.64336 0.66894
 Cu321 Cu 0.35818 0.66839 0.64050
 Cu322 Cu 0.33118 0.64041 0.64074
 N323 N 0.34124 0.62740 0.66854
 N324 N 0.33167 0.62619 0.65733
 C325 C 0.32220 0.61473 0.66010
 C326 C 0.32609 0.60844 0.67370
 C327 C 0.33815 0.61670 0.67885
 H328 H 0.31281 0.61158 0.65305
 H329 H 0.34386 0.61533 0.68950
 N330 N 0.33239 0.65581 0.62490
 N331 N 0.34265 0.66654 0.62483
 C332 C 0.33962 0.67615 0.61350
 C333 C 0.32695 0.67114 0.60615
 C334 C 0.32260 0.65831 0.61363
 H335 H 0.34563 0.68648 0.61127
 H336 H 0.31253 0.65183 0.61154
 H337 H 0.34065 0.65840 0.65206
 H338 H 0.35384 0.64565 0.64175
 N339 N 0.37259 0.16779 1.15769
 N340 N 0.37221 0.15735 1.16818
 C341 C 0.38302 0.16016 1.17841
 C342 C 0.39052 0.17298 1.17401
 C343 C 0.38366 0.17760 1.16088
 H344 H 0.38495 0.15373 1.18859
 H345 H 0.38621 0.18757 1.15441
 Cu346 Cu 0.35699 0.14164 1.16811
 Cu347 Cu 0.35802 0.16844 1.14134
 Cu348 Cu 0.33094 0.14042 1.14076
 N349 N 0.34161 0.12608 1.16766
 N350 N 0.33154 0.12560 1.15683
 C351 C 0.32176 0.11442 1.15968
 C352 C 0.32598 0.10757 1.17294
 C353 C 0.33856 0.11521 1.17779
 H354 H 0.31196 0.11187 1.15297
 H355 H 0.34457 0.11341 1.18824
 N356 N 0.33209 0.15638 1.12547
 N357 N 0.34232 0.16714 1.12571
 C358 C 0.33936 0.17697 1.11454
 C359 C 0.32677 0.17207 1.10698
 C360 C 0.32239 0.15907 1.11415
 H361 H 0.34545 0.18728 1.11247
 H362 H 0.31244 0.15253 1.11174
 H363 H 0.34084 0.15775 1.15282
 H364 H 0.35359 0.14573 1.14120
 N365 N 0.87236 0.66820 1.15844
 N366 N 0.87166 0.65800 1.16916
 C367 C 0.88244 0.66082 1.17941
 C368 C 0.89025 0.67337 1.17479
 C369 C 0.88360 0.67784 1.16151
 H370 H 0.88422 0.65453 1.18967
 H371 H 0.88644 0.68762 1.15484
 Cu372 Cu 0.85625 0.64250 1.16905
 Cu373 Cu 0.85801 0.66879 1.14187
 Cu374 Cu 0.83090 0.64081 1.14113
 N375 N 0.84109 0.62675 1.16840
 N376 N 0.83132 0.62608 1.15731
 C377 C 0.82171 0.61467 1.15986
 C378 C 0.82573 0.60789 1.17320
 C379 C 0.83800 0.61579 1.17840
 H380 H 0.81216 0.61190 1.15288
 H381 H 0.84383 0.61400 1.18892
 N382 N 0.83224 0.65671 1.12577
 N383 N 0.84250 0.66743 1.12607
 C384 C 0.83965 0.67725 1.11486
 C385 C 0.82709 0.67238 1.10722
 C386 C 0.82262 0.65941 1.11439
 H387 H 0.84577 0.68755 1.11284
 H388 H 0.81266 0.65290 1.11195
 H389 H 0.84055 0.65833 1.15305
 H390 H 0.85357 0.64607 1.14202
 N391 N 0.87331 0.16796 0.65834
 N392 N 0.87214 0.15844 0.66962
 C393 C 0.88311 0.16122 0.67965
 C394 C 0.89154 0.17306 0.67435
 C395 C 0.88506 0.17716 0.66086
 H396 H 0.88450 0.15549 0.69030
 H397 H 0.88826 0.18651 0.65375
 Cu398 Cu 0.85573 0.14413 0.67100
 Cu399 Cu 0.85870 0.16849 0.64204
 Cu400 Cu 0.83140 0.14075 0.64217
 N401 N 0.84163 0.12755 0.66978
 N402 N 0.83214 0.12621 0.65853
 C403 C 0.82303 0.11439 0.66114
 C404 C 0.82716 0.10804 0.67468
 C405 C 0.83892 0.11662 0.67992
 H406 H 0.81370 0.11109 0.65409
 H407 H 0.84462 0.11537 0.69059
 N408 N 0.83250 0.15650 0.62661
 N409 N 0.84289 0.16710 0.62656
 C410 C 0.83994 0.17682 0.61529
 C411 C 0.82718 0.17202 0.60796
 C412 C 0.82269 0.15918 0.61538
 H413 H 0.84617 0.18701 0.61303
 H414 H 0.81262 0.15274 0.61320
 H415 H 0.84075 0.15892 0.65331
 H416 H 0.85412 0.14577 0.64374
 N417 N 0.33206 0.37382 0.65806
 N418 N 0.34193 0.37281 0.66902
 C419 C 0.33922 0.38376 0.67912
 C420 C 0.32707 0.39199 0.67415
 C421 C 0.32271 0.38542 0.66082
 H422 H 0.34523 0.38531 0.68957
 H423 H 0.31310 0.38847 0.65400
 Cu424 Cu 0.35684 0.35683 0.66964
 Cu425 Cu 0.33124 0.35919 0.64184
 Cu426 Cu 0.35830 0.33112 0.64186
 N427 N 0.37235 0.34145 0.66899
 N428 N 0.37300 0.33148 0.65809
 C429 C 0.38441 0.32187 0.66083
 C430 C 0.39122 0.32616 0.67407
 C431 C 0.38333 0.33854 0.67901
 H432 H 0.38723 0.31222 0.65399
 H433 H 0.38519 0.34463 0.68936
 N434 N 0.34246 0.33264 0.62641
 N435 N 0.33219 0.34339 0.62639
 C436 C 0.32234 0.34079 0.61518
 C437 C 0.32668 0.32787 0.60785
 C438 C 0.33940 0.32292 0.61520
 H439 H 0.31234 0.34736 0.61296
 H440 H 0.34552 0.31265 0.61298
 H441 H 0.34097 0.34146 0.65341
 H442 H 0.35396 0.35394 0.64256
 N443 N 0.33195 0.87338 0.15825
 N444 N 0.34220 0.87226 0.16886
 C445 C 0.33967 0.88295 0.17928
 C446 C 0.32727 0.89116 0.17487
 C447 C 0.32258 0.88482 0.16154
 H448 H 0.34601 0.88437 0.18956
 H449 H 0.31278 0.88794 0.15504
 Cu450 Cu 0.35721 0.85632 0.16844
 Cu451 Cu 0.33078 0.85919 0.14161
 Cu452 Cu 0.35766 0.83088 0.14057
 N453 N 0.37234 0.84051 0.16769
 N454 N 0.37251 0.83065 0.15667
 C455 C 0.38361 0.82062 0.15913
 C456 C 0.39072 0.82447 0.17233
 C457 C 0.38333 0.83707 0.17754
 H458 H 0.38601 0.81098 0.15212
 H459 H 0.38552 0.84295 0.18795
 N460 N 0.34170 0.83299 0.12532
 N461 N 0.33146 0.84376 0.12572
 C462 C 0.32151 0.84153 0.11452
 C463 C 0.32577 0.82882 0.10676
 C464 C 0.33853 0.82362 0.11386
 H465 H 0.31151 0.84819 0.11257
 H466 H 0.34458 0.81339 0.11129
 H467 H 0.34066 0.84124 0.15265
 H468 H 0.35334 0.85367 0.14144
 N469 N 0.83215 0.37332 0.15703
 N470 N 0.84370 0.37393 0.16626
 C471 C 0.84115 0.38463 0.17667
 C472 C 0.82734 0.39104 0.17369
 C473 C 0.82188 0.38364 0.16122
 H474 H 0.84857 0.38725 0.18594
 H475 H 0.81108 0.38534 0.15589
 Cu476 Cu 0.86058 0.36021 0.16431
 Cu477 Cu 0.83092 0.35857 0.14086
 Cu478 Cu 0.85880 0.33137 0.14003
 N479 N 0.87457 0.34346 0.16546
 N480 N 0.87392 0.33229 0.15580
 C481 C 0.88436 0.32194 0.15943
 C482 C 0.89190 0.32694 0.17198
 C483 C 0.88545 0.34057 0.17562
 H484 H 0.88598 0.31134 0.15372
 H485 H 0.88811 0.34760 0.18517
 N486 N 0.84252 0.33235 0.12509
 N487 N 0.83179 0.34265 0.12543
 C488 C 0.82180 0.33969 0.11443
 C489 C 0.82656 0.32701 0.10690
 C490 C 0.83965 0.32260 0.11389
 H491 H 0.81154 0.34591 0.11242
 H492 H 0.84621 0.31266 0.11139
 H493 H 0.84300 0.34280 0.15284
 H494 H 0.85355 0.35405 0.13852
 N495 N 0.83109 0.87323 0.65663
 N496 N 0.84122 0.87285 0.66742
 C497 C 0.83798 0.88364 0.67756
 C498 C 0.82525 0.89112 0.67275
 C499 C 0.82111 0.88426 0.65951
 H500 H 0.84411 0.88562 0.68787
 H501 H 0.81129 0.88675 0.65277
 Cu502 Cu 0.85697 0.85760 0.66748
 Cu503 Cu 0.83084 0.85867 0.64027
 Cu504 Cu 0.85902 0.83165 0.64023
 N505 N 0.87278 0.84240 0.66743
 N506 N 0.87355 0.83238 0.65658
 C507 C 0.88484 0.82271 0.65948
 C508 C 0.89146 0.82693 0.67281
 C509 C 0.88357 0.83938 0.67766
 H510 H 0.88762 0.81298 0.65274
 H511 H 0.88522 0.84543 0.68807
 N512 N 0.84330 0.83273 0.62469
 N513 N 0.83252 0.84297 0.62472
 C514 C 0.82284 0.83996 0.61346
 C515 C 0.82786 0.82731 0.60607
 C516 C 0.84076 0.82295 0.61342
 H517 H 0.81252 0.84601 0.61127
 H518 H 0.84732 0.81295 0.61120
 H519 H 0.84135 0.84145 0.65184
 H520 H 0.85359 0.85422 0.64053
 N521 N 0.66812 0.62691 0.65767
 N522 N 0.65768 0.62696 0.66817
 C523 C 0.66068 0.61601 0.67820
 C524 C 0.67351 0.60866 0.67360
 C525 C 0.67807 0.61584 0.66062
 H526 H 0.65429 0.61379 0.68833
 H527 H 0.68811 0.61353 0.65413
 Cu528 Cu 0.64192 0.64209 0.66844
 Cu529 Cu 0.66861 0.64188 0.64163
 Cu530 Cu 0.64043 0.66896 0.64192
 N531 N 0.62623 0.65731 0.66853
 N532 N 0.62568 0.66779 0.65810
 C533 C 0.61436 0.67736 0.66129
 C534 C 0.60755 0.67253 0.67437
 C535 C 0.61536 0.65991 0.67877
 H536 H 0.61167 0.68739 0.65495
 H537 H 0.61355 0.65344 0.68892
 N538 N 0.65636 0.66824 0.62650
 N539 N 0.66711 0.65797 0.62639
 C540 C 0.67681 0.66112 0.61515
 C541 C 0.67183 0.67389 0.60791
 C542 C 0.65893 0.67818 0.61534
 H543 H 0.68705 0.65499 0.61279
 H544 H 0.65231 0.68815 0.61317
 H545 H 0.65785 0.65872 0.65352
 H546 H 0.64583 0.64634 0.64163
 N547 N 0.66834 0.12716 0.15738
 N548 N 0.65859 0.12832 0.16846
 C549 C 0.66140 0.11749 0.17869
 C550 C 0.67349 0.10918 0.17369
 C551 C 0.67771 0.11557 0.16020
 H552 H 0.65544 0.11604 0.18920
 H553 H 0.68718 0.11237 0.15325
 Cu554 Cu 0.64361 0.14426 0.16911
 Cu555 Cu 0.66888 0.14147 0.14080
 Cu556 Cu 0.64108 0.16871 0.14020
 N557 N 0.62757 0.15912 0.16788
 N558 N 0.62649 0.16847 0.15646
 C559 C 0.61489 0.17792 0.15883
 C560 C 0.60840 0.17422 0.17240
 C561 C 0.61666 0.16231 0.17792
 H562 H 0.61182 0.18720 0.15158
 H563 H 0.61517 0.15680 0.18867
 N564 N 0.65681 0.16728 0.12473
 N565 N 0.66752 0.15697 0.12498
 C566 C 0.67733 0.15981 0.11375
 C567 C 0.67246 0.17243 0.10615
 C568 C 0.65951 0.17692 0.11336
 H569 H 0.68764 0.15366 0.11172
 H570 H 0.65303 0.18695 0.11099
 H571 H 0.65893 0.15925 0.15191
 H572 H 0.64611 0.14595 0.14188
 N573 N 0.16774 0.62649 0.15690
 N574 N 0.15667 0.62658 0.16674
 C575 C 0.15928 0.61590 0.17721
 C576 C 0.17261 0.60880 0.17357
 C577 C 0.17771 0.61575 0.16070
 H578 H 0.15226 0.61376 0.18692
 H579 H 0.18814 0.61349 0.15484
 Cu580 Cu 0.14028 0.64107 0.16533
 Cu581 Cu 0.16901 0.64092 0.14054
 Cu582 Cu 0.14225 0.66917 0.13988
 N583 N 0.12658 0.65815 0.16593
 N584 N 0.12732 0.66902 0.15591
 C585 C 0.11689 0.67951 0.15917
 C586 C 0.10927 0.67494 0.17188
 C587 C 0.11566 0.66140 0.17596
 H588 H 0.11523 0.68988 0.15301
 H589 H 0.11284 0.65462 0.18567
 N590 N 0.15826 0.66737 0.12463
 N591 N 0.16844 0.65654 0.12487
 C592 C 0.17846 0.65893 0.11375
 C593 C 0.17434 0.67181 0.10622
 C594 C 0.16156 0.67694 0.11334
 H595 H 0.18844 0.65225 0.11175
 H596 H 0.15556 0.68725 0.11093
 H597 H 0.15795 0.65757 0.15255
 H598 H 0.14639 0.64634 0.13905
 N599 N 0.16791 0.12543 0.65692
 N600 N 0.15741 0.12581 0.66735
 C601 C 0.16032 0.11506 0.67765
 C602 C 0.17321 0.10758 0.67329
 C603 C 0.17776 0.11439 0.66015
 H604 H 0.15389 0.11316 0.68781
 H605 H 0.18785 0.11193 0.65380
 Cu606 Cu 0.14159 0.14101 0.66708
 Cu607 Cu 0.16884 0.14002 0.64067
 Cu608 Cu 0.14176 0.16802 0.64037
 N609 N 0.12683 0.15723 0.66695
 N610 N 0.12691 0.16768 0.65646
 C611 C 0.11603 0.17780 0.65943
 C612 C 0.10883 0.17346 0.67245
 C613 C 0.11592 0.16043 0.67701
 H614 H 0.11388 0.18786 0.65294
 H615 H 0.11362 0.15407 0.68712
 N616 N 0.15768 0.16646 0.62500
 N617 N 0.16797 0.15573 0.62511
 C618 C 0.17794 0.15835 0.61399
 C619 C 0.17369 0.17127 0.60661
 C620 C 0.16087 0.17619 0.61381
 H621 H 0.18801 0.15184 0.61191
 H622 H 0.15481 0.18649 0.61155
 H623 H 0.15834 0.15714 0.65256
 H624 H 0.14614 0.14525 0.64028
 N625 N 0.33173 0.62740 0.34298
 N626 N 0.34149 0.62822 0.33186
 C627 C 0.33836 0.61739 0.32175
 C628 C 0.32608 0.60944 0.32690
 C629 C 0.32209 0.61605 0.34033
 H630 H 0.34422 0.61570 0.31121
 H631 H 0.31258 0.61316 0.34736
 Cu632 Cu 0.35682 0.64383 0.33128
 Cu633 Cu 0.33145 0.64184 0.35942
 Cu634 Cu 0.35920 0.66910 0.35932
 N635 N 0.37260 0.65900 0.33171
 N636 N 0.37358 0.66867 0.34284
 C637 C 0.38499 0.67823 0.34010
 C638 C 0.39146 0.67429 0.32660
 C639 C 0.38339 0.66210 0.32149
 H640 H 0.38797 0.68770 0.34710
 H641 H 0.38494 0.65631 0.31090
 N642 N 0.34365 0.66779 0.37502
 N643 N 0.33301 0.65744 0.37505
 C644 C 0.32333 0.66034 0.38637
 C645 C 0.32820 0.67304 0.39375
 C646 C 0.34102 0.67753 0.38632
 H647 H 0.31308 0.65419 0.38859
 H648 H 0.34744 0.68761 0.38847
 H649 H 0.34141 0.65937 0.34787
 H650 H 0.35418 0.64641 0.35843
 N651 N 0.33139 0.12676 0.84398
 N652 N 0.34098 0.12700 0.83270
 C653 C 0.33750 0.11589 0.82303
 C654 C 0.32516 0.10836 0.82863
 C655 C 0.32150 0.11551 0.84188
 H656 H 0.34313 0.11374 0.81245
 H657 H 0.31202 0.11307 0.84911
 Cu658 Cu 0.35652 0.14230 0.83125
 Cu659 Cu 0.33161 0.14184 0.85981
 Cu660 Cu 0.35966 0.16879 0.85807
 N661 N 0.37250 0.15721 0.83077
 N662 N 0.37378 0.16743 0.84137
 C663 C 0.38532 0.17664 0.83799
 C664 C 0.39155 0.17186 0.82463
 C665 C 0.38320 0.15958 0.82027
 H666 H 0.38859 0.18638 0.84447
 H667 H 0.38454 0.15321 0.81000
 N668 N 0.34431 0.16833 0.87409
 N669 N 0.33364 0.15803 0.87476
 C670 C 0.32424 0.16139 0.88618
 C671 C 0.32930 0.17434 0.89296
 C672 C 0.34197 0.17851 0.88506
 H673 H 0.31406 0.15534 0.88891
 H674 H 0.34851 0.18860 0.88674
 H675 H 0.34161 0.15878 0.84739
 H676 H 0.35441 0.14617 0.85830
 N677 N 0.83199 0.62724 0.84220
 N678 N 0.84201 0.62813 0.83133
 C679 C 0.83914 0.61739 0.82106
 C680 C 0.82674 0.60942 0.82581
 C681 C 0.82240 0.61592 0.83920
 H682 H 0.84531 0.61574 0.81069
 H683 H 0.81275 0.61294 0.84599
 Cu684 Cu 0.85743 0.64362 0.83121
 Cu685 Cu 0.83151 0.64147 0.85884
 Cu686 Cu 0.85960 0.66839 0.85968
 N687 N 0.87333 0.65860 0.83216
 N688 N 0.87426 0.66808 0.84346
 C689 C 0.88573 0.67763 0.84098
 C690 C 0.89230 0.67387 0.82747
 C691 C 0.88421 0.66182 0.82209
 H692 H 0.88864 0.68702 0.84812
 H693 H 0.88578 0.65627 0.81138
 N694 N 0.84376 0.66703 0.87507
 N695 N 0.83295 0.65686 0.87472
 C696 C 0.82307 0.65979 0.88586
 C697 C 0.82799 0.67230 0.89352
 C698 C 0.84105 0.67666 0.88644
 H699 H 0.81267 0.65379 0.88777
 H700 H 0.84758 0.68661 0.88886
 H701 H 0.84189 0.65905 0.84778
 H702 H 0.85430 0.64575 0.85834
 N703 N 0.83276 0.12634 0.34249
 N704 N 0.84428 0.12574 0.33319
 C705 C 0.84177 0.11501 0.32282
 C706 C 0.82801 0.10857 0.32590
 C707 C 0.82254 0.11597 0.33838
 H708 H 0.84918 0.11239 0.31352
 H709 H 0.81177 0.11424 0.34379
 Cu710 Cu 0.86110 0.13950 0.33503
 Cu711 Cu 0.83148 0.14111 0.35864
 Cu712 Cu 0.85922 0.16838 0.35927
 N713 N 0.87500 0.15628 0.33378
 N714 N 0.87431 0.16746 0.34343
 C715 C 0.88472 0.17780 0.33975
 C716 C 0.89226 0.17279 0.32718
 C717 C 0.88586 0.15915 0.32358
 H718 H 0.88632 0.18841 0.34546
 H719 H 0.88855 0.15211 0.31404
 N720 N 0.84297 0.16739 0.37428
 N721 N 0.83231 0.15706 0.37402
 C722 C 0.82230 0.16004 0.38503
 C723 C 0.82699 0.17276 0.39250
 C724 C 0.84004 0.17719 0.38545
 H725 H 0.81206 0.15381 0.38709
 H726 H 0.84653 0.18716 0.38787
 H727 H 0.84345 0.15688 0.34658
 H728 H 0.85410 0.14569 0.36086
 N729 N 0.66757 0.37230 0.34220
 N730 N 0.65785 0.37111 0.33112
 C731 C 0.66059 0.38198 0.32092
 C732 C 0.67259 0.39036 0.32593
 C733 C 0.67684 0.38395 0.33941
 H734 H 0.65464 0.38343 0.31041
 H735 H 0.68627 0.38719 0.34636
 Cu736 Cu 0.64301 0.35508 0.33045
 Cu737 Cu 0.66821 0.35796 0.35874
 Cu738 Cu 0.64064 0.33058 0.35933
 N739 N 0.62706 0.34016 0.33170
 N740 N 0.62604 0.33079 0.34311
 C741 C 0.61449 0.32132 0.34076
 C742 C 0.60795 0.32503 0.32722
 C743 C 0.61615 0.33697 0.32169
 H744 H 0.61146 0.31203 0.34801
 H745 H 0.61461 0.34251 0.31097
 N746 N 0.65637 0.33205 0.37477
 N747 N 0.66698 0.34242 0.37453
 C748 C 0.67680 0.33962 0.38574
 C749 C 0.67203 0.32697 0.39333
 C750 C 0.65914 0.32240 0.38613
 H751 H 0.68704 0.34584 0.38777
 H752 H 0.65274 0.31234 0.38850
 H753 H 0.65843 0.34015 0.34762
 H754 H 0.64548 0.35337 0.35767
 N755 N 0.66817 0.87284 0.84359
 N756 N 0.65847 0.87267 0.83243
 C757 C 0.66197 0.88373 0.82266
 C758 C 0.67443 0.89114 0.82808
 C759 C 0.67815 0.88398 0.84132
 H760 H 0.65624 0.88593 0.81215
 H761 H 0.68772 0.88633 0.84843
 Cu762 Cu 0.64275 0.85751 0.83131
 Cu763 Cu 0.66794 0.85780 0.85952
 Cu764 Cu 0.63970 0.83101 0.85819
 N765 N 0.62671 0.84266 0.83096
 N766 N 0.62548 0.83243 0.84159
 C767 C 0.61393 0.82323 0.83831
 C768 C 0.60763 0.82802 0.82499
 C769 C 0.61596 0.84030 0.82055
 H770 H 0.61071 0.81346 0.84482
 H771 H 0.61460 0.84666 0.81026
 N772 N 0.65516 0.83143 0.87406
 N773 N 0.66589 0.84167 0.87458
 C774 C 0.67535 0.83828 0.88593
 C775 C 0.67027 0.82538 0.89282
 C776 C 0.65752 0.82126 0.88507
 H777 H 0.68559 0.84427 0.88852
 H778 H 0.65093 0.81121 0.88686
 H779 H 0.65772 0.84091 0.84727
 H780 H 0.64511 0.85359 0.85833
 N781 N 0.16774 0.37243 0.84214
 N782 N 0.15758 0.37163 0.83141
 C783 C 0.16046 0.38230 0.82103
 C784 C 0.17300 0.39014 0.82557
 C785 C 0.17742 0.38363 0.83894
 H786 H 0.15418 0.38401 0.81076
 H787 H 0.18716 0.38655 0.84560
 Cu788 Cu 0.14201 0.35630 0.83168
 Cu789 Cu 0.16819 0.35830 0.85892
 Cu790 Cu 0.13994 0.33150 0.86013
 N791 N 0.12613 0.34129 0.83262
 N792 N 0.12527 0.33177 0.84394
 C793 C 0.11386 0.32215 0.84149
 C794 C 0.10727 0.32591 0.82799
 C795 C 0.11528 0.33802 0.82258
 H796 H 0.11103 0.31271 0.84862
 H797 H 0.11370 0.34359 0.81188
 N798 N 0.15581 0.33292 0.87547
 N799 N 0.16668 0.34302 0.87496
 C800 C 0.17655 0.34012 0.88610
 C801 C 0.17155 0.32770 0.89392
 C802 C 0.15847 0.32336 0.88692
 H803 H 0.18699 0.34607 0.88791
 H804 H 0.15189 0.31346 0.88947
 H805 H 0.15762 0.34076 0.84806
 H806 H 0.14541 0.35409 0.85877
 N807 N 0.16767 0.87230 0.34200
 N808 N 0.15763 0.87131 0.33119
 C809 C 0.16043 0.88201 0.32082
 C810 C 0.17280 0.89006 0.32545
 C811 C 0.17720 0.88365 0.33888
 H812 H 0.15423 0.88359 0.31047
 H813 H 0.18684 0.88672 0.34560
 Cu814 Cu 0.14229 0.85575 0.33129
 Cu815 Cu 0.16823 0.85819 0.35878
 Cu816 Cu 0.14036 0.83102 0.35985
 N817 N 0.12656 0.84059 0.33228
 N818 N 0.12574 0.83111 0.34362
 C819 C 0.11437 0.82144 0.34121
 C820 C 0.10775 0.82512 0.32771
 C821 C 0.11571 0.83725 0.32226
 H822 H 0.11153 0.81204 0.34841
 H823 H 0.11406 0.84281 0.31156
 N824 N 0.15613 0.83263 0.37525
 N825 N 0.16686 0.84288 0.37480
 C826 C 0.17671 0.84012 0.38600
 C827 C 0.17185 0.82763 0.39378
 C828 C 0.15886 0.82311 0.38671
 H829 H 0.18706 0.84622 0.38786
 H830 H 0.15240 0.81312 0.38923
 H831 H 0.15800 0.84049 0.34786
 H832 H 0.14550 0.85370 0.35842
 C833 C 0.24983 1.03991 0.25071
 C834 C 0.25799 1.03211 0.23983
 C835 C 0.25758 1.01639 0.23944
 C836 C 0.24962 1.00813 0.25052
 C837 C 0.24173 1.01634 0.26168
 C838 C 0.24154 1.03209 0.26149
 C839 C 0.24958 0.99119 0.25043
 C840 C 0.23837 0.98293 0.25819
 C841 C 0.23863 0.96719 0.25839
 C842 C 0.24953 0.95941 0.25023
 C843 C 0.26047 0.96724 0.24218
 C844 C 0.26078 0.98297 0.24258
 H845 H 0.24993 1.05211 0.25079
 H846 H 0.26347 1.01083 0.23038
 H847 H 0.23575 1.01074 0.27065
 H848 H 0.22931 0.98851 0.26408
 H849 H 0.24952 0.94721 0.25017
 H850 H 0.26988 0.98857 0.23680
 C851 C 0.25006 0.54011 0.75072
 C852 C 0.25810 0.53230 0.73976
 C853 C 0.25761 0.51658 0.73935
 C854 C 0.24972 0.50834 0.75049
 C855 C 0.24197 0.51655 0.76173
 C856 C 0.24185 0.53229 0.76156
 C857 C 0.24964 0.49140 0.75042
 C858 C 0.23848 0.48316 0.75829
 C859 C 0.23874 0.46742 0.75850
 C860 C 0.24957 0.45963 0.75025
 C861 C 0.26044 0.46747 0.74211
 C862 C 0.26076 0.48319 0.74251
 H863 H 0.25020 0.55231 0.75083
 H864 H 0.26340 0.51101 0.73023
 H865 H 0.23606 0.51096 0.77075
 H866 H 0.22948 0.48874 0.76425
 H867 H 0.24955 0.44743 0.75017
 H868 H 0.26983 0.48877 0.73665
 C869 C 0.75023 -0.03958 0.25056
 C870 C 0.75854 -0.03173 0.26125
 C871 C 0.75832 -0.01598 0.26138
 C872 C 0.75040 -0.00780 0.25023
 C873 C 0.74241 -0.01608 0.23924
 C874 C 0.74202 -0.03181 0.23970
 C875 C 0.75048 0.00915 0.25003
 C876 C 0.73936 0.01736 0.24208
 C877 C 0.73974 0.03308 0.24154
 C878 C 0.75064 0.04093 0.24958
 C879 C 0.76146 0.03315 0.25785
 C880 C 0.76167 0.01741 0.25777
 H881 H 0.75018 -0.05178 0.25068
 H882 H 0.76433 -0.01037 0.27030
 H883 H 0.73649 -0.01056 0.23018
 H884 H 0.73027 0.01178 0.23629
 H885 H 0.75070 0.05313 0.24940
 H886 H 0.77067 0.01185 0.26373
 C887 C 0.74978 0.45999 0.75054
 C888 C 0.75803 0.46778 0.76132
 C889 C 0.75779 0.48351 0.76159
 C890 C 0.74991 0.49178 0.75047
 C891 C 0.74195 0.48358 0.73939
 C892 C 0.74157 0.46784 0.73973
 C893 C 0.75000 0.50874 0.75045
 C894 C 0.73900 0.51703 0.74243
 C895 C 0.73937 0.53276 0.74209
 C896 C 0.75013 0.54053 0.75038
 C897 C 0.76083 0.53267 0.75872
 C898 C 0.76107 0.51693 0.75845
 H899 H 0.74973 0.44779 0.75058
 H900 H 0.76375 0.48904 0.77059
 H901 H 0.73603 0.48916 0.73037
 H902 H 0.73002 0.51152 0.73643
 H903 H 0.75018 0.55273 0.75034
 H904 H 0.77001 0.51133 0.76447
 C905 C 0.25000 0.46044 0.24999
 C906 C 0.26063 0.46818 0.25847
 C907 C 0.26094 0.48392 0.25824
 C908 C 0.25001 0.49226 0.25015
 C909 C 0.23907 0.48406 0.24197
 C910 C 0.23937 0.46833 0.24160
 C911 C 0.24996 0.50925 0.25028
 C912 C 0.24161 0.51760 0.23954
 C913 C 0.24120 0.53333 0.24001
 C914 C 0.24976 0.54107 0.25058
 C915 C 0.25843 0.53317 0.26100
 C916 C 0.25823 0.51743 0.26116
 H917 H 0.24999 0.44825 0.24996
 H918 H 0.26983 0.48937 0.26441
 H919 H 0.23015 0.48961 0.23588
 H920 H 0.23539 0.51217 0.23068
 H921 H 0.24967 0.55326 0.25072
 H922 H 0.26453 0.51186 0.26991
 C923 C 0.74945 1.03997 0.75025
 C924 C 0.76034 1.03216 0.74209
 C925 C 0.76067 1.01643 0.74242
 C926 C 0.74955 1.00820 0.75031
 C927 C 0.73837 1.01642 0.75817
 C928 C 0.73860 1.03216 0.75844
 C929 C 0.74962 0.99126 0.75036
 C930 C 0.74188 0.98304 0.76160
 C931 C 0.74166 0.96730 0.76139
 C932 C 0.74980 0.95949 0.75050
 C933 C 0.75786 0.96729 0.73953
 C934 C 0.75747 0.98303 0.73918
 H935 H 0.74942 1.05217 0.75022
 H936 H 0.76973 1.01085 0.73654
 H937 H 0.72934 1.01082 0.76408
 H938 H 0.73602 0.98863 0.77066
 H939 H 0.74987 0.94729 0.75056
 H940 H 0.76327 0.98862 0.73008
 C941 C 0.75032 0.53923 0.25024
 C942 C 0.75849 0.53135 0.23943
 C943 C 0.75811 0.51562 0.23917
 C944 C 0.75015 0.50745 0.25031
 C945 C 0.74228 0.51574 0.26141
 C946 C 0.74206 0.53148 0.26109
 C947 C 0.75005 0.49050 0.25034
 C948 C 0.73885 0.48236 0.25823
 C949 C 0.73905 0.46662 0.25858
 C950 C 0.74988 0.45872 0.25044
 C951 C 0.76080 0.46644 0.24224
 C952 C 0.76117 0.48218 0.24250
 H953 H 0.75038 0.55142 0.25021
 H954 H 0.76401 0.50999 0.23015
 H955 H 0.73632 0.51022 0.27045
 H956 H 0.72982 0.48801 0.26409
 H957 H 0.74982 0.44652 0.25048
 H958 H 0.77025 0.48768 0.23660
 C959 C 0.25077 -0.04025 0.75029
 C960 C 0.26157 -0.03246 0.75852
 C961 C 0.26174 -0.01672 0.75836
 C962 C 0.25052 -0.00847 0.75058
 C963 C 0.23944 -0.01668 0.74267
 C964 C 0.23984 -0.03240 0.74222
 C965 C 0.25034 0.00847 0.75077
 C966 C 0.24233 0.01678 0.73976
 C967 C 0.24177 0.03250 0.74027
 C968 C 0.24985 0.04025 0.75122
 C969 C 0.25817 0.03237 0.76194
 C970 C 0.25811 0.01663 0.76200
 H971 H 0.25084 -0.05244 0.75019
 H972 H 0.27073 -0.01115 0.76429
 H973 H 0.23034 -0.01110 0.73686
 H974 H 0.23651 0.01126 0.73065
 H975 H 0.24966 0.05244 0.75140
 H976 H 0.26410 0.01099 0.77094
 C977 C 0.24982 0.25022 1.04028
 C978 C 0.24167 0.26108 1.03241
 C979 C 0.24205 0.26136 1.01666
 C980 C 0.24997 0.25021 1.00846
 C981 C 0.25781 0.23907 1.01674
 C982 C 0.25804 0.23936 1.03249
 C983 C 0.25005 0.25020 0.99151
 C984 C 0.26129 0.24241 0.98330
 C985 C 0.26110 0.24215 0.96755
 C986 C 0.25022 0.25029 0.95970
 C987 C 0.23926 0.25838 0.96750
 C988 C 0.23890 0.25801 0.98324
 H989 H 0.24977 0.25022 1.05248
 H990 H 0.23619 0.27040 1.01103
 H991 H 0.26374 0.23005 1.01118
 H992 H 0.27034 0.23655 0.98893
 H993 H 0.25029 0.25036 0.94749
 H994 H 0.22979 0.26383 0.98881
 C995 C 0.24956 0.75012 0.54070
 C996 C 0.24144 0.76102 0.53285
 C997 C 0.24181 0.76132 0.51710
 C998 C 0.24968 0.75015 0.50888
 C999 C 0.25747 0.73897 0.51714
 C1000 C 0.25773 0.73925 0.53288
 C1001 C 0.24976 0.75015 0.49192
 C1002 C 0.26084 0.74213 0.48372
 C1003 C 0.26060 0.74181 0.46797
 C1004 C 0.24988 0.75012 0.46010
 C1005 C 0.23910 0.75845 0.46789
 C1006 C 0.23875 0.75815 0.48364
 H1007 H 0.24954 0.75011 0.55290
 H1008 H 0.23597 0.77038 0.51150
 H1009 H 0.26335 0.72991 0.51159
 H1010 H 0.26979 0.73613 0.48932
 H1011 H 0.24992 0.75012 0.44790
 H1012 H 0.22976 0.76417 0.48918
 C1013 C 0.24987 0.75073 -0.04114
 C1014 C 0.26084 0.75879 -0.03340
 C1015 C 0.26133 0.75834 -0.01766
 C1016 C 0.25028 0.75044 -0.00934
 C1017 C 0.23902 0.74268 -0.01747
 C1018 C 0.23910 0.74252 -0.03323
 C1019 C 0.25049 0.75032 0.00760
 C1020 C 0.24291 0.73900 0.01586
 C1021 C 0.24275 0.73919 0.03161
 C1022 C 0.25079 0.75014 0.03939
 C1023 C 0.25868 0.76118 0.03153
 C1024 C 0.25823 0.76154 0.01579
 H1025 H 0.24971 0.75085 -0.05335
 H1026 H 0.27043 0.76416 -0.01214
 H1027 H 0.23005 0.73678 -0.01178
 H1028 H 0.23713 0.72993 0.01027
 H1029 H 0.25088 0.75008 0.05160
 H1030 H 0.26388 0.77071 0.01016
 C1031 C 0.25015 0.25024 0.45990
 C1032 C 0.26109 0.25833 0.46765
 C1033 C 0.26150 0.25795 0.48340
 C1034 C 0.25042 0.25009 0.49171
 C1035 C 0.23918 0.24231 0.48355
 C1036 C 0.23932 0.24208 0.46780
 C1037 C 0.25057 0.25000 0.50867
 C1038 C 0.24278 0.23881 0.51692
 C1039 C 0.24257 0.23901 0.53266
 C1040 C 0.25077 0.24982 0.54048
 C1041 C 0.25889 0.26071 0.53264
 C1042 C 0.25849 0.26108 0.51689
 H1043 H 0.25005 0.25030 0.44770
 H1044 H 0.27059 0.26378 0.48892
 H1045 H 0.23017 0.23644 0.48921
 H1046 H 0.23687 0.22982 0.51133
 H1047 H 0.25082 0.24976 0.55268
 H1048 H 0.26433 0.27014 0.51129
 C1049 C 0.75047 0.75046 1.04016
 C1050 C 0.74213 0.76119 1.03232
 C1051 C 0.74226 0.76134 1.01657
 C1052 C 0.75011 0.75018 1.00835
 C1053 C 0.75814 0.73915 1.01661
 C1054 C 0.75863 0.73958 1.03235
 C1055 C 0.74991 0.75002 0.99139
 C1056 C 0.76100 0.74211 0.98310
 C1057 C 0.76051 0.74160 0.96737
 C1058 C 0.74951 0.74963 0.95958
 C1059 C 0.73871 0.75785 0.96744
 C1060 C 0.73862 0.75774 0.98320
 H1061 H 0.75059 0.75056 1.05236
 H1062 H 0.73623 0.77028 1.01097
 H1063 H 0.76402 0.73009 1.01104
 H1064 H 0.77014 0.73632 0.98864
 H1065 H 0.74935 0.74947 0.94738
 H1066 H 0.72963 0.76366 0.98883
 C1067 C 0.75102 0.25031 0.54068
 C1068 C 0.74264 0.26104 0.53288
 C1069 C 0.74271 0.26120 0.51714
 C1070 C 0.75052 0.25005 0.50886
 C1071 C 0.75861 0.23903 0.51708
 C1072 C 0.75917 0.23945 0.53282
 C1073 C 0.75020 0.24993 0.49189
 C1074 C 0.76107 0.24183 0.48350
 C1075 C 0.76052 0.24145 0.46777
 C1076 C 0.74967 0.24978 0.46007
 C1077 C 0.73908 0.25818 0.46803
 C1078 C 0.73904 0.25793 0.48378
 H1079 H 0.75118 0.25040 0.55288
 H1080 H 0.73667 0.27017 0.51160
 H1081 H 0.76448 0.22998 0.51150
 H1082 H 0.77012 0.23582 0.48894
 H1083 H 0.74949 0.24973 0.44787
 H1084 H 0.73017 0.26401 0.48945
 C1085 C 0.75060 0.24957 -0.04124
 C1086 C 0.75867 0.26048 -0.03342
 C1087 C 0.75814 0.26090 -0.01768
 C1088 C 0.75017 0.24985 -0.00941
 C1089 C 0.74243 0.23865 -0.01765
 C1090 C 0.74233 0.23880 -0.03340
 C1091 C 0.74994 0.24998 0.00756
 C1092 C 0.73884 0.24197 0.01574
 C1093 C 0.73896 0.24172 0.03149
 C1094 C 0.74956 0.25012 0.03938
 C1095 C 0.76035 0.25845 0.03161
 C1096 C 0.76083 0.25808 0.01587
 H1097 H 0.75077 0.24946 -0.05344
 H1098 H 0.76396 0.26998 -0.01213
 H1099 H 0.73648 0.22965 -0.01207
 H1100 H 0.72998 0.23590 0.01012
 H1101 H 0.74943 0.25015 0.05158
 H1102 H 0.76982 0.26410 0.01036
 C1103 C 0.75016 0.74991 0.45966
 C1104 C 0.75837 0.76069 0.46749
 C1105 C 0.75791 0.76105 0.48324
 C1106 C 0.74986 0.75002 0.49148
 C1107 C 0.74197 0.73895 0.48323
 C1108 C 0.74181 0.73919 0.46749
 C1109 C 0.74970 0.75007 0.50844
 C1110 C 0.73853 0.74220 0.51666
 C1111 C 0.73870 0.74194 0.53241
 C1112 C 0.74946 0.75018 0.54026
 C1113 C 0.76033 0.75835 0.53245
 C1114 C 0.76075 0.75798 0.51672
 H1115 H 0.75026 0.74987 0.44746
 H1116 H 0.76382 0.77005 0.48881
 H1117 H 0.73593 0.73001 0.48880
 H1118 H 0.72956 0.73626 0.51106
 H1119 H 0.74937 0.75023 0.55246
 H1120 H 0.76982 0.76386 0.51118
 C1121 C 1.03986 0.24997 0.24940
 C1122 C 1.03206 0.23921 0.25771
 C1123 C 1.01631 0.23893 0.25745
 C1124 C 1.00803 0.25000 0.24948
 C1125 C 1.01627 0.26106 0.24148
 C1126 C 1.03202 0.26074 0.24113
 C1127 C 0.99104 0.25000 0.24951
 C1128 C 0.98276 0.25821 0.23863
 C1129 C 0.96700 0.25849 0.23895
 C1130 C 0.95920 0.24995 0.24953
 C1131 C 0.96704 0.24144 0.26011
 C1132 C 0.98279 0.24176 0.26041
 H1133 H 1.05207 0.24995 0.24936
 H1134 H 1.01079 0.22993 0.26345
 H1135 H 1.01072 0.27005 0.23549
 H1136 H 0.98828 0.26441 0.22976
 H1137 H 0.94699 0.24993 0.24954
 H1138 H 0.98834 0.23558 0.26927
 C1139 C 0.54073 0.25018 0.75031
 C1140 C 0.53287 0.24192 0.76109
 C1141 C 0.51712 0.24205 0.76120
 C1142 C 0.50893 0.24984 0.74997
 C1143 C 0.51720 0.25783 0.73892
 C1144 C 0.53294 0.25829 0.73937
 C1145 C 0.49198 0.24963 0.74979
 C1146 C 0.48369 0.26078 0.74199
 C1147 C 0.46795 0.26031 0.74153
 C1148 C 0.46018 0.24925 0.74947
 C1149 C 0.46805 0.23836 0.75757
 C1150 C 0.48381 0.23827 0.75742
 H1151 H 0.55293 0.25030 0.75044
 H1152 H 0.51149 0.23609 0.77017
 H1153 H 0.51163 0.26368 0.72984
 H1154 H 0.48923 0.26996 0.73628
 H1155 H 0.44797 0.24911 0.74935
 H1156 H 0.48946 0.22922 0.76324
 C1157 C -0.04001 0.25025 0.74964
 C1158 C -0.03216 0.26108 0.75776
 C1159 C -0.01640 0.26123 0.75749
 C1160 C -0.00820 0.24996 0.74973
 C1161 C -0.01648 0.23885 0.74193
 C1162 C -0.03223 0.23928 0.74158
 C1163 C 0.00876 0.24976 0.74981
 C1164 C 0.01702 0.24173 0.73877
 C1165 C 0.03278 0.24127 0.73916
 C1166 C 0.04057 0.24944 0.75001
 C1167 C 0.03272 0.25774 0.76076
 C1168 C 0.01698 0.25759 0.76094
 H1169 H -0.05222 0.25035 0.74960
 H1170 H -0.01077 0.27025 0.76333
 H1171 H -0.01094 0.22974 0.73612
 H1172 H 0.01145 0.23585 0.72975
 H1173 H 0.05278 0.24934 0.75009
 H1174 H 0.01138 0.26358 0.76991
 C1175 C 0.45935 0.24997 0.24927
 C1176 C 0.46717 0.26070 0.25756
 C1177 C 0.48291 0.26090 0.25735
 C1178 C 0.49116 0.24978 0.24948
 C1179 C 0.48294 0.23876 0.24147
 C1180 C 0.46718 0.23915 0.24106
 C1181 C 0.50812 0.24970 0.24963
 C1182 C 0.51644 0.24186 0.23854
 C1183 C 0.53218 0.24153 0.23893
 C1184 C 0.53993 0.24965 0.24984
 C1185 C 0.53203 0.25779 0.26066
 C1186 C 0.51628 0.25750 0.26086
 H1187 H 0.44714 0.25004 0.24922
 H1188 H 0.48847 0.26986 0.26334
 H1189 H 0.48852 0.22975 0.23555
 H1190 H 0.51092 0.23601 0.22945
 H1191 H 0.55214 0.24964 0.24991
 H1192 H 0.51064 0.26337 0.26988
 C1193 C 1.04012 0.74997 0.74950
 C1194 C 1.03227 0.73908 0.75760
 C1195 C 1.01652 0.73887 0.75732
 C1196 C 1.00831 0.75012 0.74956
 C1197 C 1.01657 0.76128 0.74176
 C1198 C 1.03232 0.76092 0.74142
 C1199 C 0.99136 0.75021 0.74961
 C1200 C 0.98311 0.75823 0.73857
 C1201 C 0.96736 0.75860 0.73892
 C1202 C 0.95955 0.75033 0.74972
 C1203 C 0.96738 0.74202 0.76047
 C1204 C 0.98313 0.74227 0.76071
 H1205 H 1.05232 0.74991 0.74947
 H1206 H 1.01092 0.72980 0.76314
 H1207 H 1.01101 0.77039 0.73595
 H1208 H 0.98869 0.76420 0.72957
 H1209 H 0.94734 0.75037 0.74977
 H1210 H 0.98871 0.73628 0.76968
 C1211 C 0.54079 0.75016 0.24992
 C1212 C 0.53298 0.73946 0.25830
 C1213 C 0.51723 0.73910 0.25793
 C1214 C 0.50897 0.75004 0.24976
 C1215 C 0.51721 0.76104 0.24168
 C1216 C 0.53297 0.76080 0.24146
 C1217 C 0.49199 0.74998 0.24967
 C1218 C 0.48376 0.75777 0.23844
 C1219 C 0.46800 0.75799 0.23865
 C1220 C 0.46017 0.74982 0.24950
 C1221 C 0.46797 0.74173 0.26043
 C1222 C 0.48372 0.74212 0.26081
 H1223 H 0.55300 0.75020 0.24998
 H1224 H 0.51167 0.73016 0.26399
 H1225 H 0.51164 0.76993 0.23556
 H1226 H 0.48934 0.76365 0.22940
 H1227 H 0.44796 0.74975 0.24943
 H1228 H 0.48925 0.73629 0.26991
 C1229 C -0.04034 0.75013 0.24954
 C1230 C -0.03252 0.76088 0.25779
 C1231 C -0.01676 0.76112 0.25747
 C1232 C -0.00853 0.75002 0.24950
 C1233 C -0.01679 0.73900 0.24154
 C1234 C -0.03254 0.73933 0.24127
 C1235 C 0.00843 0.74991 0.24954
 C1236 C 0.01671 0.74214 0.23834
 C1237 C 0.03248 0.74175 0.23870
 C1238 C 0.04024 0.74974 0.24970
 C1239 C 0.03238 0.75779 0.26061
 C1240 C 0.01663 0.75757 0.26082
 H1241 H -0.05255 0.75015 0.24957
 H1242 H -0.01117 0.77008 0.26342
 H1243 H -0.01121 0.73001 0.23557
 H1244 H 0.01115 0.73639 0.22922
 H1245 H 0.05245 0.74969 0.24976
 H1246 H 0.01101 0.76336 0.26991
 C1247 C 0.45903 0.74991 0.74982
 C1248 C 0.46679 0.75814 0.76064
 C1249 C 0.48253 0.75789 0.76096
 C1250 C 0.49083 0.75002 0.74988
 C1251 C 0.48268 0.74206 0.73877
 C1252 C 0.46693 0.74170 0.73903
 C1253 C 0.50777 0.75013 0.74994
 C1254 C 0.51611 0.73888 0.74236
 C1255 C 0.53185 0.73923 0.74213
 C1256 C 0.53957 0.75028 0.75010
 C1257 C 0.53164 0.76126 0.75799
 C1258 C 0.51589 0.76147 0.75760
 H1259 H 0.44683 0.74988 0.74980
 H1260 H 0.48807 0.76383 0.76997
 H1261 H 0.48835 0.73615 0.72979
 H1262 H 0.51059 0.72973 0.73663
 H1263 H 0.55178 0.75033 0.75014
 H1264 H 0.51020 0.77060 0.76326
 C1265 C 0.44171 0.28859 0.30123
 C1266 C 0.44014 0.30595 0.30093
 C1267 C 0.42295 0.30419 0.30081
 C1268 C 0.42437 0.28699 0.30126
 C1269 C 0.44151 0.28850 0.28395
 C1270 C 0.42431 0.28678 0.28387
 C1271 C 0.44011 0.30570 0.28348
 C1272 C 0.42275 0.30410 0.28353
 C1273 C 0.41219 0.31263 0.30998
 C1274 C 0.40294 0.31934 0.31727
 C1275 C 0.45132 0.27928 0.27448
 C1276 C 0.45885 0.27113 0.26670
 H1277 H 0.44964 0.28211 0.30839
 H1278 H 0.44650 0.31393 0.30809
 H1279 H 0.41779 0.27938 0.30867
 H1280 H 0.41792 0.27880 0.27674
 H1281 H 0.44670 0.31329 0.27606
 H1282 H 0.41482 0.31055 0.27636
 C1283 C 0.44220 0.80186 0.78914
 C1284 C 0.42490 0.80261 0.78725
 C1285 C 0.42316 0.80173 0.80442
 C1286 C 0.44031 0.80114 0.80647
 C1287 C 0.44134 0.78463 0.78855
 C1288 C 0.43963 0.78373 0.80572
 C1289 C 0.42419 0.78525 0.78653
 C1290 C 0.42231 0.78450 0.80382
 C1291 C 0.41261 0.81105 0.81294
 C1292 C 0.40350 0.81846 0.81971
 C1293 C 0.45099 0.77507 0.77925
 C1294 C 0.45845 0.76727 0.77106
 H1295 H 0.45050 0.80889 0.78300
 H1296 H 0.41873 0.81047 0.77975
 H1297 H 0.44680 0.80780 0.81477
 H1298 H 0.44580 0.77585 0.81320
 H1299 H 0.41767 0.77861 0.77824
 H1300 H 0.41401 0.77746 0.80994
 C1301 C -0.05857 0.30641 0.78433
 C1302 C -0.07594 0.30596 0.78281
 C1303 C -0.07727 0.30477 0.80001
 C1304 C -0.06007 0.30537 0.80170
 C1305 C -0.05822 0.28917 0.78355
 C1306 C -0.05955 0.28798 0.80075
 C1307 C -0.07542 0.28860 0.78189
 C1308 C -0.07689 0.28753 0.79920
 C1309 C -0.08829 0.31310 0.80902
 C1310 C -0.09771 0.31969 0.81622
 C1311 C -0.04816 0.27992 0.77432
 C1312 C -0.04050 0.27169 0.76673
 H1313 H -0.05091 0.31408 0.77812
 H1314 H -0.08280 0.31344 0.77553
 H1315 H -0.05389 0.31237 0.80996
 H1316 H -0.05270 0.28049 0.80803
 H1317 H -0.08164 0.28162 0.77365
 H1318 H -0.08454 0.27984 0.80540
 C1319 C -0.07530 0.79119 0.27991
 C1320 C -0.07972 0.78741 0.29631
 C1321 C -0.07779 0.80405 0.30046
 C1322 C -0.07350 0.80796 0.28417
 C1323 C -0.05870 0.78854 0.28396
 C1324 C -0.05672 0.80518 0.28809
 C1325 C -0.06299 0.78463 0.30025
 C1326 C -0.06119 0.80141 0.30455
 C1327 C -0.08880 0.81241 0.30946
 C1328 C -0.09819 0.81907 0.31665
 C1329 C -0.04860 0.77941 0.27464
 C1330 C -0.04091 0.77131 0.26694
 H1331 H -0.08100 0.78691 0.26968
 H1332 H -0.08928 0.78016 0.29979
 H1333 H -0.07795 0.81764 0.27765
 H1334 H -0.04715 0.81239 0.28460
 H1335 H -0.05854 0.77494 0.30677
 H1336 H -0.05552 0.80570 0.31479
 C1337 C 0.57599 0.71051 0.28146
 C1338 C 0.57933 0.71347 0.29826
 C1339 C 0.57811 0.69652 0.30132
 C1340 C 0.57491 0.69344 0.28462
 C1341 C 0.55908 0.71202 0.28476
 C1342 C 0.55782 0.69507 0.28779
 C1343 C 0.56228 0.71511 0.30145
 C1344 C 0.56120 0.69801 0.30466
 C1345 C 0.58911 0.68814 0.31030
 C1346 C 0.59850 0.68145 0.31743
 C1347 C 0.54902 0.72112 0.27537
 C1348 C 0.54135 0.72915 0.26758
 H1349 H 0.58196 0.71575 0.27181
 H1350 H 0.58827 0.72097 0.30266
 H1351 H 0.58023 0.68444 0.27779
 H1352 H 0.54887 0.68760 0.28339
 H1353 H 0.55696 0.72412 0.30827
 H1354 H 0.55526 0.69278 0.31432
 C1355 C 0.57547 0.21407 0.78572
 C1356 C 0.57913 0.21651 0.80254
 C1357 C 0.57740 0.19953 0.80518
 C1358 C 0.57388 0.19698 0.78847
 C1359 C 0.55867 0.21605 0.78931
 C1360 C 0.55692 0.19907 0.79194
 C1361 C 0.56218 0.21862 0.80602
 C1362 C 0.56061 0.20147 0.80881
 C1363 C 0.58825 0.19047 0.81366
 C1364 C 0.59755 0.18318 0.82031
 C1365 C 0.54876 0.22532 0.77995
 C1366 C 0.54119 0.23293 0.77168
 H1367 H 0.58148 0.21936 0.77612
 H1368 H 0.58839 0.22359 0.80698
 H1369 H 0.57880 0.18799 0.78134
 H1370 H 0.54766 0.19201 0.78748
 H1371 H 0.55724 0.22762 0.81312
 H1372 H 0.55462 0.19617 0.81841
 C1373 C 1.05983 0.71254 0.80056
 C1374 C 1.05958 0.69518 0.80219
 C1375 C 1.07674 0.69493 0.80002
 C1376 C 1.07713 0.71213 0.79854
 C1377 C 1.05802 0.71080 0.78346
 C1378 C 1.07518 0.71052 0.78133
 C1379 C 1.05760 0.69360 0.78492
 C1380 C 1.07493 0.69319 0.78293
 C1381 C 1.08760 0.68650 0.80909
 C1382 C 1.09693 0.67991 0.81638
 C1383 C 1.04814 0.72017 0.77418
 C1384 C 1.04058 0.72846 0.76657
 H1385 H 1.05351 0.72059 0.80771
 H1386 H 1.05330 0.68878 0.81088
 H1387 H 1.08526 0.71967 0.80423
 H1388 H 1.08149 0.71692 0.77266
 H1389 H 1.04944 0.68609 0.77922
 H1390 H 1.08126 0.68515 0.77577
 C1391 C 1.05939 0.21256 0.30097
 C1392 C 1.05996 0.19516 0.30187
 C1393 C 1.07716 0.19583 0.30025
 C1394 C 1.07674 0.21307 0.29950
 C1395 C 1.05818 0.21146 0.28377
 C1396 C 1.07539 0.21210 0.28219
 C1397 C 1.05858 0.19421 0.28450
 C1398 C 1.07595 0.19474 0.28305
 C1399 C 1.08810 0.18743 0.30928
 C1400 C 1.09743 0.18081 0.31656
 C1401 C 1.04813 0.22065 0.27448
 C1402 C 1.04045 0.22877 0.26681
 H1403 H 1.05245 0.21998 0.30824
 H1404 H 1.05375 0.18809 0.31009
 H1405 H 1.08431 0.22075 0.30576
 H1406 H 1.08162 0.21917 0.27399
 H1407 H 1.05099 0.18656 0.27823
 H1408 H 1.08290 0.18734 0.27577
 C1409 C 0.57621 0.28311 0.71242
 C1410 C 0.57682 0.28405 0.69504
 C1411 C 0.57787 0.30125 0.69621
 C1412 C 0.57740 0.30042 0.71346
 C1413 C 0.55899 0.28454 0.71172
 C1414 C 0.56004 0.30174 0.71290
 C1415 C 0.55943 0.28535 0.69447
 C1416 C 0.56066 0.30272 0.69549
 C1417 C 0.58876 0.31038 0.68785
 C1418 C 0.59803 0.31764 0.68113
 C1419 C 0.54898 0.27516 0.72086
 C1420 C 0.54133 0.26744 0.72896
 H1421 H 0.58249 0.27493 0.71947
 H1422 H 0.58384 0.27686 0.68762
 H1423 H 0.58490 0.30669 0.72120
 H1424 H 0.55302 0.30892 0.72033
 H1425 H 0.55192 0.27905 0.68676
 H1426 H 0.55439 0.31089 0.68843
 C1427 C 0.57624 0.78780 0.21690
 C1428 C 0.57787 0.78652 0.19962
 C1429 C 0.57810 0.80376 0.19856
 C1430 C 0.57661 0.80515 0.21572
 C1431 C 0.55905 0.78827 0.21509
 C1432 C 0.55926 0.80550 0.21404
 C1433 C 0.56053 0.78686 0.19792
 C1434 C 0.56092 0.80425 0.19671
 C1435 C 0.58913 0.81212 0.18961
 C1436 C 0.59854 0.81881 0.18251
 C1437 C 0.54900 0.77918 0.22445
 C1438 C 0.54134 0.77113 0.23222
 H1439 H 0.58242 0.78094 0.22531
 H1440 H 0.58562 0.77879 0.19361
 H1441 H 0.58336 0.81274 0.22295
 H1442 H 0.55149 0.81321 0.22007
 H1443 H 0.55379 0.77925 0.19071
 H1444 H 0.55475 0.81111 0.18827
 C1445 C 1.07530 0.28562 0.21473
 C1446 C 1.07520 0.28627 0.19734
 C1447 C 1.07736 0.30338 0.19816
 C1448 C 1.07761 0.30283 0.21544
 C1449 C 1.05819 0.28813 0.21477
 C1450 C 1.06034 0.30524 0.21561
 C1451 C 1.05793 0.28866 0.19750
 C1452 C 1.06026 0.30593 0.19817
 C1453 C 1.08845 0.31161 0.18917
 C1454 C 1.09793 0.31823 0.18210
 C1455 C 1.04807 0.27912 0.22415
 C1456 C 1.04039 0.27110 0.23192
 H1457 H 1.08138 0.27718 0.22165
 H1458 H 1.08142 0.27856 0.18974
 H1459 H 1.08583 0.30873 0.22272
 H1460 H 1.05411 0.31293 0.22323
 H1461 H 1.04971 0.28275 0.19023
 H1462 H 1.05421 0.31437 0.19124
 C1463 C 1.07529 0.78891 0.71716
 C1464 C 1.07713 0.78711 0.69995
 C1465 C 1.07680 0.80430 0.69830
 C1466 C 1.07510 0.80621 0.71540
 C1467 C 1.05812 0.78874 0.71517
 C1468 C 1.05776 0.80593 0.71355
 C1469 C 1.05982 0.78683 0.69808
 C1470 C 1.05964 0.80417 0.69629
 C1471 C 1.08766 0.81266 0.68916
 C1472 C 1.09702 0.81934 0.68200
 C1473 C 1.04824 0.77956 0.72462
 C1474 C 1.04067 0.77140 0.73235
 H1475 H 1.08162 0.78255 0.72585
 H1476 H 1.08520 0.77946 0.69426
 H1477 H 1.08151 0.81427 0.72242
 H1478 H 1.04968 0.81355 0.71927
 H1479 H 1.05341 0.77875 0.69107
 H1480 H 1.05333 0.81053 0.68758
 C1481 C 0.42410 0.71862 0.70993
 C1482 C 0.42514 0.71567 0.69280
 C1483 C 0.42219 0.69891 0.69576
 C1484 C 0.42101 0.70175 0.71276
 C1485 C 0.44106 0.71553 0.71128
 C1486 C 0.43811 0.69877 0.71423
 C1487 C 0.44228 0.71272 0.69427
 C1488 C 0.43915 0.69579 0.69708
 C1489 C 0.41127 0.68985 0.68743
 C1490 C 0.40193 0.68264 0.68079
 C1491 C 0.45104 0.72487 0.72044
 C1492 C 0.45863 0.73258 0.72857
 H1493 H 0.41803 0.72811 0.71529
 H1494 H 0.41969 0.72253 0.68390
 H1495 H 0.41216 0.69715 0.72029
 H1496 H 0.44356 0.69191 0.72314
 H1497 H 0.45114 0.71734 0.68678
 H1498 H 0.44520 0.68628 0.69171
 C1499 C 0.42421 0.21494 0.21356
 C1500 C 0.42538 0.21277 0.19634
 C1501 C 0.42216 0.19594 0.19848
 C1502 C 0.42085 0.19800 0.21559
 C1503 C 0.44111 0.21153 0.21495
 C1504 C 0.43790 0.19471 0.21711
 C1505 C 0.44244 0.20950 0.19784
 C1506 C 0.43906 0.19251 0.19984
 C1507 C 0.41124 0.18753 0.18950
 C1508 C 0.40193 0.18082 0.18232
 C1509 C 0.45116 0.22068 0.22423
 C1510 C 0.45882 0.22876 0.23192
 H1511 H 0.41823 0.22427 0.21932
 H1512 H 0.42013 0.22014 0.18772
 H1513 H 0.41185 0.19322 0.22281
 H1514 H 0.44318 0.18738 0.22574
 H1515 H 0.45145 0.21432 0.19065
 H1516 H 0.44504 0.18319 0.19406
 C1517 C -0.06115 0.69462 0.21681
 C1518 C -0.07837 0.69729 0.21624
 C1519 C -0.07779 0.69613 0.19900
 C1520 C -0.06073 0.69332 0.19941
 C1521 C -0.05870 0.71165 0.21536
 C1522 C -0.05811 0.71050 0.19812
 C1523 C -0.07576 0.71443 0.21491
 C1524 C -0.07532 0.71316 0.19757
 C1525 C -0.08881 0.68777 0.19009
 C1526 C -0.09822 0.68112 0.18299
 C1527 C -0.04861 0.72080 0.22458
 C1528 C -0.04092 0.72891 0.23221
 H1529 H -0.05520 0.68711 0.22482
 H1530 H -0.08684 0.69179 0.22360
 H1531 H -0.05468 0.68454 0.19291
 H1532 H -0.04964 0.71603 0.19079
 H1533 H -0.08183 0.72321 0.22139
 H1534 H -0.08126 0.72070 0.18957
 C1535 C -0.07530 0.21192 0.71703
 C1536 C -0.07661 0.21317 0.69972
 C1537 C -0.07676 0.19594 0.69872
 C1538 C -0.07560 0.19456 0.71591
 C1539 C -0.05808 0.21150 0.71549
 C1540 C -0.05821 0.19427 0.71452
 C1541 C -0.05925 0.21288 0.69830
 C1542 C -0.05955 0.19549 0.69715
 C1543 C -0.08759 0.18757 0.68960
 C1544 C -0.09691 0.18089 0.68242
 C1545 C -0.04819 0.22068 0.72487
 C1546 C -0.04059 0.22882 0.73255
 H1547 H -0.08167 0.21876 0.72531
 H1548 H -0.08428 0.22086 0.69355
 H1549 H -0.08245 0.18695 0.72306
 H1550 H -0.05053 0.18661 0.72071
 H1551 H -0.05240 0.22051 0.69117
 H1552 H -0.05320 0.18864 0.68886
 C1553 C 0.28594 0.44077 0.30245
 C1554 C 0.28547 0.42343 0.30098
 C1555 C 0.30269 0.42301 0.30223
 C1556 C 0.30333 0.44019 0.30385
 C1557 C 0.28759 0.44200 0.28529
 C1558 C 0.30482 0.44160 0.28651
 C1559 C 0.28698 0.42482 0.28370
 C1560 C 0.30433 0.42425 0.28506
 C1561 C 0.31092 0.41204 0.31136
 C1562 C 0.31760 0.40266 0.31851
 C1563 C 0.27870 0.45206 0.27573
 C1564 C 0.27081 0.45975 0.26783
 H1565 H 0.27829 0.44769 0.30949
 H1566 H 0.27759 0.41586 0.30702
 H1567 H 0.31013 0.44637 0.31227
 H1568 H 0.31267 0.44918 0.28046
 H1569 H 0.28018 0.41860 0.27530
 H1570 H 0.31196 0.41732 0.27801
 C1571 C 0.30662 -0.06033 0.78379
 C1572 C 0.30704 -0.06048 0.80125
 C1573 C 0.30497 -0.07763 0.80099
 C1574 C 0.30470 -0.07764 0.78371
 C1575 C 0.28943 -0.05862 0.78445
 C1576 C 0.28739 -0.07577 0.78423
 C1577 C 0.28970 -0.05859 0.80173
 C1578 C 0.28779 -0.07589 0.80162
 C1579 C 0.31332 -0.08861 0.81002
 C1580 C 0.31997 -0.09799 0.81720
 C1581 C 0.28025 -0.04855 0.77517
 C1582 C 0.27209 -0.04086 0.76754
 H1583 H 0.31426 -0.05381 0.77636
 H1584 H 0.31521 -0.05433 0.80837
 H1585 H 0.31094 -0.08561 0.77639
 H1586 H 0.27923 -0.08196 0.77712
 H1587 H 0.28344 -0.05064 0.80905
 H1588 H 0.28013 -0.08241 0.80904
 C1589 C 0.78727 0.44343 0.80608
 C1590 C 0.78451 0.42630 0.80777
 C1591 C 0.80130 0.42347 0.80475
 C1592 C 0.80423 0.44041 0.80321
 C1593 C 0.78437 0.44203 0.78911
 C1594 C 0.80116 0.43919 0.78609
 C1595 C 0.78148 0.42508 0.79067
 C1596 C 0.79838 0.42210 0.78779
 C1597 C 0.81053 0.41272 0.81315
 C1598 C 0.81788 0.40348 0.81979
 C1599 C 0.77491 0.45187 0.77991
 C1600 C 0.76715 0.45942 0.77176
 H1601 H 0.78258 0.45231 0.81349
 H1602 H 0.77776 0.42087 0.81678
 H1603 H 0.81371 0.44658 0.80846
 H1604 H 0.80790 0.44461 0.77708
 H1605 H 0.77201 0.41888 0.78543
 H1606 H 0.80305 0.41323 0.78035
 C1607 C 0.78366 -0.05988 0.30609
 C1608 C 0.78433 -0.07711 0.30367
 C1609 C 0.80158 -0.07644 0.30454
 C1610 C 0.80108 -0.05937 0.30712
 C1611 C 0.78483 -0.05762 0.28900
 C1612 C 0.80208 -0.05694 0.28987
 C1613 C 0.78535 -0.07470 0.28646
 C1614 C 0.80272 -0.07417 0.28745
 C1615 C 0.81070 -0.08732 0.31291
 C1616 C 0.81794 -0.09663 0.31960
 C1617 C 0.77542 -0.04766 0.27984
 C1618 C 0.76769 -0.04005 0.27171
 H1619 H 0.77573 -0.05388 0.31366
 H1620 H 0.77712 -0.08554 0.30942
 H1621 H 0.80768 -0.05320 0.31572
 H1622 H 0.80927 -0.04852 0.28410
 H1623 H 0.77877 -0.08090 0.27787
 H1624 H 0.81064 -0.08016 0.27986
 C1625 C 0.30179 0.55888 0.71317
 C1626 C 0.30263 0.55970 0.69576
 C1627 C 0.30147 0.57691 0.69673
 C1628 C 0.30077 0.57624 0.71397
 C1629 C 0.28455 0.55815 0.71213
 C1630 C 0.28342 0.57536 0.71306
 C1631 C 0.28521 0.55879 0.69487
 C1632 C 0.28423 0.57617 0.69569
 C1633 C 0.31066 0.58776 0.68840
 C1634 C 0.31791 0.59703 0.68169
 C1635 C 0.27506 0.54822 0.72123
 C1636 C 0.26727 0.54063 0.72932
 H1637 H 0.30890 0.55164 0.72045
 H1638 H 0.31065 0.55340 0.68856
 H1639 H 0.30726 0.58352 0.72175
 H1640 H 0.27541 0.58169 0.72025
 H1641 H 0.27871 0.55151 0.68713
 H1642 H 0.27710 0.58341 0.68841
 C1643 C 0.30167 1.05845 0.21288
 C1644 C 0.30224 1.05923 0.19546
 C1645 C 0.30127 1.07644 0.19640
 C1646 C 0.30085 1.07581 0.21366
 C1647 C 0.28441 1.05789 0.21211
 C1648 C 0.28347 1.07511 0.21302
 C1649 C 0.28482 1.05850 0.19484
 C1650 C 0.28402 1.07589 0.19564
 C1651 C 0.31043 1.08715 0.18788
 C1652 C 0.31769 1.09631 0.18102
 C1653 C 0.27495 1.04802 0.22130
 C1654 C 0.26718 1.04045 0.22942
 H1655 H 0.30883 1.05115 0.22006
 H1656 H 0.31008 1.05283 0.18814
 H1657 H 0.30752 1.08304 0.22133
 H1658 H 0.27563 1.08151 0.22034
 H1659 H 0.27811 1.05126 0.18722
 H1660 H 0.27683 1.08318 0.18847
 C1661 C 0.80178 0.55916 0.21364
 C1662 C 0.80367 0.55897 0.19630
 C1663 C 0.80135 0.57609 0.19606
 C1664 C 0.79961 0.57642 0.21325
 C1665 C 0.78473 0.55720 0.21163
 C1666 C 0.78245 0.57433 0.21137
 C1667 C 0.78645 0.55684 0.19444
 C1668 C 0.78430 0.57413 0.19406
 C1669 C 0.81039 0.58701 0.18769
 C1670 C 0.81755 0.59637 0.18101
 C1671 C 0.77537 0.54723 0.22081
 C1672 C 0.76764 0.53964 0.22895
 H1673 H 0.80887 0.55288 0.22179
 H1674 H 0.81252 0.55279 0.19001
 H1675 H 0.80512 0.58459 0.22090
 H1676 H 0.77362 0.58053 0.21766
 H1677 H 0.78093 0.54866 0.18682
 H1678 H 0.77721 0.58042 0.18592
 C1679 C 0.80555 1.05904 0.71623
 C1680 C 0.80567 1.05928 0.69877
 C1681 C 0.80411 1.07648 0.69917
 C1682 C 0.80414 1.07640 0.71646
 C1683 C 0.78832 1.05789 0.71592
 C1684 C 0.78679 1.07510 0.71629
 C1685 C 0.78827 1.05796 0.69863
 C1686 C 0.78688 1.07531 0.69889
 C1687 C 0.81260 1.08725 0.69006
 C1688 C 0.81934 1.09653 0.68285
 C1689 C 0.77903 1.04805 0.72531
 C1690 C 0.77084 1.04049 0.73301
 H1691 H 0.81312 1.05223 0.72347
 H1692 H 0.81353 1.05291 0.69145
 H1693 H 0.81076 1.08411 0.72368
 H1694 H 0.77894 1.08150 0.72359
 H1695 H 0.78165 1.05026 0.69142
 H1696 H 0.77928 1.08212 0.69167
 C1697 C 0.69872 0.55733 0.28933
 C1698 C 0.69936 0.55935 0.30664
 C1699 C 0.69937 0.57647 0.30440
 C1700 C 0.69858 0.57462 0.28725
 C1701 C 0.71599 0.55758 0.28883
 C1702 C 0.71597 0.57471 0.28662
 C1703 C 0.71681 0.55942 0.30599
 C1704 C 0.71665 0.57672 0.30389
 C1705 C 0.69030 0.58738 0.31277
 C1706 C 0.68306 0.59669 0.31945
 C1707 C 0.72532 0.54757 0.27966
 C1708 C 0.73299 0.53990 0.27153
 H1709 H 0.69144 0.54924 0.28325
 H1710 H 0.69241 0.55316 0.31498
 H1711 H 0.69100 0.58098 0.27962
 H1712 H 0.72291 0.58093 0.27830
 H1713 H 0.72441 0.55305 0.31358
 H1714 H 0.72393 0.58482 0.30996
 C1715 C 0.70931 1.05733 0.80161
 C1716 C 0.71189 1.07453 0.80236
 C1717 C 0.69484 1.07699 0.80088
 C1718 C 0.69211 1.05995 0.80029
 C1719 C 0.71058 1.05811 0.78439
 C1720 C 0.69353 1.06055 0.78290
 C1721 C 0.71328 1.07515 0.78502
 C1722 C 0.69612 1.07776 0.78366
 C1723 C 0.68642 1.08791 0.80990
 C1724 C 0.67978 1.09725 0.81714
 C1725 C 0.71985 1.04813 0.77512
 C1726 C 0.72806 1.04050 0.76748
 H1727 H 0.71484 1.04880 0.80888
 H1728 H 0.71936 1.08038 0.81045
 H1729 H 0.68331 1.05382 0.80669
 H1730 H 0.68609 1.05469 0.77480
 H1731 H 0.72208 1.08131 0.77865
 H1732 H 0.69062 1.08629 0.77638
 C1733 C 0.21893 0.56189 0.80649
 C1734 C 0.21689 0.57882 0.80290
 C1735 C 0.19990 0.57720 0.80563
 C1736 C 0.20177 0.56044 0.80937
 C1737 C 0.21625 0.55829 0.78982
 C1738 C 0.19926 0.55665 0.79253
 C1739 C 0.21435 0.57506 0.78611
 C1740 C 0.19725 0.57358 0.78896
 C1741 C 0.19092 0.58814 0.81406
 C1742 C 0.18368 0.59751 0.82063
 C1743 C 0.22542 0.54829 0.78047
 C1744 C 0.23295 0.54065 0.77219
 H1745 H 0.22795 0.55696 0.81359
 H1746 H 0.22404 0.58807 0.80724
 H1747 H 0.19647 0.55456 0.81904
 H1748 H 0.19213 0.54741 0.78817
 H1749 H 0.21962 0.58097 0.77645
 H1750 H 0.18824 0.57850 0.78183
 C1751 C 0.19849 1.05837 0.28986
 C1752 C 0.19910 1.06022 0.30719
 C1753 C 0.19946 1.07737 0.30510
 C1754 C 0.19870 1.07567 0.28792
 C1755 C 0.21577 1.05827 0.28943
 C1756 C 0.21609 1.07542 0.28737
 C1757 C 0.21655 1.05995 0.30661
 C1758 C 0.21674 1.07727 0.30467
 C1759 C 0.19053 1.08837 0.31351
 C1760 C 0.18335 1.09774 0.32018
 C1761 C 0.22494 1.04816 0.28020
 C1762 C 0.23253 1.04046 0.27202
 H1763 H 0.19108 1.05047 0.28368
 H1764 H 0.19198 1.05411 0.31544
 H1765 H 0.19129 1.08224 0.28031
 H1766 H 0.22319 1.08156 0.27913
 H1767 H 0.22398 1.05337 0.31419
 H1768 H 0.22415 1.08517 0.31082
 C1769 C 0.71494 0.42487 0.71451
 C1770 C 0.69754 0.42520 0.71399
 C1771 C 0.69825 0.42325 0.69684
 C1772 C 0.71553 0.42278 0.69724
 C1773 C 0.71514 0.44199 0.71222
 C1774 C 0.71587 0.44006 0.69506
 C1775 C 0.69786 0.44247 0.71182
 C1776 C 0.69843 0.44037 0.69451
 C1777 C 0.68907 0.41243 0.68851
 C1778 C 0.68184 0.40321 0.68174
 C1779 C 0.72460 0.45193 0.72129
 C1780 C 0.73238 0.45952 0.72934
 H1781 H 0.72184 0.41860 0.72281
 H1782 H 0.68993 0.41897 0.72168
 H1783 H 0.72272 0.41455 0.69117
 H1784 H 0.72352 0.44629 0.68739
 H1785 H 0.69069 0.45070 0.71790
 H1786 H 0.69152 0.44661 0.68619
 C1787 C 0.71544 -0.07479 0.21446
 C1788 C 0.69807 -0.07437 0.21356
 C1789 C 0.69915 -0.07644 0.19644
 C1790 C 0.71641 -0.07700 0.19723
 C1791 C 0.71577 -0.05769 0.21206
 C1792 C 0.71688 -0.05974 0.19494
 C1793 C 0.69851 -0.05711 0.21128
 C1794 C 0.69945 -0.05934 0.19400
 C1795 C 0.69013 -0.08731 0.18803
 C1796 C 0.68297 -0.09659 0.18129
 C1797 C 0.72514 -0.04776 0.22123
 C1798 C 0.73287 -0.04017 0.22933
 H1799 H 0.72212 -0.08103 0.22297
 H1800 H 0.69025 -0.08051 0.22112
 H1801 H 0.72367 -0.08531 0.19138
 H1802 H 0.72472 -0.05360 0.18740
 H1803 H 0.69125 -0.04881 0.21714
 H1804 H 0.69275 -0.05314 0.18548
 C1805 C 0.21456 0.42550 0.21448
 C1806 C 0.19739 0.42298 0.21568
 C1807 C 0.19632 0.42377 0.19845
 C1808 C 0.21338 0.42615 0.19713
 C1809 C 0.21187 0.44256 0.21510
 C1810 C 0.21082 0.44336 0.19787
 C1811 C 0.19481 0.44019 0.21644
 C1812 C 0.19359 0.44082 0.19904
 C1813 C 0.18793 0.41289 0.18943
 C1814 C 0.18125 0.40354 0.18229
 C1815 C 0.22100 0.45248 0.22451
 C1816 C 0.22906 0.46005 0.23231
 H1817 H 0.22328 0.41931 0.22093
 H1818 H 0.19179 0.41447 0.22291
 H1819 H 0.22093 0.42027 0.18910
 H1820 H 0.21643 0.45187 0.19066
 H1821 H 0.18729 0.44608 0.22448
 H1822 H 0.18487 0.44699 0.19257
 C1823 C 0.20256 -0.05318 0.70233
 C1824 C 0.20905 -0.06672 0.69346
 C1825 C 0.19607 -0.07650 0.69933
 C1826 C 0.18942 -0.06314 0.70805
 C1827 C 0.21187 -0.05800 0.71606
 C1828 C 0.19890 -0.06778 0.72193
 C1829 C 0.21849 -0.07136 0.70733
 C1830 C 0.20540 -0.08127 0.71307
 C1831 C 0.18759 -0.08723 0.69022
 C1832 C 0.18086 -0.09647 0.68300
 C1833 C 0.22116 -0.04820 0.72544
 C1834 C 0.22936 -0.04069 0.73314
 H1835 H 0.20149 -0.04151 0.69804
 H1836 H 0.21313 -0.06642 0.68166
 H1837 H 0.17736 -0.05989 0.70822
 H1838 H 0.19483 -0.06809 0.73374
 H1839 H 0.23054 -0.07464 0.70715
 H1840 H 0.20649 -0.09294 0.71738
 C1841 C 0.30642 0.28550 0.44225
 C1842 C 0.30639 0.28450 0.42484
 C1843 C 0.30519 0.30172 0.42400
 C1844 C 0.30536 0.30288 0.44125
 C1845 C 0.28916 0.28467 0.44213
 C1846 C 0.28794 0.30188 0.44129
 C1847 C 0.28901 0.28353 0.42488
 C1848 C 0.28793 0.30086 0.42391
 C1849 C 0.31381 0.31105 0.41351
 C1850 C 0.32065 0.31849 0.40447
 C1851 C 0.27978 0.27516 0.45179
 C1852 C 0.27156 0.26741 0.45928
 H1853 H 0.31391 0.27906 0.44990
 H1854 H 0.31407 0.27746 0.41794
 H1855 H 0.31218 0.31096 0.44785
 H1856 H 0.28025 0.30892 0.44818
 H1857 H 0.28219 0.27547 0.41825
 H1858 H 0.28041 0.30728 0.41626
 C1859 C 0.30595 0.78643 -0.05865
 C1860 C 0.30594 0.78560 -0.07606
 C1861 C 0.30460 0.80281 -0.07674
 C1862 C 0.30477 0.80382 -0.05948
 C1863 C 0.28870 0.78547 -0.05878
 C1864 C 0.28736 0.80268 -0.05945
 C1865 C 0.28856 0.78450 -0.07603
 C1866 C 0.28735 0.80183 -0.07684
 C1867 C 0.31320 0.81227 -0.08713
 C1868 C 0.32012 0.81975 -0.09607
 C1869 C 0.27941 0.77582 -0.04920
 C1870 C 0.27124 0.76797 -0.04176
 H1871 H 0.31349 0.77998 -0.05106
 H1872 H 0.31367 0.77868 -0.08302
 H1873 H 0.31152 0.81188 -0.05280
 H1874 H 0.27962 0.80960 -0.05250
 H1875 H 0.28181 0.77644 -0.08274
 H1876 H 0.27978 0.80826 -0.08443
 C1877 C 0.78062 0.30306 -0.06642
 C1878 C 0.79599 0.31004 -0.06207
 C1879 C 0.80268 0.30415 -0.07689
 C1880 C 0.78747 0.29732 -0.08138
 C1881 C 0.78541 0.28830 -0.05881
 C1882 C 0.79212 0.28245 -0.07363
 C1883 C 0.80062 0.29512 -0.05429
 C1884 C 0.80746 0.28939 -0.06927
 C1885 C 0.81207 0.31274 -0.08736
 C1886 C 0.81949 0.31967 -0.09637
 C1887 C 0.77577 0.27903 -0.04917
 C1888 C 0.76790 0.27088 -0.04172
 H1889 H 0.76948 0.30858 -0.06514
 H1890 H 0.79770 0.32148 -0.05743
 H1891 H 0.78216 0.29831 -0.09263
 H1892 H 0.79041 0.27101 -0.07829
 H1893 H 0.80590 0.29412 -0.04302
 H1894 H 0.81859 0.28386 -0.07056
 C1895 C 0.78024 0.80328 0.43450
 C1896 C 0.79573 0.81013 0.43862
 C1897 C 0.80214 0.80425 0.42368
 C1898 C 0.78680 0.79755 0.41941
 C1899 C 0.78505 0.78847 0.44198
 C1900 C 0.79147 0.78262 0.42703
 C1901 C 0.80038 0.79515 0.44628
 C1902 C 0.80693 0.78943 0.43116
 C1903 C 0.81143 0.81279 0.41307
 C1904 C 0.81876 0.81965 0.40396
 C1905 C 0.77547 0.77922 0.45171
 C1906 C 0.76762 0.77108 0.45919
 H1907 H 0.76917 0.80888 0.43598
 H1908 H 0.79761 0.82155 0.44326
 H1909 H 0.78132 0.79861 0.40825
 H1910 H 0.78961 0.77121 0.42236
 H1911 H 0.80585 0.79407 0.45745
 H1912 H 0.81800 0.78382 0.42967
 C1913 C 0.71465 0.30634 0.55739
 C1914 C 0.69732 0.30478 0.55881
 C1915 C 0.69886 0.30523 0.57602
 C1916 C 0.71602 0.30694 0.57476
 C1917 C 0.71608 0.28915 0.55811
 C1918 C 0.71759 0.28962 0.57532
 C1919 C 0.69892 0.28743 0.55937
 C1920 C 0.70032 0.28803 0.57672
 C1921 C 0.68947 0.31389 0.58641
 C1922 C 0.68200 0.32077 0.59539
 C1923 C 0.72569 0.27975 0.54859
 C1924 C 0.73351 0.27151 0.54120
 H1925 H 0.72065 0.31377 0.54933
 H1926 H 0.68885 0.31111 0.55216
 H1927 H 0.72293 0.31506 0.58122
 H1928 H 0.72603 0.28330 0.58201
 H1929 H 0.69199 0.27931 0.55293
 H1930 H 0.69432 0.28060 0.58477
 C1931 C 0.71637 0.78852 1.07503
 C1932 C 0.71572 0.80589 1.07549
 C1933 C 0.69846 0.80505 1.07590
 C1934 C 0.69899 0.78780 1.07558
 C1935 C 0.71564 0.78917 1.05777
 C1936 C 0.69837 0.78832 1.05818
 C1937 C 0.71513 0.80643 1.05807
 C1938 C 0.69770 0.80573 1.05865
 C1939 C 0.68909 0.81362 1.08640
 C1940 C 0.68167 0.82047 1.09545
 C1941 C 0.72520 0.77986 1.04811
 C1942 C 0.73300 0.77167 1.04063
 H1943 H 0.72416 0.78135 1.08166
 H1944 H 0.72275 0.81321 1.08274
 H1945 H 0.69226 0.78022 1.08288
 H1946 H 0.69135 0.78099 1.05094
 H1947 H 0.72189 0.81398 1.05077
 H1948 H 0.68990 0.81290 1.05203
 C1949 C 0.21388 0.30653 1.05711
 C1950 C 0.19658 0.30497 1.05881
 C1951 C 0.19839 0.30540 1.07599
 C1952 C 0.21553 0.30710 1.07446
 C1953 C 0.21532 0.28933 1.05778
 C1954 C 0.21710 0.28978 1.07496
 C1955 C 0.19819 0.28762 1.05931
 C1956 C 0.19985 0.28820 1.07664
 C1957 C 0.18914 0.31402 1.08658
 C1958 C 0.18178 0.32085 1.09570
 C1959 C 0.22480 0.27991 1.04812
 C1960 C 0.23255 0.27163 1.04068
 H1961 H 0.21976 0.31396 1.04897
 H1962 H 0.18802 0.31131 1.05229
 H1963 H 0.22256 0.31521 1.08081
 H1964 H 0.22565 0.28345 1.08151
 H1965 H 0.19116 0.27951 1.05297
 H1966 H 0.19399 0.28074 1.08476
 C1967 C 0.19811 0.78737 0.56013
 C1968 C 0.19996 0.78801 0.57743
 C1969 C 0.19837 0.80519 0.57676
 C1970 C 0.19638 0.80471 0.55960
 C1971 C 0.21522 0.78919 0.55840
 C1972 C 0.21365 0.80638 0.55770
 C1973 C 0.21718 0.78970 0.57556
 C1974 C 0.21548 0.80701 0.57503
 C1975 C 0.18917 0.81381 0.58738
 C1976 C 0.18183 0.82066 0.59650
 C1977 C 0.22464 0.77981 0.54866
 C1978 C 0.23236 0.77156 0.54116
 H1979 H 0.19106 0.77920 0.55388
 H1980 H 0.19424 0.78053 0.58564
 H1981 H 0.18770 0.81097 0.55316
 H1982 H 0.21939 0.81383 0.54948
 H1983 H 0.22584 0.78344 0.58203
 H1984 H 0.22252 0.81518 0.58129
 C1985 C 0.28473 0.71258 0.57526
 C1986 C 0.28416 0.69525 0.57670
 C1987 C 0.30143 0.69482 0.57586
 C1988 C 0.30211 0.71202 0.57455
 C1989 C 0.28418 0.71099 0.55806
 C1990 C 0.30145 0.71056 0.55721
 C1991 C 0.28348 0.69379 0.55935
 C1992 C 0.30091 0.69320 0.55866
 C1993 C 0.31086 0.68610 0.58617
 C1994 C 0.31837 0.67917 0.59507
 C1995 C 0.27460 0.72044 0.54856
 C1996 C 0.26681 0.72872 0.54118
 H1997 H 0.27796 0.72063 0.58198
 H1998 H 0.27717 0.68886 0.58484
 H1999 H 0.30987 0.71942 0.58091
 H2000 H 0.30844 0.71697 0.54908
 H2001 H 0.27570 0.68640 0.55299
 H2002 H 0.30770 0.68514 0.55197
 C2003 C 0.28501 0.21328 1.07511
 C2004 C 0.28439 0.19599 1.07690
 C2005 C 0.30166 0.19549 1.07612
 C2006 C 0.30239 0.21266 1.07448
 C2007 C 0.28451 0.21136 1.05795
 C2008 C 0.30178 0.21087 1.05717
 C2009 C 0.28376 0.19418 1.05957
 C2010 C 0.30119 0.19353 1.05896
 C2011 C 0.31100 0.18694 1.08666
 C2012 C 0.31840 0.18009 1.09573
 C2013 C 0.27495 0.22068 1.04829
 C2014 C 0.26716 0.22889 1.04083
 H2015 H 0.27824 0.22148 1.08166
 H2016 H 0.27735 0.18977 1.08514
 H2017 H 0.31015 0.22017 1.08072
 H2018 H 0.30881 0.21709 1.04893
 H2019 H 0.27598 0.18669 1.05334
 H2020 H 0.30797 0.18533 1.05243
 C2021 C 0.80075 0.70540 1.05376
 C2022 C 0.80685 0.71092 1.06911
 C2023 C 0.80222 0.69587 1.07620
 C2024 C 0.79627 0.69018 1.06102
 C2025 C 0.78519 0.71171 1.05789
 C2026 C 0.78055 0.69665 1.06498
 C2027 C 0.79115 0.71736 1.07308
 C2028 C 0.78665 0.70219 1.08030
 C2029 C 0.81149 0.68730 1.08680
 C2030 C 0.81880 0.68043 1.09592
 C2031 C 0.77565 0.72099 1.04816
 C2032 C 0.76783 0.72916 1.04066
 H2033 H 0.80644 0.70681 1.04272
 H2034 H 0.81776 0.71670 1.07094
 H2035 H 0.79851 0.67890 1.05618
 H2036 H 0.76964 0.69088 1.06317
 H2037 H 0.78894 0.72863 1.07796
 H2038 H 0.78096 0.70079 1.09134
 C2039 C 0.80113 0.20495 0.55428
 C2040 C 0.80733 0.21048 0.56959
 C2041 C 0.80249 0.19554 0.57678
 C2042 C 0.79644 0.18984 0.56164
 C2043 C 0.78566 0.21151 0.55838
 C2044 C 0.78082 0.19657 0.56557
 C2045 C 0.79173 0.21717 0.57353
 C2046 C 0.78702 0.20212 0.58086
 C2047 C 0.81163 0.18690 0.58745
 C2048 C 0.81888 0.18002 0.59662
 C2049 C 0.77620 0.22084 0.54862
 C2050 C 0.76840 0.22902 0.54111
 H2051 H 0.80682 0.20621 0.54322
 H2052 H 0.81832 0.21612 0.57135
 H2053 H 0.79850 0.17850 0.55687
 H2054 H 0.76982 0.19095 0.56382
 H2055 H 0.78969 0.22851 0.57832
 H2056 H 0.78131 0.20088 0.59190
 C2057 C 0.71873 0.70813 0.42559
 C2058 C 0.71427 0.69150 0.42813
 C2059 C 0.69792 0.69553 0.42419
 C2060 C 0.70227 0.71202 0.42151
 C2061 C 0.71517 0.71138 0.44218
 C2062 C 0.69882 0.71541 0.43824
 C2063 C 0.71085 0.69489 0.44490
 C2064 C 0.69433 0.69877 0.44078
 C2065 C 0.68854 0.68696 0.41376
 C2066 C 0.68114 0.68009 0.40475
 C2067 C 0.72478 0.72065 0.45177
 C2068 C 0.73263 0.72880 0.45919
 H2069 H 0.72887 0.71206 0.41945
 H2070 H 0.72052 0.68156 0.42385
 H2071 H 0.69864 0.71898 0.41179
 H2072 H 0.69258 0.72535 0.44250
 H2073 H 0.71450 0.68796 0.45462
 H2074 H 0.68418 0.69484 0.44690
 C2075 C 0.71742 0.19308 -0.05994
 C2076 C 0.70001 0.19211 -0.05921
 C2077 C 0.69940 0.19383 -0.07640
 C2078 C 0.71664 0.19465 -0.07729
 C2079 C 0.71629 0.21026 -0.05858
 C2080 C 0.71565 0.21195 -0.07577
 C2081 C 0.69904 0.20945 -0.05768
 C2082 C 0.69829 0.21101 -0.07501
 C2083 C 0.69011 0.18501 -0.08672
 C2084 C 0.68262 0.17808 -0.09561
 C2085 C 0.72570 0.21984 -0.04907
 C2086 C 0.73336 0.22820 -0.04168
 H2087 H 0.72539 0.18582 -0.05364
 H2088 H 0.69345 0.18386 -0.05253
 H2089 H 0.72377 0.18848 -0.08548
 H2090 H 0.72218 0.22021 -0.08248
 H2091 H 0.69191 0.21564 -0.04950
 H2092 H 0.69032 0.21829 -0.08132
 C2093 C 0.19613 0.72201 -0.06646
 C2094 C 0.20184 0.71465 -0.08117
 C2095 C 0.19416 0.69989 -0.07653
 C2096 C 0.18829 0.70710 -0.06196
 C2097 C 0.21048 0.71663 -0.05847
 C2098 C 0.20281 0.70187 -0.05380
 C2099 C 0.21631 0.70940 -0.07305
 C2100 C 0.20851 0.69452 -0.06855
 C2101 C 0.18542 0.69068 -0.08700
 C2102 C 0.17857 0.68324 -0.09599
 C2103 C 0.22004 0.72596 -0.04886
 C2104 C 0.22843 0.73357 -0.04146
 H2105 H 0.19114 0.73342 -0.06549
 H2106 H 0.20136 0.71980 -0.09255
 H2107 H 0.17666 0.70603 -0.05752
 H2108 H 0.20331 0.69673 -0.04243
 H2109 H 0.22793 0.71045 -0.07752
 H2110 H 0.21351 0.68312 -0.06952
 C2111 C 0.20976 0.19892 0.44329
 C2112 C 0.19247 0.20015 0.44126
 C2113 C 0.19468 0.19950 0.42412
 C2114 C 0.21181 0.19813 0.42601
 C2115 C 0.21086 0.21614 0.44241
 C2116 C 0.21304 0.21546 0.42528
 C2117 C 0.19373 0.21753 0.44055
 C2118 C 0.19579 0.21672 0.42325
 C2119 C 0.18603 0.19040 0.41349
 C2120 C 0.17923 0.18310 0.40435
 C2121 C 0.22035 0.22546 0.45210
 C2122 C 0.22870 0.23309 0.45955
 H2123 H 0.21560 0.19171 0.45165
 H2124 H 0.18392 0.19373 0.44770
 H2125 H 0.21915 0.19006 0.41993
 H2126 H 0.22158 0.22185 0.41880
 H2127 H 0.18641 0.22561 0.44664
 H2128 H 0.18996 0.22393 0.41489
 C2129 C 0.28626 0.42485 0.71531
 C2130 C 0.28698 0.42537 0.69793
 C2131 C 0.30414 0.42351 0.69878
 C2132 C 0.30353 0.42286 0.71604
 C2133 C 0.28840 0.44198 0.71569
 C2134 C 0.30556 0.44014 0.71657
 C2135 C 0.28899 0.44265 0.69843
 C2136 C 0.30632 0.44063 0.69914
 C2137 C 0.31258 0.41277 0.68960
 C2138 C 0.31928 0.40349 0.68236
 C2139 C 0.27912 0.45172 0.72518
 C2140 C 0.27092 0.45920 0.73297
 H2141 H 0.27793 0.41846 0.72206
 H2142 H 0.27944 0.41918 0.69016
 H2143 H 0.30960 0.41459 0.72318
 H2144 H 0.31308 0.44634 0.72435
 H2145 H 0.28291 0.45091 0.69131
 H2146 H 0.31466 0.44699 0.69236
 C2147 C 0.28870 0.94133 0.19895
 C2148 C 0.30610 0.93993 0.19918
 C2149 C 0.30452 0.92273 0.19970
 C2150 C 0.28728 0.92398 0.19933
 C2151 C 0.28867 0.94147 0.21624
 C2152 C 0.28712 0.92428 0.21672
 C2153 C 0.30590 0.94025 0.21663
 C2154 C 0.30447 0.92289 0.21698
 C2155 C 0.31299 0.91188 0.19064
 C2156 C 0.31965 0.90259 0.18336
 C2157 C 0.27933 0.95137 0.22553
 C2158 C 0.27106 0.95893 0.23317
 H2159 H 0.28212 0.94904 0.19165
 H2160 H 0.31399 0.94623 0.19184
 H2161 H 0.27970 0.91720 0.19212
 H2162 H 0.27922 0.91795 0.22404
 H2163 H 0.31346 0.94705 0.22384
 H2164 H 0.31104 0.91518 0.22429
 C2165 C 0.78633 0.42340 0.21561
 C2166 C 0.78735 0.42402 0.19825
 C2167 C 0.80447 0.42188 0.19937
 C2168 C 0.80356 0.42112 0.21662
 C2169 C 0.78872 0.44049 0.21616
 C2170 C 0.80584 0.43838 0.21730
 C2171 C 0.78962 0.44126 0.19891
 C2172 C 0.80689 0.43897 0.19989
 C2173 C 0.81292 0.41118 0.19010
 C2174 C 0.81960 0.40211 0.18256
 C2175 C 0.77946 0.45040 0.22553
 C2176 C 0.77128 0.45802 0.23321
 H2177 H 0.77778 0.41710 0.22218
 H2178 H 0.77983 0.41801 0.19033
 H2179 H 0.80938 0.41271 0.22380
 H2180 H 0.81333 0.44440 0.22524
 H2181 H 0.78380 0.44967 0.19174
 H2182 H 0.81544 0.44525 0.19331
 C2183 C 0.78667 0.92481 0.71585
 C2184 C 0.78378 0.92031 0.69930
 C2185 C 0.80060 0.92254 0.69596
 C2186 C 0.80361 0.92689 0.71239
 C2187 C 0.78393 0.94134 0.71160
 C2188 C 0.80075 0.94358 0.70828
 C2189 C 0.78090 0.93700 0.69517
 C2190 C 0.79788 0.93906 0.69168
 C2191 C 0.80970 0.91169 0.68751
 C2192 C 0.81694 0.90246 0.68073
 C2193 C 0.77459 0.95131 0.72084
 C2194 C 0.76692 0.95893 0.72902
 H2195 H 0.78195 0.91906 0.72588
 H2196 H 0.77689 0.91063 0.69554
 H2197 H 0.81302 0.92262 0.71940
 H2198 H 0.80761 0.95327 0.71205
 H2199 H 0.77147 0.94127 0.68819
 H2200 H 0.80261 0.94479 0.68164
 C2201 C 0.69476 0.55856 0.71399
 C2202 C 0.69480 0.57591 0.71551
 C2203 C 0.69657 0.57726 0.69836
 C2204 C 0.69638 0.56007 0.69668
 C2205 C 0.71198 0.55859 0.71539
 C2206 C 0.71376 0.55992 0.69824
 C2207 C 0.71214 0.57577 0.71704
 C2208 C 0.71379 0.57725 0.69978
 C2209 C 0.68824 0.58806 0.68913
 C2210 C 0.68150 0.59729 0.68184
 C2211 C 0.72104 0.54871 0.72496
 C2212 C 0.72907 0.54113 0.73282
 H2213 H 0.68704 0.55075 0.71995
 H2214 H 0.68692 0.58262 0.72251
 H2215 H 0.68981 0.55374 0.68818
 H2216 H 0.72165 0.55321 0.69126
 H2217 H 0.71870 0.58212 0.72552
 H2218 H 0.72153 0.58505 0.69384
 C2219 C 0.71376 0.06040 0.19801
 C2220 C 0.69640 0.06028 0.19632
 C2221 C 0.69629 0.07744 0.19828
 C2222 C 0.71349 0.07770 0.19983
 C2223 C 0.71190 0.05876 0.21512
 C2224 C 0.71175 0.07592 0.21705
 C2225 C 0.69469 0.05847 0.21361
 C2226 C 0.69442 0.07580 0.21539
 C2227 C 0.68791 0.08830 0.18913
 C2228 C 0.68125 0.09763 0.18190
 C2229 C 0.72111 0.04890 0.22459
 C2230 C 0.72927 0.04137 0.23237
 H2231 H 0.72181 0.05394 0.19097
 H2232 H 0.68999 0.05399 0.18768
 H2233 H 0.72114 0.08571 0.19407
 H2234 H 0.71815 0.08224 0.22568
 H2235 H 0.68707 0.05044 0.21938
 H2236 H 0.68638 0.08225 0.22244
 C2237 C 0.19668 0.55837 0.21254
 C2238 C 0.19595 0.57562 0.21483
 C2239 C 0.19683 0.57776 0.19771
 C2240 C 0.19741 0.56068 0.19525
 C2241 C 0.21393 0.55918 0.21314
 C2242 C 0.21483 0.56131 0.19602
 C2243 C 0.21333 0.57627 0.21557
 C2244 C 0.21409 0.57855 0.19833
 C2245 C 0.18765 0.58847 0.18918
 C2246 C 0.18052 0.59760 0.18212
 C2247 C 0.22362 0.54932 0.22212
 C2248 C 0.23166 0.54173 0.22998
 H2249 H 0.18963 0.54994 0.21847
 H2250 H 0.18810 0.58161 0.22248
 H2251 H 0.19074 0.55439 0.18681
 H2252 H 0.22270 0.55531 0.18840
 H2253 H 0.21999 0.58258 0.22401
 H2254 H 0.22116 0.58697 0.19242
 C2255 C 0.21624 0.06046 0.69562
 C2256 C 0.19884 0.05963 0.69456
 C2257 C 0.19802 0.07669 0.69708
 C2258 C 0.21526 0.07768 0.69799
 C2259 C 0.21509 0.05823 0.71272
 C2260 C 0.21425 0.07530 0.71520
 C2261 C 0.19785 0.05724 0.71182
 C2262 C 0.19689 0.07446 0.71418
 C2263 C 0.18871 0.08731 0.68855
 C2264 C 0.18141 0.09639 0.68161
 C2265 C 0.22467 0.04843 0.72188
 C2266 C 0.23253 0.04088 0.72994
 H2267 H 0.22431 0.05458 0.68810
 H2268 H 0.19239 0.05329 0.68598
 H2269 H 0.22232 0.08621 0.69222
 H2270 H 0.22070 0.08166 0.72378
 H2271 H 0.19081 0.04870 0.71760
 H2272 H 0.18884 0.08033 0.72173
 C2273 C 0.28300 0.57606 0.28851
 C2274 C 0.28470 0.57592 0.30582
 C2275 C 0.30179 0.57772 0.30391
 C2276 C 0.30020 0.57801 0.28671
 C2277 C 0.28513 0.55892 0.28837
 C2278 C 0.30222 0.56072 0.28645
 C2279 C 0.28670 0.55861 0.30557
 C2280 C 0.30396 0.56058 0.30380
 C2281 C 0.31081 0.58862 0.31232
 C2282 C 0.31793 0.59796 0.31904
 C2283 C 0.27567 0.54901 0.27926
 C2284 C 0.26781 0.54145 0.27124
 H2285 H 0.27428 0.58233 0.28213
 H2286 H 0.27759 0.58229 0.31388
 H2287 H 0.30584 0.58609 0.27904
 H2288 H 0.30932 0.55434 0.27839
 H2289 H 0.28104 0.55051 0.31321
 H2290 H 0.31269 0.55434 0.31019
 C2291 C 0.28713 0.05623 0.80712
 C2292 C 0.30393 0.05991 0.80410
 C2293 C 0.30040 0.07669 0.80614
 C2294 C 0.28377 0.07320 0.80931
 C2295 C 0.28394 0.05802 0.79024
 C2296 C 0.28044 0.07481 0.79230
 C2297 C 0.30057 0.06152 0.78707
 C2298 C 0.29718 0.07844 0.78925
 C2299 C 0.30942 0.08754 0.81458
 C2300 C 0.31669 0.09686 0.82116
 C2301 C 0.27470 0.04817 0.78085
 C2302 C 0.26711 0.04065 0.77255
 H2303 H 0.28290 0.04698 0.81436
 H2304 H 0.31371 0.05391 0.80905
 H2305 H 0.27697 0.07813 0.81856
 H2306 H 0.27068 0.08084 0.78735
 H2307 H 0.30738 0.05659 0.77783
 H2308 H 0.30140 0.08767 0.78199
 C2309 C 0.79683 0.55435 0.79941
 C2310 C 0.81062 0.56352 0.79391
 C2311 C 0.80398 0.57759 0.80145
 C2312 C 0.79035 0.56860 0.80710
 C2313 C 0.78848 0.55864 0.78490
 C2314 C 0.78188 0.57272 0.79246
 C2315 C 0.80211 0.56763 0.77925
 C2316 C 0.79562 0.58184 0.78693
 C2317 C 0.81233 0.58855 0.81044
 C2318 C 0.81898 0.59791 0.81760
 C2319 C 0.77934 0.54862 0.77558
 C2320 C 0.77125 0.54099 0.76787
 H2321 H 0.79723 0.54293 0.80442
 H2322 H 0.82255 0.55987 0.79462
 H2323 H 0.78560 0.56912 0.81864
 H2324 H 0.76996 0.57640 0.79176
 H2325 H 0.80685 0.56712 0.76770
 H2326 H 0.79518 0.59326 0.78190
 C2327 C 0.78691 0.07615 0.28434
 C2328 C 0.78809 0.07547 0.30169
 C2329 C 0.80517 0.07771 0.30038
 C2330 C 0.80412 0.07853 0.28315
 C2331 C 0.78945 0.05907 0.28370
 C2332 C 0.80653 0.06129 0.28237
 C2333 C 0.79050 0.05825 0.30093
 C2334 C 0.80774 0.06063 0.29977
 C2335 C 0.81362 0.08841 0.30959
 C2336 C 0.82030 0.09748 0.31709
 C2337 C 0.78019 0.04916 0.27440
 C2338 C 0.77199 0.04154 0.26680
 H2339 H 0.77825 0.08242 0.27789
 H2340 H 0.78058 0.08142 0.30971
 H2341 H 0.80979 0.08700 0.27593
 H2342 H 0.81402 0.05533 0.27432
 H2343 H 0.78480 0.04979 0.30814
 H2344 H 0.81640 0.05438 0.30624
 C2345 C 0.69397 0.43855 0.28334
 C2346 C 0.69660 0.42135 0.28427
 C2347 C 0.69533 0.42224 0.30149
 C2348 C 0.69255 0.43927 0.30073
 C2349 C 0.71102 0.44098 0.28480
 C2350 C 0.70976 0.44188 0.30202
 C2351 C 0.71375 0.42394 0.28560
 C2352 C 0.71237 0.42469 0.30293
 C2353 C 0.68694 0.41134 0.31056
 C2354 C 0.68030 0.40196 0.31775
 C2355 C 0.72028 0.45085 0.27541
 C2356 C 0.72850 0.45838 0.26769
 H2357 H 0.68652 0.44437 0.27518
 H2358 H 0.69111 0.41278 0.27707
 H2359 H 0.68374 0.44545 0.30707
 H2360 H 0.71526 0.45045 0.30920
 H2361 H 0.72255 0.41773 0.27927
 H2362 H 0.71985 0.41888 0.31107
 C2363 C 0.71491 0.94144 0.80688
 C2364 C 0.69756 0.93990 0.80573
 C2365 C 0.69933 0.92272 0.80545
 C2366 C 0.71651 0.92408 0.80674
 C2367 C 0.71587 0.94147 0.78962
 C2368 C 0.71760 0.92429 0.78936
 C2369 C 0.69869 0.94011 0.78833
 C2370 C 0.70031 0.92279 0.78819
 C2371 C 0.69025 0.91187 0.81388
 C2372 C 0.68294 0.90258 0.82050
 C2373 C 0.72513 0.95139 0.78028
 C2374 C 0.73272 0.95897 0.77200
 H2375 H 0.72103 0.94924 0.81444
 H2376 H 0.68920 0.94620 0.81256
 H2377 H 0.72373 0.91737 0.81440
 H2378 H 0.72594 0.91798 0.78254
 H2379 H 0.69147 0.94683 0.78066
 H2380 H 0.69421 0.91501 0.78059
 C2381 C 0.19648 0.43340 0.77939
 C2382 C 0.20261 0.41833 0.78563
 C2383 C 0.19564 0.42204 0.80101
 C2384 C 0.18936 0.43696 0.79492
 C2385 C 0.21104 0.44116 0.78448
 C2386 C 0.20408 0.44490 0.79985
 C2387 C 0.21727 0.42623 0.79059
 C2388 C 0.21019 0.42980 0.80609
 C2389 C 0.18734 0.41102 0.81004
 C2390 C 0.18073 0.40164 0.81725
 C2391 C 0.22015 0.45129 0.77520
 C2392 C 0.22827 0.45901 0.76755
 H2393 H 0.19094 0.43499 0.76832
 H2394 H 0.20194 0.40728 0.77989
 H2395 H 0.17778 0.44125 0.79682
 H2396 H 0.20477 0.45596 0.80558
 H2397 H 0.22885 0.42192 0.78870
 H2398 H 0.21575 0.42820 0.81715
 C2399 C 0.19626 0.93325 0.27922
 C2400 C 0.20237 0.91821 0.28555
 C2401 C 0.19535 0.92199 0.30089
 C2402 C 0.18909 0.93688 0.29471
 C2403 C 0.21080 0.94103 0.28431
 C2404 C 0.20380 0.94485 0.29965
 C2405 C 0.21702 0.92613 0.29050
 C2406 C 0.20989 0.92978 0.30597
 C2407 C 0.18706 0.91099 0.30993
 C2408 C 0.18048 0.90160 0.31714
 C2409 C 0.21995 0.95111 0.27502
 C2410 C 0.22810 0.95880 0.26739
 H2411 H 0.19074 0.93480 0.26812
 H2412 H 0.20172 0.90714 0.27984
 H2413 H 0.17751 0.94118 0.29657
 H2414 H 0.20448 0.95593 0.30532
 H2415 H 0.22860 0.92182 0.28866
 H2416 H 0.21543 0.92823 0.31705
 C2417 C 0.44280 0.28903 0.69813
 C2418 C 0.42559 0.28642 0.69739
 C2419 C 0.42312 0.30347 0.69852
 C2420 C 0.44017 0.30624 0.69913
 C2421 C 0.44197 0.28809 0.71537
 C2422 C 0.43951 0.30514 0.71654
 C2423 C 0.42491 0.28536 0.71474
 C2424 C 0.42230 0.30253 0.71576
 C2425 C 0.41219 0.31173 0.68936
 C2426 C 0.40281 0.31834 0.68216
 C2427 C 0.45193 0.27895 0.72479
 C2428 C 0.45956 0.27081 0.73249
 H2429 H 0.45136 0.28339 0.69100
 H2430 H 0.41976 0.27882 0.68942
 H2431 H 0.44631 0.31492 0.69259
 H2432 H 0.44535 0.31273 0.72453
 H2433 H 0.41873 0.27671 0.72127
 H2434 H 0.41374 0.30816 0.72291
 C2435 C 0.43236 0.79662 0.21707
 C2436 C 0.43648 0.80631 0.20318
 C2437 C 0.42269 0.79998 0.19495
 C2438 C 0.41844 0.79043 0.20872
 C2439 C 0.44181 0.78367 0.21060
 C2440 C 0.42801 0.77735 0.20237
 C2441 C 0.44610 0.79321 0.19684
 C2442 C 0.43212 0.78703 0.18845
 C2443 C 0.41165 0.80891 0.18657
 C2444 C 0.40225 0.81610 0.17996
 C2445 C 0.45192 0.77450 0.21985
 C2446 C 0.45962 0.76695 0.22807
 H2447 H 0.43257 0.80048 0.22894
 H2448 H 0.43982 0.81832 0.20344
 H2449 H 0.40696 0.78937 0.21354
 H2450 H 0.42465 0.76535 0.20212
 H2451 H 0.45759 0.79424 0.19206
 H2452 H 0.43189 0.78319 0.17658
 C2453 C 0.94107 0.28629 0.19440
 C2454 C 0.92368 0.28511 0.19470
 C2455 C 0.92267 0.30230 0.19601
 C2456 C 0.93990 0.30365 0.19557
 C2457 C 0.94119 0.28532 0.21165
 C2458 C 0.94018 0.30251 0.21298
 C2459 C 0.92396 0.28400 0.21207
 C2460 C 0.92280 0.30131 0.21326
 C2461 C 0.91203 0.31150 0.18742
 C2462 C 0.90299 0.31874 0.18039
 C2463 C 0.95105 0.27576 0.22075
 C2464 C 0.95863 0.26786 0.22874
 H2465 H 0.94869 0.28001 0.18675
 H2466 H 0.91676 0.27805 0.18710
 H2467 H 0.94632 0.31186 0.18870
 H2468 H 0.94710 0.30956 0.22059
 H2469 H 0.91751 0.27581 0.21894
 H2470 H 0.91518 0.30758 0.22092
 C2471 C 0.94113 0.78613 0.69420
 C2472 C 0.92374 0.78501 0.69474
 C2473 C 0.92281 0.80221 0.69602
 C2474 C 0.94003 0.80350 0.69532
 C2475 C 0.94149 0.78522 0.71144
 C2476 C 0.94057 0.80242 0.71272
 C2477 C 0.92427 0.78396 0.71211
 C2478 C 0.92319 0.80127 0.71327
 C2479 C 0.91202 0.81145 0.68766
 C2480 C 0.90280 0.81872 0.68088
 C2481 C 0.95141 0.77568 0.72053
 C2482 C 0.95901 0.76785 0.72857
 H2483 H 0.94862 0.77980 0.68646
 H2484 H 0.91669 0.77794 0.68727
 H2485 H 0.94638 0.81166 0.68832
 H2486 H 0.94762 0.80947 0.72021
 H2487 H 0.91790 0.77580 0.71910
 H2488 H 0.91571 0.80758 0.72103
 C2489 C 0.57144 0.29205 0.28204
 C2490 C 0.56700 0.30627 0.29102
 C2491 C 0.57639 0.30051 0.30433
 C2492 C 0.58098 0.28641 0.29546
 C2493 C 0.55772 0.28385 0.28863
 C2494 C 0.56712 0.27809 0.30193
 C2495 C 0.55310 0.29795 0.29748
 C2496 C 0.56268 0.29233 0.31095
 C2497 C 0.58721 0.30956 0.31277
 C2498 C 0.59649 0.31677 0.31946
 C2499 C 0.54784 0.27451 0.27938
 C2500 C 0.54030 0.26684 0.27119
 H2501 H 0.57494 0.29183 0.27005
 H2502 H 0.56708 0.31796 0.28662
 H2503 H 0.59255 0.28178 0.29469
 H2504 H 0.56706 0.26640 0.30632
 H2505 H 0.54152 0.30257 0.29822
 H2506 H 0.55921 0.29257 0.32295
 C2507 C 0.57230 0.79609 0.77798
 C2508 C 0.56848 0.81126 0.78563
 C2509 C 0.57597 0.80555 0.80013
 C2510 C 0.57992 0.79053 0.79260
 C2511 C 0.55727 0.78970 0.78364
 C2512 C 0.56477 0.78402 0.79814
 C2513 C 0.55327 0.80472 0.79115
 C2514 C 0.56094 0.79918 0.80582
 C2515 C 0.58682 0.81397 0.80918
 C2516 C 0.59614 0.82054 0.81648
 C2517 C 0.54740 0.78031 0.77441
 C2518 C 0.53988 0.77197 0.76686
 H2519 H 0.57686 0.79473 0.76643
 H2520 H 0.57013 0.82256 0.78059
 H2521 H 0.59099 0.78477 0.79328
 H2522 H 0.56313 0.77272 0.80319
 H2523 H 0.54219 0.81045 0.79045
 H2524 H 0.55640 0.80053 0.81737
 C2525 C 0.07391 0.28884 0.78378
 C2526 C 0.07042 0.30503 0.78908
 C2527 C 0.07633 0.30091 0.80478
 C2528 C 0.07995 0.28484 0.79960
 C2529 C 0.05810 0.28400 0.78884
 C2530 C 0.06400 0.27986 0.80454
 C2531 C 0.05445 0.30008 0.79401
 C2532 C 0.06053 0.29610 0.80988
 C2533 C 0.08691 0.31013 0.81334
 C2534 C 0.09601 0.31748 0.82012
 C2535 C 0.04844 0.27455 0.77948
 C2536 C 0.04100 0.26682 0.77125
 H2537 H 0.07931 0.28575 0.77295
 H2538 H 0.07318 0.31548 0.78281
 H2539 H 0.09055 0.27867 0.80197
 H2540 H 0.06124 0.26941 0.81080
 H2541 H 0.04385 0.30623 0.79162
 H2542 H 0.05516 0.29921 0.82072
 C2543 C 0.05336 0.79795 0.29732
 C2544 C 0.06246 0.79248 0.31118
 C2545 C 0.07649 0.80027 0.30477
 C2546 C 0.06757 0.80589 0.29108
 C2547 C 0.05798 0.78358 0.28892
 C2548 C 0.07202 0.79140 0.28254
 C2549 C 0.06690 0.77796 0.30261
 C2550 C 0.08107 0.78590 0.29635
 C2551 C 0.08721 0.80941 0.31324
 C2552 C 0.09640 0.81671 0.31994
 C2553 C 0.04818 0.77428 0.27955
 C2554 C 0.04066 0.76669 0.27125
 H2555 H 0.04185 0.80278 0.29763
 H2556 H 0.05866 0.79304 0.32307
 H2557 H 0.06798 0.81747 0.28643
 H2558 H 0.07586 0.79085 0.27067
 H2559 H 0.06650 0.76637 0.30725
 H2560 H 0.09258 0.78106 0.29602
 C2561 C 0.55902 0.71263 0.69912
 C2562 C 0.57637 0.71257 0.70066
 C2563 C 0.57625 0.69535 0.69947
 C2564 C 0.55905 0.69525 0.69779
 C2565 C 0.55769 0.71109 0.71629
 C2566 C 0.55754 0.69386 0.71513
 C2567 C 0.57489 0.71115 0.71793
 C2568 C 0.57492 0.69381 0.71663
 C2569 C 0.58700 0.68693 0.69025
 C2570 C 0.59619 0.68026 0.68285
 C2571 C 0.54785 0.72039 0.72565
 C2572 C 0.54027 0.72865 0.73325
 H2573 H 0.55236 0.72047 0.69203
 H2574 H 0.58422 0.72017 0.69461
 H2575 H 0.55267 0.68862 0.68938
 H2576 H 0.54968 0.68629 0.72119
 H2577 H 0.58130 0.71778 0.72633
 H2578 H 0.58158 0.68598 0.72372
 C2579 C 0.57533 0.21580 0.21274
 C2580 C 0.57552 0.19841 0.21261
 C2581 C 0.57684 0.19880 0.19538
 C2582 C 0.57680 0.21606 0.19540
 C2583 C 0.55813 0.21547 0.21109
 C2584 C 0.55943 0.21587 0.19387
 C2585 C 0.55816 0.19820 0.21109
 C2586 C 0.55965 0.19843 0.19371
 C2587 C 0.58766 0.18972 0.18692
 C2588 C 0.59694 0.18249 0.18020
 C2589 C 0.54820 0.22482 0.22032
 C2590 C 0.54059 0.23249 0.22848
 H2591 H 0.58167 0.22304 0.22065
 H2592 H 0.58224 0.19114 0.22022
 H2593 H 0.58460 0.22330 0.18886
 H2594 H 0.55270 0.22316 0.18628
 H2595 H 0.55038 0.19097 0.21765
 H2596 H 0.55334 0.19117 0.18579
 C2597 C 0.05961 0.71583 0.19349
 C2598 C 0.07699 0.71680 0.19452
 C2599 C 0.07779 0.69955 0.19513
 C2600 C 0.06058 0.69842 0.19396
 C2601 C 0.05876 0.71601 0.21075
 C2602 C 0.05955 0.69877 0.21137
 C2603 C 0.07597 0.71713 0.21190
 C2604 C 0.07691 0.69977 0.21239
 C2605 C 0.08870 0.69052 0.18668
 C2606 C 0.09796 0.68328 0.17989
 C2607 C 0.04865 0.72523 0.21997
 C2608 C 0.04092 0.73279 0.22815
 H2609 H 0.05237 0.72254 0.18583
 H2610 H 0.08429 0.72413 0.18752
 H2611 H 0.05436 0.69061 0.18648
 H2612 H 0.05226 0.69145 0.21838
 H2613 H 0.08220 0.72492 0.21937
 H2614 H 0.08414 0.69308 0.22008
 C2615 C 0.07005 0.20380 0.71833
 C2616 C 0.06539 0.19201 0.70642
 C2617 C 0.07751 0.19824 0.69578
 C2618 C 0.08231 0.20989 0.70757
 C2619 C 0.05875 0.21496 0.71146
 C2620 C 0.07088 0.22117 0.70082
 C2621 C 0.05392 0.20331 0.69968
 C2622 C 0.06623 0.20939 0.68889
 C2623 C 0.08831 0.18908 0.68730
 C2624 C 0.09751 0.18179 0.68048
 C2625 C 0.04880 0.22436 0.72065
 C2626 C 0.04117 0.23210 0.72876
 H2627 H 0.07152 0.20160 0.73053
 H2628 H 0.06324 0.17992 0.70864
 H2629 H 0.09409 0.21251 0.71074
 H2630 H 0.07303 0.23327 0.69861
 H2631 H 0.04212 0.20073 0.69653
 H2632 H 0.06477 0.21159 0.67668
 C2633 C 0.42478 0.71735 0.28790
 C2634 C 0.42318 0.70011 0.28639
 C2635 C 0.42311 0.69879 0.30361
 C2636 C 0.42457 0.71592 0.30525
 C2637 C 0.44197 0.71553 0.28814
 C2638 C 0.44193 0.71423 0.30537
 C2639 C 0.44052 0.69840 0.28650
 C2640 C 0.44030 0.69693 0.30389
 C2641 C 0.41222 0.68967 0.31196
 C2642 C 0.40291 0.68247 0.31866
 C2643 C 0.45196 0.72492 0.27901
 C2644 C 0.45960 0.73264 0.27089
 H2645 H 0.41851 0.72586 0.28125
 H2646 H 0.41537 0.69422 0.27866
 H2647 H 0.41788 0.72302 0.31305
 H2648 H 0.44975 0.72015 0.31307
 H2649 H 0.44721 0.69131 0.27870
 H2650 H 0.44655 0.68842 0.31055
 C2651 C 0.42508 0.21247 0.78362
 C2652 C 0.42273 0.19528 0.78241
 C2653 C 0.42333 0.19419 0.79965
 C2654 C 0.42554 0.21126 0.80097
 C2655 C 0.44218 0.20995 0.78315
 C2656 C 0.44279 0.20887 0.80039
 C2657 C 0.44000 0.19288 0.78181
 C2658 C 0.44043 0.19164 0.79922
 C2659 C 0.41242 0.18582 0.80873
 C2660 C 0.40307 0.17929 0.81607
 C2661 C 0.45214 0.21932 0.77395
 C2662 C 0.45973 0.22765 0.76642
 H2663 H 0.41885 0.22112 0.77711
 H2664 H 0.41436 0.18961 0.77512
 H2665 H 0.41948 0.21873 0.80894
 H2666 H 0.45116 0.21455 0.80768
 H2667 H 0.44607 0.18544 0.77383
 H2668 H 0.44662 0.18298 0.80575
 C2669 C 0.92466 0.71746 0.78871
 C2670 C 0.92301 0.70024 0.78707
 C2671 C 0.92347 0.69874 0.80427
 C2672 C 0.92498 0.71585 0.80604
 C2673 C 0.94185 0.71563 0.78841
 C2674 C 0.94234 0.71415 0.80562
 C2675 C 0.94034 0.69852 0.78664
 C2676 C 0.94065 0.69687 0.80400
 C2677 C 0.91280 0.68954 0.81281
 C2678 C 0.90364 0.68223 0.81959
 C2679 C 0.95160 0.72510 0.77911
 C2680 C 0.95908 0.73287 0.77092
 H2681 H 0.91820 0.72604 0.78233
 H2682 H 0.91496 0.69442 0.77953
 H2683 H 0.91854 0.72287 0.81411
 H2684 H 0.95040 0.71998 0.81312
 H2685 H 0.94678 0.69150 0.77855
 H2686 H 0.94709 0.68828 0.81038
 C2687 C 0.92416 0.21634 0.28768
 C2688 C 0.92248 0.19913 0.28587
 C2689 C 0.92291 0.19746 0.30306
 C2690 C 0.92444 0.21455 0.30500
 C2691 C 0.94135 0.21449 0.28740
 C2692 C 0.94179 0.21284 0.30459
 C2693 C 0.93982 0.19741 0.28545
 C2694 C 0.94009 0.19559 0.30279
 C2695 C 0.91232 0.18824 0.31167
 C2696 C 0.90331 0.18098 0.31872
 C2697 C 0.95116 0.22409 0.27830
 C2698 C 0.95871 0.23203 0.27032
 H2699 H 0.91771 0.22499 0.28138
 H2700 H 0.91443 0.19341 0.27825
 H2701 H 0.91798 0.22150 0.31312
 H2702 H 0.94984 0.21859 0.31219
 H2703 H 0.94627 0.19046 0.27731
 H2704 H 0.94650 0.18692 0.30910
 C2705 C 0.29863 0.29820 0.55339
 C2706 C 0.29289 0.31123 0.56348
 C2707 C 0.30181 0.30461 0.57673
 C2708 C 0.30770 0.29175 0.56682
 C2709 C 0.28504 0.28873 0.55829
 C2710 C 0.29397 0.28215 0.57156
 C2711 C 0.27914 0.30159 0.56820
 C2712 C 0.28821 0.29513 0.58160
 C2713 C 0.31098 0.31316 0.58740
 C2714 C 0.31829 0.31996 0.59655
 C2715 C 0.27566 0.27941 0.54849
 C2716 C 0.26796 0.27120 0.54096
 H2717 H 0.30280 0.29936 0.54167
 H2718 H 0.29255 0.32329 0.56027
 H2719 H 0.31955 0.28778 0.56637
 H2720 H 0.29432 0.27010 0.57479
 H2721 H 0.26730 0.30555 0.56866
 H2722 H 0.28402 0.29394 0.59330
 C2723 C 0.28368 0.80690 0.05822
 C2724 C 0.28363 0.80550 0.07560
 C2725 C 0.30092 0.80582 0.07549
 C2726 C 0.30114 0.80737 0.05827
 C2727 C 0.28438 0.78969 0.05707
 C2728 C 0.30167 0.79000 0.05695
 C2729 C 0.28419 0.78817 0.07429
 C2730 C 0.30159 0.78861 0.07432
 C2731 C 0.30999 0.81443 0.08618
 C2732 C 0.31729 0.82117 0.09537
 C2733 C 0.27514 0.78020 0.04731
 C2734 C 0.26758 0.77185 0.03981
 H2735 H 0.27622 0.81431 0.05148
 H2736 H 0.27632 0.81197 0.08340
 H2737 H 0.30822 0.81537 0.05181
 H2738 H 0.30898 0.78352 0.04917
 H2739 H 0.27713 0.78018 0.08078
 H2740 H 0.30904 0.78117 0.08104
 C2741 C 0.78681 0.28427 0.07462
 C2742 C 0.80419 0.28493 0.07537
 C2743 C 0.80326 0.30217 0.07584
 C2744 C 0.78600 0.30163 0.07524
 C2745 C 0.78773 0.28512 0.05738
 C2746 C 0.78680 0.30237 0.05785
 C2747 C 0.80499 0.28564 0.05796
 C2748 C 0.80422 0.30305 0.05860
 C2749 C 0.81170 0.31144 0.08650
 C2750 C 0.81850 0.31875 0.09563
 C2751 C 0.77862 0.27556 0.04756
 C2752 C 0.77061 0.26771 0.04000
 H2753 H 0.77956 0.27644 0.08111
 H2754 H 0.81142 0.27786 0.08270
 H2755 H 0.77828 0.30830 0.08245
 H2756 H 0.77956 0.30943 0.05052
 H2757 H 0.81269 0.27895 0.05075
 H2758 H 0.81147 0.31090 0.05214
 C2759 C 0.80145 0.79483 0.55242
 C2760 C 0.79515 0.80789 0.56212
 C2761 C 0.80435 0.80208 0.57554
 C2762 C 0.81081 0.78918 0.56602
 C2763 C 0.78831 0.78491 0.55765
 C2764 C 0.79751 0.77912 0.57108
 C2765 C 0.78187 0.79781 0.56718
 C2766 C 0.79120 0.79215 0.58073
 C2767 C 0.81300 0.81143 0.58593
 C2768 C 0.81988 0.81885 0.59490
 C2769 C 0.77894 0.77533 0.54812
 C2770 C 0.77075 0.76751 0.54074
 H2771 H 0.80556 0.79580 0.54066
 H2772 H 0.79426 0.81982 0.55856
 H2773 H 0.82282 0.78575 0.56567
 H2774 H 0.79839 0.76720 0.57466
 H2775 H 0.76986 0.80125 0.56755
 H2776 H 0.78707 0.79116 0.59248
 C2777 C 0.28805 0.71603 0.42535
 C2778 C 0.30544 0.71535 0.42496
 C2779 C 0.30457 0.69811 0.42448
 C2780 C 0.28730 0.69867 0.42473
 C2781 C 0.28857 0.71518 0.44261
 C2782 C 0.28770 0.69794 0.44213
 C2783 C 0.30585 0.71465 0.44238
 C2784 C 0.30513 0.69723 0.44173
 C2785 C 0.31323 0.68881 0.41399
 C2786 C 0.32014 0.68144 0.40496
 C2787 C 0.27923 0.72474 0.45225
 C2788 C 0.27104 0.73258 0.45969
 H2789 H 0.28094 0.72386 0.41871
 H2790 H 0.31283 0.72241 0.41777
 H2791 H 0.27976 0.69200 0.41736
 H2792 H 0.28030 0.69087 0.44931
 H2793 H 0.31337 0.72132 0.44974
 H2794 H 0.31225 0.68938 0.44833
 C2795 C 0.30335 0.20694 0.94694
 C2796 C 0.29735 0.19358 0.93750
 C2797 C 0.30596 0.19963 0.92378
 C2798 C 0.31212 0.21284 0.93303
 C2799 C 0.28967 0.21631 0.94203
 C2800 C 0.29828 0.22234 0.92830
 C2801 C 0.28354 0.20310 0.93277
 C2802 C 0.29227 0.20901 0.91891
 C2803 C 0.31468 0.19045 0.91322
 C2804 C 0.32152 0.18302 0.90416
 C2805 C 0.28013 0.22560 0.95175
 C2806 C 0.27176 0.23320 0.95925
 H2807 H 0.30780 0.20620 0.95857
 H2808 H 0.29706 0.18165 0.94116
 H2809 H 0.32398 0.21673 0.93301
 H2810 H 0.29856 0.23427 0.92462
 H2811 H 0.27168 0.19919 0.93275
 H2812 H 0.28779 0.20977 0.90729
 C2813 C 0.80199 0.70543 0.94706
 C2814 C 0.79573 0.69199 0.93792
 C2815 C 0.80435 0.69763 0.92404
 C2816 C 0.81077 0.71091 0.93299
 C2817 C 0.78844 0.71492 0.94203
 C2818 C 0.79707 0.72055 0.92814
 C2819 C 0.78204 0.70164 0.93307
 C2820 C 0.79080 0.70713 0.91905
 C2821 C 0.81295 0.68820 0.91362
 C2822 C 0.81987 0.68074 0.90465
 C2823 C 0.77913 0.72456 0.95162
 C2824 C 0.77095 0.73241 0.95906
 H2825 H 0.80650 0.70486 0.95868
 H2826 H 0.79527 0.68014 0.94182
 H2827 H 0.82270 0.71461 0.93284
 H2828 H 0.79754 0.73239 0.92423
 H2829 H 0.77012 0.69792 0.93320
 H2830 H 0.78627 0.70773 0.90744
 C2831 C 0.80318 0.20758 0.44581
 C2832 C 0.79767 0.19254 0.43896
 C2833 C 0.80355 0.19764 0.42352
 C2834 C 0.80921 0.21251 0.43019
 C2835 C 0.78792 0.21473 0.44194
 C2836 C 0.79382 0.21980 0.42650
 C2837 C 0.78227 0.19985 0.43526
 C2838 C 0.78829 0.20480 0.41968
 C2839 C 0.81203 0.18836 0.41287
 C2840 C 0.81888 0.18104 0.40375
 C2841 C 0.77879 0.22431 0.45175
 C2842 C 0.77077 0.23218 0.45933
 H2843 H 0.80919 0.20884 0.45667
 H2844 H 0.79934 0.18122 0.44395
 H2845 H 0.82039 0.21761 0.42799
 H2846 H 0.79215 0.23111 0.42149
 H2847 H 0.77109 0.19475 0.43745
 H2848 H 0.78225 0.20356 0.40884
 C2849 C 0.69402 0.28443 0.44123
 C2850 C 0.69364 0.30186 0.44157
 C2851 C 0.69548 0.30208 0.42438
 C2852 C 0.69571 0.28482 0.42388
 C2853 C 0.71123 0.28494 0.44268
 C2854 C 0.71304 0.28519 0.42549
 C2855 C 0.71101 0.30220 0.44320
 C2856 C 0.71269 0.30257 0.42586
 C2857 C 0.68696 0.31139 0.41377
 C2858 C 0.68011 0.31871 0.40464
 C2859 C 0.72047 0.27533 0.45238
 C2860 C 0.72863 0.26745 0.45982
 H2861 H 0.68644 0.27686 0.44765
 H2862 H 0.68557 0.30884 0.44806
 H2863 H 0.68934 0.27777 0.41581
 H2864 H 0.72110 0.27823 0.41897
 H2865 H 0.71739 0.30924 0.45127
 H2866 H 0.72029 0.31013 0.41943
 C2867 C 0.69389 0.78872 0.94522
 C2868 C 0.69807 0.80473 0.93969
 C2869 C 0.69370 0.80015 0.92362
 C2870 C 0.68938 0.78430 0.92897
 C2871 C 0.71006 0.78357 0.94190
 C2872 C 0.70569 0.77901 0.92582
 C2873 C 0.71438 0.79942 0.93653
 C2874 C 0.70988 0.79498 0.92033
 C2875 C 0.68494 0.80929 0.91306
 C2876 C 0.67807 0.81670 0.90401
 C2877 C 0.71962 0.77432 0.95164
 C2878 C 0.72802 0.76676 0.95914
 H2879 H 0.68743 0.78604 0.95557
 H2880 H 0.69484 0.81542 0.94526
 H2881 H 0.67900 0.77819 0.92573
 H2882 H 0.70892 0.76834 0.92022
 H2883 H 0.72476 0.80553 0.93975
 H2884 H 0.71637 0.79765 0.90999
 C2885 C 0.19511 0.29039 0.94573
 C2886 C 0.19961 0.30645 0.94060
 C2887 C 0.19519 0.30235 0.92442
 C2888 C 0.19054 0.28647 0.92937
 C2889 C 0.21118 0.28500 0.94229
 C2890 C 0.20675 0.28093 0.92611
 C2891 C 0.21582 0.30089 0.93733
 C2892 C 0.21126 0.29694 0.92102
 C2893 C 0.18657 0.31181 0.91403
 C2894 C 0.17967 0.31927 0.90507
 C2895 C 0.22054 0.27535 0.95182
 C2896 C 0.22877 0.26751 0.95921
 H2897 H 0.18857 0.28757 0.95600
 H2898 H 0.19658 0.31705 0.94643
 H2899 H 0.18004 0.28065 0.92597
 H2900 H 0.20976 0.27034 0.92025
 H2901 H 0.22632 0.30672 0.94071
 H2902 H 0.21782 0.29974 0.91076
 C2903 C 0.19930 0.79644 0.44781
 C2904 C 0.20590 0.80838 0.43693
 C2905 C 0.19550 0.80254 0.42447
 C2906 C 0.18874 0.79075 0.43516
 C2907 C 0.21136 0.78524 0.44250
 C2908 C 0.20096 0.77941 0.43003
 C2909 C 0.21809 0.79703 0.43180
 C2910 C 0.20757 0.79133 0.41920
 C2911 C 0.18691 0.81193 0.41400
 C2912 C 0.17999 0.81932 0.40498
 C2913 C 0.22062 0.77559 0.45212
 C2914 C 0.22874 0.76770 0.45956
 H2915 H 0.19600 0.79841 0.45969
 H2916 H 0.20784 0.82040 0.43965
 H2917 H 0.17656 0.78829 0.43642
 H2918 H 0.19902 0.76740 0.42730
 H2919 H 0.23026 0.79950 0.43051
 H2920 H 0.21089 0.78934 0.40732
 C2921 C 0.71263 0.71545 0.57525
 C2922 C 0.69532 0.71607 0.57702
 C2923 C 0.69490 0.69880 0.57659
 C2924 C 0.71210 0.69807 0.57496
 C2925 C 0.71071 0.71566 0.55808
 C2926 C 0.71031 0.69840 0.55763
 C2927 C 0.69351 0.71641 0.55969
 C2928 C 0.69295 0.69898 0.55942
 C2929 C 0.68641 0.68961 0.58732
 C2930 C 0.67966 0.68229 0.59653
 C2931 C 0.72000 0.72510 0.54826
 C2932 C 0.72820 0.73283 0.54073
 H2933 H 0.72081 0.72233 0.58167
 H2934 H 0.68908 0.72324 0.58512
 H2935 H 0.71966 0.69045 0.58134
 H2936 H 0.71656 0.69124 0.54953
 H2937 H 0.68598 0.72406 0.55329
 H2938 H 0.68477 0.69208 0.55303
 C2939 C 0.71357 0.21410 0.07405
 C2940 C 0.69630 0.21479 0.07615
 C2941 C 0.69573 0.19756 0.07519
 C2942 C 0.71289 0.19675 0.07323
 C2943 C 0.71133 0.21485 0.05692
 C2944 C 0.71078 0.19762 0.05595
 C2945 C 0.69418 0.21569 0.05887
 C2946 C 0.69347 0.19828 0.05807
 C2947 C 0.68729 0.18816 0.08577
 C2948 C 0.68049 0.18076 0.09487
 C2949 C 0.72050 0.22452 0.04722
 C2950 C 0.72859 0.23243 0.03976
 H2951 H 0.72191 0.22072 0.08052
 H2952 H 0.69026 0.22176 0.08457
 H2953 H 0.72049 0.18886 0.07924
 H2954 H 0.71683 0.19067 0.04753
 H2955 H 0.68659 0.22359 0.05286
 H2956 H 0.68511 0.19165 0.05162
 C2957 C 0.21802 0.69370 0.05910
 C2958 C 0.21703 0.69580 0.07638
 C2959 C 0.19980 0.69484 0.07536
 C2960 C 0.20062 0.69259 0.05825
 C2961 C 0.21679 0.71082 0.05714
 C2962 C 0.19957 0.70986 0.05612
 C2963 C 0.21595 0.71304 0.07426
 C2964 C 0.19860 0.71196 0.07338
 C2965 C 0.19046 0.68630 0.08590
 C2966 C 0.18297 0.67957 0.09497
 C2967 C 0.22622 0.72023 0.04745
 C2968 C 0.23386 0.72855 0.03996
 H2969 H 0.22612 0.68631 0.05311
 H2970 H 0.22411 0.68993 0.08484
 H2971 H 0.19420 0.68409 0.05178
 H2972 H 0.19250 0.71575 0.04767
 H2973 H 0.22235 0.72153 0.08076
 H2974 H 0.19052 0.71937 0.07936
 C2975 C 0.21721 0.19364 0.55966
 C2976 C 0.21629 0.19548 0.57697
 C2977 C 0.19905 0.19473 0.57599
 C2978 C 0.19980 0.19273 0.55884
 C2979 C 0.21617 0.21080 0.55797
 C2980 C 0.19893 0.21005 0.55698
 C2981 C 0.21540 0.21276 0.57512
 C2982 C 0.19804 0.21188 0.57428
 C2983 C 0.18969 0.18608 0.58643
 C2984 C 0.18223 0.17923 0.59544
 C2985 C 0.22572 0.22022 0.54839
 C2986 C 0.23349 0.22849 0.54097
 H2987 H 0.22521 0.18625 0.55354
 H2988 H 0.22331 0.18939 0.58531
 H2989 H 0.19326 0.18441 0.55226
 H2990 H 0.19190 0.21614 0.54865
 H2991 H 0.22190 0.22107 0.58176
 H2992 H 0.19004 0.21928 0.58040
   
