data_POSCAR
  _audit_creation_date              2014-09-24
  _audit_creation_method            'ToBaCCo'
  _symmetry_space_group_name_H-M    'P1'
  _symmetry_Int_Tables_number       1
  _symmetry_cell_setting            triclinic
  loop_
  _symmetry_equiv_pos_as_xyz
 x,y,z
_cell_length_a 47.3347
_cell_length_b 47.3398
_cell_length_c 47.2845
_cell_angle_alpha 90.001200
_cell_angle_beta 90.008800
_cell_angle_gamma 89.960400
loop_
  _atom_site_label
  _atom_site_type_symbol
  _atom_site_fract_x
  _atom_site_fract_y
  _atom_site_fract_z
C1 C 0.37058 1.35094 0.32923
 C2 C 0.37067 1.33008 0.35026
 C3 C 0.34993 1.33002 0.37094
 C4 C 0.32884 1.35082 0.37082
 C5 C 0.32871 1.37147 0.35002
 C6 C 0.34972 1.37152 0.32908
 C7 C 0.38738 1.35538 0.30588
 N8 N 0.37717 1.37810 0.29179
 C9 C 0.35419 1.38818 0.30559
 C10 C 0.30519 1.38806 0.35444
 N11 N 0.29133 1.37789 0.37735
 C12 C 0.30543 1.35517 0.38756
 C13 C 0.35450 1.30669 0.38773
 N14 N 0.37743 1.29285 0.37766
 C15 C 0.38752 1.30680 0.35481
 H16 H 0.40530 1.34274 0.29932
 H17 H 0.34140 1.40590 0.29876
 H18 H 0.29838 1.40581 0.34168
 H19 H 0.29885 1.34248 0.40544
 H20 H 0.34178 1.29992 0.40551
 H21 H 0.40536 1.30013 0.34212
 C22 C 0.37073 0.85121 0.83027
 C23 C 0.37075 0.83029 0.85124
 C24 C 0.34997 0.83020 0.87188
 C25 C 0.32891 0.85107 0.87179
 C26 C 0.32890 0.87176 0.85104
 C27 C 0.34994 0.87183 0.83015
 C28 C 0.38750 0.85563 0.80690
 N29 N 0.37732 0.87836 0.79283
 C30 C 0.35440 0.88847 0.80668
 C31 C 0.30540 0.88840 0.85538
 N32 N 0.29143 0.87822 0.87821
 C33 C 0.30543 0.85544 0.88843
 C34 C 0.35447 0.80678 0.88858
 N35 N 0.37739 0.79293 0.87848
 C36 C 0.38753 0.80696 0.85570
 H37 H 0.40535 0.84294 0.80026
 H38 H 0.34163 0.90618 0.79982
 H39 H 0.29868 0.90617 0.84262
 H40 H 0.29872 0.84271 0.90624
 H41 H 0.34171 0.79996 0.90632
 H42 H 0.40538 0.80030 0.84301
 C43 C 0.87031 1.35060 0.82893
 C44 C 0.87040 1.32974 0.84997
 C45 C 0.84966 1.32967 0.87064
 C46 C 0.82857 1.35047 0.87053
 C47 C 0.82844 1.37112 0.84973
 C48 C 0.84945 1.37118 0.82878
 C49 C 0.88715 1.35509 0.80562
 N50 N 0.87696 1.37783 0.79155
 C51 C 0.85396 1.38789 0.80533
 C52 C 0.80494 1.38775 0.85420
 N53 N 0.79110 1.37759 0.87714
 C54 C 0.80519 1.35485 0.88731
 C55 C 0.85427 1.30638 0.88747
 N56 N 0.87722 1.29255 0.87743
 C57 C 0.88729 1.30649 0.85455
 H58 H 0.90510 1.34247 0.79909
 H59 H 0.84120 1.40563 0.79853
 H60 H 0.79814 1.40552 0.84148
 H61 H 0.79864 1.34217 0.90522
 H62 H 0.84157 1.29962 0.90528
 H63 H 0.90516 1.29984 0.84189
 C64 C 0.87172 0.85101 0.32913
 C65 C 0.87170 0.83006 0.35010
 C66 C 0.85099 0.83009 0.37081
 C67 C 0.83005 0.85105 0.37080
 C68 C 0.83006 0.87175 0.35008
 C69 C 0.85102 0.87174 0.32912
 C70 C 0.88844 0.85543 0.30570
 N71 N 0.87830 0.87828 0.29174
 C72 C 0.85546 0.88844 0.30569
 C73 C 0.80662 0.88843 0.35450
 N74 N 0.79266 0.87828 0.37733
 C75 C 0.80663 0.85547 0.38749
 C76 C 0.85538 0.80668 0.38753
 N77 N 0.87818 0.79268 0.37740
 C78 C 0.88837 0.80661 0.35457
 H79 H 0.90624 0.84269 0.29899
 H80 H 0.84273 0.90625 0.29897
 H81 H 0.79987 0.90621 0.34177
 H82 H 0.79989 0.84274 0.40528
 H83 H 0.84263 0.79997 0.40532
 H84 H 0.90615 0.79984 0.34186
 C85 C 0.62806 0.64844 0.32949
 C86 C 0.62809 0.66939 0.35045
 C87 C 0.64882 0.66940 0.37114
 C88 C 0.66978 0.64846 0.37112
 C89 C 0.66977 0.62775 0.35041
 C90 C 0.64879 0.62773 0.32946
 C91 C 0.61134 0.64402 0.30605
 N92 N 0.62150 0.62120 0.29208
 C93 C 0.64435 0.61104 0.30602
 C94 C 0.69324 0.61110 0.35481
 N95 N 0.70723 0.62129 0.37761
 C96 C 0.69324 0.64408 0.38778
 C97 C 0.64445 0.69284 0.38782
 N98 N 0.62163 0.70682 0.37768
 C99 C 0.61143 0.69284 0.35487
 H100 H 0.59355 0.65678 0.29934
 H101 H 0.65711 0.59327 0.29927
 H102 H 0.70000 0.59333 0.34206
 H103 H 0.69999 0.65684 0.40554
 H104 H 0.65722 0.69959 0.40557
 H105 H 0.59365 0.69961 0.34215
 C106 C 0.62962 0.14933 0.82877
 C107 C 0.62948 0.17012 0.84989
 C108 C 0.65018 0.17012 0.87060
 C109 C 0.67128 0.14933 0.87046
 C110 C 0.67146 0.12876 0.84959
 C111 C 0.65049 0.12876 0.82860
 C112 C 0.61282 0.14490 0.80541
 N113 N 0.62305 0.12220 0.79129
 C114 C 0.64603 0.11212 0.80509
 C115 C 0.69497 0.11214 0.85405
 N116 N 0.70876 0.12224 0.87705
 C117 C 0.69463 0.14492 0.88727
 C118 C 0.64555 0.19335 0.88751
 N119 N 0.62262 0.20721 0.87748
 C120 C 0.61258 0.19336 0.85453
 H121 H 0.59487 0.15752 0.79889
 H122 H 0.65881 0.09440 0.79827
 H123 H 0.70182 0.09442 0.84127
 H124 H 0.70115 0.15755 0.90523
 H125 H 0.65822 0.20003 0.90537
 H126 H 0.59474 0.20006 0.84186
 C127 C 1.12906 0.64860 0.83058
 C128 C 1.12903 0.66955 0.85152
 C129 C 1.14981 0.66968 0.87217
 C130 C 1.17087 0.64883 0.87211
 C131 C 1.17090 0.62810 0.85139
 C132 C 1.14986 0.62800 0.83050
 C133 C 1.11232 0.64415 0.80720
 N134 N 1.12252 0.62141 0.79315
 C135 C 1.14543 0.61133 0.80704
 C136 C 1.19441 0.61150 0.85575
 N137 N 1.20840 0.62173 0.87854
 C138 C 1.19438 0.64451 0.88875
 C139 C 1.14531 0.69314 0.88882
 N140 N 1.12239 0.70697 0.87868
 C141 C 1.11224 0.69290 0.85593
 H142 H 1.09447 0.65683 0.80051
 H143 H 1.15823 0.59363 0.80020
 H144 H 1.20115 0.59373 0.84299
 H145 H 1.20110 0.65728 0.90653
 H146 H 1.15807 0.70001 0.90654
 H147 H 1.09440 0.69953 0.84321
 C148 C 1.12936 0.14891 0.32916
 C149 C 1.12927 0.16972 0.35025
 C150 C 1.15001 0.16973 0.37093
 C151 C 1.17110 0.14892 0.37077
 C152 C 1.17121 0.12833 0.34991
 C153 C 1.15021 0.12833 0.32897
 C154 C 1.11257 0.14454 0.30578
 N155 N 1.12279 0.12185 0.29164
 C156 C 1.14575 0.11173 0.30544
 C157 C 1.19474 0.11172 0.35428
 N158 N 1.20861 0.12182 0.37721
 C159 C 1.19452 0.14452 0.38748
 C160 C 1.14546 0.19301 0.38778
 N161 N 1.12253 0.20689 0.37775
 C162 C 1.11243 0.19300 0.35485
 H163 H 1.09465 0.15720 0.29924
 H164 H 1.15855 0.09403 0.29857
 H165 H 1.20154 0.09401 0.34147
 H166 H 1.20112 0.15717 0.40539
 H167 H 1.15818 0.19974 0.40558
 H168 H 1.09459 0.19971 0.34218
 C169 C 0.62805 1.35113 0.67080
 C170 C 0.62798 1.33030 0.64972
 C171 C 0.64863 1.33039 0.62895
 C172 C 0.66959 1.35130 0.62901
 C173 C 0.66968 1.37189 0.64985
 C174 C 0.64878 1.37181 0.67087
 C175 C 0.61140 1.35546 0.69430
 N176 N 0.62160 1.37820 0.70836
 C177 C 0.64441 1.38839 0.69442
 C178 C 0.69314 1.38851 0.64543
 N179 N 0.70702 1.37843 0.62250
 C180 C 0.69297 1.35572 0.61227
 C181 C 0.64421 1.30707 0.61214
 N182 N 0.62144 1.29305 0.62227
 C183 C 0.61132 1.30689 0.64520
 H184 H 0.59361 1.34272 0.70098
 H185 H 0.65717 1.40613 0.70120
 H186 H 0.69997 1.40620 0.65824
 H187 H 0.69963 1.34305 0.59441
 H188 H 0.65692 1.30041 0.59431
 H189 H 0.59359 1.30007 0.65795
 C190 C 0.62778 0.85141 1.17034
 C191 C 0.62785 0.83041 1.14942
 C192 C 0.64858 0.83039 1.12873
 C193 C 0.66949 0.85135 1.12871
 C194 C 0.66943 0.87210 1.14939
 C195 C 0.64846 0.87213 1.17032
 C196 C 0.61107 0.85584 1.19378
 N197 N 0.62120 0.87870 1.20771
 C198 C 0.64401 0.88886 1.19374
 C199 C 0.69285 0.88877 1.14497
 N200 N 0.70688 0.87856 1.12220
 C201 C 0.69295 0.85573 1.11206
 C202 C 0.64425 0.80691 1.11209
 N203 N 0.62146 0.79293 1.12226
 C204 C 0.61124 0.80695 1.14504
 H205 H 0.59333 0.84308 1.20053
 H206 H 0.65674 0.90665 1.20046
 H207 H 0.69956 0.90656 1.15769
 H208 H 0.69975 0.84296 1.09432
 H209 H 0.65702 0.80014 1.09434
 H210 H 0.59346 0.80020 1.15777
 C211 C 1.12845 1.35198 1.16904
 C212 C 1.12848 1.33104 1.14810
 C213 C 1.14932 1.33087 1.12752
 C214 C 1.17039 1.35169 1.12765
 C215 C 1.17035 1.37242 1.14837
 C216 C 1.14925 1.37256 1.16920
 C217 C 1.11168 1.35639 1.19240
 N218 N 1.12187 1.37908 1.20652
 C219 C 1.14480 1.38917 1.19269
 C220 C 1.19390 1.38896 1.14413
 N221 N 1.20797 1.37870 1.12140
 C222 C 1.19398 1.35596 1.11113
 C223 C 1.14489 1.30737 1.11092
 N224 N 1.12195 1.29357 1.12102
 C225 C 1.11173 1.30770 1.14370
 H226 H 1.09386 1.34370 1.19905
 H227 H 1.15761 1.40680 1.19962
 H228 H 1.20062 1.40671 1.15693
 H229 H 1.20076 1.34317 1.09338
 H230 H 1.15772 1.30044 1.09327
 H231 H 1.09388 1.30109 1.15640
 C232 C 1.12740 0.85205 0.66883
 C233 C 1.12741 0.83108 0.64790
 C234 C 1.14812 0.83103 0.62719
 C235 C 1.16907 0.85196 0.62717
 C236 C 1.16906 0.87269 0.64786
 C237 C 1.14811 0.87274 0.66882
 C238 C 1.11081 0.85641 0.69235
 N239 N 1.12102 0.87916 0.70636
 C240 C 1.14377 0.88934 0.69234
 C241 C 1.19257 0.88925 0.64352
 N242 N 1.20659 0.87900 0.62076
 C243 C 1.19258 0.85625 0.61057
 C244 C 1.14380 0.80750 0.61063
 N245 N 1.12104 0.79352 0.62087
 C246 C 1.11083 0.80759 0.64361
 H247 H 1.09311 0.84363 0.69916
 H248 H 1.15657 0.90704 0.69914
 H249 H 1.19936 0.90697 0.65630
 H250 H 1.19938 0.84343 0.59286
 H251 H 1.15660 0.80065 0.59293
 H252 H 1.09312 0.80082 0.65643
 C253 C 0.37135 0.64846 0.66924
 C254 C 0.37131 0.66940 0.64829
 C255 C 0.35051 0.66949 0.62766
 C256 C 0.32950 0.64860 0.62774
 C257 C 0.32955 0.62789 0.64847
 C258 C 0.35060 0.62783 0.66935
 C259 C 0.38811 0.64406 0.69263
 N260 N 0.37797 0.62132 0.70670
 C261 C 0.35508 0.61119 0.69282
 C262 C 0.30607 0.61127 0.64416
 N263 N 0.29203 0.62147 0.62138
 C264 C 0.30598 0.64425 0.61114
 C265 C 0.35492 0.69295 0.61100
 N266 N 0.37781 0.70682 0.62111
 C267 C 0.38802 0.69277 0.64386
 H268 H 0.40591 0.65677 0.69930
 H269 H 0.34233 0.59349 0.69968
 H270 H 0.29938 0.59350 0.65694
 H271 H 0.29921 0.65701 0.59337
 H272 H 0.34213 0.69979 0.59329
 H273 H 0.40584 0.69944 0.65656
 C274 C 0.37173 0.14798 1.16857
 C275 C 0.37166 0.16899 1.14771
 C276 C 0.35078 0.16924 1.12717
 C277 C 0.32970 0.14841 1.12726
 C278 C 0.32979 0.12761 1.14792
 C279 C 0.35093 0.12741 1.16870
 C280 C 0.38852 0.14353 1.19192
 N281 N 0.37835 0.12081 1.20599
 C282 C 0.35541 0.11075 1.19216
 C283 C 0.30622 0.11110 1.14368
 N284 N 0.29209 0.12143 1.12102
 C285 C 0.30607 0.14420 1.11078
 C286 C 0.35516 0.19280 1.11064
 N287 N 0.37812 0.20657 1.12076
 C288 C 0.38839 0.19236 1.14337
 H289 H 0.40634 0.15622 1.19859
 H290 H 0.34259 0.09312 1.19907
 H291 H 0.29953 0.09332 1.15645
 H292 H 0.29924 0.15705 1.09310
 H293 H 0.34229 0.19980 1.09305
 H294 H 0.40625 0.19893 1.15607
 C295 C 0.87284 0.64788 1.16875
 C296 C 0.87267 0.66897 1.14794
 C297 C 0.85183 0.66911 1.12735
 C298 C 0.83091 0.64814 1.12733
 C299 C 0.83110 0.62730 1.14791
 C300 C 0.85217 0.62717 1.16873
 C301 C 0.88955 0.64344 1.19217
 N302 N 0.87945 0.62060 1.20611
 C303 C 0.85664 0.61045 1.19214
 C304 C 0.80761 0.61070 1.14365
 N305 N 0.79341 0.62102 1.12104
 C306 C 0.80729 0.64387 1.11087
 C307 C 0.85606 0.69274 1.11088
 N308 N 0.87888 0.70666 1.12106
 C309 C 0.88923 0.69249 1.14368
 H310 H 0.90725 0.65622 1.19898
 H311 H 0.84388 0.59273 1.19893
 H312 H 0.80097 0.59289 1.15637
 H313 H 0.80033 0.65675 1.09327
 H314 H 0.84318 0.69966 1.09327
 H315 H 0.90703 0.69917 1.15641
 C316 C 0.87184 0.14881 0.67058
 C317 C 0.87187 0.16975 0.64961
 C318 C 0.85118 0.16979 0.62887
 C319 C 0.83022 0.14889 0.62885
 C320 C 0.83017 0.12818 0.64957
 C321 C 0.85111 0.12814 0.67056
 C322 C 0.88852 0.14437 0.69403
 N323 N 0.87833 0.12157 0.70799
 C324 C 0.85550 0.11144 0.69402
 C325 C 0.80672 0.11156 0.64511
 N326 N 0.79279 0.12176 0.62226
 C327 C 0.80680 0.14453 0.61213
 C328 C 0.85562 0.19321 0.61219
 N329 N 0.87842 0.20715 0.62237
 C330 C 0.88856 0.19316 0.64521
 H331 H 0.90631 0.15709 0.70077
 H332 H 0.84273 0.09368 0.70074
 H333 H 0.79993 0.09380 0.65783
 H334 H 0.80010 0.15728 0.59433
 H335 H 0.84289 0.19998 0.59440
 H336 H 0.90632 0.19989 0.65797
 C337 C 1.35174 0.37106 0.66945
 C338 C 1.33089 0.37114 0.64841
 C339 C 1.33079 0.35035 0.62779
 C340 C 1.35156 0.32922 0.62796
 C341 C 1.37220 0.32913 0.64878
 C342 C 1.37228 0.35019 0.66966
 C343 C 1.35612 0.38782 0.69283
 N344 N 1.37875 0.37757 0.70701
 C345 C 1.38884 0.35461 0.69322
 C346 C 1.38872 0.30553 0.64450
 N347 N 1.37852 0.29159 0.62165
 C348 C 1.35585 0.30570 0.61135
 C349 C 1.30739 0.35487 0.61106
 N350 N 1.29357 0.37782 0.62113
 C351 C 1.30759 0.38796 0.64392
 H352 H 1.34345 0.40571 0.69941
 H353 H 1.40647 0.34177 0.70017
 H354 H 1.40642 0.29872 0.65733
 H355 H 1.34312 0.29904 0.59352
 H356 H 1.30053 0.34208 0.59336
 H357 H 1.30093 0.40579 0.65662
 C358 C 1.35125 0.87094 1.17051
 C359 C 1.33038 0.87098 1.14948
 C360 C 1.33027 0.85017 1.12888
 C361 C 1.35107 0.82905 1.12905
 C362 C 1.37172 0.82899 1.14985
 C363 C 1.37181 0.85007 1.17072
 C364 C 1.35569 0.88778 1.19382
 N365 N 1.37839 0.87758 1.20795
 C366 C 1.38846 0.85456 1.19421
 C367 C 1.38830 0.80544 1.14553
 N368 N 1.37811 0.79149 1.12268
 C369 C 1.35539 0.80556 1.11242
 C370 C 1.30691 0.85471 1.11211
 N371 N 1.29311 0.87769 1.12212
 C372 C 1.30711 0.88784 1.14493
 H373 H 1.34304 0.90571 1.20035
 H374 H 1.40614 0.84176 1.20110
 H375 H 1.40604 0.79867 1.15832
 H376 H 1.34269 0.79891 1.09457
 H377 H 1.30009 0.84194 1.09438
 H378 H 1.30048 0.90572 1.15757
 C379 C 0.85098 0.37035 1.17101
 C380 C 0.83004 0.37040 1.15004
 C381 C 0.82996 0.34968 1.12935
 C382 C 0.85083 0.32864 1.12937
 C383 C 0.87155 0.32857 1.15010
 C384 C 0.87162 0.34956 1.17106
 C385 C 0.85549 0.38713 1.19437
 N386 N 0.87830 0.37695 1.20835
 C387 C 0.88837 0.35403 1.19447
 C388 C 0.88821 0.30512 1.14562
 N389 N 0.87802 0.29124 1.12274
 C390 C 0.85521 0.30525 1.11260
 C391 C 0.80658 0.35423 1.11261
 N392 N 0.79272 0.37713 1.12273
 C393 C 0.80672 0.38722 1.14556
 H394 H 0.84282 0.40501 1.20101
 H395 H 0.90615 0.34127 1.20121
 H396 H 0.90603 0.29837 1.15832
 H397 H 0.84248 0.29863 1.09476
 H398 H 0.79980 0.34154 1.09481
 H399 H 0.80007 0.40506 1.15826
 C400 C 0.85143 0.87209 0.66934
 C401 C 0.83048 0.87207 0.64838
 C402 C 0.83047 0.85134 0.62769
 C403 C 0.85141 0.83038 0.62772
 C404 C 0.87212 0.83039 0.64844
 C405 C 0.87213 0.85137 0.66938
 C406 C 0.85581 0.88875 0.69282
 N407 N 0.87859 0.87856 0.70684
 C408 C 0.88876 0.85576 0.69286
 C409 C 0.88874 0.80691 0.64411
 N410 N 0.87855 0.79288 0.62134
 C411 C 0.85577 0.80687 0.61112
 C412 C 0.80699 0.85570 0.61105
 N413 N 0.79301 0.87851 0.62121
 C414 C 0.80701 0.88871 0.64399
 H415 H 0.84305 0.90650 0.69957
 H416 H 0.90650 0.84299 0.69966
 H417 H 0.90649 0.80015 0.65689
 H418 H 0.84301 0.80008 0.59338
 H419 H 0.80020 0.84292 0.59332
 H420 H 0.80025 0.90648 0.65674
 C421 C 0.64846 0.62774 0.66941
 C422 C 0.66941 0.62772 0.64845
 C423 C 0.66941 0.64843 0.62773
 C424 C 0.64846 0.66938 0.62772
 C425 C 0.62776 0.66940 0.64844
 C426 C 0.62776 0.64845 0.66941
 C427 C 0.64409 0.61111 0.69290
 N428 N 0.62132 0.62130 0.70691
 C429 C 0.61113 0.64409 0.69290
 C430 C 0.61114 0.69288 0.64407
 N431 N 0.62133 0.70686 0.62127
 C432 C 0.64411 0.69285 0.61108
 C433 C 0.69288 0.64405 0.61109
 N434 N 0.70688 0.62128 0.62129
 C435 C 0.69289 0.61109 0.64408
 H436 H 0.65686 0.59336 0.69968
 H437 H 0.59339 0.65686 0.69968
 H438 H 0.59340 0.69967 0.65683
 H439 H 0.65687 0.69961 0.59333
 H440 H 0.69966 0.65682 0.59335
 H441 H 0.69967 0.59336 0.65686
 C442 C 0.64905 1.12949 1.17088
 C443 C 0.67001 1.12950 1.14993
 C444 C 0.67009 1.15026 1.12928
 C445 C 0.64920 1.17128 1.12932
 C446 C 0.62846 1.17129 1.15004
 C447 C 0.62839 1.15026 1.17094
 C448 C 0.64456 1.11267 1.19421
 N449 N 0.62173 1.12280 1.20818
 C450 C 0.61164 1.14574 1.19434
 C451 C 0.61178 1.19473 1.14559
 N452 N 0.62196 1.20868 1.12275
 C453 C 0.64480 1.19471 1.11261
 C454 C 0.69349 1.14576 1.11256
 N455 N 0.70736 1.12285 1.12265
 C456 C 0.69335 1.11271 1.14545
 H457 H 0.65724 1.09479 1.20083
 H458 H 0.59385 1.15847 1.20109
 H459 H 0.59395 1.20143 1.15830
 H460 H 0.65753 1.20139 1.09479
 H461 H 0.70027 1.15849 1.09479
 H462 H 0.70000 1.09484 1.15812
 C463 C 0.14922 0.62949 1.17110
 C464 C 0.17004 0.62940 1.15004
 C465 C 0.17011 0.65017 1.12940
 C466 C 0.14934 0.67130 1.12957
 C467 C 0.12873 0.67142 1.15041
 C468 C 0.12867 0.65037 1.17132
 C469 C 0.14479 0.61264 1.19441
 N470 N 0.12211 0.62285 1.20856
 C471 C 0.11204 0.64587 1.19482
 C472 C 0.11214 0.69496 1.14602
 N473 N 0.12228 0.70883 1.12311
 C474 C 0.14498 0.69472 1.11286
 C475 C 0.19341 0.64557 1.11256
 N476 N 0.20722 0.62259 1.12258
 C477 C 0.19328 0.61250 1.14544
 H478 H 0.15742 0.59468 1.20091
 H479 H 0.09435 0.65866 1.20171
 H480 H 0.09440 0.70176 1.15880
 H481 H 0.15764 0.70130 1.09495
 H482 H 0.20019 0.65830 1.09479
 H483 H 0.19992 0.59462 1.15809
 C484 C 0.14935 1.12977 0.67129
 C485 C 0.17016 1.12968 0.65020
 C486 C 0.17015 1.15041 0.62951
 C487 C 0.14934 1.17150 0.62967
 C488 C 0.12875 1.17162 0.65053
 C489 C 0.12876 1.15062 0.67148
 C490 C 0.14492 1.11295 0.69463
 N491 N 0.12221 1.12314 0.70875
 C492 C 0.11211 1.14612 0.69497
 C493 C 0.11210 1.19511 0.64610
 N494 N 0.12219 1.20895 0.62314
 C495 C 0.14491 1.19487 0.61291
 C496 C 0.19340 1.14582 0.61262
 N497 N 0.20727 1.12288 0.62262
 C498 C 0.19341 1.11281 0.64555
 H499 H 0.15756 1.09500 0.70115
 H500 H 0.09438 1.15888 0.70180
 H501 H 0.09437 1.20191 0.65889
 H502 H 0.15754 1.20144 0.59497
 H503 H 0.20009 1.15851 0.59478
 H504 H 0.20011 1.09494 0.65819
 C505 C 1.35121 0.62900 0.32939
 C506 C 1.33033 0.62900 0.35041
 C507 C 1.33023 0.64983 0.37100
 C508 C 1.35103 0.67091 0.37082
 C509 C 1.37168 0.67093 0.35003
 C510 C 1.37177 0.64984 0.32918
 C511 C 1.35565 0.61213 0.30609
 N512 N 1.37836 0.62229 0.29197
 C513 C 1.38843 0.64530 0.30571
 C514 C 1.38827 0.69445 0.35435
 N515 N 1.37809 0.70842 0.37719
 C516 C 1.35537 0.69440 0.38745
 C517 C 1.30688 0.64533 0.38779
 N518 N 1.29308 0.62235 0.37779
 C519 C 1.30707 0.61218 0.35499
 H520 H 1.34300 0.59421 0.29957
 H521 H 1.40611 0.65807 0.29882
 H522 H 1.40602 0.70118 0.34157
 H523 H 1.34267 0.70108 0.40530
 H524 H 1.30007 0.65811 0.40552
 H525 H 1.30044 0.59428 0.34236
 C526 C 1.35154 1.12879 0.83070
 C527 C 1.33063 1.12878 0.85167
 C528 C 1.33047 1.14960 0.87226
 C529 C 1.35126 1.17070 0.87212
 C530 C 1.37196 1.17071 0.85136
 C531 C 1.37208 1.14963 0.83052
 C532 C 1.35596 1.11200 0.80735
 N533 N 1.37863 1.12219 0.79322
 C534 C 1.38870 1.14515 0.80701
 C535 C 1.38849 1.19427 0.85566
 N536 N 1.37826 1.20827 0.87845
 C537 C 1.35554 1.19424 0.88871
 C538 C 1.30703 1.14512 0.88893
 N539 N 1.29325 1.12216 0.87885
 C540 C 1.30733 1.11198 0.85612
 H541 H 1.34330 1.09413 0.80075
 H542 H 1.40633 1.15795 0.80009
 H543 H 1.40624 1.20101 0.84287
 H544 H 1.34279 1.20095 0.90651
 H545 H 1.30012 1.15792 0.90661
 H546 H 1.30073 1.09413 0.84342
 C547 C 0.85169 0.62760 0.83108
 C548 C 0.83065 0.62766 0.85195
 C549 C 0.83055 0.64843 0.87262
 C550 C 0.85149 0.66937 0.87265
 C551 C 0.87228 0.66929 0.85201
 C552 C 0.87238 0.64829 0.83111
 C553 C 0.85614 0.61094 0.80762
 N554 N 0.87895 0.62111 0.79368
 C555 C 0.88908 0.64390 0.80768
 C556 C 0.88888 0.69277 0.85636
 N557 N 0.87861 0.70685 0.87906
 C558 C 0.85579 0.69291 0.88922
 C559 C 0.80700 0.64410 0.88916
 N560 N 0.79307 0.62129 0.87896
 C561 C 0.80718 0.61105 0.85625
 H562 H 0.84339 0.59322 0.80080
 H563 H 0.90681 0.65667 0.80093
 H564 H 0.90666 0.69948 0.84362
 H565 H 0.84296 0.69976 0.90689
 H566 H 0.80013 0.65690 0.90685
 H567 H 0.80049 0.59327 0.84350
 C568 C 0.85229 1.12707 0.33154
 C569 C 0.83120 1.12718 0.35234
 C570 C 0.83108 1.14794 0.37302
 C571 C 0.85208 1.16883 0.37311
 C572 C 0.87293 1.16870 0.35254
 C573 C 0.87303 1.14771 0.33164
 C574 C 0.85671 1.11048 0.30803
 N575 N 0.87955 1.12063 0.29413
 C576 C 0.88973 1.14335 0.30821
 C577 C 0.88952 1.19218 0.35688
 N578 N 0.87918 1.20631 0.37951
 C579 C 0.85633 1.19241 0.38964
 C580 C 0.80743 1.14371 0.38943
 N581 N 0.79346 1.12096 0.37915
 C582 C 0.80763 1.11067 0.35652
 H583 H 0.84389 1.09284 0.30113
 H584 H 0.90746 1.15612 0.30147
 H585 H 0.90731 1.19888 0.34416
 H586 H 0.84343 1.19932 0.40724
 H587 H 0.80051 1.15655 0.40708
 H588 H 0.80091 1.09295 0.34370
 C589 C 0.64855 0.37210 0.32979
 C590 C 0.66952 0.37205 0.35075
 C591 C 0.66947 0.35139 0.37150
 C592 C 0.64846 0.33053 0.37156
 C593 C 0.62774 0.33057 0.35086
 C594 C 0.62777 0.35147 0.32986
 C595 C 0.64416 0.38873 0.30628
 N596 N 0.62130 0.37861 0.29236
 C597 C 0.61108 0.35587 0.30640
 C598 C 0.61105 0.30717 0.35530
 N599 N 0.62122 0.29319 0.37812
 C600 C 0.64405 0.30712 0.38826
 C601 C 0.69293 0.35569 0.38816
 N602 N 0.70700 0.37840 0.37795
 C603 C 0.69304 0.38860 0.35512
 H604 H 0.65696 0.40643 0.29948
 H605 H 0.59327 0.34315 0.29972
 H606 H 0.59328 0.30043 0.34255
 H607 H 0.65682 0.30033 0.40601
 H608 H 0.69965 0.34294 0.40595
 H609 H 0.69986 0.40631 0.34234
 C610 C 0.64809 0.87244 0.83086
 C611 C 0.66908 0.87244 0.85178
 C612 C 0.66914 0.85173 0.87250
 C613 C 0.64821 0.83078 0.87253
 C614 C 0.62747 0.83079 0.85184
 C615 C 0.62741 0.85174 0.83089
 C616 C 0.64368 0.88904 0.80735
 N617 N 0.62090 0.87884 0.79337
 C618 C 0.61076 0.85607 0.80741
 C619 C 0.61089 0.80731 0.85621
 N620 N 0.62113 0.79330 0.87897
 C621 C 0.64391 0.80729 0.88915
 C622 C 0.69266 0.85610 0.88909
 N623 N 0.70660 0.87888 0.87886
 C624 C 0.69254 0.88907 0.85610
 H625 H 0.65643 0.90676 0.80053
 H626 H 0.59304 0.84329 0.80064
 H627 H 0.59314 0.80054 0.84345
 H628 H 0.65671 0.80049 0.90687
 H629 H 0.69949 0.84334 0.90682
 H630 H 0.69927 0.90680 0.84331
 C631 C 0.14847 0.37229 0.82981
 C632 C 0.16930 0.37233 0.85089
 C633 C 0.16924 0.35164 0.87163
 C634 C 0.14836 0.33067 0.87153
 C635 C 0.12776 0.33060 0.85070
 C636 C 0.12781 0.35154 0.82971
 C637 C 0.14417 0.38895 0.80632
 N638 N 0.12146 0.37874 0.79222
 C639 C 0.11126 0.35591 0.80614
 C640 C 0.11117 0.30711 0.85505
 N641 N 0.12128 0.29318 0.87793
 C642 C 0.14397 0.30724 0.88820
 C643 C 0.19261 0.35604 0.88840
 N644 N 0.20661 0.37883 0.87827
 C645 C 0.19272 0.38899 0.85539
 H646 H 0.15693 0.40673 0.79966
 H647 H 0.09356 0.34313 0.79930
 H648 H 0.09349 0.30028 0.84221
 H649 H 0.15666 0.30054 0.90604
 H650 H 0.19932 0.34329 0.90619
 H651 H 0.19953 0.40672 0.84264
 C652 C 0.14820 0.87240 0.32980
 C653 C 0.16907 0.87246 0.35084
 C654 C 0.16908 0.85175 0.37155
 C655 C 0.14823 0.83074 0.37147
 C656 C 0.12760 0.83065 0.35068
 C657 C 0.12757 0.85161 0.32971
 C658 C 0.14385 0.88906 0.30633
 N659 N 0.12115 0.87883 0.29224
 C660 C 0.11099 0.85597 0.30615
 C661 C 0.11107 0.80711 0.35504
 N662 N 0.12126 0.79319 0.37789
 C663 C 0.14394 0.80728 0.38813
 C664 C 0.19249 0.85616 0.38825
 N665 N 0.20644 0.87896 0.37810
 C666 C 0.19248 0.88913 0.35528
 H667 H 0.15658 0.90686 0.29966
 H668 H 0.09331 0.84316 0.29931
 H669 H 0.09339 0.80025 0.34223
 H670 H 0.15668 0.80060 0.40594
 H671 H 0.19928 0.84338 0.40600
 H672 H 0.19925 0.90686 0.34251
 O673 O 0.97257 0.89810 0.85956
 O674 O 0.97252 0.86527 0.82646
 C675 C 0.96292 0.88825 0.83652
 C676 C 0.93987 0.90338 0.82168
 C677 C 0.93037 0.89418 0.79508
 H678 H 0.94039 0.87634 0.78478
 O679 O 1.02753 1.10214 0.85900
 O680 O 1.02753 1.13505 0.82599
 C681 C 1.03721 1.11209 0.83602
 C682 C 1.06042 1.09715 0.82125
 C683 C 1.07021 1.10667 0.79487
 H684 H 1.06025 1.12459 0.78465
 O685 O 0.85918 0.97286 0.89805
 O686 O 0.82616 0.97272 0.86514
 C687 C 0.83618 0.96319 0.88818
 C688 C 0.82137 0.94018 0.90337
 C689 C 0.79478 0.93068 0.89422
 H690 H 0.78445 0.94069 0.87637
 O691 O 1.14089 1.02770 0.89797
 O692 O 1.17396 1.02766 0.86512
 C693 C 1.16393 1.03728 0.88812
 C694 C 1.17875 1.06029 0.90329
 C695 C 1.20532 1.06984 0.89414
 H696 H 1.21566 1.05987 0.87628
 O697 O 0.89796 0.85964 0.97268
 O698 O 0.86514 0.82660 0.97263
 C699 C 0.88812 0.83661 0.96304
 C700 C 0.90327 0.82175 0.94003
 C701 C 0.89411 0.79516 0.93057
 H702 H 0.87627 0.78489 0.94059
 O703 O 1.10202 1.14078 0.97241
 O704 O 1.13483 1.17384 0.97231
 C705 C 1.11186 1.16379 0.96271
 C706 C 1.09670 1.17858 0.93963
 C707 C 1.10587 1.20513 0.93004
 H708 H 1.12373 1.21544 0.94001
 O709 O 0.89784 1.02782 0.85914
 O710 O 0.86501 1.02774 0.82604
 C711 C 0.88798 1.03738 0.83606
 C712 C 0.90307 1.06040 0.82117
 C713 C 0.89376 1.06999 0.79463
 H714 H 0.87585 1.06004 0.78439
 O715 O 1.10200 0.97281 0.85927
 O716 O 1.13482 0.97268 0.82617
 C717 C 1.11183 0.96314 0.83623
 C718 C 1.09666 0.94012 0.82143
 C719 C 1.10573 0.93069 0.79476
 H720 H 1.12347 0.94076 0.78437
 O721 O 1.02771 0.85931 0.89818
 O722 O 1.02774 0.82629 0.86527
 C723 C 1.03735 0.83629 0.88829
 C724 C 1.06039 0.82144 0.90342
 C725 C 1.07000 0.79491 0.89419
 H726 H 1.06006 0.78463 0.87628
 O727 O 0.97232 1.14070 0.89777
 O728 O 0.97223 1.17377 0.86492
 C729 C 0.96264 1.16372 0.88792
 C730 C 0.93958 1.17853 0.90305
 C731 C 0.92988 1.20499 0.89370
 H732 H 0.93977 1.21521 0.87573
 O733 O 0.85899 1.10240 0.97246
 O734 O 0.82599 1.13531 0.97244
 C735 C 0.83600 1.11234 0.96277
 C736 C 0.82125 1.09733 0.93956
 C737 C 0.79485 1.10676 0.92968
 H738 H 0.78459 1.12471 0.93955
 O739 O 1.14078 0.89791 0.97260
 O740 O 1.17386 0.86508 0.97251
 C741 C 1.16377 0.88804 0.96287
 C742 C 1.17851 0.90310 0.93970
 C743 C 1.20497 0.89375 0.92999
 H744 H 1.21524 0.87584 0.93994
 O745 O 0.97240 1.10209 0.85895
 O746 O 0.97232 1.13497 0.82591
 C747 C 0.96274 1.11198 0.83592
 C748 C 0.93966 1.09690 0.82109
 C749 C 0.93002 1.10618 0.79456
 H750 H 0.93999 1.12404 0.78426
 O751 O 1.02766 0.89811 0.85954
 O752 O 1.02768 0.86530 0.82643
 C753 C 1.03726 0.88828 0.83646
 C754 C 1.06021 0.90347 0.82156
 C755 C 1.06960 0.89436 0.79489
 H756 H 1.05958 0.87653 0.78458
 O757 O 1.14076 0.97259 0.89791
 O758 O 1.17380 0.97246 0.86502
 C759 C 1.16374 0.96286 0.88801
 C760 C 1.17850 0.93969 0.90309
 C761 C 1.20496 0.92999 0.89372
 H762 H 1.21521 0.93993 0.87581
 O763 O 0.85920 1.02797 0.89791
 O764 O 0.82619 1.02790 0.86499
 C765 C 0.83620 1.03759 0.88797
 C766 C 0.82137 1.06074 0.90296
 C767 C 0.79499 1.07048 0.89344
 H768 H 0.78483 1.06055 0.87546
 O769 O 0.89790 1.14083 0.97254
 O770 O 0.86509 1.17393 0.97254
 C771 C 0.88805 1.16386 0.96289
 C772 C 0.90311 1.17861 0.93976
 C773 C 0.89375 1.20507 0.93007
 H774 H 0.87587 1.21534 0.94004
 O775 O 1.10211 0.85925 0.97281
 O776 O 1.13500 0.82623 0.97274
 C777 C 1.11199 0.83624 0.96316
 C778 C 1.09688 0.82142 0.94011
 C779 C 1.10615 0.79489 0.93055
 H780 H 1.12400 0.78461 0.94059
 O781 O 1.10230 1.02791 0.85912
 O782 O 1.13517 1.02788 0.82607
 C783 C 1.11221 1.03756 0.83609
 C784 C 1.09716 1.06071 0.82128
 C785 C 1.10663 1.07058 0.79489
 H786 H 1.12464 1.06077 0.78469
 O787 O 0.89797 0.97273 0.85943
 O788 O 0.86515 0.97258 0.82632
 C789 C 0.88813 0.96302 0.83641
 C790 C 0.90328 0.93995 0.82163
 C791 C 0.89412 0.93042 0.79503
 H792 H 0.87629 0.94043 0.78469
 O793 O 1.02742 1.14072 0.89780
 O794 O 1.02739 1.17381 0.86498
 C795 C 1.03702 1.16375 0.88796
 C796 C 1.06006 1.17857 0.90309
 C797 C 1.06956 1.20512 0.89385
 H798 H 1.05951 1.21540 0.87600
 O799 O 0.97261 0.85941 0.89825
 O800 O 0.97256 0.82637 0.86536
 C801 C 0.96296 0.83641 0.88837
 C802 C 0.93990 0.82163 0.90349
 C803 C 0.93041 0.79503 0.89435
 H804 H 0.94045 0.78467 0.87655
 O805 O 1.14074 1.10210 0.97255
 O806 O 1.17374 1.13497 0.97247
 C807 C 1.16375 1.11196 0.96291
 C808 C 1.17863 1.09683 0.93991
 C809 C 1.20520 1.10604 0.93045
 H810 H 1.21545 1.12389 0.94050
 O811 O 0.85930 0.89837 0.97267
 O812 O 0.82628 0.86553 0.97263
 C813 C 0.83629 0.88851 0.96303
 C814 C 0.82143 0.90364 0.93999
 C815 C 0.79484 0.89447 0.93051
 H816 H 0.78456 0.87665 0.94056
 Cu817 Cu 1.00015 0.88201 0.88218
 Cu818 Cu 1.00013 0.84250 0.84256
 Cu819 Cu 0.99991 1.11810 0.88166
 Cu820 Cu 0.99986 1.15771 0.84214
 Cu821 Cu 0.88184 1.00036 0.88193
 Cu822 Cu 0.84231 1.00022 0.84231
 Cu823 Cu 1.11820 1.00028 0.88186
 Cu824 Cu 1.15775 1.00015 0.84228
 C825 C 0.92635 0.92646 0.83465
 H826 H 0.93331 0.93344 0.85533
 C827 C 0.90765 0.90769 0.78180
 C828 C 1.07387 1.07398 0.83414
 H829 H 1.06669 1.06676 0.85465
 C830 C 1.09316 1.09342 0.78173
 C831 C 0.83439 0.92669 0.92645
 H832 H 0.85506 0.93364 0.93339
 C833 C 0.78156 0.90798 0.90778
 C834 C 1.16572 1.07375 0.92638
 H835 H 1.14507 1.06678 0.93332
 C836 C 1.21850 1.09257 0.90772
 C837 C 0.92636 0.83468 0.92653
 H838 H 0.93331 0.85534 0.93346
 C839 C 0.90767 0.78184 0.90789
 C840 C 1.07360 1.16560 0.92618
 H841 H 1.06664 1.14497 0.93319
 C842 C 1.09231 1.21836 0.90730
 C843 C 0.92622 1.07382 0.83408
 H844 H 0.93327 1.06679 0.85471
 C845 C 0.90722 1.09273 0.78137
 C846 C 1.07371 0.92654 0.83452
 H847 H 1.06684 0.93345 0.85526
 C848 C 1.09220 0.90797 0.78154
 C849 C 1.07381 0.83439 0.92658
 H850 H 1.06679 0.85502 0.93359
 C851 C 1.09273 0.78168 0.90775
 C852 C 0.92622 1.16565 0.92628
 H853 H 0.93332 1.14508 0.93337
 C854 C 0.90712 1.21821 0.90719
 C855 C 0.83418 1.07413 0.92621
 H856 H 0.85469 1.06697 0.93343
 C857 C 0.78177 1.09334 0.90676
 C858 C 1.16558 0.92627 0.92626
 H859 H 1.14501 0.93337 0.93337
 C860 C 1.21815 0.90717 0.90715
 O861 O 1.02775 0.89816 1.14095
 O862 O 1.02775 0.86537 1.17408
 C863 C 1.03737 0.88832 1.16402
 C864 C 1.06043 0.90343 1.17885
 C865 C 1.06996 0.89419 1.20542
 H866 H 1.05994 0.87637 1.21572
 O867 O 0.97288 1.10209 1.14092
 O868 O 0.97280 1.13488 1.17405
 C869 C 0.96326 1.11188 1.16400
 C870 C 0.94032 1.09666 1.17886
 C871 C 0.93099 1.10566 1.20559
 H872 H 0.94107 1.12340 1.21597
 O873 O 0.85931 1.02778 1.10234
 O874 O 0.82637 1.02791 1.13531
 C875 C 0.83634 1.03749 1.11228
 C876 C 0.82151 1.06058 1.09719
 C877 C 0.79506 1.07028 1.10656
 H878 H 0.78484 1.06039 1.12453
 O879 O 1.14105 0.97261 1.10226
 O880 O 1.17411 0.97254 1.13513
 C881 C 1.16407 0.96295 1.11213
 C882 C 1.17887 0.93988 1.09699
 C883 C 1.20539 0.93024 1.10625
 H884 H 1.21569 0.94018 1.12414
 O885 O 1.10241 0.85918 1.02799
 O886 O 1.13531 0.82618 1.02799
 C887 C 1.11235 0.83620 1.03767
 C888 C 1.09735 0.82143 1.06087
 C889 C 1.10678 0.79504 1.07072
 H890 H 1.12475 0.78480 1.06086
 O891 O 0.89779 1.14089 1.02774
 O892 O 0.86497 1.17398 1.02781
 C893 C 0.88793 1.16390 1.03745
 C894 C 0.90301 1.17863 1.06063
 C895 C 0.89361 1.20504 1.07044
 H896 H 0.87566 1.21530 1.06056
 O897 O 0.89798 0.97252 1.14094
 O898 O 0.86520 0.97257 1.17408
 C899 C 0.88813 0.96289 1.16400
 C900 C 0.90321 0.93977 1.17880
 C901 C 0.89386 0.93009 1.20529
 H902 H 0.87594 0.94003 1.21554
 O903 O 1.10237 1.02774 1.14098
 O904 O 1.13525 1.02775 1.17403
 C905 C 1.11229 1.03740 1.16399
 C906 C 1.09728 1.06055 1.17879
 C907 C 1.10669 1.07023 1.20524
 H908 H 1.12459 1.06024 1.21549
 O909 O 0.97274 0.85940 1.10222
 O910 O 0.97267 0.82637 1.13512
 C911 C 0.96309 0.83640 1.11209
 C912 C 0.94003 0.82161 1.09694
 C913 C 0.93056 0.79499 1.10604
 H914 H 0.94063 0.78461 1.12382
 O915 O 1.02769 1.14104 1.10217
 O916 O 1.02768 1.17409 1.13505
 C917 C 1.03727 1.16408 1.11202
 C918 C 1.06024 1.17893 1.09682
 C919 C 1.06977 1.20552 1.10594
 H920 H 1.05982 1.21586 1.12380
 O921 O 0.85921 0.89826 1.02782
 O922 O 0.82620 0.86541 1.02785
 C923 C 0.83621 0.88839 1.03747
 C924 C 0.82137 0.90350 1.06053
 C925 C 0.79484 0.89428 1.07012
 H926 H 0.78456 0.87641 1.06014
 O927 O 1.14075 1.10225 1.02770
 O928 O 1.17374 1.13511 1.02767
 C929 C 1.16375 1.11215 1.03733
 C930 C 1.17862 1.09707 1.06042
 C931 C 1.20517 1.10633 1.06995
 H932 H 1.21540 1.12420 1.05993
 O933 O 1.02798 1.10240 1.14096
 O934 O 1.02798 1.13524 1.17404
 C935 C 1.03765 1.11229 1.16399
 C936 C 1.06079 1.09724 1.17879
 C937 C 1.07056 1.10660 1.20525
 H938 H 1.06069 1.12455 1.21550
 O939 O 0.97263 0.89802 1.14101
 O940 O 0.97256 0.86519 1.17410
 C941 C 0.96294 0.88815 1.16403
 C942 C 0.93981 0.90322 1.17882
 C943 C 0.93013 0.89387 1.20531
 H944 H 0.94009 0.87597 1.21558
 O945 O 1.14101 1.02772 1.10225
 O946 O 1.17409 1.02773 1.13510
 C947 C 1.16403 1.03736 1.11211
 C948 C 1.17878 1.06047 1.09700
 C949 C 1.20532 1.07007 1.10620
 H950 H 1.21568 1.06007 1.12404
 O951 O 0.85925 0.97269 1.10227
 O952 O 0.82628 0.97274 1.13522
 C953 C 0.83624 0.96311 1.11220
 C954 C 0.82138 0.94009 1.09710
 C955 C 0.79485 0.93054 1.10637
 H956 H 0.78458 0.94055 1.12425
 O957 O 1.10200 1.14089 1.02756
 O958 O 1.13480 1.17395 1.02752
 C959 C 1.11184 1.16394 1.03714
 C960 C 1.09672 1.17882 1.06014
 C961 C 1.10591 1.20541 1.06957
 H962 H 1.12373 1.21567 1.05948
 O963 O 0.89803 0.85968 1.02781
 O964 O 0.86521 0.82663 1.02782
 C965 C 0.88820 0.83665 1.03743
 C966 C 0.90338 0.82176 1.06042
 C967 C 0.89425 0.79514 1.06983
 H968 H 0.87642 0.78487 1.05978
 O969 O 1.10233 0.97263 1.14097
 O970 O 1.13519 0.97255 1.17405
 C971 C 1.11219 0.96297 1.16401
 C972 C 1.09706 0.93992 1.17885
 C973 C 1.10627 0.93034 1.20543
 H974 H 1.12413 0.94029 1.21574
 O975 O 0.89823 1.02761 1.14086
 O976 O 0.86549 1.02772 1.17404
 C977 C 0.88848 1.03724 1.16395
 C978 C 0.90373 1.06015 1.17882
 C979 C 0.89473 1.06947 1.20555
 H980 H 0.87696 1.05941 1.21591
 O981 O 0.97257 1.14085 1.10230
 O982 O 0.97248 1.17386 1.13521
 C983 C 0.96284 1.16382 1.11223
 C984 C 0.93965 1.17857 1.09721
 C985 C 0.92990 1.20498 1.10667
 H986 H 0.93985 1.21519 1.12461
 O987 O 1.02787 0.85928 1.10244
 O988 O 1.02787 0.82630 1.13537
 C989 C 1.03753 0.83630 1.11239
 C990 C 1.06070 0.82149 1.09741
 C991 C 1.07046 0.79510 1.10692
 H992 H 1.06051 0.78491 1.12486
 O993 O 1.14090 0.89804 1.02777
 O994 O 1.17400 0.86522 1.02775
 C995 C 1.16396 0.88820 1.03736
 C996 C 1.17881 0.90332 1.06039
 C997 C 1.20533 0.89402 1.06996
 H998 H 1.21557 0.87613 1.05998
 O999 O 0.85916 1.10218 1.02765
 O1000 O 0.82615 1.13508 1.02772
 C1001 C 0.83618 1.11209 1.03734
 C1002 C 0.82142 1.09705 1.06048
 C1003 C 0.79496 1.10641 1.07018
 H1004 H 0.78469 1.12429 1.06020
 Cu1005 Cu 1.00024 0.88200 1.11835
 Cu1006 Cu 1.00021 0.84250 1.15799
 Cu1007 Cu 1.00030 1.11831 1.11829
 Cu1008 Cu 1.00022 1.15783 1.15790
 Cu1009 Cu 0.88191 0.88229 1.00025
 Cu1010 Cu 0.84239 0.84273 1.00023
 Cu1011 Cu 1.11825 0.88188 1.00031
 Cu1012 Cu 1.15786 0.84237 1.00023
 Cu1013 Cu 0.88174 1.11828 1.00009
 Cu1014 Cu 0.84225 1.15789 1.00013
 Cu1015 Cu 1.11809 1.11821 1.00006
 Cu1016 Cu 1.15759 1.15778 0.99998
 Cu1017 Cu 0.88197 1.00015 1.11830
 Cu1018 Cu 0.84253 1.00026 1.15799
 Cu1019 Cu 1.11840 1.00017 1.11832
 Cu1020 Cu 1.15797 1.00013 1.15789
 C1021 C 1.07394 0.92649 1.16587
 H1022 H 1.06696 0.93349 1.14521
 C1023 C 1.09273 0.90763 1.21867
 C1024 C 0.92673 1.07370 1.16578
 H1025 H 0.93355 1.06688 1.14500
 C1026 C 0.90836 1.09206 1.21888
 C1027 C 0.83438 1.07393 1.07395
 H1028 H 0.85494 1.06683 1.06685
 C1029 C 0.78183 1.09305 1.09307
 C1030 C 1.16589 0.92645 1.07386
 H1031 H 1.14527 0.93350 1.06685
 C1032 C 1.21857 0.90746 1.09274
 C1033 C 1.07412 0.83433 1.07420
 H1034 H 1.06696 0.85485 1.06700
 C1035 C 1.09335 0.78191 1.09360
 C1036 C 0.92622 1.16571 1.07400
 H1037 H 0.93336 1.14518 1.06682
 C1038 C 0.90704 1.21817 1.09331
 C1039 C 0.92637 0.92636 1.16587
 H1040 H 0.93347 0.93345 1.14528
 C1041 C 0.90731 0.90729 1.21849
 C1042 C 1.07414 1.07402 1.16587
 H1043 H 1.06699 1.06691 1.14530
 C1044 C 1.09337 1.09310 1.21843
 C1045 C 0.92646 0.83469 1.07394
 H1046 H 0.93339 0.85538 1.06704
 C1047 C 0.90783 0.78180 1.09248
 C1048 C 1.07369 1.16590 1.07372
 H1049 H 1.06673 1.14522 1.06681
 C1050 C 1.09246 1.21871 1.09230
 C1051 C 0.83433 0.92659 1.07399
 H1052 H 0.85495 0.93358 1.06696
 C1053 C 0.78163 0.90779 1.09289
 C1054 C 1.16574 1.07395 1.07391
 H1055 H 1.14511 1.06692 1.06693
 C1056 C 1.21848 1.09285 1.09268
 O1057 O 0.97265 0.39751 0.35896
 O1058 O 0.97271 0.36459 0.32597
 C1059 C 0.96304 0.38756 0.33594
 C1060 C 0.93992 0.40254 0.32108
 C1061 C 0.93022 0.39306 0.29464
 H1062 H 0.94017 0.37512 0.28445
 O1063 O 1.02796 0.60198 0.35907
 O1064 O 1.02788 0.63483 0.32600
 C1065 C 1.03758 0.61190 0.33605
 C1066 C 1.06074 0.59694 0.32125
 C1067 C 1.07045 0.60642 0.29483
 H1068 H 1.06046 0.62434 0.28462
 O1069 O 0.85964 0.47200 0.39769
 O1070 O 0.82660 0.47203 0.36480
 C1071 C 0.83660 0.46243 0.38783
 C1072 C 0.82171 0.43947 0.40300
 C1073 C 0.79517 0.42996 0.39375
 H1074 H 0.78493 0.43993 0.37582
 O1075 O 1.14113 0.52752 0.39793
 O1076 O 1.17417 0.52745 0.36504
 C1077 C 1.16416 0.53709 0.38804
 C1078 C 1.17899 0.56015 0.40314
 C1079 C 1.20547 0.56980 0.39384
 H1080 H 1.21575 0.55985 0.37593
 O1081 O 0.89816 0.35937 0.47271
 O1082 O 0.86539 0.32627 0.47268
 C1083 C 0.88837 0.33632 0.46309
 C1084 C 0.90355 0.32147 0.44008
 C1085 C 0.89448 0.29481 0.43072
 H1086 H 0.87670 0.28450 0.44082
 O1087 O 1.10237 0.64066 0.47232
 O1088 O 1.13514 0.67376 0.47229
 C1089 C 1.11218 0.66370 0.46267
 C1090 C 1.09701 0.67850 0.43961
 C1091 C 1.10614 0.70507 0.43002
 H1092 H 1.12399 0.71540 0.43998
 O1093 O 0.89849 0.52692 0.35900
 O1094 O 0.86568 0.52703 0.32588
 C1095 C 0.88867 0.53657 0.33595
 C1096 C 0.90385 0.55956 0.32113
 C1097 C 0.89479 0.56897 0.29444
 H1098 H 0.87703 0.55890 0.28406
 O1099 O 1.10216 0.47261 0.35929
 O1100 O 1.13498 0.47248 0.32618
 C1101 C 1.11198 0.46294 0.33624
 C1102 C 1.09683 0.43993 0.32142
 C1103 C 1.10597 0.43050 0.29479
 H1104 H 1.12375 0.44059 0.28445
 O1105 O 1.02779 0.35896 0.39783
 O1106 O 1.02789 0.32589 0.36498
 C1107 C 1.03745 0.33593 0.38799
 C1108 C 1.06046 0.32108 0.40316
 C1109 C 1.07009 0.29458 0.39387
 H1110 H 1.06019 0.28434 0.37592
 O1111 O 0.97267 0.64052 0.39771
 O1112 O 0.97254 0.67352 0.36479
 C1113 C 0.96296 0.66350 0.38779
 C1114 C 0.93987 0.67829 0.40287
 C1115 C 0.93025 0.70480 0.39356
 H1116 H 0.94023 0.71506 0.37567
 O1117 O 0.85957 0.60166 0.47212
 O1118 O 0.82649 0.63448 0.47208
 C1119 C 0.83655 0.61151 0.46246
 C1120 C 0.82177 0.59641 0.43936
 C1121 C 0.79523 0.60563 0.42975
 H1122 H 0.78492 0.62348 0.43974
 O1123 O 1.14082 0.39753 0.47227
 O1124 O 1.17386 0.36465 0.47224
 C1125 C 1.16381 0.38761 0.46257
 C1126 C 1.17859 0.40266 0.43939
 C1127 C 1.20501 0.39325 0.42959
 H1128 H 1.21523 0.37527 0.43945
 O1129 O 0.97287 0.60163 0.35917
 O1130 O 0.97274 0.63444 0.32606
 C1131 C 0.96323 0.61143 0.33610
 C1132 C 0.94032 0.59619 0.32121
 C1133 C 0.93094 0.60526 0.29453
 H1134 H 0.94095 0.62308 0.28421
 O1135 O 1.02775 0.39788 0.35931
 O1136 O 1.02788 0.36501 0.32626
 C1137 C 1.03742 0.38803 0.33628
 C1138 C 1.06040 0.40324 0.32144
 C1139 C 1.06990 0.39414 0.29479
 H1140 H 1.05994 0.37629 0.28446
 O1141 O 1.14098 0.47238 0.39785
 O1142 O 1.17400 0.47224 0.36494
 C1143 C 1.16394 0.46262 0.38792
 C1144 C 1.17865 0.43940 0.40293
 C1145 C 1.20506 0.42965 0.39348
 H1146 H 1.21531 0.43963 0.37559
 O1147 O 0.85965 0.52707 0.39754
 O1148 O 0.82662 0.52718 0.36463
 C1149 C 0.83665 0.53677 0.38764
 C1150 C 0.82183 0.55984 0.40275
 C1151 C 0.79529 0.56939 0.39348
 H1152 H 0.78502 0.55940 0.37561
 O1153 O 0.89810 0.64047 0.47216
 O1154 O 0.86521 0.67349 0.47212
 C1155 C 0.88820 0.66348 0.46251
 C1156 C 0.90328 0.67831 0.43943
 C1157 C 0.89398 0.70481 0.42979
 H1158 H 0.87608 0.71508 0.43975
 O1159 O 1.10213 0.35887 0.47255
 O1160 O 1.13497 0.32580 0.47256
 C1161 C 1.11199 0.33583 0.46294
 C1162 C 1.09690 0.32101 0.43987
 C1163 C 1.10621 0.29451 0.43026
 H1164 H 1.12408 0.28423 0.44027
 O1165 O 1.10258 0.52771 0.35905
 O1166 O 1.13542 0.52765 0.32597
 C1167 C 1.11248 0.53734 0.33601
 C1168 C 1.09743 0.56048 0.32120
 C1169 C 1.10683 0.57031 0.29477
 H1170 H 1.12480 0.56047 0.28452
 O1171 O 0.89815 0.47183 0.35880
 O1172 O 0.86530 0.47186 0.32571
 C1173 C 0.88825 0.46219 0.33576
 C1174 C 0.90329 0.43905 0.32098
 C1175 C 0.89391 0.42925 0.29454
 H1176 H 0.87596 0.43912 0.28428
 O1177 O 1.02777 0.64054 0.39789
 O1178 O 1.02768 0.67357 0.36499
 C1179 C 1.03733 0.66357 0.38800
 C1180 C 1.06035 0.67844 0.40309
 C1181 C 1.06979 0.70500 0.39384
 H1182 H 1.05972 0.71527 0.37600
 O1183 O 0.97271 0.35922 0.39805
 O1184 O 0.97274 0.32609 0.36526
 C1185 C 0.96311 0.33618 0.38824
 C1186 C 0.94010 0.32138 0.40345
 C1187 C 0.93069 0.29473 0.39442
 H1188 H 0.94073 0.28435 0.37662
 O1189 O 1.14106 0.60196 0.47240
 O1190 O 1.17403 0.63485 0.47237
 C1191 C 1.16406 0.61185 0.46276
 C1192 C 1.17891 0.59675 0.43971
 C1193 C 1.20539 0.60606 0.43008
 H1194 H 1.21561 0.62398 0.44004
 O1195 O 0.85933 0.39791 0.47259
 O1196 O 0.82635 0.36503 0.47254
 C1197 C 0.83635 0.38800 0.46290
 C1198 C 0.82158 0.40304 0.43974
 C1199 C 0.79503 0.39385 0.43015
 H1200 H 0.78468 0.37606 0.44020
 Cu1201 Cu 1.00023 0.38170 0.38182
 Cu1202 Cu 1.00032 0.34208 0.34230
 Cu1203 Cu 1.00032 0.61788 0.38177
 Cu1204 Cu 1.00019 0.65740 0.34214
 Cu1205 Cu 0.88228 0.49944 0.38155
 Cu1206 Cu 0.84274 0.49954 0.34193
 Cu1207 Cu 1.11843 0.50009 0.38182
 Cu1208 Cu 1.15796 0.49993 0.34223
 C1209 C 0.92649 0.42572 0.33392
 H1210 H 0.93361 0.43290 0.35447
 C1211 C 0.90736 0.40639 0.28142
 C1212 C 1.07420 0.57379 0.33412
 H1213 H 1.06707 0.56660 0.35466
 C1214 C 1.09334 0.59314 0.28163
 C1215 C 0.83461 0.42604 0.42618
 H1216 H 0.85524 0.43301 0.43320
 C1217 C 0.78186 0.40731 0.40731
 C1218 C 1.16603 0.57360 0.42628
 H1219 H 1.14543 0.56654 0.43333
 C1220 C 1.21862 0.59261 0.40730
 C1221 C 0.92656 0.33445 0.42648
 H1222 H 0.93344 0.35517 0.43334
 C1223 C 0.90803 0.28149 0.40805
 C1224 C 1.07392 0.66550 0.42617
 H1225 H 1.06700 0.64485 0.43318
 C1226 C 1.09253 0.71828 0.40729
 C1227 C 0.92682 0.57314 0.33421
 H1228 H 0.93368 0.56627 0.35495
 C1229 C 0.90833 0.59166 0.28119
 C1230 C 1.07384 0.42633 0.33445
 H1231 H 1.06692 0.43324 0.35516
 C1232 C 1.09253 0.40778 0.28152
 C1233 C 1.07383 0.33398 0.42636
 H1234 H 1.06678 0.35459 0.43340
 C1235 C 1.09282 0.28134 0.40741
 C1236 C 0.92641 0.66536 0.42600
 H1237 H 0.93347 0.64476 0.43305
 C1238 C 0.90746 0.71801 0.40700
 C1239 C 0.83477 0.57331 0.42588
 H1240 H 0.85540 0.56631 0.43291
 C1241 C 0.78204 0.59213 0.40697
 C1242 C 1.16572 0.42593 0.42607
 H1243 H 1.14519 0.43308 0.43323
 C1244 C 1.21820 0.40673 0.40679
 O1245 O 1.02769 0.39816 0.64119
 O1246 O 1.02778 0.36533 0.67428
 C1247 C 1.03738 0.38829 0.66420
 C1248 C 1.06052 0.40334 0.67895
 C1249 C 1.07011 0.39413 0.70551
 H1250 H 1.06004 0.37636 0.71589
 O1251 O 0.97281 0.60174 0.64084
 O1252 O 0.97275 0.63460 0.67391
 C1253 C 0.96318 0.61161 0.66389
 C1254 C 0.94019 0.59648 0.67876
 C1255 C 0.93074 0.60563 0.70540
 H1256 H 0.94078 0.62344 0.71572
 O1257 O 0.85956 0.52737 0.60218
 O1258 O 0.82649 0.52759 0.63504
 C1259 C 0.83655 0.53709 0.61201
 C1260 C 0.82173 0.56007 0.59677
 C1261 C 0.79513 0.56958 0.60591
 H1262 H 0.78483 0.55962 0.62379
 O1263 O 1.14119 0.47230 0.60192
 O1264 O 1.17427 0.47223 0.63477
 C1265 C 1.16422 0.46265 0.61176
 C1266 C 1.17902 0.43962 0.59658
 C1267 C 1.20561 0.43007 0.60572
 H1268 H 1.21596 0.44005 0.62356
 O1269 O 1.10228 0.35908 0.52775
 O1270 O 1.13513 0.32602 0.52784
 C1271 C 1.11218 0.33611 0.53751
 C1272 C 1.09717 0.32143 0.56077
 C1273 C 1.10659 0.29504 0.57064
 H1274 H 1.12451 0.28476 0.56075
 O1275 O 0.89821 0.64032 0.52731
 O1276 O 0.86533 0.67335 0.52736
 C1277 C 0.88832 0.66332 0.53698
 C1278 C 0.90341 0.67813 0.56007
 C1279 C 0.89420 0.70470 0.56958
 H1280 H 0.87638 0.71501 0.55952
 O1281 O 0.89802 0.47222 0.64110
 O1282 O 0.86512 0.47236 0.67413
 C1283 C 0.88808 0.46265 0.66414
 C1284 C 0.90305 0.43953 0.67902
 C1285 C 0.89349 0.42977 0.70539
 H1286 H 0.87548 0.43967 0.71552
 O1287 O 1.10248 0.52735 0.64066
 O1288 O 1.13535 0.52737 0.67372
 C1289 C 1.11236 0.53698 0.66369
 C1290 C 1.09725 0.56002 0.67854
 C1291 C 1.10651 0.56957 0.70509
 H1292 H 1.12438 0.55957 0.71537
 O1293 O 0.97265 0.35945 0.60247
 O1294 O 0.97267 0.32638 0.63533
 C1295 C 0.96304 0.33642 0.61233
 C1296 C 0.93999 0.32161 0.59721
 C1297 C 0.93044 0.29508 0.60648
 H1298 H 0.94045 0.28480 0.62435
 O1299 O 1.02776 0.64049 0.60205
 O1300 O 1.02774 0.67356 0.63490
 C1301 C 1.03734 0.66354 0.61189
 C1302 C 1.06029 0.67841 0.59670
 C1303 C 1.06965 0.70507 0.60579
 H1304 H 1.05959 0.71540 0.62360
 O1305 O 0.85924 0.39798 0.52776
 O1306 O 0.82626 0.36509 0.52780
 C1307 C 0.83624 0.38809 0.53741
 C1308 C 0.82142 0.40320 0.56048
 C1309 C 0.79489 0.39398 0.57012
 H1310 H 0.78459 0.37612 0.56015
 O1311 O 1.14106 0.60203 0.52754
 O1312 O 1.17403 0.63492 0.52760
 C1313 C 1.16404 0.61193 0.53722
 C1314 C 1.17889 0.59684 0.56031
 C1315 C 1.20538 0.60614 0.56993
 H1316 H 1.21561 0.62404 0.55997
 O1317 O 1.02790 0.60179 0.64075
 O1318 O 1.02793 0.63466 0.67381
 C1319 C 1.03756 0.61168 0.66377
 C1320 C 1.06066 0.59660 0.67858
 C1321 C 1.07026 0.60582 0.70515
 H1322 H 1.06028 0.62367 0.71546
 O1323 O 0.97254 0.39789 0.64143
 O1324 O 0.97255 0.36503 0.67448
 C1325 C 0.96287 0.38798 0.66445
 C1326 C 0.93966 0.40297 0.67920
 C1327 C 0.92975 0.39352 0.70558
 H1328 H 0.93960 0.37557 0.71585
 O1329 O 1.14123 0.52741 0.60204
 O1330 O 1.17430 0.52742 0.63490
 C1331 C 1.16424 0.53707 0.61192
 C1332 C 1.17900 0.56019 0.59685
 C1333 C 1.20550 0.56983 0.60614
 H1334 H 1.21581 0.55984 0.62400
 O1335 O 0.85942 0.47231 0.60230
 O1336 O 0.82634 0.47246 0.63514
 C1337 C 0.83636 0.46278 0.61217
 C1338 C 0.82149 0.43977 0.59708
 C1339 C 0.79497 0.43024 0.60637
 H1340 H 0.78473 0.44025 0.62427
 O1341 O 1.10224 0.64059 0.52746
 O1342 O 1.13501 0.67369 0.52751
 C1343 C 1.11204 0.66363 0.53709
 C1344 C 1.09684 0.67845 0.56010
 C1345 C 1.10587 0.70511 0.56950
 H1346 H 1.12364 0.71546 0.55943
 O1347 O 0.89806 0.35940 0.52786
 O1348 O 0.86529 0.32631 0.52791
 C1349 C 0.88824 0.33638 0.53753
 C1350 C 0.90338 0.32160 0.56063
 C1351 C 0.89416 0.29507 0.57023
 H1352 H 0.87630 0.28478 0.56026
 O1353 O 1.10260 0.47227 0.64077
 O1354 O 1.13547 0.47222 0.67383
 C1355 C 1.11247 0.46264 0.66382
 C1356 C 1.09731 0.43968 0.67874
 C1357 C 1.10656 0.43012 0.70532
 H1358 H 1.12450 0.44002 0.71554
 O1359 O 0.89825 0.52730 0.64092
 O1360 O 0.86538 0.52752 0.67398
 C1361 C 0.88840 0.53701 0.66395
 C1362 C 0.90359 0.55998 0.67878
 C1363 C 0.89448 0.56946 0.70541
 H1364 H 0.87665 0.55946 0.71574
 O1365 O 0.97268 0.64033 0.60203
 O1366 O 0.97259 0.67339 0.63489
 C1367 C 0.96300 0.66334 0.61189
 C1368 C 0.93993 0.67813 0.59673
 C1369 C 0.93039 0.70470 0.60591
 H1370 H 0.94038 0.71502 0.62377
 O1371 O 1.02777 0.35938 0.60257
 O1372 O 1.02786 0.32636 0.63547
 C1373 C 1.03747 0.33639 0.61247
 C1374 C 1.06061 0.32159 0.59742
 C1375 C 1.07036 0.29520 0.60692
 H1376 H 1.06046 0.28504 0.62490
 O1377 O 1.14095 0.39775 0.52742
 O1378 O 1.17400 0.36489 0.52747
 C1379 C 1.16400 0.38790 0.53702
 C1380 C 1.17890 0.40306 0.55998
 C1381 C 1.20549 0.39385 0.56943
 H1382 H 1.21575 0.37599 0.55939
 O1383 O 0.85950 0.60171 0.52729
 O1384 O 0.82641 0.63454 0.52732
 C1385 C 0.83647 0.61157 0.53694
 C1386 C 0.82167 0.59649 0.56003
 C1387 C 0.79507 0.60567 0.56950
 H1388 H 0.78473 0.62345 0.55940
 Cu1389 Cu 1.00015 0.38202 0.61863
 Cu1390 Cu 1.00023 0.34247 0.65820
 Cu1391 Cu 1.00030 0.61779 0.61813
 Cu1392 Cu 1.00025 0.65737 0.65769
 Cu1393 Cu 0.88197 0.38197 0.50023
 Cu1394 Cu 0.84252 0.34236 0.50023
 Cu1395 Cu 1.11825 0.38159 0.49999
 Cu1396 Cu 1.15779 0.34202 0.50003
 Cu1397 Cu 0.88214 0.61775 0.49972
 Cu1398 Cu 0.84254 0.65727 0.49972
 Cu1399 Cu 1.11840 0.61801 0.49992
 Cu1400 Cu 1.15786 0.65762 0.49995
 Cu1401 Cu 0.88211 0.49979 0.61834
 Cu1402 Cu 0.84252 0.50002 0.65789
 Cu1403 Cu 1.11859 0.49982 0.61805
 Cu1404 Cu 1.15817 0.49980 0.65761
 C1405 C 1.07409 0.42631 0.66587
 H1406 H 1.06707 0.43330 0.64522
 C1407 C 1.09297 0.40749 0.71866
 C1408 C 0.92665 0.57345 0.66576
 H1409 H 0.93355 0.56651 0.64505
 C1410 C 0.90804 0.59213 0.71867
 C1411 C 0.83470 0.57349 0.57364
 H1412 H 0.85537 0.56653 0.56671
 C1413 C 0.78184 0.59222 0.59228
 C1414 C 1.16597 0.42615 0.57352
 H1415 H 1.14530 0.43313 0.56660
 C1416 C 1.21880 0.40734 0.59214
 C1417 C 1.07399 0.33440 0.57416
 H1418 H 1.06684 0.35491 0.56695
 C1419 C 1.09320 0.28197 0.59357
 C1420 C 0.92647 0.66515 0.57362
 H1421 H 0.93346 0.64449 0.56665
 C1422 C 0.90768 0.71794 0.59234
 C1423 C 0.92632 0.42617 0.66624
 H1424 H 0.93357 0.43333 0.64574
 C1425 C 0.90680 0.40692 0.71863
 C1426 C 1.07413 0.57350 0.66559
 H1427 H 1.06711 0.56650 0.64494
 C1428 C 1.09303 0.59231 0.71835
 C1429 C 0.92648 0.33456 0.57409
 H1430 H 0.93347 0.35518 0.56706
 C1431 C 0.90768 0.28186 0.59300
 C1432 C 1.07385 0.66541 0.57366
 H1433 H 1.06701 0.64470 0.56677
 C1434 C 1.09229 0.71837 0.59219
 C1435 C 0.83440 0.42628 0.57394
 H1436 H 0.85502 0.43327 0.56690
 C1437 C 0.78172 0.40750 0.59291
 C1438 C 1.16600 0.57367 0.57374
 H1439 H 1.14541 0.56662 0.56669
 C1440 C 1.21865 0.59265 0.59269
 O1441 O 0.60197 1.02774 0.64085
 O1442 O 0.63487 1.02758 0.67387
 C1443 C 0.61193 1.03732 0.66388
 C1444 C 0.59700 1.06049 0.67872
 C1445 C 0.60656 1.07026 0.70510
 H1446 H 0.62452 1.06031 0.71527
 O1447 O 0.39776 0.97263 0.64053
 O1448 O 0.36487 0.97256 0.67356
 C1449 C 0.38786 0.96296 0.66353
 C1450 C 0.40291 0.93986 0.67835
 C1451 C 0.39361 0.93029 0.70488
 H1452 H 0.37576 0.94033 0.71516
 O1453 O 0.52747 1.14074 0.60208
 O1454 O 0.52741 1.17381 0.63494
 C1455 C 0.53703 1.16379 0.61194
 C1456 C 0.56004 1.17864 0.59682
 C1457 C 0.56957 1.20516 0.60610
 H1458 H 0.55957 1.21542 0.62399
 O1459 O 0.47213 0.85922 0.60174
 O1460 O 0.47215 0.82617 0.63461
 C1461 C 0.46254 0.83618 0.61160
 C1462 C 0.43955 0.82133 0.59642
 C1463 C 0.42997 0.79479 0.60564
 H1464 H 0.43990 0.78451 0.62356
 O1465 O 0.64054 1.10214 0.52752
 O1466 O 0.67358 1.13496 0.52753
 C1467 C 0.66356 1.11200 0.53716
 C1468 C 0.67838 1.09688 0.56025
 C1469 C 0.70490 1.10612 0.56989
 H1470 H 0.71517 1.12400 0.55995
 O1471 O 0.35940 0.89791 0.52700
 O1472 O 0.32627 0.86517 0.52709
 C1473 C 0.33637 0.88813 0.53668
 C1474 C 0.32156 0.90333 0.55972
 C1475 C 0.29494 0.89423 0.56918
 H1476 H 0.28462 0.87641 0.55915
 O1477 O 0.47255 1.10191 0.64079
 O1478 O 0.47243 1.13476 0.67386
 C1479 C 0.46287 1.11177 0.66381
 C1480 C 0.43982 1.09668 0.67861
 C1481 C 0.43030 1.10591 0.70518
 H1482 H 0.44037 1.12370 0.71551
 O1483 O 0.52713 0.89803 0.64044
 O1484 O 0.52722 0.86519 0.67353
 C1485 C 0.53678 0.88818 0.66349
 C1486 C 0.55978 0.90334 0.67835
 C1487 C 0.56923 0.89420 0.70500
 H1488 H 0.55920 0.87639 0.71532
 O1489 O 0.64041 0.97257 0.60191
 O1490 O 0.67348 0.97236 0.63477
 C1491 C 0.66342 0.96285 0.61175
 C1492 C 0.67823 0.93984 0.59654
 C1493 C 0.70482 0.93031 0.60570
 H1494 H 0.71513 0.94028 0.62358
 O1495 O 0.35904 1.02778 0.60188
 O1496 O 0.32598 1.02776 0.63474
 C1497 C 0.33601 1.03739 0.61176
 C1498 C 0.32117 1.06046 0.59667
 C1499 C 0.29473 1.07017 0.60608
 H1500 H 0.28453 1.06028 0.62405
 O1501 O 0.39770 1.14067 0.52746
 O1502 O 0.36487 1.17376 0.52749
 C1503 C 0.38783 1.16368 0.53715
 C1504 C 0.40290 1.17844 0.56031
 C1505 C 0.39361 1.20495 0.56998
 H1506 H 0.37574 1.21524 0.56000
 O1507 O 0.60178 0.85942 0.52713
 O1508 O 0.63467 0.82640 0.52720
 C1509 C 0.61167 0.83642 0.53680
 C1510 C 0.59656 0.82159 0.55987
 C1511 C 0.60577 0.79502 0.56939
 H1512 H 0.62362 0.78473 0.55938
 O1513 O 0.39781 1.02772 0.64056
 O1514 O 0.36495 1.02771 0.67362
 C1515 C 0.38794 1.03731 0.66362
 C1516 C 0.40310 1.06029 0.67852
 C1517 C 0.39390 1.06987 0.70511
 H1518 H 0.37599 1.05996 0.71538
 O1519 O 0.60165 0.97263 0.64058
 O1520 O 0.63452 0.97241 0.67364
 C1521 C 0.61150 0.96291 0.66359
 C1522 C 0.59633 0.93990 0.67840
 C1523 C 0.60544 0.93043 0.70504
 H1524 H 0.62324 0.94045 0.71540
 O1525 O 0.52722 0.85936 0.60172
 O1526 O 0.52732 0.82631 0.63459
 C1527 C 0.53691 0.83636 0.61159
 C1528 C 0.55998 0.82157 0.59646
 C1529 C 0.56952 0.79500 0.60565
 H1530 H 0.55951 0.78469 0.62349
 O1531 O 0.47236 1.14065 0.60215
 O1532 O 0.47223 1.17371 0.63502
 C1533 C 0.46264 1.16364 0.61203
 C1534 C 0.43950 1.17841 0.59693
 C1535 C 0.42987 1.20491 0.60624
 H1536 H 0.43986 1.21518 0.62412
 O1537 O 0.35891 1.10212 0.52729
 O1538 O 0.32589 1.13501 0.52731
 C1539 C 0.33590 1.11202 0.53692
 C1540 C 0.32110 1.09697 0.56003
 C1541 C 0.29466 1.10636 0.56976
 H1542 H 0.28441 1.12428 0.55982
 O1543 O 0.64043 0.89809 0.52711
 O1544 O 0.67353 0.86528 0.52717
 C1545 C 0.66346 0.88825 0.53677
 C1546 C 0.67826 0.90336 0.55985
 C1547 C 0.70485 0.89417 0.56935
 H1548 H 0.71518 0.87636 0.55929
 O1549 O 0.47205 0.89791 0.64047
 O1550 O 0.47205 0.86507 0.67355
 C1551 C 0.46242 0.88805 0.66351
 C1552 C 0.43937 0.90317 0.67834
 C1553 C 0.42973 0.89392 0.70488
 H1554 H 0.43964 0.87601 0.71516
 O1555 O 0.52766 1.10225 0.64100
 O1556 O 0.52762 1.13512 0.67405
 C1557 C 0.53732 1.11217 0.66402
 C1558 C 0.56050 1.09716 0.67881
 C1559 C 0.57041 1.10661 0.70519
 H1560 H 0.56058 1.12460 0.71543
 O1561 O 0.35929 0.97268 0.60162
 O1562 O 0.32619 0.97259 0.63445
 C1563 C 0.33627 0.96301 0.61145
 C1564 C 0.32150 0.93996 0.59628
 C1565 C 0.29488 0.93052 0.60539
 H1566 H 0.28453 0.94059 0.62319
 O1567 O 0.64049 1.02765 0.60198
 O1568 O 0.67357 1.02750 0.63483
 C1569 C 0.66353 1.03720 0.61186
 C1570 C 0.67837 1.06026 0.59679
 C1571 C 0.70488 1.06982 0.60610
 H1572 H 0.71514 1.05981 0.62399
 O1573 O 0.39795 0.85909 0.52691
 O1574 O 0.36504 0.82615 0.52700
 C1575 C 0.38804 0.83612 0.53658
 C1576 C 0.40312 0.82130 0.55968
 C1577 C 0.39387 0.79477 0.56921
 H1578 H 0.37606 0.78448 0.55915
 O1579 O 0.60185 1.14084 0.52752
 O1580 O 0.63468 1.17386 0.52752
 C1581 C 0.61171 1.16385 0.53715
 C1582 C 0.59661 1.17868 0.56023
 C1583 C 0.60583 1.20520 0.56984
 H1584 H 0.62369 1.21549 0.55987
 Cu1585 Cu 0.61783 1.00016 0.61804
 Cu1586 Cu 0.65742 0.99992 0.65760
 Cu1587 Cu 0.38177 1.00022 0.61786
 Cu1588 Cu 0.34218 1.00015 0.65740
 Cu1589 Cu 0.50004 1.11809 0.61822
 Cu1590 Cu 0.49990 1.15766 0.65778
 Cu1591 Cu 0.49962 0.88192 0.61780
 Cu1592 Cu 0.49970 0.84237 0.65739
 C1593 C 0.57378 1.07391 0.66590
 H1594 H 0.56653 1.06674 0.64539
 C1595 C 0.59330 1.09317 0.71830
 C1596 C 0.42598 0.92633 0.66539
 H1597 H 0.43303 0.93335 0.64476
 C1598 C 0.40700 0.90748 0.71810
 C1599 C 0.57352 1.16571 0.57369
 H1600 H 0.56653 1.14509 0.56666
 C1601 C 0.59231 1.21840 0.59263
 C1602 C 0.42615 0.83427 0.57324
 H1603 H 0.43315 0.85490 0.56625
 C1604 C 0.40728 0.78156 0.59204
 C1605 C 0.66543 1.07376 0.57367
 H1606 H 0.64483 1.06675 0.56661
 C1607 C 0.71810 1.09260 0.59267
 C1608 C 0.33454 0.92639 0.57324
 H1609 H 0.35523 0.93330 0.56632
 C1610 C 0.28165 0.90781 0.59186
 C1611 C 0.42626 1.07368 0.66559
 H1612 H 0.43324 1.06669 0.64492
 C1613 C 0.40750 1.09253 0.71839
 C1614 C 0.57330 0.92639 0.66536
 H1615 H 0.56639 0.93332 0.64465
 C1616 C 0.59190 0.90774 0.71829
 C1617 C 0.66526 0.92639 0.57342
 H1618 H 0.64459 0.93336 0.56647
 C1619 C 0.71809 0.90763 0.59212
 C1620 C 0.33403 1.07382 0.57345
 H1621 H 0.35459 1.06670 0.56633
 C1622 C 0.28153 1.09298 0.59263
 C1623 C 0.42604 1.16548 0.57378
 H1624 H 0.43310 1.14489 0.56671
 C1625 C 0.40709 1.21814 0.59278
 C1626 C 0.57347 0.83456 0.57337
 H1627 H 0.56648 0.85521 0.56640
 C1628 C 0.59226 0.78177 0.59213
 O1629 O 0.60163 0.97269 0.35866
 O1630 O 0.63450 0.97265 0.32562
 C1631 C 0.61152 0.96303 0.33565
 C1632 C 0.59647 0.93993 0.32084
 C1633 C 0.60576 0.93034 0.29429
 H1634 H 0.62359 0.94036 0.28399
 O1635 O 0.39801 1.02738 0.35882
 O1636 O 0.36519 1.02746 0.32571
 C1637 C 0.38818 1.03701 0.33576
 C1638 C 0.40331 1.06000 0.32092
 C1639 C 0.39419 1.06939 0.29427
 H1640 H 0.37643 1.05929 0.28392
 O1641 O 0.47221 1.14077 0.39757
 O1642 O 0.47208 1.17385 0.36473
 C1643 C 0.46252 1.16379 0.38773
 C1644 C 0.43948 1.17860 0.40289
 C1645 C 0.42985 1.20511 0.39363
 H1646 H 0.43977 1.21537 0.37570
 O1647 O 0.52735 0.85916 0.39745
 O1648 O 0.52749 0.82616 0.36453
 C1649 C 0.53704 0.83617 0.38756
 C1650 C 0.56009 0.82137 0.40270
 C1651 C 0.56967 0.79482 0.39348
 H1652 H 0.55969 0.78452 0.37561
 O1653 O 0.64041 0.89808 0.47194
 O1654 O 0.67350 0.86526 0.47193
 C1655 C 0.66343 0.88822 0.46229
 C1656 C 0.67822 0.90332 0.43919
 C1657 C 0.70475 0.89407 0.42958
 H1658 H 0.71504 0.87620 0.43956
 O1659 O 0.35908 1.10214 0.47210
 O1660 O 0.32605 1.13502 0.47204
 C1661 C 0.33610 1.11206 0.46238
 C1662 C 0.32136 1.09703 0.43917
 C1663 C 0.29492 1.10640 0.42939
 H1664 H 0.28465 1.12431 0.43931
 O1665 O 0.52740 1.10228 0.35875
 O1666 O 0.52735 1.13520 0.32574
 C1667 C 0.53702 1.11223 0.33573
 C1668 C 0.56012 1.09722 0.32088
 C1669 C 0.56983 1.10669 0.29445
 H1670 H 0.55990 1.12465 0.28426
 O1671 O 0.47225 0.89784 0.35873
 O1672 O 0.47232 0.86503 0.32561
 C1673 C 0.46265 0.88797 0.33567
 C1674 C 0.43954 0.90302 0.32086
 C1675 C 0.42990 0.89364 0.29438
 H1676 H 0.43989 0.87575 0.28413
 O1677 O 0.64029 1.02771 0.39748
 O1678 O 0.67340 1.02773 0.36467
 C1679 C 0.66335 1.03732 0.38768
 C1680 C 0.67820 1.06027 0.40292
 C1681 C 0.70487 1.06965 0.39388
 H1682 H 0.71521 1.05962 0.37606
 O1683 O 0.35916 0.97249 0.39753
 O1684 O 0.32611 0.97253 0.36465
 C1685 C 0.33612 0.96292 0.38766
 C1686 C 0.32127 0.93995 0.40281
 C1687 C 0.29464 0.93055 0.39367
 H1688 H 0.28431 0.94063 0.37586
 O1689 O 0.60176 1.14077 0.47238
 O1690 O 0.63461 1.17379 0.47228
 C1691 C 0.61162 1.16377 0.46270
 C1692 C 0.59647 1.17859 0.43963
 C1693 C 0.60564 1.20515 0.43010
 H1694 H 0.62348 1.21545 0.44012
 O1695 O 0.39779 0.85904 0.47174
 O1696 O 0.36487 0.82610 0.47174
 C1697 C 0.38784 0.83606 0.46207
 C1698 C 0.40287 0.82124 0.43892
 C1699 C 0.39350 0.79482 0.42916
 H1700 H 0.37557 0.78459 0.43907
 O1701 O 0.39772 0.97229 0.35868
 O1702 O 0.36486 0.97231 0.32560
 C1703 C 0.38782 0.96264 0.33565
 C1704 C 0.40289 0.93953 0.32083
 C1705 C 0.39356 0.92980 0.29434
 H1706 H 0.37563 0.93969 0.28407
 O1707 O 0.60180 1.02782 0.35854
 O1708 O 0.63471 1.02786 0.32553
 C1709 C 0.61173 1.03750 0.33554
 C1710 C 0.59670 1.06065 0.32077
 C1711 C 0.60609 1.07045 0.29434
 H1712 H 0.62402 1.06056 0.28407
 O1713 O 0.47224 0.85904 0.39730
 O1714 O 0.47231 0.82604 0.36437
 C1715 C 0.46263 0.83604 0.38735
 C1716 C 0.43950 0.82123 0.40236
 C1717 C 0.42980 0.79481 0.39294
 H1718 H 0.43977 0.78458 0.37502
 O1719 O 0.52730 1.14073 0.39769
 O1720 O 0.52725 1.17384 0.36488
 C1721 C 0.53688 1.16377 0.38786
 C1722 C 0.55990 1.17859 0.40302
 C1723 C 0.56940 1.20515 0.39383
 H1724 H 0.55938 1.21545 0.37597
 O1725 O 0.35923 0.89787 0.47187
 O1726 O 0.32610 0.86514 0.47189
 C1727 C 0.33616 0.88810 0.46229
 C1728 C 0.32129 0.90331 0.43932
 C1729 C 0.29466 0.89423 0.42986
 H1730 H 0.28435 0.87640 0.43987
 O1731 O 0.64041 1.10204 0.47237
 O1732 O 0.67347 1.13484 0.47229
 C1733 C 0.66342 1.11187 0.46270
 C1734 C 0.67823 1.09673 0.43964
 C1735 C 0.70489 1.10578 0.43027
 H1736 H 0.71525 1.12350 0.44041
 O1737 O 0.52735 0.89789 0.35876
 O1738 O 0.52749 0.86508 0.32564
 C1739 C 0.53703 0.88807 0.33571
 C1740 C 0.56004 0.90324 0.32089
 C1741 C 0.56966 0.89399 0.29434
 H1742 H 0.55975 0.87608 0.28407
 O1743 O 0.47232 1.10204 0.35888
 O1744 O 0.47219 1.13491 0.32583
 C1745 C 0.46267 1.11189 0.33583
 C1746 C 0.43973 1.09668 0.32095
 C1747 C 0.43026 1.10576 0.29429
 H1748 H 0.44023 1.12360 0.28396
 O1749 O 0.35922 1.02759 0.39741
 O1750 O 0.32620 1.02769 0.36450
 C1751 C 0.33624 1.03731 0.38749
 C1752 C 0.32145 1.06045 0.40255
 C1753 C 0.29502 1.07016 0.39312
 H1754 H 0.28481 1.06022 0.37517
 O1755 O 0.64034 0.97263 0.39734
 O1756 O 0.67342 0.97259 0.36450
 C1757 C 0.66337 0.96297 0.38748
 C1758 C 0.67818 0.93990 0.40260
 C1759 C 0.70470 0.93032 0.39332
 H1760 H 0.71497 0.94030 0.37544
 O1761 O 0.60185 0.85929 0.47198
 O1762 O 0.63475 0.82628 0.47198
 C1763 C 0.61175 0.83627 0.46235
 C1764 C 0.59667 0.82141 0.43930
 C1765 C 0.60592 0.79486 0.42975
 H1766 H 0.62379 0.78459 0.43976
 O1767 O 0.39776 1.14079 0.47228
 O1768 O 0.36493 1.17387 0.47224
 C1769 C 0.38791 1.16382 0.46264
 C1770 C 0.40300 1.17863 0.43957
 C1771 C 0.39371 1.20514 0.42998
 H1772 H 0.37584 1.21542 0.43998
 Cu1773 Cu 0.61771 1.00023 0.38129
 Cu1774 Cu 0.65732 1.00021 0.34176
 Cu1775 Cu 0.38182 0.99992 0.38141
 Cu1776 Cu 0.34228 1.00001 0.34180
 Cu1777 Cu 0.61785 1.11816 0.49996
 Cu1778 Cu 0.65740 1.15767 0.49989
 Cu1779 Cu 0.61782 0.88201 0.49953
 Cu1780 Cu 0.65743 0.84250 0.49958
 Cu1781 Cu 0.38164 1.11813 0.49979
 Cu1782 Cu 0.34213 1.15773 0.49977
 Cu1783 Cu 0.38191 0.88175 0.49936
 Cu1784 Cu 0.34225 0.84233 0.49944
 Cu1785 Cu 0.49981 1.11816 0.38151
 Cu1786 Cu 0.49970 1.15777 0.34199
 Cu1787 Cu 0.49979 0.88176 0.38137
 Cu1788 Cu 0.49993 0.84227 0.34171
 C1789 C 0.57342 0.92641 0.33383
 H1790 H 0.56638 0.93342 0.35446
 C1791 C 0.59236 0.90752 0.28109
 C1792 C 0.42629 1.07360 0.33396
 H1793 H 0.43320 1.06671 0.35468
 C1794 C 0.40765 1.09211 0.28100
 C1795 C 0.42609 1.16566 0.42606
 H1796 H 0.43313 1.14505 0.43309
 C1797 C 0.40712 1.21833 0.40716
 C1798 C 0.57356 0.83435 0.42580
 H1799 H 0.56654 0.85498 0.43279
 C1800 C 0.59243 0.78162 0.40699
 C1801 C 0.66524 0.92643 0.42573
 H1802 H 0.64462 0.93346 0.43276
 C1803 C 0.71794 0.90756 0.40680
 C1804 C 0.33431 1.07386 0.42576
 H1805 H 0.35486 1.06674 0.43292
 C1806 C 0.28180 1.09298 0.40651
 C1807 C 0.57352 1.07401 0.33372
 H1808 H 0.56640 1.06684 0.35426
 C1809 C 0.59267 1.09333 0.28122
 C1810 C 0.42607 0.92615 0.33377
 H1811 H 0.43315 0.93326 0.35436
 C1812 C 0.40706 0.90700 0.28116
 C1813 C 0.66518 1.07378 0.42600
 H1814 H 0.64446 1.06692 0.43286
 C1815 C 0.71817 1.09225 0.40755
 C1816 C 0.33428 0.92636 0.42583
 H1817 H 0.35498 0.93324 0.43275
 C1818 C 0.28139 0.90785 0.40719
 C1819 C 0.57340 1.16561 0.42612
 H1820 H 0.56645 1.14496 0.43310
 C1821 C 0.59211 1.21839 0.40735
 C1822 C 0.42606 0.83413 0.42554
 H1823 H 0.43317 0.85467 0.43268
 C1824 C 0.40695 0.78164 0.40632
 O1825 O 0.60194 0.52726 1.14110
 O1826 O 0.63480 0.52732 1.17417
 C1827 C 0.61182 0.53693 1.16413
 C1828 C 0.59673 0.56002 1.17895
 C1829 C 0.60603 0.56962 1.20548
 H1830 H 0.62392 0.55965 1.21575
 O1831 O 0.39775 0.47235 1.14124
 O1832 O 0.36486 0.47234 1.17427
 C1833 C 0.38783 0.46269 1.16425
 C1834 C 0.40284 0.43954 1.17905
 C1835 C 0.39339 0.42983 1.20548
 H1836 H 0.37547 0.43981 1.21570
 O1837 O 0.52728 0.64060 1.10248
 O1838 O 0.52738 0.67360 1.13540
 C1839 C 0.53694 0.66359 1.11237
 C1840 C 0.55999 0.67840 1.09724
 C1841 C 0.56955 0.70493 1.10649
 H1842 H 0.55956 0.71522 1.12436
 O1843 O 0.47236 0.35918 1.10239
 O1844 O 0.47228 0.32607 1.13519
 C1845 C 0.46272 0.33614 1.11218
 C1846 C 0.43972 0.32136 1.09693
 C1847 C 0.43020 0.29474 1.10598
 H1848 H 0.44017 0.28435 1.12382
 O1849 O 0.64038 0.60177 1.02784
 O1850 O 0.67345 0.63457 1.02787
 C1851 C 0.66342 0.61159 1.03746
 C1852 C 0.67830 0.59643 1.06046
 C1853 C 0.70493 0.60555 1.06985
 H1854 H 0.71522 0.62335 1.05977
 O1855 O 0.35909 0.39796 1.02776
 O1856 O 0.32604 0.36514 1.02780
 C1857 C 0.33609 0.38809 1.03744
 C1858 C 0.32128 0.40316 1.06056
 C1859 C 0.29475 0.39391 1.07013
 H1860 H 0.28447 0.37607 1.06010
 O1861 O 0.47223 0.60190 1.14121
 O1862 O 0.47227 0.63471 1.17433
 C1863 C 0.46263 0.61176 1.16427
 C1864 C 0.43955 0.59672 1.17910
 C1865 C 0.42991 0.60612 1.20558
 H1866 H 0.43988 0.62401 1.21581
 O1867 O 0.52732 0.39784 1.14129
 O1868 O 0.52734 0.36497 1.17434
 C1869 C 0.53696 0.38795 1.16433
 C1870 C 0.56004 0.40303 1.17915
 C1871 C 0.56965 0.39378 1.20570
 H1872 H 0.55966 0.37595 1.21602
 O1873 O 0.64068 0.47209 1.10246
 O1874 O 0.67372 0.47208 1.13535
 C1875 C 0.66371 0.46245 1.11235
 C1876 C 0.67855 0.43939 1.09725
 C1877 C 0.70502 0.42971 1.10661
 H1878 H 0.71524 0.43962 1.12457
 O1879 O 0.35911 0.52749 1.10250
 O1880 O 0.32603 0.52756 1.13534
 C1881 C 0.33608 0.53716 1.11235
 C1882 C 0.32129 0.56023 1.09721
 C1883 C 0.29480 0.56991 1.10650
 H1884 H 0.28453 0.55999 1.12442
 O1885 O 0.39770 0.64088 1.02807
 O1886 O 0.36482 0.67390 1.02809
 C1887 C 0.38778 0.66387 1.03775
 C1888 C 0.40282 0.67864 1.06093
 C1889 C 0.39346 0.70508 1.07068
 H1890 H 0.37555 0.71536 1.06076
 O1891 O 0.60219 0.35906 1.02791
 O1892 O 0.63501 0.32597 1.02802
 C1893 C 0.61205 0.33606 1.03764
 C1894 C 0.59697 0.32134 1.06083
 C1895 C 0.60635 0.29492 1.07062
 H1896 H 0.62429 0.28466 1.06072
 O1897 O 0.39771 0.52747 1.14133
 O1898 O 0.36483 0.52755 1.17437
 C1899 C 0.38782 0.53714 1.16435
 C1900 C 0.40291 0.56023 1.17916
 C1901 C 0.39359 0.56998 1.20564
 H1902 H 0.37567 0.56011 1.21592
 O1903 O 0.60193 0.47215 1.14114
 O1904 O 0.63478 0.47214 1.17423
 C1905 C 0.61180 0.46254 1.16420
 C1906 C 0.59668 0.43952 1.17907
 C1907 C 0.60595 0.42995 1.20562
 H1908 H 0.62384 0.43990 1.21588
 O1909 O 0.52749 0.35919 1.10255
 O1910 O 0.52749 0.32611 1.13539
 C1911 C 0.53716 0.33618 1.11244
 C1912 C 0.56034 0.32140 1.09740
 C1913 C 0.57006 0.29498 1.10683
 H1914 H 0.56012 0.28476 1.12477
 O1915 O 0.47217 0.64070 1.10262
 O1916 O 0.47220 0.67370 1.13555
 C1917 C 0.46254 0.66371 1.11256
 C1918 C 0.43941 0.67855 1.09753
 C1919 C 0.42973 0.70499 1.10694
 H1920 H 0.43969 0.71520 1.12488
 O1921 O 0.35919 0.60204 1.02792
 O1922 O 0.32611 0.63487 1.02794
 C1923 C 0.33616 0.61189 1.03754
 C1924 C 0.32133 0.59679 1.06060
 C1925 C 0.29485 0.60612 1.07021
 H1926 H 0.28461 0.62403 1.06024
 O1927 O 0.64087 0.39770 1.02776
 O1928 O 0.67390 0.36482 1.02785
 C1929 C 0.66387 0.38781 1.03745
 C1930 C 0.67864 0.40289 1.06057
 C1931 C 0.70511 0.39355 1.07026
 H1932 H 0.71539 0.37567 1.06029
 O1933 O 0.47219 0.39772 1.14129
 O1934 O 0.47211 0.36482 1.17431
 C1935 C 0.46249 0.38780 1.16429
 C1936 C 0.43934 0.40287 1.17908
 C1937 C 0.42953 0.39348 1.20552
 H1938 H 0.43939 0.37552 1.21577
 O1939 O 0.52736 0.60189 1.14117
 O1940 O 0.52746 0.63469 1.17429
 C1941 C 0.53705 0.61172 1.16421
 C1942 C 0.56015 0.59660 1.17899
 C1943 C 0.56979 0.60587 1.20552
 H1944 H 0.55984 0.62375 1.21582
 O1945 O 0.35906 0.47239 1.10252
 O1946 O 0.32598 0.47238 1.13535
 C1947 C 0.33604 0.46276 1.11237
 C1948 C 0.32124 0.43969 1.09722
 C1949 C 0.29471 0.43010 1.10646
 H1950 H 0.28441 0.44006 1.12434
 O1951 O 0.64061 0.52718 1.10237
 O1952 O 0.67368 0.52725 1.13524
 C1953 C 0.66363 0.53683 1.11223
 C1954 C 0.67842 0.55985 1.09705
 C1955 C 0.70506 0.56931 1.10613
 H1956 H 0.71544 0.55927 1.12392
 O1957 O 0.39792 0.35940 1.02761
 O1958 O 0.36507 0.32638 1.02765
 C1959 C 0.38807 0.33639 1.03724
 C1960 C 0.40322 0.32151 1.06024
 C1961 C 0.39405 0.29490 1.06961
 H1962 H 0.37625 0.28463 1.05949
 O1963 O 0.60176 0.64054 1.02790
 O1964 O 0.63463 0.67353 1.02795
 C1965 C 0.61165 0.66353 1.03756
 C1966 C 0.59655 0.67836 1.06064
 C1967 C 0.60579 0.70490 1.07022
 H1968 H 0.62364 0.71517 1.06022
 Cu1969 Cu 0.61800 0.49966 1.11848
 Cu1970 Cu 0.65755 0.49970 1.15807
 Cu1971 Cu 0.38170 0.49993 1.11861
 Cu1972 Cu 0.34211 0.49996 1.15815
 Cu1973 Cu 0.49975 0.61799 1.11857
 Cu1974 Cu 0.49984 0.65748 1.15821
 Cu1975 Cu 0.49983 0.38178 1.11860
 Cu1976 Cu 0.49980 0.34218 1.15811
 C1977 C 0.57359 0.57348 1.16601
 H1978 H 0.56653 0.56645 1.14539
 C1979 C 0.59258 0.59240 1.21872
 C1980 C 0.42601 0.42609 1.16617
 H1981 H 0.43317 0.43321 1.14561
 C1982 C 0.40670 0.40696 1.21868
 C1983 C 0.57346 0.66542 1.07413
 H1984 H 0.56645 0.64480 1.06712
 C1985 C 0.59229 0.71814 1.09298
 C1986 C 0.42625 0.33444 1.07386
 H1987 H 0.43319 0.35513 1.06699
 C1988 C 0.40752 0.28156 1.09231
 C1989 C 0.66535 0.57338 1.07402
 H1990 H 0.64465 0.56647 1.06714
 C1991 C 0.71827 0.59200 1.09252
 C1992 C 0.33422 0.42625 1.07408
 H1993 H 0.35484 0.43327 1.06707
 C1994 C 0.28150 0.40736 1.09292
 C1995 C 0.42608 0.57359 1.16620
 H1996 H 0.43316 0.56646 1.14561
 C1997 C 0.40708 0.59278 1.21881
 C1998 C 0.57353 0.42609 1.16614
 H1999 H 0.56650 0.43310 1.14550
 C2000 C 0.59245 0.40724 1.21889
 C2001 C 0.66568 0.42600 1.07403
 H2002 H 0.64510 0.43308 1.06693
 C2003 C 0.71826 0.40694 1.09313
 C2004 C 0.33425 0.57364 1.07406
 H2005 H 0.35485 0.56657 1.06702
 C2006 C 0.28163 0.59270 1.09301
 C2007 C 0.42598 0.66569 1.07433
 H2008 H 0.43308 0.64513 1.06719
 C2009 C 0.40691 0.71822 1.09355
 C2010 C 0.57377 0.33428 1.07420
 H2011 H 0.56665 0.35482 1.06704
 C2012 C 0.59292 0.28178 1.09347
 O2013 O 0.60198 0.47205 0.85941
 O2014 O 0.63479 0.47211 0.82629
 C2015 C 0.61185 0.46244 0.83635
 C2016 C 0.59680 0.43935 0.82153
 C2017 C 0.60611 0.42972 0.79500
 H2018 H 0.62397 0.43971 0.78472
 O2019 O 0.39793 0.52749 0.85934
 O2020 O 0.36511 0.52751 0.82622
 C2021 C 0.38808 0.53710 0.83627
 C2022 C 0.40319 0.56011 0.82142
 C2023 C 0.39398 0.56960 0.79482
 H2024 H 0.37617 0.55956 0.78451
 O2025 O 0.47217 0.64071 0.89815
 O2026 O 0.47215 0.67373 0.86525
 C2027 C 0.46254 0.66373 0.88826
 C2028 C 0.43950 0.67857 0.90340
 C2029 C 0.42985 0.70508 0.89413
 H2030 H 0.43975 0.71534 0.87620
 O2031 O 0.52753 0.35894 0.89829
 O2032 O 0.52754 0.32593 0.86539
 C2033 C 0.53716 0.33593 0.88840
 C2034 C 0.56024 0.32110 0.90348
 C2035 C 0.56993 0.29466 0.89409
 H2036 H 0.55999 0.28443 0.87614
 O2037 O 0.64093 0.39748 0.97257
 O2038 O 0.67395 0.36459 0.97257
 C2039 C 0.66392 0.38755 0.96288
 C2040 C 0.67866 0.40256 0.93967
 C2041 C 0.70504 0.39312 0.92977
 H2042 H 0.71529 0.37515 0.93962
 O2043 O 0.35920 0.60219 0.97274
 O2044 O 0.32612 0.63502 0.97270
 C2045 C 0.33619 0.61207 0.96305
 C2046 C 0.32144 0.59701 0.93988
 C2047 C 0.29495 0.60633 0.93021
 H2048 H 0.28466 0.62420 0.94020
 O2049 O 0.52731 0.60191 0.85959
 O2050 O 0.52740 0.63472 0.82649
 C2051 C 0.53698 0.61174 0.83656
 C2052 C 0.56002 0.59657 0.82174
 C2053 C 0.56954 0.60575 0.79514
 H2054 H 0.55955 0.62360 0.78484
 O2055 O 0.47250 0.39780 0.85961
 O2056 O 0.47244 0.36497 0.82652
 C2057 C 0.46285 0.38796 0.83657
 C2058 C 0.43981 0.40308 0.82173
 C2059 C 0.43031 0.39382 0.79516
 H2060 H 0.44035 0.37596 0.78490
 O2061 O 0.64060 0.52711 0.89822
 O2062 O 0.67361 0.52724 0.86531
 C2063 C 0.66358 0.53680 0.88834
 C2064 C 0.67836 0.55987 0.90348
 C2065 C 0.70493 0.56940 0.89432
 H2066 H 0.71528 0.55937 0.87650
 O2067 O 0.35914 0.47257 0.89811
 O2068 O 0.32611 0.47255 0.86519
 C2069 C 0.33611 0.46298 0.88822
 C2070 C 0.32124 0.44000 0.90337
 C2071 C 0.29467 0.43054 0.89415
 H2072 H 0.28438 0.44056 0.87629
 O2073 O 0.60172 0.64056 0.97275
 O2074 O 0.63458 0.67357 0.97273
 C2075 C 0.61159 0.66358 0.96312
 C2076 C 0.59647 0.67845 0.94009
 C2077 C 0.60564 0.70504 0.93063
 H2078 H 0.62346 0.71532 0.94069
 O2079 O 0.39765 0.35925 0.97245
 O2080 O 0.36478 0.32626 0.97244
 C2081 C 0.38775 0.33625 0.96280
 C2082 C 0.40283 0.32139 0.93971
 C2083 C 0.39350 0.29491 0.93005
 H2084 H 0.37556 0.28471 0.93997
 O2085 O 0.39790 0.47239 0.85945
 O2086 O 0.36508 0.47234 0.82634
 C2087 C 0.38805 0.46272 0.83642
 C2088 C 0.40318 0.43962 0.82164
 C2089 C 0.39399 0.42999 0.79506
 H2090 H 0.37613 0.43994 0.78472
 O2091 O 0.60186 0.52716 0.85954
 O2092 O 0.63467 0.52728 0.82643
 C2093 C 0.61169 0.53686 0.83651
 C2094 C 0.59655 0.55993 0.82171
 C2095 C 0.60573 0.56945 0.79511
 H2096 H 0.62355 0.55942 0.78478
 O2097 O 0.47240 0.35894 0.89813
 O2098 O 0.47235 0.32592 0.86523
 C2099 C 0.46271 0.33596 0.88821
 C2100 C 0.43954 0.32123 0.90324
 C2101 C 0.42987 0.29476 0.89391
 H2102 H 0.43988 0.28445 0.87605
 O2103 O 0.52725 0.64071 0.89818
 O2104 O 0.52733 0.67374 0.86529
 C2105 C 0.53690 0.66372 0.88831
 C2106 C 0.55992 0.67852 0.90347
 C2107 C 0.56941 0.70511 0.89434
 H2108 H 0.55940 0.71545 0.87650
 O2109 O 0.35908 0.39810 0.97259
 O2110 O 0.32601 0.36529 0.97257
 C2111 C 0.33604 0.38827 0.96297
 C2112 C 0.32120 0.40343 0.93995
 C2113 C 0.29462 0.39428 0.93041
 H2114 H 0.28431 0.37645 0.94040
 O2115 O 0.64036 0.60181 0.97270
 O2116 O 0.67342 0.63461 0.97267
 C2117 C 0.66338 0.61164 0.96306
 C2118 C 0.67824 0.59650 0.94003
 C2119 C 0.70481 0.60568 0.93054
 H2120 H 0.71508 0.62354 0.94055
 O2121 O 0.52760 0.39752 0.85945
 O2122 O 0.52761 0.36469 0.82635
 C2123 C 0.53724 0.38765 0.83640
 C2124 C 0.56030 0.40273 0.82156
 C2125 C 0.56995 0.39343 0.79503
 H2126 H 0.56002 0.37553 0.78476
 O2127 O 0.47223 0.60206 0.85939
 O2128 O 0.47223 0.63487 0.82628
 C2129 C 0.46263 0.61190 0.83631
 C2130 C 0.43965 0.59675 0.82144
 C2131 C 0.43010 0.60592 0.79484
 H2132 H 0.44005 0.62379 0.78454
 O2133 O 0.35927 0.52766 0.89806
 O2134 O 0.32625 0.52772 0.86515
 C2135 C 0.33628 0.53735 0.88815
 C2136 C 0.32148 0.56047 0.90323
 C2137 C 0.29499 0.57014 0.89390
 H2138 H 0.28474 0.56019 0.87598
 O2139 O 0.64071 0.47198 0.89809
 O2140 O 0.67370 0.47205 0.86516
 C2141 C 0.66371 0.46236 0.88814
 C2142 C 0.67854 0.43920 0.90312
 C2143 C 0.70491 0.42944 0.89357
 H2144 H 0.71507 0.43938 0.87560
 O2145 O 0.60213 0.35893 0.97274
 O2146 O 0.63495 0.32584 0.97275
 C2147 C 0.61197 0.33588 0.96312
 C2148 C 0.59686 0.32107 0.94005
 C2149 C 0.60621 0.29463 0.93032
 H2150 H 0.62416 0.28438 0.94022
 O2151 O 0.39790 0.64081 0.97289
 O2152 O 0.36501 0.67384 0.97284
 C2153 C 0.38800 0.66382 0.96323
 C2154 C 0.40306 0.67862 0.94013
 C2155 C 0.39375 0.70512 0.93055
 H2156 H 0.37591 0.71540 0.94058
 Cu2157 Cu 0.61800 0.49957 0.88211
 Cu2158 Cu 0.65750 0.49969 0.84248
 Cu2159 Cu 0.38185 0.50002 0.88204
 Cu2160 Cu 0.34233 0.50003 0.84240
 Cu2161 Cu 0.61775 0.61789 1.00030
 Cu2162 Cu 0.65733 0.65738 1.00030
 Cu2163 Cu 0.61825 0.38159 1.00023
 Cu2164 Cu 0.65776 0.34199 1.00031
 Cu2165 Cu 0.38180 0.61820 1.00041
 Cu2166 Cu 0.34220 0.65771 1.00039
 Cu2167 Cu 0.38172 0.38197 1.00009
 Cu2168 Cu 0.34216 0.34246 1.00012
 Cu2169 Cu 0.49973 0.61806 0.88213
 Cu2170 Cu 0.49978 0.65758 0.84250
 Cu2171 Cu 0.50002 0.38158 0.88217
 Cu2172 Cu 0.49998 0.34206 0.84256
 C2173 C 0.57371 0.42588 0.83449
 H2174 H 0.56665 0.43293 0.85510
 C2175 C 0.59270 0.40691 0.78180
 C2176 C 0.42622 0.57365 0.83442
 H2177 H 0.43319 0.56669 0.85510
 C2178 C 0.40742 0.59235 0.78158
 C2179 C 0.42613 0.66565 0.92660
 H2180 H 0.43318 0.64504 0.93363
 C2181 C 0.40712 0.71831 0.90770
 C2182 C 0.57367 0.33400 0.92666
 H2183 H 0.56658 0.35456 0.93377
 C2184 C 0.59277 0.28147 0.90749
 C2185 C 0.66574 0.42579 0.92635
 H2186 H 0.64524 0.43295 0.93359
 C2187 C 0.71812 0.40655 0.90687
 C2188 C 0.33439 0.57389 0.92641
 H2189 H 0.35498 0.56682 0.93349
 C2190 C 0.28177 0.59291 0.90737
 C2191 C 0.57350 0.57347 0.83472
 H2192 H 0.56654 0.56650 0.85540
 C2193 C 0.59224 0.59220 0.78187
 C2194 C 0.42629 0.42618 0.83466
 H2195 H 0.43326 0.43320 0.85532
 C2196 C 0.40756 0.40724 0.78187
 C2197 C 0.66532 0.57339 0.92653
 H2198 H 0.64466 0.56643 0.93348
 C2199 C 0.71812 0.59215 0.90784
 C2200 C 0.33419 0.42649 0.92646
 H2201 H 0.35486 0.43342 0.93344
 C2202 C 0.28140 0.40783 0.90766
 C2203 C 0.57341 0.66550 0.92655
 H2204 H 0.56646 0.64483 0.93348
 C2205 C 0.59212 0.71833 0.90791
 C2206 C 0.42604 0.33423 0.92633
 H2207 H 0.43313 0.35480 0.93340
 C2208 C 0.40700 0.28164 0.90730
 C2209 C 1.11278 1.11207 1.26734
 C2210 C 1.10379 1.10334 1.24514
 C2211 C 1.11210 0.61110 0.76742
 C2212 C 1.10327 0.60243 0.74515
 C2213 C 0.61296 1.11232 0.76706
 C2214 C 0.60387 1.10350 0.74492
 C2215 C 0.61166 0.61139 1.26774
 C2216 C 0.60284 0.60261 1.24549
 C2217 C 0.88818 0.88815 1.26743
 C2218 C 0.89701 0.89699 1.24522
 C2219 C 0.88708 0.38774 0.76735
 C2220 C 0.89620 0.39657 0.74524
 C2221 C 0.38781 0.88867 0.76712
 C2222 C 0.39670 0.89735 0.74487
 C2223 C 0.38720 0.38793 1.26752
 C2224 C 0.39622 0.39669 1.24535
 C2225 C 0.88815 1.11173 0.73234
 C2226 C 0.89696 1.10295 0.75460
 C2227 C 0.88970 0.61034 0.23193
 C2228 C 0.89833 0.60169 0.25428
 C2229 C 0.38873 1.11062 0.23178
 C2230 C 0.39751 1.10207 0.25411
 C2231 C 0.38840 0.61106 0.73245
 C2232 C 0.39721 0.60243 0.75475
 C2233 C 1.11081 0.88936 0.73222
 C2234 C 1.10220 0.89796 0.75461
 C2235 C 1.11148 0.38925 0.23231
 C2236 C 1.10268 0.39780 0.25465
 C2237 C 0.61138 0.88852 0.23206
 C2238 C 0.60259 0.89731 0.25431
 C2239 C 0.61176 0.38796 0.73274
 C2240 C 0.60295 0.39670 0.75501
 C2241 C 1.26765 1.11173 1.11137
 C2242 C 1.24532 1.10301 1.10275
 C2243 C 1.26767 0.61167 0.61162
 C2244 C 1.24541 0.60288 0.60289
 C2245 C 0.76709 1.11145 0.61180
 C2246 C 0.74485 1.10275 0.60295
 C2247 C 0.76755 0.61076 1.11095
 C2248 C 0.74518 0.60207 1.10245
 C2249 C 1.26710 0.88806 0.88804
 C2250 C 1.24488 0.89688 0.89686
 C2251 C 1.26705 0.38769 0.38735
 C2252 C 1.24487 0.39645 0.39635
 C2253 C 0.76695 0.88864 0.38774
 C2254 C 0.74471 0.89738 0.39655
 C2255 C 0.76688 0.38744 0.88722
 C2256 C 0.74474 0.39624 0.89631
 C2257 C 0.73260 0.88891 1.11184
 C2258 C 0.75485 0.89764 1.10309
 C2259 C 0.73272 0.38872 0.61205
 C2260 C 0.75496 0.39739 0.60319
 C2261 C 0.23242 0.88919 0.61053
 C2262 C 0.25477 0.89780 0.60190
 C2263 C 0.23239 0.38844 1.11171
 C2264 C 0.25469 0.39718 1.10305
 C2265 C 0.73300 1.11240 0.88713
 C2266 C 0.75514 1.10363 0.89622
 C2267 C 0.73297 0.61097 0.38798
 C2268 C 0.75524 0.60227 0.39676
 C2269 C 0.23291 1.11201 0.38716
 C2270 C 0.25510 1.10324 0.39610
 C2271 C 0.23276 0.61194 0.88835
 C2272 C 0.25501 0.60316 0.89713
 C2273 C 1.11153 1.26782 1.11083
 C2274 C 1.10268 1.24554 1.10229
 C2275 C 1.11085 0.76767 0.61073
 C2276 C 1.10225 0.74529 0.60217
 C2277 C 0.61113 1.26737 0.61178
 C2278 C 0.60244 1.24515 0.60290
 C2279 C 0.61115 0.76719 1.11191
 C2280 C 0.60244 0.74492 1.10316
 C2281 C 0.88781 1.26699 0.88795
 C2282 C 0.89675 1.24486 0.89684
 C2283 C 0.88853 0.76699 0.38787
 C2284 C 0.89726 0.74476 0.39672
 C2285 C 0.38794 1.26722 0.38811
 C2286 C 0.39682 1.24504 0.39692
 C2287 C 0.38790 0.76726 0.88882
 C2288 C 0.39681 0.74505 0.89753
 C2289 C 1.11189 0.73267 0.88896
 C2290 C 1.10300 0.75491 0.89762
 C2291 C 1.11202 0.23249 0.38826
 C2292 C 1.10314 0.25465 0.39712
 C2293 C 0.61131 0.73256 0.38805
 C2294 C 0.60260 0.75482 0.39682
 C2295 C 0.61204 0.23274 0.88810
 C2296 C 0.60313 0.25485 0.89707
 C2297 C 0.88911 0.73252 1.11095
 C2298 C 0.89777 0.75490 1.10243
 C2299 C 0.88879 0.23285 0.61200
 C2300 C 0.89753 0.25509 0.60322
 C2301 C 0.38822 0.73253 0.61081
 C2302 C 0.39705 0.75478 0.60215
 C2303 C 0.38851 0.23236 1.11067
 C2304 C 0.39733 0.25469 1.10221
 C2305 C 1.11234 1.11304 0.73297
 C2306 C 1.10351 1.10396 0.75510
 C2307 C 1.11231 0.61276 0.23281
 C2308 C 1.10358 0.60367 0.25497
 C2309 C 0.61182 1.11279 0.23242
 C2310 C 0.60298 1.10379 0.25457
 C2311 C 0.61103 0.61101 0.73270
 C2312 C 0.60235 0.60231 0.75502
 C2313 C 0.88887 0.88887 0.73263
 C2314 C 0.89756 0.89757 0.75495
 C2315 C 0.88821 0.38694 0.23260
 C2316 C 0.89705 0.39593 0.25476
 C2317 C 0.38815 0.88759 0.23224
 C2318 C 0.39686 0.89659 0.25445
 C2319 C 0.38895 0.38805 0.73277
 C2320 C 0.39752 0.39695 0.75506
 C2321 C 1.11147 0.88863 1.26782
 C2322 C 1.10282 0.89742 1.24551
 C2323 C 1.11178 0.38854 0.76780
 C2324 C 1.10311 0.39732 0.74549
 C2325 C 0.61062 0.88906 0.76754
 C2326 C 0.60195 0.89769 0.74519
 C2327 C 0.61148 0.38836 1.26798
 C2328 C 0.60268 0.39708 1.24570
 C2329 C 0.88978 1.11050 1.26825
 C2330 C 0.89840 1.10198 1.24585
 C2331 C 0.88927 0.61086 0.76788
 C2332 C 0.89797 0.60220 0.74555
 C2333 C 0.38885 1.11169 0.76748
 C2334 C 0.39744 1.10279 0.74520
 C2335 C 0.38814 0.61225 1.26770
 C2336 C 0.39687 0.60322 1.24551
 C2337 C 1.11102 1.26743 0.88830
 C2338 C 1.10238 1.24516 0.89709
 C2339 C 1.11109 0.76741 0.38827
 C2340 C 1.10253 0.74510 0.39707
 C2341 C 0.61091 1.26746 0.38846
 C2342 C 0.60222 1.24519 0.39720
 C2343 C 0.61088 0.76750 0.88923
 C2344 C 0.60221 0.74518 0.89787
 C2345 C 0.88789 1.26698 1.11273
 C2346 C 0.89672 1.24482 1.10376
 C2347 C 0.88885 0.76710 0.61108
 C2348 C 0.89755 0.74478 0.60242
 C2349 C 0.38823 1.26720 0.61184
 C2350 C 0.39692 1.24492 0.60304
 C2351 C 0.38791 0.76716 1.11280
 C2352 C 0.39667 0.74494 1.10391
 C2353 C 0.88887 0.73266 0.88926
 C2354 C 0.89757 0.75498 0.89787
 C2355 C 0.88938 0.23218 0.38963
 C2356 C 0.89802 0.25456 0.39814
 C2357 C 0.38791 0.73273 0.38707
 C2358 C 0.39669 0.75494 0.39595
 C2359 C 0.38802 0.23263 0.88825
 C2360 C 0.39677 0.25489 0.89705
 C2361 C 1.11244 0.73310 1.11310
 C2362 C 1.10365 0.75526 1.10409
 C2363 C 1.11232 0.23319 0.61311
 C2364 C 1.10351 0.25534 0.60408
 C2365 C 0.61106 0.73264 0.61096
 C2366 C 0.60238 0.75494 0.60225
 C2367 C 0.61208 0.23294 1.11281
 C2368 C 0.60323 0.25511 1.10388
 C2369 C 1.26754 1.11169 0.88909
 C2370 C 1.24529 1.10282 0.89768
 C2371 C 1.26747 0.61184 0.38824
 C2372 C 1.24531 0.60293 0.39705
 C2373 C 0.76754 1.11080 0.38919
 C2374 C 0.74512 1.10221 0.39766
 C2375 C 0.76728 0.61099 0.88917
 C2376 C 0.74496 0.60227 0.89779
 C2377 C 1.26748 0.88822 1.11171
 C2378 C 1.24529 0.89713 1.10294
 C2379 C 1.26786 0.38826 0.61084
 C2380 C 1.24560 0.39711 0.60220
 C2381 C 0.76723 0.88880 0.61091
 C2382 C 0.74492 0.89750 0.60222
 C2383 C 0.76711 0.38769 1.11228
 C2384 C 0.74494 0.39661 1.10344
 C2385 C 0.73298 1.11231 1.11220
 C2386 C 0.75515 1.10340 1.10337
 C2387 C 0.73267 0.61100 0.61102
 C2388 C 0.75499 0.60232 0.60235
 C2389 C 0.23280 1.11230 0.61201
 C2390 C 0.25491 1.10337 0.60304
 C2391 C 0.23280 0.61202 1.11210
 C2392 C 0.25495 0.60307 1.10328
 C2393 C 0.73240 0.88918 0.88909
 C2394 C 0.75471 0.89788 0.89772
 C2395 C 0.73276 0.38862 0.38832
 C2396 C 0.75505 0.39724 0.39711
 C2397 C 0.23222 0.88921 0.38840
 C2398 C 0.25453 0.89784 0.39710
 C2399 C 0.23233 0.38910 0.88868
 C2400 C 0.25460 0.39776 0.89747
   
