data_POSCAR
  _audit_creation_date              2014-09-24
  _audit_creation_method            'ToBaCCo'
  _symmetry_space_group_name_H-M    'P1'
  _symmetry_Int_Tables_number       1
  _symmetry_cell_setting            triclinic
  loop_
  _symmetry_equiv_pos_as_xyz
 x,y,z
_cell_length_a 54.0022
_cell_length_b 55.5265
_cell_length_c 47.7981
_cell_angle_alpha 91.557200
_cell_angle_beta 89.382300
_cell_angle_gamma 89.621200
loop_
  _atom_site_label
  _atom_site_type_symbol
  _atom_site_fract_x
  _atom_site_fract_y
  _atom_site_fract_z
N1 N 0.36628 0.32284 0.32503
 N2 N 0.36601 0.34182 0.30909
 C3 C 0.38811 0.34345 0.29593
 C4 C 0.40284 0.32432 0.30370
 C5 C 0.38840 0.31154 0.32215
 H6 H 0.39308 0.35740 0.28158
 H7 H 0.39380 0.29563 0.33322
 Cu8 Cu 0.33667 0.36264 0.30687
 Cu9 Cu 0.33831 0.31570 0.34988
 Cu10 Cu 0.28307 0.33644 0.32361
 N11 N 0.30486 0.37892 0.30104
 N12 N 0.28404 0.36811 0.30744
 C13 C 0.26481 0.38253 0.30168
 C14 C 0.27387 0.40370 0.29130
 C15 C 0.29945 0.40086 0.29099
 H16 H 0.24558 0.37811 0.30536
 H17 H 0.31300 0.41385 0.28439
 N18 N 0.28486 0.31150 0.35197
 N19 N 0.30575 0.30465 0.36354
 C20 C 0.30036 0.29068 0.38545
 C21 C 0.27484 0.28871 0.38753
 C22 C 0.26568 0.30195 0.36590
 H23 H 0.31390 0.28322 0.39936
 H24 H 0.24640 0.30578 0.36186
 H25 H 0.31898 0.32313 0.31603
 H26 H 0.31414 0.34521 0.34581
 N27 N 0.36759 0.78934 -0.21833
 N28 N 0.36678 0.80656 -0.23661
 C29 C 0.38474 0.80293 -0.25596
 C30 C 0.39786 0.78265 -0.24899
 C31 C 0.38640 0.77424 -0.22518
 H32 H 0.38915 0.81510 -0.27256
 H33 H 0.39211 0.75912 -0.21292
 Cu34 Cu 0.34552 0.83415 -0.23068
 Cu35 Cu 0.34579 0.78931 -0.18568
 Cu36 Cu 0.30513 0.83799 -0.17712
 N37 N 0.31873 0.85709 -0.23023
 N38 N 0.30325 0.85960 -0.20891
 C39 C 0.28895 0.87925 -0.21278
 C40 C 0.29612 0.88925 -0.23791
 C41 C 0.31470 0.87453 -0.24850
 H42 H 0.27521 0.88624 -0.19799
 H43 H 0.32547 0.87717 -0.26737
 N44 N 0.30625 0.81079 -0.15093
 N45 N 0.32219 0.79272 -0.15419
 C46 C 0.31962 0.77775 -0.13278
 C47 C 0.30108 0.78650 -0.11529
 C48 C 0.29280 0.80744 -0.12736
 H49 H 0.33041 0.76153 -0.13000
 H50 H 0.27840 0.81945 -0.11933
 H51 H 0.31773 0.81027 -0.20269
 H52 H 0.34125 0.82586 -0.18070
 N53 N 0.87009 0.32113 -0.19465
 N54 N 0.86864 0.33391 -0.21732
 C55 C 0.88748 0.32822 -0.23476
 C56 C 0.90173 0.31096 -0.22253
 C57 C 0.89028 0.30666 -0.19701
 H58 H 0.89117 0.33681 -0.25439
 H59 H 0.89643 0.29445 -0.18123
 Cu60 Cu 0.84451 0.35888 -0.22125
 Cu61 Cu 0.84532 0.32504 -0.16436
 Cu62 Cu 0.79986 0.36917 -0.17429
 N63 N 0.82821 0.38967 -0.21831
 N64 N 0.80926 0.39336 -0.20127
 C65 C 0.79868 0.41469 -0.20697
 C66 C 0.81229 0.42489 -0.22834
 C67 C 0.83107 0.40870 -0.23470
 H68 H 0.78205 0.42184 -0.19691
 H69 H 0.84457 0.40977 -0.25151
 N70 N 0.80030 0.34817 -0.14167
 N71 N 0.81780 0.33197 -0.13729
 C72 C 0.81210 0.32026 -0.11372
 C73 C 0.79004 0.32957 -0.10297
 C74 C 0.78314 0.34720 -0.12114
 H75 H 0.82244 0.30520 -0.10581
 H76 H 0.76635 0.35793 -0.11999
 H77 H 0.81748 0.33739 -0.18876
 H78 H 0.83671 0.36091 -0.17128
 N79 N 0.85406 0.81687 0.30373
 N80 N 0.85130 0.83241 0.28350
 C81 C 0.87215 0.83261 0.26781
 C82 C 0.88867 0.81616 0.27837
 C83 C 0.87663 0.80645 0.30109
 H84 H 0.87491 0.84350 0.24962
 H85 H 0.88356 0.79246 0.31429
 Cu86 Cu 0.82012 0.85019 0.27736
 Cu87 Cu 0.82748 0.81016 0.33141
 Cu88 Cu 0.77164 0.83158 0.31456
 N89 N 0.79040 0.87037 0.28260
 N90 N 0.77137 0.86251 0.29700
 C91 C 0.75381 0.87969 0.29887
 C92 C 0.76217 0.89951 0.28491
 C93 C 0.78542 0.89299 0.27446
 H94 H 0.73660 0.87816 0.31047
 H95 H 0.79809 0.90407 0.26284
 N96 N 0.77538 0.80804 0.34313
 N97 N 0.79728 0.80077 0.35138
 C98 C 0.79436 0.78807 0.37489
 C99 C 0.76925 0.78741 0.38128
 C100 C 0.75784 0.80003 0.36057
 H101 H 0.80933 0.78072 0.38693
 H102 H 0.73839 0.80464 0.35951
 H103 H 0.81028 0.81651 0.29401
 H104 H 0.81467 0.84327 0.31803
 N105 N 0.63435 0.69832 0.29792
 N106 N 0.64311 0.68722 0.27520
 C107 C 0.63104 0.69543 0.25278
 C108 C 0.61363 0.71231 0.26217
 C109 C 0.61612 0.71355 0.29088
 H110 H 0.63415 0.68913 0.23141
 H111 H 0.60560 0.72481 0.30558
 Cu112 Cu 0.66817 0.66186 0.27770
 Cu113 Cu 0.64724 0.69241 0.33503
 Cu114 Cu 0.70332 0.66252 0.33489
 N115 N 0.68861 0.63398 0.28690
 N116 N 0.70202 0.63442 0.30973
 C117 C 0.71224 0.61261 0.31314
 C118 C 0.70513 0.59773 0.29122
 C119 C 0.69024 0.61180 0.27469
 H120 H 0.72334 0.60770 0.33085
 H121 H 0.68014 0.60595 0.25633
 N122 N 0.69241 0.68366 0.36594
 N123 N 0.67006 0.69343 0.36707
 C124 C 0.66720 0.70541 0.39176
 C125 C 0.68892 0.70321 0.40654
 C126 C 0.70457 0.68942 0.38957
 H127 H 0.65091 0.71571 0.39808
 H128 H 0.72323 0.68366 0.39420
 H129 H 0.68057 0.68883 0.31614
 H130 H 0.66648 0.66047 0.32879
 N131 N 0.65542 0.21750 -0.21322
 N132 N 0.64543 0.19777 -0.22379
 C133 C 0.62177 0.20242 -0.23060
 C134 C 0.61683 0.22639 -0.22392
 C135 C 0.63862 0.23547 -0.21327
 H136 H 0.60882 0.18911 -0.23835
 H137 H 0.64151 0.25335 -0.20441
 Cu138 Cu 0.66358 0.16741 -0.22447
 Cu139 Cu 0.68787 0.21717 -0.19566
 Cu140 Cu 0.70230 0.16099 -0.17101
 N141 N 0.68587 0.13986 -0.22305
 N142 N 0.69986 0.13667 -0.20107
 C143 C 0.71269 0.11597 -0.20457
 C144 C 0.70671 0.10590 -0.23036
 C145 C 0.68962 0.12148 -0.24160
 H146 H 0.72590 0.10921 -0.18979
 H147 H 0.68047 0.11952 -0.26155
 N148 N 0.71448 0.19102 -0.15364
 N149 N 0.71142 0.21210 -0.16532
 C150 C 0.72384 0.22893 -0.15055
 C151 C 0.73469 0.21792 -0.12822
 C152 C 0.72833 0.19393 -0.13057
 H153 H 0.72370 0.24798 -0.15472
 H154 H 0.73369 0.17966 -0.11687
 H155 H 0.70183 0.18265 -0.20407
 H156 H 0.67477 0.18649 -0.17978
 N157 N 0.13120 0.69361 -0.22631
 N158 N 0.13181 0.67348 -0.24142
 C159 C 0.11050 0.67121 -0.25556
 C160 C 0.09575 0.69092 -0.24864
 C161 C 0.10942 0.70483 -0.23013
 H162 H 0.10591 0.65619 -0.26939
 H163 H 0.10399 0.72183 -0.22021
 Cu164 Cu 0.16018 0.65199 -0.24056
 Cu165 Cu 0.15893 0.70332 -0.20304
 Cu166 Cu 0.19126 0.65363 -0.17986
 N167 N 0.18450 0.62772 -0.23200
 N168 N 0.19611 0.62764 -0.20794
 C169 C 0.21068 0.60783 -0.20729
 C170 C 0.20816 0.59525 -0.23252
 C171 C 0.19153 0.60840 -0.24764
 H172 H 0.22242 0.60316 -0.19004
 H173 H 0.18480 0.60402 -0.26838
 N174 N 0.19166 0.68565 -0.16038
 N175 N 0.18052 0.70474 -0.17048
 C176 C 0.18542 0.72415 -0.15417
 C177 C 0.20014 0.71698 -0.13253
 C178 C 0.20378 0.69246 -0.13694
 H179 H 0.17835 0.74211 -0.15750
 H180 H 0.21482 0.68062 -0.12441
 H181 H 0.18699 0.67707 -0.21135
 H182 H 0.15794 0.66835 -0.19274
 N183 N 0.13369 0.18427 0.29352
 N184 N 0.14091 0.16922 0.27328
 C185 C 0.12526 0.17123 0.25163
 C186 C 0.10743 0.18843 0.25884
 C187 C 0.11335 0.19630 0.28553
 H188 H 0.12641 0.16072 0.23228
 H189 H 0.10343 0.20963 0.29828
 Cu190 Cu 0.16970 0.14799 0.27763
 Cu191 Cu 0.15115 0.18749 0.32869
 Cu192 Cu 0.20159 0.15003 0.33793
 N193 N 0.19713 0.12563 0.28442
 N194 N 0.20908 0.12644 0.30826
 C195 C 0.22707 0.10957 0.30765
 C196 C 0.22657 0.09755 0.28204
 C197 C 0.20739 0.10819 0.26770
 H198 H 0.24013 0.10676 0.32424
 H199 H 0.20175 0.10384 0.24653
 N200 N 0.19118 0.17491 0.36573
 N201 N 0.17118 0.18835 0.36278
 C202 C 0.16840 0.20298 0.38553
 C203 C 0.18778 0.19879 0.40331
 C204 C 0.20195 0.18099 0.39020
 H205 H 0.15382 0.21626 0.38864
 H206 H 0.21876 0.17304 0.39801
 H207 H 0.18534 0.17587 0.31352
 H208 H 0.16449 0.15245 0.32819
 N209 N 0.60863 0.32267 0.68829
 N210 N 0.61263 0.33927 0.70786
 C211 C 0.59365 0.33943 0.72639
 C212 C 0.57711 0.32185 0.71796
 C213 C 0.58711 0.31165 0.69370
 H214 H 0.59274 0.35040 0.74543
 H215 H 0.57993 0.29654 0.68162
 Cu216 Cu 0.64354 0.35708 0.70874
 Cu217 Cu 0.63285 0.31482 0.65897
 Cu218 Cu 0.69214 0.32647 0.68130
 N219 N 0.67676 0.37047 0.70941
 N220 N 0.69584 0.35764 0.70011
 C221 C 0.71648 0.37084 0.70239
 C222 C 0.70996 0.39333 0.71303
 C223 C 0.68460 0.39257 0.71744
 H224 H 0.73461 0.36508 0.69488
 H225 H 0.67268 0.40719 0.72478
 N226 N 0.68475 0.30351 0.65054
 N227 N 0.66218 0.30009 0.64099
 C228 C 0.66344 0.28660 0.61722
 C229 C 0.68806 0.28157 0.61145
 C230 C 0.70108 0.29238 0.63302
 H231 H 0.64775 0.28193 0.60433
 H232 H 0.72099 0.29362 0.63474
 H233 H 0.65590 0.31679 0.69149
 H234 H 0.66090 0.34051 0.66508
 N235 N 0.64284 0.81597 1.16480
 N236 N 0.64179 0.82896 1.18822
 C237 C 0.61935 0.82611 1.20035
 C238 C 0.60568 0.81098 1.18305
 C239 C 0.62103 0.80507 1.16070
 H240 H 0.61311 0.83515 1.21950
 H241 H 0.61675 0.79344 1.14290
 Cu242 Cu 0.66896 0.85035 1.19823
 Cu243 Cu 0.67228 0.81363 1.14126
 Cu244 Cu 0.72466 0.84006 1.16823
 N245 N 0.69407 0.87548 1.19703
 N246 N 0.71565 0.87150 1.18463
 C247 C 0.72859 0.89211 1.18459
 C248 C 0.71443 0.90989 1.19778
 C249 C 0.69272 0.89875 1.20572
 H250 H 0.74686 0.89403 1.17544
 H251 H 0.67682 0.90710 1.21609
 N252 N 0.72625 0.81428 1.13945
 N253 N 0.70604 0.80522 1.12816
 C254 C 0.71257 0.78912 1.10790
 C255 C 0.73809 0.78800 1.10638
 C256 C 0.74628 0.80414 1.12673
 H257 H 0.69969 0.77893 1.09518
 H258 H 0.76527 0.80876 1.13126
 H259 H 0.69332 0.81788 1.17592
 H260 H 0.69039 0.84455 1.15319
 N261 N 0.11254 0.31386 1.17869
 N262 N 0.11074 0.33062 1.19858
 C263 C 0.09419 0.32366 1.21794
 C264 C 0.08518 0.30138 1.20964
 C265 C 0.09709 0.29570 1.18457
 H266 H 0.08894 0.33410 1.23653
 H267 H 0.09477 0.27961 1.17161
 Cu268 Cu 0.12970 0.36024 1.19684
 Cu269 Cu 0.13533 0.31707 1.14722
 Cu270 Cu 0.18484 0.35396 1.16467
 N271 N 0.15395 0.38590 1.19828
 N272 N 0.17592 0.38328 1.18638
 C273 C 0.18954 0.40302 1.19239
 C274 C 0.17509 0.41888 1.20854
 C275 C 0.15265 0.40744 1.21180
 H276 H 0.20847 0.40561 1.18554
 H277 H 0.13679 0.41408 1.22376
 N278 N 0.18652 0.32834 1.13492
 N279 N 0.16711 0.31558 1.12705
 C280 C 0.17399 0.29961 1.10668
 C281 C 0.19902 0.30219 1.10179
 C282 C 0.20641 0.32054 1.11994
 H283 H 0.16209 0.28592 1.09771
 H284 H 0.22505 0.32715 1.12262
 H285 H 0.15808 0.32976 1.17730
 H286 H 0.14949 0.35252 1.15106
 N287 N 0.12564 0.79197 0.70628
 N288 N 0.13069 0.80392 0.72959
 C289 C 0.11216 0.80110 0.74821
 C290 C 0.09456 0.78657 0.73580
 C291 C 0.10368 0.78097 0.70927
 H292 H 0.11121 0.80959 0.76883
 H293 H 0.09480 0.77011 0.69321
 Cu294 Cu 0.15957 0.82399 0.73234
 Cu295 Cu 0.14780 0.79203 0.67384
 Cu296 Cu 0.19933 0.82914 0.67858
 N297 N 0.18037 0.85191 0.72907
 N298 N 0.19586 0.85436 0.70793
 C299 C 0.20696 0.87599 0.71062
 C300 C 0.19754 0.88757 0.73454
 C301 C 0.18084 0.87177 0.74571
 H302 H 0.22042 0.88292 0.69602
 H303 H 0.16943 0.87471 0.76425
 N304 N 0.19303 0.80752 0.64579
 N305 N 0.17276 0.79440 0.64366
 C306 C 0.17288 0.78273 0.61865
 C307 C 0.19429 0.78846 0.60447
 C308 C 0.20677 0.80419 0.62221
 H309 H 0.15857 0.77068 0.61127
 H310 H 0.22419 0.81296 0.61798
 H311 H 0.18004 0.80002 0.69461
 H312 H 0.16202 0.82613 0.68179
 N313 N 0.37272 0.68061 0.68478
 N314 N 0.36990 0.66325 0.70271
 C315 C 0.38894 0.66341 0.72058
 C316 C 0.40460 0.68185 0.71363
 C317 C 0.39380 0.69253 0.69083
 H318 H 0.39126 0.65099 0.73741
 H319 H 0.40065 0.70785 0.67968
 Cu320 Cu 0.34220 0.64132 0.70153
 Cu321 Cu 0.34822 0.68652 0.65564
 Cu322 Cu 0.30530 0.64131 0.64583
 N323 N 0.32199 0.61376 0.69162
 N324 N 0.30877 0.61316 0.66870
 C325 C 0.29740 0.59171 0.66632
 C326 C 0.30365 0.57840 0.68920
 C327 C 0.31917 0.59290 0.70493
 H328 H 0.28480 0.58653 0.64982
 H329 H 0.32786 0.58857 0.72447
 N330 N 0.30458 0.67120 0.62500
 N331 N 0.32128 0.68835 0.62779
 C332 C 0.31486 0.70677 0.61133
 C333 C 0.29286 0.70087 0.59825
 C334 C 0.28691 0.67837 0.60746
 H335 H 0.32457 0.72370 0.61023
 H336 H 0.27047 0.66825 0.60227
 H337 H 0.31906 0.66876 0.67297
 H338 H 0.34269 0.65035 0.65245
 N339 N 0.36938 0.20745 1.19845
 N340 N 0.37630 0.19343 1.21873
 C341 C 0.39430 0.20457 1.23344
 C342 C 0.39844 0.22680 1.22179
 C343 C 0.38234 0.22802 1.19971
 H344 H 0.40379 0.19706 1.25104
 H345 H 0.38071 0.24244 1.18506
 Cu346 Cu 0.36138 0.16167 1.22252
 Cu347 Cu 0.34561 0.19721 1.17042
 Cu348 Cu 0.30508 0.15432 1.19451
 N349 N 0.34299 0.13182 1.22681
 N350 N 0.32127 0.12886 1.21501
 C351 C 0.31326 0.10637 1.21942
 C352 C 0.33090 0.09463 1.23479
 C353 C 0.34945 0.11129 1.23934
 H354 H 0.29602 0.09905 1.21178
 H355 H 0.36669 0.10836 1.25009
 N356 N 0.29705 0.17601 1.16392
 N357 N 0.31343 0.19092 1.15342
 C358 C 0.30374 0.20151 1.13107
 C359 C 0.28000 0.19309 1.12758
 C360 C 0.27619 0.17703 1.14876
 H361 H 0.31310 0.21469 1.11858
 H362 H 0.25988 0.16627 1.15221
 H363 H 0.32699 0.18444 1.20347
 H364 H 0.33903 0.16070 1.17837
 N365 N 0.86902 0.70064 1.20815
 N366 N 0.86044 0.69181 1.23155
 C367 C 0.87480 0.69915 1.25293
 C368 C 0.89334 0.71339 1.24234
 C369 C 0.88910 0.71409 1.21387
 H370 H 0.87258 0.69373 1.27436
 H371 H 0.90037 0.72282 1.19835
 Cu372 Cu 0.83314 0.66940 1.23165
 Cu373 Cu 0.85491 0.69185 1.17187
 Cu374 Cu 0.80062 0.65888 1.17346
 N375 N 0.81323 0.64068 1.22690
 N376 N 0.80087 0.63601 1.20386
 C377 C 0.78947 0.61458 1.20616
 C378 C 0.79506 0.60561 1.23211
 C379 C 0.81003 0.62265 1.24471
 H380 H 0.77787 0.60633 1.19032
 H381 H 0.81828 0.62182 1.26519
 N382 N 0.81154 0.67644 1.14035
 N383 N 0.83303 0.68763 1.13920
 C384 C 0.83596 0.69668 1.11353
 C385 C 0.81518 0.69127 1.09807
 C386 C 0.79998 0.67851 1.11567
 H387 H 0.85167 0.70715 1.10685
 H388 H 0.78211 0.67094 1.11071
 H389 H 0.82016 0.68924 1.18902
 H390 H 0.83686 0.66021 1.18162
 N391 N 0.87600 0.19847 0.71551
 N392 N 0.87220 0.18370 0.73636
 C393 C 0.88940 0.18787 0.75606
 C394 C 0.90470 0.20608 0.74726
 C395 C 0.89564 0.21249 0.72153
 H396 H 0.89137 0.17766 0.77488
 H397 H 0.90328 0.22577 0.70779
 Cu398 Cu 0.84732 0.15758 0.73544
 Cu399 Cu 0.85613 0.19750 0.68100
 Cu400 Cu 0.81916 0.14995 0.67421
 N401 N 0.82985 0.12775 0.72564
 N402 N 0.82031 0.12446 0.70066
 C403 C 0.81087 0.10222 0.69832
 C404 C 0.81408 0.09112 0.72341
 C405 C 0.82606 0.10775 0.74052
 H406 H 0.80184 0.09483 0.67995
 H407 H 0.83222 0.10525 0.76171
 N408 N 0.81220 0.17942 0.65525
 N409 N 0.82736 0.19784 0.65621
 C410 C 0.81903 0.21475 0.63875
 C411 C 0.79719 0.20643 0.62701
 C412 C 0.79343 0.18410 0.63804
 H413 H 0.82797 0.23177 0.63513
 H414 H 0.77854 0.17179 0.63315
 H415 H 0.83255 0.18152 0.70701
 H416 H 0.85859 0.16161 0.69459
 N417 N 0.31537 0.36098 0.71263
 N418 N 0.32421 0.35307 0.73623
 C419 C 0.32065 0.36998 0.75660
 C420 C 0.30912 0.38955 0.74496
 C421 C 0.30614 0.38332 0.71703
 H422 H 0.32612 0.36824 0.77816
 H423 H 0.29763 0.39405 0.70115
 Cu424 Cu 0.34014 0.32178 0.73756
 Cu425 Cu 0.31661 0.34162 0.67808
 Cu426 Cu 0.32761 0.28080 0.68714
 N427 N 0.36025 0.29291 0.73229
 N428 N 0.35458 0.27625 0.71339
 C429 C 0.37174 0.25860 0.71356
 C430 C 0.38931 0.26485 0.73319
 C431 C 0.38146 0.28668 0.74481
 H432 H 0.37229 0.24320 0.69920
 H433 H 0.39087 0.29761 0.76041
 N434 N 0.31140 0.29322 0.65385
 N435 N 0.30872 0.31651 0.64974
 C436 C 0.29891 0.31957 0.62436
 C437 C 0.29522 0.29716 0.61200
 C438 C 0.30324 0.28078 0.63123
 H439 H 0.29450 0.33682 0.61562
 H440 H 0.30371 0.26136 0.62871
 H441 H 0.30940 0.31278 0.70164
 H442 H 0.34150 0.31436 0.68705
 N443 N 0.29799 0.85719 0.19864
 N444 N 0.32038 0.86404 0.20576
 C445 C 0.31888 0.88635 0.21781
 C446 C 0.29417 0.89352 0.21813
 C447 C 0.28158 0.87449 0.20607
 H448 H 0.33453 0.89677 0.22505
 H449 H 0.26196 0.87372 0.20179
 Cu450 Cu 0.34886 0.84273 0.19742
 Cu451 Cu 0.29150 0.82763 0.17743
 Cu452 Cu 0.34245 0.80404 0.14262
 N453 N 0.37373 0.81755 0.18890
 N454 N 0.37074 0.80246 0.16749
 C455 C 0.38904 0.78596 0.16707
 C456 C 0.40448 0.79089 0.18923
 C457 C 0.39439 0.81118 0.20270
 H458 H 0.39062 0.77104 0.15210
 H459 H 0.40092 0.81991 0.22171
 N460 N 0.30857 0.79842 0.12968
 N461 N 0.28907 0.80611 0.14427
 C462 C 0.26842 0.79970 0.13058
 C463 C 0.27528 0.78750 0.10614
 C464 C 0.30089 0.78689 0.10619
 H465 H 0.24981 0.80470 0.13715
 H466 H 0.31302 0.77914 0.09014
 H467 H 0.32475 0.80855 0.17945
 H468 H 0.32304 0.83521 0.15654
 N469 N 0.80807 0.36585 0.20078
 N470 N 0.83118 0.36703 0.20920
 C471 C 0.83529 0.38935 0.21998
 C472 C 0.81350 0.40259 0.21833
 C473 C 0.79664 0.38705 0.20626
 H474 H 0.85272 0.39550 0.22841
 H475 H 0.77760 0.39101 0.20116
 Cu476 Cu 0.85321 0.33883 0.20556
 Cu477 Cu 0.79458 0.33749 0.18189
 Cu478 Cu 0.83937 0.29907 0.15434
 N479 N 0.87284 0.30918 0.19954
 N480 N 0.86657 0.29379 0.17949
 C481 C 0.88165 0.27457 0.17960
 C482 C 0.89847 0.27779 0.20075
 C483 C 0.89258 0.30009 0.21310
 H484 H 0.88025 0.25912 0.16542
 H485 H 0.90142 0.30861 0.23096
 N486 N 0.80558 0.29985 0.14034
 N487 N 0.78808 0.31393 0.15134
 C488 C 0.76736 0.31124 0.13613
 C489 C 0.77223 0.29454 0.11474
 C490 C 0.79655 0.28760 0.11815
 H491 H 0.75055 0.32171 0.13932
 H492 H 0.80728 0.27545 0.10467
 H493 H 0.82125 0.31085 0.18924
 H494 H 0.82815 0.33473 0.16355
 N495 N 0.79355 0.86768 0.71666
 N496 N 0.80139 0.85945 0.74054
 C497 C 0.79584 0.87546 0.76129
 C498 C 0.78388 0.89477 0.74975
 C499 C 0.78257 0.88926 0.72141
 H500 H 0.80147 0.87388 0.78282
 H501 H 0.77561 0.90070 0.70527
 Cu502 Cu 0.82152 0.83066 0.74184
 Cu503 Cu 0.80135 0.85132 0.68100
 Cu504 Cu 0.82761 0.79441 0.68513
 N505 N 0.84889 0.80813 0.73783
 N506 N 0.85147 0.79384 0.71558
 C507 C 0.87283 0.78138 0.71752
 C508 C 0.88415 0.78852 0.74220
 C509 C 0.86841 0.80535 0.75465
 H510 H 0.87992 0.76869 0.70178
 H511 H 0.87135 0.81547 0.77398
 N512 N 0.81159 0.80573 0.65114
 N513 N 0.80303 0.82795 0.64910
 C514 C 0.79432 0.83075 0.62313
 C515 C 0.79732 0.80925 0.60829
 C516 C 0.80823 0.79368 0.62664
 H517 H 0.78550 0.84693 0.61585
 H518 H 0.81339 0.77505 0.62250
 H519 H 0.79937 0.81875 0.69931
 H520 H 0.83114 0.83008 0.69190
 N521 N 0.68024 0.62168 0.66182
 N522 N 0.65933 0.61886 0.67563
 C523 C 0.65660 0.59556 0.68170
 C524 C 0.67703 0.58310 0.67149
 C525 C 0.69169 0.60014 0.65883
 H526 H 0.64228 0.58870 0.69527
 H527 H 0.71010 0.59743 0.65013
 Cu528 Cu 0.64070 0.64591 0.69075
 Cu529 Cu 0.69186 0.65346 0.65143
 Cu530 Cu 0.65877 0.70216 0.68024
 N531 N 0.63015 0.67197 0.71559
 N532 N 0.63630 0.69434 0.71078
 C533 C 0.62258 0.70917 0.72752
 C534 C 0.60749 0.69516 0.74395
 C535 C 0.61290 0.67167 0.73601
 H536 H 0.62215 0.72859 0.72626
 H537 H 0.60299 0.65580 0.74230
 N538 N 0.68726 0.70583 0.65467
 N539 N 0.69960 0.68732 0.64334
 C540 C 0.71579 0.69552 0.62426
 C541 C 0.71363 0.72031 0.62383
 C542 C 0.69557 0.72628 0.64347
 H543 H 0.72729 0.68424 0.61059
 H544 H 0.68786 0.74404 0.64775
 H545 H 0.67727 0.67067 0.68695
 H546 H 0.65848 0.67112 0.65445
 N547 N 0.68507 0.13189 0.18518
 N548 N 0.67022 0.13860 0.20602
 C549 C 0.67400 0.12407 0.22766
 C550 C 0.69183 0.10715 0.21980
 C551 C 0.69839 0.11249 0.19264
 H552 H 0.66442 0.12556 0.24763
 H553 H 0.71228 0.10347 0.17960
 Cu554 Cu 0.64660 0.16504 0.20245
 Cu555 Cu 0.68659 0.14971 0.15056
 Cu556 Cu 0.65951 0.20655 0.15531
 N557 N 0.62401 0.19203 0.19675
 N558 N 0.62912 0.20794 0.17768
 C559 C 0.61106 0.22470 0.17766
 C560 C 0.59365 0.21910 0.19780
 C561 C 0.60243 0.19826 0.20967
 H562 H 0.61077 0.24004 0.16417
 H563 H 0.59377 0.18843 0.22633
 N564 N 0.68428 0.19729 0.12645
 N565 N 0.69402 0.17545 0.12404
 C566 C 0.71009 0.17476 0.10226
 C567 C 0.71035 0.19721 0.09044
 C568 C 0.69376 0.21104 0.10624
 H569 H 0.72108 0.15920 0.09575
 H570 H 0.68896 0.22973 0.10325
 H571 H 0.68093 0.18001 0.17442
 H572 H 0.65408 0.17074 0.15248
 N573 N 0.19221 0.64102 0.18359
 N574 N 0.17606 0.63732 0.20381
 C575 C 0.18369 0.61828 0.21858
 C576 C 0.20589 0.60991 0.20709
 C577 C 0.21075 0.62482 0.18508
 H578 H 0.17402 0.61117 0.23645
 H579 H 0.22633 0.62347 0.17070
 Cu580 Cu 0.14695 0.65823 0.20930
 Cu581 Cu 0.18698 0.66473 0.15490
 Cu582 Cu 0.13670 0.70279 0.16402
 N583 N 0.12153 0.68311 0.21631
 N584 N 0.11766 0.70019 0.19832
 C585 C 0.09937 0.71483 0.20794
 C586 C 0.09123 0.70659 0.23334
 C587 C 0.10565 0.68640 0.23813
 H588 H 0.09247 0.73038 0.19726
 H589 H 0.10456 0.67499 0.25608
 N590 N 0.15813 0.70305 0.13072
 N591 N 0.17826 0.68958 0.12787
 C592 C 0.18978 0.69497 0.10366
 C593 C 0.17595 0.71241 0.09071
 C594 C 0.15605 0.71706 0.10832
 H595 H 0.20667 0.68658 0.09577
 H596 H 0.14140 0.73005 0.10520
 H597 H 0.16823 0.68816 0.18180
 H598 H 0.14917 0.66718 0.15958
 N599 N 0.19616 0.12381 0.70601
 N600 N 0.17696 0.12492 0.72311
 C601 C 0.17771 0.10644 0.74058
 C602 C 0.19832 0.09272 0.73389
 C603 C 0.20975 0.10413 0.71182
 H604 H 0.16389 0.10288 0.75647
 H605 H 0.22635 0.09838 0.70059
 Cu606 Cu 0.15200 0.14941 0.72007
 Cu607 Cu 0.20036 0.14764 0.67693
 Cu608 Cu 0.16183 0.19850 0.68232
 N609 N 0.13309 0.17831 0.72677
 N610 N 0.13590 0.19751 0.71159
 C611 C 0.11948 0.21450 0.72080
 C612 C 0.10628 0.20523 0.74313
 C613 C 0.11549 0.18239 0.74631
 H614 H 0.11747 0.23222 0.71219
 H615 H 0.10952 0.16949 0.76149
 N616 N 0.18962 0.19513 0.65469
 N617 N 0.20473 0.17626 0.65370
 C618 C 0.22215 0.17953 0.63388
 C619 C 0.21766 0.20120 0.62140
 C620 C 0.19686 0.21067 0.63496
 H621 H 0.23681 0.16685 0.62840
 H622 H 0.18786 0.22765 0.63088
 H623 H 0.18477 0.17452 0.70217
 H624 H 0.16495 0.16242 0.67359
 N625 N 0.31805 0.62828 0.30789
 N626 N 0.33572 0.62580 0.28882
 C627 C 0.33233 0.60527 0.27390
 C628 C 0.31131 0.59431 0.28377
 C629 C 0.30254 0.60934 0.30540
 H630 H 0.34423 0.59871 0.25698
 H631 H 0.28666 0.60635 0.31881
 Cu632 Cu 0.36140 0.64969 0.28478
 Cu633 Cu 0.31873 0.65504 0.33580
 Cu634 Cu 0.35421 0.70380 0.31502
 N635 N 0.38738 0.67359 0.28270
 N636 N 0.38390 0.69541 0.29344
 C637 C 0.40354 0.70916 0.28716
 C638 C 0.42033 0.69496 0.27210
 C639 C 0.40957 0.67252 0.26967
 H640 H 0.40554 0.72791 0.29342
 H641 H 0.41716 0.65679 0.25874
 N642 N 0.33090 0.70540 0.34689
 N643 N 0.31791 0.68694 0.35570
 C644 C 0.30626 0.69360 0.37990
 C645 C 0.31254 0.71725 0.38644
 C646 C 0.32800 0.72409 0.36505
 H647 H 0.29474 0.68197 0.39224
 H648 H 0.33737 0.74117 0.36349
 H649 H 0.32902 0.67618 0.30472
 H650 H 0.35410 0.66942 0.32992
 N651 N 0.30583 0.12078 0.79871
 N652 N 0.32437 0.12099 0.78063
 C653 C 0.32234 0.10225 0.76246
 C654 C 0.30147 0.08953 0.76948
 C655 C 0.29129 0.10173 0.79257
 H656 H 0.33552 0.09775 0.74590
 H657 H 0.27486 0.09693 0.80424
 Cu658 Cu 0.35074 0.14421 0.78353
 Cu659 Cu 0.30261 0.14530 0.82875
 Cu660 Cu 0.35476 0.18077 0.83961
 N661 N 0.38184 0.15904 0.79353
 N662 N 0.38319 0.17390 0.81531
 C663 C 0.40601 0.18341 0.81626
 C664 C 0.41974 0.17363 0.79413
 C665 C 0.40390 0.15817 0.78014
 H666 H 0.41195 0.19696 0.83139
 H667 H 0.40771 0.14812 0.76085
 N668 N 0.32648 0.18019 0.86590
 N669 N 0.30621 0.16743 0.86169
 C670 C 0.29092 0.17069 0.88408
 C671 C 0.30250 0.18584 0.90324
 C672 C 0.32491 0.19136 0.89113
 H673 H 0.27343 0.16166 0.88697
 H674 H 0.33934 0.20222 0.90046
 H675 H 0.32545 0.17149 0.81406
 H676 H 0.34048 0.14661 0.83298
 N677 N 0.76972 0.64257 0.75377
 N678 N 0.78573 0.64680 0.73363
 C679 C 0.78449 0.62917 0.71392
 C680 C 0.76703 0.61281 0.72228
 C681 C 0.75775 0.62190 0.74757
 H682 H 0.79708 0.62717 0.69623
 H683 H 0.74464 0.61333 0.76129
 Cu684 Cu 0.81065 0.67143 0.73765
 Cu685 Cu 0.76793 0.66322 0.78744
 Cu686 Cu 0.82321 0.69217 0.80247
 N687 N 0.84212 0.68585 0.74626
 N688 N 0.84736 0.69336 0.77183
 C689 C 0.87106 0.70068 0.77240
 C690 C 0.88109 0.69726 0.74583
 C691 C 0.86226 0.68792 0.72973
 H692 H 0.88043 0.70749 0.79083
 H693 H 0.86333 0.68236 0.70788
 N694 N 0.79598 0.68921 0.83010
 N695 N 0.77466 0.67887 0.82401
 C696 C 0.75939 0.68092 0.84639
 C697 C 0.77175 0.69301 0.86758
 C698 C 0.79487 0.69797 0.85666
 H699 H 0.74064 0.67423 0.84720
 H700 H 0.80946 0.70790 0.86702
 H701 H 0.79166 0.69190 0.77878
 H702 H 0.80559 0.66202 0.78650
 N703 N 0.80964 0.12084 0.34609
 N704 N 0.81971 0.11696 0.32119
 C705 C 0.80759 0.09883 0.30808
 C706 C 0.78914 0.09102 0.32591
 C707 C 0.79105 0.10523 0.34983
 H708 H 0.81174 0.09188 0.28719
 H709 H 0.77920 0.10477 0.36819
 Cu710 Cu 0.84748 0.13624 0.30846
 Cu711 Cu 0.81896 0.14762 0.37054
 Cu712 Cu 0.86628 0.18400 0.34749
 N713 N 0.87635 0.15497 0.29782
 N714 N 0.88276 0.17414 0.31273
 C715 C 0.90270 0.18418 0.30090
 C716 C 0.90938 0.17050 0.27750
 C717 C 0.89235 0.15201 0.27606
 H718 H 0.91204 0.19997 0.30911
 H719 H 0.89166 0.13764 0.26037
 N720 N 0.84762 0.19066 0.38237
 N721 N 0.83062 0.17594 0.39191
 C722 C 0.82085 0.18546 0.41576
 C723 C 0.83207 0.20728 0.42129
 C724 C 0.84896 0.21009 0.39980
 H725 H 0.80552 0.17795 0.42725
 H726 H 0.86062 0.22555 0.39658
 H727 H 0.83203 0.16905 0.33899
 H728 H 0.85531 0.14956 0.35647
 N729 N 0.70181 0.37587 0.33402
 N730 N 0.68662 0.37633 0.31268
 C731 C 0.69374 0.39394 0.29544
 C732 C 0.71464 0.40468 0.30664
 C733 C 0.71907 0.39290 0.33108
 H734 H 0.68546 0.39748 0.27544
 H735 H 0.73462 0.39557 0.34489
 Cu736 Cu 0.66125 0.35157 0.30820
 Cu737 Cu 0.70114 0.35060 0.36149
 Cu738 Cu 0.68054 0.29795 0.33086
 N739 N 0.64029 0.32307 0.30481
 N740 N 0.64863 0.30205 0.31281
 C741 C 0.63126 0.28528 0.30828
 C742 C 0.61072 0.29628 0.29727
 C743 C 0.61701 0.32036 0.29518
 H744 H 0.63317 0.26651 0.31345
 H745 H 0.60553 0.33473 0.28750
 N746 N 0.70420 0.29878 0.36197
 N747 N 0.70983 0.31895 0.37563
 C748 C 0.72383 0.31376 0.39781
 C749 C 0.72755 0.28914 0.39772
 C750 C 0.71494 0.28015 0.37473
 H751 H 0.73132 0.32698 0.41239
 H752 H 0.71293 0.26141 0.36843
 H753 H 0.69782 0.33073 0.32575
 H754 H 0.67069 0.32905 0.35006
 N755 N 0.68440 0.88016 0.82412
 N756 N 0.66292 0.88209 0.81171
 C757 C 0.66229 0.90262 0.79744
 C758 C 0.68459 0.91419 0.80122
 C759 C 0.69824 0.89951 0.81826
 H760 H 0.64698 0.90845 0.78482
 H761 H 0.71691 0.90249 0.82546
 Cu762 Cu 0.63844 0.85705 0.81439
 Cu763 Cu 0.69253 0.85248 0.84654
 Cu764 Cu 0.65138 0.80449 0.84505
 N765 N 0.61902 0.82858 0.80725
 N766 N 0.62330 0.80814 0.81968
 C767 C 0.60708 0.79155 0.81003
 C768 C 0.59231 0.80233 0.79032
 C769 C 0.60045 0.82570 0.78907
 H770 H 0.60675 0.77289 0.81597
 H771 H 0.59363 0.83951 0.77554
 N772 N 0.68165 0.80503 0.86834
 N773 N 0.69741 0.82314 0.86800
 C774 C 0.71610 0.81859 0.88540
 C775 C 0.71207 0.79671 0.89742
 C776 C 0.69004 0.78845 0.88624
 H777 H 0.73143 0.83054 0.88955
 H778 H 0.68084 0.77176 0.89088
 H779 H 0.67153 0.82847 0.82252
 H780 H 0.65701 0.84019 0.85586
 N781 N 0.21379 0.37035 0.83438
 N782 N 0.19446 0.37747 0.82023
 C783 C 0.19732 0.40084 0.81402
 C784 C 0.21939 0.40865 0.82546
 C785 C 0.22938 0.38889 0.83814
 H786 H 0.18438 0.41139 0.80224
 H787 H 0.24705 0.38784 0.84853
 Cu788 Cu 0.16746 0.35527 0.81205
 Cu789 Cu 0.21812 0.33714 0.84488
 Cu790 Cu 0.16271 0.30702 0.85277
 N791 N 0.14168 0.33133 0.80610
 N792 N 0.13954 0.31272 0.82242
 C793 C 0.11942 0.29998 0.81488
 C794 C 0.10854 0.31115 0.79254
 C795 C 0.12313 0.33095 0.78751
 H796 H 0.11310 0.28393 0.82504
 H797 H 0.12012 0.34433 0.77185
 N798 N 0.19341 0.29787 0.87219
 N799 N 0.21482 0.30830 0.86709
 C800 C 0.23258 0.29791 0.88217
 C801 C 0.22184 0.28033 0.89791
 C802 C 0.19695 0.28067 0.89119
 H803 H 0.25168 0.30362 0.88282
 H804 H 0.18258 0.26935 0.89953
 H805 H 0.18862 0.31850 0.82584
 H806 H 0.18199 0.33947 0.85622
 N807 N 0.19523 0.88971 0.31468
 N808 N 0.17679 0.89205 0.29720
 C809 C 0.17846 0.91364 0.28509
 C810 C 0.19924 0.92519 0.29520
 C811 C 0.20952 0.90949 0.31386
 H812 H 0.16612 0.92015 0.26928
 H813 H 0.22634 0.91212 0.32559
 Cu814 Cu 0.15355 0.86587 0.29030
 Cu815 Cu 0.19972 0.86086 0.33662
 Cu816 Cu 0.15868 0.81401 0.32426
 N817 N 0.13010 0.83968 0.28437
 N818 N 0.13211 0.81955 0.29804
 C819 C 0.11315 0.80497 0.29127
 C820 C 0.09860 0.81650 0.27215
 C821 C 0.10987 0.83845 0.26812
 H822 H 0.11002 0.78741 0.29983
 H823 H 0.10336 0.85266 0.25498
 N824 N 0.18656 0.81182 0.35019
 N825 N 0.20118 0.83012 0.35646
 C826 C 0.21710 0.82335 0.37641
 C827 C 0.21249 0.79958 0.38231
 C828 C 0.19323 0.79279 0.36528
 H829 H 0.23146 0.83455 0.38534
 H830 H 0.18447 0.77533 0.36440
 H831 H 0.18416 0.83759 0.30757
 H832 H 0.16322 0.84994 0.33590
 C833 C 0.29866 1.01650 0.25156
 C834 C 0.27789 1.02827 0.26451
 C835 C 0.25697 1.01455 0.27154
 C836 C 0.25632 0.98965 0.26580
 C837 C 0.27673 0.97810 0.25217
 C838 C 0.29782 0.99162 0.24597
 H839 H 0.31343 0.98295 0.23533
 H840 H 0.24112 1.02317 0.28173
 C841 C 0.27287 0.50902 0.74126
 C842 C 0.25419 0.51735 0.76001
 C843 C 0.24675 0.50282 0.78208
 C844 C 0.25721 0.47991 0.78502
 C845 C 0.27565 0.47146 0.76598
 C846 C 0.28330 0.48616 0.74420
 H847 H 0.29763 0.47995 0.72965
 H848 H 0.23183 0.50873 0.79602
 C849 C 0.73811 -0.01672 0.26894
 C850 C 0.72985 -0.01074 0.24214
 C851 C 0.72528 0.01352 0.23607
 C852 C 0.72923 0.03184 0.25649
 C853 C 0.74007 0.02567 0.28211
 C854 C 0.74352 0.00150 0.28850
 H855 H 0.75081 -0.00318 0.30869
 H856 H 0.71751 0.01784 0.21602
 C857 C 0.76662 0.48697 0.72441
 C858 C 0.74371 0.47638 0.71748
 C859 C 0.72443 0.49107 0.70814
 C860 C 0.72811 0.51569 0.70385
 C861 C 0.75164 0.52572 0.70924
 C862 C 0.77054 0.51130 0.71954
 H863 H 0.78841 0.51917 0.72408
 H864 H 0.70676 0.48318 0.70283
 C865 C 0.24279 0.48316 0.25855
 C866 C 0.22104 0.49061 0.24481
 C867 C 0.21803 0.51491 0.23799
 C868 C 0.23680 0.53180 0.24318
 C869 C 0.25871 0.52423 0.25635
 C870 C 0.26149 0.50009 0.26377
 H871 H 0.27815 0.49467 0.27439
 H872 H 0.20156 0.52036 0.22702
 C873 C 0.76820 1.02000 0.75600
 C874 C 0.74291 1.02626 0.75824
 C875 C 0.72553 1.00886 0.76548
 C876 C 0.73275 0.98513 0.77063
 C877 C 0.75817 0.97906 0.76927
 C878 C 0.77556 0.99647 0.76199
 H879 H 0.79487 0.99131 0.75959
 H880 H 0.70609 1.01379 0.76647
 C881 C 0.76299 0.52352 0.24963
 C882 C 0.74020 0.51817 0.26266
 C883 C 0.73402 0.49407 0.26696
 C884 C 0.75058 0.47531 0.25965
 C885 C 0.77288 0.48060 0.24531
 C886 C 0.77865 0.50471 0.24015
 H887 H 0.79640 0.50900 0.23082
 H888 H 0.71738 0.49014 0.27879
 C889 C 0.25878 -0.03201 0.74570
 C890 C 0.23324 -0.03122 0.75209
 C891 C 0.22148 -0.00884 0.75639
 C892 C 0.23453 0.01272 0.75341
 C893 C 0.26012 0.01186 0.74704
 C894 C 0.27182 -0.01052 0.74278
 H895 H 0.29153 -0.01126 0.73829
 H896 H 0.20178 -0.00820 0.76084
 C897 C 0.23311 0.24139 1.03283
 C898 C 0.24571 0.21986 1.03823
 C899 C 0.25767 0.20705 1.01640
 C900 C 0.25712 0.21524 0.98899
 C901 C 0.24248 0.23564 0.98299
 C902 C 0.23023 0.24833 1.00505
 H903 H 0.22113 0.26530 1.00097
 H904 H 0.26876 0.19136 1.02106
 C905 C 0.23916 0.76434 0.51632
 C906 C 0.26044 0.75011 0.52130
 C907 C 0.27708 0.74494 0.49903
 C908 C 0.27187 0.75232 0.47190
 C909 C 0.25017 0.76551 0.46684
 C910 C 0.23433 0.77192 0.48918
 H911 H 0.21739 0.78175 0.48518
 H912 H 0.29340 0.73400 0.50236
 C913 C 0.25217 0.75975 -0.03321
 C914 C 0.22942 0.74964 -0.04127
 C915 C 0.21235 0.74290 -0.02077
 C916 C 0.21730 0.74668 0.00769
 C917 C 0.23951 0.75811 0.01590
 C918 C 0.25713 0.76374 -0.00475
 H919 H 0.27445 0.77208 0.00111
 H920 H 0.19500 0.73479 -0.02702
 C921 C 0.24562 0.25461 0.47732
 C922 C 0.22808 0.23734 0.48540
 C923 C 0.22715 0.22993 0.51314
 C924 C 0.24264 0.24017 0.53350
 C925 C 0.25852 0.25925 0.52619
 C926 C 0.26040 0.26551 0.49793
 H927 H 0.27261 0.28000 0.49217
 H928 H 0.21444 0.21583 0.51886
 C929 C 0.76328 0.74354 1.02015
 C930 C 0.77630 0.72221 1.01250
 C931 C 0.77442 0.71281 0.98499
 C932 C 0.76064 0.72501 0.96494
 C933 C 0.74996 0.74753 0.97194
 C934 C 0.75065 0.75613 0.99962
 H935 H 0.74264 0.77365 1.00485
 H936 H 0.78370 0.69602 0.97922
 C937 C 0.74432 0.25687 0.53322
 C938 C 0.76661 0.24625 0.54233
 C939 C 0.78643 0.24322 0.52326
 C940 C 0.78396 0.24961 0.49529
 C941 C 0.76161 0.25971 0.48614
 C942 C 0.74223 0.26375 0.50537
 H943 H 0.72489 0.27122 0.49830
 H944 H 0.80331 0.23438 0.52961
 C945 C 0.75655 0.27866 -0.02794
 C946 C 0.75555 0.25393 -0.03604
 C947 C 0.75102 0.23684 -0.01541
 C948 C 0.74685 0.24384 0.01272
 C949 C 0.74743 0.26856 0.02035
 C950 C 0.75206 0.28562 -0.00002
 H951 H 0.75271 0.30455 0.00604
 H952 H 0.75021 0.21792 -0.02139
 C953 C 0.74807 0.75931 0.47665
 C954 C 0.73124 0.74227 0.48703
 C955 C 0.72987 0.73844 0.51575
 C956 C 0.74396 0.75209 0.53475
 C957 C 0.76059 0.76945 0.52456
 C958 C 0.76291 0.77238 0.49553
 H959 H 0.77502 0.78622 0.48775
 H960 H 0.71632 0.72589 0.52352
 C961 C 1.02497 0.21853 0.23113
 C962 C 1.01902 0.24332 0.23159
 C963 C 0.99415 0.25065 0.22975
 C964 C 0.97506 0.23364 0.22890
 C965 C 0.98102 0.20911 0.23252
 C966 C 1.00582 0.20165 0.23217
 H967 H 1.01031 0.18271 0.23389
 H968 H 0.98992 0.26961 0.22786
 C969 C 0.52759 0.24717 0.76705
 C970 C 0.51497 0.26790 0.75805
 C971 C 0.48947 0.26716 0.75351
 C972 C 0.47625 0.24585 0.75730
 C973 C 0.48862 0.22536 0.76718
 C974 C 0.51418 0.22602 0.77158
 H975 H 0.52347 0.21020 0.77924
 H976 H 0.48023 0.28282 0.74539
 C977 C -0.01625 0.27152 0.76350
 C978 C -0.01589 0.24694 0.77007
 C979 C 0.00691 0.23555 0.77437
 C980 C 0.02928 0.24806 0.77159
 C981 C 0.02888 0.27284 0.76587
 C982 C 0.00607 0.28416 0.76127
 H983 H 0.00555 0.30320 0.75695
 H984 H 0.00732 0.21646 0.77849
 C985 C 0.48181 0.28498 0.27128
 C986 C 0.47584 0.26637 0.25179
 C987 C 0.49488 0.25308 0.23832
 C988 C 0.51969 0.25715 0.24486
 C989 C 0.52555 0.27371 0.26655
 C990 C 0.50671 0.28813 0.27896
 H991 H 0.51138 0.30162 0.29479
 H992 H 0.49043 0.24051 0.22140
 C993 C 1.01205 0.72621 0.73992
 C994 C 1.01222 0.75014 0.75092
 C995 C 0.98979 0.76197 0.75713
 C996 C 0.96715 0.75097 0.75122
 C997 C 0.96694 0.72732 0.73957
 C998 C 0.98934 0.71532 0.73376
 H999 H 0.98901 0.69699 0.72543
 H1000 H 0.98998 0.78034 0.76536
 C1001 C 0.53652 0.75172 0.23186
 C1002 C 0.52904 0.77177 0.21636
 C1003 C 0.50364 0.77627 0.21269
 C1004 C 0.48565 0.76049 0.22280
 C1005 C 0.49325 0.74043 0.23817
 C1006 C 0.51846 0.73677 0.24323
 H1007 H 0.52417 0.72091 0.25427
 H1008 H 0.49796 0.79104 0.19981
 C1009 C -0.02811 0.77895 0.26055
 C1010 C -0.02847 0.75443 0.26750
 C1011 C -0.00609 0.74187 0.27054
 C1012 C 0.01679 0.75282 0.26524
 C1013 C 0.01721 0.77732 0.25776
 C1014 C -0.00529 0.78998 0.25548
 H1015 H -0.00500 0.80887 0.25042
 H1016 H -0.00658 0.72292 0.27528
 C1017 C 0.47961 0.74751 0.73953
 C1018 C 0.48134 0.72295 0.74607
 C1019 C 0.50382 0.71398 0.75603
 C1020 C 0.52471 0.72880 0.75875
 C1021 C 0.52284 0.75338 0.75212
 C1022 C 0.50037 0.76226 0.74218
 H1023 H 0.49861 0.78123 0.73778
 H1024 H 0.50540 0.69501 0.76048
 N1025 N 0.46510 0.32547 0.27802
 N1026 N 0.44425 0.33656 0.28585
 C1027 C 0.42864 0.31946 0.29469
 C1028 C 0.44063 0.29740 0.29206
 N1029 N 0.46332 0.30196 0.28141
 H1030 H 0.43324 0.27977 0.29624
 N1031 N 0.45333 0.77506 0.71422
 N1032 N 0.43116 0.78522 0.71703
 C1033 C 0.42005 0.77483 0.73901
 C1034 C 0.43589 0.75791 0.74945
 N1035 N 0.45639 0.75852 0.73335
 H1036 H 0.43366 0.74754 0.76817
 N1037 N -0.04320 0.29831 0.73837
 N1038 N -0.06501 0.30907 0.74146
 C1039 C -0.07483 0.30161 0.76577
 C1040 C -0.05842 0.28586 0.77758
 N1041 N -0.03902 0.28421 0.75968
 H1042 H -0.05996 0.27712 0.79749
 N1043 N -0.05402 0.81034 0.24086
 N1044 N -0.07593 0.82079 0.24507
 C1045 C -0.08666 0.80984 0.26687
 C1046 C -0.07062 0.79230 0.27592
 N1047 N -0.05054 0.79302 0.25896
 H1048 H -0.07312 0.78049 0.29336
 N1049 N 0.57578 0.73882 0.21041
 N1050 N 0.59639 0.72750 0.21756
 C1051 C 0.59540 0.72534 0.24557
 C1052 C 0.57363 0.73574 0.25538
 N1053 N 0.56196 0.74408 0.23285
 H1054 H 0.56629 0.73596 0.27655
 N1055 N 0.56556 0.26673 0.78283
 N1056 N 0.58947 0.26192 0.78522
 C1057 C 0.59290 0.23901 0.77589
 C1058 C 0.57033 0.22983 0.76782
 N1059 N 0.55375 0.24777 0.77233
 H1060 H 0.56638 0.21199 0.75943
 N1061 N 1.03809 0.69548 0.71636
 N1062 N 1.06021 0.68531 0.71890
 C1063 C 1.07080 0.69608 0.74132
 C1064 C 1.05453 0.71286 0.75262
 N1065 N 1.03448 0.71232 0.73619
 H1066 H 1.05692 0.72403 0.77129
 N1067 N 1.05873 0.19520 0.20992
 N1068 N 1.08065 0.18641 0.21674
 C1069 C 1.08590 0.19568 0.24232
 C1070 C 1.06653 0.21067 0.25090
 N1071 N 1.05007 0.20996 0.22998
 H1072 H 1.06387 0.21983 0.27100
 N1073 N 0.52786 0.30961 0.76557
 N1074 N 0.54454 0.32462 0.75551
 C1075 C 0.55572 0.31299 0.73362
 C1076 C 0.54548 0.29048 0.73053
 N1077 N 0.52832 0.28905 0.75089
 H1078 H 0.55091 0.27601 0.71606
 N1079 N 0.54436 0.78992 0.17407
 N1080 N 0.56451 0.80040 0.16436
 C1081 C 0.57996 0.80323 0.18613
 C1082 C 0.56877 0.79401 0.20957
 N1083 N 0.54662 0.78569 0.20105
 H1084 H 0.57653 0.79213 0.23019
 N1085 N 1.03684 0.27929 0.25276
 N1086 N 1.05414 0.29535 0.24744
 C1087 C 1.06615 0.28747 0.22406
 C1088 C 1.05584 0.26588 0.21528
 N1089 N 1.03769 0.26142 0.23387
 H1090 H 1.06005 0.25525 0.19649
 N1091 N 1.04048 0.77630 0.77692
 N1092 N 1.06247 0.78638 0.77364
 C1093 C 1.07076 0.77953 0.74791
 C1094 C 1.05322 0.76512 0.73540
 N1095 N 1.03481 0.76324 0.75434
 H1096 H 1.05376 0.75672 0.71470
 N1097 N 0.45574 0.68904 0.75954
 N1098 N 0.43546 0.67762 0.75149
 C1099 C 0.42735 0.68857 0.72844
 C1100 C 0.44339 0.70696 0.72245
 N1101 N 0.46070 0.70689 0.74259
 H1102 H 0.44250 0.71917 0.70523
 N1103 N 0.43694 0.27823 0.23054
 N1104 N 0.41612 0.26811 0.22190
 C1105 C 0.41701 0.24490 0.22951
 C1106 C 0.43903 0.24102 0.24296
 N1107 N 0.45084 0.26227 0.24331
 H1108 H 0.44630 0.22423 0.25056
 N1109 N -0.05853 0.72844 0.29009
 N1110 N -0.07952 0.71728 0.28406
 C1111 C -0.08549 0.72328 0.25779
 C1112 C -0.06759 0.73852 0.24790
 N1113 N -0.05126 0.74143 0.26874
 H1114 H -0.06614 0.74626 0.22741
 N1115 N -0.04300 0.21706 0.79063
 N1116 N -0.06406 0.20582 0.78524
 C1117 C -0.07285 0.21484 0.76137
 C1118 C -0.05649 0.23202 0.75225
 N1119 N -0.03822 0.23300 0.77122
 H1120 H -0.05736 0.24223 0.73330
 N1121 N 0.22629 0.44680 0.27920
 N1122 N 0.23391 0.42568 0.28810
 C1123 C 0.25860 0.42459 0.28379
 C1124 C 0.26594 0.44588 0.27193
 N1125 N 0.24511 0.45917 0.26913
 H1126 H 0.28446 0.45106 0.26577
 N1127 N 0.28790 -0.05966 0.72251
 N1128 N 0.29824 -0.08095 0.72637
 C1129 C 0.28864 -0.08930 0.75039
 C1130 C 0.27206 -0.07247 0.76124
 N1131 N 0.27202 -0.05437 0.74305
 H1132 H 0.26156 -0.07296 0.78064
 N1133 N 0.80836 0.47049 0.72348
 N1134 N 0.82125 0.45350 0.73581
 C1135 C 0.80678 0.44520 0.75658
 C1136 C 0.78475 0.45781 0.75695
 N1137 N 0.78634 0.47304 0.73562
 H1138 H 0.76838 0.45475 0.76961
 N1139 N 0.72234 -0.05116 0.29318
 N1140 N 0.72816 -0.07391 0.29757
 C1141 C 0.74981 -0.07844 0.28401
 C1142 C 0.75713 -0.05769 0.27096
 N1143 N 0.73939 -0.04121 0.27725
 H1144 H 0.77358 -0.05475 0.25840
 N1145 N 0.27771 0.51973 0.69239
 N1146 N 0.28538 0.53823 0.67770
 C1147 C 0.29444 0.55456 0.69626
 C1148 C 0.29208 0.54564 0.72270
 N1149 N 0.28155 0.52395 0.71938
 H1150 H 0.29655 0.55442 0.74250
 N1151 N 0.32743 1.05214 0.24636
 N1152 N 0.34505 1.05996 0.26443
 C1153 C 0.33050 1.06799 0.24382
 C1154 C 0.31783 1.05035 0.23134
 N1155 N 0.32114 1.02868 0.24351
 H1156 H 0.30394 1.05268 0.21267
 N1157 N 0.77985 0.55722 0.27617
 N1158 N 0.78860 0.57908 0.27231
 C1159 C 0.78695 0.58316 0.24472
 C1160 C 0.77705 0.56300 0.23159
 N1161 N 0.77283 0.54733 0.25207
 H1162 H 0.77331 0.55998 0.20957
 N1163 N 0.79909 1.02911 0.72085
 N1164 N 0.81185 1.04758 0.71159
 C1165 C 0.80685 1.06639 0.72918
 C1166 C 0.79031 1.05903 0.74936
 N1167 N 0.78586 1.03563 0.74330
 H1168 H 0.78160 1.06986 0.76587
 N1169 N 0.71829 0.53615 0.30265
 N1170 N 0.70890 0.55721 0.31115
 C1171 C 0.70988 0.57173 0.28905
 C1172 C 0.72026 0.55898 0.26667
 N1173 N 0.72545 0.53686 0.27612
 H1174 H 0.72518 0.56564 0.24629
 N1175 N 0.72116 1.05445 0.72915
 N1176 N 0.71011 1.07578 0.73202
 C1177 C 0.71592 1.08452 0.75770
 C1178 C 0.73099 1.06804 0.77037
 N1179 N 0.73409 1.04973 0.75176
 H1180 H 0.73771 1.06848 0.79164
 N1181 N 0.23273 0.54456 0.72943
 N1182 N 0.22023 0.56513 0.73066
 C1183 C 0.22047 0.57296 0.75758
 C1184 C 0.23341 0.55649 0.77298
 N1185 N 0.24084 0.53909 0.75452
 H1186 H 0.23690 0.55695 0.79524
 N1187 N 0.25835 1.06796 0.26814
 N1188 N 0.24555 1.06974 0.24409
 C1189 C 0.24555 1.07822 0.27097
 C1190 C 0.26280 1.06769 0.28639
 N1191 N 0.27873 1.05381 0.27073
 H1192 H 0.26562 1.07065 0.31056
 N1193 N 0.75893 0.43539 0.70909
 N1194 N 0.75064 0.41305 0.70781
 C1195 C 0.72642 0.41415 0.71476
 C1196 C 0.72005 0.43790 0.72035
 N1197 N 0.74096 0.45061 0.71677
 H1198 H 0.70193 0.44524 0.72561
 N1199 N 0.74226 -0.03222 0.19946
 N1200 N 0.73925 -0.05376 0.18741
 C1201 C 0.72127 -0.06476 0.20197
 C1202 C 0.71317 -0.04928 0.22316
 N1203 N 0.72682 -0.02921 0.22098
 H1204 H 0.70020 -0.05300 0.23989
 N1205 N 0.17828 0.47687 0.24238
 N1206 N 0.16547 0.45811 0.23297
 C1207 C 0.18184 0.44256 0.22074
 C1208 C 0.20518 0.45241 0.22289
 N1209 N 0.20217 0.47368 0.23685
 H1210 H 0.22264 0.44473 0.21560
 N1211 N 0.20200 -0.05681 0.77300
 N1212 N 0.19209 -0.07837 0.76899
 C1213 C 0.20304 -0.08826 0.74588
 C1214 C 0.21983 -0.07207 0.73568
 N1215 N 0.21887 -0.05281 0.75342
 H1216 H 0.23165 -0.07412 0.71732
 N1217 N 0.22790 0.26638 0.43277
 N1218 N 0.23505 0.27546 0.40867
 C1219 C 0.25988 0.27762 0.40959
 C1220 C 0.26775 0.26963 0.43512
 N1221 N 0.24722 0.26268 0.44896
 H1222 H 0.28643 0.26945 0.44312
 N1223 N 0.29156 0.75039 -0.05580
 N1224 N 0.30499 0.75691 -0.07761
 C1225 C 0.29275 0.77520 -0.08944
 C1226 C 0.27134 0.77980 -0.07417
 N1227 N 0.27127 0.76379 -0.05350
 H1228 H 0.25706 0.79303 -0.07800
 N1229 N 0.74241 0.31196 -0.05585
 N1230 N 0.75086 0.32624 -0.07551
 C1231 C 0.77489 0.32036 -0.07992
 C1232 C 0.78108 0.30228 -0.06199
 N1233 N 0.76014 0.29718 -0.04789
 H1234 H 0.79858 0.29280 -0.06047
 N1235 N 0.72671 0.77058 0.43437
 N1236 N 0.73170 0.77801 0.40889
 C1237 C 0.75655 0.77831 0.40613
 C1238 C 0.76675 0.77093 0.43088
 N1239 N 0.74744 0.76607 0.44786
 H1240 H 0.78614 0.76978 0.43627
 N1241 N 0.70013 0.25568 0.54381
 N1242 N 0.68448 0.26196 0.56429
 C1243 C 0.69828 0.27059 0.58559
 C1244 C 0.72286 0.26949 0.57759
 N1245 N 0.72322 0.25992 0.55147
 H1246 H 0.73880 0.27589 0.58908
 N1247 N 0.78381 0.75926 1.06229
 N1248 N 0.77777 0.77165 1.08555
 C1249 C 0.75288 0.77393 1.08576
 C1250 C 0.74388 0.76260 1.06212
 N1251 N 0.76364 0.75360 1.04808
 H1252 H 0.72491 0.76193 1.05504
 N1253 N 0.24788 0.26735 1.07050
 N1254 N 0.23973 0.28410 1.08860
 C1255 C 0.21519 0.28633 1.08451
 C1256 C 0.20846 0.27039 1.06318
 N1257 N 0.22945 0.25884 1.05518
 H1258 H 0.19027 0.26739 1.05451
 N1259 N 0.19717 0.76391 0.53496
 N1260 N 0.18468 0.77003 0.55806
 C1261 C 0.20108 0.77977 0.57609
 C1262 C 0.22419 0.77936 0.56338
 N1263 N 0.22089 0.76916 0.53779
 H1264 H 0.24160 0.78552 0.57188
 N1265 N 0.24420 0.72706 0.55977
 N1266 N 0.25218 0.71352 0.58020
 C1267 C 0.27700 0.71561 0.58064
 C1268 C 0.28409 0.73086 0.55970
 N1269 N 0.26298 0.73770 0.54718
 H1270 H 0.30271 0.73531 0.55315
 N1271 N 0.22958 0.20626 1.08295
 N1272 N 0.23806 0.19849 1.10706
 C1273 C 0.26297 0.19955 1.10535
 C1274 C 0.26956 0.20804 1.07959
 N1275 N 0.24825 0.21199 1.06629
 H1276 H 0.28798 0.21095 1.07121
 N1277 N 0.81713 0.70976 1.02737
 N1278 N 0.82830 0.70200 1.04999
 C1279 C 0.81039 0.69819 1.06919
 C1280 C 0.78782 0.70387 1.05769
 N1281 N 0.79289 0.71111 1.03160
 H1282 H 0.76975 0.70405 1.06774
 N1283 N 0.74998 0.22197 0.57957
 N1284 N 0.75754 0.21095 0.60216
 C1285 C 0.78124 0.21749 0.60624
 C1286 C 0.78805 0.23287 0.58536
 N1287 N 0.76794 0.23527 0.56916
 H1288 H 0.80618 0.24032 0.58136
 N1289 N 0.68914 0.73279 0.47343
 N1290 N 0.67707 0.72280 0.45217
 C1291 C 0.69439 0.71412 0.43399
 C1292 C 0.71748 0.71897 0.44473
 N1293 N 0.71335 0.73085 0.46924
 H1294 H 0.73541 0.71540 0.43510
 N1295 N 0.76935 0.25734 -0.08484
 N1296 N 0.76422 0.24812 -0.10989
 C1297 C 0.74826 0.23005 -0.10576
 C1298 C 0.74364 0.22852 -0.07747
 N1299 N 0.75700 0.24612 -0.06505
 H1300 H 0.73017 0.21726 -0.06728
 N1301 N 0.21750 0.76502 -0.08623
 N1302 N 0.20923 0.75696 -0.11068
 C1303 C 0.20947 0.73271 -0.10990
 C1304 C 0.21810 0.72608 -0.08414
 N1305 N 0.22311 0.74680 -0.07015
 H1306 H 0.21967 0.70815 -0.07596
 N1307 N 0.18663 0.23378 0.46674
 N1308 N 0.17521 0.22399 0.44489
 C1309 C 0.19250 0.21138 0.43002
 C1310 C 0.21492 0.21370 0.44332
 N1311 N 0.21042 0.22789 0.46604
 H1312 H 0.23284 0.20665 0.43665
 N1313 N 0.29326 0.43818 0.79199
 N1314 N 0.30248 0.41626 0.78716
 C1315 C 0.30131 0.41204 0.75930
 C1316 C 0.29118 0.43198 0.74718
 N1317 N 0.28631 0.44785 0.76827
 H1318 H 0.28740 0.43463 0.72527
 N1319 N 0.25452 0.94404 0.23158
 N1320 N 0.25854 0.92167 0.22240
 C1321 C 0.28265 0.91673 0.22663
 C1322 C 0.29340 0.93694 0.23877
 N1323 N 0.27506 0.95352 0.24182
 H1324 H 0.31253 0.93935 0.24469
 N1325 N 0.81496 0.46408 0.24215
 N1326 N 0.82650 0.44350 0.23552
 C1327 C 0.80894 0.42785 0.22709
 C1328 C 0.78629 0.43950 0.22859
 N1329 N 0.79079 0.46200 0.23833
 H1330 H 0.76826 0.43223 0.22364
 N1331 N 0.77850 0.94699 0.79424
 N1332 N 0.78549 0.92427 0.78980
 C1333 C 0.77777 0.91780 0.76393
 C1334 C 0.76579 0.93715 0.75261
 N1335 N 0.76648 0.95484 0.77227
 H1336 H 0.75809 0.93858 0.73191
 N1337 N 0.68463 0.52719 0.70434
 N1338 N 0.67010 0.54470 0.69565
 C1339 C 0.68437 0.55898 0.67992
 C1340 C 0.70798 0.54963 0.67901
 N1341 N 0.70757 0.53006 0.69500
 H1342 H 0.72396 0.55711 0.66872
 N1343 N 0.70978 0.06878 0.27449
 N1344 N 0.69926 0.08869 0.26559
 C1345 C 0.70196 0.08833 0.23757
 C1346 C 0.71455 0.06744 0.22946
 N1347 N 0.71917 0.05573 0.25326
 H1348 H 0.71923 0.06114 0.20843
 N1349 N 0.25286 0.56574 0.21746
 N1350 N 0.24521 0.58641 0.20729
 C1351 C 0.22142 0.58947 0.21549
 C1352 C 0.21463 0.56986 0.23102
 N1353 N 0.23487 0.55552 0.23186
 H1354 H 0.19667 0.56608 0.24010
 N1355 N 0.20326 0.03986 0.77386
 N1356 N 0.19311 0.06112 0.76921
 C1357 C 0.20503 0.07002 0.74684
 C1358 C 0.22271 0.05358 0.73780
 N1359 N 0.22120 0.03512 0.75540
 H1360 H 0.23484 0.05452 0.71969
 N1361 N 0.30173 0.53623 0.25251
 N1362 N 0.31620 0.55453 0.25943
 C1363 C 0.30196 0.57090 0.27355
 C1364 C 0.27812 0.56212 0.27499
 N1365 N 0.27880 0.54050 0.26140
 H1366 H 0.26186 0.57070 0.28434
 N1367 N 0.29269 0.03656 0.72732
 N1368 N 0.30422 0.05710 0.73274
 C1369 C 0.29327 0.06707 0.75578
 C1370 C 0.27469 0.05202 0.76442
 N1371 N 0.27477 0.03329 0.74592
 H1372 H 0.26285 0.05405 0.78276
 N1373 N 0.77167 0.55741 0.68374
 N1374 N 0.77603 0.58077 0.68647
 C1375 C 0.76379 0.58868 0.70972
 C1376 C 0.75173 0.56944 0.72126
 N1377 N 0.75699 0.55038 0.70425
 H1378 H 0.74152 0.56895 0.74085
 N1379 N 0.74390 0.04475 0.32843
 N1380 N 0.75695 0.06201 0.34087
 C1381 C 0.77094 0.07199 0.32076
 C1382 C 0.76592 0.06056 0.29558
 N1383 N 0.74885 0.04384 0.30125
 H1384 H 0.77437 0.06349 0.27532
 N1385 N 0.76471 0.44212 0.28734
 N1386 N 0.75564 0.42355 0.30073
 C1387 C 0.73152 0.42204 0.29408
 C1388 C 0.72599 0.44030 0.27609
 N1389 N 0.74732 0.45236 0.27230
 H1390 H 0.70809 0.44513 0.26784
 N1391 N 0.69199 0.96779 0.76297
 N1392 N 0.67850 0.94920 0.77061
 C1393 C 0.69238 0.93667 0.78847
 C1394 C 0.71473 0.94816 0.79168
 N1395 N 0.71390 0.96742 0.77519
 H1396 H 0.72983 0.94312 0.80502
 N1397 N 0.25660 0.46111 0.83036
 N1398 N 0.24713 0.44166 0.84172
 C1399 C 0.23109 0.43222 0.82303
 C1400 C 0.23101 0.44636 0.79987
 N1401 N 0.24711 0.46418 0.80529
 H1402 H 0.22195 0.44288 0.78008
 N1403 N 0.21204 0.98162 0.26442
 N1404 N 0.19624 0.96466 0.27173
 C1405 C 0.20926 0.94825 0.28591
 C1406 C 0.23355 0.95570 0.28719
 N1407 N 0.23455 0.97643 0.27325
 H1408 H 0.24921 0.94629 0.29584
 N1409 N 0.44178 0.22593 0.73390
 N1410 N 0.41852 0.23033 0.72706
 C1411 C 0.41282 0.25237 0.73780
 C1412 C 0.43329 0.26146 0.75135
 N1413 N 0.45093 0.24434 0.74855
 H1414 H 0.43538 0.27896 0.76157
 N1415 N 0.44945 0.74480 0.19897
 N1416 N 0.42798 0.75238 0.18930
 C1417 C 0.42553 0.77574 0.19734
 C1418 C 0.44633 0.78235 0.21224
 N1419 N 0.46071 0.76241 0.21291
 H1420 H 0.45096 0.79997 0.22081
 N1421 N 0.93572 0.22540 0.20682
 N1422 N 0.91539 0.23650 0.19891
 C1423 C 0.91699 0.25956 0.20808
 C1424 C 0.93919 0.26230 0.22204
 N1425 N 0.95033 0.24038 0.22084
 H1426 H 0.94681 0.27870 0.23104
 N1427 N 0.93998 0.77782 0.77893
 N1428 N 0.91790 0.78819 0.77729
 C1429 C 0.90845 0.78116 0.75240
 C1430 C 0.92544 0.76643 0.73867
 N1431 N 0.94470 0.76447 0.75610
 H1432 H 0.92403 0.75802 0.71806
 N1433 N 0.56207 0.25469 0.28499
 N1434 N 0.58473 0.25998 0.29317
 C1435 C 0.58748 0.28390 0.29045
 C1436 C 0.56554 0.29328 0.28046
 N1437 N 0.55028 0.27430 0.27717
 H1438 H 0.56126 0.31176 0.27559
 N1439 N 0.54666 0.78852 0.73949
 N1440 N 0.56483 0.80211 0.74921
 C1441 C 0.57303 0.79174 0.77255
 C1442 C 0.55926 0.77133 0.77697
 N1443 N 0.54307 0.76986 0.75569
 H1444 H 0.56012 0.75946 0.79453
 N1445 N 0.05511 0.30546 0.74967
 N1446 N 0.07616 0.31625 0.75631
 C1447 C 0.08573 0.30427 0.77789
 C1448 C 0.06991 0.28578 0.78429
 N1449 N 0.05112 0.28698 0.76605
 H1450 H 0.07143 0.27329 0.80119
 N1451 N 0.04221 0.80786 0.23550
 N1452 N 0.06358 0.81905 0.23895
 C1453 C 0.07526 0.80807 0.25990
 C1454 C 0.06041 0.78970 0.26915
 N1455 N 0.03994 0.79011 0.25330
 H1456 H 0.06342 0.77834 0.28687
 N1457 N 0.55073 0.69920 0.78135
 N1458 N 0.57314 0.68962 0.77804
 C1459 C 0.58503 0.70291 0.75898
 C1460 C 0.56924 0.72069 0.75052
 N1461 N 0.54807 0.71794 0.76506
 H1462 H 0.57185 0.73258 0.73315
 N1463 N 0.54362 0.26113 0.20229
 N1464 N 0.56332 0.25173 0.18932
 C1465 C 0.57108 0.23317 0.20464
 C1466 C 0.55534 0.23137 0.22755
 N1467 N 0.53853 0.24925 0.22525
 H1468 H 0.55649 0.21895 0.24456
 N1469 N 0.04336 0.72108 0.28319
 N1470 N 0.06298 0.70803 0.27518
 C1471 C 0.07096 0.71694 0.25076
 C1472 C 0.05569 0.73595 0.24413
 N1473 N 0.03883 0.73811 0.26499
 H1474 H 0.05595 0.74632 0.22528
 N1475 N 0.05642 0.21759 0.79041
 N1476 N 0.07695 0.20573 0.78328
 C1477 C 0.08582 0.21575 0.75984
 C1478 C 0.07014 0.23421 0.75280
 N1479 N 0.05208 0.23481 0.77249
 H1480 H 0.07066 0.24482 0.73413
 N1481 N 0.48050 0.69874 0.24175
 N1482 N 0.46142 0.68598 0.25040
 C1483 C 0.44448 0.70186 0.26074
 C1484 C 0.45370 0.72483 0.25818
 N1485 N 0.47617 0.72205 0.24604
 H1486 H 0.44493 0.74180 0.26422
 N1487 N 0.47723 0.18336 0.75936
 N1488 N 0.45866 0.16893 0.76579
 C1489 C 0.44435 0.18112 0.78475
 C1490 C 0.45469 0.20333 0.78984
 N1491 N 0.47503 0.20411 0.77349
 H1492 H 0.44696 0.21831 0.80211
 N1493 N 0.93847 0.70469 0.70988
 N1494 N 0.91546 0.69656 0.71067
 C1495 C 0.90649 0.70191 0.73655
 C1496 C 0.92467 0.71332 0.75173
 N1497 N 0.94417 0.71503 0.73421
 H1498 H 0.92358 0.72053 0.77298
 N1499 N 0.95969 0.17021 0.22829
 N1500 N 0.94042 0.15930 0.23978
 C1501 C 0.93050 0.17506 0.25884
 C1502 C 0.94416 0.19584 0.25870
 N1503 N 0.96199 0.19224 0.23925
 H1504 H 0.94157 0.21201 0.27160
 N1505 N 0.27113 0.29873 0.54327
 N1506 N 0.28052 0.30966 0.56564
 C1507 C 0.28511 0.29238 0.58410
 C1508 C 0.27830 0.27047 0.57238
 N1509 N 0.26951 0.27519 0.54679
 H1510 H 0.27991 0.25310 0.58174
 N1511 N 0.22487 0.77385 0.06132
 N1512 N 0.23368 0.78185 0.08554
 C1513 C 0.25847 0.77927 0.08397
 C1514 C 0.26463 0.76941 0.05798
 N1515 N 0.24306 0.76611 0.04450
 H1516 H 0.28295 0.76545 0.04958
 N1517 N 0.72945 0.29283 0.05874
 N1518 N 0.73559 0.30031 0.08430
 C1519 C 0.75668 0.28860 0.09059
 C1520 C 0.76317 0.27358 0.06826
 N1521 N 0.74567 0.27663 0.04896
 H1522 H 0.77995 0.26299 0.06532
 N1523 N 0.77266 0.80975 0.53967
 N1524 N 0.78219 0.82111 0.56172
 C1525 C 0.78882 0.80404 0.57973
 C1526 C 0.78325 0.78179 0.56800
 N1527 N 0.77286 0.78617 0.54314
 H1528 H 0.78516 0.76434 0.57732
 N1529 N 0.30323 0.76372 0.43832
 N1530 N 0.31398 0.75510 0.41511
 C1531 C 0.30591 0.73233 0.41119
 C1532 C 0.29000 0.72710 0.43298
 N1533 N 0.28897 0.74716 0.44945
 H1534 H 0.27921 0.71096 0.43577
 N1535 N 0.29880 0.20410 0.97488
 N1536 N 0.31153 0.19651 0.95254
 C1537 C 0.29505 0.19255 0.93201
 C1538 C 0.27161 0.19800 0.94242
 N1539 N 0.27489 0.20534 0.96925
 H1540 H 0.25422 0.19781 0.93136
 N1541 N 0.73520 0.70780 0.92807
 N1542 N 0.73742 0.69898 0.90214
 C1543 C 0.76163 0.70022 0.89517
 C1544 C 0.77429 0.70997 0.91769
 N1545 N 0.75707 0.71444 0.93769
 H1546 H 0.79387 0.71374 0.91931
 N1547 N 0.81720 0.25961 0.46278
 N1548 N 0.83058 0.24874 0.44267
 C1549 C 0.82460 0.22519 0.44287
 C1550 C 0.80737 0.22188 0.46380
 N1551 N 0.80332 0.24370 0.47570
 H1552 H 0.79738 0.20564 0.46861
 N1553 N 0.76032 0.24617 0.43727
 N1554 N 0.75080 0.25311 0.41333
 C1555 C 0.74133 0.27536 0.41819
 C1556 C 0.74530 0.28188 0.44577
 N1557 N 0.75728 0.26322 0.45696
 H1558 H 0.73900 0.29803 0.45697
 N1559 N 0.75894 0.78314 0.94619
 N1560 N 0.74949 0.79661 0.92656
 C1561 C 0.72832 0.78603 0.91826
 C1562 C 0.72502 0.76538 0.93348
 N1563 N 0.74466 0.76434 0.95061
 H1564 H 0.70971 0.75292 0.93279
 N1565 N 0.26426 0.25179 0.94290
 N1566 N 0.25943 0.26392 0.92011
 C1567 C 0.23459 0.26603 0.91876
 C1568 C 0.22428 0.25492 0.94151
 N1569 N 0.24344 0.24611 0.95592
 H1570 H 0.20495 0.25426 0.94768
 N1571 N 0.23951 0.75194 0.41986
 N1572 N 0.22908 0.76025 0.39710
 C1573 C 0.22545 0.78406 0.40175
 C1574 C 0.23379 0.79014 0.42818
 N1575 N 0.24254 0.76955 0.43871
 H1576 H 0.23258 0.80743 0.43914
 N1577 N 0.73098 0.76854 0.58043
 N1578 N 0.72243 0.76066 0.60459
 C1579 C 0.72450 0.73645 0.60331
 C1580 C 0.73458 0.72972 0.57768
 N1581 N 0.73850 0.75024 0.56406
 H1582 H 0.73705 0.71166 0.56894
 N1583 N 0.75092 0.20360 0.03173
 N1584 N 0.74153 0.19051 0.05202
 C1585 C 0.72535 0.20483 0.06641
 C1586 C 0.72512 0.22710 0.05433
 N1587 N 0.74148 0.22570 0.03287
 H1588 H 0.71357 0.24249 0.06006
 N1589 N 0.17583 0.74583 0.02817
 N1590 N 0.16420 0.73704 0.05015
 C1591 C 0.18106 0.72412 0.06413
 C1592 C 0.20342 0.72522 0.05008
 N1593 N 0.19940 0.73915 0.02796
 H1594 H 0.22102 0.71741 0.05579
 N1595 N 0.26083 0.21366 0.56699
 N1596 N 0.25453 0.20242 0.59004
 C1597 C 0.23211 0.21103 0.59811
 C1598 C 0.22479 0.22800 0.57918
 N1599 N 0.24346 0.22937 0.56035
 H1600 H 0.20711 0.23722 0.57811
   
