data_POSCAR
  _audit_creation_date              2014-09-24
  _audit_creation_method            'ToBaCCo'
  _symmetry_space_group_name_H-M    'P1'
  _symmetry_Int_Tables_number       1
  _symmetry_cell_setting            triclinic
  loop_
  _symmetry_equiv_pos_as_xyz
 x,y,z
_cell_length_a 68.1781
_cell_length_b 68.6062
_cell_length_c 68.2892
_cell_angle_alpha 90.431100
_cell_angle_beta 90.614200
_cell_angle_gamma 91.279500
loop_
  _atom_site_label
  _atom_site_type_symbol
  _atom_site_fract_x
  _atom_site_fract_y
  _atom_site_fract_z
C1 C 0.40157 0.01020 0.27787
 H2 H 0.40361 0.02269 0.26855
 C3 C 0.41270 0.00884 0.29514
 H4 H 0.42282 0.02060 0.29917
 C5 C 0.38604 -0.02031 0.28402
 H6 H 0.37629 -0.03208 0.27945
 C7 C 0.39654 -0.02207 0.30151
 H8 H 0.39424 -0.03489 0.31044
 N9 N 0.38820 -0.00407 0.27283
 C10 C 0.39040 0.01141 0.21369
 H11 H 0.38000 0.02304 0.21408
 C12 C 0.40323 0.01005 0.19793
 H13 H 0.40253 0.02072 0.18636
 C14 C 0.40308 -0.01735 0.22752
 H15 H 0.40279 -0.02804 0.23908
 C16 C 0.41585 -0.01948 0.21185
 H17 H 0.42540 -0.03188 0.21136
 Zn18 Zn 0.37294 -0.00173 0.24936
 N19 N 0.39056 -0.00220 0.22808
 C20 C 0.36866 0.03945 0.24835
 N21 N 0.35874 0.02206 0.24955
 C22 C 0.33881 0.02141 0.25051
 C23 C 0.32816 0.03858 0.25038
 C24 C 0.35857 0.05697 0.24771
 C25 C 0.35547 -0.03453 0.23007
 C26 C 0.34427 -0.05175 0.22843
 C27 C 0.33186 -0.04598 0.26088
 C28 C 0.34299 -0.02860 0.26169
 N29 N 0.35513 -0.02360 0.24675
 H30 H 0.38446 0.03976 0.24739
 H31 H 0.33105 0.00756 0.25131
 H32 H 0.31230 0.03759 0.25122
 H33 H 0.36711 0.07039 0.24686
 H34 H 0.36471 -0.03012 0.21807
 H35 H 0.34519 -0.06038 0.21512
 H36 H 0.32272 -0.04956 0.27322
 H37 H 0.34256 -0.01944 0.27465
 C38 C 0.41606 -0.00565 0.19687
 C39 C 0.40998 -0.00739 0.30729
 C40 C 0.33279 -0.05815 0.24420
 C41 C 0.33792 0.05674 0.24866
 C42 C 0.10115 0.00189 0.72615
 H43 H 0.10055 0.01455 0.73565
 C44 C 0.09180 0.00198 0.70776
 H45 H 0.08405 0.01481 0.70322
 C46 C 0.11307 -0.02972 0.72000
 H47 H 0.12146 -0.04205 0.72466
 C48 C 0.10428 -0.03010 0.70148
 H49 H 0.10606 -0.04271 0.69207
 N50 N 0.11179 -0.01371 0.73175
 C51 C 0.12232 -0.01327 0.79502
 H52 H 0.13803 -0.01505 0.79457
 C53 C 0.11295 -0.01260 0.81298
 H54 H 0.12157 -0.01397 0.82630
 C55 C 0.09215 -0.00930 0.77811
 H56 H 0.08416 -0.00812 0.76442
 C57 C 0.08214 -0.00823 0.79594
 H58 H 0.06641 -0.00646 0.79581
 Zn59 Zn 0.12740 -0.01267 0.75497
 N60 N 0.11193 -0.01169 0.77802
 C61 C 0.14238 0.02352 0.76943
 N62 N 0.14357 0.01048 0.75440
 C63 C 0.15503 0.01446 0.73868
 C64 C 0.16618 0.03184 0.73795
 C65 C 0.15330 0.04094 0.76939
 C66 C 0.13703 -0.04993 0.76875
 C67 C 0.14682 -0.06751 0.76961
 C68 C 0.16781 -0.05637 0.74357
 C69 C 0.15787 -0.03869 0.74357
 N70 N 0.14275 -0.03576 0.75605
 H71 H 0.13262 0.02078 0.78144
 H72 H 0.15517 0.00440 0.72643
 H73 H 0.17510 0.03468 0.72521
 H74 H 0.15147 0.05073 0.78163
 H75 H 0.12446 -0.04793 0.77795
 H76 H 0.14186 -0.07845 0.77992
 H77 H 0.17976 -0.05811 0.73348
 H78 H 0.16202 -0.02753 0.73327
 C79 C 0.09269 -0.00988 0.81366
 C80 C 0.09369 -0.01407 0.69506
 C81 C 0.16225 -0.07116 0.75675
 C82 C 0.16553 0.04542 0.75347
 C83 C 0.59768 0.50296 0.22632
 H84 H 0.59734 0.51576 0.23555
 C85 C 0.58664 0.50236 0.20891
 H86 H 0.57829 0.51495 0.20478
 C87 C 0.60914 0.47120 0.22019
 H88 H 0.61741 0.45879 0.22474
 C89 C 0.59861 0.47011 0.20260
 H90 H 0.59937 0.45709 0.19360
 N91 N 0.60916 0.48774 0.23133
 C92 C 0.61350 0.50263 0.29116
 H93 H 0.62562 0.51294 0.29017
 C94 C 0.60163 0.50294 0.30766
 H95 H 0.60476 0.51357 0.31913
 C96 C 0.59547 0.47551 0.27811
 H97 H 0.59321 0.46487 0.26649
 C98 C 0.58349 0.47503 0.29461
 H99 H 0.57201 0.46393 0.29570
 Zn100 Zn 0.62590 0.48923 0.25395
 N101 N 0.61008 0.48923 0.27665
 C102 C 0.63313 0.53004 0.25610
 N103 N 0.64182 0.51254 0.25367
 C104 C 0.66166 0.51147 0.25223
 C105 C 0.67349 0.52833 0.25337
 C106 C 0.64442 0.54722 0.25782
 C107 C 0.64243 0.45516 0.27007
 C108 C 0.65346 0.43825 0.26994
 C109 C 0.66427 0.44616 0.23733
 C110 C 0.65330 0.46310 0.23825
 N111 N 0.64228 0.46705 0.25424
 H112 H 0.61741 0.53066 0.25764
 H113 H 0.66847 0.49753 0.25056
 H114 H 0.68926 0.52703 0.25230
 H115 H 0.63683 0.56074 0.25978
 H116 H 0.63384 0.45867 0.28277
 H117 H 0.65315 0.42891 0.28267
 H118 H 0.67269 0.44360 0.22429
 H119 H 0.65315 0.47292 0.22592
 C120 C 0.58634 0.48906 0.30945
 C121 C 0.58741 0.48589 0.19665
 C122 C 0.66424 0.43322 0.25326
 C123 C 0.66501 0.54652 0.25670
 C124 C 0.90365 0.50203 0.77249
 H125 H 0.91159 0.50113 0.75895
 C126 C 0.91397 0.50177 0.79035
 H127 H 0.92972 0.50053 0.78986
 C128 C 0.87360 0.50544 0.78906
 H129 H 0.85783 0.50684 0.78842
 C130 C 0.88324 0.50543 0.80713
 H131 H 0.87457 0.50686 0.82026
 N132 N 0.88376 0.50343 0.77221
 C133 C 0.87750 0.51576 0.71153
 H134 H 0.86546 0.52545 0.71378
 C135 C 0.88697 0.51588 0.69358
 H136 H 0.88231 0.52589 0.68234
 C137 C 0.89717 0.48998 0.72267
 H138 H 0.90054 0.47942 0.73382
 C139 C 0.90738 0.48989 0.70496
 H140 H 0.91863 0.47926 0.70261
 Zn141 Zn 0.86790 0.50322 0.74918
 N142 N 0.88281 0.50311 0.72578
 C143 C 0.86370 0.54344 0.74930
 N144 N 0.85320 0.52639 0.74997
 C145 C 0.83331 0.52622 0.75123
 C146 C 0.82320 0.54375 0.75125
 C147 C 0.85421 0.56125 0.74885
 C148 C 0.85215 0.46729 0.76330
 C149 C 0.84019 0.45047 0.76273
 C150 C 0.82648 0.46133 0.73206
 C151 C 0.83862 0.47800 0.73331
 N152 N 0.85108 0.48072 0.74880
 H153 H 0.87954 0.54315 0.74873
 H154 H 0.82526 0.51252 0.75219
 H155 H 0.80734 0.54328 0.75215
 H156 H 0.86321 0.57439 0.74839
 H157 H 0.86250 0.46939 0.77524
 H158 H 0.84182 0.44018 0.77447
 H159 H 0.81674 0.45950 0.71950
 H160 H 0.83823 0.48876 0.72182
 C161 C 0.90219 0.50300 0.69018
 C162 C 0.90371 0.50331 0.80815
 C163 C 0.82702 0.44722 0.74690
 C164 C 0.83357 0.56163 0.74957
 C165 C 0.22719 0.41138 1.00624
 H166 H 0.24164 0.41786 1.00844
 C167 C 0.21079 0.42330 1.00578
 H168 H 0.21274 0.43890 1.00781
 C169 C 0.20693 0.38332 1.00081
 H170 H 0.20556 0.36767 0.99894
 C171 C 0.19022 0.39469 0.99994
 H172 H 0.17603 0.38759 0.99776
 N173 N 0.22496 0.39174 1.00389
 C174 C 0.28223 0.38668 0.98608
 H175 H 0.27755 0.37712 0.97423
 C176 C 0.30011 0.39682 0.98469
 H177 H 0.30883 0.39509 0.97164
 C178 C 0.27691 0.40024 1.01751
 H179 H 0.26775 0.40146 1.03028
 C180 C 0.29486 0.41058 1.01679
 H181 H 0.29912 0.41995 1.02897
 Zn182 Zn 0.24651 0.37462 1.00348
 N183 N 0.27086 0.38872 1.00219
 C184 C 0.23997 0.36947 0.96393
 N185 N 0.24301 0.35916 0.98054
 C186 C 0.24290 0.33932 0.98024
 C187 C 0.24018 0.32911 0.96251
 C188 C 0.23724 0.35996 0.94602
 C189 C 0.23273 0.36252 1.04023
 C190 C 0.23312 0.35269 1.05801
 C191 C 0.26208 0.33611 1.04745
 C192 C 0.26113 0.34635 1.02978
 N193 N 0.24661 0.35928 1.02653
 H194 H 0.23987 0.38523 0.96463
 H195 H 0.24500 0.33140 0.99369
 H196 H 0.24043 0.31338 0.96280
 H197 H 0.23509 0.36866 0.93301
 H198 H 0.22151 0.37308 1.03761
 H199 H 0.22196 0.35578 1.06871
 H200 H 0.27398 0.32619 1.04956
 H201 H 0.27220 0.34427 1.01878
 C202 C 0.30669 0.40890 1.00014
 C203 C 0.19207 0.41500 1.00233
 C204 C 0.24798 0.33936 1.06202
 C205 C 0.23743 0.33951 0.94497
 C206 C 0.77649 0.09273 1.00224
 H207 H 0.76421 0.08859 1.01128
 C208 C 0.79387 0.08233 1.00352
 H209 H 0.79452 0.07014 1.01350
 C210 C 0.79069 0.11404 0.97905
 H211 H 0.78972 0.12690 0.97008
 C212 C 0.80827 0.10402 0.97971
 H213 H 0.82008 0.10960 0.97083
 N214 N 0.77519 0.10831 0.99015
 C215 C 0.71678 0.10885 0.97474
 H216 H 0.72060 0.11702 0.96187
 C217 C 0.69914 0.09820 0.97476
 H218 H 0.68985 0.09813 0.96179
 C219 C 0.72368 0.09944 1.00731
 H220 H 0.73316 0.10027 1.02010
 C221 C 0.70594 0.08872 1.00805
 H222 H 0.70228 0.08096 1.02129
 Zn223 Zn 0.75267 0.12439 0.99023
 N224 N 0.72886 0.10911 0.99074
 C225 C 0.75471 0.12964 0.94996
 N226 N 0.75308 0.13966 0.96708
 C227 C 0.75189 0.15943 0.96732
 C228 C 0.75177 0.16985 0.94972
 C229 C 0.75460 0.13936 0.93215
 C230 C 0.73833 0.15122 1.01828
 C231 C 0.73878 0.16177 1.03594
 C232 C 0.77142 0.15008 1.04204
 C233 C 0.77036 0.13990 1.02434
 N234 N 0.75392 0.14042 1.01296
 H235 H 0.75585 0.11394 0.95017
 H236 H 0.75081 0.16714 0.98111
 H237 H 0.75046 0.18550 0.95048
 H238 H 0.75564 0.13089 0.91876
 H239 H 0.72536 0.15127 1.00901
 H240 H 0.72594 0.16982 1.03986
 H241 H 0.78462 0.14910 1.05094
 H242 H 0.78265 0.13132 1.01987
 C243 C 0.69343 0.08804 0.99155
 C244 C 0.81026 0.08790 0.99227
 C245 C 0.75548 0.16107 1.04829
 C246 C 0.75295 0.15973 0.93172
 C247 C 0.27486 0.59037 0.50223
 H248 H 0.26100 0.58336 0.50570
 C249 C 0.29206 0.57957 0.50236
 H250 H 0.29133 0.56424 0.50602
 C251 C 0.29290 0.61888 0.49352
 H252 H 0.29312 0.63431 0.49035
 C253 C 0.31032 0.60865 0.49330
 H254 H 0.32387 0.61649 0.49025
 N255 N 0.27565 0.60973 0.49806
 C256 C 0.21690 0.61242 0.48309
 H257 H 0.22062 0.62133 0.47068
 C258 C 0.19895 0.60231 0.48304
 H259 H 0.18928 0.60336 0.47041
 C260 C 0.22451 0.60064 0.51472
 H261 H 0.23457 0.60017 0.52706
 C262 C 0.20645 0.59046 0.51539
 H263 H 0.20293 0.58189 0.52817
 Zn264 Zn 0.25349 0.62598 0.49814
 N265 N 0.22944 0.61126 0.49865
 C266 C 0.25682 0.62894 0.45827
 N267 N 0.25485 0.64025 0.47450
 C268 C 0.25463 0.66002 0.47329
 C269 C 0.25598 0.66912 0.45499
 C270 C 0.25806 0.63730 0.43983
 C271 C 0.27005 0.63993 0.53347
 C272 C 0.27053 0.64954 0.55149
 C273 C 0.23967 0.66419 0.54325
 C274 C 0.23984 0.65426 0.52521
 N275 N 0.25479 0.64223 0.52080
 H276 H 0.25723 0.61326 0.45969
 H277 H 0.25335 0.66874 0.48645
 H278 H 0.25549 0.68484 0.45451
 H279 H 0.25936 0.62781 0.42717
 H280 H 0.28165 0.63008 0.53000
 H281 H 0.28273 0.64704 0.56140
 H282 H 0.22730 0.67321 0.54644
 H283 H 0.22771 0.65563 0.51502
 C284 C 0.19344 0.59127 0.49932
 C285 C 0.31006 0.58870 0.49776
 C286 C 0.25507 0.66158 0.55689
 C287 C 0.25761 0.65764 0.43784
 C288 C 0.73672 0.91169 0.50471
 H289 H 0.75121 0.91800 0.50701
 C290 C 0.72054 0.92382 0.50373
 H291 H 0.72268 0.93943 0.50550
 C292 C 0.71613 0.88381 0.49936
 H293 H 0.71458 0.86815 0.49770
 C294 C 0.69964 0.89540 0.49802
 H295 H 0.68539 0.88845 0.49572
 N296 N 0.73421 0.89205 0.50266
 C297 C 0.79161 0.88653 0.48644
 H298 H 0.78738 0.87684 0.47454
 C299 C 0.80929 0.89702 0.48541
 H300 H 0.81834 0.89545 0.47257
 C301 C 0.78527 0.90013 0.51766
 H302 H 0.77573 0.90128 0.53016
 C303 C 0.80299 0.91083 0.51730
 H304 H 0.80675 0.92040 0.52949
 Zn305 Zn 0.75540 0.87467 0.50277
 N306 N 0.77978 0.88853 0.50222
 C307 C 0.75141 0.83978 0.47892
 N308 N 0.75226 0.85960 0.47962
 C309 C 0.75006 0.87037 0.46318
 C310 C 0.74741 0.86136 0.44503
 C311 C 0.74866 0.83004 0.46093
 C312 C 0.74055 0.86295 0.53912
 C313 C 0.74081 0.85383 0.55727
 C314 C 0.77010 0.83718 0.54775
 C315 C 0.76923 0.84666 0.52965
 N316 N 0.75471 0.85940 0.52579
 H317 H 0.75289 0.83153 0.49226
 H318 H 0.75052 0.88612 0.46422
 H319 H 0.74592 0.87041 0.43217
 H320 H 0.74830 0.81430 0.46087
 H321 H 0.72934 0.87338 0.53602
 H322 H 0.72952 0.85727 0.56772
 H323 H 0.78211 0.82751 0.55042
 H324 H 0.78050 0.84432 0.51890
 C325 C 0.81517 0.90939 0.50089
 C326 C 0.70178 0.91571 0.50008
 C327 C 0.75587 0.84099 0.56205
 C328 C 0.74671 0.84094 0.44357
 C329 C 0.01351 0.27727 0.41035
 H330 H 0.02536 0.26730 0.41271
 C331 C 0.01216 0.29394 0.42199
 H332 H 0.02306 0.29681 0.43337
 C333 C -0.01496 0.28579 0.39237
 H334 H -0.02542 0.28254 0.38073
 C335 C -0.01685 0.30266 0.40364
 H336 H -0.02909 0.31201 0.40076
 N337 N 0.00016 0.27366 0.39578
 C338 C 0.02241 0.21691 0.39141
 H339 H 0.03058 0.21846 0.37808
 C340 C 0.02549 0.20071 0.40317
 H341 H 0.03611 0.19040 0.39821
 C342 C -0.00091 0.22893 0.41359
 H343 H -0.01103 0.24011 0.41769
 C344 C 0.00173 0.21305 0.42585
 H345 H -0.00673 0.21216 0.43918
 Zn346 Zn 0.00318 0.25147 0.37991
 N347 N 0.00900 0.23034 0.39649
 C348 C 0.02838 0.24268 0.34832
 N349 N 0.02399 0.25622 0.36215
 C350 C 0.03491 0.27295 0.36418
 C351 C 0.05162 0.27601 0.35293
 C352 C 0.04498 0.24513 0.33670
 C353 C -0.03652 0.24079 0.37768
 C354 C -0.05474 0.23683 0.36896
 C355 C -0.04047 0.24351 0.33742
 C356 C -0.02246 0.24732 0.34681
 N357 N -0.02081 0.24588 0.36660
 H358 H 0.01927 0.22963 0.34672
 H359 H 0.03105 0.28378 0.37492
 H360 H 0.06038 0.28921 0.35531
 H361 H 0.04818 0.23367 0.32639
 H362 H -0.03502 0.24004 0.39339
 H363 H -0.06702 0.23293 0.37821
 H364 H -0.04104 0.24493 0.32171
 H365 H -0.00989 0.25173 0.33828
 C366 C 0.01468 0.19827 0.42055
 C367 C -0.00293 0.30705 0.41844
 C368 C -0.05706 0.23823 0.34857
 C369 C 0.05723 0.26183 0.33928
 C370 C -0.00051 0.72854 0.08055
 H371 H 0.00953 0.74023 0.07663
 C372 C -0.00183 0.71182 0.06886
 H373 H 0.00757 0.71058 0.05625
 C374 C -0.02523 0.71610 0.10144
 H375 H -0.03447 0.71783 0.11402
 C376 C -0.02701 0.69910 0.09017
 H377 H -0.03782 0.68812 0.09421
 N378 N -0.01172 0.73016 0.09682
 C379 C 0.00565 0.78985 0.10388
 H380 H 0.01334 0.78887 0.11776
 C381 C 0.00675 0.80704 0.09320
 H382 H 0.01521 0.81916 0.09931
 C383 C -0.01586 0.77540 0.08014
 H384 H -0.02497 0.76310 0.07542
 C385 C -0.01512 0.79230 0.06893
 H386 H -0.02358 0.79289 0.05544
 Zn387 Zn -0.00763 0.75238 0.11308
 N388 N -0.00549 0.77451 0.09721
 C389 C 0.03267 0.74669 0.11656
 N390 N 0.01630 0.74983 0.12720
 C391 C 0.01726 0.75139 0.14706
 C392 C 0.03514 0.74934 0.15698
 C393 C 0.05076 0.74443 0.12581
 C394 C -0.04106 0.77086 0.12715
 C395 C -0.05780 0.77307 0.13840
 C396 C -0.04943 0.74403 0.15616
 C397 C -0.03287 0.74234 0.14445
 N398 N -0.02912 0.75553 0.13013
 H399 H 0.03179 0.74603 0.10081
 H400 H 0.00421 0.75438 0.15528
 H401 H 0.03517 0.75052 0.17275
 H402 H 0.06351 0.74185 0.11689
 H403 H -0.03788 0.78123 0.11574
 H404 H -0.06725 0.78523 0.13545
 H405 H -0.05202 0.73294 0.16701
 H406 H -0.02316 0.73025 0.14653
 C407 C -0.00370 0.80839 0.07539
 C408 C -0.01475 0.69661 0.07397
 C409 C -0.06239 0.75950 0.15304
 C410 C 0.05230 0.74572 0.14629
 C411 C 0.49503 0.22656 0.58586
 H412 H 0.50707 0.23649 0.58254
 C413 C 0.49410 0.20811 0.57717
 H414 H 0.50520 0.20432 0.56671
 C415 C 0.46606 0.21966 0.60363
 H416 H 0.45536 0.22408 0.61425
 C417 C 0.46459 0.20104 0.59533
 H418 H 0.45268 0.19128 0.59954
 N419 N 0.48136 0.23181 0.59913
 C420 C 0.48947 0.29481 0.60419
 H421 H 0.48911 0.29639 0.61988
 C422 C 0.49130 0.31136 0.59270
 H423 H 0.49239 0.32548 0.59986
 C424 C 0.48653 0.27468 0.57594
 H425 H 0.48409 0.26043 0.56945
 C426 C 0.48820 0.29096 0.56381
 H427 H 0.48738 0.28909 0.54806
 Zn428 Zn 0.48466 0.25559 0.61306
 N429 N 0.48755 0.27686 0.59577
 C430 C 0.51033 0.26856 0.64366
 N431 N 0.50700 0.25428 0.63002
 C432 C 0.51935 0.23907 0.62844
 C433 C 0.53622 0.23828 0.64013
 C434 C 0.52694 0.26830 0.65576
 C435 C 0.44610 0.26645 0.61806
 C436 C 0.42875 0.26967 0.62804
 C437 C 0.44461 0.25908 0.65785
 C438 C 0.46166 0.25609 0.64725
 N439 N 0.46207 0.25982 0.62777
 H440 H 0.49995 0.28006 0.64545
 H441 H 0.51628 0.22745 0.61808
 H442 H 0.54551 0.22589 0.63822
 H443 H 0.52929 0.27997 0.66637
 H444 H 0.44686 0.26915 0.60250
 H445 H 0.41618 0.27488 0.61994
 H446 H 0.44499 0.25578 0.67326
 H447 H 0.47449 0.25051 0.65455
 C448 C 0.49098 0.30952 0.57222
 C449 C 0.47906 0.19486 0.58243
 C450 C 0.42770 0.26592 0.64820
 C451 C 0.54044 0.25325 0.65388
 C452 C 0.51141 0.77577 0.90774
 H453 H 0.52342 0.76593 0.90982
 C454 C 0.50919 0.79147 0.92055
 H455 H 0.51963 0.79374 0.93246
 C456 C 0.48326 0.78479 0.88959
 H457 H 0.47298 0.78196 0.87772
 C458 C 0.48048 0.80068 0.90205
 H459 H 0.46795 0.80976 0.89957
 N460 N 0.49886 0.77306 0.89231
 C461 C 0.48944 0.72599 0.90276
 H462 H 0.47737 0.73596 0.90298
 C463 C 0.48900 0.70955 0.91464
 H464 H 0.47649 0.70687 0.92397
 C465 C 0.52047 0.71748 0.89039
 H466 H 0.53286 0.72082 0.88119
 C467 C 0.52061 0.70080 0.90200
 H468 H 0.53328 0.69161 0.90162
 Zn469 Zn 0.50374 0.75206 0.87514
 N470 N 0.50485 0.72946 0.89072
 C471 C 0.53332 0.74341 0.84828
 N472 N 0.52769 0.75654 0.86199
 C473 C 0.53887 0.77272 0.86619
 C474 C 0.55687 0.77575 0.85708
 C475 C 0.55120 0.74590 0.83869
 C476 C 0.47179 0.73285 0.85599
 C477 C 0.45567 0.73123 0.84330
 C478 C 0.46427 0.76293 0.83040
 C479 C 0.48024 0.76392 0.84339
 N480 N 0.48330 0.74927 0.85628
 H481 H 0.52401 0.73079 0.84502
 H482 H 0.53396 0.78332 0.87669
 H483 H 0.56561 0.78862 0.86094
 H484 H 0.55524 0.73483 0.82827
 H485 H 0.47487 0.72103 0.86582
 H486 H 0.44695 0.71794 0.84383
 H487 H 0.46176 0.77508 0.82070
 H488 H 0.48989 0.77666 0.84363
 C489 C 0.50454 0.69654 0.91411
 C490 C 0.49389 0.80444 0.91748
 C491 C 0.45130 0.74670 0.83059
 C492 C 0.56343 0.76223 0.84320
 C493 C -0.23622 0.65679 0.97219
 H494 H -0.22249 0.65816 0.98022
 C495 C -0.23860 0.66648 0.95437
 H496 H -0.22655 0.67519 0.94866
 C497 C -0.26838 0.64313 0.96944
 H498 H -0.28010 0.63423 0.97536
 C499 C -0.27119 0.65215 0.95145
 H500 H -0.28494 0.64987 0.94358
 N501 N -0.25097 0.64522 0.97924
 C502 C -0.24213 0.63924 1.04236
 H503 H -0.24229 0.62350 1.04340
 C504 C -0.23924 0.65057 1.05919
 H505 H -0.23772 0.64285 1.07280
 C506 C -0.24497 0.66742 1.02291
 H507 H -0.24724 0.67391 1.00872
 C508 C -0.24239 0.67943 1.03947
 H509 H -0.24267 0.69510 1.03767
 Zn510 Zn -0.24709 0.63068 1.00247
 N511 N -0.24451 0.64770 1.02460
 C512 C -0.20938 0.61723 1.01390
 N513 N -0.22373 0.61585 0.99991
 C514 C -0.22156 0.60414 0.98395
 C515 C -0.20512 0.59241 0.98224
 C516 C -0.19282 0.60567 1.01289
 C517 C -0.28176 0.61674 1.02109
 C518 C -0.29905 0.60565 1.02288
 C519 C -0.29095 0.58829 0.99331
 C520 C -0.27361 0.59947 0.99231
 N521 N -0.26943 0.61363 1.00590
 H522 H -0.21057 0.62732 1.02595
 H523 H -0.23251 0.60395 0.97241
 H524 H -0.20392 0.58304 0.96949
 H525 H -0.18194 0.60742 1.02440
 H526 H -0.27862 0.62829 1.03155
 H527 H -0.30870 0.60868 1.03498
 H528 H -0.29367 0.57734 0.98210
 H529 H -0.26390 0.59732 0.98017
 C530 C -0.23899 0.67115 1.05801
 C531 C -0.25620 0.66391 0.94369
 C532 C -0.30420 0.59151 1.00863
 C533 C -0.19062 0.59266 0.99705
 C534 C -0.23317 0.35790 0.52828
 H535 H -0.22171 0.36845 0.52500
 C536 C -0.23182 0.34730 0.54454
 H537 H -0.21930 0.34960 0.55426
 C538 C -0.26306 0.34183 0.51835
 H539 H -0.27525 0.33994 0.50820
 C540 C -0.26220 0.32977 0.53620
 H541 H -0.27409 0.31942 0.53855
 N542 N -0.24973 0.35533 0.51524
 C543 C -0.25828 0.36740 0.45299
 H544 H -0.26175 0.38263 0.45351
 C545 C -0.25855 0.35770 0.43500
 H546 H -0.26242 0.36563 0.42190
 C547 C -0.24863 0.33871 0.46919
 H548 H -0.24454 0.33143 0.48255
 C549 C -0.24856 0.32843 0.45138
 H550 H -0.24483 0.31320 0.45140
 Zn551 Zn -0.25218 0.37244 0.49356
 N552 N -0.25341 0.35789 0.46968
 C553 C -0.22815 0.40337 0.50743
 N554 N -0.23008 0.38961 0.49308
 C555 C -0.21651 0.38808 0.47874
 C556 C -0.19999 0.40050 0.47865
 C557 C -0.21182 0.41600 0.50800
 C558 C -0.28905 0.38390 0.50948
 C559 C -0.30534 0.39583 0.51125
 C560 C -0.29188 0.41642 0.48600
 C561 C -0.27584 0.40420 0.48485
 N562 N -0.27484 0.38805 0.49620
 H563 H -0.23922 0.40432 0.51861
 H564 H -0.21832 0.37699 0.46750
 H565 H -0.18946 0.39845 0.46718
 H566 H -0.21050 0.42665 0.51977
 H567 H -0.28787 0.37137 0.51881
 H568 H -0.31636 0.39175 0.52178
 H569 H -0.29231 0.42909 0.47663
 H570 H -0.26399 0.40783 0.47505
 C571 C -0.25347 0.33804 0.43395
 C572 C -0.24738 0.33265 0.54924
 C573 C -0.30701 0.41239 0.49928
 C574 C -0.19734 0.41470 0.49356
 C575 C 0.26498 -0.14080 0.03559
 H576 H 0.27702 -0.13088 0.03237
 C577 C 0.26536 -0.15115 0.05209
 H578 H 0.27772 -0.14932 0.06208
 C579 C 0.23448 -0.15541 0.02531
 H580 H 0.22245 -0.15681 0.01490
 C581 C 0.23424 -0.16717 0.04335
 H582 H 0.22179 -0.17687 0.04555
 N583 N 0.24867 -0.14283 0.02218
 C584 C 0.22864 -0.14302 -0.03475
 H585 H 0.21741 -0.13256 -0.03191
 C586 C 0.22695 -0.15510 -0.05123
 H587 H 0.21448 -0.15360 -0.06102
 C588 C 0.25830 -0.15787 -0.02543
 H589 H 0.27050 -0.15880 -0.01524
 C590 C 0.25722 -0.17024 -0.04180
 H591 H 0.26882 -0.18048 -0.04397
 Zn592 Zn 0.24726 -0.12722 -0.00057
 N593 N 0.24437 -0.14428 -0.02247
 C594 C 0.28262 -0.11353 -0.01842
 N595 N 0.27037 -0.11138 -0.00300
 C596 C 0.27402 -0.09750 0.01094
 C597 C 0.29085 -0.08553 0.01010
 C598 C 0.29965 -0.10192 -0.01984
 C599 C 0.21360 -0.11076 0.01695
 C600 C 0.19756 -0.09847 0.01804
 C601 C 0.20673 -0.08499 -0.01320
 C602 C 0.22261 -0.09751 -0.01364
 N603 N 0.22556 -0.11033 0.00113
 H604 H 0.27927 -0.12424 -0.02969
 H605 H 0.26387 -0.09584 0.02288
 H606 H 0.29312 -0.07494 0.02170
 H607 H 0.30925 -0.10412 -0.03217
 H608 H 0.21643 -0.12065 0.02882
 H609 H 0.18841 -0.09959 0.03079
 H610 H 0.20458 -0.07513 -0.02532
 H611 H 0.23252 -0.09719 -0.02590
 C612 C 0.24145 -0.16877 -0.05512
 C613 C 0.24897 -0.16499 0.05661
 C614 C 0.19377 -0.08537 0.00270
 C615 C 0.30417 -0.08774 -0.00542
 C616 C 0.24662 1.15688 0.47644
 H617 H 0.23436 1.15732 0.48635
 C618 C 0.24675 1.16865 0.45977
 H619 H 0.23452 1.17808 0.45722
 C620 C 0.27726 1.14387 0.46793
 H621 H 0.28916 1.13421 0.47103
 C622 C 0.27804 1.15540 0.45123
 H623 H 0.29054 1.15433 0.44165
 N624 N 0.26144 1.14433 0.47987
 C625 C 0.25588 1.12764 0.54151
 H626 H 0.25619 1.11201 0.54009
 C627 C 0.25378 1.13592 0.56002
 H628 H 0.25222 1.12647 0.57257
 C629 C 0.25799 1.15888 0.52710
 H630 H 0.25970 1.16778 0.51422
 C631 C 0.25608 1.16784 0.54548
 H632 H 0.25598 1.18358 0.54641
 Zn633 Zn 0.26004 1.12609 0.50082
 N634 N 0.25772 1.13907 0.52543
 C635 C 0.29704 1.11415 0.51517
 N636 N 0.28304 1.11114 0.50108
 C637 C 0.28522 1.09754 0.48675
 C638 C 0.30214 1.08649 0.48604
 C639 C 0.31417 1.10335 0.51511
 C640 C 0.22373 1.11213 0.48380
 C641 C 0.20736 1.09959 0.48201
 C642 C 0.22146 1.07923 0.50690
 C643 C 0.23758 1.09209 0.50806
 N644 N 0.23821 1.10852 0.49706
 H645 H 0.29507 1.12517 0.52633
 H646 H 0.27384 1.09545 0.47572
 H647 H 0.30358 1.07588 0.47434
 H648 H 0.32497 1.10651 0.52642
 H649 H 0.22461 1.12486 0.47468
 H650 H 0.19603 1.10343 0.47169
 H651 H 0.22120 1.06648 0.51618
 H652 H 0.24967 1.08883 0.51775
 C653 C 0.25389 1.15622 0.56223
 C654 C 0.26246 1.16761 0.44663
 C655 C 0.20585 1.08296 0.49397
 C656 C 0.31701 1.08927 0.50029
 C657 C 0.15477 0.46988 0.25245
 H658 H 0.16327 0.48326 0.25447
 C659 C 0.16420 0.45190 0.25182
 H660 H 0.18003 0.45147 0.25311
 C661 C 0.12379 0.45389 0.24831
 H662 H 0.10800 0.45480 0.24709
 C663 C 0.13260 0.43584 0.24691
 H664 H 0.12356 0.42283 0.24452
 N665 N 0.13490 0.47049 0.25048
 C666 C 0.13511 0.52813 0.26914
 H667 H 0.12618 0.52370 0.28133
 C668 C 0.14517 0.54602 0.27013
 H669 H 0.14411 0.55493 0.28323
 C670 C 0.14678 0.52248 0.23710
 H671 H 0.14713 0.51326 0.22419
 C672 C 0.15677 0.54058 0.23731
 H673 H 0.16512 0.54500 0.22465
 Zn674 Zn 0.12008 0.49359 0.25108
 N675 N 0.13606 0.51669 0.25282
 C676 C 0.11554 0.48749 0.29022
 N677 N 0.10470 0.49143 0.27399
 C678 C 0.08493 0.49352 0.27501
 C679 C 0.07553 0.49265 0.29317
 C680 C 0.10686 0.48652 0.30852
 C681 C 0.11088 0.48297 0.21255
 C682 C 0.10155 0.48332 0.19437
 C683 C 0.08046 0.50839 0.20651
 C684 C 0.09039 0.50762 0.22460
 N685 N 0.10505 0.49473 0.22740
 H686 H 0.13120 0.48563 0.28898
 H687 H 0.07646 0.49614 0.26188
 H688 H 0.05990 0.49484 0.29351
 H689 H 0.11606 0.48382 0.32121
 H690 H 0.12321 0.47358 0.21452
 H691 H 0.10666 0.47375 0.18289
 H692 H 0.06893 0.51881 0.20479
 H693 H 0.08655 0.51748 0.23630
 C694 C 0.15583 0.55265 0.25399
 C695 C 0.15298 0.43469 0.24871
 C696 C 0.08606 0.49604 0.19102
 C697 C 0.08665 0.48942 0.31036
 C698 C -0.16211 1.01454 0.24797
 H699 H -0.16851 1.00024 0.24510
 C700 C -0.17393 1.03100 0.24736
 H701 H -0.18943 1.02926 0.24399
 C702 C -0.13414 1.03444 0.25547
 H703 H -0.11851 1.03569 0.25828
 C704 C -0.14538 1.05115 0.25522
 H705 H -0.13812 1.06516 0.25761
 N706 N -0.14254 1.01660 0.25178
 C707 C -0.13531 0.95934 0.26838
 H708 H -0.12602 0.96423 0.28040
 C709 C -0.14453 0.94105 0.26938
 H710 H -0.14242 0.93225 0.28232
 C711 C -0.14905 0.96451 0.23691
 H712 H -0.15071 0.97378 0.22428
 C713 C -0.15838 0.94607 0.23720
 H714 H -0.16746 0.94145 0.22485
 Zn715 Zn -0.12471 0.99570 0.25194
 N716 N -0.13789 0.97085 0.25246
 C717 C -0.12011 1.00131 0.29171
 N718 N -0.10944 0.99924 0.27518
 C719 C -0.08950 1.00051 0.27573
 C720 C -0.07952 1.00353 0.29361
 C721 C -0.11085 1.00428 0.30977
 C722 C -0.09470 0.98448 0.22538
 C723 C -0.08413 0.98545 0.20788
 C724 C -0.10382 1.01261 0.19813
 C725 C -0.11388 1.01114 0.21569
 N726 N -0.10921 0.99730 0.22898
 H727 H -0.13597 1.00054 0.29082
 H728 H -0.08129 0.99922 0.26235
 H729 H -0.06369 1.00429 0.29351
 H730 H -0.11983 1.00570 0.32268
 H731 H -0.09148 0.97335 0.23601
 H732 H -0.07282 0.97494 0.20548
 H733 H -0.10805 1.02375 0.18783
 H734 H -0.12571 1.02094 0.21845
 C735 C -0.15617 0.93412 0.25369
 C736 C -0.16558 1.04957 0.25112
 C737 C -0.08874 0.99970 0.19386
 C738 C -0.09028 1.00538 0.31106
 C739 C 0.35782 0.52391 -0.23043
 H740 H 0.36619 0.52030 -0.21749
 C741 C 0.34542 0.53983 -0.22989
 H742 H 0.34441 0.54797 -0.21635
 C743 C 0.34864 0.51709 -0.26334
 H744 H 0.35019 0.50830 -0.27643
 C745 C 0.33613 0.53296 -0.26348
 H746 H 0.32801 0.53622 -0.27673
 N747 N 0.35970 0.51326 -0.24717
 C748 C 0.37944 0.45163 -0.24582
 H749 H 0.39503 0.45361 -0.24325
 C750 C 0.37142 0.43368 -0.24531
 H751 H 0.38073 0.42137 -0.24258
 C752 C 0.34855 0.46616 -0.25190
 H753 H 0.33960 0.47876 -0.25404
 C754 C 0.33913 0.44652 -0.25210
 H755 H 0.32341 0.44554 -0.25417
 Zn756 Zn 0.37932 0.49385 -0.24824
 N757 N 0.36740 0.46832 -0.24894
 C758 C 0.39721 0.48345 -0.21169
 N759 N 0.39591 0.49718 -0.22588
 C760 C 0.40581 0.51455 -0.22418
 C761 C 0.41722 0.51883 -0.20753
 C762 C 0.40913 0.48678 -0.19519
 C763 C 0.40676 0.48344 -0.27739
 C764 C 0.41770 0.48584 -0.29444
 C765 C 0.40456 0.51803 -0.29773
 C766 C 0.39400 0.51504 -0.28057
 N767 N 0.39488 0.49777 -0.27099
 H768 H 0.38861 0.47010 -0.21276
 H769 H 0.40435 0.52533 -0.23555
 H770 H 0.42457 0.53297 -0.20628
 H771 H 0.40939 0.47570 -0.18402
 H772 H 0.40763 0.46997 -0.26944
 H773 H 0.42654 0.47385 -0.29914
 H774 H 0.40330 0.53183 -0.30521
 H775 H 0.38514 0.52661 -0.27494
 C776 C 0.35005 0.43069 -0.24873
 C777 C 0.33485 0.54495 -0.24681
 C778 C 0.41651 0.50331 -0.30508
 C779 C 0.41921 0.50481 -0.19282
 C780 C 0.63976 -0.03373 -0.22758
 H781 H 0.63074 -0.03075 -0.21505
 C782 C 0.65160 -0.04904 -0.22726
 H783 H 0.65176 -0.05790 -0.21427
 C784 C 0.65083 -0.02374 -0.25900
 H785 H 0.64990 -0.01442 -0.27166
 C786 C 0.66426 -0.04036 -0.25925
 H787 H 0.67320 -0.04250 -0.27208
 N788 N 0.63894 -0.02129 -0.24442
 C789 C 0.61734 0.03876 -0.24445
 H790 H 0.60212 0.03596 -0.24103
 C791 C 0.62415 0.05801 -0.24584
 H792 H 0.61388 0.06962 -0.24350
 C793 C 0.64893 0.02707 -0.25116
 H794 H 0.65866 0.01502 -0.25300
 C795 C 0.65630 0.04616 -0.25332
 H796 H 0.67170 0.04810 -0.25652
 Zn797 Zn 0.61876 -0.00235 -0.24596
 N798 N 0.62967 0.02366 -0.24702
 C799 C 0.60130 0.00851 -0.20960
 N800 N 0.60220 -0.00541 -0.22384
 C801 C 0.59179 -0.02248 -0.22239
 C802 C 0.58014 -0.02617 -0.20604
 C803 C 0.58916 0.00581 -0.19346
 C804 C 0.58954 0.00635 -0.27406
 C805 C 0.57990 0.00526 -0.29221
 C806 C 0.59777 -0.02382 -0.29951
 C807 C 0.60703 -0.02214 -0.28122
 N808 N 0.60341 -0.00676 -0.26920
 H809 H 0.61035 0.02157 -0.21040
 H810 H 0.59294 -0.03345 -0.23376
 H811 H 0.57231 -0.04004 -0.20502
 H812 H 0.58917 0.01707 -0.18229
 H813 H 0.58624 0.01806 -0.26411
 H814 H 0.56952 0.01642 -0.29558
 H815 H 0.60146 -0.03586 -0.30905
 H816 H 0.61738 -0.03300 -0.27689
 C817 C 0.64379 0.06210 -0.25069
 C818 C 0.66425 -0.05319 -0.24440
 C819 C 0.58444 -0.00969 -0.30558
 C820 C 0.57842 -0.01182 -0.19141
 C821 C 0.01690 0.26497 0.83893
 H822 H 0.00751 0.27747 0.83851
 C823 C 0.03395 0.26485 0.82781
 H824 H 0.03762 0.27730 0.81879
 C825 C 0.02379 0.23375 0.85155
 H826 H 0.01987 0.22167 0.86088
 C827 C 0.04094 0.23301 0.84068
 H828 H 0.04969 0.22009 0.84151
 N829 N 0.01225 0.24963 0.85066
 C830 C -0.05076 0.25138 0.86024
 H831 H -0.05131 0.24858 0.87574
 C832 C -0.06822 0.25255 0.84958
 H833 H -0.08197 0.25077 0.85719
 C834 C -0.03219 0.25495 0.83133
 H835 H -0.01819 0.25533 0.82413
 C836 C -0.04932 0.25609 0.82007
 H837 H -0.04832 0.25764 0.80434
 Zn838 Zn -0.01025 0.25046 0.86670
 N839 N -0.03318 0.25294 0.85112
 C840 C -0.02206 0.27444 0.89816
 N841 N -0.00774 0.27164 0.88479
 C842 C 0.00829 0.28378 0.88422
 C843 C 0.00981 0.30005 0.89657
 C844 C -0.02110 0.29044 0.91089
 C845 C -0.01949 0.21092 0.87025
 C846 C -0.02098 0.19288 0.87941
 C847 C -0.00849 0.20798 0.90927
 C848 C -0.00730 0.22576 0.89950
 N849 N -0.01266 0.22684 0.88034
 H850 H -0.03427 0.26424 0.89908
 H851 H 0.01999 0.28097 0.87417
 H852 H 0.02281 0.30922 0.89545
 H853 H -0.03289 0.29247 0.92118
 H854 H -0.02358 0.21224 0.85498
 H855 H -0.02631 0.18036 0.87099
 H856 H -0.00397 0.20786 0.92445
 H857 H -0.00178 0.23864 0.90715
 C858 C -0.06759 0.25515 0.82923
 C859 C 0.04640 0.24891 0.82892
 C860 C -0.01527 0.19107 0.89914
 C861 C -0.00528 0.30386 0.90992
 C862 C 0.46702 0.27153 0.13933
 H863 H 0.47295 0.28429 0.13219
 C864 C 0.44864 0.27238 0.14796
 H865 H 0.44040 0.28568 0.14704
 C866 C 0.47036 0.23878 0.14940
 H867 H 0.47874 0.22562 0.14966
 C868 C 0.45219 0.23914 0.15862
 H869 H 0.44664 0.22613 0.16574
 N870 N 0.47718 0.25467 0.13956
 C871 C 0.53954 0.24609 0.13308
 H872 H 0.54004 0.24380 0.11740
 C873 C 0.55643 0.24409 0.14443
 H874 H 0.56983 0.23997 0.13730
 C875 C 0.52102 0.25339 0.16129
 H876 H 0.50711 0.25697 0.16772
 C877 C 0.53763 0.25148 0.17326
 H878 H 0.53649 0.25369 0.18892
 Zn879 Zn 0.50046 0.25290 0.12478
 N880 N 0.52237 0.25087 0.14158
 C881 C 0.51994 0.28666 0.11029
 N882 N 0.50333 0.27537 0.10892
 C883 C 0.48811 0.28047 0.09713
 C884 C 0.48878 0.29803 0.08696
 C885 C 0.52150 0.30404 0.09991
 C886 C 0.50318 0.21304 0.11826
 C887 C 0.50383 0.19562 0.10771
 C888 C 0.49633 0.21342 0.07828
 C889 C 0.49605 0.23056 0.08942
 N890 N 0.49935 0.23006 0.10908
 H891 H 0.53187 0.28248 0.11976
 H892 H 0.47507 0.27121 0.09623
 H893 H 0.47632 0.30161 0.07788
 H894 H 0.53478 0.31292 0.10144
 H895 H 0.50618 0.21305 0.13384
 H896 H 0.50672 0.18253 0.11580
 H897 H 0.49367 0.21419 0.06263
 H898 H 0.49337 0.24423 0.08227
 C899 C 0.55567 0.24712 0.16477
 C900 C 0.44098 0.25601 0.15753
 C901 C 0.50052 0.19561 0.08729
 C902 C 0.50556 0.31032 0.08858
 C903 C -0.02914 0.77959 0.63959
 H904 H -0.02428 0.79142 0.63037
 C905 C -0.04524 0.78161 0.65030
 H906 H -0.05337 0.79497 0.64934
 C907 C -0.02288 0.74823 0.65277
 H908 H -0.01462 0.73500 0.65318
 C909 C -0.04029 0.75003 0.66530
 H910 H -0.04422 0.73778 0.67442
 N911 N -0.01837 0.76182 0.64029
 C912 C 0.04121 0.74977 0.62247
 H913 H 0.03831 0.74493 0.60758
 C914 C 0.06029 0.74980 0.62995
 H915 H 0.07210 0.74482 0.62082
 C916 C 0.02933 0.76263 0.65231
 H917 H 0.01721 0.76795 0.66075
 C918 C 0.04821 0.76273 0.66047
 H919 H 0.05046 0.76829 0.67521
 Zn920 Zn 0.00140 0.75744 0.62147
 N921 N 0.02628 0.75639 0.63356
 C922 C 0.01878 0.78778 0.59954
 N923 N 0.00167 0.77790 0.60295
 C924 C -0.01527 0.78283 0.59372
 C925 C -0.01562 0.79883 0.58123
 C926 C 0.01926 0.80341 0.58668
 C927 C 0.00143 0.71691 0.61857
 C928 C -0.00003 0.69867 0.60947
 C929 C -0.01154 0.71437 0.58010
 C930 C -0.00970 0.73232 0.58975
 N931 N -0.00330 0.73327 0.60865
 H932 H 0.03212 0.78384 0.60699
 H933 H -0.02868 0.77462 0.59651
 H934 H -0.02938 0.80241 0.57428
 H935 H 0.03307 0.81115 0.58438
 H936 H 0.00699 0.71807 0.63342
 H937 H 0.00397 0.68617 0.61800
 H938 H -0.01649 0.71403 0.56496
 H939 H -0.01306 0.74546 0.58194
 C940 C 0.06397 0.75631 0.64915
 C941 C -0.05166 0.76579 0.66360
 C942 C -0.00636 0.69720 0.58977
 C943 C 0.00184 0.80957 0.57781
 C944 C 0.51756 0.76003 0.33349
 H945 H 0.50396 0.76500 0.32722
 C946 C 0.53436 0.75954 0.32192
 H947 H 0.53349 0.76389 0.30673
 C948 C 0.53555 0.74905 0.36097
 H949 H 0.53607 0.74539 0.37630
 C950 C 0.55263 0.74836 0.35000
 H951 H 0.56610 0.74435 0.35727
 N952 N 0.51841 0.75464 0.35261
 C953 C 0.46166 0.77577 0.35994
 H954 H 0.46599 0.78500 0.37217
 C955 C 0.44383 0.77892 0.35043
 H956 H 0.43458 0.79050 0.35555
 C957 C 0.46819 0.74944 0.33854
 H958 H 0.47782 0.73797 0.33399
 C959 C 0.45051 0.75213 0.32855
 H960 H 0.44700 0.74276 0.31616
 Zn961 Zn 0.49615 0.75549 0.36902
 N962 N 0.47319 0.76087 0.35425
 C963 C 0.51434 0.78926 0.38482
 N964 N 0.50026 0.77536 0.38794
 C965 C 0.48854 0.77605 0.40389
 C966 C 0.49034 0.79159 0.41716
 C967 C 0.51671 0.80500 0.39770
 C968 C 0.50498 0.72808 0.39782
 C969 C 0.50395 0.71036 0.40771
 C970 C 0.47813 0.69969 0.38538
 C971 C 0.47964 0.71764 0.37599
 N972 N 0.49314 0.73131 0.38210
 H973 H 0.52342 0.78845 0.37197
 H974 H 0.47743 0.76478 0.40599
 H975 H 0.48051 0.79207 0.42951
 H976 H 0.52788 0.81577 0.39426
 H977 H 0.51528 0.73932 0.40276
 H978 H 0.51387 0.70852 0.41994
 H979 H 0.46742 0.68896 0.38002
 H980 H 0.47007 0.72046 0.36372
 C981 C 0.43778 0.76670 0.33488
 C982 C 0.55212 0.75340 0.33009
 C983 C 0.49046 0.69567 0.40139
 C984 C 0.50432 0.80661 0.41404
 Zr985 Zr 0.02033 -0.00504 1.03260
 O986 O 0.03760 0.00590 1.05636
 O987 O 0.01758 -0.03465 1.03941
 O988 O 0.00515 -0.00752 1.05931
 O989 O 0.05908 -0.00946 1.00060
 O990 O -0.02409 0.00686 1.05304
 O991 O 0.04916 -0.01568 1.03180
 O992 O -0.00270 -0.04694 1.01532
 O993 O -0.00889 -0.01128 1.02457
 O994 O 0.02108 -0.01806 1.00486
 O995 O 0.00620 0.02190 1.03322
 O996 O 0.03531 0.01516 1.01466
 Zr997 Zr -0.00842 0.02322 0.97767
 Zr998 Zr -0.02258 0.01573 1.02363
 Zr999 Zr 0.03441 0.00237 0.98664
 Zr1000 Zr -0.00794 -0.02328 0.99648
 O1001 O 0.05942 0.02012 0.98082
 O1002 O -0.03569 -0.03456 1.00516
 O1003 O 0.00565 -0.00389 0.97687
 O1004 O -0.02305 0.00295 0.99568
 O1005 O -0.00934 0.03643 1.00536
 O1006 O 0.02073 0.02922 0.98587
 C1007 C 0.00777 -0.04861 1.03101
 C1008 C 0.06194 -0.01593 1.01803
 C1009 C -0.01199 -0.00193 1.06438
 O1010 O -0.04878 -0.00090 1.02728
 O1011 O -0.04624 0.03018 1.01048
 O1012 O -0.03637 0.03570 0.97913
 C1013 C -0.04888 0.03680 0.99307
 O1014 O 0.03911 0.04561 1.03828
 Zr1015 Zr 0.01984 0.04131 1.01387
 O1016 O -0.00536 0.05296 0.97091
 O1017 O -0.02914 0.04014 1.04130
 O1018 O 0.00697 0.06222 1.03250
 O1019 O 0.04657 0.05437 1.00444
 O1020 O 0.01253 0.06550 0.99667
 C1021 C 0.00289 0.06719 0.98052
 O1022 O -0.02727 0.01301 0.95477
 O1023 O 0.04251 -0.02292 0.97099
 O1024 O 0.00543 0.02281 0.95012
 O1025 O 0.03417 0.00751 0.95634
 O1026 O 0.00493 -0.04551 0.97948
 O1027 O -0.02461 -0.02849 0.97041
 C1028 C 0.02176 0.01547 0.94471
 H1029 H 0.02843 -0.03034 1.00462
 H1030 H -0.03664 0.00034 0.99097
 H1031 H 0.02753 0.03811 0.97668
 H1032 H 0.00650 0.02760 1.04658
 H1033 H -0.03589 -0.04878 1.00247
 H1034 H -0.05708 0.00653 1.03638
 H1035 H -0.04246 0.03772 1.04656
 H1036 H 0.01432 0.07471 1.03086
 H1037 H -0.00286 -0.05768 0.98151
 H1038 H 0.05574 -0.02025 0.96564
 H1039 H 0.06777 0.01254 0.97190
 H1040 H 0.04626 0.06840 1.00793
 H1041 H -0.03020 -0.04194 0.97054
 H1042 H -0.02995 0.02425 0.94615
 H1043 H 0.04060 -0.00532 1.06490
 H1044 H 0.04216 0.05970 1.03997
 Zr1045 Zr 0.52110 0.49552 0.53098
 O1046 O 0.53939 0.50524 0.55451
 O1047 O 0.51658 0.46606 0.53768
 O1048 O 0.50627 0.49382 0.55793
 O1049 O 0.55902 0.48931 0.49840
 O1050 O 0.47805 0.51027 0.55238
 O1051 O 0.54915 0.48318 0.52964
 O1052 O 0.49560 0.45494 0.51362
 O1053 O 0.49151 0.49100 0.52341
 O1054 O 0.52067 0.48262 0.50315
 O1055 O 0.50867 0.52328 0.53201
 O1056 O 0.53692 0.51497 0.51290
 Zr1057 Zr 0.49319 0.52590 0.47677
 Zr1058 Zr 0.47948 0.51882 0.52290
 Zr1059 Zr 0.53481 0.50240 0.48482
 Zr1060 Zr 0.49132 0.47914 0.49520
 O1061 O 0.56056 0.51881 0.47839
 O1062 O 0.46320 0.46931 0.50438
 O1063 O 0.50560 0.49796 0.47551
 O1064 O 0.47782 0.50625 0.49488
 O1065 O 0.49351 0.53897 0.50456
 O1066 O 0.52275 0.53007 0.48449
 C1067 C 0.50605 0.45265 0.52924
 C1068 C 0.56172 0.48247 0.51572
 C1069 C 0.48974 0.50063 0.56341
 O1070 O 0.45262 0.50348 0.52721
 O1071 O 0.45628 0.53417 0.51017
 O1072 O 0.46579 0.53955 0.47869
 C1073 C 0.45352 0.54089 0.49283
 O1074 O 0.54281 0.54512 0.53674
 Zr1075 Zr 0.52306 0.54204 0.51256
 O1076 O 0.49765 0.55558 0.47033
 O1077 O 0.47453 0.54369 0.54051
 O1078 O 0.51167 0.56363 0.53141
 O1079 O 0.55043 0.55341 0.50288
 O1080 O 0.51722 0.56674 0.49550
 C1081 C 0.50723 0.56917 0.47967
 O1082 O 0.47374 0.51684 0.45390
 O1083 O 0.54133 0.47667 0.46909
 O1084 O 0.50690 0.52541 0.44916
 O1085 O 0.53411 0.50730 0.45448
 O1086 O 0.50270 0.45652 0.47761
 O1087 O 0.47380 0.47503 0.46950
 C1088 C 0.52232 0.51666 0.44331
 H1089 H 0.52730 0.46994 0.50271
 H1090 H 0.46405 0.50437 0.49039
 H1091 H 0.52991 0.53863 0.47526
 H1092 H 0.50953 0.52890 0.54539
 H1093 H 0.46215 0.45513 0.50155
 H1094 H 0.44489 0.51136 0.53645
 H1095 H 0.46123 0.54198 0.54604
 H1096 H 0.51971 0.57570 0.52972
 H1097 H 0.49442 0.44468 0.47970
 H1098 H 0.55459 0.47864 0.46353
 H1099 H 0.56829 0.51074 0.46933
 H1100 H 0.55108 0.56745 0.50643
 H1101 H 0.46767 0.46181 0.46958
 H1102 H 0.47156 0.52832 0.44545
 H1103 H 0.54178 0.49380 0.56294
 H1104 H 0.54666 0.55903 0.53848
 Zr1105 Zr 0.49543 1.01708 0.52319
 O1106 O 0.47744 1.00595 0.54580
 O1107 O 0.49895 1.04654 0.53151
 O1108 O 0.51003 1.01784 0.55057
 O1109 O 0.45716 1.02330 0.49032
 O1110 O 0.53882 1.00255 0.54485
 O1111 O 0.46691 1.02827 0.52207
 O1112 O 0.52073 1.05854 0.50924
 O1113 O 0.52485 1.02292 0.51648
 O1114 O 0.49531 1.03105 0.49612
 O1115 O 0.50883 0.98973 0.52285
 O1116 O 0.48036 0.99767 0.50380
 Zr1117 Zr 0.52438 0.99024 0.46786
 Zr1118 Zr 0.53786 0.99564 0.51474
 Zr1119 Zr 0.48175 1.01146 0.47653
 Zr1120 Zr 0.52455 1.03581 0.48890
 O1121 O 0.45624 0.99462 0.46944
 O1122 O 0.55276 1.04613 0.49806
 O1123 O 0.51072 1.01754 0.46788
 O1124 O 0.53915 1.00940 0.48747
 O1125 O 0.52463 0.97593 0.49483
 O1126 O 0.49504 0.98442 0.47479
 C1127 C 0.50995 1.06021 0.52444
 C1128 C 0.45424 1.02911 0.50801
 C1129 C 0.52662 1.01108 0.55615
 O1130 O 0.56404 1.01191 0.52051
 O1131 O 0.56137 0.98140 0.50162
 O1132 O 0.55209 0.97712 0.46963
 C1133 C 0.56426 0.97533 0.48403
 O1134 O 0.47555 0.96608 0.52542
 Zr1135 Zr 0.49529 0.97117 0.50203
 O1136 O 0.52120 0.96095 0.45944
 O1137 O 0.54392 0.97032 0.53102
 O1138 O 0.50764 0.94944 0.51999
 O1139 O 0.46851 0.95898 0.49094
 O1140 O 0.50262 0.94749 0.48366
 C1141 C 0.51269 0.94642 0.46783
 O1142 O 0.54360 1.00114 0.44616
 O1143 O 0.47474 1.03736 0.46161
 O1144 O 0.51064 0.99157 0.43997
 O1145 O 0.48163 1.00631 0.44619
 O1146 O 0.51219 1.05933 0.47343
 O1147 O 0.54094 1.04129 0.46314
 C1148 C 0.49397 0.99839 0.43460
 H1149 H 0.48827 1.04352 0.49634
 H1150 H 0.55285 1.01190 0.48338
 H1151 H 0.48821 0.97590 0.46502
 H1152 H 0.50813 0.98348 0.53585
 H1153 H 0.55337 1.06038 0.49580
 H1154 H 0.57219 1.00387 0.52926
 H1155 H 0.55721 0.97227 0.53684
 H1156 H 0.50029 0.93707 0.51729
 H1157 H 0.52055 1.07107 0.47616
 H1158 H 0.46144 1.03527 0.45588
 H1159 H 0.44808 1.00267 0.46070
 H1160 H 0.46864 0.94478 0.49345
 H1161 H 0.54663 1.05469 0.46371
 H1162 H 0.54623 0.99020 0.43704
 H1163 H 0.47470 1.01694 0.55482
 H1164 H 0.47237 0.95196 0.52620
 Zr1165 Zr -0.01904 0.50886 1.02578
 O1166 O -0.03653 0.49524 1.04740
 O1167 O -0.01791 0.53788 1.03553
 O1168 O -0.00493 0.51003 1.05346
 O1169 O -0.05696 0.51416 0.99217
 O1170 O 0.02539 0.49807 1.04742
 O1171 O -0.04829 0.51829 1.02434
 O1172 O 0.00190 0.55307 1.01334
 O1173 O 0.01000 0.51725 1.01987
 O1174 O -0.01969 0.52386 0.99927
 O1175 O -0.00345 0.48277 1.02476
 O1176 O -0.03233 0.48930 1.00535
 Zr1177 Zr 0.01295 0.48651 0.97011
 Zr1178 Zr 0.02521 0.49121 1.01733
 Zr1179 Zr -0.03136 0.50422 0.97865
 Zr1180 Zr 0.00922 0.53122 0.99289
 O1181 O -0.05540 0.48578 0.97047
 O1182 O 0.03597 0.54329 1.00414
 O1183 O -0.00271 0.51273 0.97091
 O1184 O 0.02587 0.50603 0.99064
 O1185 O 0.01377 0.47132 0.99656
 O1186 O -0.01607 0.47836 0.97624
 C1187 C -0.00889 0.55296 1.02872
 C1188 C -0.06060 0.51923 1.00994
 C1189 C 0.01244 0.50518 1.05888
 O1190 O 0.05042 0.50879 1.02364
 O1191 O 0.04987 0.47877 1.00436
 O1192 O 0.04147 0.47513 0.97207
 C1193 C 0.05345 0.47343 0.98667
 O1194 O -0.03488 0.45677 1.02594
 Zr1195 Zr -0.01532 0.46417 1.00300
 O1196 O 0.01196 0.45742 0.96051
 O1197 O 0.03259 0.46610 1.03338
 O1198 O -0.00153 0.44268 1.02018
 O1199 O -0.04107 0.45051 0.99117
 O1200 O -0.00624 0.44192 0.98379
 C1201 C 0.00411 0.44209 0.96811
 O1202 O 0.03181 0.49963 0.94933
 O1203 O -0.04010 0.52999 0.96445
 O1204 O -0.00034 0.48786 0.94200
 O1205 O -0.03027 0.50069 0.94812
 O1206 O -0.00432 0.55390 0.97713
 O1207 O 0.02643 0.53921 0.96832
 C1208 C -0.01720 0.49412 0.93648
 H1209 H -0.02767 0.53573 0.99968
 H1210 H 0.03946 0.50965 0.98693
 H1211 H -0.02213 0.46980 0.96600
 H1212 H -0.00380 0.47608 1.03755
 H1213 H 0.03542 0.55763 1.00270
 H1214 H 0.05884 0.50119 1.03255
 H1215 H 0.04563 0.46882 1.03948
 H1216 H -0.00797 0.42995 1.01693
 H1217 H 0.00273 0.56626 0.98062
 H1218 H -0.05309 0.52711 0.95829
 H1219 H -0.06392 0.49348 0.96174
 H1220 H -0.03998 0.43629 0.99326
 H1221 H 0.03130 0.55284 0.96998
 H1222 H 0.03546 0.48929 0.93990
 H1223 H -0.04041 0.50555 1.05677
 H1224 H -0.03696 0.44244 1.02622
 Zr1225 Zr -0.01868 0.49269 0.47311
 O1226 O -0.03595 0.50640 0.45147
 O1227 O -0.01787 0.46395 0.46248
 O1228 O -0.00465 0.49306 0.44579
 O1229 O -0.05693 0.48566 0.50537
 O1230 O 0.02601 0.50536 0.45283
 O1231 O -0.04808 0.48255 0.47338
 O1232 O 0.00191 0.44891 0.48461
 O1233 O 0.01023 0.48503 0.47948
 O1234 O -0.01966 0.47682 0.49909
 O1235 O -0.00276 0.51924 0.47531
 O1236 O -0.03175 0.51122 0.49378
 Zr1237 Zr 0.01345 0.51430 0.53026
 Zr1238 Zr 0.02576 0.51147 0.48315
 Zr1239 Zr -0.03113 0.49548 0.51998
 Zr1240 Zr 0.00917 0.47024 0.50601
 O1241 O -0.05491 0.51289 0.52836
 O1242 O 0.03589 0.45932 0.49531
 O1243 O -0.00260 0.48766 0.52823
 O1244 O 0.02614 0.49585 0.50939
 O1245 O 0.01459 0.53038 0.50432
 O1246 O -0.01546 0.52171 0.52360
 C1247 C -0.00883 0.44904 0.46899
 C1248 C -0.06057 0.48115 0.48732
 C1249 C 0.01283 0.49836 0.44090
 O1250 O 0.05083 0.49494 0.47701
 O1251 O 0.05044 0.52439 0.49718
 O1252 O 0.04232 0.52630 0.52946
 C1253 C 0.05426 0.52896 0.51516
 O1254 O -0.03354 0.54450 0.47403
 Zr1255 Zr -0.01440 0.53678 0.49734
 O1256 O 0.01244 0.54298 0.54101
 O1257 O 0.03349 0.53724 0.46796
 O1258 O 0.00004 0.55927 0.48152
 O1259 O -0.04020 0.54917 0.50865
 O1260 O -0.00554 0.55856 0.51777
 C1261 C 0.00449 0.55820 0.53385
 O1262 O 0.03209 0.50117 0.55111
 O1263 O -0.04031 0.46892 0.53292
 O1264 O 0.00005 0.51139 0.55795
 O1265 O -0.03014 0.49808 0.55062
 O1266 O -0.00480 0.44658 0.52051
 O1267 O 0.02603 0.46209 0.53087
 C1268 C -0.01699 0.50459 0.56280
 H1269 H -0.02784 0.46474 0.49804
 H1270 H 0.03968 0.49252 0.51331
 H1271 H -0.02152 0.52969 0.53394
 H1272 H -0.00298 0.52632 0.46273
 H1273 H 0.03516 0.44492 0.49635
 H1274 H 0.05938 0.50309 0.46857
 H1275 H 0.04655 0.53513 0.46218
 H1276 H -0.00619 0.57171 0.48505
 H1277 H 0.00216 0.43458 0.51684
 H1278 H -0.05330 0.47118 0.53881
 H1279 H -0.06361 0.50459 0.53649
 H1280 H -0.03895 0.56349 0.50710
 H1281 H 0.03067 0.44863 0.52903
 H1282 H 0.03573 0.51130 0.56102
 H1283 H -0.03991 0.49629 0.44165
 H1284 H -0.03522 0.55880 0.47409
 Zr1285 Zr 0.47889 -0.01106 -0.02466
 O1286 O 0.46043 0.00210 -0.04566
 O1287 O 0.47839 -0.04018 -0.03426
 O1288 O 0.49110 -0.01144 -0.05296
 O1289 O 0.44272 -0.01484 0.01035
 O1290 O 0.52299 -0.00161 -0.04785
 O1291 O 0.44919 -0.02022 -0.02194
 O1292 O 0.49880 -0.05511 -0.01263
 O1293 O 0.50785 -0.01955 -0.01969
 O1294 O 0.47906 -0.02577 0.00204
 O1295 O 0.49595 0.01491 -0.02454
 O1296 O 0.46793 0.00883 -0.00396
 Zr1297 Zr 0.51528 0.01187 0.02946
 Zr1298 Zr 0.52460 0.00637 -0.01804
 Zr1299 Zr 0.46974 -0.00579 0.02288
 Zr1300 Zr 0.50797 -0.03316 0.00750
 O1301 O 0.44736 0.01285 0.03236
 O1302 O 0.53360 -0.04549 -0.00425
 O1303 O 0.49837 -0.01431 0.02966
 O1304 O 0.52601 -0.00806 0.00881
 O1305 O 0.51539 0.02670 0.00279
 O1306 O 0.48635 0.02004 0.02425
 C1307 C 0.48730 -0.05515 -0.02773
 C1308 C 0.43761 -0.02018 -0.00712
 C1309 C 0.50865 -0.00767 -0.05888
 O1310 O 0.54879 -0.01126 -0.02458
 O1311 O 0.55047 0.01922 -0.00609
 O1312 O 0.54431 0.02274 0.02651
 C1313 C 0.55543 0.02447 0.01146
 O1314 O 0.46594 0.04105 -0.02517
 Zr1315 Zr 0.48630 0.03387 -0.00271
 O1316 O 0.51617 0.04109 0.03873
 O1317 O 0.53213 0.03097 -0.03513
 O1318 O 0.50034 0.05506 -0.02052
 O1319 O 0.46181 0.04780 0.00961
 O1320 O 0.49725 0.05631 0.01600
 C1321 C 0.50835 0.05630 0.03138
 O1322 O 0.53440 -0.00123 0.04988
 O1323 O 0.46031 -0.03154 0.03721
 O1324 O 0.50341 0.01166 0.05790
 O1325 O 0.47303 -0.00244 0.05338
 O1326 O 0.49399 -0.05559 0.02380
 O1327 O 0.52600 -0.04105 0.03163
 C1328 C 0.48689 0.00494 0.06425
 H1329 H 0.47043 -0.03756 0.00197
 H1330 H 0.53961 -0.01170 0.01212
 H1331 H 0.48125 0.02874 0.03455
 H1332 H 0.49523 0.02149 -0.03737
 H1333 H 0.53245 -0.05980 -0.00260
 H1334 H 0.55707 -0.00387 -0.03392
 H1335 H 0.54478 0.02813 -0.04144
 H1336 H 0.49470 0.06786 -0.01727
 H1337 H 0.50014 -0.06804 0.02017
 H1338 H 0.44793 -0.02850 0.04394
 H1339 H 0.43899 0.00517 0.04139
 H1340 H 0.46343 0.06197 0.00720
 H1341 H 0.52985 -0.05481 0.03012
 H1342 H 0.53912 0.00917 0.05906
 H1343 H 0.45566 -0.00834 -0.05478
 H1344 H 0.46469 0.05539 -0.02572
 Zr1345 Zr 0.51845 0.51364 -0.02455
 O1346 O 0.53645 0.50024 -0.04560
 O1347 O 0.51827 0.54245 -0.03454
 O1348 O 0.50546 0.51288 -0.05273
 O1349 O 0.55543 0.51997 0.01028
 O1350 O 0.47394 0.50246 -0.04733
 O1351 O 0.54815 0.52301 -0.02224
 O1352 O 0.49794 0.55767 -0.01325
 O1353 O 0.48945 0.52171 -0.01955
 O1354 O 0.51876 0.52920 0.00190
 O1355 O 0.50192 0.48740 -0.02394
 O1356 O 0.53049 0.49471 -0.00364
 Zr1357 Zr 0.48408 0.49174 0.03015
 Zr1358 Zr 0.47326 0.49553 -0.01735
 Zr1359 Zr 0.52911 0.51008 0.02299
 Zr1360 Zr 0.48984 0.53620 0.00739
 O1361 O 0.55254 0.49236 0.03193
 O1362 O 0.46357 0.54756 -0.00434
 O1363 O 0.50048 0.51824 0.02981
 O1364 O 0.47235 0.51079 0.00926
 O1365 O 0.48358 0.47612 0.00370
 O1366 O 0.51304 0.48399 0.02485
 C1367 C 0.50914 0.55743 -0.02834
 C1368 C 0.56000 0.52431 -0.00742
 C1369 C 0.48788 0.50844 -0.05851
 O1370 O 0.44853 0.51247 -0.02401
 O1371 O 0.44800 0.48244 -0.00503
 O1372 O 0.45518 0.48035 0.02759
 C1373 C 0.44368 0.47776 0.01267
 O1374 O 0.53256 0.46207 -0.02444
 Zr1375 Zr 0.51268 0.46941 -0.00192
 O1376 O 0.48378 0.46261 0.03960
 O1377 O 0.46573 0.47023 -0.03395
 O1378 O 0.49864 0.44732 -0.01924
 O1379 O 0.53786 0.45641 0.01040
 O1380 O 0.50288 0.44742 0.01717
 C1381 C 0.49194 0.44745 0.03240
 O1382 O 0.46517 0.50497 0.05049
 O1383 O 0.53780 0.53632 0.03744
 O1384 O 0.49657 0.49360 0.05857
 O1385 O 0.52725 0.50647 0.05346
 O1386 O 0.50377 0.55951 0.02311
 O1387 O 0.47243 0.54448 0.03158
 C1388 C 0.51359 0.49977 0.06460
 H1389 H 0.52712 0.54116 0.00158
 H1390 H 0.45876 0.51427 0.01260
 H1391 H 0.51859 0.47566 0.03520
 H1392 H 0.50242 0.48041 -0.03666
 H1393 H 0.46448 0.56194 -0.00298
 H1394 H 0.44015 0.50463 -0.03318
 H1395 H 0.45286 0.47263 -0.04027
 H1396 H 0.50474 0.43478 -0.01587
 H1397 H 0.49716 0.57167 0.01933
 H1398 H 0.55056 0.53389 0.04396
 H1399 H 0.56100 0.50040 0.04087
 H1400 H 0.53655 0.44215 0.00811
 H1401 H 0.46809 0.55804 0.02981
 H1402 H 0.46094 0.49475 0.05986
 H1403 H 0.54080 0.51049 -0.05488
 H1404 H 0.53411 0.44776 -0.02484
 Zr1405 Zr 0.02370 1.01456 0.47138
 O1406 O 0.03913 1.00108 0.44838
 O1407 O 0.02475 1.04387 0.46305
 O1408 O 0.00862 1.01662 0.44429
 O1409 O 0.06353 1.01689 0.50333
 O1410 O -0.02250 1.00613 0.45125
 O1411 O 0.05370 1.02255 0.47184
 O1412 O 0.00710 1.05906 0.48666
 O1413 O -0.00427 1.02390 0.47893
 O1414 O 0.02687 1.02862 0.49855
 O1415 O 0.00597 0.98913 0.47190
 O1416 O 0.03621 0.99396 0.49035
 Zr1417 Zr -0.00767 0.99177 0.52734
 Zr1418 Zr -0.02156 0.99841 0.48099
 Zr1419 Zr 0.03771 1.00793 0.51782
 Zr1420 Zr -0.00106 1.03692 0.50651
 O1421 O 0.06036 0.98830 0.52424
 O1422 O -0.02721 1.05038 0.49718
 O1423 O 0.01018 1.01731 0.52709
 O1424 O -0.01978 1.01240 0.50832
 O1425 O -0.01087 0.97752 0.50026
 O1426 O 0.02029 0.98264 0.51964
 C1427 C 0.01722 1.05902 0.47084
 C1428 C 0.06676 1.02225 0.48557
 C1429 C -0.00936 1.01267 0.43945
 O1430 O -0.04553 1.01704 0.47680
 O1431 O -0.04643 0.98603 0.49454
 O1432 O -0.03718 0.98193 0.52642
 C1433 C -0.04973 0.98061 0.51224
 O1434 O 0.03549 0.96242 0.46826
 Zr1435 Zr 0.01724 0.96952 0.49220
 O1436 O -0.00916 0.96226 0.53531
 O1437 O -0.03175 0.97422 0.46404
 O1438 O 0.00135 0.94911 0.47436
 O1439 O 0.04200 0.95435 0.50257
 O1440 O 0.00661 0.94711 0.51035
 C1441 C -0.00317 0.94698 0.52635
 O1442 O -0.02441 1.00492 0.54959
 O1443 O 0.04931 1.03291 0.53260
 O1444 O 0.00671 0.99196 0.55484
 O1445 O 0.03766 1.00340 0.54833
 O1446 O 0.01511 1.05861 0.52250
 O1447 O -0.01633 1.04471 0.53228
 C1448 C 0.02426 0.99723 0.56008
 H1449 H 0.03585 1.04014 0.49826
 H1450 H -0.03286 1.01640 0.51281
 H1451 H 0.02591 0.97350 0.52923
 H1452 H 0.00523 0.98281 0.45883
 H1453 H -0.02535 1.06461 0.49926
 H1454 H -0.05500 1.01001 0.46802
 H1455 H -0.04484 0.97758 0.45877
 H1456 H 0.00696 0.93611 0.47668
 H1457 H 0.00890 1.07129 0.51994
 H1458 H 0.06227 1.02934 0.53801
 H1459 H 0.06997 0.99544 0.53277
 H1460 H 0.03957 0.94030 0.49975
 H1461 H -0.02012 1.05854 0.53151
 H1462 H -0.02852 0.99449 0.55877
 H1463 H 0.04341 1.01151 0.43928
 H1464 H 0.03658 0.94808 0.46725
 Zr1465 Zr 0.74318 0.26139 0.21520
 O1466 O 0.75426 0.27853 0.19197
 O1467 O 0.71340 0.25893 0.20780
 O1468 O 0.74044 0.24651 0.18808
 O1469 O 0.73975 0.29967 0.24815
 O1470 O 0.75439 0.21714 0.19387
 O1471 O 0.73315 0.29037 0.21657
 O1472 O 0.70058 0.23914 0.23138
 O1473 O 0.73633 0.23245 0.22254
 O1474 O 0.73026 0.26229 0.24279
 O1475 O 0.76993 0.24672 0.21457
 O1476 O 0.76395 0.27575 0.23371
 Zr1477 Zr 0.77150 0.23200 0.26987
 Zr1478 Zr 0.76318 0.21822 0.22352
 Zr1479 Zr 0.75128 0.27493 0.26156
 Zr1480 Zr 0.72444 0.23355 0.25051
 O1481 O 0.76960 0.29950 0.26803
 O1482 O 0.71249 0.20617 0.24124
 O1483 O 0.74447 0.24647 0.27067
 O1484 O 0.75055 0.21801 0.25134
 O1485 O 0.78446 0.23087 0.24224
 O1486 O 0.77804 0.26084 0.26227
 C1487 C 0.69918 0.24938 0.21569
 C1488 C 0.73321 0.30290 0.23076
 C1489 C 0.74587 0.22945 0.18266
 O1490 O 0.74565 0.19272 0.21895
 O1491 O 0.77700 0.19421 0.23638
 O1492 O 0.78329 0.20388 0.26792
 C1493 C 0.78379 0.19138 0.25377
 O1494 O 0.79426 0.27908 0.21049
 Zr1495 Zr 0.78989 0.25980 0.23435
 O1496 O 0.80165 0.23437 0.27685
 O1497 O 0.78758 0.21106 0.20622
 O1498 O 0.81042 0.24678 0.21544
 O1499 O 0.80380 0.28594 0.24462
 O1500 O 0.81424 0.25172 0.25133
 C1501 C 0.81599 0.24217 0.26734
 O1502 O 0.76107 0.21353 0.29238
 O1503 O 0.72615 0.28327 0.27724
 O1504 O 0.77182 0.24589 0.29768
 O1505 O 0.75688 0.27470 0.29183
 O1506 O 0.70256 0.24695 0.26749
 O1507 O 0.71891 0.21704 0.27616
 C1508 C 0.76490 0.26232 0.30329
 H1509 H 0.71806 0.26984 0.24301
 H1510 H 0.74764 0.20455 0.25574
 H1511 H 0.78724 0.26740 0.27165
 H1512 H 0.77561 0.24694 0.20129
 H1513 H 0.69820 0.20626 0.24374
 H1514 H 0.75289 0.18428 0.20980
 H1515 H 0.78478 0.19792 0.20060
 H1516 H 0.82313 0.25388 0.21728
 H1517 H 0.69007 0.23960 0.26509
 H1518 H 0.72906 0.29639 0.28286
 H1519 H 0.76221 0.30792 0.27706
 H1520 H 0.81786 0.28533 0.24117
 H1521 H 0.70517 0.21203 0.27585
 H1522 H 0.77243 0.21062 0.30101
 H1523 H 0.74296 0.28171 0.18338
 H1524 H 0.80846 0.28193 0.20900
 Zr1525 Zr 0.77493 0.74480 0.72840
 O1526 O 0.76794 0.72786 0.70311
 O1527 O 0.80525 0.74972 0.72525
 O1528 O 0.77917 0.76062 0.70230
 O1529 O 0.77608 0.70491 0.75916
 O1530 O 0.76295 0.78886 0.70764
 O1531 O 0.78665 0.71656 0.72978
 O1532 O 0.81396 0.76799 0.75216
 O1533 O 0.77901 0.77367 0.73801
 O1534 O 0.78454 0.74329 0.75750
 O1535 O 0.74741 0.75772 0.72493
 O1536 O 0.75302 0.72855 0.74317
 Zr1537 Zr 0.73876 0.77014 0.78012
 Zr1538 Zr 0.75128 0.78614 0.73592
 Zr1539 Zr 0.76232 0.72864 0.77255
 Zr1540 Zr 0.78756 0.77194 0.76738
 O1541 O 0.74482 0.70298 0.77550
 O1542 O 0.79905 0.80008 0.76083
 O1543 O 0.76627 0.75701 0.78389
 O1544 O 0.76068 0.78600 0.76522
 O1545 O 0.72882 0.77163 0.75108
 O1546 O 0.73490 0.74131 0.77043
 C1547 C 0.81788 0.75908 0.73609
 C1548 C 0.78496 0.70307 0.74273
 C1549 C 0.77309 0.77741 0.69691
 O1550 O 0.76764 0.81268 0.73497
 O1551 O 0.73440 0.80864 0.74775
 O1552 O 0.72545 0.79756 0.77786
 C1553 C 0.72557 0.81044 0.76422
 O1554 O 0.72515 0.72489 0.71571
 Zr1555 Zr 0.72612 0.74282 0.74124
 O1556 O 0.70836 0.76541 0.78325
 O1557 O 0.72863 0.79266 0.71575
 O1558 O 0.70677 0.75595 0.72098
 O1559 O 0.71349 0.71516 0.74787
 O1560 O 0.69964 0.74784 0.75589
 C1561 C 0.69565 0.75662 0.77202
 O1562 O 0.74518 0.78850 0.80455
 O1563 O 0.78614 0.72093 0.79083
 O1564 O 0.73707 0.75551 0.80719
 O1565 O 0.75325 0.72720 0.80185
 O1566 O 0.80783 0.75927 0.78703
 O1567 O 0.78874 0.78781 0.79424
 C1568 C 0.74383 0.73905 0.81281
 H1569 H 0.79705 0.73637 0.75903
 H1570 H 0.76221 0.79941 0.77056
 H1571 H 0.72523 0.73382 0.77825
 H1572 H 0.74319 0.75769 0.71101
 H1573 H 0.81286 0.80069 0.76552
 H1574 H 0.76096 0.82107 0.72534
 H1575 H 0.73117 0.80618 0.71125
 H1576 H 0.69432 0.74821 0.72089
 H1577 H 0.81996 0.76752 0.78706
 H1578 H 0.78342 0.70742 0.79526
 H1579 H 0.75172 0.69454 0.78493
 H1580 H 0.69976 0.71498 0.74293
 H1581 H 0.80196 0.79388 0.79600
 H1582 H 0.73277 0.79022 0.81177
 H1583 H 0.78036 0.72576 0.69602
 H1584 H 0.71133 0.72157 0.71227
 Zr1585 Zr 0.23391 0.22703 0.78415
 O1586 O 0.24509 0.20981 0.80715
 O1587 O 0.20416 0.22825 0.79133
 O1588 O 0.23195 0.24124 0.81163
 O1589 O 0.22993 0.18898 0.75049
 O1590 O 0.24513 0.27155 0.80612
 O1591 O 0.22382 0.19771 0.78213
 O1592 O 0.19149 0.24827 0.76810
 O1593 O 0.22729 0.25587 0.77727
 O1594 O 0.22061 0.22613 0.75642
 O1595 O 0.26085 0.24259 0.78528
 O1596 O 0.25428 0.21376 0.76550
 Zr1597 Zr 0.26155 0.25845 0.73033
 Zr1598 Zr 0.25430 0.27102 0.77683
 Zr1599 Zr 0.24123 0.21453 0.73753
 Zr1600 Zr 0.21499 0.25485 0.74920
 O1601 O 0.25923 0.19074 0.73068
 O1602 O 0.20338 0.28168 0.75873
 O1603 O 0.23448 0.24293 0.72892
 O1604 O 0.24115 0.27141 0.74900
 O1605 O 0.27509 0.25947 0.75798
 O1606 O 0.26805 0.22969 0.73737
 C1607 C 0.19003 0.23763 0.78350
 C1608 C 0.22380 0.18529 0.76786
 C1609 C 0.23697 0.25866 0.81717
 O1610 O 0.23758 0.29629 0.78111
 O1611 O 0.26940 0.29520 0.76479
 O1612 O 0.27299 0.28720 0.73255
 C1613 C 0.27506 0.29894 0.74725
 O1614 O 0.28498 0.21100 0.78883
 Zr1615 Zr 0.28039 0.23060 0.76535
 O1616 O 0.29154 0.25770 0.72372
 O1617 O 0.27858 0.27833 0.79521
 O1618 O 0.30131 0.24404 0.78462
 O1619 O 0.29392 0.20515 0.75469
 O1620 O 0.30453 0.23988 0.74859
 C1621 C 0.30601 0.25009 0.73296
 O1622 O 0.25069 0.27660 0.70790
 O1623 O 0.21573 0.20565 0.72159
 O1624 O 0.26186 0.24504 0.70241
 O1625 O 0.24670 0.21552 0.70726
 O1626 O 0.19250 0.24106 0.73204
 O1627 O 0.20943 0.27147 0.72367
 C1628 C 0.25495 0.22844 0.69631
 H1629 H 0.20834 0.21814 0.75600
 H1630 H 0.23834 0.28487 0.74486
 H1631 H 0.27712 0.22369 0.72797
 H1632 H 0.26669 0.24232 0.79861
 H1633 H 0.18908 0.28116 0.75599
 H1634 H 0.24503 0.30472 0.79056
 H1635 H 0.27611 0.29140 0.80084
 H1636 H 0.31396 0.23749 0.78268
 H1637 H 0.18023 0.24816 0.73438
 H1638 H 0.21847 0.19277 0.71567
 H1639 H 0.25162 0.18222 0.72145
 H1640 H 0.30804 0.20621 0.75823
 H1641 H 0.19579 0.27613 0.72392
 H1642 H 0.26188 0.28022 0.69939
 H1643 H 0.23386 0.20606 0.81557
 H1644 H 0.29920 0.20873 0.79043
 Zr1645 Zr 0.25818 0.76342 0.27453
 O1646 O 0.25117 0.78108 0.29895
 O1647 O 0.28845 0.75958 0.27898
 O1648 O 0.26138 0.74873 0.30140
 O1649 O 0.26171 0.80167 0.24183
 O1650 O 0.24468 0.71988 0.29648
 O1651 O 0.27003 0.79209 0.27269
 O1652 O 0.29647 0.73840 0.25456
 O1653 O 0.26153 0.73419 0.26637
 O1654 O 0.26865 0.76365 0.24588
 O1655 O 0.23019 0.75018 0.27729
 O1656 O 0.23716 0.77857 0.25797
 Zr1657 Zr 0.22249 0.73518 0.22220
 Zr1658 Zr 0.23342 0.72138 0.26771
 Zr1659 Zr 0.24729 0.77722 0.22911
 Zr1660 Zr 0.27085 0.73463 0.23739
 O1661 O 0.23069 0.80244 0.22411
 O1662 O 0.28088 0.70656 0.24483
 O1663 O 0.25053 0.74847 0.21917
 O1664 O 0.24351 0.72035 0.23887
 O1665 O 0.21179 0.73479 0.25084
 O1666 O 0.21935 0.76434 0.23051
 C1667 C 0.30064 0.74879 0.26984
 C1668 C 0.26960 0.80473 0.25882
 C1669 C 0.25500 0.73193 0.30711
 O1670 O 0.24880 0.69508 0.27060
 O1671 O 0.21634 0.69810 0.25598
 O1672 O 0.20886 0.70730 0.22479
 C1673 C 0.20831 0.69509 0.23904
 O1674 O 0.20892 0.78329 0.28375
 Zr1675 Zr 0.20976 0.76395 0.25931
 O1676 O 0.19227 0.73898 0.21776
 O1677 O 0.21007 0.71554 0.28711
 O1678 O 0.18972 0.75170 0.27959
 O1679 O 0.19784 0.79087 0.25058
 O1680 O 0.18336 0.75738 0.24405
 C1681 C 0.17950 0.74779 0.22817
 O1682 O 0.22911 0.71632 0.19859
 O1683 O 0.27186 0.78446 0.21170
 O1684 O 0.22121 0.74903 0.19460
 O1685 O 0.23943 0.77700 0.19934
 O1686 O 0.29262 0.74702 0.21901
 O1687 O 0.27231 0.71824 0.21092
 C1688 C 0.22934 0.76498 0.18850
 H1689 H 0.28143 0.77066 0.24473
 H1690 H 0.24483 0.70676 0.23417
 H1691 H 0.21007 0.77130 0.22195
 H1692 H 0.22567 0.75073 0.29101
 H1693 H 0.29478 0.70587 0.24081
 H1694 H 0.24157 0.68702 0.28025
 H1695 H 0.21203 0.70227 0.29231
 H1696 H 0.17751 0.75924 0.27880
 H1697 H 0.30440 0.73887 0.22010
 H1698 H 0.26968 0.79766 0.20640
 H1699 H 0.23806 0.81047 0.21456
 H1700 H 0.18404 0.79099 0.25501
 H1701 H 0.28551 0.71264 0.20973
 H1702 H 0.21680 0.71399 0.19094
 H1703 H 0.26351 0.78370 0.30646
 H1704 H 0.19515 0.78664 0.28641
 Zr1705 Zr 0.23635 0.75395 0.72711
 O1706 O 0.24692 0.77128 0.70377
 O1707 O 0.20623 0.75141 0.72019
 O1708 O 0.23369 0.73941 0.69983
 O1709 O 0.23307 0.79207 0.76034
 O1710 O 0.24831 0.71027 0.70503
 O1711 O 0.22669 0.78298 0.72866
 O1712 O 0.19421 0.73118 0.74381
 O1713 O 0.22993 0.72486 0.73414
 O1714 O 0.22362 0.75444 0.75480
 O1715 O 0.26341 0.73977 0.72630
 O1716 O 0.25717 0.76823 0.74570
 Zr1717 Zr 0.26516 0.72420 0.78131
 Zr1718 Zr 0.25702 0.71106 0.73473
 Zr1719 Zr 0.24457 0.76714 0.77357
 Zr1720 Zr 0.21829 0.72549 0.76227
 O1721 O 0.26277 0.79169 0.78043
 O1722 O 0.20645 0.69820 0.75259
 O1723 O 0.23810 0.73851 0.78244
 O1724 O 0.24448 0.71020 0.76259
 O1725 O 0.27819 0.72359 0.75370
 O1726 O 0.27145 0.75322 0.77415
 C1727 C 0.19226 0.74166 0.72843
 C1728 C 0.22684 0.79546 0.74286
 C1729 C 0.23952 0.72262 0.69406
 O1730 O 0.23981 0.68540 0.72988
 O1731 O 0.27140 0.68720 0.74714
 O1732 O 0.27723 0.69619 0.77896
 C1733 C 0.27813 0.68408 0.76450
 O1734 O 0.28799 0.77201 0.72253
 Zr1735 Zr 0.28341 0.75266 0.74629
 O1736 O 0.29512 0.72649 0.78831
 O1737 O 0.28142 0.70447 0.71716
 O1738 O 0.30412 0.73969 0.72756
 O1739 O 0.29672 0.77907 0.75663
 O1740 O 0.30786 0.74505 0.76373
 C1741 C 0.30948 0.73488 0.77943
 O1742 O 0.25477 0.70540 0.80356
 O1743 O 0.21934 0.77525 0.78921
 O1744 O 0.26558 0.73783 0.80925
 O1745 O 0.25001 0.76643 0.80385
 O1746 O 0.19641 0.73829 0.77974
 O1747 O 0.21336 0.70850 0.78772
 C1748 C 0.25832 0.75404 0.81510
 H1749 H 0.21139 0.76194 0.75519
 H1750 H 0.24174 0.69663 0.76677
 H1751 H 0.28057 0.75975 0.78362
 H1752 H 0.26907 0.74026 0.71302
 H1753 H 0.19223 0.69803 0.75544
 H1754 H 0.24716 0.67716 0.72064
 H1755 H 0.27882 0.69133 0.71146
 H1756 H 0.31685 0.74669 0.72966
 H1757 H 0.18405 0.73065 0.77758
 H1758 H 0.22221 0.78831 0.79500
 H1759 H 0.25533 0.79993 0.78959
 H1760 H 0.31086 0.77864 0.75349
 H1761 H 0.19974 0.70318 0.78746
 H1762 H 0.26613 0.70244 0.81216
 H1763 H 0.23549 0.77446 0.69535
 H1764 H 0.30222 0.77478 0.72112
 Zr1765 Zr 0.26805 0.23548 0.22532
 O1766 O 0.26090 0.21770 0.20067
 O1767 O 0.29808 0.24123 0.22123
 O1768 O 0.27099 0.25091 0.19872
 O1769 O 0.27183 0.19656 0.25713
 O1770 O 0.25391 0.27862 0.20406
 O1771 O 0.28097 0.20781 0.22710
 O1772 O 0.30692 0.26060 0.24731
 O1773 O 0.27137 0.26467 0.23414
 O1774 O 0.27860 0.23508 0.25418
 O1775 O 0.23997 0.24730 0.22240
 O1776 O 0.24726 0.21884 0.24122
 Zr1777 Zr 0.23254 0.26085 0.27759
 Zr1778 Zr 0.24313 0.27604 0.23264
 Zr1779 Zr 0.25745 0.22008 0.27032
 Zr1780 Zr 0.28089 0.26400 0.26328
 O1781 O 0.24086 0.19405 0.27461
 O1782 O 0.29115 0.29232 0.25565
 O1783 O 0.26066 0.24883 0.28083
 O1784 O 0.25346 0.27700 0.26162
 O1785 O 0.22167 0.26120 0.24882
 O1786 O 0.22947 0.23167 0.26872
 C1787 C 0.31069 0.25130 0.23143
 C1788 C 0.28037 0.19467 0.24050
 C1789 C 0.26422 0.26743 0.19324
 O1790 O 0.25831 0.30317 0.23052
 O1791 O 0.22581 0.29815 0.24441
 O1792 O 0.21915 0.28829 0.27551
 C1793 C 0.21814 0.30057 0.26136
 O1794 O 0.21888 0.21328 0.21486
 Zr1795 Zr 0.21978 0.23208 0.23975
 O1796 O 0.20222 0.25593 0.28111
 O1797 O 0.21959 0.28109 0.21300
 O1798 O 0.19941 0.24372 0.21953
 O1799 O 0.20826 0.20431 0.24769
 O1800 O 0.19349 0.23680 0.25482
 C1801 C 0.18953 0.24637 0.27048
 O1802 O 0.23928 0.27935 0.30184
 O1803 O 0.28214 0.21345 0.28791
 O1804 O 0.23124 0.24635 0.30478
 O1805 O 0.24991 0.21954 0.30010
 O1806 O 0.30215 0.25248 0.28264
 O1807 O 0.28242 0.28067 0.28964
 C1808 C 0.23964 0.23085 0.31086
 H1809 H 0.29141 0.22868 0.25552
 H1810 H 0.25476 0.29057 0.26656
 H1811 H 0.22024 0.22413 0.27699
 H1812 H 0.23535 0.24678 0.20861
 H1813 H 0.30507 0.29353 0.25988
 H1814 H 0.25098 0.31103 0.22090
 H1815 H 0.22142 0.29456 0.20808
 H1816 H 0.18729 0.23549 0.21997
 H1817 H 0.31404 0.26103 0.28202
 H1818 H 0.27994 0.20004 0.29287
 H1819 H 0.24835 0.18615 0.28407
 H1820 H 0.19443 0.20350 0.24308
 H1821 H 0.29555 0.28706 0.29089
 H1822 H 0.22699 0.28104 0.30928
 H1823 H 0.27318 0.21589 0.19326
 H1824 H 0.20512 0.20924 0.21195
 Zr1825 Zr 0.73808 0.72652 0.28531
 O1826 O 0.74816 0.71111 0.31008
 O1827 O 0.70811 0.72880 0.29108
 O1828 O 0.73539 0.74297 0.31129
 O1829 O 0.73499 0.68567 0.25543
 O1830 O 0.74924 0.77254 0.30379
 O1831 O 0.72699 0.69751 0.28555
 O1832 O 0.69643 0.74646 0.26546
 O1833 O 0.73193 0.75460 0.27548
 O1834 O 0.72597 0.72313 0.25724
 O1835 O 0.76509 0.74197 0.28615
 O1836 O 0.75923 0.71148 0.26911
 Zr1837 Zr 0.76837 0.75261 0.22993
 Zr1838 Zr 0.75906 0.76949 0.27479
 Zr1839 Zr 0.74737 0.70968 0.24069
 Zr1840 Zr 0.72088 0.75102 0.24705
 O1841 O 0.76522 0.68502 0.23761
 O1842 O 0.70918 0.77873 0.25336
 O1843 O 0.74122 0.73712 0.22895
 O1844 O 0.74722 0.76730 0.24640
 O1845 O 0.78065 0.75621 0.25803
 O1846 O 0.77426 0.72467 0.24018
 C1847 C 0.69433 0.73739 0.28179
 C1848 C 0.72753 0.68381 0.27256
 C1849 C 0.74067 0.76063 0.31561
 O1850 O 0.74198 0.79482 0.27625
 O1851 O 0.77423 0.79257 0.26103
 O1852 O 0.78038 0.78133 0.23021
 C1853 C 0.78127 0.79457 0.24371
 O1854 O 0.78931 0.71144 0.29418
 Zr1855 Zr 0.78546 0.72818 0.26841
 O1856 O 0.79860 0.75070 0.22460
 O1857 O 0.78281 0.77869 0.29307
 O1858 O 0.80575 0.74385 0.28665
 O1859 O 0.79886 0.70146 0.26138
 O1860 O 0.81030 0.73488 0.25144
 C1861 C 0.81255 0.74346 0.23491
 O1862 O 0.75874 0.76881 0.20550
 O1863 O 0.72272 0.69978 0.22401
 O1864 O 0.76944 0.73646 0.20336
 O1865 O 0.75511 0.70717 0.21119
 O1866 O 0.69904 0.73577 0.23029
 O1867 O 0.71656 0.76510 0.21977
 C1868 C 0.76352 0.71890 0.19918
 H1869 H 0.71362 0.71526 0.25696
 H1870 H 0.74470 0.78032 0.24087
 H1871 H 0.78366 0.71762 0.23192
 H1872 H 0.77043 0.74293 0.29967
 H1873 H 0.69499 0.77803 0.25006
 H1874 H 0.74907 0.80412 0.28513
 H1875 H 0.78007 0.79218 0.29739
 H1876 H 0.81848 0.73721 0.28589
 H1877 H 0.68673 0.74311 0.23139
 H1878 H 0.72541 0.68625 0.21982
 H1879 H 0.75798 0.67562 0.22895
 H1880 H 0.81289 0.70271 0.26525
 H1881 H 0.70298 0.76986 0.21896
 H1882 H 0.77036 0.77140 0.19720
 H1883 H 0.73662 0.70830 0.31841
 H1884 H 0.80349 0.70957 0.29660
 Zr1885 Zr 0.74614 0.27084 0.77219
 O1886 O 0.73274 0.28881 0.79330
 O1887 O 0.77512 0.27006 0.78269
 O1888 O 0.74619 0.25763 0.80006
 O1889 O 0.75343 0.30760 0.73825
 O1890 O 0.73340 0.22716 0.79396
 O1891 O 0.75662 0.29996 0.77061
 O1892 O 0.78986 0.24948 0.76126
 O1893 O 0.75342 0.24184 0.76680
 O1894 O 0.76183 0.27074 0.74605
 O1895 O 0.71923 0.25527 0.77074
 O1896 O 0.72746 0.28329 0.75105
 Zr1897 Zr 0.72349 0.23713 0.71644
 Zr1898 Zr 0.72661 0.22660 0.76387
 Zr1899 Zr 0.74299 0.28156 0.72473
 Zr1900 Zr 0.76812 0.24181 0.74020
 O1901 O 0.72557 0.30499 0.71549
 O1902 O 0.77897 0.21554 0.75184
 O1903 O 0.75048 0.25285 0.71762
 O1904 O 0.74215 0.22510 0.73764
 O1905 O 0.70752 0.23716 0.74245
 O1906 O 0.71637 0.26616 0.72195
 C1907 C 0.78995 0.26065 0.77651
 C1908 C 0.75816 0.31183 0.75614
 C1909 C 0.74088 0.24036 0.80545
 O1910 O 0.74283 0.20153 0.77063
 O1911 O 0.71275 0.20191 0.75102
 O1912 O 0.71201 0.20830 0.71828
 C1913 C 0.70870 0.19725 0.73312
 O1914 O 0.69441 0.28650 0.77077
 Zr1915 Zr 0.70149 0.26627 0.74834
 O1916 O 0.69433 0.23736 0.70638
 O1917 O 0.70088 0.21999 0.77979
 O1918 O 0.67894 0.25310 0.76520
 O1919 O 0.68906 0.29141 0.73581
 O1920 O 0.67912 0.25657 0.72872
 C1921 C 0.67913 0.24557 0.71336
 O1922 O 0.73646 0.21824 0.69586
 O1923 O 0.76967 0.28999 0.71131
 O1924 O 0.72549 0.24958 0.68832
 O1925 O 0.74028 0.27930 0.69406
 O1926 O 0.79188 0.25499 0.72505
 O1927 O 0.77592 0.22410 0.71596
 C1928 C 0.73298 0.26596 0.68259
 H1929 H 0.77408 0.27874 0.74673
 H1930 H 0.74536 0.21149 0.73425
 H1931 H 0.70820 0.27178 0.71143
 H1932 H 0.71228 0.25601 0.78337
 H1933 H 0.79344 0.21606 0.75064
 H1934 H 0.73462 0.19347 0.77948
 H1935 H 0.70286 0.20717 0.78602
 H1936 H 0.66646 0.25933 0.76152
 H1937 H 0.80394 0.24812 0.72893
 H1938 H 0.76742 0.30264 0.70483
 H1939 H 0.73391 0.31320 0.70690
 H1940 H 0.67467 0.29037 0.73759
 H1941 H 0.78948 0.21953 0.71785
 H1942 H 0.72609 0.21420 0.68626
 H1943 H 0.74308 0.29295 0.80287
 H1944 H 0.68007 0.28848 0.77072
 C1945 C 0.41984 0.99105 0.32655
 C1946 C 0.43836 0.99909 0.33093
 C1947 C 0.44659 0.99811 0.35092
 N1948 N 0.46601 1.00165 0.35440
 N1949 N 0.47329 1.00114 0.37261
 C1950 C 0.46135 0.99720 0.38795
 N1951 N 0.44197 0.99378 0.38445
 N1952 N 0.43474 0.99413 0.36629
 C1953 C 0.46852 0.99765 0.40829
 C1954 C 0.48826 0.99686 0.41376
 H1955 H 0.44703 1.00590 0.31957
 H1956 H 0.45750 0.99829 0.41959
 H1957 H 0.41233 0.98260 0.33765
 H1958 H 0.49938 0.99455 0.40284
 C1959 C -0.08766 0.50291 0.82608
 C1960 C -0.06770 0.50003 0.83016
 C1961 C -0.06033 0.49990 0.85058
 N1962 N -0.04153 0.49500 0.85475
 N1963 N -0.03499 0.49475 0.87325
 C1964 C -0.04705 0.49944 0.88821
 N1965 N -0.06574 0.50441 0.88400
 N1966 N -0.07225 0.50462 0.86559
 C1967 C -0.04059 0.49944 0.90881
 C1968 C -0.02215 0.49364 0.91536
 H1969 H -0.05730 0.49736 0.81868
 H1970 H -0.05124 0.50414 0.91941
 H1971 H -0.09708 0.50468 0.83864
 H1972 H -0.01140 0.48864 0.90501
 C1973 C 0.08348 -0.00944 0.83315
 C1974 C 0.06601 -0.00018 0.83757
 C1975 C 0.05952 0.00143 0.85809
 N1976 N 0.04323 0.01147 0.86279
 N1977 N 0.03780 0.01328 0.88144
 C1978 C 0.04853 0.00514 0.89603
 N1979 N 0.06471 -0.00489 0.89129
 N1980 N 0.07010 -0.00670 0.87273
 C1981 C 0.04322 0.00671 0.91678
 C1982 C 0.02658 0.01594 0.92368
 H1983 H 0.05759 0.00680 0.82619
 H1984 H 0.05289 -0.00029 0.92713
 H1985 H 0.09188 -0.01556 0.84509
 H1986 H 0.01665 0.02285 0.91352
 C1987 C 0.57413 0.48831 0.32718
 C1988 C 0.56921 0.50506 0.33758
 C1989 C 0.55974 0.50412 0.35680
 N1990 N 0.55236 0.52046 0.36500
 N1991 N 0.54489 0.52004 0.38297
 C1992 C 0.54470 0.50328 0.39342
 N1993 N 0.55206 0.48697 0.38522
 N1994 N 0.55937 0.48735 0.36722
 C1995 C 0.53804 0.50275 0.41379
 C1996 C 0.52699 0.51736 0.42233
 H1997 H 0.57275 0.51930 0.33166
 H1998 H 0.54206 0.49026 0.42245
 H1999 H 0.56874 0.47421 0.33206
 H2000 H 0.52132 0.52904 0.41348
 C2001 C 0.57826 0.48525 0.17695
 C2002 C 0.56174 0.49567 0.17163
 C2003 C 0.55500 0.49601 0.15108
 N2004 N 0.53646 0.50132 0.14640
 N2005 N 0.53057 0.50193 0.12772
 C2006 C 0.54310 0.49744 0.11309
 N2007 N 0.56163 0.49232 0.11780
 N2008 N 0.56744 0.49153 0.13643
 C2009 C 0.53743 0.49870 0.09236
 C2010 C 0.51802 0.49874 0.08571
 H2011 H 0.55358 0.50348 0.18257
 H2012 H 0.54918 0.49876 0.08180
 H2013 H 0.58485 0.47589 0.16611
 H2014 H 0.50609 0.49702 0.09595
 C2015 C 0.08647 0.98599 0.67457
 C2016 C 0.07009 0.99609 0.66819
 C2017 C 0.06432 0.99612 0.64732
 N2018 N 0.04578 1.00065 0.64183
 N2019 N 0.04057 1.00072 0.62294
 C2020 C 0.05378 0.99645 0.60885
 N2021 N 0.07235 0.99214 0.61435
 N2022 N 0.07750 0.99188 0.63321
 C2023 C 0.04856 0.99694 0.58789
 C2024 C 0.02919 0.99615 0.58111
 H2025 H 0.06098 1.00347 0.67867
 H2026 H 0.06041 0.99734 0.57745
 H2027 H 0.09410 0.97706 0.66408
 H2028 H 0.01735 0.99429 0.59143
 C2029 C -0.08891 0.50272 0.67058
 C2030 C -0.06945 0.49806 0.66700
 C2031 C -0.06181 0.49852 0.64689
 N2032 N -0.04219 0.49913 0.64354
 N2033 N -0.03542 0.49986 0.62527
 C2034 C -0.04808 0.49989 0.60975
 N2035 N -0.06762 0.49908 0.61315
 N2036 N -0.07435 0.49848 0.63133
 C2037 C -0.04138 0.50033 0.58939
 C2038 C -0.02210 0.50439 0.58375
 H2039 H -0.05959 0.49492 0.67904
 H2040 H -0.05258 0.49784 0.57821
 H2041 H -0.09791 0.50764 0.65848
 H2042 H -0.01090 0.50786 0.59467
 C2043 C 0.42854 -0.00880 0.17964
 C2044 C 0.43639 0.00643 0.16857
 C2045 C 0.44626 0.00277 0.14990
 N2046 N 0.45694 0.01718 0.14123
 N2047 N 0.46490 0.01432 0.12371
 C2048 C 0.46233 -0.00303 0.11420
 N2049 N 0.45167 -0.01741 0.12287
 N2050 N 0.44387 -0.01461 0.14043
 C2051 C 0.46925 -0.00591 0.09412
 C2052 C 0.48321 0.00627 0.08540
 H2053 H 0.43505 0.02136 0.17354
 H2054 H 0.46265 -0.01783 0.08568
 H2055 H 0.43177 -0.02369 0.17564
 H2056 H 0.49125 0.01711 0.09409
 C2057 C 0.32562 0.41970 -0.00206
 C2058 C 0.33693 0.42723 0.01353
 C2059 C 0.35609 0.43709 0.01034
 N2060 N 0.36769 0.44242 0.02585
 N2061 N 0.38514 0.45109 0.02310
 C2062 C 0.39162 0.45479 0.00472
 N2063 N 0.37998 0.44956 -0.01077
 N2064 N 0.36258 0.44086 -0.00802
 C2065 C 0.41091 0.46421 0.00126
 C2066 C 0.42423 0.46878 0.01637
 H2067 H 0.33216 0.42525 0.02845
 H2068 H 0.41484 0.46733 -0.01374
 H2069 H 0.33140 0.42091 -0.01673
 H2070 H 0.42043 0.46539 0.03134
 C2071 C -0.16636 0.92088 0.49890
 C2072 C -0.15550 0.92874 0.51463
 C2073 C -0.13687 0.93949 0.51147
 N2074 N -0.12499 0.94446 0.52688
 N2075 N -0.10791 0.95381 0.52403
 C2076 C -0.10215 0.95860 0.50566
 N2077 N -0.11410 0.95379 0.49030
 N2078 N -0.13111 0.94440 0.49314
 C2079 C -0.08321 0.96849 0.50200
 C2080 C -0.06918 0.97208 0.51667
 H2081 H -0.16015 0.92628 0.52952
 H2082 H -0.07996 0.97239 0.48702
 H2083 H -0.16056 0.92244 0.48427
 H2084 H -0.07223 0.96789 0.53161
 C2085 C -0.17282 0.07806 0.99445
 C2086 C -0.15555 0.08156 0.98388
 C2087 C -0.13706 0.07165 0.98825
 N2088 N -0.12140 0.07440 0.97640
 N2089 N -0.10438 0.06603 0.98036
 C2090 C -0.10233 0.05464 0.99640
 N2091 N -0.11798 0.05190 1.00828
 N2092 N -0.13503 0.06023 1.00429
 C2093 C -0.08353 0.04548 1.00113
 C2094 C -0.06756 0.04626 0.98850
 H2095 H -0.15509 0.09170 0.97188
 H2096 H -0.08239 0.03763 1.01478
 H2097 H -0.17240 0.06657 1.00527
 H2098 H -0.06896 0.05351 0.97453
 C2099 C 0.32839 0.57752 0.49878
 C2100 C 0.34519 0.58270 0.48829
 C2101 C 0.36411 0.57316 0.49127
 N2102 N 0.37948 0.57766 0.47953
 N2103 N 0.39693 0.56975 0.48251
 C2104 C 0.39967 0.55711 0.49746
 N2105 N 0.38431 0.55263 0.50920
 N2106 N 0.36685 0.56048 0.50617
 C2107 C 0.41888 0.54847 0.50134
 C2108 C 0.43479 0.55049 0.48874
 H2109 H 0.34461 0.59425 0.47761
 H2110 H 0.42033 0.53976 0.51442
 H2111 H 0.32862 0.56478 0.50806
 H2112 H 0.43318 0.55840 0.47517
 C2113 C 0.17432 0.58060 0.49849
 C2114 C 0.16342 0.57504 0.51484
 C2115 C 0.14373 0.56581 0.51252
 N2116 N 0.13215 0.56263 0.52831
 N2117 N 0.11419 0.55468 0.52610
 C2118 C 0.10720 0.54962 0.50800
 N2119 N 0.11883 0.55270 0.49230
 N2120 N 0.13670 0.56064 0.49450
 C2121 C 0.08747 0.54094 0.50483
 C2122 C 0.07380 0.53777 0.51964
 H2123 H 0.16887 0.57832 0.52946
 H2124 H 0.08355 0.53698 0.48988
 H2125 H 0.16788 0.57814 0.48408
 H2126 H 0.07747 0.54174 0.53464
 C2127 C 0.67458 0.07686 -0.00910
 C2128 C 0.66367 0.07171 0.00736
 C2129 C 0.64422 0.06194 0.00541
 N2130 N 0.63290 0.05898 0.02141
 N2131 N 0.61511 0.05058 0.01965
 C2132 C 0.60801 0.04482 0.00180
 N2133 N 0.61938 0.04767 -0.01415
 N2134 N 0.63711 0.05608 -0.01239
 C2135 C 0.58833 0.03577 -0.00071
 C2136 C 0.57524 0.03311 0.01467
 H2137 H 0.66892 0.07571 0.02188
 H2138 H 0.58393 0.03132 -0.01540
 H2139 H 0.66836 0.07360 -0.02345
 H2140 H 0.57952 0.03761 0.02937
 C2141 C 0.68468 0.92854 0.49923
 C2142 C 0.66788 0.92396 0.48811
 C2143 C 0.65023 0.93586 0.48887
 N2144 N 0.63499 0.93205 0.47636
 N2145 N 0.61857 0.94216 0.47747
 C2146 C 0.61679 0.95640 0.49123
 N2147 N 0.63203 0.96021 0.50371
 N2148 N 0.64847 0.95016 0.50253
 C2149 C 0.59849 0.96703 0.49351
 C2150 C 0.58286 0.96557 0.48018
 H2151 H 0.66756 0.91126 0.47860
 H2152 H 0.59728 0.97628 0.50635
 H2153 H 0.68556 0.94223 0.50725
 H2154 H 0.58433 0.95732 0.46672
 C2155 C 0.17471 0.42760 1.00203
 C2156 C 0.15784 0.42309 0.99096
 C2157 C 0.14003 0.43484 0.99189
 N2158 N 0.12503 0.43137 0.97900
 N2159 N 0.10849 0.44131 0.98018
 C2160 C 0.10630 0.45502 0.99439
 N2161 N 0.12130 0.45848 1.00728
 N2162 N 0.13787 0.44863 1.00603
 C2163 C 0.08778 0.46539 0.99672
 C2164 C 0.07253 0.46447 0.98289
 H2165 H 0.15762 0.41060 0.98117
 H2166 H 0.08604 0.47391 1.00999
 H2167 H 0.17549 0.44113 1.01031
 H2168 H 0.07456 0.45694 0.96908
 C2169 C -0.00347 0.32513 0.43023
 C2170 C -0.01226 0.34206 0.42364
 C2171 C -0.01050 0.36046 0.43464
 N2172 N -0.01819 0.37690 0.42714
 N2173 N -0.01615 0.39383 0.43669
 C2174 C -0.00631 0.39489 0.45408
 N2175 N 0.00130 0.37844 0.46162
 N2176 N -0.00074 0.36153 0.45207
 C2177 C -0.00367 0.41340 0.46472
 C2178 C -0.01129 0.43076 0.45786
 H2179 H -0.01965 0.34230 0.40956
 H2180 H 0.00444 0.41325 0.47845
 H2181 H 0.00478 0.32560 0.44389
 H2182 H -0.01961 0.43090 0.44426
 C2183 C 0.49264 -0.17824 -0.06962
 C2184 C 0.48331 -0.16124 -0.07519
 C2185 C 0.48484 -0.14326 -0.06342
 N2186 N 0.47660 -0.12674 -0.07011
 N2187 N 0.47857 -0.11011 -0.06004
 C2188 C 0.48889 -0.10939 -0.04292
 N2189 N 0.49703 -0.12593 -0.03616
 N2190 N 0.49505 -0.14257 -0.04623
 C2191 C 0.49173 -0.09105 -0.03194
 C2192 C 0.48389 -0.07361 -0.03837
 H2193 H 0.47577 -0.16048 -0.08916
 H2194 H 0.50044 -0.09128 -0.01859
 H2195 H 0.50090 -0.17827 -0.05597
 H2196 H 0.47498 -0.07343 -0.05160
 C2197 C -0.00400 -0.17346 1.06386
 C2198 C 0.00931 -0.15798 1.06681
 C2199 C 0.00700 -0.13913 1.05721
 N2200 N 0.01872 -0.12382 1.06275
 N2201 N 0.01635 -0.10636 1.05483
 C2202 C 0.00220 -0.10359 1.04106
 N2203 N -0.00940 -0.11895 1.03535
 N2204 N -0.00710 -0.13642 1.04334
 C2205 C -0.00057 -0.08432 1.03242
 C2206 C 0.00925 -0.06786 1.03994
 H2207 H 0.02148 -0.15922 1.07695
 H2208 H -0.01053 -0.08309 1.02005
 H2209 H -0.01544 -0.17211 1.05285
 H2210 H 0.01873 -0.06915 1.05268
 C2211 C 0.49256 0.32686 0.55964
 C2212 C 0.50304 0.34351 0.56575
 C2213 C 0.50216 0.36215 0.55551
 N2214 N 0.51199 0.37785 0.56316
 N2215 N 0.51060 0.39524 0.55485
 C2216 C 0.49928 0.39759 0.53861
 N2217 N 0.48954 0.38184 0.53084
 N2218 N 0.49091 0.36441 0.53918
 C2219 C 0.49749 0.41686 0.52964
 C2220 C 0.50656 0.43330 0.53812
 H2221 H 0.51170 0.34320 0.57913
 H2222 H 0.48903 0.41811 0.51621
 H2223 H 0.48530 0.32654 0.54544
 H2224 H 0.51495 0.43190 0.55158
 C2225 C 0.47843 1.17446 0.57532
 C2226 C 0.49524 1.16484 0.56959
 C2227 C 0.49502 1.14421 0.56384
 N2228 N 0.51162 1.13635 0.55686
 N2229 N 0.51180 1.11772 0.55136
 C2230 C 0.49542 1.10621 0.55276
 N2231 N 0.47885 1.11401 0.55998
 N2232 N 0.47864 1.13270 0.56542
 C2233 C 0.49539 1.08591 0.54580
 C2234 C 0.51042 1.07938 0.53396
 H2235 H 0.50932 1.17243 0.56966
 H2236 H 0.48281 1.07650 0.54873
 H2237 H 0.46465 1.16634 0.57607
 H2238 H 0.52227 1.08935 0.53006
 C2239 C -0.01461 0.67833 1.06243
 C2240 C -0.02033 0.66035 1.07012
 C2241 C -0.01697 0.64198 1.05970
 N2242 N -0.02216 0.62483 1.06813
 N2243 N -0.01858 0.60799 1.05920
 C2244 C -0.00960 0.60770 1.04155
 N2245 N -0.00443 0.62485 1.03310
 N2246 N -0.00804 0.64170 1.04202
 C2247 C -0.00554 0.58924 1.03158
 C2248 C -0.01161 0.57138 1.03923
 H2249 H -0.02625 0.65940 1.08472
 H2250 H 0.00192 0.58979 1.01766
 H2251 H -0.00789 0.67876 1.04813
 H2252 H -0.01948 0.57092 1.05293
 C2253 C 0.50348 0.67892 -0.07357
 C2254 C 0.51381 0.66205 -0.07759
 C2255 C 0.51127 0.64425 -0.06595
 N2256 N 0.52059 0.62781 -0.07127
 N2257 N 0.51815 0.61145 -0.06112
 C2258 C 0.50629 0.61094 -0.04526
 N2259 N 0.49704 0.62740 -0.03988
 N2260 N 0.49947 0.64376 -0.05005
 C2261 C 0.50329 0.59294 -0.03404
 C2262 C 0.51204 0.57555 -0.03937
 H2263 H 0.52334 0.66140 -0.09012
 H2264 H 0.49389 0.59340 -0.02137
 H2265 H 0.49314 0.67878 -0.06163
 H2266 H 0.52141 0.57514 -0.05208
 C2267 C 0.01562 1.18229 0.43195
 C2268 C 0.02664 1.16578 0.42793
 C2269 C 0.02414 1.14776 0.43917
 N2270 N 0.03281 1.13127 0.43297
 N2271 N 0.02979 1.11452 0.44228
 C2272 C 0.01798 1.11366 0.45816
 N2273 N 0.00949 1.13020 0.46452
 N2274 N 0.01248 1.14694 0.45516
 C2275 C 0.01409 1.09519 0.46821
 C2276 C 0.02088 1.07760 0.46093
 H2277 H 0.03633 1.16508 0.41557
 H2278 H 0.00543 1.09543 0.48141
 H2279 H 0.00643 1.18172 0.44482
 H2280 H 0.02934 1.07741 0.44759
 C2281 C 0.74111 0.67191 0.92386
 C2282 C 0.74909 0.68976 0.91795
 C2283 C 0.74676 0.69639 0.89762
 N2284 N 0.74942 0.71550 0.89307
 N2285 N 0.74775 0.72141 0.87457
 C2286 C 0.74349 0.70839 0.85996
 N2287 N 0.74096 0.68930 0.86451
 N2288 N 0.74244 0.68343 0.88299
 C2289 C 0.74305 0.71425 0.83932
 C2290 C 0.74100 0.73350 0.83338
 H2291 H 0.75672 0.69919 0.92844
 H2292 H 0.74464 0.70290 0.82836
 H2293 H 0.73174 0.66369 0.91372
 H2294 H 0.73769 0.74470 0.84404
 C2295 C 0.26310 0.17810 0.42771
 C2296 C 0.24766 0.18850 0.41952
 C2297 C 0.24849 0.19543 0.39913
 N2298 N 0.23409 0.20669 0.39170
 N2299 N 0.23446 0.21233 0.37304
 C2300 C 0.24920 0.20678 0.36112
 N2301 N 0.26354 0.19553 0.36855
 N2302 N 0.26321 0.18999 0.38717
 C2303 C 0.24987 0.21218 0.34034
 C2304 C 0.23755 0.22572 0.33169
 H2305 H 0.23442 0.19099 0.42764
 H2306 H 0.26108 0.20550 0.33158
 H2307 H 0.27621 0.17644 0.41907
 H2308 H 0.22696 0.23329 0.34049
 C2309 C 0.74627 0.32843 0.41444
 C2310 C 0.75574 0.31113 0.40984
 C2311 C 0.75597 0.30369 0.38949
 N2312 N 0.76573 0.28724 0.38485
 N2313 N 0.76622 0.28081 0.36635
 C2314 C 0.75698 0.29066 0.35186
 N2315 N 0.74724 0.30702 0.35655
 N2316 N 0.74674 0.31341 0.37496
 C2317 C 0.75722 0.28436 0.33125
 C2318 C 0.76606 0.26749 0.32434
 H2319 H 0.76372 0.30332 0.42095
 H2320 H 0.74968 0.29361 0.32097
 H2321 H 0.73901 0.33611 0.40271
 H2322 H 0.77341 0.25789 0.33441
 C2323 C 0.23974 0.81963 0.92648
 C2324 C 0.25269 0.80524 0.92056
 C2325 C 0.25111 0.79630 0.90087
 N2326 N 0.26367 0.78224 0.89525
 N2327 N 0.26275 0.77475 0.87715
 C2328 C 0.24925 0.78112 0.86404
 N2329 N 0.23669 0.79508 0.86970
 N2330 N 0.23758 0.80250 0.88774
 C2331 C 0.24832 0.77408 0.84368
 C2332 C 0.25956 0.75904 0.83615
 H2333 H 0.26449 0.80071 0.93004
 H2334 H 0.23818 0.78141 0.83404
 H2335 H 0.22777 0.82314 0.91666
 H2336 H 0.26903 0.75084 0.84572
 C2337 C 0.24951 0.82539 0.07474
 C2338 C 0.23547 0.81188 0.08157
 C2339 C 0.23651 0.80431 0.10171
 N2340 N 0.22343 0.79048 0.10787
 N2341 N 0.22402 0.78404 0.12626
 C2342 C 0.23770 0.79129 0.13915
 N2343 N 0.25073 0.80507 0.13297
 N2344 N 0.25017 0.81144 0.11464
 C2345 C 0.23860 0.78508 0.15967
 C2346 C 0.22716 0.77000 0.16761
 H2347 H 0.22332 0.80683 0.07245
 H2348 H 0.24918 0.79282 0.16898
 H2349 H 0.26177 0.82907 0.08441
 H2350 H 0.21708 0.76155 0.15838
 C2351 C 0.75391 0.32319 0.56740
 C2352 C 0.74062 0.30915 0.57454
 C2353 C 0.74192 0.30230 0.59493
 N2354 N 0.72974 0.28781 0.60130
 N2355 N 0.73034 0.28213 0.61994
 C2356 C 0.74309 0.29083 0.63289
 N2357 N 0.75525 0.30528 0.62651
 N2358 N 0.75471 0.31089 0.60790
 C2359 C 0.74353 0.28557 0.65371
 C2360 C 0.73290 0.26984 0.66139
 H2361 H 0.72876 0.30327 0.56553
 H2362 H 0.75263 0.29460 0.66340
 H2363 H 0.76606 0.32758 0.57694
 H2364 H 0.72449 0.26017 0.65172
 C2365 C 0.25116 0.16434 0.58214
 C2366 C 0.25656 0.18326 0.58804
 C2367 C 0.25441 0.18961 0.60859
 N2368 N 0.26146 0.20733 0.61468
 N2369 N 0.25990 0.21288 0.63337
 C2370 C 0.25120 0.20087 0.64661
 N2371 N 0.24407 0.18324 0.64047
 N2372 N 0.24565 0.17771 0.62185
 C2373 C 0.24945 0.20634 0.66737
 C2374 C 0.25680 0.22387 0.67528
 H2375 H 0.26323 0.19331 0.57781
 H2376 H 0.24217 0.19591 0.67683
 H2377 H 0.24549 0.15439 0.59307
 H2378 H 0.26406 0.23440 0.66592
 C2379 C 0.76404 0.68304 0.07379
 C2380 C 0.76967 0.67659 0.09241
 C2381 C 0.77088 0.68912 0.10998
 N2382 N 0.77597 0.68093 0.12724
 N2383 N 0.77598 0.69130 0.14375
 C2384 C 0.77095 0.71032 0.14375
 N2385 N 0.76623 0.71872 0.12640
 N2386 N 0.76615 0.70829 0.10979
 C2387 C 0.76934 0.72105 0.16249
 C2388 C 0.76704 0.71053 0.17973
 H2389 H 0.77349 0.66161 0.09480
 H2390 H 0.76839 0.73678 0.16260
 H2391 H 0.76241 0.69862 0.07198
 H2392 H 0.76633 0.69475 0.17884
 C2393 C 0.16566 0.57207 0.25532
 C2394 C 0.16855 0.58435 0.23932
 C2395 C 0.17624 0.60452 0.24194
 N2396 N 0.17678 0.61701 0.22659
 N2397 N 0.18341 0.63534 0.22900
 C2398 C 0.18973 0.64184 0.24688
 N2399 N 0.18924 0.62934 0.26217
 N2400 N 0.18260 0.61107 0.25977
 C2401 C 0.19758 0.66181 0.25005
 C2402 C 0.19830 0.67604 0.23552
 H2403 H 0.16409 0.57955 0.22478
 H2404 H 0.20347 0.66524 0.26450
 H2405 H 0.16908 0.57768 0.26987
 H2406 H 0.19219 0.67286 0.22111
 C2407 C 0.64972 0.08099 0.74774
 C2408 C 0.66788 0.08763 0.74067
 C2409 C 0.67324 0.10858 0.74097
 N2410 N 0.68695 0.11583 0.72852
 N2411 N 0.69216 0.13469 0.72909
 C2412 C 0.68397 0.14693 0.74227
 N2413 N 0.67040 0.13964 0.75478
 N2414 N 0.66504 0.12086 0.75407
 C2415 C 0.69052 0.16743 0.74423
 C2416 C 0.70010 0.17765 0.72941
 H2417 H 0.67803 0.07780 0.73394
 H2418 H 0.68767 0.17475 0.75799
 H2419 H 0.63940 0.09213 0.75172
 H2420 H 0.70140 0.17116 0.71499
 C2421 C 0.82222 0.06713 0.24965
 C2422 C 0.82677 0.08437 0.25992
 C2423 C 0.81654 0.10275 0.25656
 N2424 N 0.82069 0.11845 0.26822
 N2425 N 0.81233 0.13550 0.26489
 C2426 C 0.79957 0.13754 0.24968
 N2427 N 0.79540 0.12183 0.23801
 N2428 N 0.80371 0.10475 0.24139
 C2429 C 0.79063 0.15644 0.24545
 C2430 C 0.79276 0.17251 0.25804
 H2431 H 0.83848 0.08458 0.27075
 H2432 H 0.78192 0.15762 0.23217
 H2433 H 0.80931 0.06645 0.24025
 H2434 H 0.80072 0.17106 0.27175
 C2435 C 0.32285 0.56274 0.75213
 C2436 C 0.32443 0.57821 0.76556
 C2437 C 0.31411 0.59666 0.76282
 N2438 N 0.31604 0.61106 0.77650
 N2439 N 0.30734 0.62808 0.77399
 C2440 C 0.29642 0.63136 0.75765
 N2441 N 0.29447 0.61696 0.74398
 N2442 N 0.30313 0.59993 0.74651
 C2443 C 0.28703 0.65020 0.75435
 C2444 C 0.28748 0.66528 0.76823
 H2445 H 0.33414 0.57740 0.77811
 H2446 H 0.27943 0.65218 0.74052
 H2447 H 0.31335 0.56431 0.73944
 H2448 H 0.29458 0.66315 0.78229
 C2449 C 0.34218 0.41159 0.75235
 C2450 C 0.32331 0.40576 0.74613
 C2451 C 0.31587 0.38569 0.74900
 N2452 N 0.30162 0.37809 0.73699
 N2453 N 0.29456 0.36004 0.73969
 C2454 C 0.30130 0.34904 0.75468
 N2455 N 0.31537 0.35672 0.76683
 N2456 N 0.32262 0.37467 0.76397
 C2457 C 0.29311 0.32938 0.75828
 C2458 C 0.28418 0.31816 0.74346
 H2459 H 0.31410 0.41555 0.73802
 H2460 H 0.29468 0.32336 0.77282
 H2461 H 0.35170 0.40036 0.75782
 H2462 H 0.28432 0.32341 0.72853
 C2463 C 0.83389 0.91480 0.25560
 C2464 C 0.82788 0.90286 0.23987
 C2465 C 0.81884 0.88338 0.24313
 N2466 N 0.81555 0.87081 0.22790
 N2467 N 0.80756 0.85314 0.23088
 C2468 C 0.80253 0.84743 0.24921
 N2469 N 0.80573 0.86003 0.26436
 N2470 N 0.81375 0.87761 0.26140
 C2471 C 0.79348 0.82815 0.25309
 C2472 C 0.79088 0.81346 0.23895
 H2473 H 0.83052 0.90744 0.22498
 H2474 H 0.78876 0.82543 0.26794
 H2475 H 0.83223 0.90922 0.27030
 H2476 H 0.79597 0.81583 0.22416
 C2477 C 0.67561 0.92991 0.75406
 C2478 C 0.67561 0.91471 0.76767
 C2479 C 0.68630 0.89652 0.76438
 N2480 N 0.68529 0.88204 0.77780
 N2481 N 0.69448 0.86533 0.77488
 C2482 C 0.70501 0.86245 0.75837
 N2483 N 0.70604 0.87694 0.74496
 N2484 N 0.69686 0.89365 0.74789
 C2485 C 0.71519 0.84405 0.75474
 C2486 C 0.71494 0.82858 0.76794
 H2487 H 0.66710 0.91548 0.78088
 H2488 H 0.72325 0.84275 0.74123
 H2489 H 0.68440 0.92814 0.74106
 H2490 H 0.70703 0.82991 0.78154
 C2491 C 0.16201 0.41555 0.24607
 C2492 C 0.17602 0.40830 0.25894
 C2493 C 0.18314 0.38827 0.25668
 N2494 N 0.19139 0.37894 0.27208
 N2495 N 0.19758 0.36072 0.27010
 C2496 C 0.19582 0.35122 0.25260
 N2497 N 0.18775 0.36063 0.23721
 N2498 N 0.18141 0.37874 0.23923
 C2499 C 0.20342 0.33152 0.24967
 C2500 C 0.20808 0.31905 0.26501
 H2501 H 0.18078 0.41694 0.27153
 H2502 H 0.20550 0.32670 0.23470
 H2503 H 0.15576 0.40596 0.23485
 H2504 H 0.20475 0.32312 0.27994
 C2505 C 0.06493 0.24940 0.81789
 C2506 C 0.08125 0.23885 0.82360
 C2507 C 0.10006 0.24038 0.81343
 N2508 N 0.11568 0.23059 0.82041
 N2509 N 0.13297 0.23202 0.81161
 C2510 C 0.13527 0.24329 0.79551
 N2511 N 0.11962 0.25303 0.78847
 N2512 N 0.10232 0.25161 0.79729
 C2513 C 0.15432 0.24514 0.78581
 C2514 C 0.17084 0.23578 0.79291
 H2515 H 0.08068 0.22979 0.83648
 H2516 H 0.15537 0.25417 0.77291
 H2517 H 0.06620 0.25941 0.80575
 H2518 H 0.16975 0.22679 0.80585
 C2519 C 0.56994 0.75313 0.31788
 C2520 C 0.58594 0.74158 0.32238
 C2521 C 0.60444 0.74246 0.31155
 N2522 N 0.61962 0.73154 0.31768
 N2523 N 0.63678 0.73250 0.30860
 C2524 C 0.63943 0.74441 0.29302
 N2525 N 0.62420 0.75525 0.28676
 N2526 N 0.60701 0.75433 0.29590
 C2527 C 0.65855 0.74577 0.28322
 C2528 C 0.67485 0.73633 0.29074
 H2529 H 0.58516 0.73156 0.33451
 H2530 H 0.65989 0.75461 0.27021
 H2531 H 0.57035 0.76205 0.30486
 H2532 H 0.67341 0.72789 0.30402
 C2533 C 0.57340 0.24564 0.17726
 C2534 C 0.59202 0.25007 0.17010
 C2535 C 0.61007 0.24827 0.18173
 N2536 N 0.62734 0.25426 0.17391
 N2537 N 0.64403 0.25257 0.18392
 C2538 C 0.64414 0.24476 0.20213
 N2539 N 0.62686 0.23870 0.20998
 N2540 N 0.61009 0.24043 0.19995
 C2541 C 0.66269 0.24290 0.21311
 C2542 C 0.68014 0.25062 0.20569
 H2543 H 0.59357 0.25553 0.15535
 H2544 H 0.66259 0.23565 0.22714
 H2545 H 0.57170 0.24191 0.19254
 H2546 H 0.67990 0.25830 0.19188
 C2547 C 0.08439 0.75681 0.65656
 C2548 C 0.08920 0.75530 0.67634
 C2549 C 0.10967 0.75489 0.68318
 N2550 N 0.11372 0.74942 0.70178
 N2551 N 0.13221 0.74856 0.70811
 C2552 C 0.14733 0.75324 0.69610
 N2553 N 0.14328 0.75895 0.67755
 N2554 N 0.12477 0.75970 0.67118
 C2555 C 0.16777 0.75210 0.70300
 C2556 C 0.17230 0.74267 0.72038
 H2557 H 0.07777 0.75323 0.68705
 H2558 H 0.17934 0.75839 0.69414
 H2559 H 0.09607 0.75714 0.64591
 H2560 H 0.16065 0.73566 0.72861
 C2561 C 0.93015 0.76754 0.67283
 C2562 C 0.92294 0.75522 0.68740
 C2563 C 0.90245 0.75621 0.69364
 N2564 N 0.89729 0.75049 0.71188
 N2565 N 0.87863 0.75098 0.71744
 C2566 C 0.86445 0.75693 0.70484
 N2567 N 0.86958 0.76238 0.68652
 N2568 N 0.88826 0.76214 0.68106
 C2569 C 0.84380 0.75709 0.71063
 C2570 C 0.83848 0.75933 0.73010
 H2571 H 0.93232 0.74504 0.69478
 H2572 H 0.83258 0.75637 0.69927
 H2573 H 0.92090 0.77936 0.66821
 H2574 H 0.84971 0.76213 0.74118
 C2575 C 0.42083 0.25649 0.16499
 C2576 C 0.41495 0.24654 0.18167
 C2577 C 0.39447 0.24670 0.18795
 N2578 N 0.38997 0.24393 0.20703
 N2579 N 0.37138 0.24424 0.21281
 C2580 C 0.35664 0.24708 0.19965
 N2581 N 0.36113 0.24953 0.18053
 N2582 N 0.37972 0.24947 0.17479
 C2583 C 0.33613 0.24725 0.20579
 C2584 C 0.33110 0.25190 0.22491
 H2585 H 0.42565 0.23928 0.19071
 H2586 H 0.32475 0.24441 0.19488
 H2587 H 0.41044 0.26563 0.15748
 H2588 H 0.34242 0.25650 0.23532
 C2589 C 0.41804 0.76936 0.32617
 C2590 C 0.40825 0.75517 0.31479
 C2591 C 0.38776 0.75711 0.30841
 N2592 N 0.37942 0.74326 0.29657
 N2593 N 0.36073 0.74442 0.29100
 C2594 C 0.34962 0.75943 0.29713
 N2595 N 0.35794 0.77329 0.30904
 N2596 N 0.37669 0.77216 0.31457
 C2597 C 0.32895 0.76071 0.29100
 C2598 C 0.32097 0.74798 0.27692
 H2599 H 0.41532 0.74175 0.31097
 H2600 H 0.32008 0.77202 0.29727
 H2601 H 0.41031 0.78243 0.33008
 H2602 H 0.33023 0.73723 0.27020
 C2603 C 0.91437 0.25580 0.81716
 C2604 C 0.89649 0.26171 0.82462
 C2605 C 0.87831 0.26059 0.81296
 N2606 N 0.86145 0.26737 0.82055
 N2607 N 0.84471 0.26591 0.81038
 C2608 C 0.84422 0.25755 0.79229
 N2609 N 0.86108 0.25078 0.78470
 N2610 N 0.87784 0.25228 0.79485
 C2611 C 0.82584 0.25545 0.78107
 C2612 C 0.80833 0.26304 0.78771
 H2613 H 0.89565 0.26729 0.83945
 H2614 H 0.82618 0.24774 0.76717
 H2615 H 0.91529 0.25181 0.80182
 H2616 H 0.80810 0.27121 0.80134
 C2617 C 0.57695 0.98927 0.67512
 C2618 C 0.56406 1.00254 0.66673
 C2619 C 0.55925 1.00211 0.64564
 N2620 N 0.54576 1.01441 0.63825
 N2621 N 0.54170 1.01457 0.61912
 C2622 C 0.55109 1.00250 0.60664
 N2623 N 0.56459 0.99024 0.61402
 N2624 N 0.56860 0.99004 0.63314
 C2625 C 0.54687 1.00237 0.58547
 C2626 C 0.53167 1.01289 0.57712
 H2627 H 0.55753 1.01389 0.67535
 H2628 H 0.55556 0.99303 0.57629
 H2629 H 0.58212 0.97766 0.66577
 H2630 H 0.52247 1.02167 0.58635
 C2631 C 0.07747 0.49597 1.17219
 C2632 C 0.06152 0.50697 1.16602
 C2633 C 0.05465 0.50588 1.14543
 N2634 N 0.03753 0.51408 1.13982
 N2635 N 0.03135 0.51288 1.12121
 C2636 C 0.04215 0.50351 1.10756
 N2637 N 0.05927 0.49549 1.11317
 N2638 N 0.06538 0.49662 1.13170
 C2639 C 0.03593 0.50179 1.08692
 C2640 C 0.01786 0.50788 1.07973
 H2641 H 0.05374 0.51615 1.17609
 H2642 H 0.04606 0.49495 1.07702
 H2643 H 0.08378 0.48633 1.16141
 H2644 H 0.00744 0.51441 1.08954
 C2645 C -0.07948 0.00153 1.17561
 C2646 C -0.06397 -0.00963 1.16878
 C2647 C -0.05635 -0.00682 1.14879
 N2648 N -0.03996 -0.01599 1.14284
 N2649 N -0.03318 -0.01346 1.12475
 C2650 C -0.04261 -0.00171 1.11194
 N2651 N -0.05900 0.00734 1.11787
 N2652 N -0.06572 0.00487 1.13592
 C2653 C -0.03572 0.00137 1.09183
 C2654 C -0.01817 -0.00581 1.08466
 H2655 H -0.05715 -0.02041 1.17790
 H2656 H -0.04486 0.01004 1.08236
 H2657 H -0.08492 0.01265 1.16588
 H2658 H -0.00868 -0.01408 1.09414
 C2659 C 0.42624 0.50656 0.67710
 C2660 C 0.43929 0.49378 0.66826
 C2661 C 0.44722 0.49754 0.64862
 N2662 N 0.46137 0.48604 0.64124
 N2663 N 0.46824 0.48901 0.62326
 C2664 C 0.46111 0.50353 0.61199
 N2665 N 0.44696 0.51497 0.61936
 N2666 N 0.44017 0.51206 0.63733
 C2667 C 0.46794 0.50680 0.59191
 C2668 C 0.48378 0.49716 0.58379
 H2669 H 0.44396 0.48073 0.67554
 H2670 H 0.46021 0.51740 0.58324
 H2671 H 0.42329 0.52003 0.66952
 H2672 H 0.49214 0.48719 0.59262
 C2673 C 0.43019 0.50959 -0.17585
 C2674 C 0.43704 0.49583 -0.16262
 C2675 C 0.44554 0.50163 -0.14357
 N2676 N 0.45967 0.49077 -0.13517
 N2677 N 0.46644 0.49510 -0.11725
 C2678 C 0.45908 0.51025 -0.10698
 N2679 N 0.44485 0.52103 -0.11534
 N2680 N 0.43831 0.51691 -0.13339
 C2681 C 0.46492 0.51373 -0.08650
 C2682 C 0.48359 0.50947 -0.07957
 H2683 H 0.43686 0.48049 -0.16641
 H2684 H 0.45408 0.51921 -0.07649
 H2685 H 0.43408 0.52478 -0.17307
 H2686 H 0.49513 0.50624 -0.08980
 C2687 C -0.08168 1.00804 0.32975
 C2688 C -0.06155 1.00963 0.33402
 C2689 C -0.05442 1.01119 0.35450
 N2690 N -0.03493 1.01323 0.35861
 N2691 N -0.02848 1.01410 0.37713
 C2692 C -0.04131 1.01296 0.39220
 N2693 N -0.06074 1.01098 0.38807
 N2694 N -0.06717 1.01014 0.36961
 C2695 C -0.03476 1.01286 0.41279
 C2696 C -0.01522 1.01537 0.41879
 H2697 H -0.05075 1.00953 0.32257
 H2698 H -0.04591 1.01014 0.42367
 H2699 H -0.09159 1.00880 0.34203
 H2700 H -0.00402 1.01876 0.40814
 C2701 C 0.07887 0.48948 0.32937
 C2702 C 0.05920 0.49201 0.33421
 C2703 C 0.05329 0.49364 0.35487
 N2704 N 0.03402 0.49322 0.35974
 N2705 N 0.02869 0.49488 0.37841
 C2706 C 0.04244 0.49713 0.39287
 N2707 N 0.06165 0.49767 0.38797
 N2708 N 0.06697 0.49592 0.36936
 C2709 C 0.03702 0.49920 0.41355
 C2710 C 0.01790 0.49629 0.42010
 H2711 H 0.04788 0.49282 0.32306
 H2712 H 0.04863 0.50276 0.42402
 H2713 H 0.08913 0.48766 0.34142
 H2714 H 0.00639 0.49201 0.40977
 C2715 C 0.56696 -0.01586 -0.17485
 C2716 C 0.56021 -0.00153 -0.16210
 C2717 C 0.55107 -0.00642 -0.14333
 N2718 N 0.53744 0.00543 -0.13558
 N2719 N 0.53028 0.00206 -0.11781
 C2720 C 0.53673 -0.01311 -0.10702
 N2721 N 0.55042 -0.02491 -0.11474
 N2722 N 0.55734 -0.02174 -0.13264
 C2723 C 0.53075 -0.01545 -0.08656
 C2724 C 0.51251 -0.00969 -0.07992
 H2725 H 0.56100 0.01370 -0.16609
 H2726 H 0.54127 -0.02128 -0.07627
 H2727 H 0.56251 -0.03086 -0.17210
 H2728 H 0.50108 -0.00608 -0.09032
 C2729 C 0.67759 0.58157 0.01017
 C2730 C 0.66889 0.56974 -0.00447
 C2731 C 0.64921 0.56080 -0.00206
 N2732 N 0.63925 0.55328 -0.01782
 N2733 N 0.62127 0.54553 -0.01585
 C2734 C 0.61265 0.54493 0.00199
 N2735 N 0.62269 0.55227 0.01774
 N2736 N 0.64060 0.56010 0.01576
 C2737 C 0.59281 0.53660 0.00464
 C2738 C 0.58014 0.53166 -0.01092
 H2739 H 0.67576 0.56787 -0.01852
 H2740 H 0.58774 0.53503 0.01954
 H2741 H 0.66913 0.58411 0.02327
 H2742 H 0.58480 0.53395 -0.02586
 C2743 C 0.18930 1.07031 0.49405
 C2744 C 0.17306 1.07157 0.48145
 C2745 C 0.15510 1.05964 0.48425
 N2746 N 0.14024 1.06036 0.47093
 N2747 N 0.12349 1.05046 0.47376
 C2748 C 0.12095 1.03952 0.49008
 N2749 N 0.13583 1.03875 0.50337
 N2750 N 0.15261 1.04859 0.50050
 C2751 C 0.10210 1.02955 0.49404
 C2752 C 0.08659 1.02933 0.48057
 H2753 H 0.17302 1.08160 0.46935
 H2754 H 0.10015 1.02294 0.50827
 H2755 H 0.18895 1.05886 0.50491
 H2756 H 0.08878 1.03540 0.46613
 C2757 C 0.17759 -0.07290 1.00238
 C2758 C 0.16352 -0.07146 1.01712
 C2759 C 0.14621 -0.05907 1.01505
 N2760 N 0.13294 -0.05817 1.02970
 N2761 N 0.11691 -0.04753 1.02780
 C2762 C 0.11356 -0.03738 1.01113
 N2763 N 0.12686 -0.03821 0.99653
 N2764 N 0.14289 -0.04883 0.99844
 C2765 C 0.09554 -0.02625 1.00826
 C2766 C 0.08094 -0.02493 1.02238
 H2767 H 0.16469 -0.07965 1.03050
 H2768 H 0.09341 -0.01949 0.99413
 H2769 H 0.17574 -0.06383 0.98958
 H2770 H 0.08311 -0.03142 1.03663
 C2771 C 0.67691 0.42493 0.49976
 C2772 C 0.66124 0.42364 0.51284
 C2773 C 0.64438 0.43668 0.51141
 N2774 N 0.63015 0.43603 0.52517
 N2775 N 0.61456 0.44735 0.52372
 C2776 C 0.61263 0.45973 0.50842
 N2777 N 0.62685 0.46039 0.49469
 N2778 N 0.64244 0.44912 0.49617
 C2779 C 0.59512 0.47167 0.50593
 C2780 C 0.58024 0.47249 0.51977
 H2781 H 0.66101 0.41306 0.52446
 H2782 H 0.59369 0.47966 0.49238
 H2783 H 0.67665 0.43662 0.48917
 H2784 H 0.58189 0.46505 0.53361
 C2785 C -0.18071 0.42722 0.49503
 C2786 C -0.16551 0.42826 0.48141
 C2787 C -0.14761 0.44023 0.48498
 N2788 N -0.13366 0.44150 0.47099
 N2789 N -0.11702 0.45161 0.47429
 C2790 C -0.11369 0.46079 0.49174
 N2791 N -0.12766 0.45958 0.50570
 N2792 N -0.14431 0.44952 0.50239
 C2793 C -0.09499 0.47114 0.49605
 C2794 C -0.08020 0.47317 0.48220
 H2795 H -0.16631 0.42014 0.46782
 H2796 H -0.09256 0.47669 0.51079
 H2797 H -0.17949 0.43671 0.50777
 H2798 H -0.08280 0.46805 0.46733
 C2799 C 0.32181 -0.07670 -0.00704
 C2800 C 0.32828 -0.06221 0.00622
 C2801 C 0.34757 -0.05220 0.00480
 N2802 N 0.35329 -0.03938 0.01906
 N2803 N 0.37091 -0.03065 0.01863
 C2804 C 0.38350 -0.03431 0.00387
 N2805 N 0.37777 -0.04703 -0.01055
 N2806 N 0.36012 -0.05582 -0.01009
 C2807 C 0.40328 -0.02527 0.00459
 C2808 C 0.41719 -0.02730 -0.01013
 H2809 H 0.31948 -0.05815 0.01857
 H2810 H 0.40722 -0.01708 0.01773
 H2811 H 0.33127 -0.07987 -0.01927
 H2812 H 0.41322 -0.03466 -0.02373
 C2813 C 0.33410 1.07821 0.49880
 C2814 C 0.34981 1.07875 0.51219
 C2815 C 0.36783 1.06780 0.50884
 N2816 N 0.38227 1.06795 0.52268
 N2817 N 0.39887 1.05855 0.51964
 C2818 C 0.40166 1.04867 0.50262
 N2819 N 0.38722 1.04850 0.48880
 N2820 N 0.37060 1.05786 0.49185
 C2821 C 0.42013 1.03873 0.49871
 C2822 C 0.43525 1.03778 0.51256
 H2823 H 0.34930 1.08729 0.52551
 H2824 H 0.42194 1.03225 0.48435
 H2825 H 0.33522 1.06852 0.48626
 H2826 H 0.43328 1.04387 0.52708
 C2827 C -0.17453 0.58019 0.99530
 C2828 C -0.16024 0.57745 1.00989
 C2829 C -0.14339 0.56466 1.00713
 N2830 N -0.13065 0.56186 1.02222
 N2831 N -0.11501 0.55079 1.01991
 C2832 C -0.11152 0.54208 1.00241
 N2833 N -0.12429 0.54482 0.98734
 N2834 N -0.13995 0.55587 0.98965
 C2835 C -0.09376 0.53066 0.99926
 C2836 C -0.07989 0.52757 1.01406
 H2837 H -0.16127 0.58444 1.02404
 H2838 H -0.09108 0.52540 0.98455
 H2839 H -0.17336 0.57174 0.98190
 H2840 H -0.08267 0.53261 1.02882
 C2841 C -0.00734 0.67951 0.57924
 C2842 C -0.00081 0.66165 0.58624
 C2843 C -0.00122 0.64399 0.57394
 N2844 N 0.00685 0.62743 0.58072
 N2845 N 0.00678 0.61134 0.56969
 C2846 C -0.00138 0.61125 0.55146
 N2847 N -0.00950 0.62780 0.54469
 N2848 N -0.00939 0.64389 0.55571
 C2849 C -0.00193 0.59357 0.53925
 C2850 C 0.00664 0.57634 0.54528
 H2851 H 0.00551 0.66030 0.60071
 H2852 H -0.00967 0.59406 0.52533
 H2853 H -0.01292 0.67987 0.56432
 H2854 H 0.01459 0.57593 0.55909
 C2855 C 0.50117 0.17865 0.07562
 C2856 C 0.50743 0.16054 0.08224
 C2857 C 0.50707 0.14309 0.06964
 N2858 N 0.51472 0.12633 0.07642
 N2859 N 0.51409 0.11019 0.06547
 C2860 C 0.50574 0.11022 0.04733
 N2861 N 0.49811 0.12699 0.04052
 N2862 N 0.49878 0.14315 0.05146
 C2863 C 0.50415 0.09229 0.03547
 C2864 C 0.51202 0.07482 0.04182
 H2865 H 0.51320 0.15877 0.09688
 H2866 H 0.49600 0.09272 0.02178
 H2867 H 0.49696 0.17977 0.06031
 H2868 H 0.52048 0.07453 0.05533
 C2869 C -0.01627 0.17247 0.90765
 C2870 C -0.01010 0.16817 0.92670
 C2871 C -0.01015 0.14812 0.93411
 N2872 N -0.00236 0.14457 0.95203
 N2873 N -0.00176 0.12646 0.95882
 C2874 C -0.00895 0.11122 0.94794
 N2875 N -0.01688 0.11476 0.93005
 N2876 N -0.01744 0.13289 0.92324
 C2877 C -0.00802 0.09115 0.95521
 C2878 C 0.00152 0.08699 0.97277
 H2879 H -0.00433 0.17935 0.93649
 H2880 H -0.01468 0.07948 0.94647
 H2881 H -0.02172 0.16043 0.89859
 H2882 H 0.00837 0.09873 0.98126
 C2883 C 0.48895 0.67716 0.41009
 C2884 C 0.50003 0.67116 0.42622
 C2885 C 0.49863 0.65119 0.43382
 N2886 N 0.50943 0.64637 0.44977
 N2887 N 0.50870 0.62829 0.45669
 C2888 C 0.49715 0.61432 0.44792
 N2889 N 0.48631 0.61914 0.43196
 N2890 N 0.48703 0.63725 0.42504
 C2891 C 0.49648 0.59426 0.45535
 C2892 C 0.50719 0.58907 0.47192
 H2893 H 0.51022 0.68098 0.43369
 H2894 H 0.48747 0.58343 0.44764
 H2895 H 0.47854 0.66668 0.40371
 H2896 H 0.51597 0.60006 0.47967
 C2897 C 0.50468 0.82287 0.42677
 C2898 C 0.51716 0.83918 0.42481
 C2899 C 0.51472 0.85719 0.43620
 N2900 N 0.52569 0.87321 0.43168
 N2901 N 0.52309 0.89003 0.44101
 C2902 C 0.50943 0.89148 0.45523
 N2903 N 0.49860 0.87539 0.45995
 N2904 N 0.50115 0.85854 0.45055
 C2905 C 0.50620 0.91022 0.46516
 C2906 C 0.51497 0.92737 0.45836
 H2907 H 0.52849 0.83966 0.41392
 H2908 H 0.49657 0.91056 0.47766
 H2909 H 0.49397 0.82318 0.43838
 H2910 H 0.52409 0.92689 0.44547
 C2911 C -0.00543 0.32052 0.92206
 C2912 C 0.00801 0.33618 0.92101
 C2913 C 0.00578 0.35406 0.93267
 N2914 N 0.01710 0.37002 0.92872
 N2915 N 0.01481 0.38660 0.93862
 C2916 C 0.00115 0.38780 0.95287
 N2917 N -0.01003 0.37178 0.95698
 N2918 N -0.00779 0.35521 0.94703
 C2919 C -0.00183 0.40613 0.96357
 C2920 C 0.00727 0.42355 0.95790
 H2921 H 0.01980 0.33628 0.91059
 H2922 H -0.01184 0.40600 0.97578
 H2923 H -0.01739 0.32178 0.93229
 H2924 H 0.01681 0.42371 0.94530
 C2925 C 0.50696 0.32860 0.07955
 C2926 C 0.49096 0.33871 0.07216
 C2927 C 0.49360 0.35814 0.06359
 N2928 N 0.47842 0.37058 0.06292
 N2929 N 0.48079 0.38832 0.05537
 C2930 C 0.49841 0.39414 0.04808
 N2931 N 0.51350 0.38161 0.04854
 N2932 N 0.51118 0.36397 0.05626
 C2933 C 0.50127 0.41332 0.03916
 C2934 C 0.48871 0.42876 0.04233
 H2935 H 0.47610 0.33330 0.07405
 H2936 H 0.51412 0.41549 0.03016
 H2937 H 0.52119 0.33600 0.07956
 H2938 H 0.47674 0.42725 0.05255
 C2939 C 0.00260 0.82636 0.56628
 C2940 C -0.01367 0.83725 0.56106
 C2941 C -0.01086 0.85606 0.55134
 N2942 N -0.02339 0.87077 0.55472
 N2943 N -0.02001 0.88835 0.54713
 C2944 C -0.00407 0.89172 0.53579
 N2945 N 0.00818 0.87690 0.53206
 N2946 N 0.00492 0.85941 0.53980
 C2947 C 0.00023 0.91097 0.52761
 C2948 C -0.00790 0.92794 0.53498
 H2949 H -0.02817 0.83352 0.56632
 H2950 H 0.01088 0.91185 0.51597
 H2951 H 0.01698 0.83236 0.56273
 H2952 H -0.01767 0.92726 0.54737
 C2953 C 0.24822 0.33051 0.08057
 C2954 C 0.26167 0.31677 0.08717
 C2955 C 0.26116 0.30968 0.10756
 N2956 N 0.27247 0.29465 0.11334
 N2957 N 0.27199 0.28833 0.13179
 C2958 C 0.26025 0.29694 0.14514
 N2959 N 0.24908 0.31200 0.13936
 N2960 N 0.24951 0.31823 0.12097
 C2961 C 0.25904 0.29043 0.16558
 C2962 C 0.26800 0.27385 0.17297
 H2963 H 0.27265 0.31096 0.07759
 H2964 H 0.24981 0.29888 0.17510
 H2965 H 0.23703 0.33485 0.09078
 H2966 H 0.27697 0.26502 0.16357
 C2967 C 0.75628 0.83332 0.58111
 C2968 C 0.77021 0.82060 0.58866
 C2969 C 0.77007 0.81516 0.60955
 N2970 N 0.78158 0.80069 0.61630
 N2971 N 0.78138 0.79580 0.63518
 C2972 C 0.76978 0.80533 0.64800
 N2973 N 0.75846 0.81987 0.64126
 N2974 N 0.75859 0.82468 0.62243
 C2975 C 0.76870 0.80006 0.66881
 C2976 C 0.77743 0.78364 0.67675
 H2977 H 0.78135 0.81445 0.57950
 H2978 H 0.75951 0.80892 0.67797
 H2979 H 0.74493 0.83798 0.59100
 H2980 H 0.78630 0.77443 0.66762
 C2981 C 0.25550 0.66959 0.57595
 C2982 C 0.24133 0.68156 0.58416
 C2983 C 0.24235 0.68702 0.60512
 N2984 N 0.23049 0.70086 0.61250
 N2985 N 0.23131 0.70561 0.63149
 C2986 C 0.24394 0.69657 0.64380
 N2987 N 0.25566 0.68266 0.63643
 N2988 N 0.25490 0.67800 0.61749
 C2989 C 0.24533 0.70143 0.66480
 C2990 C 0.23622 0.71739 0.67327
 H2991 H 0.22931 0.68699 0.57549
 H2992 H 0.25471 0.69250 0.67377
 H2993 H 0.26774 0.66576 0.58532
 H2994 H 0.22744 0.72685 0.66426
 C2995 C 0.75684 0.17013 0.06683
 C2996 C 0.74274 0.18204 0.07525
 C2997 C 0.74498 0.18898 0.09568
 N2998 N 0.73331 0.20311 0.10281
 N2999 N 0.73519 0.20918 0.12136
 C3000 C 0.74873 0.20121 0.13347
 N3001 N 0.76026 0.18702 0.12637
 N3002 N 0.75846 0.18105 0.10784
 C3003 C 0.75107 0.20731 0.15407
 C3004 C 0.74229 0.22369 0.16206
 H3005 H 0.73000 0.18653 0.06706
 H3006 H 0.76075 0.19879 0.16314
 H3007 H 0.76993 0.16749 0.07549
 H3008 H 0.73334 0.23284 0.15289
 C3009 C 0.75212 0.16874 0.91329
 C3010 C 0.75087 0.18878 0.90984
 C3011 C 0.74850 0.19614 0.88970
 N3012 N 0.74973 0.21555 0.88595
 N3013 N 0.74739 0.22213 0.86773
 C3014 C 0.74362 0.20948 0.85266
 N3015 N 0.74230 0.19014 0.85646
 N3016 N 0.74471 0.18360 0.87459
 C3017 C 0.74069 0.21603 0.83242
 C3018 C 0.74367 0.23520 0.82623
 H3019 H 0.75163 0.19931 0.92168
 H3020 H 0.73637 0.20491 0.82178
 H3021 H 0.75234 0.15923 0.90054
 H3022 H 0.74862 0.24636 0.83657
 C3023 C 0.25843 0.66527 0.41878
 C3024 C 0.25906 0.68504 0.41383
 C3025 C 0.25851 0.69105 0.39311
 N3026 N 0.26169 0.70999 0.38814
 N3027 N 0.26081 0.71545 0.36944
 C3028 C 0.25665 0.70215 0.35504
 N3029 N 0.25343 0.68327 0.36002
 N3030 N 0.25439 0.67783 0.37866
 C3031 C 0.25464 0.70777 0.33438
 C3032 C 0.25939 0.72635 0.32749
 H3033 H 0.26008 0.69633 0.42493
 H3034 H 0.24885 0.69679 0.32425
 H3035 H 0.25863 0.65484 0.40678
 H3036 H 0.26597 0.73716 0.33731
 C3037 C 0.74441 0.83261 0.42478
 C3038 C 0.74273 0.81268 0.42039
 C3039 C 0.74173 0.80582 0.39986
 N3040 N 0.73835 0.78666 0.39561
 N3041 N 0.73792 0.78040 0.37706
 C3042 C 0.74088 0.79308 0.36212
 N3043 N 0.74425 0.81219 0.36639
 N3044 N 0.74462 0.81844 0.38489
 C3045 C 0.74152 0.78651 0.34161
 C3046 C 0.73718 0.76737 0.33577
 H3047 H 0.74214 0.80186 0.43179
 H3048 H 0.74616 0.79709 0.33081
 H3049 H 0.74391 0.84257 0.41254
 H3050 H 0.73185 0.75691 0.34637
 C3051 C 0.23523 0.33068 0.92638
 C3052 C 0.23499 0.31062 0.92233
 C3053 C 0.23434 0.30338 0.90190
 N3054 N 0.23315 0.28395 0.89791
 N3055 N 0.23321 0.27744 0.87943
 C3056 C 0.23449 0.29017 0.86431
 N3057 N 0.23564 0.30953 0.86833
 N3058 N 0.23553 0.31601 0.88673
 C3059 C 0.23568 0.28363 0.84382
 C3060 C 0.23345 0.26424 0.83772
 H3061 H 0.23557 0.30000 0.93390
 H3062 H 0.23884 0.29476 0.83306
 H3063 H 0.23384 0.34036 0.91399
 H3064 H 0.22936 0.25307 0.84812
 C3065 C 0.81483 0.43038 0.74502
 C3066 C 0.81293 0.41573 0.75912
 C3067 C 0.80097 0.39780 0.75573
 N3068 N 0.79884 0.38464 0.77035
 N3069 N 0.78861 0.36807 0.76742
 C3070 C 0.78012 0.36401 0.74973
 N3071 N 0.78220 0.37719 0.73512
 N3072 N 0.79240 0.39378 0.73806
 C3073 C 0.76949 0.34538 0.74595
 C3074 C 0.76660 0.33139 0.76046
 H3075 H 0.82020 0.41708 0.77320
 H3076 H 0.76436 0.34238 0.73114
 H3077 H 0.80618 0.42865 0.73167
 H3078 H 0.77143 0.33455 0.77533
 C3079 C 0.32306 0.92356 0.24265
 C3080 C 0.31421 0.91356 0.25817
 C3081 C 0.30549 0.89383 0.25547
 N3082 N 0.30100 0.88273 0.27127
 N3083 N 0.29338 0.86477 0.26895
 C3084 C 0.28992 0.85729 0.25073
 N3085 N 0.29426 0.86844 0.23498
 N3086 N 0.30196 0.88633 0.23729
 C3087 C 0.28127 0.83764 0.24766
 C3088 C 0.27881 0.82407 0.26264
 H3089 H 0.31471 0.91945 0.27289
 H3090 H 0.27694 0.83365 0.23283
 H3091 H 0.32348 0.91608 0.22862
 H3092 H 0.28388 0.82762 0.27736
 C3093 C 0.17125 0.91060 0.75774
 C3094 C 0.18430 0.90317 0.74402
 C3095 C 0.19257 0.88364 0.74653
 N3096 N 0.20006 0.87390 0.73101
 N3097 N 0.20721 0.85609 0.73322
 C3098 C 0.20725 0.84746 0.75107
 N3099 N 0.19999 0.85730 0.76658
 N3100 N 0.19271 0.87500 0.76435
 C3101 C 0.21519 0.82794 0.75411
 C3102 C 0.21917 0.81499 0.73887
 H3103 H 0.18763 0.91095 0.73072
 H3104 H 0.21731 0.82336 0.76912
 H3105 H 0.16701 0.90108 0.76966
 H3106 H 0.21605 0.81900 0.72386
 C3107 C 0.67444 0.41560 0.25329
 C3108 C 0.68335 0.40720 0.23694
 C3109 C 0.69346 0.38848 0.23832
 N3110 N 0.69846 0.37862 0.22183
 N3111 N 0.70741 0.36156 0.22300
 C3112 C 0.71179 0.35383 0.24073
 N3113 N 0.70695 0.36377 0.25716
 N3114 N 0.69793 0.38073 0.25599
 C3115 C 0.72156 0.33505 0.24270
 C3116 C 0.72470 0.32216 0.22715
 H3117 H 0.68221 0.41367 0.22262
 H3118 H 0.72572 0.33089 0.25741
 H3119 H 0.67474 0.40745 0.26683
 H3120 H 0.72001 0.32583 0.21246
 C3121 C 0.67738 0.56315 0.25868
 C3122 C 0.67143 0.58130 0.26566
 C3123 C 0.68488 0.59837 0.26649
 N3124 N 0.67992 0.61452 0.27675
 N3125 N 0.69160 0.63036 0.27698
 C3126 C 0.70864 0.63065 0.26685
 N3127 N 0.71359 0.61452 0.25659
 N3128 N 0.70199 0.59864 0.25648
 C3129 C 0.72088 0.64849 0.26548
 C3130 C 0.71813 0.66491 0.27724
 H3131 H 0.65686 0.58317 0.27136
 H3132 H 0.73187 0.64898 0.25414
 H3133 H 0.69279 0.56161 0.25534
 H3134 H 0.70816 0.66414 0.28947
 C3135 C 0.17655 0.06303 0.75222
 C3136 C 0.17783 0.07733 0.76700
 C3137 C 0.18815 0.09623 0.76444
 N3138 N 0.18874 0.10939 0.77939
 N3139 N 0.19745 0.12681 0.77723
 C3140 C 0.20590 0.13173 0.76000
 N3141 N 0.20538 0.11855 0.74506
 N3142 N 0.19667 0.10112 0.74722
 C3143 C 0.21508 0.15110 0.75709
 C3144 C 0.21578 0.16555 0.77164
 H3145 H 0.17110 0.07509 0.78105
 H3146 H 0.22108 0.15420 0.74279
 H3147 H 0.18455 0.06577 0.73884
 H3148 H 0.20994 0.16247 0.78600
 C3149 C 0.32671 0.07376 0.24823
 C3150 C 0.33394 0.09237 0.24337
 C3151 C 0.32154 0.10971 0.24408
 N3152 N 0.32739 0.12638 0.23503
 N3153 N 0.31658 0.14231 0.23599
 C3154 C 0.29957 0.14221 0.24618
 N3155 N 0.29378 0.12557 0.25531
 N3156 N 0.30451 0.10960 0.25421
 C3157 C 0.28794 0.15993 0.24833
 C3158 C 0.29074 0.17640 0.23670
 H3159 H 0.34873 0.09445 0.23811
 H3160 H 0.27682 0.16000 0.25954
 H3161 H 0.31116 0.07229 0.25123
 H3162 H 0.30089 0.17594 0.22462
 C3163 C 0.82304 0.57907 0.74904
 C3164 C 0.83112 0.59727 0.74391
 C3165 C 0.81981 0.61530 0.74467
 N3166 N 0.82688 0.63170 0.73597
 N3167 N 0.81720 0.64833 0.73710
 C3168 C 0.80013 0.64920 0.74711
 N3169 N 0.79308 0.63281 0.75584
 N3170 N 0.80269 0.61615 0.75459
 C3171 C 0.78978 0.66765 0.74948
 C3172 C 0.79428 0.68431 0.73863
 H3173 H 0.84591 0.59856 0.73847
 H3174 H 0.77827 0.66813 0.76029
 H3175 H 0.80746 0.57829 0.75209
 H3176 H 0.80484 0.68359 0.72693
 C3177 C 0.92001 0.76164 0.16332
 C3178 C 0.91373 0.74980 0.17870
 C3179 C 0.89412 0.75158 0.18720
 N3180 N 0.88925 0.74097 0.20316
 N3181 N 0.87135 0.74190 0.21066
 C3182 C 0.85762 0.75343 0.20243
 N3183 N 0.86248 0.76405 0.18646
 N3184 N 0.88041 0.76316 0.17899
 C3185 C 0.83763 0.75406 0.21024
 C3186 C 0.83263 0.74441 0.22740
 H3187 H 0.92304 0.73884 0.18484
 H3188 H 0.82665 0.76205 0.20223
 H3189 H 0.91043 0.77325 0.15884
 H3190 H 0.84384 0.73696 0.23563
 C3191 C 0.40971 0.26862 0.65759
 C3192 C 0.40620 0.26483 0.67733
 C3193 C 0.38640 0.26543 0.68547
 N3194 N 0.38330 0.25906 0.70393
 N3195 N 0.36528 0.25842 0.71121
 C3196 C 0.34970 0.26417 0.70031
 N3197 N 0.35282 0.27082 0.68193
 N3198 N 0.37085 0.27140 0.67462
 C3199 C 0.32969 0.26260 0.70791
 C3200 C 0.32585 0.25296 0.72535
 H3201 H 0.41770 0.26026 0.68712
 H3202 H 0.31776 0.26838 0.69927
 H3203 H 0.39747 0.27340 0.64872
 H3204 H 0.33783 0.24683 0.73365
 C3205 C 0.43432 0.74689 0.81863
 C3206 C 0.41910 0.73288 0.81920
 C3207 C 0.40041 0.73514 0.80862
 N3208 N 0.38513 0.72286 0.81257
 N3209 N 0.36778 0.72506 0.80386
 C3210 C 0.36505 0.73961 0.79081
 N3211 N 0.38039 0.75178 0.78665
 N3212 N 0.39776 0.74963 0.79545
 C3213 C 0.34575 0.74238 0.78152
 C3214 C 0.32905 0.73247 0.78814
 H3215 H 0.41987 0.72043 0.82871
 H3216 H 0.34458 0.75278 0.76973
 H3217 H 0.43234 0.75933 0.80917
 H3218 H 0.33026 0.72270 0.80047
 C3219 C 0.92411 0.23475 0.34046
 C3220 C 0.91924 0.23630 0.32061
 C3221 C 0.89884 0.23440 0.31352
 N3222 N 0.89464 0.23831 0.29453
 N3223 N 0.87619 0.23756 0.28799
 C3224 C 0.86121 0.23283 0.30016
 N3225 N 0.86542 0.22865 0.31911
 N3226 N 0.88391 0.22946 0.32568
 C3227 C 0.84073 0.23288 0.29314
 C3228 C 0.83609 0.24046 0.27486
 H3229 H 0.93018 0.23986 0.30983
 H3230 H 0.82919 0.22781 0.30275
 H3231 H 0.91234 0.23109 0.35043
 H3232 H 0.84777 0.24610 0.26571
 C3233 C 0.07520 0.26460 0.32964
 C3234 C 0.08301 0.25169 0.31599
 C3235 C 0.10331 0.25390 0.30911
 N3236 N 0.11002 0.24156 0.29523
 N3237 N 0.12860 0.24278 0.28948
 C3238 C 0.14120 0.25633 0.29746
 N3239 N 0.13450 0.26869 0.31132
 N3240 N 0.11589 0.26751 0.31704
 C3241 C 0.16188 0.25746 0.29158
 C3242 C 0.16892 0.24589 0.27648
 H3243 H 0.07460 0.23929 0.31044
 H3244 H 0.17171 0.26761 0.29925
 H3245 H 0.08405 0.27739 0.33360
 H3246 H 0.15886 0.23625 0.26845
 C3247 C 0.58201 0.76546 0.83489
 C3248 C 0.59016 0.75396 0.82022
 C3249 C 0.61032 0.75740 0.81337
 N3250 N 0.61693 0.74717 0.79781
 N3251 N 0.63529 0.74973 0.79172
 C3252 C 0.64776 0.76255 0.80100
 N3253 N 0.64116 0.77277 0.81659
 N3254 N 0.62277 0.77026 0.82265
 C3255 C 0.66823 0.76504 0.79472
 C3256 C 0.67500 0.75583 0.77793
 H3257 H 0.58186 0.74220 0.81326
 H3258 H 0.67816 0.77403 0.80360
 H3259 H 0.59073 0.77782 0.84029
 H3260 H 0.66483 0.74732 0.76885
 C3261 C 0.55750 0.25393 0.66567
 C3262 C 0.57306 0.24108 0.66410
 C3263 C 0.59108 0.24353 0.67594
 N3264 N 0.60678 0.23242 0.67200
 N3265 N 0.62343 0.23479 0.68221
 C3266 C 0.62496 0.24834 0.69677
 N3267 N 0.60920 0.25934 0.70084
 N3268 N 0.59257 0.25700 0.69059
 C3269 C 0.64334 0.25140 0.70788
 C3270 C 0.66052 0.24210 0.70274
 H3271 H 0.57287 0.22946 0.65336
 H3272 H 0.64345 0.26163 0.72005
 H3273 H 0.55905 0.26574 0.67626
 H3274 H 0.66048 0.23223 0.69028
 C3275 C 0.07090 0.74342 0.15497
 C3276 C 0.07528 0.74544 0.17494
 C3277 C 0.09543 0.74334 0.18247
 N3278 N 0.09988 0.74830 0.20129
 N3279 N 0.11818 0.74697 0.20810
 C3280 C 0.13269 0.74054 0.19636
 N3281 N 0.12820 0.73537 0.17762
 N3282 N 0.10992 0.73677 0.17079
 C3283 C 0.15307 0.73956 0.20344
 C3284 C 0.15892 0.74729 0.22155
 H3285 H 0.06424 0.74937 0.18537
 H3286 H 0.16385 0.73340 0.19379
 H3287 H 0.08295 0.74019 0.14531
 H3288 H 0.14818 0.75393 0.23093
   
