data_POSCAR
  _audit_creation_date              2014-09-24
  _audit_creation_method            'ToBaCCo'
  _symmetry_space_group_name_H-M    'P1'
  _symmetry_Int_Tables_number       1
  _symmetry_cell_setting            triclinic
  loop_
  _symmetry_equiv_pos_as_xyz
 x,y,z
_cell_length_a 59.3216
_cell_length_b 57.6353
_cell_length_c 55.7937
_cell_angle_alpha 89.938600
_cell_angle_beta 89.935800
_cell_angle_gamma 89.907100
loop_
  _atom_site_label
  _atom_site_type_symbol
  _atom_site_fract_x
  _atom_site_fract_y
  _atom_site_fract_z
N1 N 0.37104 0.30625 0.31851
 N2 N 0.37189 0.32378 0.30342
 C3 C 0.39035 0.32144 0.28947
 C4 C 0.40133 0.30124 0.29607
 C5 C 0.38863 0.29205 0.31449
 H6 H 0.39503 0.33301 0.27503
 H7 H 0.39188 0.27608 0.32409
 Cu8 Cu 0.34750 0.34648 0.30213
 Cu9 Cu 0.34708 0.30263 0.34197
 Cu10 Cu 0.30259 0.34139 0.33878
 N11 N 0.32279 0.36881 0.30136
 N12 N 0.30478 0.36585 0.31480
 C13 C 0.28988 0.38288 0.31018
 C14 C 0.29909 0.39742 0.29312
 C15 C 0.32001 0.38806 0.28790
 H16 H 0.27376 0.38492 0.31899
 H17 H 0.33214 0.39471 0.27516
 N18 N 0.30378 0.31572 0.36210
 N19 N 0.32130 0.30171 0.36411
 C20 C 0.31820 0.28768 0.38315
 C21 C 0.29766 0.29297 0.39340
 C22 C 0.28889 0.31070 0.37960
 H23 H 0.33005 0.27470 0.38930
 H24 H 0.27325 0.31987 0.38276
 H25 H 0.32272 0.31793 0.32078
 H26 H 0.33690 0.33706 0.34320
 N27 N 0.37195 0.80563 -0.18220
 N28 N 0.37469 0.82481 -0.19464
 C29 C 0.39337 0.82272 -0.20831
 C30 C 0.40248 0.80090 -0.20435
 C31 C 0.38842 0.79055 -0.18776
 H32 H 0.39956 0.83586 -0.22050
 H33 H 0.39023 0.77342 -0.18005
 Cu34 Cu 0.35295 0.85017 -0.19273
 Cu35 Cu 0.34796 0.80182 -0.15894
 Cu36 Cu 0.30408 0.84064 -0.16282
 N37 N 0.32642 0.86965 -0.19738
 N38 N 0.30714 0.86501 -0.18676
 C39 C 0.29170 0.88087 -0.19340
 C40 C 0.30191 0.89649 -0.20876
 C41 C 0.32397 0.88887 -0.21095
 H42 H 0.27455 0.88153 -0.18683
 H43 H 0.33722 0.89673 -0.22152
 N44 N 0.30464 0.81505 -0.13940
 N45 N 0.32201 0.80089 -0.13719
 C46 C 0.31873 0.78701 -0.11809
 C47 C 0.29819 0.79258 -0.10797
 C48 C 0.28962 0.81032 -0.12194
 H49 H 0.33051 0.77405 -0.11176
 H50 H 0.27411 0.81975 -0.11889
 H51 H 0.32648 0.82019 -0.18152
 H52 H 0.33775 0.83639 -0.15482
 N53 N 0.87170 0.30653 -0.18171
 N54 N 0.87398 0.32542 -0.19471
 C55 C 0.89238 0.32319 -0.20875
 C56 C 0.90183 0.30162 -0.20439
 C57 C 0.88828 0.29154 -0.18720
 H58 H 0.89817 0.33603 -0.22149
 H59 H 0.89042 0.27458 -0.17921
 Cu60 Cu 0.85204 0.35060 -0.19292
 Cu61 Cu 0.84780 0.30273 -0.15831
 Cu62 Cu 0.80338 0.34091 -0.16277
 N63 N 0.82540 0.36987 -0.19760
 N64 N 0.80616 0.36512 -0.18693
 C65 C 0.79064 0.38092 -0.19351
 C66 C 0.80077 0.39664 -0.20885
 C67 C 0.82284 0.38910 -0.21112
 H68 H 0.77353 0.38156 -0.18682
 H69 H 0.83606 0.39708 -0.22163
 N70 N 0.80422 0.31555 -0.13907
 N71 N 0.82181 0.30171 -0.13661
 C72 C 0.81863 0.28794 -0.11741
 C73 C 0.79794 0.29323 -0.10748
 C74 C 0.78918 0.31072 -0.12166
 H75 H 0.83055 0.27519 -0.11092
 H76 H 0.77350 0.31989 -0.11882
 H77 H 0.82601 0.32037 -0.18112
 H78 H 0.83709 0.33716 -0.15475
 N79 N 0.87042 0.80645 0.31772
 N80 N 0.87290 0.82556 0.30511
 C81 C 0.89117 0.82334 0.29090
 C82 C 0.90033 0.80156 0.29473
 C83 C 0.88675 0.79133 0.31180
 H84 H 0.89712 0.83638 0.27846
 H85 H 0.88875 0.77421 0.31948
 Cu86 Cu 0.85151 0.85111 0.30763
 Cu87 Cu 0.84670 0.80268 0.34133
 Cu88 Cu 0.80298 0.84182 0.33814
 N89 N 0.82516 0.87086 0.30350
 N90 N 0.80596 0.86638 0.31437
 C91 C 0.79062 0.88246 0.30802
 C92 C 0.80083 0.89802 0.29258
 C93 C 0.82276 0.89014 0.29005
 H94 H 0.77354 0.88327 0.31479
 H95 H 0.83597 0.89786 0.27931
 N96 N 0.80360 0.81605 0.36137
 N97 N 0.82094 0.80181 0.36334
 C98 C 0.81774 0.78780 0.38235
 C99 C 0.79728 0.79335 0.39265
 C100 C 0.78868 0.81123 0.37890
 H101 H 0.82951 0.77473 0.38846
 H102 H 0.77323 0.82070 0.38215
 H103 H 0.82506 0.82119 0.31912
 H104 H 0.83673 0.83725 0.34570
 N105 N 0.62925 0.69395 0.31827
 N106 N 0.62689 0.67489 0.30560
 C107 C 0.60867 0.67709 0.29135
 C108 C 0.59940 0.69881 0.29522
 C109 C 0.61287 0.70902 0.31235
 H110 H 0.60283 0.66408 0.27886
 H111 H 0.61077 0.72609 0.32008
 Cu112 Cu 0.64836 0.64945 0.30812
 Cu113 Cu 0.65290 0.69769 0.34191
 Cu114 Cu 0.69656 0.65837 0.33911
 N115 N 0.67470 0.62971 0.30402
 N116 N 0.69372 0.63389 0.31530
 C117 C 0.70904 0.61777 0.30900
 C118 C 0.69904 0.60263 0.29308
 C119 C 0.67723 0.61067 0.29029
 H120 H 0.72600 0.61669 0.31602
 H121 H 0.66419 0.60318 0.27920
 N122 N 0.69582 0.68416 0.36226
 N123 N 0.67854 0.69850 0.36404
 C124 C 0.68171 0.71261 0.38294
 C125 C 0.70209 0.70703 0.39335
 C126 C 0.71068 0.68903 0.37978
 H127 H 0.67000 0.72581 0.38888
 H128 H 0.72613 0.67957 0.38311
 H129 H 0.67483 0.67922 0.31998
 H130 H 0.66279 0.66313 0.34637
 N131 N 0.62780 0.19393 -0.18142
 N132 N 0.62696 0.17628 -0.19631
 C133 C 0.60838 0.17836 -0.21008
 C134 C 0.59732 0.19853 -0.20357
 C135 C 0.61007 0.20795 -0.18538
 H136 H 0.60372 0.16668 -0.22439
 H137 H 0.60681 0.22400 -0.17595
 Cu138 Cu 0.65158 0.15391 -0.19782
 Cu139 Cu 0.65197 0.19796 -0.15835
 Cu140 Cu 0.69704 0.15992 -0.16220
 N141 N 0.67654 0.13192 -0.19882
 N142 N 0.69484 0.13538 -0.18602
 C143 C 0.70990 0.11854 -0.19084
 C144 C 0.70043 0.10354 -0.20729
 C145 C 0.67923 0.11250 -0.21199
 H146 H 0.72625 0.11691 -0.18244
 H147 H 0.66684 0.10548 -0.22418
 N148 N 0.69573 0.18559 -0.13892
 N149 N 0.67801 0.19929 -0.13664
 C150 C 0.68104 0.21325 -0.11756
 C151 C 0.70174 0.20822 -0.10756
 C152 C 0.71067 0.19072 -0.12155
 H153 H 0.66901 0.22593 -0.11118
 H154 H 0.72644 0.18174 -0.11857
 H155 H 0.67624 0.18294 -0.17991
 H156 H 0.66276 0.16367 -0.15707
 N157 N 0.12771 0.69484 -0.18134
 N158 N 0.12539 0.67596 -0.19431
 C159 C 0.10697 0.67821 -0.20827
 C160 C 0.09754 0.69977 -0.20390
 C161 C 0.11113 0.70984 -0.18678
 H162 H 0.10114 0.66538 -0.22096
 H163 H 0.10899 0.72679 -0.17878
 Cu164 Cu 0.14724 0.65074 -0.19256
 Cu165 Cu 0.15163 0.69857 -0.15803
 Cu166 Cu 0.19566 0.65981 -0.16199
 N167 N 0.17375 0.63128 -0.19715
 N168 N 0.19283 0.63557 -0.18604
 C169 C 0.20824 0.61962 -0.19255
 C170 C 0.19824 0.60443 -0.20841
 C171 C 0.17633 0.61229 -0.21097
 H172 H 0.22523 0.61862 -0.18563
 H173 H 0.16325 0.60467 -0.22191
 N174 N 0.19496 0.68530 -0.13851
 N175 N 0.17756 0.69942 -0.13629
 C176 C 0.18087 0.71338 -0.11728
 C177 C 0.20145 0.70791 -0.10726
 C178 C 0.21002 0.69014 -0.12117
 H179 H 0.16911 0.72639 -0.11101
 H180 H 0.22559 0.68081 -0.11819
 H181 H 0.17346 0.68070 -0.18055
 H182 H 0.16189 0.66409 -0.15425
 N183 N 0.12887 0.19371 0.31851
 N184 N 0.12805 0.17619 0.30346
 C185 C 0.10961 0.17851 0.28951
 C186 C 0.09861 0.19871 0.29608
 C187 C 0.11127 0.20790 0.31447
 H188 H 0.10495 0.16693 0.27512
 H189 H 0.10799 0.22386 0.32405
 Cu190 Cu 0.15244 0.15349 0.30223
 Cu191 Cu 0.15275 0.19732 0.34198
 Cu192 Cu 0.19726 0.15855 0.33892
 N193 N 0.17716 0.13117 0.30153
 N194 N 0.19513 0.13412 0.31497
 C195 C 0.21003 0.11707 0.31040
 C196 C 0.20085 0.10253 0.29338
 C197 C 0.17996 0.11191 0.28812
 H198 H 0.22613 0.11502 0.31923
 H199 H 0.16785 0.10526 0.27540
 N200 N 0.19599 0.18421 0.36221
 N201 N 0.17847 0.19823 0.36415
 C202 C 0.18150 0.21226 0.38317
 C203 C 0.20199 0.20694 0.39348
 C204 C 0.21081 0.18921 0.37973
 H205 H 0.16964 0.22524 0.38926
 H206 H 0.22643 0.18003 0.38293
 H207 H 0.17719 0.18200 0.32086
 H208 H 0.16294 0.16287 0.34329
 N209 N 0.63153 0.30229 0.68531
 N210 N 0.62934 0.32070 0.69907
 C211 C 0.61051 0.31849 0.71241
 C212 C 0.60055 0.29751 0.70689
 C213 C 0.61434 0.28764 0.68969
 H214 H 0.60457 0.33100 0.72541
 H215 H 0.61176 0.27126 0.68067
 Cu216 Cu 0.65203 0.34509 0.69917
 Cu217 Cu 0.65547 0.29946 0.66137
 Cu218 Cu 0.69487 0.34368 0.65991
 N219 N 0.67506 0.36919 0.69880
 N220 N 0.69218 0.36783 0.68387
 C221 C 0.70660 0.38525 0.68826
 C222 C 0.69804 0.39839 0.70677
 C223 C 0.67793 0.38787 0.71306
 H224 H 0.72224 0.38813 0.67875
 H225 H 0.66669 0.39303 0.72737
 N226 N 0.69503 0.31786 0.63710
 N227 N 0.68080 0.30031 0.63826
 C228 C 0.68554 0.28540 0.62030
 C229 C 0.70332 0.29431 0.60715
 C230 C 0.70887 0.31484 0.61824
 H231 H 0.67622 0.26974 0.61642
 H232 H 0.72197 0.32676 0.61279
 H233 H 0.67867 0.31852 0.68021
 H234 H 0.66093 0.33451 0.65798
 N235 N 0.62991 0.80607 1.18217
 N236 N 0.62756 0.82501 1.19506
 C237 C 0.60918 0.82281 1.20913
 C238 C 0.59982 0.80123 1.20490
 C239 C 0.61339 0.79109 1.18777
 H240 H 0.60331 0.83572 1.22175
 H241 H 0.61128 0.77412 1.17983
 Cu242 Cu 0.64928 0.85025 1.19305
 Cu243 Cu 0.65375 0.80227 1.15870
 Cu244 Cu 0.69779 0.84083 1.16255
 N245 N 0.67575 0.86972 1.19741
 N246 N 0.69489 0.86516 1.18645
 C247 C 0.71028 0.88112 1.19273
 C248 C 0.70022 0.89663 1.20826
 C249 C 0.67828 0.88894 1.21089
 H250 H 0.72729 0.88196 1.18581
 H251 H 0.66515 0.89682 1.22162
 N252 N 0.69715 0.81532 1.13916
 N253 N 0.67970 0.80133 1.13690
 C254 C 0.68290 0.78757 1.11772
 C255 C 0.70346 0.79303 1.10763
 C256 C 0.71213 0.81059 1.12167
 H257 H 0.67103 0.77479 1.11131
 H258 H 0.72765 0.81995 1.11861
 H259 H 0.67546 0.82012 1.18117
 H260 H 0.66401 0.83672 1.15480
 N261 N 0.13229 0.30448 1.18496
 N262 N 0.12857 0.32398 1.19657
 C263 C 0.10983 0.32168 1.21004
 C264 C 0.10150 0.29952 1.20682
 C265 C 0.11618 0.28905 1.19087
 H266 H 0.10278 0.33510 1.22134
 H267 H 0.11480 0.27174 1.18355
 Cu268 Cu 0.14850 0.35062 1.19341
 Cu269 Cu 0.15634 0.30134 1.16126
 Cu270 Cu 0.19550 0.34533 1.15997
 N271 N 0.17366 0.37211 1.19656
 N272 N 0.19222 0.36937 1.18397
 C273 C 0.20713 0.38584 1.19008
 C274 C 0.19737 0.39982 1.20725
 C275 C 0.17606 0.39073 1.21096
 H276 H 0.22377 0.38774 1.18239
 H277 H 0.16342 0.39700 1.22336
 N278 N 0.19604 0.31949 1.13723
 N279 N 0.18177 0.30198 1.13833
 C280 C 0.18658 0.28700 1.12048
 C281 C 0.20448 0.29581 1.10743
 C282 C 0.21001 0.31640 1.11849
 H283 H 0.17721 0.27137 1.11659
 H284 H 0.22314 0.32831 1.11310
 H285 H 0.17664 0.32257 1.18121
 H286 H 0.16160 0.33596 1.15496
 N287 N 0.12822 0.80577 0.68212
 N288 N 0.12621 0.82479 0.69495
 C289 C 0.10798 0.82287 0.70928
 C290 C 0.09835 0.80138 0.70530
 C291 C 0.11161 0.79100 0.68803
 H292 H 0.10241 0.83590 0.72192
 H293 H 0.10922 0.77402 0.68021
 Cu294 Cu 0.14814 0.84980 0.69260
 Cu295 Cu 0.15179 0.80159 0.65838
 Cu296 Cu 0.19624 0.83974 0.66178
 N297 N 0.17485 0.86895 0.69676
 N298 N 0.19385 0.86417 0.68562
 C299 C 0.20947 0.87995 0.69178
 C300 C 0.19972 0.89555 0.70743
 C301 C 0.17772 0.88811 0.71025
 H302 H 0.22644 0.88058 0.68471
 H303 H 0.16477 0.89613 0.72112
 N304 N 0.19517 0.81417 0.63849
 N305 N 0.17760 0.80032 0.63637
 C306 C 0.18067 0.78637 0.61728
 C307 C 0.20127 0.79161 0.60712
 C308 C 0.21007 0.80919 0.62102
 H309 H 0.16874 0.77356 0.61105
 H310 H 0.22571 0.81834 0.61793
 H311 H 0.17375 0.81917 0.68060
 H312 H 0.16227 0.83580 0.65427
 N313 N 0.37102 0.69511 0.68295
 N314 N 0.37321 0.67606 0.69575
 C315 C 0.39135 0.67816 0.71012
 C316 C 0.40072 0.69981 0.70624
 C317 C 0.38741 0.71008 0.68896
 H318 H 0.39707 0.66513 0.72269
 H319 H 0.38967 0.72710 0.68114
 Cu320 Cu 0.35166 0.65073 0.69321
 Cu321 Cu 0.34765 0.69896 0.65896
 Cu322 Cu 0.30388 0.65995 0.66165
 N323 N 0.32524 0.63104 0.69693
 N324 N 0.30636 0.63547 0.68546
 C325 C 0.29090 0.61942 0.69137
 C326 C 0.30064 0.60398 0.70721
 C327 C 0.32247 0.61181 0.71040
 H328 H 0.27405 0.61852 0.68406
 H329 H 0.33534 0.60405 0.72154
 N330 N 0.30481 0.68563 0.63844
 N331 N 0.32214 0.69983 0.63658
 C332 C 0.31903 0.71383 0.61751
 C333 C 0.29865 0.70826 0.60711
 C334 C 0.29001 0.69043 0.62085
 H335 H 0.33078 0.72692 0.61147
 H336 H 0.27456 0.68102 0.61757
 H337 H 0.32567 0.68086 0.68082
 H338 H 0.33787 0.66454 0.65467
 N339 N 0.36786 0.19548 1.18495
 N340 N 0.37156 0.17599 1.19663
 C341 C 0.39026 0.17830 1.21009
 C342 C 0.39861 0.20046 1.20680
 C343 C 0.38397 0.21091 1.19081
 H344 H 0.39729 0.16489 1.22144
 H345 H 0.38536 0.22821 1.18343
 Cu346 Cu 0.35166 0.14932 1.19357
 Cu347 Cu 0.34385 0.19859 1.16124
 Cu348 Cu 0.30467 0.15465 1.16020
 N349 N 0.32646 0.12787 1.19682
 N350 N 0.30790 0.13065 1.18428
 C351 C 0.29297 0.11421 1.19046
 C352 C 0.30271 0.10019 1.20761
 C353 C 0.32404 0.10924 1.21125
 H354 H 0.27633 0.11234 1.18281
 H355 H 0.33668 0.10293 1.22361
 N356 N 0.30417 0.18044 1.13734
 N357 N 0.31846 0.19793 1.13833
 C358 C 0.31367 0.21287 1.12040
 C359 C 0.29576 0.20404 1.10744
 C360 C 0.29021 0.18349 1.11861
 H361 H 0.32306 0.22847 1.11642
 H362 H 0.27707 0.17158 1.11332
 H363 H 0.32356 0.17738 1.18135
 H364 H 0.33859 0.16394 1.15510
 N365 N 0.87029 0.69388 1.18174
 N366 N 0.87267 0.67495 1.19467
 C367 C 0.89100 0.67720 1.20876
 C368 C 0.90030 0.69882 1.20450
 C369 C 0.88674 0.70892 1.18733
 H370 H 0.89686 0.66432 1.22142
 H371 H 0.88882 0.72591 1.17938
 Cu372 Cu 0.85106 0.64960 1.19270
 Cu373 Cu 0.84646 0.69762 1.15828
 Cu374 Cu 0.80257 0.65887 1.16226
 N375 N 0.82469 0.62996 1.19704
 N376 N 0.80557 0.63445 1.18606
 C377 C 0.79024 0.61838 1.19230
 C378 C 0.80031 0.60289 1.20784
 C379 C 0.82221 0.61069 1.21051
 H380 H 0.77324 0.61749 1.18537
 H381 H 0.83533 0.60285 1.22127
 N382 N 0.80307 0.68447 1.13895
 N383 N 0.82047 0.69851 1.13658
 C384 C 0.81716 0.71231 1.11742
 C385 C 0.79658 0.70680 1.10746
 C386 C 0.78801 0.68920 1.12156
 H387 H 0.82896 0.72515 1.11094
 H388 H 0.77251 0.67979 1.11859
 H389 H 0.82483 0.67970 1.18079
 H390 H 0.83636 0.66316 1.15443
 N391 N 0.86866 0.19606 0.68404
 N392 N 0.87216 0.17662 0.69588
 C393 C 0.89088 0.17883 0.70932
 C394 C 0.89945 0.20086 0.70585
 C395 C 0.88493 0.21136 0.68976
 H396 H 0.89773 0.16546 0.72083
 H397 H 0.88646 0.22861 0.68230
 Cu398 Cu 0.85193 0.15020 0.69319
 Cu399 Cu 0.84453 0.19935 0.66049
 Cu400 Cu 0.80472 0.15602 0.66035
 N401 N 0.82646 0.12919 0.69692
 N402 N 0.80780 0.13224 0.68463
 C403 C 0.79267 0.11610 0.69108
 C404 C 0.80238 0.10199 0.70815
 C405 C 0.82391 0.11065 0.71146
 H406 H 0.77593 0.11445 0.68360
 H407 H 0.83660 0.10413 0.72364
 N408 N 0.80439 0.18152 0.63721
 N409 N 0.81894 0.19880 0.63782
 C410 C 0.81421 0.21358 0.61972
 C411 C 0.79607 0.20482 0.60706
 C412 C 0.79033 0.18452 0.61858
 H413 H 0.82379 0.22898 0.61542
 H414 H 0.77700 0.17272 0.61355
 H415 H 0.82423 0.17869 0.68106
 H416 H 0.83878 0.16478 0.65475
 N417 N 0.30500 0.36654 0.68548
 N418 N 0.32402 0.37096 0.69668
 C419 C 0.32133 0.39008 0.71029
 C420 C 0.29942 0.39788 0.70754
 C421 C 0.28953 0.38252 0.69176
 H422 H 0.33434 0.39782 0.72122
 H423 H 0.27258 0.38345 0.68470
 Cu424 Cu 0.35057 0.35145 0.69249
 Cu425 Cu 0.30238 0.34217 0.66150
 Cu426 Cu 0.34652 0.30351 0.65809
 N427 N 0.37245 0.32625 0.69454
 N428 N 0.37025 0.30734 0.68160
 C429 C 0.38679 0.29236 0.68723
 C430 C 0.40023 0.30245 0.70445
 C431 C 0.39076 0.32402 0.70869
 H432 H 0.38899 0.27538 0.67930
 H433 H 0.39648 0.33688 0.72140
 N434 N 0.32079 0.30251 0.63610
 N435 N 0.30332 0.31657 0.63812
 C436 C 0.28841 0.31158 0.62067
 C437 C 0.29715 0.29378 0.60692
 C438 C 0.31768 0.28846 0.61714
 H439 H 0.27280 0.32082 0.61753
 H440 H 0.32953 0.27546 0.61104
 H441 H 0.32446 0.32143 0.68036
 H442 H 0.33620 0.33798 0.65411
 N443 N 0.30643 0.86523 0.18501
 N444 N 0.32549 0.86944 0.19620
 C445 C 0.32290 0.88833 0.21015
 C446 C 0.30101 0.89622 0.20760
 C447 C 0.29102 0.88115 0.19159
 H448 H 0.33595 0.89584 0.22120
 H449 H 0.27403 0.88219 0.18466
 Cu450 Cu 0.35197 0.85001 0.19166
 Cu451 Cu 0.30368 0.84103 0.16088
 Cu452 Cu 0.34763 0.80212 0.15726
 N453 N 0.37363 0.82470 0.19374
 N454 N 0.37135 0.80577 0.18085
 C455 C 0.38783 0.79074 0.18655
 C456 C 0.40129 0.80086 0.20375
 C457 C 0.39190 0.82247 0.20790
 H458 H 0.39000 0.77375 0.17864
 H459 H 0.39768 0.83537 0.22054
 N460 N 0.32187 0.80138 0.13527
 N461 N 0.30450 0.81556 0.13735
 C462 C 0.28957 0.81081 0.11986
 C463 C 0.29820 0.79304 0.10600
 C464 C 0.31868 0.78748 0.11620
 H465 H 0.27404 0.82019 0.11677
 H466 H 0.33045 0.77444 0.11002
 H467 H 0.32573 0.82010 0.17958
 H468 H 0.33748 0.83662 0.15331
 N469 N 0.80580 0.36556 0.18478
 N470 N 0.82482 0.37011 0.19590
 C471 C 0.82204 0.38921 0.20954
 C472 C 0.80007 0.39685 0.20685
 C473 C 0.79024 0.38143 0.19111
 H474 H 0.83504 0.39705 0.22042
 H475 H 0.77326 0.38223 0.18411
 Cu476 Cu 0.85149 0.35083 0.19152
 Cu477 Cu 0.80328 0.34119 0.16083
 Cu478 Cu 0.84776 0.30291 0.15703
 N479 N 0.87361 0.32586 0.19343
 N480 N 0.87158 0.30695 0.18045
 C481 C 0.88826 0.29212 0.18606
 C482 C 0.90161 0.30233 0.20330
 C483 C 0.89193 0.32379 0.20758
 H484 H 0.89060 0.27517 0.17813
 H485 H 0.89749 0.33667 0.22036
 N486 N 0.82185 0.30173 0.13521
 N487 N 0.80428 0.31562 0.13744
 C488 C 0.78928 0.31060 0.12010
 C489 C 0.79805 0.29295 0.10618
 C490 C 0.81871 0.28774 0.11620
 H491 H 0.77360 0.31974 0.11711
 H492 H 0.83062 0.27489 0.10991
 H493 H 0.82569 0.32050 0.17943
 H494 H 0.83714 0.33723 0.15317
 N495 N 0.80505 0.86693 0.68521
 N496 N 0.82409 0.87131 0.69636
 C497 C 0.82142 0.89024 0.71022
 C498 C 0.79949 0.89800 0.70767
 C499 C 0.78956 0.88280 0.69175
 H500 H 0.83446 0.89789 0.72119
 H501 H 0.77256 0.88374 0.68481
 Cu502 Cu 0.85070 0.85205 0.69186
 Cu503 Cu 0.80243 0.84266 0.66112
 Cu504 Cu 0.84671 0.80414 0.65749
 N505 N 0.87256 0.82693 0.69394
 N506 N 0.87043 0.80800 0.68101
 C507 C 0.88699 0.79307 0.68673
 C508 C 0.90032 0.80324 0.70400
 C509 C 0.89080 0.82478 0.70817
 H510 H 0.88924 0.77609 0.67884
 H511 H 0.89643 0.83767 0.72089
 N512 N 0.82095 0.80315 0.63555
 N513 N 0.80344 0.81715 0.63764
 C514 C 0.78853 0.81219 0.62019
 C515 C 0.79732 0.79447 0.60636
 C516 C 0.81786 0.78916 0.61654
 H517 H 0.77290 0.82139 0.61710
 H518 H 0.82975 0.77623 0.61037
 H519 H 0.82464 0.82197 0.67983
 H520 H 0.83622 0.83858 0.65354
 N521 N 0.69592 0.63434 0.68603
 N522 N 0.67779 0.63129 0.69926
 C523 C 0.68058 0.61222 0.71297
 C524 C 0.70164 0.60303 0.70813
 C525 C 0.71094 0.61750 0.69104
 H526 H 0.66834 0.60551 0.72557
 H527 H 0.72718 0.61555 0.68244
 Cu528 Cu 0.65300 0.65335 0.69744
 Cu529 Cu 0.69818 0.65877 0.66183
 Cu530 Cu 0.65324 0.69733 0.65841
 N531 N 0.62847 0.67579 0.69689
 N532 N 0.62926 0.69342 0.68192
 C533 C 0.61168 0.70757 0.68611
 C534 C 0.59909 0.69826 0.70454
 C535 C 0.61010 0.67802 0.71098
 H536 H 0.60840 0.72361 0.67665
 H537 H 0.60549 0.66636 0.72536
 N538 N 0.67915 0.69837 0.63637
 N539 N 0.69677 0.68446 0.63837
 C540 C 0.71158 0.68954 0.62082
 C541 C 0.70266 0.70720 0.60701
 C542 C 0.68212 0.71238 0.61730
 H543 H 0.72726 0.68046 0.61763
 H544 H 0.67018 0.72525 0.61113
 H545 H 0.67778 0.68214 0.67942
 H546 H 0.66406 0.66314 0.65668
 N547 N 0.69430 0.13400 0.18469
 N548 N 0.67536 0.12949 0.19606
 C549 C 0.67823 0.11038 0.20969
 C550 C 0.70016 0.10268 0.20674
 C551 C 0.70988 0.11810 0.19084
 H552 H 0.66533 0.10256 0.22076
 H553 H 0.72679 0.11726 0.18363
 Cu554 Cu 0.64867 0.14884 0.19199
 Cu555 Cu 0.69668 0.15838 0.16068
 Cu556 Cu 0.65226 0.19671 0.15727
 N557 N 0.62656 0.17384 0.19394
 N558 N 0.62856 0.19272 0.18086
 C559 C 0.61186 0.20754 0.18644
 C560 C 0.59852 0.19738 0.20376
 C561 C 0.60822 0.17592 0.20812
 H562 H 0.60949 0.22446 0.17841
 H563 H 0.60265 0.16306 0.22094
 N564 N 0.67801 0.19788 0.13520
 N565 N 0.69557 0.18395 0.13725
 C566 C 0.71048 0.18903 0.11979
 C567 C 0.70167 0.20677 0.10599
 C568 C 0.68107 0.21195 0.11620
 H569 H 0.72616 0.17991 0.11670
 H570 H 0.66916 0.22488 0.11007
 H571 H 0.67447 0.17907 0.17951
 H572 H 0.66278 0.16233 0.15343
 N573 N 0.19360 0.63495 0.18482
 N574 N 0.17453 0.63070 0.19603
 C575 C 0.17709 0.61174 0.20992
 C576 C 0.19897 0.60384 0.20732
 C577 C 0.20899 0.61897 0.19134
 H578 H 0.16402 0.60420 0.22098
 H579 H 0.22599 0.61796 0.18440
 Cu580 Cu 0.14808 0.65021 0.19161
 Cu581 Cu 0.19642 0.65929 0.16079
 Cu582 Cu 0.15252 0.69829 0.15742
 N583 N 0.12640 0.67551 0.19377
 N584 N 0.12873 0.69451 0.18096
 C585 C 0.11223 0.70952 0.18668
 C586 C 0.09871 0.69931 0.20383
 C587 C 0.10807 0.67767 0.20791
 H588 H 0.11009 0.72655 0.17883
 H589 H 0.10225 0.66470 0.22049
 N590 N 0.17831 0.69914 0.13540
 N591 N 0.19566 0.68492 0.13739
 C592 C 0.21060 0.68976 0.11989
 C593 C 0.20201 0.70764 0.10613
 C594 C 0.18153 0.71316 0.11640
 H595 H 0.22611 0.68037 0.11672
 H596 H 0.16978 0.72626 0.11030
 H597 H 0.17441 0.68010 0.17964
 H598 H 0.16265 0.66377 0.15331
 N599 N 0.19473 0.13301 0.68540
 N600 N 0.17581 0.12850 0.69681
 C601 C 0.17865 0.10929 0.71030
 C602 C 0.20055 0.10153 0.70723
 C603 C 0.21027 0.11701 0.69141
 H604 H 0.16575 0.10146 0.72136
 H605 H 0.22716 0.11616 0.68414
 Cu606 Cu 0.14918 0.14802 0.69299
 Cu607 Cu 0.19713 0.15751 0.66150
 Cu608 Cu 0.15289 0.19607 0.65854
 N609 N 0.12719 0.17314 0.69518
 N610 N 0.12928 0.19209 0.68223
 C611 C 0.11270 0.20699 0.68795
 C612 C 0.09932 0.19680 0.70521
 C613 C 0.10888 0.17524 0.70940
 H614 H 0.11040 0.22396 0.68002
 H615 H 0.10322 0.16232 0.72211
 N616 N 0.17852 0.19722 0.63633
 N617 N 0.19603 0.18321 0.63821
 C618 C 0.21088 0.18832 0.62070
 C619 C 0.20206 0.20615 0.60704
 C620 C 0.18154 0.21137 0.61738
 H621 H 0.22650 0.17915 0.61745
 H622 H 0.16964 0.22437 0.61139
 H623 H 0.17511 0.17816 0.68059
 H624 H 0.16323 0.16164 0.65445
 N625 N 0.30647 0.63507 0.31491
 N626 N 0.32546 0.63051 0.30365
 C627 C 0.32271 0.61134 0.29014
 C628 C 0.30079 0.60368 0.29307
 C629 C 0.29097 0.61915 0.30880
 H630 H 0.33568 0.60349 0.27916
 H631 H 0.27403 0.61836 0.31593
 Cu632 Cu 0.35199 0.64996 0.30765
 Cu633 Cu 0.30389 0.65949 0.33875
 Cu634 Cu 0.34796 0.69808 0.34193
 N635 N 0.37372 0.67516 0.30532
 N636 N 0.37155 0.69414 0.31818
 C637 C 0.38802 0.70909 0.31230
 C638 C 0.40137 0.69887 0.29502
 C639 C 0.39194 0.67729 0.29100
 H640 H 0.39024 0.72608 0.32015
 H641 H 0.39763 0.66434 0.27834
 N642 N 0.32224 0.69912 0.36404
 N643 N 0.30480 0.68509 0.36201
 C644 C 0.28987 0.69001 0.37949
 C645 C 0.29855 0.70775 0.39329
 C646 C 0.31908 0.71312 0.38306
 H647 H 0.27431 0.68075 0.38264
 H648 H 0.33089 0.72608 0.38919
 H649 H 0.32601 0.68019 0.31979
 H650 H 0.33778 0.66368 0.34606
 N651 N 0.30765 0.12973 0.81731
 N652 N 0.32613 0.12731 0.80453
 C653 C 0.32385 0.10875 0.79002
 C654 C 0.30270 0.09935 0.79387
 C655 C 0.29290 0.11309 0.81123
 H656 H 0.33645 0.10276 0.77743
 H657 H 0.27632 0.11096 0.81901
 Cu658 Cu 0.35103 0.14912 0.80752
 Cu659 Cu 0.30417 0.15373 0.84135
 Cu660 Cu 0.34277 0.19827 0.83965
 N661 N 0.37061 0.17600 0.80418
 N662 N 0.36673 0.19544 0.81583
 C663 C 0.38267 0.21105 0.80990
 C664 C 0.39739 0.20075 0.79387
 C665 C 0.38927 0.17851 0.79064
 H666 H 0.38393 0.22834 0.81728
 H667 H 0.39644 0.16517 0.77933
 N668 N 0.31749 0.19736 0.86273
 N669 N 0.30346 0.17966 0.86403
 C670 C 0.28958 0.18265 0.88287
 C671 C 0.29494 0.20337 0.89378
 C672 C 0.31262 0.21236 0.88054
 H673 H 0.27664 0.17059 0.88842
 H674 H 0.32182 0.22812 0.88427
 H675 H 0.32246 0.17665 0.81995
 H676 H 0.33788 0.16351 0.84607
 N677 N 0.80754 0.63139 0.81704
 N678 N 0.82623 0.62846 0.80470
 C679 C 0.82403 0.60954 0.79069
 C680 C 0.80274 0.60044 0.79440
 C681 C 0.79277 0.61473 0.81116
 H682 H 0.83679 0.60310 0.77852
 H683 H 0.77605 0.61295 0.81869
 Cu684 Cu 0.85126 0.65011 0.80750
 Cu685 Cu 0.80389 0.65594 0.84043
 Cu686 Cu 0.84301 0.69988 0.83862
 N687 N 0.87095 0.67686 0.80383
 N688 N 0.86700 0.69650 0.81508
 C689 C 0.88293 0.71201 0.80899
 C690 C 0.89773 0.70148 0.79328
 C691 C 0.88969 0.67916 0.79037
 H692 H 0.88410 0.72945 0.81603
 H693 H 0.89695 0.66564 0.77935
 N694 N 0.81764 0.69961 0.86142
 N695 N 0.80314 0.68231 0.86256
 C696 C 0.78918 0.68572 0.88124
 C697 C 0.79509 0.70623 0.89227
 C698 C 0.81312 0.71469 0.87924
 H699 H 0.77601 0.67393 0.88680
 H700 H 0.82283 0.73008 0.88317
 H701 H 0.82278 0.67813 0.81892
 H702 H 0.83762 0.66521 0.84557
 N703 N 0.80814 0.13158 0.31622
 N704 N 0.82666 0.12895 0.30356
 C705 C 0.82426 0.11039 0.28907
 C706 C 0.80298 0.10123 0.29280
 C707 C 0.79324 0.11511 0.31007
 H708 H 0.83690 0.10419 0.27662
 H709 H 0.77664 0.11313 0.31782
 Cu710 Cu 0.85181 0.15043 0.30686
 Cu711 Cu 0.80486 0.15544 0.34038
 Cu712 Cu 0.84396 0.19952 0.33934
 N713 N 0.87169 0.17713 0.30383
 N714 N 0.86798 0.19654 0.31559
 C715 C 0.88407 0.21203 0.30975
 C716 C 0.89871 0.20168 0.29367
 C717 C 0.89038 0.17953 0.29031
 H718 H 0.88544 0.22929 0.31718
 H719 H 0.89741 0.16619 0.27889
 N720 N 0.81855 0.19869 0.36229
 N721 N 0.80431 0.18115 0.36329
 C722 C 0.79036 0.18407 0.38207
 C723 C 0.79586 0.20459 0.39327
 C724 C 0.81373 0.21354 0.38027
 H725 H 0.77727 0.17209 0.38739
 H726 H 0.82308 0.22915 0.38428
 H727 H 0.82362 0.17837 0.31929
 H728 H 0.83872 0.16484 0.34542
 N729 N 0.69186 0.36803 0.31635
 N730 N 0.67340 0.37073 0.30364
 C731 C 0.67590 0.38934 0.28919
 C732 C 0.69717 0.39846 0.29302
 C733 C 0.70680 0.38450 0.31029
 H734 H 0.66335 0.39560 0.27670
 H735 H 0.72338 0.38643 0.31809
 Cu736 Cu 0.64822 0.34923 0.30676
 Cu737 Cu 0.69502 0.34408 0.34045
 Cu738 Cu 0.65585 0.30010 0.33934
 N739 N 0.62829 0.32257 0.30376
 N740 N 0.63193 0.30314 0.31556
 C741 C 0.61582 0.28769 0.30975
 C742 C 0.60124 0.29807 0.29366
 C743 C 0.60961 0.32021 0.29026
 H744 H 0.61439 0.27044 0.31723
 H745 H 0.60262 0.33356 0.27882
 N746 N 0.68117 0.30082 0.36232
 N747 N 0.69544 0.31832 0.36333
 C748 C 0.70934 0.31531 0.38211
 C749 C 0.70376 0.29478 0.39329
 C750 C 0.68592 0.28591 0.38028
 H751 H 0.72245 0.32725 0.38744
 H752 H 0.67653 0.27030 0.38426
 H753 H 0.67629 0.32124 0.31929
 H754 H 0.66110 0.33477 0.34538
 N755 N 0.69252 0.86815 0.81712
 N756 N 0.67385 0.87143 0.80490
 C757 C 0.67623 0.89046 0.79103
 C758 C 0.69764 0.89926 0.79471
 C759 C 0.70748 0.88469 0.81130
 H760 H 0.66351 0.89720 0.77901
 H761 H 0.72421 0.88624 0.81881
 Cu762 Cu 0.64854 0.85012 0.80774
 Cu763 Cu 0.69587 0.84347 0.84043
 Cu764 Cu 0.65608 0.80019 0.83889
 N765 N 0.62852 0.82365 0.80408
 N766 N 0.63217 0.80394 0.81535
 C767 C 0.61611 0.78863 0.80920
 C768 C 0.60151 0.79938 0.79342
 C769 C 0.60982 0.82161 0.79056
 H770 H 0.61473 0.77119 0.81620
 H771 H 0.60280 0.83522 0.77947
 N772 N 0.68145 0.80007 0.86164
 N773 N 0.69629 0.81707 0.86258
 C774 C 0.71027 0.81343 0.88117
 C775 C 0.70401 0.79311 0.89239
 C776 C 0.68575 0.78497 0.87954
 H777 H 0.72367 0.82499 0.88656
 H778 H 0.67577 0.76978 0.88362
 H779 H 0.67656 0.82160 0.81903
 H780 H 0.66199 0.83474 0.84575
 N781 N 0.19248 0.36928 0.81700
 N782 N 0.17537 0.37032 0.80208
 C783 C 0.17787 0.38906 0.78780
 C784 C 0.19775 0.40001 0.79405
 C785 C 0.20656 0.38702 0.81257
 H786 H 0.16655 0.39399 0.77349
 H787 H 0.22214 0.39022 0.82205
 Cu788 Cu 0.15275 0.34581 0.80169
 Cu789 Cu 0.19556 0.34507 0.84095
 Cu790 Cu 0.15681 0.30021 0.83944
 N791 N 0.13046 0.32104 0.80175
 N792 N 0.13287 0.30268 0.81555
 C793 C 0.11589 0.28777 0.81124
 C794 C 0.10200 0.29742 0.79401
 C795 C 0.11168 0.31854 0.78841
 H796 H 0.11351 0.27137 0.82032
 H797 H 0.10558 0.33096 0.77540
 N798 N 0.18207 0.30137 0.86252
 N799 N 0.19607 0.31911 0.86374
 C800 C 0.20990 0.31616 0.88262
 C801 C 0.20455 0.29548 0.89364
 C802 C 0.18692 0.28643 0.88044
 H803 H 0.22283 0.32822 0.88814
 H804 H 0.17777 0.27064 0.88425
 H805 H 0.17983 0.31973 0.82066
 H806 H 0.16181 0.33538 0.84290
 N807 N 0.19321 0.86473 0.31508
 N808 N 0.17424 0.86935 0.30386
 C809 C 0.17702 0.88854 0.29035
 C810 C 0.19895 0.89617 0.29324
 C811 C 0.20874 0.88064 0.30895
 H812 H 0.16407 0.89644 0.27940
 H813 H 0.22568 0.88140 0.31606
 Cu814 Cu 0.14768 0.84991 0.30792
 Cu815 Cu 0.19575 0.84025 0.33890
 Cu816 Cu 0.15159 0.80173 0.34222
 N817 N 0.12593 0.82474 0.30558
 N818 N 0.12805 0.80574 0.31846
 C819 C 0.11158 0.79082 0.31257
 C820 C 0.09830 0.80107 0.29525
 C821 C 0.10777 0.82265 0.29123
 H822 H 0.10932 0.77382 0.32042
 H823 H 0.10214 0.83562 0.27854
 N824 N 0.17733 0.80060 0.36426
 N825 N 0.19480 0.81459 0.36217
 C826 C 0.20974 0.80961 0.37959
 C827 C 0.20105 0.79187 0.39342
 C828 C 0.18049 0.78656 0.38328
 H829 H 0.22533 0.81883 0.38267
 H830 H 0.16866 0.77360 0.38945
 H831 H 0.17358 0.81958 0.32004
 H832 H 0.16186 0.83609 0.34631
 C833 C 0.26201 1.01988 0.24655
 C834 C 0.24072 1.02008 0.25800
 C835 C 0.22996 0.99899 0.26311
 C836 C 0.24021 0.97769 0.25760
 C837 C 0.26146 0.97750 0.24605
 C838 C 0.27227 0.99860 0.24106
 H839 H 0.28823 0.99848 0.23156
 H840 H 0.21395 0.99915 0.27253
 C841 C 0.25948 0.52248 0.74299
 C842 C 0.23818 0.52274 0.75446
 C843 C 0.22751 0.50166 0.75981
 C844 C 0.23792 0.48037 0.75474
 C845 C 0.25920 0.48007 0.74327
 C846 C 0.26985 0.50115 0.73781
 H847 H 0.28585 0.50097 0.72841
 H848 H 0.21153 0.50181 0.76929
 C849 C 0.76204 -0.02149 0.25490
 C850 C 0.74077 -0.02144 0.24346
 C851 C 0.73042 -0.00021 0.23786
 C852 C 0.74109 0.02097 0.24283
 C853 C 0.76243 0.02086 0.25416
 C854 C 0.77279 -0.00037 0.25970
 H855 H 0.78877 -0.00043 0.26913
 H856 H 0.71440 -0.00018 0.22852
 C857 C 0.76156 0.47777 0.75543
 C858 C 0.74009 0.47827 0.74444
 C859 C 0.72991 0.49967 0.73926
 C860 C 0.74093 0.52060 0.74429
 C861 C 0.76230 0.52013 0.75551
 C862 C 0.77253 0.49872 0.76057
 H863 H 0.78861 0.49835 0.76979
 H864 H 0.71382 0.50000 0.73007
 C865 C 0.25921 0.47986 0.25764
 C866 C 0.23795 0.48008 0.24619
 C867 C 0.22769 0.50137 0.24072
 C868 C 0.23846 0.52246 0.24573
 C869 C 0.25968 0.52225 0.25730
 C870 C 0.26994 0.50094 0.26279
 H871 H 0.28592 0.50077 0.27222
 H872 H 0.21175 0.50150 0.23121
 C873 C 0.76079 1.02190 0.74629
 C874 C 0.73939 1.02219 0.75747
 C875 C 0.72840 1.00120 0.76234
 C876 C 0.73857 0.97987 0.75687
 C877 C 0.75991 0.97955 0.74550
 C878 C 0.77091 1.00058 0.74070
 H879 H 0.78695 1.00038 0.73137
 H880 H 0.71234 1.00146 0.77165
 C881 C 0.75979 0.52102 0.24349
 C882 C 0.73854 0.52114 0.25503
 C883 C 0.72778 0.50002 0.25996
 C884 C 0.73809 0.47877 0.25443
 C885 C 0.75942 0.47862 0.24304
 C886 C 0.77012 0.49977 0.23796
 H887 H 0.78612 0.49971 0.22856
 H888 H 0.71181 0.50009 0.26944
 C889 C 0.26254 -0.02313 0.75392
 C890 C 0.24119 -0.02298 0.74263
 C891 C 0.23080 -0.00169 0.73731
 C892 C 0.24142 0.01945 0.74253
 C893 C 0.26275 0.01925 0.75388
 C894 C 0.27322 -0.00202 0.75902
 H895 H 0.28921 -0.00214 0.76842
 H896 H 0.21474 -0.00159 0.72804
 C897 C 0.24287 0.25961 1.02251
 C898 C 0.25710 0.23996 1.02253
 C899 C 0.26370 0.23002 1.00067
 C900 C 0.25692 0.23980 0.97879
 C901 C 0.24274 0.25949 0.97877
 C902 C 0.23612 0.26941 1.00063
 H903 H 0.22477 0.28418 1.00062
 H904 H 0.27505 0.21526 1.00068
 C905 C 0.23956 0.75588 0.52199
 C906 C 0.26032 0.74384 0.52197
 C907 C 0.27062 0.73819 0.50011
 C908 C 0.26025 0.74375 0.47828
 C909 C 0.23950 0.75581 0.47830
 C910 C 0.22919 0.76145 0.50016
 H911 H 0.21359 0.77128 0.50017
 H912 H 0.28622 0.72835 0.50011
 C913 C 0.26021 0.75678 -0.02266
 C914 C 0.23975 0.74428 -0.02258
 C915 C 0.22960 0.73844 -0.00069
 C916 C 0.23983 0.74425 0.02113
 C917 C 0.26027 0.75679 0.02106
 C918 C 0.27044 0.76261 -0.00084
 H919 H 0.28581 0.77276 -0.00089
 H920 H 0.21422 0.72829 -0.00063
 C921 C 0.25981 0.25639 0.47845
 C922 C 0.23949 0.24365 0.47847
 C923 C 0.22935 0.23770 0.50034
 C924 C 0.23944 0.24367 0.52220
 C925 C 0.25972 0.25649 0.52218
 C926 C 0.26988 0.26240 0.50030
 H927 H 0.28514 0.27275 0.50029
 H928 H 0.21411 0.22733 0.50036
 C929 C 0.74046 0.75743 1.02190
 C930 C 0.75895 0.74196 1.02186
 C931 C 0.76783 0.73420 0.99999
 C932 C 0.75865 0.74174 0.97822
 C933 C 0.74047 0.75746 0.97825
 C934 C 0.73141 0.76506 1.00006
 H935 H 0.71745 0.77723 1.00003
 H936 H 0.78180 0.72203 0.99991
 C937 C 0.74217 0.25904 0.52206
 C938 C 0.75694 0.23983 0.52205
 C939 C 0.76393 0.23019 0.50020
 C940 C 0.75698 0.23987 0.47834
 C941 C 0.74226 0.25913 0.47835
 C942 C 0.73524 0.26873 0.50021
 H943 H 0.72349 0.28316 0.50021
 H944 H 0.77568 0.21576 0.50020
 C945 C 0.75986 0.25698 -0.02241
 C946 C 0.73943 0.24443 -0.02244
 C947 C 0.72926 0.23845 -0.00058
 C948 C 0.73948 0.24413 0.02129
 C949 C 0.75992 0.25667 0.02132
 C950 C 0.77007 0.26267 -0.00053
 H951 H 0.78544 0.27283 -0.00051
 H952 H 0.71391 0.22826 -0.00061
 C953 C 0.75981 0.75704 0.47797
 C954 C 0.73958 0.74416 0.47809
 C955 C 0.72952 0.73820 0.50000
 C956 C 0.73966 0.74427 0.52180
 C957 C 0.75986 0.75721 0.52167
 C958 C 0.76992 0.76315 0.49976
 H959 H 0.78511 0.77360 0.49967
 H960 H 0.71434 0.72775 0.50009
 C961 C 1.02032 0.23959 0.25659
 C962 C 1.02090 0.26092 0.24404
 C963 C 1.00054 0.27195 0.23811
 C964 C 0.97970 0.26184 0.24380
 C965 C 0.97915 0.24051 0.25637
 C966 C 0.99950 0.22948 0.26230
 H967 H 0.99915 0.21348 0.27255
 H968 H 1.00091 0.28794 0.22784
 C969 C 0.51889 0.23887 0.75672
 C970 C 0.51945 0.26013 0.74408
 C971 C 0.49914 0.27128 0.73831
 C972 C 0.47829 0.26127 0.74419
 C973 C 0.47773 0.23991 0.75671
 C974 C 0.49808 0.22882 0.76254
 H975 H 0.49774 0.21283 0.77280
 H976 H 0.49953 0.28726 0.72804
 C977 C -0.01982 0.26035 0.75648
 C978 C -0.02026 0.23899 0.74400
 C979 C 0.00012 0.22776 0.73857
 C980 C 0.02092 0.23772 0.74465
 C981 C 0.02134 0.25908 0.75709
 C982 C 0.00098 0.27031 0.76255
 H983 H 0.00128 0.28634 0.77270
 H984 H -0.00015 0.21175 0.72839
 C985 C 0.47965 0.26031 0.25660
 C986 C 0.47910 0.23899 0.24409
 C987 C 0.49946 0.22792 0.23821
 C988 C 0.52030 0.23800 0.24393
 C989 C 0.52083 0.25932 0.25647
 C990 C 0.50047 0.27038 0.26234
 H991 H 0.50080 0.28637 0.27256
 H992 H 0.49911 0.21194 0.22798
 C993 C 1.01904 0.74079 0.75720
 C994 C 1.01935 0.76237 0.74513
 C995 C 0.99894 0.77331 0.73937
 C996 C 0.97823 0.76282 0.74471
 C997 C 0.97789 0.74125 0.75683
 C998 C 0.99832 0.73034 0.76265
 H999 H 0.99810 0.71415 0.77256
 H1000 H 0.99917 0.78946 0.72937
 C1001 C 0.52098 0.73906 0.25541
 C1002 C 0.52098 0.76074 0.24351
 C1003 C 0.50041 0.77142 0.23789
 C1004 C 0.47985 0.76064 0.24329
 C1005 C 0.47985 0.73899 0.25524
 C1006 C 0.50042 0.72828 0.26082
 H1007 H 0.50042 0.71205 0.27067
 H1008 H 0.50041 0.78766 0.22805
 C1009 C -0.02116 0.76110 0.25519
 C1010 C -0.02112 0.73941 0.24335
 C1011 C -0.00052 0.72869 0.23784
 C1012 C 0.02002 0.73944 0.24330
 C1013 C 0.01998 0.76109 0.25521
 C1014 C -0.00061 0.77184 0.26066
 H1015 H -0.00064 0.78807 0.27047
 H1016 H -0.00048 0.71245 0.22804
 C1017 C 0.48015 0.76089 0.75712
 C1018 C 0.47976 0.73924 0.74524
 C1019 C 0.50015 0.72829 0.73938
 C1020 C 0.52086 0.73879 0.74454
 C1021 C 0.52128 0.76038 0.75654
 C1022 C 0.50087 0.77136 0.76237
 H1023 H 0.50111 0.78758 0.77221
 H1024 H 0.49989 0.71208 0.72952
 N1025 N 0.42600 0.26794 0.28881
 C1026 C 0.42150 0.29078 0.28530
 N1027 N 0.43606 0.30364 0.27201
 N1028 N 0.45456 0.29398 0.26273
 C1029 C 0.45892 0.27106 0.26611
 N1030 N 0.44431 0.25824 0.27933
 N1031 N 0.42689 0.76853 0.78996
 C1032 C 0.42170 0.79107 0.78548
 N1033 N 0.43570 0.80370 0.77128
 N1034 N 0.45431 0.79416 0.76213
 C1035 C 0.45935 0.77155 0.76653
 N1036 N 0.44530 0.75893 0.78059
 N1037 N -0.07446 0.26795 0.78683
 C1038 C -0.07814 0.29109 0.78459
 N1039 N -0.06274 0.30418 0.77268
 N1040 N -0.04423 0.29444 0.76351
 C1041 C -0.04066 0.27123 0.76564
 N1042 N -0.05611 0.25820 0.77748
 N1043 N -0.07592 0.76802 0.28551
 C1044 C -0.07970 0.79116 0.28350
 N1045 N -0.06441 0.80443 0.27166
 N1046 N -0.04589 0.79487 0.26235
 C1047 C -0.04218 0.77167 0.26427
 N1048 N -0.05754 0.75845 0.27603
 N1049 N 0.57556 0.73226 0.28599
 C1050 C 0.57945 0.70915 0.28395
 N1051 N 0.56429 0.69585 0.27203
 N1052 N 0.54578 0.70536 0.26266
 C1053 C 0.54196 0.72853 0.26460
 N1054 N 0.55719 0.74178 0.27645
 N1055 N 0.56252 0.19576 0.77262
 C1056 C 0.57709 0.20881 0.78563
 N1057 N 0.57260 0.23169 0.78879
 N1058 N 0.55426 0.24124 0.77923
 C1059 C 0.53963 0.22823 0.76629
 N1060 N 0.54399 0.20527 0.76327
 N1061 N 1.06212 0.69712 0.77332
 C1062 C 1.07747 0.71025 0.78518
 N1063 N 1.07371 0.73337 0.78743
 N1064 N 1.05533 0.74307 0.77813
 C1065 C 1.03992 0.72999 0.76635
 N1066 N 1.04358 0.70680 0.76421
 N1067 N 1.06393 0.19629 0.27203
 C1068 C 1.07844 0.20915 0.28531
 N1069 N 1.07391 0.23198 0.28882
 N1070 N 1.05560 0.24167 0.27934
 C1071 C 1.04104 0.22884 0.26613
 N1072 N 1.04544 0.20594 0.26275
 N1073 N 0.56460 0.30164 0.72850
 C1074 C 0.57964 0.28783 0.71691
 N1075 N 0.57493 0.26492 0.71449
 N1076 N 0.55594 0.25612 0.72343
 C1077 C 0.54087 0.26992 0.73498
 N1078 N 0.54548 0.29288 0.73722
 N1079 N 0.56435 0.80409 0.22766
 C1080 C 0.57972 0.79085 0.21587
 N1081 N 0.57593 0.76775 0.21365
 N1082 N 0.55746 0.75817 0.22289
 C1083 C 0.54202 0.77136 0.23459
 N1084 N 0.54573 0.79453 0.23672
 N1085 N 1.07704 0.26632 0.21591
 C1086 C 1.08087 0.28949 0.21718
 N1087 N 1.06509 0.30327 0.22764
 N1088 N 1.04610 0.29421 0.23636
 C1089 C 1.04233 0.27099 0.23523
 N1090 N 1.05816 0.25724 0.22481
 N1091 N 1.06322 0.80489 0.72852
 C1092 C 1.07826 0.79135 0.71663
 N1093 N 1.07412 0.76829 0.71465
 N1094 N 1.05563 0.75906 0.72421
 C1095 C 1.04051 0.77256 0.73601
 N1096 N 1.04458 0.79568 0.73790
 N1097 N 0.42450 0.73312 0.71592
 C1098 C 0.42074 0.70996 0.71752
 N1099 N 0.43614 0.69643 0.72888
 N1100 N 0.45479 0.70574 0.73807
 C1101 C 0.45850 0.72895 0.73653
 N1102 N 0.44300 0.74245 0.72530
 N1103 N 0.43496 0.19668 0.22763
 C1104 C 0.41921 0.21047 0.21715
 N1105 N 0.42304 0.23365 0.21588
 N1106 N 0.44189 0.24271 0.22482
 C1107 C 0.45769 0.22894 0.23525
 N1108 N 0.45392 0.20572 0.23637
 N1109 N -0.07592 0.73236 0.21332
 C1110 C -0.07967 0.70924 0.21552
 N1111 N -0.06432 0.69601 0.22735
 N1112 N -0.04578 0.70560 0.23647
 C1113 C -0.04211 0.72878 0.23438
 N1114 N -0.05753 0.74196 0.22263
 N1115 N -0.07581 0.23387 0.71467
 C1116 C -0.07995 0.21077 0.71628
 N1117 N -0.06453 0.19695 0.72728
 N1118 N -0.04561 0.20590 0.73622
 C1119 C -0.04155 0.22905 0.73477
 N1120 N -0.05700 0.24284 0.72379
 N1121 N 0.26651 0.42281 0.28662
 C1122 C 0.28880 0.41859 0.28329
 N1123 N 0.30139 0.43446 0.27127
 N1124 N 0.29200 0.45392 0.26299
 C1125 C 0.26964 0.45805 0.26617
 N1126 N 0.25709 0.44214 0.27817
 N1127 N 0.30462 -0.06835 0.76844
 C1128 C 0.29210 -0.08378 0.78118
 N1129 N 0.26983 -0.07935 0.78451
 N1130 N 0.26042 -0.06028 0.77547
 C1131 C 0.27292 -0.04482 0.76282
 N1132 N 0.29524 -0.04914 0.75957
 N1133 N 0.76868 0.42088 0.78474
 C1134 C 0.79095 0.41648 0.78135
 N1135 N 0.80349 0.43211 0.76890
 N1136 N 0.79415 0.45151 0.76042
 C1137 C 0.77185 0.45583 0.76378
 N1138 N 0.75930 0.44013 0.77607
 N1139 N 0.80375 -0.06698 0.26960
 C1140 C 0.79117 -0.08215 0.28260
 N1141 N 0.76899 -0.07741 0.28616
 N1142 N 0.75973 -0.05829 0.27705
 C1143 C 0.77230 -0.04310 0.26411
 N1144 N 0.79452 -0.04772 0.26066
 N1145 N 0.30256 0.56661 0.72851
 C1146 C 0.29007 0.58309 0.71723
 N1147 N 0.26759 0.57967 0.71465
 N1148 N 0.25788 0.56054 0.72311
 C1149 C 0.27030 0.54404 0.73442
 N1150 N 0.29286 0.54736 0.73684
 N1151 N 0.30486 1.06383 0.23074
 C1152 C 0.29228 1.07981 0.21884
 N1153 N 0.26978 1.07627 0.21660
 N1154 N 0.26015 1.05747 0.22590
 C1155 C 0.27267 1.04142 0.23772
 N1156 N 0.29524 1.04488 0.23989
 N1157 N 0.76743 0.57849 0.21567
 C1158 C 0.78994 0.58193 0.21792
 N1159 N 0.80261 0.56537 0.22884
 N1160 N 0.79306 0.54603 0.23715
 C1161 C 0.77048 0.54269 0.23504
 N1162 N 0.75788 0.55927 0.22409
 N1163 N 0.80421 1.06534 0.73079
 C1164 C 0.79175 1.08176 0.71941
 N1165 N 0.76916 1.07873 0.71752
 N1166 N 0.75932 1.05997 0.72663
 C1167 C 0.77171 1.04345 0.73789
 N1168 N 0.79437 1.04642 0.73974
 N1169 N 0.73171 0.57789 0.28468
 C1170 C 0.70925 0.58180 0.28248
 N1171 N 0.69640 0.56584 0.27097
 N1172 N 0.70570 0.54662 0.26205
 C1173 C 0.72822 0.54280 0.26409
 N1174 N 0.74102 0.55877 0.27563
 N1175 N 0.73187 1.07796 0.78867
 C1176 C 0.71016 1.08343 0.78344
 N1177 N 0.69809 1.06877 0.76937
 N1178 N 0.70735 1.04929 0.76103
 C1179 C 0.72913 1.04396 0.76616
 N1180 N 0.74121 1.05864 0.78011
 N1181 N 0.19578 0.56741 0.76982
 C1182 C 0.20856 0.58361 0.78105
 N1183 N 0.23106 0.57991 0.78318
 N1184 N 0.24048 0.56075 0.77435
 C1185 C 0.22775 0.54452 0.76311
 N1186 N 0.20519 0.54814 0.76112
 N1187 N 0.19856 1.06548 0.27162
 C1188 C 0.21114 1.08134 0.28360
 N1189 N 0.23342 1.07710 0.28692
 N1190 N 0.24283 1.05777 0.27849
 C1191 C 0.23029 1.04188 0.26653
 N1192 N 0.20794 1.04602 0.26337
 N1193 N 0.69685 0.43423 0.73071
 C1194 C 0.70883 0.41874 0.71750
 N1195 N 0.73109 0.42267 0.71366
 N1196 N 0.74106 0.44136 0.72270
 C1197 C 0.72912 0.45692 0.73581
 N1198 N 0.70679 0.45310 0.73956
 N1199 N 0.69788 -0.06568 0.22885
 C1200 C 0.71060 -0.08244 0.21832
 N1201 N 0.73317 -0.07919 0.21638
 N1202 N 0.74272 -0.05996 0.22471
 C1203 C 0.73007 -0.04318 0.23524
 N1204 N 0.70744 -0.04633 0.23705
 N1205 N 0.19517 0.43612 0.23041
 C1206 C 0.20778 0.42019 0.21847
 N1207 N 0.23028 0.42376 0.21620
 N1208 N 0.23987 0.44255 0.22550
 C1209 C 0.22732 0.45855 0.23736
 N1210 N 0.20476 0.45506 0.23955
 N1211 N 0.23296 -0.08053 0.71522
 C1212 C 0.21040 -0.08365 0.71747
 N1213 N 0.19792 -0.06691 0.72833
 N1214 N 0.20770 -0.04768 0.73654
 C1215 C 0.23032 -0.04463 0.73441
 N1216 N 0.24274 -0.06141 0.72356
 N1217 N 0.30087 0.27121 0.43113
 C1218 C 0.28781 0.28293 0.41521
 N1219 N 0.26556 0.28573 0.42005
 N1220 N 0.25665 0.27700 0.44003
 C1221 C 0.26970 0.26534 0.45599
 N1222 N 0.29201 0.26269 0.45125
 N1223 N 0.30127 0.77102 -0.07014
 C1224 C 0.28829 0.78283 -0.08606
 N1225 N 0.26608 0.78592 -0.08115
 N1226 N 0.25715 0.77737 -0.06110
 C1227 C 0.27013 0.76561 -0.04514
 N1228 N 0.29238 0.76269 -0.04995
 N1229 N 0.80103 0.27170 -0.06964
 C1230 C 0.78802 0.28341 -0.08561
 N1231 N 0.76577 0.28629 -0.08081
 N1232 N 0.75681 0.27763 -0.06083
 C1233 C 0.76981 0.26596 -0.04482
 N1234 N 0.79212 0.26325 -0.04951
 N1235 N 0.80062 0.77171 0.43040
 C1236 C 0.78750 0.78345 0.41455
 N1237 N 0.76528 0.78633 0.41952
 N1238 N 0.75646 0.77765 0.43956
 C1239 C 0.76958 0.76596 0.45546
 N1240 N 0.79185 0.76325 0.45059
 N1241 N 0.72485 0.29924 0.56999
 C1242 C 0.71353 0.28498 0.58519
 N1243 N 0.71182 0.26213 0.57969
 N1244 N 0.72123 0.25383 0.55975
 C1245 C 0.73247 0.26814 0.54451
 N1246 N 0.73400 0.29102 0.54990
 N1247 N 0.69993 0.77223 1.06953
 C1248 C 0.71318 0.78348 1.08557
 N1249 N 0.73543 0.78613 1.08063
 N1250 N 0.74417 0.77768 1.06043
 C1251 C 0.73089 0.76651 1.04436
 N1252 N 0.70861 0.76402 1.04920
 N1253 N 0.21270 0.26343 1.08017
 C1254 C 0.21471 0.28628 1.08557
 N1255 N 0.22621 0.30032 1.07030
 N1256 N 0.23523 0.29187 1.05024
 C1257 C 0.23338 0.26898 1.04495
 N1258 N 0.22198 0.25491 1.06027
 N1259 N 0.19829 0.76989 0.56939
 C1260 C 0.21119 0.78176 0.58529
 N1261 N 0.23337 0.78495 0.58038
 N1262 N 0.24238 0.77646 0.56037
 C1263 C 0.22951 0.76463 0.54443
 N1264 N 0.20727 0.76160 0.54922
 N1265 N 0.30157 0.73010 0.56939
 C1266 C 0.28873 0.71807 0.58527
 N1267 N 0.26660 0.71468 0.58033
 N1268 N 0.25757 0.72314 0.56031
 C1269 C 0.27039 0.73512 0.54439
 N1270 N 0.29259 0.73836 0.54921
 N1271 N 0.28746 0.23635 1.08005
 C1272 C 0.28551 0.21351 1.08556
 N1273 N 0.27400 0.19942 1.07042
 N1274 N 0.26491 0.20780 1.05037
 C1275 C 0.26669 0.23067 1.04496
 N1276 N 0.27811 0.24480 1.06015
 N1277 N 0.76443 0.71355 1.08073
 C1278 C 0.78671 0.71631 1.08546
 N1279 N 0.79982 0.72753 1.06922
 N1280 N 0.79099 0.73562 1.04892
 C1281 C 0.76869 0.73302 1.04429
 N1282 N 0.75555 0.72188 1.06056
 N1283 N 0.77406 0.19983 0.57029
 C1284 C 0.78576 0.21407 0.58513
 N1285 N 0.78777 0.23683 0.57929
 N1286 N 0.77831 0.24506 0.55937
 C1287 C 0.76670 0.23079 0.54447
 N1288 N 0.76485 0.20800 0.55021
 N1289 N 0.73407 0.71422 0.42009
 C1290 C 0.71187 0.71711 0.41510
 N1291 N 0.69877 0.72909 0.43080
 N1292 N 0.70755 0.73775 0.45085
 C1293 C 0.72980 0.73502 0.45573
 N1294 N 0.74290 0.72310 0.44000
 N1295 N 0.73379 0.21539 -0.08092
 C1296 C 0.71154 0.21816 -0.08573
 N1297 N 0.69843 0.22976 -0.06975
 N1298 N 0.70725 0.23819 -0.04960
 C1299 C 0.72956 0.23557 -0.04490
 N1300 N 0.74265 0.22402 -0.06092
 N1301 N 0.23368 0.71483 -0.08079
 C1302 C 0.21145 0.71784 -0.08555
 N1303 N 0.19852 0.72975 -0.06965
 N1304 N 0.20749 0.73824 -0.04961
 C1305 C 0.22978 0.73539 -0.04495
 N1306 N 0.24270 0.72354 -0.06090
 N1307 N 0.19863 0.22874 0.43112
 C1308 C 0.21175 0.21698 0.41529
 N1309 N 0.23398 0.21417 0.42020
 N1310 N 0.24281 0.22294 0.44016
 C1311 C 0.22969 0.23464 0.45605
 N1312 N 0.20741 0.23728 0.45124
 N1313 N 0.26645 0.42220 0.71605
 C1314 C 0.28903 0.41882 0.71778
 N1315 N 0.30182 0.43545 0.72831
 N1316 N 0.29235 0.45483 0.73666
 C1317 C 0.26972 0.45816 0.73503
 N1318 N 0.25698 0.44147 0.72455
 N1319 N 0.26826 0.92075 0.21638
 C1320 C 0.29075 0.91694 0.21839
 N1321 N 0.30361 0.93291 0.22985
 N1322 N 0.29430 0.95208 0.23888
 C1323 C 0.27176 0.95582 0.23701
 N1324 N 0.25894 0.93981 0.22554
 N1325 N 0.80222 0.43422 0.22803
 C1326 C 0.78956 0.41771 0.21712
 N1327 N 0.76701 0.42113 0.21508
 N1328 N 0.75743 0.44031 0.22366
 C1329 C 0.77004 0.45686 0.23456
 N1330 N 0.79265 0.45350 0.23648
 N1331 N 0.80208 0.93490 0.72953
 C1332 C 0.78920 0.91877 0.71832
 N1333 N 0.76668 0.92248 0.71643
 N1334 N 0.75735 0.94161 0.72544
 C1335 C 0.77020 0.95778 0.73664
 N1336 N 0.79276 0.95412 0.73841
 N1337 N 0.69910 0.56619 0.73023
 C1338 C 0.71184 0.58194 0.71821
 N1339 N 0.73414 0.57761 0.71510
 N1340 N 0.74340 0.55829 0.72374
 C1341 C 0.73070 0.54250 0.73573
 N1342 N 0.70834 0.54674 0.73871
 N1343 N 0.73330 0.07842 0.21472
 C1344 C 0.71075 0.08182 0.21696
 N1345 N 0.69817 0.06531 0.22802
 N1346 N 0.70781 0.04604 0.23645
 C1347 C 0.73041 0.04271 0.23434
 N1348 N 0.74294 0.05926 0.22328
 N1349 N 0.19632 0.56705 0.22950
 C1350 C 0.20921 0.58308 0.21808
 N1351 N 0.23172 0.57930 0.21612
 N1352 N 0.24103 0.56022 0.22528
 C1353 C 0.22818 0.54417 0.23670
 N1354 N 0.20562 0.54787 0.23853
 N1355 N 0.19850 0.06392 0.72808
 C1356 C 0.21111 0.08057 0.71726
 N1357 N 0.23367 0.07721 0.71509
 N1358 N 0.24330 0.05796 0.72347
 C1359 C 0.23073 0.04127 0.73427
 N1360 N 0.20812 0.04456 0.73631
 N1361 N 0.30278 0.56625 0.27196
 C1362 C 0.29023 0.58285 0.28295
 N1363 N 0.26768 0.57958 0.28523
 N1364 N 0.25799 0.56047 0.27676
 C1365 C 0.27048 0.54385 0.26574
 N1366 N 0.29309 0.54703 0.26361
 N1367 N 0.30512 0.06348 0.77004
 C1368 C 0.29245 0.07899 0.78248
 N1369 N 0.27003 0.07504 0.78499
 N1370 N 0.26058 0.05630 0.77543
 C1371 C 0.27320 0.04073 0.76305
 N1372 N 0.29568 0.04459 0.76063
 N1373 N 0.80510 0.56399 0.77152
 C1374 C 0.79245 0.57993 0.78339
 N1375 N 0.76996 0.57632 0.78566
 N1376 N 0.76041 0.55751 0.77638
 C1377 C 0.77298 0.54152 0.76455
 N1378 N 0.79555 0.54502 0.76239
 N1379 N 0.80514 0.06503 0.26948
 C1380 C 0.79258 0.08085 0.28162
 N1381 N 0.77013 0.07713 0.28418
 N1382 N 0.76053 0.05831 0.27496
 C1383 C 0.77304 0.04243 0.26288
 N1384 N 0.79555 0.04606 0.26040
 N1385 N 0.73011 0.42252 0.28454
 C1386 C 0.70767 0.41884 0.28188
 N1387 N 0.69521 0.43469 0.26965
 N1388 N 0.70489 0.45364 0.26059
 C1389 C 0.72740 0.45724 0.26317
 N1390 N 0.73980 0.44132 0.27533
 N1391 N 0.69556 0.93597 0.77220
 C1392 C 0.70809 0.91983 0.78393
 N1393 N 0.73058 0.92330 0.78631
 N1394 N 0.74026 0.94219 0.77729
 C1395 C 0.72780 0.95838 0.76559
 N1396 N 0.70523 0.95501 0.76332
 N1397 N 0.23019 0.42522 0.78697
 C1398 C 0.20807 0.42059 0.78313
 N1399 N 0.19576 0.43549 0.76953
 N1400 N 0.20525 0.45446 0.76028
 C1401 C 0.22744 0.45897 0.76400
 N1402 N 0.23971 0.44401 0.77753
 N1403 N 0.23209 0.92026 0.28542
 C1404 C 0.20955 0.91701 0.28313
 N1405 N 0.19704 0.93366 0.27215
 N1406 N 0.20676 0.95291 0.26383
 C1407 C 0.22937 0.95606 0.26599
 N1408 N 0.24181 0.93939 0.27699
 N1409 N 0.42393 0.26882 0.71338
 C1410 C 0.42020 0.29195 0.71559
 N1411 N 0.43547 0.30505 0.72759
 N1412 N 0.45391 0.29533 0.73690
 C1413 C 0.45753 0.27213 0.73481
 N1414 N 0.44221 0.25908 0.72286
 N1415 N 0.43647 0.80382 0.22682
 C1416 C 0.42130 0.79052 0.21490
 N1417 N 0.42522 0.76741 0.21281
 N1418 N 0.44362 0.75790 0.22230
 C1419 C 0.45885 0.77116 0.23413
 N1420 N 0.45501 0.79432 0.23613
 N1421 N 0.92554 0.26891 0.21245
 C1422 C 0.92162 0.29201 0.21456
 N1423 N 0.93671 0.30526 0.22666
 N1424 N 0.95515 0.29570 0.23616
 C1425 C 0.95895 0.27253 0.23417
 N1426 N 0.94382 0.25934 0.22213
 N1427 N 0.93514 0.80610 0.72771
 C1428 C 0.92024 0.79288 0.71533
 N1429 N 0.92428 0.76982 0.71302
 N1430 N 0.94252 0.76026 0.72277
 C1431 C 0.95747 0.77342 0.73510
 N1432 N 0.95354 0.79655 0.73729
 N1433 N 0.56498 0.30171 0.27261
 C1434 C 0.58066 0.28800 0.28334
 N1435 N 0.57675 0.26485 0.28491
 N1436 N 0.55791 0.25573 0.27602
 C1437 C 0.54220 0.26942 0.26533
 N1438 N 0.54604 0.29261 0.26391
 N1439 N 0.56517 0.80307 0.77256
 C1440 C 0.58102 0.78936 0.78299
 N1441 N 0.57733 0.76618 0.78434
 N1442 N 0.55851 0.75699 0.77554
 C1443 C 0.54261 0.77064 0.76514
 N1444 N 0.54624 0.79389 0.76392
 N1445 N 0.06619 0.30102 0.77215
 C1446 C 0.08120 0.28747 0.78409
 N1447 N 0.07657 0.26458 0.78696
 N1448 N 0.05768 0.25554 0.77810
 C1449 C 0.04263 0.26908 0.76619
 N1450 N 0.04717 0.29203 0.76351
 N1451 N 0.06324 0.80417 0.27191
 C1452 C 0.07837 0.79081 0.28389
 N1453 N 0.07449 0.76770 0.28591
 N1454 N 0.05616 0.75825 0.27630
 C1455 C 0.04095 0.77156 0.26442
 N1456 N 0.04476 0.79473 0.26249
 N1457 N 0.56464 0.69572 0.72900
 C1458 C 0.57896 0.70862 0.71547
 N1459 N 0.57427 0.73140 0.71184
 N1460 N 0.55597 0.74100 0.72146
 C1461 C 0.54159 0.72815 0.73492
 N1462 N 0.54616 0.70529 0.73842
 N1463 N 0.56332 0.19450 0.22704
 C1464 C 0.57848 0.20773 0.21496
 N1465 N 0.57460 0.23083 0.21276
 N1466 N 0.55628 0.24043 0.22234
 C1467 C 0.54107 0.22727 0.23438
 N1468 N 0.54484 0.20409 0.23645
 N1469 N 0.06343 0.69628 0.22683
 C1470 C 0.07867 0.70962 0.21499
 N1471 N 0.07479 0.73274 0.21296
 N1472 N 0.05636 0.74223 0.22243
 C1473 C 0.04106 0.72894 0.23419
 N1474 N 0.04486 0.70576 0.23612
 N1475 N 0.07566 0.23038 0.71443
 C1476 C 0.07930 0.20721 0.71639
 N1477 N 0.06386 0.19400 0.72809
 N1478 N 0.04533 0.20366 0.73732
 C1479 C 0.04179 0.22690 0.73546
 N1480 N 0.05730 0.24005 0.72384
 N1481 N 0.43656 0.69583 0.27183
 C1482 C 0.42133 0.70917 0.28371
 N1483 N 0.42517 0.73228 0.28570
 N1484 N 0.44354 0.74177 0.27616
 C1485 C 0.45884 0.72848 0.26437
 N1486 N 0.45508 0.70531 0.26247
 N1487 N 0.43366 0.19735 0.77276
 C1488 C 0.41794 0.21096 0.78353
 N1489 N 0.42177 0.23411 0.78516
 N1490 N 0.44060 0.24333 0.77628
 C1491 C 0.45636 0.22974 0.76554
 N1492 N 0.45259 0.20654 0.76405
 N1493 N 0.93417 0.69821 0.77248
 C1494 C 0.91822 0.71172 0.78301
 N1495 N 0.92181 0.73491 0.78459
 N1496 N 0.94062 0.74428 0.77591
 C1497 C 0.95661 0.73082 0.76541
 N1498 N 0.95309 0.70758 0.76396
 N1499 N 0.93497 0.19810 0.27253
 C1500 C 0.91929 0.21178 0.28330
 N1501 N 0.92320 0.23492 0.28488
 N1502 N 0.94205 0.24406 0.27596
 C1503 C 0.95776 0.23040 0.26522
 N1504 N 0.95392 0.20721 0.26379
 N1505 N 0.26511 0.28627 0.58030
 C1506 C 0.28737 0.28363 0.58518
 N1507 N 0.30053 0.27184 0.56939
 N1508 N 0.29177 0.26313 0.54936
 C1509 C 0.26946 0.26560 0.54458
 N1510 N 0.25630 0.27733 0.56042
 N1511 N 0.26612 0.78620 0.07931
 C1512 C 0.28832 0.78316 0.08419
 N1513 N 0.30132 0.77127 0.06834
 N1514 N 0.29244 0.76282 0.04823
 C1515 C 0.27018 0.76570 0.04346
 N1516 N 0.25719 0.77753 0.05935
 N1517 N 0.76584 0.28572 0.07977
 C1518 C 0.78812 0.28295 0.08445
 N1519 N 0.80113 0.27129 0.06842
 N1520 N 0.79219 0.26283 0.04835
 C1521 C 0.76986 0.26545 0.04377
 N1522 N 0.75686 0.27705 0.05984
 N1523 N 0.76529 0.78701 0.57975
 C1524 C 0.78754 0.78438 0.58461
 N1525 N 0.80071 0.77262 0.56880
 N1526 N 0.79194 0.76391 0.54877
 C1527 C 0.76963 0.76638 0.54402
 N1528 N 0.75647 0.77808 0.55987
 N1529 N 0.30149 0.72962 0.43090
 C1530 C 0.28860 0.71766 0.41507
 N1531 N 0.26643 0.71446 0.42000
 N1532 N 0.25741 0.72304 0.43998
 C1533 C 0.27028 0.73495 0.45586
 N1534 N 0.29252 0.73799 0.45104
 N1535 N 0.28675 0.23582 0.92094
 C1536 C 0.28477 0.21294 0.91565
 N1537 N 0.27343 0.19893 0.93108
 N1538 N 0.26452 0.20744 0.95117
 C1539 C 0.26634 0.23035 0.95635
 N1540 N 0.27759 0.24439 0.94087
 N1541 N 0.77185 0.70243 0.92834
 C1542 C 0.78539 0.71576 0.91437
 N1543 N 0.79010 0.73776 0.92144
 N1544 N 0.78147 0.74614 0.94174
 C1545 C 0.76805 0.73271 0.95573
 N1546 N 0.76339 0.71073 0.94872
 N1547 N 0.78745 0.23672 0.42080
 C1548 C 0.78559 0.21390 0.41521
 N1549 N 0.77412 0.19967 0.43032
 N1550 N 0.76498 0.20791 0.45041
 C1551 C 0.76668 0.23076 0.45590
 N1552 N 0.77806 0.24502 0.44074
 N1553 N 0.72537 0.29953 0.43038
 C1554 C 0.71394 0.28538 0.41523
 N1555 N 0.71201 0.26255 0.42078
 N1556 N 0.72132 0.25416 0.44072
 C1557 C 0.73267 0.26834 0.45592
 N1558 N 0.73442 0.29121 0.45047
 N1559 N 0.72806 0.79642 0.92783
 C1560 C 0.71367 0.78351 0.91448
 N1561 N 0.70812 0.76189 0.92215
 N1562 N 0.71674 0.75348 0.94244
 C1563 C 0.73102 0.76650 0.95581
 N1564 N 0.73654 0.78809 0.94818
 N1565 N 0.21278 0.26316 0.92101
 C1566 C 0.21470 0.28602 0.91557
 N1567 N 0.22601 0.30013 0.93087
 N1568 N 0.23497 0.29172 0.95099
 C1569 C 0.23322 0.26883 0.95632
 N1570 N 0.22199 0.25469 0.94098
 N1571 N 0.23322 0.78507 0.41997
 C1572 C 0.21103 0.78190 0.41516
 N1573 N 0.19818 0.76993 0.43107
 N1574 N 0.20719 0.76154 0.45117
 C1575 C 0.22944 0.76457 0.45588
 N1576 N 0.24228 0.77647 0.43992
 N1577 N 0.69904 0.72893 0.56934
 C1578 C 0.71231 0.71730 0.58514
 N1579 N 0.73456 0.71474 0.58015
 N1580 N 0.74326 0.72362 0.56014
 C1581 C 0.73000 0.73519 0.54429
 N1582 N 0.70770 0.73759 0.54918
 N1583 N 0.69846 0.22887 0.06850
 C1584 C 0.71152 0.21696 0.08427
 N1585 N 0.73377 0.21422 0.07939
 N1586 N 0.74267 0.22316 0.05951
 C1587 C 0.72962 0.23500 0.04369
 N1588 N 0.70731 0.23760 0.04846
 N1589 N 0.19886 0.72960 0.06856
 C1590 C 0.21188 0.71764 0.08433
 N1591 N 0.23408 0.71464 0.07937
 N1592 N 0.24299 0.72341 0.05940
 C1593 C 0.22997 0.73530 0.04358
 N1594 N 0.20772 0.73814 0.04844
 N1595 N 0.19863 0.22820 0.56953
 C1596 C 0.21181 0.21641 0.58529
 N1597 N 0.23407 0.21382 0.58036
 N1598 N 0.24287 0.22281 0.56045
 C1599 C 0.22969 0.23454 0.54464
 N1600 N 0.20738 0.23697 0.54946
   
