data_POSCAR
  _audit_creation_date              2014-09-24
  _audit_creation_method            'ToBaCCo'
  _symmetry_space_group_name_H-M    'P1'
  _symmetry_Int_Tables_number       1
  _symmetry_cell_setting            triclinic
  loop_
  _symmetry_equiv_pos_as_xyz
 x,y,z
_cell_length_a 53.9641
_cell_length_b 53.8082
_cell_length_c 53.9070
_cell_angle_alpha 90.012300
_cell_angle_beta 90.107400
_cell_angle_gamma 90.072400
loop_
  _atom_site_label
  _atom_site_type_symbol
  _atom_site_fract_x
  _atom_site_fract_y
  _atom_site_fract_z
C1 C 0.32431 0.45884 0.92612
 C2 C 0.31359 0.46905 0.90470
 C3 C 0.29228 0.45835 0.89434
 C4 C 0.28124 0.43764 0.90555
 C5 C 0.29171 0.42719 0.92697
 C6 C 0.31338 0.43776 0.93730
 C7 C 0.34631 0.46871 0.93596
 C8 C 0.35754 0.45764 0.95666
 C9 C 0.34660 0.43686 0.96792
 C10 C 0.32459 0.42676 0.95831
 C11 C 0.31413 0.40527 0.96871
 C12 C 0.29280 0.39467 0.95826
 C13 C 0.28150 0.40571 0.93762
 H14 H 0.32220 0.48486 0.89566
 H15 H 0.26496 0.42926 0.89717
 H16 H 0.35502 0.48460 0.92714
 H17 H 0.35553 0.42819 0.98375
 H18 H 0.32295 0.39637 0.98447
 H19 H 0.26521 0.39715 0.92944
 C20 C 0.45824 0.82541 0.42538
 C21 C 0.46817 0.84719 0.43570
 C22 C 0.45736 0.85784 0.45681
 C23 C 0.43680 0.84654 0.46798
 C24 C 0.42664 0.82476 0.45789
 C25 C 0.43735 0.81413 0.43647
 C26 C 0.46822 0.81523 0.40362
 C27 C 0.45747 0.79411 0.39284
 C28 C 0.43691 0.78276 0.40392
 C29 C 0.42668 0.79269 0.42567
 C30 C 0.40539 0.78216 0.43627
 C31 C 0.39465 0.79291 0.45732
 C32 C 0.40535 0.81398 0.46823
 H33 H 0.48390 0.85620 0.42696
 H34 H 0.42832 0.85505 0.48413
 H35 H 0.48394 0.82406 0.39471
 H36 H 0.42852 0.76661 0.39524
 H37 H 0.39674 0.76607 0.42774
 H38 H 0.39667 0.82238 0.48431
 C39 C 0.95729 0.92447 0.82593
 C40 C 0.96732 0.90290 0.81532
 C41 C 0.95625 0.89217 0.79433
 C42 C 0.93526 0.90317 0.78360
 C43 C 0.92501 0.92474 0.79397
 C44 C 0.93602 0.93545 0.81525
 C45 C 0.96765 0.93477 0.84752
 C46 C 0.95690 0.95575 0.85854
 C47 C 0.93594 0.96679 0.84783
 C48 C 0.92535 0.95673 0.82626
 C49 C 0.90378 0.96706 0.81600
 C50 C 0.89277 0.95628 0.79505
 C51 C 0.90343 0.93532 0.78396
 H52 H 0.98338 0.89414 0.82373
 H53 H 0.92660 0.89462 0.76753
 H54 H 0.98369 0.92613 0.85606
 H55 H 0.92752 0.98285 0.85661
 H56 H 0.89522 0.98310 0.82463
 H57 H 0.89459 0.92693 0.76792
 C58 C 0.45670 -0.07472 0.32456
 C59 C 0.46679 -0.09624 0.31396
 C60 C 0.45585 -0.10686 0.29289
 C61 C 0.43499 -0.09585 0.28201
 C62 C 0.42466 -0.07433 0.29237
 C63 C 0.43550 -0.06370 0.31378
 C64 C 0.46685 -0.06455 0.34628
 C65 C 0.45597 -0.04369 0.35732
 C66 C 0.43510 -0.03259 0.34655
 C67 C 0.42470 -0.04251 0.32483
 C68 C 0.40318 -0.03221 0.31449
 C69 C 0.39235 -0.04292 0.29340
 C70 C 0.40314 -0.06377 0.28227
 H71 H 0.48275 -0.10510 0.32243
 H72 H 0.42648 -0.10442 0.26588
 H73 H 0.48282 -0.07318 0.35495
 H74 H 0.42664 -0.01663 0.35543
 H75 H 0.39448 -0.01625 0.32315
 H76 H 0.39442 -0.07212 0.26614
 C77 C 0.82543 0.29273 0.32612
 C78 C 0.81500 0.28257 0.34767
 C79 C 0.79401 0.29347 0.35836
 C80 C 0.78306 0.31435 0.34740
 C81 C 0.79325 0.32475 0.32585
 C82 C 0.81456 0.31394 0.31514
 C83 C 0.84705 0.28261 0.31584
 C84 C 0.85789 0.29353 0.29491
 C85 C 0.84703 0.31442 0.28387
 C86 C 0.82543 0.32478 0.29390
 C87 C 0.81500 0.34632 0.28362
 C88 C 0.79402 0.35712 0.29441
 C89 C 0.78307 0.34629 0.31532
 H90 H 0.82351 0.26660 0.35649
 H91 H 0.76701 0.32283 0.35602
 H92 H 0.85578 0.26662 0.32443
 H93 H 0.85575 0.32291 0.26786
 H94 H 0.82352 0.35503 0.26762
 H95 H 0.76702 0.35499 0.32372
 C96 C -0.20814 0.82441 0.82317
 C97 C -0.21793 0.84626 0.81290
 C98 C -0.20643 0.85750 0.79247
 C99 C -0.18528 0.84673 0.78192
 C100 C -0.17525 0.82489 0.79196
 C101 C -0.18669 0.81367 0.81270
 C102 C -0.21882 0.81369 0.84433
 C103 C -0.20821 0.79255 0.85514
 C104 C -0.18712 0.78168 0.84462
 C105 C -0.17620 0.79216 0.82348
 C106 C -0.15440 0.78212 0.81353
 C107 C -0.14298 0.79341 0.79313
 C108 C -0.15345 0.81459 0.78225
 H109 H -0.23411 0.85485 0.82118
 H110 H -0.17627 0.85569 0.76630
 H111 H -0.23492 0.82218 0.85285
 H112 H -0.17883 0.76554 0.85336
 H113 H -0.14596 0.76592 0.82201
 H114 H -0.14428 0.82338 0.76666
 C115 C 0.92576 0.32405 0.45819
 C116 C 0.93632 0.34547 0.46866
 C117 C 0.95738 0.35631 0.45796
 C118 C 0.96830 0.34553 0.43698
 C119 C 0.95798 0.32410 0.42628
 C120 C 0.93657 0.31332 0.43687
 C121 C 0.90404 0.31373 0.46808
 C122 C 0.89300 0.29301 0.45682
 C123 C 0.90379 0.28220 0.43582
 C124 C 0.92553 0.29227 0.42568
 C125 C 0.93589 0.28225 0.40404
 C126 C 0.95697 0.29311 0.39345
 C127 C 0.96809 0.31383 0.40462
 H128 H 0.92774 0.35409 0.48469
 H129 H 0.98439 0.35421 0.42857
 H130 H 0.89535 0.32215 0.48415
 H131 H 0.89493 0.26635 0.42707
 H132 H 0.92723 0.26641 0.39507
 H133 H 0.98421 0.32230 0.39609
 C134 C 0.42608 0.45785 0.82353
 C135 C 0.43621 0.46764 0.84543
 C136 C 0.45656 0.45611 0.85672
 C137 C 0.46723 0.43498 0.84601
 C138 C 0.45735 0.42494 0.82411
 C139 C 0.43664 0.43637 0.81280
 C140 C 0.40497 0.46854 0.81274
 C141 C 0.39428 0.45790 0.79155
 C142 C 0.40487 0.43678 0.78070
 C143 C 0.42599 0.42585 0.79125
 C144 C 0.43606 0.40401 0.78125
 C145 C 0.45645 0.39261 0.79264
 C146 C 0.46718 0.40314 0.81386
 H147 H 0.42789 0.48381 0.85407
 H148 H 0.48280 0.42602 0.85508
 H149 H 0.39640 0.48465 0.82121
 H150 H 0.39621 0.42846 0.76453
 H151 H 0.42768 0.39551 0.76502
 H152 H 0.48275 0.39398 0.82271
 C153 C 0.82604 0.92483 0.95761
 C154 C 0.81529 0.90361 0.96828
 C155 C 0.79404 0.89291 0.95771
 C156 C 0.78316 0.90360 0.93664
 C157 C 0.79367 0.92479 0.92573
 C158 C 0.81524 0.93546 0.93619
 C159 C 0.84789 0.93508 0.96742
 C160 C 0.85907 0.95564 0.95600
 C161 C 0.84825 0.96631 0.93487
 C162 C 0.82641 0.95630 0.92481
 C163 C 0.81602 0.96622 0.90309
 C164 C 0.79477 0.95547 0.89264
 C165 C 0.78353 0.93496 0.90401
 H166 H 0.82383 0.89506 0.98439
 H167 H 0.76692 0.89504 0.92833
 H168 H 0.85650 0.92672 0.98360
 H169 H 0.85713 0.98204 0.92593
 H170 H 0.82475 0.98191 0.89398
 H171 H 0.76726 0.92659 0.89560
 C172 C 0.32550 0.82632 0.29210
 C173 C 0.31547 0.84813 0.28195
 C174 C 0.29433 0.85895 0.29246
 C175 C 0.28285 0.84783 0.31296
 C176 C 0.29263 0.82603 0.32334
 C177 C 0.31407 0.81522 0.31291
 C178 C 0.34724 0.81593 0.28238
 C179 C 0.35768 0.79475 0.29331
 C180 C 0.34627 0.78358 0.31379
 C181 C 0.32453 0.79373 0.32375
 C182 C 0.31358 0.78334 0.34494
 C183 C 0.29250 0.79426 0.35541
 C184 C 0.28193 0.81540 0.34454
 H185 H 0.32445 0.85698 0.26626
 H186 H 0.26666 0.85646 0.32120
 H187 H 0.35639 0.82460 0.26671
 H188 H 0.35467 0.76738 0.32230
 H189 H 0.32183 0.76720 0.35371
 H190 H 0.26583 0.82392 0.35300
 C191 C 0.82450 0.42607 0.45872
 C192 C 0.81461 0.40423 0.46891
 C193 C 0.79404 0.39276 0.45790
 C194 C 0.78294 0.40324 0.43684
 C195 C 0.79258 0.42508 0.42641
 C196 C 0.81348 0.43656 0.43735
 C197 C 0.84580 0.43702 0.46891
 C198 C 0.85625 0.45816 0.45789
 C199 C 0.84518 0.46879 0.43689
 C200 C 0.82386 0.45807 0.42647
 C201 C 0.81334 0.46787 0.40477
 C202 C 0.79277 0.45633 0.39382
 C203 C 0.78230 0.43513 0.40469
 H204 H 0.82326 0.39578 0.48501
 H205 H 0.76721 0.39403 0.42827
 H206 H 0.85467 0.42867 0.48496
 H207 H 0.85357 0.48495 0.42824
 H208 H 0.82150 0.48407 0.39602
 H209 H 0.76657 0.42615 0.39589
 C210 C 0.95763 0.82458 -0.07535
 C211 C 0.96758 0.84626 -0.06481
 C212 C 0.95687 0.85661 -0.04354
 C213 C 0.93641 0.84517 -0.03239
 C214 C 0.92622 0.82350 -0.04267
 C215 C 0.93681 0.81315 -0.06429
 C216 C 0.96753 0.81468 -0.09727
 C217 C 0.95676 0.79366 -0.10826
 C218 C 0.93623 0.78216 -0.09720
 C219 C 0.92610 0.79183 -0.07528
 C220 C 0.90488 0.78115 -0.06468
 C221 C 0.89426 0.79164 -0.04342
 C222 C 0.90502 0.81258 -0.03233
 H223 H 0.98323 0.85545 -0.07348
 H224 H 0.92805 0.85353 -0.01611
 H225 H 0.98323 0.82368 -0.10608
 H226 H 0.92779 0.76608 -0.10597
 H227 H 0.89619 0.76516 -0.07333
 H228 H 0.89643 0.82078 -0.01609
 C229 C 0.32419 0.32333 0.79140
 C230 C 0.31371 0.34474 0.78088
 C231 C 0.29240 0.35532 0.79123
 C232 C 0.28112 0.34433 0.81189
 C233 C 0.29134 0.32293 0.82266
 C234 C 0.31301 0.31238 0.81242
 C235 C 0.34618 0.31326 0.78190
 C236 C 0.35713 0.29258 0.79326
 C237 C 0.34597 0.28156 0.81397
 C238 C 0.32397 0.29138 0.82372
 C239 C 0.31327 0.28121 0.84514
 C240 C 0.29196 0.29188 0.85541
 C241 C 0.28090 0.31251 0.84409
 H242 H 0.32252 0.35360 0.76511
 H243 H 0.26484 0.35289 0.82000
 H244 H 0.35514 0.32185 0.76606
 H245 H 0.35475 0.26574 0.82282
 H246 H 0.32190 0.26546 0.85426
 H247 H 0.26462 0.32086 0.85239
 C248 C 0.17414 0.54383 0.57446
 C249 C 0.15260 0.53376 0.56388
 C250 C 0.14200 0.54473 0.54283
 C251 C 0.15304 0.56562 0.53196
 C252 C 0.17459 0.57594 0.54230
 C253 C 0.18520 0.56505 0.56368
 C254 C 0.18430 0.53363 0.59615
 C255 C 0.20521 0.54448 0.60716
 C256 C 0.21635 0.56538 0.59639
 C257 C 0.20643 0.57582 0.57471
 C258 C 0.21680 0.59737 0.56437
 C259 C 0.20610 0.60824 0.54332
 C260 C 0.18520 0.59747 0.53221
 H261 H 0.14371 0.51778 0.57233
 H262 H 0.14450 0.57416 0.51586
 H263 H 0.17564 0.51763 0.60480
 H264 H 0.23235 0.57381 0.60524
 H265 H 0.23278 0.60604 0.57302
 H266 H 0.17688 0.60623 0.51611
 C267 C 0.57342 0.70924 0.07284
 C268 C 0.59533 0.71897 0.06278
 C269 C 0.60633 0.70769 0.04214
 C270 C 0.59529 0.68682 0.03114
 C271 C 0.57336 0.67684 0.04095
 C272 C 0.56236 0.68806 0.06192
 C273 C 0.56295 0.71965 0.09425
 C274 C 0.54176 0.70903 0.10486
 C275 C 0.53057 0.68825 0.09389
 C276 C 0.54079 0.67759 0.07249
 C277 C 0.53048 0.65601 0.06213
 C278 C 0.54157 0.64475 0.04153
 C279 C 0.56280 0.65524 0.03083
 H280 H 0.60420 0.73491 0.07137
 H281 H 0.60414 0.67802 0.01537
 H282 H 0.57168 0.73551 0.10310
 H283 H 0.51439 0.67994 0.10248
 H284 H 0.51428 0.64753 0.07050
 H285 H 0.57146 0.64617 0.01511
 C286 C 0.70999 0.17668 0.67837
 C287 C 0.71999 0.18729 0.65682
 C288 C 0.70892 0.20826 0.64612
 C289 C 0.68807 0.21907 0.65714
 C290 C 0.67782 0.20871 0.67870
 C291 C 0.68877 0.18737 0.68936
 C292 C 0.72017 0.15493 0.68848
 C293 C 0.70927 0.14372 0.70925
 C294 C 0.68838 0.15447 0.72036
 C295 C 0.67797 0.17622 0.71048
 C296 C 0.65633 0.18639 0.72068
 C297 C 0.64536 0.20738 0.70990
 C298 C 0.65619 0.21863 0.68914
 H299 H 0.73590 0.17883 0.64793
 H300 H 0.67941 0.23507 0.64850
 H301 H 0.73611 0.14633 0.67975
 H302 H 0.67981 0.14551 0.73621
 H303 H 0.64759 0.17759 0.73652
 H304 H 0.64735 0.23464 0.68071
 C305 C 1.07187 0.03964 0.17705
 C306 C 1.09346 0.02956 0.18751
 C307 C 1.10419 0.04049 0.20853
 C308 C 1.09316 0.06127 0.21957
 C309 C 1.07157 0.07160 0.20936
 C310 C 1.06088 0.06080 0.18797
 C311 C 1.06173 0.02963 0.15523
 C312 C 1.04094 0.04066 0.14417
 C313 C 1.02984 0.06148 0.15514
 C314 C 1.03974 0.07171 0.17696
 C315 C 1.02957 0.09333 0.18732
 C316 C 1.04040 0.10416 0.20835
 C317 C 1.06116 0.09321 0.21948
 H318 H 1.10237 0.01371 0.17888
 H319 H 1.10183 0.06984 0.23561
 H320 H 1.07046 0.01374 0.14646
 H321 H 1.01397 0.07015 0.14630
 H322 H 1.01374 0.10218 0.17862
 H323 H 1.06964 0.10196 0.23552
 C324 C 0.04120 0.17616 1.07323
 C325 C 0.03075 0.15469 1.06274
 C326 C 0.04177 0.14347 1.04205
 C327 C 0.06306 0.15393 1.03141
 C328 C 0.07374 0.17541 1.04166
 C329 C 0.06282 0.18656 1.06270
 C330 C 0.03102 0.18680 1.09467
 C331 C 0.04228 0.20751 1.10571
 C332 C 0.06355 0.21803 1.09515
 C333 C 0.07399 0.20764 1.07371
 C334 C 0.09593 0.21733 1.06366
 C335 C 0.10684 0.20611 1.04293
 C336 C 0.09570 0.18535 1.03185
 H337 H 0.01449 0.14631 1.07112
 H338 H 0.07171 0.14497 1.01560
 H339 H 0.01477 0.17857 1.10319
 H340 H 0.07234 0.23385 1.10405
 H341 H 0.10487 0.23321 1.07229
 H342 H 0.10446 0.17661 1.01600
 C343 C 0.17621 0.67635 0.70747
 C344 C 0.15504 0.68693 0.71820
 C345 C 0.14418 0.70809 0.70767
 C346 C 0.15464 0.71909 0.68659
 C347 C 0.17581 0.70876 0.67560
 C348 C 0.18664 0.68725 0.68603
 C349 C 0.18657 0.65451 0.71720
 C350 C 0.20703 0.64346 0.70567
 C351 C 0.21754 0.65435 0.68455
 C352 C 0.20742 0.67619 0.67457
 C353 C 0.21713 0.68664 0.65282
 C354 C 0.20622 0.70783 0.64239
 C355 C 0.18576 0.71896 0.65384
 H356 H 0.14658 0.67834 0.73431
 H357 H 0.14588 0.73525 0.67836
 H358 H 0.17838 0.64576 0.73335
 H359 H 0.23318 0.64549 0.67559
 H360 H 0.23277 0.67799 0.64364
 H361 H 0.17726 0.73517 0.64544
 C362 C 1.20836 0.17629 0.17604
 C363 C 1.21868 0.15469 0.18631
 C364 C 1.20822 0.14394 0.20755
 C365 C 1.18767 0.15500 0.21895
 C366 C 1.17714 0.17660 0.20892
 C367 C 1.18746 0.18730 0.18733
 C368 C 1.21793 0.18648 0.15410
 C369 C 1.20674 0.20733 0.14332
 C370 C 1.18617 0.21843 0.15459
 C371 C 1.17637 0.20848 0.17654
 C372 C 1.15504 0.21870 0.18731
 C373 C 1.14467 0.20788 0.20852
 C374 C 1.15580 0.18706 0.21943
 H375 H 1.23436 0.14584 0.17737
 H376 H 1.17944 0.14639 0.23517
 H377 H 1.23365 0.17784 0.14505
 H378 H 1.17745 0.23437 0.14591
 H379 H 1.14606 0.23458 0.17879
 H380 H 1.14740 0.17860 0.23563
 C381 C 0.67802 1.07272 0.54037
 C382 C 0.65632 1.06255 0.53017
 C383 C 0.64537 1.04154 0.54091
 C384 C 0.65628 1.03023 0.56162
 C385 C 0.67796 1.04015 0.57206
 C386 C 0.68889 1.06152 0.56145
 C387 C 0.68840 1.09452 0.53057
 C388 C 0.70932 1.10529 0.54171
 C389 C 0.72030 1.09403 0.56244
 C390 C 0.71016 1.07224 0.57247
 C391 C 0.72020 1.06160 0.59401
 C392 C 0.70914 1.04061 0.60467
 C393 C 0.68826 1.02977 0.59361
 H394 H 0.64751 1.07139 0.51437
 H395 H 0.64744 1.01420 0.57002
 H396 H 0.67976 1.10352 0.51474
 H397 H 0.73627 1.10265 0.57120
 H398 H 0.73614 1.07009 0.60294
 H399 H 0.67960 1.01375 0.60222
 C400 C 0.53979 0.57177 0.17780
 C401 C 0.52980 0.56125 0.15617
 C402 C 0.54085 0.54031 0.14544
 C403 C 0.56166 0.52941 0.15653
 C404 C 0.57190 0.53967 0.17817
 C405 C 0.56097 0.56099 0.18886
 C406 C 0.52967 0.59352 0.18792
 C407 C 0.54060 0.60463 0.20875
 C408 C 0.56142 0.59382 0.21993
 C409 C 0.57178 0.57207 0.21006
 C410 C 0.59340 0.56186 0.22030
 C411 C 0.60436 0.54091 0.20948
 C412 C 0.59352 0.52971 0.18866
 H413 H 0.51393 0.56978 0.14722
 H414 H 0.57031 0.51344 0.14786
 H415 H 0.51380 0.60225 0.17918
 H416 H 0.56997 0.60279 0.23582
 H417 H 0.60216 0.57062 0.23618
 H418 H 0.60236 0.51373 0.18020
 C419 C 0.67651 0.70871 0.17619
 C420 C 0.65512 0.71895 0.18681
 C421 C 0.64479 0.70835 0.20816
 C422 C 0.65601 0.68773 0.21934
 C423 C 0.67741 0.67725 0.20897
 C424 C 0.68770 0.68772 0.18726
 C425 C 0.68632 0.71844 0.15414
 C426 C 0.70698 0.70732 0.14304
 C427 C 0.71824 0.68665 0.15410
 C428 C 0.70868 0.67668 0.17614
 C429 C 0.71907 0.65525 0.18670
 C430 C 0.70863 0.64475 0.20805
 C431 C 0.68804 0.65583 0.21928
 H432 H 0.64606 0.73469 0.17809
 H433 H 0.64765 0.67943 0.23564
 H434 H 0.67755 0.73424 0.14526
 H435 H 0.73403 0.67798 0.14519
 H436 H 0.73478 0.64631 0.17794
 H437 H 0.67987 0.64733 0.23558
 C438 C 0.17612 0.04060 1.07301
 C439 C 0.15463 0.03041 1.06238
 C440 C 0.14373 0.04159 1.04157
 C441 C 0.15452 0.06277 1.03094
 C442 C 0.17600 0.07319 1.04133
 C443 C 0.18685 0.06213 1.06250
 C444 C 0.18644 0.03028 1.09458
 C445 C 0.20718 0.04134 1.10577
 C446 C 0.21802 0.06252 1.09520
 C447 C 0.20792 0.07308 1.07364
 C448 C 0.21790 0.09497 1.06362
 C449 C 0.20696 0.10603 1.04279
 C450 C 0.18623 0.09508 1.03156
 H451 H 0.14599 0.01424 1.07074
 H452 H 0.14580 0.07154 1.01504
 H453 H 0.17793 0.01410 1.10304
 H454 H 0.23385 0.07120 1.10414
 H455 H 0.23376 0.10378 1.07238
 H456 H 0.17770 0.10396 1.01563
 C457 C 0.57203 0.17814 0.54029
 C458 C 0.59372 0.18835 0.53024
 C459 C 0.60477 0.20917 0.54126
 C460 C 0.59396 0.22028 0.56210
 C461 C 0.57226 0.21032 0.57239
 C462 C 0.56124 0.18912 0.56150
 C463 C 0.56162 0.15646 0.53026
 C464 C 0.54079 0.14560 0.54130
 C465 C 0.52985 0.15661 0.56211
 C466 C 0.54000 0.17830 0.57238
 C467 C 0.53005 0.18866 0.59404
 C468 C 0.54120 0.20947 0.60499
 C469 C 0.56206 0.22043 0.59408
 H470 H 0.60246 0.17966 0.51436
 H471 H 0.60290 0.23616 0.57073
 H472 H 0.57018 0.14755 0.51439
 H473 H 0.51395 0.14782 0.57075
 H474 H 0.51415 0.18007 0.60287
 H475 H 0.57079 0.23630 0.60293
 C476 C 0.07440 0.54253 0.67533
 C477 C 0.09615 0.53268 0.68566
 C478 C 0.10675 0.54357 0.70677
 C479 C 0.09549 0.56416 0.71795
 C480 C 0.07373 0.57425 0.70787
 C481 C 0.06312 0.56344 0.68644
 C482 C 0.06425 0.53244 0.65355
 C483 C 0.04316 0.54312 0.64277
 C484 C 0.03181 0.56370 0.65388
 C485 C 0.04170 0.57402 0.67565
 C486 C 0.03117 0.59533 0.68627
 C487 C 0.04188 0.60617 0.70735
 C488 C 0.06294 0.59555 0.71824
 H489 H 0.10519 0.51694 0.67695
 H490 H 0.10403 0.57266 0.73410
 H491 H 0.07308 0.51671 0.64463
 H492 H 0.01568 0.57202 0.64520
 H493 H 0.01508 0.60391 0.67775
 H494 H 0.07131 0.60431 0.73434
 C495 C 0.67634 0.57352 0.04140
 C496 C 0.65493 0.56295 0.03100
 C497 C 0.64434 0.54168 0.04158
 C498 C 0.65533 0.53051 0.06232
 C499 C 0.67674 0.54082 0.07296
 C500 C 0.68729 0.56247 0.06252
 C501 C 0.68638 0.59552 0.03170
 C502 C 0.70703 0.60659 0.04296
 C503 C 0.71807 0.59556 0.06376
 C504 C 0.70827 0.57356 0.07370
 C505 C 0.71844 0.56301 0.09523
 C506 C 0.70776 0.54172 0.10570
 C507 C 0.68714 0.53053 0.09449
 H508 H 0.64606 0.57167 0.01517
 H509 H 0.64676 0.51427 0.07060
 H510 H 0.67778 0.60439 0.01580
 H511 H 0.73386 0.60446 0.07253
 H512 H 0.73418 0.57175 0.10426
 H513 H 0.67879 0.51428 0.10296
 C514 C 0.04245 0.67636 0.57408
 C515 C 0.03205 0.68736 0.59523
 C516 C 0.04289 0.70858 0.60572
 C517 C 0.06395 0.71924 0.59491
 C518 C 0.07461 0.70849 0.57376
 C519 C 0.06388 0.68691 0.56330
 C520 C 0.03239 0.65447 0.56408
 C521 C 0.04359 0.64304 0.54361
 C522 C 0.06470 0.65358 0.53277
 C523 C 0.07501 0.67545 0.54253
 C524 C 0.09676 0.68558 0.53247
 C525 C 0.10747 0.70683 0.54302
 C526 C 0.09634 0.71836 0.56346
 H527 H 0.01596 0.67904 0.60397
 H528 H 0.07242 0.73545 0.60338
 H529 H 0.01623 0.64600 0.57253
 H530 H 0.07340 0.64443 0.51712
 H531 H 0.10569 0.67662 0.51684
 H532 H 0.10496 0.73463 0.57167
 C533 C 0.54056 1.07151 0.67693
 C534 C 0.53058 1.06119 0.65519
 C535 C 0.54170 1.04039 0.64418
 C536 C 0.56262 1.02949 0.65514
 C537 C 0.57284 1.03958 0.67690
 C538 C 0.56180 1.06071 0.68784
 C539 C 0.53033 1.09308 0.68734
 C540 C 0.54119 1.10398 0.70832
 C541 C 0.56207 1.09313 0.71935
 C542 C 0.57254 1.07157 0.70919
 C543 C 0.59419 1.06133 0.71934
 C544 C 0.60526 1.04057 0.70830
 C545 C 0.59451 1.02959 0.68730
 H546 H 0.51461 1.06977 0.64643
 H547 H 0.57137 1.01363 0.64635
 H548 H 0.51440 1.10184 0.67872
 H549 H 0.57056 1.10192 0.73536
 H550 H 0.60287 1.06992 0.73536
 H551 H 0.60343 1.01374 0.67867
 C552 C 0.42615 0.32405 0.95830
 C553 C 0.43617 0.34597 0.96826
 C554 C 0.45666 0.35734 0.95701
 C555 C 0.46750 0.34665 0.93594
 C556 C 0.45771 0.32473 0.92574
 C557 C 0.43691 0.31337 0.93693
 C558 C 0.40495 0.31318 0.96873
 C559 C 0.39440 0.29196 0.95797
 C560 C 0.40520 0.28116 0.93697
 C561 C 0.42640 0.29178 0.92629
 C562 C 0.43667 0.28179 0.90459
 C563 C 0.45713 0.29321 0.89340
 C564 C 0.46774 0.31449 0.90403
 H565 H 0.42767 0.35449 0.98437
 H566 H 0.48317 0.35571 0.92713
 H567 H 0.39623 0.32161 0.98477
 H568 H 0.39666 0.26495 0.92856
 H569 H 0.42839 0.26552 0.89603
 H570 H 0.48338 0.32337 0.89505
 C571 C 0.92560 0.45766 0.32472
 C572 C 0.93648 0.46820 0.34591
 C573 C 0.95767 0.45747 0.35649
 C574 C 0.96841 0.43638 0.34566
 C575 C 0.95777 0.42562 0.32445
 C576 C 0.93623 0.43623 0.31395
 C577 C 0.90374 0.46756 0.31470
 C578 C 0.89238 0.45622 0.29423
 C579 C 0.90299 0.43512 0.28337
 C580 C 0.92485 0.42496 0.29315
 C581 C 0.93503 0.40322 0.28309
 C582 C 0.95625 0.39260 0.29367
 C583 C 0.96769 0.40385 0.31415
 H584 H 0.92804 0.48429 0.35459
 H585 H 0.98460 0.42795 0.35414
 H586 H 0.89520 0.48371 0.32316
 H587 H 0.89389 0.42630 0.26771
 H588 H 0.92613 0.39419 0.26743
 H589 H 0.98392 0.39530 0.32241
 C590 C 0.32579 0.95886 0.42478
 C591 C 0.31552 0.96875 0.40298
 C592 C 0.29422 0.95809 0.39251
 C593 C 0.28282 0.93771 0.40395
 C594 C 0.29284 0.92758 0.42574
 C595 C 0.31444 0.93816 0.43622
 C596 C 0.34772 0.96872 0.43483
 C597 C 0.35840 0.95800 0.45602
 C598 C 0.34703 0.93761 0.46751
 C599 C 0.32512 0.92753 0.45769
 C600 C 0.31426 0.90640 0.46837
 C601 C 0.29304 0.89577 0.45776
 C602 C 0.28223 0.90645 0.43667
 H603 H 0.32439 0.98433 0.39380
 H604 H 0.26653 0.92938 0.39552
 H605 H 0.35677 0.98432 0.42585
 H606 H 0.35554 0.92921 0.48371
 H607 H 0.32270 0.89776 0.48448
 H608 H 0.26602 0.89785 0.42837
 O609 O 0.28200 0.43412 0.75081
 O610 O 0.27819 0.44217 0.70832
 O611 O 0.31615 0.49910 0.78070
 O612 O 0.30899 0.54021 0.78113
 O613 O 0.25154 0.46841 0.81566
 O614 O 0.20820 0.47029 0.80670
 O615 O 0.24849 0.56519 0.71685
 O616 O 0.29075 0.55824 0.72163
 O617 O 0.21740 0.50227 0.68484
 O618 O 0.21921 0.45736 0.69339
 O619 O 0.18513 0.53241 0.74789
 O620 O 0.19396 0.53105 0.79235
 O621 O 0.21873 0.56526 0.74683
 O622 O 0.22159 0.55630 0.79286
 O623 O 0.18469 0.50236 0.71818
 O624 O 0.19395 0.45661 0.72092
 O625 O 0.24687 0.53259 0.68483
 O626 O 0.29178 0.52425 0.69257
 O627 O 0.25189 0.43392 0.78052
 O628 O 0.20782 0.44316 0.77858
 O629 O 0.28143 0.49836 0.81565
 O630 O 0.27742 0.54324 0.80562
 O631 O 0.31582 0.46865 0.75129
 O632 O 0.30585 0.47443 0.70661
 Zr633 Zr 0.27994 0.47018 0.73588
 O634 O 0.25762 0.49182 0.71221
 Zr635 Zr 0.28002 0.51376 0.77974
 O636 O 0.25839 0.53753 0.75751
 Zr637 Zr 0.23648 0.46996 0.77964
 O638 O 0.21257 0.49210 0.75803
 Zr639 Zr 0.26393 0.52954 0.71980
 O640 O 0.28822 0.50802 0.74195
 Zr641 Zr 0.22003 0.48603 0.72027
 O642 O 0.24222 0.46194 0.74191
 Zr643 Zr 0.22072 0.52993 0.76371
 O644 O 0.24236 0.50777 0.78797
 O645 O 0.27388 0.47624 0.77347
 O646 O 0.22627 0.52375 0.72605
 C647 C 0.26942 0.42359 0.76809
 C648 C 0.32640 0.48143 0.76843
 C649 C 0.26894 0.48094 0.82608
 C650 C 0.23075 0.57543 0.72894
 C651 C 0.22913 0.52036 0.67470
 C652 C 0.17471 0.52028 0.73023
 H653 H 0.26156 0.48789 0.69473
 H654 H 0.19520 0.48815 0.76225
 H655 H 0.28452 0.46566 0.78404
 H656 H 0.26263 0.55503 0.76117
 H657 H 0.30648 0.55033 0.72684
 H658 H 0.30492 0.55327 0.76890
 H659 H 0.18266 0.45945 0.73507
 H660 H 0.20912 0.43467 0.76234
 H661 H 0.29101 0.53845 0.68086
 H662 H 0.31852 0.46115 0.70801
 H663 H 0.18428 0.51546 0.79150
 H664 H 0.20869 0.48695 0.81448
 H665 H 0.26129 0.43504 0.70899
 H666 H 0.23433 0.45890 0.68316
 H667 H 0.26220 0.54034 0.81542
 H668 H 0.23540 0.56794 0.78960
 O669 O 0.24779 0.06623 0.21680
 O670 O 0.29031 0.05846 0.22006
 O671 O 0.21745 0.00142 0.18342
 O672 O 0.21932 -0.04306 0.19344
 O673 O 0.18348 0.03143 0.24802
 O674 O 0.19285 0.02992 0.29136
 O675 O 0.28291 -0.06428 0.25108
 O676 O 0.27739 -0.05848 0.20939
 O677 O 0.31471 -0.00101 0.28117
 O678 O 0.30587 0.04390 0.27894
 O679 O 0.25246 -0.03133 0.31442
 O680 O 0.20745 -0.02993 0.30573
 O681 O 0.25314 -0.06447 0.28104
 O682 O 0.20752 -0.05621 0.27906
 O683 O 0.28189 -0.00100 0.31427
 O684 O 0.27869 0.04463 0.30459
 O685 O 0.31466 -0.03140 0.25176
 O686 O 0.30600 -0.02369 0.20668
 O687 O 0.21842 0.06633 0.24724
 O688 O 0.22059 0.05737 0.29126
 O689 O 0.18334 0.00121 0.21840
 O690 O 0.19279 -0.04246 0.22089
 O691 O 0.24713 0.03158 0.18304
 O692 O 0.29193 0.02608 0.19263
 Zr693 Zr 0.26291 0.03027 0.21882
 O694 O 0.28690 0.00895 0.24109
 Zr695 Zr 0.21942 -0.01365 0.21948
 O696 O 0.24188 -0.03696 0.24128
 Zr697 Zr 0.21962 0.03035 0.26280
 O698 O 0.24165 0.00867 0.28674
 Zr699 Zr 0.27943 -0.02887 0.23519
 O700 O 0.25703 -0.00765 0.21075
 Zr701 Zr 0.27923 0.01499 0.27876
 O702 O 0.25718 0.03869 0.25659
 Zr703 Zr 0.23613 -0.02924 0.27900
 O704 O 0.21156 -0.00758 0.25726
 O705 O 0.22548 0.02395 0.22534
 O706 O 0.27362 -0.02281 0.27292
 C707 C 0.23064 0.07670 0.22957
 C708 C 0.22973 0.01890 0.17281
 C709 C 0.17294 0.01864 0.23086
 C710 C 0.27103 -0.07453 0.26897
 C711 C 0.32486 -0.01904 0.26940
 C712 C 0.27013 -0.01896 0.32455
 H713 H 0.30429 0.01295 0.23691
 H714 H 0.23760 0.01276 0.30414
 H715 H 0.21470 0.03444 0.21482
 H716 H 0.23824 -0.05449 0.23710
 H717 H 0.27243 -0.05115 0.19332
 H718 H 0.23378 -0.04054 0.18248
 H719 H 0.26474 0.04174 0.31612
 H720 H 0.23682 0.06585 0.28994
 H721 H 0.31782 -0.03777 0.20744
 H722 H 0.29029 0.03923 0.17983
 H723 H 0.20908 -0.01482 0.31605
 H724 H 0.18526 0.01316 0.29110
 H725 H 0.28983 0.06565 0.23695
 H726 H 0.31610 0.04214 0.26384
 H727 H 0.18488 -0.04141 0.23741
 H728 H 0.21001 -0.06715 0.26453
 O729 O 0.50133 0.68416 0.21771
 O730 O 0.45899 0.69224 0.22102
 O731 O 0.53139 0.74928 0.18362
 O732 O 0.53209 0.79030 0.19090
 O733 O 0.56611 0.71843 0.24850
 O734 O 0.55707 0.72048 0.29186
 O735 O 0.46754 0.81528 0.25093
 O736 O 0.47246 0.80829 0.20865
 O737 O 0.43537 0.75251 0.28183
 O738 O 0.44384 0.70757 0.28009
 O739 O 0.49839 0.78260 0.31457
 O740 O 0.54272 0.78126 0.30606
 O741 O 0.49739 0.81537 0.28094
 O742 O 0.54342 0.80639 0.27831
 O743 O 0.46860 0.75263 0.31482
 O744 O 0.47126 0.70684 0.30556
 O745 O 0.43550 0.78274 0.25229
 O746 O 0.44339 0.77430 0.20740
 O747 O 0.53085 0.68398 0.24810
 O748 O 0.52898 0.69337 0.29211
 O749 O 0.56624 0.74837 0.21862
 O750 O 0.55628 0.79331 0.22270
 O751 O 0.50206 0.71877 0.18373
 O752 O 0.45736 0.72449 0.19345
 Zr753 Zr 0.48654 0.72026 0.21956
 O754 O 0.46284 0.74193 0.24175
 Zr755 Zr 0.53042 0.76383 0.21983
 O756 O 0.50816 0.78763 0.24130
 Zr757 Zr 0.53010 0.72008 0.26339
 O758 O 0.50846 0.74226 0.28717
 Zr759 Zr 0.47050 0.77964 0.23549
 O760 O 0.49269 0.75809 0.21134
 Zr761 Zr 0.47075 0.73622 0.27945
 O762 O 0.49241 0.71210 0.25738
 Zr763 Zr 0.51423 0.78006 0.27905
 O764 O 0.53852 0.75786 0.25758
 O765 O 0.52408 0.72630 0.22589
 O766 O 0.47662 0.77391 0.27323
 C767 C 0.51844 0.67360 0.23053
 C768 C 0.51914 0.73164 0.17324
 C769 C 0.57659 0.73095 0.23116
 C770 C 0.47956 0.82551 0.26880
 C771 C 0.42529 0.77057 0.27000
 C772 C 0.48068 0.77053 0.32489
 H773 H 0.44539 0.73800 0.23768
 H774 H 0.51262 0.73833 0.30459
 H775 H 0.53463 0.71567 0.21530
 H776 H 0.51185 0.80512 0.23709
 H777 H 0.47770 0.80036 0.19294
 H778 H 0.51970 0.80323 0.19476
 H779 H 0.48532 0.70973 0.31701
 H780 H 0.51269 0.68497 0.29082
 H781 H 0.43172 0.78851 0.20807
 H782 H 0.45884 0.71127 0.18070
 H783 H 0.54197 0.76559 0.31561
 H784 H 0.56494 0.73709 0.29134
 H785 H 0.45938 0.68530 0.23802
 H786 H 0.43362 0.70913 0.26492
 H787 H 0.56612 0.79033 0.23793
 H788 H 0.54013 0.81811 0.26457
 O789 O 0.06593 0.71856 0.74864
 O790 O 0.05789 0.72201 0.79119
 O791 O 0.00110 0.68473 0.71836
 O792 O -0.03986 0.69203 0.71778
 O793 O 0.03200 0.74979 0.68406
 O794 O 0.03000 0.79324 0.69335
 O795 O -0.06479 0.75203 0.78244
 O796 O -0.05787 0.70968 0.77741
 O797 O -0.00198 0.78272 0.81509
 O798 O 0.04279 0.78102 0.80658
 O799 O -0.03209 0.81578 0.75229
 O800 O -0.03043 0.80755 0.70770
 O801 O -0.06477 0.78210 0.75264
 O802 O -0.05560 0.77983 0.70669
 O803 O -0.00221 0.81589 0.78214
 O804 O 0.04351 0.80670 0.77929
 O805 O -0.03234 0.75330 0.81468
 O806 O -0.02407 0.70833 0.80659
 O807 O 0.06623 0.74912 0.71926
 O808 O 0.05709 0.79330 0.72158
 O809 O 0.00212 0.71983 0.68373
 O810 O -0.04270 0.72396 0.69355
 O811 O 0.03142 0.68471 0.74785
 O812 O 0.02568 0.69430 0.79261
 Zr813 Zr 0.02997 0.72056 0.76355
 O814 O 0.00837 0.74273 0.78735
 Zr815 Zr -0.01341 0.72100 0.71955
 O816 O -0.03711 0.74250 0.74187
 Zr817 Zr 0.03032 0.76461 0.72018
 O818 O 0.00824 0.78840 0.74193
 Zr819 Zr -0.02924 0.73654 0.77956
 O820 O -0.00776 0.71238 0.75729
 Zr821 Zr 0.01419 0.78051 0.77964
 O822 O 0.03824 0.75845 0.75789
 Zr823 Zr -0.02946 0.78033 0.73602
 O824 O -0.00736 0.75884 0.71165
 O825 O 0.02399 0.72704 0.72602
 O826 O -0.02340 0.77436 0.77366
 C827 C 0.07647 0.73134 0.73150
 C828 C 0.01867 0.67429 0.73060
 C829 C 0.01957 0.73238 0.67348
 C830 C -0.07497 0.76989 0.77038
 C831 C -0.02008 0.77092 0.82506
 C832 C -0.02011 0.82600 0.77017
 H833 H 0.01225 0.73858 0.80480
 H834 H 0.01220 0.80587 0.73791
 H835 H 0.03455 0.71644 0.71541
 H836 H -0.05455 0.73830 0.73809
 H837 H -0.04998 0.69396 0.77207
 H838 H -0.05288 0.69601 0.73002
 H839 H 0.04058 0.81829 0.76534
 H840 H 0.06545 0.79187 0.73788
 H841 H -0.03824 0.70900 0.81825
 H842 H 0.03890 0.68159 0.79113
 H843 H -0.01491 0.81728 0.70878
 H844 H 0.01341 0.79279 0.68549
 H845 H 0.06508 0.73894 0.79062
 H846 H 0.04129 0.76571 0.81661
 H847 H -0.03967 0.73925 0.68379
 H848 H -0.06717 0.76588 0.70968
 O849 O 0.00157 0.06588 0.03224
 O850 O -0.04095 0.05775 0.02842
 O851 O 0.03187 0.00151 0.06615
 O852 O 0.03081 -0.04292 0.05631
 O853 O 0.06624 0.03170 0.00162
 O854 O 0.05719 0.02978 -0.04184
 O855 O -0.03220 -0.06525 -0.00173
 O856 O -0.02712 -0.05909 0.04004
 O857 O -0.06447 -0.00257 -0.03237
 O858 O -0.05604 0.04240 -0.03050
 O859 O -0.00156 -0.03249 -0.06490
 O860 O 0.04333 -0.03029 -0.05595
 O861 O -0.00207 -0.06526 -0.03135
 O862 O 0.04344 -0.05631 -0.02897
 O863 O -0.03134 -0.00259 -0.06520
 O864 O -0.02859 0.04328 -0.05588
 O865 O -0.06433 -0.03281 -0.00284
 O866 O -0.05615 -0.02464 0.04223
 O867 O 0.03113 0.06614 0.00199
 O868 O 0.02917 0.05697 -0.04201
 O869 O 0.06637 0.00175 0.03150
 O870 O 0.05742 -0.04213 0.02902
 O871 O 0.00193 0.03133 0.06614
 O872 O -0.04271 0.02552 0.05604
 Zr873 Zr -0.01341 0.02978 0.03016
 O874 O -0.03702 0.00800 0.00782
 Zr875 Zr 0.03049 -0.01365 0.03012
 O876 O 0.00844 -0.03737 0.00830
 Zr877 Zr 0.03023 0.03009 -0.01344
 O878 O 0.00862 0.00797 -0.03744
 Zr879 Zr -0.02925 -0.02969 0.01401
 O880 O -0.00725 -0.00804 0.03849
 Zr881 Zr -0.02910 0.01384 -0.02983
 O882 O -0.00746 0.03799 -0.00762
 Zr883 Zr 0.01448 -0.02980 -0.02940
 O884 O 0.03865 -0.00769 -0.00761
 O885 O 0.02412 0.02383 0.02401
 O886 O -0.02315 -0.02383 -0.02369
 C887 C 0.01880 0.07644 0.01960
 C888 C 0.01931 0.01884 0.07660
 C889 C 0.07672 0.01921 0.01901
 C890 C -0.01999 -0.07546 -0.01942
 C891 C -0.07454 -0.02067 -0.02059
 C892 C -0.01933 -0.02051 -0.07522
 H893 H -0.05448 0.01181 0.01183
 H894 H 0.01275 0.01198 -0.05484
 H895 H 0.03470 0.03447 0.03462
 H896 H 0.01221 -0.05482 0.01262
 H897 H -0.02251 -0.05156 0.05613
 H898 H 0.01607 -0.04073 0.06696
 H899 H -0.01460 0.04039 -0.06736
 H900 H 0.01283 0.06522 -0.04086
 H901 H -0.06778 -0.03891 0.04149
 H902 H -0.04130 0.03878 0.06877
 H903 H 0.04160 -0.01527 -0.06639
 H904 H 0.06498 0.01314 -0.04137
 H905 H -0.04025 0.06489 0.01152
 H906 H -0.06618 0.04082 -0.01531
 H907 H 0.06562 -0.04091 0.01265
 H908 H 0.04091 -0.06723 -0.01444
 O909 O -0.06645 0.49849 0.46742
 O910 O -0.05843 0.54105 0.47082
 O911 O -0.00166 0.46842 0.43348
 O912 O 0.03932 0.46806 0.44074
 O913 O -0.03232 0.43374 0.49824
 O914 O -0.03020 0.44283 0.54163
 O915 O 0.06424 0.53288 0.50088
 O916 O 0.05725 0.52793 0.45861
 O917 O 0.00160 0.56497 0.53178
 O918 O -0.04316 0.55635 0.52996
 O919 O 0.03171 0.50193 0.56446
 O920 O 0.03041 0.45746 0.55593
 O921 O 0.06437 0.50298 0.53086
 O922 O 0.05543 0.45679 0.52819
 O923 O 0.00177 0.53169 0.56470
 O924 O -0.04392 0.52881 0.55534
 O925 O 0.03176 0.56492 0.50231
 O926 O 0.02334 0.55695 0.45736
 O927 O -0.06660 0.46892 0.49778
 O928 O -0.05727 0.47098 0.54187
 O929 O -0.00248 0.43363 0.46840
 O930 O 0.04237 0.44376 0.47255
 O931 O -0.03206 0.49779 0.43356
 O932 O -0.02627 0.54268 0.44325
 Zr933 Zr -0.03049 0.51349 0.46938
 O934 O -0.00891 0.53736 0.49163
 Zr935 Zr 0.01296 0.46961 0.46966
 O936 O 0.03668 0.49205 0.49119
 Zr937 Zr -0.03063 0.46986 0.51318
 O938 O -0.00852 0.49165 0.53701
 Zr939 Zr 0.02869 0.52979 0.48541
 O940 O 0.00722 0.50743 0.46120
 Zr941 Zr -0.01459 0.52943 0.52931
 O942 O -0.03864 0.50762 0.50718
 Zr943 Zr 0.02917 0.48598 0.52892
 O944 O 0.00704 0.46151 0.50741
 O945 O -0.02444 0.47588 0.47571
 O946 O 0.02300 0.52367 0.52314
 C947 C -0.07693 0.48126 0.48015
 C948 C -0.01932 0.48059 0.42311
 C949 C -0.01990 0.42324 0.48087
 C950 C 0.07447 0.52088 0.51874
 C951 C 0.01961 0.57513 0.52001
 C952 C 0.01965 0.51965 0.57479
 H953 H -0.01284 0.55484 0.48757
 H954 H -0.01243 0.48749 0.55442
 H955 H -0.03503 0.46525 0.46511
 H956 H 0.05412 0.48840 0.48699
 H957 H 0.04934 0.52259 0.44289
 H958 H 0.05226 0.48046 0.44469
 H959 H -0.04098 0.51477 0.56682
 H960 H -0.06573 0.48723 0.54049
 H961 H 0.03747 0.56872 0.45809
 H962 H -0.03947 0.54114 0.43050
 H963 H 0.01476 0.45814 0.56542
 H964 H -0.01364 0.43496 0.54109
 H965 H -0.06541 0.54058 0.48778
 H966 H -0.04167 0.56652 0.51475
 H967 H 0.03938 0.43388 0.48775
 H968 H 0.06710 0.46009 0.51444
 O969 O 0.56604 0.03229 0.50151
 O970 O 0.55798 0.02888 0.45908
 O971 O 0.50163 0.06600 0.53195
 O972 O 0.45750 0.05601 0.53115
 O973 O 0.53202 0.00120 0.56617
 O974 O 0.53005 -0.04221 0.55700
 O975 O 0.43539 -0.00147 0.46727
 O976 O 0.44153 0.04023 0.47266
 O977 O 0.49797 -0.03203 0.43513
 O978 O 0.54281 -0.03012 0.44369
 O979 O 0.46812 -0.06515 0.49785
 O980 O 0.46976 -0.05657 0.54259
 O981 O 0.43527 -0.03148 0.49714
 O982 O 0.44414 -0.02931 0.54296
 O983 O 0.49804 -0.06518 0.46816
 O984 O 0.54363 -0.05575 0.47098
 O985 O 0.46788 -0.00240 0.43529
 O986 O 0.47601 0.04271 0.44381
 O987 O 0.56634 0.00175 0.53091
 O988 O 0.55703 -0.04238 0.52891
 O989 O 0.50210 0.03105 0.56644
 O990 O 0.45828 0.02834 0.55740
 O991 O 0.53145 0.06623 0.50208
 O992 O 0.52581 0.05640 0.45737
 Zr993 Zr 0.53005 0.03030 0.48660
 O994 O 0.50842 0.00806 0.46279
 Zr995 Zr 0.48671 0.02984 0.53050
 O996 O 0.46308 0.00818 0.50817
 Zr997 Zr 0.53034 -0.01368 0.53006
 O998 O 0.50829 -0.03757 0.50826
 Zr999 Zr 0.47084 0.01420 0.47051
 O1000 O 0.49234 0.03855 0.49277
 Zr1001 Zr 0.51426 -0.02970 0.47056
 O1002 O 0.53827 -0.00756 0.49238
 Zr1003 Zr 0.47058 -0.02963 0.51399
 O1004 O 0.49263 -0.00801 0.53841
 O1005 O 0.52410 0.02388 0.52414
 O1006 O 0.47666 -0.02363 0.47639
 C1007 C 0.57662 0.01944 0.51859
 C1008 C 0.51888 0.07659 0.51942
 C1009 C 0.51955 0.01851 0.57676
 C1010 C 0.42515 -0.01932 0.47926
 C1011 C 0.48000 -0.02012 0.42504
 C1012 C 0.48021 -0.07538 0.48012
 H1013 H 0.51228 0.01220 0.44534
 H1014 H 0.51229 -0.05502 0.51234
 H1015 H 0.53472 0.03446 0.53477
 H1016 H 0.44567 0.01247 0.51192
 H1017 H 0.44902 0.05633 0.47739
 H1018 H 0.45937 0.06656 0.51625
 H1019 H 0.54083 -0.06724 0.48501
 H1020 H 0.56539 -0.04104 0.51263
 H1021 H 0.46185 0.04204 0.43208
 H1022 H 0.53898 0.06920 0.45889
 H1023 H 0.48511 -0.06651 0.54136
 H1024 H 0.51343 -0.04184 0.56474
 H1025 H 0.56499 0.01190 0.45954
 H1026 H 0.54114 -0.01493 0.43349
 H1027 H 0.45962 0.01192 0.56556
 H1028 H 0.43305 -0.01494 0.54026
 O1029 O 0.56558 0.53166 0.00149
 O1030 O 0.55754 0.52817 -0.04103
 O1031 O 0.50089 0.56579 0.03140
 O1032 O 0.45988 0.55858 0.03175
 O1033 O 0.53127 0.50063 0.06614
 O1034 O 0.52933 0.45728 0.05692
 O1035 O 0.43479 0.49829 -0.03288
 O1036 O 0.44179 0.54061 -0.02791
 O1037 O 0.49762 0.46746 -0.06498
 O1038 O 0.54233 0.46913 -0.05623
 O1039 O 0.46735 0.43457 -0.00218
 O1040 O 0.46881 0.44319 0.04245
 O1041 O 0.43464 0.46829 -0.00301
 O1042 O 0.44356 0.47070 0.04292
 O1043 O 0.49731 0.43435 -0.03183
 O1044 O 0.54295 0.44359 -0.02886
 O1045 O 0.46741 0.49697 -0.06491
 O1046 O 0.47571 0.54194 -0.05683
 O1047 O 0.56570 0.50126 0.03103
 O1048 O 0.55637 0.45710 0.02888
 O1049 O 0.50151 0.53063 0.06623
 O1050 O 0.45678 0.52679 0.05606
 O1051 O 0.53123 0.56564 0.00204
 O1052 O 0.52545 0.55592 -0.04266
 Zr1053 Zr 0.52962 0.52974 -0.01350
 O1054 O 0.50799 0.50752 -0.03733
 Zr1055 Zr 0.48618 0.52954 0.03026
 O1056 O 0.46243 0.50797 0.00787
 Zr1057 Zr 0.52972 0.48585 0.03002
 O1058 O 0.50760 0.46201 0.00824
 Zr1059 Zr 0.47038 0.51377 -0.02979
 O1060 O 0.49191 0.53799 -0.00748
 Zr1061 Zr 0.51368 0.46976 -0.02945
 O1062 O 0.53775 0.49187 -0.00765
 Zr1063 Zr 0.46991 0.47014 0.01387
 O1064 O 0.49204 0.49170 0.03829
 O1065 O 0.52358 0.52342 0.02405
 O1066 O 0.47608 0.47595 -0.02374
 C1067 C 0.57606 0.51889 0.01869
 C1068 C 0.51850 0.57617 0.01916
 C1069 C 0.51879 0.51798 0.07665
 C1070 C 0.42451 0.48046 -0.02085
 C1071 C 0.47966 0.47932 -0.07513
 C1072 C 0.47942 0.42424 -0.01987
 H1073 H 0.51194 0.51160 -0.05477
 H1074 H 0.51150 0.44456 0.01237
 H1075 H 0.53416 0.53401 0.03471
 H1076 H 0.44499 0.51220 0.01153
 H1077 H 0.44968 0.55635 -0.02256
 H1078 H 0.44687 0.55459 0.01946
 H1079 H 0.54004 0.43214 -0.01481
 H1080 H 0.56482 0.45849 0.01266
 H1081 H 0.46157 0.54124 -0.06859
 H1082 H 0.53873 0.56860 -0.04119
 H1083 H 0.48419 0.43326 0.04137
 H1084 H 0.51268 0.45764 0.06460
 H1085 H 0.56465 0.51124 -0.04039
 H1086 H 0.54089 0.48439 -0.06634
 H1087 H 0.45956 0.51140 0.06573
 H1088 H 0.43214 0.48475 0.03987
 O1089 O 0.74869 0.18340 0.53316
 O1090 O 0.79115 0.19133 0.52979
 O1091 O 0.71904 0.24858 0.56716
 O1092 O 0.71887 0.28964 0.55991
 O1093 O 0.68413 0.21806 0.50216
 O1094 O 0.69330 0.21975 0.45888
 O1095 O 0.78326 0.31440 0.49963
 O1096 O 0.77847 0.30747 0.54195
 O1097 O 0.81513 0.25124 0.46890
 O1098 O 0.80634 0.20641 0.47074
 O1099 O 0.75243 0.28169 0.43619
 O1100 O 0.70780 0.28023 0.44477
 O1101 O 0.75332 0.31451 0.46972
 O1102 O 0.70748 0.30573 0.47214
 O1103 O 0.78196 0.25153 0.43597
 O1104 O 0.77886 0.20573 0.44529
 O1105 O 0.81518 0.28168 0.49825
 O1106 O 0.80735 0.27342 0.54319
 O1107 O 0.71912 0.18331 0.50282
 O1108 O 0.72116 0.19252 0.45880
 O1109 O 0.68421 0.24801 0.53204
 O1110 O 0.69454 0.29279 0.52818
 O1111 O 0.74825 0.21803 0.56709
 O1112 O 0.79295 0.22361 0.55736
 Zr1113 Zr 0.76375 0.21944 0.53125
 O1114 O 0.78759 0.24098 0.50901
 Zr1115 Zr 0.72020 0.26318 0.53096
 O1116 O 0.74257 0.28684 0.50938
 Zr1117 Zr 0.72020 0.21936 0.48743
 O1118 O 0.74197 0.24138 0.46358
 Zr1119 Zr 0.78019 0.27875 0.51516
 O1120 O 0.75790 0.25732 0.53939
 Zr1121 Zr 0.77963 0.23518 0.47133
 O1122 O 0.75782 0.21120 0.49345
 Zr1123 Zr 0.73642 0.27921 0.47165
 O1124 O 0.71204 0.25718 0.49321
 O1125 O 0.72625 0.22562 0.52492
 O1126 O 0.77400 0.27293 0.47745
 C1127 C 0.73147 0.17291 0.52039
 C1128 C 0.73121 0.23092 0.57757
 C1129 C 0.67371 0.23071 0.51942
 C1130 C 0.77119 0.32466 0.48182
 C1131 C 0.82531 0.26934 0.48061
 C1132 C 0.77006 0.26953 0.42590
 H1133 H 0.80501 0.23699 0.51308
 H1134 H 0.73780 0.23742 0.44617
 H1135 H 0.71559 0.21507 0.53550
 H1136 H 0.73897 0.30435 0.51357
 H1137 H 0.77320 0.29958 0.55769
 H1138 H 0.73122 0.30261 0.55592
 H1139 H 0.76490 0.20873 0.43376
 H1140 H 0.73738 0.18406 0.46012
 H1141 H 0.81911 0.28757 0.54244
 H1142 H 0.79142 0.21039 0.57010
 H1143 H 0.70897 0.26489 0.43474
 H1144 H 0.68569 0.23648 0.45919
 H1145 H 0.79060 0.18426 0.51285
 H1146 H 0.81651 0.20792 0.48595
 H1147 H 0.68481 0.28999 0.51284
 H1148 H 0.71056 0.31720 0.48616
 O1149 O 0.78293 0.81581 -0.00175
 O1150 O 0.77934 0.80780 0.04079
 O1151 O 0.81571 0.75116 -0.03241
 O1152 O 0.80557 0.70687 -0.03120
 O1153 O 0.75135 0.78194 -0.06636
 O1154 O 0.70807 0.78052 -0.05720
 O1155 O 0.74794 0.68513 0.03225
 O1156 O 0.78952 0.69090 0.02713
 O1157 O 0.71808 0.74830 0.06459
 O1158 O 0.72011 0.79300 0.05614
 O1159 O 0.68476 0.71845 0.00157
 O1160 O 0.69333 0.72007 -0.04308
 O1161 O 0.71810 0.68524 0.00224
 O1162 O 0.72034 0.69423 -0.04351
 O1163 O 0.68493 0.74842 0.03136
 O1164 O 0.69483 0.79421 0.02857
 O1165 O 0.74733 0.71784 0.06443
 O1166 O 0.79239 0.72547 0.05592
 O1167 O 0.75251 0.81636 -0.03124
 O1168 O 0.70830 0.80759 -0.02898
 O1169 O 0.78084 0.75165 -0.06666
 O1170 O 0.77790 0.70770 -0.05759
 O1171 O 0.81627 0.78100 -0.00241
 O1172 O 0.80655 0.77525 0.04240
 Zr1173 Zr 0.78049 0.77978 0.01321
 O1174 O 0.75808 0.75832 0.03693
 Zr1175 Zr 0.77962 0.73630 -0.03073
 O1176 O 0.75782 0.71282 -0.00850
 Zr1177 Zr 0.73659 0.78048 -0.03027
 O1178 O 0.71257 0.75855 -0.00860
 Zr1179 Zr 0.76386 0.72056 0.02920
 O1180 O 0.78837 0.74189 0.00702
 Zr1181 Zr 0.72046 0.76446 0.02912
 O1182 O 0.74279 0.78838 0.00743
 Zr1183 Zr 0.72020 0.72067 -0.01442
 O1184 O 0.74193 0.74261 -0.03872
 O1185 O 0.77396 0.77383 -0.02431
 O1186 O 0.72619 0.72669 0.02323
 C1187 C 0.77034 0.82648 -0.01897
 C1188 C 0.82640 0.76846 -0.01994
 C1189 C 0.76849 0.76927 -0.07694
 C1190 C 0.73014 0.67497 0.02010
 C1191 C 0.72983 0.73022 0.07471
 C1192 C 0.67462 0.73063 0.01929
 H1193 H 0.76226 0.76217 0.05439
 H1194 H 0.69522 0.76270 -0.01272
 H1195 H 0.78456 0.78435 -0.03497
 H1196 H 0.76196 0.69532 -0.01227
 H1197 H 0.80559 0.69822 0.02219
 H1198 H 0.81629 0.70896 -0.01645
 H1199 H 0.68321 0.79137 0.01464
 H1200 H 0.70991 0.81607 -0.01276
 H1201 H 0.79155 0.71133 0.06769
 H1202 H 0.81943 0.78834 0.04089
 H1203 H 0.68355 0.73555 -0.04184
 H1204 H 0.70824 0.76386 -0.06499
 H1205 H 0.76255 0.81515 0.04016
 H1206 H 0.73555 0.79163 0.06595
 H1207 H 0.76159 0.70922 -0.06588
 H1208 H 0.73454 0.68295 -0.04079
 O1209 O 1.00111 0.18353 0.21808
 O1210 O 0.95872 0.19171 0.22150
 O1211 O 1.03178 0.24798 0.18438
 O1212 O 1.03046 0.29244 0.19422
 O1213 O 1.06602 0.21778 0.24884
 O1214 O 1.05711 0.21952 0.29221
 O1215 O 0.96752 0.31446 0.25219
 O1216 O 0.97255 0.30848 0.21048
 O1217 O 0.93542 0.25155 0.28263
 O1218 O 0.94383 0.20666 0.28064
 O1219 O 0.99834 0.28156 0.31541
 O1220 O 1.04315 0.27971 0.30654
 O1221 O 0.99762 0.31451 0.28194
 O1222 O 1.04321 0.30573 0.27959
 O1223 O 0.96859 0.25155 0.31554
 O1224 O 0.97136 0.20574 0.30601
 O1225 O 0.93545 0.28185 0.25314
 O1226 O 0.94364 0.27393 0.20803
 O1227 O 1.03074 0.18323 0.24837
 O1228 O 1.02905 0.19240 0.29240
 O1229 O 1.06617 0.24794 0.21916
 O1230 O 1.05712 0.29176 0.22163
 O1231 O 1.00185 0.21807 0.18421
 O1232 O 0.95715 0.22405 0.19404
 Zr1233 Zr 0.98637 0.21964 0.22007
 O1234 O 0.96278 0.24124 0.24245
 Zr1235 Zr 1.03026 0.26315 0.22039
 O1236 O 1.00820 0.28676 0.24221
 Zr1237 Zr 1.03004 0.21928 0.26383
 O1238 O 1.00848 0.24129 0.28783
 Zr1239 Zr 0.97052 0.27897 0.23638
 O1240 O 0.99251 0.25748 0.21187
 Zr1241 Zr 0.97077 0.23530 0.28010
 O1242 O 0.99235 0.21130 0.25784
 Zr1243 Zr 1.01428 0.27912 0.27991
 O1244 O 1.03843 0.25712 0.25814
 O1245 O 1.02390 0.22563 0.22639
 O1246 O 0.97666 0.27302 0.27409
 C1247 C 1.01826 0.17292 0.23079
 C1248 C 1.01929 0.23057 0.17388
 C1249 C 1.07651 0.23042 0.23159
 C1250 C 0.97969 0.32468 0.26996
 C1251 C 0.92530 0.26962 0.27085
 C1252 C 0.98063 0.26945 0.32567
 H1253 H 0.94532 0.23737 0.23838
 H1254 H 1.01265 0.23724 0.30522
 H1255 H 1.03448 0.21500 0.21584
 H1256 H 1.01195 0.30423 0.23795
 H1257 H 0.97732 0.30106 0.19441
 H1258 H 1.01579 0.29010 0.18344
 H1259 H 0.98531 0.20867 0.31758
 H1260 H 1.01273 0.18406 0.29117
 H1261 H 0.93194 0.28811 0.20883
 H1262 H 0.95857 0.21088 0.18123
 H1263 H 1.04160 0.26455 0.31679
 H1264 H 1.06483 0.23622 0.29188
 H1265 H 0.95925 0.18459 0.23842
 H1266 H 0.93361 0.20830 0.26548
 H1267 H 1.06530 0.29058 0.23804
 H1268 H 1.04055 0.31678 0.26518
 O1269 O 0.68429 1.03140 0.74837
 O1270 O 0.69226 1.02795 0.79089
 O1271 O 0.74908 1.06589 0.71868
 O1272 O 0.79005 1.05884 0.71834
 O1273 O 0.71879 1.00066 0.68378
 O1274 O 0.72083 0.95726 0.69295
 O1275 O 0.81509 0.99848 0.78300
 O1276 O 0.80805 1.04090 0.77796
 O1277 O 0.75254 0.96731 0.81485
 O1278 O 0.70775 0.96893 0.80620
 O1279 O 0.78270 0.93475 0.75193
 O1280 O 0.78131 0.94351 0.70738
 O1281 O 0.81529 0.96848 0.75312
 O1282 O 0.80657 0.97116 0.70709
 O1283 O 0.75274 0.93434 0.78159
 O1284 O 0.70706 0.94347 0.77871
 O1285 O 0.78261 0.99703 0.81488
 O1286 O 0.77411 1.04199 0.80694
 O1287 O 0.68430 1.00103 0.71879
 O1288 O 0.69370 0.95697 0.72091
 O1289 O 0.74851 1.03078 0.68379
 O1290 O 0.79325 1.02706 0.69403
 O1291 O 0.71866 1.06559 0.74795
 O1292 O 0.72430 1.05579 0.79269
 Zr1293 Zr 0.72025 1.02965 0.76345
 O1294 O 0.74191 1.00750 0.78729
 Zr1295 Zr 0.76379 1.02969 0.71977
 O1296 O 0.78755 1.00820 0.74216
 Zr1297 Zr 0.72031 0.98582 0.71987
 O1298 O 0.74245 0.96205 0.74165
 Zr1299 Zr 0.77952 1.01391 0.77982
 O1300 O 0.75797 1.03806 0.75752
 Zr1301 Zr 0.73633 0.96972 0.77936
 O1302 O 0.71224 0.99174 0.75755
 Zr1303 Zr 0.78013 0.97036 0.73605
 O1304 O 0.75799 0.99185 0.71165
 O1305 O 0.72638 1.02341 0.72591
 O1306 O 0.77390 0.97610 0.77367
 C1307 C 0.67387 1.01859 0.73113
 C1308 C 0.73144 1.07620 0.73089
 C1309 C 0.73125 1.01808 0.67333
 C1310 C 0.82535 0.98061 0.77104
 C1311 C 0.77052 0.97920 0.82502
 C1312 C 0.77063 0.92433 0.76958
 H1313 H 0.73796 1.01153 0.80474
 H1314 H 0.73858 0.94459 0.73747
 H1315 H 0.71580 1.03398 0.71526
 H1316 H 0.80500 1.01250 0.73855
 H1317 H 0.80010 1.05663 0.77271
 H1318 H 0.80303 1.05491 0.73067
 H1319 H 0.70998 0.93206 0.76463
 H1320 H 0.68525 0.95827 0.73714
 H1321 H 0.78827 1.04136 0.81867
 H1322 H 0.71103 1.06845 0.79117
 H1323 H 0.76593 0.93355 0.70837
 H1324 H 0.73744 0.95781 0.68519
 H1325 H 0.68532 1.01092 0.79035
 H1326 H 0.70922 0.98415 0.81638
 H1327 H 0.79048 1.01169 0.68431
 H1328 H 0.81808 0.98511 0.71034
 O1329 O 0.74842 0.56577 0.21836
 O1330 O 0.79084 0.55765 0.22199
 O1331 O 0.71777 0.50141 0.18454
 O1332 O 0.71898 0.45695 0.19432
 O1333 O 0.68359 0.53148 0.24910
 O1334 O 0.69269 0.52978 0.29247
 O1335 O 0.78217 0.43487 0.25242
 O1336 O 0.77692 0.44077 0.21072
 O1337 O 0.81433 0.49767 0.28285
 O1338 O 0.80589 0.54255 0.28105
 O1339 O 0.75133 0.46767 0.31560
 O1340 O 0.70654 0.46952 0.30658
 O1341 O 0.75212 0.43478 0.28210
 O1342 O 0.70648 0.44351 0.27961
 O1343 O 0.78117 0.49760 0.31580
 O1344 O 0.77847 0.54341 0.30640
 O1345 O 0.81423 0.46750 0.25323
 O1346 O 0.80576 0.47539 0.20816
 O1347 O 0.71885 0.56605 0.24859
 O1348 O 0.72075 0.55690 0.29264
 O1349 O 0.68336 0.50141 0.21933
 O1350 O 0.69242 0.45760 0.22166
 O1351 O 0.74777 0.53125 0.18449
 O1352 O 0.79243 0.52536 0.19444
 Zr1353 Zr 0.76322 0.52969 0.22039
 O1354 O 0.78684 0.50803 0.24274
 Zr1355 Zr 0.71929 0.48620 0.22054
 O1356 O 0.74138 0.46255 0.24235
 Zr1357 Zr 0.71964 0.53001 0.26406
 O1358 O 0.74125 0.50795 0.28805
 Zr1359 Zr 0.77906 0.47033 0.23658
 O1360 O 0.75702 0.49186 0.21210
 Zr1361 Zr 0.77895 0.51392 0.28040
 O1362 O 0.75732 0.53798 0.25817
 Zr1363 Zr 0.73540 0.47014 0.28005
 O1364 O 0.71121 0.49219 0.25829
 O1365 O 0.72568 0.52370 0.22661
 O1366 O 0.77302 0.47622 0.27430
 C1367 C 0.73126 0.57635 0.23102
 C1368 C 0.73032 0.51877 0.17409
 C1369 C 0.67304 0.51885 0.23184
 C1370 C 0.77006 0.42465 0.27018
 C1371 C 0.82445 0.47970 0.27096
 C1372 C 0.76908 0.47974 0.32591
 H1373 H 0.80429 0.51191 0.23869
 H1374 H 0.73711 0.51198 0.30544
 H1375 H 0.71507 0.53432 0.21605
 H1376 H 0.73762 0.44507 0.23806
 H1377 H 0.77205 0.44817 0.19464
 H1378 H 0.73363 0.45926 0.18357
 H1379 H 0.76447 0.54053 0.31787
 H1380 H 0.73707 0.56523 0.29142
 H1381 H 0.81747 0.46122 0.20892
 H1382 H 0.79101 0.53859 0.18169
 H1383 H 0.70812 0.48466 0.31688
 H1384 H 0.68493 0.51310 0.29211
 H1385 H 0.79024 0.56481 0.23890
 H1386 H 0.81600 0.54101 0.26585
 H1387 H 0.68434 0.45869 0.23810
 H1388 H 0.70918 0.43242 0.26523
 O1389 O 0.50163 0.18319 0.71814
 O1390 O 0.45929 0.19113 0.72149
 O1391 O 0.53163 0.24853 0.68446
 O1392 O 0.53280 0.28939 0.69202
 O1393 O 0.56622 0.21724 0.74952
 O1394 O 0.55699 0.21911 0.79276
 O1395 O 0.46764 0.31420 0.75157
 O1396 O 0.47263 0.30725 0.70940
 O1397 O 0.43532 0.25122 0.78230
 O1398 O 0.44385 0.20643 0.78068
 O1399 O 0.49826 0.28147 0.81534
 O1400 O 0.54240 0.28029 0.80722
 O1401 O 0.49741 0.31429 0.78165
 O1402 O 0.54359 0.30505 0.77914
 O1403 O 0.46847 0.25150 0.81545
 O1404 O 0.47128 0.20564 0.80614
 O1405 O 0.43555 0.28156 0.75287
 O1406 O 0.44366 0.27321 0.70797
 O1407 O 0.53098 0.18285 0.74869
 O1408 O 0.52873 0.19213 0.79284
 O1409 O 0.56650 0.24719 0.71966
 O1410 O 0.55650 0.29227 0.72392
 O1411 O 0.50229 0.21803 0.68435
 O1412 O 0.45759 0.22349 0.69407
 Zr1413 Zr 0.48676 0.21924 0.72019
 O1414 O 0.46298 0.24083 0.74236
 Zr1415 Zr 0.53069 0.26277 0.72077
 O1416 O 0.50828 0.28653 0.74214
 Zr1417 Zr 0.53013 0.21890 0.76418
 O1418 O 0.50845 0.24110 0.78792
 Zr1419 Zr 0.47064 0.27855 0.73618
 O1420 O 0.49297 0.25708 0.71210
 Zr1421 Zr 0.47077 0.23507 0.78008
 O1422 O 0.49246 0.21097 0.75801
 Zr1423 Zr 0.51422 0.27893 0.77989
 O1424 O 0.53861 0.25670 0.75853
 O1425 O 0.52429 0.22524 0.72667
 O1426 O 0.47662 0.27279 0.77395
 C1427 C 0.51870 0.17257 0.73096
 C1428 C 0.51934 0.23100 0.67395
 C1429 C 0.57680 0.22975 0.73224
 C1430 C 0.47965 0.32446 0.76941
 C1431 C 0.42526 0.26928 0.77046
 C1432 C 0.48051 0.26940 0.82559
 H1433 H 0.44555 0.23689 0.73823
 H1434 H 0.51255 0.23716 0.80535
 H1435 H 0.53486 0.21467 0.71604
 H1436 H 0.51201 0.30403 0.73794
 H1437 H 0.47797 0.29935 0.69370
 H1438 H 0.51995 0.30198 0.69546
 H1439 H 0.48522 0.20861 0.81771
 H1440 H 0.51252 0.18362 0.79129
 H1441 H 0.43193 0.28736 0.70864
 H1442 H 0.45912 0.21033 0.68127
 H1443 H 0.54198 0.26436 0.81637
 H1444 H 0.56483 0.23575 0.79240
 H1445 H 0.45968 0.18412 0.73846
 H1446 H 0.43390 0.20778 0.76532
 H1447 H 0.56648 0.28906 0.73900
 H1448 H 0.54020 0.31701 0.76562
 O1449 O 0.25158 0.78360 0.43369
 O1450 O 0.20909 0.78007 0.44161
 O1451 O 0.28164 0.81736 0.49871
 O1452 O 0.28213 0.81000 0.53969
 O1453 O 0.31608 0.75239 0.46784
 O1454 O 0.30687 0.70901 0.46965
 O1455 O 0.21738 0.74973 0.56435
 O1456 O 0.22235 0.79210 0.55752
 O1457 O 0.18521 0.71898 0.50133
 O1458 O 0.19376 0.72083 0.45663
 O1459 O 0.24799 0.68616 0.53160
 O1460 O 0.29241 0.69461 0.53031
 O1461 O 0.24719 0.71973 0.56441
 O1462 O 0.29321 0.72234 0.55548
 O1463 O 0.21829 0.68600 0.50157
 O1464 O 0.22123 0.69541 0.45582
 O1465 O 0.18537 0.74837 0.53173
 O1466 O 0.19338 0.79344 0.52354
 O1467 O 0.28101 0.75315 0.43345
 O1468 O 0.27870 0.70890 0.44256
 O1469 O 0.31630 0.78227 0.49780
 O1470 O 0.30624 0.77812 0.54267
 O1471 O 0.25227 0.81737 0.46826
 O1472 O 0.20754 0.80766 0.47391
 Zr1473 Zr 0.23661 0.78149 0.46963
 O1474 O 0.21281 0.75918 0.49112
 Zr1475 Zr 0.28044 0.78107 0.51320
 O1476 O 0.25806 0.75949 0.53683
 Zr1477 Zr 0.28001 0.73756 0.46936
 O1478 O 0.25830 0.71367 0.49139
 Zr1479 Zr 0.22042 0.76531 0.52881
 O1480 O 0.24273 0.78959 0.50744
 Zr1481 Zr 0.22064 0.72144 0.48527
 O1482 O 0.24237 0.74364 0.46131
 Zr1483 Zr 0.26403 0.72170 0.52917
 O1484 O 0.28842 0.74327 0.50712
 O1485 O 0.27411 0.77510 0.47573
 O1486 O 0.22645 0.72753 0.52294
 C1487 C 0.26876 0.77089 0.42318
 C1488 C 0.26946 0.82780 0.48108
 C1489 C 0.32661 0.76975 0.48037
 C1490 C 0.22938 0.73185 0.57456
 C1491 C 0.17514 0.73070 0.51941
 C1492 C 0.23025 0.67588 0.51949
 H1493 H 0.19538 0.76326 0.48717
 H1494 H 0.26240 0.69623 0.48742
 H1495 H 0.28474 0.78573 0.46521
 H1496 H 0.26174 0.76367 0.55431
 H1497 H 0.22770 0.80786 0.54968
 H1498 H 0.26970 0.80610 0.55256
 H1499 H 0.23514 0.68383 0.45881
 H1500 H 0.26253 0.71042 0.43401
 H1501 H 0.18164 0.79266 0.53765
 H1502 H 0.20905 0.82043 0.46071
 H1503 H 0.29156 0.68500 0.51469
 H1504 H 0.31464 0.70937 0.48629
 H1505 H 0.20965 0.76315 0.43443
 H1506 H 0.18377 0.73616 0.45804
 H1507 H 0.31606 0.76289 0.53965
 H1508 H 0.29000 0.73612 0.56719
 O1509 O 0.25147 0.28206 0.93409
 O1510 O 0.20898 0.27863 0.94200
 O1511 O 0.28192 0.31585 0.99858
 O1512 O 0.28053 0.30602 1.04290
 O1513 O 0.31597 0.25118 0.96851
 O1514 O 0.30685 0.20768 0.97040
 O1515 O 0.21722 0.24823 1.06474
 O1516 O 0.22234 0.28993 1.05863
 O1517 O 0.18506 0.21759 1.00180
 O1518 O 0.19362 0.21944 0.95708
 O1519 O 0.24785 0.18466 1.03199
 O1520 O 0.29259 0.19346 1.03042
 O1521 O 0.24718 0.21837 1.06493
 O1522 O 0.29277 0.22054 1.05626
 O1523 O 0.21820 0.18450 1.00191
 O1524 O 0.22106 0.19405 0.95621
 O1525 O 0.18514 0.24717 1.03200
 O1526 O 0.19358 0.29232 1.02403
 O1527 O 0.28092 0.25162 0.93397
 O1528 O 0.27888 0.20752 0.94314
 O1529 O 0.31616 0.28102 0.99853
 O1530 O 0.30700 0.27844 1.04232
 O1531 O 0.25212 0.31602 0.96858
 O1532 O 0.20734 0.30622 0.97423
 Zr1533 Zr 0.23648 0.28010 0.97005
 O1534 O 0.21270 0.25777 0.99156
 Zr1535 Zr 0.28022 0.27977 1.01368
 O1536 O 0.25796 0.25801 1.03716
 Zr1537 Zr 0.27994 0.23619 0.96995
 O1538 O 0.25816 0.21224 0.99186
 Zr1539 Zr 0.22032 0.26389 1.02924
 O1540 O 0.24253 0.28835 1.00785
 Zr1541 Zr 0.22050 0.22002 0.98573
 O1542 O 0.24230 0.24223 0.96182
 Zr1543 Zr 0.26388 0.22022 1.02963
 O1544 O 0.28824 0.24194 1.00774
 O1545 O 0.27395 0.27372 0.97622
 O1546 O 0.22629 0.22608 1.02340
 C1547 C 0.26864 0.26929 0.92362
 C1548 C 0.26954 0.32637 0.98115
 C1549 C 0.32648 0.26853 0.98107
 C1550 C 0.22934 0.23048 1.07503
 C1551 C 0.17491 0.22945 1.01976
 C1552 C 0.23019 0.17434 1.01980
 H1553 H 0.19527 0.26187 0.98762
 H1554 H 0.26228 0.19480 0.98784
 H1555 H 0.28460 0.28428 0.96565
 H1556 H 0.26168 0.26232 1.05461
 H1557 H 0.22721 0.30601 1.05120
 H1558 H 0.26585 0.31676 1.04061
 H1559 H 0.23500 0.18250 0.95915
 H1560 H 0.26263 0.20881 0.93470
 H1561 H 0.18183 0.29158 1.03813
 H1562 H 0.20890 0.31902 0.96107
 H1563 H 0.29120 0.18333 1.01517
 H1564 H 0.31464 0.20817 0.98703
 H1565 H 0.20952 0.26168 0.93490
 H1566 H 0.18360 0.23475 0.95853
 H1567 H 0.31523 0.26206 1.04103
 H1568 H 0.29022 0.23508 1.06719
 C1569 C 0.28337 0.37874 0.78204
 C1570 C 0.27654 0.39893 0.77518
 C1571 C 0.28586 -0.11885 0.28376
 C1572 C 0.27881 -0.09882 0.27664
 C1573 C 0.78519 0.87979 0.78395
 C1574 C 0.77824 0.89992 0.77701
 C1575 C 0.46492 0.86983 0.28354
 C1576 C 0.47194 0.84983 0.27640
 C1577 C -0.03509 0.87015 0.78536
 C1578 C -0.02792 0.85024 0.77802
 C1579 C -0.03428 -0.11995 -0.03422
 C1580 C -0.02745 -0.09986 -0.02706
 C1581 C -0.03402 0.37847 0.46670
 C1582 C -0.02711 0.39861 0.47369
 C1583 C 0.46578 -0.11989 0.46544
 C1584 C 0.47269 -0.09979 0.47252
 C1585 C 0.46499 0.37968 -0.03443
 C1586 C 0.47186 0.39982 -0.02740
 C1587 C 0.78541 0.36921 0.46716
 C1588 C 0.77869 0.34907 0.47428
 C1589 C 0.78515 0.87095 -0.03336
 C1590 C 0.77791 0.85097 -0.02626
 C1591 C 0.78477 0.28429 0.38165
 C1592 C 0.77767 0.27720 0.40162
 C1593 C 0.78247 0.78337 -0.12161
 C1594 C 0.77555 0.77645 -0.10153
 C1595 C 0.28302 0.46723 0.87091
 C1596 C 0.27608 0.47392 0.85073
 C1597 C 0.28505 -0.03307 0.36902
 C1598 C 0.27789 -0.02630 0.34893
 C1599 C -0.03421 -0.03557 -0.11941
 C1600 C -0.02700 -0.02836 -0.09948
 C1601 C -0.03349 0.46623 0.37850
 C1602 C -0.02648 0.47328 0.39855
 C1603 C 0.46519 -0.03471 0.38072
 C1604 C 0.47231 -0.02774 0.40075
 C1605 C 0.46540 0.46493 -0.11968
 C1606 C 0.47223 0.47179 -0.09952
 C1607 C 0.46643 0.78512 0.36936
 C1608 C 0.47330 0.77814 0.34927
 C1609 C -0.03473 0.78535 0.86945
 C1610 C -0.02770 0.77848 0.84937
 C1611 C 0.38107 0.78546 0.28451
 C1612 C 0.40106 0.77829 0.27763
 C1613 C -0.11947 0.78432 0.78447
 C1614 C -0.09936 0.77734 0.77776
 C1615 C 0.86959 0.28391 0.46582
 C1616 C 0.84958 0.27691 0.47286
 C1617 C 0.87101 0.78233 -0.03426
 C1618 C 0.85095 0.77546 -0.02727
 C1619 C -0.11875 -0.03567 -0.03547
 C1620 C -0.09877 -0.02848 -0.02839
 C1621 C -0.12163 0.46704 0.46630
 C1622 C -0.10152 0.47407 0.47307
 C1623 C 0.38070 -0.03363 0.46452
 C1624 C 0.40079 -0.02679 0.47159
 C1625 C 0.37992 0.46609 -0.03514
 C1626 C 0.40009 0.47302 -0.02836
 C1627 C 0.37106 0.46727 0.78236
 C1628 C 0.35098 0.47428 0.77551
 C1629 C 0.36908 -0.03365 0.28426
 C1630 C 0.34912 -0.02658 0.27715
 C1631 C 0.13023 0.53473 0.71588
 C1632 C 0.15032 0.52784 0.72283
 C1633 C 0.12781 0.03182 0.21740
 C1634 C 0.14815 0.02535 0.22403
 C1635 C 0.62138 0.71723 0.21731
 C1636 C 0.60121 0.72390 0.22416
 C1637 C 0.12100 0.71722 0.71717
 C1638 C 0.10098 0.72413 0.72425
 C1639 C 0.62850 0.21769 0.53260
 C1640 C 0.64889 0.22405 0.52612
 C1641 C 0.62996 0.71647 0.03337
 C1642 C 0.65015 0.72328 0.02664
 C1643 C 0.12152 0.03314 0.03296
 C1644 C 0.10134 0.02634 0.02609
 C1645 C 0.11871 0.53564 0.53349
 C1646 C 0.09874 0.52858 0.52635
 C1647 C 0.62171 0.03288 0.53206
 C1648 C 0.60137 0.02632 0.52546
 C1649 C 0.62090 0.53265 0.03254
 C1650 C 0.60071 0.52589 0.02575
 C1651 C 0.03277 0.03240 0.12170
 C1652 C 0.02620 0.02578 0.10135
 C1653 C 0.03420 0.53406 0.61928
 C1654 C 0.02724 0.52711 0.59918
 C1655 C 0.53338 0.03205 0.62178
 C1656 C 0.52664 0.02540 0.60149
 C1657 C 0.53221 0.53141 0.12178
 C1658 C 0.52568 0.52478 0.10143
 C1659 C 0.21423 0.53519 0.63050
 C1660 C 0.22130 0.52804 0.65047
 C1661 C 0.21557 0.03272 0.12802
 C1662 C 0.22241 0.02588 0.14820
 C1663 C 0.71763 0.21730 0.62256
 C1664 C 0.72423 0.22403 0.60229
 C1665 C 0.71562 0.71608 0.11935
 C1666 C 0.72238 0.72284 0.09915
 C1667 C 0.53284 0.71804 0.12832
 C1668 C 0.52612 0.72474 0.14855
 C1669 C 0.03374 0.71810 0.62891
 C1670 C 0.02683 0.72520 0.64894
 C1671 C 0.53181 0.62837 0.21730
 C1672 C 0.52524 0.64877 0.22375
 C1673 C 0.03261 0.62951 0.71647
 C1674 C 0.02571 0.64965 0.72337
 C1675 C 0.03300 0.12127 0.03357
 C1676 C 0.02599 0.10110 0.02676
 C1677 C 0.03438 0.61954 0.53473
 C1678 C 0.02728 0.59946 0.52774
 C1679 C 0.53208 0.12185 0.53272
 C1680 C 0.52559 0.10142 0.52625
 C1681 C 0.53243 0.62119 0.03275
 C1682 C 0.52555 0.60091 0.02615
 C1683 C 0.71772 0.12777 0.53367
 C1684 C 0.72446 0.14813 0.52722
 C1685 C 0.71583 0.63028 0.03423
 C1686 C 0.72265 0.65050 0.02747
 C1687 C 0.21618 0.61995 0.71451
 C1688 C 0.22321 0.59984 0.72139
 C1689 C 0.21672 0.12162 0.21587
 C1690 C 0.22353 0.10138 0.22257
 C1691 C 0.71772 1.12129 0.71740
 C1692 C 0.72447 1.10096 0.72395
 C1693 C 0.71762 0.62128 0.21711
 C1694 C 0.72432 0.60105 0.22393
 C1695 C 0.53229 0.12755 0.71722
 C1696 C 0.52563 0.14784 0.72394
 C1697 C 1.03161 0.12780 0.21717
 C1698 C 1.02506 0.14814 0.22383
 C1699 C 0.21545 0.63155 0.53419
 C1700 C 0.22261 0.65155 0.52713
 C1701 C 0.21590 0.12965 1.03402
 C1702 C 0.22277 0.14985 1.02721
 C1703 C 0.21498 0.71712 0.61895
 C1704 C 0.22183 0.72424 0.59890
 C1705 C 0.21529 0.21625 1.11967
 C1706 C 0.22196 0.22310 1.09947
 C1707 C 0.71662 0.53265 0.12920
 C1708 C 0.72329 0.52583 0.14943
 C1709 C 0.71782 1.03162 0.62826
 C1710 C 0.72437 1.02493 0.64857
 C1711 C 0.53262 0.21810 0.62871
 C1712 C 0.52614 0.22446 0.64912
 C1713 C 1.03326 0.21663 0.12912
 C1714 C 1.02643 0.22347 0.14927
 C1715 C 0.62177 0.21608 0.71880
 C1716 C 0.60150 0.22272 0.72542
 C1717 C 1.12129 0.21674 0.21773
 C1718 C 1.10113 0.22342 0.22458
 C1719 C 0.13087 0.71586 0.53395
 C1720 C 0.15088 0.72293 0.52697
 C1721 C 0.13042 0.21493 1.03405
 C1722 C 0.15055 0.22184 1.02720
 C1723 C 0.62798 0.53227 0.21837
 C1724 C 0.64830 0.52573 0.22500
 C1725 C 0.62887 1.03188 0.71725
 C1726 C 0.64915 1.02539 0.72404
 C1727 C 0.86887 0.46521 0.28542
 C1728 C 0.84878 0.47216 0.27854
 C1729 C 0.86951 0.96571 0.78594
 C1730 C 0.84958 0.97294 0.77885
 C1731 C 0.38074 0.28368 0.78465
 C1732 C 0.40089 0.27678 0.77792
 C1733 C 0.88118 0.28435 0.28577
 C1734 C 0.90111 0.27727 0.27864
 C1735 C 0.37133 0.78368 0.46641
 C1736 C 0.35121 0.77681 0.47325
 C1737 C 0.37114 0.28263 0.96710
 C1738 C 0.35106 0.27567 0.97396
 C1739 C 0.78356 0.46521 0.37037
 C1740 C 0.77655 0.47215 0.35029
 C1741 C 0.78546 0.96445 0.86926
 C1742 C 0.77826 0.97146 0.84927
 C1743 C 0.28305 0.78509 0.37862
 C1744 C 0.27600 0.77815 0.39865
 C1745 C 0.28271 0.28301 0.87882
 C1746 C 0.27578 0.27632 0.89899
 C1747 C 0.46613 0.28412 0.86998
 C1748 C 0.47304 0.27705 0.84993
 C1749 C 0.96612 0.28407 0.37006
 C1750 C 0.97313 0.27706 0.35002
 C1751 C 0.46526 0.36906 0.78365
 C1752 C 0.47214 0.34890 0.77679
 C1753 C 0.96524 0.36914 0.28460
 C1754 C 0.97217 0.34905 0.27758
 C1755 C 0.28374 0.87253 0.46710
 C1756 C 0.27674 0.85243 0.47403
 C1757 C 0.28373 0.37122 0.96735
 C1758 C 0.27681 0.35102 0.97412
 C1759 C 0.78482 0.38040 0.28510
 C1760 C 0.77772 0.40037 0.27791
   
