data_POSCAR
  _audit_creation_date              2014-09-24
  _audit_creation_method            'ToBaCCo'
  _symmetry_space_group_name_H-M    'P1'
  _symmetry_Int_Tables_number       1
  _symmetry_cell_setting            triclinic
  loop_
  _symmetry_equiv_pos_as_xyz
 x,y,z
_cell_length_a 47.3968
_cell_length_b 36.6617
_cell_length_c 38.3419
_cell_angle_alpha 91.167500
_cell_angle_beta 90.740300
_cell_angle_gamma 85.529800
loop_
  _atom_site_label
  _atom_site_type_symbol
  _atom_site_fract_x
  _atom_site_fract_y
  _atom_site_fract_z
C1 C 1.23456 0.23213 0.21886
 C2 C 1.25397 0.25330 0.19629
 C3 C 1.27071 0.27536 0.21501
 C4 C 1.26636 0.27458 0.25488
 C5 C 1.25461 0.21197 0.24501
 C6 C 1.27109 0.23387 0.26433
 C7 C 1.21815 0.26205 0.24043
 C8 C 1.23451 0.28356 0.25995
 H9 H 1.25519 0.25082 0.16824
 H10 H 1.27929 0.29336 0.27008
 H11 H 1.25590 0.18249 0.24711
 H12 H 1.19529 0.26402 0.24251
 C13 C 0.73924 -0.27770 0.18993
 C14 C 0.75656 -0.24916 0.17345
 C15 C 0.76744 -0.22540 0.19698
 C16 C 0.75986 -0.23254 0.23539
 C17 C 0.75944 -0.29618 0.21698
 C18 C 0.76988 -0.27298 0.24127
 C19 C 0.71697 -0.25504 0.21127
 C20 C 0.72739 -0.23245 0.23590
 H21 H 0.76207 -0.24942 0.14620
 H22 H 0.76827 -0.21306 0.25466
 H23 H 0.76490 -0.32543 0.21665
 H24 H 0.69456 -0.25866 0.20850
 C25 C 0.74052 0.21991 -0.29382
 C26 C 0.75507 0.24701 -0.31245
 C27 C 0.76647 0.27460 -0.28988
 C28 C 0.76050 0.26922 -0.25250
 C29 C 0.76141 0.20529 -0.26868
 C30 C 0.77191 0.23176 -0.24497
 C31 C 0.71922 0.24124 -0.27386
 C32 C 0.72965 0.26769 -0.25016
 H33 H 0.76155 0.24296 -0.33925
 H34 H 0.76837 0.28994 -0.23432
 H35 H 0.76999 0.17698 -0.26960
 H36 H 0.69678 0.23921 -0.27873
 C37 C 1.23211 -0.27160 -0.29217
 C38 C 1.25239 -0.25138 -0.31444
 C39 C 1.26889 -0.22940 -0.29527
 C40 C 1.26348 -0.22928 -0.25566
 C41 C 1.25135 -0.29164 -0.26494
 C42 C 1.26756 -0.26965 -0.24538
 C43 C 1.21553 -0.24085 -0.27170
 C44 C 1.23168 -0.21963 -0.25168
 H45 H 1.25451 -0.25469 -0.34237
 H46 H 1.27619 -0.21026 -0.24045
 H47 H 1.25209 -0.32101 -0.26205
 H48 H 1.19274 -0.23968 -0.26884
 C49 C 0.23350 0.22335 0.79216
 C50 C 0.25063 0.25102 0.80676
 C51 C 0.26372 0.27232 0.78145
 C52 C 0.25730 0.26120 0.74534
 C53 C 0.21253 0.24404 0.76757
 C54 C 0.22469 0.26342 0.74269
 C55 C 0.25355 0.20025 0.76793
 C56 C 0.26563 0.21960 0.74290
 H57 H 0.25768 0.25109 0.83364
 H58 H 0.26679 0.27712 0.72484
 H59 H 0.18986 0.24223 0.76900
 H60 H 0.25715 0.17081 0.76991
 C61 C 0.73410 0.71927 0.80005
 C62 C 0.75216 0.74143 0.82099
 C63 C 0.76562 0.76860 0.80215
 C64 C 0.75890 0.76729 0.76443
 C65 C 0.71466 0.74521 0.78187
 C66 C 0.72784 0.77207 0.76251
 C67 C 0.75227 0.70310 0.77248
 C68 C 0.76614 0.72923 0.75255
 H69 H 0.75649 0.73595 0.84829
 H70 H 0.76874 0.78816 0.74924
 H71 H 0.69212 0.74199 0.77994
 H72 H 0.75594 0.67415 0.76748
 C73 C 0.72665 0.22693 0.29071
 C74 C 0.74456 0.25577 0.30679
 C75 C 0.75966 0.27352 0.28344
 C76 C 0.75521 0.26076 0.24521
 C77 C 0.70835 0.24700 0.26280
 C78 C 0.72306 0.26463 0.23906
 C79 C 0.74746 0.20150 0.26923
 C80 C 0.76212 0.21890 0.24497
 H81 H 0.74649 0.25994 0.33475
 H82 H 0.76689 0.27562 0.22582
 H83 H 0.68573 0.24481 0.26032
 H84 H 0.74878 0.17206 0.27074
 C85 C 0.23146 0.72001 0.30166
 C86 C 0.24959 0.74812 0.31936
 C87 C 0.26202 0.77002 0.29675
 C88 C 0.25507 0.76180 0.25794
 C89 C 0.21054 0.74305 0.27883
 C90 C 0.22259 0.76416 0.25538
 C91 C 0.25159 0.69918 0.27581
 C92 C 0.26381 0.72061 0.25246
 H93 H 0.25433 0.74911 0.34694
 H94 H 0.26448 0.78014 0.23946
 H95 H 0.18787 0.74109 0.27989
 H96 H 0.25616 0.66984 0.27687
 O97 O 1.04092 0.06383 0.06528
 O98 O 1.07274 0.02903 0.03157
 C99 C 1.06656 0.05311 0.05598
 O100 O 0.96346 -0.06089 0.05841
 O101 O 0.93190 -0.02415 0.02647
 C102 C 0.93788 -0.04966 0.04895
 O103 O 1.04226 -0.06336 0.06336
 O104 O 1.07340 -0.03216 0.03234
 C105 C 1.06767 -0.05552 0.05575
 O106 O 0.96180 0.07427 0.05865
 O107 O 0.93071 0.04067 0.02764
 C108 C 0.93644 0.06682 0.04942
 Zr109 Zr 1.00151 0.04874 0.04492
 O110 O 0.99752 0.04602 0.09977
 O111 O 1.00374 0.10602 0.04952
 Zr112 Zr 1.00273 -0.04337 0.04242
 O113 O 0.99986 -0.04591 0.09732
 O114 O 1.00496 -0.10095 0.03648
 O115 O 1.02736 0.00086 0.05126
 O116 O 0.97728 0.00458 0.04944
 O117 O 0.96162 0.07285 -0.05975
 O118 O 0.93088 0.03952 -0.03035
 C119 C 0.93630 0.06489 -0.05178
 O120 O 1.04425 -0.06243 -0.06411
 O121 O 1.07439 -0.03072 -0.02973
 C122 C 1.06931 -0.05354 -0.05476
 O123 O 0.96520 -0.05978 -0.06510
 O124 O 0.93249 -0.02384 -0.03342
 C125 C 0.93937 -0.04851 -0.05739
 O126 O 1.04076 0.06075 -0.06436
 O127 O 1.07272 0.02879 -0.02872
 C128 C 1.06634 0.05047 -0.05441
 Zr129 Zr 1.00169 0.04950 -0.04285
 O130 O 0.99825 0.05407 -0.09764
 O131 O 1.00484 0.10678 -0.03882
 Zr132 Zr 1.00381 -0.04297 -0.04515
 O133 O 1.00182 -0.04396 -0.10036
 O134 O 1.00735 -0.10089 -0.04452
 Zr135 Zr 1.04469 0.00025 0.00087
 Zr136 Zr 0.96000 0.00593 -0.00140
 O137 O 0.97830 0.00500 -0.05119
 O138 O 1.02779 0.00160 -0.05031
 O139 O 0.97622 0.05801 0.00057
 O140 O 1.02832 -0.05147 -0.00077
 O141 O 1.02616 0.05430 0.00160
 O142 O 0.97788 -0.04850 -0.00231
 H143 H 0.96422 0.00571 0.06946
 H144 H 1.04175 -0.07359 -0.00096
 H145 H 0.96599 0.00635 -0.07228
 H146 H 1.03868 0.07473 0.00194
 H147 H 1.00505 -0.11071 0.06040
 H148 H 0.99159 -0.10857 -0.03041
 H149 H 1.01711 -0.02963 -0.10882
 H150 H 1.00779 0.03148 -0.10782
 H151 H 0.98677 0.11802 -0.02946
 H152 H 0.99277 0.11700 0.02976
 H153 H 1.01555 0.03465 0.10925
 H154 H 1.01215 -0.02769 0.10734
 O155 O 1.03360 0.56378 0.56089
 O156 O 1.06466 0.52719 0.52758
 C157 C 1.05903 0.55225 0.55128
 O158 O 0.95567 0.44069 0.56312
 O159 O 0.92360 0.47557 0.53008
 C160 C 0.92998 0.45122 0.55360
 O161 O 1.03461 0.43745 0.56485
 O162 O 1.06513 0.46654 0.53094
 C163 C 1.05987 0.44450 0.55568
 O164 O 0.95399 0.57425 0.55814
 O165 O 0.92266 0.53999 0.52840
 C166 C 0.92846 0.56608 0.55016
 Zr167 Zr 0.99358 0.54924 0.54185
 O168 O 0.99152 0.55410 0.59689
 O169 O 0.99434 0.60642 0.53664
 Zr170 Zr 0.99459 0.45706 0.54473
 O171 O 0.99288 0.45845 0.59988
 O172 O 0.99633 0.39928 0.54231
 O173 O 1.01943 0.50147 0.54999
 O174 O 0.96954 0.50552 0.54993
 O175 O 0.95213 0.56805 0.43827
 O176 O 0.92152 0.53637 0.46979
 C177 C 0.92685 0.56063 0.44707
 O178 O 1.03280 0.43013 0.43780
 O179 O 1.06422 0.46288 0.46905
 C180 C 1.05827 0.43803 0.44617
 O181 O 0.95395 0.43509 0.43989
 O182 O 0.92255 0.47339 0.47102
 C183 C 0.92840 0.44717 0.44830
 O184 O 1.03107 0.55588 0.43190
 O185 O 1.06350 0.52407 0.46709
 C186 C 1.05682 0.54554 0.44127
 Zr187 Zr 0.99226 0.54435 0.45417
 O188 O 0.98830 0.54203 0.39916
 O189 O 0.99474 0.60170 0.45285
 Zr190 Zr 0.99347 0.45224 0.45709
 O191 O 0.99427 0.44679 0.40197
 O192 O 0.99590 0.39456 0.46148
 Zr193 Zr 1.03588 0.49743 0.49907
 Zr194 Zr 0.95114 0.50419 0.49977
 O195 O 0.96814 0.50007 0.44932
 O196 O 1.01794 0.49587 0.44853
 O197 O 0.96748 0.55592 0.49805
 O198 O 1.01900 0.44611 0.50098
 O199 O 1.01764 0.55155 0.49752
 O200 O 0.96867 0.44967 0.50131
 H201 H 0.95717 0.50766 0.57062
 H202 H 1.03207 0.42367 0.50165
 H203 H 0.95494 0.50065 0.42909
 H204 H 1.03022 0.57184 0.49646
 H205 H 0.99704 0.39111 0.56680
 H206 H 0.98021 0.38833 0.47651
 H207 H 0.97922 0.46385 0.39208
 H208 H 1.00071 0.52072 0.39091
 H209 H 0.98149 0.61279 0.47053
 H210 H 0.99474 0.61680 0.56069
 H211 H 1.00654 0.53684 0.60657
 H212 H 1.00710 0.47496 0.60840
 O213 O 0.54726 0.05415 0.56220
 O214 O 0.57694 0.01705 0.52750
 C215 C 0.57219 0.04232 0.55115
 O216 O 0.46616 -0.06757 0.56285
 O217 O 0.43403 -0.02933 0.53312
 C218 C 0.44038 -0.05545 0.55490
 O219 O 0.54550 -0.07062 0.56556
 O220 O 0.57621 -0.04346 0.53040
 C221 C 0.57085 -0.06411 0.55629
 O222 O 0.46818 0.06812 0.56118
 O223 O 0.43502 0.03527 0.53334
 C224 C 0.44222 0.06166 0.55399
 Zr225 Zr 0.50646 0.03991 0.54576
 O226 O 0.50495 0.03691 0.60083
 O227 O 0.50985 0.09688 0.55110
 Zr228 Zr 0.50556 -0.05168 0.54520
 O229 O 0.50421 -0.05386 0.60024
 O230 O 0.50715 -0.10933 0.54064
 O231 O 0.53155 -0.00851 0.55124
 O232 O 0.48138 -0.00283 0.55297
 O233 O 0.46317 0.06409 0.44302
 O234 O 0.43276 0.03277 0.47493
 C235 C 0.43796 0.05740 0.45259
 O236 O 0.54135 -0.07484 0.43546
 O237 O 0.57383 -0.04479 0.46747
 C238 C 0.56714 -0.06764 0.44307
 O239 O 0.46250 -0.06947 0.44213
 O240 O 0.43246 -0.03100 0.47503
 C241 C 0.43735 -0.05709 0.45194
 O242 O 0.54212 0.05323 0.43802
 O243 O 0.57452 0.01643 0.46878
 C244 C 0.56789 0.04169 0.44628
 Zr245 Zr 0.50307 0.03877 0.45749
 O246 O 0.49831 0.03577 0.40251
 O247 O 0.50586 0.09603 0.45527
 Zr248 Zr 0.50275 -0.05322 0.45765
 O249 O 0.49782 -0.05511 0.40273
 O250 O 0.50531 -0.11107 0.45936
 Zr251 Zr 0.54680 -0.01095 0.49968
 Zr252 Zr 0.46213 -0.00149 0.50325
 O253 O 0.47802 -0.00457 0.45218
 O254 O 0.52796 -0.00999 0.44955
 O255 O 0.47978 0.04955 0.50264
 O256 O 0.52915 -0.06181 0.50056
 O257 O 0.52909 0.04359 0.50061
 O258 O 0.47871 -0.05655 0.50241
 H259 H 0.46902 -0.00084 0.57368
 H260 H 0.54222 -0.08428 0.50027
 H261 H 0.46455 -0.00345 0.43218
 H262 H 0.54137 0.06424 0.50026
 H263 H 0.50776 -0.11841 0.56482
 H264 H 0.49065 -0.11789 0.47564
 H265 H 0.51112 -0.03857 0.39306
 H266 H 0.51597 0.02358 0.39290
 H267 H 0.49192 0.10777 0.47180
 H268 H 0.50289 0.10773 0.52893
 H269 H 0.52391 0.02749 0.60925
 H270 H 0.51542 -0.03412 0.60951
 O271 O 0.53619 0.55081 0.06699
 O272 O 0.56728 0.52325 0.02733
 C273 C 0.56154 0.54278 0.05519
 O274 O 0.46224 0.42503 0.04829
 O275 O 0.42841 0.46446 0.02295
 C276 C 0.43606 0.43649 0.04203
 O277 O 0.54110 0.42587 0.04869
 O278 O 0.56962 0.46291 0.02003
 C279 C 0.56573 0.43646 0.04094
 O280 O 0.45667 0.55814 0.06614
 O281 O 0.42571 0.52758 0.03204
 C282 C 0.43132 0.55028 0.05712
 Zr283 Zr 0.49640 0.53781 0.04628
 O284 O 0.49495 0.52894 0.10062
 O285 O 0.49756 0.59473 0.05594
 Zr286 Zr 0.50020 0.44642 0.03241
 O287 O 0.49998 0.43612 0.08650
 O288 O 0.50359 0.38994 0.01956
 O289 O 0.52376 0.49062 0.04518
 O290 O 0.47396 0.49182 0.04654
 O291 O 0.45182 0.57424 -0.05201
 O292 O 0.42320 0.53534 -0.02600
 C293 C 0.42713 0.56374 -0.04444
 O294 O 0.53656 0.44397 -0.07741
 O295 O 0.56775 0.47137 -0.04100
 C296 C 0.56202 0.45117 -0.06794
 O297 O 0.45779 0.44169 -0.07305
 O298 O 0.42642 0.47194 -0.03531
 C299 C 0.43232 0.45008 -0.06176
 O300 O 0.53060 0.57109 -0.05757
 O301 O 0.56472 0.53255 -0.03146
 C302 C 0.55678 0.56031 -0.05066
 Zr303 Zr 0.49286 0.55031 -0.04073
 O304 O 0.48994 0.55367 -0.09562
 O305 O 0.49249 0.60789 -0.03504
 Zr306 Zr 0.49693 0.45906 -0.05431
 O307 O 0.49244 0.46697 -0.10868
 O308 O 0.50200 0.40164 -0.06227
 Zr309 Zr 0.53881 0.49770 -0.00562
 Zr310 Zr 0.45436 0.49938 -0.00262
 O311 O 0.46995 0.50614 -0.05300
 O312 O 0.51994 0.50526 -0.05523
 O313 O 0.46916 0.55181 0.00469
 O314 O 0.52364 0.44560 -0.01270
 O315 O 0.51877 0.55034 0.00297
 O316 O 0.47353 0.44622 -0.01110
 H317 H 0.46209 0.48944 0.06734
 H318 H 0.53743 0.42413 -0.01614
 H319 H 0.45642 0.50930 -0.07283
 H320 H 0.53026 0.57164 0.00603
 H321 H 0.50502 0.37705 0.04206
 H322 H 0.48890 0.39069 -0.04632
 H323 H 0.50480 0.48637 -0.11479
 H324 H 0.48810 0.58012 -0.10080
 H325 H 0.47944 0.61542 -0.01585
 H326 H 0.48200 0.60724 0.04224
 H327 H 0.51261 0.51450 0.10737
 H328 H 0.51258 0.45309 0.09798
 C329 C 1.17442 0.16970 0.20779
 C330 C 1.17380 0.16176 0.17164
 C331 C 1.19573 0.17394 0.15107
 C332 C 1.21567 0.19645 0.16580
 C333 C 1.21468 0.20639 0.20138
 C334 C 1.19462 0.19123 0.22224
 C335 C 1.19751 0.16375 0.11587
 C336 C 1.17797 0.14176 0.10060
 C337 C 1.15507 0.13030 0.11973
 C338 C 1.15233 0.14181 0.15543
 C339 C 1.12763 0.13446 0.17338
 C340 C 1.10642 0.11612 0.15713
 C341 C 1.10937 0.10323 0.12285
 C342 C 1.13416 0.10898 0.10400
 C343 C 1.13696 0.09297 0.07021
 C344 C 1.11537 0.07386 0.05529
 C345 C 1.09017 0.07055 0.07321
 C346 C 1.08745 0.08490 0.10717
 H347 H 1.15995 0.15905 0.22574
 H348 H 1.23185 0.20572 0.14931
 H349 H 1.19425 0.19669 0.25012
 H350 H 1.21427 0.17276 0.09992
 H351 H 1.18066 0.13553 0.07321
 H352 H 1.12342 0.14411 0.19967
 H353 H 1.08751 0.11187 0.17166
 H354 H 1.15575 0.09422 0.05487
 H355 H 1.11818 0.06234 0.02922
 H356 H 1.06825 0.08162 0.12151
 C357 C 1.17130 0.66725 0.69829
 C358 C 1.16981 0.65966 0.66218
 C359 C 1.19163 0.67107 0.64094
 C360 C 1.21217 0.69314 0.65505
 C361 C 1.21201 0.70281 0.69070
 C362 C 1.19216 0.68798 0.71215
 C363 C 1.19262 0.66053 0.60576
 C364 C 1.17249 0.63881 0.59133
 C365 C 1.14965 0.62839 0.61122
 C366 C 1.14756 0.64068 0.64670
 C367 C 1.12271 0.63517 0.66517
 C368 C 1.10078 0.61758 0.64967
 C369 C 1.10324 0.60346 0.61576
 C370 C 1.12815 0.60740 0.59648
 C371 C 1.13058 0.58975 0.56341
 C372 C 1.10852 0.57075 0.54952
 C373 C 1.08312 0.56957 0.56757
 C374 C 1.08076 0.58556 0.60092
 H375 H 1.15700 0.65682 0.71662
 H376 H 1.22808 0.70240 0.63812
 H377 H 1.19239 0.69331 0.74006
 H378 H 1.20927 0.66890 0.58927
 H379 H 1.17455 0.63208 0.56393
 H380 H 1.11896 0.64587 0.69125
 H381 H 1.08179 0.61475 0.66451
 H382 H 1.14952 0.58943 0.54808
 H383 H 1.11122 0.55746 0.52422
 H384 H 1.06148 0.58375 0.61551
 C385 C 0.69827 0.13909 0.69211
 C386 C 0.68963 0.14189 0.65700
 C387 C 0.70259 0.16707 0.63600
 C388 C 0.72079 0.19184 0.65111
 C389 C 0.72723 0.19101 0.68713
 C390 C 0.71629 0.16323 0.70678
 C391 C 0.69646 0.16814 0.60030
 C392 C 0.67743 0.14518 0.58523
 C393 C 0.66263 0.12152 0.60573
 C394 C 0.66812 0.12096 0.64241
 C395 C 0.65075 0.10138 0.66376
 C396 C 0.62879 0.08279 0.64977
 C397 C 0.62392 0.08176 0.61393
 C398 C 0.64145 0.09983 0.59118
 C399 C 0.63690 0.09544 0.55483
 C400 C 0.61489 0.07561 0.54199
 C401 C 0.59660 0.06026 0.56490
 C402 C 0.60128 0.06306 0.60075
 H403 H 0.69127 0.11865 0.70914
 H404 H 0.72856 0.21257 0.63489
 H405 H 0.72055 0.16131 0.73456
 H406 H 0.70638 0.18702 0.58384
 H407 H 0.67355 0.14808 0.55763
 H408 H 0.65255 0.10155 0.69180
 H409 H 0.61548 0.06905 0.66726
 H410 H 0.65021 0.10652 0.53575
 H411 H 0.61164 0.07311 0.51403
 H412 H 0.58736 0.05040 0.61834
 C413 C 0.70719 0.67268 0.11099
 C414 C 0.69047 0.64800 0.12778
 C415 C 0.69214 0.64659 0.16462
 C416 C 0.70970 0.66892 0.18345
 C417 C 0.72504 0.69466 0.16682
 C418 C 0.72395 0.69587 0.13026
 C419 C 0.67543 0.62400 0.18283
 C420 C 0.65546 0.60455 0.16549
 C421 C 0.65192 0.60635 0.12899
 C422 C 0.67110 0.62612 0.10959
 C423 C 0.67005 0.62351 0.07282
 C424 C 0.64984 0.60403 0.05561
 C425 C 0.62926 0.58772 0.07427
 C426 C 0.62976 0.58905 0.11126
 C427 C 0.60723 0.57460 0.12902
 C428 C 0.58524 0.55950 0.11070
 C429 C 0.58532 0.55749 0.07431
 C430 C 0.60762 0.57101 0.05617
 H431 H 0.70664 0.67611 0.08313
 H432 H 0.71014 0.66791 0.21172
 H433 H 0.73507 0.71541 0.11619
 H434 H 0.67710 0.62233 0.21100
 H435 H 0.64330 0.58781 0.18143
 H436 H 0.68498 0.63578 0.05660
 H437 H 0.64976 0.60278 0.02733
 H438 H 0.60528 0.57606 0.15699
 H439 H 0.56802 0.54937 0.12507
 H440 H 0.60739 0.57006 0.02787
 C441 C 0.83277 -0.17247 0.19282
 C442 C 0.82989 -0.15607 0.15970
 C443 C 0.80409 -0.15925 0.14119
 C444 C 0.78325 -0.18042 0.15427
 C445 C 0.78737 -0.19857 0.18601
 C446 C 0.81186 -0.19334 0.20555
 C447 C 0.79947 -0.14212 0.10927
 C448 C 0.82011 -0.12238 0.09479
 C449 C 0.84666 -0.11960 0.11138
 C450 C 0.85178 -0.13719 0.14415
 C451 C 0.87895 -0.13658 0.15961
 C452 C 0.90044 -0.11969 0.14364
 C453 C 0.89571 -0.10200 0.11204
 C454 C 0.86861 -0.10082 0.09580
 C455 C 0.86474 -0.08091 0.06456
 C456 C 0.88706 -0.06409 0.04974
 C457 C 0.91406 -0.06674 0.06520
 C458 C 0.91812 -0.08556 0.09654
 H459 H 0.85101 -0.17004 0.20950
 H460 H 0.76399 -0.18347 0.13929
 H461 H 0.81560 -0.20669 0.23010
 H462 H 0.77972 -0.14430 0.09507
 H463 H 0.81488 -0.11062 0.06981
 H464 H 0.88467 -0.15000 0.18368
 H465 H 0.92110 -0.12056 0.15623
 H466 H 0.84468 -0.07738 0.05107
 H467 H 0.88318 -0.04922 0.02583
 H468 H 0.93877 -0.08715 0.10919
 C469 C 0.82376 0.33923 0.70470
 C470 C 0.82401 0.34651 0.66863
 C471 C 0.80226 0.33299 0.64759
 C472 C 0.78302 0.31010 0.66167
 C473 C 0.78421 0.30069 0.69717
 C474 C 0.80413 0.31712 0.71863
 C475 C 0.80000 0.34190 0.61241
 C476 C 0.81914 0.36359 0.59742
 C477 C 0.84206 0.37627 0.61682
 C478 C 0.84501 0.36666 0.65277
 C479 C 0.86948 0.37599 0.67122
 C480 C 0.89044 0.39390 0.65515
 C481 C 0.88748 0.40441 0.62045
 C482 C 0.86281 0.39695 0.60111
 C483 C 0.86004 0.41048 0.56677
 C484 C 0.88150 0.42889 0.55190
 C485 C 0.90654 0.43408 0.57043
 C486 C 0.90926 0.42209 0.60488
 H487 H 0.83842 0.35042 0.72297
 H488 H 0.76676 0.30014 0.64467
 H489 H 0.80592 0.31183 0.74612
 H490 H 0.78327 0.33186 0.59617
 H491 H 0.81610 0.36858 0.56999
 H492 H 0.87370 0.36833 0.69787
 H493 H 0.90920 0.39961 0.67012
 H494 H 0.84140 0.40772 0.55085
 H495 H 0.87876 0.43834 0.52541
 H496 H 0.92834 0.42678 0.61969
 C497 C 0.34059 -0.19535 0.68897
 C498 C 0.33562 -0.17229 0.65997
 C499 C 0.30763 -0.16807 0.64622
 C500 C 0.28596 -0.18700 0.66057
 C501 C 0.29148 -0.20963 0.68921
 C502 C 0.31885 -0.21359 0.70316
 C503 C 0.30139 -0.14495 0.61828
 C504 C 0.32221 -0.12556 0.60371
 C505 C 0.35044 -0.12890 0.61622
 C506 C 0.35738 -0.15330 0.64431
 C507 C 0.38591 -0.15836 0.65547
 C508 C 0.40691 -0.14015 0.64004
 C509 C 0.40046 -0.11572 0.61324
 C510 C 0.37213 -0.10920 0.60120
 C511 C 0.36681 -0.08307 0.57468
 C512 C 0.38881 -0.06529 0.56023
 C513 C 0.41686 -0.07288 0.57149
 C514 C 0.42240 -0.09794 0.59831
 H515 H 0.36094 -0.19981 0.70160
 H516 H 0.26465 -0.18373 0.64982
 H517 H 0.32367 -0.23158 0.72474
 H518 H 0.28008 -0.14168 0.60759
 H519 H 0.31551 -0.10860 0.58207
 H520 H 0.39298 -0.17687 0.67576
 H521 H 0.42854 -0.14527 0.64931
 H522 H 0.34590 -0.07547 0.56465
 H523 H 0.38377 -0.04574 0.53986
 H524 H 0.44393 -0.10377 0.60766
 C525 C 0.34087 0.31215 0.19475
 C526 C 0.33525 0.33020 0.16279
 C527 C 0.30704 0.33210 0.14976
 C528 C 0.28597 0.31483 0.16719
 C529 C 0.29226 0.29603 0.19814
 C530 C 0.31970 0.29540 0.21192
 C531 C 0.30004 0.35088 0.11921
 C532 C 0.32036 0.36805 0.10120
 C533 C 0.34887 0.36646 0.11266
 C534 C 0.35656 0.34635 0.14344
 C535 C 0.38540 0.34229 0.15340
 C536 C 0.40596 0.35790 0.13452
 C537 C 0.39871 0.37875 0.10532
 C538 C 0.37007 0.38379 0.09408
 C539 C 0.36390 0.40644 0.06500
 C540 C 0.38529 0.42305 0.04798
 C541 C 0.41357 0.41742 0.05894
 C542 C 0.42008 0.39497 0.08754
 H543 H 0.36136 0.31048 0.20732
 H544 H 0.26460 0.31591 0.15661
 H545 H 0.32518 0.28078 0.23547
 H546 H 0.27852 0.35240 0.10909
 H547 H 0.31310 0.38164 0.07774
 H548 H 0.39301 0.32641 0.17539
 H549 H 0.42784 0.35384 0.14313
 H550 H 0.34272 0.41266 0.05520
 H551 H 0.37956 0.44059 0.02621
 H552 H 0.44182 0.39086 0.09671
 C553 C 0.82866 0.22889 -0.17607
 C554 C 0.82822 0.19248 -0.16437
 C555 C 0.80593 0.17200 -0.17667
 C556 C 0.78717 0.18587 -0.20238
 C557 C 0.78928 0.22075 -0.21625
 C558 C 0.80919 0.24291 -0.20122
 C559 C 0.80275 0.13724 -0.16405
 C560 C 0.82193 0.12146 -0.14024
 C561 C 0.84572 0.13950 -0.12887
 C562 C 0.84917 0.17541 -0.14147
 C563 C 0.87418 0.19206 -0.13243
 C564 C 0.89553 0.17380 -0.11280
 C565 C 0.89241 0.13885 -0.10037
 C566 C 0.86694 0.12189 -0.10685
 C567 C 0.86405 0.08756 -0.09153
 C568 C 0.88631 0.06975 -0.07294
 C569 C 0.91215 0.08543 -0.06891
 C570 C 0.91486 0.12039 -0.08201
 H571 H 0.84381 0.24716 -0.16632
 H572 H 0.77049 0.16919 -0.21130
 H573 H 0.81110 0.27032 -0.21015
 H574 H 0.78544 0.12171 -0.17313
 H575 H 0.81822 0.09414 -0.13270
 H576 H 0.87851 0.21860 -0.14166
 H577 H 0.91483 0.18709 -0.10759
 H578 H 0.84485 0.07370 -0.09326
 H579 H 0.88349 0.04306 -0.06247
 H580 H 0.93457 0.13319 -0.07810
 C581 C 0.82611 0.72076 0.31277
 C582 C 0.82420 0.68499 0.32531
 C583 C 0.80178 0.66505 0.31227
 C584 C 0.78386 0.67926 0.28559
 C585 C 0.78748 0.71362 0.27149
 C586 C 0.80796 0.73473 0.28647
 C587 C 0.79762 0.63074 0.32542
 C588 C 0.81577 0.61510 0.35062
 C589 C 0.83941 0.63284 0.36308
 C590 C 0.84385 0.66823 0.34993
 C591 C 0.86851 0.68492 0.36048
 C592 C 0.88851 0.66739 0.38234
 C593 C 0.88454 0.63296 0.39527
 C594 C 0.85951 0.61567 0.38698
 C595 C 0.85604 0.58152 0.40248
 C596 C 0.87741 0.56437 0.42321
 C597 C 0.90285 0.58058 0.42908
 C598 C 0.90595 0.61529 0.41578
 H599 H 0.84130 0.73880 0.32280
 H600 H 0.76703 0.66334 0.27575
 H601 H 0.81055 0.76193 0.27760
 H602 H 0.78028 0.61556 0.31583
 H603 H 0.81128 0.58824 0.35877
 H604 H 0.87367 0.71103 0.35105
 H605 H 0.90755 0.68080 0.38883
 H606 H 0.83717 0.56721 0.39900
 H607 H 0.87441 0.53771 0.43362
 H608 H 0.92537 0.62839 0.42094
 C609 C 0.33519 0.22202 0.32469
 C610 C 0.33184 0.18788 0.34009
 C611 C 0.30639 0.17121 0.33284
 C612 C 0.28640 0.18686 0.30908
 C613 C 0.29108 0.21932 0.29194
 C614 C 0.31513 0.23735 0.30119
 C615 C 0.30116 0.13864 0.34881
 C616 C 0.32102 0.12147 0.37117
 C617 C 0.34736 0.13590 0.37795
 C618 C 0.35291 0.16960 0.36202
 C619 C 0.37974 0.18314 0.36736
 C620 C 0.40067 0.16415 0.38683
 C621 C 0.39569 0.13125 0.40229
 C622 C 0.36877 0.11707 0.39905
 C623 C 0.36470 0.08426 0.41664
 C624 C 0.38688 0.06554 0.43487
 C625 C 0.41379 0.07878 0.43619
 C626 C 0.41783 0.11207 0.42044
 H627 H 0.35305 0.23773 0.33020
 H628 H 0.26716 0.17346 0.30391
 H629 H 0.31904 0.26313 0.28992
 H630 H 0.28157 0.12597 0.34365
 H631 H 0.31537 0.09614 0.38182
 H632 H 0.38571 0.20786 0.35578
 H633 H 0.42118 0.17519 0.38944
 H634 H 0.34472 0.07215 0.41676
 H635 H 0.38311 0.04005 0.44716
 H636 H 0.43845 0.12298 0.42195
 C637 C 0.32795 0.72195 -0.17943
 C638 C 0.32330 0.68925 -0.16213
 C639 C 0.29887 0.67130 -0.17171
 C640 C 0.28052 0.68520 -0.19814
 C641 C 0.28617 0.71676 -0.21612
 C642 C 0.30969 0.73533 -0.20577
 C643 C 0.29305 0.63917 -0.15534
 C644 C 0.31169 0.62328 -0.13079
 C645 C 0.33703 0.63907 -0.12149
 C646 C 0.34243 0.67328 -0.13651
 C647 C 0.36715 0.68992 -0.12608
 C648 C 0.38696 0.67261 -0.10390
 C649 C 0.38296 0.63821 -0.09099
 C650 C 0.35762 0.62129 -0.09856
 C651 C 0.35463 0.58660 -0.08392
 C652 C 0.37664 0.56871 -0.06472
 C653 C 0.40221 0.58479 -0.05940
 C654 C 0.40477 0.62010 -0.07152
 H655 H 0.34577 0.73767 -0.17387
 H656 H 0.26182 0.67117 -0.20465
 H657 H 0.31464 0.76005 -0.21833
 H658 H 0.27415 0.62562 -0.16217
 H659 H 0.30571 0.59821 -0.11992
 H660 H 0.37220 0.71623 -0.13503
 H661 H 0.40605 0.68596 -0.09752
 H662 H 0.33598 0.57193 -0.08766
 H663 H 0.37406 0.54148 -0.05541
 H664 H 0.42432 0.63309 -0.06693
 C665 C 1.19071 -0.20969 -0.16899
 C666 C 1.18418 -0.17147 -0.16643
 C667 C 1.19857 -0.14884 -0.18871
 C668 C 1.21585 -0.16446 -0.21553
 C669 C 1.21932 -0.20245 -0.21986
 C670 C 1.20790 -0.22481 -0.19546
 C671 C 1.19463 -0.11089 -0.18498
 C672 C 1.17604 -0.09483 -0.16034
 C673 C 1.15963 -0.11625 -0.13947
 C674 C 1.16330 -0.15519 -0.14326
 C675 C 1.14468 -0.17659 -0.12564
 C676 C 1.12290 -0.16055 -0.10543
 C677 C 1.11949 -0.12273 -0.10077
 C678 C 1.13855 -0.10006 -0.11639
 C679 C 1.13544 -0.06209 -0.10843
 C680 C 1.11337 -0.04731 -0.08749
 C681 C 1.09357 -0.06972 -0.07447
 C682 C 1.09682 -0.10739 -0.08083
 H683 H 1.18263 -0.22863 -0.15120
 H684 H 1.22531 -0.14722 -0.23407
 H685 H 1.21127 -0.25434 -0.19793
 H686 H 1.20577 -0.09338 -0.20161
 H687 H 1.17375 -0.06535 -0.15969
 H688 H 1.14535 -0.20594 -0.12852
 H689 H 1.10851 -0.17799 -0.09338
 H690 H 1.14990 -0.04321 -0.11756
 H691 H 1.11131 -0.01809 -0.08221
 H692 H 1.08177 -0.12476 -0.06995
 C693 C 1.20846 0.36470 0.31654
 C694 C 1.18878 0.34878 0.33811
 C695 C 1.18755 0.31028 0.33577
 C696 C 1.20440 0.28926 0.31209
 C697 C 1.22201 0.30575 0.28919
 C698 C 1.22476 0.34333 0.29229
 C699 C 1.16865 0.29287 0.35597
 C700 C 1.14907 0.31304 0.37643
 C701 C 1.14787 0.35159 0.37772
 C702 C 1.16933 0.36962 0.36050
 C703 C 1.17018 0.40775 0.36588
 C704 C 1.14987 0.42779 0.38591
 C705 C 1.12731 0.41094 0.40007
 C706 C 1.12578 0.37264 0.39564
 C707 C 1.10142 0.35710 0.40780
 C708 C 1.07978 0.37863 0.42404
 C709 C 1.08179 0.41614 0.42936
 C710 C 1.10578 0.43222 0.41779
 H711 H 1.21070 0.39373 0.31654
 H712 H 1.20266 0.25994 0.31003
 H713 H 1.23843 0.35641 0.27477
 H714 H 1.16829 0.26333 0.35501
 H715 H 1.13520 0.29754 0.39131
 H716 H 1.18657 0.42284 0.35522
 H717 H 1.15131 0.45701 0.38934
 H718 H 1.09784 0.32864 0.40385
 H719 H 1.06129 0.36580 0.43262
 H720 H 1.10709 0.46147 0.42132
 C721 C 0.66844 -0.22263 0.30144
 C722 C 0.66999 -0.18669 0.31479
 C723 C 0.69329 -0.16731 0.30483
 C724 C 0.71253 -0.18232 0.27959
 C725 C 0.70912 -0.21688 0.26455
 C726 C 0.68764 -0.23730 0.27692
 C727 C 0.69692 -0.13295 0.31979
 C728 C 0.67791 -0.11737 0.34431
 C729 C 0.65374 -0.13501 0.35382
 C730 C 0.64923 -0.16961 0.33775
 C731 C 0.62351 -0.18535 0.34385
 C732 C 0.60303 -0.16821 0.36532
 C733 C 0.60757 -0.13528 0.38240
 C734 C 0.63330 -0.11866 0.37781
 C735 C 0.63742 -0.08644 0.39756
 C736 C 0.61631 -0.07070 0.41951
 C737 C 0.59029 -0.08609 0.42214
 C738 C 0.58626 -0.11869 0.40381
 H739 H 0.65290 -0.24041 0.30987
 H740 H 0.72960 -0.16674 0.27101
 H741 H 0.68555 -0.26504 0.26754
 H742 H 0.71470 -0.11793 0.31252
 H743 H 0.68208 -0.09061 0.35429
 H744 H 0.61795 -0.21028 0.33108
 H745 H 0.58337 -0.18096 0.36862
 H746 H 0.65687 -0.07306 0.39703
 H747 H 0.62020 -0.04593 0.43396
 H748 H 0.56645 -0.13132 0.40629
 C749 C 0.66613 0.28824 -0.19560
 C750 C 0.66929 0.32399 -0.18308
 C751 C 0.69550 0.33903 -0.18844
 C752 C 0.71636 0.32021 -0.20970
 C753 C 0.71133 0.28617 -0.22547
 C754 C 0.68657 0.26996 -0.21622
 C755 C 0.70031 0.37289 -0.17293
 C756 C 0.67968 0.39183 -0.15227
 C757 C 0.65279 0.37843 -0.14782
 C758 C 0.64726 0.34474 -0.16494
 C759 C 0.61949 0.33338 -0.16481
 C760 C 0.59807 0.35315 -0.14698
 C761 C 0.60347 0.38465 -0.12806
 C762 C 0.63088 0.39774 -0.12768
 C763 C 0.63511 0.42914 -0.10664
 C764 C 0.61291 0.44659 -0.08715
 C765 C 0.58577 0.43382 -0.08865
 C766 C 0.58134 0.40293 -0.10934
 H767 H 0.64828 0.27321 -0.18923
 H768 H 0.73556 0.33311 -0.21521
 H769 H 0.68286 0.24226 -0.22427
 H770 H 0.72029 0.38474 -0.17653
 H771 H 0.68498 0.41771 -0.14117
 H772 H 0.61330 0.30988 -0.17952
 H773 H 0.57704 0.34340 -0.14778
 H774 H 0.65547 0.44019 -0.10398
 H775 H 0.61704 0.47010 -0.07087
 H776 H 0.56062 0.39229 -0.11019
 C777 C 1.20121 0.18564 -0.12517
 C778 C 1.18602 0.15698 -0.13929
 C779 C 1.18699 0.15071 -0.17584
 C780 C 1.20314 0.17166 -0.19687
 C781 C 1.21816 0.20009 -0.18271
 C782 C 1.21671 0.20699 -0.14652
 C783 C 1.17134 0.12408 -0.19148
 C784 C 1.15331 0.10490 -0.17191
 C785 C 1.15075 0.11110 -0.13561
 C786 C 1.16885 0.13556 -0.11870
 C787 C 1.16912 0.13775 -0.08188
 C788 C 1.15086 0.11865 -0.06235
 C789 C 1.13104 0.09770 -0.07875
 C790 C 1.13058 0.09377 -0.11566
 C791 C 1.10894 0.07425 -0.13126
 C792 C 1.08851 0.05981 -0.11100
 C793 C 1.08934 0.06352 -0.07471
 C794 C 1.11096 0.08169 -0.05854
 H795 H 1.20052 0.19335 -0.09790
 H796 H 1.20338 0.16656 -0.22484
 H797 H 1.22671 0.22943 -0.13422
 H798 H 1.17244 0.11868 -0.21936
 H799 H 1.14195 0.08479 -0.18595
 H800 H 1.18362 0.15363 -0.06734
 H801 H 1.15163 0.12132 -0.03415
 H802 H 1.10634 0.07119 -0.15909
 H803 H 1.07173 0.04593 -0.12380
 H804 H 1.11117 0.08512 -0.03039
 C805 C 1.20087 0.67237 0.38019
 C806 C 1.18213 0.64911 0.36352
 C807 C 1.18114 0.64856 0.32658
 C808 C 1.19837 0.67013 0.30756
 C809 C 1.21601 0.69427 0.32429
 C810 C 1.21731 0.69467 0.36093
 C811 C 1.16241 0.62724 0.30865
 C812 C 1.14331 0.60803 0.32656
 C813 C 1.14264 0.60874 0.36335
 C814 C 1.16358 0.62756 0.38212
 C815 C 1.16517 0.62424 0.41874
 C816 C 1.14598 0.60490 0.43658
 C817 C 1.12391 0.58922 0.41885
 C818 C 1.12171 0.59122 0.38200
 C819 C 1.09787 0.57708 0.36547
 C820 C 1.07717 0.56189 0.38484
 C821 C 1.07978 0.55946 0.42108
 C822 C 1.10345 0.57254 0.43790
 H823 H 1.20249 0.67511 0.40816
 H824 H 1.19718 0.66936 0.27927
 H825 H 1.23050 0.71247 0.37533
 H826 H 1.16195 0.62619 0.28037
 H827 H 1.12955 0.59226 0.31076
 H828 H 1.18139 0.63587 0.43438
 H829 H 1.14795 0.60317 0.46472
 H830 H 1.09392 0.57881 0.33780
 H831 H 1.05886 0.55216 0.37141
 H832 H 1.10515 0.57146 0.46602
 C833 C 0.66542 0.21222 0.35073
 C834 C 0.66974 0.17468 0.35855
 C835 C 0.69596 0.15609 0.34931
 C836 C 0.71532 0.17337 0.32909
 C837 C 0.70889 0.20921 0.31748
 C838 C 0.68478 0.22909 0.33076
 C839 C 0.70237 0.12003 0.35939
 C840 C 0.68287 0.10150 0.37747
 C841 C 0.65569 0.11804 0.38513
 C842 C 0.64887 0.15503 0.37486
 C843 C 0.62093 0.17056 0.37933
 C844 C 0.60028 0.15071 0.39329
 C845 C 0.60673 0.11501 0.40421
 C846 C 0.63466 0.09842 0.40138
 C847 C 0.64022 0.06289 0.41499
 C848 C 0.61865 0.04443 0.42957
 C849 C 0.59088 0.06040 0.43046
 C850 C 0.58519 0.09584 0.41797
 H851 H 0.64728 0.22930 0.35960
 H852 H 0.73505 0.15839 0.32219
 H853 H 0.68025 0.25763 0.32444
 H854 H 0.72255 0.10576 0.35280
 H855 H 0.68928 0.07351 0.38361
 H856 H 0.61395 0.19760 0.37074
 H857 H 0.57894 0.16348 0.39548
 H858 H 0.66108 0.04893 0.41547
 H859 H 0.62377 0.01758 0.44016
 H860 H 0.56394 0.10902 0.41965
 C861 C 0.70739 0.63478 -0.15901
 C862 C 0.68467 0.65044 -0.13872
 C863 C 0.68040 0.68907 -0.13731
 C864 C 0.69792 0.71066 -0.15577
 C865 C 0.71901 0.69500 -0.17835
 C866 C 0.72417 0.65655 -0.17835
 C867 C 0.65815 0.70621 -0.11822
 C868 C 0.63869 0.68580 -0.10241
 C869 C 0.64115 0.64722 -0.10446
 C870 C 0.66556 0.62922 -0.12070
 C871 C 0.66986 0.59077 -0.11845
 C872 C 0.65031 0.57050 -0.10229
 C873 C 0.62522 0.58750 -0.08908
 C874 C 0.62005 0.62608 -0.09057
 C875 C 0.59341 0.64185 -0.07944
 C876 C 0.57308 0.62022 -0.06684
 C877 C 0.57868 0.58235 -0.06431
 C878 C 0.60492 0.56611 -0.07507
 H879 H 0.71222 0.60565 -0.16144
 H880 H 0.69422 0.74023 -0.15388
 H881 H 0.74108 0.64241 -0.19297
 H882 H 0.65519 0.73581 -0.11637
 H883 H 0.62211 0.70110 -0.08815
 H884 H 0.68847 0.57551 -0.12843
 H885 H 0.65450 0.54105 -0.10107
 H886 H 0.58719 0.67065 -0.08134
 H887 H 0.55286 0.63330 -0.05876
 H888 H 0.60912 0.53670 -0.07365
 C889 C 0.79319 -0.17290 -0.12615
 C890 C 0.81505 -0.15572 -0.14230
 C891 C 0.81965 -0.16345 -0.17829
 C892 C 0.80259 -0.18709 -0.19714
 C893 C 0.78162 -0.20521 -0.18034
 C894 C 0.77709 -0.19708 -0.14466
 C895 C 0.84176 -0.14829 -0.19510
 C896 C 0.86026 -0.12717 -0.17667
 C897 C 0.85703 -0.11959 -0.14058
 C898 C 0.83308 -0.13226 -0.12363
 C899 C 0.82806 -0.12119 -0.08855
 C900 C 0.84671 -0.10042 -0.07001
 C901 C 0.87143 -0.09046 -0.08527
 C902 C 0.87699 -0.09993 -0.12079
 C903 C 0.90292 -0.09062 -0.13462
 C904 C 0.92252 -0.07341 -0.11393
 C905 C 0.91699 -0.06420 -0.07890
 C906 C 0.89105 -0.07199 -0.06490
 H907 H 0.78842 -0.16914 -0.09887
 H908 H 0.80707 -0.19287 -0.22436
 H909 H 0.76039 -0.20863 -0.13058
 H910 H 0.84527 -0.15357 -0.22269
 H911 H 0.87679 -0.11671 -0.19169
 H912 H 0.80957 -0.12777 -0.07466
 H913 H 0.84206 -0.09291 -0.04307
 H914 H 0.90928 -0.09752 -0.16096
 H915 H 0.94239 -0.06752 -0.12544
 H916 H 0.88673 -0.06525 -0.03774
 C917 C 0.82820 0.31905 0.29501
 C918 C 0.82322 0.34072 0.32573
 C919 C 0.79543 0.34341 0.33924
 C920 C 0.77439 0.32311 0.32402
 C921 C 0.78034 0.29968 0.29523
 C922 C 0.80708 0.29886 0.28021
 C923 C 0.78894 0.36541 0.36857
 C924 C 0.80959 0.38413 0.38563
 C925 C 0.83793 0.38117 0.37432
 C926 C 0.84486 0.35906 0.34386
 C927 C 0.87337 0.35493 0.33330
 C928 C 0.89444 0.37121 0.35196
 C929 C 0.88808 0.39275 0.38160
 C930 C 0.85973 0.39876 0.39295
 C931 C 0.85456 0.42200 0.42261
 C932 C 0.87670 0.43770 0.44045
 C933 C 0.90473 0.43063 0.42966
 C934 C 0.91013 0.40826 0.40000
 H935 H 0.84828 0.31653 0.28203
 H936 H 0.75345 0.32471 0.33529
 H937 H 0.81222 0.28123 0.25790
 H938 H 0.76765 0.36777 0.37883
 H939 H 0.80273 0.39994 0.40836
 H940 H 0.88035 0.33841 0.31106
 H941 H 0.91609 0.36671 0.34310
 H942 H 0.83367 0.42895 0.43261
 H943 H 0.87177 0.45540 0.46285
 H944 H 0.93164 0.40307 0.39082
 C945 C 0.32938 -0.18111 0.30455
 C946 C 0.32653 -0.16278 0.33734
 C947 C 0.30035 -0.16375 0.35465
 C948 C 0.27892 -0.18433 0.34056
 C949 C 0.28287 -0.20414 0.30906
 C950 C 0.30796 -0.20143 0.29092
 C951 C 0.29592 -0.14494 0.38632
 C952 C 0.31710 -0.12569 0.40174
 C953 C 0.34396 -0.12501 0.38635
 C954 C 0.34882 -0.14414 0.35373
 C955 C 0.37608 -0.14510 0.33916
 C956 C 0.39792 -0.12837 0.35584
 C957 C 0.39353 -0.10944 0.38740
 C958 C 0.36642 -0.10671 0.40289
 C959 C 0.36312 -0.08588 0.43437
 C960 C 0.38595 -0.06953 0.45001
 C961 C 0.41286 -0.07355 0.43512
 C962 C 0.41634 -0.09336 0.40362
 H963 H 0.34799 -0.18073 0.28881
 H964 H 0.25928 -0.18553 0.35454
 H965 H 0.31173 -0.21636 0.26677
 H966 H 0.27589 -0.14538 0.39958
 H967 H 0.31193 -0.11244 0.42640
 H968 H 0.38161 -0.15949 0.31517
 H969 H 0.41859 -0.13041 0.34385
 H970 H 0.34317 -0.08140 0.44750
 H971 H 0.38254 -0.05400 0.47412
 H972 H 0.43693 -0.09610 0.39140
 C973 C 0.32531 0.33057 -0.21539
 C974 C 0.32382 0.34488 -0.18073
 C975 C 0.29956 0.33852 -0.16135
 C976 C 0.27942 0.31590 -0.17482
 C977 C 0.28233 0.29904 -0.20802
 C978 C 0.30474 0.30841 -0.22886
 C979 C 0.29570 0.35393 -0.12808
 C980 C 0.31588 0.37473 -0.11288
 C981 C 0.34128 0.38030 -0.13010
 C982 C 0.34551 0.36479 -0.16445
 C983 C 0.37175 0.36823 -0.18060
 C984 C 0.39331 0.38549 -0.16360
 C985 C 0.38942 0.40093 -0.13026
 C986 C 0.36305 0.39963 -0.11348
 C987 C 0.35971 0.41750 -0.08050
 C988 C 0.38201 0.43419 -0.06430
 C989 C 0.40848 0.43370 -0.08013
 C990 C 0.41190 0.41740 -0.11343
 H991 H 0.34222 0.33583 -0.23268
 H992 H 0.26120 0.31157 -0.15905
 H993 H 0.30763 0.29702 -0.25488
 H994 H 0.27697 0.34941 -0.11331
 H995 H 0.31134 0.38478 -0.08683
 H996 H 0.37670 0.35654 -0.20600
 H997 H 0.41335 0.38660 -0.17670
 H998 H 0.34009 0.41943 -0.06651
 H999 H 0.37851 0.44713 -0.03892
 H1000 H 0.43210 0.41754 -0.12635
 C1001 C 1.16650 -0.22154 0.18533
 C1002 C 1.16890 -0.18504 0.17528
 C1003 C 1.19174 -0.16655 0.18956
 C1004 C 1.20995 -0.18336 0.21501
 C1005 C 1.20568 -0.21855 0.22647
 C1006 C 1.18444 -0.23774 0.21050
 C1007 C 1.19588 -0.13123 0.17882
 C1008 C 1.17758 -0.11352 0.15473
 C1009 C 1.15380 -0.13015 0.14099
 C1010 C 1.14923 -0.16635 0.15188
 C1011 C 1.12451 -0.18221 0.14019
 C1012 C 1.10481 -0.16350 0.11886
 C1013 C 1.10901 -0.12848 0.10774
 C1014 C 1.13382 -0.11146 0.11774
 C1015 C 1.13723 -0.07632 0.10423
 C1016 C 1.11625 -0.05852 0.08313
 C1017 C 1.09122 -0.07499 0.07514
 C1018 C 1.08804 -0.11019 0.08709
 H1019 H 1.15108 -0.23859 0.17421
 H1020 H 1.22675 -0.16863 0.22670
 H1021 H 1.18157 -0.26565 0.21762
 H1022 H 1.21338 -0.11696 0.18935
 H1023 H 1.18214 -0.08616 0.14824
 H1024 H 1.11904 -0.20873 0.14809
 H1025 H 1.08587 -0.17658 0.11122
 H1026 H 1.15581 -0.06186 0.10947
 H1027 H 1.11926 -0.03137 0.07391
 H1028 H 1.06895 -0.12343 0.08040
 C1029 C 1.16679 0.27712 0.67505
 C1030 C 1.16805 0.31411 0.66590
 C1031 C 1.19132 0.33272 0.67877
 C1032 C 1.21086 0.31569 0.70264
 C1033 C 1.20748 0.28015 0.71381
 C1034 C 1.18603 0.26070 0.69870
 C1035 C 1.19442 0.36848 0.66847
 C1036 C 1.17467 0.38648 0.64627
 C1037 C 1.15036 0.36976 0.63429
 C1038 C 1.14680 0.33319 0.64488
 C1039 C 1.12144 0.31742 0.63559
 C1040 C 1.10027 0.33651 0.61666
 C1041 C 1.10360 0.37177 0.60548
 C1042 C 1.12892 0.38872 0.61319
 C1043 C 1.13146 0.42398 0.59952
 C1044 C 1.10936 0.44183 0.58022
 C1045 C 1.08398 0.42540 0.57438
 C1046 C 1.08141 0.39026 0.58685
 H1047 H 1.15118 0.26000 0.66447
 H1048 H 1.22782 0.33061 0.71369
 H1049 H 1.18380 0.23259 0.70572
 H1050 H 1.21223 0.38286 0.67790
 H1051 H 1.17848 0.41417 0.64003
 H1052 H 1.11667 0.29070 0.64379
 H1053 H 1.08094 0.32348 0.61082
 H1054 H 1.15032 0.43834 0.60299
 H1055 H 1.11190 0.46891 0.57048
 H1056 H 1.06203 0.37704 0.58175
 C1057 C 0.66541 -0.16708 0.73665
 C1058 C 0.67203 -0.15679 0.70263
 C1059 C 0.69985 -0.16654 0.69060
 C1060 C 0.71949 -0.18786 0.71145
 C1061 C 0.71122 -0.20115 0.74367
 C1062 C 0.68437 -0.18911 0.75628
 C1063 C 0.70744 -0.15614 0.65735
 C1064 C 0.68781 -0.13751 0.63532
 C1065 C 0.65952 -0.12866 0.64558
 C1066 C 0.65168 -0.13811 0.68003
 C1067 C 0.62338 -0.12984 0.69043
 C1068 C 0.60326 -0.11383 0.66799
 C1069 C 0.61031 -0.10502 0.63429
 C1070 C 0.63851 -0.11151 0.62249
 C1071 C 0.64412 -0.10084 0.58798
 C1072 C 0.62244 -0.08521 0.56633
 C1073 C 0.59453 -0.08016 0.57819
 C1074 C 0.58889 -0.08987 0.61235
 H1075 H 0.64554 -0.15929 0.74899
 H1076 H 0.74018 -0.19650 0.70113
 H1077 H 0.67777 -0.19663 0.78195
 H1078 H 0.72868 -0.16313 0.64793
 H1079 H 0.69532 -0.13107 0.60994
 H1080 H 0.61562 -0.13606 0.71567
 H1081 H 0.58173 -0.10861 0.67713
 H1082 H 0.66498 -0.10418 0.57698
 H1083 H 0.62747 -0.07752 0.54013
 H1084 H 0.56754 -0.08532 0.62225
 C1085 C 0.67393 0.27226 0.16145
 C1086 C 0.67422 0.30953 0.15271
 C1087 C 0.69451 0.33041 0.16979
 C1088 C 0.71188 0.31510 0.19671
 C1089 C 0.70908 0.27923 0.20711
 C1090 C 0.69087 0.25764 0.18838
 C1091 C 0.69654 0.36678 0.16084
 C1092 C 0.67814 0.38348 0.13636
 C1093 C 0.65640 0.36458 0.12030
 C1094 C 0.65450 0.32693 0.12855
 C1095 C 0.63202 0.30841 0.11387
 C1096 C 0.61145 0.32623 0.09305
 C1097 C 0.61265 0.36296 0.08530
 C1098 C 0.63563 0.38246 0.09758
 C1099 C 0.63630 0.41930 0.08721
 C1100 C 0.61418 0.43637 0.06750
 C1101 C 0.59072 0.41742 0.05772
 C1102 C 0.59043 0.38052 0.06600
 H1103 H 0.66058 0.25366 0.14848
 H1104 H 0.72639 0.33165 0.21084
 H1105 H 0.68922 0.22936 0.19526
 H1106 H 0.71219 0.38279 0.17343
 H1107 H 0.68083 0.41184 0.13164
 H1108 H 0.62888 0.28029 0.11907
 H1109 H 0.59409 0.31114 0.08335
 H1110 H 0.65343 0.43580 0.09411
 H1111 H 0.61492 0.46492 0.06107
 H1112 H 0.57256 0.36552 0.05782
 C1113 C 0.78809 0.14465 0.17990
 C1114 C 0.81213 0.15903 0.16552
 C1115 C 0.81859 0.19449 0.17703
 C1116 C 0.80219 0.21385 0.20258
 C1117 C 0.77911 0.19864 0.21744
 C1118 C 0.77195 0.16416 0.20523
 C1119 C 0.84162 0.21043 0.16334
 C1120 C 0.85907 0.19164 0.13920
 C1121 C 0.85432 0.15569 0.12782
 C1122 C 0.83017 0.13932 0.14070
 C1123 C 0.82531 0.10350 0.12900
 C1124 C 0.84401 0.08367 0.10683
 C1125 C 0.86826 0.09862 0.09524
 C1126 C 0.87345 0.13515 0.10487
 C1127 C 0.89819 0.14915 0.09204
 C1128 C 0.91773 0.12707 0.07283
 C1129 C 0.91323 0.09053 0.06502
 C1130 C 0.88794 0.07675 0.07509
 H1131 H 0.78107 0.11840 0.17227
 H1132 H 0.80789 0.24053 0.21135
 H1133 H 0.75352 0.15214 0.21490
 H1134 H 0.84647 0.23770 0.17172
 H1135 H 0.87645 0.20612 0.13044
 H1136 H 0.80742 0.08950 0.13702
 H1137 H 0.83973 0.05595 0.09929
 H1138 H 0.90365 0.17673 0.09704
 H1139 H 0.93693 0.13853 0.06463
 H1140 H 0.88434 0.04846 0.06900
 C1141 C 0.82606 0.72508 0.68940
 C1142 C 0.82382 0.69047 0.67281
 C1143 C 0.79985 0.67154 0.68059
 C1144 C 0.78065 0.68517 0.70606
 C1145 C 0.78416 0.71822 0.72436
 C1146 C 0.80642 0.73878 0.71440
 C1147 C 0.79530 0.63860 0.66345
 C1148 C 0.81447 0.62321 0.63933
 C1149 C 0.83954 0.63979 0.63187
 C1150 C 0.84449 0.67379 0.64918
 C1151 C 0.87046 0.68903 0.64352
 C1152 C 0.89116 0.67132 0.62248
 C1153 C 0.88663 0.63824 0.60546
 C1154 C 0.86039 0.62264 0.60885
 C1155 C 0.85636 0.59011 0.58942
 C1156 C 0.87810 0.57268 0.56953
 C1157 C 0.90461 0.58693 0.56815
 C1158 C 0.90848 0.62025 0.58559
 H1159 H 0.84283 0.74222 0.68374
 H1160 H 0.76249 0.66991 0.71100
 H1161 H 0.80994 0.76457 0.72722
 H1162 H 0.77680 0.62419 0.66910
 H1163 H 0.80949 0.59734 0.62803
 H1164 H 0.87594 0.71405 0.65618
 H1165 H 0.91110 0.68355 0.61978
 H1166 H 0.83667 0.57729 0.58898
 H1167 H 0.87430 0.54728 0.55597
 H1168 H 0.92872 0.63202 0.58413
 C1169 C 0.29045 0.14836 0.67498
 C1170 C 0.31580 0.16151 0.66296
 C1171 C 0.32329 0.19586 0.67644
 C1172 C 0.30638 0.21543 0.70149
 C1173 C 0.28216 0.20103 0.71420
 C1174 C 0.27409 0.16777 0.70012
 C1175 C 0.34800 0.21015 0.66552
 C1176 C 0.36625 0.19044 0.64279
 C1177 C 0.36051 0.15535 0.62990
 C1178 C 0.33432 0.14129 0.63899
 C1179 C 0.32782 0.10720 0.62433
 C1180 C 0.34685 0.08656 0.60318
 C1181 C 0.37321 0.09877 0.59588
 C1182 C 0.38032 0.13354 0.60875
 C1183 C 0.40746 0.14442 0.60094
 C1184 C 0.42686 0.12132 0.58243
 C1185 C 0.42005 0.08664 0.57059
 C1186 C 0.39285 0.07588 0.57659
 H1187 H 0.28289 0.12277 0.66620
 H1188 H 0.31276 0.24113 0.71217
 H1189 H 0.25499 0.15646 0.70878
 H1190 H 0.35363 0.23664 0.67523
 H1191 H 0.38485 0.20364 0.63595
 H1192 H 0.30813 0.09540 0.62882
 H1193 H 0.34107 0.06029 0.59307
 H1194 H 0.41486 0.17015 0.60957
 H1195 H 0.44760 0.13063 0.57778
 H1196 H 0.38737 0.04908 0.56757
 C1197 C 0.32355 0.71080 0.18680
 C1198 C 0.32374 0.67365 0.17606
 C1199 C 0.30163 0.65338 0.18793
 C1200 C 0.28191 0.66897 0.21211
 C1201 C 0.28331 0.70513 0.22464
 C1202 C 0.30359 0.72614 0.21038
 C1203 C 0.29950 0.61751 0.17594
 C1204 C 0.31904 0.60105 0.15265
 C1205 C 0.34219 0.61953 0.14122
 C1206 C 0.34497 0.65609 0.15392
 C1207 C 0.36948 0.67337 0.14532
 C1208 C 0.39055 0.65569 0.12500
 C1209 C 0.38780 0.62052 0.11162
 C1210 C 0.36324 0.60224 0.11858
 C1211 C 0.36095 0.56736 0.10256
 C1212 C 0.38271 0.55092 0.08195
 C1213 C 0.40751 0.56841 0.07696
 C1214 C 0.40974 0.60339 0.09155
 H1215 H 0.33830 0.72896 0.17708
 H1216 H 0.26536 0.65275 0.22098
 H1217 H 0.30461 0.75454 0.21751
 H1218 H 0.28252 0.60189 0.18473
 H1219 H 0.31603 0.57314 0.14514
 H1220 H 0.37363 0.70019 0.15514
 H1221 H 0.40929 0.66977 0.11974
 H1222 H 0.34251 0.55224 0.10511
 H1223 H 0.38040 0.52401 0.07053
 H1224 H 0.42863 0.61746 0.08707
   
