data_POSCAR
  _audit_creation_date              2014-09-24
  _audit_creation_method            'ToBaCCo'
  _symmetry_space_group_name_H-M    'P1'
  _symmetry_Int_Tables_number       1
  _symmetry_cell_setting            triclinic
  loop_
  _symmetry_equiv_pos_as_xyz
 x,y,z
_cell_length_a 82.7964
_cell_length_b 83.1293
_cell_length_c 82.5027
_cell_angle_alpha 89.752600
_cell_angle_beta 90.090500
_cell_angle_gamma 90.039700
loop_
  _atom_site_label
  _atom_site_type_symbol
  _atom_site_fract_x
  _atom_site_fract_y
  _atom_site_fract_z
C1 C 0.19534 0.21911 0.21369
 C2 C 0.20428 0.22364 0.19998
 C3 C 0.21740 0.21454 0.19521
 C4 C 0.22173 0.20075 0.20404
 C5 C 0.21294 0.19630 0.21757
 C6 C 0.19960 0.20549 0.22238
 C7 C 0.18201 0.22564 0.22112
 N8 N 0.17803 0.21626 0.23405
 C9 C 0.18875 0.20390 0.23489
 C10 C 0.21997 0.18262 0.22382
 N11 N 0.23278 0.17863 0.21437
 C12 C 0.23391 0.18965 0.20222
 C13 C 0.22378 0.22176 0.18162
 N14 N 0.21484 0.23501 0.17798
 C15 C 0.20287 0.23622 0.18917
 H16 H 0.17552 0.23628 0.21723
 H17 H 0.18876 0.19452 0.24403
 H18 H 0.21596 0.17598 0.23439
 H19 H 0.24308 0.18976 0.19288
 H20 H 0.23406 0.21751 0.17476
 H21 H 0.19390 0.24567 0.18957
 C22 C 0.69451 0.71811 0.71342
 C23 C 0.70337 0.72241 0.69959
 C24 C 0.71632 0.71312 0.69478
 C25 C 0.72065 0.69942 0.70376
 C26 C 0.71196 0.69521 0.71744
 C27 C 0.69873 0.70457 0.72225
 C28 C 0.68129 0.72484 0.72087
 N29 N 0.67734 0.71565 0.73394
 C30 C 0.68796 0.70322 0.73486
 C31 C 0.71895 0.68156 0.72381
 N32 N 0.73164 0.67735 0.71429
 C33 C 0.73273 0.68820 0.70197
 C34 C 0.72262 0.72011 0.68102
 N35 N 0.71380 0.73344 0.67735
 C36 C 0.70199 0.73490 0.68869
 H37 H 0.67486 0.73548 0.71688
 H38 H 0.68795 0.69395 0.74411
 H39 H 0.71500 0.67509 0.73451
 H40 H 0.74182 0.68812 0.69256
 H41 H 0.73301 0.71589 0.67434
 H42 H 0.69289 0.74424 0.68891
 C43 C 0.30520 0.78238 0.71368
 C44 C 0.29584 0.77741 0.70042
 C45 C 0.28247 0.78626 0.69578
 C46 C 0.27823 0.80016 0.70436
 C47 C 0.28752 0.80514 0.71729
 C48 C 0.30110 0.79618 0.72201
 C49 C 0.31875 0.77608 0.72100
 N50 N 0.32300 0.78576 0.73355
 C51 C 0.31228 0.79811 0.73421
 C52 C 0.28065 0.81898 0.72318
 N53 N 0.26724 0.82261 0.71423
 C54 C 0.26580 0.81100 0.70265
 C55 C 0.27586 0.77881 0.68248
 N56 N 0.28490 0.76565 0.67889
 C57 C 0.29713 0.76470 0.68987
 H58 H 0.32512 0.76532 0.71737
 H59 H 0.31241 0.80765 0.74310
 H60 H 0.28505 0.82552 0.73358
 H61 H 0.25667 0.81045 0.69330
 H62 H 0.26518 0.78268 0.67596
 H63 H 0.30654 0.75567 0.68998
 C64 C 0.80606 0.28453 0.21221
 C65 C 0.79712 0.28001 0.19851
 C66 C 0.78347 0.28858 0.19416
 C67 C 0.77855 0.30176 0.20348
 C68 C 0.78735 0.30617 0.21701
 C69 C 0.80117 0.29742 0.22144
 C70 C 0.81982 0.27842 0.21927
 N71 N 0.82349 0.28722 0.23272
 C72 C 0.81197 0.29890 0.23402
 C73 C 0.77989 0.31937 0.22361
 N74 N 0.76675 0.32312 0.21444
 C75 C 0.76585 0.31235 0.20210
 C76 C 0.77722 0.28148 0.18048
 N77 N 0.78672 0.26877 0.17644
 C78 C 0.79894 0.26784 0.18744
 H79 H 0.82628 0.26799 0.21496
 H80 H 0.81148 0.30817 0.24315
 H81 H 0.78369 0.32568 0.23442
 H82 H 0.75680 0.31237 0.19262
 H83 H 0.76637 0.28514 0.17413
 H84 H 0.80856 0.25904 0.18734
 C85 C 0.80534 0.71585 0.28725
 C86 C 0.79632 0.72049 0.30083
 C87 C 0.78280 0.71178 0.30530
 C88 C 0.77807 0.69835 0.29622
 C89 C 0.78696 0.69383 0.28282
 C90 C 0.80065 0.70270 0.27828
 C91 C 0.81901 0.72203 0.28013
 N92 N 0.82284 0.71301 0.26688
 C93 C 0.81149 0.70113 0.26578
 C94 C 0.77968 0.68038 0.27643
 N95 N 0.76658 0.67662 0.28562
 C96 C 0.76552 0.68759 0.29775
 C97 C 0.77644 0.71902 0.31884
 N98 N 0.78576 0.73194 0.32268
 C99 C 0.79796 0.73288 0.31170
 H100 H 0.82532 0.73263 0.28427
 H101 H 0.81113 0.69167 0.25685
 H102 H 0.78358 0.67394 0.26576
 H103 H 0.75646 0.68762 0.30719
 H104 H 0.76565 0.71528 0.32522
 H105 H 0.80746 0.74183 0.31168
 C106 C 0.30615 0.21429 -0.21201
 C107 C 0.29679 0.21931 -0.19881
 C108 C 0.28297 0.21092 -0.19465
 C109 C 0.27837 0.19735 -0.20358
 C110 C 0.28763 0.19238 -0.21649
 C111 C 0.30156 0.20099 -0.22082
 C112 C 0.32006 0.22019 -0.21891
 N113 N 0.32410 0.21089 -0.23190
 C114 C 0.31268 0.19907 -0.23301
 C115 C 0.28043 0.17886 -0.22276
 N116 N 0.26686 0.17539 -0.21403
 C117 C 0.26560 0.18683 -0.20227
 C118 C 0.27630 0.21850 -0.18147
 N119 N 0.28574 0.23130 -0.17750
 C120 C 0.29831 0.23185 -0.18808
 H121 H 0.32635 0.23085 -0.21487
 H122 H 0.31244 0.18945 -0.24177
 H123 H 0.28477 0.17238 -0.23321
 H124 H 0.25642 0.18742 -0.19300
 H125 H 0.26548 0.21481 -0.17511
 H126 H 0.30778 0.24084 -0.18814
 C127 C 0.69464 0.28344 -0.21312
 C128 C 0.70381 0.27869 -0.19962
 C129 C 0.71723 0.28752 -0.19511
 C130 C 0.72172 0.30116 -0.20411
 C131 C 0.71267 0.30583 -0.21736
 C132 C 0.69908 0.29684 -0.22197
 C133 C 0.68101 0.27720 -0.22027
 N134 N 0.67699 0.28639 -0.23343
 C135 C 0.68815 0.29847 -0.23443
 C136 C 0.71973 0.31945 -0.22366
 N137 N 0.73302 0.32326 -0.21462
 C138 C 0.73422 0.31195 -0.20262
 C139 C 0.72371 0.28022 -0.18159
 N140 N 0.71459 0.26712 -0.17783
 C141 C 0.70239 0.26611 -0.18883
 H142 H 0.67489 0.26641 -0.21625
 H143 H 0.68831 0.30809 -0.24327
 H144 H 0.71554 0.32574 -0.23435
 H145 H 0.74320 0.31163 -0.19311
 H146 H 0.73441 0.28404 -0.17511
 H147 H 0.69303 0.25701 -0.18886
 C148 C 0.19436 0.78375 0.28636
 C149 C 0.20369 0.77898 0.29974
 C150 C 0.21676 0.78818 0.30450
 C151 C 0.22077 0.80220 0.29588
 C152 C 0.21152 0.80697 0.28281
 C153 C 0.19819 0.79770 0.27800
 C154 C 0.18103 0.77715 0.27894
 N155 N 0.17664 0.78679 0.26633
 C156 C 0.18708 0.79940 0.26570
 C157 C 0.21822 0.82091 0.27681
 N158 N 0.23151 0.82478 0.28582
 C159 C 0.23300 0.81325 0.29757
 C160 C 0.22342 0.78085 0.31791
 N161 N 0.21471 0.76742 0.32141
 C162 C 0.20264 0.76616 0.31030
 H163 H 0.17486 0.76623 0.28258
 H164 H 0.18677 0.80899 0.25678
 H165 H 0.21385 0.82731 0.26625
 H166 H 0.24210 0.81284 0.30697
 H167 H 0.23389 0.78498 0.32458
 H168 H 0.19354 0.75681 0.31011
 C169 C 0.46495 0.44363 0.46329
 C170 C 0.46974 0.45273 0.44977
 C171 C 0.46100 0.46618 0.44522
 C172 C 0.44738 0.47076 0.45416
 C173 C 0.44265 0.46180 0.46749
 C174 C 0.45152 0.44815 0.47210
 C175 C 0.47112 0.43000 0.47048
 N176 N 0.46177 0.42610 0.48346
 C177 C 0.44975 0.43718 0.48451
 C178 C 0.42911 0.46902 0.47378
 N179 N 0.42550 0.48218 0.46461
 C180 C 0.43665 0.48329 0.45257
 C181 C 0.46836 0.47260 0.43173
 N182 N 0.48139 0.46339 0.42797
 C183 C 0.48230 0.45121 0.43899
 H184 H 0.48179 0.42355 0.46664
 H185 H 0.44024 0.43718 0.49350
 H186 H 0.42254 0.46510 0.48442
 H187 H 0.43686 0.49242 0.44319
 H188 H 0.46461 0.48333 0.42528
 H189 H 0.49129 0.44177 0.43905
 C190 C -0.03503 -0.05775 0.96111
 C191 C -0.03002 -0.04838 0.94786
 C192 C -0.03803 -0.03425 0.94413
 C193 C -0.05127 -0.02939 0.95350
 C194 C -0.05624 -0.03867 0.96644
 C195 C -0.04797 -0.05289 0.97037
 C196 C -0.02936 -0.07187 0.96773
 N197 N -0.03845 -0.07577 0.98099
 C198 C -0.04991 -0.06407 0.98254
 C199 C -0.06942 -0.03120 0.97315
 N200 N -0.07271 -0.01746 0.96462
 C201 C -0.06145 -0.01636 0.95257
 C202 C -0.03048 -0.02759 0.93085
 N203 N -0.01812 -0.03737 0.92640
 C204 C -0.01777 -0.05013 0.93675
 H205 H -0.01897 -0.07838 0.96333
 H206 H -0.05928 -0.06363 0.99162
 H207 H -0.07584 -0.03553 0.98370
 H208 H -0.06080 -0.00711 0.94335
 H209 H -0.03387 -0.01653 0.92477
 H210 H -0.00910 -0.05986 0.93638
 C211 C 1.03304 0.55448 0.96298
 C212 C 1.02845 0.54575 0.94921
 C213 C 1.03719 0.53235 0.94465
 C214 C 1.05060 0.52747 0.95384
 C215 C 1.05500 0.53598 0.96746
 C216 C 1.04614 0.54958 0.97208
 C217 C 1.02689 0.56804 0.97018
 N218 N 1.03589 0.57160 0.98358
 C219 C 1.04770 0.56019 0.98473
 C220 C 1.06838 0.52855 0.97393
 N221 N 1.07240 0.51564 0.96457
 C222 C 1.06140 0.51503 0.95222
 C223 C 1.03002 0.52629 0.93092
 N224 N 1.01710 0.53566 0.92704
 C225 C 1.01610 0.54761 0.93820
 H226 H 1.01635 0.57446 0.96595
 H227 H 1.05714 0.55967 0.99377
 H228 H 1.07478 0.53271 0.98454
 H229 H 1.06088 0.50612 0.94273
 H230 H 1.03378 0.51566 0.92441
 H231 H 1.00714 0.55709 0.93824
 C232 C 0.53344 0.05546 0.46234
 C233 C 0.52843 0.04630 0.44902
 C234 C 0.53702 0.03275 0.44463
 C235 C 0.55072 0.02814 0.45353
 C236 C 0.55569 0.03719 0.46658
 C237 C 0.54695 0.05091 0.47110
 C238 C 0.52740 0.06914 0.46942
 N239 N 0.53686 0.07296 0.48233
 C240 C 0.54886 0.06185 0.48342
 C241 C 0.56934 0.03002 0.47278
 N242 N 0.57288 0.01668 0.46386
 C243 C 0.56136 0.01555 0.45205
 C244 C 0.52945 0.02628 0.43130
 N245 N 0.51645 0.03556 0.42749
 C246 C 0.51576 0.04783 0.43832
 H247 H 0.51671 0.07565 0.46563
 H248 H 0.55838 0.06180 0.49243
 H249 H 0.57585 0.03422 0.48331
 H250 H 0.56079 0.00655 0.44264
 H251 H 0.53306 0.01548 0.42498
 H252 H 0.50684 0.05734 0.43829
 C253 C -0.03394 0.05575 0.53737
 C254 C -0.02914 0.04638 0.55070
 C255 C -0.03755 0.03252 0.55461
 C256 C -0.05097 0.02792 0.54532
 C257 C -0.05574 0.03720 0.53222
 C258 C -0.04712 0.05118 0.52817
 C259 C -0.02793 0.06970 0.53065
 N260 N -0.03712 0.07371 0.51757
 C261 C -0.04891 0.06241 0.51601
 C262 C -0.06913 0.02995 0.52557
 N263 N -0.07263 0.01649 0.53433
 C264 C -0.06153 0.01518 0.54643
 C265 C -0.03016 0.02582 0.56797
 N266 N -0.01751 0.03532 0.57231
 C267 C -0.01682 0.04794 0.56180
 H268 H -0.01744 0.07625 0.53484
 H269 H -0.05823 0.06241 0.50679
 H270 H -0.07573 0.03413 0.51504
 H271 H -0.06129 0.00583 0.55559
 H272 H -0.03385 0.01494 0.57420
 H273 H -0.00789 0.05745 0.56208
 C274 C 0.46691 0.55537 0.03705
 C275 C 0.47137 0.54624 0.05068
 C276 C 0.46301 0.53234 0.05449
 C277 C 0.44998 0.52745 0.04482
 C278 C 0.44563 0.53642 0.03135
 C279 C 0.45423 0.55045 0.02741
 C280 C 0.47289 0.56936 0.03045
 N281 N 0.46424 0.57315 0.01685
 C282 C 0.45277 0.56148 0.01502
 C283 C 0.43252 0.52894 0.02439
 N284 N 0.42875 0.51570 0.03335
 C285 C 0.43943 0.51470 0.04585
 C286 C 0.47005 0.52588 0.06816
 N287 N 0.48247 0.53555 0.07276
 C288 C 0.48332 0.54807 0.06214
 H289 H 0.48316 0.57590 0.03514
 H290 H 0.44364 0.56103 0.00565
 H291 H 0.42597 0.53310 0.01381
 H292 H 0.43958 0.50536 0.05503
 H293 H 0.46632 0.51500 0.07437
 H294 H 0.49217 0.55765 0.06253
 C295 C 0.53401 -0.05345 0.03797
 C296 C 0.52932 -0.04441 0.05148
 C297 C 0.53843 -0.03132 0.05626
 C298 C 0.55232 -0.02703 0.04755
 C299 C 0.55699 -0.03597 0.03427
 C300 C 0.54778 -0.04930 0.02946
 C301 C 0.52746 -0.06673 0.03056
 N302 N 0.53695 -0.07080 0.01779
 C303 C 0.54943 -0.06019 0.01705
 C304 C 0.57081 -0.02901 0.02818
 N305 N 0.57464 -0.01604 0.03742
 C306 C 0.56336 -0.01479 0.04932
 C307 C 0.53110 -0.02490 0.06971
 N308 N 0.51774 -0.03378 0.07324
 C309 C 0.51658 -0.04573 0.06209
 H310 H 0.51668 -0.07310 0.03432
 H311 H 0.55891 -0.06024 0.00803
 H312 H 0.57739 -0.03296 0.01760
 H313 H 0.56324 -0.00573 0.05870
 H314 H 0.53512 -0.01441 0.07632
 H315 H 0.50731 -0.05491 0.06185
 C316 C 1.03278 0.44626 0.53696
 C317 C 1.02793 0.45545 0.55030
 C318 C 1.03669 0.46892 0.55468
 C319 C 1.05038 0.47341 0.54574
 C320 C 1.05519 0.46433 0.53268
 C321 C 1.04630 0.45068 0.52819
 C322 C 1.02657 0.43263 0.52988
 N323 N 1.03597 0.42867 0.51700
 C324 C 1.04808 0.43969 0.51591
 C325 C 1.06886 0.47141 0.52644
 N326 N 1.07255 0.48474 0.53533
 C327 C 1.06113 0.48593 0.54719
 C328 C 1.02932 0.47540 0.56808
 N329 N 1.01629 0.46621 0.57196
 C330 C 1.01536 0.45398 0.56109
 H331 H 1.01583 0.42624 0.53370
 H332 H 1.05761 0.43964 0.50695
 H333 H 1.07526 0.46717 0.51588
 H334 H 1.06068 0.49494 0.55659
 H335 H 1.03311 0.48614 0.57442
 H336 H 1.00637 0.44452 0.56118
 C337 C 0.39897 0.00834 0.22837
 H338 H 0.39950 0.01923 0.23548
 C339 C 0.40973 0.00612 0.21556
 H340 H 0.41859 0.01536 0.21294
 C341 C 0.38708 -0.01713 0.22355
 H342 H 0.37841 -0.02628 0.22683
 C343 C 0.39764 -0.01986 0.21067
 H344 H 0.39671 -0.03098 0.20395
 N345 N 0.38777 -0.00310 0.23196
 C346 C 0.34865 0.02203 0.25648
 H347 H 0.34746 0.01450 0.26714
 C348 C 0.33813 0.03493 0.25408
 H349 H 0.32874 0.03712 0.26292
 C350 C 0.36201 0.02781 0.23176
 H351 H 0.37118 0.02489 0.22297
 C352 C 0.35182 0.04091 0.22894
 H353 H 0.35357 0.04813 0.21813
 Zn354 Zn 0.37380 0.00082 0.24967
 N355 N 0.36038 0.01879 0.24546
 C356 C 0.38600 0.01873 0.27634
 N357 N 0.38696 0.00467 0.26801
 C358 C 0.39787 -0.00685 0.27216
 C359 C 0.40819 -0.00461 0.28535
 C360 C 0.39612 0.02149 0.28959
 C361 C 0.34955 -0.02126 0.24153
 C362 C 0.33894 -0.03414 0.24378
 C363 C 0.34972 -0.03772 0.27078
 C364 C 0.36021 -0.02485 0.26796
 N365 N 0.36007 -0.01703 0.25344
 H366 H 0.37746 0.02786 0.27267
 H367 H 0.39856 -0.01780 0.26515
 H368 H 0.41689 -0.01387 0.28837
 H369 H 0.39505 0.03267 0.29620
 H370 H 0.34949 -0.01465 0.23020
 H371 H 0.33095 -0.03753 0.23397
 H372 H 0.34988 -0.04360 0.28251
 H373 H 0.36828 -0.02100 0.27747
 C374 C 0.33967 0.04465 0.24019
 C375 C 0.40911 -0.00811 0.20648
 C376 C 0.33893 -0.04258 0.25858
 C377 C 0.40739 0.00972 0.29427
 C378 C 0.10068 -0.00849 0.72818
 H379 H 0.09988 -0.01928 0.73552
 C380 C 0.08999 -0.00617 0.71528
 H381 H 0.08089 -0.01520 0.71288
 C382 C 0.11314 0.01665 0.72296
 H383 H 0.12200 0.02565 0.72612
 C384 C 0.10279 0.01942 0.70987
 H385 H 0.10412 0.03039 0.70288
 N386 N 0.11203 0.00279 0.73170
 C387 C 0.15012 -0.02318 0.75734
 H388 H 0.15055 -0.01651 0.76856
 C389 C 0.16066 -0.03604 0.75491
 H390 H 0.16896 -0.03936 0.76450
 C391 C 0.13858 -0.02694 0.73134
 H392 H 0.13015 -0.02318 0.72207
 C393 C 0.14899 -0.03980 0.72834
 H394 H 0.14844 -0.04576 0.71672
 Zn395 Zn 0.12561 -0.00122 0.74977
 N396 N 0.13922 -0.01903 0.74572
 C397 C 0.11311 -0.01916 0.77650
 N398 N 0.11200 -0.00530 0.76776
 C399 C 0.10062 0.00595 0.77123
 C400 C 0.08993 0.00360 0.78409
 C401 C 0.10274 -0.02196 0.78955
 C402 C 0.15004 0.02088 0.74234
 C403 C 0.16047 0.03384 0.74479
 C404 C 0.14869 0.03758 0.77128
 C405 C 0.13838 0.02462 0.76826
 N406 N 0.13912 0.01668 0.75390
 H407 H 0.12199 -0.02813 0.77338
 H408 H 0.09982 0.01674 0.76390
 H409 H 0.08082 0.01262 0.78646
 H410 H 0.10406 -0.03293 0.79654
 H411 H 0.15054 0.01418 0.73114
 H412 H 0.16878 0.03720 0.73524
 H413 H 0.14806 0.04357 0.78288
 H414 H 0.12995 0.02082 0.77749
 C415 C 0.16019 -0.04457 0.74024
 C416 C 0.09098 0.00793 0.70587
 C417 C 0.15990 0.04241 0.75943
 C418 C 0.09093 -0.01049 0.79350
 C419 C 0.59945 0.49245 0.22969
 H420 H 0.59839 0.48181 0.23722
 C421 C 0.58879 0.49483 0.21678
 H422 H 0.57945 0.48599 0.21456
 C423 C 0.61258 0.51715 0.22397
 H424 H 0.62171 0.52594 0.22691
 C425 C 0.60224 0.51996 0.21086
 H426 H 0.60384 0.53077 0.20367
 N427 N 0.61113 0.50348 0.23296
 C428 C 0.64924 0.47754 0.25851
 H429 H 0.65001 0.48454 0.26951
 C430 C 0.65968 0.46459 0.25615
 H431 H 0.66833 0.46155 0.26553
 C432 C 0.63690 0.47302 0.23300
 H433 H 0.62819 0.47651 0.22388
 C434 C 0.64711 0.45998 0.23014
 H435 H 0.64615 0.45358 0.21877
 Zn436 Zn 0.62469 0.49944 0.25102
 N437 N 0.63804 0.48141 0.24708
 C438 C 0.61192 0.48152 0.27752
 N439 N 0.61112 0.49558 0.26907
 C440 C 0.60007 0.50706 0.27284
 C441 C 0.58947 0.50477 0.28579
 C442 C 0.60154 0.47873 0.29057
 C443 C 0.64968 0.52089 0.24350
 C444 C 0.66026 0.53377 0.24577
 C445 C 0.64785 0.53863 0.27177
 C446 C 0.63750 0.52566 0.26900
 N447 N 0.63844 0.51723 0.25494
 H448 H 0.62046 0.47234 0.27408
 H449 H 0.59954 0.51803 0.26576
 H450 H 0.58096 0.51419 0.28876
 H451 H 0.60224 0.46739 0.29703
 H452 H 0.65033 0.51382 0.23254
 H453 H 0.66889 0.53668 0.23636
 H454 H 0.64700 0.54511 0.28309
 H455 H 0.62883 0.52230 0.27816
 C456 C 0.65870 0.45560 0.24181
 C457 C 0.59013 0.50872 0.20711
 C458 C 0.65939 0.54288 0.26004
 C459 C 0.59014 0.49046 0.29487
 C460 C 0.89870 0.50821 0.72801
 H461 H 0.89919 0.51915 0.73504
 C462 C 0.90933 0.50603 0.71508
 H463 H 0.91804 0.51535 0.71227
 C464 C 0.88708 0.48255 0.72354
 H465 H 0.87858 0.47331 0.72700
 C466 C 0.89751 0.47985 0.71055
 H467 H 0.89664 0.46867 0.70393
 N468 N 0.88769 0.49666 0.73183
 C469 C 0.84872 0.52161 0.75681
 H470 H 0.84775 0.51415 0.76754
 C471 C 0.83805 0.53441 0.75448
 H472 H 0.82878 0.53659 0.76344
 C473 C 0.86164 0.52730 0.73183
 H474 H 0.87068 0.52439 0.72292
 C475 C 0.85130 0.54030 0.72907
 H476 H 0.85282 0.54745 0.71819
 Zn477 Zn 0.87390 0.50051 0.74970
 N478 N 0.86030 0.51838 0.74562
 C479 C 0.88635 0.51848 0.77623
 N480 N 0.88728 0.50445 0.76786
 C481 C 0.89836 0.49302 0.77178
 C482 C 0.90894 0.49535 0.78475
 C483 C 0.89670 0.52132 0.78929
 C484 C 0.84982 0.47820 0.74178
 C485 C 0.83940 0.46518 0.74409
 C486 C 0.85037 0.46175 0.77104
 C487 C 0.86070 0.47473 0.76815
 N488 N 0.86036 0.48255 0.75363
 H489 H 0.87772 0.52758 0.77269
 H490 H 0.89896 0.48205 0.76480
 H491 H 0.91751 0.48599 0.78782
 H492 H 0.89593 0.53264 0.79568
 H493 H 0.84955 0.48487 0.73049
 H494 H 0.83109 0.46188 0.73452
 H495 H 0.85089 0.45555 0.78260
 H496 H 0.86887 0.47860 0.77758
 C497 C 0.83929 0.54402 0.74048
 C498 C 0.90877 0.49171 0.70612
 C499 C 0.83961 0.45678 0.75888
 C500 C 0.90821 0.50967 0.79370
 C501 C 0.21954 0.38805 0.00532
 H502 H 0.21957 0.37986 0.01551
 C503 C 0.20637 0.39829 0.00298
 H504 H 0.19640 0.39783 0.01144
 C505 C 0.23280 0.39921 -0.01753
 H506 H 0.24323 0.39953 -0.02541
 C507 C 0.21988 0.40965 -0.02034
 H508 H 0.22037 0.41781 -0.03059
 N509 N 0.23232 0.38854 -0.00500
 C510 C 0.25764 0.36224 0.02944
 H511 H 0.26766 0.37055 0.02946
 C512 C 0.25527 0.35208 0.04275
 H513 H 0.26335 0.35293 0.05305
 C514 C 0.23505 0.35090 0.01601
 H515 H 0.22733 0.35043 0.00543
 C516 C 0.23219 0.34057 0.02908
 H517 H 0.22228 0.33210 0.02844
 Zn518 Zn 0.25048 0.37503 -0.00186
 N519 N 0.24745 0.36161 0.01650
 C520 C 0.26811 0.39939 0.01333
 N521 N 0.26866 0.38856 0.00103
 C522 C 0.28152 0.38791 -0.00918
 C523 C 0.29469 0.39817 -0.00697
 C524 C 0.28104 0.40983 0.01602
 C525 C 0.24334 0.36190 -0.03290
 C526 C 0.24565 0.35150 -0.04595
 C527 C 0.26853 0.33998 -0.03190
 C528 C 0.26576 0.35057 -0.01911
 N529 N 0.25347 0.36138 -0.01991
 H530 H 0.25759 0.39987 0.02107
 H531 H 0.28158 0.37950 -0.01912
 H532 H 0.30493 0.39731 -0.01507
 H533 H 0.28035 0.41840 0.02583
 H534 H 0.23340 0.37029 -0.03317
 H535 H 0.23762 0.35226 -0.05630
 H536 H 0.27833 0.33141 -0.03098
 H537 H 0.27343 0.35019 -0.00849
 C538 C 0.24235 0.34112 0.04272
 C539 C 0.20640 0.40925 -0.01003
 C540 C 0.25842 0.34040 -0.04558
 C541 C 0.29460 0.40927 0.00582
 C542 C 0.72994 0.10105 -0.00687
 H543 H 0.73668 0.10054 -0.01809
 C544 C 0.71707 0.09049 -0.00428
 H545 H 0.71383 0.08203 -0.01368
 C546 C 0.72600 0.11282 0.01892
 H547 H 0.72971 0.12131 0.02807
 C548 C 0.71304 0.10250 0.02202
 H549 H 0.70688 0.10319 0.03357
 N550 N 0.73404 0.11203 0.00458
 C551 C 0.75949 0.14904 -0.02297
 H552 H 0.77086 0.14930 -0.01649
 C553 C 0.75701 0.15932 -0.03616
 H554 H 0.76652 0.16753 -0.03976
 C555 C 0.73311 0.13833 -0.02578
 H556 H 0.72374 0.13030 -0.02156
 C557 C 0.73005 0.14851 -0.03895
 H558 H 0.71843 0.14799 -0.04495
 Zn559 Zn 0.75193 0.12552 0.00011
 N560 N 0.74770 0.13868 -0.01818
 C561 C 0.77742 0.11181 -0.01837
 N562 N 0.76984 0.11191 -0.00376
 C563 C 0.77437 0.10172 0.00834
 C564 C 0.78733 0.09121 0.00618
 C565 C 0.79037 0.10142 -0.02110
 C566 C 0.74436 0.15021 0.02165
 C567 C 0.74667 0.16097 0.03439
 C568 C 0.77324 0.14970 0.03862
 C569 C 0.77042 0.13915 0.02579
 N570 N 0.75607 0.13944 0.01775
 H571 H 0.77332 0.11961 -0.02803
 H572 H 0.76795 0.10184 0.01975
 H573 H 0.79096 0.08348 0.01613
 H574 H 0.79608 0.10138 -0.03290
 H575 H 0.73316 0.15035 0.01488
 H576 H 0.73706 0.16922 0.03751
 H577 H 0.78479 0.14938 0.04479
 H578 H 0.77979 0.13088 0.02220
 C579 C 0.74212 0.15913 -0.04432
 C580 C 0.70840 0.09115 0.01032
 C581 C 0.76125 0.16076 0.04311
 C582 C 0.79554 0.09097 -0.00871
 C583 C 0.22728 0.60210 0.49195
 H584 H 0.23375 0.60209 0.48057
 C585 C 0.21425 0.59168 0.49426
 H586 H 0.21061 0.58388 0.48443
 C587 C 0.22417 0.61248 0.51846
 H588 H 0.22828 0.62038 0.52798
 C589 C 0.21115 0.60218 0.52133
 H590 H 0.20539 0.60228 0.53310
 N591 N 0.23183 0.61237 0.50389
 C592 C 0.25787 0.64990 0.47752
 H593 H 0.26917 0.64992 0.48411
 C594 C 0.25563 0.66041 0.46446
 H595 H 0.26527 0.66856 0.46108
 C596 C 0.23140 0.63952 0.47425
 H597 H 0.22189 0.63155 0.47823
 C598 C 0.22861 0.64992 0.46120
 H599 H 0.21705 0.64959 0.45506
 Zn600 Zn 0.24990 0.62577 0.49989
 N601 N 0.24593 0.63954 0.48197
 C602 C 0.27579 0.61261 0.48146
 N603 N 0.26766 0.61205 0.49577
 C604 C 0.27154 0.60110 0.50743
 C605 C 0.28431 0.59041 0.50511
 C606 C 0.28866 0.60215 0.47863
 C607 C 0.24252 0.64984 0.52215
 C608 C 0.24487 0.66016 0.53524
 C609 C 0.27119 0.64829 0.53941
 C610 C 0.26833 0.63820 0.52622
 N611 N 0.25409 0.63903 0.51801
 H612 H 0.27222 0.62103 0.47212
 H613 H 0.26471 0.60075 0.51859
 H614 H 0.28739 0.58199 0.51467
 H615 H 0.29489 0.60268 0.46711
 H616 H 0.23139 0.65038 0.51527
 H617 H 0.23538 0.66848 0.53851
 H618 H 0.28265 0.64757 0.54570
 H619 H 0.27757 0.62984 0.52249
 C620 C 0.24085 0.66047 0.45610
 C621 C 0.20598 0.59161 0.50912
 C622 C 0.25936 0.65945 0.54410
 C623 C 0.29309 0.59088 0.49056
 C624 C 0.72767 0.89919 0.50650
 H625 H 0.73432 0.89933 0.51780
 C626 C 0.71473 0.90970 0.50417
 H627 H 0.71133 0.91770 0.51390
 C628 C 0.72404 0.88837 0.48023
 H629 H 0.72789 0.88025 0.47081
 C630 C 0.71110 0.89876 0.47733
 H631 H 0.70516 0.89850 0.46564
 N632 N 0.73191 0.88864 0.49471
 C633 C 0.75731 0.85042 0.52071
 H634 H 0.76837 0.84996 0.51377
 C635 C 0.75500 0.83985 0.53370
 H636 H 0.76448 0.83141 0.53683
 C637 C 0.73157 0.86207 0.52503
 H638 H 0.72231 0.87050 0.52141
 C639 C 0.72877 0.85174 0.53812
 H640 H 0.71736 0.85238 0.54446
 Zn641 Zn 0.74979 0.87500 0.49875
 N642 N 0.74576 0.86138 0.51676
 C643 C 0.77619 0.88757 0.51693
 N644 N 0.76783 0.88842 0.50275
 C645 C 0.77173 0.89941 0.49114
 C646 C 0.78471 0.90989 0.49341
 C647 C 0.78928 0.89781 0.51970
 C648 C 0.74202 0.85076 0.47674
 C649 C 0.74429 0.84019 0.46384
 C650 C 0.77070 0.85180 0.45954
 C651 C 0.76792 0.86215 0.47253
 N652 N 0.75369 0.86155 0.48073
 H653 H 0.77265 0.87907 0.52621
 H654 H 0.76473 0.89998 0.48006
 H655 H 0.78778 0.91836 0.48389
 H656 H 0.79569 0.89705 0.53113
 H657 H 0.73090 0.85040 0.48361
 H658 H 0.73473 0.83186 0.46070
 H659 H 0.78218 0.85232 0.45329
 H660 H 0.77724 0.87050 0.47615
 C661 C 0.74060 0.84047 0.54264
 C662 C 0.70622 0.90958 0.48942
 C663 C 0.75879 0.84063 0.45504
 C664 C 0.79371 0.90915 0.50784
 C665 C 0.00724 0.22992 0.40104
 H666 H 0.01832 0.23680 0.40165
 C667 C 0.00473 0.21712 0.41176
 H668 H 0.01406 0.21407 0.42045
 C669 C -0.01832 0.22556 0.38888
 H670 H -0.02744 0.22907 0.38020
 C671 C -0.02134 0.21267 0.39936
 H672 H -0.03277 0.20640 0.39857
 N673 N -0.00411 0.23373 0.38973
 C674 C 0.02161 0.25828 0.35070
 H675 H 0.01416 0.26890 0.34949
 C676 C 0.03459 0.25594 0.34019
 H677 H 0.03691 0.26478 0.33081
 C678 C 0.02713 0.23360 0.36406
 H679 H 0.02407 0.22482 0.37323
 C680 C 0.04030 0.23084 0.35389
 H681 H 0.04744 0.22006 0.35566
 Zn682 Zn 0.00015 0.25142 0.37580
 N683 N 0.01821 0.24725 0.36242
 C684 C 0.01837 0.27766 0.38820
 N685 N 0.00416 0.26947 0.38909
 C686 C -0.00739 0.27357 0.40001
 C687 C -0.00502 0.28657 0.41041
 C688 C 0.02126 0.29072 0.39839
 C689 C -0.02198 0.24366 0.35133
 C690 C -0.03490 0.24600 0.34069
 C691 C -0.03832 0.27272 0.35155
 C692 C -0.02543 0.26982 0.36210
 N693 N -0.01767 0.25540 0.36193
 H694 H 0.02752 0.27404 0.37965
 H695 H -0.01846 0.26667 0.40065
 H696 H -0.01431 0.28955 0.41911
 H697 H 0.03255 0.29722 0.39736
 H698 H -0.01536 0.23244 0.35120
 H699 H -0.03817 0.23652 0.33233
 H700 H -0.04448 0.28420 0.35195
 H701 H -0.02159 0.27915 0.37031
 C702 C 0.04421 0.24209 0.34175
 C703 C -0.00970 0.20825 0.41095
 C704 C -0.04325 0.26068 0.34073
 C705 C 0.00946 0.29534 0.40967
 C706 C -0.00811 0.72546 0.10059
 H707 H -0.01955 0.73174 0.10038
 C708 C -0.00557 0.71242 0.09030
 H709 H -0.01527 0.70858 0.08241
 C710 C 0.01831 0.72285 0.11135
 H711 H 0.02769 0.72714 0.11937
 C712 C 0.02141 0.70983 0.10118
 H713 H 0.03322 0.70426 0.10149
 N714 N 0.00369 0.73029 0.11096
 C715 C -0.02305 0.75625 0.14807
 H716 H -0.01684 0.76770 0.14775
 C717 C -0.03594 0.75392 0.15872
 H718 H -0.03972 0.76376 0.16636
 C719 C -0.02568 0.72963 0.13828
 H720 H -0.02145 0.72009 0.13054
 C721 C -0.03855 0.72673 0.14882
 H722 H -0.04406 0.71492 0.14904
 Zn723 Zn -0.00063 0.74839 0.12406
 N724 N -0.01836 0.74428 0.13795
 C725 C -0.01989 0.77315 0.11002
 N726 N -0.00521 0.76580 0.10989
 C727 C 0.00638 0.77022 0.09910
 C728 C 0.00367 0.78289 0.08828
 C729 C -0.02316 0.78580 0.09933
 C730 C 0.02126 0.74191 0.14892
 C731 C 0.03419 0.74454 0.15946
 C732 C 0.03881 0.77016 0.14634
 C733 C 0.02570 0.76709 0.13614
 N734 N 0.01736 0.75304 0.13746
 H735 H -0.02917 0.76911 0.11826
 H736 H 0.01783 0.76395 0.09902
 H737 H 0.01325 0.78648 0.08012
 H738 H -0.03498 0.79135 0.09952
 H739 H 0.01423 0.73097 0.14990
 H740 H 0.03690 0.73559 0.16863
 H741 H 0.04550 0.78126 0.14483
 H742 H 0.02222 0.77597 0.12722
 C743 C -0.04391 0.73899 0.15918
 C744 C 0.00937 0.70442 0.09047
 C745 C 0.04324 0.75880 0.15821
 C746 C -0.01126 0.79093 0.08833
 C747 C 0.49224 0.22586 0.60115
 H748 H 0.48067 0.23189 0.60139
 C749 C 0.49473 0.21304 0.59057
 H750 H 0.48503 0.20928 0.58263
 C751 C 0.51910 0.22376 0.61092
 H752 H 0.52864 0.22812 0.61867
 C753 C 0.52215 0.21097 0.60043
 H754 H 0.53396 0.20539 0.60048
 N755 N 0.50426 0.23078 0.61123
 C756 C 0.47771 0.25543 0.64944
 H757 H 0.48378 0.26696 0.64928
 C758 C 0.46500 0.25271 0.66020
 H759 H 0.46118 0.26236 0.66809
 C760 C 0.47529 0.22899 0.63912
 H761 H 0.47955 0.21966 0.63114
 C762 C 0.46261 0.22570 0.64978
 H763 H 0.45726 0.21382 0.64983
 Zn764 Zn 0.49990 0.24843 0.62498
 N765 N 0.48241 0.24374 0.63899
 C766 C 0.48049 0.27376 0.61202
 N767 N 0.49506 0.26623 0.61143
 C768 C 0.50655 0.27080 0.60059
 C769 C 0.50378 0.28368 0.59005
 C770 C 0.47721 0.28673 0.60171
 C771 C 0.52309 0.24115 0.64850
 C772 C 0.53621 0.24377 0.65880
 C773 C 0.53814 0.27093 0.64840
 C774 C 0.52508 0.26773 0.63817
 N775 N 0.51796 0.25298 0.63828
 H776 H 0.47131 0.26966 0.62035
 H777 H 0.51795 0.26444 0.60023
 H778 H 0.51321 0.28731 0.58173
 H779 H 0.46551 0.29249 0.60226
 H780 H 0.51698 0.22965 0.64858
 H781 H 0.54012 0.23423 0.66686
 H782 H 0.54378 0.28268 0.64807
 H783 H 0.52057 0.27711 0.63027
 C784 C 0.45722 0.23768 0.66046
 C785 C 0.50985 0.20541 0.59015
 C786 C 0.54390 0.25882 0.65882
 C787 C 0.48896 0.29187 0.59056
 C788 C 0.50822 0.72986 0.90169
 H789 H 0.51925 0.73681 0.90234
 C790 C 0.50586 0.71687 0.91221
 H791 H 0.51515 0.71385 0.92097
 C792 C 0.48251 0.72565 0.88977
 H793 H 0.47336 0.72920 0.88112
 C794 C 0.47958 0.71268 0.90017
 H795 H 0.46828 0.70618 0.89924
 N796 N 0.49671 0.73384 0.89060
 C797 C 0.52132 0.75883 0.85109
 H798 H 0.51365 0.76931 0.84990
 C799 C 0.53409 0.75655 0.84031
 H800 H 0.53605 0.76530 0.83076
 C801 C 0.52753 0.73442 0.86463
 H802 H 0.52484 0.72569 0.87395
 C803 C 0.54049 0.73172 0.85419
 H804 H 0.54783 0.72108 0.85592
 Zn805 Zn 0.50052 0.75176 0.87686
 N806 N 0.51837 0.74791 0.86305
 C807 C 0.51788 0.77908 0.88817
 N808 N 0.50452 0.76976 0.89026
 C809 C 0.49383 0.77274 0.90238
 C810 C 0.49626 0.78564 0.91288
 C811 C 0.52070 0.79219 0.89831
 C812 C 0.47913 0.74458 0.85171
 C813 C 0.46613 0.74683 0.84115
 C814 C 0.45992 0.77163 0.85496
 C815 C 0.47311 0.76895 0.86519
 N816 N 0.48232 0.75553 0.86348
 H817 H 0.52641 0.77634 0.87869
 H818 H 0.48339 0.76503 0.90387
 H819 H 0.48753 0.78793 0.92235
 H820 H 0.53143 0.79944 0.89653
 H821 H 0.48680 0.73413 0.85047
 H822 H 0.46399 0.73809 0.83170
 H823 H 0.45257 0.78224 0.85674
 H824 H 0.47596 0.77762 0.87448
 C825 C 0.54394 0.74286 0.84181
 C826 C 0.49139 0.70810 0.91151
 C827 C 0.45628 0.76050 0.84271
 C828 C 0.50982 0.79560 0.91086
 C829 C 0.13848 0.22394 0.26612
 C830 C 0.14344 0.20826 0.26227
 C831 C 0.15646 0.20575 0.25183
 C832 C 0.16469 0.21886 0.24489
 C833 C 0.15967 0.23454 0.24868
 C834 C 0.14675 0.23706 0.25926
 C835 C 0.12470 0.22659 0.27724
 C836 C 0.12571 0.23815 0.28957
 C837 C 0.11275 0.24058 0.30011
 C838 C 0.09842 0.23162 0.29847
 C839 C 0.09743 0.22011 0.28606
 C840 C 0.11044 0.21757 0.27562
 C841 C 0.08458 0.23429 0.30962
 C842 C 0.07501 0.22131 0.31491
 C843 C 0.06193 0.22383 0.32528
 C844 C 0.05815 0.23938 0.33072
 C845 C 0.06777 0.25235 0.32551
 C846 C 0.08078 0.24984 0.31505
 H847 H 0.13734 0.19793 0.26748
 H848 H 0.15997 0.19354 0.24900
 H849 H 0.16588 0.24486 0.24362
 H850 H 0.14310 0.24927 0.26193
 H851 H 0.13664 0.24511 0.29122
 H852 H 0.11406 0.24934 0.30970
 H853 H 0.08649 0.21320 0.28424
 H854 H 0.10927 0.20874 0.26608
 H855 H 0.07770 0.20914 0.31115
 H856 H 0.05466 0.21359 0.32887
 H857 H 0.06536 0.26445 0.32963
 H858 H 0.08775 0.26014 0.31107
 C859 C 0.63781 0.72401 0.76588
 C860 C 0.64616 0.73698 0.75883
 C861 C 0.65909 0.73424 0.74832
 C862 C 0.66405 0.71848 0.74480
 C863 C 0.65577 0.70552 0.75196
 C864 C 0.64274 0.70825 0.76233
 C865 C 0.62399 0.72690 0.77689
 C866 C 0.60974 0.71784 0.77539
 C867 C 0.59671 0.72055 0.78576
 C868 C 0.59767 0.73228 0.79797
 C869 C 0.61196 0.74131 0.79945
 C870 C 0.62495 0.73870 0.78898
 C871 C 0.58385 0.73502 0.80914
 C872 C 0.57996 0.75062 0.81436
 C873 C 0.56706 0.75316 0.82495
 C874 C 0.55765 0.74017 0.83050
 C875 C 0.56149 0.72459 0.82520
 C876 C 0.57446 0.72203 0.81471
 H877 H 0.64253 0.74925 0.76128
 H878 H 0.66533 0.74445 0.74309
 H879 H 0.65923 0.69325 0.74934
 H880 H 0.63660 0.69803 0.76770
 H881 H 0.60860 0.70883 0.76602
 H882 H 0.58578 0.71359 0.78407
 H883 H 0.61324 0.75024 0.80888
 H884 H 0.63587 0.74570 0.79053
 H885 H 0.58680 0.76092 0.81015
 H886 H 0.56458 0.76530 0.82893
 H887 H 0.55438 0.71433 0.82904
 H888 H 0.57722 0.70984 0.81111
 C889 C 0.36259 0.77836 0.76585
 C890 C 0.35434 0.76519 0.75916
 C891 C 0.34145 0.76761 0.74848
 C892 C 0.33643 0.78326 0.74439
 C893 C 0.34466 0.79643 0.75112
 C894 C 0.35766 0.79401 0.76168
 C895 C 0.37628 0.77579 0.77718
 C896 C 0.39051 0.78487 0.77567
 C897 C 0.40343 0.78239 0.78631
 C898 C 0.40237 0.77085 0.79878
 C899 C 0.38808 0.76182 0.80031
 C900 C 0.37521 0.76422 0.78960
 C901 C 0.41613 0.76822 0.81011
 C902 C 0.42001 0.75265 0.81559
 C903 C 0.43294 0.75017 0.82621
 C904 C 0.44239 0.76317 0.83155
 C905 C 0.43852 0.77874 0.82607
 C906 C 0.42552 0.78124 0.81552
 H907 H 0.35798 0.75300 0.76207
 H908 H 0.33523 0.75725 0.74360
 H909 H 0.34115 0.80861 0.74807
 H910 H 0.36373 0.80438 0.76676
 H911 H 0.39174 0.79372 0.76608
 H912 H 0.41436 0.78935 0.78459
 H913 H 0.38673 0.75305 0.80995
 H914 H 0.36429 0.75721 0.79117
 H915 H 0.41317 0.74232 0.81152
 H916 H 0.43545 0.73804 0.83034
 H917 H 0.44565 0.78901 0.82976
 H918 H 0.42275 0.79341 0.81172
 C919 C -0.13715 0.27957 0.26440
 C920 C -0.13775 0.27199 0.24924
 C921 C -0.15080 0.27447 0.23876
 C922 C -0.16367 0.28476 0.24303
 C923 C -0.16289 0.29241 0.25827
 C924 C -0.14990 0.28979 0.26878
 C925 C -0.12331 0.27681 0.27559
 C926 C -0.11719 0.28940 0.28513
 C927 C -0.10425 0.28678 0.29570
 C928 C -0.09701 0.27152 0.29692
 C929 C -0.10308 0.25895 0.28734
 C930 C -0.11610 0.26154 0.27685
 C931 C -0.08319 0.26874 0.30815
 C932 C -0.08175 0.25414 0.31672
 C933 C -0.06875 0.25151 0.32722
 C934 C -0.05697 0.26345 0.32951
 C935 C -0.05842 0.27806 0.32102
 C936 C -0.07134 0.28065 0.31041
 H937 H -0.12797 0.26431 0.24531
 H938 H -0.15038 0.26856 0.22714
 H939 H -0.17248 0.30012 0.26250
 H940 H -0.15000 0.29557 0.28051
 H941 H -0.12231 0.30136 0.28433
 H942 H -0.10002 0.29669 0.30305
 H943 H -0.09768 0.24710 0.28780
 H944 H -0.12063 0.25151 0.26985
 H945 H -0.09080 0.24482 0.31551
 H946 H -0.06804 0.24021 0.33378
 H947 H -0.04939 0.28739 0.32239
 H948 H -0.07190 0.29191 0.30379
 C949 C -0.13786 0.72052 0.23528
 C950 C -0.15032 0.70989 0.23111
 C951 C -0.16331 0.70732 0.24160
 C952 C -0.16433 0.71545 0.25658
 C953 C -0.15170 0.72618 0.26059
 C954 C -0.13865 0.72860 0.25013
 C955 C -0.12406 0.72319 0.22414
 C956 C -0.10818 0.72361 0.23012
 C957 C -0.09517 0.72607 0.21962
 C958 C -0.09777 0.72830 0.20290
 C959 C -0.11370 0.72794 0.19696
 C960 C -0.12669 0.72535 0.20745
 C961 C -0.08395 0.73100 0.19172
 C962 C -0.08393 0.72424 0.17613
 C963 C -0.07098 0.72685 0.16559
 C964 C -0.05768 0.73621 0.17041
 C965 C -0.05767 0.74291 0.18603
 C966 C -0.07065 0.74038 0.19653
 H967 H -0.14996 0.70342 0.21975
 H968 H -0.17265 0.69917 0.23759
 H969 H -0.15151 0.73257 0.27195
 H970 H -0.12923 0.73695 0.25361
 H971 H -0.10579 0.72176 0.24290
 H972 H -0.08306 0.72600 0.22457
 H973 H -0.11617 0.72990 0.18421
 H974 H -0.13883 0.72531 0.20255
 H975 H -0.09387 0.71678 0.17210
 H976 H -0.07149 0.72166 0.15359
 H977 H -0.04753 0.75001 0.19023
 H978 H -0.07035 0.74593 0.20838
 C979 C 0.36372 0.21796 0.73681
 C980 C 0.36284 0.22615 0.75160
 C981 C 0.34972 0.22384 0.76199
 C982 C 0.33709 0.21311 0.75796
 C983 C 0.33823 0.20480 0.74308
 C984 C 0.35130 0.20728 0.73266
 C985 C 0.37751 0.22065 0.72567
 C986 C 0.37485 0.22281 0.70899
 C987 C 0.38781 0.22548 0.69848
 C988 C 0.40375 0.22591 0.70441
 C989 C 0.40638 0.22366 0.72111
 C990 C 0.39339 0.22112 0.73163
 C991 C 0.41754 0.22878 0.69321
 C992 C 0.43078 0.23821 0.69806
 C993 C 0.44367 0.24100 0.68750
 C994 C 0.44361 0.23451 0.67179
 C995 C 0.43038 0.22506 0.66695
 C996 C 0.41754 0.22218 0.67755
 H997 H 0.37224 0.23453 0.75507
 H998 H 0.34981 0.23033 0.77329
 H999 H 0.32892 0.19664 0.73908
 H1000 H 0.35173 0.20072 0.72135
 H1001 H 0.36270 0.22273 0.70410
 H1002 H 0.38531 0.22747 0.68575
 H1003 H 0.41850 0.22363 0.72605
 H1004 H 0.39579 0.21928 0.74441
 H1005 H 0.43110 0.24364 0.70996
 H1006 H 0.45375 0.24816 0.69172
 H1007 H 0.42983 0.22003 0.65488
 H1008 H 0.40765 0.21468 0.67348
 C1009 C 0.63775 0.27867 0.73482
 C1010 C 0.63866 0.27055 0.74975
 C1011 C 0.65166 0.27305 0.76025
 C1012 C 0.66418 0.28392 0.75625
 C1013 C 0.66308 0.29214 0.74125
 C1014 C 0.65013 0.28948 0.73072
 C1015 C 0.62399 0.27583 0.72357
 C1016 C 0.61739 0.28855 0.71443
 C1017 C 0.60451 0.28585 0.70381
 C1018 C 0.59783 0.27039 0.70215
 C1019 C 0.60438 0.25769 0.71134
 C1020 C 0.61733 0.26037 0.72187
 C1021 C 0.58407 0.26751 0.69090
 C1022 C 0.58310 0.25319 0.68194
 C1023 C 0.57007 0.25038 0.67155
 C1024 C 0.55778 0.26188 0.66976
 C1025 C 0.55878 0.27626 0.67858
 C1026 C 0.57174 0.27902 0.68909
 H1027 H 0.62915 0.26239 0.75347
 H1028 H 0.65149 0.26669 0.77169
 H1029 H 0.67239 0.30032 0.73723
 H1030 H 0.64999 0.29571 0.71917
 H1031 H 0.62208 0.30065 0.71558
 H1032 H 0.59990 0.29587 0.69678
 H1033 H 0.59940 0.24568 0.71054
 H1034 H 0.62223 0.25025 0.72856
 H1035 H 0.59253 0.24420 0.68279
 H1036 H 0.56971 0.23929 0.66472
 H1037 H 0.54935 0.28524 0.67759
 H1038 H 0.57194 0.29006 0.69600
 C1039 C 0.13718 0.77872 0.23412
 C1040 C 0.14167 0.79444 0.23839
 C1041 C 0.15465 0.79709 0.24889
 C1042 C 0.16330 0.78406 0.25547
 C1043 C 0.15874 0.76834 0.25128
 C1044 C 0.14586 0.76570 0.24064
 C1045 C 0.12347 0.77591 0.22290
 C1046 C 0.12484 0.76471 0.21028
 C1047 C 0.11193 0.76206 0.19969
 C1048 C 0.09729 0.77043 0.20158
 C1049 C 0.09595 0.78161 0.21426
 C1050 C 0.10892 0.78437 0.22475
 C1051 C 0.08348 0.76748 0.19041
 C1052 C 0.07338 0.78018 0.18545
 C1053 C 0.06034 0.77737 0.17506
 C1054 C 0.05713 0.76181 0.16926
 C1055 C 0.06728 0.74913 0.17415
 C1056 C 0.08025 0.75192 0.18463
 H1057 H 0.13524 0.80470 0.23345
 H1058 H 0.15782 0.80932 0.25204
 H1059 H 0.16528 0.75809 0.25605
 H1060 H 0.14258 0.75345 0.23764
 H1061 H 0.13600 0.75819 0.20845
 H1062 H 0.11350 0.75360 0.18988
 H1063 H 0.08478 0.78806 0.21626
 H1064 H 0.10748 0.79292 0.23451
 H1065 H 0.07563 0.79235 0.18948
 H1066 H 0.05266 0.78739 0.17173
 H1067 H 0.06532 0.73703 0.16976
 H1068 H 0.08763 0.74181 0.18836
 C1069 C 0.26440 0.13883 0.22186
 C1070 C 0.25754 0.14685 0.23512
 C1071 C 0.24708 0.15982 0.23266
 C1072 C 0.24341 0.16515 0.21689
 C1073 C 0.25032 0.15716 0.20363
 C1074 C 0.26064 0.14407 0.20609
 C1075 C 0.27548 0.12506 0.22447
 C1076 C 0.27387 0.11099 0.21524
 C1077 C 0.28424 0.09796 0.21779
 C1078 C 0.29656 0.09877 0.22953
 C1079 C 0.29820 0.11292 0.23868
 C1080 C 0.28772 0.12588 0.23623
 C1081 C 0.30762 0.08491 0.23225
 C1082 C 0.31296 0.08095 0.24795
 C1083 C 0.32339 0.06797 0.25050
 C1084 C 0.32864 0.05853 0.23744
 C1085 C 0.32326 0.06246 0.22174
 C1086 C 0.31294 0.07551 0.21917
 H1087 H 0.26015 0.14298 0.24740
 H1088 H 0.24204 0.16585 0.24309
 H1089 H 0.24758 0.16092 0.19136
 H1090 H 0.26586 0.13817 0.19566
 H1091 H 0.26440 0.10997 0.20624
 H1092 H 0.28244 0.08716 0.21074
 H1093 H 0.30772 0.11409 0.24760
 H1094 H 0.28936 0.13667 0.24336
 H1095 H 0.30895 0.08778 0.25833
 H1096 H 0.32745 0.06544 0.26273
 H1097 H 0.32689 0.05533 0.21141
 H1098 H 0.30924 0.07833 0.20689
 C1099 C 0.76322 0.63756 0.72207
 C1100 C 0.75932 0.64259 0.70626
 C1101 C 0.74900 0.65566 0.70371
 C1102 C 0.74223 0.66385 0.71692
 C1103 C 0.74602 0.65874 0.73272
 C1104 C 0.75648 0.64578 0.73528
 C1105 C 0.77433 0.62383 0.72478
 C1106 C 0.78669 0.62484 0.73640
 C1107 C 0.79724 0.61194 0.73890
 C1108 C 0.79557 0.59768 0.72992
 C1109 C 0.78312 0.59669 0.71834
 C1110 C 0.77267 0.60965 0.71575
 C1111 C 0.80676 0.58392 0.73262
 C1112 C 0.81197 0.57444 0.71956
 C1113 C 0.82244 0.56150 0.72211
 C1114 C 0.82808 0.55777 0.73777
 C1115 C 0.82292 0.56729 0.75082
 C1116 C 0.81235 0.58015 0.74829
 H1117 H 0.76443 0.63653 0.69587
 H1118 H 0.74616 0.65925 0.69141
 H1119 H 0.74110 0.66493 0.74311
 H1120 H 0.75920 0.64208 0.74758
 H1121 H 0.78837 0.63572 0.74338
 H1122 H 0.80686 0.61325 0.74769
 H1123 H 0.78128 0.58580 0.71142
 H1124 H 0.76311 0.60849 0.70685
 H1125 H 0.80808 0.57711 0.70731
 H1126 H 0.82598 0.55431 0.71180
 H1127 H 0.82717 0.56490 0.76301
 H1128 H 0.80843 0.58705 0.75866
 C1129 C 0.76444 0.36254 0.77762
 C1130 C 0.76880 0.34993 0.78812
 C1131 C 0.75838 0.33696 0.79077
 C1132 C 0.74326 0.33606 0.78286
 C1133 C 0.73902 0.34879 0.77226
 C1134 C 0.74941 0.36181 0.76977
 C1135 C 0.77552 0.37638 0.77487
 C1136 C 0.77682 0.38355 0.75945
 C1137 C 0.78716 0.39660 0.75688
 C1138 C 0.79657 0.40275 0.76963
 C1139 C 0.79534 0.39554 0.78503
 C1140 C 0.78490 0.38257 0.78763
 C1141 C 0.80763 0.41662 0.76687
 C1142 C 0.80972 0.42843 0.77886
 C1143 C 0.82015 0.44141 0.77629
 C1144 C 0.82861 0.44297 0.76163
 C1145 C 0.82650 0.43124 0.74961
 C1146 C 0.81619 0.41817 0.75223
 H1147 H 0.78044 0.34992 0.79412
 H1148 H 0.76257 0.32748 0.79871
 H1149 H 0.72749 0.34910 0.76614
 H1150 H 0.74549 0.37149 0.76186
 H1151 H 0.76994 0.37897 0.74929
 H1152 H 0.78764 0.40197 0.74491
 H1153 H 0.80256 0.39982 0.79507
 H1154 H 0.78407 0.37750 0.79970
 H1155 H 0.80310 0.42779 0.79015
 H1156 H 0.82139 0.45041 0.78567
 H1157 H 0.83304 0.43205 0.73828
 H1158 H 0.81511 0.40916 0.74286
 C1159 C 0.26273 -0.13586 0.27795
 C1160 C 0.24767 -0.13655 0.27020
 C1161 C 0.23730 -0.14958 0.27278
 C1162 C 0.24163 -0.16230 0.28336
 C1163 C 0.25678 -0.16134 0.29124
 C1164 C 0.26717 -0.14838 0.28848
 C1165 C 0.27384 -0.12217 0.27498
 C1166 C 0.29035 -0.12490 0.27225
 C1167 C 0.30085 -0.11202 0.26945
 C1168 C 0.29510 -0.09610 0.26945
 C1169 C 0.27856 -0.09341 0.27221
 C1170 C 0.26804 -0.10630 0.27488
 C1171 C 0.30633 -0.08239 0.26664
 C1172 C 0.30138 -0.06888 0.25759
 C1173 C 0.31191 -0.05598 0.25501
 C1174 C 0.32770 -0.05630 0.26132
 C1175 C 0.33266 -0.06984 0.27031
 C1176 C 0.32209 -0.08268 0.27298
 H1177 H 0.24397 -0.12707 0.26195
 H1178 H 0.22578 -0.14935 0.26663
 H1179 H 0.26100 -0.17073 0.29926
 H1180 H 0.27869 -0.14808 0.29471
 H1181 H 0.29510 -0.13703 0.27204
 H1182 H 0.31344 -0.11457 0.26706
 H1183 H 0.27377 -0.08130 0.27258
 H1184 H 0.25540 -0.10386 0.27715
 H1185 H 0.28939 -0.06833 0.25236
 H1186 H 0.30761 -0.04568 0.24821
 H1187 H 0.34479 -0.07059 0.27517
 H1188 H 0.32625 -0.09279 0.28018
 C1189 C 0.23590 -0.13810 0.72139
 C1190 C 0.23141 -0.15082 0.71124
 C1191 C 0.24183 -0.16379 0.70874
 C1192 C 0.25705 -0.16454 0.71651
 C1193 C 0.26140 -0.15164 0.72674
 C1194 C 0.25101 -0.13860 0.72905
 C1195 C 0.22482 -0.12436 0.72403
 C1196 C 0.23064 -0.10850 0.72361
 C1197 C 0.22018 -0.09555 0.72608
 C1198 C 0.20368 -0.09819 0.72917
 C1199 C 0.19790 -0.11410 0.72964
 C1200 C 0.20834 -0.12703 0.72702
 C1201 C 0.19256 -0.08442 0.73194
 C1202 C 0.17663 -0.08476 0.72600
 C1203 C 0.16615 -0.07189 0.72872
 C1204 C 0.17136 -0.05828 0.73735
 C1205 C 0.18731 -0.05790 0.74321
 C1206 C 0.19775 -0.07083 0.74060
 H1207 H 0.21984 -0.15068 0.70509
 H1208 H 0.23758 -0.17334 0.70100
 H1209 H 0.27296 -0.15124 0.73280
 H1210 H 0.25474 -0.12897 0.73702
 H1211 H 0.24325 -0.10610 0.72111
 H1212 H 0.22499 -0.08346 0.72533
 H1213 H 0.18534 -0.11660 0.73228
 H1214 H 0.20358 -0.13916 0.72763
 H1215 H 0.17228 -0.09494 0.71910
 H1216 H 0.15390 -0.07269 0.72420
 H1217 H 0.19181 -0.04753 0.74971
 H1218 H 0.20986 -0.07023 0.74553
 C1219 C 0.73444 0.36228 0.22247
 C1220 C 0.72902 0.34817 0.21487
 C1221 C 0.73959 0.33535 0.21223
 C1222 C 0.75582 0.33632 0.21719
 C1223 C 0.76121 0.35042 0.22484
 C1224 C 0.75065 0.36325 0.22743
 C1225 C 0.72324 0.37595 0.22520
 C1226 C 0.72841 0.39186 0.22266
 C1227 C 0.71791 0.40474 0.22531
 C1228 C 0.70201 0.40200 0.23058
 C1229 C 0.69682 0.38608 0.23308
 C1230 C 0.70732 0.37319 0.23042
 C1231 C 0.69089 0.41571 0.23348
 C1232 C 0.67456 0.41478 0.22887
 C1233 C 0.66413 0.42770 0.23157
 C1234 C 0.66977 0.44184 0.23896
 C1235 C 0.68609 0.44276 0.24359
 C1236 C 0.69652 0.42984 0.24088
 H1237 H 0.71663 0.34712 0.21077
 H1238 H 0.73502 0.32460 0.20646
 H1239 H 0.77366 0.35162 0.22865
 H1240 H 0.75515 0.37390 0.23347
 H1241 H 0.74052 0.39435 0.21839
 H1242 H 0.72219 0.41684 0.22300
 H1243 H 0.68473 0.38358 0.23738
 H1244 H 0.70306 0.36108 0.23271
 H1245 H 0.66989 0.40413 0.22299
 H1246 H 0.65159 0.42656 0.22802
 H1247 H 0.69086 0.45354 0.24914
 H1248 H 0.70899 0.43087 0.24474
 C1249 C 0.73469 0.63696 0.27804
 C1250 C 0.75092 0.63610 0.27317
 C1251 C 0.76135 0.64909 0.27562
 C1252 C 0.75580 0.66324 0.28304
 C1253 C 0.73956 0.66409 0.28792
 C1254 C 0.72912 0.65111 0.28543
 C1255 C 0.72362 0.62315 0.27543
 C1256 C 0.70767 0.62569 0.27015
 C1257 C 0.69727 0.61268 0.26765
 C1258 C 0.70257 0.59684 0.27041
 C1259 C 0.71851 0.59431 0.27571
 C1260 C 0.72892 0.60731 0.27819
 C1261 C 0.69151 0.58301 0.26775
 C1262 C 0.69717 0.56880 0.26055
 C1263 C 0.68676 0.55579 0.25805
 C1264 C 0.67046 0.55669 0.26270
 C1265 C 0.66481 0.57090 0.26991
 C1266 C 0.67521 0.58391 0.27240
 H1267 H 0.75553 0.62543 0.26730
 H1268 H 0.77381 0.64798 0.27188
 H1269 H 0.73487 0.67486 0.29351
 H1270 H 0.71672 0.65208 0.28946
 H1271 H 0.70331 0.63773 0.26768
 H1272 H 0.68514 0.61501 0.26332
 H1273 H 0.72287 0.58227 0.27820
 H1274 H 0.74105 0.60499 0.28251
 H1275 H 0.70961 0.56779 0.25668
 H1276 H 0.69153 0.54495 0.25263
 H1277 H 0.65229 0.57204 0.27347
 H1278 H 0.67053 0.59463 0.27814
 C1279 C 0.23517 0.13640 0.77842
 C1280 C 0.25028 0.13686 0.77079
 C1281 C 0.26074 0.14982 0.77318
 C1282 C 0.25649 0.16270 0.78346
 C1283 C 0.24123 0.16205 0.79112
 C1284 C 0.23073 0.14914 0.78854
 C1285 C 0.22409 0.12263 0.77583
 C1286 C 0.20761 0.12523 0.77276
 C1287 C 0.19721 0.11224 0.77014
 C1288 C 0.20303 0.09635 0.77066
 C1289 C 0.21953 0.09379 0.77387
 C1290 C 0.22994 0.10678 0.77635
 C1291 C 0.19198 0.08252 0.76783
 C1292 C 0.19728 0.06895 0.75923
 C1293 C 0.18692 0.05594 0.75658
 C1294 C 0.17096 0.05622 0.76235
 C1295 C 0.16564 0.06981 0.77091
 C1296 C 0.17603 0.08277 0.77366
 H1297 H 0.25396 0.12721 0.76283
 H1298 H 0.27231 0.14936 0.76718
 H1299 H 0.23706 0.17161 0.79887
 H1300 H 0.21915 0.14904 0.79464
 H1301 H 0.20282 0.13734 0.77209
 H1302 H 0.18465 0.11468 0.76742
 H1303 H 0.22437 0.08172 0.77468
 H1304 H 0.24256 0.10444 0.77891
 H1305 H 0.20941 0.06842 0.75438
 H1306 H 0.19151 0.04559 0.75014
 H1307 H 0.15337 0.07053 0.77535
 H1308 H 0.17160 0.09293 0.78051
 C1309 C 0.22293 0.26691 0.13813
 C1310 C 0.23590 0.25877 0.14548
 C1311 C 0.23325 0.24832 0.15852
 C1312 C 0.21757 0.24584 0.16456
 C1313 C 0.20461 0.25404 0.15726
 C1314 C 0.20725 0.26443 0.14417
 C1315 C 0.22574 0.27790 0.12419
 C1316 C 0.21523 0.27785 0.11080
 C1317 C 0.21793 0.28812 0.09762
 C1318 C 0.23117 0.29871 0.09755
 C1319 C 0.24165 0.29879 0.11098
 C1320 C 0.23898 0.28849 0.12413
 C1321 C 0.23405 0.30962 0.08352
 C1322 C 0.24982 0.31253 0.07791
 C1323 C 0.25252 0.32276 0.06471
 C1324 C 0.23951 0.33029 0.05678
 C1325 C 0.22375 0.32739 0.06237
 C1326 C 0.22105 0.31720 0.07561
 H1327 H 0.24809 0.26032 0.14100
 H1328 H 0.24350 0.24232 0.16399
 H1329 H 0.19239 0.25226 0.16153
 H1330 H 0.19704 0.27066 0.13885
 H1331 H 0.20506 0.26966 0.11039
 H1332 H 0.20978 0.28757 0.08736
 H1333 H 0.25181 0.30699 0.11142
 H1334 H 0.24714 0.28897 0.13438
 H1335 H 0.26007 0.30667 0.08357
 H1336 H 0.26477 0.32458 0.06052
 H1337 H 0.21350 0.33322 0.05667
 H1338 H 0.20879 0.31543 0.07980
 C1339 C 0.72186 0.76517 0.63732
 C1340 C 0.72639 0.74891 0.63643
 C1341 C 0.72376 0.73853 0.64953
 C1342 C 0.71652 0.74415 0.66383
 C1343 C 0.71198 0.76042 0.66470
 C1344 C 0.71463 0.77081 0.65161
 C1345 C 0.72467 0.77621 0.62340
 C1346 C 0.73005 0.79204 0.62597
 C1347 C 0.73265 0.80244 0.61288
 C1348 C 0.72995 0.79725 0.59691
 C1349 C 0.72459 0.78142 0.59433
 C1350 C 0.72197 0.77102 0.60742
 C1351 C 0.73269 0.80832 0.58301
 C1352 C 0.74007 0.80277 0.56876
 C1353 C 0.74265 0.81319 0.55568
 C1354 C 0.73788 0.82939 0.55654
 C1355 C 0.73048 0.83493 0.57078
 C1356 C 0.72794 0.82452 0.58387
 H1357 H 0.73214 0.74424 0.62565
 H1358 H 0.72723 0.72604 0.64838
 H1359 H 0.70655 0.76519 0.67558
 H1360 H 0.71085 0.78323 0.65261
 H1361 H 0.73249 0.79632 0.63811
 H1362 H 0.73703 0.81449 0.61524
 H1363 H 0.72217 0.77715 0.58219
 H1364 H 0.71758 0.75899 0.60505
 H1365 H 0.74401 0.79040 0.56778
 H1366 H 0.74823 0.80852 0.54481
 H1367 H 0.72682 0.84738 0.57187
 H1368 H 0.72207 0.82911 0.59462
 C1369 C 0.77777 0.76417 0.36202
 C1370 C 0.77267 0.74807 0.36303
 C1371 C 0.77528 0.73751 0.35016
 C1372 C 0.78309 0.74281 0.33599
 C1373 C 0.78822 0.75891 0.33500
 C1374 C 0.78557 0.76946 0.34786
 C1375 C 0.77496 0.77540 0.37568
 C1376 C 0.77007 0.79133 0.37272
 C1377 C 0.76743 0.80190 0.38557
 C1378 C 0.76963 0.79679 0.40168
 C1379 C 0.77452 0.78085 0.40465
 C1380 C 0.77715 0.77028 0.39180
 C1381 C 0.76684 0.80803 0.41534
 C1382 C 0.75909 0.80273 0.42954
 C1383 C 0.75647 0.81330 0.44240
 C1384 C 0.76154 0.82941 0.44135
 C1385 C 0.76928 0.83471 0.42715
 C1386 C 0.77189 0.82414 0.41429
 H1387 H 0.76648 0.74366 0.37372
 H1388 H 0.77133 0.72516 0.35138
 H1389 H 0.79410 0.76342 0.32420
 H1390 H 0.78980 0.78175 0.34678
 H1391 H 0.76803 0.79556 0.36045
 H1392 H 0.76342 0.81402 0.38290
 H1393 H 0.77657 0.77663 0.41691
 H1394 H 0.78116 0.75816 0.39446
 H1395 H 0.75491 0.79043 0.43066
 H1396 H 0.75063 0.80880 0.45324
 H1397 H 0.77319 0.84709 0.42591
 H1398 H 0.77804 0.82855 0.40358
 C1399 C 0.27742 0.26392 -0.13856
 C1400 C 0.29320 0.26079 -0.14397
 C1401 C 0.29592 0.25013 -0.15672
 C1402 C 0.28293 0.24232 -0.16436
 C1403 C 0.26715 0.24545 -0.15895
 C1404 C 0.26443 0.25612 -0.14621
 C1405 C 0.27454 0.27524 -0.12498
 C1406 C 0.26283 0.27181 -0.11314
 C1407 C 0.26016 0.28243 -0.10033
 C1408 C 0.26915 0.29671 -0.09907
 C1409 C 0.28084 0.30016 -0.11092
 C1410 C 0.28350 0.28955 -0.12374
 C1411 C 0.26639 0.30795 -0.08541
 C1412 C 0.27948 0.31540 -0.07759
 C1413 C 0.27690 0.32591 -0.06468
 C1414 C 0.26115 0.32925 -0.05932
 C1415 C 0.24805 0.32184 -0.06717
 C1416 C 0.25064 0.31129 -0.08005
 H1417 H 0.30348 0.26640 -0.13815
 H1418 H 0.30822 0.24779 -0.16041
 H1419 H 0.25687 0.23983 -0.16475
 H1420 H 0.25212 0.25847 -0.14251
 H1421 H 0.25591 0.26076 -0.11361
 H1422 H 0.25125 0.27932 -0.09125
 H1423 H 0.28778 0.31120 -0.11042
 H1424 H 0.29241 0.29267 -0.13281
 H1425 H 0.29176 0.31294 -0.08133
 H1426 H 0.28723 0.33156 -0.05899
 H1427 H 0.23579 0.32404 -0.06321
 H1428 H 0.24030 0.30586 -0.08593
 C1429 C 0.72268 0.23487 -0.13832
 C1430 C 0.71599 0.22929 -0.15291
 C1431 C 0.71328 0.23987 -0.16584
 C1432 C 0.71734 0.25623 -0.16450
 C1433 C 0.72411 0.26179 -0.14993
 C1434 C 0.72668 0.25123 -0.13695
 C1435 C 0.72546 0.22366 -0.12456
 C1436 C 0.72131 0.22813 -0.10870
 C1437 C 0.72388 0.21755 -0.09574
 C1438 C 0.73078 0.20234 -0.09836
 C1439 C 0.73497 0.19790 -0.11422
 C1440 C 0.73227 0.20842 -0.12720
 C1441 C 0.73363 0.19118 -0.08459
 C1442 C 0.74826 0.18272 -0.08327
 C1443 C 0.75103 0.17234 -0.07019
 C1444 C 0.73915 0.17009 -0.05824
 C1445 C 0.72447 0.17845 -0.05962
 C1446 C 0.72177 0.18894 -0.07263
 H1447 H 0.71267 0.21676 -0.15425
 H1448 H 0.70820 0.23522 -0.17696
 H1449 H 0.72722 0.27435 -0.14850
 H1450 H 0.73198 0.25583 -0.12588
 H1451 H 0.71592 0.23975 -0.10634
 H1452 H 0.72066 0.22133 -0.08363
 H1453 H 0.74019 0.18620 -0.11660
 H1454 H 0.73569 0.20472 -0.13928
 H1455 H 0.75767 0.18432 -0.09224
 H1456 H 0.76240 0.16595 -0.06949
 H1457 H 0.71517 0.17705 -0.05052
 H1458 H 0.71033 0.19521 -0.07342
 C1459 C 0.22279 0.73549 0.36121
 C1460 C 0.22650 0.75192 0.36254
 C1461 C 0.22396 0.76236 0.34946
 C1462 C 0.21755 0.75660 0.33481
 C1463 C 0.21382 0.74017 0.33349
 C1464 C 0.21648 0.72970 0.34653
 C1465 C 0.22543 0.72444 0.37513
 C1466 C 0.23244 0.70924 0.37279
 C1467 C 0.23500 0.69888 0.38594
 C1468 C 0.23048 0.70346 0.40167
 C1469 C 0.22341 0.71863 0.40399
 C1470 C 0.22096 0.72904 0.39087
 C1471 C 0.23314 0.69245 0.41561
 C1472 C 0.22109 0.69031 0.42739
 C1473 C 0.22357 0.67990 0.44051
 C1474 C 0.23821 0.67151 0.44218
 C1475 C 0.25029 0.67370 0.43043
 C1476 C 0.24776 0.68401 0.41725
 H1477 H 0.23150 0.75669 0.37367
 H1478 H 0.22679 0.77498 0.35089
 H1479 H 0.20900 0.73537 0.32230
 H1480 H 0.21340 0.71711 0.34521
 H1481 H 0.23611 0.70545 0.36081
 H1482 H 0.24036 0.68721 0.38378
 H1483 H 0.21993 0.72252 0.41600
 H1484 H 0.21541 0.74062 0.39300
 H1485 H 0.20966 0.69656 0.42636
 H1486 H 0.21410 0.67855 0.44945
 H1487 H 0.26163 0.66728 0.43134
 H1488 H 0.25731 0.68553 0.40842
 C1489 C 0.27736 0.73377 0.63913
 C1490 C 0.27226 0.74987 0.63821
 C1491 C 0.27466 0.76027 0.65125
 C1492 C 0.28223 0.75483 0.66552
 C1493 C 0.28728 0.73871 0.66645
 C1494 C 0.28486 0.72830 0.65341
 C1495 C 0.27490 0.72276 0.62520
 C1496 C 0.26998 0.70676 0.62773
 C1497 C 0.26757 0.69646 0.61460
 C1498 C 0.27003 0.70192 0.59864
 C1499 C 0.27501 0.71790 0.59612
 C1500 C 0.27742 0.72820 0.60925
 C1501 C 0.26733 0.69103 0.58467
 C1502 C 0.25976 0.69672 0.57050
 C1503 C 0.25719 0.68648 0.55736
 C1504 C 0.26214 0.67033 0.55806
 C1505 C 0.26974 0.66464 0.57221
 C1506 C 0.27229 0.67488 0.58537
 H1507 H 0.26629 0.75440 0.62744
 H1508 H 0.27079 0.77265 0.65005
 H1509 H 0.29300 0.73410 0.67732
 H1510 H 0.28905 0.71600 0.65444
 H1511 H 0.26771 0.70229 0.63986
 H1512 H 0.26350 0.68429 0.61692
 H1513 H 0.27727 0.72239 0.58400
 H1514 H 0.28148 0.74038 0.60692
 H1515 H 0.25565 0.70905 0.56964
 H1516 H 0.25146 0.69127 0.54656
 H1517 H 0.27356 0.65222 0.57319
 H1518 H 0.27831 0.67018 0.59605
 C1519 C 0.77911 0.23693 0.13667
 C1520 C 0.77379 0.25296 0.13585
 C1521 C 0.77627 0.26339 0.14887
 C1522 C 0.78418 0.25804 0.16298
 C1523 C 0.78953 0.24201 0.16377
 C1524 C 0.78702 0.23158 0.15078
 C1525 C 0.77642 0.22581 0.12288
 C1526 C 0.77177 0.20978 0.12567
 C1527 C 0.76933 0.19928 0.11272
 C1528 C 0.77148 0.20457 0.09666
 C1529 C 0.77609 0.22062 0.09386
 C1530 C 0.77853 0.23112 0.10682
 C1531 C 0.76893 0.19338 0.08290
 C1532 C 0.76112 0.19862 0.06869
 C1533 C 0.75864 0.18806 0.05579
 C1534 C 0.76395 0.17202 0.05678
 C1535 C 0.77180 0.16680 0.07097
 C1536 C 0.77426 0.17735 0.08388
 H1537 H 0.76752 0.25740 0.12521
 H1538 H 0.77215 0.27570 0.14780
 H1539 H 0.79549 0.23745 0.17452
 H1540 H 0.79141 0.21934 0.15171
 H1541 H 0.76979 0.20540 0.13789
 H1542 H 0.76551 0.18707 0.11526
 H1543 H 0.77808 0.22499 0.08164
 H1544 H 0.78235 0.24334 0.10429
 H1545 H 0.75673 0.21084 0.06762
 H1546 H 0.75271 0.19249 0.04495
 H1547 H 0.77589 0.15448 0.07218
 H1548 H 0.78047 0.17300 0.09460
 C1549 C 0.46906 0.38612 0.51533
 C1550 C 0.47427 0.38548 0.49914
 C1551 C 0.47188 0.39856 0.48871
 C1552 C 0.46420 0.41259 0.49422
 C1553 C 0.45896 0.41321 0.51040
 C1554 C 0.46137 0.40014 0.52084
 C1555 C 0.47169 0.37225 0.52643
 C1556 C 0.47646 0.37473 0.54259
 C1557 C 0.47907 0.36168 0.55299
 C1558 C 0.47698 0.34584 0.54748
 C1559 C 0.47216 0.34335 0.53134
 C1560 C 0.46954 0.35641 0.52094
 C1561 C 0.47992 0.33196 0.55848
 C1562 C 0.48794 0.31818 0.55286
 C1563 C 0.49085 0.30518 0.56325
 C1564 C 0.48576 0.30564 0.57949
 C1565 C 0.47767 0.31939 0.58509
 C1566 C 0.47480 0.33241 0.57471
 H1567 H 0.48039 0.37493 0.49457
 H1568 H 0.47589 0.39760 0.47628
 H1569 H 0.45317 0.42388 0.51509
 H1570 H 0.45707 0.40094 0.53319
 H1571 H 0.47847 0.38678 0.54711
 H1572 H 0.48302 0.36397 0.56528
 H1573 H 0.47020 0.33130 0.52681
 H1574 H 0.46561 0.35411 0.50864
 H1575 H 0.49217 0.31753 0.54047
 H1576 H 0.49695 0.29468 0.55852
 H1577 H 0.47374 0.32017 0.59758
 H1578 H 0.46845 0.34280 0.57936
 C1579 C -0.03134 0.88444 0.01206
 C1580 C -0.04168 0.89699 0.01653
 C1581 C -0.04420 0.91010 0.00618
 C1582 C -0.03628 0.91115 -0.00896
 C1583 C -0.02593 0.89836 -0.01334
 C1584 C -0.02358 0.88520 -0.00301
 C1585 C -0.02854 0.87065 0.02318
 C1586 C -0.02851 0.85482 0.01728
 C1587 C -0.02587 0.84184 0.02779
 C1588 C -0.02308 0.84441 0.04440
 C1589 C -0.02305 0.86028 0.05025
 C1590 C -0.02582 0.87324 0.03976
 C1591 C -0.02017 0.83063 0.05559
 C1592 C -0.02639 0.83075 0.07144
 C1593 C -0.02350 0.81790 0.08202
 C1594 C -0.01440 0.80455 0.07700
 C1595 C -0.00827 0.80438 0.06112
 C1596 C -0.01108 0.81727 0.05056
 H1597 H -0.04792 0.89664 0.02805
 H1598 H -0.05207 0.91952 0.01044
 H1599 H -0.01976 0.89819 -0.02485
 H1600 H -0.01547 0.87569 -0.00673
 H1601 H -0.03077 0.85247 0.00458
 H1602 H -0.02625 0.82977 0.02292
 H1603 H -0.02064 0.86273 0.06290
 H1604 H -0.02554 0.88533 0.04459
 H1605 H -0.03363 0.84073 0.07565
 H1606 H -0.02824 0.81854 0.09422
 H1607 H -0.00139 0.79421 0.05677
 H1608 H -0.00594 0.81686 0.03851
 C1609 C 0.02870 0.61064 0.01525
 C1610 C 0.02069 0.61004 0.00029
 C1611 C 0.02297 0.59707 -0.01018
 C1612 C 0.03352 0.58432 -0.00607
 C1613 C 0.04158 0.58511 0.00904
 C1614 C 0.03912 0.59803 0.01954
 C1615 C 0.02618 0.62439 0.02635
 C1616 C 0.02376 0.62179 0.04300
 C1617 C 0.02115 0.63474 0.05341
 C1618 C 0.02103 0.65061 0.04741
 C1619 C 0.02362 0.65319 0.03076
 C1620 C 0.02610 0.64022 0.02034
 C1621 C 0.01811 0.66441 0.05845
 C1622 C 0.00887 0.67766 0.05327
 C1623 C 0.00611 0.69063 0.06361
 C1624 C 0.01242 0.69064 0.07945
 C1625 C 0.02164 0.67738 0.08464
 C1626 C 0.02449 0.66445 0.07426
 H1627 H 0.01249 0.61957 -0.00328
 H1628 H 0.01665 0.59743 -0.02162
 H1629 H 0.04957 0.57567 0.01311
 H1630 H 0.04553 0.59823 0.03099
 H1631 H 0.02356 0.60969 0.04791
 H1632 H 0.01893 0.63230 0.06611
 H1633 H 0.02392 0.66525 0.02578
 H1634 H 0.02817 0.64258 0.00759
 H1635 H 0.00361 0.67795 0.04126
 H1636 H -0.00085 0.70073 0.05912
 H1637 H 0.02652 0.67690 0.09681
 H1638 H 0.03182 0.65454 0.07858
 C1639 C 0.52944 0.11246 0.51429
 C1640 C 0.53631 0.09807 0.52002
 C1641 C 0.53885 0.08517 0.50952
 C1642 C 0.53445 0.08634 0.49310
 C1643 C 0.52757 0.10074 0.48738
 C1644 C 0.52515 0.11368 0.49785
 C1645 C 0.52667 0.12612 0.52545
 C1646 C 0.53043 0.14192 0.52066
 C1647 C 0.52780 0.15479 0.53119
 C1648 C 0.52124 0.15213 0.54666
 C1649 C 0.51744 0.13633 0.55143
 C1650 C 0.52018 0.12345 0.54096
 C1651 C 0.51833 0.16579 0.55779
 C1652 C 0.50390 0.16673 0.56667
 C1653 C 0.50112 0.17963 0.57712
 C1654 C 0.51277 0.19177 0.57900
 C1655 C 0.52723 0.19080 0.57016
 C1656 C 0.52995 0.17797 0.55961
 H1657 H 0.53985 0.09684 0.53260
 H1658 H 0.54403 0.07418 0.51430
 H1659 H 0.52421 0.10204 0.47476
 H1660 H 0.51971 0.12459 0.49313
 H1661 H 0.53556 0.14431 0.50883
 H1662 H 0.53072 0.16686 0.52715
 H1663 H 0.51250 0.13391 0.56334
 H1664 H 0.51704 0.11141 0.54491
 H1665 H 0.49467 0.15759 0.56540
 H1666 H 0.48993 0.18000 0.58388
 H1667 H 0.53636 0.20007 0.57126
 H1668 H 0.54124 0.17748 0.55302
 C1669 C -0.02951 0.11414 0.48639
 C1670 C -0.03689 0.10009 0.48051
 C1671 C -0.03943 0.08688 0.49073
 C1672 C -0.03465 0.08740 0.50707
 C1673 C -0.02731 0.10147 0.51297
 C1674 C -0.02477 0.11468 0.50275
 C1675 C -0.02669 0.12812 0.47549
 C1676 C -0.01220 0.13690 0.47635
 C1677 C -0.00949 0.14996 0.46598
 C1678 C -0.02119 0.15454 0.45450
 C1679 C -0.03571 0.14580 0.45368
 C1680 C -0.03843 0.13274 0.46405
 C1681 C -0.01825 0.16832 0.44337
 C1682 C -0.02289 0.16747 0.42700
 C1683 C -0.02011 0.18041 0.41651
 C1684 C -0.01262 0.19450 0.42213
 C1685 C -0.00796 0.19535 0.43850
 C1686 C -0.01075 0.18241 0.44900
 H1687 H -0.04044 0.09920 0.46791
 H1688 H -0.04487 0.07615 0.48573
 H1689 H -0.02373 0.10236 0.52555
 H1690 H -0.01929 0.12542 0.50771
 H1691 H -0.00283 0.13349 0.48486
 H1692 H 0.00192 0.15630 0.46675
 H1693 H -0.04507 0.14919 0.44515
 H1694 H -0.04982 0.12638 0.46327
 H1695 H -0.02845 0.15668 0.42224
 H1696 H -0.02360 0.17928 0.40391
 H1697 H -0.00240 0.20614 0.44326
 H1698 H -0.00725 0.18352 0.46159
 C1699 C 0.47197 0.61311 0.98609
 C1700 C 0.46206 0.60031 0.98117
 C1701 C 0.45939 0.58713 0.99139
 C1702 C 0.46669 0.58621 1.00686
 C1703 C 0.47665 0.59915 1.01167
 C1704 C 0.47917 0.61238 1.00149
 C1705 C 0.47482 0.62714 0.97519
 C1706 C 0.49003 0.63466 0.97461
 C1707 C 0.49271 0.64785 0.96441
 C1708 C 0.48028 0.65380 0.95441
 C1709 C 0.46509 0.64625 0.95495
 C1710 C 0.46237 0.63313 0.96525
 C1711 C 0.48316 0.66778 0.94347
 C1712 C 0.47102 0.67933 0.94082
 C1713 C 0.47367 0.69238 0.93043
 C1714 C 0.48859 0.69428 0.92256
 C1715 C 0.50078 0.68284 0.92527
 C1716 C 0.49808 0.66970 0.93554
 H1717 H 0.45658 0.60031 0.96925
 H1718 H 0.45195 0.57750 0.98677
 H1719 H 0.48226 0.59946 1.02349
 H1720 H 0.48658 0.62220 1.00583
 H1721 H 0.49996 0.63025 0.98193
 H1722 H 0.50450 0.65349 0.96448
 H1723 H 0.45530 0.65036 0.94727
 H1724 H 0.45045 0.62778 0.96552
 H1725 H 0.45950 0.67841 0.94696
 H1726 H 0.46414 0.70115 0.92873
 H1727 H 0.51232 0.68391 0.91918
 H1728 H 0.50760 0.66090 0.93705
 C1729 C 0.52895 0.88974 0.98583
 C1730 C 0.54473 0.89473 0.98965
 C1731 C 0.54735 0.90772 1.00004
 C1732 C 0.53426 0.91593 1.00695
 C1733 C 0.51849 0.91094 1.00318
 C1734 C 0.51586 0.89805 0.99269
 C1735 C 0.52614 0.87591 0.97478
 C1736 C 0.51346 0.86502 0.97769
 C1737 C 0.51080 0.85204 0.96731
 C1738 C 0.52081 0.84956 0.95380
 C1739 C 0.53352 0.86043 0.95091
 C1740 C 0.53613 0.87346 0.96124
 C1741 C 0.51801 0.83571 0.94278
 C1742 C 0.52022 0.83737 0.92595
 C1743 C 0.51762 0.82434 0.91561
 C1744 C 0.51263 0.80940 0.92184
 C1745 C 0.51037 0.80772 0.93863
 C1746 C 0.51308 0.82071 0.94899
 H1747 H 0.55509 0.88844 0.98482
 H1748 H 0.55963 0.91115 1.00292
 H1749 H 0.50817 0.91720 1.00813
 H1750 H 0.50354 0.89473 0.98977
 H1751 H 0.50567 0.86641 0.98811
 H1752 H 0.50077 0.84404 0.96979
 H1753 H 0.54159 0.85878 0.94074
 H1754 H 0.54588 0.88171 0.95852
 H1755 H 0.52372 0.84882 0.92072
 H1756 H 0.51925 0.82603 0.90269
 H1757 H 0.50675 0.79627 0.94378
 H1758 H 0.51155 0.81891 0.96190
 C1759 C 0.02836 0.38898 0.48521
 C1760 C 0.02331 0.38818 0.50145
 C1761 C 0.02582 0.40117 0.51186
 C1762 C 0.03345 0.41525 0.50628
 C1763 C 0.03853 0.41602 0.49004
 C1764 C 0.03601 0.40304 0.47963
 C1765 C 0.02563 0.37520 0.47411
 C1766 C 0.03752 0.37069 0.46288
 C1767 C 0.03492 0.35776 0.45241
 C1768 C 0.02037 0.34906 0.45293
 C1769 C 0.00848 0.35357 0.46417
 C1770 C 0.01108 0.36649 0.47464
 C1771 C 0.01760 0.33533 0.44179
 C1772 C 0.00241 0.33298 0.43454
 C1773 C -0.00022 0.32003 0.42411
 C1774 C 0.01229 0.30915 0.42068
 C1775 C 0.02749 0.31151 0.42790
 C1776 C 0.03011 0.32445 0.43834
 H1777 H 0.01763 0.37742 0.50619
 H1778 H 0.02200 0.40009 0.52435
 H1779 H 0.04420 0.42678 0.48530
 H1780 H 0.03980 0.40413 0.46712
 H1781 H 0.04892 0.37705 0.46229
 H1782 H 0.04425 0.35469 0.44378
 H1783 H -0.00278 0.34700 0.46499
 H1784 H 0.00161 0.36977 0.48303
 H1785 H -0.00740 0.34129 0.43674
 H1786 H -0.01199 0.31867 0.41854
 H1787 H 0.03729 0.30319 0.42570
 H1788 H 0.04187 0.32578 0.44394
 C1789 C 0.38614 0.51441 0.47231
 C1790 C 0.38507 0.49825 0.47726
 C1791 C 0.39795 0.48770 0.47475
 C1792 C 0.41220 0.49306 0.46722
 C1793 C 0.41326 0.50923 0.46226
 C1794 C 0.40039 0.51978 0.46479
 C1795 C 0.37245 0.52564 0.47498
 C1796 C 0.37529 0.54152 0.48002
 C1797 C 0.36242 0.55208 0.48252
 C1798 C 0.34641 0.54701 0.48002
 C1799 C 0.34357 0.53112 0.47498
 C1800 C 0.35645 0.52056 0.47248
 C1801 C 0.33274 0.55824 0.48268
 C1802 C 0.31851 0.55290 0.49028
 C1803 C 0.30567 0.56348 0.49283
 C1804 C 0.30673 0.57962 0.48782
 C1805 C 0.32094 0.58495 0.48019
 C1806 C 0.33380 0.57438 0.47767
 H1807 H 0.37431 0.49379 0.48323
 H1808 H 0.39667 0.47530 0.47855
 H1809 H 0.42412 0.51380 0.45660
 H1810 H 0.40152 0.53212 0.46069
 H1811 H 0.38746 0.54571 0.48230
 H1812 H 0.36498 0.56417 0.48665
 H1813 H 0.33140 0.52693 0.47272
 H1814 H 0.35388 0.50848 0.46835
 H1815 H 0.31739 0.54058 0.49443
 H1816 H 0.29482 0.55896 0.49859
 H1817 H 0.32219 0.59735 0.47633
 H1818 H 0.34453 0.57881 0.47163
 C1819 C 0.88893 0.01480 -0.02701
 C1820 C 0.88936 -0.00019 -0.01919
 C1821 C 0.90213 -0.01083 -0.02182
 C1822 C 0.91486 -0.00687 -0.03254
 C1823 C 0.91428 0.00831 -0.04031
 C1824 C 0.90155 0.01898 -0.03752
 C1825 C 0.87528 0.02601 -0.02428
 C1826 C 0.87810 0.04248 -0.02183
 C1827 C 0.86523 0.05302 -0.01923
 C1828 C 0.84922 0.04733 -0.01913
 C1829 C 0.84643 0.03084 -0.02166
 C1830 C 0.85931 0.02030 -0.02415
 C1831 C 0.83550 0.05854 -0.01642
 C1832 C 0.82206 0.05371 -0.00720
 C1833 C 0.80912 0.06419 -0.00473
 C1834 C 0.80932 0.07980 -0.01134
 C1835 C 0.82278 0.08466 -0.02051
 C1836 C 0.83569 0.07415 -0.02305
 H1837 H 0.87983 -0.00367 -0.01090
 H1838 H 0.90162 -0.02230 -0.01565
 H1839 H 0.92373 0.01229 -0.04839
 H1840 H 0.90148 0.03046 -0.04378
 H1841 H 0.89031 0.04717 -0.02167
 H1842 H 0.86784 0.06559 -0.01705
 H1843 H 0.83425 0.02610 -0.02196
 H1844 H 0.85677 0.00769 -0.02624
 H1845 H 0.82160 0.04185 -0.00174
 H1846 H 0.79886 0.05997 0.00221
 H1847 H 0.82343 0.09666 -0.02561
 H1848 H 0.84575 0.07820 -0.03037
 C1849 C 0.61454 0.01567 0.02982
 C1850 C 0.61540 -0.00049 0.02496
 C1851 C 0.60235 -0.01088 0.02746
 C1852 C 0.58814 -0.00536 0.03491
 C1853 C 0.58732 0.01080 0.03981
 C1854 C 0.60036 0.02119 0.03729
 C1855 C 0.62837 0.02675 0.02707
 C1856 C 0.62572 0.04267 0.02190
 C1857 C 0.63871 0.05309 0.01929
 C1858 C 0.65466 0.04784 0.02178
 C1859 C 0.65731 0.03193 0.02696
 C1860 C 0.64432 0.02150 0.02957
 C1861 C 0.66847 0.05892 0.01895
 C1862 C 0.68259 0.05341 0.01135
 C1863 C 0.69554 0.06385 0.00857
 C1864 C 0.69468 0.08004 0.01336
 C1865 C 0.68058 0.08553 0.02101
 C1866 C 0.66761 0.07509 0.02376
 H1867 H 0.62610 -0.00507 0.01903
 H1868 H 0.60344 -0.02328 0.02370
 H1869 H 0.57651 0.01549 0.04541
 H1870 H 0.59939 0.03353 0.04133
 H1871 H 0.61359 0.04699 0.01961
 H1872 H 0.63629 0.06520 0.01505
 H1873 H 0.66944 0.02760 0.02923
 H1874 H 0.64674 0.00939 0.03380
 H1875 H 0.68356 0.04105 0.00736
 H1876 H 0.70630 0.05921 0.00282
 H1877 H 0.67948 0.09797 0.02469
 H1878 H 0.65697 0.07966 0.02979
 C1879 C 0.11180 0.51621 0.52769
 C1880 C 0.11114 0.50132 0.51981
 C1881 C 0.09811 0.49091 0.52225
 C1882 C 0.08535 0.49501 0.53283
 C1883 C 0.08622 0.51004 0.54076
 C1884 C 0.09919 0.52048 0.53814
 C1885 C 0.12561 0.52727 0.52502
 C1886 C 0.12298 0.54378 0.52246
 C1887 C 0.13599 0.55419 0.51986
 C1888 C 0.15193 0.54835 0.51989
 C1889 C 0.15453 0.53182 0.52254
 C1890 C 0.14150 0.52140 0.52501
 C1891 C 0.16579 0.55943 0.51716
 C1892 C 0.17923 0.55448 0.50807
 C1893 C 0.19226 0.56487 0.50552
 C1894 C 0.19214 0.58053 0.51190
 C1895 C 0.17868 0.58550 0.52096
 C1896 C 0.16569 0.57507 0.52359
 H1897 H 0.12068 0.49777 0.51160
 H1898 H 0.09841 0.47952 0.51603
 H1899 H 0.07677 0.51410 0.54876
 H1900 H 0.09945 0.53187 0.54446
 H1901 H 0.11083 0.54859 0.52219
 H1902 H 0.13353 0.56679 0.51757
 H1903 H 0.16665 0.52696 0.52294
 H1904 H 0.14388 0.50876 0.52717
 H1905 H 0.17963 0.54260 0.50276
 H1906 H 0.20251 0.56056 0.49867
 H1907 H 0.17808 0.59753 0.52589
 H1908 H 0.15563 0.57922 0.53082
 C1909 C 0.11170 0.48410 -0.02794
 C1910 C 0.10261 0.48345 -0.04229
 C1911 C 0.08956 0.49383 -0.04477
 C1912 C 0.08517 0.50530 -0.03296
 C1913 C 0.09441 0.50580 -0.01854
 C1914 C 0.10742 0.49537 -0.01610
 C1915 C 0.12561 0.47309 -0.02536
 C1916 C 0.13986 0.47865 -0.01796
 C1917 C 0.15294 0.46830 -0.01553
 C1918 C 0.15210 0.45216 -0.02044
 C1919 C 0.13786 0.44660 -0.02785
 C1920 C 0.12477 0.45694 -0.03027
 C1921 C 0.16602 0.44115 -0.01783
 C1922 C 0.16350 0.42514 -0.01289
 C1923 C 0.17658 0.41481 -0.01039
 C1924 C 0.19249 0.42023 -0.01276
 C1925 C 0.19501 0.43624 -0.01772
 C1926 C 0.18192 0.44657 -0.02023
 H1927 H 0.10577 0.47508 -0.05179
 H1928 H 0.08329 0.49293 -0.05620
 H1929 H 0.09158 0.51397 -0.00882
 H1930 H 0.11400 0.49597 -0.00476
 H1931 H 0.14096 0.49106 -0.01420
 H1932 H 0.16366 0.47292 -0.00962
 H1933 H 0.13689 0.43428 -0.03194
 H1934 H 0.11391 0.45224 -0.03585
 H1935 H 0.15141 0.42064 -0.01077
 H1936 H 0.17422 0.40250 -0.00675
 H1937 H 0.20711 0.44085 -0.01947
 H1938 H 0.18426 0.45878 -0.02421
 C1939 C 0.61207 0.98509 0.47123
 C1940 C 0.59932 0.98084 0.46091
 C1941 C 0.58635 0.99131 0.45839
 C1942 C 0.58565 1.00636 0.46629
 C1943 C 0.59855 1.01044 0.47675
 C1944 C 0.61157 1.00000 0.47908
 C1945 C 0.62588 0.97402 0.47379
 C1946 C 0.64180 0.97986 0.47358
 C1947 C 0.65482 0.96942 0.47596
 C1948 C 0.65221 0.95292 0.47876
 C1949 C 0.63625 0.94711 0.47900
 C1950 C 0.62324 0.95753 0.47648
 C1951 C 0.66607 0.94182 0.48144
 C1952 C 0.66580 0.92611 0.47519
 C1953 C 0.67878 0.91567 0.47780
 C1954 C 0.69240 0.92070 0.48663
 C1955 C 0.69270 0.93644 0.49281
 C1956 C 0.67967 0.94684 0.49030
 H1957 H 0.59945 0.96943 0.45462
 H1958 H 0.57678 0.98727 0.45049
 H1959 H 0.59897 1.02184 0.48294
 H1960 H 0.62122 1.00354 0.48720
 H1961 H 0.64418 0.99248 0.47130
 H1962 H 0.66694 0.97426 0.47539
 H1963 H 0.63377 0.93454 0.48141
 H1964 H 0.61107 0.95275 0.47691
 H1965 H 0.65562 0.92191 0.46814
 H1966 H 0.67805 0.90358 0.47304
 H1967 H 0.70307 0.94080 0.49948
 H1968 H 0.68021 0.95878 0.49546
 C1969 C 0.88786 0.98447 0.52612
 C1970 C 0.90216 0.97892 0.53344
 C1971 C 0.91511 0.98938 0.53608
 C1972 C 0.91407 1.00565 0.53145
 C1973 C 0.89979 1.01117 0.52407
 C1974 C 0.88684 1.00071 0.52144
 C1975 C 0.87405 0.97338 0.52343
 C1976 C 0.85812 0.97854 0.52615
 C1977 C 0.84512 0.96812 0.52363
 C1978 C 0.84773 0.95229 0.51834
 C1979 C 0.86366 0.94711 0.51564
 C1980 C 0.87666 0.95754 0.51815
 C1981 C 0.83390 0.94123 0.51565
 C1982 C 0.83483 0.92501 0.52045
 C1983 C 0.82180 0.91462 0.51794
 C1984 C 0.80755 0.92019 0.51054
 C1985 C 0.80663 0.93641 0.50572
 C1986 C 0.81965 0.94681 0.50826
 H1987 H 0.90327 0.96651 0.53732
 H1988 H 0.92599 0.98470 0.54163
 H1989 H 0.89851 1.02365 0.52052
 H1990 H 0.87605 1.00532 0.51562
 H1991 H 0.85572 0.99058 0.53048
 H1992 H 0.83301 0.97238 0.52607
 H1993 H 0.86605 0.93506 0.51133
 H1994 H 0.88877 0.95328 0.51571
 H1995 H 0.84559 0.92039 0.52632
 H1996 H 0.82294 0.90215 0.52164
 H1997 H 0.79576 0.94111 0.50014
 H1998 H 0.81862 0.95919 0.50428
 C1999 C 0.38915 0.48395 0.02471
 C2000 C 0.39677 0.49191 0.01174
 C2001 C 0.40976 0.50229 0.01456
 C2002 C 0.41547 0.50487 0.03040
 C2003 C 0.40790 0.49682 0.04334
 C2004 C 0.39488 0.48650 0.04053
 C2005 C 0.37523 0.47306 0.02177
 C2006 C 0.36178 0.47327 0.03213
 C2007 C 0.34871 0.46297 0.02946
 C2008 C 0.34881 0.45218 0.01638
 C2009 C 0.36225 0.45201 0.00599
 C2010 C 0.37531 0.46234 0.00864
 C2011 C 0.33495 0.44114 0.01364
 C2012 C 0.32940 0.43797 -0.00214
 C2013 C 0.31634 0.42761 -0.00468
 C2014 C 0.30851 0.42022 0.00849
 C2015 C 0.31407 0.42337 0.02427
 C2016 C 0.32714 0.43369 0.02681
 H2017 H 0.39254 0.49029 -0.00057
 H2018 H 0.41542 0.50819 0.00433
 H2019 H 0.41188 0.49868 0.05568
 H2020 H 0.38936 0.48040 0.05074
 H2021 H 0.36126 0.48158 0.04219
 H2022 H 0.33842 0.46362 0.03751
 H2023 H 0.36280 0.44367 -0.00404
 H2024 H 0.38560 0.46175 0.00059
 H2025 H 0.33498 0.44371 -0.01252
 H2026 H 0.31218 0.42560 -0.01696
 H2027 H 0.30845 0.41766 0.03464
 H2028 H 0.33130 0.43566 0.03909
 C2029 C 0.51373 0.47139 0.38849
 C2030 C 0.51909 0.46373 0.40273
 C2031 C 0.50850 0.46109 0.41564
 C2032 C 0.49231 0.46608 0.41463
 C2033 C 0.48696 0.47376 0.40039
 C2034 C 0.49754 0.47636 0.38746
 C2035 C 0.52498 0.47418 0.37475
 C2036 C 0.51984 0.47181 0.35870
 C2037 C 0.53041 0.47446 0.34577
 C2038 C 0.54636 0.47955 0.34860
 C2039 C 0.55149 0.48191 0.36466
 C2040 C 0.54092 0.47925 0.37759
 C2041 C 0.55759 0.48238 0.33485
 C2042 C 0.57384 0.47760 0.33591
 C2043 C 0.58439 0.48023 0.32296
 C2044 C 0.57894 0.48771 0.30866
 C2045 C 0.56269 0.49251 0.30761
 C2046 C 0.55214 0.48987 0.32055
 H2047 H 0.53146 0.45962 0.40382
 H2048 H 0.51305 0.45531 0.42650
 H2049 H 0.47454 0.47759 0.39915
 H2050 H 0.49309 0.48243 0.37671
 H2051 H 0.50771 0.46766 0.35613
 H2052 H 0.52617 0.47228 0.33355
 H2053 H 0.56362 0.48607 0.36723
 H2054 H 0.54516 0.48142 0.38982
 H2055 H 0.57837 0.47165 0.34670
 H2056 H 0.59687 0.47654 0.32421
 H2057 H 0.55808 0.49815 0.29669
 H2058 H 0.53974 0.49385 0.31943
 C2059 C 0.01414 -0.02934 0.88695
 C2060 C 0.00966 -0.04505 0.89141
 C2061 C -0.00086 -0.04768 0.90438
 C2062 C -0.00724 -0.03465 0.91307
 C2063 C -0.00283 -0.01894 0.90855
 C2064 C 0.00782 -0.01632 0.89568
 C2065 C 0.02539 -0.02656 0.87326
 C2066 C 0.03807 -0.01542 0.87467
 C2067 C 0.04872 -0.01286 0.86179
 C2068 C 0.04686 -0.02128 0.84715
 C2069 C 0.03410 -0.03238 0.84575
 C2070 C 0.02353 -0.03503 0.85868
 C2071 C 0.05817 -0.01852 0.83342
 C2072 C 0.06311 -0.03136 0.82356
 C2073 C 0.07367 -0.02876 0.81062
 C2074 C 0.07966 -0.01326 0.80727
 C2075 C 0.07477 -0.00044 0.81717
 C2076 C 0.06412 -0.00302 0.83004
 H2077 H 0.01445 -0.05532 0.88496
 H2078 H -0.00417 -0.05990 0.90750
 H2079 H -0.00744 -0.00869 0.91512
 H2080 H 0.01098 -0.00408 0.89242
 H2081 H 0.03990 -0.00888 0.88585
 H2082 H 0.05858 -0.00445 0.86340
 H2083 H 0.03212 -0.03885 0.83457
 H2084 H 0.01372 -0.04353 0.85720
 H2085 H 0.05893 -0.04349 0.82593
 H2086 H 0.07700 -0.03888 0.80313
 H2087 H 0.07930 0.01161 0.81507
 H2088 H 0.06042 0.00718 0.83725
 C2089 C 0.01449 0.02700 0.61200
 C2090 C 0.00793 0.01402 0.60334
 C2091 C -0.00264 0.01675 0.59039
 C2092 C -0.00672 0.03251 0.58572
 C2093 C -0.00009 0.04548 0.59433
 C2094 C 0.01034 0.04276 0.60739
 C2095 C 0.02564 0.02412 0.62578
 C2096 C 0.02384 0.03267 0.64030
 C2097 C 0.03434 0.02996 0.65331
 C2098 C 0.04698 0.01874 0.65203
 C2099 C 0.04877 0.01022 0.63744
 C2100 C 0.03817 0.01284 0.62449
 C2101 C 0.05825 0.01596 0.66582
 C2102 C 0.06412 0.00044 0.66927
 C2103 C 0.07476 -0.00214 0.68218
 C2104 C 0.07972 0.01069 0.69206
 C2105 C 0.07379 0.02619 0.68865
 C2106 C 0.06325 0.02880 0.67566
 H2107 H 0.01084 0.00176 0.60671
 H2108 H -0.00745 0.00654 0.58387
 H2109 H -0.00314 0.05774 0.59109
 H2110 H 0.01532 0.05298 0.61379
 H2111 H 0.01413 0.04129 0.64169
 H2112 H 0.03240 0.03651 0.66445
 H2113 H 0.05854 0.00171 0.63591
 H2114 H 0.03995 0.00623 0.61335
 H2115 H 0.06037 -0.00976 0.66208
 H2116 H 0.07923 -0.01420 0.68432
 H2117 H 0.07716 0.03633 0.69613
 H2118 H 0.05915 0.04094 0.67325
 C2119 C 0.51405 0.52760 0.11287
 C2120 C 0.50752 0.51455 0.10431
 C2121 C 0.49707 0.51715 0.09125
 C2122 C 0.49305 0.53287 0.08637
 C2123 C 0.49961 0.54592 0.09492
 C2124 C 0.50994 0.54332 0.10808
 C2125 C 0.52517 0.52483 0.12671
 C2126 C 0.52346 0.53361 0.14111
 C2127 C 0.53391 0.53096 0.15416
 C2128 C 0.54641 0.51956 0.15306
 C2129 C 0.54813 0.51083 0.13859
 C2130 C 0.53759 0.51340 0.12559
 C2131 C 0.55760 0.51678 0.16692
 C2132 C 0.56315 0.50121 0.17062
 C2133 C 0.57372 0.49861 0.18359
 C2134 C 0.57892 0.51150 0.19326
 C2135 C 0.57332 0.52706 0.18961
 C2136 C 0.56283 0.52968 0.17657
 H2137 H 0.51038 0.50231 0.10782
 H2138 H 0.49232 0.50688 0.08479
 H2139 H 0.49661 0.55815 0.09152
 H2140 H 0.51490 0.55360 0.11439
 H2141 H 0.51385 0.54234 0.14236
 H2142 H 0.53205 0.53768 0.16521
 H2143 H 0.55780 0.50218 0.13721
 H2144 H 0.53933 0.50663 0.11455
 H2145 H 0.55921 0.49097 0.16358
 H2146 H 0.57794 0.48650 0.18592
 H2147 H 0.57690 0.53724 0.19692
 H2148 H 0.55896 0.54185 0.17396
 C2149 C 0.48542 -0.02592 0.11270
 C2150 C 0.50171 -0.02129 0.11383
 C2151 C 0.51228 -0.02383 0.10091
 C2152 C 0.50681 -0.03107 0.08654
 C2153 C 0.49051 -0.03568 0.08540
 C2154 C 0.47994 -0.03313 0.09832
 C2155 C 0.47420 -0.02327 0.12646
 C2156 C 0.46271 -0.03501 0.13069
 C2157 C 0.45220 -0.03255 0.14368
 C2158 C 0.45291 -0.01828 0.15273
 C2159 C 0.46438 -0.00653 0.14849
 C2160 C 0.47491 -0.00900 0.13551
 C2161 C 0.44173 -0.01566 0.16653
 C2162 C 0.43472 -0.00049 0.16911
 C2163 C 0.42417 0.00196 0.18207
 C2164 C 0.42038 -0.01071 0.19275
 C2165 C 0.42740 -0.02587 0.19019
 C2166 C 0.43796 -0.02832 0.17723
 H2167 H 0.50636 -0.01595 0.12484
 H2168 H 0.52481 -0.02039 0.10228
 H2169 H 0.48586 -0.04104 0.07441
 H2170 H 0.46740 -0.03658 0.09697
 H2171 H 0.46198 -0.04621 0.12407
 H2172 H 0.44338 -0.04176 0.14653
 H2173 H 0.46535 0.00452 0.15533
 H2174 H 0.48351 0.00035 0.13246
 H2175 H 0.43718 0.00943 0.16093
 H2176 H 0.41876 0.01371 0.18358
 H2177 H 0.42493 -0.03580 0.19836
 H2178 H 0.44337 -0.04007 0.17573
 C2179 C 0.98423 0.47399 0.61164
 C2180 C 1.00043 0.47901 0.61251
 C2181 C 1.01090 0.47649 0.59951
 C2182 C 1.00545 0.46887 0.58534
 C2183 C 0.98926 0.46385 0.58447
 C2184 C 0.97877 0.46639 0.59747
 C2185 C 0.97311 0.47664 0.62549
 C2186 C 0.96191 0.46474 0.63004
 C2187 C 0.95150 0.46720 0.64311
 C2188 C 0.95204 0.48162 0.65193
 C2189 C 0.96322 0.49352 0.64737
 C2190 C 0.97364 0.49106 0.63430
 C2191 C 0.94098 0.48422 0.66584
 C2192 C 0.93376 0.49930 0.66833
 C2193 C 0.92335 0.50174 0.68141
 C2194 C 0.91991 0.48914 0.69229
 C2195 C 0.92715 0.47407 0.68982
 C2196 C 0.93757 0.47163 0.67675
 H2197 H 1.00508 0.48465 0.62336
 H2198 H 1.02336 0.48025 0.60067
 H2199 H 0.98462 0.45818 0.57364
 H2200 H 0.96630 0.46262 0.59632
 H2201 H 0.96132 0.45343 0.62361
 H2202 H 0.94290 0.45786 0.64620
 H2203 H 0.96405 0.50469 0.65402
 H2204 H 0.98201 0.50053 0.63100
 H2205 H 0.93594 0.50916 0.66000
 H2206 H 0.91776 0.51342 0.68285
 H2207 H 0.92494 0.46420 0.69813
 H2208 H 0.94316 0.45995 0.67533
 C2209 C 0.98489 0.52828 0.88728
 C2210 C 1.00107 0.52326 0.88635
 C2211 C 1.01162 0.52570 0.89936
 C2212 C 1.00625 0.53323 0.91358
 C2213 C 0.99007 0.53828 0.91449
 C2214 C 0.97952 0.53583 0.90149
 C2215 C 0.97365 0.52561 0.87350
 C2216 C 0.96236 0.53746 0.86903
 C2217 C 0.95174 0.53491 0.85611
 C2218 C 0.95218 0.52046 0.84734
 C2219 C 0.96347 0.50862 0.85179
 C2220 C 0.97408 0.51116 0.86472
 C2221 C 0.94092 0.51775 0.83359
 C2222 C 0.94632 0.51032 0.81932
 C2223 C 0.93572 0.50772 0.80640
 C2224 C 0.91947 0.51248 0.80744
 C2225 C 0.91407 0.51994 0.82169
 C2226 C 0.92468 0.52255 0.83462
 H2227 H 1.00565 0.51765 0.87547
 H2228 H 1.02406 0.52190 0.89817
 H2229 H 0.98548 0.54386 0.92536
 H2230 H 0.96707 0.53960 0.90269
 H2231 H 0.96190 0.54882 0.87539
 H2232 H 0.94335 0.54436 0.85281
 H2233 H 0.96393 0.49726 0.84543
 H2234 H 0.98245 0.50169 0.86803
 H2235 H 0.95882 0.50672 0.81806
 H2236 H 0.94033 0.50220 0.79548
 H2237 H 0.90157 0.52353 0.82296
 H2238 H 0.92010 0.52810 0.84554
 C2239 C 0.48370 0.02775 0.38828
 C2240 C 0.49984 0.02265 0.38722
 C2241 C 0.51055 0.02518 0.40007
 C2242 C 0.50538 0.03289 0.41427
 C2243 C 0.48924 0.03799 0.41533
 C2244 C 0.47852 0.03544 0.40249
 C2245 C 0.47232 0.02508 0.37460
 C2246 C 0.46109 0.03699 0.37017
 C2247 C 0.45044 0.03452 0.35725
 C2248 C 0.45077 0.02007 0.34847
 C2249 C 0.46198 0.00814 0.35293
 C2250 C 0.47263 0.01062 0.36584
 C2251 C 0.43953 0.01746 0.33468
 C2252 C 0.43227 0.00237 0.33225
 C2253 C 0.42181 -0.00012 0.31919
 C2254 C 0.41836 0.01243 0.30825
 C2255 C 0.42556 0.02754 0.31071
 C2256 C 0.43603 0.03002 0.32376
 H2257 H 0.50428 0.01693 0.37633
 H2258 H 0.52297 0.02134 0.39876
 H2259 H 0.48481 0.04373 0.42619
 H2260 H 0.46609 0.03927 0.40379
 H2261 H 0.46066 0.04833 0.37656
 H2262 H 0.44184 0.04387 0.35423
 H2263 H 0.46267 -0.00305 0.34630
 H2264 H 0.48101 0.00114 0.36906
 H2265 H 0.43450 -0.00747 0.34060
 H2266 H 0.41626 -0.01183 0.31776
 H2267 H 0.42333 0.03737 0.30235
 H2268 H 0.44163 0.04171 0.32514
   
