data_POSCAR
  _audit_creation_date              2014-09-24
  _audit_creation_method            'ToBaCCo'
  _symmetry_space_group_name_H-M    'P1'
  _symmetry_Int_Tables_number       1
  _symmetry_cell_setting            triclinic
  loop_
  _symmetry_equiv_pos_as_xyz
 x,y,z
_cell_length_a 104.1434
_cell_length_b 103.9765
_cell_length_c 104.0288
_cell_angle_alpha 90.017100
_cell_angle_beta 90.040400
_cell_angle_gamma 89.968400
loop_
  _atom_site_label
  _atom_site_type_symbol
  _atom_site_fract_x
  _atom_site_fract_y
  _atom_site_fract_z
C1 C 0.30285 0.43794 0.92814
 C2 C 0.30272 0.42860 0.93786
 C3 C 0.31202 0.42876 0.94736
 C4 C 0.32158 0.43826 0.94727
 C5 C 0.32170 0.44747 0.93768
 C6 C 0.31227 0.44731 0.92805
 C7 C 0.29544 0.43970 0.91731
 N8 N 0.30016 0.44991 0.91068
 C9 C 0.31045 0.45463 0.91718
 C10 C 0.33240 0.45500 0.93960
 N11 N 0.33878 0.45056 0.95010
 C12 C 0.33220 0.44033 0.95487
 C13 C 0.30997 0.41821 0.95508
 N14 N 0.29966 0.41167 0.95048
 C15 C 0.29515 0.41795 0.93996
 H16 H 0.28740 0.43382 0.91433
 H17 H 0.31635 0.46261 0.91406
 H18 H 0.33545 0.46294 0.93360
 H19 H 0.33508 0.43461 0.96308
 H20 H 0.31574 0.41533 0.96325
 H21 H 0.28716 0.41483 0.93408
 C22 C 0.43881 0.82101 0.44865
 C23 C 0.42934 0.81143 0.44863
 C24 C 0.42942 0.80200 0.43923
 C25 C 0.43897 0.80203 0.42974
 C26 C 0.44832 0.81149 0.42977
 C27 C 0.44823 0.82104 0.43929
 C28 C 0.44067 0.83176 0.45616
 N29 N 0.45098 0.83831 0.45155
 C30 C 0.45568 0.83180 0.44125
 C31 C 0.45586 0.80957 0.41907
 N32 N 0.45129 0.79920 0.41258
 C33 C 0.44098 0.79452 0.41903
 C34 C 0.41874 0.79445 0.44114
 N35 N 0.41220 0.79907 0.45144
 C36 C 0.41861 0.80944 0.45610
 H37 H 0.43476 0.83473 0.46420
 H38 H 0.46374 0.83480 0.43540
 H39 H 0.46387 0.81548 0.41606
 H40 H 0.43516 0.78644 0.41598
 H41 H 0.41577 0.78638 0.43527
 H42 H 0.41553 0.81531 0.46412
 C43 C 0.93537 0.92562 0.80597
 C44 C 0.92586 0.93517 0.80600
 C45 C 0.92587 0.94456 0.81542
 C46 C 0.93541 0.94453 0.82495
 C47 C 0.94480 0.93510 0.82492
 C48 C 0.94478 0.92558 0.81537
 C49 C 0.93737 0.91499 0.79834
 N50 N 0.94775 0.90849 0.80290
 C51 C 0.95236 0.91493 0.81330
 C52 C 0.95241 0.93710 0.83556
 N53 N 0.94784 0.94750 0.84206
 C54 C 0.93745 0.95211 0.83560
 C55 C 0.91524 0.95217 0.81343
 N56 N 0.90878 0.94760 0.80304
 C57 C 0.91521 0.93721 0.79843
 H58 H 0.93153 0.91208 0.79023
 H59 H 0.96047 0.91197 0.81911
 H60 H 0.96051 0.93126 0.83849
 H61 H 0.93165 0.96023 0.83856
 H62 H 0.91226 0.96026 0.81926
 H63 H 0.91221 0.93141 0.79032
 C64 C 0.43803 -0.07148 0.30244
 C65 C 0.42843 -0.06201 0.30259
 C66 C 0.42853 -0.05257 0.31197
 C67 C 0.43824 -0.05245 0.32131
 C68 C 0.44772 -0.06179 0.32117
 C69 C 0.44761 -0.07137 0.31167
 C70 C 0.43992 -0.08220 0.29492
 N71 N 0.45039 -0.08862 0.29939
 C72 C 0.45517 -0.08203 0.30961
 C73 C 0.45541 -0.05975 0.33174
 N74 N 0.45081 -0.04942 0.33828
 C75 C 0.44033 -0.04489 0.33197
 C76 C 0.41773 -0.04514 0.31020
 N77 N 0.41109 -0.04986 0.30000
 C78 C 0.41756 -0.06017 0.29528
 H79 H 0.43392 -0.08526 0.28698
 H80 H 0.46336 -0.08492 0.31534
 H81 H 0.46354 -0.06555 0.33464
 H82 H 0.43446 -0.03688 0.33508
 H83 H 0.41476 -0.03708 0.31609
 H84 H 0.41444 -0.06609 0.28730
 C85 C 0.80355 0.31158 0.32155
 C86 C 0.80358 0.32110 0.31200
 C87 C 0.81313 0.32120 0.30276
 C88 C 0.82278 0.31178 0.30295
 C89 C 0.82275 0.30239 0.31238
 C90 C 0.81306 0.30229 0.32174
 C91 C 0.79588 0.30955 0.33213
 N92 N 0.80052 0.29928 0.33871
 C93 C 0.81102 0.29476 0.33242
 C94 C 0.83356 0.29499 0.31061
 N95 N 0.84014 0.29967 0.30036
 C96 C 0.83362 0.30993 0.29561
 C97 C 0.81116 0.33186 0.29518
 N98 N 0.80066 0.33822 0.29961
 C99 C 0.79595 0.33170 0.30989
 H100 H 0.78771 0.31532 0.33499
 H101 H 0.81692 0.28678 0.33556
 H102 H 0.83658 0.28696 0.31652
 H103 H 0.83668 0.31580 0.28758
 H104 H 0.81710 0.33495 0.28722
 H105 H 0.78777 0.33463 0.31560
 C106 C -0.18528 0.82455 0.80571
 C107 C -0.17582 0.81495 0.80573
 C108 C -0.17589 0.80555 0.81514
 C109 C -0.18542 0.80563 0.82466
 C110 C -0.19476 0.81510 0.82464
 C111 C -0.19469 0.82463 0.81509
 C112 C -0.18724 0.83520 0.79808
 N113 N -0.19759 0.84174 0.80264
 C114 C -0.20221 0.83532 0.81303
 C115 C -0.20238 0.81313 0.83526
 N116 N -0.19787 0.80271 0.84174
 C117 C -0.18751 0.79805 0.83529
 C118 C -0.16530 0.79788 0.81314
 N119 N -0.15883 0.80241 0.80276
 C120 C -0.16520 0.81284 0.79815
 H121 H -0.18140 0.83808 0.78997
 H122 H -0.21031 0.83832 0.81883
 H123 H -0.21045 0.81902 0.83818
 H124 H -0.18175 0.78989 0.83824
 H125 H -0.16238 0.78976 0.81896
 H126 H -0.16217 0.81862 0.79005
 C127 C 0.94643 0.32344 0.43652
 C128 C 0.94647 0.31391 0.42698
 C129 C 0.93727 0.30431 0.42711
 C130 C 0.92791 0.30411 0.43679
 C131 C 0.92786 0.31352 0.44621
 C132 C 0.93718 0.32325 0.44607
 C133 C 0.95380 0.33425 0.43842
 N134 N 0.94924 0.34065 0.44886
 C135 C 0.93908 0.33396 0.45361
 C136 C 0.91737 0.31130 0.45393
 N137 N 0.91106 0.30080 0.44941
 C138 C 0.91744 0.29633 0.43894
 C139 C 0.93925 0.29679 0.41640
 N140 N 0.94941 0.30161 0.40979
 C141 C 0.95390 0.31206 0.41619
 H142 H 0.96174 0.33736 0.43246
 H143 H 0.93331 0.33680 0.46180
 H144 H 0.91438 0.31707 0.46206
 H145 H 0.91452 0.28819 0.43314
 H146 H 0.93354 0.28859 0.41348
 H147 H 0.96181 0.31805 0.41308
 C148 C 0.44604 0.43691 0.82243
 C149 C 0.44586 0.42729 0.81298
 C150 C 0.43634 0.42725 0.80370
 C151 C 0.42685 0.43683 0.80374
 C152 C 0.42703 0.44632 0.81307
 C153 C 0.43668 0.44636 0.82247
 C154 C 0.45373 0.43894 0.83299
 N155 N 0.44925 0.44938 0.83947
 C156 C 0.43884 0.45400 0.83307
 C157 C 0.41635 0.45390 0.81118
 N158 N 0.40972 0.44922 0.80095
 C159 C 0.41608 0.43879 0.79633
 C160 C 0.43817 0.41648 0.79622
 N161 N 0.44855 0.41000 0.80076
 C162 C 0.45333 0.41655 0.81100
 H163 H 0.46182 0.43306 0.83590
 H164 H 0.43306 0.46213 0.83604
 H165 H 0.41346 0.46204 0.81699
 H166 H 0.41293 0.43289 0.78835
 H167 H 0.43221 0.41342 0.78826
 H168 H 0.46146 0.41355 0.81675
 C169 C 0.80592 0.92539 0.93554
 C170 C 0.80584 0.93496 0.92605
 C171 C 0.81526 0.94434 0.92598
 C172 C 0.82489 0.94427 0.93541
 C173 C 0.82497 0.93483 0.94478
 C174 C 0.81542 0.92532 0.94484
 C175 C 0.79831 0.91478 0.93761
 N176 N 0.80297 0.90825 0.94794
 C177 C 0.81343 0.91466 0.95243
 C178 C 0.83568 0.93680 0.95229
 N179 N 0.84211 0.94720 0.94769
 C180 C 0.83555 0.95184 0.93737
 C181 C 0.81313 0.95199 0.91539
 N182 N 0.80266 0.94746 0.90905
 C183 C 0.79813 0.93705 0.91550
 H184 H 0.79012 0.91190 0.93187
 H185 H 0.81932 0.91168 0.96049
 H186 H 0.83867 0.93095 0.96036
 H187 H 0.83844 0.95998 0.93156
 H188 H 0.81891 0.96009 0.91238
 H189 H 0.78999 0.93128 0.91258
 C190 C 0.30257 0.82204 0.31190
 C191 C 0.30236 0.81235 0.32127
 C192 C 0.31157 0.80275 0.32114
 C193 C 0.32111 0.80271 0.31163
 C194 C 0.32131 0.81227 0.30238
 C195 C 0.31198 0.82200 0.30252
 C196 C 0.29527 0.83293 0.31010
 N197 N 0.30004 0.83952 0.29988
 C198 C 0.31026 0.83287 0.29517
 C199 C 0.33199 0.81022 0.29486
 N200 N 0.33825 0.79968 0.29934
 C201 C 0.33167 0.79501 0.30958
 C202 C 0.30946 0.79511 0.33173
 N203 N 0.29921 0.79985 0.33826
 C204 C 0.29480 0.81039 0.33193
 H205 H 0.28725 0.83597 0.31600
 H206 H 0.31619 0.83586 0.28716
 H207 H 0.33514 0.81616 0.28691
 H208 H 0.33452 0.78680 0.31532
 H209 H 0.31515 0.78689 0.33464
 H210 H 0.28687 0.81637 0.33504
 C211 C 0.80358 0.42864 0.43860
 C212 C 0.80352 0.43814 0.42903
 C213 C 0.81306 0.44740 0.42880
 C214 C 0.82279 0.44727 0.43812
 C215 C 0.82286 0.43789 0.44756
 C216 C 0.81318 0.42852 0.44780
 C217 C 0.79594 0.41807 0.44075
 N218 N 0.80067 0.41155 0.45102
 C219 C 0.81121 0.41787 0.45541
 C220 C 0.83374 0.43971 0.45486
 N221 N 0.84029 0.44995 0.45005
 C222 C 0.83363 0.45464 0.43983
 C223 C 0.81098 0.45493 0.41812
 N224 N 0.80044 0.45044 0.41188
 C225 C 0.79580 0.44019 0.41848
 H226 H 0.78771 0.41516 0.43508
 H227 H 0.81718 0.41477 0.46335
 H228 H 0.83679 0.43384 0.46289
 H229 H 0.83658 0.46266 0.43388
 H230 H 0.81689 0.46288 0.41494
 H231 H 0.78760 0.43445 0.41565
 C232 C 0.93544 0.82386 -0.05509
 C233 C 0.92589 0.81436 -0.05520
 C234 C 0.92585 0.80506 -0.06471
 C235 C 0.93536 0.80513 -0.07425
 C236 C 0.94478 0.81451 -0.07415
 C237 C 0.94483 0.82393 -0.06450
 C238 C 0.93748 0.83443 -0.04740
 N239 N 0.94786 0.84090 -0.05192
 C240 C 0.95243 0.83455 -0.06237
 C241 C 0.95234 0.81258 -0.08482
 N242 N 0.94771 0.80228 -0.09141
 C243 C 0.93733 0.79765 -0.08498
 C244 C 0.91518 0.79750 -0.06278
 N245 N 0.90877 0.80201 -0.05234
 C246 C 0.91525 0.81232 -0.04764
 H247 H 0.93168 0.83735 -0.03927
 H248 H 0.96051 0.83759 -0.06816
 H249 H 0.96046 0.81841 -0.08771
 H250 H 0.93148 0.78959 -0.08801
 H251 H 0.91215 0.78948 -0.06868
 H252 H 0.91229 0.81807 -0.03948
 C253 C 0.30361 0.32276 0.81303
 C254 C 0.30344 0.31310 0.82243
 C255 C 0.31286 0.30370 0.82250
 C256 C 0.32258 0.30385 0.81317
 C257 C 0.32274 0.31338 0.80390
 C258 C 0.31319 0.32290 0.80382
 C259 C 0.29608 0.33346 0.81103
 N260 N 0.30087 0.34006 0.80085
 C261 C 0.31133 0.33368 0.79637
 C262 C 0.33356 0.31152 0.79654
 N263 N 0.33995 0.30110 0.80115
 C264 C 0.33331 0.29634 0.81131
 C265 C 0.31070 0.29601 0.83304
 N266 N 0.30021 0.30052 0.83935
 C267 C 0.29570 0.31096 0.83293
 H268 H 0.28788 0.33637 0.81674
 H269 H 0.31731 0.33680 0.78846
 H270 H 0.33670 0.31746 0.78860
 H271 H 0.33622 0.28819 0.81710
 H272 H 0.31650 0.28791 0.83607
 H273 H 0.28757 0.31675 0.83586
 C274 C 0.17884 0.56225 0.55207
 C275 C 0.18826 0.57189 0.55225
 C276 C 0.19764 0.57185 0.56168
 C277 C 0.19773 0.56215 0.57106
 C278 C 0.18845 0.55265 0.57088
 C279 C 0.17894 0.55269 0.56133
 C280 C 0.16817 0.56030 0.54451
 N281 N 0.16181 0.54982 0.54896
 C282 C 0.16833 0.54509 0.55924
 C283 C 0.19045 0.54498 0.58148
 N284 N 0.20071 0.54963 0.58807
 C285 C 0.20524 0.56012 0.58176
 C286 C 0.20503 0.58267 0.55993
 N287 N 0.20035 0.58927 0.54968
 C288 C 0.19010 0.58275 0.54492
 H289 H 0.16509 0.56626 0.53655
 H290 H 0.16539 0.53691 0.56496
 H291 H 0.18468 0.53682 0.58437
 H292 H 0.21321 0.56602 0.58491
 H293 H 0.21304 0.58569 0.56585
 H294 H 0.18423 0.58584 0.53689
 C295 C 0.57207 0.68668 0.05376
 C296 C 0.56269 0.67701 0.05394
 C297 C 0.55350 0.67686 0.06355
 C298 C 0.55358 0.68638 0.07310
 C299 C 0.56283 0.69592 0.07292
 C300 C 0.57213 0.69608 0.06318
 C301 C 0.58254 0.68883 0.04598
 N302 N 0.58894 0.69929 0.05048
 C303 C 0.58264 0.70379 0.06099
 C304 C 0.56097 0.70343 0.08366
 N305 N 0.55083 0.69866 0.09033
 C306 C 0.54624 0.68824 0.08394
 C307 C 0.54607 0.66608 0.06169
 N308 N 0.55053 0.65970 0.05122
 C309 C 0.56069 0.66631 0.04640
 H310 H 0.58546 0.68305 0.03784
 H311 H 0.58565 0.71190 0.06678
 H312 H 0.56674 0.71159 0.08655
 H313 H 0.53832 0.68229 0.08710
 H314 H 0.53817 0.66295 0.06769
 H315 H 0.56638 0.66340 0.03819
 C316 C 0.68799 0.19782 0.67842
 C317 C 0.67862 0.19791 0.68810
 C318 C 0.67882 0.18861 0.69762
 C319 C 0.68838 0.17911 0.69759
 C320 C 0.69762 0.17903 0.68804
 C321 C 0.69743 0.18844 0.67840
 C322 C 0.68975 0.20522 0.66759
 N323 N 0.70000 0.20054 0.66102
 C324 C 0.70476 0.19029 0.66755
 C325 C 0.70520 0.16836 0.69000
 N326 N 0.70076 0.16198 0.70049
 C327 C 0.69049 0.16849 0.70520
 C328 C 0.66823 0.19061 0.70528
 N329 N 0.66163 0.20088 0.70062
 C330 C 0.66792 0.20541 0.69013
 H331 H 0.68382 0.21322 0.66456
 H332 H 0.71279 0.18442 0.66449
 H333 H 0.71316 0.16528 0.68405
 H334 H 0.68477 0.16554 0.71338
 H335 H 0.66536 0.18483 0.71344
 H336 H 0.66477 0.21338 0.68422
 C337 C 1.07105 0.06090 0.19809
 C338 C 1.06149 0.07041 0.19808
 C339 C 1.05212 0.07040 0.18865
 C340 C 1.05219 0.06089 0.17908
 C341 C 1.06161 0.05151 0.17908
 C342 C 1.07111 0.05152 0.18865
 C343 C 1.08174 0.05898 0.20563
 N344 N 1.08827 0.04867 0.20099
 C345 C 1.08184 0.04403 0.19062
 C346 C 1.05972 0.04401 0.16834
 N347 N 1.04939 0.04864 0.16181
 C348 C 1.04470 0.05896 0.16835
 C349 C 1.04457 0.08110 0.19060
 N350 N 1.04916 0.08758 0.20097
 C351 C 1.05949 0.08111 0.20562
 H352 H 1.08471 0.06484 0.21370
 H353 H 1.08492 0.03600 0.18475
 H354 H 1.06562 0.03597 0.16535
 H355 H 1.03663 0.06482 0.16537
 H356 H 1.03654 0.08413 0.18471
 H357 H 1.06533 0.08413 0.21369
 C358 C 0.06240 0.17882 1.05278
 C359 C 0.07210 0.18817 1.05289
 C360 C 0.07220 0.19756 1.06231
 C361 C 0.06260 0.19773 1.07176
 C362 C 0.05303 0.18851 1.07166
 C363 C 0.05293 0.17899 1.06210
 C364 C 0.06031 0.16816 1.04522
 N365 N 0.04982 0.16186 1.04976
 C366 C 0.04524 0.16842 1.06007
 C367 C 0.04547 0.19058 1.08230
 N368 N 0.05023 0.20083 1.08888
 C369 C 0.06070 0.20528 1.08247
 C370 C 0.08305 0.20488 1.06047
 N371 N 0.08953 0.20014 1.05018
 C372 C 0.08290 0.18993 1.04547
 H373 H 0.06617 0.16502 1.03722
 H374 H 0.03710 0.16554 1.06586
 H375 H 0.03728 0.18486 1.08519
 H376 H 0.06669 0.21323 1.08552
 H377 H 0.08617 0.21287 1.06637
 H378 H 0.08587 0.18403 1.03743
 C379 C 0.17874 0.69812 0.68799
 C380 C 0.18811 0.69802 0.67831
 C381 C 0.19754 0.68864 0.67829
 C382 C 0.19774 0.67924 0.68795
 C383 C 0.18850 0.67934 0.69750
 C384 C 0.17893 0.68884 0.69752
 C385 C 0.16804 0.70562 0.69001
 N386 N 0.16175 0.70110 0.70050
 C387 C 0.16834 0.69084 0.70517
 C388 C 0.19061 0.66873 0.70513
 N389 N 0.20089 0.66222 0.70043
 C390 C 0.20533 0.66858 0.68994
 C391 C 0.20487 0.69048 0.66744
 N392 N 0.20010 0.70072 0.66089
 C393 C 0.18985 0.70540 0.66747
 H394 H 0.16488 0.71358 0.68409
 H395 H 0.16548 0.68507 0.71334
 H396 H 0.18489 0.66580 0.71330
 H397 H 0.21329 0.66549 0.68399
 H398 H 0.21290 0.68461 0.66437
 H399 H 0.18392 0.71340 0.66443
 C400 C 1.18894 0.17873 0.19719
 C401 C 1.17939 0.18825 0.19721
 C402 C 1.17919 0.19751 0.18767
 C403 C 1.18853 0.19738 0.17796
 C404 C 1.19795 0.18799 0.17794
 C405 C 1.19816 0.17861 0.18762
 C406 C 1.19106 0.16814 0.20483
 N407 N 1.20132 0.16161 0.20013
 C408 C 1.20574 0.16794 0.18961
 C409 C 1.20527 0.18981 0.16708
 N410 N 1.20050 0.20005 0.16050
 C411 C 1.19027 0.20476 0.16712
 C412 C 1.16851 0.20504 0.18970
 N413 N 1.16224 0.20055 0.20022
 C414 C 1.16882 0.19029 0.20489
 H415 H 1.18536 0.16523 0.21303
 H416 H 1.21369 0.16484 0.18366
 H417 H 1.21331 0.18392 0.16406
 H418 H 1.18433 0.21278 0.16413
 H419 H 1.16535 0.21300 0.18377
 H420 H 1.16597 0.18454 0.21308
 C421 C 0.67704 1.05443 0.56300
 C422 C 0.68670 1.05422 0.57239
 C423 C 0.69608 1.06364 0.57247
 C424 C 0.69593 1.07339 0.56316
 C425 C 0.68641 1.07359 0.55388
 C426 C 0.67690 1.06404 0.55380
 C427 C 0.66637 1.04689 0.56098
 N428 N 0.65976 1.05171 0.55081
 C429 C 0.66613 1.06219 0.54634
 C430 C 0.68830 1.08442 0.54652
 N431 N 0.69872 1.09081 0.55112
 C432 C 0.70346 1.08410 0.56130
 C433 C 0.70379 1.06142 0.58300
 N434 N 0.69929 1.05090 0.58929
 C435 C 0.68885 1.04643 0.58287
 H436 H 0.66347 1.03868 0.56667
 H437 H 0.66301 1.06819 0.53842
 H438 H 0.68235 1.08754 0.53856
 H439 H 0.71163 1.08693 0.56709
 H440 H 0.71189 1.06720 0.58602
 H441 H 0.68307 1.03828 0.58577
 C442 C 0.56446 0.55469 0.17625
 C443 C 0.57396 0.55475 0.18581
 C444 C 0.57392 0.56419 0.19519
 C445 C 0.56438 0.57372 0.19513
 C446 C 0.55500 0.57367 0.18569
 C447 C 0.55504 0.56409 0.17619
 C448 C 0.56248 0.54706 0.16563
 N449 N 0.55211 0.55161 0.15914
 C450 C 0.54749 0.56201 0.16553
 C451 C 0.54739 0.58431 0.18766
 N452 N 0.55194 0.59081 0.19803
 C453 C 0.56232 0.58439 0.20267
 C454 C 0.58455 0.56222 0.20281
 N455 N 0.59101 0.55182 0.19828
 C456 C 0.58460 0.54718 0.18789
 H457 H 0.56831 0.53895 0.16269
 H458 H 0.53939 0.56781 0.16250
 H459 H 0.53931 0.58726 0.18181
 H460 H 0.56810 0.58742 0.21078
 H461 H 0.58750 0.56807 0.21090
 H462 H 0.58761 0.53905 0.18212
 C463 C 0.67696 0.68654 0.19646
 C464 C 0.68650 0.67702 0.19639
 C465 C 0.69599 0.67720 0.18709
 C466 C 0.69608 0.68691 0.17774
 C467 C 0.68667 0.69631 0.17780
 C468 C 0.67704 0.69612 0.18722
 C469 C 0.66621 0.68839 0.20393
 N470 N 0.65979 0.69884 0.19944
 C471 C 0.66635 0.70364 0.18923
 C472 C 0.68876 0.70406 0.16729
 N473 N 0.69919 0.69958 0.16086
 C474 C 0.70374 0.68910 0.16719
 C475 C 0.70355 0.66650 0.18898
 N476 N 0.69886 0.65985 0.19918
 C477 C 0.68844 0.66621 0.20378
 H478 H 0.66314 0.68242 0.21187
 H479 H 0.66340 0.71183 0.18352
 H480 H 0.68294 0.71218 0.16436
 H481 H 0.71185 0.68332 0.16417
 H482 H 0.71169 0.66361 0.18319
 H483 H 0.68254 0.66306 0.21175
 C484 C 0.17899 0.06190 1.05238
 C485 C 0.18838 0.07157 1.05259
 C486 C 0.19778 0.07149 1.06199
 C487 C 0.19792 0.06175 1.07131
 C488 C 0.18865 0.05222 1.07111
 C489 C 0.17912 0.05230 1.06158
 C490 C 0.16830 0.05998 1.04483
 N491 N 0.16197 0.04946 1.04924
 C492 C 0.16852 0.04469 1.05947
 C493 C 0.19070 0.04451 1.08167
 N494 N 0.20096 0.04915 1.08826
 C495 C 0.20545 0.05968 1.08199
 C496 C 0.20513 0.08235 1.06029
 N497 N 0.20040 0.08900 1.05010
 C498 C 0.19016 0.08248 1.04532
 H499 H 0.16519 0.06599 1.03691
 H500 H 0.16560 0.03648 1.06517
 H501 H 0.18495 0.03633 1.08453
 H502 H 0.21341 0.06559 1.08515
 H503 H 0.21313 0.08536 1.06621
 H504 H 0.18426 0.08559 1.03733
 C505 C 0.57306 0.19635 0.56292
 C506 C 0.56334 0.19658 0.57224
 C507 C 0.55391 0.18720 0.57222
 C508 C 0.55408 0.17747 0.56289
 C509 C 0.56366 0.17725 0.55369
 C510 C 0.57321 0.18675 0.55370
 C511 C 0.58380 0.20382 0.56101
 N512 N 0.59044 0.19897 0.55088
 C513 C 0.58404 0.18854 0.54634
 C514 C 0.56181 0.16641 0.54632
 N515 N 0.55135 0.16007 0.55085
 C516 C 0.54655 0.16676 0.56097
 C517 C 0.54617 0.18941 0.58271
 N518 N 0.55068 0.19988 0.58907
 C519 C 0.56117 0.20434 0.58274
 H520 H 0.58671 0.21200 0.56675
 H521 H 0.58719 0.18253 0.53844
 H522 H 0.56779 0.16321 0.53843
 H523 H 0.53836 0.16390 0.56670
 H524 H 0.53804 0.18364 0.58566
 H525 H 0.56697 0.21244 0.58573
 C526 C 0.07011 0.56091 0.69875
 C527 C 0.06055 0.57041 0.69871
 C528 C 0.05117 0.57036 0.68928
 C529 C 0.05123 0.56081 0.67977
 C530 C 0.06066 0.55143 0.67981
 C531 C 0.07017 0.55148 0.68936
 C532 C 0.08083 0.55904 0.70627
 N533 N 0.08737 0.54873 0.70166
 C534 C 0.08092 0.54403 0.69133
 C535 C 0.05879 0.54391 0.66908
 N536 N 0.04847 0.54851 0.66254
 C537 C 0.04377 0.55883 0.66901
 C538 C 0.04364 0.58108 0.69118
 N539 N 0.04824 0.58761 0.70150
 C540 C 0.05857 0.58116 0.70618
 H541 H 0.08383 0.56495 0.71430
 H542 H 0.08400 0.53600 0.68547
 H543 H 0.06471 0.53589 0.66606
 H544 H 0.03573 0.56468 0.66594
 H545 H 0.03561 0.58409 0.68528
 H546 H 0.06442 0.58423 0.71423
 C547 C 0.67665 0.55367 0.06357
 C548 C 0.68617 0.55367 0.07312
 C549 C 0.69571 0.56292 0.07298
 C550 C 0.69588 0.57228 0.06328
 C551 C 0.68650 0.57228 0.05386
 C552 C 0.67681 0.56291 0.05401
 C553 C 0.66586 0.54626 0.06171
 N554 N 0.65949 0.55081 0.05126
 C555 C 0.66611 0.56098 0.04648
 C556 C 0.68866 0.58280 0.04613
 N557 N 0.69910 0.58917 0.05065
 C558 C 0.70360 0.58281 0.06113
 C559 C 0.70321 0.56100 0.08371
 N560 N 0.69843 0.55082 0.09034
 C561 C 0.68801 0.54627 0.08394
 H562 H 0.66272 0.53834 0.06768
 H563 H 0.66321 0.56672 0.03830
 H564 H 0.68288 0.58577 0.03800
 H565 H 0.71170 0.58578 0.06694
 H566 H 0.71137 0.56675 0.08663
 H567 H 0.68205 0.53834 0.08707
 C568 C 0.06252 0.69761 0.57150
 C569 C 0.07220 0.69739 0.56214
 C570 C 0.07217 0.68797 0.55274
 C571 C 0.06244 0.67864 0.55258
 C572 C 0.05289 0.67886 0.56181
 C573 C 0.05293 0.68841 0.57134
 C574 C 0.06054 0.70521 0.58215
 N575 N 0.05000 0.70081 0.58845
 C576 C 0.04527 0.69055 0.58190
 C577 C 0.04518 0.66832 0.55973
 N578 N 0.04983 0.66172 0.54947
 C579 C 0.06038 0.66797 0.54502
 C580 C 0.08302 0.68970 0.54540
 N581 N 0.08962 0.69992 0.55013
 C582 C 0.08308 0.70469 0.56036
 H583 H 0.06650 0.71314 0.58527
 H584 H 0.03705 0.68488 0.58479
 H585 H 0.03697 0.66548 0.56544
 H586 H 0.06630 0.66481 0.53707
 H587 H 0.08605 0.68378 0.53739
 H588 H 0.08615 0.71271 0.56625
 C589 C 0.56251 1.05337 0.67726
 C590 C 0.57184 1.05324 0.68699
 C591 C 0.57167 1.06254 0.69651
 C592 C 0.56216 1.07209 0.69643
 C593 C 0.55294 1.07222 0.68685
 C594 C 0.55312 1.06279 0.67720
 C595 C 0.56072 1.04594 0.66646
 N596 N 0.55049 1.05064 0.65982
 C597 C 0.54577 1.06094 0.66635
 C598 C 0.54537 1.08289 0.68881
 N599 N 0.54979 1.08926 0.69934
 C600 C 0.56005 1.08269 0.70408
 C601 C 0.58220 1.06046 0.70424
 N602 N 0.58874 1.05014 0.69963
 C603 C 0.58247 1.04565 0.68909
 H604 H 0.56661 1.03787 0.66352
 H605 H 0.53775 1.06684 0.66331
 H606 H 0.53741 1.08594 0.68284
 H607 H 0.56574 1.08554 0.71231
 H608 H 0.58506 1.06621 0.71243
 H609 H 0.58559 1.03765 0.68321
 C610 C 0.44741 0.32143 0.93790
 C611 C 0.44733 0.31200 0.92825
 C612 C 0.43798 0.30255 0.92827
 C613 C 0.42859 0.30239 0.93792
 C614 C 0.42868 0.31169 0.94744
 C615 C 0.43815 0.32128 0.94743
 C616 C 0.45491 0.33215 0.93989
 N617 N 0.45039 0.33852 0.95037
 C618 C 0.44016 0.33191 0.95506
 C619 C 0.41810 0.30960 0.95508
 N620 N 0.41161 0.29928 0.95041
 C621 C 0.41796 0.29480 0.93993
 C622 C 0.43983 0.29515 0.91745
 N623 N 0.45005 0.29990 0.91089
 C624 C 0.45471 0.31020 0.91743
 H625 H 0.46287 0.33523 0.93395
 H626 H 0.43439 0.33476 0.96324
 H627 H 0.41516 0.31536 0.96324
 H628 H 0.41490 0.28680 0.93402
 H629 H 0.43398 0.28709 0.91442
 H630 H 0.46269 0.31612 0.91438
 C631 C 0.94670 0.43659 0.32318
 C632 C 0.94676 0.42714 0.31356
 C633 C 0.93756 0.42737 0.30396
 C634 C 0.92818 0.43706 0.30384
 C635 C 0.92813 0.44638 0.31333
 C636 C 0.93745 0.44615 0.32307
 C637 C 0.95405 0.43836 0.33404
 N638 N 0.94945 0.44874 0.34054
 C639 C 0.93931 0.45357 0.33387
 C640 C 0.91761 0.45412 0.31120
 N641 N 0.91130 0.44969 0.30067
 C642 C 0.91769 0.43927 0.29610
 C643 C 0.93953 0.41671 0.29636
 N644 N 0.94969 0.41004 0.30114
 C645 C 0.95418 0.41636 0.31164
 H646 H 0.96197 0.43236 0.33712
 H647 H 0.93352 0.46172 0.33678
 H648 H 0.91461 0.46218 0.31706
 H649 H 0.91476 0.43354 0.28792
 H650 H 0.93382 0.41385 0.28814
 H651 H 0.96208 0.41318 0.31763
 C652 C 0.30371 0.93762 0.42743
 C653 C 0.30349 0.92835 0.43722
 C654 C 0.31274 0.92853 0.44677
 C655 C 0.32234 0.93799 0.44666
 C656 C 0.32255 0.94714 0.43701
 C657 C 0.31318 0.94695 0.42733
 C658 C 0.29634 0.93937 0.41659
 N659 N 0.30112 0.94952 0.40989
 C660 C 0.31141 0.95423 0.41642
 C661 C 0.33325 0.95466 0.43896
 N662 N 0.33955 0.95027 0.44954
 C663 C 0.33292 0.94008 0.45433
 C664 C 0.31058 0.91805 0.45455
 N665 N 0.30026 0.91154 0.44994
 C666 C 0.29585 0.91777 0.43935
 H667 H 0.28826 0.93350 0.41366
 H668 H 0.31736 0.96219 0.41334
 H669 H 0.33636 0.96256 0.43294
 H670 H 0.33571 0.93442 0.46261
 H671 H 0.31629 0.91520 0.46278
 H672 H 0.28786 0.91466 0.43345
 O673 O 0.21545 0.51707 0.74928
 O674 O 0.21961 0.51540 0.77117
 O675 O 0.24924 0.53472 0.73378
 O676 O 0.27033 0.53082 0.73324
 O677 O 0.23320 0.50099 0.71566
 O678 O 0.23405 0.47862 0.72043
 O679 O 0.28323 0.49975 0.76686
 O680 O 0.27963 0.52158 0.76440
 O681 O 0.25061 0.48379 0.78359
 O682 O 0.22750 0.48465 0.77912
 O683 O 0.26616 0.46672 0.75090
 O684 O 0.26558 0.47114 0.72797
 O685 O 0.28324 0.48423 0.75138
 O686 O 0.27851 0.48548 0.72756
 O687 O 0.25066 0.46661 0.76628
 O688 O 0.22705 0.47155 0.76490
 O689 O 0.26628 0.49903 0.78355
 O690 O 0.26205 0.52229 0.77938
 O691 O 0.21531 0.50132 0.73402
 O692 O 0.22013 0.47852 0.73496
 O693 O 0.24868 0.51643 0.71560
 O694 O 0.27187 0.51438 0.72088
 O695 O 0.23350 0.53471 0.74896
 O696 O 0.23632 0.52957 0.77210
 Zr697 Zr 0.23412 0.51609 0.75693
 O698 O 0.24528 0.50454 0.76926
 Zr699 Zr 0.25660 0.51588 0.73423
 O700 O 0.26887 0.50472 0.74582
 Zr701 Zr 0.23396 0.49339 0.73439
 O702 O 0.24540 0.48102 0.74564
 Zr703 Zr 0.26478 0.50771 0.76535
 O704 O 0.25368 0.52027 0.75379
 Zr705 Zr 0.24230 0.48500 0.76519
 O706 O 0.22986 0.49650 0.75393
 Zr707 Zr 0.26494 0.48516 0.74270
 O708 O 0.25349 0.49632 0.73007
 O709 O 0.23719 0.51284 0.73745
 O710 O 0.26180 0.48814 0.76222
 C711 C 0.20990 0.51039 0.74048
 C712 C 0.24021 0.54021 0.74017
 C713 C 0.23975 0.50988 0.71013
 C714 C 0.28858 0.49055 0.76058
 C715 C 0.25990 0.48993 0.78892
 C716 C 0.25986 0.46129 0.76001
 H717 H 0.24324 0.50665 0.77830
 H718 H 0.24334 0.47200 0.74348
 H719 H 0.23172 0.51835 0.73195
 H720 H 0.27791 0.50690 0.74391
 H721 H 0.27556 0.52974 0.76164
 H722 H 0.27686 0.52897 0.73989
 H723 H 0.22850 0.46562 0.75761
 H724 H 0.21579 0.47920 0.74340
 H725 H 0.26937 0.52192 0.78547
 H726 H 0.22954 0.53623 0.77132
 H727 H 0.25744 0.46625 0.72829
 H728 H 0.24267 0.47875 0.71644
 H729 H 0.21606 0.50658 0.77103
 H730 H 0.22823 0.49258 0.78434
 H731 H 0.27034 0.50649 0.71579
 H732 H 0.28454 0.49264 0.72920
 O733 O 0.21598 0.01658 0.24932
 O734 O 0.22015 0.01494 0.27122
 O735 O 0.24975 0.03421 0.23377
 O736 O 0.27084 0.03033 0.23324
 O737 O 0.23374 0.00043 0.21574
 O738 O 0.23460 -0.02194 0.22056
 O739 O 0.28380 -0.00064 0.26689
 O740 O 0.28015 0.02118 0.26440
 O741 O 0.25121 -0.01661 0.28370
 O742 O 0.22810 -0.01577 0.27926
 O743 O 0.26673 -0.03375 0.25103
 O744 O 0.26615 -0.02937 0.22810
 O745 O 0.28381 -0.01620 0.25147
 O746 O 0.27906 -0.01502 0.22765
 O747 O 0.25123 -0.03383 0.26641
 O748 O 0.22763 -0.02890 0.26506
 O749 O 0.26687 -0.00136 0.28361
 O750 O 0.26259 0.02189 0.27940
 O751 O 0.21586 0.00080 0.23409
 O752 O 0.22068 -0.02200 0.23510
 O753 O 0.24920 0.01589 0.21563
 O754 O 0.27239 0.01387 0.22091
 O755 O 0.23402 0.03423 0.24896
 O756 O 0.23685 0.02914 0.27212
 Zr757 Zr 0.23466 0.01562 0.25697
 O758 O 0.24584 0.00411 0.26933
 Zr759 Zr 0.25713 0.01538 0.23426
 O760 O 0.26942 0.00426 0.24587
 Zr761 Zr 0.23451 -0.00713 0.23449
 O762 O 0.24597 -0.01946 0.24575
 Zr763 Zr 0.26533 0.00729 0.26540
 O764 O 0.25421 0.01981 0.25382
 Zr765 Zr 0.24287 -0.01544 0.26530
 O766 O 0.23042 -0.00398 0.25402
 Zr767 Zr 0.26551 -0.01531 0.24280
 O768 O 0.25404 -0.00419 0.23015
 O769 O 0.23772 0.01233 0.23750
 O770 O 0.26237 -0.01230 0.26232
 C771 C 0.21044 0.00988 0.24052
 C772 C 0.24072 0.03971 0.24016
 C773 C 0.24027 0.00931 0.21019
 C774 C 0.28916 -0.00983 0.26063
 C775 C 0.26051 -0.01046 0.28900
 C776 C 0.26042 -0.03916 0.26014
 H777 H 0.24380 0.00624 0.27837
 H778 H 0.24391 -0.02849 0.24361
 H779 H 0.23225 0.01783 0.23199
 H780 H 0.27845 0.00645 0.24394
 H781 H 0.27607 0.02933 0.26164
 H782 H 0.27738 0.02850 0.23988
 H783 H 0.22906 -0.03482 0.25776
 H784 H 0.21633 -0.02130 0.24353
 H785 H 0.26992 0.02153 0.28549
 H786 H 0.23005 0.03578 0.27132
 H787 H 0.25800 -0.03424 0.22842
 H788 H 0.24322 -0.02180 0.21655
 H789 H 0.21660 0.00611 0.27109
 H790 H 0.22882 -0.00782 0.28444
 H791 H 0.27087 0.00596 0.21583
 H792 H 0.28508 -0.00784 0.22926
 O793 O 0.48320 0.78451 0.25107
 O794 O 0.48490 0.78033 0.22918
 O795 O 0.46553 0.75074 0.26660
 O796 O 0.46940 0.72960 0.26718
 O797 O 0.49923 0.76676 0.28473
 O798 O 0.52157 0.76589 0.27997
 O799 O 0.50044 0.71661 0.23360
 O800 O 0.47864 0.72023 0.23606
 O801 O 0.51641 0.74921 0.21684
 O802 O 0.51557 0.77237 0.22126
 O803 O 0.53342 0.73366 0.24957
 O804 O 0.52897 0.73429 0.27252
 O805 O 0.51593 0.71659 0.24907
 O806 O 0.51465 0.72132 0.27290
 O807 O 0.53355 0.74918 0.23417
 O808 O 0.52866 0.77283 0.23550
 O809 O 0.50116 0.73355 0.21690
 O810 O 0.47794 0.73782 0.22105
 O811 O 0.49891 0.78467 0.26635
 O812 O 0.52168 0.77981 0.26541
 O813 O 0.48379 0.75128 0.28481
 O814 O 0.48580 0.72805 0.27956
 O815 O 0.46558 0.76647 0.25139
 O816 O 0.47072 0.76361 0.22826
 Zr817 Zr 0.48417 0.76581 0.24344
 O818 O 0.49569 0.75460 0.23114
 Zr819 Zr 0.48433 0.74333 0.26619
 O820 O 0.49546 0.73100 0.25462
 Zr821 Zr 0.50682 0.76598 0.26600
 O822 O 0.51916 0.75448 0.25479
 Zr823 Zr 0.49250 0.73509 0.23509
 O824 O 0.47996 0.74623 0.24661
 Zr825 Zr 0.51520 0.75757 0.23523
 O826 O 0.50374 0.77006 0.24646
 Zr827 Zr 0.51500 0.73492 0.25775
 O828 O 0.50386 0.74642 0.27036
 O829 O 0.48740 0.76276 0.26293
 O830 O 0.51204 0.73805 0.23823
 C831 C 0.48985 0.79008 0.25988
 C832 C 0.46007 0.75977 0.26018
 C833 C 0.49034 0.76023 0.29026
 C834 C 0.50963 0.71125 0.23987
 C835 C 0.51027 0.73990 0.21153
 C836 C 0.53884 0.73996 0.24046
 H837 H 0.49359 0.75664 0.22209
 H838 H 0.52817 0.75654 0.25696
 H839 H 0.48190 0.76825 0.26842
 H840 H 0.49328 0.72196 0.25655
 H841 H 0.47049 0.72431 0.23880
 H842 H 0.47124 0.72304 0.26056
 H843 H 0.53456 0.77138 0.24281
 H844 H 0.52100 0.78416 0.25698
 H845 H 0.47831 0.73048 0.21497
 H846 H 0.46409 0.77043 0.22902
 H847 H 0.53389 0.74242 0.27216
 H848 H 0.52143 0.75725 0.28398
 H849 H 0.49371 0.78389 0.22934
 H850 H 0.50766 0.77164 0.21605
 H851 H 0.49369 0.72957 0.28465
 H852 H 0.50750 0.71529 0.27125
 O853 O 0.03436 0.73341 0.74926
 O854 O 0.03023 0.73504 0.77115
 O855 O 0.00057 0.71575 0.73372
 O856 O -0.02052 0.71964 0.73315
 O857 O 0.01656 0.74955 0.71570
 O858 O 0.01566 0.77192 0.72053
 O859 O -0.03341 0.75062 0.76689
 O860 O -0.02979 0.72878 0.76434
 O861 O -0.00083 0.76658 0.78366
 O862 O 0.02230 0.76573 0.77921
 O863 O -0.01643 0.78369 0.75105
 O864 O -0.01584 0.77933 0.72807
 O865 O -0.03346 0.76618 0.75147
 O866 O -0.02879 0.76498 0.72764
 O867 O -0.00091 0.78377 0.76642
 O868 O 0.02271 0.77889 0.76502
 O869 O -0.01648 0.75132 0.78356
 O870 O -0.01219 0.72806 0.77934
 O871 O 0.03445 0.74920 0.73404
 O872 O 0.02961 0.77199 0.73507
 O873 O 0.00111 0.73408 0.71557
 O874 O -0.02209 0.73610 0.72085
 O875 O 0.01632 0.71575 0.74891
 O876 O 0.01355 0.72085 0.77206
 Zr877 Zr 0.01570 0.73436 0.75692
 O878 O 0.00453 0.74586 0.76928
 Zr879 Zr -0.00681 0.73458 0.73420
 O880 O -0.01909 0.74570 0.74583
 Zr881 Zr 0.01580 0.75711 0.73444
 O882 O 0.00435 0.76944 0.74573
 Zr883 Zr -0.01496 0.74267 0.76535
 O884 O -0.00386 0.73015 0.75376
 Zr885 Zr 0.00749 0.76540 0.76526
 O886 O 0.01993 0.75396 0.75397
 Zr887 Zr -0.01519 0.76527 0.74277
 O888 O -0.00373 0.75416 0.73010
 O889 O 0.01260 0.73765 0.73744
 O890 O -0.01201 0.76225 0.76228
 C891 C 0.03988 0.74012 0.74046
 C892 C 0.00960 0.71025 0.74012
 C893 C 0.01003 0.74065 0.71014
 C894 C -0.03878 0.75984 0.76066
 C895 C -0.01013 0.76044 0.78895
 C896 C -0.01013 0.78909 0.76019
 H897 H 0.00658 0.74373 0.77832
 H898 H 0.00640 0.77847 0.74360
 H899 H 0.01807 0.73215 0.73194
 H900 H -0.02812 0.74351 0.74391
 H901 H -0.02571 0.72063 0.76158
 H902 H -0.02704 0.72145 0.73982
 H903 H 0.02123 0.78484 0.75775
 H904 H 0.03396 0.77130 0.74350
 H905 H -0.01951 0.72842 0.78543
 H906 H 0.02034 0.71420 0.77126
 H907 H -0.00773 0.78425 0.72844
 H908 H 0.00703 0.77178 0.71653
 H909 H 0.03377 0.74388 0.77104
 H910 H 0.02156 0.75781 0.78442
 H911 H -0.02057 0.74401 0.71578
 H912 H -0.03480 0.75780 0.72926
 O913 O 0.00087 0.03445 0.01716
 O914 O -0.02100 0.03027 0.01551
 O915 O 0.01645 0.00065 0.03482
 O916 O 0.01701 -0.02049 0.03096
 O917 O 0.03444 0.01666 0.00105
 O918 O 0.02962 0.01579 -0.02130
 O919 O -0.01660 -0.03346 -0.00005
 O920 O -0.01410 -0.02982 0.02178
 O921 O -0.03340 -0.00087 -0.01605
 O922 O -0.02901 0.02230 -0.01519
 O923 O -0.00078 -0.01642 -0.03309
 O924 O 0.02217 -0.01578 -0.02869
 O925 O -0.00119 -0.03348 -0.01559
 O926 O 0.02260 -0.02875 -0.01436
 O927 O -0.01617 -0.00090 -0.03320
 O928 O -0.01481 0.02277 -0.02831
 O929 O -0.03330 -0.01654 -0.00080
 O930 O -0.02912 -0.01224 0.02245
 O931 O 0.01608 0.03457 0.00140
 O932 O 0.01507 0.02973 -0.02138
 O933 O 0.03458 0.00118 0.01651
 O934 O 0.02933 -0.02205 0.01452
 O935 O 0.00125 0.01640 0.03481
 O936 O -0.02188 0.01354 0.02970
 Zr937 Zr -0.00675 0.01574 0.01621
 O938 O -0.01908 0.00454 0.00469
 Zr939 Zr 0.01597 -0.00676 0.01601
 O940 O 0.00439 -0.01907 0.00488
 Zr941 Zr 0.01571 0.01589 -0.00651
 O942 O 0.00448 0.00441 -0.01885
 Zr943 Zr -0.01512 -0.01498 0.00789
 O944 O -0.00357 -0.00384 0.02041
 Zr945 Zr -0.01505 0.00751 -0.01484
 O946 O -0.00380 0.01999 -0.00339
 Zr947 Zr 0.00746 -0.01516 -0.01468
 O948 O 0.02008 -0.00367 -0.00355
 O949 O 0.01271 0.01267 0.01294
 O950 O -0.01203 -0.01202 -0.01168
 C951 C 0.00965 0.04000 0.01047
 C952 C 0.01005 0.00969 0.04031
 C953 C 0.03999 0.01012 0.00994
 C954 C -0.01036 -0.03883 -0.00926
 C955 C -0.03868 -0.01020 -0.00993
 C956 C -0.00992 -0.01013 -0.03850
 H957 H -0.02811 0.00657 0.00681
 H958 H 0.00661 0.00646 -0.02787
 H959 H 0.01820 0.01816 0.01844
 H960 H 0.00633 -0.02812 0.00708
 H961 H -0.01136 -0.02573 0.02993
 H962 H 0.01037 -0.02703 0.02914
 H963 H -0.00755 0.02129 -0.03426
 H964 H 0.00665 0.03408 -0.02070
 H965 H -0.03519 -0.01958 0.02209
 H966 H -0.02109 0.02035 0.03634
 H967 H 0.02177 -0.00767 -0.03364
 H968 H 0.03362 0.00715 -0.02117
 H969 H -0.02089 0.03381 0.00668
 H970 H -0.03421 0.02156 -0.00728
 H971 H 0.03439 -0.02053 0.00662
 H972 H 0.02099 -0.03478 -0.00718
 O973 O 0.03440 0.51682 0.50070
 O974 O 0.03021 0.51509 0.47881
 O975 O 0.00066 0.53451 0.51624
 O976 O -0.02044 0.53064 0.51678
 O977 O 0.01670 0.50080 0.53438
 O978 O 0.01589 0.47842 0.52963
 O979 O -0.03339 0.49949 0.48326
 O980 O -0.02979 0.52132 0.48567
 O981 O -0.00078 0.48348 0.46650
 O982 O 0.02234 0.48435 0.47093
 O983 O -0.01628 0.46647 0.49922
 O984 O -0.01564 0.47096 0.52217
 O985 O -0.03337 0.48400 0.49875
 O986 O -0.02861 0.48528 0.52256
 O987 O -0.00079 0.46635 0.48382
 O988 O 0.02281 0.47126 0.48517
 O989 O -0.01646 0.49872 0.46653
 O990 O -0.01224 0.52199 0.47066
 O991 O 0.03458 0.50111 0.51600
 O992 O 0.02978 0.47831 0.51507
 O993 O 0.00121 0.51625 0.53445
 O994 O -0.02197 0.51423 0.52919
 O995 O 0.01636 0.53445 0.50103
 O996 O 0.01349 0.52928 0.47789
 Zr997 Zr 0.01572 0.51582 0.49308
 O998 O 0.00455 0.50425 0.48078
 Zr999 Zr -0.00672 0.51568 0.51582
 O1000 O -0.01900 0.50450 0.50426
 Zr1001 Zr 0.01594 0.49317 0.51565
 O1002 O 0.00449 0.48078 0.50445
 Zr1003 Zr -0.01494 0.50744 0.48472
 O1004 O -0.00383 0.52002 0.49624
 Zr1005 Zr 0.00756 0.48473 0.48489
 O1006 O 0.02001 0.49624 0.49611
 Zr1007 Zr -0.01506 0.48494 0.50740
 O1008 O -0.00359 0.49612 0.52000
 O1009 O 0.01269 0.51262 0.51257
 O1010 O -0.01194 0.48787 0.48787
 C1011 C 0.03997 0.51018 0.50952
 C1012 C 0.00967 0.53998 0.50982
 C1013 C 0.01015 0.50969 0.53991
 C1014 C -0.03873 0.49031 0.48956
 C1015 C -0.01009 0.48960 0.46117
 C1016 C -0.00998 0.46104 0.49010
 H1017 H 0.00658 0.50635 0.47173
 H1018 H 0.00656 0.47176 0.50661
 H1019 H 0.01816 0.51814 0.51806
 H1020 H -0.02804 0.50669 0.50619
 H1021 H -0.02573 0.52948 0.48840
 H1022 H -0.02700 0.52876 0.51017
 H1023 H 0.02137 0.46535 0.49248
 H1024 H 0.03412 0.47897 0.50664
 H1025 H -0.01957 0.52160 0.46458
 H1026 H 0.02028 0.53593 0.47866
 H1027 H -0.00753 0.46603 0.52180
 H1028 H 0.00726 0.47854 0.53362
 H1029 H 0.03379 0.50627 0.47898
 H1030 H 0.02159 0.49226 0.46570
 H1031 H -0.02045 0.50633 0.53427
 H1032 H -0.03463 0.49246 0.52093
 O1033 O 0.46571 -0.00092 0.48337
 O1034 O 0.46986 0.02098 0.48504
 O1035 O 0.49946 -0.01651 0.46576
 O1036 O 0.52055 -0.01711 0.46966
 O1037 O 0.48344 -0.03453 0.49954
 O1038 O 0.48429 -0.02969 0.52189
 O1039 O 0.53348 0.01662 0.50062
 O1040 O 0.52987 0.01409 0.47881
 O1041 O 0.50091 0.03345 0.51656
 O1042 O 0.47779 0.02903 0.51573
 O1043 O 0.51645 0.00076 0.53370
 O1044 O 0.51588 -0.02218 0.52933
 O1045 O 0.53352 0.00120 0.51617
 O1046 O 0.52877 -0.02266 0.51496
 O1047 O 0.50095 0.01618 0.53377
 O1048 O 0.47735 0.01483 0.52887
 O1049 O 0.51656 0.03334 0.50131
 O1050 O 0.51229 0.02910 0.47808
 O1051 O 0.46556 -0.01615 0.49914
 O1052 O 0.47038 -0.01510 0.52195
 O1053 O 0.49890 -0.03467 0.48408
 O1054 O 0.52210 -0.02942 0.48612
 O1055 O 0.48375 -0.00128 0.46576
 O1056 O 0.48656 0.02188 0.47086
 Zr1057 Zr 0.48437 0.00672 0.48436
 O1058 O 0.49555 0.01907 0.49586
 Zr1059 Zr 0.50684 -0.01604 0.48459
 O1060 O 0.51913 -0.00443 0.49571
 Zr1061 Zr 0.48421 -0.01577 0.50709
 O1062 O 0.49568 -0.00451 0.51942
 Zr1063 Zr 0.51503 0.01511 0.49268
 O1064 O 0.50392 0.00353 0.48016
 Zr1065 Zr 0.49258 0.01505 0.51540
 O1066 O 0.48012 0.00378 0.50395
 Zr1067 Zr 0.51522 -0.00748 0.51527
 O1068 O 0.50374 -0.02013 0.50416
 O1069 O 0.48743 -0.01277 0.48764
 O1070 O 0.51208 0.01204 0.51226
 C1071 C 0.46016 -0.00972 0.49004
 C1072 C 0.49045 -0.01009 0.46027
 C1073 C 0.48997 -0.04010 0.49065
 C1074 C 0.53885 0.01037 0.50983
 C1075 C 0.51021 0.03874 0.51041
 C1076 C 0.51015 0.00990 0.53910
 H1077 H 0.49351 0.02812 0.49374
 H1078 H 0.49362 -0.00664 0.52844
 H1079 H 0.48196 -0.01827 0.48214
 H1080 H 0.52816 -0.00636 0.49352
 H1081 H 0.52579 0.01132 0.47066
 H1082 H 0.52708 -0.01045 0.47147
 H1083 H 0.47879 0.00753 0.53479
 H1084 H 0.46602 -0.00667 0.52122
 H1085 H 0.51961 0.03519 0.47843
 H1086 H 0.47976 0.02109 0.46422
 H1087 H 0.50772 -0.02186 0.53419
 H1088 H 0.49291 -0.03370 0.52177
 H1089 H 0.46629 0.02085 0.49386
 H1090 H 0.47851 0.03420 0.50779
 H1091 H 0.52056 -0.03449 0.49402
 H1092 H 0.53482 -0.02103 0.50781
 O1093 O 0.49888 0.48285 -0.03446
 O1094 O 0.52076 0.48454 -0.03030
 O1095 O 0.48340 0.46514 -0.00069
 O1096 O 0.48287 0.46900 0.02044
 O1097 O 0.46532 0.49893 -0.01666
 O1098 O 0.47010 0.52130 -0.01577
 O1099 O 0.51647 0.50005 0.03341
 O1100 O 0.51398 0.47821 0.02978
 O1101 O 0.53317 0.51605 0.00081
 O1102 O 0.52873 0.51524 -0.02233
 O1103 O 0.50052 0.53311 0.01640
 O1104 O 0.47759 0.52867 0.01580
 O1105 O 0.50103 0.51557 0.03345
 O1106 O 0.47722 0.51432 0.02876
 O1107 O 0.51588 0.53324 0.00088
 O1108 O 0.51451 0.52835 -0.02276
 O1109 O 0.53313 0.50077 0.01646
 O1110 O 0.52895 0.47752 0.01217
 O1111 O 0.48364 0.49861 -0.03457
 O1112 O 0.48462 0.52141 -0.02971
 O1113 O 0.46524 0.48345 -0.00120
 O1114 O 0.47052 0.48544 0.02201
 O1115 O 0.49858 0.46519 -0.01644
 O1116 O 0.52170 0.47032 -0.01360
 Zr1117 Zr 0.50654 0.48381 -0.01577
 O1118 O 0.51886 0.49532 -0.00458
 Zr1119 Zr 0.48386 0.48396 0.00673
 O1120 O 0.49544 0.49509 0.01904
 Zr1121 Zr 0.48403 0.50652 -0.01589
 O1122 O 0.49527 0.51885 -0.00441
 Zr1123 Zr 0.51495 0.49210 0.01493
 O1124 O 0.50340 0.47958 0.00380
 Zr1125 Zr 0.51479 0.51486 -0.00752
 O1126 O 0.50354 0.50341 -0.02000
 Zr1127 Zr 0.49233 0.51467 0.01515
 O1128 O 0.47971 0.50354 0.00366
 O1129 O 0.48708 0.48706 -0.01269
 O1130 O 0.51183 0.51169 0.01199
 C1131 C 0.49007 0.48953 -0.03999
 C1132 C 0.48980 0.45968 -0.00974
 C1133 C 0.45980 0.49003 -0.01014
 C1134 C 0.51022 0.50925 0.03878
 C1135 C 0.53849 0.50989 0.01011
 C1136 C 0.50962 0.53854 0.01010
 H1137 H 0.52789 0.49321 -0.00662
 H1138 H 0.49311 0.52788 -0.00645
 H1139 H 0.48159 0.48156 -0.01818
 H1140 H 0.49353 0.49289 0.02809
 H1141 H 0.51123 0.47006 0.02569
 H1142 H 0.48950 0.47083 0.02698
 H1143 H 0.50722 0.53428 -0.02130
 H1144 H 0.49304 0.52072 -0.03408
 H1145 H 0.53504 0.47787 0.01950
 H1146 H 0.52091 0.46368 -0.02042
 H1147 H 0.47795 0.53361 0.00769
 H1148 H 0.46611 0.52116 -0.00714
 H1149 H 0.52060 0.49336 -0.03386
 H1150 H 0.53392 0.50731 -0.02162
 H1151 H 0.46545 0.49335 0.02051
 H1152 H 0.47887 0.50714 0.03477
 O1153 O 0.75142 0.26671 0.46596
 O1154 O 0.72953 0.26511 0.47004
 O1155 O 0.76687 0.28436 0.49982
 O1156 O 0.76735 0.28049 0.52095
 O1157 O 0.78489 0.25056 0.48384
 O1158 O 0.78008 0.22819 0.48474
 O1159 O 0.73365 0.24959 0.53376
 O1160 O 0.73618 0.27140 0.53013
 O1161 O 0.71696 0.23361 0.50107
 O1162 O 0.72147 0.23443 0.47794
 O1163 O 0.74949 0.21645 0.51678
 O1164 O 0.77241 0.22076 0.51628
 O1165 O 0.74905 0.23402 0.53385
 O1166 O 0.77288 0.23516 0.52918
 O1167 O 0.73417 0.21638 0.50119
 O1168 O 0.73563 0.22126 0.47756
 O1169 O 0.71701 0.24887 0.51674
 O1170 O 0.72125 0.27211 0.51248
 O1171 O 0.76661 0.25090 0.46589
 O1172 O 0.76558 0.22811 0.47074
 O1173 O 0.78497 0.26604 0.49932
 O1174 O 0.77966 0.26401 0.52253
 O1175 O 0.75175 0.28438 0.48401
 O1176 O 0.72860 0.27932 0.48675
 Zr1177 Zr 0.74372 0.26578 0.48462
 O1178 O 0.73134 0.25430 0.49576
 Zr1179 Zr 0.76635 0.26554 0.50721
 O1180 O 0.75470 0.25444 0.51946
 Zr1181 Zr 0.76617 0.24300 0.48457
 O1182 O 0.75486 0.23070 0.49599
 Zr1183 Zr 0.73522 0.25750 0.51528
 O1184 O 0.74683 0.26999 0.50420
 Zr1185 Zr 0.73536 0.23475 0.49280
 O1186 O 0.74667 0.24617 0.48038
 Zr1187 Zr 0.75776 0.23486 0.51556
 O1188 O 0.77045 0.24595 0.50413
 O1189 O 0.76316 0.26247 0.48777
 O1190 O 0.73828 0.23790 0.51234
 C1191 C 0.76021 0.25999 0.46044
 C1192 C 0.76052 0.28986 0.49075
 C1193 C 0.79042 0.25947 0.49038
 C1194 C 0.73989 0.24039 0.53917
 C1195 C 0.71164 0.23977 0.51036
 C1196 C 0.74038 0.21105 0.51043
 H1197 H 0.72232 0.25644 0.49368
 H1198 H 0.75700 0.22166 0.49395
 H1199 H 0.76868 0.26796 0.48231
 H1200 H 0.75661 0.25664 0.52851
 H1201 H 0.73897 0.27954 0.52605
 H1202 H 0.76070 0.27867 0.52746
 H1203 H 0.74289 0.21530 0.47905
 H1204 H 0.75717 0.22881 0.46635
 H1205 H 0.71515 0.27177 0.51978
 H1206 H 0.72943 0.28596 0.47994
 H1207 H 0.77213 0.21591 0.50811
 H1208 H 0.78406 0.22835 0.49338
 H1209 H 0.72966 0.25628 0.46649
 H1210 H 0.71628 0.24236 0.47865
 H1211 H 0.78474 0.25611 0.52100
 H1212 H 0.77125 0.24234 0.53521
 O1213 O 0.74877 0.71577 0.01659
 O1214 O 0.77065 0.71986 0.01493
 O1215 O 0.73333 0.74958 0.03433
 O1216 O 0.73285 0.77073 0.03051
 O1217 O 0.71523 0.73366 0.00056
 O1218 O 0.71998 0.73457 -0.02180
 O1219 O 0.76649 0.78360 -0.00052
 O1220 O 0.76399 0.77997 0.02131
 O1221 O 0.78309 0.75096 -0.01657
 O1222 O 0.77860 0.72781 -0.01577
 O1223 O 0.75049 0.76669 -0.03357
 O1224 O 0.72757 0.76616 -0.02916
 O1225 O 0.75103 0.78372 -0.01603
 O1226 O 0.72719 0.77908 -0.01476
 O1227 O 0.76582 0.75111 -0.03371
 O1228 O 0.76437 0.72744 -0.02888
 O1229 O 0.78309 0.76660 -0.00127
 O1230 O 0.77892 0.76231 0.02197
 O1231 O 0.73351 0.71570 0.00085
 O1232 O 0.73450 0.72058 -0.02194
 O1233 O 0.71518 0.74912 0.01606
 O1234 O 0.72050 0.77235 0.01407
 O1235 O 0.74848 0.73378 0.03427
 O1236 O 0.77161 0.73656 0.02915
 Zr1237 Zr 0.75645 0.73444 0.01566
 O1238 O 0.76879 0.74560 0.00416
 Zr1239 Zr 0.73381 0.75702 0.01553
 O1240 O 0.74541 0.76931 0.00442
 Zr1241 Zr 0.73393 0.73440 -0.00703
 O1242 O 0.74518 0.74586 -0.01935
 Zr1243 Zr 0.76491 0.76513 0.00741
 O1244 O 0.75335 0.75402 0.01992
 Zr1245 Zr 0.76470 0.74267 -0.01537
 O1246 O 0.75344 0.73022 -0.00393
 Zr1247 Zr 0.74229 0.76544 -0.01514
 O1248 O 0.72965 0.75397 -0.00403
 O1249 O 0.73700 0.73758 0.01242
 O1250 O 0.76177 0.76221 -0.01217
 C1251 C 0.73994 0.71025 0.00992
 C1252 C 0.73971 0.74050 0.03978
 C1253 C 0.70972 0.74019 0.00949
 C1254 C 0.76025 0.78901 -0.00971
 C1255 C 0.78843 0.76024 -0.01041
 C1256 C 0.75960 0.76038 -0.03899
 H1257 H 0.77782 0.74352 0.00627
 H1258 H 0.74302 0.74383 -0.02838
 H1259 H 0.73150 0.73211 0.01791
 H1260 H 0.74353 0.77836 0.00663
 H1261 H 0.76123 0.77589 0.02945
 H1262 H 0.73950 0.77726 0.02868
 H1263 H 0.75710 0.72896 -0.03482
 H1264 H 0.74290 0.71618 -0.02125
 H1265 H 0.78502 0.76962 0.02162
 H1266 H 0.77081 0.72975 0.03578
 H1267 H 0.72788 0.75802 -0.03408
 H1268 H 0.71601 0.74322 -0.02164
 H1269 H 0.77049 0.71632 0.00610
 H1270 H 0.78381 0.72851 -0.00785
 H1271 H 0.71540 0.77085 0.00618
 H1272 H 0.72888 0.78512 -0.00760
 O1273 O 1.03500 0.23316 0.24917
 O1274 O 1.03088 0.23483 0.27106
 O1275 O 1.00123 0.21546 0.23365
 O1276 O 0.98014 0.21933 0.23308
 O1277 O 1.01719 0.24925 0.21559
 O1278 O 1.01630 0.27162 0.22038
 O1279 O 0.96721 0.25032 0.26676
 O1280 O 0.97087 0.22850 0.26428
 O1281 O 0.99980 0.26636 0.28352
 O1282 O 1.02291 0.26554 0.27908
 O1283 O 0.98419 0.28342 0.25086
 O1284 O 0.98474 0.27902 0.22793
 O1285 O 0.96714 0.26586 0.25132
 O1286 O 0.97185 0.26464 0.22748
 O1287 O 0.99972 0.28354 0.26624
 O1288 O 1.02334 0.27865 0.26486
 O1289 O 0.98417 0.25109 0.28346
 O1290 O 0.98847 0.22784 0.27927
 O1291 O 1.03509 0.24893 0.23393
 O1292 O 1.03023 0.27173 0.23494
 O1293 O 1.00175 0.23377 0.21548
 O1294 O 0.97855 0.23577 0.22077
 O1295 O 1.01699 0.21549 0.24884
 O1296 O 1.01420 0.22062 0.27199
 Zr1297 Zr 1.01634 0.23411 0.25683
 O1298 O 1.00517 0.24562 0.26918
 Zr1299 Zr 0.99384 0.23429 0.23411
 O1300 O 0.98156 0.24541 0.24573
 Zr1301 Zr 1.01643 0.25683 0.23432
 O1302 O 1.00497 0.26916 0.24558
 Zr1303 Zr 0.98568 0.24241 0.26525
 O1304 O 0.99679 0.22989 0.25367
 Zr1305 Zr 1.00811 0.26517 0.26512
 O1306 O 1.02056 0.25371 0.25385
 Zr1307 Zr 0.98543 0.26498 0.24264
 O1308 O 0.99690 0.25386 0.22999
 O1309 O 1.01324 0.23737 0.23735
 O1310 O 0.98861 0.26200 0.26215
 C1311 C 1.04052 0.23985 0.24036
 C1312 C 1.01027 0.20998 0.24005
 C1313 C 1.01067 0.24035 0.21004
 C1314 C 0.96182 0.25950 0.26049
 C1315 C 0.99051 0.26022 0.28883
 C1316 C 0.99050 0.28885 0.25998
 H1317 H 1.00723 0.24351 0.27822
 H1318 H 1.00701 0.27819 0.24343
 H1319 H 1.01872 0.23187 0.23185
 H1320 H 0.97252 0.24320 0.24380
 H1321 H 0.97496 0.22035 0.26152
 H1322 H 0.97363 0.22113 0.23976
 H1323 H 1.02186 0.28458 0.25757
 H1324 H 1.03460 0.27103 0.24336
 H1325 H 0.98116 0.22819 0.28536
 H1326 H 1.02100 0.21398 0.27119
 H1327 H 0.99288 0.28391 0.22824
 H1328 H 1.00767 0.27147 0.21639
 H1329 H 1.03441 0.24366 0.27094
 H1330 H 1.02221 0.25761 0.28427
 H1331 H 0.98007 0.24367 0.21567
 H1332 H 0.96584 0.25746 0.22912
 O1333 O 0.74916 1.03441 0.73338
 O1334 O 0.77103 1.03023 0.73511
 O1335 O 0.73366 1.00061 0.71568
 O1336 O 0.73317 0.97946 0.71955
 O1337 O 0.71554 1.01665 0.74934
 O1338 O 0.72026 1.01579 0.77173
 O1339 O 0.76668 0.96655 0.75072
 O1340 O 0.76423 0.97013 0.72888
 O1341 O 0.78335 0.99919 0.76672
 O1342 O 0.77890 1.02237 0.76582
 O1343 O 0.75071 0.98363 0.78368
 O1344 O 0.72776 0.98425 0.77919
 O1345 O 0.75121 0.96654 0.76620
 O1346 O 0.72741 0.97125 0.76487
 O1347 O 0.76607 0.99916 0.78381
 O1348 O 0.76469 1.02281 0.77892
 O1349 O 0.78333 0.98350 0.75148
 O1350 O 0.77921 0.98774 0.72821
 O1351 O 0.73388 1.03457 0.74908
 O1352 O 0.73478 1.02974 0.77187
 O1353 O 0.71549 1.00114 0.73390
 O1354 O 0.72076 0.97792 0.73595
 O1355 O 0.74884 1.01636 0.71575
 O1356 O 0.77195 1.01350 0.72092
 Zr1357 Zr 0.75679 1.01571 0.73437
 O1358 O 0.76909 1.00454 0.74593
 Zr1359 Zr 0.73410 0.99320 0.73450
 O1360 O 0.74566 0.98091 0.74568
 Zr1361 Zr 0.73423 1.01589 0.75700
 O1362 O 0.74545 1.00443 0.76939
 Zr1363 Zr 0.76517 0.98501 0.74274
 O1364 O 0.75365 0.99613 0.73016
 Zr1365 Zr 0.76498 1.00754 0.76545
 O1366 O 0.75375 1.01999 0.75394
 Zr1367 Zr 0.74252 0.98485 0.76523
 O1368 O 0.72992 0.99632 0.75404
 O1369 O 0.73732 1.01264 0.73757
 O1370 O 0.76202 0.98801 0.76230
 C1371 C 0.74035 1.03998 0.74003
 C1372 C 0.74005 1.00966 0.71023
 C1373 C 0.71004 1.01011 0.74043
 C1374 C 0.76042 0.96120 0.75991
 C1375 C 0.78867 0.98986 0.76061
 C1376 C 0.75982 0.98993 0.78911
 H1377 H 0.77813 1.00658 0.74385
 H1378 H 0.74328 1.00650 0.77840
 H1379 H 0.73184 1.01813 0.73205
 H1380 H 0.74375 0.97186 0.74350
 H1381 H 0.76150 0.97420 0.72071
 H1382 H 0.73976 0.97288 0.72145
 H1383 H 0.75740 1.02134 0.78483
 H1384 H 0.74321 1.03409 0.77123
 H1385 H 0.78529 0.98040 0.72860
 H1386 H 0.77118 1.02030 0.71428
 H1387 H 0.72813 0.99237 0.78412
 H1388 H 0.71628 1.00715 0.77158
 H1389 H 0.77087 1.03381 0.74392
 H1390 H 0.78416 1.02159 0.75794
 H1391 H 0.71567 0.97944 0.74384
 H1392 H 0.72906 0.96521 0.75771
 O1393 O 0.76714 0.46553 0.25097
 O1394 O 0.76537 0.46969 0.22907
 O1395 O 0.78474 0.49937 0.26647
 O1396 O 0.78083 0.52051 0.26700
 O1397 O 0.75115 0.48329 0.28464
 O1398 O 0.72880 0.48409 0.27991
 O1399 O 0.74967 0.53338 0.23348
 O1400 O 0.77148 0.52981 0.23589
 O1401 O 0.73374 0.50069 0.21676
 O1402 O 0.73466 0.47753 0.22121
 O1403 O 0.71678 0.51626 0.24948
 O1404 O 0.72126 0.51566 0.27242
 O1405 O 0.73422 0.53337 0.24898
 O1406 O 0.73556 0.52864 0.27281
 O1407 O 0.71665 0.50072 0.23409
 O1408 O 0.72160 0.47708 0.23546
 O1409 O 0.74893 0.51640 0.21678
 O1410 O 0.77217 0.51220 0.22090
 O1411 O 0.75147 0.46536 0.26627
 O1412 O 0.72868 0.47015 0.26536
 O1413 O 0.76655 0.49881 0.28468
 O1414 O 0.76445 0.52203 0.27942
 O1415 O 0.78470 0.48362 0.25126
 O1416 O 0.77950 0.48645 0.22813
 Zr1417 Zr 0.76609 0.48423 0.24333
 O1418 O 0.75451 0.49538 0.23103
 Zr1419 Zr 0.76593 0.50674 0.26605
 O1420 O 0.75473 0.51902 0.25450
 Zr1421 Zr 0.74350 0.48403 0.26592
 O1422 O 0.73110 0.49547 0.25471
 Zr1423 Zr 0.75766 0.51491 0.23496
 O1424 O 0.77025 0.50382 0.24648
 Zr1425 Zr 0.73502 0.49236 0.23516
 O1426 O 0.74655 0.47992 0.24638
 Zr1427 Zr 0.73521 0.51505 0.25765
 O1428 O 0.74641 0.50360 0.27025
 O1429 O 0.76290 0.48730 0.26282
 O1430 O 0.73813 0.51190 0.23813
 C1431 C 0.76053 0.45997 0.25980
 C1432 C 0.79021 0.49033 0.26005
 C1433 C 0.76004 0.48985 0.29015
 C1434 C 0.74049 0.53873 0.23978
 C1435 C 0.73982 0.51001 0.21143
 C1436 C 0.71135 0.50994 0.24036
 H1437 H 0.75659 0.49334 0.22198
 H1438 H 0.72210 0.49339 0.25689
 H1439 H 0.76843 0.48183 0.26830
 H1440 H 0.75690 0.52807 0.25641
 H1441 H 0.77964 0.52575 0.23862
 H1442 H 0.77894 0.52706 0.26039
 H1443 H 0.71570 0.47853 0.24276
 H1444 H 0.72935 0.46579 0.25692
 H1445 H 0.77177 0.51953 0.21481
 H1446 H 0.78615 0.47965 0.22889
 H1447 H 0.71637 0.50751 0.27208
 H1448 H 0.72891 0.49274 0.28390
 H1449 H 0.75657 0.46610 0.22925
 H1450 H 0.74254 0.47828 0.21597
 H1451 H 0.75658 0.52049 0.28452
 H1452 H 0.74270 0.53470 0.27115
 O1453 O 0.50067 0.21551 0.73322
 O1454 O 0.47879 0.21963 0.73492
 O1455 O 0.51611 0.24937 0.71567
 O1456 O 0.51661 0.27050 0.71959
 O1457 O 0.53423 0.23330 0.74936
 O1458 O 0.52945 0.23407 0.77172
 O1459 O 0.48303 0.28332 0.75064
 O1460 O 0.48548 0.27975 0.72882
 O1461 O 0.46635 0.25063 0.76657
 O1462 O 0.47082 0.22749 0.76566
 O1463 O 0.49900 0.26619 0.78365
 O1464 O 0.52189 0.26567 0.77924
 O1465 O 0.49847 0.28334 0.76617
 O1466 O 0.52230 0.27863 0.76490
 O1467 O 0.48366 0.25064 0.78374
 O1468 O 0.48505 0.22701 0.77876
 O1469 O 0.46638 0.26634 0.75135
 O1470 O 0.47054 0.26213 0.72809
 O1471 O 0.51593 0.21534 0.74896
 O1472 O 0.51494 0.22012 0.77177
 O1473 O 0.53427 0.24882 0.73394
 O1474 O 0.52896 0.27204 0.73602
 O1475 O 0.50096 0.23360 0.71564
 O1476 O 0.47783 0.23639 0.72078
 Zr1477 Zr 0.49299 0.23419 0.73425
 O1478 O 0.48066 0.24533 0.74581
 Zr1479 Zr 0.51565 0.25673 0.73450
 O1480 O 0.50405 0.26899 0.74567
 Zr1481 Zr 0.51551 0.23401 0.75694
 O1482 O 0.50427 0.24544 0.76932
 Zr1483 Zr 0.48455 0.26486 0.74267
 O1484 O 0.49611 0.25378 0.73010
 Zr1485 Zr 0.48474 0.24231 0.76533
 O1486 O 0.49600 0.22988 0.75383
 Zr1487 Zr 0.50718 0.26503 0.76521
 O1488 O 0.51981 0.25358 0.75405
 O1489 O 0.51245 0.23728 0.73751
 O1490 O 0.48768 0.26186 0.76223
 C1491 C 0.50949 0.20995 0.73986
 C1492 C 0.50974 0.24033 0.71016
 C1493 C 0.53974 0.23987 0.74048
 C1494 C 0.48929 0.28869 0.75984
 C1495 C 0.46103 0.25995 0.76045
 C1496 C 0.48992 0.25985 0.78907
 H1497 H 0.47163 0.24328 0.74370
 H1498 H 0.50644 0.24336 0.77833
 H1499 H 0.51795 0.23182 0.73199
 H1500 H 0.50596 0.27805 0.74350
 H1501 H 0.48823 0.27569 0.72066
 H1502 H 0.50997 0.27703 0.72144
 H1503 H 0.49235 0.22845 0.78467
 H1504 H 0.50653 0.21573 0.77106
 H1505 H 0.46444 0.26945 0.72848
 H1506 H 0.47862 0.22961 0.71412
 H1507 H 0.52161 0.25749 0.78408
 H1508 H 0.53344 0.24271 0.77161
 H1509 H 0.47894 0.21605 0.74374
 H1510 H 0.46563 0.22822 0.75773
 H1511 H 0.53405 0.27050 0.74391
 H1512 H 0.52063 0.28470 0.75777
 O1513 O 0.25087 0.76703 0.46572
 O1514 O 0.22901 0.76535 0.46986
 O1515 O 0.26637 0.78472 0.49953
 O1516 O 0.26688 0.78086 0.52066
 O1517 O 0.28447 0.75097 0.48354
 O1518 O 0.27972 0.72860 0.48439
 O1519 O 0.23335 0.74980 0.53356
 O1520 O 0.23578 0.77162 0.52993
 O1521 O 0.21663 0.73378 0.50089
 O1522 O 0.22108 0.73462 0.47776
 O1523 O 0.24930 0.71672 0.51649
 O1524 O 0.27220 0.72116 0.51595
 O1525 O 0.24880 0.73428 0.53360
 O1526 O 0.27259 0.73552 0.52889
 O1527 O 0.23394 0.71660 0.50094
 O1528 O 0.23529 0.72152 0.47732
 O1529 O 0.21666 0.74904 0.51657
 O1530 O 0.22082 0.77230 0.51232
 O1531 O 0.26614 0.75129 0.46560
 O1532 O 0.26520 0.72849 0.47043
 O1533 O 0.28454 0.76644 0.49903
 O1534 O 0.27926 0.76443 0.52223
 O1535 O 0.25120 0.78468 0.48376
 O1536 O 0.22808 0.77955 0.48658
 Zr1537 Zr 0.24324 0.76606 0.48440
 O1538 O 0.23093 0.75453 0.49556
 Zr1539 Zr 0.26592 0.76590 0.50693
 O1540 O 0.25435 0.75475 0.51920
 Zr1541 Zr 0.26577 0.74337 0.48427
 O1542 O 0.25454 0.73101 0.49572
 Zr1543 Zr 0.23484 0.75772 0.51508
 O1544 O 0.24637 0.77028 0.50398
 Zr1545 Zr 0.23501 0.73499 0.49259
 O1546 O 0.24625 0.74647 0.48014
 Zr1547 Zr 0.25747 0.73518 0.51529
 O1548 O 0.27008 0.74633 0.50383
 O1549 O 0.26270 0.76282 0.48750
 O1550 O 0.23797 0.73814 0.51212
 C1551 C 0.25968 0.76036 0.46018
 C1552 C 0.25998 0.79019 0.49047
 C1553 C 0.28999 0.75987 0.49010
 C1554 C 0.23963 0.74062 0.53894
 C1555 C 0.21130 0.73993 0.51019
 C1556 C 0.24021 0.71129 0.51015
 H1557 H 0.22189 0.75663 0.49351
 H1558 H 0.25670 0.72199 0.49366
 H1559 H 0.26819 0.76833 0.48202
 H1560 H 0.25626 0.75694 0.52825
 H1561 H 0.23853 0.77977 0.52586
 H1562 H 0.26026 0.77900 0.52720
 H1563 H 0.24260 0.71561 0.47877
 H1564 H 0.25678 0.72917 0.46606
 H1565 H 0.21473 0.77193 0.51964
 H1566 H 0.22886 0.78619 0.47978
 H1567 H 0.27189 0.71628 0.50780
 H1568 H 0.28371 0.72874 0.49302
 H1569 H 0.22916 0.75652 0.46630
 H1570 H 0.21587 0.74254 0.47848
 H1571 H 0.28434 0.75652 0.52072
 H1572 H 0.27096 0.74270 0.53491
 O1573 O 0.28443 0.25078 0.98364
 O1574 O 0.28028 0.22888 0.98532
 O1575 O 0.25065 0.26634 0.96601
 O1576 O 0.22955 0.26687 0.96990
 O1577 O 0.26671 0.28444 0.99971
 O1578 O 0.26589 0.27967 1.02208
 O1579 O 0.21669 0.23328 1.00095
 O1580 O 0.22026 0.23574 0.97914
 O1581 O 0.24933 0.21649 1.01689
 O1582 O 0.27244 0.22094 1.01604
 O1583 O 0.23380 0.24922 1.03398
 O1584 O 0.23436 0.27216 1.02956
 O1585 O 0.21669 0.24876 1.01646
 O1586 O 0.22142 0.27259 1.01522
 O1587 O 0.24931 0.23382 1.03408
 O1588 O 0.27290 0.23516 1.02915
 O1589 O 0.23365 0.21655 1.00166
 O1590 O 0.23784 0.22073 0.97842
 O1591 O 0.28460 0.26607 0.99937
 O1592 O 0.27982 0.26511 1.02217
 O1593 O 0.25121 0.28452 0.98428
 O1594 O 0.22803 0.27927 0.98632
 O1595 O 0.26639 0.25113 0.96602
 O1596 O 0.26356 0.22798 0.97115
 Zr1597 Zr 0.26577 0.24315 0.98463
 O1598 O 0.25463 0.23082 0.99617
 Zr1599 Zr 0.24329 0.26589 0.98483
 O1600 O 0.23104 0.25431 0.99599
 Zr1601 Zr 0.26596 0.26570 1.00731
 O1602 O 0.25454 0.25446 1.01967
 Zr1603 Zr 0.23513 0.23476 0.99300
 O1604 O 0.24621 0.24631 0.98044
 Zr1605 Zr 0.25764 0.23490 1.01569
 O1606 O 0.27006 0.24615 1.00421
 Zr1607 Zr 0.23499 0.25742 1.01554
 O1608 O 0.24642 0.27005 1.00438
 O1609 O 0.26270 0.26264 0.98788
 O1610 O 0.23813 0.23788 1.01257
 C1611 C 0.28999 0.25960 0.99030
 C1612 C 0.25968 0.25994 0.96052
 C1613 C 0.26015 0.28998 0.99082
 C1614 C 0.21133 0.23958 1.01013
 C1615 C 0.24004 0.21117 1.01075
 C1616 C 0.24013 0.24011 1.03940
 H1617 H 0.25667 0.22178 0.99405
 H1618 H 0.25661 0.25662 1.02869
 H1619 H 0.26817 0.26814 0.98236
 H1620 H 0.22200 0.25624 0.99380
 H1621 H 0.22432 0.23849 0.97098
 H1622 H 0.22300 0.26026 0.97176
 H1623 H 0.27147 0.24248 1.03505
 H1624 H 0.28417 0.25667 1.02148
 H1625 H 0.23053 0.21464 0.97879
 H1626 H 0.27034 0.22875 0.96450
 H1627 H 0.24252 0.27184 1.03442
 H1628 H 0.25727 0.28368 1.02194
 H1629 H 0.28387 0.22904 0.99414
 H1630 H 0.27171 0.21573 1.00812
 H1631 H 0.22956 0.28436 0.99422
 H1632 H 0.21539 0.27096 1.00806
 C1633 C 0.28735 0.37508 0.78731
 N1634 N 0.29762 0.36931 0.78170
 N1635 N 0.30190 0.35802 0.78599
 C1636 C 0.29607 0.35207 0.79604
 N1637 N 0.28576 0.35783 0.80160
 N1638 N 0.28149 0.36912 0.79732
 C1639 C 0.28283 0.38768 0.78280
 N1640 N 0.27275 0.39358 0.78860
 N1641 N 0.26884 0.40514 0.78470
 C1642 C 0.27486 0.41122 0.77486
 N1643 N 0.28491 0.40530 0.76903
 N1644 N 0.28883 0.39374 0.77293
 C1645 C 0.27075 0.42410 0.77077
 N1646 N 0.27690 0.43027 0.76107
 N1647 N 0.27336 0.44208 0.75756
 C1648 C 0.26352 0.44814 0.76362
 N1649 N 0.25734 0.44195 0.77330
 N1650 N 0.26089 0.43014 0.77680
 C1651 C 0.28719 -0.12578 0.28691
 N1652 N 0.29728 -0.13171 0.28114
 N1653 N 0.30142 -0.14309 0.28531
 C1654 C 0.29564 -0.14899 0.29543
 N1655 N 0.28551 -0.14306 0.30115
 N1656 N 0.28137 -0.13168 0.29697
 C1657 C 0.28283 -0.11309 0.28251
 N1658 N 0.27288 -0.10708 0.28844
 N1659 N 0.26909 -0.09544 0.28463
 C1660 C 0.27511 -0.08939 0.27477
 N1661 N 0.28503 -0.09542 0.26881
 N1662 N 0.28882 -0.10706 0.27262
 C1663 C 0.27111 -0.07645 0.27077
 N1664 N 0.27727 -0.07029 0.26106
 N1665 N 0.27380 -0.05845 0.25760
 C1666 C 0.26404 -0.05233 0.26373
 N1667 N 0.25786 -0.05851 0.27341
 N1668 N 0.26133 -0.07035 0.27687
 C1669 C 0.78873 0.87572 0.78865
 N1670 N 0.79896 0.86988 0.78305
 N1671 N 0.80337 0.85873 0.78757
 C1672 C 0.79774 0.85300 0.79787
 N1673 N 0.78747 0.85884 0.80341
 N1674 N 0.78305 0.86999 0.79890
 C1675 C 0.78406 0.88817 0.78388
 N1676 N 0.77399 0.89413 0.78964
 N1677 N 0.76994 0.90556 0.78551
 C1678 C 0.77582 0.91146 0.77548
 N1679 N 0.78587 0.90549 0.76969
 N1680 N 0.78992 0.89405 0.77382
 C1681 C 0.77158 0.92423 0.77117
 N1682 N 0.77764 0.93028 0.76133
 N1683 N 0.77400 0.94200 0.75764
 C1684 C 0.76416 0.94810 0.76366
 N1685 N 0.75807 0.94202 0.77347
 N1686 N 0.76171 0.93030 0.77715
 C1687 C 0.46377 0.87708 0.28589
 N1688 N 0.45348 0.88284 0.28032
 N1689 N 0.44917 0.89410 0.28465
 C1690 C 0.45499 0.90004 0.29474
 N1691 N 0.46535 0.89429 0.30025
 N1692 N 0.46965 0.88303 0.29591
 C1693 C 0.46825 0.86446 0.28139
 N1694 N 0.47833 0.85854 0.28720
 N1695 N 0.48214 0.84692 0.28338
 C1696 C 0.47602 0.84080 0.27362
 N1697 N 0.46599 0.84674 0.26777
 N1698 N 0.46217 0.85837 0.27158
 C1699 C 0.47993 0.82780 0.26972
 N1700 N 0.47359 0.82153 0.26019
 N1701 N 0.47685 0.80957 0.25694
 C1702 C 0.48659 0.80344 0.26310
 N1703 N 0.49299 0.80974 0.27258
 N1704 N 0.48972 0.82170 0.27583
 C1705 C -0.03847 0.87456 0.78889
 N1706 N -0.04871 0.88038 0.78329
 N1707 N -0.05316 0.89151 0.78781
 C1708 C -0.04754 0.89726 0.79812
 N1709 N -0.03724 0.89144 0.80366
 N1710 N -0.03279 0.88031 0.79914
 C1711 C -0.03378 0.86212 0.78411
 N1712 N -0.02368 0.85619 0.78987
 N1713 N -0.01962 0.84476 0.78574
 C1714 C -0.02551 0.83884 0.77571
 N1715 N -0.03558 0.84479 0.76993
 N1716 N -0.03964 0.85623 0.77405
 C1717 C -0.02127 0.82607 0.77140
 N1718 N -0.02736 0.82000 0.76158
 N1719 N -0.02372 0.80827 0.75791
 C1720 C -0.01386 0.80219 0.76392
 N1721 N -0.00774 0.80829 0.77371
 N1722 N -0.01137 0.82002 0.77738
 C1723 C -0.03828 -0.12449 -0.03771
 N1724 N -0.03259 -0.13023 -0.04796
 N1725 N -0.03697 -0.14140 -0.05245
 C1726 C -0.04721 -0.14724 -0.04688
 N1727 N -0.05287 -0.14151 -0.03659
 N1728 N -0.04848 -0.13035 -0.03210
 C1729 C -0.03366 -0.11202 -0.03298
 N1730 N -0.03954 -0.10613 -0.02292
 N1731 N -0.03555 -0.09466 -0.01883
 C1732 C -0.02554 -0.08867 -0.02465
 N1733 N -0.01963 -0.09458 -0.03467
 N1734 N -0.02362 -0.10604 -0.03876
 C1735 C -0.02136 -0.07587 -0.02038
 N1736 N -0.01153 -0.06978 -0.02640
 N1737 N -0.00794 -0.05803 -0.02276
 C1738 C -0.01405 -0.05194 -0.01297
 N1739 N -0.02384 -0.05806 -0.00691
 N1740 N -0.02743 -0.06981 -0.01055
 C1741 C -0.03749 0.37497 0.46240
 N1742 N -0.03185 0.36924 0.45212
 N1743 N -0.03613 0.35799 0.44775
 C1744 C -0.04622 0.35202 0.45349
 N1745 N -0.05181 0.35774 0.46383
 N1746 N -0.04752 0.36900 0.46819
 C1747 C -0.03297 0.38753 0.46700
 N1748 N -0.03882 0.39345 0.47705
 N1749 N -0.03490 0.40498 0.48102
 C1750 C -0.02499 0.41102 0.47509
 N1751 N -0.01911 0.40509 0.46506
 N1752 N -0.02303 0.39356 0.46109
 C1753 C -0.02087 0.42388 0.47924
 N1754 N -0.01108 0.42997 0.47315
 N1755 N -0.00754 0.44176 0.47670
 C1756 C -0.01365 0.44789 0.48647
 N1757 N -0.02341 0.44178 0.49258
 N1758 N -0.02696 0.42999 0.48903
 C1759 C 0.46414 -0.12725 0.46490
 N1760 N 0.46994 -0.13312 0.45480
 N1761 N 0.46571 -0.14443 0.45050
 C1762 C 0.45550 -0.15030 0.45615
 N1763 N 0.44977 -0.14443 0.46632
 N1764 N 0.45400 -0.13313 0.47060
 C1765 C 0.46855 -0.11459 0.46935
 N1766 N 0.46254 -0.10854 0.47923
 N1767 N 0.46630 -0.09689 0.48301
 C1768 C 0.47622 -0.09087 0.47705
 N1769 N 0.48226 -0.09695 0.46722
 N1770 N 0.47850 -0.10860 0.46344
 C1771 C 0.48009 -0.07785 0.48092
 N1772 N 0.48977 -0.07171 0.47471
 N1773 N 0.49302 -0.05974 0.47792
 C1774 C 0.48671 -0.05347 0.48747
 N1775 N 0.47707 -0.05963 0.49373
 N1776 N 0.47382 -0.07160 0.49051
 C1777 C 0.46381 0.37274 -0.03599
 N1778 N 0.45376 0.36678 -0.03021
 N1779 N 0.44945 0.35555 -0.03459
 C1780 C 0.45501 0.34983 -0.04494
 N1781 N 0.46512 0.35578 -0.05067
 N1782 N 0.46943 0.36701 -0.04628
 C1783 C 0.46829 0.38533 -0.03144
 N1784 N 0.47814 0.39142 -0.03743
 N1785 N 0.48195 0.40302 -0.03357
 C1786 C 0.47605 0.40897 -0.02356
 N1787 N 0.46625 0.40286 -0.01752
 N1788 N 0.46244 0.39125 -0.02138
 C1789 C 0.47995 0.42196 -0.01962
 N1790 N 0.47382 0.42808 -0.00986
 N1791 N 0.47707 0.44004 -0.00659
 C1792 C 0.48658 0.44630 -0.01295
 N1793 N 0.49275 0.44014 -0.02266
 N1794 N 0.48950 0.42819 -0.02593
 C1795 C 0.78694 0.37674 0.46482
 N1796 N 0.79722 0.38249 0.47042
 N1797 N 0.80156 0.39373 0.46607
 C1798 C 0.79578 0.39963 0.45595
 N1799 N 0.78545 0.39390 0.45040
 N1800 N 0.78112 0.38266 0.45475
 C1801 C 0.78241 0.36415 0.46933
 N1802 N 0.77240 0.35821 0.46343
 N1803 N 0.76854 0.34662 0.46725
 C1804 C 0.77453 0.34053 0.47711
 N1805 N 0.78450 0.34649 0.48306
 N1806 N 0.78837 0.35809 0.47923
 C1807 C 0.77056 0.32755 0.48101
 N1808 N 0.77672 0.32134 0.49070
 N1809 N 0.77340 0.30939 0.49393
 C1810 C 0.76381 0.30322 0.48758
 N1811 N 0.75762 0.30947 0.47794
 N1812 N 0.76093 0.32141 0.47471
 C1813 C 0.78907 0.87436 -0.03814
 N1814 N 0.79939 0.88007 -0.03258
 N1815 N 0.80389 0.89119 -0.03707
 C1816 C 0.79823 0.89703 -0.04731
 N1817 N 0.78785 0.89133 -0.05281
 N1818 N 0.78336 0.88021 -0.04831
 C1819 C 0.78431 0.86194 -0.03340
 N1820 N 0.77416 0.85611 -0.03915
 N1821 N 0.77004 0.84470 -0.03507
 C1822 C 0.77591 0.83869 -0.02508
 N1823 N 0.78604 0.84455 -0.01929
 N1824 N 0.79016 0.85596 -0.02338
 C1825 C 0.77159 0.82595 -0.02081
 N1826 N 0.77763 0.81982 -0.01099
 N1827 N 0.77392 0.80811 -0.00736
 C1828 C 0.76404 0.80210 -0.01340
 N1829 N 0.75797 0.80826 -0.02319
 N1830 N 0.76168 0.81996 -0.02682
 C1831 C 0.78668 0.28577 0.37357
 N1832 N 0.79689 0.28003 0.36783
 N1833 N 0.80126 0.28429 0.35657
 C1834 C 0.79558 0.29445 0.35064
 N1835 N 0.78533 0.30014 0.35637
 N1836 N 0.78097 0.29589 0.36762
 C1837 C 0.78213 0.28134 0.38618
 N1838 N 0.77220 0.28736 0.39212
 N1839 N 0.76833 0.28360 0.40373
 C1840 C 0.77423 0.27367 0.40981
 N1841 N 0.78412 0.26761 0.40384
 N1842 N 0.78800 0.27138 0.39223
 C1843 C 0.77026 0.26981 0.42279
 N1844 N 0.77636 0.26006 0.42897
 N1845 N 0.77304 0.25682 0.44091
 C1846 C 0.76350 0.26322 0.44710
 N1847 N 0.75736 0.27293 0.44089
 N1848 N 0.76068 0.27616 0.42896
 C1849 C 0.78813 0.78890 -0.12437
 N1850 N 0.78258 0.79921 -0.13015
 N1851 N 0.78709 0.80366 -0.14127
 C1852 C 0.79735 0.79800 -0.14704
 N1853 N 0.80285 0.78764 -0.14126
 N1854 N 0.79833 0.78319 -0.13014
 C1855 C 0.78337 0.78419 -0.11195
 N1856 N 0.78909 0.77404 -0.10607
 N1857 N 0.78498 0.76995 -0.09465
 C1858 C 0.77500 0.77588 -0.08869
 N1859 N 0.76925 0.78600 -0.09460
 N1860 N 0.77336 0.79009 -0.10601
 C1861 C 0.77072 0.77160 -0.07594
 N1862 N 0.76095 0.77771 -0.06983
 N1863 N 0.75730 0.77404 -0.05812
 C1864 C 0.76330 0.76413 -0.05209
 N1865 N 0.77303 0.75799 -0.05823
 N1866 N 0.77668 0.76165 -0.06994
 C1867 C 0.28700 0.46289 0.87533
 N1868 N 0.28117 0.45286 0.88131
 N1869 N 0.28534 0.44875 0.89270
 C1870 C 0.29548 0.45452 0.89855
 N1871 N 0.30127 0.46458 0.89259
 N1872 N 0.29711 0.46869 0.88119
 C1873 C 0.28260 0.46724 0.86264
 N1874 N 0.28859 0.47712 0.85658
 N1875 N 0.28477 0.48091 0.84496
 C1876 C 0.27482 0.47497 0.83897
 N1877 N 0.26880 0.46512 0.84505
 N1878 N 0.27263 0.46132 0.85667
 C1879 C 0.27077 0.47901 0.82606
 N1880 N 0.26093 0.47297 0.81998
 N1881 N 0.25741 0.47650 0.80818
 C1882 C 0.26360 0.48620 0.80203
 N1883 N 0.27343 0.49225 0.80812
 N1884 N 0.27695 0.48872 0.81992
 C1885 C 0.28804 -0.03761 0.37525
 N1886 N 0.29820 -0.03186 0.38105
 N1887 N 0.30243 -0.03601 0.39241
 C1888 C 0.29665 -0.04608 0.39841
 N1889 N 0.28644 -0.05178 0.39260
 N1890 N 0.28222 -0.04763 0.38124
 C1891 C 0.28357 -0.03323 0.36259
 N1892 N 0.27354 -0.03911 0.35667
 N1893 N 0.26965 -0.03529 0.34508
 C1894 C 0.27565 -0.02544 0.33898
 N1895 N 0.28565 -0.01953 0.34491
 N1896 N 0.28954 -0.02335 0.35650
 C1897 C 0.27153 -0.02139 0.32610
 N1898 N 0.27768 -0.01167 0.31993
 N1899 N 0.27411 -0.00814 0.30815
 C1900 C 0.26425 -0.01418 0.30210
 N1901 N 0.25808 -0.02387 0.30828
 N1902 N 0.26166 -0.02741 0.32007
 C1903 C -0.03827 -0.03867 -0.12400
 N1904 N -0.03265 -0.04893 -0.12978
 N1905 N -0.03713 -0.05339 -0.14092
 C1906 C -0.04741 -0.04778 -0.14671
 N1907 N -0.05298 -0.03747 -0.14092
 N1908 N -0.04850 -0.03300 -0.12978
 C1909 C -0.03355 -0.03395 -0.11155
 N1910 N -0.03934 -0.02384 -0.10566
 N1911 N -0.03526 -0.01975 -0.09422
 C1912 C -0.02525 -0.02563 -0.08826
 N1913 N -0.01943 -0.03571 -0.09417
 N1914 N -0.02351 -0.03979 -0.10561
 C1915 C -0.02100 -0.02135 -0.07549
 N1916 N -0.01119 -0.02741 -0.06938
 N1917 N -0.00757 -0.02375 -0.05766
 C1918 C -0.01361 -0.01388 -0.05161
 N1919 N -0.02338 -0.00779 -0.05774
 N1920 N -0.02701 -0.01145 -0.06947
 C1921 C -0.03744 0.46189 0.37506
 N1922 N -0.03177 0.45167 0.36926
 N1923 N -0.03600 0.44742 0.35794
 C1924 C -0.04606 0.45324 0.35197
 N1925 N -0.05168 0.46352 0.35778
 N1926 N -0.04746 0.46775 0.36910
 C1927 C -0.03299 0.46638 0.38769
 N1928 N -0.03888 0.47640 0.39363
 N1929 N -0.03501 0.48030 0.40520
 C1930 C -0.02511 0.47433 0.41125
 N1931 N -0.01920 0.46434 0.40529
 N1932 N -0.02307 0.46043 0.39372
 C1933 C -0.02103 0.47847 0.42412
 N1934 N -0.01120 0.47244 0.43023
 N1935 N -0.00766 0.47604 0.44200
 C1936 C -0.01380 0.48581 0.44809
 N1937 N -0.02361 0.49187 0.44197
 N1938 N -0.02716 0.48827 0.43020
 C1939 C 0.46460 -0.03588 0.37317
 N1940 N 0.45439 -0.03016 0.36740
 N1941 N 0.45005 -0.03443 0.35613
 C1942 C 0.45574 -0.04458 0.35021
 N1943 N 0.46600 -0.05026 0.35596
 N1944 N 0.47034 -0.04599 0.36723
 C1945 C 0.46910 -0.03144 0.38580
 N1946 N 0.47907 -0.03739 0.39176
 N1947 N 0.48288 -0.03362 0.40340
 C1948 C 0.47686 -0.02376 0.40949
 N1949 N 0.46693 -0.01778 0.40350
 N1950 N 0.46312 -0.02155 0.39186
 C1951 C 0.48074 -0.01990 0.42251
 N1952 N 0.47443 -0.01031 0.42872
 N1953 N 0.47764 -0.00708 0.44069
 C1954 C 0.48728 -0.01331 0.44689
 N1955 N 0.49364 -0.02286 0.44065
 N1956 N 0.49042 -0.02609 0.42868
 C1957 C 0.46322 0.46308 -0.12657
 N1958 N 0.46880 0.45282 -0.13239
 N1959 N 0.46431 0.44841 -0.14355
 C1960 C 0.45405 0.45409 -0.14931
 N1961 N 0.44853 0.46441 -0.14350
 N1962 N 0.45303 0.46882 -0.13234
 C1963 C 0.46789 0.46765 -0.11405
 N1964 N 0.46211 0.47772 -0.10809
 N1965 N 0.46607 0.48161 -0.09655
 C1966 C 0.47595 0.47557 -0.09054
 N1967 N 0.48178 0.46554 -0.09653
 N1968 N 0.47782 0.46166 -0.10808
 C1969 C 0.47998 0.47954 -0.07761
 N1970 N 0.48957 0.47322 -0.07141
 N1971 N 0.49291 0.47652 -0.05949
 C1972 C 0.48679 0.48627 -0.05333
 N1973 N 0.47725 0.49264 -0.05956
 N1974 N 0.47391 0.48933 -0.07148
 C1975 C 0.46475 0.78589 0.37747
 N1976 N 0.45469 0.78005 0.38335
 N1977 N 0.45045 0.78424 0.39468
 C1978 C 0.45611 0.79444 0.40056
 N1979 N 0.46621 0.80024 0.39469
 N1980 N 0.47045 0.79605 0.38336
 C1981 C 0.46916 0.78152 0.36479
 N1982 N 0.47900 0.78756 0.35875
 N1983 N 0.48275 0.78383 0.34708
 C1984 C 0.47679 0.77391 0.34104
 N1985 N 0.46698 0.76783 0.34711
 N1986 N 0.46324 0.77156 0.35877
 C1987 C 0.48063 0.77007 0.32801
 N1988 N 0.47441 0.76038 0.32184
 N1989 N 0.47762 0.75715 0.30988
 C1990 C 0.48715 0.76348 0.30363
 N1991 N 0.49341 0.77312 0.30981
 N1992 N 0.49020 0.77636 0.32179
 C1993 C -0.03856 0.78873 0.87448
 N1994 N -0.04881 0.78306 0.88021
 N1995 N -0.05324 0.78744 0.89140
 C1996 C -0.04760 0.79765 0.89729
 N1997 N -0.03731 0.80327 0.89155
 N1998 N -0.03288 0.79889 0.88036
 C1999 C -0.03389 0.78410 0.86199
 N2000 N -0.02379 0.78991 0.85612
 N2001 N -0.01974 0.78589 0.84466
 C2002 C -0.02563 0.77591 0.83864
 N2003 N -0.03569 0.77008 0.84453
 N2004 N -0.03975 0.77410 0.85599
 C2005 C -0.02137 0.77168 0.82587
 N2006 N -0.02746 0.76189 0.81975
 N2007 N -0.02380 0.75823 0.80804
 C2008 C -0.01391 0.76423 0.80201
 N2009 N -0.00779 0.77399 0.80815
 N2010 N -0.01146 0.77765 0.81986
 C2011 C 0.37311 0.78586 0.28584
 N2012 N 0.36739 0.79613 0.28017
 N2013 N 0.35614 0.80049 0.28442
 C2014 C 0.35018 0.79474 0.29451
 N2015 N 0.35588 0.78442 0.30013
 N2016 N 0.36713 0.78006 0.29588
 C2017 C 0.38572 0.78133 0.28142
 N2018 N 0.39163 0.77130 0.28732
 N2019 N 0.40325 0.76745 0.28356
 C2020 C 0.40937 0.77351 0.27376
 N2021 N 0.40343 0.78349 0.26782
 N2022 N 0.39181 0.78733 0.27158
 C2023 C 0.42236 0.76959 0.26991
 N2024 N 0.42860 0.77591 0.26036
 N2025 N 0.44055 0.77266 0.25715
 C2026 C 0.44670 0.76297 0.26337
 N2027 N 0.44044 0.75660 0.27288
 N2028 N 0.42849 0.75985 0.27609
 C2029 C -0.12425 0.78826 0.78889
 N2030 N -0.13001 0.79849 0.78318
 N2031 N -0.14117 0.80297 0.78757
 C2032 C -0.14698 0.79739 0.79784
 N2033 N -0.14123 0.78712 0.80351
 N2034 N -0.13007 0.78264 0.79912
 C2035 C -0.11179 0.78354 0.78424
 N2036 N -0.10588 0.77348 0.79011
 N2037 N -0.09444 0.76940 0.78608
 C2038 C -0.08850 0.77522 0.77604
 N2039 N -0.09443 0.78524 0.77014
 N2040 N -0.10587 0.78933 0.77417
 C2041 C -0.07573 0.77096 0.77181
 N2042 N -0.06969 0.77699 0.76195
 N2043 N -0.05797 0.77335 0.75831
 C2044 C -0.05187 0.76354 0.76440
 N2045 N -0.05793 0.75748 0.77423
 N2046 N -0.06965 0.76112 0.77786
 C2047 C 0.87668 0.28646 0.46353
 N2048 N 0.88243 0.29671 0.46922
 N2049 N 0.89353 0.30124 0.46476
 C2050 C 0.89930 0.29569 0.45444
 N2051 N 0.89357 0.28540 0.44880
 N2052 N 0.88247 0.28087 0.45326
 C2053 C 0.86423 0.28175 0.46818
 N2054 N 0.85829 0.27175 0.46226
 N2055 N 0.84680 0.26775 0.46622
 C2056 C 0.84083 0.27361 0.47623
 N2057 N 0.84680 0.28357 0.48220
 N2058 N 0.85829 0.28757 0.47824
 C2059 C 0.82794 0.26955 0.48027
 N2060 N 0.82182 0.27569 0.49002
 N2061 N 0.80994 0.27235 0.49337
 C2062 C 0.80374 0.26272 0.48709
 N2063 N 0.80989 0.25652 0.47739
 N2064 N 0.82178 0.25987 0.47405
 C2065 C 0.87401 0.78821 -0.03861
 N2066 N 0.87980 0.78256 -0.04885
 N2067 N 0.89101 0.78693 -0.05320
 C2068 C 0.89685 0.79711 -0.04747
 N2069 N 0.89108 0.80272 -0.03720
 N2070 N 0.87987 0.79835 -0.03285
 C2071 C 0.86151 0.78361 -0.03401
 N2072 N 0.85559 0.78946 -0.02396
 N2073 N 0.84412 0.78548 -0.01995
 C2074 C 0.83813 0.77550 -0.02586
 N2075 N 0.84406 0.76961 -0.03588
 N2076 N 0.85554 0.77360 -0.03989
 C2077 C 0.82535 0.77131 -0.02164
 N2078 N 0.81927 0.76145 -0.02765
 N2079 N 0.80755 0.75785 -0.02400
 C2080 C 0.80148 0.76397 -0.01420
 N2081 N 0.80758 0.77381 -0.00817
 N2082 N 0.81930 0.77741 -0.01181
 C2083 C -0.12390 -0.03898 -0.03862
 N2084 N -0.12962 -0.04926 -0.03299
 N2085 N -0.14077 -0.05372 -0.03741
 C2086 C -0.14663 -0.04809 -0.04764
 N2087 N -0.14090 -0.03776 -0.05323
 N2088 N -0.12975 -0.03330 -0.04880
 C2089 C -0.11145 -0.03426 -0.03393
 N2090 N -0.10561 -0.02412 -0.03969
 N2091 N -0.09419 -0.02002 -0.03561
 C2092 C -0.08820 -0.02590 -0.02562
 N2093 N -0.09407 -0.03601 -0.01982
 N2094 N -0.10549 -0.04012 -0.02390
 C2095 C -0.07548 -0.02159 -0.02132
 N2096 N -0.06938 -0.02767 -0.01151
 N2097 N -0.05771 -0.02396 -0.00780
 C2098 C -0.05170 -0.01402 -0.01376
 N2099 N -0.05782 -0.00791 -0.02354
 N2100 N -0.06949 -0.01163 -0.02725
 C2101 C -0.12510 0.46308 0.46286
 N2102 N -0.13094 0.45299 0.46871
 N2103 N -0.14229 0.44875 0.46459
 C2104 C -0.14825 0.45444 0.45444
 N2105 N -0.14241 0.46459 0.44863
 N2106 N -0.13106 0.46882 0.45276
 C2107 C -0.11245 0.46754 0.46721
 N2108 N -0.10649 0.47747 0.46119
 N2109 N -0.09489 0.48134 0.46497
 C2110 C -0.08882 0.47542 0.47490
 N2111 N -0.09480 0.46552 0.48094
 N2112 N -0.10640 0.46165 0.47716
 C2113 C -0.07592 0.47949 0.47889
 N2114 N -0.06978 0.47342 0.48867
 N2115 N -0.05797 0.47693 0.49213
 C2116 C -0.05187 0.48666 0.48594
 N2117 N -0.05803 0.49277 0.47618
 N2118 N -0.06983 0.48925 0.47272
 C2119 C 0.37362 -0.03611 0.46325
 N2120 N 0.36798 -0.03061 0.45285
 N2121 N 0.35679 -0.03499 0.44843
 C2122 C 0.35082 -0.04505 0.45424
 N2123 N 0.35645 -0.05048 0.46471
 N2124 N 0.36764 -0.04610 0.46912
 C2125 C 0.38615 -0.03155 0.46786
 N2126 N 0.39198 -0.03730 0.47802
 N2127 N 0.40353 -0.03342 0.48195
 C2128 C 0.40967 -0.02366 0.47586
 N2129 N 0.40381 -0.01787 0.46573
 N2130 N 0.39226 -0.02174 0.46181
 C2131 C 0.42260 -0.01969 0.47988
 N2132 N 0.42886 -0.01016 0.47356
 N2133 N 0.44076 -0.00686 0.47692
 C2134 C 0.44684 -0.01298 0.48672
 N2135 N 0.44055 -0.02247 0.49309
 N2136 N 0.42864 -0.02576 0.48974
 C2137 C 0.37297 0.46409 -0.03641
 N2138 N 0.36704 0.45406 -0.03055
 N2139 N 0.35581 0.44971 -0.03489
 C2140 C 0.35008 0.45521 -0.04527
 N2141 N 0.35601 0.46531 -0.05106
 N2142 N 0.36724 0.46965 -0.04672
 C2143 C 0.38556 0.46859 -0.03189
 N2144 N 0.39163 0.47843 -0.03793
 N2145 N 0.40323 0.48225 -0.03409
 C2146 C 0.40917 0.47636 -0.02406
 N2147 N 0.40306 0.46657 -0.01799
 N2148 N 0.39147 0.46275 -0.02183
 C2149 C 0.42214 0.48025 -0.02012
 N2150 N 0.42825 0.47406 -0.01039
 N2151 N 0.44019 0.47729 -0.00710
 C2152 C 0.44645 0.48684 -0.01342
 N2153 N 0.44031 0.49308 -0.02310
 N2154 N 0.42838 0.48984 -0.02640
 C2155 C 0.37471 0.46290 0.78767
 N2156 N 0.38068 0.46865 0.79775
 N2157 N 0.39198 0.46432 0.80195
 C2158 C 0.39772 0.45408 0.79623
 N2159 N 0.39176 0.44837 0.78611
 N2160 N 0.38047 0.45270 0.78191
 C2161 C 0.36211 0.46746 0.78324
 N2162 N 0.35606 0.46156 0.77329
 N2163 N 0.34450 0.46551 0.76945
 C2164 C 0.33858 0.47549 0.77542
 N2165 N 0.34464 0.48141 0.78535
 N2166 N 0.35620 0.47747 0.78919
 C2167 C 0.32571 0.47963 0.77137
 N2168 N 0.31964 0.48943 0.77750
 N2169 N 0.30785 0.49299 0.77400
 C2170 C 0.30171 0.48688 0.76423
 N2171 N 0.30780 0.47710 0.75808
 N2172 N 0.31958 0.47355 0.76159
 C2173 C 0.37575 -0.03666 0.28711
 N2174 N 0.38174 -0.03085 0.29714
 N2175 N 0.39314 -0.03503 0.30122
 C2176 C 0.39897 -0.04517 0.29541
 N2177 N 0.39299 -0.05094 0.28534
 N2178 N 0.38160 -0.04677 0.28126
 C2179 C 0.36305 -0.03227 0.28281
 N2180 N 0.35698 -0.03823 0.27291
 N2181 N 0.34534 -0.03442 0.26918
 C2182 C 0.33935 -0.02451 0.27520
 N2183 N 0.34544 -0.01853 0.28508
 N2184 N 0.35708 -0.02233 0.28881
 C2185 C 0.32641 -0.02051 0.27125
 N2186 N 0.32031 -0.01074 0.27740
 N2187 N 0.30847 -0.00728 0.27396
 C2188 C 0.30232 -0.01344 0.26424
 N2189 N 0.30844 -0.02318 0.25807
 N2190 N 0.32027 -0.02665 0.26151
 C2191 C 0.12258 0.53563 0.71500
 N2192 N 0.11667 0.54576 0.72072
 N2193 N 0.10530 0.54989 0.71652
 C2194 C 0.09943 0.54404 0.70643
 N2195 N 0.10533 0.53387 0.70074
 N2196 N 0.11669 0.52974 0.70495
 C2197 C 0.13529 0.53133 0.71937
 N2198 N 0.14132 0.52138 0.71346
 N2199 N 0.15301 0.51771 0.71717
 C2200 C 0.15910 0.52387 0.72694
 N2201 N 0.15305 0.53379 0.73289
 N2202 N 0.14136 0.53745 0.72917
 C2203 C 0.17214 0.52009 0.73076
 N2204 N 0.17839 0.52648 0.74027
 N2205 N 0.19037 0.52330 0.74347
 C2206 C 0.19654 0.51360 0.73727
 N2207 N 0.19027 0.50718 0.72780
 N2208 N 0.17829 0.51036 0.72460
 C2209 C 0.12336 0.03541 0.21452
 N2210 N 0.11751 0.02957 0.20441
 N2211 N 0.10619 0.03376 0.20014
 C2212 C 0.10029 0.04393 0.20582
 N2213 N 0.10612 0.04972 0.21597
 N2214 N 0.11744 0.04554 0.22024
 C2215 C 0.13602 0.03105 0.21897
 N2216 N 0.14204 0.03713 0.22883
 N2217 N 0.15368 0.03342 0.23263
 C2218 C 0.15974 0.02348 0.22671
 N2219 N 0.15370 0.01736 0.21689
 N2220 N 0.14205 0.02108 0.21309
 C2221 C 0.17275 0.01966 0.23061
 N2222 N 0.17890 0.00991 0.22450
 N2223 N 0.19085 0.00669 0.22776
 C2224 C 0.19709 0.01311 0.23727
 N2225 N 0.19091 0.02282 0.24343
 N2226 N 0.17896 0.02604 0.24016
 C2227 C 0.62486 0.71235 0.21305
 N2228 N 0.63077 0.71822 0.20302
 N2229 N 0.64204 0.71395 0.19872
 C2230 C 0.64781 0.70363 0.20428
 N2231 N 0.64191 0.69780 0.21435
 N2232 N 0.63064 0.70207 0.21865
 C2233 C 0.61229 0.71687 0.21759
 N2234 N 0.60626 0.71087 0.22748
 N2235 N 0.59472 0.71480 0.23140
 C2236 C 0.58880 0.72487 0.22558
 N2237 N 0.59485 0.73090 0.21572
 N2238 N 0.60638 0.72698 0.21180
 C2239 C 0.57595 0.72900 0.22968
 N2240 N 0.56993 0.73889 0.22365
 N2241 N 0.55815 0.74245 0.22716
 C2242 C 0.55197 0.73627 0.23685
 N2243 N 0.55802 0.72641 0.24291
 N2244 N 0.56980 0.72285 0.23939
 C2245 C 0.12682 0.71450 0.71424
 N2246 N 0.13278 0.70440 0.71998
 N2247 N 0.14406 0.70018 0.71565
 C2248 C 0.14979 0.70589 0.70541
 N2249 N 0.14385 0.71603 0.69971
 N2250 N 0.13257 0.72026 0.70405
 C2251 C 0.11420 0.71889 0.71876
 N2252 N 0.10814 0.72884 0.71287
 N2253 N 0.09652 0.73258 0.71671
 C2254 C 0.09054 0.72651 0.72658
 N2255 N 0.09662 0.71659 0.73251
 N2256 N 0.10824 0.71286 0.72867
 C2257 C 0.07755 0.73034 0.73052
 N2258 N 0.07137 0.72398 0.74008
 N2259 N 0.05943 0.72720 0.74337
 C2260 C 0.05322 0.73690 0.73721
 N2261 N 0.05943 0.74330 0.72769
 N2262 N 0.07137 0.74008 0.72440
 C2263 C 0.62556 0.21230 0.53760
 N2264 N 0.61975 0.20209 0.53191
 N2265 N 0.60843 0.19787 0.53611
 C2266 C 0.60249 0.20370 0.54616
 N2267 N 0.60828 0.21395 0.55182
 N2268 N 0.61961 0.21816 0.54762
 C2269 C 0.63818 0.21676 0.53316
 N2270 N 0.64413 0.22676 0.53906
 N2271 N 0.65569 0.23065 0.53521
 C2272 C 0.66172 0.22467 0.52530
 N2273 N 0.65576 0.21469 0.51937
 N2274 N 0.64420 0.21080 0.52323
 C2275 C 0.67458 0.22877 0.52123
 N2276 N 0.68068 0.22271 0.51141
 N2277 N 0.69244 0.22628 0.50788
 C2278 C 0.69855 0.23604 0.51404
 N2279 N 0.69244 0.24212 0.52384
 N2280 N 0.68067 0.23855 0.52737
 C2281 C 0.62338 0.71339 0.03626
 N2282 N 0.61762 0.71905 0.04651
 N2283 N 0.60650 0.71460 0.05099
 C2284 C 0.60072 0.70431 0.04541
 N2285 N 0.60645 0.69869 0.03512
 N2286 N 0.61758 0.70314 0.03063
 C2287 C 0.63585 0.71802 0.03160
 N2288 N 0.64180 0.71212 0.02159
 N2289 N 0.65331 0.71607 0.01764
 C2290 C 0.65929 0.72606 0.02354
 N2291 N 0.65331 0.73200 0.03350
 N2292 N 0.64180 0.72806 0.03746
 C2293 C 0.67218 0.73009 0.01952
 N2294 N 0.67832 0.73981 0.02570
 N2295 N 0.69020 0.74315 0.02237
 C2296 C 0.69640 0.73690 0.01274
 N2297 N 0.69024 0.72723 0.00650
 N2298 N 0.67835 0.72389 0.00983
 C2299 C 0.12702 0.03598 0.03563
 N2300 N 0.13298 0.03007 0.04563
 N2301 N 0.14426 0.03433 0.04992
 C2302 C 0.15001 0.04465 0.04437
 N2303 N 0.14407 0.05051 0.03432
 N2304 N 0.13279 0.04625 0.03003
 C2305 C 0.11439 0.03155 0.03118
 N2306 N 0.10829 0.03764 0.02137
 N2307 N 0.09666 0.03386 0.01760
 C2308 C 0.09070 0.02387 0.02349
 N2309 N 0.09682 0.01774 0.03326
 N2310 N 0.10846 0.02151 0.03703
 C2311 C 0.07770 0.01999 0.01964
 N2312 N 0.07159 0.01027 0.02583
 N2313 N 0.05963 0.00702 0.02263
 C2314 C 0.05335 0.01338 0.01312
 N2315 N 0.05948 0.02306 0.00688
 N2316 N 0.07144 0.02631 0.01009
 C2317 C 0.12690 0.53625 0.53534
 N2318 N 0.13266 0.54653 0.52973
 N2319 N 0.14393 0.55081 0.53402
 C2320 C 0.14986 0.54498 0.54409
 N2321 N 0.14412 0.53466 0.54965
 N2322 N 0.13285 0.53038 0.54536
 C2323 C 0.11428 0.53179 0.53089
 N2324 N 0.10837 0.52173 0.53672
 N2325 N 0.09676 0.51792 0.53294
 C2326 C 0.09062 0.52404 0.52318
 N2327 N 0.09655 0.53406 0.51730
 N2328 N 0.10817 0.53786 0.52108
 C2329 C 0.07763 0.52012 0.51931
 N2330 N 0.07135 0.52646 0.50978
 N2331 N 0.05941 0.52319 0.50655
 C2332 C 0.05331 0.51345 0.51273
 N2333 N 0.05961 0.50707 0.52221
 N2334 N 0.07155 0.51034 0.52544
 C2335 C 0.62482 0.03814 0.53725
 N2336 N 0.63078 0.03229 0.54727
 N2337 N 0.64205 0.03658 0.55156
 C2338 C 0.64778 0.04690 0.54599
 N2339 N 0.64183 0.05273 0.53592
 N2340 N 0.63056 0.04843 0.53164
 C2341 C 0.61225 0.03360 0.53273
 N2342 N 0.60620 0.03956 0.52282
 N2343 N 0.59467 0.03561 0.51891
 C2344 C 0.58877 0.02555 0.52477
 N2345 N 0.59484 0.01956 0.53465
 N2346 N 0.60637 0.02351 0.53856
 C2347 C 0.57593 0.02139 0.52067
 N2348 N 0.56990 0.01154 0.52674
 N2349 N 0.55814 0.00796 0.52321
 C2350 C 0.55197 0.01408 0.51347
 N2351 N 0.55801 0.02390 0.50737
 N2352 N 0.56978 0.02749 0.51090
 C2353 C 0.62445 0.53743 0.03776
 N2354 N 0.63021 0.53178 0.04801
 N2355 N 0.64151 0.53601 0.05229
 C2356 C 0.64747 0.54605 0.04646
 N2357 N 0.64172 0.55168 0.03618
 N2358 N 0.63042 0.54745 0.03191
 C2359 C 0.61185 0.53296 0.03325
 N2360 N 0.60596 0.53879 0.02317
 N2361 N 0.59441 0.53490 0.01925
 C2362 C 0.58834 0.52504 0.02527
 N2363 N 0.59426 0.51919 0.03533
 N2364 N 0.60580 0.52308 0.03925
 C2365 C 0.57550 0.52093 0.02114
 N2366 N 0.56936 0.51121 0.02731
 N2367 N 0.55761 0.50763 0.02373
 C2368 C 0.55156 0.51364 0.01384
 N2369 N 0.55771 0.52334 0.00765
 N2370 N 0.56946 0.52692 0.01124
 C2371 C 0.03609 0.03535 0.12741
 N2372 N 0.03034 0.04547 0.13329
 N2373 N 0.03461 0.04975 0.14459
 C2374 C 0.04482 0.04407 0.15044
 N2375 N 0.05052 0.03388 0.14456
 N2376 N 0.04624 0.02960 0.13326
 C2377 C 0.03163 0.03091 0.11477
 N2378 N 0.03756 0.02097 0.10873
 N2379 N 0.03375 0.01720 0.09709
 C2380 C 0.02388 0.02324 0.09106
 N2381 N 0.01791 0.03314 0.09712
 N2382 N 0.02172 0.03691 0.10876
 C2383 C 0.01997 0.01939 0.07805
 N2384 N 0.01038 0.02572 0.07187
 N2385 N 0.00711 0.02252 0.05991
 C2386 C 0.01331 0.01286 0.05368
 N2387 N 0.02285 0.00648 0.05989
 N2388 N 0.02613 0.00968 0.07186
 C2389 C 0.03538 0.53516 0.62731
 N2390 N 0.04548 0.52941 0.63324
 N2391 N 0.04961 0.53362 0.64461
 C2392 C 0.04379 0.54373 0.65048
 N2393 N 0.03364 0.54943 0.64457
 N2394 N 0.02951 0.54522 0.63320
 C2395 C 0.03108 0.53078 0.61459
 N2396 N 0.02117 0.53673 0.60853
 N2397 N 0.01751 0.53302 0.59684
 C2398 C 0.02362 0.52321 0.59076
 N2399 N 0.03349 0.51722 0.59684
 N2400 N 0.03716 0.52094 0.60854
 C2401 C 0.01984 0.51939 0.57770
 N2402 N 0.02616 0.50981 0.57148
 N2403 N 0.02298 0.50662 0.55949
 C2404 C 0.01336 0.51289 0.55328
 N2405 N 0.00701 0.52243 0.55953
 N2406 N 0.01019 0.52562 0.57152
 C2407 C 0.53742 0.03736 0.62533
 N2408 N 0.54752 0.03161 0.63125
 N2409 N 0.55174 0.03590 0.64256
 C2410 C 0.54602 0.04610 0.64840
 N2411 N 0.53586 0.05180 0.64247
 N2412 N 0.53165 0.04751 0.63116
 C2413 C 0.53296 0.03284 0.61271
 N2414 N 0.52298 0.03873 0.60671
 N2415 N 0.51911 0.03481 0.59514
 C2416 C 0.52508 0.02487 0.58915
 N2417 N 0.53503 0.01895 0.59517
 N2418 N 0.53890 0.02287 0.60674
 C2419 C 0.52100 0.02076 0.57627
 N2420 N 0.52713 0.01099 0.57015
 N2421 N 0.52360 0.00745 0.55836
 C2422 C 0.51381 0.01355 0.55224
 N2423 N 0.50766 0.02329 0.55838
 N2424 N 0.51119 0.02683 0.57018
 C2425 C 0.53831 0.53755 0.12445
 N2426 N 0.53259 0.54776 0.13023
 N2427 N 0.53696 0.55221 0.14141
 C2428 C 0.54722 0.54662 0.14724
 N2429 N 0.55290 0.53637 0.14148
 N2430 N 0.54853 0.53192 0.13029
 C2431 C 0.53369 0.53285 0.11196
 N2432 N 0.53958 0.52281 0.10603
 N2433 N 0.53557 0.51875 0.09456
 C2434 C 0.52553 0.52458 0.08860
 N2435 N 0.51962 0.53459 0.09454
 N2436 N 0.52363 0.53865 0.10601
 C2437 C 0.52132 0.52034 0.07580
 N2438 N 0.51147 0.52637 0.06974
 N2439 N 0.50785 0.52274 0.05800
 C2440 C 0.51395 0.51295 0.05189
 N2441 N 0.52378 0.50689 0.05798
 N2442 N 0.52740 0.51051 0.06972
 C2443 C 0.21412 0.53589 0.62304
 N2444 N 0.20404 0.53014 0.61707
 N2445 N 0.19982 0.53447 0.60578
 C2446 C 0.20551 0.54472 0.60003
 N2447 N 0.21563 0.55042 0.60598
 N2448 N 0.21985 0.54609 0.61727
 C2449 C 0.21851 0.53140 0.63568
 N2450 N 0.22841 0.53733 0.64175
 N2451 N 0.23215 0.53351 0.65339
 C2452 C 0.22612 0.52362 0.65939
 N2453 N 0.21626 0.51764 0.65329
 N2454 N 0.21252 0.52146 0.64165
 C2455 C 0.22996 0.51971 0.67240
 N2456 N 0.22369 0.51009 0.67858
 N2457 N 0.22691 0.50684 0.69055
 C2458 C 0.23652 0.51310 0.69677
 N2459 N 0.24284 0.52268 0.69056
 N2460 N 0.23962 0.52592 0.67859
 C2461 C 0.21447 0.03532 0.12315
 N2462 N 0.22018 0.04554 0.11739
 N2463 N 0.21593 0.04990 0.10613
 C2464 C 0.20579 0.04420 0.10020
 N2465 N 0.20012 0.03394 0.10593
 N2466 N 0.20438 0.02958 0.11720
 C2467 C 0.21890 0.03080 0.13577
 N2468 N 0.21292 0.02086 0.14175
 N2469 N 0.21669 0.01703 0.15338
 C2470 C 0.22657 0.02300 0.15945
 N2471 N 0.23258 0.03290 0.15345
 N2472 N 0.22881 0.03673 0.14183
 C2473 C 0.23043 0.01910 0.17246
 N2474 N 0.24010 0.02532 0.17863
 N2475 N 0.24334 0.02208 0.19059
 C2476 C 0.23703 0.01251 0.19682
 N2477 N 0.22741 0.00624 0.19062
 N2478 N 0.22417 0.00948 0.17866
 C2479 C 0.71300 0.21369 0.62570
 N2480 N 0.71886 0.20364 0.63162
 N2481 N 0.71474 0.19948 0.64300
 C2482 C 0.70462 0.20522 0.64890
 N2483 N 0.69879 0.21531 0.64299
 N2484 N 0.70291 0.21947 0.63160
 C2485 C 0.71736 0.21807 0.61301
 N2486 N 0.71137 0.22797 0.60696
 N2487 N 0.71516 0.23176 0.59534
 C2488 C 0.72508 0.22579 0.58933
 N2489 N 0.73109 0.21591 0.59539
 N2490 N 0.72730 0.21212 0.60701
 C2491 C 0.72909 0.22978 0.57640
 N2492 N 0.73886 0.22363 0.57032
 N2493 N 0.74236 0.22708 0.55850
 C2494 C 0.73622 0.23681 0.55232
 N2495 N 0.72647 0.24298 0.55841
 N2496 N 0.72297 0.23953 0.57024
 C2497 C 0.71312 0.71377 0.12631
 N2498 N 0.71880 0.70352 0.13206
 N2499 N 0.71440 0.69904 0.14322
 C2500 C 0.70416 0.70464 0.14904
 N2501 N 0.69852 0.71494 0.14331
 N2502 N 0.70292 0.71941 0.13215
 C2503 C 0.71771 0.71842 0.11380
 N2504 N 0.71184 0.72847 0.10788
 N2505 N 0.71575 0.73242 0.09634
 C2506 C 0.72567 0.72647 0.09031
 N2507 N 0.73158 0.71647 0.09627
 N2508 N 0.72768 0.71252 0.10780
 C2509 C 0.72967 0.73049 0.07739
 N2510 N 0.73929 0.72422 0.07120
 N2511 N 0.74261 0.72754 0.05929
 C2512 C 0.73644 0.73726 0.05313
 N2513 N 0.72687 0.74358 0.05935
 N2514 N 0.72355 0.74026 0.07126
 C2515 C 0.53764 0.71215 0.12546
 N2516 N 0.54763 0.71799 0.11946
 N2517 N 0.55181 0.71372 0.10813
 C2518 C 0.54615 0.70345 0.10238
 N2519 N 0.53612 0.69765 0.10837
 N2520 N 0.53194 0.70192 0.11970
 C2521 C 0.53321 0.71667 0.13808
 N2522 N 0.52335 0.71069 0.14416
 N2523 N 0.51950 0.71462 0.15572
 C2524 C 0.52536 0.72467 0.16163
 N2525 N 0.53520 0.73067 0.15554
 N2526 N 0.53906 0.72674 0.14397
 C2527 C 0.52128 0.72881 0.17449
 N2528 N 0.52727 0.73872 0.18052
 N2529 N 0.52371 0.74232 0.19228
 C2530 C 0.51402 0.73614 0.19845
 N2531 N 0.50800 0.72626 0.19240
 N2532 N 0.51157 0.72266 0.18064
 C2533 C 0.03628 0.71460 0.62327
 N2534 N 0.04657 0.72018 0.61753
 N2535 N 0.05090 0.71583 0.60629
 C2536 C 0.04510 0.70574 0.60037
 N2537 N 0.03477 0.70021 0.60608
 N2538 N 0.03044 0.70456 0.61732
 C2539 C 0.03177 0.71912 0.63586
 N2540 N 0.02172 0.71329 0.64177
 N2541 N 0.01788 0.71712 0.65337
 C2542 C 0.02395 0.72693 0.65948
 N2543 N 0.03395 0.73281 0.65354
 N2544 N 0.03780 0.72897 0.64194
 C2545 C 0.02001 0.73084 0.67246
 N2546 N 0.02627 0.74044 0.67871
 N2547 N 0.02298 0.74368 0.69065
 C2548 C 0.01330 0.73746 0.69678
 N2549 N 0.00699 0.72791 0.69050
 N2550 N 0.01028 0.72467 0.67856
 C2551 C 0.53793 0.62553 0.21182
 N2552 N 0.53230 0.61969 0.20159
 N2553 N 0.53674 0.60849 0.19722
 C2554 C 0.54697 0.60272 0.20292
 N2555 N 0.55256 0.60855 0.21318
 N2556 N 0.54812 0.61974 0.21755
 C2557 C 0.53324 0.63803 0.21643
 N2558 N 0.53903 0.64398 0.22650
 N2559 N 0.53497 0.65546 0.23051
 C2560 C 0.52498 0.66141 0.22459
 N2561 N 0.51916 0.65543 0.21455
 N2562 N 0.52322 0.64396 0.21054
 C2563 C 0.52074 0.67421 0.22879
 N2564 N 0.51092 0.68029 0.22271
 N2565 N 0.50729 0.69203 0.22632
 C2566 C 0.51334 0.69813 0.23616
 N2567 N 0.52312 0.69203 0.24227
 N2568 N 0.52675 0.68028 0.23866
 C2569 C 0.03487 0.62282 0.71471
 N2570 N 0.04496 0.61694 0.72053
 N2571 N 0.04918 0.60558 0.71637
 C2572 C 0.04345 0.59967 0.70623
 N2573 N 0.03331 0.60552 0.70045
 N2574 N 0.02910 0.61689 0.70462
 C2575 C 0.03050 0.63553 0.71905
 N2576 N 0.02061 0.64156 0.71305
 N2577 N 0.01690 0.65326 0.71675
 C2578 C 0.02296 0.65935 0.72658
 N2579 N 0.03281 0.65329 0.73261
 N2580 N 0.03652 0.64160 0.72892
 C2581 C 0.01917 0.67242 0.73039
 N2582 N 0.02551 0.67863 0.73995
 N2583 N 0.02236 0.69063 0.74315
 C2584 C 0.01274 0.69686 0.73691
 N2585 N 0.00635 0.69062 0.72738
 N2586 N 0.00951 0.67862 0.72418
 C2587 C 0.03595 0.12699 0.03624
 N2588 N 0.03028 0.13292 0.04639
 N2589 N 0.03465 0.14418 0.05064
 C2590 C 0.04487 0.14993 0.04493
 N2591 N 0.05050 0.14401 0.03474
 N2592 N 0.04612 0.13275 0.03048
 C2593 C 0.03140 0.11437 0.03182
 N2594 N 0.03724 0.10833 0.02184
 N2595 N 0.03338 0.09671 0.01807
 C2596 C 0.02353 0.09071 0.02415
 N2597 N 0.01765 0.09677 0.03409
 N2598 N 0.02151 0.10839 0.03786
 C2599 C 0.01958 0.07771 0.02029
 N2600 N 0.01004 0.07151 0.02664
 N2601 N 0.00675 0.05955 0.02341
 C2602 C 0.01290 0.05336 0.01370
 N2603 N 0.02240 0.05959 0.00730
 N2604 N 0.02568 0.07154 0.01053
 C2605 C 0.03592 0.62692 0.53580
 N2606 N 0.03015 0.63290 0.54587
 N2607 N 0.03454 0.64413 0.55017
 C2608 C 0.04487 0.64981 0.54459
 N2609 N 0.05060 0.64385 0.53448
 N2610 N 0.04620 0.63262 0.53017
 C2611 C 0.03136 0.61433 0.53132
 N2612 N 0.03734 0.60823 0.52145
 N2613 N 0.03346 0.59663 0.51764
 C2614 C 0.02347 0.59070 0.52355
 N2615 N 0.01745 0.59682 0.53338
 N2616 N 0.02132 0.60843 0.53719
 C2617 C 0.01952 0.57771 0.51965
 N2618 N 0.00979 0.57159 0.52581
 N2619 N 0.00653 0.55963 0.52256
 C2620 C 0.01287 0.55336 0.51303
 N2621 N 0.02255 0.55951 0.50683
 N2622 N 0.02582 0.57147 0.51008
 C2623 C 0.53787 0.12493 0.53762
 N2624 N 0.53200 0.13098 0.54758
 N2625 N 0.53627 0.14231 0.55176
 C2626 C 0.54656 0.14801 0.54614
 N2627 N 0.55239 0.14198 0.53614
 N2628 N 0.54812 0.13065 0.53196
 C2629 C 0.53336 0.11230 0.53320
 N2630 N 0.53936 0.10617 0.52337
 N2631 N 0.53544 0.09459 0.51953
 C2632 C 0.52538 0.08872 0.52539
 N2633 N 0.51935 0.09486 0.53520
 N2634 N 0.52327 0.10644 0.53903
 C2635 C 0.52124 0.07584 0.52133
 N2636 N 0.51134 0.06984 0.52733
 N2637 N 0.50776 0.05806 0.52379
 C2638 C 0.51394 0.05184 0.51412
 N2639 N 0.52382 0.05786 0.50811
 N2640 N 0.52741 0.06964 0.51164
 C2641 C 0.53698 0.62469 0.03769
 N2642 N 0.53140 0.63046 0.04798
 N2643 N 0.53569 0.64175 0.05226
 C2644 C 0.54572 0.64769 0.04642
 N2645 N 0.55126 0.64194 0.03609
 N2646 N 0.54698 0.63065 0.03181
 C2647 C 0.53246 0.61210 0.03317
 N2648 N 0.53824 0.60620 0.02306
 N2649 N 0.53433 0.59465 0.01914
 C2650 C 0.52450 0.58857 0.02518
 N2651 N 0.51870 0.59449 0.03526
 N2652 N 0.52261 0.60604 0.03918
 C2653 C 0.52041 0.57570 0.02105
 N2654 N 0.51072 0.56953 0.02721
 N2655 N 0.50720 0.55773 0.02365
 C2656 C 0.51324 0.55168 0.01379
 N2657 N 0.52290 0.55788 0.00760
 N2658 N 0.52642 0.56967 0.01116
 C2659 C 0.71230 0.12511 0.53790
 N2660 N 0.71806 0.11912 0.54796
 N2661 N 0.71368 0.10787 0.55222
 C2662 C 0.70335 0.10217 0.54660
 N2663 N 0.69764 0.10817 0.53649
 N2664 N 0.70203 0.11942 0.53223
 C2665 C 0.71693 0.13767 0.53339
 N2666 N 0.71107 0.14372 0.52342
 N2667 N 0.71508 0.15524 0.51952
 C2668 C 0.72511 0.16113 0.52543
 N2669 N 0.73100 0.15506 0.53538
 N2670 N 0.72698 0.14354 0.53928
 C2671 C 0.72932 0.17396 0.52132
 N2672 N 0.73912 0.18002 0.52745
 N2673 N 0.74273 0.19179 0.52391
 C2674 C 0.73668 0.19793 0.51410
 N2675 N 0.72691 0.19185 0.50795
 N2676 N 0.72330 0.18008 0.51149
 C2677 C 0.71319 0.62372 0.03658
 N2678 N 0.70300 0.61791 0.03088
 N2679 N 0.69855 0.60675 0.03533
 C2680 C 0.70413 0.60099 0.04563
 N2681 N 0.71437 0.60678 0.05128
 N2682 N 0.71882 0.61794 0.04684
 C2683 C 0.71782 0.63623 0.03196
 N2684 N 0.72777 0.64222 0.03790
 N2685 N 0.73170 0.65376 0.03398
 C2686 C 0.72583 0.65973 0.02397
 N2687 N 0.71592 0.65371 0.01798
 N2688 N 0.71199 0.64217 0.02191
 C2689 C 0.72985 0.67266 0.01996
 N2690 N 0.72374 0.67879 0.01019
 N2691 N 0.72708 0.69070 0.00687
 C2692 C 0.73665 0.69692 0.01319
 N2693 N 0.74280 0.69076 0.02292
 N2694 N 0.73947 0.67885 0.02624
 C2695 C 0.21455 0.62731 0.71410
 N2696 N 0.22020 0.63310 0.70387
 N2697 N 0.21590 0.64437 0.69955
 C2698 C 0.20578 0.65027 0.70531
 N2699 N 0.20018 0.64450 0.71559
 N2700 N 0.20448 0.63323 0.71989
 C2701 C 0.21902 0.61468 0.71859
 N2702 N 0.21308 0.60872 0.72855
 N2703 N 0.21686 0.59708 0.73237
 C2704 C 0.22671 0.59100 0.72637
 N2705 N 0.23269 0.59699 0.71645
 N2706 N 0.22891 0.60863 0.71263
 C2707 C 0.23056 0.57798 0.73029
 N2708 N 0.24023 0.57177 0.72411
 N2709 N 0.24342 0.55980 0.72738
 C2710 C 0.23707 0.55360 0.73694
 N2711 N 0.22744 0.55984 0.74315
 N2712 N 0.22425 0.57181 0.73989
 C2713 C 0.21499 0.12673 0.21386
 N2714 N 0.20493 0.13267 0.21966
 N2715 N 0.20063 0.14393 0.21533
 C2716 C 0.20621 0.14967 0.20503
 N2717 N 0.21632 0.14376 0.19927
 N2718 N 0.22063 0.13249 0.20361
 C2719 C 0.21946 0.11411 0.21838
 N2720 N 0.22935 0.10804 0.21243
 N2721 N 0.23314 0.09642 0.21628
 C2722 C 0.22717 0.09045 0.22623
 N2723 N 0.21732 0.09655 0.23222
 N2724 N 0.21354 0.10817 0.22837
 C2725 C 0.23103 0.07745 0.23018
 N2726 N 0.22474 0.07130 0.23980
 N2727 N 0.22794 0.05934 0.24310
 C2728 C 0.23756 0.05309 0.23689
 N2729 N 0.24391 0.05926 0.22731
 N2730 N 0.24070 0.07123 0.22401
 C2731 C 0.71444 1.12704 0.71406
 N2732 N 0.72003 1.13282 0.70379
 N2733 N 0.71572 1.14411 0.69951
 C2734 C 0.70565 1.15002 0.70534
 N2735 N 0.70011 1.14426 0.71565
 N2736 N 0.70441 1.13298 0.71992
 C2737 C 0.71891 1.11440 0.71851
 N2738 N 0.71309 1.10847 0.72856
 N2739 N 0.71689 1.09683 0.73235
 C2740 C 0.72665 1.09071 0.72624
 N2741 N 0.73251 1.09667 0.71623
 N2742 N 0.72871 1.10831 0.71243
 C2743 C 0.73053 1.07770 0.73013
 N2744 N 0.74005 1.07143 0.72379
 N2745 N 0.74329 1.05947 0.72705
 C2746 C 0.73713 1.05334 0.73677
 N2747 N 0.72765 1.05964 0.74316
 N2748 N 0.72442 1.07160 0.73990
 C2749 C 0.71257 0.62482 0.21250
 N2750 N 0.70236 0.63058 0.21824
 N2751 N 0.69802 0.64187 0.21402
 C2752 C 0.70372 0.64783 0.20391
 N2753 N 0.71397 0.64209 0.19821
 N2754 N 0.71831 0.63080 0.20243
 C2755 C 0.71716 0.61223 0.21696
 N2756 N 0.72718 0.60633 0.21105
 N2757 N 0.73116 0.59478 0.21492
 C2758 C 0.72527 0.58871 0.22485
 N2759 N 0.71528 0.59463 0.23079
 N2760 N 0.71129 0.60618 0.22692
 C2761 C 0.72945 0.57585 0.22893
 N2762 N 0.72341 0.56972 0.23872
 N2763 N 0.72701 0.55794 0.24225
 C2764 C 0.73678 0.55186 0.23611
 N2765 N 0.74285 0.55801 0.22634
 N2766 N 0.73925 0.56979 0.22281
 C2767 C 0.53607 0.12334 0.71304
 N2768 N 0.54612 0.11741 0.71887
 N2769 N 0.55054 0.10622 0.71446
 C2770 C 0.54508 0.10052 0.70404
 N2771 N 0.53496 0.10645 0.69827
 N2772 N 0.53055 0.11764 0.70268
 C2773 C 0.53148 0.13588 0.71764
 N2774 N 0.52163 0.14197 0.71162
 N2775 N 0.51773 0.15352 0.71554
 C2776 C 0.52353 0.15942 0.72564
 N2777 N 0.53333 0.15331 0.73171
 N2778 N 0.53724 0.14175 0.72778
 C2779 C 0.51954 0.17236 0.72967
 N2780 N 0.52561 0.17842 0.73951
 N2781 N 0.52229 0.19033 0.74287
 C2782 C 0.51277 0.19662 0.73653
 N2783 N 0.50666 0.19052 0.72673
 N2784 N 0.50998 0.17861 0.72337
 C2785 C 1.03572 0.12268 0.21437
 N2786 N 1.02995 0.11678 0.20425
 N2787 N 1.03419 0.10545 0.20002
 C2788 C 1.04435 0.09959 0.20576
 N2789 N 1.05007 0.10547 0.21592
 N2790 N 1.04583 0.11680 0.22015
 C2791 C 1.03132 0.13536 0.21877
 N2792 N 1.03733 0.14140 0.22866
 N2793 N 1.03360 0.15307 0.23241
 C2794 C 1.02372 0.15913 0.22641
 N2795 N 1.01766 0.15306 0.21657
 N2796 N 1.02140 0.14139 0.21282
 C2797 C 1.01990 0.17217 0.23026
 N2798 N 1.01022 0.17836 0.22408
 N2799 N 1.00703 0.19035 0.22731
 C2800 C 1.01342 0.19659 0.23683
 N2801 N 1.02307 0.19037 0.24305
 N2802 N 1.02625 0.17838 0.23983
 C2803 C 0.21352 0.62462 0.53672
 N2804 N 0.21928 0.61868 0.54681
 N2805 N 0.21511 0.60728 0.55091
 C2806 C 0.20504 0.60139 0.54507
 N2807 N 0.19932 0.60732 0.53493
 N2808 N 0.20348 0.61872 0.53083
 C2809 C 0.21791 0.63732 0.53239
 N2810 N 0.21200 0.64334 0.52243
 N2811 N 0.21580 0.65498 0.51867
 C2812 C 0.22564 0.66103 0.52474
 N2813 N 0.23157 0.65499 0.53468
 N2814 N 0.22777 0.64335 0.53844
 C2815 C 0.22963 0.67398 0.52077
 N2816 N 0.23931 0.68014 0.52698
 N2817 N 0.24275 0.69199 0.52354
 C2818 C 0.23664 0.69811 0.51376
 N2819 N 0.22699 0.69193 0.50753
 N2820 N 0.22355 0.68008 0.51097
 C2821 C 0.21336 0.12450 1.03734
 N2822 N 0.20330 0.11861 1.03148
 N2823 N 0.19920 0.10717 1.03551
 C2824 C 0.20501 0.10118 1.04555
 N2825 N 0.21511 0.10705 1.05138
 N2826 N 0.21921 0.11849 1.04734
 C2827 C 0.21768 0.13724 1.03307
 N2828 N 0.22762 0.14323 1.03904
 N2829 N 0.23137 0.15489 1.03532
 C2830 C 0.22533 0.16100 1.02549
 N2831 N 0.21542 0.15500 1.01950
 N2832 N 0.21166 0.14333 1.02322
 C2833 C 0.22931 0.17395 1.02153
 N2834 N 0.22310 0.18012 1.01184
 N2835 N 0.22657 0.19195 1.00837
 C2836 C 0.23638 0.19804 1.01444
 N2837 N 0.24260 0.19186 1.02412
 N2838 N 0.23913 0.18003 1.02759
 C2839 C 0.21303 0.71386 0.62554
 N2840 N 0.20295 0.71963 0.63147
 N2841 N 0.19886 0.71548 0.64287
 C2842 C 0.20470 0.70540 0.64876
 N2843 N 0.21481 0.69965 0.64285
 N2844 N 0.21890 0.70381 0.63145
 C2845 C 0.21735 0.71823 0.61284
 N2846 N 0.22728 0.71230 0.60681
 N2847 N 0.23103 0.71609 0.59518
 C2848 C 0.22499 0.72596 0.58914
 N2849 N 0.21509 0.73193 0.59517
 N2850 N 0.21133 0.72813 0.60681
 C2851 C 0.22897 0.72996 0.57620
 N2852 N 0.22281 0.73970 0.57006
 N2853 N 0.22626 0.74316 0.55822
 C2854 C 0.23600 0.73701 0.55210
 N2855 N 0.24218 0.72730 0.55825
 N2856 N 0.23873 0.72384 0.57008
 C2857 C 0.21338 0.21314 1.12589
 N2858 N 0.21921 0.20305 1.13177
 N2859 N 0.21506 0.19883 1.14312
 C2860 C 0.20491 0.20453 1.14904
 N2861 N 0.19913 0.21468 1.14316
 N2862 N 0.20328 0.21889 1.13180
 C2863 C 0.21775 0.21758 1.11323
 N2864 N 0.21175 0.22750 1.10722
 N2865 N 0.21555 0.23134 1.09561
 C2866 C 0.22548 0.22540 1.08958
 N2867 N 0.23151 0.21552 1.09561
 N2868 N 0.22771 0.21168 1.10722
 C2869 C 0.22947 0.22944 1.07666
 N2870 N 0.23926 0.22334 1.07056
 N2871 N 0.24272 0.22682 1.05873
 C2872 C 0.23652 0.23651 1.05257
 N2873 N 0.22675 0.24263 1.05868
 N2874 N 0.22330 0.23916 1.07051
 C2875 C 0.71190 0.53745 0.12542
 N2876 N 0.70170 0.53175 0.11962
 N2877 N 0.69744 0.53598 0.10831
 C2878 C 0.70321 0.54607 0.10238
 N2879 N 0.71345 0.55174 0.10816
 N2880 N 0.71771 0.54751 0.11948
 C2881 C 0.71642 0.53298 0.13803
 N2882 N 0.72642 0.53889 0.14397
 N2883 N 0.73036 0.53501 0.15552
 C2884 C 0.72444 0.52507 0.16156
 N2885 N 0.71446 0.51914 0.15561
 N2886 N 0.71052 0.52302 0.14405
 C2887 C 0.72861 0.52097 0.17441
 N2888 N 0.72262 0.51112 0.18051
 N2889 N 0.72626 0.50756 0.19227
 C2890 C 0.73601 0.51373 0.19835
 N2891 N 0.74202 0.52356 0.19224
 N2892 N 0.73839 0.52711 0.18048
 C2893 C 0.71337 1.03658 0.62375
 N2894 N 0.71901 1.04685 0.61803
 N2895 N 0.71457 1.05138 0.60690
 C2896 C 0.70431 1.04579 0.60108
 N2897 N 0.69871 1.03547 0.60677
 N2898 N 0.70316 1.03095 0.61790
 C2899 C 0.71799 1.03187 0.63624
 N2900 N 0.71214 1.02181 0.64214
 N2901 N 0.71607 1.01783 0.65366
 C2902 C 0.72600 1.02375 0.65970
 N2903 N 0.73190 1.03376 0.65376
 N2904 N 0.72797 1.03775 0.64225
 C2905 C 0.73002 1.01970 0.67261
 N2906 N 0.73965 1.02594 0.67881
 N2907 N 0.74297 1.02261 0.69072
 C2908 C 0.73679 1.01290 0.69687
 N2909 N 0.72722 1.00660 0.69064
 N2910 N 0.72389 1.00994 0.67873
 C2911 C 0.53653 0.21402 0.62357
 N2912 N 0.54677 0.21966 0.61781
 N2913 N 0.55123 0.21521 0.60666
 C2914 C 0.54563 0.20493 0.60087
 N2915 N 0.53534 0.19933 0.60661
 N2916 N 0.53088 0.20379 0.61775
 C2917 C 0.53188 0.21863 0.63607
 N2918 N 0.52189 0.21271 0.64201
 N2919 N 0.51795 0.21661 0.65355
 C2920 C 0.52383 0.22657 0.65957
 N2921 N 0.53377 0.23255 0.65361
 N2922 N 0.53772 0.22865 0.64207
 C2923 C 0.51981 0.23053 0.67251
 N2924 N 0.52591 0.24026 0.67870
 N2925 N 0.52258 0.24352 0.69063
 C2926 C 0.51301 0.23716 0.69680
 N2927 N 0.50685 0.22748 0.69058
 N2928 N 0.51019 0.22422 0.67865
 C2929 C 1.03682 0.21438 0.12311
 N2930 N 1.04710 0.21995 0.11736
 N2931 N 1.05142 0.21560 0.10612
 C2932 C 1.04562 0.20549 0.10019
 N2933 N 1.03527 0.19999 0.10593
 N2934 N 1.03096 0.20434 0.11718
 C2935 C 1.03232 0.21889 0.13571
 N2936 N 1.02228 0.21305 0.14163
 N2937 N 1.01846 0.21687 0.15324
 C2938 C 1.02453 0.22667 0.15935
 N2939 N 1.03453 0.23255 0.15341
 N2940 N 1.03836 0.22873 0.14180
 C2941 C 1.02061 0.23056 0.17234
 N2942 N 1.02688 0.24015 0.17859
 N2943 N 1.02360 0.24339 0.19054
 C2944 C 1.01393 0.23715 0.19668
 N2945 N 1.00762 0.22761 0.19040
 N2946 N 1.01089 0.22438 0.17845
 C2947 C 0.62671 0.21428 0.71438
 N2948 N 0.63245 0.22002 0.70417
 N2949 N 0.64373 0.21580 0.69983
 C2950 C 0.64968 0.20567 0.70553
 N2951 N 0.64396 0.19997 0.71579
 N2952 N 0.63269 0.20419 0.72012
 C2953 C 0.61409 0.21867 0.71889
 N2954 N 0.60815 0.21266 0.72883
 N2955 N 0.59652 0.21640 0.73266
 C2956 C 0.59042 0.22628 0.72670
 N2957 N 0.59639 0.23232 0.71680
 N2958 N 0.60801 0.22858 0.71296
 C2959 C 0.57742 0.23011 0.73062
 N2960 N 0.57122 0.23979 0.72442
 N2961 N 0.55928 0.24300 0.72768
 C2962 C 0.55309 0.23666 0.73726
 N2963 N 0.55932 0.22703 0.74350
 N2964 N 0.57127 0.22382 0.74024
 C2965 C 1.12738 0.21406 0.21403
 N2966 N 1.13333 0.20396 0.21977
 N2967 N 1.14459 0.19970 0.21541
 C2968 C 1.15030 0.20538 0.20515
 N2969 N 1.14437 0.21552 0.19945
 N2970 N 1.13312 0.21978 0.20381
 C2971 C 1.11477 0.21849 0.21857
 N2972 N 1.10872 0.22844 0.21267
 N2973 N 1.09712 0.23221 0.21654
 C2974 C 1.09114 0.22616 0.22643
 N2975 N 1.09722 0.21625 0.23236
 N2976 N 1.10883 0.21248 0.22850
 C2977 C 1.07817 0.23003 0.23038
 N2978 N 1.07200 0.22369 0.23997
 N2979 N 1.06006 0.22693 0.24327
 C2980 C 1.05386 0.23662 0.23710
 N2981 N 1.06006 0.24300 0.22755
 N2982 N 1.07199 0.23976 0.22426
 C2983 C 0.12497 0.71287 0.53710
 N2984 N 0.11908 0.71870 0.54718
 N2985 N 0.10769 0.71460 0.55130
 C2986 C 0.10176 0.70451 0.54550
 N2987 N 0.10764 0.69871 0.53539
 N2988 N 0.11903 0.70281 0.53127
 C2989 C 0.13766 0.71721 0.53275
 N2990 N 0.14365 0.71127 0.52279
 N2991 N 0.15527 0.71507 0.51899
 C2992 C 0.16131 0.72495 0.52502
 N2993 N 0.15531 0.73091 0.53495
 N2994 N 0.14370 0.72711 0.53875
 C2995 C 0.17421 0.72899 0.52100
 N2996 N 0.18033 0.73871 0.52719
 N2997 N 0.19212 0.74225 0.52369
 C2998 C 0.19821 0.73619 0.51387
 N2999 N 0.19208 0.72648 0.50766
 N3000 N 0.18029 0.72294 0.51116
 C3001 C 0.12483 0.21305 1.03699
 N3002 N 0.11886 0.20299 1.03119
 N3003 N 0.10748 0.19891 1.03536
 C3004 C 0.10164 0.20473 1.04549
 N3005 N 0.10760 0.21482 1.05125
 N3006 N 0.11898 0.21890 1.04708
 C3007 C 0.13752 0.21736 1.03260
 N3008 N 0.14358 0.22727 1.03855
 N3009 N 0.15520 0.23101 1.03474
 C3010 C 0.16120 0.22498 1.02484
 N3011 N 0.15512 0.21509 1.01887
 N3012 N 0.14350 0.21135 1.02268
 C3013 C 0.17412 0.22894 1.02083
 N3014 N 0.18022 0.22278 1.01108
 N3015 N 0.19204 0.22622 1.00760
 C3016 C 0.19819 0.23596 1.01375
 N3017 N 0.19207 0.24214 1.02348
 N3018 N 0.18025 0.23870 1.02695
 C3019 C 0.62568 0.53798 0.21230
 N3020 N 0.61987 0.54824 0.21791
 N3021 N 0.60869 0.55262 0.21347
 C3022 C 0.60290 0.54691 0.20325
 N3023 N 0.60869 0.53662 0.19768
 N3024 N 0.61987 0.53224 0.20212
 C3025 C 0.63816 0.53335 0.21697
 N3026 N 0.64407 0.52325 0.21120
 N3027 N 0.65553 0.51924 0.21523
 C3028 C 0.66151 0.52518 0.22520
 N3029 N 0.65558 0.53526 0.23101
 N3030 N 0.64412 0.53927 0.22697
 C3031 C 0.67431 0.52098 0.22941
 N3032 N 0.68043 0.52710 0.23917
 N3033 N 0.69218 0.52350 0.24276
 C3034 C 0.69823 0.51364 0.23671
 N3035 N 0.69209 0.50748 0.22698
 N3036 N 0.68034 0.51109 0.22339
 C3037 C 0.62344 1.03641 0.71367
 N3038 N 0.61752 1.04655 0.71937
 N3039 N 0.60631 1.05088 0.71494
 C3040 C 0.60062 1.04524 0.70463
 N3041 N 0.60652 1.03506 0.69897
 N3042 N 0.61772 1.03072 0.70341
 C3043 C 0.63598 1.03190 0.71829
 N3044 N 0.64202 1.02193 0.71241
 N3045 N 0.65357 1.01808 0.71635
 C3046 C 0.65952 1.02406 0.72631
 N3047 N 0.65346 1.03399 0.73223
 N3048 N 0.64190 1.03783 0.72830
 C3049 C 0.67246 1.02011 0.73033
 N3050 N 0.67860 1.02635 0.74001
 N3051 N 0.69051 1.02305 0.74335
 C3052 C 0.69671 1.01338 0.73714
 N3053 N 0.69053 1.00710 0.72751
 N3054 N 0.67863 1.01040 0.72417
 C3055 C 0.87679 0.46385 0.28660
 N3056 N 0.88257 0.46947 0.29686
 N3057 N 0.89371 0.46500 0.30130
 C3058 C 0.89949 0.45475 0.29565
 N3059 N 0.89374 0.44918 0.28534
 N3060 N 0.88259 0.45364 0.28090
 C3061 C 0.86428 0.46849 0.28199
 N3062 N 0.85832 0.46259 0.27198
 N3063 N 0.84678 0.46652 0.26807
 C3064 C 0.84079 0.47648 0.27401
 N3065 N 0.84678 0.48242 0.28397
 N3066 N 0.85832 0.47849 0.28788
 C3067 C 0.82785 0.48046 0.27002
 N3068 N 0.82170 0.49019 0.27618
 N3069 N 0.80978 0.49347 0.27288
 C3070 C 0.80357 0.48714 0.26329
 N3071 N 0.80975 0.47746 0.25709
 N3072 N 0.82167 0.47419 0.26039
 C3073 C 0.87410 0.96152 0.78917
 N3074 N 0.87990 0.95130 0.78349
 N3075 N 0.89108 0.94689 0.78788
 C3076 C 0.89689 0.95254 0.79812
 N3077 N 0.89111 0.96280 0.80377
 N3078 N 0.87992 0.96721 0.79938
 C3079 C 0.86162 0.96618 0.78452
 N3080 N 0.85570 0.97626 0.79032
 N3081 N 0.84425 0.98030 0.78627
 C3082 C 0.83829 0.97440 0.77627
 N3083 N 0.84423 0.96434 0.77043
 N3084 N 0.85568 0.96031 0.77448
 C3085 C 0.82553 0.97864 0.77199
 N3086 N 0.81947 0.97254 0.76218
 N3087 N 0.80777 0.97619 0.75848
 C3088 C 0.80171 0.98609 0.76445
 N3089 N 0.80779 0.99222 0.77425
 N3090 N 0.81949 0.98856 0.77795
 C3091 C 0.37504 0.28761 0.78791
 N3092 N 0.36906 0.28178 0.79793
 N3093 N 0.35775 0.28605 0.80212
 C3094 C 0.35199 0.29632 0.79645
 N3095 N 0.35796 0.30211 0.78640
 N3096 N 0.36928 0.29784 0.78221
 C3097 C 0.38765 0.28310 0.78347
 N3098 N 0.39371 0.28908 0.77359
 N3099 N 0.40526 0.28516 0.76972
 C3100 C 0.41117 0.27511 0.77559
 N3101 N 0.40510 0.26910 0.78545
 N3102 N 0.39355 0.27303 0.78932
 C3103 C 0.42402 0.27098 0.77149
 N3104 N 0.43006 0.26107 0.77748
 N3105 N 0.44181 0.25749 0.77390
 C3106 C 0.44796 0.26368 0.76420
 N3107 N 0.44190 0.27357 0.75820
 N3108 N 0.43015 0.27715 0.76177
 C3109 C 0.87540 0.28643 0.28733
 N3110 N 0.86951 0.29651 0.28148
 N3111 N 0.85814 0.30069 0.28560
 C3112 C 0.85224 0.29496 0.29573
 N3113 N 0.85812 0.28485 0.30155
 N3114 N 0.86949 0.28066 0.29742
 C3115 C 0.88807 0.28202 0.28297
 N3116 N 0.89408 0.27210 0.28896
 N3117 N 0.90569 0.26827 0.28517
 C3118 C 0.91171 0.27422 0.27525
 N3119 N 0.90568 0.28412 0.26923
 N3120 N 0.89408 0.28794 0.27302
 C3121 C 0.92462 0.27020 0.27124
 N3122 N 0.93071 0.27632 0.26146
 N3123 N 0.94252 0.27284 0.25798
 C3124 C 0.94868 0.26311 0.26414
 N3125 N 0.94257 0.25697 0.27389
 N3126 N 0.93076 0.26045 0.27738
 C3127 C 0.37712 0.78558 0.46466
 N3128 N 0.38296 0.79570 0.47049
 N3129 N 0.39428 0.79995 0.46632
 C3130 C 0.40019 0.79425 0.45617
 N3131 N 0.39437 0.78409 0.45039
 N3132 N 0.38304 0.77984 0.45456
 C3133 C 0.36445 0.78116 0.46900
 N3134 N 0.35844 0.77127 0.46296
 N3135 N 0.34679 0.76751 0.46666
 C3136 C 0.34072 0.77349 0.47654
 N3137 N 0.34676 0.78334 0.48262
 N3138 N 0.35841 0.78710 0.47892
 C3139 C 0.32771 0.76963 0.48036
 N3140 N 0.32153 0.77586 0.49002
 N3141 N 0.30957 0.77264 0.49322
 C3142 C 0.30335 0.76307 0.48688
 N3143 N 0.30955 0.75680 0.47726
 N3144 N 0.32151 0.76002 0.47406
 C3145 C 0.37679 0.28559 0.96410
 N3146 N 0.38271 0.29566 0.96992
 N3147 N 0.39395 0.29998 0.96561
 C3148 C 0.39970 0.29439 0.95530
 N3149 N 0.39379 0.28427 0.94952
 N3150 N 0.38255 0.27996 0.95383
 C3151 C 0.36420 0.28111 0.96859
 N3152 N 0.35812 0.27127 0.96255
 N3153 N 0.34653 0.26746 0.96638
 C3154 C 0.34059 0.27335 0.97639
 N3155 N 0.34669 0.28315 0.98248
 N3156 N 0.35829 0.28696 0.97865
 C3157 C 0.32762 0.26945 0.98032
 N3158 N 0.32154 0.27558 0.99011
 N3159 N 0.30961 0.27233 0.99339
 C3160 C 0.30333 0.26283 0.98702
 N3161 N 0.30943 0.25665 0.97728
 N3162 N 0.32136 0.25990 0.97399
 C3163 C 0.78651 0.46397 0.37703
 N3164 N 0.79675 0.46967 0.38275
 N3165 N 0.80115 0.46541 0.39400
 C3166 C 0.79546 0.45528 0.39995
 N3167 N 0.78518 0.44962 0.39425
 N3168 N 0.78078 0.45388 0.38300
 C3169 C 0.78194 0.46841 0.36443
 N3170 N 0.77196 0.46245 0.35850
 N3171 N 0.76808 0.46623 0.34689
 C3172 C 0.77402 0.47611 0.34080
 N3173 N 0.78395 0.48211 0.34675
 N3174 N 0.78784 0.47833 0.35836
 C3175 C 0.77005 0.47999 0.32781
 N3176 N 0.77622 0.48967 0.32162
 N3177 N 0.77291 0.49292 0.30968
 C3178 C 0.76331 0.48661 0.30350
 N3179 N 0.75709 0.47697 0.30972
 N3180 N 0.76040 0.47372 0.32166
 C3181 C 0.78838 0.96154 0.87457
 N3182 N 0.78279 0.95128 0.88038
 N3183 N 0.78731 0.94682 0.89150
 C3184 C 0.79760 0.95245 0.89723
 N3185 N 0.80315 0.96275 0.89144
 N3186 N 0.79863 0.96720 0.88031
 C3187 C 0.78361 0.96624 0.86214
 N3188 N 0.78935 0.97635 0.85622
 N3189 N 0.78524 0.98042 0.84480
 C3190 C 0.77522 0.97453 0.83887
 N3191 N 0.76945 0.96445 0.84480
 N3192 N 0.77356 0.96038 0.85623
 C3193 C 0.77094 0.97879 0.82610
 N3194 N 0.76114 0.97270 0.82000
 N3195 N 0.75750 0.97634 0.80828
 C3196 C 0.76351 0.98621 0.80222
 N3197 N 0.77327 0.99233 0.80835
 N3198 N 0.77691 0.98869 0.82007
 C3199 C 0.28557 0.78627 0.37317
 N3200 N 0.29557 0.78038 0.36723
 N3201 N 0.29987 0.78466 0.35595
 C3202 C 0.29433 0.79500 0.35021
 N3203 N 0.28428 0.80085 0.35613
 N3204 N 0.27998 0.79657 0.36740
 C3205 C 0.28110 0.78182 0.38580
 N3206 N 0.27131 0.78792 0.39189
 N3207 N 0.26752 0.78413 0.40351
 C3208 C 0.27338 0.77411 0.40948
 N3209 N 0.28313 0.76797 0.40336
 N3210 N 0.28692 0.77175 0.39173
 C3211 C 0.26950 0.77022 0.42248
 N3212 N 0.27561 0.76044 0.42859
 N3213 N 0.27237 0.75719 0.44054
 C3214 C 0.26290 0.76360 0.44682
 N3215 N 0.25675 0.77334 0.44068
 N3216 N 0.25998 0.77659 0.42873
 C3217 C 0.28610 0.28651 0.87391
 N3218 N 0.28043 0.29672 0.86807
 N3219 N 0.28488 0.30114 0.85691
 C3220 C 0.29517 0.29552 0.85117
 N3221 N 0.30079 0.28527 0.85699
 N3222 N 0.29634 0.28085 0.86815
 C3223 C 0.28148 0.28191 0.88642
 N3224 N 0.28739 0.27194 0.89242
 N3225 N 0.28348 0.26803 0.90396
 C3226 C 0.27351 0.27394 0.90994
 N3227 N 0.26755 0.28388 0.90391
 N3228 N 0.27146 0.28779 0.89237
 C3229 C 0.26954 0.26995 0.92288
 N3230 N 0.25981 0.27610 0.92903
 N3231 N 0.25654 0.27278 0.94095
 C3232 C 0.26287 0.26320 0.94717
 N3233 N 0.27254 0.25701 0.94098
 N3234 N 0.27582 0.26032 0.92906
 C3235 C 0.46321 0.28673 0.87562
 N3236 N 0.45318 0.28088 0.88155
 N3237 N 0.44902 0.28504 0.89292
 C3238 C 0.45473 0.29522 0.89879
 N3239 N 0.46480 0.30103 0.89288
 N3240 N 0.46896 0.29686 0.88151
 C3241 C 0.46760 0.28233 0.86294
 N3242 N 0.47747 0.28834 0.85690
 N3243 N 0.48127 0.28453 0.84528
 C3244 C 0.47533 0.27457 0.83928
 N3245 N 0.46549 0.26853 0.84534
 N3246 N 0.46169 0.27235 0.85696
 C3247 C 0.47933 0.27055 0.82635
 N3248 N 0.47324 0.26074 0.82026
 N3249 N 0.47669 0.25726 0.80842
 C3250 C 0.48635 0.26346 0.80224
 N3251 N 0.49246 0.27325 0.80835
 N3252 N 0.48901 0.27673 0.82018
 C3253 C 0.96289 0.28810 0.37477
 N3254 N 0.96853 0.29834 0.38057
 N3255 N 0.96427 0.30262 0.39186
 C3256 C 0.95420 0.29682 0.39778
 N3257 N 0.94859 0.28654 0.39199
 N3258 N 0.95286 0.28226 0.38070
 C3259 C 0.96740 0.28357 0.36219
 N3260 N 0.96154 0.27353 0.35625
 N3261 N 0.96546 0.26959 0.34471
 C3262 C 0.97537 0.27554 0.33869
 N3263 N 0.98125 0.28555 0.34464
 N3264 N 0.97734 0.28950 0.35618
 C3265 C 0.97950 0.27137 0.32585
 N3266 N 0.98933 0.27740 0.31976
 N3267 N 0.99291 0.27378 0.30801
 C3268 C 0.98679 0.26400 0.30191
 N3269 N 0.97698 0.25794 0.30801
 N3270 N 0.97341 0.26156 0.31977
 C3271 C 0.46191 0.37492 0.78724
 N3272 N 0.45171 0.38076 0.78158
 N3273 N 0.44748 0.39207 0.78585
 C3274 C 0.45330 0.39797 0.79595
 N3275 N 0.46354 0.39214 0.80157
 N3276 N 0.46776 0.38083 0.79730
 C3277 C 0.46638 0.36230 0.78274
 N3278 N 0.47641 0.35634 0.78859
 N3279 N 0.48029 0.34477 0.78469
 C3280 C 0.47429 0.33873 0.77480
 N3281 N 0.46429 0.34470 0.76892
 N3282 N 0.46041 0.35628 0.77282
 C3283 C 0.47838 0.32585 0.77070
 N3284 N 0.47226 0.31972 0.76094
 N3285 N 0.47580 0.30792 0.75740
 C3286 C 0.48560 0.30182 0.76350
 N3287 N 0.49174 0.30797 0.77324
 N3288 N 0.48820 0.31977 0.77677
 C3289 C 0.96313 0.37504 0.28749
 N3290 N 0.95309 0.38101 0.28168
 N3291 N 0.94884 0.39230 0.28599
 C3292 C 0.95447 0.39804 0.29628
 N3293 N 0.96454 0.39208 0.30206
 N3294 N 0.96880 0.38080 0.29774
 C3295 C 0.96762 0.36244 0.28294
 N3296 N 0.97756 0.35641 0.28886
 N3297 N 0.98145 0.34486 0.28493
 C3298 C 0.97554 0.33890 0.27493
 N3299 N 0.96563 0.34495 0.26898
 N3300 N 0.96174 0.35651 0.27291
 C3301 C 0.97963 0.32603 0.27082
 N3302 N 0.97353 0.31991 0.26103
 N3303 N 0.97706 0.30811 0.25750
 C3304 C 0.98683 0.30199 0.26361
 N3305 N 0.99296 0.30813 0.27337
 N3306 N 0.98943 0.31993 0.27690
 C3307 C 0.28635 0.87691 0.46403
 N3308 N 0.29646 0.88283 0.46978
 N3309 N 0.30085 0.89401 0.46534
 C3310 C 0.29529 0.89969 0.45497
 N3311 N 0.28514 0.89380 0.44927
 N3312 N 0.28076 0.88262 0.45371
 C3313 C 0.28179 0.86437 0.46864
 N3314 N 0.27190 0.85833 0.46267
 N3315 N 0.26802 0.84676 0.46657
 C3316 C 0.27389 0.84082 0.47660
 N3317 N 0.28375 0.84690 0.48262
 N3318 N 0.28762 0.85847 0.47872
 C3319 C 0.26993 0.82787 0.48058
 N3320 N 0.27605 0.82174 0.49035
 N3321 N 0.27276 0.80980 0.49363
 C3322 C 0.26323 0.80356 0.48727
 N3323 N 0.25706 0.80972 0.47755
 N3324 N 0.26035 0.82165 0.47427
 C3325 C 0.28608 0.37686 0.96442
 N3326 N 0.29620 0.38279 0.97013
 N3327 N 0.30048 0.39403 0.96573
 C3328 C 0.29481 0.39976 0.95546
 N3329 N 0.28464 0.39385 0.94979
 N3330 N 0.28036 0.38261 0.95420
 C3331 C 0.28163 0.36427 0.96900
 N3332 N 0.27168 0.35822 0.96310
 N3333 N 0.26789 0.34662 0.96699
 C3334 C 0.27391 0.34064 0.97691
 N3335 N 0.28381 0.34671 0.98285
 N3336 N 0.28760 0.35832 0.97896
 C3337 C 0.27002 0.32766 0.98087
 N3338 N 0.27629 0.32148 0.99051
 N3339 N 0.27304 0.30954 0.99380
 C3340 C 0.26340 0.30333 0.98758
 N3341 N 0.25708 0.30954 0.97798
 N3342 N 0.26033 0.32148 0.97469
 C3343 C 0.78695 0.37309 0.28588
 N3344 N 0.79724 0.36734 0.28030
 N3345 N 0.80157 0.35608 0.28463
 C3346 C 0.79577 0.35016 0.29471
 N3347 N 0.78544 0.35589 0.30024
 N3348 N 0.78111 0.36714 0.29591
 C3349 C 0.78243 0.38569 0.28138
 N3350 N 0.77236 0.39159 0.28719
 N3351 N 0.76850 0.40320 0.28337
 C3352 C 0.77457 0.40932 0.27359
 N3353 N 0.78461 0.40340 0.26773
 N3354 N 0.78847 0.39179 0.27156
 C3355 C 0.77061 0.42230 0.26967
 N3356 N 0.77691 0.42857 0.26013
 N3357 N 0.77359 0.44051 0.25687
 C3358 C 0.76384 0.44662 0.26303
 N3359 N 0.75750 0.44032 0.27253
 N3360 N 0.76082 0.42838 0.27579
   
