data_POSCAR
  _audit_creation_date              2014-09-24
  _audit_creation_method            'ToBaCCo'
  _symmetry_space_group_name_H-M    'P1'
  _symmetry_Int_Tables_number       1
  _symmetry_cell_setting            triclinic
  loop_
  _symmetry_equiv_pos_as_xyz
 x,y,z
_cell_length_a 63.3243
_cell_length_b 64.1174
_cell_length_c 63.7092
_cell_angle_alpha 90.005300
_cell_angle_beta 89.996100
_cell_angle_gamma 90.033200
loop_
  _atom_site_label
  _atom_site_type_symbol
  _atom_site_fract_x
  _atom_site_fract_y
  _atom_site_fract_z
C1 C 0.36469 0.27535 0.01253
 C2 C 0.36413 0.27488 -0.00896
 C3 C 0.35708 0.29433 -0.01548
 N4 N 0.35284 0.30648 0.00134
 C5 C 0.35759 0.29490 0.01844
 C6 C 0.35590 0.30117 -0.03660
 C7 C 0.34376 0.31893 -0.04220
 C8 C 0.34672 0.33075 -0.06020
 C9 C 0.33151 0.34599 -0.06012
 C10 C 0.31960 0.34315 -0.04206
 N11 N 0.32735 0.32677 -0.03105
 C12 C 0.30183 0.35537 -0.03631
 C13 C 0.29512 0.35664 -0.01512
 C14 C 0.27562 0.36396 -0.00841
 C15 C 0.27629 0.36444 0.01309
 C16 C 0.29599 0.35703 0.01880
 N17 N 0.30748 0.35217 0.00158
 C18 C 0.30368 0.35630 0.03956
 C19 C 0.32155 0.34446 0.04523
 C20 C 0.33235 0.34609 0.06409
 C21 C 0.34754 0.33073 0.06401
 C22 C 0.34554 0.32021 0.04510
 N23 N 0.32968 0.32867 0.03376
 C24 C 0.35710 0.30235 0.03926
 H25 H 0.36973 0.26275 0.02266
 H26 H 0.36855 0.26174 -0.01868
 H27 H 0.32322 0.32250 0.02008
 H28 H 0.35882 0.32883 -0.07205
 H29 H 0.32967 0.35802 -0.07189
 H30 H 0.26231 0.36857 -0.01799
 H31 H 0.26372 0.36962 0.02335
 H32 H 0.35861 0.32753 0.07655
 H33 H 0.32064 0.32018 -0.01766
 H34 H 0.32943 0.35703 0.07670
 C35 C 0.70780 0.61932 -0.00899
 C36 C 0.70775 0.61961 0.01251
 C37 C 0.69990 0.63888 0.01841
 N38 N 0.69533 0.65050 0.00127
 C39 C 0.70034 0.63861 -0.01556
 C40 C 0.69826 0.64588 0.03935
 C41 C 0.68593 0.66326 0.04519
 C42 C 0.68674 0.67312 0.06455
 C43 C 0.67110 0.68801 0.06451
 C44 C 0.66121 0.68682 0.04512
 N45 N 0.67033 0.67168 0.03346
 C46 C 0.64341 0.69866 0.03911
 C47 C 0.63660 0.70030 0.01807
 C48 C 0.61778 0.70933 0.01168
 C49 C 0.61795 0.70924 -0.00985
 C50 C 0.63687 0.70016 -0.01587
 N51 N 0.64825 0.69473 0.00120
 C52 C 0.64414 0.69856 -0.03674
 C53 C 0.66201 0.68668 -0.04243
 C54 C 0.67288 0.68878 -0.06118
 C55 C 0.68842 0.67384 -0.06118
 C56 C 0.68644 0.66276 -0.04255
 N57 N 0.67038 0.67083 -0.03112
 C58 C 0.69893 0.64528 -0.03676
 H59 H 0.71267 0.60631 -0.01865
 H60 H 0.71274 0.60699 0.02264
 H61 H 0.66407 0.66450 -0.01744
 H62 H 0.69732 0.66975 0.07745
 H63 H 0.66732 0.69839 0.07736
 H64 H 0.60531 0.71550 0.02150
 H65 H 0.60566 0.71535 -0.01991
 H66 H 0.69993 0.67148 -0.07352
 H67 H 0.66469 0.66576 0.01934
 H68 H 0.66998 0.70000 -0.07354
 C69 C 0.62027 0.28867 0.98871
 C70 C 0.62062 0.28833 1.01023
 C71 C 0.63897 0.29847 1.01632
 N72 N 0.64986 0.30491 0.99926
 C73 C 0.63841 0.29900 0.98237
 C74 C 0.64589 0.30063 1.03729
 C75 C 0.66301 0.31348 1.04332
 C76 C 0.67228 0.31333 1.06301
 C77 C 0.68689 0.32917 1.06324
 C78 C 0.68644 0.33850 1.04353
 N79 N 0.67166 0.32887 1.03159
 C80 C 0.69775 0.35680 1.03776
 C81 C 0.69937 0.36384 1.01666
 C82 C 0.70960 0.38194 1.01025
 C83 C 0.70946 0.38193 0.98875
 C84 C 0.69943 0.36373 0.98259
 N85 N 0.69340 0.35267 0.99964
 C86 C 0.69741 0.35698 0.96156
 C87 C 0.68523 0.33953 0.95542
 C88 C 0.68609 0.33023 0.93578
 C89 C 0.67119 0.31462 0.93569
 C90 C 0.66166 0.31480 0.95528
 N91 N 0.67023 0.33009 0.96718
 C92 C 0.64472 0.30175 0.96129
 H93 H 0.60806 0.28203 0.97888
 H94 H 0.60873 0.28138 1.02023
 H95 H 0.66454 0.33529 0.98155
 H96 H 0.66854 0.30320 1.07608
 H97 H 0.69624 0.33358 1.07673
 H98 H 0.71699 0.39374 1.01990
 H99 H 0.71637 0.39379 0.97880
 H100 H 0.66772 0.30436 0.92264
 H101 H 0.66584 0.33417 1.01734
 H102 H 0.69632 0.33432 0.92281
 C103 C 0.36297 0.72456 0.98762
 C104 C 0.36234 0.72506 1.00911
 C105 C 0.35547 0.70554 1.01564
 N106 N 0.35138 0.69333 0.99884
 C107 C 0.35607 0.70493 0.98172
 C108 C 0.35432 0.69872 1.03678
 C109 C 0.34236 0.68084 1.04238
 C110 C 0.34542 0.66908 1.06041
 C111 C 0.33038 0.65365 1.06032
 C112 C 0.31847 0.65632 1.04224
 N113 N 0.32606 0.67278 1.03122
 C114 C 0.30087 0.64386 1.03646
 C115 C 0.29420 0.64251 1.01526
 C116 C 0.27479 0.63496 1.00852
 C117 C 0.27550 0.63448 0.98703
 C118 C 0.29513 0.64211 0.98133
 N119 N 0.30653 0.64712 0.99857
 C120 C 0.30284 0.64291 0.96058
 C121 C 0.32058 0.65495 0.95492
 C122 C 0.33143 0.65341 0.93608
 C123 C 0.34647 0.66893 0.93617
 C124 C 0.34433 0.67945 0.95506
 N125 N 0.32853 0.67084 0.96638
 C126 C 0.35572 0.69744 0.96091
 H127 H 0.36791 0.73719 0.97747
 H128 H 0.36661 0.73826 1.01881
 H129 H 0.32198 0.67695 0.98004
 H130 H 0.35747 0.67116 1.07227
 H131 H 0.32867 0.64160 1.07210
 H132 H 0.26153 0.63019 1.01809
 H133 H 0.26300 0.62914 0.97676
 H134 H 0.35754 0.67223 0.92365
 H135 H 0.31931 0.67927 1.01781
 H136 H 0.32865 0.64242 0.92348
 C137 C -0.00874 0.36650 0.27588
 C138 C 0.01287 0.36650 0.27659
 C139 C 0.01843 0.35808 0.29581
 N140 N 0.00098 0.35309 0.30700
 C141 C -0.01571 0.35842 0.29489
 C142 C 0.03932 0.35642 0.30330
 C143 C 0.04484 0.34372 0.32052
 C144 C 0.06393 0.34455 0.33113
 C145 C 0.06353 0.32879 0.34578
 C146 C 0.04421 0.31880 0.34368
 N147 N 0.03295 0.32795 0.32819
 C148 C 0.03789 0.30105 0.35522
 C149 C 0.01681 0.29384 0.35592
 C150 C 0.01041 0.27538 0.36524
 C151 C -0.01121 0.27520 0.36457
 C152 C -0.01741 0.29349 0.35462
 N153 N -0.00019 0.30488 0.34948
 C154 C -0.03848 0.30080 0.35298
 C155 C -0.04385 0.31921 0.34179
 C156 C -0.06303 0.32963 0.34323
 C157 C -0.06257 0.34546 0.32875
 C158 C -0.04340 0.34404 0.31829
 N159 N -0.03203 0.32809 0.32645
 C160 C -0.03716 0.35685 0.30116
 H161 H -0.01822 0.37180 0.26281
 H162 H 0.02332 0.37196 0.26431
 H163 H -0.01809 0.32213 0.32023
 H164 H 0.07686 0.35528 0.32850
 H165 H 0.07610 0.32506 0.35667
 H166 H 0.02027 0.26353 0.37231
 H167 H -0.02112 0.26324 0.37137
 H168 H -0.07509 0.35664 0.32614
 H169 H 0.01898 0.32240 0.32167
 H170 H -0.07623 0.32618 0.35341
 C171 C -0.00849 0.63510 0.72496
 C172 C 0.01313 0.63452 0.72436
 C173 C 0.01898 0.64192 0.70480
 N174 N 0.00172 0.64687 0.69333
 C175 C -0.01515 0.64246 0.70556
 C176 C 0.03990 0.64256 0.69722
 C177 C 0.04572 0.65439 0.67949
 C178 C 0.06472 0.65268 0.66881
 C179 C 0.06476 0.66804 0.65370
 C180 C 0.04578 0.67864 0.65564
 N181 N 0.03429 0.67023 0.67137
 C182 C 0.04002 0.69652 0.64411
 C183 C 0.01912 0.70408 0.64359
 C184 C 0.01331 0.72367 0.63651
 C185 C -0.00831 0.72425 0.63702
 C186 C -0.01501 0.70483 0.64402
 N187 N 0.00183 0.69259 0.64827
 C188 C -0.03631 0.69810 0.64514
 C189 C -0.04207 0.68037 0.65719
 C190 C -0.06025 0.66864 0.65420
 C191 C -0.06029 0.65337 0.66930
 C192 C -0.04213 0.65610 0.68117
 N193 N -0.03094 0.67244 0.67351
 C194 C -0.03644 0.64381 0.69882
 H195 H -0.01820 0.63051 0.73815
 H196 H 0.02338 0.62929 0.73689
 H197 H -0.01744 0.67895 0.68021
 H198 H 0.07734 0.64168 0.67174
 H199 H 0.07742 0.67119 0.64273
 H200 H 0.02359 0.73621 0.63152
 H201 H -0.01800 0.73744 0.63261
 H202 H -0.07220 0.64139 0.67109
 H203 H 0.02054 0.67646 0.67775
 H204 H -0.07213 0.67064 0.64215
 C205 C 0.98887 0.70930 0.38215
 C206 C 1.01050 0.70943 0.38221
 C207 C 1.01700 0.69905 0.36418
 N208 N 0.99990 0.69299 0.35299
 C209 C 0.98272 0.69912 0.36398
 C210 C 1.03824 0.69733 0.35718
 C211 C 1.04410 0.68582 0.33900
 C212 C 1.06398 0.68604 0.32970
 C213 C 1.06379 0.67132 0.31404
 C214 C 1.04395 0.66222 0.31427
 N215 N 1.03210 0.67107 0.32953
 C216 C 1.03789 0.64510 0.30163
 C217 C 1.01677 0.63832 0.29944
 C218 C 1.01062 0.62008 0.28948
 C219 C 0.98897 0.61983 0.28968
 C220 C 0.98262 0.63793 0.29976
 N221 N 0.99963 0.64925 0.30564
 C222 C 0.96142 0.64430 0.30226
 C223 C 0.95535 0.66119 0.31516
 C224 C 0.93566 0.67063 0.31478
 C225 C 0.93572 0.68554 0.33030
 C226 C 0.95544 0.68478 0.33975
 N227 N 0.96727 0.66983 0.33050
 C228 C 0.96157 0.69703 0.35717
 H229 H 0.97884 0.71631 0.39395
 H230 H 1.02019 0.71692 0.39399
 H231 H 0.98169 0.66426 0.33586
 H232 H 1.07755 0.69533 0.33402
 H233 H 1.07698 0.66741 0.30397
 H234 H 1.02066 0.60818 0.28274
 H235 H 0.97906 0.60772 0.28311
 H236 H 0.92267 0.69571 0.33423
 H237 H 1.01772 0.66544 0.33491
 H238 H 0.92258 0.66710 0.30444
 C239 C 0.98614 0.27673 0.63404
 C240 C 1.00775 0.27607 0.63430
 C241 C 1.01460 0.29516 0.64204
 N242 N 0.99782 0.30728 0.64693
 C243 C 0.98044 0.29602 0.64197
 C244 C 1.03601 0.30154 0.64360
 C245 C 1.04203 0.31879 0.65625
 C246 C 1.06092 0.32968 0.65446
 C247 C 1.06097 0.34458 0.66996
 C248 C 1.04199 0.34266 0.68060
 N249 N 1.03051 0.32694 0.67218
 C250 C 1.03617 0.35473 0.69822
 C251 C 1.01510 0.35663 0.70514
 C252 C 1.00891 0.36608 0.72372
 C253 C 0.98726 0.36665 0.72348
 C254 C 0.98098 0.35751 0.70478
 N255 N 0.99802 0.35138 0.69359
 C256 C 0.95994 0.35645 0.69753
 C257 C 0.95388 0.34453 0.67988
 C258 C 0.93466 0.34622 0.66958
 C259 C 0.93457 0.33127 0.65408
 C260 C 0.95372 0.32088 0.65539
 N261 N 0.96536 0.32900 0.67118
 C262 C 0.95951 0.30347 0.64313
 H263 H 0.97578 0.26438 0.62870
 H264 H 1.01733 0.26299 0.62936
 H265 H 0.97931 0.32278 0.67709
 H266 H 1.07335 0.32730 0.64307
 H267 H 1.07348 0.35571 0.67291
 H268 H 1.01895 0.37221 0.73600
 H269 H 0.97730 0.37327 0.73557
 H270 H 0.92178 0.32828 0.64321
 H271 H 1.01657 0.32080 0.67826
 H272 H 0.92198 0.35703 0.67293
 C273 C 0.38087 0.01190 0.29253
 C274 C 0.38116 -0.00946 0.29292
 C275 C 0.36143 -0.01586 0.29992
 N276 N 0.34927 0.00092 0.30427
 C277 C 0.36114 0.01787 0.29968
 C278 C 0.35443 -0.03682 0.30124
 C279 C 0.33641 -0.04224 0.31331
 C280 C 0.32437 -0.06011 0.31046
 C281 C 0.30906 -0.06000 0.32572
 C282 C 0.31209 -0.04207 0.33754
 N283 N 0.32861 -0.03114 0.32968
 C284 C 0.30003 -0.03645 0.35545
 C285 C 0.29890 -0.01544 0.36228
 C286 C 0.29199 -0.00889 0.38189
 C287 C 0.29175 0.01247 0.38146
 C288 C 0.29890 0.01828 0.36178
 N289 N 0.30335 0.00123 0.35007
 C290 C 0.29995 0.03900 0.35442
 C291 C 0.31167 0.04464 0.33647
 C292 C 0.31029 0.06362 0.32614
 C293 C 0.32563 0.06352 0.31082
 C294 C 0.33590 0.04448 0.31229
 N295 N 0.32727 0.03306 0.32791
 C296 C 0.35388 0.03865 0.30062
 H297 H 0.39374 0.02190 0.28767
 H298 H 0.39443 -0.01916 0.28854
 H299 H 0.33335 0.01927 0.33403
 H300 H 0.32626 -0.07191 0.29847
 H301 H 0.29691 -0.07171 0.32771
 H302 H 0.28757 -0.01849 0.39515
 H303 H 0.28699 0.02258 0.39421
 H304 H 0.32906 0.07615 0.30008
 H305 H 0.33544 -0.01792 0.33635
 H306 H 0.29959 0.07634 0.32950
 C307 C 0.63440 0.01239 0.72434
 C308 C 0.63481 -0.00900 0.72469
 C309 C 0.64415 -0.01528 0.70606
 N310 N 0.64948 0.00149 0.69437
 C311 C 0.64351 0.01842 0.70552
 C312 C 0.64582 -0.03613 0.69921
 C313 C 0.65784 -0.04205 0.68151
 C314 C 0.65565 -0.06083 0.67097
 C315 C 0.67058 -0.06096 0.65533
 C316 C 0.68177 -0.04238 0.65693
 N317 N 0.67376 -0.03087 0.67288
 C318 C 0.69917 -0.03663 0.64410
 C319 C 0.70576 -0.01554 0.64233
 C320 C 0.72506 -0.00896 0.63437
 C321 C 0.72455 0.01240 0.63399
 C322 C 0.70514 0.01821 0.64208
 N323 N 0.69366 0.00115 0.64724
 C324 C 0.69776 0.03894 0.64324
 C325 C 0.68026 0.04481 0.65560
 C326 C 0.66983 0.06377 0.65426
 C327 C 0.65484 0.06386 0.66990
 C328 C 0.65655 0.04494 0.68032
 N329 N 0.67213 0.03346 0.67154
 C330 C 0.64464 0.03915 0.69813
 H331 H 0.62788 0.02234 0.73644
 H332 H 0.62864 -0.01880 0.73708
 H333 H 0.67842 0.01969 0.67748
 H334 H 0.64432 -0.07309 0.67409
 H335 H 0.67280 -0.07331 0.64398
 H336 H 0.73820 -0.01853 0.62937
 H337 H 0.73708 0.02251 0.62849
 H338 H 0.64400 0.07646 0.67328
 H339 H 0.68014 -0.01711 0.67884
 H340 H 0.67281 0.07631 0.64328
 C341 C 0.29283 0.98867 0.61842
 C342 C 0.29311 1.01003 0.61801
 C343 C 0.29998 1.01656 0.63764
 N344 N 0.30435 0.99988 0.64985
 C345 C 0.29990 0.98284 0.63812
 C346 C 0.30111 1.03757 0.64450
 C347 C 0.31315 1.04318 0.66243
 C348 C 0.31013 1.06112 0.67424
 C349 C 0.32539 1.06118 0.68955
 C350 C 0.33737 1.04329 0.68675
 N351 N 0.32961 1.03221 0.67035
 C352 C 0.35532 1.03781 0.69890
 C353 C 0.36226 1.01683 0.70023
 C354 C 0.38195 1.01041 0.70730
 C355 C 0.38159 0.98904 0.70769
 C356 C 0.36187 0.98311 0.70047
 N357 N 0.35007 1.00008 0.69583
 C358 C 0.35455 0.96234 0.69950
 C359 C 0.33660 0.95656 0.68776
 C360 C 0.32625 0.93755 0.68919
 C361 C 0.31098 0.93748 0.67381
 C362 C 0.31248 0.95646 0.66348
 N363 N 0.32808 0.96799 0.67210
 C364 C 0.30088 0.96211 0.64547
 H365 H 0.28808 0.97858 0.60565
 H366 H 0.28874 1.01965 0.60475
 H367 H 0.33425 0.98177 0.66600
 H368 H 0.29802 1.07285 0.67222
 H369 H 0.32727 1.07298 0.70156
 H370 H 0.39522 1.02009 0.71174
 H371 H 0.39442 0.97902 0.71260
 H372 H 0.30024 0.92479 0.67041
 H373 H 0.33641 1.01897 0.66371
 H374 H 0.32959 0.92491 0.69995
 C375 C 0.63534 0.98560 0.27528
 C376 C 0.63566 1.00695 0.27459
 C377 C 0.64351 1.01371 0.29377
 N378 N 0.64843 0.99714 0.30597
 C379 C 0.64337 0.97998 0.29468
 C380 C 0.64512 1.03485 0.30016
 C381 C 0.65791 1.04081 0.31748
 C382 C 0.65616 1.05946 0.32844
 C383 C 0.67179 1.05951 0.34339
 C384 C 0.68248 1.04077 0.34144
 N385 N 0.67395 1.02943 0.32563
 C386 C 0.70021 1.03500 0.35356
 C387 C 0.70715 1.01419 0.35545
 C388 C 0.72584 1.00805 0.36493
 C389 C 0.72556 0.98667 0.36553
 C390 C 0.70671 0.98049 0.35637
 N391 N 0.69549 0.99734 0.35021
 C392 C 0.69936 0.95973 0.35538
 C393 C 0.68155 0.95376 0.34345
 C394 C 0.67112 0.93482 0.34525
 C395 C 0.65549 0.93473 0.33024
 C396 C 0.65685 0.95361 0.31972
 N397 N 0.67280 0.96508 0.32781
 C398 C 0.64449 0.95931 0.30222
 H399 H 0.62990 0.97537 0.26289
 H400 H 0.63066 1.01640 0.26143
 H401 H 0.67879 0.97882 0.32148
 H402 H 0.64469 1.07174 0.32607
 H403 H 0.67479 1.07186 0.35458
 H404 H 0.73823 1.01796 0.37108
 H405 H 0.73771 0.97682 0.37219
 H406 H 0.64449 0.92213 0.32732
 H407 H 0.68004 1.01565 0.31946
 H408 H 0.67447 0.92232 0.35616
 O409 O 0.84785 0.81750 0.48201
 O410 O 0.81905 0.84661 0.52261
 O411 O 0.84783 0.81761 0.52275
 O412 O 0.81902 0.84640 0.48190
 O413 O 0.79412 0.82233 0.48195
 O414 O 0.82304 0.79343 0.52291
 O415 O 0.79413 0.82257 0.52277
 O416 O 0.82308 0.79330 0.48206
 Cu417 Cu 0.83592 0.83443 0.50232
 Cu418 Cu 0.80610 0.80548 0.50245
 C419 C 0.84050 0.80037 0.47515
 C420 C 0.80158 0.83971 0.52953
 C421 C 0.84049 0.80052 0.52973
 C422 C 0.80157 0.83940 0.47501
 O423 O 0.18067 0.15234 0.52173
 O424 O 0.15171 0.18124 0.48108
 O425 O 0.18057 0.15236 0.48098
 O426 O 0.15181 0.18124 0.52179
 O427 O 0.17654 0.20547 0.52180
 O428 O 0.20544 0.17645 0.48088
 O429 O 0.17645 0.20546 0.48098
 O430 O 0.20554 0.17643 0.52175
 Cu431 Cu 0.16373 0.16437 0.50141
 Cu432 Cu 0.19350 0.19338 0.50136
 C433 C 0.19811 0.15933 0.52863
 C434 C 0.15900 0.19837 0.47417
 C435 C 0.19797 0.15937 0.47400
 C436 C 0.15911 0.19838 0.52867
 O437 O 0.15295 0.81844 0.51996
 O438 O 0.18101 0.84780 0.47899
 O439 O 0.15243 0.81859 0.47927
 O440 O 0.18139 0.84775 0.51974
 O441 O 0.20655 0.82399 0.51948
 O442 O 0.17746 0.79468 0.47888
 O443 O 0.20617 0.82403 0.47862
 O444 O 0.17799 0.79454 0.51968
 Cu445 Cu 0.16445 0.83554 0.49952
 Cu446 Cu 0.19458 0.80692 0.49912
 C447 C 0.16055 0.80139 0.52674
 C448 C 0.19845 0.84105 0.47187
 C449 C 0.15986 0.80156 0.47225
 C450 C 0.19896 0.84096 0.52649
 O451 O 0.84718 0.18190 0.51819
 O452 O 0.81918 0.15214 0.47745
 O453 O 0.84786 0.18128 0.47746
 O454 O 0.81859 0.15270 0.51816
 O455 O 0.79354 0.17657 0.51749
 O456 O 0.82293 0.20527 0.47669
 O457 O 0.79413 0.17602 0.47668
 O458 O 0.82224 0.20588 0.51751
 Cu459 Cu 0.83570 0.16462 0.49788
 Cu460 Cu 0.80570 0.19334 0.49702
 C461 C 0.83961 0.19904 0.52475
 C462 C 0.80178 0.15887 0.47019
 C463 C 0.84052 0.19824 0.47019
 C464 C 0.80099 0.15962 0.52471
 O465 O 0.52132 0.81983 0.84817
 O466 O 0.48026 0.84855 0.81947
 O467 O 0.48036 0.81951 0.84803
 O468 O 0.52124 0.84876 0.81948
 O469 O 0.52149 0.82470 0.79474
 O470 O 0.48049 0.79538 0.82335
 O471 O 0.48041 0.82454 0.79467
 O472 O 0.52156 0.79564 0.82356
 Cu473 Cu 0.50078 0.83657 0.83625
 Cu474 Cu 0.50101 0.80764 0.80659
 C475 C 0.52837 0.80275 0.84091
 C476 C 0.47339 0.84158 0.80210
 C477 C 0.47352 0.80237 0.84068
 C478 C 0.52827 0.84184 0.80215
 O479 O 0.52222 0.17958 0.15201
 O480 O 0.48097 0.15118 0.18082
 O481 O 0.48127 0.18018 0.15224
 O482 O 0.52195 0.15068 0.18074
 O483 O 0.52243 0.17475 0.20547
 O484 O 0.48165 0.20434 0.17688
 O485 O 0.48135 0.17522 0.20558
 O486 O 0.52271 0.20377 0.17662
 Cu487 Cu 0.50156 0.16299 0.16399
 Cu488 Cu 0.50209 0.19194 0.19363
 C489 C 0.52942 0.19661 0.15926
 C490 C 0.47416 0.15823 0.19818
 C491 C 0.47458 0.19738 0.15957
 C492 C 0.52906 0.15756 0.19805
 O493 O 0.47846 0.18205 0.84721
 O494 O 0.51923 0.15318 0.81821
 O495 O 0.51943 0.18192 0.84708
 O496 O 0.47826 0.15323 0.81844
 O497 O 0.47815 0.17740 0.79382
 O498 O 0.51944 0.20626 0.82263
 O499 O 0.51924 0.17739 0.79362
 O500 O 0.47835 0.20637 0.82273
 Cu501 Cu 0.49885 0.16518 0.83518
 Cu502 Cu 0.49879 0.19430 0.80573
 C503 C 0.47151 0.19921 0.84005
 C504 C 0.52613 0.16024 0.80089
 C505 C 0.52640 0.19906 0.83988
 C506 C 0.47124 0.16028 0.80117
 O507 O 0.47667 0.81807 0.15322
 O508 O 0.51771 0.84658 0.18230
 O509 O 0.51764 0.81798 0.15331
 O510 O 0.47673 0.84687 0.18202
 O511 O 0.47642 0.82266 0.20661
 O512 O 0.51744 0.79355 0.17768
 O513 O 0.51752 0.82229 0.20680
 O514 O 0.47635 0.79371 0.17765
 Cu515 Cu 0.49720 0.83480 0.16527
 Cu516 Cu 0.49690 0.80561 0.19465
 C517 C 0.46959 0.80094 0.16034
 C518 C 0.52456 0.83940 0.19959
 C519 C 0.52446 0.80077 0.16045
 C520 C 0.46966 0.83985 0.19928
 O521 O 0.84699 0.52212 0.81839
 O522 O 0.81799 0.48170 0.84743
 O523 O 0.84674 0.48166 0.81822
 O524 O 0.81827 0.52219 0.84761
 O525 O 0.79331 0.52251 0.82347
 O526 O 0.82190 0.48186 0.79395
 O527 O 0.79303 0.48190 0.82329
 O528 O 0.82217 0.52242 0.79411
 Cu529 Cu 0.83497 0.50189 0.83533
 Cu530 Cu 0.80509 0.50220 0.80628
 C531 C 0.83968 0.52909 0.80121
 C532 C 0.80049 0.47495 0.84043
 C533 C 0.83931 0.47491 0.80099
 C534 C 0.80086 0.52922 0.84067
 O535 O 0.18274 0.48025 0.15377
 O536 O 0.15337 0.52085 0.18212
 O537 O 0.18238 0.52070 0.15318
 O538 O 0.15383 0.48038 0.18283
 O539 O 0.17850 0.48097 0.20726
 O540 O 0.20716 0.52140 0.17749
 O541 O 0.17802 0.52155 0.20657
 O542 O 0.20754 0.48084 0.17807
 Cu543 Cu 0.16561 0.50048 0.16555
 Cu544 Cu 0.19529 0.50125 0.19481
 C545 C 0.20023 0.47368 0.16094
 C546 C 0.16056 0.52808 0.19926
 C547 C 0.19973 0.52787 0.16015
 C548 C 0.16117 0.47385 0.20018
 O549 O 0.84760 0.47948 0.18093
 O550 O 0.81860 0.52013 0.15224
 O551 O 0.84761 0.51996 0.18114
 O552 O 0.81859 0.47965 0.15193
 O553 O 0.79386 0.47944 0.17631
 O554 O 0.82299 0.51986 0.20563
 O555 O 0.79386 0.52002 0.17661
 O556 O 0.82300 0.47929 0.20543
 Cu557 Cu 0.83556 0.49981 0.16412
 Cu558 Cu 0.80594 0.49962 0.19345
 C559 C 0.84039 0.47253 0.19817
 C560 C 0.80122 0.52698 0.15942
 C561 C 0.84037 0.52675 0.19843
 C562 C 0.80118 0.47274 0.15900
 O563 O 0.18272 0.51771 0.84663
 O564 O 0.15337 0.47727 0.81797
 O565 O 0.18239 0.47725 0.84693
 O566 O 0.15376 0.51773 0.81766
 O567 O 0.17838 0.51740 0.79318
 O568 O 0.20715 0.47682 0.82258
 O569 O 0.17799 0.47683 0.79349
 O570 O 0.20748 0.51739 0.82228
 Cu571 Cu 0.16560 0.49752 0.83473
 Cu572 Cu 0.19524 0.49706 0.80543
 C573 C 0.20018 0.52440 0.83946
 C574 C 0.16053 0.47023 0.80075
 C575 C 0.19975 0.47020 0.83989
 C576 C 0.16106 0.52442 0.80035
 C577 C 0.27098 0.39301 0.08557
 C578 C 0.27244 0.37135 0.08807
 C579 C 0.28336 0.35936 0.07327
 C580 C 0.29286 0.36897 0.05584
 C581 C 0.29157 0.39071 0.05359
 C582 C 0.28068 0.40266 0.06837
 C583 C 0.25894 0.40538 0.10011
 C584 C 0.24863 0.41619 0.11171
 C585 C 0.23609 0.42960 0.12484
 C586 C 0.21599 0.43573 0.11815
 C587 C 0.20416 0.44976 0.13011
 C588 C 0.21231 0.45789 0.14897
 C589 C 0.23238 0.45133 0.15578
 C590 C 0.24420 0.43730 0.14375
 H591 H 0.26493 0.36373 0.10129
 H592 H 0.28415 0.34260 0.07520
 H593 H 0.29885 0.39837 0.04027
 H594 H 0.27960 0.41939 0.06626
 H595 H 0.20958 0.42992 0.10350
 H596 H 0.18877 0.45446 0.12442
 H597 H 0.23910 0.45732 0.17021
 H598 H 0.25978 0.43270 0.14903
 C599 C 0.73267 0.61078 0.08537
 C600 C 0.71064 0.61230 0.08677
 C601 C 0.69943 0.62412 0.07206
 C602 C 0.71017 0.63447 0.05583
 C603 C 0.73228 0.63322 0.05476
 C604 C 0.74346 0.62141 0.06945
 C605 C 0.74417 0.59752 0.09954
 C606 C 0.75408 0.58606 0.11085
 C607 C 0.76621 0.57199 0.12365
 C608 C 0.75804 0.56446 0.14261
 C609 C 0.76955 0.55004 0.15447
 C610 C 0.78937 0.54294 0.14745
 C611 C 0.79753 0.55083 0.12851
 C612 C 0.78602 0.56524 0.11671
 H613 H 0.70213 0.60406 0.09897
 H614 H 0.68237 0.62486 0.07305
 H615 H 0.74080 0.64112 0.04234
 H616 H 0.76049 0.62028 0.06819
 H617 H 0.74269 0.56954 0.14809
 H618 H 0.76282 0.54425 0.16897
 H619 H 0.81273 0.54571 0.12266
 H620 H 0.79247 0.57094 0.10203
 C621 C 0.73173 0.39203 0.91543
 C622 C 0.70961 0.39206 0.91525
 C623 C 0.69840 0.38031 0.93002
 C624 C 0.70925 0.36850 0.94512
 C625 C 0.73142 0.36820 0.94496
 C626 C 0.74260 0.37995 0.93021
 C627 C 0.74333 0.40515 0.90118
 C628 C 0.75328 0.41648 0.88976
 C629 C 0.76543 0.43038 0.87677
 C630 C 0.75714 0.43788 0.85785
 C631 C 0.76867 0.45215 0.84580
 C632 C 0.78862 0.45912 0.85258
 C633 C 0.79691 0.45124 0.87148
 C634 C 0.78538 0.43698 0.88347
 H635 H 0.70105 0.40141 0.90393
 H636 H 0.68130 0.38070 0.92996
 H637 H 0.74000 0.35913 0.95649
 H638 H 0.75971 0.37987 0.93053
 H639 H 0.74169 0.43291 0.85255
 H640 H 0.76185 0.45793 0.83135
 H641 H 0.81221 0.45626 0.87715
 H642 H 0.79192 0.43131 0.89811
 C643 C 0.27053 0.60567 0.91470
 C644 C 0.28036 0.59619 0.93190
 C645 C 0.29114 0.60830 0.94663
 C646 C 0.29218 0.63006 0.94432
 C647 C 0.28257 0.63950 0.92688
 C648 C 0.27176 0.62734 0.91213
 C649 C 0.25857 0.59312 0.90023
 C650 C 0.24833 0.58218 0.88868
 C651 C 0.23587 0.56863 0.87562
 C652 C 0.24395 0.56109 0.85663
 C653 C 0.23220 0.54698 0.84461
 C654 C 0.21222 0.54019 0.85150
 C655 C 0.20411 0.54815 0.87044
 C656 C 0.21587 0.56225 0.88240
 H657 H 0.27946 0.57945 0.93407
 H658 H 0.29851 0.60077 0.95997
 H659 H 0.28317 0.65627 0.92490
 H660 H 0.26414 0.63484 0.89890
 H661 H 0.25945 0.56588 0.85127
 H662 H 0.23889 0.54114 0.83011
 H663 H 0.18879 0.54327 0.87619
 H664 H 0.20949 0.56794 0.89710
 C665 C 0.08334 0.26821 0.39266
 C666 C 0.06697 0.27933 0.40230
 C667 C 0.05235 0.29024 0.39011
 C668 C 0.05393 0.29007 0.36813
 C669 C 0.07054 0.27916 0.35851
 C670 C 0.08518 0.26824 0.37075
 C671 C 0.09774 0.25625 0.40533
 C672 C 0.10928 0.24607 0.41634
 C673 C 0.12243 0.23371 0.42993
 C674 C 0.11546 0.21409 0.43658
 C675 C 0.12755 0.20244 0.45067
 C676 C 0.14682 0.21028 0.45836
 C677 C 0.15389 0.22988 0.45131
 C678 C 0.14174 0.24153 0.43720
 H679 H 0.06539 0.27938 0.41924
 H680 H 0.03967 0.29864 0.39775
 H681 H 0.07196 0.27890 0.34157
 H682 H 0.09776 0.25965 0.36313
 H683 H 0.10052 0.20791 0.43109
 H684 H 0.12165 0.18741 0.45576
 H685 H 0.16863 0.23637 0.45693
 H686 H 0.14725 0.25674 0.43219
 C687 C 0.08593 0.72980 0.60756
 C688 C 0.08858 0.72794 0.62931
 C689 C 0.07384 0.71681 0.64124
 C690 C 0.05631 0.70750 0.63149
 C691 C 0.05393 0.70916 0.60964
 C692 C 0.06866 0.72027 0.59775
 C693 C 0.10038 0.74207 0.59525
 C694 C 0.11188 0.75255 0.58447
 C695 C 0.12486 0.76526 0.57105
 C696 C 0.14417 0.75773 0.56352
 C697 C 0.15606 0.76966 0.54942
 C698 C 0.14871 0.78925 0.54264
 C699 C 0.12947 0.79682 0.55062
 C700 C 0.11764 0.78489 0.56472
 H701 H 0.10186 0.73532 0.63705
 H702 H 0.07586 0.71572 0.65809
 H703 H 0.04053 0.70203 0.60187
 H704 H 0.06643 0.72164 0.58095
 H705 H 0.14987 0.74252 0.56827
 H706 H 0.17080 0.76338 0.54355
 H707 H 0.12336 0.81183 0.54575
 H708 H 0.10268 0.79084 0.57040
 C709 C 0.91519 0.73139 0.39199
 C710 C 0.91499 0.70954 0.39230
 C711 C 0.92982 0.69831 0.38060
 C712 C 0.94501 0.70887 0.36856
 C713 C 0.94486 0.73076 0.36795
 C714 C 0.93004 0.74196 0.37964
 C715 C 0.90094 0.74301 0.40511
 C716 C 0.88954 0.75300 0.41645
 C717 C 0.87661 0.76519 0.43039
 C718 C 0.85741 0.75732 0.43787
 C719 C 0.84543 0.76888 0.45219
 C720 C 0.85257 0.78847 0.45924
 C721 C 0.87175 0.79634 0.45139
 C722 C 0.88366 0.78477 0.43708
 H723 H 0.90362 0.70121 0.40186
 H724 H 0.92976 0.68143 0.38123
 H725 H 0.95646 0.73911 0.35870
 H726 H 0.93038 0.75885 0.37934
 H727 H 0.85183 0.74214 0.43283
 H728 H 0.83075 0.76238 0.45795
 H729 H 0.87770 0.81135 0.45647
 H730 H 0.89853 0.79100 0.43143
 C731 C 0.91351 0.27080 0.60613
 C732 C 0.91130 0.27168 0.62799
 C733 C 0.92603 0.28268 0.64008
 C734 C 0.94310 0.29281 0.63037
 C735 C 0.94501 0.29217 0.60842
 C736 C 0.93030 0.28121 0.59638
 C737 C 0.89920 0.25856 0.59364
 C738 C 0.88782 0.24809 0.58272
 C739 C 0.87498 0.23537 0.56917
 C740 C 0.88224 0.21571 0.56296
 C741 C 0.87054 0.20374 0.54881
 C742 C 0.85137 0.21128 0.54063
 C743 C 0.84399 0.23092 0.54725
 C744 C 0.85576 0.24290 0.56141
 H745 H 0.89841 0.26363 0.63570
 H746 H 0.92438 0.28297 0.65700
 H747 H 0.95807 0.29993 0.60069
 H748 H 0.93219 0.28058 0.57949
 H749 H 0.89714 0.20977 0.56882
 H750 H 0.87666 0.18869 0.54406
 H751 H 0.82931 0.23718 0.54124
 H752 H 0.85003 0.25813 0.56606
 C753 C 0.38959 0.08421 0.26630
 C754 C 0.37961 0.06782 0.25569
 C755 C 0.36764 0.05324 0.26683
 C756 C 0.36557 0.05488 0.28871
 C757 C 0.37530 0.07155 0.29925
 C758 C 0.38729 0.08615 0.28808
 C759 C 0.40296 0.09838 0.25488
 C760 C 0.41450 0.10970 0.24504
 C761 C 0.42867 0.12252 0.23298
 C762 C 0.43529 0.11582 0.21315
 C763 C 0.44983 0.12762 0.20170
 C764 C 0.45800 0.14631 0.20996
 C765 C 0.45101 0.15310 0.22979
 C766 C 0.43645 0.14124 0.24124
 H767 H 0.38135 0.06613 0.23886
 H768 H 0.36022 0.04049 0.25845
 H769 H 0.37394 0.07300 0.31613
 H770 H 0.39502 0.09872 0.29645
 H771 H 0.42941 0.10133 0.20664
 H772 H 0.45486 0.12195 0.18649
 H773 H 0.45700 0.16741 0.23659
 H774 H 0.43147 0.14654 0.25661
 C775 C 0.60755 0.08481 0.73076
 C776 C 0.59766 0.06845 0.72002
 C777 C 0.60974 0.05378 0.70915
 C778 C 0.63186 0.05530 0.70896
 C779 C 0.64172 0.07192 0.71945
 C780 C 0.62960 0.08661 0.73035
 C781 C 0.59500 0.09922 0.74276
 C782 C 0.58406 0.11076 0.75300
 C783 C 0.57050 0.12387 0.76542
 C784 C 0.56315 0.14286 0.75743
 C785 C 0.54901 0.15495 0.76912
 C786 C 0.54200 0.14813 0.78894
 C787 C 0.54978 0.12917 0.79695
 C788 C 0.56391 0.11715 0.78525
 H789 H 0.58062 0.06690 0.72027
 H790 H 0.60189 0.04109 0.70106
 H791 H 0.65877 0.07329 0.71945
 H792 H 0.63741 0.09918 0.73865
 H793 H 0.56810 0.14817 0.74206
 H794 H 0.54331 0.16945 0.76251
 H795 H 0.54472 0.12347 0.81214
 H796 H 0.56945 0.10244 0.79156
 C797 C 0.38986 0.91656 0.73389
 C798 C 0.37998 0.93302 0.74448
 C799 C 0.36817 0.94769 0.73332
 C800 C 0.36615 0.94607 0.71143
 C801 C 0.37580 0.92935 0.70091
 C802 C 0.38763 0.91466 0.71210
 C803 C 0.40303 0.90226 0.74535
 C804 C 0.41441 0.89081 0.75521
 C805 C 0.42838 0.87780 0.76728
 C806 C 0.43501 0.88438 0.78715
 C807 C 0.44938 0.87241 0.79861
 C808 C 0.45736 0.85366 0.79033
 C809 C 0.45035 0.84698 0.77047
 C810 C 0.43596 0.85902 0.75901
 H811 H 0.38167 0.93468 0.76132
 H812 H 0.36081 0.96048 0.74168
 H813 H 0.37447 0.92792 0.68402
 H814 H 0.39528 0.90204 0.70375
 H815 H 0.42927 0.89892 0.79369
 H816 H 0.45443 0.87800 0.81385
 H817 H 0.45620 0.83264 0.76364
 H818 H 0.43096 0.85381 0.74361
 C819 C 0.60695 0.91378 0.26983
 C820 C 0.62894 0.91154 0.27063
 C821 C 0.64121 0.92614 0.28150
 C822 C 0.63155 0.94312 0.29159
 C823 C 0.60948 0.94508 0.29100
 C824 C 0.59725 0.93050 0.28016
 C825 C 0.59426 0.89949 0.25780
 C826 C 0.58318 0.88810 0.24754
 C827 C 0.56944 0.87518 0.23509
 C828 C 0.56192 0.85621 0.24299
 C829 C 0.54760 0.84432 0.23129
 C830 C 0.54059 0.85133 0.21155
 C831 C 0.54853 0.87025 0.20361
 C832 C 0.56284 0.88208 0.21532
 H833 H 0.63661 0.89869 0.26263
 H834 H 0.65822 0.92445 0.28175
 H835 H 0.60178 0.95806 0.29873
 H836 H 0.58026 0.93240 0.27960
 H837 H 0.56688 0.85076 0.25832
 H838 H 0.54178 0.82984 0.23785
 H839 H 0.54347 0.87609 0.18848
 H840 H 0.56851 0.89677 0.20908
 C841 C 0.39155 0.26898 0.91722
 C842 C 0.37085 0.27521 0.91283
 C843 C 0.35912 0.28604 0.92793
 C844 C 0.36789 0.29068 0.94777
 C845 C 0.38894 0.28460 0.95173
 C846 C 0.40059 0.27383 0.93663
 C847 C 0.40356 0.25718 0.90218
 C848 C 0.41416 0.24701 0.89025
 C849 C 0.42741 0.23458 0.87684
 C850 C 0.43383 0.21478 0.88348
 C851 C 0.44784 0.20311 0.87129
 C852 C 0.45567 0.21111 0.85226
 C853 C 0.44880 0.23087 0.84548
 C854 C 0.43478 0.24255 0.85774
 H855 H 0.36368 0.27147 0.89786
 H856 H 0.34294 0.29018 0.92434
 H857 H 0.39656 0.28848 0.96645
 H858 H 0.41666 0.26922 0.94014
 H859 H 0.42827 0.20850 0.89828
 H860 H 0.45278 0.18795 0.87696
 H861 H 0.45456 0.23748 0.83092
 H862 H 0.42998 0.25790 0.85250
 C863 C 0.61037 0.73354 0.91666
 C864 C 0.61143 0.71176 0.91523
 C865 C 0.62276 0.70037 0.93019
 C866 C 0.63305 0.71068 0.94674
 C867 C 0.63229 0.73254 0.94783
 C868 C 0.62097 0.74390 0.93289
 C869 C 0.59761 0.74524 0.90216
 C870 C 0.58654 0.75529 0.89056
 C871 C 0.57288 0.76756 0.87740
 C872 C 0.56555 0.75965 0.85826
 C873 C 0.55136 0.77125 0.84612
 C874 C 0.54430 0.79090 0.85305
 C875 C 0.55206 0.79883 0.87215
 C876 C 0.56623 0.78723 0.88422
 H877 H 0.60322 0.70358 0.90278
 H878 H 0.62320 0.68352 0.92913
 H879 H 0.64022 0.74074 0.96044
 H880 H 0.62021 0.76074 0.93417
 H881 H 0.57056 0.74441 0.85287
 H882 H 0.54568 0.76470 0.83151
 H883 H 0.54696 0.81389 0.87793
 H884 H 0.57177 0.79348 0.89903
 C885 C 0.38968 0.73129 0.08293
 C886 C 0.36903 0.72488 0.08732
 C887 C 0.35740 0.71393 0.07223
 C888 C 0.36621 0.70935 0.05239
 C889 C 0.38721 0.71564 0.04843
 C890 C 0.39876 0.72652 0.06353
 C891 C 0.40161 0.74315 0.09800
 C892 C 0.41217 0.75335 0.10996
 C893 C 0.42540 0.76576 0.12342
 C894 C 0.43263 0.75779 0.14257
 C895 C 0.44666 0.76942 0.15487
 C896 C 0.45368 0.78914 0.14810
 C897 C 0.44598 0.79716 0.12903
 C898 C 0.43195 0.78553 0.11679
 H899 H 0.36183 0.72854 0.10230
 H900 H 0.34125 0.70963 0.07582
 H901 H 0.39487 0.71182 0.03372
 H902 H 0.41480 0.73127 0.06002
 H903 H 0.42772 0.74246 0.14781
 H904 H 0.45231 0.76280 0.16946
 H905 H 0.45104 0.81228 0.12336
 H906 H 0.42651 0.79182 0.10196
 C907 C 0.61181 0.26562 0.08363
 C908 C 0.62409 0.25526 0.06862
 C909 C 0.63552 0.26667 0.05378
 C910 C 0.63471 0.28855 0.05378
 C911 C 0.62267 0.29889 0.06909
 C912 C 0.61125 0.28746 0.08394
 C913 C 0.59899 0.25380 0.09800
 C914 C 0.58788 0.24372 0.10955
 C915 C 0.57415 0.23151 0.12270
 C916 C 0.56728 0.21192 0.11585
 C917 C 0.55304 0.20040 0.12794
 C918 C 0.54543 0.20835 0.14709
 C919 C 0.55272 0.22791 0.15405
 C920 C 0.56697 0.23942 0.14189
 H921 H 0.62457 0.23837 0.06819
 H922 H 0.64476 0.25848 0.04208
 H923 H 0.62186 0.31576 0.06925
 H924 H 0.60172 0.29562 0.09543
 H925 H 0.57270 0.20566 0.10099
 H926 H 0.54777 0.18541 0.12213
 H927 H 0.54715 0.23447 0.16870
 H928 H 0.57215 0.25460 0.14731
 C929 C 0.26660 0.08335 0.61077
 C930 C 0.25722 0.06425 0.61578
 C931 C 0.26844 0.04931 0.62715
 C932 C 0.28940 0.05313 0.63367
 C933 C 0.29846 0.07271 0.62897
 C934 C 0.28717 0.08763 0.61753
 C935 C 0.25524 0.09808 0.59802
 C936 C 0.24537 0.10977 0.58692
 C937 C 0.23319 0.12292 0.57319
 C938 C 0.21317 0.11639 0.56662
 C939 C 0.20163 0.12842 0.55241
 C940 C 0.20997 0.14720 0.54452
 C941 C 0.22997 0.15383 0.55148
 C942 C 0.24152 0.14173 0.56571
 H943 H 0.24125 0.06082 0.61074
 H944 H 0.26060 0.03480 0.63106
 H945 H 0.31459 0.07619 0.63344
 H946 H 0.29461 0.10236 0.61366
 H947 H 0.20659 0.10182 0.57227
 H948 H 0.18628 0.12286 0.54739
 H949 H 0.23684 0.16819 0.54569
 H950 H 0.25704 0.14689 0.57065
 C951 C 0.73296 0.08130 0.38977
 C952 C 0.73266 0.08269 0.36783
 C953 C 0.72176 0.06777 0.35600
 C954 C 0.71117 0.05131 0.36604
 C955 C 0.71126 0.05021 0.38805
 C956 C 0.72213 0.06511 0.39984
 C957 C 0.74487 0.09602 0.40206
 C958 C 0.75498 0.10785 0.41280
 C959 C 0.76718 0.12135 0.42617
 C960 C 0.78711 0.11497 0.43313
 C961 C 0.79854 0.12737 0.44713
 C962 C 0.79017 0.14637 0.45440
 C963 C 0.77029 0.15287 0.44701
 C964 C 0.75886 0.14040 0.43300
 H965 H 0.74101 0.09515 0.35988
 H966 H 0.72181 0.06885 0.33903
 H967 H 0.70306 0.03768 0.39605
 H968 H 0.72227 0.06388 0.41681
 H969 H 0.79367 0.10022 0.42799
 H970 H 0.81380 0.12192 0.45249
 H971 H 0.76339 0.16739 0.45232
 H972 H 0.74341 0.14546 0.42777
 C973 C 0.73168 0.91741 0.60871
 C974 C 0.72570 0.93620 0.59934
 C975 C 0.71484 0.95125 0.61092
 C976 C 0.70978 0.94781 0.63222
 C977 C 0.71562 0.92862 0.64138
 C978 C 0.72654 0.91358 0.62972
 C979 C 0.74354 0.90241 0.59676
 C980 C 0.75373 0.89044 0.58625
 C981 C 0.76616 0.87691 0.57314
 C982 C 0.75786 0.85800 0.56588
 C983 C 0.76955 0.84560 0.55204
 C984 C 0.78968 0.85204 0.54523
 C985 C 0.79802 0.87088 0.55296
 C986 C 0.78633 0.88321 0.56679
 H987 H 0.72950 0.93928 0.58304
 H988 H 0.71009 0.96549 0.60309
 H989 H 0.71235 0.92549 0.65777
 H990 H 0.73118 0.89910 0.63716
 H991 H 0.74223 0.85302 0.57064
 H992 H 0.76268 0.83120 0.54636
 H993 H 0.81346 0.87629 0.54806
 H994 H 0.79288 0.89785 0.57226
 C995 C 0.26562 0.91772 0.38924
 C996 C 0.25620 0.93678 0.38423
 C997 C 0.26739 0.95174 0.37283
 C998 C 0.28834 0.94797 0.36629
 C999 C 0.29744 0.92843 0.37101
 C1000 C 0.28619 0.91348 0.38247
 C1001 C 0.25434 0.90296 0.40204
 C1002 C 0.24459 0.89121 0.41320
 C1003 C 0.23265 0.87792 0.42700
 C1004 C 0.21268 0.88427 0.43387
 C1005 C 0.20141 0.87209 0.44818
 C1006 C 0.20998 0.85334 0.45586
 C1007 C 0.22993 0.84689 0.44860
 C1008 C 0.24120 0.85914 0.43427
 H1009 H 0.24023 0.94017 0.38929
 H1010 H 0.25952 0.96623 0.36892
 H1011 H 0.31357 0.92499 0.36653
 H1012 H 0.29366 0.89879 0.38634
 H1013 H 0.20594 0.89882 0.42838
 H1014 H 0.18610 0.87751 0.45343
 H1015 H 0.23697 0.83255 0.45422
 H1016 H 0.25668 0.85411 0.42910
 C1017 C 0.08307 0.39060 0.73086
 C1018 C 0.08444 0.36879 0.73052
 C1019 C 0.06933 0.35708 0.71964
 C1020 C 0.05271 0.36710 0.70910
 C1021 C 0.05165 0.38898 0.70921
 C1022 C 0.06673 0.40065 0.72007
 C1023 C 0.09790 0.40275 0.74284
 C1024 C 0.10977 0.41338 0.75306
 C1025 C 0.12325 0.42660 0.76546
 C1026 C 0.11654 0.43322 0.78529
 C1027 C 0.12888 0.44708 0.79694
 C1028 C 0.14814 0.45456 0.78890
 C1029 C 0.15497 0.44751 0.76910
 C1030 C 0.14257 0.43363 0.75745
 H1031 H 0.09700 0.36086 0.73885
 H1032 H 0.07039 0.34022 0.71968
 H1033 H 0.03900 0.39695 0.70106
 H1034 H 0.06551 0.41751 0.72025
 H1035 H 0.10158 0.42792 0.79162
 H1036 H 0.12316 0.45218 0.81212
 H1037 H 0.16971 0.45298 0.76246
 H1038 H 0.14788 0.42866 0.74208
 C1039 C 0.08451 0.61060 0.26727
 C1040 C 0.06957 0.62266 0.25655
 C1041 C 0.05465 0.63424 0.26774
 C1042 C 0.05450 0.63379 0.28977
 C1043 C 0.06975 0.62198 0.30047
 C1044 C 0.08468 0.61041 0.28926
 C1045 C 0.09894 0.59765 0.25568
 C1046 C 0.11052 0.58644 0.24579
 C1047 C 0.12371 0.57263 0.23375
 C1048 C 0.11684 0.56558 0.21413
 C1049 C 0.12900 0.55135 0.20276
 C1050 C 0.14825 0.54394 0.21090
 C1051 C 0.15521 0.55137 0.23050
 C1052 C 0.14298 0.56561 0.24187
 H1053 H 0.06925 0.62286 0.23954
 H1054 H 0.04299 0.64329 0.25927
 H1055 H 0.06980 0.62146 0.31747
 H1056 H 0.09611 0.60107 0.29771
 H1057 H 0.10192 0.57088 0.20772
 H1058 H 0.12319 0.54596 0.18772
 H1059 H 0.16994 0.54596 0.23721
 H1060 H 0.14841 0.57094 0.25708
 C1061 C 0.91733 0.39268 0.26822
 C1062 C 0.91324 0.37174 0.27286
 C1063 C 0.92811 0.35993 0.28392
 C1064 C 0.94740 0.36888 0.29044
 C1065 C 0.95110 0.39011 0.28587
 C1066 C 0.93621 0.40184 0.27486
 C1067 C 0.90250 0.40481 0.25623
 C1068 C 0.89067 0.41545 0.24598
 C1069 C 0.87728 0.42870 0.23354
 C1070 C 0.85803 0.43589 0.24153
 C1071 C 0.84574 0.44983 0.22985
 C1072 C 0.85263 0.45679 0.21004
 C1073 C 0.87183 0.44914 0.20201
 C1074 C 0.88405 0.43522 0.21369
 H1075 H 0.89869 0.36447 0.26771
 H1076 H 0.92482 0.34359 0.28681
 H1077 H 0.96543 0.39774 0.29110
 H1078 H 0.93949 0.41808 0.27144
 H1079 H 0.85268 0.43100 0.25692
 H1080 H 0.83106 0.45543 0.23649
 H1081 H 0.87759 0.45417 0.18682
 H1082 H 0.89896 0.42980 0.20738
 C1083 C 0.91713 0.60832 0.73098
 C1084 C 0.93657 0.59938 0.72584
 C1085 C 0.95176 0.61097 0.71507
 C1086 C 0.94784 0.63186 0.70928
 C1087 C 0.92796 0.64055 0.71420
 C1088 C 0.91278 0.62888 0.72503
 C1089 C 0.90202 0.59639 0.74283
 C1090 C 0.89004 0.58588 0.75306
 C1091 C 0.87659 0.57274 0.76558
 C1092 C 0.88337 0.56630 0.78544
 C1093 C 0.87114 0.55244 0.79721
 C1094 C 0.85192 0.54478 0.78923
 C1095 C 0.84501 0.55166 0.76941
 C1096 C 0.85731 0.56553 0.75764
 H1097 H 0.94004 0.58342 0.73024
 H1098 H 0.96649 0.60343 0.71096
 H1099 H 0.92440 0.65661 0.71028
 H1100 H 0.89778 0.63598 0.72899
 H1101 H 0.89830 0.57173 0.79171
 H1102 H 0.87691 0.54748 0.81240
 H1103 H 0.83030 0.54604 0.76282
 H1104 H 0.85196 0.57036 0.74224
 C1105 C 0.73328 0.61148 0.91729
 C1106 C 0.71241 0.61743 0.91334
 C1107 C 0.70116 0.62891 0.92830
 C1108 C 0.71058 0.63448 0.94758
 C1109 C 0.73181 0.62875 0.95108
 C1110 C 0.74299 0.61733 0.93610
 C1111 C 0.74459 0.59866 0.90256
 C1112 C 0.75436 0.58751 0.89082
 C1113 C 0.76637 0.57375 0.87756
 C1114 C 0.75793 0.56648 0.85860
 C1115 C 0.76929 0.55225 0.84636
 C1116 C 0.78921 0.54507 0.85298
 C1117 C 0.79765 0.55273 0.87191
 C1118 C 0.78630 0.56695 0.88409
 H1119 H 0.70470 0.61289 0.89886
 H1120 H 0.68480 0.63272 0.92512
 H1121 H 0.73985 0.63327 0.96539
 H1122 H 0.75919 0.61289 0.93928
 H1123 H 0.74248 0.57160 0.85344
 H1124 H 0.76234 0.54665 0.83188
 H1125 H 0.81293 0.54754 0.87746
 H1126 H 0.79295 0.57243 0.89876
 C1127 C 0.26940 0.39089 0.91764
 C1128 C 0.27540 0.37035 0.91327
 C1129 C 0.28630 0.35867 0.92834
 C1130 C 0.29122 0.36732 0.94813
 C1131 C 0.28535 0.38819 0.95208
 C1132 C 0.27451 0.39979 0.93701
 C1133 C 0.25757 0.40287 0.90259
 C1134 C 0.24741 0.41340 0.89062
 C1135 C 0.23500 0.42656 0.87710
 C1136 C 0.21499 0.43311 0.88362
 C1137 C 0.20334 0.44697 0.87129
 C1138 C 0.21159 0.45451 0.85224
 C1139 C 0.23157 0.44751 0.84559
 C1140 C 0.24321 0.43364 0.85798
 H1141 H 0.27146 0.36329 0.89833
 H1142 H 0.29027 0.34263 0.92475
 H1143 H 0.28947 0.39570 0.96675
 H1144 H 0.27007 0.41574 0.94050
 H1145 H 0.20851 0.42778 0.89842
 H1146 H 0.18802 0.45203 0.87687
 H1147 H 0.23837 0.45304 0.83102
 H1148 H 0.25873 0.42872 0.85282
 C1149 C 0.26880 0.60781 0.08238
 C1150 C 0.27454 0.62842 0.08680
 C1151 C 0.28532 0.64028 0.07178
 C1152 C 0.29040 0.63173 0.05199
 C1153 C 0.28480 0.61079 0.04798
 C1154 C 0.27408 0.59901 0.06301
 C1155 C 0.25707 0.59565 0.09737
 C1156 C 0.24700 0.58497 0.10931
 C1157 C 0.23471 0.57167 0.12280
 C1158 C 0.21479 0.56485 0.11624
 C1159 C 0.20324 0.55091 0.12859
 C1160 C 0.21149 0.54355 0.14771
 C1161 C 0.23139 0.55079 0.15438
 C1162 C 0.24293 0.56474 0.14197
 H1163 H 0.27047 0.63540 0.10175
 H1164 H 0.28908 0.65636 0.07541
 H1165 H 0.28905 0.60336 0.03331
 H1166 H 0.26985 0.58301 0.05947
 H1167 H 0.20831 0.57006 0.10140
 H1168 H 0.18799 0.54568 0.12300
 H1169 H 0.23819 0.54541 0.16901
 H1170 H 0.25838 0.56986 0.14716
 C1171 C 0.73076 0.39190 0.08324
 C1172 C 0.71306 0.40038 0.07323
 C1173 C 0.70192 0.38862 0.05845
 C1174 C 0.70833 0.36820 0.05351
 C1175 C 0.72599 0.35970 0.06384
 C1176 C 0.73712 0.37151 0.07862
 C1177 C 0.74289 0.40452 0.09752
 C1178 C 0.75319 0.41545 0.10903
 C1179 C 0.76562 0.42893 0.12221
 C1180 C 0.78552 0.43561 0.11542
 C1181 C 0.79724 0.44957 0.12757
 C1182 C 0.78921 0.45708 0.14673
 C1183 C 0.76933 0.45001 0.15361
 C1184 C 0.75761 0.43603 0.14139
 H1185 H 0.70806 0.41618 0.07663
 H1186 H 0.68835 0.39549 0.05073
 H1187 H 0.73144 0.34413 0.06008
 H1188 H 0.75089 0.36486 0.08618
 H1189 H 0.79185 0.43024 0.10057
 H1190 H 0.81248 0.45469 0.12182
 H1191 H 0.76269 0.45551 0.16826
 H1192 H 0.74220 0.43100 0.14677
 C1193 C 0.91752 0.73055 0.60959
 C1194 C 0.93705 0.72561 0.60066
 C1195 C 0.95215 0.71476 0.61228
 C1196 C 0.94807 0.70869 0.63318
 C1197 C 0.92811 0.71342 0.64185
 C1198 C 0.91302 0.72434 0.63016
 C1199 C 0.90248 0.74242 0.59761
 C1200 C 0.89056 0.75264 0.58703
 C1201 C 0.87717 0.76511 0.57380
 C1202 C 0.85791 0.75723 0.56647
 C1203 C 0.84568 0.76893 0.55246
 C1204 C 0.85264 0.78863 0.54557
 C1205 C 0.87182 0.79656 0.55337
 C1206 C 0.88398 0.78486 0.56737
 H1207 H 0.94065 0.73022 0.58469
 H1208 H 0.96695 0.71081 0.60473
 H1209 H 0.92443 0.70929 0.65793
 H1210 H 0.89795 0.72814 0.63724
 H1211 H 0.85253 0.74192 0.57129
 H1212 H 0.83101 0.76238 0.54674
 H1213 H 0.87763 0.81166 0.54841
 H1214 H 0.89890 0.79108 0.57289
 C1215 C 0.91594 0.26759 0.38791
 C1216 C 0.92171 0.28780 0.39393
 C1217 C 0.93648 0.29899 0.38213
 C1218 C 0.94562 0.29009 0.36410
 C1219 C 0.93957 0.26985 0.35804
 C1220 C 0.92479 0.25869 0.36988
 C1221 C 0.90176 0.25562 0.40082
 C1222 C 0.89032 0.24548 0.41199
 C1223 C 0.87722 0.23324 0.42575
 C1224 C 0.85774 0.24094 0.43265
 C1225 C 0.84557 0.22940 0.44685
 C1226 C 0.85278 0.21003 0.45434
 C1227 C 0.87224 0.20230 0.44704
 C1228 C 0.88436 0.21384 0.43286
 H1229 H 0.91510 0.29476 0.40796
 H1230 H 0.94119 0.31439 0.38735
 H1231 H 0.94645 0.26265 0.34426
 H1232 H 0.92052 0.24301 0.36515
 H1233 H 0.85209 0.25597 0.42728
 H1234 H 0.83068 0.23580 0.45217
 H1235 H 0.87826 0.18745 0.45249
 H1236 H 0.89943 0.20776 0.42765
 C1237 C 0.08199 0.26876 0.60814
 C1238 C 0.08609 0.27399 0.62907
 C1239 C 0.07106 0.28501 0.64075
 C1240 C 0.05159 0.29086 0.63169
 C1241 C 0.04791 0.28572 0.61046
 C1242 C 0.06295 0.27476 0.59886
 C1243 C 0.09696 0.25678 0.59617
 C1244 C 0.10887 0.24650 0.58564
 C1245 C 0.12230 0.23398 0.57248
 C1246 C 0.11554 0.21417 0.56618
 C1247 C 0.12775 0.20241 0.55228
 C1248 C 0.14693 0.21033 0.54444
 C1249 C 0.15382 0.23010 0.55121
 C1250 C 0.14154 0.24186 0.56512
 H1251 H 0.10076 0.26934 0.63644
 H1252 H 0.07438 0.28836 0.65709
 H1253 H 0.03347 0.29047 0.60270
 H1254 H 0.05967 0.27089 0.58263
 H1255 H 0.10064 0.20795 0.57173
 H1256 H 0.12199 0.18726 0.54741
 H1257 H 0.16849 0.23664 0.54545
 H1258 H 0.14688 0.25721 0.56985
 C1259 C 0.08400 0.73055 0.39191
 C1260 C 0.07937 0.73646 0.37126
 C1261 C 0.06449 0.72526 0.35959
 C1262 C 0.05406 0.70800 0.36847
 C1263 C 0.05901 0.70204 0.38915
 C1264 C 0.07389 0.71325 0.40077
 C1265 C 0.09836 0.74276 0.40438
 C1266 C 0.10993 0.75314 0.41519
 C1267 C 0.12313 0.76570 0.42856
 C1268 C 0.14260 0.75812 0.43560
 C1269 C 0.15481 0.76995 0.44951
 C1270 C 0.14764 0.78950 0.45659
 C1271 C 0.12820 0.79711 0.44911
 C1272 C 0.11605 0.78527 0.43521
 H1273 H 0.08700 0.74992 0.36432
 H1274 H 0.06073 0.73036 0.34381
 H1275 H 0.05121 0.68878 0.39631
 H1276 H 0.07729 0.70860 0.41677
 H1277 H 0.14820 0.74295 0.43059
 H1278 H 0.16969 0.76364 0.45499
 H1279 H 0.12221 0.81209 0.45422
 H1280 H 0.10098 0.79127 0.42989
 C1281 C 0.60924 0.91808 0.73231
 C1282 C 0.63131 0.91650 0.73183
 C1283 C 0.64325 0.93124 0.72081
 C1284 C 0.63321 0.94771 0.71025
 C1285 C 0.61107 0.94899 0.71050
 C1286 C 0.59917 0.93427 0.72151
 C1287 C 0.59685 0.90357 0.74438
 C1288 C 0.58602 0.89194 0.75463
 C1289 C 0.57255 0.87867 0.76700
 C1290 C 0.56541 0.85962 0.75895
 C1291 C 0.55131 0.84738 0.77055
 C1292 C 0.54415 0.85411 0.79034
 C1293 C 0.55173 0.87311 0.79843
 C1294 C 0.56582 0.88529 0.78682
 H1295 H 0.63926 0.90405 0.74017
 H1296 H 0.66031 0.93003 0.72074
 H1297 H 0.60308 0.96153 0.70234
 H1298 H 0.58212 0.93564 0.72178
 H1299 H 0.57047 0.85438 0.74358
 H1300 H 0.54576 0.83285 0.76387
 H1301 H 0.54655 0.87874 0.81361
 H1302 H 0.57121 0.90004 0.79318
 C1303 C 0.38789 0.91683 0.26724
 C1304 C 0.38114 0.91280 0.28775
 C1305 C 0.36980 0.92792 0.29888
 C1306 C 0.36520 0.94745 0.28971
 C1307 C 0.37172 0.95102 0.26883
 C1308 C 0.38299 0.93588 0.25777
 C1309 C 0.40052 0.90186 0.25603
 C1310 C 0.41153 0.88999 0.24625
 C1311 C 0.42516 0.87666 0.23415
 C1312 C 0.43256 0.85782 0.24247
 C1313 C 0.44675 0.84557 0.23099
 C1314 C 0.45374 0.85208 0.21106
 C1315 C 0.44591 0.87086 0.20272
 C1316 C 0.43173 0.88304 0.21420
 H1317 H 0.38492 0.89811 0.29527
 H1318 H 0.36533 0.92463 0.31495
 H1319 H 0.36788 0.96548 0.26091
 H1320 H 0.38803 0.93911 0.24184
 H1321 H 0.42762 0.85277 0.25794
 H1322 H 0.45250 0.83121 0.23785
 H1323 H 0.45093 0.87633 0.18743
 H1324 H 0.42614 0.89762 0.20762
 C1325 C 0.60925 0.08028 0.26741
 C1326 C 0.59996 0.06144 0.27347
 C1327 C 0.61170 0.04658 0.28441
 C1328 C 0.63308 0.05024 0.28947
 C1329 C 0.64216 0.06947 0.28354
 C1330 C 0.63034 0.08433 0.27255
 C1331 C 0.59710 0.09511 0.25554
 C1332 C 0.58643 0.10696 0.24538
 C1333 C 0.57311 0.12039 0.23306
 C1334 C 0.56636 0.11390 0.21320
 C1335 C 0.55235 0.12619 0.20164
 C1336 C 0.54487 0.14519 0.20981
 C1337 C 0.55206 0.15180 0.22964
 C1338 C 0.56607 0.13944 0.24120
 H1339 H 0.58360 0.05820 0.26968
 H1340 H 0.60393 0.03230 0.28922
 H1341 H 0.65861 0.07277 0.28683
 H1342 H 0.63771 0.09885 0.26786
 H1343 H 0.57166 0.09915 0.20679
 H1344 H 0.54715 0.12065 0.18644
 H1345 H 0.54658 0.16632 0.23638
 H1346 H 0.57114 0.14458 0.25659
 C1347 C 0.38883 0.08397 0.73315
 C1348 C 0.38219 0.08807 0.71262
 C1349 C 0.37082 0.07302 0.70141
 C1350 C 0.36607 0.05349 0.71052
 C1351 C 0.37246 0.04986 0.73143
 C1352 C 0.38376 0.06493 0.74257
 C1353 C 0.40155 0.09883 0.74442
 C1354 C 0.41265 0.11060 0.75423
 C1355 C 0.42638 0.12382 0.76635
 C1356 C 0.43392 0.14262 0.75804
 C1357 C 0.44823 0.15476 0.76952
 C1358 C 0.45521 0.14817 0.78942
 C1359 C 0.44724 0.12943 0.79774
 C1360 C 0.43295 0.11736 0.78628
 H1361 H 0.38611 0.10275 0.70514
 H1362 H 0.36645 0.07636 0.68532
 H1363 H 0.36850 0.03541 0.73930
 H1364 H 0.38871 0.06164 0.75851
 H1365 H 0.42899 0.14773 0.74260
 H1366 H 0.45408 0.16910 0.76266
 H1367 H 0.45225 0.12391 0.81301
 H1368 H 0.42725 0.10281 0.79283
 C1369 C 0.60795 0.73258 0.08525
 C1370 C 0.60897 0.71077 0.08622
 C1371 C 0.62083 0.69972 0.07141
 C1372 C 0.63171 0.71040 0.05549
 C1373 C 0.63095 0.73227 0.05483
 C1374 C 0.61909 0.74330 0.06963
 C1375 C 0.59474 0.74396 0.09962
 C1376 C 0.58335 0.75379 0.11112
 C1377 C 0.56937 0.76586 0.12414
 C1378 C 0.56175 0.75774 0.14309
 C1379 C 0.54738 0.76921 0.15515
 C1380 C 0.54045 0.78894 0.14835
 C1381 C 0.54846 0.79706 0.12943
 C1382 C 0.56280 0.78558 0.11744
 H1383 H 0.60035 0.70232 0.09820
 H1384 H 0.62125 0.68285 0.07211
 H1385 H 0.63930 0.74074 0.04268
 H1386 H 0.61836 0.76016 0.06870
 H1387 H 0.56669 0.74245 0.14840
 H1388 H 0.54150 0.76252 0.16962
 H1389 H 0.54347 0.81219 0.12374
 H1390 H 0.56857 0.79200 0.10278
 C1391 C 0.39383 0.26888 0.08476
 C1392 C 0.40371 0.27841 0.06760
 C1393 C 0.39176 0.28957 0.05300
 C1394 C 0.36979 0.29127 0.05539
 C1395 C 0.35996 0.28194 0.07279
 C1396 C 0.37195 0.27076 0.08741
 C1397 C 0.40619 0.25662 0.09913
 C1398 C 0.41700 0.24616 0.11060
 C1399 C 0.43043 0.23350 0.12361
 C1400 C 0.43676 0.21380 0.11657
 C1401 C 0.45081 0.20188 0.12848
 C1402 C 0.45876 0.20953 0.14761
 C1403 C 0.45201 0.22920 0.15476
 C1404 C 0.43794 0.24112 0.14279
 H1405 H 0.42061 0.27702 0.06537
 H1406 H 0.39959 0.29671 0.03969
 H1407 H 0.34302 0.28306 0.07482
 H1408 H 0.36415 0.26339 0.10060
 H1409 H 0.43108 0.20778 0.10171
 H1410 H 0.45568 0.18681 0.12253
 H1411 H 0.45785 0.23554 0.16940
 H1412 H 0.43319 0.25638 0.14835
 C1413 C 0.60990 0.26753 0.91485
 C1414 C 0.62216 0.25690 0.92969
 C1415 C 0.63385 0.26805 0.94454
 C1416 C 0.63331 0.28994 0.94473
 C1417 C 0.62134 0.30054 0.92956
 C1418 C 0.60965 0.28937 0.91470
 C1419 C 0.59678 0.25596 0.90054
 C1420 C 0.58544 0.24604 0.88908
 C1421 C 0.57148 0.23392 0.87607
 C1422 C 0.56477 0.21426 0.88287
 C1423 C 0.55039 0.20278 0.87091
 C1424 C 0.54246 0.21083 0.85194
 C1425 C 0.54955 0.23049 0.84503
 C1426 C 0.56395 0.24196 0.85706
 H1427 H 0.62241 0.24001 0.92999
 H1428 H 0.64305 0.25964 0.95611
 H1429 H 0.62075 0.31743 0.92953
 H1430 H 0.60016 0.29774 0.90335
 H1431 H 0.57046 0.20791 0.89758
 H1432 H 0.54528 0.18772 0.87668
 H1433 H 0.54374 0.23713 0.83052
 H1434 H 0.56900 0.25720 0.85168
 C1435 C 0.39249 0.73108 0.91553
 C1436 C 0.40232 0.72167 0.93277
 C1437 C 0.39037 0.71046 0.94734
 C1438 C 0.36842 0.70858 0.94483
 C1439 C 0.35864 0.71780 0.92736
 C1440 C 0.37063 0.72903 0.91277
 C1441 C 0.40487 0.74336 0.90117
 C1442 C 0.41570 0.75381 0.88970
 C1443 C 0.42917 0.76644 0.87669
 C1444 C 0.43569 0.78608 0.88376
 C1445 C 0.44979 0.79794 0.87185
 C1446 C 0.45763 0.79029 0.85266
 C1447 C 0.45068 0.77069 0.84548
 C1448 C 0.43656 0.75884 0.85745
 H1449 H 0.41921 0.72318 0.93508
 H1450 H 0.39817 0.70341 0.96070
 H1451 H 0.34171 0.71655 0.92523
 H1452 H 0.36286 0.73630 0.89951
 H1453 H 0.43011 0.79209 0.89866
 H1454 H 0.45480 0.81296 0.87783
 H1455 H 0.45642 0.76435 0.83079
 H1456 H 0.43168 0.74362 0.85186
 C1457 C 0.73193 0.91445 0.39295
 C1458 C 0.72104 0.93089 0.40254
 C1459 C 0.71020 0.94544 0.39030
 C1460 C 0.71019 0.94373 0.36833
 C1461 C 0.72085 0.92704 0.35877
 C1462 C 0.73171 0.91247 0.37105
 C1463 C 0.74387 0.90014 0.40566
 C1464 C 0.75404 0.88867 0.41673
 C1465 C 0.76636 0.87563 0.43042
 C1466 C 0.75819 0.85672 0.43781
 C1467 C 0.76979 0.84468 0.45204
 C1468 C 0.78971 0.85147 0.45909
 C1469 C 0.79791 0.87034 0.45128
 C1470 C 0.78630 0.88232 0.43707
 H1471 H 0.72113 0.93259 0.41946
 H1472 H 0.70198 0.95818 0.39791
 H1473 H 0.72099 0.92551 0.34184
 H1474 H 0.74013 0.89983 0.36348
 H1475 H 0.74274 0.85143 0.43281
 H1476 H 0.76303 0.83024 0.45776
 H1477 H 0.81319 0.87602 0.45637
 H1478 H 0.79275 0.89696 0.43149
 C1479 C 0.26683 0.91616 0.61003
 C1480 C 0.28873 0.91434 0.61250
 C1481 C 0.29981 0.92907 0.62439
 C1482 C 0.28906 0.94576 0.63386
 C1483 C 0.26705 0.94728 0.63162
 C1484 C 0.25601 0.93257 0.61974
 C1485 C 0.25550 0.90183 0.59678
 C1486 C 0.24572 0.89037 0.58535
 C1487 C 0.23372 0.87736 0.57133
 C1488 C 0.24219 0.85867 0.56373
 C1489 C 0.23077 0.84660 0.54936
 C1490 C 0.21075 0.85314 0.54239
 C1491 C 0.20229 0.87183 0.55035
 C1492 C 0.21371 0.88383 0.56471
 H1493 H 0.29726 0.90175 0.60498
 H1494 H 0.31679 0.92771 0.62590
 H1495 H 0.25852 0.96004 0.63884
 H1496 H 0.23908 0.93416 0.61788
 H1497 H 0.25770 0.85354 0.56872
 H1498 H 0.23773 0.83231 0.54352
 H1499 H 0.18693 0.87732 0.54533
 H1500 H 0.20703 0.89830 0.57045
 C1501 C 0.26581 0.08486 0.38985
 C1502 C 0.25501 0.06850 0.38002
 C1503 C 0.26609 0.05384 0.36812
 C1504 C 0.28810 0.05537 0.36597
 C1505 C 0.29884 0.07203 0.37554
 C1506 C 0.28773 0.08670 0.38745
 C1507 C 0.25446 0.09909 0.40318
 C1508 C 0.24467 0.11045 0.41469
 C1509 C 0.23266 0.12333 0.42882
 C1510 C 0.21282 0.11661 0.43570
 C1511 C 0.20141 0.12849 0.45016
 C1512 C 0.20972 0.14731 0.45798
 C1513 C 0.22957 0.15411 0.45074
 C1514 C 0.24097 0.14217 0.43627
 H1515 H 0.23808 0.06689 0.38184
 H1516 H 0.25757 0.04110 0.36083
 H1517 H 0.31583 0.07338 0.37411
 H1518 H 0.29625 0.09926 0.39507
 H1519 H 0.20626 0.10203 0.43007
 H1520 H 0.18619 0.12280 0.45539
 H1521 H 0.23641 0.16852 0.45647
 H1522 H 0.25635 0.14749 0.43108
 C1523 C 0.73050 0.08448 0.60604
 C1524 C 0.72009 0.06779 0.59636
 C1525 C 0.70918 0.05317 0.60846
 C1526 C 0.70860 0.05507 0.63041
 C1527 C 0.71881 0.07200 0.64006
 C1528 C 0.72974 0.08664 0.62791
 C1529 C 0.74254 0.09886 0.59348
 C1530 C 0.75281 0.11037 0.58254
 C1531 C 0.76529 0.12344 0.56899
 C1532 C 0.75708 0.14221 0.56129
 C1533 C 0.76885 0.15424 0.54717
 C1534 C 0.78896 0.14759 0.54055
 C1535 C 0.79718 0.12888 0.54868
 C1536 C 0.78541 0.11691 0.56279
 H1537 H 0.72062 0.06594 0.57946
 H1538 H 0.70135 0.04023 0.60077
 H1539 H 0.71857 0.07365 0.65698
 H1540 H 0.73780 0.09946 0.63557
 H1541 H 0.74149 0.14738 0.56594
 H1542 H 0.76206 0.16856 0.54119
 H1543 H 0.81260 0.12331 0.54392
 H1544 H 0.79189 0.10238 0.56861
 C1545 C 0.91507 0.60965 0.26764
 C1546 C 0.91466 0.60959 0.28962
 C1547 C 0.92947 0.62126 0.30093
 C1548 C 0.94484 0.63301 0.29032
 C1549 C 0.94489 0.63337 0.26828
 C1550 C 0.93009 0.62171 0.25700
 C1551 C 0.90085 0.59655 0.25594
 C1552 C 0.88947 0.58522 0.24592
 C1553 C 0.87655 0.57131 0.23369
 C1554 C 0.88357 0.56462 0.21400
 C1555 C 0.87164 0.55037 0.20240
 C1556 C 0.85248 0.54257 0.21037
 C1557 C 0.84537 0.54961 0.23007
 C1558 C 0.85737 0.56388 0.24166
 H1559 H 0.90315 0.60025 0.29800
 H1560 H 0.92925 0.62080 0.31792
 H1561 H 0.95662 0.64239 0.25987
 H1562 H 0.93059 0.62181 0.24000
 H1563 H 0.89842 0.57024 0.20770
 H1564 H 0.87757 0.54528 0.18730
 H1565 H 0.83070 0.54390 0.23665
 H1566 H 0.85181 0.56892 0.25693
 C1567 C 0.91419 0.39367 0.73019
 C1568 C 0.93073 0.40324 0.71922
 C1569 C 0.94541 0.39112 0.70832
 C1570 C 0.94373 0.36928 0.70834
 C1571 C 0.92693 0.35975 0.71906
 C1572 C 0.91223 0.37191 0.72998
 C1573 C 0.89983 0.40626 0.74225
 C1574 C 0.88835 0.41722 0.75257
 C1575 C 0.87534 0.43076 0.76511
 C1576 C 0.85610 0.43821 0.75732
 C1577 C 0.84412 0.45229 0.76915
 C1578 C 0.85130 0.45914 0.78889
 C1579 C 0.87050 0.45128 0.79670
 C1580 C 0.88242 0.43721 0.78487
 H1581 H 0.93242 0.42006 0.71930
 H1582 H 0.95824 0.39871 0.70006
 H1583 H 0.92543 0.34292 0.71923
 H1584 H 0.89953 0.36435 0.73846
 H1585 H 0.85051 0.43337 0.74201
 H1586 H 0.82942 0.45806 0.76269
 H1587 H 0.87649 0.45621 0.81183
 H1588 H 0.89732 0.43158 0.79102
 C1589 C 0.08577 0.60548 0.72987
 C1590 C 0.06844 0.59597 0.72015
 C1591 C 0.05372 0.60803 0.70926
 C1592 C 0.05615 0.62976 0.70801
 C1593 C 0.07372 0.63923 0.71753
 C1594 C 0.08847 0.62712 0.72844
 C1595 C 0.10026 0.59299 0.74189
 C1596 C 0.11181 0.58209 0.75217
 C1597 C 0.12490 0.56858 0.76466
 C1598 C 0.14405 0.56106 0.75674
 C1599 C 0.15608 0.54698 0.76850
 C1600 C 0.14903 0.54020 0.78832
 C1601 C 0.12992 0.54814 0.79626
 C1602 C 0.11795 0.56222 0.78449
 H1603 H 0.06618 0.57925 0.72119
 H1604 H 0.04028 0.60047 0.70197
 H1605 H 0.07579 0.65598 0.71677
 H1606 H 0.10179 0.63465 0.73597
 H1607 H 0.14954 0.56584 0.74137
 H1608 H 0.17071 0.54115 0.76194
 H1609 H 0.12404 0.54327 0.81145
 H1610 H 0.10312 0.56789 0.79074
 C1611 C 0.08601 0.39316 0.27135
 C1612 C 0.08789 0.37139 0.27182
 C1613 C 0.07294 0.35938 0.28260
 C1614 C 0.05597 0.36908 0.29291
 C1615 C 0.05441 0.39092 0.29269
 C1616 C 0.06934 0.40288 0.28194
 C1617 C 0.10053 0.40558 0.25928
 C1618 C 0.11208 0.41643 0.24892
 C1619 C 0.12513 0.42987 0.23631
 C1620 C 0.11816 0.43605 0.21642
 C1621 C 0.13008 0.45006 0.20452
 C1622 C 0.14918 0.45814 0.21237
 C1623 C 0.15627 0.45155 0.23223
 C1624 C 0.14428 0.43753 0.24413
 H1625 H 0.10068 0.36370 0.26361
 H1626 H 0.07433 0.34255 0.28256
 H1627 H 0.04144 0.39864 0.30059
 H1628 H 0.06770 0.41970 0.28163
 H1629 H 0.10333 0.43027 0.21024
 H1630 H 0.12417 0.45479 0.18930
 H1631 H 0.17089 0.45749 0.23873
 H1632 H 0.14979 0.43290 0.25954
   
