data_POSCAR
  _audit_creation_date              2014-09-24
  _audit_creation_method            'ToBaCCo'
  _symmetry_space_group_name_H-M    'P1'
  _symmetry_Int_Tables_number       1
  _symmetry_cell_setting            triclinic
  loop_
  _symmetry_equiv_pos_as_xyz
 x,y,z
_cell_length_a 75.3687
_cell_length_b 75.3755
_cell_length_c 75.6414
_cell_angle_alpha 89.972800
_cell_angle_beta 89.922100
_cell_angle_gamma 90.002000
loop_
  _atom_site_label
  _atom_site_type_symbol
  _atom_site_fract_x
  _atom_site_fract_y
  _atom_site_fract_z
N1 N 0.18171 0.22419 0.22770
 N2 N 0.18690 0.21039 0.23702
 C3 C 0.17562 0.20804 0.25066
 C4 C 0.16282 0.22106 0.24974
 C5 C 0.16699 0.23109 0.23509
 H6 H 0.17659 0.19767 0.26050
 H7 H 0.15984 0.24251 0.23018
 Cu8 Cu 0.20783 0.19682 0.23037
 Cu9 Cu 0.19439 0.23216 0.20672
 Cu10 Cu 0.23131 0.20781 0.19410
 N11 N 0.22831 0.18303 0.22283
 N12 N 0.23744 0.18740 0.20864
 C13 C 0.25077 0.17571 0.20639
 C14 C 0.24987 0.16346 0.21988
 C15 C 0.23554 0.16839 0.23009
 H16 H 0.26036 0.17606 0.19575
 H17 H 0.23075 0.16176 0.24185
 N18 N 0.22302 0.22889 0.18110
 N19 N 0.20893 0.23816 0.18590
 C20 C 0.20666 0.25165 0.17443
 C21 C 0.21992 0.25074 0.16193
 C22 C 0.23007 0.23625 0.16644
 H23 H 0.19616 0.26141 0.17507
 H24 H 0.24168 0.23145 0.15953
 H25 H 0.20455 0.20753 0.20013
 H26 H 0.21897 0.22228 0.21379
 N27 N 0.68115 0.72396 0.72770
 N28 N 0.68597 0.70975 0.73658
 C29 C 0.67469 0.70731 0.75020
 C30 C 0.66226 0.72071 0.74973
 C31 C 0.66665 0.73105 0.73536
 H32 H 0.67539 0.69663 0.75972
 H33 H 0.65979 0.74279 0.73080
 Cu34 Cu 0.70645 0.69578 0.72938
 Cu35 Cu 0.69395 0.73216 0.70685
 Cu36 Cu 0.73088 0.70782 0.69413
 N37 N 0.72737 0.68243 0.72228
 N38 N 0.73688 0.68722 0.70848
 C39 C 0.75046 0.67579 0.70644
 C40 C 0.74932 0.66327 0.71967
 C41 C 0.73460 0.66777 0.72950
 H42 H 0.76037 0.67649 0.69611
 H43 H 0.72956 0.66086 0.74099
 N44 N 0.72269 0.72906 0.68131
 N45 N 0.70862 0.73832 0.68614
 C46 C 0.70640 0.75189 0.67475
 C47 C 0.71969 0.75104 0.66227
 C48 C 0.72979 0.73649 0.66672
 H49 H 0.69589 0.76164 0.67540
 H50 H 0.74138 0.73169 0.65978
 H51 H 0.70398 0.70772 0.69950
 H52 H 0.71824 0.72170 0.71408
 N53 N 0.31839 0.77664 0.72763
 N54 N 0.31361 0.79091 0.73644
 C55 C 0.32490 0.79335 0.75003
 C56 C 0.33728 0.77991 0.74959
 C57 C 0.33285 0.76952 0.73529
 H58 H 0.32423 0.80408 0.75950
 H59 H 0.33966 0.75773 0.73078
 Cu60 Cu 0.29318 0.80492 0.72923
 Cu61 Cu 0.30557 0.76838 0.70687
 Cu62 Cu 0.26867 0.79271 0.69416
 N63 N 0.27225 0.81824 0.72213
 N64 N 0.26271 0.81337 0.70841
 C65 C 0.24912 0.82479 0.70635
 C66 C 0.25030 0.83737 0.71949
 C67 C 0.26504 0.83295 0.72930
 H68 H 0.23920 0.82402 0.69606
 H69 H 0.27011 0.83992 0.74072
 N70 N 0.27681 0.77141 0.68143
 N71 N 0.29088 0.76215 0.68625
 C72 C 0.29306 0.74852 0.67493
 C73 C 0.27975 0.74933 0.66251
 C74 C 0.26967 0.76391 0.66692
 H75 H 0.30354 0.73875 0.67560
 H76 H 0.25806 0.76868 0.66001
 H77 H 0.29559 0.79279 0.69942
 H78 H 0.28133 0.77892 0.71415
 N79 N 0.81852 0.27563 0.22837
 N80 N 0.81333 0.28946 0.23763
 C81 C 0.82462 0.29189 0.25123
 C82 C 0.83741 0.27886 0.25032
 C83 C 0.83326 0.26875 0.23573
 H84 H 0.82366 0.30231 0.26100
 H85 H 0.84043 0.25733 0.23083
 Cu86 Cu 0.79238 0.30298 0.23096
 Cu87 Cu 0.80588 0.26760 0.20741
 Cu88 Cu 0.76887 0.29183 0.19487
 N89 N 0.77181 0.31667 0.22353
 N90 N 0.76266 0.31221 0.20941
 C91 C 0.74928 0.32383 0.20718
 C92 C 0.75017 0.33614 0.22060
 C93 C 0.76455 0.33132 0.23076
 H94 H 0.73968 0.32342 0.19657
 H95 H 0.76936 0.33803 0.24244
 N96 N 0.77725 0.27080 0.18185
 N97 N 0.79136 0.26157 0.18662
 C98 C 0.79368 0.24809 0.17514
 C99 C 0.78042 0.24898 0.16267
 C100 C 0.77023 0.26344 0.16721
 H101 H 0.80421 0.23837 0.17576
 H102 H 0.75860 0.26820 0.16033
 H103 H 0.79565 0.29216 0.20076
 H104 H 0.78130 0.27743 0.21454
 N105 N 0.81921 0.72368 0.27264
 N106 N 0.81452 0.70934 0.26390
 C107 C 0.82589 0.70684 0.25036
 C108 C 0.83824 0.72032 0.25074
 C109 C 0.83370 0.73078 0.26498
 H110 H 0.82529 0.69607 0.24094
 H111 H 0.84045 0.74263 0.26942
 Cu112 Cu 0.79405 0.69535 0.27110
 Cu113 Cu 0.80624 0.73204 0.29329
 Cu114 Cu 0.76927 0.70776 0.30600
 N115 N 0.77305 0.68210 0.27816
 N116 N 0.76341 0.68703 0.29182
 C117 C 0.74979 0.67564 0.29383
 C118 C 0.75103 0.66299 0.28074
 C119 C 0.76586 0.66739 0.27101
 H120 H 0.73976 0.67645 0.30404
 H121 H 0.77100 0.66037 0.25963
 N122 N 0.77734 0.72913 0.31867
 N123 N 0.79142 0.73838 0.31382
 C124 C 0.79354 0.75207 0.32508
 C125 C 0.78017 0.75131 0.33748
 C126 C 0.77013 0.73670 0.33313
 H127 H 0.80403 0.76183 0.32439
 H128 H 0.75850 0.73194 0.34005
 H129 H 0.79621 0.70766 0.30085
 H130 H 0.78204 0.72142 0.28597
 N131 N 0.31946 0.22367 -0.22826
 N132 N 0.31469 0.20940 -0.23709
 C133 C 0.32605 0.20689 -0.25064
 C134 C 0.33847 0.22030 -0.25013
 C135 C 0.33401 0.23073 -0.23585
 H136 H 0.32540 0.19616 -0.26010
 H137 H 0.34084 0.24249 -0.23131
 Cu138 Cu 0.29415 0.19549 -0.22993
 Cu139 Cu 0.30655 0.23198 -0.20756
 Cu140 Cu 0.26948 0.20783 -0.19495
 N141 N 0.27311 0.18227 -0.22290
 N142 N 0.26353 0.18719 -0.20920
 C143 C 0.24987 0.17584 -0.20719
 C144 C 0.25104 0.16324 -0.22032
 C145 C 0.26586 0.16761 -0.23008
 H146 H 0.23989 0.17664 -0.19694
 H147 H 0.27095 0.16061 -0.24149
 N148 N 0.27765 0.22910 -0.18220
 N149 N 0.29178 0.23830 -0.18700
 C150 C 0.29398 0.25192 -0.17568
 C151 C 0.28061 0.25116 -0.16328
 C152 C 0.27048 0.23663 -0.16770
 H153 H 0.30452 0.26163 -0.17632
 H154 H 0.25883 0.23190 -0.16080
 H155 H 0.29642 0.20761 -0.20012
 H156 H 0.28230 0.22153 -0.21492
 N157 N 0.68121 0.27525 -0.22829
 N158 N 0.68636 0.28913 -0.23753
 C159 C 0.67513 0.29150 -0.25118
 C160 C 0.66241 0.27839 -0.25033
 C161 C 0.66656 0.26829 -0.23572
 H162 H 0.67608 0.30193 -0.26096
 H163 H 0.65945 0.25680 -0.23087
 Cu164 Cu 0.70718 0.30278 -0.23078
 Cu165 Cu 0.69383 0.26727 -0.20730
 Cu166 Cu 0.73060 0.29176 -0.19457
 N167 N 0.72759 0.31663 -0.22322
 N168 N 0.73670 0.31223 -0.20905
 C169 C 0.75000 0.32394 -0.20678
 C170 C 0.74909 0.33624 -0.22022
 C171 C 0.73479 0.33132 -0.23043
 H172 H 0.75957 0.32357 -0.19615
 H173 H 0.73001 0.33797 -0.24217
 N174 N 0.72234 0.27062 -0.18163
 N175 N 0.70832 0.26129 -0.18646
 C176 C 0.70606 0.24778 -0.17501
 C177 C 0.71926 0.24874 -0.16248
 C178 C 0.72936 0.26328 -0.16697
 H179 H 0.69560 0.23798 -0.17567
 H180 H 0.74092 0.26814 -0.16003
 H181 H 0.70383 0.29191 -0.20060
 H182 H 0.71836 0.27729 -0.21432
 N183 N 0.18249 0.77553 0.27171
 N184 N 0.18770 0.78935 0.26241
 C185 C 0.17647 0.79169 0.24876
 C186 C 0.16369 0.77865 0.24964
 C187 C 0.16781 0.76861 0.26430
 H188 H 0.17745 0.80208 0.23894
 H189 H 0.16065 0.75718 0.26920
 Cu190 Cu 0.20853 0.80301 0.26913
 Cu191 Cu 0.19508 0.76760 0.29273
 Cu192 Cu 0.23184 0.79207 0.30546
 N193 N 0.22888 0.81690 0.27678
 N194 N 0.23796 0.81253 0.29099
 C195 C 0.25121 0.82429 0.29333
 C196 C 0.25029 0.83658 0.27988
 C197 C 0.23605 0.83163 0.26959
 H198 H 0.26073 0.82395 0.30400
 H199 H 0.23127 0.83826 0.25784
 N200 N 0.22358 0.77093 0.31841
 N201 N 0.20953 0.76164 0.31358
 C202 C 0.20724 0.74814 0.32505
 C203 C 0.22046 0.74907 0.33756
 C204 C 0.23059 0.76358 0.33306
 H205 H 0.19676 0.73836 0.32440
 H206 H 0.24217 0.76841 0.33999
 H207 H 0.20510 0.79227 0.29936
 H208 H 0.21965 0.77757 0.28573
 N209 N 0.47436 0.43194 0.47844
 N210 N 0.46051 0.43710 0.48771
 C211 C 0.45816 0.42586 0.50138
 C212 C 0.47124 0.41311 0.50052
 C213 C 0.48131 0.41727 0.48588
 H214 H 0.44776 0.42681 0.51120
 H215 H 0.49278 0.41016 0.48102
 Cu216 Cu 0.44690 0.45796 0.48099
 Cu217 Cu 0.48235 0.44457 0.45744
 Cu218 Cu 0.45789 0.48137 0.44472
 N219 N 0.43309 0.47840 0.47346
 N220 N 0.43746 0.48750 0.45925
 C221 C 0.42578 0.50082 0.45700
 C222 C 0.41354 0.49995 0.47051
 C223 C 0.41846 0.48565 0.48073
 H224 H 0.42614 0.51039 0.44634
 H225 H 0.41183 0.48090 0.49251
 N226 N 0.47900 0.47309 0.43174
 N227 N 0.48833 0.45907 0.43659
 C228 C 0.50189 0.45686 0.42516
 C229 C 0.50095 0.47010 0.41265
 C230 C 0.48638 0.48016 0.41710
 H231 H 0.51173 0.44644 0.42586
 H232 H 0.48155 0.49175 0.41019
 H233 H 0.47238 0.46912 0.46445
 H234 H 0.45773 0.45461 0.45079
 N235 N -0.02595 -0.06871 0.97731
 N236 N -0.04021 -0.06394 0.98616
 C237 C -0.04261 -0.07520 0.99980
 C238 C -0.02916 -0.08757 0.99935
 C239 C -0.01880 -0.08316 0.98498
 H240 H -0.05330 -0.07451 1.00932
 H241 H -0.00700 -0.08996 0.98046
 Cu242 Cu -0.05423 -0.04352 0.97895
 Cu243 Cu -0.01773 -0.05588 0.95650
 Cu244 Cu -0.04212 -0.01902 0.94378
 N245 N -0.06760 -0.02263 0.97185
 N246 N -0.06278 -0.01310 0.95808
 C247 C -0.07422 0.00047 0.95604
 C248 C -0.08678 -0.00069 0.96924
 C249 C -0.08229 -0.01542 0.97906
 H250 H -0.07350 0.01041 0.94574
 H251 H -0.08922 -0.02046 0.99053
 N252 N -0.02082 -0.02714 0.93100
 N253 N -0.01153 -0.04120 0.93584
 C254 C 0.00208 -0.04338 0.92447
 C255 C 0.00123 -0.03008 0.91202
 C256 C -0.01335 -0.02001 0.91644
 H257 H 0.01185 -0.05386 0.92513
 H258 H -0.01816 -0.00843 0.90951
 H259 H -0.02828 -0.03164 0.96375
 H260 H -0.04217 -0.04593 0.94910
 N261 N 1.02596 0.56856 0.97756
 N262 N 1.04024 0.56382 0.98637
 C263 C 1.04269 0.57517 0.99992
 C264 C 1.02926 0.58756 0.99945
 C265 C 1.01887 0.58307 0.98516
 H266 H 1.05342 0.57454 1.00937
 H267 H 1.00708 0.58988 0.98064
 Cu268 Cu 1.05423 0.54335 0.97919
 Cu269 Cu 1.01768 0.55565 0.95686
 Cu270 Cu 1.04202 0.51871 0.94421
 N271 N 1.06760 0.52243 0.97212
 N272 N 1.06273 0.51285 0.95842
 C273 C 1.07417 0.49928 0.95638
 C274 C 1.08679 0.50050 0.96948
 C275 C 1.08232 0.51527 0.97926
 H276 H 1.07341 0.48931 0.94612
 H277 H 1.08931 0.52037 0.99065
 N278 N 1.02068 0.52678 0.93151
 N279 N 1.01142 0.54087 0.93631
 C280 C 0.99777 0.54300 0.92501
 C281 C 0.99857 0.52964 0.91263
 C282 C 1.01316 0.51958 0.91704
 H283 H 0.98801 0.55350 0.92566
 H284 H 1.01793 0.50795 0.91016
 H285 H 1.02823 0.53143 0.96418
 H286 H 1.04210 0.54564 0.94939
 N287 N 0.52494 0.06803 0.47858
 N288 N 0.53880 0.06288 0.48781
 C289 C 0.54126 0.07423 0.50135
 C290 C 0.52825 0.08704 0.50045
 C291 C 0.51810 0.08280 0.48592
 H292 H 0.55173 0.07334 0.51108
 H293 H 0.50668 0.08996 0.48104
 Cu294 Cu 0.55237 0.04196 0.48116
 Cu295 Cu 0.51687 0.05531 0.45771
 Cu296 Cu 0.54123 0.01842 0.44506
 N297 N 0.56615 0.02149 0.47361
 N298 N 0.56172 0.01234 0.45948
 C299 C 0.57340 -0.00098 0.45719
 C300 C 0.58572 -0.00005 0.47060
 C301 C 0.58083 0.01429 0.48079
 H302 H 0.57301 -0.01058 0.44658
 H303 H 0.58752 0.01909 0.49249
 N304 N 0.52009 0.02664 0.43217
 N305 N 0.51080 0.04071 0.43698
 C306 C 0.49723 0.04291 0.42559
 C307 C 0.49812 0.02962 0.41314
 C308 C 0.51267 0.01953 0.41760
 H309 H 0.48744 0.05337 0.42626
 H310 H 0.51747 0.00791 0.41071
 H311 H 0.52682 0.03079 0.46481
 H312 H 0.54147 0.04522 0.45100
 N313 N -0.02596 0.06912 0.52245
 N314 N -0.04029 0.06447 0.51368
 C315 C -0.04275 0.07587 0.50017
 C316 C -0.02926 0.08820 0.50062
 C317 C -0.01883 0.08362 0.51485
 H318 H -0.05350 0.07530 0.49074
 H319 H -0.00698 0.09034 0.51933
 Cu320 Cu -0.05432 0.04399 0.52079
 Cu321 Cu -0.01766 0.05608 0.54307
 Cu322 Cu -0.04204 0.01914 0.55564
 N323 N -0.06762 0.02299 0.52776
 N324 N -0.06274 0.01333 0.54141
 C325 C -0.07414 -0.00029 0.54336
 C326 C -0.08673 0.00097 0.53023
 C327 C -0.08230 0.01582 0.52055
 H328 H -0.07336 -0.01033 0.55355
 H329 H -0.08927 0.02096 0.50916
 N330 N -0.02069 0.02714 0.56835
 N331 N -0.01139 0.04121 0.56356
 C332 C 0.00227 0.04327 0.57485
 C333 C 0.00144 0.02989 0.58721
 C334 C -0.01319 0.01989 0.58281
 H335 H 0.01206 0.05374 0.57420
 H336 H -0.01800 0.00827 0.58970
 H337 H -0.02830 0.03192 0.53566
 H338 H -0.04207 0.04609 0.55056
 N339 N 0.47389 0.56858 0.02264
 N340 N 0.45968 0.56380 0.01375
 C341 C 0.45721 0.57521 0.00024
 C342 C 0.47058 0.58767 0.00082
 C343 C 0.48094 0.58317 0.01512
 H344 H 0.44653 0.57456 -0.00926
 H345 H 0.49268 0.59001 0.01971
 Cu346 Cu 0.44578 0.54323 0.02082
 Cu347 Cu 0.48218 0.55560 0.04330
 Cu348 Cu 0.45793 0.51853 0.05579
 N349 N 0.43243 0.52227 0.02780
 N350 N 0.43727 0.51267 0.04151
 C351 C 0.42582 0.49909 0.04352
 C352 C 0.41324 0.50033 0.03038
 C353 C 0.41773 0.51511 0.02062
 H354 H 0.42655 0.48912 0.05377
 H355 H 0.41077 0.52023 0.00921
 N356 N 0.47922 0.52662 0.06855
 N357 N 0.48844 0.54075 0.06381
 C358 C 0.50205 0.54290 0.07516
 C359 C 0.50126 0.52950 0.08750
 C360 C 0.48672 0.51941 0.08304
 H361 H 0.51176 0.55345 0.07458
 H362 H 0.48195 0.50776 0.08990
 H363 H 0.47175 0.53135 0.03592
 H364 H 0.45777 0.54546 0.05068
 N365 N 0.52564 -0.06814 0.02191
 N366 N 0.53953 -0.06295 0.01269
 C367 C 0.54195 -0.07418 -0.00096
 C368 C 0.52889 -0.08695 -0.00016
 C369 C 0.51876 -0.08282 0.01444
 H370 H 0.55240 -0.07321 -0.01073
 H371 H 0.50728 -0.08996 0.01927
 Cu372 Cu 0.55310 -0.04209 0.01948
 Cu373 Cu 0.51757 -0.05556 0.04290
 Cu374 Cu 0.54193 -0.01873 0.05571
 N375 N 0.56686 -0.02163 0.02709
 N376 N 0.56241 -0.01256 0.04127
 C377 C 0.57406 0.00079 0.04357
 C378 C 0.58637 -0.00005 0.03013
 C379 C 0.58153 -0.01436 0.01989
 H380 H 0.57363 0.01036 0.05422
 H381 H 0.58821 -0.01909 0.00815
 N382 N 0.52079 -0.02706 0.06862
 N383 N 0.51150 -0.04110 0.06374
 C384 C 0.49794 -0.04337 0.07515
 C385 C 0.49883 -0.03016 0.08768
 C386 C 0.51337 -0.02004 0.08325
 H387 H 0.48814 -0.05383 0.07444
 H388 H 0.51816 -0.00846 0.09019
 H389 H 0.52754 -0.03099 0.03593
 H390 H 0.54217 -0.04549 0.04965
 N391 N 1.02602 0.43126 0.52226
 N392 N 1.04035 0.43602 0.51350
 C393 C 1.04276 0.42484 0.49981
 C394 C 1.02924 0.41253 0.50012
 C395 C 1.01884 0.41690 0.51447
 H396 H 1.05350 0.42554 0.49034
 H397 H 1.00700 0.41012 0.51890
 Cu398 Cu 1.05445 0.45634 0.52084
 Cu399 Cu 1.01778 0.44397 0.54310
 Cu400 Cu 1.04210 0.48075 0.55602
 N401 N 1.06766 0.47732 0.52801
 N402 N 1.06276 0.48680 0.54177
 C403 C 1.07408 0.50046 0.54380
 C404 C 1.08664 0.49942 0.53060
 C405 C 1.08228 0.48466 0.52079
 H406 H 1.07326 0.51039 0.55409
 H407 H 1.08924 0.47969 0.50931
 N408 N 1.02081 0.47254 0.56875
 N409 N 1.01153 0.45852 0.56382
 C410 C 0.99785 0.45631 0.57510
 C411 C 0.99865 0.46956 0.58760
 C412 C 1.01327 0.47962 0.58329
 H413 H 0.98805 0.44587 0.57433
 H414 H 1.01804 0.49119 0.59026
 H415 H 1.02843 0.46823 0.53590
 H416 H 1.04221 0.45388 0.55062
 Si417 Si 0.37378 -0.00036 0.25034
 Si418 Si 0.12644 -0.00001 0.74954
 Si419 Si 0.62609 0.50004 0.25004
 Si420 Si 0.87364 0.49979 0.75021
 Si421 Si 0.25007 0.37576 -0.00065
 Si422 Si 0.75015 0.12412 0.00020
 Si423 Si 0.24983 0.62417 0.50026
 Si424 Si 0.74996 0.87636 0.49991
 Si425 Si -0.00039 0.25035 0.37451
 Si426 Si 0.00061 0.75014 0.12495
 Si427 Si 0.50041 0.25015 0.62533
 Si428 Si 0.49952 0.75012 0.87509
 C429 C 0.14812 0.22362 0.26157
 C430 C 0.13575 0.22582 0.27145
 C431 C 0.12094 0.22851 0.28318
 C432 C 0.10929 0.24268 0.28036
 C433 C 0.09486 0.24529 0.29169
 C434 C 0.09188 0.23373 0.30601
 C435 C 0.10368 0.21953 0.30874
 C436 C 0.11812 0.21695 0.29739
 C437 C 0.07647 0.23645 0.31797
 C438 C 0.06649 0.22189 0.32407
 C439 C 0.05185 0.22449 0.33514
 C440 C 0.04701 0.24165 0.34029
 C441 C 0.05690 0.25621 0.33438
 C442 C 0.07153 0.25364 0.32330
 C443 C 0.03179 0.24436 0.35147
 C444 C 0.01899 0.24670 0.36074
 H445 H 0.11132 0.25167 0.26936
 H446 H 0.08588 0.25620 0.28909
 H447 H 0.10187 0.21054 0.31976
 H448 H 0.12709 0.20597 0.29972
 H449 H 0.06982 0.20852 0.32003
 H450 H 0.04425 0.21313 0.33959
 H451 H 0.05328 0.26955 0.33832
 H452 H 0.07908 0.26510 0.31903
 C453 C 0.64760 0.72321 0.76162
 C454 C 0.63525 0.72529 0.77155
 C455 C 0.62045 0.72775 0.78335
 C456 C 0.62099 0.74101 0.79628
 C457 C 0.60654 0.74351 0.80762
 C458 C 0.59133 0.73278 0.80615
 C459 C 0.59096 0.71944 0.79314
 C460 C 0.60543 0.71695 0.78183
 C461 C 0.57586 0.73558 0.81802
 C462 C 0.55846 0.73458 0.81136
 C463 C 0.54390 0.73730 0.82250
 C464 C 0.54652 0.74105 0.84042
 C465 C 0.56376 0.74205 0.84719
 C466 C 0.57835 0.73934 0.83607
 C467 C 0.53149 0.74394 0.85181
 C468 C 0.51880 0.74639 0.86121
 H469 H 0.63254 0.74948 0.79754
 H470 H 0.60714 0.75403 0.81734
 H471 H 0.57955 0.71081 0.79183
 H472 H 0.60490 0.70661 0.77190
 H473 H 0.55611 0.73195 0.79749
 H474 H 0.53061 0.73656 0.81711
 H475 H 0.56593 0.74491 0.86106
 H476 H 0.59156 0.73998 0.84163
 C477 C 0.35192 0.77736 0.76146
 C478 C 0.36425 0.77522 0.77136
 C479 C 0.37905 0.77264 0.78309
 C480 C 0.37722 0.76192 0.79810
 C481 C 0.39165 0.75930 0.80941
 C482 C 0.40811 0.76736 0.80584
 C483 C 0.40978 0.77815 0.79074
 C484 C 0.39534 0.78077 0.77946
 C485 C 0.42350 0.76444 0.81773
 C486 C 0.44060 0.76185 0.81069
 C487 C 0.45509 0.75908 0.82187
 C488 C 0.45271 0.75887 0.84021
 C489 C 0.43577 0.76143 0.84736
 C490 C 0.42124 0.76418 0.83620
 C491 C 0.46768 0.75604 0.85166
 C492 C 0.48031 0.75368 0.86112
 H493 H 0.36468 0.75552 0.80100
 H494 H 0.39000 0.75074 0.82080
 H495 H 0.42220 0.78473 0.78776
 H496 H 0.39689 0.78913 0.76790
 H497 H 0.44273 0.76172 0.79653
 H498 H 0.46815 0.75706 0.81620
 H499 H 0.43379 0.76134 0.86155
 H500 H 0.40829 0.76635 0.84203
 C501 C -0.14861 0.27655 0.26142
 C502 C -0.13619 0.27449 0.27123
 C503 C -0.12130 0.27201 0.28287
 C504 C -0.12296 0.26129 0.29789
 C505 C -0.10845 0.25879 0.30913
 C506 C -0.09207 0.26698 0.30547
 C507 C -0.09056 0.27777 0.29035
 C508 C -0.10509 0.28026 0.27914
 C509 C -0.07660 0.26422 0.31730
 C510 C -0.05951 0.26176 0.31019
 C511 C -0.04496 0.25912 0.32132
 C512 C -0.04726 0.25892 0.33968
 C513 C -0.06420 0.26137 0.34688
 C514 C -0.07878 0.26400 0.33578
 C515 C -0.03224 0.25617 0.35107
 C516 C -0.01958 0.25386 0.36051
 H517 H -0.13543 0.25480 0.30088
 H518 H -0.10997 0.25024 0.32054
 H519 H -0.07821 0.28444 0.28729
 H520 H -0.10367 0.28863 0.26757
 H521 H -0.05744 0.26162 0.29603
 H522 H -0.03191 0.25718 0.31560
 H523 H -0.06612 0.26129 0.36108
 H524 H -0.09173 0.26608 0.34165
 C525 C -0.14711 0.72288 0.23886
 C526 C -0.13476 0.72508 0.22895
 C527 C -0.11995 0.72779 0.21723
 C528 C -0.12094 0.72232 0.19958
 C529 C -0.10655 0.72501 0.18819
 C530 C -0.09097 0.73324 0.19433
 C531 C -0.09011 0.73867 0.21211
 C532 C -0.10450 0.73595 0.22346
 C533 C -0.07566 0.73615 0.18228
 C534 C -0.06591 0.75206 0.18298
 C535 C -0.05140 0.75473 0.17177
 C536 C -0.04642 0.74156 0.15971
 C537 C -0.05607 0.72572 0.15885
 C538 C -0.07061 0.72302 0.17005
 C539 C -0.03133 0.74426 0.14835
 C540 C -0.01863 0.74657 0.13894
 H541 H -0.13285 0.71603 0.19460
 H542 H -0.10770 0.72088 0.17454
 H543 H -0.07822 0.74481 0.21730
 H544 H -0.10357 0.74018 0.23712
 H545 H -0.06962 0.76251 0.19208
 H546 H -0.04405 0.76706 0.17251
 H547 H -0.05230 0.71541 0.14960
 H548 H -0.07771 0.71056 0.16933
 C549 C 0.35240 0.22266 0.73869
 C550 C 0.36481 0.22479 0.72885
 C551 C 0.37968 0.22738 0.71719
 C552 C 0.37707 0.23433 0.70023
 C553 C 0.39155 0.23700 0.68896
 C554 C 0.40885 0.23276 0.69454
 C555 C 0.41131 0.22574 0.71160
 C556 C 0.39682 0.22307 0.72283
 C557 C 0.42427 0.23574 0.68266
 C558 C 0.44025 0.24263 0.68937
 C559 C 0.45476 0.24543 0.67819
 C560 C 0.45352 0.24138 0.66019
 C561 C 0.43769 0.23453 0.65337
 C562 C 0.42314 0.23173 0.66452
 C563 C 0.46852 0.24421 0.64876
 C564 C 0.48118 0.24658 0.63931
 H565 H 0.36387 0.23777 0.69575
 H566 H 0.38926 0.24263 0.67599
 H567 H 0.42443 0.22212 0.71618
 H568 H 0.39897 0.21763 0.73592
 H569 H 0.44145 0.24607 0.70321
 H570 H 0.46695 0.25078 0.68359
 H571 H 0.43661 0.23129 0.63946
 H572 H 0.41109 0.22621 0.65901
 C573 C 0.64855 0.27597 0.73846
 C574 C 0.63624 0.27380 0.72854
 C575 C 0.62150 0.27117 0.71676
 C576 C 0.61152 0.25554 0.71768
 C577 C 0.59712 0.25301 0.70633
 C578 C 0.59250 0.26611 0.69390
 C579 C 0.60264 0.28177 0.69306
 C580 C 0.61705 0.28427 0.70442
 C581 C 0.57711 0.26349 0.68195
 C582 C 0.56543 0.27759 0.67831
 C583 C 0.55082 0.27506 0.66723
 C584 C 0.54769 0.25842 0.65964
 C585 C 0.55926 0.24433 0.66312
 C586 C 0.57388 0.24683 0.67420
 C587 C 0.53252 0.25577 0.64844
 C588 C 0.51975 0.25354 0.63914
 H589 H 0.61482 0.24535 0.72723
 H590 H 0.58944 0.24092 0.70746
 H591 H 0.59955 0.29200 0.68349
 H592 H 0.62471 0.29640 0.70356
 H593 H 0.56743 0.29050 0.68425
 H594 H 0.54190 0.28603 0.66468
 H595 H 0.55698 0.23141 0.65727
 H596 H 0.58274 0.23579 0.67657
 C597 C 0.14901 0.77614 0.23782
 C598 C 0.13666 0.77403 0.22793
 C599 C 0.12190 0.77152 0.21614
 C600 C 0.11592 0.75438 0.21226
 C601 C 0.10150 0.75193 0.20091
 C602 C 0.09285 0.76661 0.19330
 C603 C 0.09899 0.78378 0.19726
 C604 C 0.11342 0.78620 0.20861
 C605 C 0.07740 0.76401 0.18140
 C606 C 0.06255 0.77528 0.18250
 C607 C 0.04792 0.77268 0.17146
 C608 C 0.04793 0.75882 0.15916
 C609 C 0.06266 0.74759 0.15789
 C610 C 0.07731 0.75015 0.16893
 C611 C 0.03275 0.75602 0.14799
 C612 C 0.01997 0.75367 0.13873
 H613 H 0.12235 0.74293 0.21806
 H614 H 0.09694 0.73856 0.19831
 H615 H 0.09277 0.79533 0.19144
 H616 H 0.11798 0.79953 0.21149
 H617 H 0.06212 0.78591 0.19212
 H618 H 0.03656 0.78142 0.17259
 H619 H 0.06283 0.73685 0.14838
 H620 H 0.08862 0.74141 0.16759
 C621 C 0.26140 0.14855 0.22267
 C622 C 0.27105 0.13602 0.22503
 C623 C 0.28252 0.12102 0.22786
 C624 C 0.27589 0.10377 0.22614
 C625 C 0.28700 0.08919 0.22892
 C626 C 0.30494 0.09168 0.23344
 C627 C 0.31149 0.10908 0.23511
 C628 C 0.30034 0.12365 0.23235
 C629 C 0.31675 0.07618 0.23640
 C630 C 0.33432 0.07627 0.23007
 C631 C 0.34539 0.06163 0.23280
 C632 C 0.33906 0.04675 0.24189
 C633 C 0.32163 0.04654 0.24827
 C634 C 0.31054 0.06115 0.24555
 C635 C 0.35041 0.03164 0.24461
 C636 C 0.35982 0.01892 0.24689
 H637 H 0.26213 0.10159 0.22262
 H638 H 0.28162 0.07597 0.22730
 H639 H 0.32516 0.11143 0.23880
 H640 H 0.30560 0.13695 0.23376
 H641 H 0.33942 0.08754 0.22279
 H642 H 0.35884 0.06191 0.22775
 H643 H 0.31662 0.03510 0.25537
 H644 H 0.29716 0.06077 0.25080
 C645 C 0.76095 0.64845 0.72251
 C646 C 0.77067 0.63597 0.72490
 C647 C 0.78220 0.62103 0.72777
 C648 C 0.80027 0.62371 0.73111
 C649 C 0.81147 0.60919 0.73391
 C650 C 0.80473 0.59179 0.73342
 C651 C 0.78655 0.58925 0.73005
 C652 C 0.77538 0.60378 0.72724
 C653 C 0.81660 0.57635 0.73640
 C654 C 0.81084 0.56180 0.74657
 C655 C 0.82197 0.54722 0.74928
 C656 C 0.83899 0.54696 0.74187
 C657 C 0.84487 0.56137 0.73177
 C658 C 0.83377 0.57598 0.72905
 C659 C 0.85035 0.53186 0.74455
 C660 C 0.85974 0.51912 0.74680
 H661 H 0.80568 0.63702 0.73159
 H662 H 0.82535 0.61159 0.73669
 H663 H 0.78101 0.57601 0.72936
 H664 H 0.76142 0.60155 0.72462
 H665 H 0.79780 0.56178 0.75260
 H666 H 0.81731 0.53615 0.75716
 H667 H 0.85800 0.56129 0.72593
 H668 H 0.83850 0.58687 0.72098
 C669 C 0.76061 0.35117 0.77704
 C670 C 0.77027 0.36370 0.77475
 C671 C 0.78181 0.37868 0.77202
 C672 C 0.79986 0.37603 0.76860
 C673 C 0.81108 0.39057 0.76596
 C674 C 0.80436 0.40798 0.76669
 C675 C 0.78618 0.41049 0.77015
 C676 C 0.77499 0.39593 0.77280
 C677 C 0.81624 0.42344 0.76385
 C678 C 0.81049 0.43811 0.75388
 C679 C 0.82166 0.45269 0.75125
 C680 C 0.83871 0.45281 0.75855
 C681 C 0.84457 0.43828 0.76848
 C682 C 0.83342 0.42368 0.77111
 C683 C 0.85013 0.46787 0.75590
 C684 C 0.85960 0.48056 0.75366
 H685 H 0.80527 0.36273 0.76793
 H686 H 0.82496 0.38820 0.76310
 H687 H 0.78065 0.42372 0.77103
 H688 H 0.76104 0.39813 0.77550
 H689 H 0.79743 0.43823 0.74792
 H690 H 0.81701 0.46385 0.74351
 H691 H 0.85772 0.43826 0.77423
 H692 H 0.83815 0.41269 0.77904
 C693 C 0.26117 -0.14927 0.27732
 C694 C 0.27081 -0.13671 0.27503
 C695 C 0.28233 -0.12173 0.27230
 C696 C 0.27676 -0.10471 0.27718
 C697 C 0.28791 -0.09013 0.27449
 C698 C 0.30482 -0.09240 0.26689
 C699 C 0.31030 -0.10957 0.26206
 C700 C 0.29911 -0.12413 0.26474
 C701 C 0.31665 -0.07691 0.26400
 C702 C 0.33496 -0.07816 0.26740
 C703 C 0.34607 -0.06354 0.26473
 C704 C 0.33903 -0.04749 0.25861
 C705 C 0.32085 -0.04612 0.25517
 C706 C 0.30972 -0.06071 0.25784
 C707 C 0.35041 -0.03240 0.25594
 C708 C 0.35983 -0.01967 0.25372
 H709 H 0.26381 -0.10271 0.28309
 H710 H 0.28340 -0.07712 0.27857
 H711 H 0.32313 -0.11172 0.25598
 H712 H 0.30353 -0.13724 0.26087
 H713 H 0.34066 -0.09037 0.27236
 H714 H 0.36012 -0.06472 0.26749
 H715 H 0.31527 -0.03377 0.25038
 H716 H 0.29573 -0.05940 0.25488
 C717 C 0.23929 -0.14860 0.72211
 C718 C 0.22953 -0.13613 0.72440
 C719 C 0.21791 -0.12123 0.72710
 C720 C 0.20907 -0.11912 0.74324
 C721 C 0.19784 -0.10460 0.74590
 C722 C 0.19533 -0.09196 0.73243
 C723 C 0.20426 -0.09423 0.71623
 C724 C 0.21546 -0.10877 0.71360
 C725 C 0.18352 -0.07645 0.73528
 C726 C 0.18843 -0.05954 0.72909
 C727 C 0.17735 -0.04493 0.73183
 C728 C 0.16122 -0.04701 0.74077
 C729 C 0.15619 -0.06377 0.74696
 C730 C 0.16727 -0.07841 0.74425
 C731 C 0.14987 -0.03193 0.74362
 C732 C 0.14046 -0.01924 0.74599
 H733 H 0.21090 -0.12867 0.75380
 H734 H 0.19133 -0.10311 0.75858
 H735 H 0.20241 -0.08486 0.70553
 H736 H 0.22220 -0.11031 0.70103
 H737 H 0.20096 -0.05756 0.72235
 H738 H 0.18139 -0.03200 0.72704
 H739 H 0.14371 -0.06553 0.75386
 H740 H 0.16302 -0.09129 0.74898
 C741 C 0.73864 0.35108 0.22328
 C742 C 0.72898 0.36363 0.22547
 C743 C 0.71747 0.37865 0.22804
 C744 C 0.70153 0.37669 0.23735
 C745 C 0.69035 0.39128 0.23987
 C746 C 0.69499 0.40805 0.23310
 C747 C 0.71104 0.40987 0.22373
 C748 C 0.72218 0.39526 0.22122
 C749 C 0.68319 0.42359 0.23586
 C750 C 0.69037 0.44032 0.23997
 C751 C 0.67927 0.45492 0.24266
 C752 C 0.66085 0.45303 0.24127
 C753 C 0.65357 0.43646 0.23715
 C754 C 0.66466 0.42183 0.23447
 C755 C 0.64947 0.46809 0.24408
 C756 C 0.64004 0.48077 0.24646
 H757 H 0.69777 0.36390 0.24273
 H758 H 0.67821 0.38950 0.24732
 H759 H 0.71486 0.42254 0.21815
 H760 H 0.73446 0.39691 0.21394
 H761 H 0.70457 0.44206 0.24136
 H762 H 0.68504 0.46768 0.24588
 H763 H 0.63934 0.43486 0.23598
 H764 H 0.65874 0.40918 0.23110
 C765 C 0.73938 0.64819 0.27790
 C766 C 0.72964 0.63574 0.27552
 C767 C 0.71807 0.62082 0.27268
 C768 C 0.72383 0.60366 0.27677
 C769 C 0.71262 0.58915 0.27401
 C770 C 0.69546 0.59163 0.26711
 C771 C 0.68979 0.60894 0.26305
 C772 C 0.70103 0.62343 0.26581
 C773 C 0.68355 0.57621 0.26417
 C774 C 0.66536 0.57732 0.26827
 C775 C 0.65418 0.56277 0.26555
 C776 C 0.66102 0.54694 0.25868
 C777 C 0.67907 0.54571 0.25453
 C778 C 0.69027 0.56024 0.25726
 C779 C 0.64955 0.53194 0.25592
 C780 C 0.64008 0.51928 0.25359
 H781 H 0.73697 0.60149 0.28213
 H782 H 0.71728 0.57602 0.27748
 H783 H 0.67675 0.61126 0.25751
 H784 H 0.69646 0.63666 0.26254
 H785 H 0.65982 0.58935 0.27382
 H786 H 0.64023 0.56384 0.26885
 H787 H 0.68449 0.53354 0.24917
 H788 H 0.70415 0.55904 0.25375
 C789 C 0.23933 0.14848 0.77687
 C790 C 0.22951 0.13608 0.77456
 C791 C 0.21779 0.12126 0.77185
 C792 C 0.21515 0.11453 0.75482
 C793 C 0.20383 0.10007 0.75218
 C794 C 0.19503 0.09214 0.76658
 C795 C 0.19777 0.09903 0.78365
 C796 C 0.20907 0.11350 0.78624
 C797 C 0.18314 0.07668 0.76381
 C798 C 0.18329 0.06232 0.77571
 C799 C 0.17222 0.04770 0.77300
 C800 C 0.16084 0.04723 0.75841
 C801 C 0.16052 0.06148 0.74655
 C802 C 0.17160 0.07611 0.74921
 C803 C 0.14961 0.03208 0.75555
 C804 C 0.14029 0.01932 0.75315
 H805 H 0.22188 0.12040 0.74358
 H806 H 0.20218 0.09492 0.73892
 H807 H 0.19101 0.09336 0.79496
 H808 H 0.21099 0.11864 0.79948
 H809 H 0.19218 0.06227 0.78694
 H810 H 0.17261 0.03671 0.78224
 H811 H 0.15173 0.06127 0.73523
 H812 H 0.17101 0.08706 0.73996
 C813 C 0.22254 0.26243 0.14716
 C814 C 0.22473 0.27223 0.13474
 C815 C 0.22734 0.28388 0.11988
 C816 C 0.21700 0.28187 0.10466
 C817 C 0.21960 0.29310 0.09017
 C818 C 0.23258 0.30651 0.09072
 C819 C 0.24286 0.30845 0.10612
 C820 C 0.24025 0.29720 0.12059
 C821 C 0.23544 0.31836 0.07528
 C822 C 0.23861 0.33660 0.07771
 C823 C 0.24137 0.34771 0.06316
 C824 C 0.24101 0.34076 0.04601
 C825 C 0.23786 0.32265 0.04346
 C826 C 0.23508 0.31151 0.05798
 C827 C 0.24392 0.35218 0.03104
 C828 C 0.24637 0.36166 0.01844
 H829 H 0.20693 0.27164 0.10399
 H830 H 0.21132 0.29142 0.07860
 H831 H 0.25310 0.31850 0.10687
 H832 H 0.24835 0.29884 0.13230
 H833 H 0.23875 0.34230 0.09084
 H834 H 0.24376 0.36173 0.06528
 H835 H 0.23761 0.31712 0.03024
 H836 H 0.23291 0.29750 0.05569
 C837 C 0.72236 0.76276 0.64752
 C838 C 0.72462 0.77254 0.63511
 C839 C 0.72735 0.78417 0.62025
 C840 C 0.72838 0.77718 0.60314
 C841 C 0.73111 0.78842 0.58869
 C842 C 0.73284 0.80685 0.59116
 C843 C 0.73175 0.81375 0.60842
 C844 C 0.72903 0.80247 0.62285
 C845 C 0.73578 0.81879 0.57581
 C846 C 0.72709 0.83529 0.57479
 C847 C 0.72982 0.84648 0.56028
 C848 C 0.74129 0.84135 0.54664
 C849 C 0.75002 0.82500 0.54755
 C850 C 0.74730 0.81378 0.56203
 C851 C 0.74404 0.85280 0.53165
 C852 C 0.74638 0.86228 0.51904
 H853 H 0.72705 0.76303 0.60097
 H854 H 0.73165 0.78273 0.57556
 H855 H 0.73324 0.82784 0.61078
 H856 H 0.72831 0.80802 0.63605
 H857 H 0.71798 0.83943 0.58507
 H858 H 0.72295 0.85909 0.55967
 H859 H 0.75896 0.82092 0.53709
 H860 H 0.75436 0.80129 0.56255
 C861 C 0.77742 0.76317 0.35209
 C862 C 0.77513 0.77310 0.36438
 C863 C 0.77242 0.78490 0.37909
 C864 C 0.75525 0.78820 0.38534
 C865 C 0.75261 0.79955 0.39973
 C866 C 0.76715 0.80775 0.40806
 C867 C 0.78435 0.80437 0.40164
 C868 C 0.78695 0.79303 0.38725
 C869 C 0.76438 0.81965 0.42347
 C870 C 0.77592 0.81899 0.43807
 C871 C 0.77322 0.83007 0.45264
 C872 C 0.75898 0.84198 0.45282
 C873 C 0.74745 0.84279 0.43835
 C874 C 0.75012 0.83170 0.42377
 C875 C 0.75610 0.85322 0.46792
 C876 C 0.75367 0.86253 0.48064
 H877 H 0.74391 0.78194 0.37916
 H878 H 0.73924 0.80170 0.40450
 H879 H 0.79578 0.81065 0.40762
 H880 H 0.80030 0.79060 0.38248
 H881 H 0.78687 0.80969 0.43834
 H882 H 0.78218 0.82929 0.46380
 H883 H 0.73640 0.85198 0.43835
 H884 H 0.74114 0.83269 0.41265
 C885 C 0.27791 0.26297 -0.14863
 C886 C 0.27567 0.27284 -0.13630
 C887 C 0.27300 0.28457 -0.12153
 C888 C 0.25621 0.29183 -0.11830
 C889 C 0.25357 0.30312 -0.10388
 C890 C 0.26771 0.30728 -0.09247
 C891 C 0.28454 0.29995 -0.09586
 C892 C 0.28715 0.28867 -0.11031
 C893 C 0.26487 0.31911 -0.07703
 C894 C 0.27282 0.31525 -0.06065
 C895 C 0.27003 0.32631 -0.04608
 C896 C 0.25929 0.34136 -0.04767
 C897 C 0.25137 0.34536 -0.06391
 C898 C 0.25413 0.33431 -0.07851
 C899 C 0.25632 0.35262 -0.03260
 C900 C 0.25383 0.36194 -0.01990
 H901 H 0.24515 0.28869 -0.12688
 H902 H 0.24041 0.30836 -0.10148
 H903 H 0.29573 0.30308 -0.08746
 H904 H 0.30021 0.28316 -0.11272
 H905 H 0.28096 0.30353 -0.05903
 H906 H 0.27617 0.32306 -0.03354
 H907 H 0.24307 0.35701 -0.06530
 H908 H 0.24801 0.33776 -0.09099
 C909 C 0.72191 0.23706 -0.14772
 C910 C 0.72416 0.22730 -0.13529
 C911 C 0.72688 0.21570 -0.12041
 C912 C 0.73714 0.20034 -0.12229
 C913 C 0.73988 0.18914 -0.10781
 C914 C 0.73240 0.19318 -0.09123
 C915 C 0.72208 0.20864 -0.08950
 C916 C 0.71934 0.21981 -0.10400
 C917 C 0.73541 0.18136 -0.07580
 C918 C 0.73869 0.18856 -0.05896
 C919 C 0.74154 0.17744 -0.04444
 C920 C 0.74114 0.15901 -0.04654
 C921 C 0.73790 0.15171 -0.06323
 C922 C 0.73506 0.16280 -0.07778
 C923 C 0.74406 0.14761 -0.03155
 C924 C 0.74650 0.13816 -0.01893
 H925 H 0.74309 0.19706 -0.13492
 H926 H 0.74808 0.17746 -0.10951
 H927 H 0.71595 0.21199 -0.07699
 H928 H 0.71134 0.23165 -0.10242
 H929 H 0.73928 0.20278 -0.05705
 H930 H 0.74409 0.18323 -0.03158
 H931 H 0.73751 0.13745 -0.06499
 H932 H 0.73235 0.15686 -0.09052
 C933 C 0.22305 0.73739 0.35234
 C934 C 0.22521 0.72760 0.36476
 C935 C 0.22777 0.71596 0.37962
 C936 C 0.21664 0.71721 0.39438
 C937 C 0.21916 0.70596 0.40887
 C938 C 0.23288 0.69330 0.40876
 C939 C 0.24398 0.69211 0.39383
 C940 C 0.24144 0.70339 0.37937
 C941 C 0.23566 0.68144 0.42420
 C942 C 0.23991 0.66342 0.42175
 C943 C 0.24258 0.65230 0.43630
 C944 C 0.24106 0.65903 0.45348
 C945 C 0.23683 0.67691 0.45606
 C946 C 0.23414 0.68805 0.44153
 C947 C 0.24389 0.64762 0.46847
 C948 C 0.24627 0.63818 0.48110
 H949 H 0.20599 0.72686 0.39470
 H950 H 0.21026 0.70704 0.42007
 H951 H 0.25479 0.68266 0.39345
 H952 H 0.25017 0.70234 0.36803
 H953 H 0.24095 0.65788 0.40858
 H954 H 0.24580 0.63845 0.43416
 H955 H 0.23568 0.68227 0.46930
 H956 H 0.23112 0.70190 0.44385
 C957 C 0.27700 0.73751 0.64789
 C958 C 0.27467 0.72763 0.63558
 C959 C 0.27186 0.71589 0.62085
 C960 C 0.25849 0.71954 0.60856
 C961 C 0.25578 0.70819 0.59420
 C962 C 0.26644 0.69303 0.59194
 C963 C 0.27984 0.68947 0.60439
 C964 C 0.28251 0.70083 0.61875
 C965 C 0.26365 0.68105 0.57662
 C966 C 0.27823 0.67387 0.56743
 C967 C 0.27559 0.66275 0.55288
 C968 C 0.25837 0.65864 0.54734
 C969 C 0.24378 0.66564 0.55643
 C970 C 0.24639 0.67678 0.57097
 C971 C 0.25566 0.64738 0.53223
 C972 C 0.25336 0.63805 0.51951
 H973 H 0.25021 0.73120 0.61003
 H974 H 0.24553 0.71142 0.58472
 H975 H 0.28811 0.67779 0.60314
 H976 H 0.29287 0.69786 0.62822
 H977 H 0.29167 0.67709 0.57132
 H978 H 0.28697 0.65745 0.54590
 H979 H 0.23039 0.66251 0.55227
 H980 H 0.23491 0.68190 0.57790
 C981 C 0.77777 0.23727 0.14794
 C982 C 0.77551 0.22746 0.13556
 C983 C 0.77275 0.21579 0.12076
 C984 C 0.76044 0.22025 0.10766
 C985 C 0.75771 0.20893 0.09329
 C986 C 0.76728 0.19296 0.09183
 C987 C 0.77964 0.18860 0.10506
 C988 C 0.78234 0.19994 0.11944
 C989 C 0.76440 0.18095 0.07654
 C990 C 0.77884 0.17248 0.06827
 C991 C 0.77612 0.16135 0.05374
 C992 C 0.75895 0.15851 0.04730
 C993 C 0.74450 0.16679 0.05548
 C994 C 0.74719 0.17794 0.07000
 C995 C 0.75618 0.14727 0.03218
 C996 C 0.75380 0.13796 0.01946
 H997 H 0.75299 0.23251 0.10853
 H998 H 0.74829 0.21277 0.08320
 H999 H 0.78706 0.17631 0.10443
 H1000 H 0.79187 0.19634 0.12953
 H1001 H 0.79226 0.17469 0.07286
 H1002 H 0.78741 0.15504 0.04747
 H1003 H 0.73115 0.16465 0.05063
 H1004 H 0.73579 0.18407 0.07622
 C1005 C 0.47384 0.39849 0.51241
 C1006 C 0.47607 0.38619 0.52234
 C1007 C 0.47879 0.37146 0.53414
 C1008 C 0.46427 0.36323 0.54226
 C1009 C 0.46690 0.34880 0.55358
 C1010 C 0.48412 0.34240 0.55690
 C1011 C 0.49864 0.35082 0.54871
 C1012 C 0.49597 0.36525 0.53741
 C1013 C 0.48693 0.32692 0.56872
 C1014 C 0.49944 0.31378 0.56432
 C1015 C 0.50200 0.29914 0.57538
 C1016 C 0.49212 0.29744 0.59096
 C1017 C 0.47967 0.31045 0.59547
 C1018 C 0.47707 0.32510 0.58443
 C1019 C 0.49471 0.28228 0.60223
 C1020 C 0.49694 0.26951 0.61154
 H1021 H 0.45091 0.36790 0.53978
 H1022 H 0.45545 0.34246 0.55950
 H1023 H 0.51206 0.34636 0.55118
 H1024 H 0.50731 0.37156 0.53123
 H1025 H 0.50705 0.31468 0.55221
 H1026 H 0.51163 0.28911 0.57173
 H1027 H 0.47198 0.30927 0.60753
 H1028 H 0.46751 0.33510 0.58828
 C1029 C -0.02654 0.89786 0.01131
 C1030 C -0.02436 0.88560 0.02131
 C1031 C -0.02174 0.87093 0.03320
 C1032 C -0.00696 0.87058 0.04437
 C1033 C -0.00432 0.85624 0.05581
 C1034 C -0.01645 0.84206 0.05622
 C1035 C -0.03130 0.84257 0.04497
 C1036 C -0.03391 0.85692 0.03354
 C1037 C -0.01356 0.82671 0.06820
 C1038 C -0.02790 0.81890 0.07725
 C1039 C -0.02517 0.80432 0.08836
 C1040 C -0.00811 0.79737 0.09058
 C1041 C 0.00625 0.80508 0.08170
 C1042 C 0.00356 0.81966 0.07059
 C1043 C -0.00534 0.78222 0.10181
 C1044 C -0.00299 0.76946 0.11112
 H1045 H 0.00252 0.88138 0.04425
 H1046 H 0.00711 0.85635 0.06446
 H1047 H -0.04075 0.83175 0.04480
 H1048 H -0.04537 0.85703 0.02491
 H1049 H -0.04119 0.82416 0.07586
 H1050 H -0.03638 0.79847 0.09521
 H1051 H 0.01951 0.79976 0.08328
 H1052 H 0.01483 0.82523 0.06364
 C1053 C 0.02673 0.60227 0.01125
 C1054 C 0.02459 0.61466 0.02110
 C1055 C 0.02203 0.62952 0.03277
 C1056 C 0.02016 0.64662 0.02581
 C1057 C 0.01769 0.66108 0.03711
 C1058 C 0.01703 0.65862 0.05554
 C1059 C 0.01890 0.64137 0.06240
 C1060 C 0.02140 0.62692 0.05108
 C1061 C 0.01439 0.67400 0.06754
 C1062 C 0.00319 0.67261 0.08238
 C1063 C 0.00061 0.68714 0.09357
 C1064 C 0.00921 0.70323 0.09011
 C1065 C 0.02042 0.70473 0.07543
 C1066 C 0.02301 0.69023 0.06421
 C1067 C 0.00643 0.71825 0.10152
 C1068 C 0.00411 0.73091 0.11096
 H1069 H 0.02058 0.64877 0.01166
 H1070 H 0.01605 0.67416 0.03141
 H1071 H 0.01867 0.63907 0.07653
 H1072 H 0.02287 0.61374 0.05660
 H1073 H -0.00380 0.66037 0.08517
 H1074 H -0.00815 0.68586 0.10487
 H1075 H 0.02718 0.71712 0.07266
 H1076 H 0.03190 0.69165 0.05305
 C1077 C 0.52587 0.10186 0.51213
 C1078 C 0.52388 0.11434 0.52189
 C1079 C 0.52147 0.12927 0.53348
 C1080 C 0.52117 0.12681 0.55182
 C1081 C 0.51877 0.14132 0.56308
 C1082 C 0.51665 0.15851 0.55612
 C1083 C 0.51700 0.16084 0.53767
 C1084 C 0.51939 0.14631 0.52644
 C1085 C 0.51403 0.17393 0.56805
 C1086 C 0.52246 0.19021 0.56451
 C1087 C 0.51989 0.20476 0.57567
 C1088 C 0.50888 0.20325 0.59050
 C1089 C 0.50047 0.18711 0.59417
 C1090 C 0.50303 0.17253 0.58303
 C1091 C 0.50614 0.21829 0.60188
 C1092 C 0.50385 0.23095 0.61132
 H1093 H 0.52283 0.11368 0.55741
 H1094 H 0.51879 0.13913 0.57723
 H1095 H 0.51517 0.17387 0.53190
 H1096 H 0.51955 0.14836 0.51226
 H1097 H 0.53118 0.19164 0.55321
 H1098 H 0.52650 0.21719 0.57274
 H1099 H 0.49187 0.18582 0.60559
 H1100 H 0.49618 0.16025 0.58598
 C1101 C -0.02670 0.10290 0.48881
 C1102 C -0.02455 0.11528 0.47894
 C1103 C -0.02200 0.13010 0.46721
 C1104 C -0.01516 0.14608 0.47371
 C1105 C -0.01271 0.16051 0.46235
 C1106 C -0.01707 0.15915 0.44432
 C1107 C -0.02391 0.14301 0.43791
 C1108 C -0.02636 0.12860 0.44930
 C1109 C -0.01448 0.17449 0.43226
 C1110 C -0.00774 0.17199 0.41508
 C1111 C -0.00516 0.18648 0.40381
 C1112 C -0.00928 0.20364 0.40956
 C1113 C -0.01606 0.20626 0.42658
 C1114 C -0.01865 0.19180 0.43787
 C1115 C -0.00645 0.21858 0.39806
 C1116 C -0.00405 0.23119 0.38855
 H1117 H -0.01169 0.14737 0.48755
 H1118 H -0.00719 0.17266 0.46764
 H1119 H -0.02759 0.14162 0.42415
 H1120 H -0.03171 0.11631 0.44414
 H1121 H -0.00421 0.15886 0.41045
 H1122 H 0.00014 0.18431 0.39067
 H1123 H -0.01935 0.21949 0.43114
 H1124 H -0.02408 0.19413 0.45092
 C1125 C 0.47309 0.60242 0.98906
 C1126 C 0.47522 0.61484 0.97923
 C1127 C 0.47777 0.62971 0.96756
 C1128 C 0.48476 0.64560 0.97409
 C1129 C 0.48723 0.66008 0.96279
 C1130 C 0.48274 0.65883 0.94477
 C1131 C 0.47575 0.64277 0.93834
 C1132 C 0.47328 0.62832 0.94967
 C1133 C 0.48537 0.67421 0.93277
 C1134 C 0.49199 0.67173 0.91553
 C1135 C 0.49459 0.68624 0.90430
 C1136 C 0.49060 0.70340 0.91013
 C1137 C 0.48395 0.70600 0.92721
 C1138 C 0.48135 0.69152 0.93847
 C1139 C 0.49343 0.71836 0.89865
 C1140 C 0.49584 0.73098 0.88915
 H1141 H 0.48834 0.64680 0.98790
 H1142 H 0.49286 0.67216 0.96809
 H1143 H 0.47197 0.64147 0.92459
 H1144 H 0.46782 0.61609 0.94449
 H1145 H 0.49541 0.65860 0.91084
 H1146 H 0.49979 0.68408 0.89112
 H1147 H 0.48077 0.71923 0.93183
 H1148 H 0.47602 0.69384 0.95156
 C1149 C 0.52640 0.89839 0.98798
 C1150 C 0.52429 0.88605 0.97806
 C1151 C 0.52173 0.87129 0.96628
 C1152 C 0.50808 0.87169 0.95376
 C1153 C 0.50547 0.85728 0.94243
 C1154 C 0.51652 0.84226 0.94347
 C1155 C 0.53025 0.84202 0.95606
 C1156 C 0.53282 0.85644 0.96739
 C1157 C 0.51366 0.82686 0.93156
 C1158 C 0.52819 0.81784 0.92406
 C1159 C 0.52548 0.80324 0.91300
 C1160 C 0.50824 0.79744 0.90930
 C1161 C 0.49371 0.80634 0.91665
 C1162 C 0.49638 0.82096 0.92770
 C1163 C 0.50547 0.78226 0.89811
 C1164 C 0.50312 0.76949 0.88884
 H1165 H 0.49945 0.88314 0.95276
 H1166 H 0.49494 0.85796 0.93273
 H1167 H 0.53882 0.83057 0.95734
 H1168 H 0.54340 0.85597 0.97706
 H1169 H 0.54164 0.82220 0.92660
 H1170 H 0.53683 0.79646 0.90735
 H1171 H 0.48031 0.80192 0.91392
 H1172 H 0.48494 0.82746 0.93345
 C1173 C 0.02662 0.39803 0.48810
 C1174 C 0.02443 0.38580 0.47807
 C1175 C 0.02183 0.37113 0.46619
 C1176 C 0.00794 0.37147 0.45393
 C1177 C 0.00531 0.35713 0.44251
 C1178 C 0.01656 0.34224 0.44322
 C1179 C 0.03051 0.34206 0.45556
 C1180 C 0.03311 0.35641 0.46696
 C1181 C 0.01368 0.32691 0.43123
 C1182 C 0.02819 0.31815 0.42339
 C1183 C 0.02547 0.30359 0.41227
 C1184 C 0.00824 0.29759 0.40884
 C1185 C -0.00627 0.30625 0.41652
 C1186 C -0.00359 0.32081 0.42763
 C1187 C 0.00547 0.28245 0.39761
 C1188 C 0.00313 0.26969 0.38831
 H1189 H -0.00085 0.38282 0.45319
 H1190 H -0.00540 0.35776 0.43301
 H1191 H 0.03925 0.33070 0.45658
 H1192 H 0.04386 0.35598 0.47645
 H1193 H 0.04162 0.32266 0.42572
 H1194 H 0.03679 0.29700 0.40637
 H1195 H -0.01966 0.30166 0.41401
 H1196 H -0.01500 0.32712 0.43365
 C1197 C 0.39864 0.51150 0.47327
 C1198 C 0.38612 0.52118 0.47558
 C1199 C 0.37115 0.53271 0.47831
 C1200 C 0.37156 0.55016 0.47200
 C1201 C 0.35700 0.56135 0.47459
 C1202 C 0.34180 0.55520 0.48352
 C1203 C 0.34153 0.53763 0.48983
 C1204 C 0.35612 0.52647 0.48723
 C1205 C 0.32629 0.56704 0.48624
 C1206 C 0.30891 0.56050 0.48428
 C1207 C 0.29431 0.57163 0.48689
 C1208 C 0.29686 0.58942 0.49152
 C1209 C 0.31408 0.59606 0.49349
 C1210 C 0.32871 0.58496 0.49086
 C1211 C 0.28179 0.60080 0.49431
 C1212 C 0.26909 0.61021 0.49667
 H1213 H 0.38312 0.55510 0.46502
 H1214 H 0.35751 0.57472 0.46939
 H1215 H 0.33013 0.53258 0.49696
 H1216 H 0.35569 0.51300 0.49221
 H1217 H 0.30662 0.54684 0.48050
 H1218 H 0.28103 0.56636 0.48529
 H1219 H 0.31620 0.60980 0.49712
 H1220 H 0.34191 0.59033 0.49269
 C1221 C 0.89842 0.01096 -0.02790
 C1222 C 0.88597 0.02071 -0.02550
 C1223 C 0.87107 0.03231 -0.02263
 C1224 C 0.87148 0.04975 -0.02896
 C1225 C 0.85698 0.06100 -0.02623
 C1226 C 0.84185 0.05492 -0.01713
 C1227 C 0.84159 0.03736 -0.01081
 C1228 C 0.85611 0.02614 -0.01354
 C1229 C 0.82640 0.06681 -0.01430
 C1230 C 0.80899 0.06030 -0.01609
 C1231 C 0.79443 0.07148 -0.01337
 C1232 C 0.79707 0.08927 -0.00883
 C1233 C 0.81432 0.09589 -0.00704
 C1234 C 0.82890 0.08474 -0.00977
 C1235 C 0.78204 0.10070 -0.00595
 C1236 C 0.76938 0.11014 -0.00351
 H1237 H 0.88298 0.05464 -0.03606
 H1238 H 0.85750 0.07437 -0.03145
 H1239 H 0.83025 0.03236 -0.00356
 H1240 H 0.85568 0.01268 -0.00854
 H1241 H 0.80662 0.04664 -0.01980
 H1242 H 0.78113 0.06623 -0.01484
 H1243 H 0.81650 0.10963 -0.00348
 H1244 H 0.84213 0.09008 -0.00808
 C1245 C 0.60127 0.01152 0.02742
 C1246 C 0.61379 0.02122 0.02517
 C1247 C 0.62877 0.03276 0.02250
 C1248 C 0.64600 0.02639 0.02513
 C1249 C 0.66057 0.03758 0.02253
 C1250 C 0.65808 0.05532 0.01726
 C1251 C 0.64069 0.06159 0.01465
 C1252 C 0.62614 0.05038 0.01727
 C1253 C 0.67356 0.06720 0.01447
 C1254 C 0.67395 0.07906 0.00011
 C1255 C 0.68860 0.09014 -0.00258
 C1256 C 0.70301 0.08953 0.00905
 C1257 C 0.70272 0.07781 0.02340
 C1258 C 0.68811 0.06671 0.02611
 C1259 C 0.71814 0.10081 0.00620
 C1260 C 0.73087 0.11018 0.00381
 H1261 H 0.64818 0.01277 0.02913
 H1262 H 0.67379 0.03230 0.02442
 H1263 H 0.63833 0.07523 0.01081
 H1264 H 0.61285 0.05546 0.01525
 H1265 H 0.66307 0.07959 -0.00921
 H1266 H 0.68871 0.09912 -0.01377
 H1267 H 0.71379 0.07725 0.03251
 H1268 H 0.68809 0.05789 0.03741
 C1269 C 0.10135 0.51119 0.52777
 C1270 C 0.11373 0.52105 0.52544
 C1271 C 0.12857 0.53275 0.52273
 C1272 C 0.14338 0.53169 0.53383
 C1273 C 0.15785 0.54299 0.53119
 C1274 C 0.15771 0.55550 0.51737
 C1275 C 0.14274 0.55648 0.50630
 C1276 C 0.12828 0.54518 0.50899
 C1277 C 0.17315 0.56739 0.51447
 C1278 C 0.17917 0.57108 0.49723
 C1279 C 0.19382 0.58213 0.49452
 C1280 C 0.20262 0.58966 0.50896
 C1281 C 0.19671 0.58612 0.52615
 C1282 C 0.18207 0.57506 0.52890
 C1283 C 0.21779 0.60090 0.50615
 C1284 C 0.23054 0.61024 0.50380
 H1285 H 0.14376 0.52209 0.54448
 H1286 H 0.16926 0.54175 0.53978
 H1287 H 0.14215 0.56612 0.49570
 H1288 H 0.11686 0.54614 0.50035
 H1289 H 0.17274 0.56519 0.48587
 H1290 H 0.19834 0.58473 0.48116
 H1291 H 0.20340 0.59192 0.53742
 H1292 H 0.17762 0.57266 0.54230
 C1293 C 0.10162 0.48887 -0.02773
 C1294 C 0.11408 0.47913 -0.02541
 C1295 C 0.12900 0.46753 -0.02266
 C1296 C 0.14558 0.47461 -0.01827
 C1297 C 0.16010 0.46337 -0.01567
 C1298 C 0.15823 0.44488 -0.01743
 C1299 C 0.14148 0.43789 -0.02181
 C1300 C 0.12698 0.44916 -0.02442
 C1301 C 0.17368 0.43295 -0.01472
 C1302 C 0.17172 0.41679 -0.00560
 C1303 C 0.18631 0.40564 -0.00297
 C1304 C 0.20303 0.41048 -0.00944
 C1305 C 0.20511 0.42649 -0.01858
 C1306 C 0.19054 0.43766 -0.02121
 C1307 C 0.21809 0.39911 -0.00662
 C1308 C 0.23080 0.38970 -0.00424
 H1309 H 0.14728 0.48881 -0.01682
 H1310 H 0.17275 0.46914 -0.01207
 H1311 H 0.13967 0.42374 -0.02347
 H1312 H 0.11421 0.44355 -0.02787
 H1313 H 0.15896 0.41290 -0.00026
 H1314 H 0.18457 0.39330 0.00417
 H1315 H 0.21798 0.43034 -0.02368
 H1316 H 0.19243 0.44989 -0.02849
 C1317 C 0.60064 0.98842 0.47330
 C1318 C 0.61319 0.97877 0.47554
 C1319 C 0.62820 0.96728 0.47819
 C1320 C 0.62629 0.94889 0.47649
 C1321 C 0.64089 0.93773 0.47901
 C1322 C 0.65762 0.94484 0.48324
 C1323 C 0.65938 0.96335 0.48494
 C1324 C 0.64476 0.97448 0.48243
 C1325 C 0.67316 0.93303 0.48589
 C1326 C 0.68996 0.93782 0.47929
 C1327 C 0.70462 0.92677 0.48190
 C1328 C 0.70271 0.91080 0.49114
 C1329 C 0.68605 0.90587 0.49772
 C1330 C 0.67137 0.91690 0.49510
 C1331 C 0.71786 0.89955 0.49397
 C1332 C 0.73062 0.89022 0.49634
 H1333 H 0.61353 0.94318 0.47316
 H1334 H 0.63916 0.92356 0.47740
 H1335 H 0.67202 0.96921 0.48843
 H1336 H 0.64637 0.98869 0.48384
 H1337 H 0.69172 0.95002 0.47193
 H1338 H 0.71744 0.93069 0.47671
 H1339 H 0.68444 0.89356 0.50493
 H1340 H 0.65866 0.91294 0.50053
 C1341 C 0.89846 0.98934 0.52738
 C1342 C 0.88599 0.97960 0.52503
 C1343 C 0.87106 0.96803 0.52227
 C1344 C 0.87224 0.95004 0.52673
 C1345 C 0.85770 0.93882 0.52413
 C1346 C 0.84177 0.94546 0.51704
 C1347 C 0.84074 0.96356 0.51258
 C1348 C 0.85530 0.97475 0.51518
 C1349 C 0.82628 0.93358 0.51432
 C1350 C 0.80900 0.93949 0.51820
 C1351 C 0.79441 0.92836 0.51553
 C1352 C 0.79689 0.91119 0.50894
 C1353 C 0.81402 0.90516 0.50509
 C1354 C 0.82863 0.91626 0.50777
 C1355 C 0.78183 0.89982 0.50605
 C1356 C 0.76915 0.89039 0.50361
 H1357 H 0.88436 0.94471 0.53229
 H1358 H 0.85883 0.92501 0.52790
 H1359 H 0.82876 0.96902 0.50687
 H1360 H 0.85426 0.98864 0.51164
 H1361 H 0.80678 0.95265 0.52349
 H1362 H 0.78121 0.93314 0.51860
 H1363 H 0.81608 0.89190 0.49994
 H1364 H 0.84174 0.91140 0.50445
 C1365 C 0.39841 0.48872 0.02754
 C1366 C 0.38594 0.47900 0.02517
 C1367 C 0.37102 0.46743 0.02234
 C1368 C 0.35526 0.47417 0.01525
 C1369 C 0.34074 0.46297 0.01253
 C1370 C 0.34178 0.44485 0.01689
 C1371 C 0.35770 0.43819 0.02399
 C1372 C 0.37221 0.44942 0.02670
 C1373 C 0.32633 0.43296 0.01405
 C1374 C 0.32873 0.41570 0.00738
 C1375 C 0.31415 0.40457 0.00463
 C1376 C 0.29700 0.41053 0.00852
 C1377 C 0.29447 0.42765 0.01520
 C1378 C 0.30903 0.43880 0.01795
 C1379 C 0.28196 0.39914 0.00559
 C1380 C 0.26929 0.38972 0.00311
 H1381 H 0.35422 0.48808 0.01178
 H1382 H 0.32876 0.46845 0.00683
 H1383 H 0.35884 0.42436 0.02768
 H1384 H 0.38433 0.44408 0.03226
 H1385 H 0.34185 0.41089 0.00404
 H1386 H 0.31624 0.39135 -0.00061
 H1387 H 0.28126 0.43237 0.01831
 H1388 H 0.30677 0.45192 0.02332
 C1389 C 0.51273 0.47285 0.39797
 C1390 C 0.52258 0.47519 0.38561
 C1391 C 0.53426 0.47801 0.37081
 C1392 C 0.53255 0.49329 0.36044
 C1393 C 0.54378 0.49598 0.34596
 C1394 C 0.55690 0.48340 0.34167
 C1395 C 0.55855 0.46811 0.35223
 C1396 C 0.54729 0.46545 0.36669
 C1397 C 0.56874 0.48618 0.32620
 C1398 C 0.58690 0.48195 0.32720
 C1399 C 0.59803 0.48458 0.31263
 C1400 C 0.59116 0.49145 0.29687
 C1401 C 0.57312 0.49568 0.29573
 C1402 C 0.56198 0.49307 0.31028
 C1403 C 0.60260 0.49417 0.28186
 C1404 C 0.61207 0.49648 0.26923
 H1405 H 0.52255 0.50313 0.36354
 H1406 H 0.54234 0.50799 0.33823
 H1407 H 0.56836 0.45808 0.34914
 H1408 H 0.54870 0.45355 0.37461
 H1409 H 0.59255 0.47682 0.33933
 H1410 H 0.61198 0.48130 0.31366
 H1411 H 0.56766 0.50095 0.28357
 H1412 H 0.54802 0.49623 0.30902
 C1413 C 0.01298 -0.02739 0.89730
 C1414 C 0.02278 -0.02511 0.88491
 C1415 C 0.03441 -0.02236 0.87006
 C1416 C 0.02933 -0.01100 0.85633
 C1417 C 0.04056 -0.00834 0.84186
 C1418 C 0.05707 -0.01703 0.84092
 C1419 C 0.06207 -0.02841 0.85480
 C1420 C 0.05080 -0.03105 0.86927
 C1421 C 0.06898 -0.01425 0.82551
 C1422 C 0.08741 -0.01243 0.82788
 C1423 C 0.09858 -0.00975 0.81335
 C1424 C 0.09149 -0.00887 0.79628
 C1425 C 0.07320 -0.01070 0.79378
 C1426 C 0.06200 -0.01337 0.80828
 C1427 C 0.10296 -0.00604 0.78132
 C1428 C 0.11243 -0.00365 0.76870
 H1429 H 0.01669 -0.00416 0.85684
 H1430 H 0.03644 0.00067 0.83150
 H1431 H 0.07458 -0.03545 0.85436
 H1432 H 0.05484 -0.03992 0.87980
 H1433 H 0.09315 -0.01283 0.84099
 H1434 H 0.11272 -0.00829 0.81544
 H1435 H 0.06758 -0.01009 0.78061
 H1436 H 0.04791 -0.01496 0.80600
 C1437 C 0.01325 0.02707 0.60183
 C1438 C 0.02311 0.02470 0.61413
 C1439 C 0.03482 0.02187 0.62888
 C1440 C 0.04703 0.03499 0.63370
 C1441 C 0.05830 0.03231 0.64812
 C1442 C 0.05748 0.01646 0.65793
 C1443 C 0.04519 0.00333 0.65293
 C1444 C 0.03395 0.00603 0.63850
 C1445 C 0.06932 0.01366 0.67336
 C1446 C 0.06282 0.00565 0.68888
 C1447 C 0.07394 0.00306 0.70342
 C1448 C 0.09170 0.00843 0.70267
 C1449 C 0.09831 0.01640 0.68730
 C1450 C 0.08720 0.01902 0.67274
 C1451 C 0.10309 0.00577 0.71768
 C1452 C 0.11251 0.00349 0.73033
 H1453 H 0.04778 0.04732 0.62637
 H1454 H 0.06746 0.04275 0.65177
 H1455 H 0.04441 -0.00910 0.66007
 H1456 H 0.02458 -0.00423 0.63484
 H1457 H 0.04907 0.00160 0.68986
 H1458 H 0.06868 -0.00307 0.71528
 H1459 H 0.11205 0.02056 0.68656
 H1460 H 0.09265 0.02503 0.66091
 C1461 C 0.51297 0.52680 0.10221
 C1462 C 0.52275 0.52455 0.11461
 C1463 C 0.53434 0.52185 0.12947
 C1464 C 0.55238 0.52605 0.12813
 C1465 C 0.56362 0.52346 0.14259
 C1466 C 0.55694 0.51667 0.15861
 C1467 C 0.53878 0.51248 0.15980
 C1468 C 0.52757 0.51506 0.14532
 C1469 C 0.56884 0.51397 0.17401
 C1470 C 0.56308 0.51823 0.19119
 C1471 C 0.57425 0.51563 0.20570
 C1472 C 0.59132 0.50874 0.20324
 C1473 C 0.59719 0.50447 0.18621
 C1474 C 0.58604 0.50708 0.17167
 C1475 C 0.60272 0.50596 0.21822
 C1476 C 0.61215 0.50361 0.23085
 H1477 H 0.55774 0.53136 0.11593
 H1478 H 0.57749 0.52702 0.14133
 H1479 H 0.53329 0.50701 0.17186
 H1480 H 0.51364 0.51173 0.14648
 H1481 H 0.55001 0.52378 0.19340
 H1482 H 0.56959 0.51901 0.21883
 H1483 H 0.61036 0.49906 0.18417
 H1484 H 0.59078 0.50346 0.15864
 C1485 C 0.48705 -0.02747 0.10238
 C1486 C 0.47721 -0.02517 0.11474
 C1487 C 0.46555 -0.02235 0.12955
 C1488 C 0.46567 -0.00609 0.13847
 C1489 C 0.45445 -0.00336 0.15294
 C1490 C 0.44292 -0.01688 0.15868
 C1491 C 0.44286 -0.03316 0.14959
 C1492 C 0.45411 -0.03587 0.13513
 C1493 C 0.43107 -0.01403 0.17413
 C1494 C 0.41350 -0.02035 0.17398
 C1495 C 0.40239 -0.01769 0.18855
 C1496 C 0.40868 -0.00869 0.20346
 C1497 C 0.42612 -0.00235 0.20374
 C1498 C 0.43725 -0.00498 0.18918
 C1499 C 0.39728 -0.00602 0.21850
 C1500 C 0.38782 -0.00377 0.23115
 H1501 H 0.47444 0.00449 0.13423
 H1502 H 0.45464 0.00940 0.15951
 H1503 H 0.43431 -0.04390 0.15383
 H1504 H 0.45395 -0.04853 0.12835
 H1505 H 0.40829 -0.02716 0.16251
 H1506 H 0.38889 -0.02262 0.18818
 H1507 H 0.43114 0.00458 0.21525
 H1508 H 0.45077 -0.00017 0.18980
 C1509 C 0.98677 0.47224 0.60221
 C1510 C 0.97684 0.47448 0.61452
 C1511 C 0.96505 0.47715 0.62927
 C1512 C 0.95263 0.49095 0.62894
 C1513 C 0.94130 0.49364 0.64334
 C1514 C 0.94224 0.48254 0.65828
 C1515 C 0.95473 0.46866 0.65844
 C1516 C 0.96606 0.46600 0.64403
 C1517 C 0.93034 0.48548 0.67367
 C1518 C 0.92266 0.47101 0.68262
 C1519 C 0.91161 0.47380 0.69722
 C1520 C 0.90809 0.49105 0.70306
 C1521 C 0.91562 0.50553 0.69423
 C1522 C 0.92666 0.50278 0.67962
 C1523 C 0.89687 0.49389 0.71821
 C1524 C 0.88754 0.49626 0.73094
 H1525 H 0.95171 0.49962 0.61755
 H1526 H 0.93167 0.50429 0.64272
 H1527 H 0.95594 0.46004 0.66982
 H1528 H 0.97566 0.45531 0.64444
 H1529 H 0.92506 0.45755 0.67823
 H1530 H 0.90582 0.46250 0.70394
 H1531 H 0.91303 0.51895 0.69869
 H1532 H 0.93256 0.51417 0.67316
 C1533 C 0.98676 0.52687 0.89801
 C1534 C 0.97691 0.52452 0.88569
 C1535 C 0.96521 0.52168 0.87093
 C1536 C 0.95352 0.53507 0.86560
 C1537 C 0.94225 0.53235 0.85118
 C1538 C 0.94255 0.51619 0.84188
 C1539 C 0.95433 0.50279 0.84738
 C1540 C 0.96557 0.50554 0.86181
 C1541 C 0.93072 0.51334 0.82646
 C1542 C 0.93702 0.50459 0.81126
 C1543 C 0.92592 0.50197 0.79671
 C1544 C 0.90838 0.50804 0.79714
 C1545 C 0.90196 0.51674 0.81219
 C1546 C 0.91305 0.51938 0.82676
 C1547 C 0.89702 0.50540 0.78209
 C1548 C 0.88761 0.50317 0.76942
 H1549 H 0.95317 0.54764 0.87253
 H1550 H 0.93351 0.54300 0.84714
 H1551 H 0.95472 0.49013 0.84065
 H1552 H 0.97454 0.49506 0.86586
 H1553 H 0.95061 0.49999 0.81053
 H1554 H 0.93103 0.49527 0.78510
 H1555 H 0.88839 0.52145 0.81267
 H1556 H 0.90775 0.52596 0.83833
 C1557 C 0.48636 0.02686 0.39848
 C1558 C 0.47654 0.02453 0.38614
 C1559 C 0.46487 0.02170 0.37137
 C1560 C 0.46206 0.00454 0.36491
 C1561 C 0.45085 0.00178 0.35046
 C1562 C 0.44229 0.01619 0.34227
 C1563 C 0.44516 0.03340 0.34890
 C1564 C 0.45639 0.03612 0.36335
 C1565 C 0.43050 0.01330 0.32682
 C1566 C 0.41449 0.02277 0.32518
 C1567 C 0.40345 0.02010 0.31057
 C1568 C 0.40827 0.00796 0.29742
 C1569 C 0.42415 -0.00153 0.29894
 C1570 C 0.43519 0.00110 0.31354
 C1571 C 0.39700 0.00530 0.28232
 C1572 C 0.38765 0.00306 0.26961
 H1573 H 0.46853 -0.00672 0.37105
 H1574 H 0.44874 -0.01163 0.34581
 H1575 H 0.43894 0.04478 0.34274
 H1576 H 0.45851 0.04947 0.36820
 H1577 H 0.41040 0.03209 0.33528
 H1578 H 0.39117 0.02749 0.30954
 H1579 H 0.42803 -0.01092 0.28881
 H1580 H 0.44754 -0.00621 0.31430
   
