data_POSCAR
  _audit_creation_date              2014-09-24
  _audit_creation_method            'ToBaCCo'
  _symmetry_space_group_name_H-M    'P1'
  _symmetry_Int_Tables_number       1
  _symmetry_cell_setting            triclinic
  loop_
  _symmetry_equiv_pos_as_xyz
 x,y,z
_cell_length_a 50.8092
_cell_length_b 50.7289
_cell_length_c 50.7652
_cell_angle_alpha 90.108200
_cell_angle_beta 90.065300
_cell_angle_gamma 90.044800
loop_
  _atom_site_label
  _atom_site_type_symbol
  _atom_site_fract_x
  _atom_site_fract_y
  _atom_site_fract_z
N1 N 0.28521 0.44710 0.89242
 N2 N 0.30417 0.46475 0.89205
 C3 C 0.30181 0.47944 0.87008
 C4 C 0.28026 0.47042 0.85603
 C5 C 0.27018 0.44992 0.87076
 H6 H 0.31537 0.49472 0.86406
 H7 H 0.25386 0.43726 0.86548
 Cu8 Cu 0.33155 0.46497 0.91894
 Cu9 Cu 0.28293 0.42001 0.91940
 Cu10 Cu 0.33147 0.41998 0.96743
 N11 N 0.35869 0.46478 0.94608
 N12 N 0.35849 0.44704 0.96494
 C13 C 0.38027 0.44981 0.97979
 C14 C 0.39499 0.47033 0.96965
 C15 C 0.38068 0.47952 0.94833
 H16 H 0.38559 0.43713 0.99605
 H17 H 0.38648 0.49494 0.93484
 N18 N 0.30251 0.39420 0.96661
 N19 N 0.28402 0.39420 0.94831
 C20 C 0.26880 0.37269 0.95144
 C21 C 0.27821 0.35852 0.97265
 C22 C 0.29951 0.37272 0.98186
 H23 H 0.25311 0.36679 0.93827
 H24 H 0.31283 0.36683 0.99739
 H25 H 0.30237 0.44090 0.94833
 H26 H 0.32283 0.41848 0.92756
 N27 N 0.44847 0.85668 0.46741
 N28 N 0.46647 0.85677 0.44879
 C29 C 0.48123 0.87873 0.45123
 C30 C 0.47183 0.89317 0.47240
 C31 C 0.45116 0.87849 0.48232
 H32 H 0.49665 0.88457 0.43777
 H33 H 0.43812 0.88402 0.49823
 Cu34 Cu 0.46665 0.82961 0.42156
 Cu35 Cu 0.42075 0.83016 0.46898
 Cu36 Cu 0.42110 0.78172 0.42059
 N37 N 0.46683 0.80244 0.39437
 N38 N 0.44902 0.78360 0.39437
 C39 C 0.45203 0.76866 0.37265
 C40 C 0.47279 0.77866 0.35823
 C41 C 0.48176 0.80010 0.37255
 H42 H 0.43915 0.75264 0.36698
 H43 H 0.49702 0.81376 0.36671
 N44 N 0.39450 0.78325 0.44881
 N45 N 0.39439 0.80168 0.46722
 C46 C 0.37254 0.79894 0.48196
 C47 C 0.35824 0.77787 0.47234
 C48 C 0.37272 0.76832 0.45139
 H49 H 0.36660 0.81221 0.49756
 H50 H 0.36695 0.75265 0.43811
 H51 H 0.44143 0.80063 0.45021
 H52 H 0.41993 0.82159 0.42905
 N53 N 0.94692 0.89274 0.78516
 N54 N 0.96479 0.89257 0.80393
 C55 C 0.97970 0.87075 0.80136
 C56 C 0.97057 0.85657 0.77991
 C57 C 0.94979 0.87108 0.77008
 H58 H 0.99514 0.86490 0.81480
 H59 H 0.93685 0.86555 0.75405
 Cu60 Cu 0.96484 0.91978 0.83107
 Cu61 Cu 0.91907 0.91907 0.78357
 Cu62 Cu 0.91897 0.96711 0.83236
 N63 N 0.96478 0.94654 0.85869
 N64 N 0.94684 0.96523 0.85878
 C65 C 0.94972 0.98004 0.88063
 C66 C 0.97054 0.97006 0.89508
 C67 C 0.97977 0.94889 0.88050
 H68 H 0.93680 0.99603 0.88627
 H69 H 0.99537 0.93550 0.88604
 N70 N 0.89243 0.96561 0.80396
 N71 N 0.89251 0.94733 0.78539
 C72 C 0.87074 0.95006 0.77048
 C73 C 0.85628 0.97096 0.78016
 C74 C 0.87059 0.98043 0.80131
 H75 H 0.86504 0.93702 0.75459
 H76 H 0.86475 0.99609 0.81454
 H77 H 0.93944 0.94869 0.80255
 H78 H 0.91814 0.92731 0.82347
 N79 N 0.44856 -0.10556 0.28281
 N80 N 0.46629 -0.10575 0.30170
 C81 C 0.48119 -0.12756 0.29929
 C82 C 0.47225 -0.14172 0.27778
 C83 C 0.45157 -0.12720 0.26775
 H84 H 0.49639 -0.13355 0.31295
 H85 H 0.43873 -0.13278 0.25167
 Cu86 Cu 0.46624 -0.07893 0.32908
 Cu87 Cu 0.42085 -0.07916 0.28101
 Cu88 Cu 0.42089 -0.03087 0.32949
 N89 N 0.46628 -0.05172 0.35609
 N90 N 0.44860 -0.03280 0.35592
 C91 C 0.45159 -0.01785 0.37763
 C92 C 0.47220 -0.02797 0.39219
 C93 C 0.48112 -0.04944 0.37799
 H94 H 0.43878 -0.00177 0.38321
 H95 H 0.49627 -0.06315 0.38397
 N96 N 0.39451 -0.03238 0.30108
 N97 N 0.39449 -0.05078 0.28263
 C98 C 0.37265 -0.04814 0.26783
 C99 C 0.35827 -0.02716 0.27746
 C100 C 0.37267 -0.01758 0.29847
 H101 H 0.36673 -0.06145 0.25224
 H102 H 0.36677 -0.00204 0.31182
 H103 H 0.44157 -0.04982 0.30010
 H104 H 0.41966 -0.07074 0.32089
 N105 N 0.78308 0.30170 0.35595
 N106 N 0.80169 0.28369 0.35595
 C107 C 0.79913 0.26864 0.37765
 C108 C 0.77780 0.27773 0.39193
 C109 C 0.76804 0.29867 0.37756
 H110 H 0.81268 0.25331 0.38354
 H111 H 0.75227 0.31177 0.38331
 Cu112 Cu 0.82949 0.28399 0.32950
 Cu113 Cu 0.78192 0.33006 0.33014
 Cu114 Cu 0.83113 0.33089 0.28294
 N115 N 0.85704 0.28470 0.30281
 N116 N 0.85737 0.30306 0.28455
 C117 C 0.87930 0.30046 0.26995
 C118 C 0.89354 0.27941 0.27959
 C119 C 0.87889 0.26981 0.30044
 H120 H 0.88514 0.31368 0.25432
 H121 H 0.88440 0.25400 0.31358
 N122 N 0.80293 0.35744 0.28443
 N123 N 0.78417 0.35715 0.30241
 C124 C 0.76934 0.37899 0.29968
 C125 C 0.77929 0.39365 0.27906
 C126 C 0.80051 0.37943 0.26979
 H127 H 0.75328 0.38454 0.31249
 H128 H 0.81391 0.38539 0.25438
 H129 H 0.80114 0.30988 0.30070
 H130 H 0.82184 0.33092 0.32273
 N131 N -0.19681 0.85860 0.78473
 N132 N -0.21522 0.85821 0.80292
 C133 C -0.23018 0.88004 0.80055
 C134 C -0.22051 0.89486 0.77980
 C135 C -0.19943 0.88057 0.77013
 H136 H -0.24614 0.88537 0.81359
 H137 H -0.18624 0.88638 0.75447
 Cu138 Cu -0.21602 0.83052 0.82952
 Cu139 Cu -0.16896 0.83225 0.78315
 Cu140 Cu -0.17010 0.78280 0.83014
 N141 N -0.21644 0.80263 0.85590
 N142 N -0.19854 0.78391 0.85583
 C143 C -0.20169 0.76875 0.87733
 C144 C -0.22261 0.77852 0.89171
 C145 C -0.23155 0.80000 0.87755
 H146 H -0.18869 0.75287 0.88301
 H147 H -0.24683 0.81359 0.88349
 N148 N -0.14287 0.78506 0.80257
 N149 N -0.14243 0.80393 0.78468
 C150 C -0.12043 0.80141 0.77009
 C151 C -0.10636 0.78002 0.77927
 C152 C -0.12113 0.77009 0.79982
 H153 H -0.11437 0.81484 0.75473
 H154 H -0.11575 0.75389 0.81255
 H155 H -0.19010 0.80216 0.80065
 H156 H -0.16917 0.82276 0.82284
 N157 N 0.96489 0.35866 0.44675
 N158 N 0.94655 0.35835 0.46502
 C159 C 0.94882 0.38025 0.47996
 C160 C 0.96971 0.39499 0.47043
 C161 C 0.97951 0.38063 0.44945
 H162 H 0.93568 0.38561 0.49585
 H163 H 0.99542 0.38627 0.43648
 Cu164 Cu 0.92075 0.32994 0.46573
 Cu165 Cu 0.96686 0.33211 0.41897
 Cu166 Cu 0.91964 0.28248 0.41987
 N167 N 0.89365 0.30278 0.46605
 N168 N 0.89374 0.28397 0.44817
 C169 C 0.87225 0.26879 0.45131
 C170 C 0.85787 0.27864 0.47218
 C171 C 0.87198 0.30023 0.48112
 H172 H 0.86670 0.25268 0.43845
 H173 H 0.86608 0.31387 0.49642
 N174 N 0.94751 0.28468 0.39290
 N175 N 0.96546 0.30354 0.39257
 C176 C 0.98006 0.30104 0.37057
 C177 C 0.97082 0.27969 0.35643
 C178 C 0.95024 0.26973 0.37111
 H179 H 0.99538 0.31452 0.36451
 H180 H 0.93741 0.25363 0.36558
 H181 H 0.92747 0.32215 0.41896
 H182 H 0.94960 0.30153 0.43963
 N183 N 0.46511 0.44628 0.85730
 N184 N 0.44634 0.46411 0.85749
 C185 C 0.44882 0.47907 0.87929
 C186 C 0.47027 0.47007 0.89340
 C187 C 0.48017 0.44928 0.87891
 H188 H 0.43537 0.49450 0.88519
 H189 H 0.49628 0.43648 0.88438
 Cu190 Cu 0.41918 0.46416 0.83047
 Cu191 Cu 0.46683 0.41848 0.83092
 Cu192 Cu 0.41841 0.41847 0.78267
 N193 N 0.39215 0.46424 0.80332
 N194 N 0.39218 0.44638 0.78451
 C195 C 0.37060 0.44950 0.76947
 C196 C 0.35628 0.47039 0.77941
 C197 C 0.37048 0.47933 0.80088
 H198 H 0.36503 0.43672 0.75331
 H199 H 0.36474 0.49482 0.81436
 N200 N 0.44666 0.39192 0.78427
 N201 N 0.46513 0.39198 0.80261
 C202 C 0.48002 0.37021 0.79984
 C203 C 0.47041 0.35580 0.77885
 C204 C 0.44934 0.37009 0.76938
 H205 H 0.49581 0.36448 0.81292
 H206 H 0.43616 0.36426 0.75368
 H207 H 0.44802 0.43916 0.80142
 H208 H 0.42705 0.41751 0.82242
 N209 N 0.78300 0.89420 0.94869
 N210 N 0.80190 0.89401 0.96642
 C211 C 0.79936 0.87228 0.98144
 C212 C 0.77771 0.85825 0.97264
 C213 C 0.76777 0.87274 0.95190
 H214 H 0.81311 0.86620 0.99653
 H215 H 0.75173 0.86715 0.93902
 Cu216 Cu 0.82980 0.92032 0.96574
 Cu217 Cu 0.78164 0.92001 0.92040
 Cu218 Cu 0.83121 0.96707 0.91913
 N219 N 0.85760 0.94674 0.96487
 N220 N 0.85782 0.96515 0.94667
 C221 C 0.87974 0.97982 0.94937
 C222 C 0.89406 0.97003 0.97031
 C223 C 0.87951 0.94900 0.97970
 H224 H 0.88547 0.99566 0.93635
 H225 H 0.88504 0.93580 0.99545
 N226 N 0.80258 0.96571 0.89294
 N227 N 0.78375 0.94775 0.89336
 C228 C 0.76876 0.95042 0.87162
 C229 C 0.77868 0.97099 0.85687
 C230 C 0.80002 0.98029 0.87094
 H231 H 0.75267 0.93756 0.86616
 H232 H 0.81348 0.99561 0.86481
 H233 H 0.82158 0.92741 0.91896
 H234 H 0.80136 0.94947 0.94023
 N235 N 0.28309 0.85567 0.30126
 N236 N 0.30166 0.85558 0.28324
 C237 C 0.29938 0.87750 0.26844
 C238 C 0.27828 0.89198 0.27773
 C239 C 0.26837 0.87754 0.29852
 H240 H 0.31291 0.88331 0.25308
 H241 H 0.25263 0.88333 0.31164
 Cu242 Cu 0.32890 0.82858 0.28309
 Cu243 Cu 0.28139 0.82943 0.32912
 Cu244 Cu 0.32965 0.78118 0.32922
 N245 N 0.35591 0.80133 0.28337
 N246 N 0.35598 0.78279 0.30144
 C247 C 0.37785 0.76807 0.29878
 C248 C 0.39230 0.77793 0.27797
 C249 C 0.37783 0.79902 0.26860
 H250 H 0.38362 0.75236 0.31195
 H251 H 0.38364 0.81252 0.25321
 N252 N 0.30138 0.78282 0.35571
 N253 N 0.28300 0.80121 0.35568
 C254 C 0.26822 0.79863 0.37754
 C255 C 0.27781 0.77769 0.39199
 C256 C 0.29876 0.76808 0.37760
 H257 H 0.25265 0.81192 0.38338
 H258 H 0.31203 0.75252 0.38351
 H259 H 0.32125 0.82117 0.32992
 H260 H 0.30012 0.79990 0.30853
 N261 N 0.78350 0.39370 0.44801
 N262 N 0.80233 0.39361 0.46581
 C263 C 0.79974 0.37199 0.48098
 C264 C 0.77818 0.35787 0.47214
 C265 C 0.76832 0.37220 0.45124
 H266 H 0.81338 0.36606 0.49621
 H267 H 0.75233 0.36653 0.43833
 Cu268 Cu 0.82998 0.42013 0.46525
 Cu269 Cu 0.78208 0.41956 0.41972
 Cu270 Cu 0.83120 0.46706 0.41886
 N271 N 0.85749 0.44679 0.46472
 N272 N 0.85760 0.46529 0.44660
 C273 C 0.87938 0.48012 0.44940
 C274 C 0.89368 0.47038 0.47036
 C275 C 0.87929 0.44923 0.47967
 H276 H 0.88506 0.49600 0.43640
 H277 H 0.88492 0.43597 0.49535
 N278 N 0.80280 0.46550 0.39250
 N279 N 0.78412 0.44738 0.39275
 C280 C 0.76920 0.45007 0.37097
 C281 C 0.77900 0.47082 0.35640
 C282 C 0.80022 0.48019 0.37059
 H283 H 0.75320 0.43713 0.36539
 H284 H 0.81356 0.49569 0.36463
 H285 H 0.82198 0.42729 0.41851
 H286 H 0.80143 0.44905 0.43988
 N287 N 0.94639 0.85774 -0.03509
 N288 N 0.96419 0.85797 -0.05389
 C289 C 0.97941 0.87954 -0.05106
 C290 C 0.97056 0.89351 -0.02942
 C291 C 0.94965 0.87913 -0.01972
 H292 H 0.99482 0.88546 -0.06448
 H293 H 0.93685 0.88465 -0.00362
 Cu294 Cu 0.96406 0.83154 -0.08176
 Cu295 Cu 0.91801 0.83201 -0.03431
 Cu296 Cu 0.91789 0.78430 -0.08271
 N297 N 0.96421 0.80377 -0.10829
 N298 N 0.94636 0.78496 -0.10822
 C299 C 0.94961 0.76968 -0.12965
 C300 C 0.97057 0.77946 -0.14389
 C301 C 0.97945 0.80103 -0.12981
 H302 H 0.93675 0.75363 -0.13530
 H303 H 0.99490 0.81450 -0.13562
 N304 N 0.89261 0.78428 -0.05334
 N305 N 0.89267 0.80259 -0.03480
 C306 C 0.87146 0.79916 -0.01930
 C307 C 0.85738 0.77778 -0.02861
 C308 C 0.87136 0.76874 -0.05010
 H309 H 0.86562 0.81227 -0.00355
 H310 H 0.86542 0.75317 -0.06342
 H311 H 0.93889 0.80282 -0.05321
 H312 H 0.91728 0.82409 -0.07404
 N313 N 0.28467 0.35714 0.80260
 N314 N 0.30364 0.35739 0.78500
 C315 C 0.30141 0.37936 0.77027
 C316 C 0.27993 0.39354 0.77915
 C317 C 0.26977 0.37887 0.79968
 H318 H 0.31505 0.38530 0.75506
 H319 H 0.25350 0.38426 0.81231
 Cu320 Cu 0.33080 0.33024 0.78482
 Cu321 Cu 0.28244 0.33037 0.82994
 Cu322 Cu 0.33049 0.28193 0.83000
 N323 N 0.35769 0.30282 0.78509
 N324 N 0.35732 0.28387 0.80273
 C325 C 0.37898 0.26885 0.79990
 C326 C 0.39372 0.27893 0.77938
 C327 C 0.37965 0.30046 0.77041
 H328 H 0.38428 0.25260 0.81260
 H329 H 0.38568 0.31406 0.75519
 N330 N 0.30181 0.28323 0.85605
 N331 N 0.28350 0.30169 0.85603
 C332 C 0.26855 0.29898 0.87776
 C333 C 0.27796 0.27789 0.89212
 C334 C 0.29897 0.26831 0.87778
 H335 H 0.25307 0.31235 0.88367
 H336 H 0.31221 0.25273 0.88371
 H337 H 0.32230 0.32197 0.83124
 H338 H 0.30146 0.30119 0.80898
 N339 N 0.14405 0.55171 0.53285
 N340 N 0.14437 0.53314 0.55089
 C341 C 0.12270 0.51806 0.54808
 C342 C 0.10813 0.52772 0.52721
 C343 C 0.12227 0.54903 0.51795
 H344 H 0.11705 0.50228 0.56119
 H345 H 0.11627 0.56256 0.50263
 Cu346 Cu 0.17103 0.53255 0.57856
 Cu347 Cu 0.16977 0.58010 0.53207
 Cu348 Cu 0.21757 0.58011 0.58032
 N349 N 0.19833 0.53324 0.60556
 N350 N 0.21645 0.55177 0.60600
 C351 C 0.23119 0.54911 0.62787
 C352 C 0.22176 0.52787 0.64196
 C353 C 0.20093 0.51822 0.62728
 H354 H 0.24657 0.56259 0.63395
 H355 H 0.18776 0.50244 0.63283
 N356 N 0.21566 0.60722 0.55276
 N357 N 0.19735 0.60723 0.53432
 C358 C 0.19994 0.62921 0.51968
 C359 C 0.22084 0.64369 0.52943
 C360 C 0.23039 0.62919 0.55036
 H361 H 0.18690 0.63490 0.50383
 H362 H 0.24615 0.63487 0.56353
 H363 H 0.19920 0.55907 0.55063
 H364 H 0.17738 0.57963 0.57234
 N365 N 0.60745 0.69654 0.03482
 N366 N 0.60780 0.71428 0.05374
 C367 C 0.62963 0.72916 0.05127
 C368 C 0.64358 0.72022 0.02967
 C369 C 0.62897 0.69952 0.01969
 H370 H 0.63558 0.74457 0.06478
 H371 H 0.63423 0.68686 0.00336
 Cu372 Cu 0.58091 0.71461 0.08102
 Cu373 Cu 0.58054 0.66933 0.03263
 Cu374 Cu 0.53238 0.66956 0.08090
 N375 N 0.55376 0.71448 0.10803
 N376 N 0.53478 0.69685 0.10774
 C377 C 0.51979 0.69989 0.12936
 C378 C 0.52993 0.72051 0.14398
 C379 C 0.55147 0.72936 0.12993
 H380 H 0.50345 0.68731 0.13469
 H381 H 0.56508 0.74466 0.13586
 N382 N 0.53331 0.64353 0.05212
 N383 N 0.55168 0.64343 0.03375
 C384 C 0.54857 0.62187 0.01856
 C385 C 0.52729 0.60775 0.02786
 C386 C 0.51803 0.62203 0.04909
 H387 H 0.56176 0.61590 0.00296
 H388 H 0.50241 0.61621 0.06231
 H389 H 0.55154 0.69037 0.05174
 H390 H 0.57218 0.66810 0.07247
 N391 N 0.69724 0.21542 0.64258
 N392 N 0.71518 0.19675 0.64251
 C393 C 0.72993 0.19905 0.62058
 C394 C 0.72068 0.22028 0.60626
 C395 C 0.69995 0.23022 0.62078
 H396 H 0.74549 0.18570 0.61484
 H397 H 0.68712 0.24631 0.61528
 Cu398 Cu 0.71583 0.17013 0.67008
 Cu399 Cu 0.66999 0.21763 0.66946
 Cu400 Cu 0.67119 0.17030 0.71870
 N401 N 0.71650 0.14358 0.69773
 N402 N 0.69905 0.14401 0.71684
 C403 C 0.70220 0.12250 0.73198
 C404 C 0.72266 0.10778 0.72180
 C405 C 0.73135 0.12171 0.70009
 H406 H 0.68953 0.11711 0.74821
 H407 H 0.74626 0.11550 0.68622
 N408 N 0.64456 0.19848 0.71708
 N409 N 0.64413 0.21650 0.69834
 C410 C 0.62223 0.23119 0.70103
 C411 C 0.60820 0.22189 0.72236
 C412 C 0.62291 0.20123 0.73214
 H413 H 0.61601 0.24642 0.68752
 H414 H 0.61736 0.18819 0.74801
 H415 H 0.69126 0.19953 0.69894
 H416 H 0.66933 0.17793 0.67878
 N417 N 1.10752 0.05316 0.21571
 N418 N 1.10731 0.03484 0.19737
 C419 C 1.12929 0.02015 0.19962
 C420 C 1.14392 0.02981 0.22051
 C421 C 1.12954 0.05075 0.23027
 H422 H 1.13479 0.00428 0.18649
 H423 H 1.13523 0.06387 0.24610
 Cu424 Cu 1.07936 0.03304 0.17112
 Cu425 Cu 1.08061 0.08029 0.21783
 Cu426 Cu 1.03146 0.07905 0.17061
 N427 N 1.05207 0.03348 0.14416
 N428 N 1.03326 0.05127 0.14429
 C429 C 1.01837 0.04832 0.12254
 C430 C 1.02840 0.02763 0.10798
 C431 C 1.04978 0.01864 0.12223
 H432 H 1.00238 0.06123 0.11694
 H433 H 1.06347 0.00344 0.11628
 N434 N 1.03301 0.10568 0.19881
 N435 N 1.05177 0.10614 0.21682
 C436 C 1.04906 0.12805 0.23159
 C437 C 1.02766 0.14203 0.22237
 C438 C 1.01789 0.12731 0.20165
 H439 H 1.06259 0.13430 0.24682
 H440 H 1.00198 0.13284 0.18863
 H441 H 1.05088 0.05889 0.19994
 H442 H 1.07147 0.07998 0.17792
 N443 N 0.05251 0.14400 1.03329
 N444 N 0.03406 0.14438 1.05143
 C445 C 0.01914 0.12255 1.04896
 C446 C 0.02868 0.10789 1.02806
 C447 C 0.04984 0.12207 1.01857
 H448 H 0.00337 0.11703 1.06213
 H449 H 0.06315 0.11612 1.00304
 Cu450 Cu 0.03241 0.17213 1.07797
 Cu451 Cu 0.08052 0.17005 1.03209
 Cu452 Cu 0.08038 0.21825 1.08020
 N453 N 0.03384 0.19879 1.10562
 N454 N 0.05225 0.21702 1.10607
 C455 C 0.04947 0.23178 1.12796
 C456 C 0.02830 0.22220 1.14205
 C457 C 0.01885 0.20123 1.12738
 H458 H 0.06273 0.24737 1.13395
 H459 H 0.00311 0.18797 1.13284
 N460 N 0.10732 0.21636 1.05244
 N461 N 0.10734 0.19797 1.03402
 C462 C 0.12936 0.20041 1.01946
 C463 C 0.14387 0.22128 1.02924
 C464 C 0.12934 0.23099 1.05009
 H465 H 0.13514 0.18721 1.00375
 H466 H 0.13510 0.24669 1.06332
 H467 H 0.07951 0.17820 1.07205
 H468 H 0.05969 0.20016 1.05002
 N469 N 0.14373 0.71659 0.69820
 N470 N 0.14396 0.69811 0.71633
 C471 C 0.12225 0.70055 0.73139
 C472 C 0.10778 0.72169 0.72214
 C473 C 0.12200 0.73143 0.70114
 H474 H 0.11659 0.68713 0.74692
 H475 H 0.11615 0.74715 0.68801
 Cu476 Cu 0.17117 0.67111 0.71636
 Cu477 Cu 0.16957 0.71797 0.66991
 Cu478 Cu 0.21806 0.66983 0.66992
 N479 N 0.19838 0.64411 0.71638
 N480 N 0.21685 0.64398 0.69825
 C481 C 0.23183 0.62232 0.70124
 C482 C 0.22219 0.60807 0.72229
 C483 C 0.20096 0.62243 0.73148
 H484 H 0.24753 0.61650 0.68809
 H485 H 0.18755 0.61667 0.74697
 N486 N 0.21586 0.69769 0.64296
 N487 N 0.19740 0.71601 0.64296
 C488 C 0.19984 0.73069 0.62100
 C489 C 0.22075 0.72112 0.60654
 C490 C 0.23051 0.70026 0.62101
 H491 H 0.18666 0.74639 0.61526
 H492 H 0.24633 0.68722 0.61527
 H493 H 0.17822 0.67810 0.66940
 H494 H 0.19953 0.69965 0.69025
 N495 N 1.19722 0.14283 0.21550
 N496 N 1.21487 0.14257 0.19657
 C497 C 1.22961 0.12061 0.19881
 C498 C 1.22066 0.10644 0.22026
 C499 C 1.20012 0.12111 0.23040
 H500 H 1.24488 0.11468 0.18522
 H501 H 1.18747 0.11572 0.24665
 Cu502 Cu 1.21505 0.16968 0.16943
 Cu503 Cu 1.16992 0.16964 0.21775
 Cu504 Cu 1.16983 0.21797 0.16955
 N505 N 1.21487 0.19699 0.14251
 N506 N 1.19715 0.21588 0.14277
 C507 C 1.20005 0.23088 0.12112
 C508 C 1.22067 0.22085 0.10650
 C509 C 1.22967 0.19938 0.12062
 H510 H 1.18736 0.24712 0.11576
 H511 H 1.24502 0.18586 0.11470
 N512 N 1.14379 0.21674 0.19827
 N513 N 1.14385 0.19836 0.21666
 C514 C 1.12224 0.20123 0.23174
 C515 C 1.10791 0.22234 0.22234
 C516 C 1.12213 0.23176 0.20119
 H517 H 1.11641 0.18797 0.24734
 H518 H 1.11621 0.24735 0.18795
 H519 H 1.16857 0.17809 0.17792
 H520 H 1.19070 0.19891 0.19871
 N521 N 0.64241 1.03450 0.55324
 N522 N 0.64228 1.05328 0.53543
 C523 C 0.62024 1.05108 0.52077
 C524 C 0.60595 1.02978 0.52993
 C525 C 0.62056 1.01973 0.55054
 H526 H 0.61445 1.06455 0.50533
 H527 H 0.61511 1.00357 0.56329
 Cu528 Cu 0.66983 1.07998 0.53433
 Cu529 Cu 0.66939 1.03213 0.58025
 Cu530 Cu 0.71771 1.08025 0.58037
 N531 N 0.69677 1.10733 0.53540
 N532 N 0.71550 1.10720 0.55329
 C533 C 0.73042 1.12897 0.55051
 C534 C 0.72050 1.14351 0.52979
 C535 C 0.69913 1.12926 0.52065
 H536 H 0.74659 1.13440 0.56329
 H537 H 0.68573 1.13504 0.50514
 N538 N 0.71662 1.05137 0.60620
 N539 N 0.69823 1.03297 0.60610
 C540 C 0.70117 1.01775 0.62762
 C541 C 0.72234 1.02708 0.64192
 C542 C 0.73174 1.04833 0.62779
 H543 H 0.68789 1.00216 0.63344
 H544 H 0.74732 1.06158 0.63377
 H545 H 0.67782 1.07214 0.58104
 H546 H 0.69880 1.05099 0.55940
 N547 N 0.55133 0.53278 0.14412
 N548 N 0.53369 0.55174 0.14385
 C549 C 0.51884 0.54931 0.12196
 C550 C 0.52769 0.52770 0.10788
 C551 C 0.54829 0.51766 0.12252
 H552 H 0.50379 0.56307 0.11586
 H553 H 0.56111 0.50155 0.11702
 Cu554 Cu 0.53408 0.57956 0.17036
 Cu555 Cu 0.57919 0.53112 0.17040
 Cu556 Cu 0.58020 0.58038 0.21782
 N557 N 0.53487 0.60716 0.19712
 N558 N 0.55293 0.60720 0.21571
 C559 C 0.55036 0.62915 0.23041
 C560 C 0.52961 0.64367 0.22050
 C561 C 0.52020 0.62918 0.19938
 H562 H 0.56334 0.63477 0.24636
 H563 H 0.50462 0.63488 0.18604
 N564 N 0.60614 0.55159 0.21668
 N565 N 0.60581 0.53285 0.19859
 C566 C 0.62752 0.51787 0.20132
 C567 C 0.64216 0.52769 0.22206
 C568 C 0.62804 0.54898 0.23141
 H569 H 0.63316 0.50202 0.18823
 H570 H 0.63420 0.56251 0.24670
 H571 H 0.55897 0.55080 0.19958
 H572 H 0.58070 0.57114 0.17803
 N573 N 0.64283 0.69713 0.21544
 N574 N 0.64229 0.71459 0.19632
 C575 C 0.62032 0.72926 0.19864
 C576 C 0.60642 0.72043 0.22031
 C577 C 0.62125 0.70006 0.23051
 H578 H 0.61421 0.74439 0.18497
 H579 H 0.61611 0.68755 0.24697
 Cu580 Cu 0.66931 0.71461 0.16915
 Cu581 Cu 0.66988 0.67004 0.21777
 Cu582 Cu 0.71812 0.67016 0.16941
 N583 N 0.69630 0.71463 0.14195
 N584 N 0.71551 0.69727 0.14239
 C585 C 0.73042 0.70023 0.12070
 C586 C 0.72000 0.72053 0.10590
 C587 C 0.69838 0.72927 0.11993
 H588 H 0.74689 0.68779 0.11545
 H589 H 0.68459 0.74432 0.11389
 N590 N 0.71725 0.64432 0.19835
 N591 N 0.69885 0.64426 0.21672
 C592 C 0.70180 0.62261 0.23175
 C593 C 0.72296 0.60838 0.22234
 C594 C 0.73236 0.62271 0.20126
 H595 H 0.68850 0.61662 0.24724
 H596 H 0.74791 0.61682 0.18797
 H597 H 0.69890 0.69097 0.19851
 H598 H 0.67842 0.66833 0.17796
 N599 N 0.14399 0.05247 1.03349
 N600 N 0.14373 0.03466 1.05228
 C601 C 0.12211 0.01952 1.04952
 C602 C 0.10816 0.02836 1.02787
 C603 C 0.12261 0.04925 1.01814
 H604 H 0.11606 0.00426 1.06309
 H605 H 0.11710 0.06215 1.00212
 Cu606 Cu 0.17014 0.03510 1.08007
 Cu607 Cu 0.16999 0.08067 1.03228
 Cu608 Cu 0.21729 0.08136 1.08163
 N609 N 0.19666 0.03551 1.10774
 N610 N 0.21527 0.05354 1.10795
 C611 C 0.23011 0.05054 1.12969
 C612 C 0.22025 0.02955 1.14389
 C613 C 0.19901 0.02043 1.12945
 H614 H 0.24612 0.06341 1.13541
 H615 H 0.18570 0.00475 1.13498
 N616 N 0.21594 0.10782 1.05329
 N617 N 0.19790 0.10757 1.03454
 C618 C 0.20070 0.12935 1.01966
 C619 C 0.22142 0.14395 1.02956
 C620 C 0.23068 0.12975 1.05081
 H621 H 0.18784 0.13493 1.00363
 H622 H 0.24614 0.13573 1.06422
 H623 H 0.19928 0.06045 1.05171
 H624 H 0.17763 0.08189 1.07227
 N625 N 0.60774 0.21511 0.55296
 N626 N 0.60788 0.19616 0.53526
 C627 C 0.62993 0.19817 0.52066
 C628 C 0.64422 0.21955 0.52970
 C629 C 0.62960 0.22984 0.55020
 H630 H 0.63571 0.18457 0.50530
 H631 H 0.63502 0.24617 0.56282
 Cu632 Cu 0.58027 0.16958 0.53407
 Cu633 Cu 0.58068 0.21779 0.57990
 Cu634 Cu 0.53214 0.16991 0.57969
 N635 N 0.55328 0.14236 0.53513
 N636 N 0.53437 0.14281 0.55277
 C637 C 0.51942 0.12107 0.55008
 C638 C 0.52953 0.10621 0.52967
 C639 C 0.55101 0.12023 0.52061
 H640 H 0.50313 0.11584 0.56273
 H641 H 0.56457 0.11415 0.50536
 N642 N 0.53315 0.19886 0.60542
 N643 N 0.55167 0.21713 0.60556
 C644 C 0.54874 0.23224 0.62721
 C645 C 0.52748 0.22292 0.64134
 C646 C 0.51798 0.20186 0.62694
 H647 H 0.56213 0.24769 0.63326
 H648 H 0.50234 0.18863 0.63274
 H649 H 0.57221 0.17783 0.58072
 H650 H 0.55148 0.19897 0.55887
 N651 N 0.10609 0.55172 0.71705
 N652 N 0.10628 0.53383 0.69826
 C653 C 0.12803 0.51889 0.70078
 C654 C 0.14216 0.52794 0.72225
 C655 C 0.12768 0.54876 0.73214
 H656 H 0.13398 0.50356 0.68721
 H657 H 0.13324 0.56172 0.74816
 Cu658 Cu 0.07952 0.53372 0.67085
 Cu659 Cu 0.07967 0.57948 0.71870
 Cu660 Cu 0.03156 0.57914 0.67016
 N661 N 0.05240 0.53352 0.64380
 N662 N 0.03352 0.55124 0.64390
 C663 C 0.01860 0.54815 0.62222
 C664 C 0.02869 0.52746 0.60773
 C665 C 0.05012 0.51856 0.62195
 H666 H 0.00255 0.56097 0.61660
 H667 H 0.06379 0.50334 0.61604
 N668 N 0.03296 0.60574 0.69839
 N669 N 0.05125 0.60586 0.71689
 C670 C 0.04843 0.62773 0.73168
 C671 C 0.02744 0.64202 0.72198
 C672 C 0.01805 0.62755 0.70092
 H673 H 0.06159 0.63371 0.74735
 H674 H 0.00254 0.63334 0.68754
 H675 H 0.05042 0.55857 0.69973
 H676 H 0.07135 0.58039 0.67886
 N677 N 0.64383 0.53300 0.05133
 N678 N 0.64336 0.55208 0.03383
 C679 C 0.62146 0.54967 0.01903
 C680 C 0.60754 0.52796 0.02778
 C681 C 0.62229 0.51783 0.04826
 H682 H 0.61525 0.56349 0.00407
 H683 H 0.61695 0.50158 0.06094
 Cu684 Cu 0.66990 0.57975 0.03428
 Cu685 Cu 0.67036 0.53119 0.07901
 Cu686 Cu 0.71775 0.58050 0.07981
 N687 N 0.69650 0.60738 0.03471
 N688 N 0.71531 0.60736 0.05253
 C689 C 0.73006 0.62922 0.04970
 C690 C 0.71993 0.64372 0.02904
 C691 C 0.69865 0.62933 0.01994
 H692 H 0.74623 0.63476 0.06243
 H693 H 0.68516 0.63505 0.00449
 N694 N 0.71682 0.55163 0.10573
 N695 N 0.69879 0.53286 0.10543
 C696 C 0.70170 0.51782 0.12708
 C697 C 0.72247 0.52763 0.14167
 C698 C 0.73166 0.54899 0.12757
 H699 H 0.68869 0.50194 0.13274
 H700 H 0.74692 0.56255 0.13371
 H701 H 0.67811 0.57114 0.08079
 H702 H 0.69942 0.55093 0.05873
 N703 N 0.05176 0.71716 0.60582
 N704 N 0.03351 0.69875 0.60557
 C705 C 0.01831 0.70148 0.62715
 C706 C 0.02762 0.72266 0.64163
 C707 C 0.04879 0.73218 0.62750
 H708 H 0.00264 0.68821 0.63278
 H709 H 0.06205 0.74778 0.63344
 Cu710 Cu 0.03356 0.67132 0.57866
 Cu711 Cu 0.08016 0.71821 0.58011
 Cu712 Cu 0.08019 0.66965 0.53191
 N713 N 0.03356 0.64418 0.55148
 N714 N 0.05180 0.64387 0.53312
 C715 C 0.04882 0.62213 0.51820
 C716 C 0.02764 0.60801 0.52772
 C717 C 0.01834 0.62256 0.54882
 H718 H 0.06205 0.61615 0.50263
 H719 H 0.00265 0.61697 0.56207
 N720 N 0.10726 0.69743 0.53407
 N721 N 0.10725 0.71591 0.55243
 C722 C 0.12927 0.73051 0.55003
 C723 C 0.14378 0.72074 0.52921
 C724 C 0.12930 0.69981 0.51951
 H725 H 0.13501 0.74630 0.56317
 H726 H 0.13506 0.68660 0.50381
 H727 H 0.05972 0.69964 0.55017
 H728 H 0.08050 0.67830 0.57168
 N729 N 0.55316 1.03471 0.64152
 N730 N 0.53498 1.05315 0.64170
 C731 C 0.52020 1.05084 0.61973
 C732 C 0.52973 1.02987 0.60506
 C733 C 0.55059 1.02004 0.61954
 H734 H 0.50435 1.06398 0.61430
 H735 H 0.56356 1.00408 0.61396
 Cu736 Cu 0.53350 1.07957 0.66968
 Cu737 Cu 0.58034 1.03255 0.66844
 Cu738 Cu 0.57966 1.08001 0.71748
 N739 N 0.53417 1.10668 0.69704
 N740 N 0.55209 1.10659 0.71576
 C741 C 0.54928 1.12834 0.73074
 C742 C 0.52858 1.14299 0.72080
 C743 C 0.51932 1.12858 0.69950
 H744 H 0.56221 1.13382 0.74680
 H745 H 0.50386 1.13433 0.68604
 N746 N 0.60606 1.05160 0.71597
 N747 N 0.60631 1.03348 0.69727
 C748 C 0.62802 1.01851 0.70008
 C749 C 0.64212 1.02769 0.72150
 C750 C 0.62764 1.04863 0.73113
 H751 H 0.63406 1.00310 0.68664
 H752 H 0.63330 1.06167 0.74704
 H753 H 0.55922 1.05059 0.69814
 H754 H 0.58035 1.07242 0.67742
 N755 N 0.46557 0.35814 0.94649
 N756 N 0.44731 0.35782 0.96484
 C757 C 0.44962 0.37974 0.97975
 C758 C 0.47040 0.39455 0.97014
 C759 C 0.48015 0.38016 0.94912
 H760 H 0.43652 0.38513 0.99566
 H761 H 0.49587 0.38592 0.93597
 Cu762 Cu 0.42074 0.33010 0.96563
 Cu763 Cu 0.46722 0.33158 0.91871
 Cu764 Cu 0.42012 0.28211 0.91985
 N765 N 0.39436 0.30221 0.96610
 N766 N 0.39439 0.28342 0.94822
 C767 C 0.37283 0.26832 0.95133
 C768 C 0.35845 0.27823 0.97219
 C769 C 0.37268 0.29970 0.98117
 H770 H 0.36711 0.25239 0.93833
 H771 H 0.36676 0.31337 0.99642
 N772 N 0.44774 0.28421 0.89271
 N773 N 0.46570 0.30303 0.89228
 C774 C 0.48026 0.30041 0.87026
 C775 C 0.47096 0.27901 0.85618
 C776 C 0.45039 0.26916 0.87096
 H777 H 0.49563 0.31382 0.86415
 H778 H 0.43755 0.25303 0.86555
 H779 H 0.42752 0.32209 0.91878
 H780 H 0.44958 0.30163 0.93987
 N781 N 0.96512 0.44696 0.35842
 N782 N 0.94646 0.46493 0.35853
 C783 C 0.94886 0.47979 0.38046
 C784 C 0.97006 0.47046 0.39486
 C785 C 0.98000 0.44973 0.38020
 H786 H 0.93551 0.49538 0.38619
 H787 H 0.99605 0.43683 0.38564
 Cu788 Cu 0.91935 0.46508 0.33132
 Cu789 Cu 0.96688 0.41928 0.33177
 Cu790 Cu 0.91870 0.41957 0.28327
 N791 N 0.89236 0.46526 0.30402
 N792 N 0.89245 0.44743 0.28517
 C793 C 0.87082 0.45042 0.27016
 C794 C 0.85636 0.47118 0.28015
 C795 C 0.87057 0.48022 0.30160
 H796 H 0.86529 0.43760 0.25403
 H797 H 0.86476 0.49567 0.31510
 N798 N 0.94690 0.39298 0.28479
 N799 N 0.96527 0.39289 0.30321
 C800 C 0.98006 0.37104 0.30040
 C801 C 0.97048 0.35674 0.27929
 C802 C 0.94952 0.37120 0.26980
 H803 H 0.99575 0.36516 0.31354
 H804 H 0.93636 0.36549 0.25403
 H805 H 0.94818 0.44009 0.30225
 H806 H 0.92709 0.41839 0.32305
 N807 N 0.28314 0.94924 0.39456
 N808 N 0.30197 0.96705 0.39437
 C809 C 0.29952 0.98190 0.37250
 C810 C 0.27807 0.97282 0.35830
 C811 C 0.26812 0.95214 0.37290
 H812 H 0.31311 0.99716 0.36652
 H813 H 0.25214 0.93918 0.36734
 Cu814 Cu 0.32949 0.96687 0.42120
 Cu815 Cu 0.28143 0.92141 0.42093
 Cu816 Cu 0.33011 0.92116 0.46890
 N817 N 0.35675 0.96675 0.44830
 N818 N 0.35670 0.94881 0.46698
 C819 C 0.37853 0.95155 0.48178
 C820 C 0.39317 0.97221 0.47177
 C821 C 0.37867 0.98158 0.45064
 H822 H 0.38407 0.93856 0.49773
 H823 H 0.38442 0.99707 0.43720
 N824 N 0.30160 0.89479 0.46750
 N825 N 0.28310 0.89486 0.44921
 C826 C 0.26829 0.87298 0.45183
 C827 C 0.27795 0.85849 0.47272
 C828 C 0.29901 0.87288 0.48223
 H829 H 0.25266 0.86713 0.43858
 H830 H 0.31241 0.86692 0.49767
 H831 H 0.30059 0.94203 0.45031
 H832 H 0.32123 0.92020 0.42915
 O833 O 0.18006 0.53327 0.74858
 O834 O 0.18989 0.53107 0.79479
 O835 O 0.24859 0.57024 0.71697
 O836 O 0.29219 0.56298 0.71718
 O837 O 0.21642 0.50146 0.67981
 O838 O 0.21871 0.45528 0.68933
 O839 O 0.31906 0.49772 0.78401
 O840 O 0.31155 0.54378 0.77922
 O841 O 0.25280 0.46601 0.81876
 O842 O 0.20482 0.46798 0.80952
 O843 O 0.28433 0.43104 0.75197
 O844 O 0.28156 0.44056 0.70393
 O845 O 0.31904 0.46620 0.75206
 O846 O 0.30962 0.46890 0.70406
 O847 O 0.25265 0.43085 0.78358
 O848 O 0.20461 0.44023 0.78114
 O849 O 0.28466 0.49754 0.81871
 O850 O 0.28100 0.54503 0.81040
 O851 O 0.17998 0.50168 0.71662
 O852 O 0.18959 0.45514 0.71917
 O853 O 0.24781 0.53353 0.67997
 O854 O 0.29484 0.52902 0.68968
 O855 O 0.21662 0.57005 0.74840
 O856 O 0.21953 0.56034 0.79485
 Zr857 Zr 0.21834 0.53183 0.76444
 O858 O 0.24155 0.50850 0.78961
 Zr859 Zr 0.26437 0.53192 0.71797
 O860 O 0.28981 0.50882 0.74128
 Zr861 Zr 0.21809 0.48549 0.71805
 O862 O 0.24150 0.46016 0.74109
 Zr863 Zr 0.28156 0.51492 0.78133
 O864 O 0.25839 0.54068 0.75815
 Zr865 Zr 0.23535 0.46843 0.78118
 O866 O 0.20954 0.49172 0.75817
 Zr867 Zr 0.28149 0.46869 0.73479
 O868 O 0.25805 0.49182 0.70919
 O869 O 0.22462 0.52535 0.72457
 O870 O 0.27532 0.47484 0.77486
 C871 C 0.16891 0.52018 0.72993
 C872 C 0.22990 0.58127 0.73001
 C873 C 0.22941 0.52018 0.66877
 C874 C 0.32989 0.47879 0.77118
 C875 C 0.27191 0.47864 0.82959
 C876 C 0.27167 0.42006 0.77090
 H877 H 0.23719 0.51265 0.80811
 H878 H 0.23726 0.44165 0.73672
 H879 H 0.21333 0.53665 0.71342
 H880 H 0.30833 0.51322 0.73729
 H881 H 0.30358 0.55960 0.77106
 H882 H 0.30789 0.55703 0.72705
 H883 H 0.20697 0.42875 0.76555
 H884 H 0.18098 0.45634 0.73662
 H885 H 0.26534 0.54244 0.82164
 H886 H 0.23700 0.56892 0.79375
 H887 H 0.26611 0.42894 0.70633
 H888 H 0.23634 0.45591 0.68107
 H889 H 0.18168 0.51338 0.79416
 H890 H 0.20696 0.48369 0.82088
 H891 H 0.29199 0.51235 0.67990
 H892 H 0.32098 0.48456 0.70649
 O893 O 0.32025 -0.00123 0.28325
 O894 O 0.31051 0.04497 0.28125
 O895 O 0.25166 -0.03274 0.32037
 O896 O 0.20805 -0.03293 0.31295
 O897 O 0.28380 -0.07003 0.25154
 O898 O 0.28116 -0.06055 0.20539
 O899 O 0.18134 0.03438 0.24765
 O900 O 0.18879 0.02980 0.29364
 O901 O 0.24782 0.06899 0.21585
 O902 O 0.29562 0.05971 0.21808
 O903 O 0.21584 0.00219 0.18119
 O904 O 0.21844 -0.04585 0.19070
 O905 O 0.18115 0.00242 0.21616
 O906 O 0.19039 -0.04565 0.21902
 O907 O 0.24761 0.03380 0.18107
 O908 O 0.29582 0.03106 0.19046
 O909 O 0.21617 0.06914 0.24750
 O910 O 0.21948 0.06071 0.29505
 O911 O 0.32025 -0.03305 0.25153
 O912 O 0.31035 -0.03082 0.20511
 O913 O 0.25233 -0.06993 0.28344
 O914 O 0.20525 -0.06005 0.27907
 O915 O 0.28377 -0.00138 0.32011
 O916 O 0.28090 0.04505 0.31039
 Zr917 Zr 0.28200 0.01462 0.28191
 O918 O 0.25889 0.03985 0.25855
 Zr919 Zr 0.23587 -0.03184 0.28198
 O920 O 0.21047 -0.00843 0.25891
 Zr921 Zr 0.28203 -0.03180 0.23557
 O922 O 0.25865 -0.00873 0.21026
 Zr923 Zr 0.21885 0.03166 0.26492
 O924 O 0.24193 0.00839 0.29071
 Zr925 Zr 0.26503 0.03136 0.21854
 O926 O 0.29076 0.00831 0.24184
 Zr927 Zr 0.21865 -0.01495 0.21880
 O928 O 0.24206 -0.04062 0.24191
 O929 O 0.27563 -0.02529 0.27543
 O930 O 0.22503 0.02513 0.22490
 C931 C 0.33138 -0.01973 0.27000
 C932 C 0.27041 -0.01968 0.33139
 C933 C 0.27074 -0.08113 0.27014
 C934 C 0.17039 0.02156 0.22874
 C935 C 0.22888 0.07994 0.22851
 C936 C 0.22854 0.02115 0.17028
 H937 H 0.26332 0.05836 0.26269
 H938 H 0.26285 -0.01311 0.19177
 H939 H 0.28693 -0.03645 0.28671
 H940 H 0.19193 -0.01238 0.26330
 H941 H 0.19660 0.02141 0.30941
 H942 H 0.19258 -0.02259 0.30724
 H943 H 0.29306 0.01575 0.17867
 H944 H 0.31897 -0.01334 0.20616
 H945 H 0.23535 0.07174 0.29268
 H946 H 0.26349 0.04389 0.31905
 H947 H 0.23390 -0.04349 0.17912
 H948 H 0.26355 -0.06888 0.20616
 H949 H 0.31876 0.04435 0.26360
 H950 H 0.29365 0.07097 0.23388
 H951 H 0.20797 -0.06978 0.26237
 H952 H 0.17898 -0.04309 0.23459
 O953 O 0.43038 0.75192 0.28358
 O954 O 0.44009 0.70562 0.28171
 O955 O 0.49914 0.78395 0.32030
 O956 O 0.54271 0.78320 0.31297
 O957 O 0.46690 0.82033 0.25150
 O958 O 0.46907 0.81047 0.20534
 O959 O 0.56920 0.71601 0.24770
 O960 O 0.56189 0.72073 0.29370
 O961 O 0.50247 0.68111 0.21609
 O962 O 0.45496 0.69017 0.21827
 O963 O 0.53440 0.74781 0.18130
 O964 O 0.53166 0.79594 0.19078
 O965 O 0.56914 0.74771 0.21606
 O966 O 0.56002 0.79574 0.21884
 O967 O 0.50262 0.71623 0.18120
 O968 O 0.45424 0.71902 0.19095
 O969 O 0.53432 0.68116 0.24762
 O970 O 0.53130 0.68986 0.29519
 O971 O 0.43024 0.78358 0.25182
 O972 O 0.43984 0.78079 0.20536
 O973 O 0.49841 0.82041 0.28345
 O974 O 0.54543 0.81054 0.27879
 O975 O 0.46727 0.75233 0.32030
 O976 O 0.46980 0.70578 0.31080
 Zr977 Zr 0.46864 0.73595 0.28216
 O978 O 0.49165 0.71055 0.25880
 Zr979 Zr 0.51483 0.78235 0.28197
 O980 O 0.54011 0.75880 0.25890
 Zr981 Zr 0.46838 0.78200 0.23568
 O982 O 0.49165 0.75880 0.21037
 Zr983 Zr 0.53173 0.71874 0.26501
 O984 O 0.50876 0.74218 0.29081
 Zr985 Zr 0.48533 0.71877 0.21875
 O986 O 0.45969 0.74193 0.24208
 Zr987 Zr 0.53169 0.76511 0.21884
 O988 O 0.50838 0.79089 0.24191
 O989 O 0.47502 0.77577 0.27552
 O990 O 0.52536 0.72505 0.22500
 C991 C 0.41918 0.77040 0.27038
 C992 C 0.48052 0.77089 0.33142
 C993 C 0.47997 0.83149 0.27014
 C994 C 0.58001 0.72869 0.22869
 C995 C 0.52149 0.67024 0.22871
 C996 C 0.52166 0.72885 0.17040
 H997 H 0.48723 0.69208 0.26302
 H998 H 0.48737 0.76308 0.19188
 H999 H 0.46377 0.78701 0.28678
 H1000 H 0.55867 0.76276 0.26322
 H1001 H 0.55419 0.72937 0.30941
 H1002 H 0.55843 0.77342 0.30695
 H1003 H 0.45710 0.73407 0.17892
 H1004 H 0.43116 0.76336 0.20657
 H1005 H 0.51544 0.67880 0.29290
 H1006 H 0.48734 0.70684 0.31924
 H1007 H 0.51637 0.79329 0.17899
 H1008 H 0.48670 0.81878 0.20597
 H1009 H 0.43174 0.70615 0.26409
 H1010 H 0.45661 0.67946 0.23445
 H1011 H 0.54256 0.82018 0.26210
 H1012 H 0.57148 0.79331 0.23441
 O1013 O 0.00138 0.68010 0.71626
 O1014 O -0.04492 0.68998 0.71831
 O1015 O 0.03302 0.74891 0.67967
 O1016 O 0.03322 0.79254 0.68727
 O1017 O 0.06986 0.71629 0.74844
 O1018 O 0.06014 0.71883 0.79462
 O1019 O -0.03395 0.81928 0.75245
 O1020 O -0.02915 0.81184 0.70631
 O1021 O -0.06908 0.75260 0.78363
 O1022 O -0.05984 0.70461 0.78109
 O1023 O -0.00221 0.78401 0.81887
 O1024 O 0.04585 0.78144 0.80927
 O1025 O -0.00232 0.81911 0.78420
 O1026 O 0.04549 0.80993 0.78147
 O1027 O -0.03394 0.75236 0.81872
 O1028 O -0.03168 0.70439 0.80911
 O1029 O -0.06888 0.78461 0.75231
 O1030 O -0.06042 0.78159 0.70492
 O1031 O 0.03298 0.67995 0.74813
 O1032 O 0.03034 0.68960 0.79457
 O1033 O 0.06993 0.74790 0.71665
 O1034 O 0.06029 0.79507 0.72127
 O1035 O 0.00157 0.71688 0.67960
 O1036 O -0.04473 0.71962 0.68914
 Zr1037 Zr -0.01452 0.71844 0.71777
 O1038 O -0.03975 0.74164 0.74108
 Zr1039 Zr 0.03198 0.76455 0.71810
 O1040 O 0.00862 0.78998 0.74122
 Zr1041 Zr 0.03162 0.71812 0.76428
 O1042 O 0.00851 0.74146 0.78957
 Zr1043 Zr -0.03141 0.78175 0.73501
 O1044 O -0.00816 0.75860 0.70922
 Zr1045 Zr -0.03152 0.73525 0.78110
 O1046 O -0.00842 0.70950 0.75782
 Zr1047 Zr 0.01493 0.78153 0.78128
 O1048 O 0.04059 0.75814 0.75816
 O1049 O 0.02530 0.72472 0.72443
 O1050 O -0.02511 0.77534 0.77502
 C1051 C 0.01981 0.66889 0.72952
 C1052 C 0.01995 0.73025 0.66849
 C1053 C 0.08100 0.72937 0.72987
 C1054 C -0.02125 0.83007 0.77154
 C1055 C -0.07986 0.77175 0.77110
 C1056 C -0.02118 0.77128 0.82967
 H1057 H -0.05823 0.73731 0.73682
 H1058 H 0.01281 0.73714 0.80805
 H1059 H 0.03645 0.71343 0.71312
 H1060 H 0.01265 0.80855 0.73695
 H1061 H -0.02084 0.80392 0.69053
 H1062 H 0.02311 0.80814 0.69311
 H1063 H -0.01605 0.70661 0.82053
 H1064 H 0.01294 0.68091 0.79327
 H1065 H -0.07129 0.76554 0.70692
 H1066 H -0.04369 0.73720 0.68077
 H1067 H 0.04328 0.76607 0.82095
 H1068 H 0.06859 0.73640 0.79389
 H1069 H -0.04419 0.68149 0.73584
 H1070 H -0.07109 0.70683 0.76534
 H1071 H 0.06990 0.79223 0.73800
 H1072 H 0.04321 0.82125 0.76579
 O1073 O 0.00224 0.07002 0.03344
 O1074 O -0.04403 0.06048 0.03117
 O1075 O 0.03383 0.00132 0.07001
 O1076 O 0.03329 -0.04229 0.06270
 O1077 O 0.07041 0.03342 0.00126
 O1078 O 0.06056 0.03097 -0.04501
 O1079 O -0.03377 -0.06916 -0.00211
 O1080 O -0.02908 -0.06141 0.04384
 O1081 O -0.06865 -0.00266 -0.03391
 O1082 O -0.05945 0.04527 -0.03178
 O1083 O -0.00238 -0.03465 -0.06894
 O1084 O 0.04561 -0.03187 -0.05981
 O1085 O -0.00221 -0.06921 -0.03388
 O1086 O 0.04585 -0.05979 -0.03132
 O1087 O -0.03379 -0.00278 -0.06900
 O1088 O -0.03112 0.04551 -0.05956
 O1089 O -0.06858 -0.03453 -0.00245
 O1090 O -0.05998 -0.03079 0.04511
 O1091 O 0.03379 0.07002 0.00158
 O1092 O 0.03092 0.06031 -0.04496
 O1093 O 0.07038 0.00203 0.03327
 O1094 O 0.06052 -0.04512 0.02856
 O1095 O 0.00229 0.03321 0.07001
 O1096 O -0.04415 0.03092 0.06037
 Zr1097 Zr -0.01390 0.03179 0.03183
 O1098 O -0.03929 0.00859 0.00859
 Zr1099 Zr 0.03239 -0.01448 0.03169
 O1100 O 0.00885 -0.03990 0.00869
 Zr1101 Zr 0.03213 0.03182 -0.01465
 O1102 O 0.00887 0.00841 -0.03990
 Zr1103 Zr -0.03111 -0.03150 0.01494
 O1104 O -0.00769 -0.00833 0.04060
 Zr1105 Zr -0.03110 0.01470 -0.03147
 O1106 O -0.00788 0.04053 -0.00826
 Zr1107 Zr 0.01511 -0.03164 -0.03143
 O1108 O 0.04092 -0.00822 -0.00840
 O1109 O 0.02586 0.02534 0.02520
 O1110 O -0.02486 -0.02533 -0.02513
 C1111 C 0.02078 0.08112 0.02026
 C1112 C 0.02076 0.01995 0.08113
 C1113 C 0.08148 0.02047 0.01999
 C1114 C -0.02113 -0.08005 -0.02112
 C1115 C -0.07947 -0.02175 -0.02134
 C1116 C -0.02136 -0.02197 -0.07987
 H1117 H -0.05774 0.01301 0.01281
 H1118 H 0.01309 0.01260 -0.05842
 H1119 H 0.03708 0.03661 0.03649
 H1120 H 0.01284 -0.05845 0.01306
 H1121 H -0.02066 -0.05347 0.05957
 H1122 H 0.02330 -0.05796 0.05681
 H1123 H -0.01575 0.04297 -0.07122
 H1124 H 0.01351 0.06896 -0.04375
 H1125 H -0.07126 -0.01513 0.04250
 H1126 H -0.04326 0.01336 0.06880
 H1127 H 0.04320 -0.01634 -0.07131
 H1128 H 0.06883 0.01332 -0.04434
 H1129 H -0.04343 0.06871 0.01351
 H1130 H -0.07057 0.04328 -0.01593
 H1131 H 0.07019 -0.04228 0.01189
 H1132 H 0.04334 -0.07135 -0.01585
 O1133 O 0.06998 0.53336 0.50128
 O1134 O 0.06019 0.53097 0.45509
 O1135 O 0.00142 0.57002 0.53329
 O1136 O -0.04201 0.56264 0.53335
 O1137 O 0.03408 0.50119 0.56972
 O1138 O 0.03156 0.45500 0.55999
 O1139 O -0.06905 0.49758 0.46591
 O1140 O -0.06147 0.54362 0.47079
 O1141 O -0.00283 0.46590 0.43077
 O1142 O 0.04485 0.46755 0.43980
 O1143 O -0.03459 0.43090 0.49771
 O1144 O -0.03152 0.44045 0.54571
 O1145 O -0.06902 0.46593 0.49761
 O1146 O -0.05949 0.46887 0.54574
 O1147 O -0.00319 0.43085 0.46587
 O1148 O 0.04527 0.44011 0.46841
 O1149 O -0.03468 0.49734 0.43099
 O1150 O -0.03104 0.54488 0.43955
 O1151 O 0.07029 0.50138 0.53272
 O1152 O 0.06053 0.45490 0.53005
 O1153 O 0.00242 0.53295 0.56995
 O1154 O -0.04477 0.52859 0.56016
 O1155 O 0.03309 0.56997 0.50157
 O1156 O 0.03060 0.56019 0.45504
 Zr1157 Zr 0.03169 0.53172 0.48538
 O1158 O 0.00844 0.50836 0.46013
 Zr1159 Zr -0.01422 0.53163 0.53197
 O1160 O -0.03973 0.50864 0.50855
 Zr1161 Zr 0.03209 0.48527 0.53145
 O1162 O 0.00850 0.45996 0.50844
 Zr1163 Zr -0.03154 0.51476 0.46849
 O1164 O -0.00834 0.54049 0.49181
 Zr1165 Zr 0.01454 0.46828 0.46838
 O1166 O 0.04048 0.49159 0.49136
 Zr1167 Zr -0.03146 0.46853 0.51490
 O1168 O -0.00784 0.49156 0.54053
 O1169 O 0.02554 0.52516 0.52523
 O1170 O -0.02537 0.47469 0.47483
 C1171 C 0.08127 0.52006 0.51963
 C1172 C 0.01993 0.58114 0.52010
 C1173 C 0.02099 0.51974 0.58094
 C1174 C -0.07989 0.47861 0.47863
 C1175 C -0.02198 0.47842 0.41996
 C1176 C -0.02220 0.41999 0.47854
 H1177 H 0.01277 0.51252 0.44164
 H1178 H 0.01270 0.44145 0.51272
 H1179 H 0.03685 0.53647 0.53640
 H1180 H -0.05824 0.51305 0.51260
 H1181 H -0.05346 0.55945 0.47897
 H1182 H -0.05750 0.55702 0.52294
 H1183 H 0.04258 0.42828 0.48364
 H1184 H 0.06903 0.45606 0.51256
 H1185 H -0.01528 0.54245 0.42841
 H1186 H 0.01313 0.56875 0.45610
 H1187 H -0.01613 0.42878 0.54319
 H1188 H 0.01397 0.45562 0.56833
 H1189 H 0.06848 0.51333 0.45576
 H1190 H 0.04328 0.48372 0.42906
 H1191 H -0.04190 0.51194 0.56989
 H1192 H -0.07121 0.48419 0.54301
 O1193 O 0.49819 -0.03367 0.43025
 O1194 O 0.54442 -0.03152 0.44012
 O1195 O 0.46636 -0.07031 0.49870
 O1196 O 0.46676 -0.06294 0.54244
 O1197 O 0.42975 -0.00173 0.46626
 O1198 O 0.43934 0.04460 0.46920
 O1199 O 0.53410 0.00259 0.56919
 O1200 O 0.52920 -0.04349 0.56197
 O1201 O 0.56865 0.03403 0.50261
 O1202 O 0.55932 0.03137 0.45465
 O1203 O 0.50211 0.06897 0.53411
 O1204 O 0.45397 0.05924 0.53177
 O1205 O 0.50249 0.03428 0.56919
 O1206 O 0.45458 0.03142 0.56030
 O1207 O 0.53392 0.06879 0.50262
 O1208 O 0.53086 0.05930 0.45447
 O1209 O 0.56866 0.00249 0.53441
 O1210 O 0.55999 -0.04519 0.53127
 O1211 O 0.46672 -0.00170 0.43007
 O1212 O 0.46897 0.04481 0.43996
 O1213 O 0.42960 -0.03334 0.49802
 O1214 O 0.43947 -0.02892 0.54518
 O1215 O 0.49778 -0.07026 0.46676
 O1216 O 0.54419 -0.06082 0.46979
 Zr1217 Zr 0.51407 -0.03213 0.46855
 O1218 O 0.53940 -0.00877 0.49165
 Zr1219 Zr 0.46766 -0.03193 0.51462
 O1220 O 0.49118 -0.00881 0.54004
 Zr1221 Zr 0.46793 0.01436 0.46831
 O1222 O 0.49112 0.03968 0.49166
 Zr1223 Zr 0.53118 -0.01493 0.53173
 O1224 O 0.50779 -0.04077 0.50866
 Zr1225 Zr 0.53110 0.03126 0.48532
 O1226 O 0.50793 0.00794 0.45962
 Zr1227 Zr 0.48490 0.03130 0.53172
 O1228 O 0.45911 0.00817 0.50833
 O1229 O 0.47427 -0.02549 0.47485
 O1230 O 0.52486 0.02508 0.52537
 C1231 C 0.47982 -0.02036 0.41904
 C1232 C 0.47927 -0.08144 0.47991
 C1233 C 0.41853 -0.02032 0.47929
 C1234 C 0.52159 0.02175 0.58006
 C1235 C 0.57951 0.02145 0.52166
 C1236 C 0.52119 0.07974 0.52150
 H1237 H 0.55786 -0.01298 0.48726
 H1238 H 0.48683 0.05818 0.48740
 H1239 H 0.46309 -0.03677 0.46352
 H1240 H 0.48728 -0.01310 0.55862
 H1241 H 0.52064 -0.05926 0.55425
 H1242 H 0.47664 -0.05697 0.55815
 H1243 H 0.51571 0.07120 0.45727
 H1244 H 0.48640 0.04372 0.43132
 H1245 H 0.57111 -0.04284 0.51548
 H1246 H 0.54303 -0.06931 0.48730
 H1247 H 0.45632 0.07077 0.51627
 H1248 H 0.43076 0.04358 0.48667
 H1249 H 0.54381 -0.01390 0.43181
 H1250 H 0.57084 0.01585 0.45705
 H1251 H 0.42999 -0.01208 0.54252
 H1252 H 0.45689 0.01568 0.57153
 O1253 O 0.56957 0.53338 0.00161
 O1254 O 0.56009 0.53102 -0.04463
 O1255 O 0.50086 0.56989 0.03311
 O1256 O 0.45728 0.56245 0.03262
 O1257 O 0.53306 0.50127 0.06995
 O1258 O 0.53082 0.45499 0.06021
 O1259 O 0.43097 0.49724 -0.03499
 O1260 O 0.43820 0.54320 -0.02973
 O1261 O 0.49751 0.46575 -0.06927
 O1262 O 0.54534 0.46792 -0.05979
 O1263 O 0.46558 0.43061 -0.00281
 O1264 O 0.46796 0.44003 0.04513
 O1265 O 0.43076 0.46582 -0.00311
 O1266 O 0.43998 0.46831 0.04510
 O1267 O 0.49726 0.43065 -0.03438
 O1268 O 0.54544 0.44010 -0.03150
 O1269 O 0.46568 0.49727 -0.06930
 O1270 O 0.46901 0.54484 -0.06059
 O1271 O 0.56974 0.50148 0.03313
 O1272 O 0.56010 0.45496 0.03061
 O1273 O 0.50158 0.53320 0.06987
 O1274 O 0.45458 0.52841 0.05990
 O1275 O 0.53282 0.56983 0.00168
 O1276 O 0.53037 0.56013 -0.04482
 Zr1277 Zr 0.53142 0.53164 -0.01450
 O1278 O 0.50842 0.50827 -0.03990
 Zr1279 Zr 0.48518 0.53151 0.03178
 O1280 O 0.45990 0.50839 0.00818
 Zr1281 Zr 0.53157 0.48526 0.03166
 O1282 O 0.50829 0.45988 0.00839
 Zr1283 Zr 0.46837 0.51457 -0.03179
 O1284 O 0.49134 0.54037 -0.00833
 Zr1285 Zr 0.51465 0.46821 -0.03161
 O1286 O 0.54030 0.49156 -0.00837
 Zr1287 Zr 0.46824 0.46828 0.01448
 O1288 O 0.49154 0.49141 0.04035
 O1289 O 0.52498 0.52509 0.02532
 O1290 O 0.47464 0.47450 -0.02550
 C1291 C 0.58076 0.52017 0.02007
 C1292 C 0.51952 0.58098 0.02010
 C1293 C 0.52001 0.51995 0.08104
 C1294 C 0.42000 0.47830 -0.02233
 C1295 C 0.47849 0.47837 -0.08015
 C1296 C 0.47823 0.41969 -0.02183
 H1297 H 0.51288 0.51248 -0.05835
 H1298 H 0.51255 0.44137 0.01267
 H1299 H 0.53621 0.53641 0.03656
 H1300 H 0.44134 0.51271 0.01209
 H1301 H 0.44598 0.55903 -0.02133
 H1302 H 0.44164 0.55648 0.02264
 H1303 H 0.54278 0.42834 -0.01621
 H1304 H 0.56861 0.45598 0.01311
 H1305 H 0.48480 0.54242 -0.07169
 H1306 H 0.51294 0.56877 -0.04372
 H1307 H 0.48367 0.42874 0.04300
 H1308 H 0.51318 0.45564 0.06844
 H1309 H 0.56839 0.51339 -0.04398
 H1310 H 0.54330 0.48371 -0.07100
 H1311 H 0.45737 0.51169 0.06952
 H1312 H 0.42850 0.48384 0.04261
 O1313 O 0.82020 0.25195 0.46688
 O1314 O 0.81074 0.20544 0.46892
 O1315 O 0.75143 0.28297 0.42984
 O1316 O 0.70792 0.28257 0.43708
 O1317 O 0.78351 0.32012 0.49864
 O1318 O 0.78087 0.31044 0.54499
 O1319 O 0.68149 0.21514 0.50235
 O1320 O 0.68890 0.22020 0.45626
 O1321 O 0.74796 0.18084 0.53396
 O1322 O 0.79601 0.19042 0.53164
 O1323 O 0.71624 0.24748 0.56891
 O1324 O 0.71856 0.29565 0.55930
 O1325 O 0.68136 0.24704 0.53391
 O1326 O 0.69017 0.29502 0.53134
 O1327 O 0.74791 0.21581 0.56896
 O1328 O 0.79589 0.21869 0.55972
 O1329 O 0.71610 0.18071 0.50243
 O1330 O 0.71961 0.18910 0.45494
 O1331 O 0.82009 0.28379 0.49860
 O1332 O 0.81046 0.28099 0.54498
 O1333 O 0.75197 0.31991 0.46673
 O1334 O 0.70487 0.30970 0.47116
 O1335 O 0.78360 0.25171 0.43000
 O1336 O 0.78127 0.20531 0.43955
 Zr1337 Zr 0.78207 0.23560 0.46819
 O1338 O 0.75903 0.21014 0.49141
 Zr1339 Zr 0.73568 0.28175 0.46817
 O1340 O 0.71043 0.25818 0.49120
 Zr1341 Zr 0.78196 0.28190 0.51462
 O1342 O 0.75876 0.25858 0.53984
 Zr1343 Zr 0.71894 0.21816 0.48506
 O1344 O 0.74196 0.24159 0.45937
 Zr1345 Zr 0.76521 0.21852 0.53146
 O1346 O 0.79084 0.24183 0.50829
 Zr1347 Zr 0.71874 0.26466 0.53130
 O1348 O 0.74195 0.29052 0.50826
 O1349 O 0.77547 0.27542 0.47476
 O1350 O 0.72520 0.22463 0.52509
 C1351 C 0.83122 0.27067 0.48002
 C1352 C 0.77019 0.27002 0.41878
 C1353 C 0.77044 0.33113 0.47998
 C1354 C 0.67060 0.22787 0.52132
 C1355 C 0.72886 0.16992 0.52139
 C1356 C 0.72893 0.22850 0.57980
 H1357 H 0.76351 0.19167 0.48720
 H1358 H 0.76298 0.26293 0.55835
 H1359 H 0.78667 0.28666 0.46347
 H1360 H 0.69187 0.26204 0.48682
 H1361 H 0.69682 0.22835 0.44043
 H1362 H 0.69239 0.27233 0.44283
 H1363 H 0.79342 0.23426 0.57121
 H1364 H 0.81908 0.26354 0.54389
 H1365 H 0.73547 0.17809 0.45736
 H1366 H 0.76370 0.20608 0.43115
 H1367 H 0.73391 0.29322 0.57104
 H1368 H 0.76336 0.31892 0.54398
 H1369 H 0.81909 0.20623 0.48653
 H1370 H 0.79377 0.17894 0.51603
 H1371 H 0.70763 0.31948 0.48783
 H1372 H 0.67891 0.29261 0.51561
 O1373 O 0.75122 0.78396 -0.07024
 O1374 O 0.70509 0.78168 -0.06072
 O1375 O 0.78315 0.82018 -0.00130
 O1376 O 0.78280 0.81273 0.04218
 O1377 O 0.81950 0.75144 -0.03401
 O1378 O 0.80968 0.70524 -0.03195
 O1379 O 0.71542 0.74775 0.06859
 O1380 O 0.72026 0.79375 0.06126
 O1381 O 0.68057 0.71621 0.00195
 O1382 O 0.68979 0.71849 -0.04603
 O1383 O 0.74716 0.68107 0.03342
 O1384 O 0.79495 0.69027 0.03117
 O1385 O 0.74715 0.71614 0.06851
 O1386 O 0.79526 0.71871 0.05903
 O1387 O 0.71538 0.68110 0.00184
 O1388 O 0.71812 0.69060 -0.04628
 O1389 O 0.68084 0.74750 0.03411
 O1390 O 0.68932 0.79521 0.03050
 O1391 O 0.78263 0.75194 -0.07057
 O1392 O 0.77993 0.70533 -0.06110
 O1393 O 0.81967 0.78320 -0.00225
 O1394 O 0.80976 0.77851 0.04488
 O1395 O 0.75144 0.82036 -0.03307
 O1396 O 0.70491 0.81063 -0.03073
 Zr1397 Zr 0.73523 0.78215 -0.03199
 O1398 O 0.70990 0.75877 -0.00899
 Zr1399 Zr 0.78167 0.78178 0.01419
 O1400 O 0.75817 0.75876 0.03946
 Zr1401 Zr 0.78123 0.73561 -0.03246
 O1402 O 0.75810 0.71030 -0.00915
 Zr1403 Zr 0.71819 0.76500 0.03111
 O1404 O 0.74158 0.79076 0.00816
 Zr1405 Zr 0.71810 0.71870 -0.01538
 O1406 O 0.74120 0.74205 -0.04105
 Zr1407 Zr 0.76443 0.71867 0.03094
 O1408 O 0.79017 0.74170 0.00760
 O1409 O 0.77502 0.77547 -0.02566
 O1410 O 0.72445 0.72494 0.02467
 C1411 C 0.76962 0.77071 -0.08152
 C1412 C 0.77000 0.83140 -0.01979
 C1413 C 0.83069 0.76998 -0.02082
 C1414 C 0.72815 0.72879 0.07941
 C1415 C 0.66989 0.72866 0.02123
 C1416 C 0.72812 0.67021 0.02077
 H1417 H 0.69144 0.76300 -0.01339
 H1418 H 0.76236 0.69179 -0.01346
 H1419 H 0.78623 0.78679 -0.03686
 H1420 H 0.76217 0.76307 0.05804
 H1421 H 0.72861 0.80956 0.05345
 H1422 H 0.77256 0.80694 0.05768
 H1423 H 0.73355 0.67899 -0.04381
 H1424 H 0.76252 0.70662 -0.06977
 H1425 H 0.67772 0.79235 0.01510
 H1426 H 0.70595 0.81906 -0.01316
 H1427 H 0.79287 0.67912 0.01530
 H1428 H 0.81802 0.70583 -0.01432
 H1429 H 0.70557 0.76399 -0.06897
 H1430 H 0.67857 0.73426 -0.04387
 H1431 H 0.81959 0.76195 0.04181
 H1432 H 0.79276 0.73416 0.07068
 O1433 O 1.00152 0.18002 0.21665
 O1434 O 0.95533 0.18975 0.21850
 O1435 O 1.03330 0.24875 0.17990
 O1436 O 1.03255 0.29245 0.18711
 O1437 O 1.07002 0.21684 0.24857
 O1438 O 1.06038 0.21926 0.29474
 O1439 O 0.96570 0.31919 0.25221
 O1440 O 0.97012 0.31152 0.20629
 O1441 O 0.93098 0.25226 0.28405
 O1442 O 0.94036 0.20455 0.28180
 O1443 O 0.99763 0.28439 0.31888
 O1444 O 1.04569 0.28200 0.30930
 O1445 O 0.99748 0.31932 0.28381
 O1446 O 1.04523 0.31029 0.28137
 O1447 O 0.96616 0.25249 0.31902
 O1448 O 0.96901 0.20428 0.30935
 O1449 O 0.93094 0.28414 0.25259
 O1450 O 0.93928 0.28088 0.20507
 O1451 O 1.03326 0.18014 0.24838
 O1452 O 1.03078 0.18993 0.29483
 O1453 O 1.06995 0.24841 0.21674
 O1454 O 1.05986 0.29549 0.22112
 O1455 O 1.00189 0.21667 0.17988
 O1456 O 0.95540 0.21935 0.18937
 Zr1457 Zr 0.98561 0.21833 0.21800
 O1458 O 0.96029 0.24138 0.24137
 Zr1459 Zr 1.03185 0.26468 0.21815
 O1460 O 1.00835 0.29001 0.24120
 Zr1461 Zr 1.03180 0.21837 0.26447
 O1462 O 1.00864 0.24170 0.28976
 Zr1463 Zr 0.96835 0.28152 0.23511
 O1464 O 0.99173 0.25848 0.20932
 Zr1465 Zr 0.96864 0.23522 0.28142
 O1466 O 0.99178 0.20954 0.25809
 Zr1467 Zr 1.01479 0.28177 0.28128
 O1468 O 1.04054 0.25843 0.25821
 O1469 O 1.02540 0.22483 0.22463
 O1470 O 0.97477 0.27533 0.27515
 C1471 C 1.02004 0.16893 0.22988
 C1472 C 1.02037 0.22996 0.16879
 C1473 C 1.08111 0.22996 0.23000
 C1474 C 0.97851 0.33016 0.27111
 C1475 C 0.92008 0.27128 0.27145
 C1476 C 0.97883 0.27155 0.32985
 H1477 H 0.94184 0.23690 0.23718
 H1478 H 1.01301 0.23748 0.30825
 H1479 H 1.03663 0.21354 0.21340
 H1480 H 1.01227 0.30858 0.23683
 H1481 H 0.97852 0.30367 0.19052
 H1482 H 1.02246 0.30806 0.19298
 H1483 H 0.98429 0.20702 0.32113
 H1484 H 1.01341 0.18115 0.29363
 H1485 H 0.92837 0.26491 0.20736
 H1486 H 0.95644 0.23688 0.18088
 H1487 H 1.04318 0.26670 0.32109
 H1488 H 1.06862 0.23694 0.29407
 H1489 H 0.95589 0.18147 0.23613
 H1490 H 0.92932 0.20637 0.26586
 H1491 H 1.06964 0.29275 0.23777
 H1492 H 1.04306 0.32136 0.26550
 O1493 O 0.67997 1.03322 0.74791
 O1494 O 0.68926 1.03125 0.79417
 O1495 O 0.74883 1.06975 0.71651
 O1496 O 0.79232 1.06250 0.71729
 O1497 O 0.71679 1.00083 0.67981
 O1498 O 0.71909 0.95462 0.68967
 O1499 O 0.81871 0.99788 0.78472
 O1500 O 0.81110 1.04370 0.78011
 O1501 O 0.75166 0.96621 0.81934
 O1502 O 0.70413 0.96794 0.80958
 O1503 O 0.78411 0.93088 0.75294
 O1504 O 0.78195 0.93992 0.70497
 O1505 O 0.81894 0.96614 0.75300
 O1506 O 0.80973 0.96838 0.70493
 O1507 O 0.75232 0.93079 0.78438
 O1508 O 0.70406 0.94022 0.78106
 O1509 O 0.78365 0.99761 0.81930
 O1510 O 0.78025 1.04513 0.81066
 O1511 O 0.68000 1.00125 0.71634
 O1512 O 0.68964 0.95471 0.71911
 O1513 O 0.74835 1.03272 0.67994
 O1514 O 0.79535 1.02827 0.69024
 O1515 O 0.71690 1.06988 0.74797
 O1516 O 0.71896 1.06030 0.79451
 Zr1517 Zr 0.71809 1.03171 0.76418
 O1518 O 0.74101 1.00847 0.78970
 Zr1519 Zr 0.76452 1.03143 0.71811
 O1520 O 0.78971 1.00854 0.74184
 Zr1521 Zr 0.71815 0.98507 0.71813
 O1522 O 0.74140 0.95987 0.74150
 Zr1523 Zr 0.78110 1.01483 0.78179
 O1524 O 0.75820 1.04047 0.75819
 Zr1525 Zr 0.73488 0.96833 0.78148
 O1526 O 0.70929 0.99155 0.75813
 Zr1527 Zr 0.78145 0.96839 0.73553
 O1528 O 0.75820 0.99129 0.70955
 O1529 O 0.72469 1.02497 0.72441
 O1530 O 0.77494 0.97470 0.77552
 C1531 C 0.66888 1.01994 0.72937
 C1532 C 0.73023 1.08094 0.72952
 C1533 C 0.72994 1.01941 0.66874
 C1534 C 0.82972 0.97897 0.77200
 C1535 C 0.77067 0.97889 0.83024
 C1536 C 0.77145 0.91993 0.77190
 H1537 H 0.73646 1.01276 0.80813
 H1538 H 0.73722 0.94133 0.73721
 H1539 H 0.71351 1.03622 0.71311
 H1540 H 0.80826 1.01293 0.73797
 H1541 H 0.80335 1.05939 0.77150
 H1542 H 0.80782 1.05675 0.72758
 H1543 H 0.70686 0.92839 0.76581
 H1544 H 0.68094 0.95592 0.73650
 H1545 H 0.76449 1.04261 0.82177
 H1546 H 0.73644 1.06889 0.79357
 H1547 H 0.76625 0.92858 0.70705
 H1548 H 0.73675 0.95529 0.68149
 H1549 H 0.68093 1.01361 0.79350
 H1550 H 0.70566 0.98413 0.82034
 H1551 H 0.79255 1.01158 0.68050
 H1552 H 0.82119 0.98396 0.70742
 O1553 O 0.68018 0.53347 0.24801
 O1554 O 0.68962 0.53150 0.29419
 O1555 O 0.74910 0.57038 0.21680
 O1556 O 0.79249 0.56302 0.21688
 O1557 O 0.71688 0.50146 0.17959
 O1558 O 0.71925 0.45531 0.18921
 O1559 O 0.81888 0.49821 0.28466
 O1560 O 0.81142 0.54394 0.28000
 O1561 O 0.75202 0.46622 0.31885
 O1562 O 0.70430 0.46829 0.30918
 O1563 O 0.78414 0.43124 0.25224
 O1564 O 0.78242 0.44058 0.20450
 O1565 O 0.81911 0.46661 0.25281
 O1566 O 0.81000 0.46911 0.20460
 O1567 O 0.75225 0.43109 0.28363
 O1568 O 0.70423 0.44060 0.28070
 O1569 O 0.78383 0.49781 0.31905
 O1570 O 0.78033 0.54553 0.31041
 O1571 O 0.68014 0.50160 0.21634
 O1572 O 0.68997 0.45512 0.21870
 O1573 O 0.74837 0.53342 0.17980
 O1574 O 0.79549 0.52890 0.19007
 O1575 O 0.71700 0.57027 0.24809
 O1576 O 0.71920 0.56062 0.29447
 Zr1577 Zr 0.71833 0.53206 0.26410
 O1578 O 0.74124 0.50876 0.28953
 Zr1579 Zr 0.76467 0.53199 0.21795
 O1580 O 0.78990 0.50905 0.24162
 Zr1581 Zr 0.71835 0.48560 0.21784
 O1582 O 0.74163 0.46037 0.24108
 Zr1583 Zr 0.78131 0.51518 0.28160
 O1584 O 0.75842 0.54086 0.25808
 Zr1585 Zr 0.73508 0.46869 0.28109
 O1586 O 0.70949 0.49196 0.25785
 Zr1587 Zr 0.78168 0.46892 0.23516
 O1588 O 0.75839 0.49188 0.20926
 O1589 O 0.72484 0.52550 0.22427
 O1590 O 0.77514 0.47507 0.27517
 C1591 C 0.66903 0.52016 0.22954
 C1592 C 0.73045 0.58148 0.22983
 C1593 C 0.73000 0.52007 0.16855
 C1594 C 0.82987 0.47933 0.27190
 C1595 C 0.77095 0.47892 0.32985
 C1596 C 0.77126 0.42025 0.27101
 H1597 H 0.73669 0.51297 0.30798
 H1598 H 0.73743 0.44186 0.23668
 H1599 H 0.71362 0.53679 0.21304
 H1600 H 0.80846 0.51347 0.23778
 H1601 H 0.80373 0.55965 0.27137
 H1602 H 0.80785 0.55744 0.22746
 H1603 H 0.70686 0.42895 0.26527
 H1604 H 0.68122 0.45625 0.23608
 H1605 H 0.76476 0.54277 0.32174
 H1606 H 0.73672 0.56911 0.29362
 H1607 H 0.76647 0.42953 0.20617
 H1608 H 0.73689 0.45604 0.18098
 H1609 H 0.68137 0.51382 0.29358
 H1610 H 0.70623 0.48413 0.32042
 H1611 H 0.79262 0.51231 0.18018
 H1612 H 0.82154 0.48461 0.20726
 O1613 O 0.50230 0.17947 0.71547
 O1614 O 0.45601 0.18849 0.71833
 O1615 O 0.53315 0.24872 0.67956
 O1616 O 0.53345 0.29200 0.68723
 O1617 O 0.57024 0.21611 0.74845
 O1618 O 0.56028 0.21803 0.79455
 O1619 O 0.46580 0.31834 0.75178
 O1620 O 0.47032 0.31067 0.70596
 O1621 O 0.43104 0.25151 0.78358
 O1622 O 0.44034 0.20381 0.78146
 O1623 O 0.49782 0.28352 0.81866
 O1624 O 0.54524 0.28164 0.80963
 O1625 O 0.49743 0.31840 0.78353
 O1626 O 0.54580 0.30888 0.78069
 O1627 O 0.46627 0.25170 0.81873
 O1628 O 0.46897 0.20344 0.80900
 O1629 O 0.43110 0.28355 0.75229
 O1630 O 0.43955 0.27988 0.70461
 O1631 O 0.53369 0.17928 0.74751
 O1632 O 0.53063 0.18870 0.79420
 O1633 O 0.57009 0.24764 0.71658
 O1634 O 0.55993 0.29489 0.72142
 O1635 O 0.50169 0.21670 0.67936
 O1636 O 0.45531 0.21837 0.68933
 Zr1637 Zr 0.48583 0.21755 0.71765
 O1638 O 0.46043 0.24055 0.74102
 Zr1639 Zr 0.53204 0.26401 0.71804
 O1640 O 0.50844 0.28926 0.74101
 Zr1641 Zr 0.53191 0.21739 0.76408
 O1642 O 0.50875 0.24076 0.78939
 Zr1643 Zr 0.46848 0.28068 0.73479
 O1644 O 0.49195 0.25774 0.70908
 Zr1645 Zr 0.46872 0.23438 0.78108
 O1646 O 0.49189 0.20866 0.75771
 Zr1647 Zr 0.51487 0.28088 0.78105
 O1648 O 0.54067 0.25751 0.75807
 O1649 O 0.52561 0.22411 0.72426
 O1650 O 0.47486 0.27448 0.77485
 C1651 C 0.52089 0.16826 0.72855
 C1652 C 0.52001 0.23021 0.66829
 C1653 C 0.58131 0.22928 0.72991
 C1654 C 0.47851 0.32926 0.77075
 C1655 C 0.42020 0.27066 0.77110
 C1656 C 0.47897 0.27074 0.82961
 H1657 H 0.44198 0.23607 0.73680
 H1658 H 0.51309 0.23652 0.80788
 H1659 H 0.53688 0.21303 0.71285
 H1660 H 0.51237 0.30784 0.73667
 H1661 H 0.47881 0.30283 0.69024
 H1662 H 0.52269 0.30728 0.69274
 H1663 H 0.48436 0.20604 0.82067
 H1664 H 0.51326 0.17996 0.79280
 H1665 H 0.42818 0.26430 0.70732
 H1666 H 0.45610 0.23594 0.68091
 H1667 H 0.54374 0.26543 0.82031
 H1668 H 0.56857 0.23569 0.79404
 H1669 H 0.45690 0.18010 0.73590
 H1670 H 0.42967 0.20535 0.76523
 H1671 H 0.56999 0.29175 0.73783
 H1672 H 0.54277 0.32095 0.76571
 O1673 O 0.25185 0.78349 0.43005
 O1674 O 0.20566 0.78140 0.43966
 O1675 O 0.28345 0.82048 0.49887
 O1676 O 0.28306 0.81322 0.54245
 O1677 O 0.32029 0.75163 0.46670
 O1678 O 0.31060 0.70542 0.46910
 O1679 O 0.21601 0.74809 0.56904
 O1680 O 0.22057 0.79404 0.56149
 O1681 O 0.18125 0.71619 0.50220
 O1682 O 0.19074 0.71839 0.45432
 O1683 O 0.24791 0.68125 0.53412
 O1684 O 0.29587 0.69089 0.53188
 O1685 O 0.24774 0.71648 0.56911
 O1686 O 0.29560 0.71908 0.55999
 O1687 O 0.21629 0.68113 0.50238
 O1688 O 0.21900 0.69050 0.45433
 O1689 O 0.18122 0.74777 0.53408
 O1690 O 0.18971 0.79526 0.53089
 O1691 O 0.28348 0.75170 0.43002
 O1692 O 0.28102 0.70526 0.43975
 O1693 O 0.32024 0.78357 0.49828
 O1694 O 0.31025 0.77922 0.54532
 O1695 O 0.25201 0.82034 0.46685
 O1696 O 0.20562 0.81066 0.46923
 Zr1697 Zr 0.23589 0.78211 0.46829
 O1698 O 0.21057 0.75878 0.49134
 Zr1699 Zr 0.28217 0.78214 0.51459
 O1700 O 0.25868 0.75909 0.53989
 Zr1701 Zr 0.28205 0.73570 0.46823
 O1702 O 0.25888 0.71042 0.49152
 Zr1703 Zr 0.21869 0.76516 0.53144
 O1704 O 0.24205 0.79092 0.50843
 Zr1705 Zr 0.21888 0.71871 0.48512
 O1706 O 0.24203 0.74198 0.45946
 Zr1707 Zr 0.26505 0.71896 0.53159
 O1708 O 0.29080 0.74203 0.50828
 O1709 O 0.27569 0.77559 0.47475
 O1710 O 0.22504 0.72507 0.52520
 C1711 C 0.27030 0.77022 0.41889
 C1712 C 0.27039 0.83156 0.48022
 C1713 C 0.33139 0.77025 0.47985
 C1714 C 0.22879 0.72920 0.57997
 C1715 C 0.17034 0.72886 0.52120
 C1716 C 0.22899 0.67028 0.52135
 H1717 H 0.19212 0.76297 0.48687
 H1718 H 0.26321 0.69191 0.48728
 H1719 H 0.28690 0.78687 0.46350
 H1720 H 0.26262 0.76351 0.55845
 H1721 H 0.22907 0.80977 0.55369
 H1722 H 0.27299 0.80738 0.55804
 H1723 H 0.23445 0.67893 0.45686
 H1724 H 0.26356 0.70629 0.43115
 H1725 H 0.17883 0.79301 0.51489
 H1726 H 0.20661 0.81923 0.48674
 H1727 H 0.29364 0.67939 0.51628
 H1728 H 0.31893 0.70623 0.48672
 H1729 H 0.20631 0.76376 0.43133
 H1730 H 0.17946 0.73414 0.45641
 H1731 H 0.31994 0.76252 0.54256
 H1732 H 0.29326 0.73481 0.57128
 O1733 O 0.25202 0.28369 0.93020
 O1734 O 0.20584 0.28156 0.93989
 O1735 O 0.28360 0.32071 0.99904
 O1736 O 0.28346 0.31341 1.04262
 O1737 O 0.32054 0.25190 0.96685
 O1738 O 0.31089 0.20570 0.96912
 O1739 O 0.21627 0.24816 1.06919
 O1740 O 0.22102 0.29419 1.06176
 O1741 O 0.18149 0.21650 1.00243
 O1742 O 0.19098 0.21861 0.95455
 O1743 O 0.24838 0.18150 1.03423
 O1744 O 0.29629 0.19124 1.03196
 O1745 O 0.24794 0.21648 1.06921
 O1746 O 0.29590 0.21940 1.06019
 O1747 O 0.21669 0.18136 1.00256
 O1748 O 0.21915 0.19069 0.95457
 O1749 O 0.18144 0.24815 1.03424
 O1750 O 0.19011 0.29556 1.03118
 O1751 O 0.28367 0.25192 0.93015
 O1752 O 0.28127 0.20547 0.93992
 O1753 O 0.32050 0.28397 0.99830
 O1754 O 0.31062 0.27936 1.04537
 O1755 O 0.25219 0.32049 0.96699
 O1756 O 0.20585 0.31085 0.96943
 Zr1757 Zr 0.23611 0.28229 0.96848
 O1758 O 0.21082 0.25900 0.99156
 Zr1759 Zr 0.28246 0.28237 1.01473
 O1760 O 0.25900 0.25933 1.04007
 Zr1761 Zr 0.28231 0.23594 0.96837
 O1762 O 0.25916 0.21067 0.99168
 Zr1763 Zr 0.21900 0.26538 1.03166
 O1764 O 0.24233 0.29112 1.00860
 Zr1765 Zr 0.21914 0.21894 0.98533
 O1766 O 0.24227 0.24219 0.95963
 Zr1767 Zr 0.26539 0.21921 1.03175
 O1768 O 0.29111 0.24227 1.00840
 O1769 O 0.27593 0.27581 0.97489
 O1770 O 0.22536 0.22530 1.02540
 C1771 C 0.27046 0.27042 0.91903
 C1772 C 0.27055 0.33172 0.98035
 C1773 C 0.33164 0.27061 0.97990
 C1774 C 0.22895 0.22915 1.08006
 C1775 C 0.17054 0.22926 1.02135
 C1776 C 0.22947 0.17053 1.02148
 H1777 H 0.19237 0.26320 0.98711
 H1778 H 0.26351 0.19216 0.98743
 H1779 H 0.28711 0.28709 0.96362
 H1780 H 0.26294 0.26372 1.05864
 H1781 H 0.22950 0.30993 1.05397
 H1782 H 0.27344 0.30755 1.05824
 H1783 H 0.23472 0.17926 0.95694
 H1784 H 0.26383 0.20651 0.93129
 H1785 H 0.17926 0.29339 1.01514
 H1786 H 0.20688 0.31945 0.98693
 H1787 H 0.29400 0.17966 1.01643
 H1788 H 0.31918 0.20641 0.98676
 H1789 H 0.20653 0.26395 0.93150
 H1790 H 0.17969 0.23434 0.95666
 H1791 H 0.32030 0.26266 1.04254
 H1792 H 0.29338 0.23500 1.07163
   
