data_POSCAR
  _audit_creation_date              2014-09-24
  _audit_creation_method            'ToBaCCo'
  _symmetry_space_group_name_H-M    'P1'
  _symmetry_Int_Tables_number       1
  _symmetry_cell_setting            triclinic
  loop_
  _symmetry_equiv_pos_as_xyz
 x,y,z
_cell_length_a 50.0860
_cell_length_b 48.7746
_cell_length_c 48.6117
_cell_angle_alpha 90.139100
_cell_angle_beta 90.459100
_cell_angle_gamma 90.664900
loop_
  _atom_site_label
  _atom_site_type_symbol
  _atom_site_fract_x
  _atom_site_fract_y
  _atom_site_fract_z
C1 C 0.20242 0.19349 0.23598
 C2 C 0.17975 0.19704 0.25218
 C3 C 0.16042 0.21665 0.24525
 C4 C 0.16423 0.23282 0.22158
 C5 C 0.18666 0.22915 0.20484
 C6 C 0.20585 0.20943 0.21213
 C7 C 0.22164 0.17407 0.24324
 C8 C 0.24435 0.17024 0.22692
 C9 C 0.24746 0.18599 0.20294
 C10 C 0.22842 0.20554 0.19551
 C11 C 0.23153 0.22109 0.17156
 C12 C 0.21250 0.24071 0.16393
 C13 C 0.19018 0.24475 0.18086
 H14 H 0.17701 0.18411 0.27005
 H15 H 0.14988 0.24838 0.21615
 H16 H 0.21906 0.16214 0.26183
 H17 H 0.26450 0.18279 0.18977
 H18 H 0.24867 0.21759 0.15860
 H19 H 0.17560 0.26012 0.17549
 C20 C 0.70207 0.69166 0.73602
 C21 C 0.67977 0.69404 0.75304
 C22 C 0.65976 0.71326 0.74725
 C23 C 0.66256 0.73036 0.72414
 C24 C 0.68464 0.72796 0.70675
 C25 C 0.70449 0.70854 0.71269
 C26 C 0.72188 0.67246 0.74191
 C27 C 0.74414 0.66967 0.72470
 C28 C 0.74632 0.68650 0.70131
 C29 C 0.72667 0.70591 0.69522
 C30 C 0.72875 0.72260 0.67184
 C31 C 0.70891 0.74187 0.66561
 C32 C 0.68702 0.74451 0.68335
 H33 H 0.67780 0.68052 0.77059
 H34 H 0.64768 0.74569 0.71968
 H35 H 0.72006 0.65980 0.76010
 H36 H 0.76304 0.68420 0.68752
 H37 H 0.74599 0.72073 0.65868
 H38 H 0.67148 0.75910 0.67864
 C39 C 0.29550 0.80609 0.73553
 C40 C 0.31885 0.80359 0.75132
 C41 C 0.33738 0.78285 0.74580
 C42 C 0.33224 0.76461 0.72380
 C43 C 0.30902 0.76705 0.70760
 C44 C 0.29054 0.78782 0.71360
 C45 C 0.27697 0.82651 0.74162
 C46 C 0.25310 0.82915 0.72621
 C47 C 0.24861 0.81079 0.70403
 C48 C 0.26707 0.79031 0.69772
 C49 C 0.26232 0.77222 0.67573
 C50 C 0.28057 0.75144 0.66944
 C51 C 0.30391 0.74900 0.68556
 H52 H 0.32268 0.81805 0.76789
 H53 H 0.34603 0.74824 0.71949
 H54 H 0.28090 0.83965 0.75920
 H55 H 0.23121 0.81270 0.69089
 H56 H 0.24410 0.77405 0.66372
 H57 H 0.31831 0.73333 0.68074
 C58 C 0.79400 0.30764 0.23571
 C59 C 0.81512 0.30260 0.25416
 C60 C 0.83395 0.28187 0.24886
 C61 C 0.83108 0.26666 0.22422
 C62 C 0.81011 0.27150 0.20573
 C63 C 0.79139 0.29194 0.21146
 C64 C 0.77534 0.32810 0.24125
 C65 C 0.75393 0.33299 0.22304
 C66 C 0.75144 0.31709 0.19891
 C67 C 0.77003 0.29659 0.19299
 C68 C 0.76754 0.28055 0.16900
 C69 C 0.78625 0.26002 0.16317
 C70 C 0.80752 0.25585 0.18169
 H71 H 0.81702 0.31552 0.27219
 H72 H 0.84453 0.25007 0.21967
 H73 H 0.77725 0.33996 0.26006
 H74 H 0.73528 0.32088 0.18453
 H75 H 0.75081 0.28379 0.15519
 H76 H 0.82231 0.24043 0.17729
 C77 C 0.79730 0.69086 0.26776
 C78 C 0.82102 0.69352 0.25274
 C79 C 0.83937 0.71516 0.25814
 C80 C 0.83320 0.73407 0.27914
 C81 C 0.80983 0.73132 0.29459
 C82 C 0.79176 0.70969 0.28891
 C83 C 0.77887 0.66980 0.26168
 C84 C 0.75502 0.66701 0.27664
 C85 C 0.75004 0.68555 0.29823
 C86 C 0.76813 0.70696 0.30432
 C87 C 0.76292 0.72575 0.32552
 C88 C 0.78095 0.74739 0.33136
 C89 C 0.80433 0.74996 0.31570
 H90 H 0.82445 0.67921 0.23612
 H91 H 0.84706 0.75053 0.28433
 H92 H 0.78292 0.65583 0.24490
 H93 H 0.73216 0.68332 0.31044
 H94 H 0.74497 0.72334 0.33762
 H95 H 0.81819 0.76675 0.31975
 C96 C 0.30045 0.18769 -0.23442
 C97 C 0.32412 0.19040 -0.24958
 C98 C 0.34218 0.21244 -0.24470
 C99 C 0.33576 0.23165 -0.22403
 C100 C 0.31234 0.22904 -0.20865
 C101 C 0.29459 0.20702 -0.21382
 C102 C 0.28233 0.16612 -0.23984
 C103 C 0.25850 0.16346 -0.22481
 C104 C 0.25320 0.18258 -0.20387
 C105 C 0.27094 0.20440 -0.19842
 C106 C 0.26532 0.22375 -0.17788
 C107 C 0.28293 0.24587 -0.17265
 C108 C 0.30644 0.24825 -0.18814
 H109 H 0.32770 0.17575 -0.26584
 H110 H 0.34939 0.24837 -0.21907
 H111 H 0.28659 0.15163 -0.25612
 H112 H 0.23530 0.18047 -0.19165
 H113 H 0.24733 0.22142 -0.16583
 H114 H 0.32003 0.26536 -0.18450
 C115 C 0.71054 0.30992 -0.23817
 C116 C 0.68972 0.30321 -0.25662
 C117 C 0.67243 0.28057 -0.25178
 C118 C 0.67673 0.26488 -0.22776
 C119 C 0.69731 0.27143 -0.20915
 C120 C 0.71436 0.29392 -0.21439
 C121 C 0.72748 0.33257 -0.24301
 C122 C 0.74820 0.33938 -0.22437
 C123 C 0.75191 0.32304 -0.20086
 C124 C 0.73519 0.30046 -0.19576
 C125 C 0.73880 0.28452 -0.17209
 C126 C 0.72169 0.26220 -0.16660
 C127 C 0.70106 0.25570 -0.18533
 H128 H 0.68668 0.31645 -0.27414
 H129 H 0.66457 0.24689 -0.22367
 H130 H 0.72466 0.34470 -0.26142
 H131 H 0.76756 0.32821 -0.18615
 H132 H 0.75467 0.28979 -0.15765
 H133 H 0.68805 0.23824 -0.18150
 C134 C 0.20423 0.81283 0.26384
 C135 C 0.18108 0.80924 0.24780
 C136 C 0.16394 0.78654 0.25182
 C137 C 0.17043 0.76720 0.27223
 C138 C 0.19355 0.77053 0.28851
 C139 C 0.21051 0.79340 0.28420
 C140 C 0.22105 0.83571 0.25990
 C141 C 0.24432 0.83973 0.27616
 C142 C 0.25035 0.81979 0.29625
 C143 C 0.23370 0.79694 0.30036
 C144 C 0.23984 0.77776 0.32075
 C145 C 0.22303 0.75502 0.32554
 C146 C 0.19988 0.75150 0.30918
 H147 H 0.17613 0.82448 0.23245
 H148 H 0.15769 0.74939 0.27530
 H149 H 0.21610 0.84981 0.24355
 H150 H 0.26751 0.82241 0.30972
 H151 H 0.25794 0.78052 0.33288
 H152 H 0.18650 0.73431 0.31283
 C153 C 0.44384 0.45939 0.48482
 C154 C 0.44798 0.43906 0.50472
 C155 C 0.47100 0.42281 0.50423
 C156 C 0.48986 0.42704 0.48331
 C157 C 0.48605 0.44736 0.46335
 C158 C 0.46299 0.46364 0.46410
 C159 C 0.42091 0.47562 0.48542
 C160 C 0.41663 0.49594 0.46540
 C161 C 0.43595 0.50009 0.44488
 C162 C 0.45909 0.48419 0.44416
 C163 C 0.47836 0.48849 0.42376
 C164 C 0.50149 0.47242 0.42295
 C165 C 0.50504 0.45175 0.44273
 H166 H 0.43340 0.43610 0.52083
 H167 H 0.50742 0.41431 0.48235
 H168 H 0.40657 0.47258 0.50173
 H169 H 0.43284 0.51554 0.42922
 H170 H 0.47521 0.50414 0.40833
 H171 H 0.52288 0.43938 0.44237
 C172 C -0.06532 -0.04826 0.97661
 C173 C -0.06199 -0.07099 0.99388
 C174 C -0.04063 -0.08910 0.99015
 C175 C -0.02223 -0.08387 0.96898
 C176 C -0.02532 -0.06123 0.95151
 C177 C -0.04691 -0.04332 0.95541
 C178 C -0.08707 -0.03071 0.98002
 C179 C -0.09106 -0.00810 0.96234
 C180 C -0.07203 -0.00325 0.94151
 C181 C -0.05025 -0.02066 0.93789
 C182 C -0.03218 -0.01612 0.91645
 C183 C -0.01087 -0.03409 0.91204
 C184 C -0.00742 -0.05646 0.92990
 H185 H -0.07648 -0.07498 1.00986
 H186 H -0.00544 -0.09735 0.96610
 H187 H -0.10039 -0.03461 0.99700
 H188 H -0.07464 0.01339 0.92709
 H189 H -0.03515 0.00103 0.90265
 H190 H 0.00916 -0.07022 0.92697
 C191 C 1.05671 0.54220 0.97954
 C192 C 1.05025 0.56272 0.99859
 C193 C 1.02726 0.57894 0.99507
 C194 C 1.01085 0.57386 0.97177
 C195 C 1.01695 0.55326 0.95276
 C196 C 1.04007 0.53751 0.95652
 C197 C 1.07973 0.52646 0.98315
 C198 C 1.08683 0.50617 0.96381
 C199 C 1.06977 0.50169 0.94090
 C200 C 1.04647 0.51699 0.93731
 C201 C 1.02926 0.51176 0.91495
 C202 C 1.00574 0.52689 0.91139
 C203 C 1.00002 0.54794 0.93020
 H204 H 1.06393 0.56650 1.01555
 H205 H 0.99261 0.58522 0.96877
 H206 H 1.09261 0.53083 1.00066
 H207 H 1.07383 0.48555 0.92625
 H208 H 1.03390 0.49546 0.90063
 H209 H 0.98238 0.56030 0.92731
 C210 C 0.56214 0.04764 0.47467
 C211 C 0.55811 0.07127 0.49067
 C212 C 0.53551 0.08768 0.48635
 C213 C 0.51677 0.08001 0.46598
 C214 C 0.52046 0.05651 0.44996
 C215 C 0.54324 0.04029 0.45425
 C216 C 0.58475 0.03129 0.47881
 C217 C 0.58913 0.00764 0.46255
 C218 C 0.56986 0.00084 0.44213
 C219 C 0.54713 0.01679 0.43800
 C220 C 0.52829 0.00960 0.41765
 C221 C 0.50547 0.02559 0.41330
 C222 C 0.50180 0.04912 0.42953
 H223 H 0.57247 0.07675 0.50660
 H224 H 0.49943 0.09263 0.46230
 H225 H 0.59837 0.03692 0.49529
 H226 H 0.57276 -0.01645 0.42855
 H227 H 0.53124 -0.00867 0.40535
 H228 H 0.48462 0.06198 0.42602
 C229 C -0.05591 0.03831 0.51936
 C230 C -0.05168 0.06003 0.50105
 C231 C -0.02924 0.07740 0.50383
 C232 C -0.01103 0.07287 0.52548
 C233 C -0.01503 0.05114 0.54396
 C234 C -0.03755 0.03376 0.54090
 C235 C -0.07806 0.02085 0.51610
 C236 C -0.08244 -0.00122 0.53416
 C237 C -0.06411 -0.00554 0.55583
 C238 C -0.04161 0.01171 0.55921
 C239 C -0.02297 0.00715 0.58042
 C240 C -0.00031 0.02429 0.58348
 C241 C 0.00333 0.04635 0.56523
 H242 H -0.06569 0.06311 0.48425
 H243 H 0.00616 0.08635 0.52810
 H244 H -0.09168 0.02422 0.49904
 H245 H -0.06735 -0.02220 0.57016
 H246 H -0.02620 -0.00964 0.59460
 H247 H 0.02084 0.05951 0.56722
 C248 C 0.43673 0.54155 0.02239
 C249 C 0.44275 0.56253 0.00377
 C250 C 0.46575 0.57928 0.00709
 C251 C 0.48259 0.57440 0.03004
 C252 C 0.47661 0.55354 0.04902
 C253 C 0.45367 0.53694 0.04507
 C254 C 0.41388 0.52514 0.01855
 C255 C 0.40754 0.50402 0.03710
 C256 C 0.42461 0.49943 0.05974
 C257 C 0.44757 0.51580 0.06386
 C258 C 0.46440 0.51155 0.08661
 C259 C 0.48705 0.52836 0.09108
 C260 C 0.49309 0.54919 0.07206
 H261 H 0.42975 0.56503 -0.01392
 H262 H 0.49990 0.58733 0.03399
 H263 H 0.40073 0.52913 0.00124
 H264 H 0.42019 0.48300 0.07401
 H265 H 0.45953 0.49555 0.10124
 H266 H 0.51076 0.56192 0.07509
 C267 C 0.55861 -0.04157 0.01952
 C268 C 0.55469 -0.06570 0.00410
 C269 C 0.53212 -0.08260 0.00843
 C270 C 0.51319 -0.07474 0.02808
 C271 C 0.51670 -0.05062 0.04345
 C272 C 0.53956 -0.03407 0.03930
 C273 C 0.58138 -0.02496 0.01565
 C274 C 0.58569 -0.00119 0.03173
 C275 C 0.56644 0.00601 0.05135
 C276 C 0.54345 -0.01009 0.05509
 C277 C 0.52439 -0.00263 0.07461
 C278 C 0.50142 -0.01890 0.07877
 C279 C 0.49783 -0.04300 0.06314
 H280 H 0.56919 -0.07123 -0.01131
 H281 H 0.49585 -0.08767 0.03179
 H282 H 0.59563 -0.03059 0.00005
 H283 H 0.56954 0.02397 0.06419
 H284 H 0.52734 0.01606 0.08641
 H285 H 0.48057 -0.05611 0.06657
 C286 C 1.05944 0.45890 0.51388
 C287 C 1.05597 0.43373 0.50024
 C288 C 1.03381 0.41647 0.50578
 C289 C 1.01508 0.42531 0.52540
 C290 C 1.01848 0.45031 0.53935
 C291 C 1.04076 0.46716 0.53364
 C292 C 1.08119 0.47610 0.50774
 C293 C 1.08484 0.50139 0.52135
 C294 C 1.06641 0.50913 0.54159
 C295 C 1.04433 0.49231 0.54765
 C296 C 1.02564 0.50034 0.56736
 C297 C 1.00325 0.48369 0.57310
 C298 C 0.99992 0.45863 0.55904
 H299 H 1.07019 0.42832 0.48454
 H300 H 0.99817 0.41238 0.53065
 H301 H 1.09508 0.46994 0.49198
 H302 H 1.06923 0.52817 0.55280
 H303 H 1.02828 0.51978 0.57794
 H304 H 0.98305 0.44536 0.56368
 C305 C 0.41429 0.02239 0.21007
 H306 H 0.41660 0.03890 0.22482
 C307 C 0.43077 0.02139 0.18712
 H308 H 0.44559 0.03743 0.18419
 C309 C 0.39210 -0.01859 0.19617
 H310 H 0.37732 -0.03438 0.20004
 C311 C 0.40813 -0.02036 0.17286
 H312 H 0.40553 -0.03765 0.15906
 N313 N 0.39524 0.00275 0.21401
 C314 C 0.33401 0.03997 0.26442
 H315 H 0.33274 0.02501 0.28077
 C316 C 0.31709 0.06248 0.26433
 H317 H 0.30293 0.06486 0.28086
 C318 C 0.35411 0.05493 0.22303
 H319 H 0.36825 0.05169 0.20673
 C320 C 0.33766 0.07782 0.22221
 H321 H 0.33930 0.09193 0.20513
 Zn322 Zn 0.37438 0.00571 0.24607
 N323 N 0.35228 0.03680 0.24416
 C324 C 0.39611 0.02959 0.29489
 N325 N 0.39810 0.00874 0.27642
 C326 C 0.41712 -0.01075 0.27916
 C327 C 0.43445 -0.01037 0.30177
 C328 C 0.41296 0.03068 0.31789
 C329 C 0.33206 -0.03027 0.23179
 C330 C 0.31399 -0.05197 0.23561
 C331 C 0.33687 -0.06289 0.27805
 C332 C 0.35445 -0.04108 0.27342
 N333 N 0.35184 -0.02532 0.25055
 H334 H 0.38135 0.04529 0.29202
 H335 H 0.41843 -0.02693 0.26398
 H336 H 0.44905 -0.02645 0.30395
 H337 H 0.41102 0.04739 0.33241
 H338 H 0.33016 -0.01713 0.21400
 H339 H 0.29855 -0.05570 0.22031
 H340 H 0.33906 -0.07477 0.29670
 H341 H 0.36975 -0.03642 0.28852
 C342 C 0.31895 0.08191 0.24315
 C343 C 0.42774 -0.00013 0.16806
 C344 C 0.31618 -0.06853 0.25913
 C345 C 0.43220 0.01031 0.32174
 C346 C 0.08566 -0.01804 0.71618
 H347 H 0.08255 -0.03504 0.73010
 C348 C 0.06909 -0.01509 0.69313
 H349 H 0.05311 -0.02985 0.68968
 C350 C 0.10974 0.02233 0.70460
 H351 H 0.12542 0.03705 0.70923
 C352 C 0.09376 0.02599 0.68130
 H353 H 0.09774 0.04334 0.66803
 N354 N 0.10567 0.00040 0.72132
 C355 C 0.16692 -0.04099 0.76935
 H356 H 0.16865 -0.02730 0.78684
 C357 C 0.18335 -0.06383 0.76758
 H358 H 0.19749 -0.06774 0.78402
 C359 C 0.14621 -0.05240 0.72679
 H360 H 0.13200 -0.04765 0.71073
 C361 C 0.16227 -0.07546 0.72416
 H362 H 0.16025 -0.08811 0.70592
 Zn363 Zn 0.12716 -0.00441 0.75316
 N364 N 0.14856 -0.03592 0.74931
 C365 C 0.10490 -0.03127 0.79956
 N366 N 0.10387 -0.00850 0.78349
 C367 C 0.08481 0.01073 0.78729
 C368 C 0.06564 0.00734 0.80777
 C369 C 0.08620 -0.03543 0.82033
 C370 C 0.17097 0.02841 0.73967
 C371 C 0.18864 0.05070 0.74105
 C372 C 0.16421 0.06785 0.78001
 C373 C 0.14711 0.04505 0.77803
 N374 N 0.15049 0.02616 0.75776
 H375 H 0.11985 -0.04660 0.79600
 H376 H 0.08410 0.02839 0.77389
 H377 H 0.05025 0.02257 0.80995
 H378 H 0.08756 -0.05365 0.83289
 H379 H 0.17332 0.01297 0.72388
 H380 H 0.20448 0.05236 0.72610
 H381 H 0.16115 0.08275 0.79618
 H382 H 0.13102 0.04265 0.79251
 C383 C 0.18105 -0.08156 0.74482
 C384 C 0.07313 0.00711 0.67518
 C385 C 0.18518 0.07101 0.76118
 C386 C 0.06593 -0.01620 0.82441
 C387 C 0.58094 0.48428 0.21827
 H388 H 0.57976 0.46687 0.23197
 C389 C 0.56146 0.48780 0.19789
 H390 H 0.54530 0.47295 0.19614
 C391 C 0.60280 0.52542 0.20498
 H392 H 0.61871 0.54027 0.20804
 C393 C 0.58385 0.52966 0.18425
 H394 H 0.58589 0.54751 0.17122
 N395 N 0.60099 0.50306 0.22154
 C396 C 0.66744 0.46439 0.26447
 H397 H 0.67015 0.47875 0.28129
 C398 C 0.68441 0.44205 0.26205
 H399 H 0.69994 0.43926 0.27737
 C400 C 0.64354 0.45064 0.22443
 H401 H 0.62774 0.45423 0.20967
 C402 C 0.66013 0.42800 0.22117
 H403 H 0.65694 0.41454 0.20370
 Zn404 Zn 0.62499 0.49873 0.25151
 N405 N 0.64722 0.46803 0.24608
 C406 C 0.60866 0.47236 0.30082
 N407 N 0.60432 0.49393 0.28375
 C408 C 0.58464 0.51219 0.28887
 C409 C 0.56884 0.50953 0.31230
 C410 C 0.59349 0.46905 0.32456
 C411 C 0.66668 0.53387 0.23579
 C412 C 0.68394 0.55652 0.23729
 C413 C 0.66135 0.57115 0.27842
 C414 C 0.64470 0.54805 0.27630
 N415 N 0.64740 0.53016 0.25501
 H416 H 0.62395 0.45769 0.29620
 H417 H 0.58123 0.52885 0.27467
 H418 H 0.55313 0.52416 0.31570
 H419 H 0.59778 0.45207 0.33813
 H420 H 0.66857 0.51918 0.21922
 H421 H 0.69899 0.55926 0.22164
 H422 H 0.65893 0.58512 0.29554
 H423 H 0.62963 0.54450 0.29169
 C424 C 0.68078 0.42330 0.24030
 C425 C 0.56253 0.51094 0.18072
 C426 C 0.68123 0.57566 0.25868
 C427 C 0.57332 0.48785 0.33073
 C428 C 0.91698 0.52440 0.70517
 H429 H 0.91909 0.54091 0.71996
 C430 C 0.93331 0.52380 0.68207
 H431 H 0.94780 0.54014 0.67907
 C432 C 0.89541 0.48307 0.69130
 H433 H 0.88090 0.46703 0.69521
 C434 C 0.91131 0.48169 0.66787
 H435 H 0.90889 0.46440 0.65404
 N436 N 0.89829 0.50440 0.70919
 C437 C 0.83610 0.54020 0.75937
 H438 H 0.83505 0.52521 0.77571
 C439 C 0.81876 0.56237 0.75923
 H440 H 0.80452 0.56444 0.77573
 C441 C 0.85609 0.55561 0.71810
 H442 H 0.87038 0.55270 0.70188
 C443 C 0.83918 0.57817 0.71720
 H444 H 0.84063 0.59231 0.70014
 Zn445 Zn 0.87738 0.50687 0.74127
 N446 N 0.85455 0.53743 0.73923
 C447 C 0.89810 0.53100 0.79048
 N448 N 0.90107 0.51062 0.77165
 C449 C 0.92105 0.49211 0.77406
 C450 C 0.93842 0.49303 0.79665
 C451 C 0.91487 0.53254 0.81352
 C452 C 0.83545 0.47008 0.72751
 C453 C 0.81772 0.44812 0.73162
 C454 C 0.84177 0.43713 0.77333
 C455 C 0.85896 0.45923 0.76845
 N456 N 0.85557 0.47521 0.74585
 H457 H 0.88256 0.54594 0.78792
 H458 H 0.92313 0.47628 0.75862
 H459 H 0.95381 0.47773 0.79857
 H460 H 0.91205 0.54876 0.82842
 H461 H 0.83294 0.48334 0.70989
 H462 H 0.80192 0.44436 0.71673
 H463 H 0.84457 0.42513 0.79182
 H464 H 0.87460 0.46395 0.78318
 C465 C 0.82032 0.58187 0.73807
 C466 C 0.93049 0.50232 0.66294
 C467 C 0.82061 0.43143 0.75497
 C468 C 0.93512 0.51315 0.81701
 C469 C 0.21155 0.41597 0.00955
 H470 H 0.22467 0.41776 0.02727
 C471 C 0.19163 0.43529 0.00528
 H472 H 0.18976 0.45197 0.01983
 C473 C 0.19931 0.39278 -0.03159
 H474 H 0.20261 0.37646 -0.04615
 C475 C 0.17883 0.41139 -0.03643
 H476 H 0.16625 0.40853 -0.05442
 N477 N 0.21517 0.39538 -0.00889
 C478 C 0.25602 0.32818 0.03159
 H479 H 0.27368 0.32691 0.01901
 C480 C 0.25190 0.30936 0.05272
 H481 H 0.26651 0.29352 0.05616
 C482 C 0.21523 0.35004 0.04169
 H483 H 0.20094 0.36588 0.03720
 C484 C 0.21030 0.33162 0.06308
 H485 H 0.19238 0.33382 0.07514
 Zn486 Zn 0.24468 0.37223 -0.00286
 N487 N 0.23787 0.34809 0.02660
 C488 C 0.28918 0.39210 0.02875
 N489 N 0.27435 0.39527 0.00543
 C490 C 0.27938 0.41613 -0.01234
 C491 C 0.30019 0.43469 -0.00715
 C492 C 0.31029 0.41021 0.03473
 C493 C 0.23361 0.33107 -0.04214
 C494 C 0.23796 0.31491 -0.06542
 C495 C 0.27960 0.33928 -0.07237
 C496 C 0.27448 0.35490 -0.04897
 N497 N 0.25158 0.35087 -0.03461
 H498 H 0.28462 0.37566 0.04285
 H499 H 0.26697 0.41845 -0.03049
 H500 H 0.30356 0.45133 -0.02144
 H501 H 0.32208 0.40707 0.05319
 H502 H 0.21583 0.32787 -0.03001
 H503 H 0.22347 0.29915 -0.07088
 H504 H 0.29772 0.34327 -0.08376
 H505 H 0.28884 0.37027 -0.04239
 C506 C 0.22877 0.31088 0.06881
 C507 C 0.17500 0.43335 -0.01811
 C508 C 0.26115 0.31906 -0.08105
 C509 C 0.31599 0.43194 0.01669
 C510 C 0.71564 0.08365 -0.01435
 H511 H 0.72788 0.08088 -0.03236
 C512 C 0.69417 0.06580 -0.00947
 H513 H 0.68976 0.04949 -0.02401
 C514 C 0.70675 0.10815 0.02667
 H515 H 0.71199 0.12427 0.04103
 C516 C 0.68493 0.09105 0.03213
 H517 H 0.67354 0.09432 0.05068
 N518 N 0.72151 0.10430 0.00365
 C519 C 0.76482 0.16957 -0.03790
 H520 H 0.78236 0.17073 -0.02480
 C521 C 0.76115 0.18890 -0.05861
 H522 H 0.77600 0.20496 -0.06119
 C523 C 0.72363 0.14782 -0.04929
 H524 H 0.70892 0.13198 -0.04530
 C525 C 0.71923 0.16666 -0.07042
 H526 H 0.70131 0.16464 -0.08287
 Zn527 Zn 0.75197 0.12651 -0.00312
 N528 N 0.74615 0.14965 -0.03356
 C529 C 0.79459 0.10476 -0.03400
 N530 N 0.78095 0.10294 -0.00999
 C531 C 0.78675 0.08335 0.00892
 C532 C 0.80711 0.06464 0.00408
 C533 C 0.81507 0.08649 -0.03968
 C534 C 0.74188 0.17028 0.03236
 C535 C 0.74685 0.18908 0.05354
 C536 C 0.78786 0.16547 0.06383
 C537 C 0.78213 0.14718 0.04241
 N538 N 0.75935 0.14977 0.02729
 H539 H 0.78934 0.12008 -0.04904
 H540 H 0.77537 0.08216 0.02771
 H541 H 0.81156 0.04942 0.01956
 H542 H 0.82537 0.08804 -0.05912
 H543 H 0.72410 0.17211 0.01974
 H544 H 0.73249 0.20503 0.05741
 H545 H 0.80624 0.16323 0.07543
 H546 H 0.79611 0.13119 0.03766
 C547 C 0.73799 0.18780 -0.07510
 C548 C 0.67853 0.06942 0.01407
 C549 C 0.77016 0.18687 0.06957
 C550 C 0.82149 0.06595 -0.02060
 C551 C 0.21984 0.58253 0.48149
 H552 H 0.23400 0.57950 0.46510
 C553 C 0.19724 0.56563 0.48326
 H554 H 0.19404 0.54962 0.46807
 C555 C 0.20665 0.60739 0.52097
 H556 H 0.21046 0.62348 0.53579
 C557 C 0.18361 0.59121 0.52329
 H558 H 0.16994 0.59500 0.53998
 N559 N 0.22392 0.60318 0.49994
 C560 C 0.26694 0.66933 0.45925
 H561 H 0.28395 0.67192 0.47290
 C562 C 0.26418 0.68624 0.43630
 H563 H 0.27933 0.70171 0.43234
 C564 C 0.22681 0.64565 0.44772
 H565 H 0.21215 0.62997 0.45234
 C566 C 0.22329 0.66207 0.42450
 H567 H 0.20576 0.65890 0.41166
 Zn568 Zn 0.25425 0.62614 0.49503
 N569 N 0.24863 0.64921 0.46426
 C570 C 0.29893 0.60659 0.46575
 N571 N 0.28401 0.60332 0.48879
 C572 C 0.28905 0.58278 0.50691
 C573 C 0.30987 0.56455 0.50220
 C574 C 0.32002 0.58899 0.46035
 C575 C 0.24172 0.66846 0.53144
 C576 C 0.24408 0.68500 0.55481
 C577 C 0.28452 0.66127 0.56702
 C578 C 0.28134 0.64512 0.54339
 N579 N 0.25989 0.64861 0.52647
 H580 H 0.29432 0.62258 0.45123
 H581 H 0.27667 0.58040 0.52490
 H582 H 0.31366 0.54844 0.51696
 H583 H 0.33144 0.59178 0.44172
 H584 H 0.22505 0.67108 0.51743
 H585 H 0.22891 0.70012 0.55872
 H586 H 0.30174 0.65814 0.58018
 H587 H 0.29593 0.62968 0.53876
 C588 C 0.24227 0.68251 0.41835
 C589 C 0.17856 0.57021 0.50409
 C590 C 0.26552 0.68132 0.57322
 C591 C 0.32562 0.56749 0.47857
 C592 C 0.71272 0.91872 0.51279
 H593 H 0.72378 0.91985 0.53197
 C594 C 0.69243 0.93747 0.50739
 H595 H 0.68772 0.95271 0.52276
 C596 C 0.70552 0.89736 0.46950
 H597 H 0.71095 0.88210 0.45451
 C598 C 0.68509 0.91558 0.46331
 H599 H 0.67502 0.91397 0.44357
 N600 N 0.71872 0.89905 0.49400
 C601 C 0.75609 0.83117 0.53755
 H602 H 0.77432 0.82922 0.52595
 C603 C 0.75026 0.81252 0.55847
 H604 H 0.76441 0.79656 0.56317
 C605 C 0.71555 0.85443 0.54530
 H606 H 0.70182 0.87044 0.53977
 C607 C 0.70897 0.83629 0.56642
 H608 H 0.69017 0.83865 0.57697
 Zn609 Zn 0.74727 0.87495 0.50167
 N610 N 0.73885 0.85165 0.53146
 C611 C 0.79342 0.89255 0.53235
 N612 N 0.77785 0.89677 0.50971
 C613 C 0.78358 0.91711 0.49158
 C614 C 0.80617 0.93368 0.49536
 C615 C 0.81638 0.90859 0.53685
 C616 C 0.73507 0.83327 0.46336
 C617 C 0.73880 0.81663 0.44029
 C618 C 0.78136 0.83915 0.43312
 C619 C 0.77686 0.85525 0.45634
 N620 N 0.75379 0.85242 0.47066
 H621 H 0.78823 0.87665 0.54683
 H622 H 0.77073 0.92016 0.47389
 H623 H 0.81065 0.94934 0.48028
 H624 H 0.82860 0.90490 0.55491
 H625 H 0.71710 0.83110 0.47540
 H626 H 0.72366 0.80148 0.43496
 H627 H 0.79959 0.84230 0.42169
 H628 H 0.79177 0.87016 0.46270
 C629 C 0.72634 0.81488 0.57314
 C630 C 0.67830 0.93602 0.48233
 C631 C 0.76210 0.81966 0.42460
 C632 C 0.82313 0.92934 0.51806
 C633 C 0.01125 0.21206 0.41929
 H634 H 0.02853 0.22535 0.42195
 C635 C 0.00820 0.18890 0.43587
 H636 H 0.02315 0.18471 0.45145
 C637 C -0.02949 0.20198 0.39614
 H638 H -0.04428 0.20719 0.38082
 C639 C -0.03332 0.17864 0.41221
 H640 H -0.05088 0.16593 0.40863
 N641 N -0.00719 0.21783 0.39952
 C642 C 0.03262 0.26090 0.33257
 H643 H 0.02004 0.27863 0.33024
 C644 C 0.05340 0.25645 0.31409
 H645 H 0.05695 0.27105 0.29775
 C646 C 0.04314 0.22017 0.35661
 H647 H 0.03884 0.20573 0.37279
 C648 C 0.06424 0.21512 0.33887
 H649 H 0.07599 0.19683 0.34175
 Zn650 Zn -0.00130 0.24896 0.37700
 N651 N 0.02796 0.24289 0.35337
 C652 C 0.02715 0.29580 0.39679
 N653 N 0.00556 0.27911 0.40046
 C654 C -0.01122 0.28268 0.42197
 C655 C -0.00650 0.30366 0.44100
 C656 C 0.03246 0.31725 0.41516
 C657 C -0.03735 0.23692 0.33460
 C658 C -0.05970 0.24017 0.31770
 C659 C -0.06961 0.28206 0.34203
 C660 C -0.04704 0.27795 0.35853
 N661 N -0.03169 0.25544 0.35479
 H662 H 0.04035 0.29247 0.37967
 H663 H -0.02807 0.26888 0.42455
 H664 H -0.01981 0.30571 0.45828
 H665 H 0.04948 0.33057 0.41148
 H666 H -0.02460 0.21938 0.33188
 H667 H -0.06414 0.22480 0.30218
 H668 H -0.08146 0.30018 0.34523
 H669 H -0.04186 0.29273 0.37434
 C670 C 0.06955 0.23330 0.31721
 C671 C -0.01417 0.17159 0.43218
 C672 C -0.07633 0.26288 0.32140
 C673 C 0.01567 0.32128 0.43783
 C674 C -0.01596 0.70988 0.08235
 H675 H -0.03353 0.72251 0.08084
 C676 C -0.01363 0.68682 0.06555
 H677 H -0.02975 0.68169 0.05141
 C678 C 0.02609 0.70126 0.10300
 H679 H 0.04166 0.70713 0.11742
 C680 C 0.02934 0.67810 0.08645
 H681 H 0.04758 0.66655 0.08827
 N682 N 0.00347 0.71630 0.10104
 C683 C -0.03306 0.75820 0.16988
 H684 H -0.01945 0.77547 0.17204
 C685 C -0.05288 0.75377 0.18947
 H686 H -0.05410 0.76770 0.20675
 C687 C -0.04693 0.71850 0.14529
 H688 H -0.04440 0.70454 0.12831
 C689 C -0.06734 0.71358 0.16410
 H690 H -0.08058 0.69622 0.16067
 Zn691 Zn -0.00184 0.74730 0.12378
 N692 N -0.03039 0.74063 0.14836
 C693 C -0.03224 0.79220 0.10453
 N694 N -0.00978 0.77733 0.10062
 C695 C 0.00688 0.78270 0.07930
 C696 C 0.00120 0.80375 0.06080
 C697 C -0.03863 0.81351 0.08659
 C698 C 0.03552 0.73685 0.16555
 C699 C 0.05693 0.74238 0.18338
 C700 C 0.06469 0.78496 0.15929
 C701 C 0.04306 0.77867 0.14201
 N702 N 0.02899 0.75493 0.14540
 H703 H -0.04542 0.78738 0.12136
 H704 H 0.02451 0.77041 0.07658
 H705 H 0.01485 0.80778 0.04410
 H706 H -0.05679 0.82485 0.08983
 H707 H 0.02379 0.71826 0.16798
 H708 H 0.06184 0.72765 0.19919
 H709 H 0.07535 0.80419 0.15653
 H710 H 0.03727 0.79304 0.12625
 C711 C -0.07043 0.73117 0.18680
 C712 C 0.00913 0.67035 0.06765
 C713 C 0.07173 0.76684 0.18051
 C714 C -0.02193 0.81939 0.06421
 C715 C 0.49023 0.21509 0.57968
 H716 H 0.47218 0.22705 0.57936
 C717 C 0.49412 0.19484 0.55979
 H718 H 0.47889 0.19139 0.54419
 C719 C 0.53241 0.20592 0.59979
 H720 H 0.54753 0.21052 0.61510
 C721 C 0.53708 0.18546 0.58037
 H722 H 0.55552 0.17416 0.58155
 N723 N 0.50919 0.22013 0.59927
 C724 C 0.47189 0.25677 0.67100
 H725 H 0.48558 0.27381 0.67430
 C726 C 0.45159 0.25161 0.68985
 H727 H 0.45008 0.26473 0.70774
 C728 C 0.45815 0.21856 0.64406
 H729 H 0.46088 0.20559 0.62630
 C730 C 0.43730 0.21286 0.66222
 H731 H 0.42396 0.19581 0.65771
 Zn732 Zn 0.50347 0.24889 0.62479
 N733 N 0.47478 0.24038 0.64861
 C734 C 0.47383 0.29596 0.60965
 N735 N 0.49606 0.28107 0.60458
 C736 C 0.51364 0.28872 0.58478
 C737 C 0.50978 0.31280 0.56989
 C738 C 0.46912 0.32014 0.59515
 C739 C 0.54145 0.23421 0.66457
 C740 C 0.56457 0.23677 0.68063
 C741 C 0.57243 0.28143 0.66071
 C742 C 0.54914 0.27802 0.64506
 N743 N 0.53448 0.25444 0.64682
 H744 H 0.45986 0.28930 0.62514
 H745 H 0.53091 0.27622 0.58085
 H746 H 0.52407 0.31853 0.55428
 H747 H 0.45161 0.33203 0.59988
 H748 H 0.52922 0.21583 0.66587
 H749 H 0.57010 0.22012 0.69414
 H750 H 0.58377 0.30037 0.65902
 H751 H 0.54291 0.29425 0.63147
 C752 C 0.43380 0.22945 0.68561
 C753 C 0.51787 0.17974 0.55989
 C754 C 0.58061 0.26049 0.67856
 C755 C 0.48743 0.32906 0.57524
 C756 C 0.50869 0.71287 0.92365
 H757 H 0.52446 0.72757 0.92823
 C758 C 0.50514 0.68998 0.94049
 H759 H 0.51805 0.68761 0.95825
 C760 C 0.47236 0.69888 0.89526
 H761 H 0.45959 0.70240 0.87767
 C762 C 0.46829 0.67556 0.91135
 H763 H 0.45254 0.66124 0.90556
 N764 N 0.49255 0.71676 0.90141
 C765 C 0.53407 0.75855 0.83541
 H766 H 0.52146 0.77616 0.83233
 C767 C 0.55480 0.75332 0.81715
 H768 H 0.55830 0.76723 0.80020
 C769 C 0.54456 0.71881 0.86113
 H770 H 0.54023 0.70514 0.87798
 C771 C 0.56566 0.71300 0.84359
 H772 H 0.57740 0.69483 0.84716
 Zn773 Zn 0.49932 0.74781 0.87909
 N774 N 0.52926 0.74126 0.85676
 C775 C 0.52855 0.79364 0.90023
 N776 N 0.50596 0.77811 0.90262
 C777 C 0.48789 0.78313 0.92266
 C778 C 0.49201 0.80470 0.94115
 C779 C 0.53350 0.81545 0.91834
 C780 C 0.46499 0.73738 0.83407
 C781 C 0.44432 0.74252 0.81536
 C782 C 0.43417 0.78361 0.84086
 C783 C 0.45509 0.77778 0.85895
 N784 N 0.46990 0.75486 0.85542
 H785 H 0.54281 0.78913 0.88433
 H786 H 0.47028 0.77019 0.92433
 H787 H 0.47747 0.80815 0.95711
 H788 H 0.55140 0.82780 0.91582
 H789 H 0.47734 0.71953 0.83145
 H790 H 0.44058 0.72820 0.79868
 H791 H 0.42280 0.80210 0.84392
 H792 H 0.45962 0.79179 0.87559
 C793 C 0.57077 0.73017 0.82106
 C794 C 0.48488 0.67070 0.93428
 C795 C 0.42859 0.76594 0.81862
 C796 C 0.51511 0.82119 0.93921
 C797 C 0.13689 0.21203 0.29050
 C798 C 0.13626 0.21958 0.26271
 C799 C 0.11151 0.22856 0.25203
 C800 C 0.08954 0.23271 0.26951
 C801 C 0.09167 0.22766 0.29801
 C802 C 0.11525 0.21581 0.30757
 C803 C 0.13260 0.22376 0.33144
 C804 C 0.15639 0.21967 0.31272
 H805 H 0.10910 0.23289 0.23034
 H806 H 0.07110 0.24030 0.26078
 H807 H 0.13151 0.20851 0.34836
 H808 H 0.12989 0.24545 0.33785
 H809 H 0.16900 0.20212 0.31898
 H810 H 0.16751 0.23899 0.30820
 C811 C 0.63739 0.70795 0.79310
 C812 C 0.63591 0.71502 0.76521
 C813 C 0.61072 0.72313 0.75496
 C814 C 0.58920 0.72741 0.77292
 C815 C 0.59226 0.72340 0.80150
 C816 C 0.61615 0.71191 0.81070
 C817 C 0.63408 0.72043 0.83392
 C818 C 0.65740 0.71613 0.81462
 H819 H 0.60772 0.72695 0.73325
 H820 H 0.57046 0.73456 0.76450
 H821 H 0.63354 0.70552 0.85117
 H822 H 0.63139 0.74222 0.83998
 H823 H 0.67029 0.69877 0.82083
 H824 H 0.66827 0.73542 0.80943
 C825 C 0.36196 0.78947 0.79064
 C826 C 0.36188 0.78056 0.76321
 C827 C 0.38614 0.77026 0.75295
 C828 C 0.40822 0.76611 0.77065
 C829 C 0.40665 0.77231 0.79899
 C830 C 0.38367 0.78555 0.80795
 C831 C 0.36632 0.77953 0.83206
 C832 C 0.34248 0.78380 0.81308
 H833 H 0.38796 0.76476 0.73148
 H834 H 0.42620 0.75745 0.76222
 H835 H 0.36828 0.79550 0.84832
 H836 H 0.36819 0.75805 0.83940
 H837 H 0.33072 0.80220 0.81849
 H838 H 0.33048 0.76480 0.80936
 C839 C -0.12269 0.26077 0.25944
 C840 C -0.14504 0.27586 0.26770
 C841 C -0.14573 0.28351 0.29590
 C842 C -0.12386 0.27869 0.31363
 C843 C -0.10051 0.26620 0.30386
 C844 C -0.10121 0.25614 0.27693
 C845 C -0.08127 0.25973 0.25459
 C846 C -0.10465 0.26494 0.23535
 H847 H -0.16303 0.29311 0.30470
 H848 H -0.12517 0.28521 0.33487
 H849 H -0.07069 0.24038 0.24993
 H850 H -0.06813 0.27802 0.25779
 H851 H -0.10721 0.24864 0.21949
 H852 H -0.10513 0.28626 0.22733
 C853 C -0.12326 0.74344 0.24103
 C854 C -0.13660 0.71801 0.24307
 C855 C -0.12447 0.69559 0.22964
 C856 C -0.10219 0.69949 0.21249
 C857 C -0.09154 0.72597 0.20770
 C858 C -0.10160 0.74730 0.22375
 C859 C -0.11041 0.77521 0.21541
 C860 C -0.13413 0.77109 0.23425
 H861 H -0.13199 0.67488 0.23214
 H862 H -0.09391 0.68171 0.20249
 H863 H -0.11603 0.77634 0.19327
 H864 H -0.09640 0.79155 0.22273
 H865 H -0.15357 0.76987 0.22307
 H866 H -0.13370 0.78517 0.25226
 C867 C 0.37963 0.24090 0.73855
 C868 C 0.36621 0.21546 0.74012
 C869 C 0.37840 0.19326 0.72631
 C870 C 0.40094 0.19740 0.70950
 C871 C 0.41193 0.22388 0.70558
 C872 C 0.40161 0.24496 0.72177
 C873 C 0.39303 0.27298 0.71359
 C874 C 0.36893 0.26866 0.73185
 H875 H 0.37082 0.17253 0.72828
 H876 H 0.40927 0.17983 0.69917
 H877 H 0.38786 0.27440 0.69135
 H878 H 0.40693 0.28919 0.72140
 H879 H 0.34972 0.26760 0.72025
 H880 H 0.36902 0.28256 0.75000
 C881 C 0.62992 0.25643 0.73785
 C882 C 0.65132 0.27347 0.72967
 C883 C 0.65068 0.28248 0.70192
 C884 C 0.62825 0.27742 0.68488
 C885 C 0.60568 0.26322 0.69492
 C886 C 0.60788 0.25150 0.72101
 C887 C 0.58883 0.25231 0.74437
 C888 C 0.61279 0.25784 0.76294
 H889 H 0.66726 0.29358 0.69301
 H890 H 0.62838 0.28529 0.66408
 H891 H 0.57921 0.23202 0.74807
 H892 H 0.57490 0.26986 0.74304
 H893 H 0.61664 0.24076 0.77748
 H894 H 0.61281 0.27861 0.77242
 C895 C 0.13807 0.79374 0.20794
 C896 C 0.13921 0.78351 0.23483
 C897 C 0.11568 0.77117 0.24515
 C898 C 0.09336 0.76637 0.22784
 C899 C 0.09395 0.77389 0.19980
 C900 C 0.11610 0.78913 0.19097
 C901 C 0.13307 0.78547 0.16616
 C902 C 0.15717 0.79052 0.18477
 H903 H 0.11465 0.76457 0.26635
 H904 H 0.07596 0.75618 0.23629
 H905 H 0.13002 0.80202 0.15081
 H906 H 0.13193 0.76426 0.15774
 H907 H 0.16798 0.80996 0.18009
 H908 H 0.17005 0.77225 0.18719
 C909 C 0.25717 0.12543 0.24842
 C910 C 0.26459 0.14963 0.23489
 C911 C 0.29196 0.15334 0.22899
 C912 C 0.31011 0.13180 0.23288
 C913 C 0.30132 0.10612 0.24288
 C914 C 0.27504 0.10428 0.25235
 C915 C 0.25411 0.08283 0.24709
 C916 C 0.23451 0.10602 0.24277
 H917 H 0.29922 0.17239 0.22028
 H918 H 0.33071 0.13493 0.22696
 H919 H 0.24985 0.07044 0.26573
 H920 H 0.25789 0.07075 0.22810
 H921 H 0.21897 0.10693 0.25893
 H922 H 0.22688 0.10744 0.22128
 C923 C 0.75801 0.62447 0.74459
 C924 C 0.76480 0.64896 0.73122
 C925 C 0.79195 0.65299 0.72449
 C926 C 0.81044 0.63162 0.72771
 C927 C 0.80224 0.60577 0.73784
 C928 C 0.77620 0.60352 0.74785
 C929 C 0.75542 0.58186 0.74281
 C930 C 0.73546 0.60484 0.73922
 H931 H 0.79880 0.67222 0.71584
 H932 H 0.83087 0.63509 0.72136
 H933 H 0.75170 0.56921 0.76141
 H934 H 0.75893 0.57006 0.72360
 H935 H 0.72026 0.60537 0.75575
 H936 H 0.72736 0.60641 0.71792
 C937 C 0.79220 0.36402 0.78091
 C938 C 0.76582 0.36372 0.77119
 C939 C 0.75651 0.38794 0.75864
 C940 C 0.77406 0.41020 0.75359
 C941 C 0.80136 0.40881 0.76098
 C942 C 0.80941 0.38585 0.77599
 C943 C 0.83262 0.36743 0.77175
 C944 C 0.81372 0.34347 0.77717
 H945 H 0.73582 0.38964 0.75235
 H946 H 0.76625 0.42826 0.74361
 H947 H 0.84814 0.37014 0.78803
 H948 H 0.84015 0.36804 0.75030
 H949 H 0.81840 0.33242 0.79656
 H950 H 0.81026 0.33012 0.75887
 C951 C 0.28728 -0.13619 0.28371
 C952 C 0.26107 -0.13674 0.27308
 C953 C 0.25224 -0.11222 0.26039
 C954 C 0.26980 -0.08981 0.25629
 C955 C 0.29679 -0.09111 0.26460
 C956 C 0.30450 -0.11415 0.27958
 C957 C 0.32808 -0.13207 0.27572
 C958 C 0.30936 -0.15631 0.28010
 H959 H 0.23178 -0.10983 0.25368
 H960 H 0.26222 -0.07165 0.24631
 H961 H 0.34308 -0.12944 0.29252
 H962 H 0.33623 -0.13096 0.25453
 H963 H 0.31389 -0.16770 0.29933
 H964 H 0.30660 -0.16933 0.26146
 C965 C 0.24146 -0.12753 0.74933
 C966 C 0.23420 -0.15045 0.73316
 C967 C 0.20697 -0.15220 0.72490
 C968 C 0.18933 -0.13042 0.72967
 C969 C 0.19822 -0.10612 0.74275
 C970 C 0.22404 -0.10608 0.75389
 C971 C 0.24558 -0.08486 0.75183
 C972 C 0.26474 -0.10817 0.74672
 H973 H 0.19893 -0.17018 0.71464
 H974 H 0.16892 -0.13242 0.72238
 H975 H 0.24927 -0.07417 0.77174
 H976 H 0.24295 -0.07119 0.73376
 H977 H 0.27956 -0.11059 0.76366
 H978 H 0.27328 -0.10806 0.72568
 C979 C 0.74203 0.37835 0.24390
 C980 C 0.73423 0.35462 0.22957
 C981 C 0.70693 0.35198 0.22236
 C982 C 0.68922 0.37388 0.22653
 C983 C 0.69835 0.39900 0.23797
 C984 C 0.72465 0.39987 0.24797
 C985 C 0.74615 0.42086 0.24376
 C986 C 0.76521 0.39725 0.23933
 H987 H 0.69935 0.33333 0.21288
 H988 H 0.66859 0.37128 0.22015
 H989 H 0.75060 0.43275 0.26282
 H990 H 0.74283 0.43342 0.22501
 H991 H 0.78056 0.39558 0.25585
 H992 H 0.77297 0.39608 0.21799
 C993 C 0.74354 0.62034 0.25728
 C994 C 0.73534 0.64496 0.26931
 C995 C 0.70761 0.64806 0.27340
 C996 C 0.68973 0.62588 0.26908
 C997 C 0.69906 0.60014 0.26026
 C998 C 0.72592 0.59861 0.25280
 C999 C 0.74638 0.57787 0.26030
 C1000 C 0.76570 0.60167 0.26525
 H1001 H 0.69970 0.66726 0.28073
 H1002 H 0.66877 0.62867 0.27345
 H1003 H 0.75188 0.56488 0.24244
 H1004 H 0.74126 0.56642 0.27934
 H1005 H 0.78235 0.60230 0.25027
 H1006 H 0.77181 0.60408 0.28718
 C1007 C 0.24754 0.11571 0.75836
 C1008 C 0.23905 0.14097 0.76867
 C1009 C 0.21126 0.14419 0.77215
 C1010 C 0.19352 0.12172 0.76898
 C1011 C 0.20307 0.09551 0.76202
 C1012 C 0.23006 0.09366 0.75506
 C1013 C 0.25053 0.07356 0.76417
 C1014 C 0.26970 0.09773 0.76781
 H1015 H 0.20320 0.16378 0.77814
 H1016 H 0.17248 0.12475 0.77274
 H1017 H 0.25632 0.05948 0.74728
 H1018 H 0.24524 0.06335 0.78385
 H1019 H 0.28651 0.09750 0.75303
 H1020 H 0.27554 0.10159 0.78961
 C1021 C 0.24168 0.26288 0.12843
 C1022 C 0.21609 0.25656 0.13811
 C1023 C 0.19423 0.26496 0.12177
 C1024 C 0.19819 0.28189 0.09863
 C1025 C 0.22411 0.29080 0.09126
 C1026 C 0.24557 0.27947 0.10570
 C1027 C 0.26955 0.29311 0.11831
 C1028 C 0.26528 0.27489 0.14325
 H1029 H 0.17404 0.25909 0.12717
 H1030 H 0.18091 0.28853 0.08704
 H1031 H 0.26639 0.31524 0.12260
 H1032 H 0.28813 0.28838 0.10698
 H1033 H 0.25963 0.28642 0.16206
 H1034 H 0.28140 0.25970 0.14624
 C1035 C 0.70044 0.78570 0.64008
 C1036 C 0.71071 0.75912 0.64051
 C1037 C 0.72233 0.74942 0.61600
 C1038 C 0.72657 0.76716 0.59356
 C1039 C 0.71923 0.79499 0.59505
 C1040 C 0.70455 0.80311 0.61799
 C1041 C 0.70808 0.82756 0.63625
 C1042 C 0.70357 0.80845 0.66048
 H1043 H 0.72895 0.72844 0.61441
 H1044 H 0.73636 0.75924 0.57548
 H1045 H 0.69180 0.84261 0.63342
 H1046 H 0.72865 0.83635 0.63553
 H1047 H 0.68470 0.81254 0.67156
 H1048 H 0.72152 0.80612 0.67385
 C1049 C 0.79669 0.77962 0.36852
 C1050 C 0.77562 0.76756 0.35358
 C1051 C 0.74954 0.77615 0.35993
 C1052 C 0.74499 0.79369 0.38251
 C1053 C 0.76640 0.80300 0.39936
 C1054 C 0.79223 0.79678 0.39071
 C1055 C 0.81524 0.78548 0.40657
 C1056 C 0.82013 0.76666 0.38220
 H1057 H 0.73260 0.76891 0.34790
 H1058 H 0.72468 0.79938 0.38704
 H1059 H 0.80889 0.77437 0.42541
 H1060 H 0.83144 0.80096 0.40977
 H1061 H 0.81663 0.74460 0.38686
 H1062 H 0.83911 0.77137 0.37139
 C1063 C 0.29754 0.27963 -0.13633
 C1064 C 0.27694 0.26669 -0.15124
 C1065 C 0.25058 0.27479 -0.14545
 C1066 C 0.24530 0.29254 -0.12324
 C1067 C 0.26626 0.30262 -0.10624
 C1068 C 0.29236 0.29705 -0.11450
 C1069 C 0.31554 0.28674 -0.09820
 C1070 C 0.32122 0.26765 -0.12217
 H1071 H 0.23395 0.26687 -0.15754
 H1072 H 0.22478 0.29770 -0.11901
 H1073 H 0.30932 0.27579 -0.07922
 H1074 H 0.33125 0.30276 -0.09513
 H1075 H 0.31831 0.24559 -0.11713
 H1076 H 0.34016 0.27274 -0.13286
 C1077 C 0.75092 0.24039 -0.13093
 C1078 C 0.72537 0.24586 -0.14120
 C1079 C 0.70344 0.23539 -0.12632
 C1080 C 0.70738 0.21727 -0.10415
 C1081 C 0.73335 0.20903 -0.09647
 C1082 C 0.75479 0.22245 -0.10924
 C1083 C 0.77940 0.21099 -0.12180
 C1084 C 0.77513 0.23071 -0.14556
 H1085 H 0.68324 0.24046 -0.13232
 H1086 H 0.69003 0.20917 -0.09369
 H1087 H 0.77696 0.18907 -0.12777
 H1088 H 0.79760 0.21586 -0.10943
 H1089 H 0.77023 0.22026 -0.16536
 H1090 H 0.79084 0.24694 -0.14679
 C1091 C 0.24421 0.74413 0.37116
 C1092 C 0.22991 0.73534 0.34780
 C1093 C 0.22323 0.70716 0.34618
 C1094 C 0.22795 0.68960 0.36870
 C1095 C 0.23951 0.69978 0.39337
 C1096 C 0.24892 0.72688 0.39322
 C1097 C 0.24504 0.74932 0.41368
 C1098 C 0.23986 0.76825 0.38948
 H1099 H 0.21376 0.69875 0.32789
 H1100 H 0.22188 0.66829 0.36699
 H1101 H 0.26376 0.75447 0.42509
 H1102 H 0.22720 0.74586 0.42676
 H1103 H 0.25561 0.78428 0.38701
 H1104 H 0.21901 0.77580 0.38847
 C1105 C 0.26078 0.74117 0.62286
 C1106 C 0.27489 0.73236 0.64613
 C1107 C 0.28259 0.70460 0.64668
 C1108 C 0.27896 0.68763 0.62335
 C1109 C 0.26758 0.69801 0.59885
 C1110 C 0.25723 0.72453 0.59994
 C1111 C 0.26078 0.74800 0.58061
 C1112 C 0.26466 0.76625 0.60575
 H1113 H 0.29198 0.69609 0.66484
 H1114 H 0.28565 0.66664 0.62440
 H1115 H 0.24217 0.75245 0.56892
 H1116 H 0.27904 0.74618 0.56790
 H1117 H 0.24827 0.78116 0.60851
 H1118 H 0.28517 0.77506 0.60767
 C1119 C 0.79387 0.21591 0.13787
 C1120 C 0.78395 0.24265 0.13801
 C1121 C 0.77276 0.25235 0.11315
 C1122 C 0.76893 0.23459 0.09044
 C1123 C 0.77629 0.20675 0.09201
 C1124 C 0.79023 0.19853 0.11556
 C1125 C 0.78597 0.17411 0.13351
 C1126 C 0.78995 0.19318 0.15801
 H1127 H 0.76635 0.27338 0.11136
 H1128 H 0.75962 0.24254 0.07199
 H1129 H 0.80219 0.15891 0.13137
 H1130 H 0.76536 0.16551 0.13178
 H1131 H 0.80844 0.18888 0.16996
 H1132 H 0.77165 0.19568 0.17054
 C1133 C 0.45378 0.38692 0.53689
 C1134 C 0.47529 0.40151 0.52559
 C1135 C 0.50109 0.39496 0.53528
 C1136 C 0.50508 0.37212 0.55246
 C1137 C 0.48335 0.35530 0.56042
 C1138 C 0.45770 0.36447 0.55385
 C1139 C 0.43440 0.34925 0.54170
 C1140 C 0.43011 0.37386 0.52311
 H1141 H 0.51834 0.40676 0.52876
 H1142 H 0.52526 0.36708 0.55858
 H1143 H 0.41811 0.34620 0.55682
 H1144 H 0.44038 0.33048 0.53039
 H1145 H 0.41135 0.38494 0.52755
 H1146 H 0.43359 0.36940 0.50099
 C1147 C -0.04693 0.88659 0.03527
 C1148 C -0.03810 0.88629 0.00800
 C1149 C -0.02760 0.86140 -0.00188
 C1150 C -0.02307 0.83923 0.01607
 C1151 C -0.02902 0.84132 0.04435
 C1152 C -0.04256 0.86476 0.05290
 C1153 C -0.03723 0.88328 0.07685
 C1154 C -0.04202 0.90722 0.05752
 H1155 H -0.02218 0.85921 -0.02327
 H1156 H -0.01426 0.82079 0.00790
 H1157 H -0.01628 0.88213 0.08448
 H1158 H -0.05276 0.88119 0.09294
 H1159 H -0.02386 0.91999 0.05389
 H1160 H -0.06030 0.91888 0.06252
 C1161 C 0.00341 0.62120 0.00716
 C1162 C 0.02058 0.59969 0.01433
 C1163 C 0.03034 0.59981 0.04183
 C1164 C 0.02578 0.62213 0.05957
 C1165 C 0.01150 0.64520 0.05048
 C1166 C -0.00088 0.64325 0.02464
 C1167 C -0.00121 0.66338 0.00162
 C1168 C 0.00355 0.63940 -0.01760
 H1169 H 0.04162 0.58287 0.04998
 H1170 H 0.03409 0.62151 0.08018
 H1171 H 0.01582 0.67820 0.00265
 H1172 H -0.02117 0.67272 -0.00125
 H1173 H 0.02334 0.64027 -0.02779
 H1174 H -0.01367 0.63519 -0.03161
 C1175 C 0.50557 0.12151 0.50943
 C1176 C 0.53133 0.11302 0.50273
 C1177 C 0.55282 0.12998 0.51144
 C1178 C 0.54850 0.15246 0.52910
 C1179 C 0.52259 0.15846 0.53857
 C1180 C 0.50132 0.14355 0.52684
 C1181 C 0.47807 0.12969 0.54019
 C1182 C 0.48273 0.10553 0.52107
 H1183 H 0.57303 0.12550 0.50530
 H1184 H 0.56558 0.16451 0.53594
 H1185 H 0.45902 0.14038 0.53587
 H1186 H 0.48188 0.12494 0.56222
 H1187 H 0.46637 0.10235 0.50578
 H1188 H 0.48925 0.08671 0.53199
 C1189 C -0.04653 0.11329 0.47163
 C1190 C -0.02488 0.09989 0.48375
 C1191 C 0.00093 0.10798 0.47525
 C1192 C 0.00457 0.13081 0.45787
 C1193 C -0.01751 0.14613 0.44859
 C1194 C -0.04297 0.13572 0.45458
 C1195 C -0.06677 0.14988 0.46589
 C1196 C -0.07068 0.12525 0.48459
 H1197 H 0.01835 0.09715 0.48249
 H1198 H 0.02469 0.13674 0.45229
 H1199 H -0.08295 0.15198 0.45028
 H1200 H -0.06139 0.16904 0.47719
 H1201 H -0.08909 0.11319 0.47969
 H1202 H -0.06759 0.13007 0.50677
 C1203 C 0.45148 0.61060 0.97024
 C1204 C 0.47153 0.60021 0.98763
 C1205 C 0.49759 0.61124 0.98393
 C1206 C 0.50226 0.63339 0.96592
 C1207 C 0.48106 0.64558 0.95125
 C1208 C 0.45609 0.63257 0.95278
 C1209 C 0.42935 0.64458 0.95797
 C1210 C 0.42420 0.62064 0.97716
 H1211 H 0.51463 0.60293 0.99469
 H1212 H 0.52246 0.64122 0.96403
 H1213 H 0.41637 0.64413 0.93932
 H1214 H 0.43064 0.66470 0.96874
 H1215 H 0.40811 0.60663 0.96951
 H1216 H 0.42245 0.62683 0.99910
 C1217 C 0.50260 0.88126 0.98675
 C1218 C 0.52827 0.89131 0.99289
 C1219 C 0.55000 0.87512 0.98458
 C1220 C 0.54586 0.85175 0.96785
 C1221 C 0.51990 0.84397 0.95906
 C1222 C 0.49854 0.85828 0.97036
 C1223 C 0.47465 0.87034 0.95663
 C1224 C 0.47911 0.89554 0.97461
 H1225 H 0.57023 0.88080 0.99035
 H1226 H 0.56306 0.84030 0.96127
 H1227 H 0.45599 0.85889 0.96158
 H1228 H 0.47784 0.87429 0.93436
 H1229 H 0.46301 0.89857 0.98988
 H1230 H 0.48490 0.91417 0.96282
 C1231 C 0.00495 0.37835 0.48965
 C1232 C 0.03026 0.39097 0.49202
 C1233 C 0.05181 0.37671 0.48007
 C1234 C 0.04735 0.35328 0.46360
 C1235 C 0.02122 0.34346 0.45823
 C1236 C 0.00059 0.35544 0.47314
 C1237 C -0.02597 0.36522 0.46347
 C1238 C -0.02131 0.39034 0.48143
 H1239 H 0.07225 0.38350 0.48309
 H1240 H 0.06441 0.34347 0.45446
 H1241 H -0.04260 0.35190 0.47079
 H1242 H -0.02636 0.36988 0.44109
 H1243 H -0.03541 0.39144 0.49893
 H1244 H -0.01902 0.40964 0.46950
 C1245 C 0.39239 0.53988 0.45605
 C1246 C 0.39210 0.51288 0.46580
 C1247 C 0.36751 0.50257 0.47575
 C1248 C 0.34550 0.51999 0.47915
 C1249 C 0.34745 0.54809 0.47250
 C1250 C 0.37069 0.55696 0.45925
 C1251 C 0.38811 0.58140 0.46485
 C1252 C 0.41191 0.56268 0.46136
 H1253 H 0.36545 0.48131 0.48178
 H1254 H 0.32729 0.51159 0.48774
 H1255 H 0.38596 0.58937 0.48616
 H1256 H 0.38649 0.59707 0.44837
 H1257 H 0.42361 0.55974 0.48065
 H1258 H 0.42398 0.56762 0.44290
 C1259 C 0.88561 0.03522 -0.04717
 C1260 C 0.88625 0.00899 -0.03517
 C1261 C 0.86263 0.00040 -0.02151
 C1262 C 0.84124 0.01847 -0.01750
 C1263 C 0.84264 0.04577 -0.02687
 C1264 C 0.86453 0.05297 -0.04310
 C1265 C 0.88243 0.07753 -0.04123
 C1266 C 0.90560 0.05825 -0.04556
 H1267 H 0.86023 -0.02024 -0.01384
 H1268 H 0.82385 0.01110 -0.00655
 H1269 H 0.88239 0.08720 -0.02049
 H1270 H 0.87933 0.09185 -0.05869
 H1271 H 0.91905 0.05669 -0.02733
 H1272 H 0.91589 0.06177 -0.06544
 C1273 C 0.61050 0.04376 0.03619
 C1274 C 0.61034 0.01597 0.02875
 C1275 C 0.63480 0.00497 0.01978
 C1276 C 0.65725 0.02213 0.01541
 C1277 C 0.65591 0.05062 0.02024
 C1278 C 0.63264 0.06052 0.03221
 C1279 C 0.61597 0.08440 0.02420
 C1280 C 0.59165 0.06603 0.02851
 H1281 H 0.63662 -0.01671 0.01559
 H1282 H 0.67543 0.01316 0.00776
 H1283 H 0.61883 0.09054 0.00240
 H1284 H 0.61756 0.10141 0.03942
 H1285 H 0.58038 0.06144 0.00920
 H1286 H 0.57923 0.07257 0.04614
 C1287 C 0.13151 0.50898 0.50380
 C1288 C 0.10769 0.51969 0.51402
 C1289 C 0.10625 0.54854 0.51634
 C1290 C 0.12904 0.56519 0.51226
 C1291 C 0.15374 0.55347 0.50541
 C1292 C 0.15386 0.52541 0.49949
 C1293 C 0.17244 0.50374 0.50923
 C1294 C 0.14796 0.48571 0.51400
 H1295 H 0.08783 0.55828 0.52215
 H1296 H 0.12750 0.58711 0.51531
 H1297 H 0.18316 0.50959 0.52853
 H1298 H 0.18536 0.49612 0.49244
 H1299 H 0.14442 0.48109 0.53607
 H1300 H 0.14686 0.46769 0.49998
 C1301 C 0.12228 0.48752 -0.00644
 C1302 C 0.11047 0.49079 -0.03255
 C1303 C 0.12370 0.47817 -0.05486
 C1304 C 0.14537 0.46053 -0.05042
 C1305 C 0.15434 0.45447 -0.02353
 C1306 C 0.14337 0.46978 -0.00209
 C1307 C 0.13283 0.46048 0.02498
 C1308 C 0.10971 0.47982 0.02032
 H1309 H 0.11749 0.48168 -0.07590
 H1310 H 0.15453 0.45117 -0.06814
 H1311 H 0.14602 0.46686 0.04240
 H1312 H 0.12676 0.43848 0.02488
 H1313 H 0.10965 0.49718 0.03516
 H1314 H 0.09017 0.46907 0.01755
 C1315 C 0.61334 0.96454 0.45487
 C1316 C 0.61223 0.99117 0.46603
 C1317 C 0.63570 1.00064 0.47987
 C1318 C 0.65750 0.98314 0.48462
 C1319 C 0.65669 0.95562 0.47570
 C1320 C 0.63483 0.94744 0.45953
 C1321 C 0.61755 0.92252 0.46204
 C1322 C 0.59390 0.94107 0.45711
 H1323 H 0.63768 1.02150 0.48716
 H1324 H 0.67475 0.99111 0.49569
 H1325 H 0.61807 0.91354 0.48304
 H1326 H 0.62078 0.90773 0.44499
 H1327 H 0.58065 0.94292 0.47526
 H1328 H 0.58343 0.93657 0.43734
 C1329 C 0.87109 0.98982 0.51642
 C1330 C 0.89413 0.98019 0.52954
 C1331 C 0.89462 0.95200 0.53617
 C1332 C 0.87173 0.93521 0.53227
 C1333 C 0.84784 0.94616 0.52150
 C1334 C 0.84871 0.97333 0.51244
 C1335 C 0.83013 0.99631 0.51819
 C1336 C 0.85470 1.01443 0.52258
 H1337 H 0.91247 0.94288 0.54464
 H1338 H 0.87270 0.91380 0.53798
 H1339 H 0.81835 0.99302 0.53721
 H1340 H 0.81824 1.00203 0.49971
 H1341 H 0.85723 1.02167 0.54416
 H1342 H 0.85688 1.03058 0.50663
 C1343 C 0.37322 0.48212 0.00602
 C1344 C 0.38292 0.48722 0.03265
 C1345 C 0.36767 0.47682 0.05469
 C1346 C 0.34543 0.45941 0.04973
 C1347 C 0.33791 0.45197 0.02261
 C1348 C 0.35141 0.46505 0.00115
 C1349 C 0.36352 0.45329 -0.02417
 C1350 C 0.38746 0.47204 -0.01883
 H1351 H 0.37316 0.48160 0.07575
 H1352 H 0.33457 0.45139 0.06717
 H1353 H 0.35216 0.45876 -0.04307
 H1354 H 0.36813 0.43114 -0.02202
 H1355 H 0.38983 0.48829 -0.03464
 H1356 H 0.40601 0.46081 -0.01356
 C1357 C 0.53607 0.45527 0.39024
 C1358 C 0.52208 0.47716 0.40162
 C1359 C 0.52869 0.50374 0.39223
 C1360 C 0.54616 0.50750 0.36990
 C1361 C 0.55731 0.48475 0.35626
 C1362 C 0.55311 0.45894 0.36818
 C1363 C 0.54458 0.43240 0.35527
 C1364 C 0.52594 0.42839 0.37949
 H1365 H 0.51977 0.52158 0.40154
 H1366 H 0.55019 0.52816 0.36290
 H1367 H 0.56103 0.41730 0.35485
 H1368 H 0.53393 0.43526 0.33535
 H1369 H 0.53172 0.41106 0.39301
 H1370 H 0.50444 0.42890 0.37366
 C1371 C 0.01351 -0.00351 0.87885
 C1372 C 0.00703 -0.02989 0.88815
 C1373 C 0.01718 -0.05217 0.87306
 C1374 C 0.03567 -0.04783 0.85175
 C1375 C 0.04461 -0.02109 0.84505
 C1376 C 0.03178 0.00077 0.85795
 C1377 C 0.04327 0.02570 0.87167
 C1378 C 0.02322 0.02101 0.89456
 H1379 H 0.01135 -0.07300 0.87807
 H1380 H 0.04337 -0.06551 0.84106
 H1381 H 0.03943 0.04464 0.85967
 H1382 H 0.06435 0.02294 0.87835
 H1383 H 0.00786 0.03723 0.89568
 H1384 H 0.03264 0.01553 0.91457
 C1385 C 0.03410 0.04094 0.61761
 C1386 C 0.01997 0.01916 0.60532
 C1387 C 0.02670 -0.00760 0.61373
 C1388 C 0.04460 -0.01177 0.63586
 C1389 C 0.05616 0.01072 0.65019
 C1390 C 0.05161 0.03686 0.63938
 C1391 C 0.04329 0.06259 0.65345
 C1392 C 0.02409 0.06706 0.62954
 H1393 H 0.01774 -0.02531 0.60369
 H1394 H 0.04881 -0.03258 0.64206
 H1395 H 0.05969 0.07812 0.65440
 H1396 H 0.03309 0.05860 0.67331
 H1397 H 0.02950 0.08511 0.61675
 H1398 H 0.00272 0.06568 0.63548
 C1399 C 0.50882 0.49820 0.12640
 C1400 C 0.50400 0.52441 0.11594
 C1401 C 0.51545 0.54684 0.13035
 C1402 C 0.53369 0.54263 0.15212
 C1403 C 0.54112 0.51585 0.15993
 C1404 C 0.52689 0.49404 0.14773
 C1405 C 0.53674 0.46811 0.13520
 C1406 C 0.51691 0.47268 0.11185
 H1407 H 0.51096 0.56765 0.12431
 H1408 H 0.54249 0.56040 0.16219
 H1409 H 0.53178 0.44987 0.14791
 H1410 H 0.55794 0.46971 0.12869
 H1411 H 0.50054 0.45710 0.11119
 H1412 H 0.52656 0.47692 0.09176
 C1413 C 0.48934 0.00333 0.12358
 C1414 C 0.48147 -0.01074 0.09966
 C1415 C 0.45396 -0.01678 0.09644
 C1416 C 0.43605 -0.01226 0.11818
 C1417 C 0.44522 -0.00150 0.14359
 C1418 C 0.47173 0.00785 0.14490
 C1419 C 0.49271 0.00311 0.16629
 C1420 C 0.51203 -0.00186 0.14290
 H1421 H 0.44638 -0.02596 0.07761
 H1422 H 0.41531 -0.01817 0.11540
 H1423 H 0.48862 -0.01548 0.17885
 H1424 H 0.49748 0.02200 0.17827
 H1425 H 0.51918 -0.02334 0.14184
 H1426 H 0.52791 0.01417 0.14146
 C1427 C 0.99142 0.50697 0.61746
 C1428 C 0.98346 0.49243 0.59386
 C1429 C 0.95601 0.48599 0.59103
 C1430 C 0.93831 0.49043 0.61295
 C1431 C 0.94764 0.50145 0.63818
 C1432 C 0.97400 0.51137 0.63901
 C1433 C 0.99539 0.50728 0.66012
 C1434 C 1.01448 0.50247 0.63649
 H1435 H 0.94838 0.47640 0.57242
 H1436 H 0.91763 0.48412 0.61048
 H1437 H 0.99185 0.48876 0.67294
 H1438 H 0.99995 0.52639 0.67184
 H1439 H 1.02205 0.48115 0.63555
 H1440 H 1.03000 0.51882 0.63462
 C1441 C 0.99618 0.50992 0.86330
 C1442 C 0.98698 0.52025 0.88838
 C1443 C 0.95912 0.52355 0.89097
 C1444 C 0.94201 0.52030 0.86804
 C1445 C 0.95229 0.51347 0.84199
 C1446 C 0.97929 0.50654 0.84076
 C1447 C 1.00031 0.51566 0.82110
 C1448 C 1.01883 0.51938 0.84581
 H1449 H 0.95056 0.52953 0.91042
 H1450 H 0.92090 0.52403 0.87053
 H1451 H 0.99531 0.53525 0.81070
 H1452 H 1.00646 0.49883 0.80715
 H1453 H 1.02458 0.54112 0.84979
 H1454 H 1.03563 0.50469 0.84603
 C1455 C 0.49365 0.00520 0.36719
 C1456 C 0.48568 0.01775 0.39169
 C1457 C 0.45816 0.02291 0.39469
 C1458 C 0.44037 0.01933 0.37235
 C1459 C 0.44967 0.01040 0.34653
 C1460 C 0.47612 0.00158 0.34523
 C1461 C 0.49723 0.00796 0.32463
 C1462 C 0.51645 0.01194 0.34871
 H1463 H 0.45052 0.03083 0.41386
 H1464 H 0.41962 0.02462 0.37502
 H1465 H 0.49327 0.02717 0.31309
 H1466 H 0.50198 -0.01012 0.31168
 H1467 H 0.52368 0.03346 0.35118
 H1468 H 0.53226 -0.00385 0.34958
   
