data_POSCAR
  _audit_creation_date              2014-09-24
  _audit_creation_method            'ToBaCCo'
  _symmetry_space_group_name_H-M    'P1'
  _symmetry_Int_Tables_number       1
  _symmetry_cell_setting            triclinic
  loop_
  _symmetry_equiv_pos_as_xyz
 x,y,z
_cell_length_a 65.5101
_cell_length_b 65.4354
_cell_length_c 65.4718
_cell_angle_alpha 89.998700
_cell_angle_beta 90.009900
_cell_angle_gamma 89.983600
loop_
  _atom_site_label
  _atom_site_type_symbol
  _atom_site_fract_x
  _atom_site_fract_y
  _atom_site_fract_z
N1 N 0.32588 0.42439 0.92429
 N2 N 0.42296 0.82694 0.42301
 N3 N 0.92564 0.92567 0.82446
 N4 N 0.42312 -0.07678 0.32689
 N5 N 0.82583 0.32580 0.32581
 N6 N -0.17702 0.82274 0.82269
 N7 N 0.92437 0.32538 0.42464
 N8 N 0.42318 0.42302 0.82698
 N9 N 0.82435 0.92588 0.92579
 N10 N 0.32704 0.82702 0.32706
 N11 N 0.82561 0.42444 0.42439
 N12 N 0.92545 0.82461 -0.07464
 N13 N 0.32560 0.32542 0.82564
 N14 N 0.17705 0.57293 0.57276
 N15 N 0.57446 0.67570 0.07435
 N16 N 0.67427 0.17444 0.67433
 N17 N 1.07292 0.07298 0.17715
 N18 N 0.07468 0.17566 1.07453
 N19 N 0.17574 0.67564 0.67569
 N20 N 1.17570 0.17589 0.17573
 N21 N 0.67409 1.07579 0.57572
 N22 N 0.57278 0.57300 0.17703
 N23 N 0.67547 0.67579 0.17561
 N24 N 0.17579 0.07434 1.07448
 N25 N 0.57447 0.17566 0.57422
 N26 N 0.07482 0.57443 0.67537
 N27 N 0.67573 0.57440 0.07437
 N28 N 0.07433 0.67576 0.57402
 N29 N 0.57400 1.07397 0.67584
 N30 N 0.42444 0.32550 0.92439
 N31 N 0.92293 0.42317 0.32686
 N32 N 0.32691 0.92317 0.42319
 O33 O 0.19591 0.52599 0.74849
 O34 O 0.20339 0.52438 0.78435
 O35 O 0.24926 0.55450 0.72398
 O36 O 0.28301 0.54875 0.72403
 O37 O 0.22423 0.50102 0.69539
 O38 O 0.22603 0.46520 0.70303
 O39 O 0.30356 0.49832 0.77657
 O40 O 0.29779 0.53401 0.77274
 O41 O 0.25196 0.47371 0.80331
 O42 O 0.21482 0.47543 0.79598
 O43 O 0.27669 0.44661 0.75158
 O44 O 0.27500 0.45393 0.71446
 O45 O 0.30365 0.47374 0.75195
 O46 O 0.29650 0.47605 0.71446
 O47 O 0.25214 0.44657 0.77618
 O48 O 0.21473 0.45389 0.77397
 O49 O 0.27664 0.49821 0.80333
 O50 O 0.27389 0.53520 0.79658
 O51 O 0.19584 0.50128 0.72394
 O52 O 0.20346 0.46515 0.72601
 O53 O 0.24866 0.52581 0.69538
 O54 O 0.28526 0.52231 0.70323
 O55 O 0.22442 0.55445 0.74836
 O56 O 0.22633 0.54693 0.78444
 Zr57 Zr 0.22555 0.52483 0.76090
 O58 O 0.24343 0.50675 0.78057
 Zr59 Zr 0.26140 0.52473 0.72493
 O60 O 0.28105 0.50691 0.74323
 Zr61 Zr 0.22546 0.48876 0.72510
 O62 O 0.24359 0.46919 0.74308
 Zr63 Zr 0.27449 0.51170 0.77426
 O64 O 0.25664 0.53162 0.75606
 Zr65 Zr 0.23863 0.47568 0.77412
 O66 O 0.21870 0.49373 0.75615
 Zr67 Zr 0.27463 0.47581 0.73827
 O68 O 0.25648 0.49363 0.71827
 O69 O 0.23054 0.51969 0.73001
 O70 O 0.26965 0.48064 0.76930
 C71 C 0.18731 0.51570 0.73416
 C72 C 0.23480 0.56305 0.73411
 C73 C 0.23439 0.51543 0.68680
 C74 C 0.31192 0.48354 0.76678
 C75 C 0.26673 0.48350 0.81167
 C76 C 0.26688 0.43824 0.76633
 H77 H 0.23998 0.51001 0.79489
 H78 H 0.24033 0.45484 0.73974
 H79 H 0.22182 0.52844 0.72130
 H80 H 0.29544 0.51029 0.74020
 H81 H 0.29174 0.54621 0.76614
 H82 H 0.29501 0.54433 0.73206
 H83 H 0.21685 0.44474 0.76213
 H84 H 0.19663 0.46616 0.73946
 H85 H 0.26179 0.53314 0.80536
 H86 H 0.23982 0.55369 0.78354
 H87 H 0.26280 0.44517 0.71604
 H88 H 0.23964 0.46579 0.69649
 H89 H 0.19691 0.51072 0.78385
 H90 H 0.21643 0.48763 0.80475
 H91 H 0.28299 0.50946 0.69557
 H92 H 0.30566 0.48784 0.71670
 O93 O 0.24865 0.05458 0.22417
 O94 O 0.28450 0.04712 0.22579
 O95 O 0.22421 0.00113 0.19568
 O96 O 0.22427 -0.03264 0.20143
 O97 O 0.19561 0.02618 0.24913
 O98 O 0.20325 0.02441 0.28494
 O99 O 0.27677 -0.05319 0.25180
 O100 O 0.27299 -0.04738 0.21613
 O101 O 0.30347 -0.00152 0.27647
 O102 O 0.29614 0.03569 0.27470
 O103 O 0.25188 -0.02634 0.30347
 O104 O 0.21473 -0.02459 0.29622
 O105 O 0.25216 -0.05328 0.27636
 O106 O 0.21470 -0.04611 0.27409
 O107 O 0.27641 -0.00172 0.30353
 O108 O 0.27412 0.03576 0.29624
 O109 O 0.30349 -0.02627 0.25203
 O110 O 0.29681 -0.02343 0.21500
 O111 O 0.22412 0.05464 0.24886
 O112 O 0.22620 0.04703 0.28497
 O113 O 0.19562 0.00172 0.22436
 O114 O 0.20351 -0.03491 0.22784
 O115 O 0.24856 0.02602 0.19573
 O116 O 0.28461 0.02414 0.20326
 Zr117 Zr 0.26108 0.02491 0.22534
 O118 O 0.28076 0.00703 0.24341
 Zr119 Zr 0.22517 -0.01101 0.22544
 O120 O 0.24347 -0.03066 0.24324
 Zr121 Zr 0.22531 0.02499 0.26138
 O122 O 0.24329 0.00685 0.28095
 Zr123 Zr 0.27447 -0.02407 0.23846
 O124 O 0.25627 -0.00621 0.21855
 Zr125 Zr 0.27430 0.01184 0.27447
 O126 O 0.25633 0.03177 0.25642
 Zr127 Zr 0.23851 -0.02423 0.27433
 O128 O 0.21851 -0.00608 0.25651
 O129 O 0.23021 0.01990 0.23047
 O130 O 0.26950 -0.01922 0.26950
 C131 C 0.23432 0.06318 0.23445
 C132 C 0.23433 0.01561 0.18713
 C133 C 0.18704 0.01599 0.23473
 C134 C 0.26698 -0.06156 0.26656
 C135 C 0.31181 -0.01635 0.26674
 C136 C 0.26663 -0.01653 0.31183
 H137 H 0.29507 0.01048 0.24017
 H138 H 0.23996 0.01011 0.29530
 H139 H 0.22150 0.02862 0.22172
 H140 H 0.24044 -0.04507 0.23986
 H141 H 0.26640 -0.04131 0.20394
 H142 H 0.23235 -0.04463 0.20583
 H143 H 0.26233 0.03360 0.30542
 H144 H 0.23965 0.05385 0.28398
 H145 H 0.30565 -0.01139 0.21715
 H146 H 0.28377 0.01062 0.19654
 H147 H 0.21637 -0.01242 0.30503
 H148 H 0.19676 0.01076 0.28438
 H149 H 0.28400 0.05360 0.23945
 H150 H 0.30493 0.03404 0.26254
 H151 H 0.19583 -0.03264 0.24067
 H152 H 0.21693 -0.05528 0.26230
 O153 O 0.55424 0.72407 0.24859
 O154 O 0.54679 0.72572 0.28446
 O155 O 0.50079 0.69553 0.22419
 O156 O 0.46710 0.70136 0.22405
 O157 O 0.52597 0.74898 0.19552
 O158 O 0.52408 0.78483 0.20309
 O159 O 0.44657 0.75173 0.27661
 O160 O 0.45238 0.71604 0.27286
 O161 O 0.49816 0.77643 0.30337
 O162 O 0.53533 0.77466 0.29608
 O163 O 0.47339 0.80342 0.25170
 O164 O 0.47515 0.79617 0.21456
 O165 O 0.44648 0.77630 0.25198
 O166 O 0.45369 0.77399 0.21449
 O167 O 0.49797 0.80349 0.27628
 O168 O 0.53542 0.79619 0.27403
 O169 O 0.47344 0.75198 0.30338
 O170 O 0.47629 0.71491 0.29671
 O171 O 0.55431 0.74881 0.22407
 O172 O 0.54666 0.78493 0.22609
 O173 O 0.50156 0.72417 0.19552
 O174 O 0.46491 0.72779 0.20331
 O175 O 0.52567 0.69559 0.24855
 O176 O 0.52385 0.70319 0.28460
 Zr177 Zr 0.52460 0.72525 0.26102
 O178 O 0.50672 0.74334 0.28068
 Zr179 Zr 0.48874 0.72534 0.22504
 O180 O 0.46910 0.74316 0.24332
 Zr181 Zr 0.52469 0.76130 0.22520
 O182 O 0.50655 0.78088 0.24316
 Zr183 Zr 0.47566 0.73838 0.27435
 O184 O 0.49351 0.71846 0.25617
 Zr185 Zr 0.51152 0.77441 0.27420
 O186 O 0.53145 0.75635 0.25625
 Zr187 Zr 0.47551 0.77426 0.23834
 O188 O 0.49366 0.75643 0.21836
 O189 O 0.51961 0.73037 0.23013
 O190 O 0.48050 0.76943 0.26936
 C191 C 0.56284 0.73438 0.23428
 C192 C 0.51523 0.68697 0.23435
 C193 C 0.51585 0.73452 0.18696
 C194 C 0.43821 0.76650 0.26680
 C195 C 0.48334 0.76670 0.31170
 C196 C 0.48318 0.81179 0.26646
 H197 H 0.51016 0.74010 0.29500
 H198 H 0.50980 0.79524 0.23982
 H199 H 0.52833 0.72159 0.22145
 H200 H 0.45471 0.73977 0.24028
 H201 H 0.45845 0.70385 0.26626
 H202 H 0.45515 0.70573 0.23218
 H203 H 0.53324 0.80539 0.26224
 H204 H 0.55348 0.78395 0.23956
 H205 H 0.48829 0.71710 0.30561
 H206 H 0.51033 0.69649 0.28378
 H207 H 0.48735 0.80493 0.21615
 H208 H 0.51047 0.78422 0.19655
 H209 H 0.55325 0.73939 0.28395
 H210 H 0.53369 0.76248 0.30487
 H211 H 0.46726 0.74057 0.19558
 H212 H 0.44452 0.76219 0.21672
 O213 O -0.02600 0.80444 0.75125
 O214 O -0.02430 0.79698 0.71537
 O215 O -0.05446 0.75090 0.77561
 O216 O -0.04860 0.71718 0.77574
 O217 O -0.00111 0.77616 0.80432
 O218 O 0.03471 0.77432 0.79677
 O219 O 0.00172 0.69663 0.72330
 O220 O -0.03391 0.70248 0.72696
 O221 O 0.02632 0.74841 0.69645
 O222 O 0.02465 0.78553 0.70377
 O223 O 0.05340 0.72364 0.74826
 O224 O 0.04609 0.72531 0.78533
 O225 O 0.02624 0.69657 0.74796
 O226 O 0.02398 0.70385 0.78539
 O227 O 0.05346 0.74823 0.72367
 O228 O 0.04606 0.78568 0.72585
 O229 O 0.00192 0.72365 0.69642
 O230 O -0.03500 0.72631 0.70308
 O231 O -0.00131 0.80453 0.77579
 O232 O 0.03478 0.79693 0.77377
 O233 O -0.02586 0.75170 0.80430
 O234 O -0.02222 0.71502 0.79652
 O235 O -0.05441 0.77581 0.75126
 O236 O -0.04680 0.77399 0.71522
 Zr237 Zr -0.02478 0.77477 0.73881
 O238 O -0.00667 0.75688 0.71918
 Zr239 Zr -0.02467 0.73887 0.77478
 O240 O -0.00684 0.71922 0.75652
 Zr241 Zr 0.01121 0.77489 0.77465
 O242 O 0.03079 0.75676 0.75671
 Zr243 Zr -0.01158 0.72577 0.72548
 O244 O -0.03152 0.74363 0.74364
 Zr245 Zr 0.02436 0.76171 0.72566
 O246 O 0.00628 0.78165 0.74359
 Zr247 Zr 0.02422 0.72567 0.76152
 O248 O 0.00638 0.74383 0.78149
 O249 O -0.01968 0.76978 0.76970
 O250 O 0.01944 0.73063 0.73047
 C251 C -0.01573 0.81306 0.76558
 C252 C -0.06302 0.76535 0.76545
 C253 C -0.01554 0.76601 0.81287
 C254 C 0.01642 0.68824 0.73318
 C255 C 0.01656 0.73363 0.68807
 C256 C 0.06180 0.73350 0.73356
 H257 H -0.00991 0.76033 0.70485
 H258 H 0.04513 0.76004 0.76007
 H259 H -0.02846 0.77850 0.77837
 H260 H -0.01022 0.70482 0.75957
 H261 H -0.04609 0.70855 0.73357
 H262 H -0.04420 0.70521 0.76764
 H263 H 0.05520 0.78357 0.73768
 H264 H 0.03378 0.80377 0.76032
 H265 H -0.03300 0.73848 0.69436
 H266 H -0.05351 0.76046 0.71606
 H267 H 0.05474 0.73760 0.78382
 H268 H 0.03408 0.76071 0.80335
 H269 H -0.01068 0.80351 0.71594
 H270 H 0.01238 0.78401 0.69510
 H271 H -0.00946 0.71739 0.80427
 H272 H 0.01216 0.69471 0.78321
 O273 O 0.00151 0.05451 0.02612
 O274 O -0.03435 0.04708 0.02445
 O275 O 0.02585 0.00096 0.05463
 O276 O 0.02595 -0.03277 0.04878
 O277 O 0.05453 0.02618 0.00122
 O278 O 0.04695 0.02433 -0.03461
 O279 O -0.02651 -0.05328 -0.00152
 O280 O -0.02283 -0.04742 0.03412
 O281 O -0.05333 -0.00147 -0.02617
 O282 O -0.04597 0.03564 -0.02451
 O283 O -0.00160 -0.02630 -0.05327
 O284 O 0.03546 -0.02467 -0.04597
 O285 O -0.00189 -0.05337 -0.02606
 O286 O 0.03553 -0.04612 -0.02384
 O287 O -0.02615 -0.00169 -0.05333
 O288 O -0.02395 0.03575 -0.04596
 O289 O -0.05336 -0.02624 -0.00174
 O290 O -0.04666 -0.02356 0.03520
 O291 O 0.02602 0.05458 0.00141
 O292 O 0.02398 0.04696 -0.03470
 O293 O 0.05450 0.00173 0.02601
 O294 O 0.04670 -0.03495 0.02238
 O295 O 0.00153 0.02589 0.05457
 O296 O -0.03450 0.02411 0.04697
 Zr297 Zr -0.01094 0.02485 0.02493
 O298 O -0.03059 0.00698 0.00683
 Zr299 Zr 0.02499 -0.01107 0.02483
 O300 O 0.00671 -0.03071 0.00701
 Zr301 Zr 0.02486 0.02493 -0.01109
 O302 O 0.00689 0.00681 -0.03067
 Zr303 Zr -0.02430 -0.02413 0.01176
 O304 O -0.00612 -0.00628 0.03169
 Zr305 Zr -0.02413 0.01179 -0.02422
 O306 O -0.00617 0.03172 -0.00615
 Zr307 Zr 0.01168 -0.02428 -0.02408
 O308 O 0.03167 -0.00613 -0.00624
 O309 O 0.01993 0.01984 0.01982
 O310 O -0.01934 -0.01929 -0.01928
 C311 C 0.01582 0.06311 0.01583
 C312 C 0.01571 0.01542 0.06319
 C313 C 0.06308 0.01603 0.01566
 C314 C -0.01666 -0.06168 -0.01623
 C315 C -0.06171 -0.01625 -0.01639
 C316 C -0.01629 -0.01644 -0.06166
 H317 H -0.04490 0.01044 0.01008
 H318 H 0.01024 0.01008 -0.04501
 H319 H 0.02861 0.02855 0.02860
 H320 H 0.00975 -0.04511 0.01040
 H321 H -0.01621 -0.04136 0.04629
 H322 H 0.01784 -0.04473 0.04440
 H323 H -0.01212 0.03363 -0.05510
 H324 H 0.01054 0.05381 -0.03370
 H325 H -0.05539 -0.01139 0.03319
 H326 H -0.03367 0.01058 0.05369
 H327 H 0.03395 -0.01239 -0.05464
 H328 H 0.05351 0.01071 -0.03398
 H329 H -0.03380 0.05361 0.01082
 H330 H -0.05465 0.03412 -0.01225
 H331 H 0.05444 -0.03259 0.00961
 H332 H 0.03336 -0.05525 -0.01200
 O333 O 0.05444 0.52591 0.50104
 O334 O 0.04684 0.52434 0.46521
 O335 O 0.00111 0.55457 0.52565
 O336 O -0.03262 0.54884 0.52572
 O337 O 0.02624 0.50115 0.55424
 O338 O 0.02431 0.46529 0.54671
 O339 O -0.05337 0.49850 0.47335
 O340 O -0.04747 0.53416 0.47703
 O341 O -0.00186 0.47365 0.44647
 O342 O 0.03533 0.47539 0.45367
 O343 O -0.02646 0.44670 0.49823
 O344 O -0.02468 0.45400 0.53533
 O345 O -0.05341 0.47392 0.49796
 O346 O -0.04611 0.47620 0.53543
 O347 O -0.00193 0.44658 0.47362
 O348 O 0.03548 0.45388 0.47572
 O349 O -0.02654 0.49816 0.44649
 O350 O -0.02365 0.53519 0.45311
 O351 O 0.05454 0.50122 0.52560
 O352 O 0.04682 0.46512 0.52367
 O353 O 0.00182 0.52596 0.55428
 O354 O -0.03482 0.52244 0.54655
 O355 O 0.02594 0.55446 0.50126
 O356 O 0.02392 0.54692 0.46518
 Zr357 Zr 0.02475 0.52483 0.48873
 O358 O 0.00680 0.50675 0.46912
 Zr359 Zr -0.01102 0.52481 0.52478
 O360 O -0.03073 0.50701 0.50655
 Zr361 Zr 0.02488 0.48880 0.52457
 O362 O 0.00669 0.46924 0.50666
 Zr363 Zr -0.02424 0.51175 0.47550
 O364 O -0.00632 0.53166 0.49363
 Zr365 Zr 0.01159 0.47568 0.47560
 O366 O 0.03157 0.49372 0.49350
 Zr367 Zr -0.02434 0.47590 0.51153
 O368 O -0.00612 0.49372 0.53147
 O369 O 0.01983 0.51973 0.51963
 O370 O -0.01942 0.48069 0.48049
 C371 C 0.06307 0.51559 0.51533
 C372 C 0.01557 0.56309 0.51550
 C373 C 0.01613 0.51560 0.56282
 C374 C -0.06173 0.48376 0.48319
 C375 C -0.01668 0.48341 0.43816
 C376 C -0.01667 0.43829 0.48349
 H377 H 0.01021 0.50998 0.45479
 H378 H 0.00995 0.45488 0.51001
 H379 H 0.02859 0.52848 0.52829
 H380 H -0.04510 0.51042 0.50962
 H381 H -0.04136 0.54635 0.48360
 H382 H -0.04463 0.54445 0.51769
 H383 H 0.03339 0.44474 0.48756
 H384 H 0.05362 0.46607 0.51020
 H385 H -0.01162 0.53304 0.44426
 H386 H 0.01042 0.55366 0.46607
 H387 H -0.01245 0.44528 0.53377
 H388 H 0.01072 0.46594 0.55329
 H389 H 0.05327 0.51065 0.46567
 H390 H 0.03365 0.48753 0.44484
 H391 H -0.03250 0.50963 0.55426
 H392 H -0.05525 0.48802 0.53322
 O393 O 0.50134 0.05440 0.52597
 O394 O 0.46548 0.04692 0.52434
 O395 O 0.52577 0.00089 0.55449
 O396 O 0.52584 -0.03286 0.54868
 O397 O 0.55436 0.02613 0.50114
 O398 O 0.54683 0.02419 0.46528
 O399 O 0.47333 -0.05339 0.49832
 O400 O 0.47710 -0.04759 0.53400
 O401 O 0.44659 -0.00173 0.47366
 O402 O 0.45387 0.03547 0.47542
 O403 O 0.49824 -0.02652 0.44667
 O404 O 0.53535 -0.02478 0.45392
 O405 O 0.49795 -0.05347 0.47378
 O406 O 0.53543 -0.04626 0.47610
 O407 O 0.47366 -0.00193 0.44661
 O408 O 0.47591 0.03557 0.45390
 O409 O 0.44658 -0.02648 0.49811
 O410 O 0.45326 -0.02366 0.53514
 O411 O 0.52583 0.05447 0.50124
 O412 O 0.52383 0.04681 0.46514
 O413 O 0.55437 0.00167 0.52591
 O414 O 0.54661 -0.03504 0.52226
 O415 O 0.50144 0.02581 0.55443
 O416 O 0.46538 0.02394 0.54688
 Zr417 Zr 0.48892 0.02472 0.52481
 O418 O 0.46927 0.00682 0.50673
 Zr419 Zr 0.52488 -0.01119 0.52472
 O420 O 0.50661 -0.03085 0.50691
 Zr421 Zr 0.52472 0.02481 0.48878
 O422 O 0.50676 0.00666 0.46921
 Zr423 Zr 0.47560 -0.02428 0.51168
 O424 O 0.49377 -0.00641 0.53159
 Zr425 Zr 0.47574 0.01164 0.47567
 O426 O 0.49368 0.03158 0.49372
 Zr427 Zr 0.51158 -0.02441 0.47583
 O428 O 0.53156 -0.00625 0.49365
 O429 O 0.51979 0.01972 0.51969
 O430 O 0.48058 -0.01942 0.48064
 C431 C 0.51564 0.06300 0.51567
 C432 C 0.51565 0.01537 0.56304
 C433 C 0.56291 0.01601 0.51561
 C434 C 0.48313 -0.06176 0.48356
 C435 C 0.43826 -0.01657 0.48339
 C436 C 0.48348 -0.01672 0.43831
 H437 H 0.45496 0.01027 0.50996
 H438 H 0.51010 0.00992 0.45486
 H439 H 0.52845 0.02845 0.52845
 H440 H 0.50965 -0.04525 0.51029
 H441 H 0.48371 -0.04153 0.54619
 H442 H 0.51777 -0.04485 0.54428
 H443 H 0.48768 0.03339 0.44470
 H444 H 0.51037 0.05363 0.46611
 H445 H 0.44440 -0.01162 0.53299
 H446 H 0.46623 0.01041 0.55359
 H447 H 0.53378 -0.01254 0.44521
 H448 H 0.55339 0.01057 0.46593
 H449 H 0.46598 0.05340 0.51069
 H450 H 0.44509 0.03383 0.48759
 H451 H 0.55435 -0.03267 0.50949
 H452 H 0.53319 -0.05545 0.48788
 O453 O 0.50158 0.55443 0.02588
 O454 O 0.46572 0.54698 0.02421
 O455 O 0.52594 0.50091 0.05443
 O456 O 0.52607 0.46718 0.04861
 O457 O 0.55461 0.52610 0.00099
 O458 O 0.54704 0.52423 -0.03483
 O459 O 0.47358 0.44662 -0.00173
 O460 O 0.47728 0.45247 0.03393
 O461 O 0.44678 0.49839 -0.02639
 O462 O 0.45413 0.53553 -0.02473
 O463 O 0.49843 0.47347 -0.05340
 O464 O 0.53556 0.47525 -0.04617
 O465 O 0.49823 0.44652 -0.02624
 O466 O 0.53566 0.45378 -0.02401
 O467 O 0.47386 0.49808 -0.05348
 O468 O 0.47617 0.53559 -0.04622
 O469 O 0.44677 0.47360 -0.00198
 O470 O 0.45344 0.47637 0.03502
 O471 O 0.52609 0.55449 0.00116
 O472 O 0.52405 0.54684 -0.03494
 O473 O 0.55459 0.50167 0.02580
 O474 O 0.54680 0.46498 0.02221
 O475 O 0.50160 0.52582 0.05435
 O476 O 0.46558 0.52402 0.04675
 Zr477 Zr 0.48914 0.52476 0.02471
 O478 O 0.46950 0.50687 0.00662
 Zr479 Zr 0.52509 0.48885 0.02464
 O480 O 0.50682 0.46919 0.00683
 Zr481 Zr 0.52494 0.52484 -0.01131
 O482 O 0.50699 0.50669 -0.03089
 Zr483 Zr 0.47580 0.47576 0.01158
 O484 O 0.49397 0.49363 0.03149
 Zr485 Zr 0.47597 0.51167 -0.02443
 O486 O 0.49391 0.53161 -0.00638
 Zr487 Zr 0.51180 0.47561 -0.02426
 O488 O 0.53177 0.49377 -0.00644
 O489 O 0.52002 0.51976 0.01960
 O490 O 0.48079 0.48061 -0.01946
 C491 C 0.51589 0.56303 0.01558
 C492 C 0.51579 0.51537 0.06298
 C493 C 0.56316 0.51596 0.01544
 C494 C 0.48343 0.43823 -0.01645
 C495 C 0.43843 0.48357 -0.01665
 C496 C 0.48366 0.48327 -0.06176
 H497 H 0.45519 0.51033 0.00986
 H498 H 0.51032 0.50994 -0.04524
 H499 H 0.52869 0.52848 0.02837
 H500 H 0.50986 0.45479 0.01022
 H501 H 0.48389 0.45854 0.04611
 H502 H 0.51794 0.45522 0.04424
 H503 H 0.48793 0.53337 -0.05544
 H504 H 0.51059 0.55366 -0.03397
 H505 H 0.44464 0.48846 0.03292
 H506 H 0.46640 0.51049 0.05345
 H507 H 0.53394 0.48745 -0.05495
 H508 H 0.55355 0.51059 -0.03424
 H509 H 0.46628 0.55350 0.01058
 H510 H 0.44542 0.53398 -0.01249
 H511 H 0.55454 0.46733 0.00944
 H512 H 0.53348 0.44465 -0.01217
 O513 O 0.77612 0.30447 0.49868
 O514 O 0.77442 0.29698 0.53457
 O515 O 0.80457 0.25103 0.47421
 O516 O 0.79880 0.21723 0.47427
 O517 O 0.75129 0.27622 0.44559
 O518 O 0.71545 0.27436 0.45311
 O519 O 0.74841 0.19668 0.52664
 O520 O 0.78405 0.20249 0.52294
 O521 O 0.72375 0.24838 0.55341
 O522 O 0.72550 0.28555 0.54614
 O523 O 0.69674 0.22371 0.50161
 O524 O 0.70410 0.22535 0.46454
 O525 O 0.72388 0.19664 0.50200
 O526 O 0.72621 0.20386 0.46453
 O527 O 0.69667 0.24830 0.52620
 O528 O 0.70407 0.28573 0.52406
 O529 O 0.74820 0.22364 0.55346
 O530 O 0.78516 0.22637 0.54681
 O531 O 0.75146 0.30456 0.47410
 O532 O 0.71535 0.29698 0.47612
 O533 O 0.77603 0.25173 0.44561
 O534 O 0.77241 0.21505 0.45339
 O535 O 0.80451 0.27591 0.49858
 O536 O 0.79695 0.27397 0.53468
 Zr537 Zr 0.77491 0.27479 0.51111
 O538 O 0.75680 0.25691 0.53074
 Zr539 Zr 0.77483 0.23890 0.47513
 O540 O 0.75699 0.21925 0.49338
 Zr541 Zr 0.73893 0.27493 0.47525
 O542 O 0.71935 0.25680 0.49318
 Zr543 Zr 0.76174 0.22581 0.52442
 O544 O 0.78167 0.24366 0.50627
 Zr545 Zr 0.72577 0.26175 0.52424
 O546 O 0.74385 0.28169 0.50631
 Zr547 Zr 0.72594 0.22571 0.48838
 O548 O 0.74378 0.24387 0.46841
 O549 O 0.76980 0.26980 0.48022
 O550 O 0.73071 0.23068 0.51941
 C551 C 0.76589 0.31307 0.48432
 C552 C 0.81310 0.26552 0.48433
 C553 C 0.76574 0.26608 0.43705
 C554 C 0.73368 0.18832 0.51681
 C555 C 0.73350 0.23357 0.56178
 C556 C 0.68834 0.23357 0.51631
 H557 H 0.76003 0.26035 0.54506
 H558 H 0.70502 0.26008 0.48982
 H559 H 0.77857 0.27853 0.47155
 H560 H 0.76038 0.20485 0.49035
 H561 H 0.79624 0.20855 0.51635
 H562 H 0.79434 0.20521 0.48226
 H563 H 0.69496 0.28365 0.51219
 H564 H 0.71637 0.30384 0.48956
 H565 H 0.78311 0.23850 0.55557
 H566 H 0.80370 0.26046 0.53378
 H567 H 0.69545 0.23765 0.46603
 H568 H 0.71611 0.26076 0.44651
 H569 H 0.76079 0.30350 0.53401
 H570 H 0.73770 0.28394 0.55489
 H571 H 0.75963 0.21740 0.44566
 H572 H 0.73800 0.19468 0.46676
 O573 O 0.75133 0.77606 -0.05449
 O574 O 0.71551 0.77454 -0.04695
 O575 O 0.77585 0.80469 -0.00106
 O576 O 0.77587 0.79894 0.03268
 O577 O 0.80443 0.75125 -0.02617
 O578 O 0.79688 0.71539 -0.02423
 O579 O 0.72346 0.74865 0.05334
 O580 O 0.72717 0.78431 0.04743
 O581 O 0.69661 0.72392 0.00165
 O582 O 0.70392 0.72554 -0.03547
 O583 O 0.74836 0.69681 0.02643
 O584 O 0.78541 0.70410 0.02477
 O585 O 0.74807 0.72407 0.05344
 O586 O 0.78549 0.72628 0.04617
 O587 O 0.72378 0.69674 0.00185
 O588 O 0.72593 0.70406 -0.03557
 O589 O 0.69659 0.74842 0.02634
 O590 O 0.70329 0.78536 0.02361
 O591 O 0.77585 0.75133 -0.05454
 O592 O 0.77390 0.71524 -0.04681
 O593 O 0.80444 0.77604 -0.00173
 O594 O 0.79666 0.77251 0.03492
 O595 O 0.75153 0.80461 -0.02597
 O596 O 0.71547 0.79711 -0.02403
 Zr597 Zr 0.73898 0.77499 -0.02480
 O598 O 0.71934 0.75693 -0.00689
 Zr599 Zr 0.77494 0.77492 0.01107
 O600 O 0.75667 0.75713 0.03074
 Zr601 Zr 0.77477 0.73892 -0.02486
 O602 O 0.75682 0.71937 -0.00670
 Zr603 Zr 0.72565 0.76190 0.02419
 O604 O 0.74382 0.78180 0.00630
 Zr605 Zr 0.72579 0.72584 -0.01166
 O606 O 0.74373 0.74387 -0.03162
 Zr607 Zr 0.76163 0.72602 0.02436
 O608 O 0.78161 0.74382 0.00618
 O609 O 0.76985 0.76985 -0.01982
 O610 O 0.73061 0.73083 0.01939
 C611 C 0.76560 0.76571 -0.06310
 C612 C 0.76575 0.81322 -0.01555
 C613 C 0.81299 0.76569 -0.01603
 C614 C 0.73332 0.73393 0.06175
 C615 C 0.68824 0.73374 0.01641
 C616 C 0.73366 0.68841 0.01658
 H617 H 0.70503 0.76018 -0.01034
 H618 H 0.76016 0.70501 -0.00995
 H619 H 0.77852 0.77859 -0.02857
 H620 H 0.75972 0.76054 0.04513
 H621 H 0.73377 0.79648 0.04133
 H622 H 0.76782 0.79455 0.04468
 H623 H 0.73776 0.69490 -0.03345
 H624 H 0.76044 0.71620 -0.05363
 H625 H 0.69461 0.78338 0.01142
 H626 H 0.71637 0.80388 -0.01054
 H627 H 0.78392 0.69543 0.01249
 H628 H 0.80345 0.71606 -0.01063
 H629 H 0.71599 0.76087 -0.05342
 H630 H 0.69520 0.73778 -0.03391
 H631 H 0.80437 0.75971 0.03260
 H632 H 0.78332 0.73813 0.05530
 O633 O 1.05446 0.22417 0.24868
 O634 O 1.04700 0.22581 0.28456
 O635 O 1.00104 0.19559 0.22427
 O636 O 0.96735 0.20140 0.22409
 O637 O 1.02619 0.24909 0.19562
 O638 O 1.02426 0.28494 0.20322
 O639 O 0.94673 0.25170 0.27665
 O640 O 0.95261 0.21602 0.27291
 O641 O 0.99837 0.27639 0.30351
 O642 O 1.03548 0.27476 0.29619
 O643 O 0.97351 0.30344 0.25182
 O644 O 0.97531 0.29623 0.21468
 O645 O 0.94662 0.27624 0.25200
 O646 O 0.95390 0.27402 0.21454
 O647 O 0.99806 0.30351 0.27642
 O648 O 1.03553 0.29628 0.27415
 O649 O 0.97365 0.25193 0.30349
 O650 O 0.97646 0.21492 0.29678
 O651 O 1.05451 0.24893 0.22418
 O652 O 1.04683 0.28504 0.22624
 O653 O 1.00181 0.22425 0.19561
 O654 O 0.96515 0.22783 0.20337
 O655 O 1.02591 0.19567 0.24862
 O656 O 1.02409 0.20324 0.28467
 Zr657 Zr 1.02482 0.22532 0.26111
 O658 O 1.00690 0.24338 0.28076
 Zr659 Zr 0.98898 0.22539 0.22511
 O660 O 0.96930 0.24317 0.24340
 Zr661 Zr 1.02488 0.26139 0.22531
 O662 O 1.00671 0.28094 0.24328
 Zr663 Zr 0.97585 0.23840 0.27443
 O664 O 0.99374 0.21851 0.25625
 Zr665 Zr 1.01167 0.27446 0.27432
 O666 O 1.03163 0.25643 0.25637
 Zr667 Zr 0.97568 0.27429 0.23844
 O668 O 0.99386 0.25649 0.21845
 O669 O 1.01984 0.23045 0.23022
 O670 O 0.98065 0.26946 0.26947
 C671 C 1.06305 0.23450 0.23438
 C672 C 1.01548 0.18704 0.23443
 C673 C 1.01609 0.23463 0.18705
 C674 C 0.93834 0.26642 0.26680
 C675 C 0.98357 0.26661 0.31185
 C676 C 0.98328 0.31180 0.26660
 H677 H 1.01035 0.24013 0.29509
 H678 H 1.00995 0.29531 0.23995
 H679 H 1.02856 0.22168 0.22154
 H680 H 0.95492 0.23977 0.24034
 H681 H 0.95869 0.20384 0.26630
 H682 H 0.95540 0.20574 0.23222
 H683 H 1.03333 0.30550 0.26239
 H684 H 1.05363 0.28407 0.23970
 H685 H 0.98853 0.21703 0.30561
 H686 H 1.01058 0.19653 0.28384
 H687 H 0.98750 0.30499 0.21629
 H688 H 1.01065 0.28432 0.19668
 H689 H 1.05349 0.23946 0.28402
 H690 H 1.03393 0.26250 0.30490
 H691 H 0.96750 0.24060 0.19563
 H692 H 0.94477 0.26218 0.21673
 O693 O 0.75143 0.97398 0.80439
 O694 O 0.71557 0.97558 0.79694
 O695 O 0.77580 0.94543 0.75088
 O696 O 0.77590 0.95126 0.71717
 O697 O 0.80441 0.99891 0.77607
 O698 O 0.79680 1.03476 0.77417
 O699 O 0.72330 1.00159 0.69666
 O700 O 0.72711 0.96591 0.70247
 O701 O 0.69650 1.02616 0.74839
 O702 O 0.70389 1.02456 0.78549
 O703 O 0.74820 1.05332 0.72353
 O704 O 0.78529 1.04607 0.72521
 O705 O 0.74792 1.02614 0.69654
 O706 O 0.78536 1.02391 0.70376
 O707 O 0.72361 1.05336 0.74808
 O708 O 0.72590 1.04607 0.78555
 O709 O 0.69650 1.00170 0.72367
 O710 O 0.70328 0.96474 0.72635
 O711 O 0.77590 0.99875 0.80444
 O712 O 0.77383 1.03485 0.79678
 O713 O 0.80442 0.97410 0.75165
 O714 O 0.79660 0.97771 0.71498
 O715 O 0.75149 0.94549 0.77580
 O716 O 0.71545 0.95303 0.77400
 Zr717 Zr 0.73898 0.97513 0.77473
 O718 O 0.71930 0.99319 0.75685
 Zr719 Zr 0.77490 0.97524 0.73883
 O720 O 0.75659 0.99304 0.71919
 Zr721 Zr 0.77473 1.01121 0.77480
 O722 O 0.75673 1.03077 0.75666
 Zr723 Zr 0.72559 0.98825 0.72576
 O724 O 0.74380 0.96834 0.74362
 Zr725 Zr 0.72572 1.02428 0.76164
 O726 O 0.74370 1.00624 0.78157
 Zr727 Zr 0.76153 1.02415 0.72560
 O728 O 0.78155 1.00634 0.74375
 O729 O 0.76984 0.98027 0.76972
 O730 O 0.73052 1.01931 0.73059
 C731 C 0.76572 0.98431 0.81298
 C732 C 0.76567 0.93687 0.76534
 C733 C 0.81297 0.98446 0.76594
 C734 C 0.73312 1.01633 0.68826
 C735 C 0.68813 1.01635 0.73364
 C736 C 0.73345 1.06169 0.73333
 H737 H 0.70500 0.98993 0.76032
 H738 H 0.76006 1.04513 0.75992
 H739 H 0.77853 0.97150 0.77844
 H740 H 0.75962 0.98965 0.70479
 H741 H 0.73374 0.95373 0.70852
 H742 H 0.76779 0.95564 0.70521
 H743 H 0.73767 1.05528 0.78337
 H744 H 0.76038 1.03387 0.80360
 H745 H 0.69456 0.96675 0.73851
 H746 H 0.71630 0.94629 0.76049
 H747 H 0.78374 1.05479 0.73746
 H748 H 0.80335 1.03412 0.76056
 H749 H 0.71611 0.98922 0.80346
 H750 H 0.69524 1.01227 0.78398
 H751 H 0.80433 0.99050 0.71734
 H752 H 0.78317 1.01208 0.69462
 O753 O 0.74855 0.55455 0.22404
 O754 O 0.78440 0.54708 0.22568
 O755 O 0.72410 0.50111 0.19553
 O756 O 0.72414 0.46734 0.20128
 O757 O 0.69549 0.52617 0.24898
 O758 O 0.70312 0.52439 0.28478
 O759 O 0.77658 0.44673 0.25159
 O760 O 0.77287 0.45261 0.21595
 O761 O 0.80332 0.49840 0.27636
 O762 O 0.79603 0.53563 0.27456
 O763 O 0.75171 0.47365 0.30335
 O764 O 0.71459 0.47536 0.29608
 O765 O 0.75200 0.44666 0.27618
 O766 O 0.71455 0.45387 0.27395
 O767 O 0.77622 0.49830 0.30343
 O768 O 0.77402 0.53573 0.29609
 O769 O 0.80335 0.47366 0.25191
 O770 O 0.79669 0.47652 0.21487
 O771 O 0.72401 0.55461 0.24872
 O772 O 0.72608 0.54699 0.28483
 O773 O 0.69550 0.50171 0.22420
 O774 O 0.70337 0.46508 0.22768
 O775 O 0.74846 0.52599 0.19559
 O776 O 0.78451 0.52410 0.20313
 Zr777 Zr 0.76097 0.52488 0.22520
 O778 O 0.78064 0.50698 0.24328
 Zr779 Zr 0.72504 0.48897 0.22529
 O780 O 0.74333 0.46931 0.24309
 Zr781 Zr 0.72518 0.52496 0.26123
 O782 O 0.74316 0.50681 0.28080
 Zr783 Zr 0.77434 0.47589 0.23832
 O784 O 0.75615 0.49375 0.21841
 Zr785 Zr 0.77417 0.51179 0.27433
 O786 O 0.75621 0.53173 0.25629
 Zr787 Zr 0.73837 0.47573 0.27418
 O788 O 0.71838 0.49389 0.25637
 O789 O 0.73010 0.51988 0.23033
 O790 O 0.76937 0.48073 0.26936
 C791 C 0.73422 0.56315 0.23431
 C792 C 0.73423 0.51559 0.18699
 C793 C 0.68692 0.51598 0.23458
 C794 C 0.76678 0.43835 0.26634
 C795 C 0.81166 0.48357 0.26663
 C796 C 0.76642 0.48351 0.31173
 H797 H 0.79495 0.51043 0.24004
 H798 H 0.73982 0.51007 0.29515
 H799 H 0.72139 0.52860 0.22158
 H800 H 0.74029 0.45491 0.23970
 H801 H 0.76627 0.45869 0.20377
 H802 H 0.73222 0.45535 0.20568
 H803 H 0.76217 0.53364 0.30521
 H804 H 0.73952 0.55384 0.28382
 H805 H 0.80555 0.48856 0.21704
 H806 H 0.78367 0.51057 0.19642
 H807 H 0.71618 0.48756 0.30484
 H808 H 0.69662 0.51075 0.28422
 H809 H 0.78390 0.55354 0.23934
 H810 H 0.80484 0.53395 0.26242
 H811 H 0.69569 0.46735 0.24051
 H812 H 0.71676 0.44471 0.26213
 O813 O 0.55436 0.22390 0.74850
 O814 O 0.54693 0.22557 0.78441
 O815 O 0.50099 0.19539 0.72408
 O816 O 0.46726 0.20117 0.72404
 O817 O 0.52606 0.24889 0.69548
 O818 O 0.52418 0.28473 0.70311
 O819 O 0.44666 0.25149 0.77656
 O820 O 0.45253 0.21581 0.77282
 O821 O 0.49834 0.27615 0.80340
 O822 O 0.53545 0.27450 0.79606
 O823 O 0.47346 0.30322 0.75175
 O824 O 0.47525 0.29602 0.71458
 O825 O 0.44655 0.27604 0.75192
 O826 O 0.45381 0.27385 0.71447
 O827 O 0.49804 0.30328 0.77632
 O828 O 0.53550 0.29603 0.77402
 O829 O 0.47360 0.25172 0.80339
 O830 O 0.47640 0.21470 0.79667
 O831 O 0.55441 0.24865 0.72399
 O832 O 0.54678 0.28479 0.72612
 O833 O 0.50167 0.22406 0.69547
 O834 O 0.46503 0.22760 0.70327
 O835 O 0.52585 0.19545 0.74846
 O836 O 0.52399 0.20299 0.78452
 Zr837 Zr 0.52473 0.22508 0.76097
 O838 O 0.50684 0.24314 0.78064
 Zr839 Zr 0.48887 0.22517 0.72500
 O840 O 0.46922 0.24297 0.74329
 Zr841 Zr 0.52479 0.26116 0.72518
 O842 O 0.50665 0.28072 0.74317
 Zr843 Zr 0.47578 0.23818 0.77433
 O844 O 0.49365 0.21828 0.75613
 Zr845 Zr 0.51163 0.27422 0.77420
 O846 O 0.53156 0.25619 0.75623
 Zr847 Zr 0.47561 0.27408 0.73834
 O848 O 0.49377 0.25628 0.71834
 O849 O 0.51973 0.23023 0.73009
 O850 O 0.48060 0.26924 0.76937
 C851 C 0.56293 0.23419 0.73417
 C852 C 0.51545 0.18684 0.73422
 C853 C 0.51595 0.23444 0.68691
 C854 C 0.43827 0.26622 0.76672
 C855 C 0.48354 0.26639 0.81174
 C856 C 0.48325 0.31158 0.76652
 H857 H 0.51030 0.23989 0.79496
 H858 H 0.50989 0.29508 0.73984
 H859 H 0.52844 0.22147 0.72139
 H860 H 0.45484 0.23957 0.74025
 H861 H 0.45860 0.20364 0.76620
 H862 H 0.45528 0.20555 0.73212
 H863 H 0.53331 0.30524 0.76225
 H864 H 0.55361 0.28377 0.73957
 H865 H 0.48847 0.21680 0.80549
 H866 H 0.51049 0.19627 0.78368
 H867 H 0.48742 0.30482 0.71622
 H868 H 0.51056 0.28414 0.69659
 H869 H 0.55344 0.23921 0.78384
 H870 H 0.53390 0.26224 0.80476
 H871 H 0.46736 0.24040 0.69555
 H872 H 0.44469 0.26200 0.71664
 O873 O 0.19565 0.72407 0.50127
 O874 O 0.20312 0.72573 0.46540
 O875 O 0.24907 0.69548 0.52569
 O876 O 0.28277 0.70127 0.52582
 O877 O 0.22391 0.74893 0.55437
 O878 O 0.22579 0.78478 0.54681
 O879 O 0.30333 0.75168 0.47330
 O880 O 0.29752 0.71598 0.47705
 O881 O 0.25175 0.77641 0.44654
 O882 O 0.21459 0.77467 0.45382
 O883 O 0.27651 0.80336 0.49824
 O884 O 0.27473 0.79608 0.53538
 O885 O 0.30341 0.77622 0.49795
 O886 O 0.29620 0.77390 0.53544
 O887 O 0.25195 0.80346 0.47364
 O888 O 0.21449 0.79618 0.47589
 O889 O 0.27646 0.75194 0.44653
 O890 O 0.27362 0.71487 0.45319
 O891 O 0.19557 0.74879 0.52581
 O892 O 0.20322 0.78491 0.52380
 O893 O 0.24832 0.72411 0.55437
 O894 O 0.28496 0.72768 0.54659
 O895 O 0.22420 0.69557 0.50132
 O896 O 0.22605 0.70317 0.46527
 Zr897 Zr 0.22529 0.72523 0.48886
 O898 O 0.24318 0.74332 0.46922
 Zr899 Zr 0.26113 0.72527 0.52485
 O900 O 0.28079 0.74309 0.50659
 Zr901 Zr 0.22520 0.76126 0.52469
 O902 O 0.24334 0.78084 0.50675
 Zr903 Zr 0.27424 0.73834 0.47555
 O904 O 0.25638 0.71842 0.49371
 Zr905 Zr 0.23838 0.77439 0.47570
 O906 O 0.21845 0.75633 0.49363
 Zr907 Zr 0.27438 0.77419 0.51158
 O908 O 0.25622 0.75636 0.53155
 O909 O 0.23027 0.73033 0.51975
 O910 O 0.26940 0.76939 0.48055
 C911 C 0.18704 0.73437 0.51558
 C912 C 0.23463 0.68693 0.51552
 C913 C 0.23403 0.73448 0.56293
 C914 C 0.31169 0.76644 0.48312
 C915 C 0.26657 0.76667 0.43821
 C916 C 0.26673 0.81174 0.48347
 H917 H 0.23975 0.74009 0.45489
 H918 H 0.24009 0.79520 0.51010
 H919 H 0.22155 0.72155 0.52842
 H920 H 0.29518 0.73969 0.50963
 H921 H 0.29146 0.70379 0.48363
 H922 H 0.29473 0.70565 0.51771
 H923 H 0.21667 0.80538 0.48767
 H924 H 0.19641 0.78394 0.51033
 H925 H 0.26161 0.71706 0.44430
 H926 H 0.23957 0.69646 0.46610
 H927 H 0.26255 0.80486 0.53377
 H928 H 0.23940 0.78417 0.55335
 H929 H 0.19665 0.73940 0.46592
 H930 H 0.21622 0.76249 0.44503
 H931 H 0.28263 0.74047 0.55431
 H932 H 0.30537 0.76210 0.53320
 O933 O 0.30459 0.25138 0.97402
 O934 O 0.29710 0.21548 0.97571
 O935 O 0.25125 0.27590 0.94552
 O936 O 0.21749 0.27587 0.95127
 O937 O 0.27637 0.30451 0.99886
 O938 O 0.27448 0.29697 1.03472
 O939 O 0.19687 0.22350 1.00162
 O940 O 0.20275 0.22717 0.96598
 O941 O 0.24856 0.19660 1.02631
 O942 O 0.28565 0.20390 1.02467
 O943 O 0.22383 0.24844 1.05337
 O944 O 0.22552 0.28553 1.04605
 O945 O 0.19681 0.24817 1.02615
 O946 O 0.20410 0.28562 1.02391
 O947 O 0.24838 0.22382 1.05346
 O948 O 0.28579 0.22597 1.04611
 O949 O 0.22385 0.19658 1.00186
 O950 O 0.22654 0.20326 0.96492
 O951 O 0.30468 0.27596 0.99871
 O952 O 0.29706 0.27392 1.03483
 O953 O 0.25193 0.30451 0.97408
 O954 O 0.21530 0.29676 0.97767
 O955 O 0.27610 0.25151 0.94560
 O956 O 0.27414 0.21539 0.95314
 Zr957 Zr 0.27495 0.23896 0.97521
 O958 O 0.25706 0.21933 0.99330
 Zr959 Zr 0.23911 0.27498 0.97527
 O960 O 0.21947 0.25672 0.99309
 Zr961 Zr 0.27507 0.27483 1.01122
 O962 O 0.25693 0.25688 1.03079
 Zr963 Zr 0.22600 0.22566 0.98835
 O964 O 0.24386 0.24382 0.96842
 Zr965 Zr 0.26187 0.22581 1.02436
 O966 O 0.28180 0.24374 1.00629
 Zr967 Zr 0.22589 0.26171 1.02417
 O968 O 0.24404 0.28169 1.00634
 O969 O 0.26997 0.26987 0.98032
 O970 O 0.23083 0.23065 1.01940
 C971 C 0.31318 0.26574 0.98428
 C972 C 0.26573 0.26578 0.93700
 C973 C 0.26626 0.31306 0.98439
 C974 C 0.18849 0.23339 1.01632
 C975 C 0.23380 0.18822 1.01652
 C976 C 0.23367 0.23372 1.06178
 H977 H 0.26050 0.20500 0.99007
 H978 H 0.26019 0.26024 1.04514
 H979 H 0.27870 0.27855 0.97156
 H980 H 0.20508 0.25979 0.98969
 H981 H 0.20882 0.23377 0.95380
 H982 H 0.20547 0.26788 0.95571
 H983 H 0.28369 0.23783 1.05523
 H984 H 0.30391 0.26047 1.03382
 H985 H 0.23872 0.19456 0.96691
 H986 H 0.26066 0.21631 0.94637
 H987 H 0.23779 0.28402 1.05472
 H988 H 0.26089 0.30356 1.03405
 H989 H 0.30363 0.21604 0.98934
 H990 H 0.28412 0.19521 1.01241
 H991 H 0.21764 0.30449 0.99045
 H992 H 0.19498 0.28345 1.01206
 C993 C 0.31477 0.33988 0.81457
 C994 C 0.30578 0.35310 0.80541
 C995 C 0.29597 0.36952 0.79546
 C996 C 0.28822 0.38429 0.78765
 C997 C 0.27994 0.40239 0.77933
 C998 C 0.27356 0.41845 0.77297
 C999 C 0.31598 -0.15877 0.31589
 C1000 C 0.30679 -0.14578 0.30660
 C1001 C 0.29675 -0.12962 0.29645
 C1002 C 0.28882 -0.11506 0.28844
 C1003 C 0.28033 -0.09718 0.27989
 C1004 C 0.27381 -0.08124 0.27335
 C1005 C 0.81202 0.83715 0.81167
 C1006 C 0.80298 0.85038 0.80258
 C1007 C 0.79321 0.86691 0.79277
 C1008 C 0.78562 0.88186 0.78516
 C1009 C 0.77765 0.90026 0.77720
 C1010 C 0.77169 0.91665 0.77127
 C1011 C 0.43418 0.90903 0.31572
 C1012 C 0.44338 0.89604 0.30643
 C1013 C 0.45343 0.87989 0.29628
 C1014 C 0.46137 0.86533 0.28828
 C1015 C 0.46986 0.84743 0.27975
 C1016 C 0.47638 0.83149 0.27323
 C1017 C -0.06318 0.91154 0.81331
 C1018 C -0.05395 0.89856 0.80405
 C1019 C -0.04396 0.88231 0.79400
 C1020 C -0.03619 0.86758 0.78615
 C1021 C -0.02802 0.84940 0.77790
 C1022 C -0.02190 0.83316 0.77174
 C1023 C -0.06380 -0.16075 -0.06375
 C1024 C -0.05490 -0.14737 -0.05474
 C1025 C -0.04523 -0.13077 -0.04495
 C1026 C -0.03763 -0.11587 -0.03727
 C1027 C -0.02951 -0.09765 -0.02908
 C1028 C -0.02325 -0.08151 -0.02280
 C1029 C -0.06467 0.33986 0.43555
 C1030 C -0.05561 0.35310 0.44460
 C1031 C -0.04576 0.36954 0.45447
 C1032 C -0.03801 0.38432 0.46225
 C1033 C -0.02973 0.40243 0.47054
 C1034 C -0.02336 0.41850 0.47689
 C1035 C 0.43403 -0.15888 0.43419
 C1036 C 0.44323 -0.14591 0.44349
 C1037 C 0.45330 -0.12977 0.45364
 C1038 C 0.46125 -0.11522 0.46165
 C1039 C 0.46976 -0.09735 0.47021
 C1040 C 0.47630 -0.08143 0.47675
 C1041 C 0.43542 0.33996 -0.06470
 C1042 C 0.44450 0.35317 -0.05563
 C1043 C 0.45436 0.36958 -0.04571
 C1044 C 0.46211 0.38433 -0.03789
 C1045 C 0.47038 0.40241 -0.02953
 C1046 C 0.47674 0.41846 -0.02312
 C1047 C 0.81434 0.41056 0.43575
 C1048 C 0.80498 0.39781 0.44518
 C1049 C 0.79479 0.38180 0.45542
 C1050 C 0.78683 0.36725 0.46341
 C1051 C 0.77845 0.34925 0.47180
 C1052 C 0.77217 0.33311 0.47807
 C1053 C 0.81326 0.91177 -0.06296
 C1054 C 0.80406 0.89880 -0.05367
 C1055 C 0.79405 0.88255 -0.04364
 C1056 C 0.78624 0.86781 -0.03585
 C1057 C 0.77803 0.84962 -0.02770
 C1058 C 0.77189 0.83336 -0.02162
 C1059 C 0.81446 0.31454 0.33968
 C1060 C 0.80502 0.30518 0.35243
 C1061 C 0.79475 0.29501 0.36842
 C1062 C 0.78673 0.28706 0.38295
 C1063 C 0.77830 0.27868 0.40093
 C1064 C 0.77202 0.27240 0.41704
 C1065 C 0.81199 0.81182 -0.16286
 C1066 C 0.80293 0.80281 -0.14960
 C1067 C 0.79314 0.79310 -0.13304
 C1068 C 0.78553 0.78555 -0.11807
 C1069 C 0.77756 0.77763 -0.09968
 C1070 C 0.77160 0.77170 -0.08330
 C1071 C 0.31492 0.43538 0.90987
 C1072 C 0.30582 0.44448 0.89669
 C1073 C 0.29590 0.45437 0.88031
 C1074 C 0.28808 0.46215 0.86557
 C1075 C 0.27974 0.47044 0.84750
 C1076 C 0.27336 0.47682 0.83145
 C1077 C 0.31577 -0.06572 0.40900
 C1078 C 0.30651 -0.05648 0.39603
 C1079 C 0.29640 -0.04638 0.37988
 C1080 C 0.28843 -0.03840 0.36533
 C1081 C 0.27992 -0.02988 0.34745
 C1082 C 0.27340 -0.02334 0.33152
 C1083 C -0.06352 -0.06356 -0.16087
 C1084 C -0.05456 -0.05465 -0.14747
 C1085 C -0.04484 -0.04497 -0.13083
 C1086 C -0.03720 -0.03737 -0.11591
 C1087 C -0.02907 -0.02925 -0.09767
 C1088 C -0.02283 -0.02301 -0.08151
 C1089 C -0.06592 0.43427 0.34104
 C1090 C -0.05665 0.44350 0.35401
 C1091 C -0.04652 0.45358 0.37014
 C1092 C -0.03853 0.46154 0.38469
 C1093 C -0.03000 0.47005 0.40256
 C1094 C -0.02347 0.47659 0.41848
 C1095 C 0.43428 -0.06571 0.34109
 C1096 C 0.44356 -0.05651 0.35407
 C1097 C 0.45369 -0.04646 0.37023
 C1098 C 0.46168 -0.03852 0.38479
 C1099 C 0.47020 -0.03004 0.40268
 C1100 C 0.47672 -0.02352 0.41862
 C1101 C 0.43436 0.43411 -0.15885
 C1102 C 0.44366 0.44333 -0.14590
 C1103 C 0.45381 0.45342 -0.12977
 C1104 C 0.46181 0.46138 -0.11523
 C1105 C 0.47035 0.46989 -0.09736
 C1106 C 0.47688 0.47644 -0.08144
 C1107 C 0.43412 0.81585 0.40883
 C1108 C 0.44341 0.80663 0.39587
 C1109 C 0.45355 0.79655 0.37973
 C1110 C 0.46154 0.78859 0.36519
 C1111 C 0.47007 0.78008 0.34731
 C1112 C 0.47658 0.77353 0.33139
 C1113 C -0.06327 0.81356 0.91125
 C1114 C -0.05395 0.80438 0.89828
 C1115 C -0.04387 0.79441 0.88204
 C1116 C -0.03603 0.78661 0.86733
 C1117 C -0.02782 0.77840 0.84917
 C1118 C -0.02169 0.77223 0.83295
 C1119 C 0.34120 0.81585 0.31597
 C1120 C 0.35415 0.80655 0.30674
 C1121 C 0.37027 0.79640 0.29666
 C1122 C 0.38479 0.78839 0.28869
 C1123 C 0.40265 0.77984 0.28017
 C1124 C 0.41855 0.77330 0.27363
 C1125 C -0.16265 0.81170 0.81174
 C1126 C -0.14944 0.80259 0.80270
 C1127 C -0.13292 0.79277 0.79293
 C1128 C -0.11798 0.78516 0.78534
 C1129 C -0.09960 0.77720 0.77739
 C1130 C -0.08323 0.77127 0.77144
 C1131 C 0.91054 0.31400 0.43594
 C1132 C 0.89781 0.30456 0.44532
 C1133 C 0.88183 0.29431 0.45551
 C1134 C 0.86729 0.28632 0.46347
 C1135 C 0.84929 0.27793 0.47184
 C1136 C 0.83315 0.27170 0.47809
 C1137 C 0.91134 0.81344 -0.06349
 C1138 C 0.89837 0.80416 -0.05427
 C1139 C 0.88214 0.79409 -0.04430
 C1140 C 0.86743 0.78623 -0.03654
 C1141 C 0.84928 0.77799 -0.02837
 C1142 C 0.83306 0.77183 -0.02224
 C1143 C -0.16097 -0.06330 -0.06346
 C1144 C -0.14756 -0.05435 -0.05456
 C1145 C -0.13091 -0.04464 -0.04490
 C1146 C -0.11597 -0.03703 -0.03732
 C1147 C -0.09772 -0.02894 -0.02921
 C1148 C -0.08156 -0.02273 -0.02297
 C1149 C -0.15995 0.43550 0.43523
 C1150 C -0.14675 0.44465 0.44424
 C1151 C -0.13035 0.45459 0.45408
 C1152 C -0.11560 0.46240 0.46183
 C1153 C -0.09754 0.47073 0.47013
 C1154 C -0.08150 0.47710 0.47651
 C1155 C 0.34110 -0.06569 0.43428
 C1156 C 0.35408 -0.05642 0.44350
 C1157 C 0.37022 -0.04631 0.45357
 C1158 C 0.38477 -0.03833 0.46153
 C1159 C 0.40265 -0.02982 0.47003
 C1160 C 0.41858 -0.02332 0.47657
 C1161 C 0.34030 0.43546 -0.06484
 C1162 C 0.35347 0.44461 -0.05581
 C1163 C 0.36985 0.45455 -0.04593
 C1164 C 0.38458 0.46234 -0.03813
 C1165 C 0.40263 0.47063 -0.02978
 C1166 C 0.41867 0.47697 -0.02336
 C1167 C 0.40900 0.43419 0.81591
 C1168 C 0.39602 0.44348 0.80670
 C1169 C 0.37988 0.45363 0.79663
 C1170 C 0.36534 0.46163 0.78868
 C1171 C 0.34748 0.47018 0.78017
 C1172 C 0.33157 0.47673 0.77362
 C1173 C 0.40894 -0.06559 0.31582
 C1174 C 0.39598 -0.05629 0.30661
 C1175 C 0.37984 -0.04614 0.29654
 C1176 C 0.36530 -0.03814 0.28860
 C1177 C 0.34742 -0.02961 0.28009
 C1178 C 0.33149 -0.02310 0.27356
 C1179 C 0.08892 0.56335 0.68664
 C1180 C 0.10188 0.55414 0.69593
 C1181 C 0.11811 0.54412 0.70597
 C1182 C 0.13283 0.53628 0.71376
 C1183 C 0.15099 0.52804 0.72193
 C1184 C 0.16722 0.52187 0.72803
 C1185 C 0.08736 0.06209 0.18817
 C1186 C 0.10062 0.05311 0.19728
 C1187 C 0.11717 0.04342 0.20711
 C1188 C 0.13212 0.03589 0.21476
 C1189 C 0.15050 0.02798 0.22276
 C1190 C 0.16686 0.02203 0.22874
 C1191 C 0.66133 0.68698 0.18672
 C1192 C 0.64834 0.69623 0.19593
 C1193 C 0.63208 0.70621 0.20595
 C1194 C 0.61735 0.71398 0.21377
 C1195 C 0.59917 0.72214 0.22199
 C1196 C 0.58293 0.72824 0.22813
 C1197 C 0.16106 0.68639 0.68653
 C1198 C 0.14764 0.69529 0.69548
 C1199 C 0.13100 0.70496 0.70517
 C1200 C 0.11606 0.71257 0.71277
 C1201 C 0.09781 0.72069 0.72085
 C1202 C 0.08165 0.72694 0.72706
 C1203 C 0.58914 0.18643 0.56339
 C1204 C 0.60254 0.19534 0.55444
 C1205 C 0.61917 0.20503 0.54474
 C1206 C 0.63410 0.21263 0.53713
 C1207 C 0.65234 0.22076 0.52902
 C1208 C 0.66849 0.22700 0.52281
 C1209 C 0.58912 0.68650 0.06353
 C1210 C 0.60251 0.69544 0.05459
 C1211 C 0.61912 0.70514 0.04488
 C1212 C 0.63403 0.71277 0.03726
 C1213 C 0.65226 0.72091 0.02915
 C1214 C 0.66840 0.72716 0.02292
 C1215 C 0.16162 0.06332 0.06324
 C1216 C 0.14861 0.05418 0.05395
 C1217 C 0.13233 0.04426 0.04391
 C1218 C 0.11758 0.03651 0.03610
 C1219 C 0.09939 0.02835 0.02791
 C1220 C 0.08316 0.02222 0.02180
 C1221 C 0.16265 0.56197 0.56174
 C1222 C 0.14943 0.55293 0.55266
 C1223 C 0.13291 0.54315 0.54285
 C1224 C 0.11798 0.53555 0.53524
 C1225 C 0.09961 0.52758 0.52726
 C1226 C 0.08326 0.52161 0.52131
 C1227 C 0.66022 0.06453 0.56434
 C1228 C 0.64748 0.05518 0.55489
 C1229 C 0.63150 0.04501 0.54461
 C1230 C 0.61698 0.03705 0.53659
 C1231 C 0.59901 0.02865 0.52817
 C1232 C 0.58290 0.02235 0.52188
 C1233 C 0.66160 0.56337 0.06310
 C1234 C 0.64861 0.55422 0.05379
 C1235 C 0.63236 0.54427 0.04372
 C1236 C 0.61763 0.53650 0.03589
 C1237 C 0.59947 0.52831 0.02769
 C1238 C 0.58324 0.52217 0.02158
 C1239 C 0.06198 0.06190 0.16279
 C1240 C 0.05295 0.05276 0.14959
 C1241 C 0.04320 0.04290 0.13309
 C1242 C 0.03561 0.03526 0.11816
 C1243 C 0.02766 0.02728 0.09978
 C1244 C 0.02170 0.02135 0.08340
 C1245 C 0.06366 0.56329 0.66123
 C1246 C 0.05443 0.55405 0.64825
 C1247 C 0.04446 0.54399 0.63200
 C1248 C 0.03668 0.53615 0.61728
 C1249 C 0.02851 0.52791 0.59912
 C1250 C 0.02236 0.52175 0.58289
 C1251 C 0.56296 0.06271 0.66170
 C1252 C 0.55380 0.05341 0.64871
 C1253 C 0.54384 0.04338 0.63243
 C1254 C 0.53606 0.03560 0.61767
 C1255 C 0.52788 0.02747 0.59946
 C1256 C 0.52177 0.02141 0.58318
 C1257 C 0.56188 0.56192 0.16264
 C1258 C 0.55288 0.55277 0.14943
 C1259 C 0.54317 0.54290 0.13290
 C1260 C 0.53562 0.53525 0.11796
 C1261 C 0.52770 0.52726 0.09957
 C1262 C 0.52177 0.52131 0.08319
 C1263 C 0.18797 0.56191 0.58719
 C1264 C 0.19699 0.55283 0.60043
 C1265 C 0.20674 0.54302 0.61697
 C1266 C 0.21433 0.53540 0.63191
 C1267 C 0.22231 0.52741 0.65028
 C1268 C 0.22831 0.52144 0.66663
 C1269 C 0.18696 0.06317 0.08859
 C1270 C 0.19620 0.05390 0.10156
 C1271 C 0.20618 0.04384 0.11781
 C1272 C 0.21395 0.03601 0.13255
 C1273 C 0.22210 0.02780 0.15074
 C1274 C 0.22819 0.02169 0.16700
 C1275 C 0.68528 0.18538 0.65992
 C1276 C 0.69439 0.19447 0.64674
 C1277 C 0.70429 0.20439 0.63036
 C1278 C 0.71207 0.21221 0.61563
 C1279 C 0.72039 0.22055 0.59758
 C1280 C 0.72678 0.22693 0.58154
 C1281 C 0.68624 0.68663 0.16094
 C1282 C 0.69513 0.69560 0.14753
 C1283 C 0.70479 0.70534 0.13090
 C1284 C 0.71238 0.71298 0.11597
 C1285 C 0.72048 0.72113 0.09774
 C1286 C 0.72673 0.72739 0.08159
 C1287 C 0.56339 0.68693 0.08849
 C1288 C 0.55421 0.69622 0.10148
 C1289 C 0.54424 0.70626 0.11774
 C1290 C 0.53645 0.71407 0.13247
 C1291 C 0.52823 0.72226 0.15065
 C1292 C 0.52207 0.72838 0.16688
 C1293 C 0.06358 0.68657 0.58873
 C1294 C 0.05470 0.69551 0.60216
 C1295 C 0.04505 0.70521 0.61883
 C1296 C 0.03748 0.71282 0.63378
 C1297 C 0.02938 0.72093 0.65204
 C1298 C 0.02314 0.72713 0.66821
 C1299 C 0.56171 0.58736 0.18799
 C1300 C 0.55258 0.60055 0.19703
 C1301 C 0.54273 0.61706 0.20681
 C1302 C 0.53509 0.63199 0.21441
 C1303 C 0.52711 0.65037 0.22239
 C1304 C 0.52117 0.66675 0.22835
 C1305 C 0.06395 0.58909 0.68614
 C1306 C 0.05496 0.60249 0.69503
 C1307 C 0.04518 0.61911 0.70468
 C1308 C 0.03750 0.63403 0.71226
 C1309 C 0.02930 0.65226 0.72036
 C1310 C 0.02301 0.66840 0.72660
 C1311 C 0.06353 0.16155 0.06334
 C1312 C 0.05427 0.14858 0.05409
 C1313 C 0.04422 0.13234 0.04408
 C1314 C 0.03638 0.11762 0.03629
 C1315 C 0.02814 0.09945 0.02811
 C1316 C 0.02198 0.08322 0.02199
 C1317 C 0.06308 0.66165 0.56293
 C1318 C 0.05378 0.64868 0.55372
 C1319 C 0.04374 0.63243 0.54373
 C1320 C 0.03593 0.61769 0.53593
 C1321 C 0.02775 0.59949 0.52774
 C1322 C 0.02166 0.58323 0.52162
 C1323 C 0.56333 0.16153 0.56304
 C1324 C 0.55409 0.14854 0.55380
 C1325 C 0.54404 0.13228 0.54382
 C1326 C 0.53619 0.11755 0.53606
 C1327 C 0.52795 0.09936 0.52791
 C1328 C 0.52179 0.08312 0.52181
 C1329 C 0.56336 0.66157 0.06314
 C1330 C 0.55416 0.64858 0.05387
 C1331 C 0.54416 0.63231 0.04385
 C1332 C 0.53636 0.61757 0.03604
 C1333 C 0.52817 0.59939 0.02786
 C1334 C 0.52204 0.58314 0.02174
 C1335 C 0.68518 0.09021 0.56488
 C1336 C 0.69437 0.10339 0.55587
 C1337 C 0.70435 0.11977 0.54602
 C1338 C 0.71220 0.13450 0.53825
 C1339 C 0.72057 0.15254 0.52993
 C1340 C 0.72698 0.16857 0.52352
 C1341 C 0.68656 0.58909 0.06363
 C1342 C 0.69551 0.60251 0.05475
 C1343 C 0.70522 0.61917 0.04509
 C1344 C 0.71284 0.63411 0.03750
 C1345 C 0.72094 0.65238 0.02940
 C1346 C 0.72716 0.66855 0.02316
 C1347 C 0.18694 0.66155 0.68687
 C1348 C 0.19625 0.64859 0.69609
 C1349 C 0.20636 0.63235 0.70604
 C1350 C 0.21426 0.61763 0.71378
 C1351 C 0.22254 0.59944 0.72190
 C1352 C 0.22870 0.58318 0.72798
 C1353 C 0.18690 0.16174 0.18683
 C1354 C 0.19615 0.14874 0.19604
 C1355 C 0.20615 0.13247 0.20606
 C1356 C 0.21392 0.11773 0.21389
 C1357 C 0.22207 0.09954 0.22212
 C1358 C 0.22818 0.08329 0.22828
 C1359 C 0.68530 1.15999 0.68522
 C1360 C 0.69442 1.14678 0.69426
 C1361 C 0.70434 1.13036 0.70413
 C1362 C 0.71213 1.11560 0.71191
 C1363 C 0.72043 1.09752 0.72024
 C1364 C 0.72680 1.08147 0.72664
 C1365 C 0.68671 0.66166 0.18670
 C1366 C 0.69599 0.64868 0.19590
 C1367 C 0.70601 0.63242 0.20592
 C1368 C 0.71380 0.61769 0.21375
 C1369 C 0.72197 0.59950 0.22198
 C1370 C 0.72808 0.58326 0.22814
 C1371 C 0.56288 0.08812 0.68701
 C1372 C 0.55365 0.10113 0.69623
 C1373 C 0.54363 0.11742 0.70618
 C1374 C 0.53581 0.13219 0.71392
 C1375 C 0.52762 0.15041 0.72204
 C1376 C 0.52152 0.16669 0.72811
 C1377 C 1.06188 0.08737 0.18810
 C1378 C 1.05277 0.10058 0.19715
 C1379 C 1.04295 0.11710 0.20692
 C1380 C 1.03533 0.13205 0.21451
 C1381 C 1.02736 0.15043 0.22248
 C1382 C 1.02143 0.16682 0.22843
 C1383 C 0.18808 0.58731 0.56180
 C1384 C 0.19720 0.60051 0.55276
 C1385 C 0.20705 0.61703 0.54300
 C1386 C 0.21470 0.63196 0.53542
 C1387 C 0.22270 0.65034 0.52747
 C1388 C 0.22867 0.66671 0.52152
 C1389 C 0.18663 0.08900 1.06371
 C1390 C 0.19560 0.10240 1.05480
 C1391 C 0.20532 0.11903 1.04512
 C1392 C 0.21295 0.13396 1.03750
 C1393 C 0.22107 0.15221 1.02937
 C1394 C 0.22729 0.16837 1.02311
 C1395 C 0.18673 0.68690 0.66151
 C1396 C 0.19584 0.69620 0.64849
 C1397 C 0.20575 0.70625 0.63220
 C1398 C 0.21351 0.71406 0.61745
 C1399 C 0.22168 0.72224 0.59926
 C1400 C 0.22782 0.72835 0.58302
 C1401 C 0.18649 0.18669 1.16105
 C1402 C 0.19541 0.19562 1.14763
 C1403 C 0.20510 0.20530 1.13099
 C1404 C 0.21271 0.21290 1.11605
 C1405 C 0.22084 0.22100 1.09780
 C1406 C 0.22709 0.22721 1.08164
 C1407 C 0.68691 0.56322 0.08847
 C1408 C 0.69614 0.55394 0.10144
 C1409 C 0.70612 0.54387 0.11768
 C1410 C 0.71388 0.53602 0.13241
 C1411 C 0.72202 0.52779 0.15060
 C1412 C 0.72811 0.52167 0.16686
 C1413 C 0.68504 1.06481 0.59015
 C1414 C 0.69410 1.05568 0.60334
 C1415 C 0.70396 1.04571 0.61972
 C1416 C 0.71171 1.03785 0.63445
 C1417 C 0.72000 1.02945 0.65249
 C1418 C 0.72639 1.02302 0.66852
 C1419 C 0.56343 0.18691 0.58838
 C1420 C 0.55428 0.19619 0.60138
 C1421 C 0.54432 0.20623 0.61766
 C1422 C 0.53654 0.21404 0.63240
 C1423 C 0.52833 0.22221 0.65058
 C1424 C 0.52217 0.22832 0.66682
 C1425 C 1.06364 0.18694 0.08865
 C1426 C 1.05448 0.19627 0.10162
 C1427 C 1.04452 0.20634 0.11786
 C1428 C 1.03672 0.21418 0.13259
 C1429 C 1.02850 0.22238 0.15075
 C1430 C 1.02233 0.22850 0.16697
 C1431 C 0.66039 0.18574 0.68566
 C1432 C 0.64763 0.19512 0.69506
 C1433 C 0.63162 0.20532 0.70528
 C1434 C 0.61708 0.21328 0.71326
 C1435 C 0.59908 0.22166 0.72164
 C1436 C 0.58295 0.22792 0.72790
 C1437 C 1.16156 0.18711 0.18682
 C1438 C 1.14857 0.19636 0.19603
 C1439 C 1.13231 0.20636 0.20604
 C1440 C 1.11757 0.21413 0.21386
 C1441 C 1.09939 0.22228 0.22208
 C1442 C 1.08315 0.22837 0.22822
 C1443 C 0.08848 0.68695 0.56294
 C1444 C 0.10148 0.69620 0.55375
 C1445 C 0.11776 0.70620 0.54377
 C1446 C 0.13251 0.71398 0.53599
 C1447 C 0.15070 0.72213 0.52782
 C1448 C 0.16694 0.72824 0.52171
 C1449 C 0.08935 0.18640 1.06368
 C1450 C 0.10276 0.19528 1.05471
 C1451 C 0.11938 0.20492 1.04496
 C1452 C 0.13430 0.21250 1.03730
 C1453 C 0.15253 0.22059 1.02914
 C1454 C 0.16867 0.22682 1.02288
 C1455 C 0.58723 0.56211 0.18805
 C1456 C 0.60049 0.55313 0.19715
 C1457 C 0.61705 0.54345 0.20698
 C1458 C 0.63201 0.53591 0.21461
 C1459 C 0.65039 0.52799 0.22261
 C1460 C 0.66675 0.52203 0.22858
 C1461 C 0.58872 1.06323 0.68665
 C1462 C 0.60216 1.05436 0.69559
 C1463 C 0.61884 1.04474 0.70528
 C1464 C 0.63380 1.03718 0.71288
 C1465 C 0.65208 1.02910 0.72097
 C1466 C 0.66826 1.02289 0.72716
 C1467 C 0.90876 0.43434 0.31575
 C1468 C 0.89580 0.44362 0.30653
 C1469 C 0.87968 0.45377 0.29645
 C1470 C 0.86513 0.46176 0.28849
 C1471 C 0.84726 0.47029 0.27998
 C1472 C 0.83134 0.47681 0.27345
 C1473 C 0.91148 0.93691 0.81342
 C1474 C 0.89848 0.94620 0.80427
 C1475 C 0.88220 0.95624 0.79431
 C1476 C 0.86746 0.96405 0.78653
 C1477 C 0.84929 0.97223 0.77833
 C1478 C 0.83306 0.97834 0.77216
 C1479 C 0.34005 0.31447 0.81469
 C1480 C 0.35326 0.30538 0.80563
 C1481 C 0.36966 0.29545 0.79579
 C1482 C 0.38441 0.28763 0.78804
 C1483 C 0.40248 0.27928 0.77977
 C1484 C 0.41852 0.27288 0.77341
 C1485 C 0.84024 0.31483 0.31484
 C1486 C 0.85342 0.30570 0.30577
 C1487 C 0.86979 0.29574 0.29591
 C1488 C 0.88451 0.28789 0.28815
 C1489 C 0.90256 0.27951 0.27986
 C1490 C 0.91859 0.27309 0.27349
 C1491 C 0.40877 0.81577 0.43408
 C1492 C 0.39580 0.80648 0.44328
 C1493 C 0.37966 0.79633 0.45333
 C1494 C 0.36512 0.78833 0.46127
 C1495 C 0.34726 0.77978 0.46977
 C1496 C 0.33135 0.77323 0.47630
 C1497 C 0.41058 0.31417 0.93570
 C1498 C 0.39784 0.30477 0.94510
 C1499 C 0.38185 0.29456 0.95532
 C1500 C 0.36732 0.28659 0.96331
 C1501 C 0.34933 0.27822 0.97172
 C1502 C 0.33320 0.27198 0.97800
 C1503 C 0.81467 0.43543 0.40995
 C1504 C 0.80558 0.44452 0.39675
 C1505 C 0.79565 0.45440 0.38036
 C1506 C 0.78783 0.46217 0.36562
 C1507 C 0.77948 0.47046 0.34755
 C1508 C 0.77308 0.47683 0.33150
 C1509 C 0.81326 0.93706 0.91162
 C1510 C 0.80405 0.94629 0.89860
 C1511 C 0.79404 0.95625 0.88231
 C1512 C 0.78623 0.96400 0.86755
 C1513 C 0.77802 0.97212 0.84935
 C1514 C 0.77188 0.97819 0.83309
 C1515 C 0.31585 0.81592 0.34120
 C1516 C 0.30655 0.80668 0.35413
 C1517 C 0.29639 0.79658 0.37024
 C1518 C 0.28838 0.78860 0.38476
 C1519 C 0.27985 0.78006 0.40262
 C1520 C 0.27333 0.77351 0.41853
 C1521 C 0.31422 0.31413 0.83949
 C1522 C 0.30478 0.30477 0.85223
 C1523 C 0.29453 0.29458 0.86823
 C1524 C 0.28653 0.28663 0.88277
 C1525 C 0.27815 0.27826 0.90078
 C1526 C 0.27192 0.27202 0.91694
 C1527 C 0.43548 0.31460 0.90996
 C1528 C 0.44461 0.30554 0.89677
 C1529 C 0.45452 0.29565 0.88038
 C1530 C 0.46230 0.28785 0.86564
 C1531 C 0.47059 0.27950 0.84757
 C1532 C 0.47693 0.27309 0.83152
 C1533 C 0.93542 0.31454 0.41018
 C1534 C 0.94456 0.30553 0.39696
 C1535 C 0.95450 0.29571 0.38054
 C1536 C 0.96229 0.28796 0.36578
 C1537 C 0.97060 0.27967 0.34769
 C1538 C 0.97695 0.27330 0.33163
 C1539 C 0.43424 0.40881 0.81581
 C1540 C 0.44343 0.39582 0.80653
 C1541 C 0.45348 0.37966 0.79638
 C1542 C 0.46141 0.36510 0.78838
 C1543 C 0.46990 0.34721 0.77984
 C1544 C 0.47643 0.33127 0.77331
 C1545 C 0.93403 0.40898 0.31571
 C1546 C 0.94327 0.39601 0.30644
 C1547 C 0.95337 0.37986 0.29633
 C1548 C 0.96135 0.36531 0.28837
 C1549 C 0.96989 0.34742 0.27987
 C1550 C 0.97644 0.33149 0.27336
 C1551 C 0.31582 0.90898 0.43433
 C1552 C 0.30660 0.89599 0.44360
 C1553 C 0.29653 0.87984 0.45372
 C1554 C 0.28858 0.86528 0.46169
 C1555 C 0.28007 0.84738 0.47021
 C1556 C 0.27354 0.83144 0.47672
 C1557 C 0.31462 0.41051 0.93566
 C1558 C 0.30528 0.39775 0.94510
 C1559 C 0.29513 0.38175 0.95538
 C1560 C 0.28720 0.36721 0.96341
 C1561 C 0.27884 0.34921 0.97184
 C1562 C 0.27257 0.33308 0.97813
 C1563 C 0.81497 0.34022 0.31471
 C1564 C 0.80594 0.35340 0.30553
 C1565 C 0.79607 0.36978 0.29556
 C1566 C 0.78828 0.38451 0.28773
 C1567 C 0.77993 0.40256 0.27939
 C1568 C 0.77351 0.41859 0.27301
   
