data_POSCAR
  _audit_creation_date              2014-09-24
  _audit_creation_method            'ToBaCCo'
  _symmetry_space_group_name_H-M    'P1'
  _symmetry_Int_Tables_number       1
  _symmetry_cell_setting            triclinic
  loop_
  _symmetry_equiv_pos_as_xyz
 x,y,z
_cell_length_a 62.5370
_cell_length_b 62.5504
_cell_length_c 62.5938
_cell_angle_alpha 90.012600
_cell_angle_beta 90.011300
_cell_angle_gamma 90.007400
loop_
  _atom_site_label
  _atom_site_type_symbol
  _atom_site_fract_x
  _atom_site_fract_y
  _atom_site_fract_z
C1 C 0.19147 0.21173 0.22239
 C2 C 0.20533 0.19447 0.22580
 C3 C 0.22260 0.19104 0.21196
 C4 C 0.22601 0.20489 0.19471
 C5 C 0.21216 0.22216 0.19128
 C6 C 0.19490 0.22557 0.20513
 H7 H 0.20268 0.18375 0.23915
 H8 H 0.23937 0.20223 0.18399
 H9 H 0.18417 0.23894 0.20248
 C10 C 0.69141 0.71254 0.72250
 C11 C 0.69484 0.72642 0.70527
 C12 C 0.71207 0.72301 0.69139
 C13 C 0.72589 0.70571 0.69474
 C14 C 0.72248 0.69182 0.71196
 C15 C 0.70524 0.69524 0.72584
 H16 H 0.68413 0.73981 0.70267
 H17 H 0.73924 0.70306 0.68400
 H18 H 0.70259 0.68449 0.73917
 C19 C 0.30802 0.78830 0.72277
 C20 C 0.30461 0.77442 0.70553
 C21 C 0.28735 0.77778 0.69167
 C22 C 0.27348 0.79504 0.69505
 C23 C 0.27686 0.80895 0.71229
 C24 C 0.29415 0.80556 0.72615
 H25 H 0.31536 0.76106 0.70291
 H26 H 0.26012 0.79761 0.68428
 H27 H 0.29684 0.81628 0.73951
 C28 C 0.80905 0.28762 0.22279
 C29 C 0.80564 0.27377 0.20551
 C30 C 0.78836 0.27716 0.19166
 C31 C 0.77449 0.29440 0.19508
 C32 C 0.77787 0.30826 0.21234
 C33 C 0.79514 0.30488 0.22619
 H34 H 0.81636 0.26040 0.20282
 H35 H 0.76113 0.29703 0.18436
 H36 H 0.79772 0.31564 0.23954
 C37 C 0.80867 0.71246 0.27760
 C38 C 0.80526 0.72635 0.29483
 C39 C 0.78803 0.72295 0.30872
 C40 C 0.77419 0.70566 0.30536
 C41 C 0.77758 0.69176 0.28813
 C42 C 0.79482 0.69517 0.27426
 H43 H 0.81598 0.73973 0.29742
 H44 H 0.76084 0.70302 0.31611
 H45 H 0.79745 0.68441 0.26092
 C46 C 0.30914 0.21199 -0.22300
 C47 C 0.29525 0.19472 -0.22640
 C48 C 0.27797 0.19132 -0.21258
 C49 C 0.27456 0.20518 -0.19533
 C50 C 0.28841 0.22245 -0.19190
 C51 C 0.30569 0.22585 -0.20573
 H52 H 0.29786 0.18394 -0.23974
 H53 H 0.26118 0.20255 -0.18463
 H54 H 0.31640 0.23923 -0.20303
 C55 C 0.69090 0.28752 -0.22280
 C56 C 0.69434 0.27368 -0.20552
 C57 C 0.71163 0.27710 -0.19169
 C58 C 0.72548 0.29436 -0.19513
 C59 C 0.72207 0.30820 -0.21239
 C60 C 0.70479 0.30478 -0.22622
 H61 H 0.68363 0.26031 -0.20280
 H62 H 0.73886 0.29701 -0.18443
 H63 H 0.70218 0.31553 -0.23957
 C64 C 0.19177 0.78815 0.27751
 C65 C 0.19512 0.77430 0.29478
 C66 C 0.21236 0.77767 0.30867
 C67 C 0.22627 0.79490 0.30529
 C68 C 0.22295 0.80878 0.28802
 C69 C 0.20568 0.80538 0.27413
 H70 H 0.18435 0.76097 0.29739
 H71 H 0.23961 0.79747 0.31608
 H72 H 0.20304 0.81608 0.26075
 C73 C 0.46203 0.44129 0.47290
 C74 C 0.44476 0.45515 0.47627
 C75 C 0.44134 0.47239 0.46240
 C76 C 0.45521 0.47577 0.44516
 C77 C 0.47248 0.46192 0.44177
 C78 C 0.47589 0.44468 0.45564
 H79 H 0.43403 0.45252 0.48962
 H80 H 0.45256 0.48912 0.43441
 H81 H 0.48926 0.43395 0.45302
 C82 C -0.03814 -0.05790 0.97244
 C83 C -0.02430 -0.05451 0.95517
 C84 C -0.02771 -0.03728 0.94129
 C85 C -0.04498 -0.02342 0.94467
 C86 C -0.05885 -0.02678 0.96195
 C87 C -0.05541 -0.04404 0.97582
 H88 H -0.01094 -0.06525 0.95255
 H89 H -0.04758 -0.01009 0.93389
 H90 H -0.06611 -0.04671 0.98921
 C91 C 1.03781 0.55864 0.97239
 C92 C 1.02394 0.55521 0.95514
 C93 C 1.02732 0.53793 0.94131
 C94 C 1.04458 0.52407 0.94473
 C95 C 1.05846 0.52748 0.96197
 C96 C 1.05507 0.54477 0.97579
 H97 H 1.01059 0.56595 0.95250
 H98 H 1.04720 0.51069 0.93401
 H99 H 1.06581 0.54741 0.98914
 C100 C 0.53817 0.05824 0.47282
 C101 C 0.55548 0.04443 0.47620
 C102 C 0.55894 0.02716 0.46234
 C103 C 0.54504 0.02374 0.44509
 C104 C 0.52773 0.03755 0.44171
 C105 C 0.52431 0.05479 0.45558
 H106 H 0.56619 0.04715 0.48957
 H107 H 0.54766 0.01040 0.43432
 H108 H 0.51091 0.06549 0.45296
 C109 C -0.03829 0.05867 0.52734
 C110 C -0.02442 0.05521 0.54457
 C111 C -0.02782 0.03794 0.55840
 C112 C -0.04511 0.02411 0.55501
 C113 C -0.05902 0.02754 0.53778
 C114 C -0.05559 0.04484 0.52395
 H115 H -0.01103 0.06592 0.54720
 H116 H -0.04771 0.01075 0.56576
 H117 H -0.06632 0.04756 0.51059
 C118 C 0.46230 0.55873 0.02752
 C119 C 0.47616 0.55531 0.04476
 C120 C 0.47279 0.53802 0.05859
 C121 C 0.45554 0.52415 0.05515
 C122 C 0.44166 0.52755 0.03791
 C123 C 0.44505 0.54484 0.02410
 H124 H 0.48951 0.56606 0.04742
 H125 H 0.45292 0.51077 0.06586
 H126 H 0.43431 0.54749 0.01075
 C127 C 0.53790 -0.05905 0.02731
 C128 C 0.55517 -0.04516 0.02394
 C129 C 0.55860 -0.02794 0.03785
 C130 C 0.54476 -0.02460 0.05513
 C131 C 0.52750 -0.03846 0.05851
 C132 C 0.52407 -0.05568 0.04461
 H133 H 0.56592 -0.04771 0.01058
 H134 H 0.54742 -0.01128 0.06589
 H135 H 0.51068 -0.06640 0.04728
 C136 C 1.03810 0.44190 0.52712
 C137 C 1.02426 0.44528 0.54438
 C138 C 1.02766 0.46251 0.55827
 C139 C 1.04492 0.47638 0.55490
 C140 C 1.05880 0.47302 0.53763
 C141 C 1.05537 0.45577 0.52374
 H142 H 1.01089 0.43454 0.54699
 H143 H 1.04752 0.48971 0.56569
 H144 H 1.06607 0.45311 0.51036
 C145 C 0.40776 0.00933 0.22144
 H146 H 0.40862 0.02383 0.23082
 C147 C 0.42170 0.00632 0.20427
 H148 H 0.43331 0.01855 0.20033
 C149 C 0.39180 -0.02452 0.21524
 H150 H 0.38037 -0.03665 0.21975
 C151 C 0.40545 -0.02817 0.19796
 H152 H 0.40434 -0.04300 0.18909
 N153 N 0.39302 -0.00589 0.22643
 C154 C 0.34237 0.02814 0.26022
 H155 H 0.34150 0.01876 0.27471
 C156 C 0.32843 0.04532 0.25719
 H157 H 0.31682 0.04928 0.26942
 C158 C 0.35833 0.03430 0.22639
 H159 H 0.36975 0.02977 0.21428
 C160 C 0.34468 0.05160 0.22273
 H161 H 0.34579 0.06046 0.20790
 Zn162 Zn 0.37506 -0.00069 0.25022
 N163 N 0.35710 0.02312 0.24502
 C164 C 0.39180 0.02315 0.28519
 N165 N 0.39302 0.00451 0.27402
 C166 C 0.40775 -0.01070 0.27902
 C167 C 0.42169 -0.00768 0.29619
 C168 C 0.40546 0.02681 0.30248
 C169 C 0.34235 -0.02950 0.24019
 C170 C 0.32840 -0.04668 0.24320
 C171 C 0.34464 -0.05297 0.27768
 C172 C 0.35830 -0.03568 0.27403
 N173 N 0.35709 -0.02450 0.25540
 H174 H 0.38038 0.03528 0.28067
 H175 H 0.40860 -0.02521 0.26965
 H176 H 0.43330 -0.01992 0.30014
 H177 H 0.40436 0.04165 0.31134
 H178 H 0.34150 -0.02012 0.22570
 H179 H 0.31680 -0.05062 0.23097
 H180 H 0.34573 -0.06183 0.29250
 H181 H 0.36972 -0.03116 0.28615
 C182 C 0.32965 0.05718 0.23830
 C183 C 0.42048 -0.01258 0.19240
 C184 C 0.32961 -0.05854 0.26210
 C185 C 0.42049 0.01123 0.30804
 C186 C 0.09234 -0.01025 0.72096
 H187 H 0.09145 -0.02473 0.73037
 C188 C 0.07838 -0.00725 0.70380
 H189 H 0.06673 -0.01947 0.69990
 C190 C 0.10836 0.02355 0.71469
 H191 H 0.11981 0.03566 0.71918
 C192 C 0.09469 0.02719 0.69742
 H193 H 0.09581 0.04201 0.68852
 N194 N 0.10711 0.00494 0.72591
 C195 C 0.15770 -0.02907 0.75982
 H196 H 0.15857 -0.01965 0.77430
 C197 C 0.17162 -0.04627 0.75685
 H198 H 0.18322 -0.05020 0.76909
 C199 C 0.14173 -0.03531 0.72601
 H200 H 0.13032 -0.03080 0.71388
 C201 C 0.15536 -0.05263 0.72240
 H202 H 0.15425 -0.06154 0.70759
 Zn203 Zn 0.12506 -0.00022 0.74972
 N204 N 0.14297 -0.02408 0.74461
 C205 C 0.10826 -0.02389 0.78477
 N206 N 0.10709 -0.00529 0.77353
 C207 C 0.09239 0.00997 0.77847
 C208 C 0.07842 0.00705 0.79563
 C209 C 0.09458 -0.02746 0.80205
 C210 C 0.15782 0.02850 0.73963
 C211 C 0.17181 0.04566 0.74260
 C212 C 0.15558 0.05209 0.77705
 C213 C 0.14189 0.03481 0.77344
 N214 N 0.14308 0.02357 0.75485
 H215 H 0.11965 -0.03606 0.78030
 H216 H 0.09157 0.02445 0.76904
 H217 H 0.06684 0.01932 0.79952
 H218 H 0.09564 -0.04226 0.81096
 H219 H 0.15866 0.01907 0.72516
 H220 H 0.18342 0.04954 0.73036
 H221 H 0.15450 0.06101 0.79185
 H222 H 0.13046 0.03035 0.78557
 C223 C 0.17039 -0.05818 0.73799
 C224 C 0.07962 0.01163 0.69191
 C225 C 0.17062 0.05758 0.76146
 C226 C 0.07958 -0.01182 0.80755
 C227 C 0.59250 0.48984 0.22146
 H228 H 0.59163 0.47534 0.23083
 C229 C 0.57859 0.49286 0.20427
 H230 H 0.56698 0.48063 0.20030
 C231 C 0.60848 0.52369 0.21531
 H232 H 0.61990 0.53581 0.21985
 C233 C 0.59485 0.52735 0.19801
 H234 H 0.59597 0.54218 0.18915
 N235 N 0.60724 0.50505 0.22648
 C236 C 0.65785 0.47104 0.26035
 H237 H 0.65869 0.48042 0.27485
 C238 C 0.67180 0.45386 0.25735
 H239 H 0.68340 0.44992 0.26958
 C240 C 0.64193 0.46486 0.22650
 H241 H 0.63052 0.46938 0.21437
 C242 C 0.65559 0.44757 0.22286
 H243 H 0.65451 0.43870 0.20803
 Zn244 Zn 0.62517 0.49986 0.25030
 N245 N 0.64313 0.47604 0.24513
 C246 C 0.60838 0.47604 0.28525
 N247 N 0.60718 0.49467 0.27407
 C248 C 0.59245 0.50989 0.27906
 C249 C 0.57848 0.50688 0.29620
 C250 C 0.59471 0.47239 0.30251
 C251 C 0.65789 0.52865 0.24032
 C252 C 0.67183 0.54584 0.24333
 C253 C 0.65554 0.55218 0.27777
 C254 C 0.64189 0.53487 0.27412
 N255 N 0.64314 0.52367 0.25551
 H256 H 0.61980 0.46391 0.28074
 H257 H 0.59161 0.52440 0.26968
 H258 H 0.56688 0.51912 0.30013
 H259 H 0.59579 0.45755 0.31138
 H260 H 0.65877 0.51925 0.22584
 H261 H 0.68345 0.54977 0.23112
 H262 H 0.65442 0.56107 0.29258
 H263 H 0.63046 0.53037 0.28622
 C264 C 0.67061 0.44200 0.23845
 C265 C 0.57982 0.51176 0.19242
 C266 C 0.67059 0.55773 0.26221
 C267 C 0.57968 0.48798 0.30806
 C268 C 0.90750 0.50994 0.72099
 H269 H 0.90833 0.52442 0.73041
 C270 C 0.92147 0.50698 0.70385
 H271 H 0.93308 0.51923 0.69996
 C272 C 0.89157 0.47610 0.71469
 H273 H 0.88014 0.46396 0.71916
 C274 C 0.90525 0.47249 0.69743
 H275 H 0.90418 0.45768 0.68852
 N276 N 0.89276 0.49471 0.72592
 C277 C 0.84204 0.52863 0.75972
 H278 H 0.84116 0.51922 0.77419
 C279 C 0.82811 0.54582 0.75672
 H280 H 0.81649 0.54974 0.76894
 C281 C 0.85804 0.53487 0.72593
 H282 H 0.86948 0.53037 0.71382
 C283 C 0.84440 0.55218 0.72229
 H284 H 0.84552 0.56108 0.70749
 Zn285 Zn 0.87476 0.49984 0.74970
 N286 N 0.85679 0.52365 0.74452
 C287 C 0.89145 0.52364 0.78473
 N288 N 0.89269 0.50502 0.77353
 C289 C 0.90743 0.48981 0.77852
 C290 C 0.92136 0.49282 0.79570
 C291 C 0.90509 0.52729 0.80203
 C292 C 0.84209 0.47101 0.73959
 C293 C 0.82814 0.45383 0.74257
 C294 C 0.84434 0.44751 0.77705
 C295 C 0.85800 0.46481 0.77343
 N296 N 0.85680 0.47601 0.75482
 H297 H 0.88003 0.53576 0.78021
 H298 H 0.90830 0.47531 0.76913
 H299 H 0.93297 0.48058 0.79964
 H300 H 0.90397 0.54211 0.81091
 H301 H 0.84125 0.48041 0.72510
 H302 H 0.81655 0.44989 0.73032
 H303 H 0.84542 0.43864 0.79187
 H304 H 0.86940 0.46933 0.78557
 C305 C 0.82935 0.55772 0.73786
 C306 C 0.92029 0.48810 0.69194
 C307 C 0.82933 0.44196 0.76145
 C308 C 0.92013 0.51171 0.80758
 C309 C 0.22127 0.40745 0.00987
 H310 H 0.23066 0.40829 0.02436
 C311 C 0.20409 0.42139 0.00688
 H312 H 0.20015 0.43298 0.01912
 C313 C 0.21506 0.39153 -0.02398
 H314 H 0.21958 0.38013 -0.03611
 C315 C 0.19776 0.40519 -0.02760
 H316 H 0.18888 0.40410 -0.04243
 N317 N 0.22626 0.39273 -0.00536
 C318 C 0.26016 0.34208 0.02855
 H319 H 0.27466 0.34124 0.01917
 C320 C 0.25716 0.32812 0.04571
 H321 H 0.26941 0.31653 0.04964
 C322 C 0.22629 0.35799 0.03475
 H323 H 0.21415 0.36940 0.03025
 C324 C 0.22265 0.34433 0.05202
 H325 H 0.20782 0.34541 0.06089
 Zn326 Zn 0.25009 0.37479 -0.00020
 N327 N 0.24493 0.35680 0.02357
 C328 C 0.28511 0.39153 0.02360
 N329 N 0.27390 0.39276 0.00499
 C330 C 0.27887 0.40752 -0.01019
 C331 C 0.29604 0.42147 -0.00718
 C332 C 0.30240 0.40520 0.02726
 C333 C 0.24008 0.34212 -0.02905
 C334 C 0.24311 0.32821 -0.04624
 C335 C 0.27759 0.34448 -0.05250
 C336 C 0.27393 0.35811 -0.03520
 N337 N 0.25529 0.35686 -0.02403
 H338 H 0.28061 0.38010 0.03571
 H339 H 0.26946 0.40838 -0.02468
 H340 H 0.29996 0.43310 -0.01940
 H341 H 0.31129 0.40410 0.04207
 H342 H 0.22557 0.34124 -0.01968
 H343 H 0.23088 0.31660 -0.05020
 H344 H 0.29243 0.34561 -0.06136
 H345 H 0.28605 0.36953 -0.03066
 C346 C 0.23826 0.32931 0.05757
 C347 C 0.19221 0.42020 -0.01201
 C348 C 0.26201 0.32945 -0.05809
 C349 C 0.30793 0.42025 0.01170
 C350 C 0.72144 0.09205 -0.01007
 H351 H 0.73081 0.09121 -0.02457
 C352 C 0.70428 0.07809 -0.00705
 H353 H 0.70033 0.06649 -0.01928
 C354 C 0.71528 0.10798 0.02377
 H355 H 0.71980 0.11940 0.03589
 C356 C 0.69800 0.09430 0.02743
 H357 H 0.68914 0.09539 0.04227
 N358 N 0.72645 0.10678 0.00514
 C359 C 0.76014 0.15750 -0.02887
 H360 H 0.77466 0.15839 -0.01952
 C361 C 0.75707 0.17144 -0.04603
 H362 H 0.76928 0.18306 -0.05000
 C363 C 0.72630 0.14149 -0.03499
 H364 H 0.71420 0.13005 -0.03046
 C365 C 0.72259 0.15513 -0.05227
 H366 H 0.70773 0.15400 -0.06111
 Zn367 Zn 0.75023 0.12478 -0.00007
 N368 N 0.74496 0.14275 -0.02385
 C369 C 0.78522 0.10812 -0.02395
 N370 N 0.77406 0.10687 -0.00532
 C371 C 0.77911 0.09213 0.00987
 C372 C 0.79631 0.07822 0.00682
 C373 C 0.80253 0.09450 -0.02764
 C374 C 0.74021 0.15744 0.02877
 C375 C 0.74323 0.17137 0.04595
 C376 C 0.77776 0.15518 0.05217
 C377 C 0.77410 0.14154 0.03488
 N378 N 0.75544 0.14274 0.02373
 H379 H 0.78066 0.11954 -0.03605
 H380 H 0.76975 0.09125 0.02437
 H381 H 0.80030 0.06662 0.01903
 H382 H 0.81138 0.09562 -0.04248
 H383 H 0.72568 0.15828 0.01941
 H384 H 0.73098 0.18295 0.04992
 H385 H 0.79262 0.15409 0.06101
 H386 H 0.78623 0.13014 0.03033
 C387 C 0.73814 0.17019 -0.05786
 C388 C 0.69243 0.07928 0.01185
 C389 C 0.76216 0.17017 0.05778
 C390 C 0.80815 0.07947 -0.01209
 C391 C 0.22079 0.59226 0.49012
 H392 H 0.23020 0.59141 0.47565
 C393 C 0.20360 0.57831 0.49309
 H394 H 0.19969 0.56671 0.48084
 C395 C 0.21453 0.60819 0.52394
 H396 H 0.21902 0.61961 0.53608
 C397 C 0.19722 0.59453 0.52755
 H398 H 0.18832 0.59562 0.54235
 N399 N 0.22575 0.60699 0.50535
 C400 C 0.25970 0.65764 0.47149
 H401 H 0.27418 0.65850 0.48092
 C402 C 0.25674 0.67159 0.45432
 H403 H 0.26900 0.68320 0.45043
 C404 C 0.22586 0.64169 0.46519
 H405 H 0.21372 0.63027 0.46966
 C406 C 0.22226 0.65535 0.44790
 H407 H 0.20745 0.65426 0.43898
 Zn408 Zn 0.24959 0.62495 0.50023
 N409 N 0.24447 0.64291 0.47643
 C410 C 0.28464 0.60820 0.47650
 N411 N 0.27342 0.60699 0.49510
 C412 C 0.27838 0.59225 0.51031
 C413 C 0.29557 0.57831 0.50733
 C414 C 0.30194 0.59455 0.47289
 C415 C 0.23949 0.65763 0.52901
 C416 C 0.24247 0.67159 0.54617
 C417 C 0.27695 0.65535 0.55256
 C418 C 0.27334 0.64169 0.53527
 N419 N 0.25472 0.64290 0.52405
 H420 H 0.28014 0.61962 0.46438
 H421 H 0.26897 0.59140 0.52479
 H422 H 0.29948 0.56670 0.51957
 H423 H 0.31084 0.59564 0.45808
 H424 H 0.22501 0.65848 0.51959
 H425 H 0.23022 0.68319 0.55008
 H426 H 0.29178 0.65426 0.56145
 H427 H 0.28548 0.63027 0.53078
 C428 C 0.23787 0.67038 0.44240
 C429 C 0.19169 0.57951 0.51195
 C430 C 0.26135 0.67039 0.55808
 C431 C 0.30747 0.57952 0.48847
 C432 C 0.72124 0.90848 0.51010
 H433 H 0.73064 0.90935 0.52459
 C434 C 0.70404 0.92240 0.50711
 H435 H 0.70008 0.93400 0.51934
 C436 C 0.71505 0.89253 0.47628
 H437 H 0.71958 0.88112 0.46415
 C438 C 0.69773 0.90615 0.47264
 H439 H 0.68885 0.90504 0.45782
 N440 N 0.72625 0.89376 0.49489
 C441 C 0.76015 0.84313 0.52884
 H442 H 0.77465 0.84229 0.51945
 C443 C 0.75715 0.82917 0.54599
 H444 H 0.76939 0.81757 0.54991
 C445 C 0.72629 0.85906 0.53505
 H446 H 0.71415 0.87047 0.53054
 C447 C 0.72265 0.84539 0.55231
 H448 H 0.70781 0.84647 0.56118
 Zn449 Zn 0.75008 0.87582 0.50006
 N450 N 0.74492 0.85786 0.52386
 C451 C 0.78510 0.89258 0.52386
 N452 N 0.77390 0.89379 0.50524
 C453 C 0.77889 0.90851 0.49003
 C454 C 0.79607 0.92246 0.49303
 C455 C 0.80240 0.90623 0.52750
 C456 C 0.74004 0.84311 0.47129
 C457 C 0.74304 0.82916 0.45413
 C458 C 0.77752 0.84541 0.44779
 C459 C 0.77388 0.85908 0.46507
 N460 N 0.75526 0.85786 0.47627
 H461 H 0.78058 0.88116 0.53598
 H462 H 0.76949 0.90937 0.47554
 H463 H 0.80001 0.93406 0.48080
 H464 H 0.81128 0.90514 0.54232
 H465 H 0.72554 0.84225 0.48069
 H466 H 0.73080 0.81754 0.45021
 H467 H 0.79235 0.84651 0.43891
 H468 H 0.78601 0.87050 0.46957
 C469 C 0.73824 0.83036 0.55785
 C470 C 0.69215 0.92117 0.48822
 C471 C 0.76193 0.83037 0.44226
 C472 C 0.80795 0.92126 0.51192
 C473 C 0.00978 0.22145 0.40745
 H474 H 0.02429 0.23084 0.40829
 C475 C 0.00677 0.20430 0.42141
 H476 H 0.01902 0.20038 0.43302
 C477 C -0.02408 0.21523 0.39152
 H478 H -0.03621 0.21972 0.38010
 C479 C -0.02773 0.19796 0.40520
 H480 H -0.04256 0.18908 0.40411
 N481 N -0.00544 0.22642 0.39272
 C482 C 0.02857 0.26012 0.34203
 H483 H 0.01919 0.27462 0.34113
 C484 C 0.04575 0.25707 0.32810
 H485 H 0.04969 0.26927 0.31647
 C486 C 0.03475 0.22631 0.35805
 H487 H 0.03023 0.21421 0.36949
 C488 C 0.05205 0.22262 0.34441
 H489 H 0.06092 0.20778 0.34555
 Zn490 Zn -0.00025 0.25018 0.37472
 N491 N 0.02357 0.24494 0.35678
 C492 C 0.02361 0.28521 0.39137
 N493 N 0.00495 0.27404 0.39261
 C494 C -0.01026 0.27909 0.40731
 C495 C -0.00722 0.29629 0.42122
 C496 C 0.02728 0.30252 0.40498
 C497 C -0.02905 0.24006 0.34206
 C498 C -0.04623 0.24303 0.32811
 C499 C -0.05255 0.27756 0.34426
 C500 C -0.03526 0.27395 0.35792
 N501 N -0.02406 0.25532 0.35675
 H502 H 0.03573 0.28065 0.37997
 H503 H -0.02478 0.26972 0.40818
 H504 H -0.01946 0.30027 0.43280
 H505 H 0.04213 0.31138 0.40388
 H506 H -0.01966 0.22556 0.34125
 H507 H -0.05016 0.23076 0.31654
 H508 H -0.06143 0.29239 0.34531
 H509 H -0.03075 0.28611 0.36930
 C510 C 0.05761 0.23816 0.32936
 C511 C -0.01213 0.19243 0.42022
 C512 C -0.05811 0.26193 0.32927
 C513 C 0.01170 0.30813 0.41999
 C514 C -0.00996 0.72165 0.09214
 H515 H -0.02446 0.73105 0.09130
 C516 C -0.00698 0.70447 0.07819
 H517 H -0.01924 0.70054 0.06661
 C518 C 0.02390 0.71543 0.10805
 H519 H 0.03605 0.71993 0.11945
 C520 C 0.02752 0.69814 0.09439
 H521 H 0.04235 0.68925 0.09548
 N522 N 0.00527 0.72663 0.10685
 C523 C -0.02865 0.76045 0.15753
 H524 H -0.01926 0.77495 0.15839
 C525 C -0.04582 0.75743 0.17148
 H526 H -0.04973 0.76966 0.18310
 C527 C -0.03489 0.72662 0.14156
 H528 H -0.03039 0.71450 0.13013
 C529 C -0.05217 0.72296 0.15522
 H530 H -0.06105 0.70813 0.15412
 Zn531 Zn 0.00012 0.75044 0.12483
 N532 N -0.02368 0.74525 0.14279
 C533 C -0.02370 0.78546 0.10815
 N534 N -0.00507 0.77427 0.10691
 C535 C 0.01014 0.77928 0.09218
 C536 C 0.00711 0.79646 0.07827
 C537 C -0.02736 0.80276 0.09453
 C538 C 0.02895 0.74036 0.15746
 C539 C 0.04614 0.74334 0.17140
 C540 C 0.05248 0.77783 0.15520
 C541 C 0.03517 0.77421 0.14156
 N542 N 0.02396 0.75559 0.14276
 H543 H -0.03582 0.78093 0.11957
 H544 H 0.02464 0.76989 0.09130
 H545 H 0.01934 0.80041 0.06666
 H546 H -0.04220 0.81164 0.09565
 H547 H 0.01954 0.72586 0.15831
 H548 H 0.05007 0.73109 0.18298
 H549 H 0.06137 0.79266 0.15412
 H550 H 0.03066 0.78635 0.13016
 C551 C -0.05770 0.73853 0.17026
 C552 C 0.01191 0.69259 0.07939
 C553 C 0.05803 0.76223 0.17020
 C554 C -0.01179 0.80833 0.07950
 C555 C 0.49001 0.22096 0.59282
 H556 H 0.47551 0.23035 0.59196
 C557 C 0.49301 0.20379 0.57887
 H558 H 0.48077 0.19986 0.56726
 C559 C 0.52386 0.21474 0.60876
 H560 H 0.53599 0.21925 0.62018
 C561 C 0.52750 0.19746 0.59510
 H562 H 0.54234 0.18857 0.59620
 N563 N 0.50523 0.22594 0.60755
 C564 C 0.47124 0.25979 0.65816
 H565 H 0.48064 0.27429 0.65903
 C566 C 0.45405 0.25679 0.67208
 H567 H 0.45012 0.26903 0.68368
 C568 C 0.46502 0.22595 0.64220
 H569 H 0.46954 0.21383 0.63079
 C570 C 0.44772 0.22231 0.65584
 H571 H 0.43883 0.20749 0.65472
 Zn572 Zn 0.50006 0.24975 0.62550
 N573 N 0.47623 0.24458 0.64344
 C574 C 0.47626 0.28476 0.60877
 N575 N 0.49489 0.27357 0.60756
 C576 C 0.51011 0.27856 0.59284
 C577 C 0.50711 0.29572 0.57890
 C578 C 0.47261 0.30205 0.59512
 C579 C 0.52886 0.23970 0.65817
 C580 C 0.54604 0.24269 0.67211
 C581 C 0.55238 0.27718 0.65590
 C582 C 0.53508 0.27354 0.64225
 N583 N 0.52388 0.25492 0.64346
 H584 H 0.46413 0.28026 0.62018
 H585 H 0.52461 0.26916 0.59199
 H586 H 0.51935 0.29965 0.56730
 H587 H 0.45778 0.31093 0.59621
 H588 H 0.51946 0.22520 0.65902
 H589 H 0.54998 0.23045 0.68371
 H590 H 0.56127 0.29201 0.65482
 H591 H 0.53057 0.28568 0.63085
 C592 C 0.44216 0.23790 0.67086
 C593 C 0.51191 0.19191 0.58007
 C594 C 0.55793 0.26159 0.67092
 C595 C 0.48821 0.30760 0.58010
 C596 C 0.50997 0.72175 0.90781
 H597 H 0.52447 0.73115 0.90866
 C598 C 0.50699 0.70456 0.92174
 H599 H 0.51925 0.70064 0.93333
 C600 C 0.47611 0.71551 0.89189
 H601 H 0.46397 0.72002 0.88049
 C602 C 0.47249 0.69821 0.90553
 H603 H 0.45766 0.68932 0.90444
 N604 N 0.49474 0.72673 0.89310
 C605 C 0.52866 0.76062 0.84248
 H606 H 0.51926 0.77512 0.84164
 C607 C 0.54583 0.75763 0.82854
 H608 H 0.54976 0.76987 0.81694
 C609 C 0.53490 0.72677 0.85840
 H610 H 0.53040 0.71464 0.86981
 C611 C 0.55219 0.72314 0.84474
 H612 H 0.56107 0.70832 0.84583
 Zn613 Zn 0.49988 0.75055 0.87516
 N614 N 0.52369 0.74540 0.85720
 C615 C 0.52369 0.78556 0.89191
 N616 N 0.50505 0.77436 0.89312
 C617 C 0.48984 0.77934 0.90785
 C618 C 0.49286 0.79650 0.92181
 C619 C 0.52734 0.80284 0.90558
 C620 C 0.47106 0.74048 0.84250
 C621 C 0.45386 0.74347 0.82858
 C622 C 0.44750 0.77794 0.84483
 C623 C 0.46482 0.77432 0.85846
 N624 N 0.47604 0.75570 0.85723
 H625 H 0.53581 0.78106 0.88049
 H626 H 0.47534 0.76994 0.90870
 H627 H 0.48063 0.80042 0.93342
 H628 H 0.54218 0.81172 0.90449
 H629 H 0.48047 0.72600 0.84164
 H630 H 0.44993 0.73122 0.81698
 H631 H 0.43860 0.79275 0.84594
 H632 H 0.46932 0.78645 0.86988
 C633 C 0.55772 0.73874 0.82973
 C634 C 0.48810 0.69267 0.92054
 C635 C 0.44195 0.76234 0.82981
 C636 C 0.51176 0.80837 0.92061
 C637 C 0.12503 0.21039 0.29162
 C638 C 0.12317 0.20525 0.26748
 C639 C 0.14078 0.22176 0.26291
 C640 C 0.14292 0.22685 0.28683
 C641 C 0.10831 0.22818 0.28883
 C642 C 0.12592 0.24468 0.28427
 C643 C 0.10617 0.22309 0.26491
 C644 C 0.12407 0.23954 0.26013
 C645 C 0.15886 0.21818 0.24848
 C646 C 0.17373 0.21524 0.23659
 C647 C 0.09023 0.23174 0.30327
 C648 C 0.07536 0.23467 0.31516
 H649 H 0.12522 0.19845 0.30473
 H650 H 0.12224 0.18900 0.26041
 H651 H 0.15823 0.22835 0.29569
 H652 H 0.12685 0.26094 0.29134
 H653 H 0.09086 0.22159 0.25606
 H654 H 0.12388 0.25149 0.24701
 C655 C 0.60661 0.72817 0.76465
 C656 C 0.62668 0.74262 0.76307
 C657 C 0.64080 0.72252 0.76313
 C658 C 0.62101 0.70803 0.76448
 C659 C 0.60838 0.72889 0.78912
 C660 C 0.62250 0.70879 0.78917
 C661 C 0.62816 0.74339 0.78777
 C662 C 0.64257 0.72324 0.78760
 C663 C 0.65885 0.71897 0.74865
 C664 C 0.67370 0.71604 0.73674
 C665 C 0.59032 0.73242 0.80359
 C666 C 0.57546 0.73531 0.81550
 H667 H 0.59162 0.73025 0.75537
 H668 H 0.62859 0.75649 0.75218
 H669 H 0.61828 0.69345 0.75474
 H670 H 0.62058 0.69493 0.80007
 H671 H 0.63090 0.75797 0.79751
 H672 H 0.65756 0.72117 0.79688
 C673 C 0.38831 0.76085 0.76767
 C674 C 0.36454 0.75675 0.77330
 C675 C 0.35873 0.77843 0.76333
 C676 C 0.38222 0.78258 0.75748
 C677 C 0.39121 0.77213 0.78928
 C678 C 0.38540 0.79381 0.77931
 C679 C 0.36771 0.76798 0.79514
 C680 C 0.36162 0.78972 0.78494
 C681 C 0.34064 0.78194 0.74888
 C682 C 0.32577 0.78483 0.73698
 C683 C 0.40930 0.76863 0.80373
 C684 C 0.42418 0.76576 0.81561
 H685 H 0.39949 0.74894 0.76073
 H686 H 0.35576 0.74155 0.77067
 H687 H 0.38798 0.78862 0.74183
 H688 H 0.39418 0.80901 0.78194
 H689 H 0.36195 0.76194 0.81079
 H690 H 0.35045 0.80163 0.79188
 C691 C -0.11164 0.26038 0.26704
 C692 C -0.13542 0.25628 0.27264
 C693 C -0.14122 0.27795 0.26264
 C694 C -0.11772 0.28210 0.25682
 C695 C -0.10878 0.27168 0.28865
 C696 C -0.11458 0.29335 0.27865
 C697 C -0.13229 0.26753 0.29447
 C698 C -0.13836 0.28925 0.28425
 C699 C -0.15929 0.28145 0.24816
 C700 C -0.17415 0.28434 0.23625
 C701 C -0.09072 0.26819 0.30313
 C702 C -0.07585 0.26533 0.31504
 H703 H -0.10045 0.24847 0.26013
 H704 H -0.14420 0.24108 0.27000
 H705 H -0.11194 0.28813 0.24118
 H706 H -0.10581 0.30856 0.28129
 H707 H -0.13807 0.26150 0.31011
 H708 H -0.14956 0.30117 0.29116
 C709 C -0.10613 0.72237 0.23453
 C710 C -0.12326 0.73930 0.24033
 C711 C -0.14073 0.72237 0.23693
 C712 C -0.12388 0.70539 0.23135
 C713 C -0.10833 0.72868 0.21091
 C714 C -0.12580 0.71175 0.20750
 C715 C -0.12517 0.74566 0.21649
 C716 C -0.14293 0.72867 0.21331
 C717 C -0.15878 0.71885 0.25142
 C718 C -0.17362 0.71594 0.26335
 C719 C -0.09028 0.73218 0.19642
 C720 C -0.07542 0.73507 0.18450
 H721 H -0.09079 0.71982 0.24309
 H722 H -0.12242 0.75059 0.25400
 H723 H -0.12355 0.68880 0.23762
 H724 H -0.12664 0.70046 0.19384
 H725 H -0.12550 0.76225 0.21022
 H726 H -0.15827 0.73122 0.20475
 C727 C 0.39350 0.22387 0.73546
 C728 C 0.37517 0.24002 0.73956
 C729 C 0.35893 0.22173 0.73727
 C730 C 0.37698 0.20553 0.73339
 C731 C 0.39142 0.22807 0.71136
 C732 C 0.37518 0.20978 0.70908
 C733 C 0.37337 0.24427 0.71524
 C734 C 0.35685 0.22593 0.71318
 C735 C 0.34083 0.21820 0.75170
 C736 C 0.32595 0.21528 0.76357
 C737 C 0.40952 0.23158 0.69693
 C738 C 0.42440 0.23446 0.68505
 H739 H 0.40878 0.22306 0.74446
 H740 H 0.37497 0.25241 0.75225
 H741 H 0.37825 0.18956 0.74102
 H742 H 0.37538 0.19739 0.69638
 H743 H 0.37209 0.26024 0.70761
 H744 H 0.34157 0.22674 0.70418
 C745 C 0.60809 0.26729 0.73567
 C746 C 0.63011 0.25607 0.73398
 C747 C 0.64112 0.27775 0.73743
 C748 C 0.61938 0.28903 0.73935
 C749 C 0.60865 0.27142 0.71148
 C750 C 0.61966 0.29310 0.71494
 C751 C 0.63038 0.26014 0.70956
 C752 C 0.64168 0.28188 0.71324
 C753 C 0.65920 0.28129 0.75188
 C754 C 0.67408 0.28421 0.76377
 C755 C 0.59056 0.26790 0.69703
 C756 C 0.57569 0.26502 0.68513
 H757 H 0.59408 0.26126 0.74473
 H758 H 0.63461 0.24088 0.74197
 H759 H 0.61506 0.30096 0.75176
 H760 H 0.61516 0.30829 0.70695
 H761 H 0.63470 0.24822 0.69715
 H762 H 0.65569 0.28792 0.70418
 C763 C 0.11383 0.75794 0.23027
 C764 C 0.13769 0.75789 0.22361
 C765 C 0.14114 0.77829 0.23684
 C766 C 0.11756 0.77840 0.24371
 C767 C 0.10872 0.77202 0.21081
 C768 C 0.11217 0.79242 0.22404
 C769 C 0.13230 0.77191 0.20393
 C770 C 0.13603 0.79237 0.21738
 C771 C 0.15920 0.78180 0.25133
 C772 C 0.17404 0.78469 0.26326
 C773 C 0.09066 0.76852 0.19633
 C774 C 0.07579 0.76565 0.18442
 H775 H 0.10450 0.74375 0.23540
 H776 H 0.14839 0.74373 0.22360
 H777 H 0.11171 0.78111 0.26023
 H778 H 0.10147 0.80658 0.22405
 H779 H 0.13816 0.76920 0.18741
 H780 H 0.14536 0.80656 0.21225
 C781 C 0.28752 0.12047 0.20735
 C782 C 0.26282 0.11952 0.20896
 C783 C 0.26316 0.14035 0.22197
 C784 C 0.28764 0.14158 0.22031
 C785 C 0.28910 0.10788 0.22837
 C786 C 0.28944 0.12872 0.24138
 C787 C 0.26462 0.10665 0.23004
 C788 C 0.26473 0.12777 0.24299
 C789 C 0.24871 0.15843 0.21840
 C790 C 0.23681 0.17329 0.21546
 C791 C 0.30355 0.08980 0.23193
 C792 C 0.31544 0.07493 0.23484
 H793 H 0.29706 0.11727 0.19274
 H794 H 0.25172 0.11594 0.19560
 H795 H 0.29694 0.15614 0.21626
 H796 H 0.30054 0.13229 0.25475
 H797 H 0.25532 0.09209 0.23408
 H798 H 0.25520 0.13097 0.25760
 C799 C 0.79102 0.62462 0.70968
 C800 C 0.76663 0.62287 0.70566
 C801 C 0.76297 0.64103 0.72178
 C802 C 0.78713 0.64306 0.72574
 C803 C 0.78886 0.60850 0.72807
 C804 C 0.78519 0.62666 0.74418
 C805 C 0.76470 0.60647 0.72411
 C806 C 0.76081 0.62491 0.74017
 C807 C 0.74854 0.65914 0.71827
 C808 C 0.73667 0.67404 0.71540
 C809 C 0.80328 0.59039 0.73157
 C810 C 0.81516 0.57550 0.73444
 H811 H 0.80360 0.62429 0.69718
 H812 H 0.75884 0.62151 0.68978
 H813 H 0.79619 0.65831 0.72637
 H814 H 0.79298 0.62802 0.76006
 H815 H 0.75564 0.59122 0.72348
 H816 H 0.74822 0.62524 0.75267
 C817 C 0.79351 0.37233 0.78614
 C818 C 0.77054 0.37404 0.79525
 C819 C 0.76271 0.35884 0.77762
 C820 C 0.78545 0.35686 0.76856
 C821 C 0.78870 0.39128 0.77128
 C822 C 0.78087 0.37608 0.75365
 C823 C 0.76596 0.39327 0.78034
 C824 C 0.75790 0.37779 0.76276
 C825 C 0.74822 0.34078 0.78117
 C826 C 0.73631 0.32593 0.78410
 C827 C 0.80318 0.40935 0.76776
 C828 C 0.81510 0.42421 0.76488
 H829 H 0.80831 0.37029 0.79571
 H830 H 0.76613 0.37299 0.81240
 H831 H 0.79330 0.34168 0.76376
 H832 H 0.78528 0.37713 0.73650
 H833 H 0.75811 0.40844 0.78514
 H834 H 0.74309 0.37983 0.75319
 C835 C 0.26918 -0.11402 0.25823
 C836 C 0.27574 -0.13790 0.25771
 C837 C 0.26292 -0.14159 0.27831
 C838 C 0.25613 -0.11799 0.27889
 C839 C 0.28896 -0.10918 0.27197
 C840 C 0.27613 -0.11287 0.29258
 C841 C 0.29575 -0.13278 0.27139
 C842 C 0.28269 -0.13674 0.29205
 C843 C 0.24841 -0.15962 0.28184
 C844 C 0.23646 -0.17446 0.28474
 C845 C 0.30346 -0.09113 0.26844
 C846 C 0.31538 -0.07628 0.26554
 H847 H 0.26379 -0.10448 0.24429
 H848 H 0.27542 -0.14840 0.24341
 H849 H 0.23968 -0.11211 0.28201
 H850 H 0.27645 -0.10237 0.30688
 H851 H 0.31220 -0.13866 0.26827
 H852 H 0.28808 -0.14629 0.30600
 C853 C 0.23042 -0.11405 0.74233
 C854 C 0.22372 -0.13789 0.74234
 C855 C 0.23699 -0.14133 0.72197
 C856 C 0.24391 -0.11777 0.72191
 C857 C 0.21098 -0.10889 0.72823
 C858 C 0.22425 -0.11233 0.70786
 C859 C 0.20406 -0.13246 0.72829
 C860 C 0.21755 -0.13618 0.70787
 C861 C 0.25147 -0.15940 0.71846
 C862 C 0.26338 -0.17426 0.71557
 C863 C 0.19650 -0.09082 0.73171
 C864 C 0.18459 -0.07595 0.73457
 H865 H 0.23555 -0.10474 0.75654
 H866 H 0.22367 -0.14861 0.75647
 H867 H 0.26046 -0.11193 0.71924
 H868 H 0.22430 -0.10162 0.69373
 H869 H 0.18751 -0.13830 0.73095
 H870 H 0.21242 -0.14548 0.69366
 C871 C 0.73068 0.39183 0.21362
 C872 C 0.74414 0.38071 0.23117
 C873 C 0.73722 0.35889 0.22227
 C874 C 0.72398 0.36973 0.20466
 C875 C 0.71122 0.39133 0.22860
 C876 C 0.70430 0.36951 0.21969
 C877 C 0.72447 0.38049 0.24621
 C878 C 0.71777 0.35839 0.23725
 C879 C 0.75170 0.34084 0.21874
 C880 C 0.76363 0.32599 0.21582
 C881 C 0.69674 0.40940 0.23212
 C882 C 0.68484 0.42426 0.23500
 H883 H 0.73582 0.40579 0.20395
 H884 H 0.76069 0.38512 0.23586
 H885 H 0.72394 0.36511 0.18754
 H886 H 0.68775 0.36511 0.21501
 H887 H 0.72450 0.38512 0.26333
 H888 H 0.71262 0.34444 0.24692
 C889 C 0.71736 0.62482 0.25480
 C890 C 0.71364 0.64307 0.27112
 C891 C 0.73704 0.64101 0.27832
 C892 C 0.74098 0.62304 0.26206
 C893 C 0.71111 0.60849 0.27203
 C894 C 0.73451 0.60643 0.27924
 C895 C 0.70717 0.62646 0.28830
 C896 C 0.73079 0.62468 0.29556
 C897 C 0.75148 0.65911 0.28182
 C898 C 0.76337 0.67399 0.28470
 C899 C 0.69667 0.59039 0.26853
 C900 C 0.68479 0.57550 0.26565
 H901 H 0.71168 0.62468 0.23799
 H902 H 0.70522 0.65834 0.26782
 H903 H 0.75504 0.62183 0.25131
 H904 H 0.74292 0.59116 0.28254
 H905 H 0.69311 0.62767 0.29905
 H906 H 0.73647 0.62482 0.31236
 C907 C 0.22888 0.10883 0.78835
 C908 C 0.24460 0.11797 0.77155
 C909 C 0.23733 0.14066 0.77750
 C910 C 0.22184 0.13180 0.79437
 C911 C 0.21131 0.10823 0.77121
 C912 C 0.20404 0.13092 0.77717
 C913 C 0.22680 0.11709 0.75435
 C914 C 0.21975 0.14006 0.76036
 C915 C 0.25182 0.15872 0.78102
 C916 C 0.26374 0.17358 0.78393
 C917 C 0.19681 0.09017 0.76772
 C918 C 0.18488 0.07531 0.76486
 H919 H 0.23247 0.09578 0.79983
 H920 H 0.26144 0.11285 0.76927
 H921 H 0.21996 0.13805 0.81086
 H922 H 0.18720 0.13604 0.77944
 H923 H 0.22867 0.11084 0.73786
 H924 H 0.21616 0.15311 0.74889
 C925 C 0.22574 0.29599 0.13150
 C926 C 0.20656 0.28048 0.13382
 C927 C 0.22211 0.26273 0.14064
 C928 C 0.24124 0.27801 0.13859
 C929 C 0.22843 0.28871 0.10821
 C930 C 0.24397 0.27095 0.11502
 C931 C 0.20930 0.27343 0.11026
 C932 C 0.22479 0.25545 0.11735
 C933 C 0.21858 0.24827 0.15869
 C934 C 0.21566 0.23637 0.17355
 C935 C 0.23194 0.30317 0.09015
 C936 C 0.23482 0.31508 0.07530
 H937 H 0.22618 0.31281 0.13711
 H938 H 0.19114 0.28424 0.14176
 H939 H 0.25433 0.27973 0.15045
 H940 H 0.25940 0.26720 0.10709
 H941 H 0.19620 0.27171 0.09840
 H942 H 0.22436 0.23862 0.11173
 C943 C 0.72689 0.76526 0.60654
 C944 C 0.74177 0.76311 0.62622
 C945 C 0.72204 0.76368 0.64082
 C946 C 0.70710 0.76560 0.62143
 C947 C 0.72839 0.78970 0.60844
 C948 C 0.70865 0.79027 0.62304
 C949 C 0.74332 0.78778 0.62783
 C950 C 0.72353 0.78812 0.64272
 C951 C 0.71849 0.74919 0.65886
 C952 C 0.71557 0.73726 0.67368
 C953 C 0.73191 0.80419 0.59040
 C954 C 0.73480 0.81612 0.57556
 H955 H 0.72831 0.75602 0.59147
 H956 H 0.75535 0.75178 0.62773
 H957 H 0.69217 0.75632 0.61900
 H958 H 0.69507 0.80160 0.62153
 H959 H 0.75826 0.79706 0.63026
 H960 H 0.72212 0.79736 0.65779
 C961 C 0.76134 0.79222 0.36958
 C962 C 0.78328 0.78767 0.35902
 C963 C 0.77811 0.76366 0.35927
 C964 C 0.75622 0.76798 0.36955
 C965 C 0.77178 0.78971 0.39165
 C966 C 0.76661 0.76570 0.39191
 C967 C 0.79367 0.78538 0.38138
 C968 C 0.78855 0.76115 0.38135
 C969 C 0.78163 0.74915 0.34124
 C970 C 0.78454 0.73721 0.32642
 C971 C 0.76826 0.80421 0.40969
 C972 C 0.76537 0.81613 0.42453
 H973 H 0.75012 0.80515 0.36494
 H974 H 0.79018 0.79654 0.34530
 H975 H 0.74087 0.76066 0.36448
 H976 H 0.75971 0.75682 0.40563
 H977 H 0.80903 0.79270 0.38645
 H978 H 0.79978 0.74821 0.38599
 C979 C 0.26968 0.26451 -0.10773
 C980 C 0.25714 0.26503 -0.12908
 C981 C 0.27838 0.26301 -0.14125
 C982 C 0.29097 0.26226 -0.12018
 C983 C 0.27196 0.28894 -0.10879
 C984 C 0.29320 0.28692 -0.12097
 C985 C 0.25937 0.28968 -0.12986
 C986 C 0.28066 0.28744 -0.14231
 C987 C 0.28195 0.24856 -0.15932
 C988 C 0.28490 0.23666 -0.17417
 C989 C 0.26840 0.30338 -0.09072
 C990 C 0.26548 0.31526 -0.07584
 H991 H 0.26512 0.25524 -0.09331
 H992 H 0.24235 0.25586 -0.13262
 H993 H 0.30400 0.25083 -0.11641
 H994 H 0.30798 0.29608 -0.11743
 H995 H 0.24633 0.30112 -0.13363
 H996 H 0.28521 0.29671 -0.15673
 C997 C 0.72829 0.20375 -0.13209
 C998 C 0.70773 0.21704 -0.13587
 C999 C 0.72167 0.23660 -0.14100
 C1000 C 0.74218 0.22353 -0.13750
 C1001 C 0.72811 0.21069 -0.10854
 C1002 C 0.74205 0.23025 -0.11368
 C1003 C 0.70760 0.22376 -0.11204
 C1004 C 0.72149 0.24354 -0.11746
 C1005 C 0.71808 0.25103 -0.15908
 C1006 C 0.71514 0.26291 -0.17394
 C1007 C 0.73169 0.19626 -0.09047
 C1008 C 0.73463 0.18438 -0.07560
 H1009 H 0.73113 0.18722 -0.13790
 H1010 H 0.69358 0.21177 -0.14520
 H1011 H 0.75635 0.22360 -0.14817
 H1012 H 0.75620 0.23553 -0.10435
 H1013 H 0.69343 0.22369 -0.10137
 H1014 H 0.71865 0.26007 -0.11165
 C1015 C 0.20833 0.72513 0.38884
 C1016 C 0.22305 0.74412 0.38280
 C1017 C 0.22205 0.73703 0.35932
 C1018 C 0.20728 0.71827 0.36507
 C1019 C 0.22822 0.71101 0.39174
 C1020 C 0.22723 0.70393 0.36826
 C1021 C 0.24299 0.72977 0.38598
 C1022 C 0.24194 0.72291 0.36222
 C1023 C 0.21861 0.75152 0.34126
 C1024 C 0.21577 0.76344 0.32641
 C1025 C 0.23165 0.69653 0.40980
 C1026 C 0.23448 0.68461 0.42466
 H1027 H 0.19455 0.72588 0.39998
 H1028 H 0.22129 0.76081 0.38857
 H1029 H 0.19256 0.71370 0.35627
 H1030 H 0.22898 0.68724 0.36248
 H1031 H 0.25771 0.73434 0.39478
 H1032 H 0.25573 0.72216 0.35107
 C1033 C 0.27163 0.73554 0.60696
 C1034 C 0.25728 0.73697 0.62708
 C1035 C 0.27746 0.73709 0.64109
 C1036 C 0.29187 0.73588 0.62125
 C1037 C 0.27115 0.71105 0.60870
 C1038 C 0.29133 0.71116 0.62271
 C1039 C 0.25675 0.71225 0.62854
 C1040 C 0.27698 0.71259 0.64283
 C1041 C 0.28097 0.75159 0.65913
 C1042 C 0.28387 0.76352 0.67396
 C1043 C 0.26765 0.69655 0.59065
 C1044 C 0.26477 0.68462 0.57581
 H1045 H 0.26940 0.74482 0.59201
 H1046 H 0.24333 0.74775 0.62909
 H1047 H 0.30634 0.74576 0.61845
 H1048 H 0.30529 0.70039 0.62070
 H1049 H 0.24227 0.70237 0.63134
 H1050 H 0.27922 0.70331 0.65778
 C1051 C 0.77873 0.23424 0.10639
 C1052 C 0.76172 0.24027 0.12335
 C1053 C 0.77843 0.23661 0.14097
 C1054 C 0.79549 0.23080 0.12430
 C1055 C 0.77206 0.21069 0.10850
 C1056 C 0.78877 0.20703 0.12612
 C1057 C 0.75500 0.21650 0.12517
 C1058 C 0.77176 0.21307 0.14307
 C1059 C 0.78197 0.25106 0.15905
 C1060 C 0.78489 0.26295 0.17392
 C1061 C 0.76852 0.19625 0.09041
 C1062 C 0.76562 0.18437 0.07553
 H1063 H 0.78155 0.24278 0.09111
 H1064 H 0.75063 0.25410 0.12241
 H1065 H 0.81218 0.23685 0.12414
 H1066 H 0.79986 0.19320 0.12705
 H1067 H 0.73831 0.21045 0.12532
 H1068 H 0.76894 0.20452 0.15836
 C1069 C 0.46695 0.37907 0.54578
 C1070 C 0.48481 0.39194 0.53442
 C1071 C 0.47199 0.39067 0.51352
 C1072 C 0.45408 0.37809 0.52465
 C1073 C 0.47834 0.35824 0.53950
 C1074 C 0.46553 0.35698 0.51859
 C1075 C 0.49625 0.37082 0.52836
 C1076 C 0.48338 0.36984 0.50723
 C1077 C 0.46845 0.40872 0.49904
 C1078 C 0.46553 0.42357 0.48713
 C1079 C 0.48186 0.34018 0.55396
 C1080 C 0.48475 0.32533 0.56587
 H1081 H 0.46023 0.38267 0.56180
 H1082 H 0.49269 0.40651 0.54077
 H1083 H 0.43670 0.38128 0.52297
 H1084 H 0.45764 0.34240 0.51224
 H1085 H 0.51363 0.36763 0.53004
 H1086 H 0.49010 0.36624 0.49121
 C1087 C -0.00486 0.87607 0.03362
 C1088 C -0.01099 0.87419 0.00971
 C1089 C -0.02813 0.89147 0.01303
 C1090 C -0.02205 0.89363 0.03671
 C1091 C -0.02173 0.85903 0.03897
 C1092 C -0.03886 0.87631 0.04229
 C1093 C -0.02780 0.85686 0.01529
 C1094 C -0.04499 0.87443 0.01838
 C1095 C -0.03170 0.90953 -0.00143
 C1096 C -0.03464 0.92438 -0.01333
 C1097 C -0.01817 0.84095 0.05342
 C1098 C -0.01526 0.82608 0.06531
 H1099 H 0.01167 0.87654 0.04005
 H1100 H 0.00042 0.87352 -0.00385
 H1101 H -0.01973 0.90895 0.04536
 H1102 H -0.05028 0.87698 0.05585
 H1103 H -0.03012 0.84154 0.00664
 H1104 H -0.06153 0.87396 0.01195
 C1105 C 0.00988 0.63860 0.01756
 C1106 C 0.03146 0.63291 0.00682
 C1107 C 0.02796 0.60937 0.01291
 C1108 C 0.00644 0.61479 0.02343
 C1109 C 0.02168 0.64186 0.03885
 C1110 C 0.01818 0.61832 0.04494
 C1111 C 0.04321 0.63644 0.02833
 C1112 C 0.03976 0.61263 0.03419
 C1113 C 0.03146 0.59128 -0.00153
 C1114 C 0.03435 0.57640 -0.01342
 C1115 C 0.01819 0.65995 0.05329
 C1116 C 0.01533 0.67483 0.06518
 H1117 H -0.00245 0.64948 0.01089
 H1118 H 0.03696 0.63870 -0.00902
 H1119 H -0.00864 0.60568 0.02125
 H1120 H 0.01269 0.61253 0.06077
 H1121 H 0.05829 0.64555 0.03050
 H1122 H 0.05209 0.60175 0.04087
 C1123 C 0.51283 0.13982 0.51663
 C1124 C 0.53498 0.13199 0.50876
 C1125 C 0.52815 0.10887 0.51343
 C1126 C 0.50606 0.11641 0.52108
 C1127 C 0.52179 0.14127 0.53944
 C1128 C 0.51496 0.11815 0.54412
 C1129 C 0.54388 0.13373 0.53180
 C1130 C 0.53711 0.11032 0.53625
 C1131 C 0.53171 0.09082 0.49895
 C1132 C 0.53464 0.07597 0.48704
 C1133 C 0.51825 0.15933 0.55393
 C1134 C 0.51536 0.17418 0.56584
 H1135 H 0.50281 0.15214 0.50873
 H1136 H 0.54325 0.13748 0.49406
 H1137 H 0.49055 0.10908 0.51651
 H1138 H 0.50669 0.11266 0.55882
 H1139 H 0.55939 0.14106 0.53637
 H1140 H 0.54713 0.09800 0.54415
 C1141 C -0.02656 0.11879 0.45350
 C1142 C -0.01026 0.11052 0.47021
 C1143 C -0.02833 0.10934 0.48680
 C1144 C -0.04468 0.11733 0.47031
 C1145 C -0.02199 0.14178 0.46083
 C1146 C -0.04005 0.14060 0.47742
 C1147 C -0.00563 0.13380 0.47732
 C1148 C -0.02375 0.13234 0.49413
 C1149 C -0.03187 0.09128 0.50126
 C1150 C -0.03479 0.07642 0.51315
 C1151 C -0.01847 0.15984 0.44636
 C1152 C -0.01558 0.17470 0.43445
 H1153 H -0.02767 0.11342 0.43663
 H1154 H 0.00195 0.09795 0.46741
 H1155 H -0.06078 0.11035 0.46759
 H1156 H -0.05227 0.15317 0.48022
 H1157 H 0.01046 0.14077 0.48003
 H1158 H -0.02264 0.13771 0.51100
 C1159 C 0.47382 0.61896 0.95372
 C1160 C 0.49016 0.61070 0.97040
 C1161 C 0.47212 0.60947 0.98701
 C1162 C 0.45573 0.61744 0.97056
 C1163 C 0.47836 0.64195 0.96108
 C1164 C 0.46032 0.64071 0.97769
 C1165 C 0.49475 0.63398 0.97753
 C1166 C 0.47665 0.63246 0.99437
 C1167 C 0.46863 0.59138 1.00145
 C1168 C 0.46575 0.57650 1.01333
 C1169 C 0.48183 0.66004 0.94663
 C1170 C 0.48468 0.67492 0.93474
 H1171 H 0.47270 0.61361 0.93685
 H1172 H 0.50239 0.59816 0.96757
 H1173 H 0.43964 0.61043 0.96785
 H1174 H 0.44808 0.65325 0.98052
 H1175 H 0.51084 0.64098 0.98024
 H1176 H 0.47778 0.63781 1.01124
 C1177 C 0.52872 0.85676 0.98471
 C1178 C 0.54523 0.87489 0.98117
 C1179 C 0.52808 0.89134 0.98735
 C1180 C 0.51162 0.87350 0.99112
 C1181 C 0.52169 0.85896 0.96130
 C1182 C 0.50453 0.87541 0.96748
 C1183 C 0.53814 0.87681 0.95753
 C1184 C 0.52104 0.89354 0.96393
 C1185 C 0.53164 0.90937 1.00186
 C1186 C 0.53457 0.92420 1.01380
 C1187 C 0.51814 0.84093 0.94679
 C1188 C 0.51522 0.82609 0.93486
 H1189 H 0.53185 0.84144 0.99310
 H1190 H 0.56201 0.87488 0.98696
 H1191 H 0.50075 0.87234 1.00509
 H1192 H 0.48775 0.87543 0.96169
 H1193 H 0.54901 0.87797 0.94356
 H1194 H 0.51792 0.90886 0.95555
 C1195 C 0.03506 0.37867 0.45496
 C1196 C 0.01727 0.39300 0.46452
 C1197 C 0.02809 0.39128 0.48649
 C1198 C 0.04594 0.37722 0.47715
 C1199 C 0.02168 0.35884 0.46052
 C1200 C 0.03250 0.35711 0.48249
 C1201 C 0.00383 0.37289 0.46986
 C1202 C 0.01471 0.37145 0.49205
 C1203 C 0.03167 0.40934 0.50095
 C1204 C 0.03460 0.42418 0.51287
 C1205 C 0.01811 0.34077 0.44607
 C1206 C 0.01518 0.32589 0.43418
 H1207 H 0.04338 0.38144 0.43954
 H1208 H 0.01104 0.40797 0.45729
 H1209 H 0.06330 0.37921 0.48031
 H1210 H 0.03873 0.34215 0.48972
 H1211 H -0.01352 0.37091 0.46670
 H1212 H 0.00639 0.36868 0.50747
 C1213 C 0.36719 0.53309 0.45658
 C1214 C 0.39011 0.53651 0.46534
 C1215 C 0.39064 0.51297 0.47231
 C1216 C 0.36800 0.50933 0.46350
 C1217 C 0.35818 0.53893 0.47865
 C1218 C 0.35871 0.51539 0.48563
 C1219 C 0.38081 0.54257 0.48747
 C1220 C 0.38163 0.51880 0.49439
 C1221 C 0.40872 0.49851 0.46877
 C1222 C 0.42359 0.48661 0.46587
 C1223 C 0.34010 0.55339 0.48217
 C1224 C 0.32523 0.56530 0.48505
 H1225 H 0.36105 0.53913 0.44107
 H1226 H 0.40323 0.54503 0.45696
 H1227 H 0.36293 0.49550 0.45360
 H1228 H 0.34559 0.50686 0.49401
 H1229 H 0.38588 0.55640 0.49737
 H1230 H 0.38776 0.51276 0.50990
 C1231 C 0.87135 0.02765 -0.00413
 C1232 C 0.87046 0.00663 -0.01718
 C1233 C 0.89139 0.01303 -0.02834
 C1234 C 0.89255 0.03383 -0.01534
 C1235 C 0.85890 0.03896 -0.02201
 C1236 C 0.87982 0.04536 -0.03317
 C1237 C 0.85773 0.01816 -0.03502
 C1238 C 0.87894 0.02434 -0.04623
 C1239 C 0.90947 -0.00143 -0.03187
 C1240 C 0.92435 -0.01333 -0.03477
 C1241 C 0.84080 0.05340 -0.01849
 C1242 C 0.82592 0.06528 -0.01558
 H1243 H 0.86802 0.02918 0.01323
 H1244 H 0.86682 -0.00946 -0.01065
 H1245 H 0.90707 0.04011 -0.00729
 H1246 H 0.88346 0.06145 -0.03971
 H1247 H 0.84322 0.01188 -0.04307
 H1248 H 0.88226 0.02281 -0.06359
 C1249 C 0.64197 0.01967 0.03724
 C1250 C 0.61963 0.02649 0.04547
 C1251 C 0.60927 0.01269 0.02800
 C1252 C 0.63134 0.00564 0.01982
 C1253 C 0.64174 0.03867 0.02170
 C1254 C 0.63138 0.02487 0.00422
 C1255 C 0.61967 0.04573 0.02987
 C1256 C 0.60903 0.03170 0.01246
 C1257 C 0.59120 -0.00179 0.03150
 C1258 C 0.57634 -0.01370 0.03439
 C1259 C 0.65981 0.05314 0.01818
 C1260 C 0.67468 0.06505 0.01530
 H1261 H 0.65572 0.01488 0.04739
 H1262 H 0.61460 0.02700 0.06247
 H1263 H 0.63593 -0.01101 0.01572
 H1264 H 0.63641 0.02436 -0.01277
 H1265 H 0.61508 0.06237 0.03397
 H1266 H 0.59529 0.03648 0.00230
 C1267 C 0.14143 0.51951 0.53678
 C1268 C 0.11928 0.52623 0.54558
 C1269 C 0.10854 0.51289 0.52798
 C1270 C 0.13041 0.50595 0.51922
 C1271 C 0.14100 0.53889 0.52171
 C1272 C 0.13025 0.52555 0.50410
 C1273 C 0.11912 0.54583 0.53046
 C1274 C 0.10810 0.53227 0.51290
 C1275 C 0.09046 0.49842 0.53147
 C1276 C 0.07560 0.48650 0.53436
 C1277 C 0.15907 0.55336 0.51822
 C1278 C 0.17394 0.56528 0.51536
 H1279 H 0.15534 0.51442 0.54655
 H1280 H 0.11456 0.52634 0.56268
 H1281 H 0.13485 0.48939 0.51464
 H1282 H 0.13497 0.52544 0.48700
 H1283 H 0.11468 0.56239 0.53504
 H1284 H 0.09419 0.53736 0.50313
 C1285 C 0.13142 0.46536 -0.04372
 C1286 C 0.10896 0.46289 -0.03356
 C1287 C 0.10910 0.48684 -0.02812
 C1288 C 0.13128 0.48954 -0.03833
 C1289 C 0.14153 0.46082 -0.02181
 C1290 C 0.14168 0.48478 -0.01637
 C1291 C 0.11936 0.45813 -0.01160
 C1292 C 0.11922 0.48230 -0.00621
 C1293 C 0.09105 0.50133 -0.03164
 C1294 C 0.07619 0.51325 -0.03455
 C1295 C 0.15960 0.44634 -0.01832
 C1296 C 0.17446 0.43443 -0.01544
 H1297 H 0.13663 0.45823 -0.05910
 H1298 H 0.09531 0.45405 -0.04067
 H1299 H 0.13598 0.50262 -0.04935
 H1300 H 0.15533 0.49361 -0.00926
 H1301 H 0.11466 0.44505 -0.00058
 H1302 H 0.11400 0.48943 0.00917
 C1303 C 0.62718 0.96148 0.45833
 C1304 C 0.60714 0.96299 0.47279
 C1305 C 0.60880 0.98748 0.47206
 C1306 C 0.62857 0.98619 0.45754
 C1307 C 0.64134 0.96162 0.47839
 C1308 C 0.64301 0.98611 0.47765
 C1309 C 0.62158 0.96291 0.49291
 C1310 C 0.62296 0.98763 0.49212
 C1311 C 0.59068 1.00189 0.46852
 C1312 C 0.57577 1.01375 0.46562
 C1313 C 0.65946 0.94721 0.48191
 C1314 C 0.67437 0.93535 0.48479
 H1315 H 0.62912 0.95056 0.44448
 H1316 H 0.59218 0.95364 0.47075
 H1317 H 0.63123 0.99593 0.44296
 H1318 H 0.65796 0.99546 0.47969
 H1319 H 0.61891 0.95317 0.50749
 H1320 H 0.62102 0.99854 0.50597
 C1321 C 0.88217 0.95596 0.51756
 C1322 C 0.88533 0.97784 0.50638
 C1323 C 0.89118 0.98777 0.52806
 C1324 C 0.88830 0.96612 0.53929
 C1325 C 0.85869 0.96182 0.52175
 C1326 C 0.86453 0.97175 0.54343
 C1327 C 0.86157 0.98347 0.51051
 C1328 C 0.86769 0.99363 0.53225
 C1329 C 0.90927 1.00222 0.53158
 C1330 C 0.92416 1.01411 0.53448
 C1331 C 0.84060 0.94737 0.51823
 C1332 C 0.82572 0.93547 0.51535
 H1333 H 0.88793 0.94032 0.51148
 H1334 H 0.89409 0.98050 0.49119
 H1335 H 0.89949 0.95916 0.55116
 H1336 H 0.85577 0.96909 0.55862
 H1337 H 0.85037 0.99044 0.49864
 H1338 H 0.86194 1.00927 0.53833
 C1339 C 0.37360 0.45991 0.04100
 C1340 C 0.39299 0.46251 0.02581
 C1341 C 0.39103 0.48690 0.02794
 C1342 C 0.37192 0.48453 0.04318
 C1343 C 0.35859 0.46089 0.02158
 C1344 C 0.35663 0.48528 0.02371
 C1345 C 0.37770 0.46326 0.00634
 C1346 C 0.37602 0.48788 0.00852
 C1347 C 0.40908 0.50139 0.03148
 C1348 C 0.42393 0.51331 0.03441
 C1349 C 0.34053 0.44640 0.01805
 C1350 C 0.32567 0.43449 0.01515
 H1351 H 0.37240 0.44825 0.05431
 H1352 H 0.40814 0.45331 0.02672
 H1353 H 0.36974 0.49343 0.05836
 H1354 H 0.34148 0.49448 0.02280
 H1355 H 0.37988 0.45435 -0.00884
 H1356 H 0.37723 0.49954 -0.00479
 C1357 C 0.51874 0.46435 0.35776
 C1358 C 0.52514 0.45398 0.37931
 C1359 C 0.51308 0.47182 0.39113
 C1360 C 0.50646 0.48214 0.36986
 C1361 C 0.53906 0.47814 0.35869
 C1362 C 0.52701 0.49597 0.37051
 C1363 C 0.54568 0.46782 0.37996
 C1364 C 0.53340 0.48560 0.39206
 C1365 C 0.49862 0.46829 0.40919
 C1366 C 0.48671 0.46539 0.42404
 C1367 C 0.55353 0.48165 0.34063
 C1368 C 0.56544 0.48454 0.32578
 H1369 H 0.51288 0.45566 0.34345
 H1370 H 0.52421 0.43668 0.38312
 H1371 H 0.49018 0.48798 0.36590
 H1372 H 0.52794 0.51328 0.36669
 H1373 H 0.56196 0.46197 0.38392
 H1374 H 0.53926 0.49430 0.40637
 C1375 C 0.01857 -0.03513 0.85729
 C1376 C 0.02492 -0.04545 0.87888
 C1377 C 0.01291 -0.02754 0.89063
 C1378 C 0.00633 -0.01728 0.86933
 C1379 C 0.03892 -0.02140 0.85820
 C1380 C 0.02691 -0.00349 0.86995
 C1381 C 0.04550 -0.03166 0.87950
 C1382 C 0.03326 -0.01381 0.89154
 C1383 C -0.00158 -0.03099 0.90869
 C1384 C -0.01349 -0.03384 0.92355
 C1385 C 0.05341 -0.01799 0.84013
 C1386 C 0.06534 -0.01518 0.82528
 H1387 H 0.01269 -0.04386 0.84301
 H1388 H 0.02394 -0.06274 0.88275
 H1389 H -0.00994 -0.01140 0.86534
 H1390 H 0.02789 0.01380 0.86608
 H1391 H 0.06176 -0.03754 0.88349
 H1392 H 0.03914 -0.00508 0.90583
 C1393 C 0.01442 0.02143 0.64296
 C1394 C 0.01370 0.04193 0.62909
 C1395 C 0.01289 0.02791 0.60895
 C1396 C 0.01338 0.00747 0.62254
 C1397 C 0.03893 0.02153 0.64132
 C1398 C 0.03812 0.00751 0.62118
 C1399 C 0.03843 0.04197 0.62773
 C1400 C 0.03740 0.02801 0.60731
 C1401 C -0.00162 0.03148 0.59093
 C1402 C -0.01356 0.03442 0.57610
 C1403 C 0.05344 0.01798 0.65935
 C1404 C 0.06537 0.01508 0.67419
 H1405 H 0.00513 0.01869 0.65782
 H1406 H 0.00349 0.05613 0.63214
 H1407 H 0.00292 -0.00668 0.62020
 H1408 H 0.04833 -0.00669 0.61813
 H1409 H 0.04890 0.05612 0.63007
 H1410 H 0.04668 0.03075 0.59245
 C1411 C 0.51973 0.53650 0.14225
 C1412 C 0.52643 0.54569 0.12027
 C1413 C 0.51337 0.52805 0.10924
 C1414 C 0.50645 0.51891 0.13094
 C1415 C 0.53931 0.52167 0.14170
 C1416 C 0.52625 0.50403 0.13067
 C1417 C 0.54624 0.53081 0.12000
 C1418 C 0.53295 0.51323 0.10869
 C1419 C 0.49892 0.53161 0.09117
 C1420 C 0.48702 0.53453 0.07632
 C1421 C 0.55375 0.51813 0.15978
 C1422 C 0.56563 0.51522 0.17466
 H1423 H 0.51446 0.54603 0.15625
 H1424 H 0.52635 0.56286 0.11578
 H1425 H 0.48993 0.51406 0.13524
 H1426 H 0.52634 0.48686 0.13516
 H1427 H 0.56276 0.53567 0.11570
 H1428 H 0.53823 0.50370 0.09468
 C1429 C 0.45685 -0.01442 0.11887
 C1430 C 0.48031 -0.00655 0.11763
 C1431 C 0.48698 -0.02865 0.10924
 C1432 C 0.46374 -0.03657 0.11019
 C1433 C 0.46103 -0.02239 0.14171
 C1434 C 0.46770 -0.04449 0.13331
 C1435 C 0.48427 -0.01447 0.14075
 C1436 C 0.49116 -0.03662 0.13208
 C1437 C 0.50142 -0.03215 0.09116
 C1438 C 0.51330 -0.03503 0.07628
 C1439 C 0.44658 -0.01890 0.15979
 C1440 C 0.43469 -0.01603 0.17466
 H1441 H 0.44258 -0.00525 0.11364
 H1442 H 0.48566 0.00900 0.11098
 H1443 H 0.45546 -0.04570 0.09742
 H1444 H 0.46235 -0.06004 0.13996
 H1445 H 0.49254 -0.00534 0.15352
 H1446 H 0.50543 -0.04579 0.13730
 C1447 C 0.98232 0.46636 0.64274
 C1448 C 0.97653 0.45426 0.62192
 C1449 C 0.98701 0.47225 0.60891
 C1450 C 0.99303 0.48430 0.62944
 C1451 C 0.96098 0.47843 0.64132
 C1452 C 0.97146 0.49642 0.62831
 C1453 C 0.95496 0.46639 0.62079
 C1454 C 0.96567 0.48433 0.60749
 C1455 C 1.00151 0.46880 0.59086
 C1456 C 1.01343 0.46594 0.57601
 C1457 C 0.94648 0.48187 0.65937
 C1458 C 0.93454 0.48470 0.67422
 H1459 H 0.98901 0.45901 0.65743
 H1460 H 0.97877 0.43688 0.61910
 H1461 H 1.00885 0.49162 0.63279
 H1462 H 0.96921 0.51380 0.63114
 H1463 H 0.93914 0.45906 0.61743
 H1464 H 0.95898 0.49168 0.59280
 C1465 C 0.95558 0.51567 0.88152
 C1466 C 0.97826 0.50596 0.88374
 C1467 C 0.98669 0.52796 0.89068
 C1468 C 0.96423 0.53772 0.88874
 C1469 C 0.96071 0.52160 0.85826
 C1470 C 0.96914 0.54360 0.86520
 C1471 C 0.98316 0.51183 0.86020
 C1472 C 0.99182 0.53389 0.86743
 C1473 C 1.00117 0.53151 0.90874
 C1474 C 1.01308 0.53444 0.92359
 C1475 C 0.94624 0.51806 0.84019
 C1476 C 0.93434 0.51516 0.82533
 H1477 H 0.94051 0.50813 0.88711
 H1478 H 0.98217 0.49052 0.89156
 H1479 H 0.95661 0.54841 0.90068
 H1480 H 0.96523 0.55903 0.85738
 H1481 H 0.99079 0.50115 0.84826
 H1482 H 1.00689 0.54142 0.86183
 C1483 C 0.45916 0.00995 0.38044
 C1484 C 0.48359 0.00582 0.38017
 C1485 C 0.48709 0.02754 0.39110
 C1486 C 0.46289 0.03172 0.39165
 C1487 C 0.46110 0.02115 0.35869
 C1488 C 0.46461 0.04286 0.36962
 C1489 C 0.48530 0.01697 0.35814
 C1490 C 0.48903 0.03874 0.36935
 C1491 C 0.50158 0.03110 0.40915
 C1492 C 0.51349 0.03403 0.42399
 C1493 C 0.44662 0.01760 0.34063
 C1494 C 0.43471 0.01469 0.32578
 H1495 H 0.44672 -0.00193 0.38480
 H1496 H 0.49156 -0.00937 0.38472
 H1497 H 0.45384 0.03782 0.40563
 H1498 H 0.45664 0.05806 0.36507
 H1499 H 0.49435 0.01086 0.34416
 H1500 H 0.50148 0.05062 0.36499
   
