data_POSCAR
  _audit_creation_date              2014-09-24
  _audit_creation_method            'ToBaCCo'
  _symmetry_space_group_name_H-M    'P1'
  _symmetry_Int_Tables_number       1
  _symmetry_cell_setting            triclinic
  loop_
  _symmetry_equiv_pos_as_xyz
 x,y,z
_cell_length_a 50.1122
_cell_length_b 50.1459
_cell_length_c 45.2266
_cell_angle_alpha 90.205400
_cell_angle_beta 89.815000
_cell_angle_gamma 90.674500
loop_
  _atom_site_label
  _atom_site_type_symbol
  _atom_site_fract_x
  _atom_site_fract_y
  _atom_site_fract_z
C1 C 0.37561 0.02075 0.29821
 C2 C 0.35890 0.04452 0.28899
 C3 C 0.34374 0.03965 0.26461
 C4 C 0.34652 0.01141 0.25162
 C5 C 0.35569 -0.00234 0.30213
 C6 C 0.34059 -0.00734 0.27769
 C7 C 0.39199 0.01335 0.27070
 C8 C 0.37664 0.00838 0.24638
 H9 H 0.35953 0.06372 0.30023
 H10 H 0.33397 0.00756 0.23180
 H11 H 0.35593 -0.01566 0.32105
 H12 H 0.41363 0.01212 0.27049
 C13 C 0.11509 -0.01353 0.77339
 C14 C 0.12871 -0.03870 0.76223
 C15 C 0.14417 -0.03453 0.73783
 C16 C 0.14445 -0.00554 0.72672
 C17 C 0.13786 0.00667 0.77840
 C18 C 0.15320 0.01091 0.75385
 C19 C 0.10014 -0.00340 0.74846
 C20 C 0.11644 0.00109 0.72285
 H21 H 0.12781 -0.05766 0.77380
 H22 H 0.15710 -0.00231 0.70676
 H23 H 0.13960 0.01889 0.79823
 H24 H 0.07883 0.00038 0.74905
 C25 C 0.61765 0.48685 0.27617
 C26 C 0.63104 0.46172 0.26475
 C27 C 0.64634 0.46585 0.24029
 C28 C 0.64683 0.49479 0.22923
 C29 C 0.64038 0.50706 0.28088
 C30 C 0.65555 0.51129 0.25624
 C31 C 0.60181 0.49760 0.24992
 C32 C 0.61725 0.50185 0.22540
 H33 H 0.63004 0.44270 0.27621
 H34 H 0.65932 0.49800 0.20917
 H35 H 0.64215 0.51940 0.30061
 H36 H 0.58055 0.50152 0.25065
 C37 C 0.87596 0.52027 0.79744
 C38 C 0.85919 0.54401 0.78828
 C39 C 0.84389 0.53907 0.76401
 C40 C 0.84662 0.51080 0.75108
 C41 C 0.85608 0.49718 0.80157
 C42 C 0.84085 0.49212 0.77725
 C43 C 0.89220 0.51282 0.76985
 C44 C 0.87671 0.50778 0.74564
 H45 H 0.85985 0.56322 0.79947
 H46 H 0.83396 0.50690 0.73135
 H47 H 0.85643 0.48390 0.82052
 H48 H 0.91384 0.51163 0.76949
 C49 C 0.28202 0.41353 0.99042
 C50 C 0.27417 0.39569 1.01656
 C51 C 0.25316 0.37899 1.01055
 C52 C 0.24221 0.38140 0.97903
 C53 C 0.28738 0.39444 0.96482
 C54 C 0.26667 0.37765 0.95890
 C55 C 0.25639 0.42809 0.98220
 C56 C 0.23546 0.41114 0.97645
 H57 H 0.28315 0.39737 1.03834
 H58 H 0.22530 0.36759 0.97397
 H59 H 0.30601 0.39418 0.95241
 H60 H 0.25397 0.44946 0.98498
 C61 C 0.76750 0.07605 0.98845
 C62 C 0.76075 0.09311 0.96153
 C63 C 0.74061 0.11061 0.96684
 C64 C 0.72927 0.10948 0.99853
 C65 C 0.77382 0.09616 1.01306
 C66 C 0.75389 0.11364 1.01836
 C67 C 0.74269 0.06304 0.99715
 C68 C 0.72166 0.08158 1.00266
 H69 H 0.77132 0.09199 0.94055
 H70 H 0.71299 0.12389 1.00287
 H71 H 0.79196 0.09576 1.02619
 H72 H 0.73962 0.04155 0.99683
 C73 C 0.26918 0.57702 0.48768
 C74 C 0.26293 0.59458 0.46107
 C75 C 0.24267 0.61193 0.46622
 C76 C 0.23066 0.61035 0.49750
 C77 C 0.27474 0.59649 0.51303
 C78 C 0.25473 0.61385 0.51817
 C79 C 0.24274 0.56318 0.49572
 C80 C 0.22259 0.58080 0.50079
 H81 H 0.27368 0.59360 0.44019
 H82 H 0.21426 0.62461 0.50172
 H83 H 0.29262 0.59591 0.52658
 H84 H 0.23979 0.54169 0.49555
 C85 C 0.78148 0.91362 0.49178
 C86 C 0.77360 0.89578 0.51791
 C87 C 0.75259 0.87910 0.51186
 C88 C 0.74166 0.88151 0.48032
 C89 C 0.78685 0.89453 0.46618
 C90 C 0.76615 0.87775 0.46023
 C91 C 0.75587 0.92820 0.48352
 C92 C 0.73494 0.91126 0.47774
 H93 H 0.78258 0.89744 0.53969
 H94 H 0.72476 0.86771 0.47523
 H95 H 0.80548 0.89429 0.45377
 H96 H 0.75346 0.94957 0.48630
 C97 C -0.00961 0.28635 0.39204
 C98 C 0.01391 0.28858 0.37024
 C99 C 0.01660 0.26676 0.35227
 C100 C -0.00468 0.24468 0.35780
 C101 C -0.03290 0.28095 0.37392
 C102 C -0.03030 0.25815 0.35512
 C103 C -0.00463 0.26043 0.40907
 C104 C -0.00197 0.23856 0.39120
 H105 H 0.02785 0.30534 0.36994
 H106 H -0.00260 0.22693 0.34321
 H107 H -0.05079 0.29301 0.37454
 H108 H -0.00319 0.25950 0.43301
 C109 C 0.01430 0.77098 0.10632
 C110 C -0.00943 0.77169 0.12767
 C111 C -0.01109 0.75028 0.14606
 C112 C 0.01142 0.72987 0.14156
 C113 C 0.03879 0.76794 0.12602
 C114 C 0.03743 0.74653 0.14445
 C115 C 0.01145 0.74425 0.08988
 C116 C 0.00990 0.72270 0.10832
 H117 H -0.02457 0.78703 0.12706
 H118 H 0.01024 0.71244 0.15664
 H119 H 0.05591 0.78143 0.12523
 H120 H 0.01059 0.74254 0.06595
 C121 C 0.51462 0.27105 0.60805
 C122 C 0.49084 0.27169 0.62933
 C123 C 0.48911 0.25021 0.64761
 C124 C 0.51163 0.22981 0.64310
 C125 C 0.53906 0.26792 0.62781
 C126 C 0.53765 0.24644 0.64614
 C127 C 0.51180 0.24439 0.59149
 C128 C 0.51019 0.22277 0.60982
 H129 H 0.47566 0.28700 0.62867
 H130 H 0.51041 0.21233 0.65809
 H131 H 0.55622 0.28138 0.62710
 H132 H 0.51095 0.24277 0.56755
 C133 C 0.49141 0.78582 0.89499
 C134 C 0.51485 0.78802 0.87307
 C135 C 0.51762 0.76608 0.85532
 C136 C 0.49654 0.74389 0.86118
 C137 C 0.46693 0.78010 0.87559
 C138 C 0.46948 0.75818 0.85781
 C139 C 0.49586 0.76139 0.91132
 C140 C 0.49874 0.73837 0.89283
 H141 H 0.52861 0.80492 0.87246
 H142 H 0.49867 0.72605 0.84673
 H143 H 0.44915 0.79230 0.87587
 H144 H 0.49709 0.76058 0.93530
 C145 C -0.22921 0.62604 0.95252
 C146 C -0.20552 0.60919 0.96169
 C147 C -0.21049 0.59398 0.98601
 C148 C -0.23874 0.59687 0.99897
 C149 C -0.25241 0.60626 0.94848
 C150 C -0.25750 0.59112 0.97285
 C151 C -0.23655 0.64237 0.98008
 C152 C -0.24162 0.62697 1.00434
 H153 H -0.18630 0.60974 0.95047
 H154 H -0.24267 0.58428 1.01873
 H155 H -0.26572 0.60663 0.92955
 H156 H -0.23769 0.66399 0.98037
 C157 C -0.26308 0.36500 0.47620
 C158 C -0.28825 0.37857 0.48747
 C159 C -0.28404 0.39396 0.51190
 C160 C -0.25500 0.39424 0.52295
 C161 C -0.24290 0.38779 0.47122
 C162 C -0.23861 0.40306 0.49581
 C163 C -0.25288 0.35001 0.50106
 C164 C -0.24834 0.36625 0.52671
 H165 H -0.30726 0.37767 0.47594
 H166 H -0.25173 0.40684 0.54294
 H167 H -0.23073 0.38960 0.45136
 H168 H -0.24912 0.32871 0.50041
 C169 C 0.23695 -0.13333 -0.02481
 C170 C 0.21175 -0.11965 -0.01380
 C171 C 0.21583 -0.10430 0.01068
 C172 C 0.24477 -0.10416 0.02204
 C173 C 0.25728 -0.11064 -0.02958
 C174 C 0.26144 -0.09541 -0.00493
 C175 C 0.24686 -0.14838 0.00014
 C176 C 0.25126 -0.13219 0.02585
 H177 H 0.19282 -0.12053 -0.02547
 H178 H 0.24792 -0.09158 0.04207
 H179 H 0.26965 -0.10891 -0.04929
 H180 H 0.25062 -0.16968 -0.00052
 C181 C 0.27036 1.12581 0.45151
 C182 C 0.29408 1.10903 0.46076
 C183 C 0.28906 1.09374 0.48500
 C184 C 0.26074 1.09648 0.49782
 C185 C 0.24725 1.10595 0.44728
 C186 C 0.24212 1.09072 0.47157
 C187 C 0.26284 1.14203 0.47909
 C188 C 0.25772 1.12655 0.50327
 H189 H 0.31335 1.10971 0.44966
 H190 H 0.25677 1.08383 0.51752
 H191 H 0.23403 1.10630 0.42827
 H192 H 0.26167 1.16365 0.47946
 C193 C 0.16369 0.53216 0.25860
 C194 C 0.14583 0.52426 0.23248
 C195 C 0.12916 0.50324 0.23850
 C196 C 0.13162 0.49232 0.27003
 C197 C 0.14459 0.53749 0.28422
 C198 C 0.12783 0.51677 0.29015
 C199 C 0.17832 0.50658 0.26682
 C200 C 0.16140 0.48563 0.27259
 H201 H 0.14748 0.53323 0.21069
 H202 H 0.11783 0.47540 0.27510
 H203 H 0.14430 0.55611 0.29661
 H204 H 0.19970 0.50420 0.26403
 C205 C -0.17390 1.01761 0.26139
 C206 C -0.15682 1.01083 0.28829
 C207 C -0.13944 0.99058 0.28301
 C208 C -0.14069 0.97918 0.25135
 C209 C -0.15379 1.02374 0.23672
 C210 C -0.13643 1.00371 0.23145
 C211 C -0.18708 0.99287 0.25278
 C212 C -0.16866 0.97173 0.24729
 H213 H -0.15787 1.02143 0.30926
 H214 H -0.12637 0.96282 0.24702
 H215 H -0.15412 1.04184 0.22353
 H216 H -0.20860 0.98992 0.25315
 C217 C 0.32634 0.51862 -0.23744
 C218 C 0.34382 0.51227 -0.21079
 C219 C 0.36119 0.49204 -0.21597
 C220 C 0.35970 0.48014 -0.24730
 C221 C 0.34589 0.52425 -0.26269
 C222 C 0.36328 0.50426 -0.26785
 C223 C 0.31250 0.49222 -0.24565
 C224 C 0.33013 0.47210 -0.25074
 H225 H 0.34285 0.52300 -0.18990
 H226 H 0.37397 0.46375 -0.25154
 H227 H 0.34538 0.54217 -0.27615
 H228 H 0.29099 0.48928 -0.24557
 C229 C 0.66391 0.03160 -0.24067
 C230 C 0.64602 0.02377 -0.26680
 C231 C 0.62929 0.00280 -0.26078
 C232 C 0.63170 -0.00814 -0.22926
 C233 C 0.64483 0.03698 -0.21506
 C234 C 0.62800 0.01631 -0.20913
 C235 C 0.67845 0.00597 -0.23246
 C236 C 0.66146 -0.01492 -0.22670
 H237 H 0.64767 0.03276 -0.28857
 H238 H 0.61787 -0.02502 -0.22419
 H239 H 0.64460 0.05560 -0.20265
 H240 H 0.69983 0.00353 -0.23524
 C241 C 0.03536 0.24106 0.85550
 C242 C 0.03776 0.26442 0.87748
 C243 C 0.01585 0.26728 0.89528
 C244 C -0.00650 0.24637 0.88939
 C245 C 0.02951 0.21658 0.87483
 C246 C 0.00763 0.21924 0.89264
 C247 C 0.01092 0.24570 0.83922
 C248 C -0.01206 0.24868 0.85776
 H249 H 0.05474 0.27808 0.87808
 H250 H -0.02431 0.24858 0.90388
 H251 H 0.04160 0.19873 0.87446
 H252 H 0.01007 0.24694 0.81525
 C253 C 0.52165 0.26488 0.14288
 C254 C 0.52223 0.24115 0.12152
 C255 C 0.50076 0.23954 0.10319
 C256 C 0.48042 0.26211 0.10773
 C257 C 0.51864 0.28935 0.12318
 C258 C 0.49716 0.28807 0.10480
 C259 C 0.49493 0.26212 0.15937
 C260 C 0.47332 0.26063 0.14099
 H261 H 0.53750 0.22594 0.12216
 H262 H 0.46295 0.26099 0.09269
 H263 H 0.53215 0.30646 0.12400
 H264 H 0.49327 0.26123 0.18331
 C265 C 0.02114 0.76439 0.64245
 C266 C 0.02175 0.74061 0.62118
 C267 C 0.00026 0.73891 0.60287
 C268 C -0.02012 0.76145 0.60736
 C269 C 0.01805 0.78881 0.62268
 C270 C -0.00343 0.78743 0.60433
 C271 C -0.00556 0.76162 0.65899
 C272 C -0.02719 0.76004 0.64063
 H273 H 0.03707 0.72545 0.62182
 H274 H -0.03761 0.76025 0.59235
 H275 H 0.03155 0.80593 0.62340
 H276 H -0.00719 0.76080 0.68293
 C277 C 0.53637 0.74133 0.35695
 C278 C 0.53857 0.76471 0.37884
 C279 C 0.51671 0.76748 0.39666
 C280 C 0.49449 0.74648 0.39100
 C281 C 0.53047 0.71684 0.37613
 C282 C 0.50865 0.71940 0.39397
 C283 C 0.51050 0.74618 0.33988
 C284 C 0.48859 0.74895 0.35761
 H285 H 0.55544 0.77851 0.37935
 H286 H 0.47668 0.74861 0.40549
 H287 H 0.54258 0.69900 0.37568
 H288 H 0.50962 0.74749 0.31593
 B289 B -0.01800 0.01306 1.03396
 B290 B -0.03162 0.00628 1.00120
 B291 B -0.00834 0.03025 1.00416
 B292 B 0.01455 0.02077 1.02929
 B293 B 0.00474 -0.01013 1.04155
 B294 B -0.02429 -0.01885 1.02413
 B295 B 0.01439 -0.01368 0.98244
 B296 B 0.02809 -0.00693 1.01515
 B297 B 0.00477 -0.03077 1.01209
 B298 B -0.01807 -0.02134 0.98710
 B299 B -0.00827 0.00949 0.97479
 B300 B 0.02082 0.01819 0.99217
 B301 B 0.48314 0.51339 0.53570
 B302 B 0.46977 0.50665 0.50281
 B303 B 0.49310 0.53054 0.50600
 B304 B 0.51575 0.52100 0.53136
 B305 B 0.50574 0.49012 0.54353
 B306 B 0.47683 0.48150 0.52582
 B307 B 0.51586 0.48654 0.48452
 B308 B 0.52932 0.49325 0.51736
 B309 B 0.50594 0.46949 0.51407
 B310 B 0.48335 0.47898 0.48884
 B311 B 0.49334 0.50978 0.47663
 B312 B 0.52231 0.51840 0.49431
 B313 B 0.51657 0.97051 0.54734
 B314 B 0.53199 0.97740 0.51553
 B315 B 0.50639 0.95585 0.51610
 B316 B 0.48362 0.96639 0.54110
 B317 B 0.49596 0.99559 0.55582
 B318 B 0.52637 1.00209 0.53993
 B319 B 0.48901 1.00289 0.49675
 B320 B 0.47347 0.99603 0.52844
 B321 B 0.49914 1.01753 0.52788
 B322 B 0.52182 1.00698 0.50295
 B323 B 0.50947 0.97790 0.48820
 B324 B 0.47912 0.97135 0.50403
 B325 B 0.01708 0.47015 1.04641
 B326 B 0.03245 0.47701 1.01457
 B327 B 0.00682 0.45548 1.01520
 B328 B -0.01589 0.46606 1.04025
 B329 B -0.00349 0.49525 1.05493
 B330 B 0.02690 0.50171 1.03897
 B331 B -0.01053 0.50254 0.99588
 B332 B -0.02603 0.49571 1.02761
 B333 B -0.00033 0.51718 1.02698
 B334 B 0.02229 0.50659 1.00200
 B335 B 0.00987 0.47752 0.98729
 B336 B -0.02046 0.47102 1.00319
 B337 B -0.00131 0.52268 0.47921
 B338 B 0.01464 0.51835 0.51104
 B339 B -0.01023 0.54007 0.50903
 B340 B -0.03389 0.52781 0.48607
 B341 B -0.02292 0.49742 0.47408
 B342 B 0.00755 0.49184 0.48956
 B343 B -0.02883 0.49518 0.53396
 B344 B -0.04478 0.49958 0.50214
 B345 B -0.01990 0.47783 0.50403
 B346 B 0.00374 0.49010 0.52705
 B347 B -0.00721 0.52053 0.53907
 B348 B -0.03772 0.52610 0.52363
 B349 B 0.49931 0.02299 -0.01979
 B350 B 0.51527 0.01879 0.01206
 B351 B 0.49036 0.04046 0.00996
 B352 B 0.46672 0.02807 -0.01295
 B353 B 0.47775 -0.00233 -0.02482
 B354 B 0.50823 -0.00780 -0.00931
 B355 B 0.47184 -0.00438 0.03507
 B356 B 0.45588 -0.00012 0.00322
 B357 B 0.48080 -0.02181 0.00521
 B358 B 0.50442 -0.00942 0.02818
 B359 B 0.49341 0.02102 0.04008
 B360 B 0.46290 0.02649 0.02461
 B361 B 0.49342 0.49573 -0.03296
 B362 B 0.47807 0.50359 -0.00146
 B363 B 0.50169 0.48048 -0.00176
 B364 B 0.52573 0.48953 -0.02612
 B365 B 0.51621 0.51939 -0.04083
 B366 B 0.48621 0.52777 -0.02551
 B367 B 0.52284 0.52620 0.01857
 B368 B 0.53824 0.51842 -0.01293
 B369 B 0.51449 0.54152 -0.01272
 B370 B 0.49053 0.53239 0.01168
 B371 B 0.50003 0.50253 0.02633
 B372 B 0.53000 0.49410 0.01104
 B373 B -0.00680 0.99459 0.46573
 B374 B -0.02196 1.00249 0.49733
 B375 B 0.00156 0.97929 0.49687
 B376 B 0.02552 0.98827 0.47238
 B377 B 0.01604 1.01817 0.45776
 B378 B -0.01385 1.02666 0.47327
 B379 B 0.02299 1.02492 0.51713
 B380 B 0.03821 1.01710 0.48552
 B381 B 0.01455 1.04029 0.48590
 B382 B -0.00933 1.03123 0.51043
 B383 B 0.00013 1.00133 0.52499
 B384 B 0.02999 0.99279 0.50952
 B385 B 0.76409 0.23236 0.21549
 B386 B 0.75728 0.21872 0.24822
 B387 B 0.78122 0.24204 0.24534
 B388 B 0.77172 0.26490 0.22020
 B389 B 0.74083 0.25502 0.20786
 B390 B 0.73215 0.22599 0.22524
 B391 B 0.73717 0.26465 0.26697
 B392 B 0.74394 0.27836 0.23428
 B393 B 0.72013 0.25500 0.23726
 B394 B 0.72959 0.23220 0.26227
 B395 B 0.76040 0.24205 0.27466
 B396 B 0.76907 0.27115 0.25731
 B397 B 0.72027 0.76670 0.70369
 B398 B 0.72728 0.78212 0.73548
 B399 B 0.70575 0.75649 0.73500
 B400 B 0.71624 0.73377 0.70992
 B401 B 0.74537 0.74616 0.69506
 B402 B 0.75188 0.77655 0.71095
 B403 B 0.75296 0.73921 0.75407
 B404 B 0.74598 0.72367 0.72240
 B405 B 0.76745 0.74937 0.72288
 B406 B 0.75695 0.77201 0.74789
 B407 B 0.72795 0.75960 0.76278
 B408 B 0.72138 0.72926 0.74695
 B409 B 0.27224 0.24833 0.76994
 B410 B 0.26802 0.26425 0.73808
 B411 B 0.28975 0.23940 0.74021
 B412 B 0.27739 0.21577 0.76312
 B413 B 0.24695 0.22675 0.77496
 B414 B 0.24142 0.25719 0.75944
 B415 B 0.24492 0.22081 0.71507
 B416 B 0.24920 0.20488 0.74692
 B417 B 0.22746 0.22975 0.74490
 B418 B 0.23982 0.25336 0.72194
 B419 B 0.27031 0.24240 0.71007
 B420 B 0.27582 0.21193 0.72555
 B421 B 0.24485 0.74386 0.28290
 B422 B 0.25265 0.72861 0.25132
 B423 B 0.22939 0.75207 0.25181
 B424 B 0.23842 0.77612 0.27616
 B425 B 0.26842 0.76677 0.29068
 B426 B 0.27692 0.73687 0.27524
 B427 B 0.27491 0.77352 0.23125
 B428 B 0.26718 0.78882 0.26284
 B429 B 0.29043 0.76523 0.26244
 B430 B 0.28133 0.74126 0.23804
 B431 B 0.25132 0.75060 0.22358
 B432 B 0.24277 0.78047 0.23899
 B433 B 0.26361 0.73278 0.71534
 B434 B 0.25677 0.71937 0.74818
 B435 B 0.28072 0.74266 0.74513
 B436 B 0.27125 0.76535 0.71978
 B437 B 0.24037 0.75539 0.70749
 B438 B 0.23167 0.72648 0.72510
 B439 B 0.23665 0.76542 0.76651
 B440 B 0.24345 0.77891 0.73372
 B441 B 0.21964 0.75557 0.73687
 B442 B 0.22906 0.73294 0.76208
 B443 B 0.25986 0.74288 0.77442
 B444 B 0.26856 0.77185 0.75684
 B445 B 0.22058 0.26728 0.20292
 B446 B 0.22741 0.28273 0.23473
 B447 B 0.20590 0.25708 0.23415
 B448 B 0.21654 0.23435 0.20916
 B449 B 0.24574 0.24675 0.19447
 B450 B 0.25215 0.27716 0.21037
 B451 B 0.25302 0.23985 0.25354
 B452 B 0.24622 0.22428 0.22184
 B453 B 0.26767 0.24999 0.22243
 B454 B 0.25703 0.27264 0.24735
 B455 B 0.22795 0.26023 0.26207
 B456 B 0.22148 0.22987 0.24623
 B457 B 0.77295 0.74953 0.27052
 B458 B 0.76863 0.76542 0.23866
 B459 B 0.79040 0.74061 0.24075
 B460 B 0.77814 0.71697 0.26371
 B461 B 0.74770 0.72790 0.27562
 B462 B 0.74208 0.75832 0.26009
 B463 B 0.74555 0.72191 0.21575
 B464 B 0.74994 0.70602 0.24760
 B465 B 0.72814 0.73084 0.24562
 B466 B 0.74041 0.75446 0.22260
 B467 B 0.77089 0.74355 0.21066
 B468 B 0.77650 0.71310 0.22616
 B469 B 0.74527 0.24322 0.78411
 B470 B 0.75310 0.22792 0.75257
 B471 B 0.72988 0.25141 0.75297
 B472 B 0.73890 0.27547 0.77730
 B473 B 0.76886 0.26610 0.79190
 B474 B 0.77734 0.23616 0.77653
 B475 B 0.77546 0.27276 0.73247
 B476 B 0.76771 0.28811 0.76402
 B477 B 0.79092 0.26448 0.76371
 B478 B 0.78182 0.24050 0.73933
 B479 B 0.75185 0.24986 0.72480
 B480 B 0.74333 0.27977 0.74013
 C481 C 0.41987 1.02803 0.37435
 C482 C 0.41820 1.00093 0.38979
 C483 C 0.43244 0.99990 0.41518
 C484 C 0.44706 1.02607 0.42277
 C485 C 0.42524 1.04731 0.42339
 C486 C 0.41087 1.04834 0.39780
 C487 C 0.44980 1.03354 0.36991
 C488 C 0.46413 1.03251 0.39542
 C489 C 0.40449 1.02787 0.34696
 C490 C 0.39164 1.02555 0.32468
 C491 C 0.46244 1.02319 0.44989
 C492 C 0.47473 1.01681 0.47143
 H493 H 0.40669 0.98399 0.38157
 H494 H 0.43310 0.98208 0.42873
 H495 H 0.42141 1.06028 0.44216
 H496 H 0.39469 1.06224 0.39460
 H497 H 0.45890 1.03801 0.34865
 H498 H 0.48552 1.03610 0.39607
 C499 C -0.07962 0.52767 0.87344
 C500 C -0.08850 0.54813 0.89679
 C501 C -0.07414 0.54711 0.92239
 C502 C -0.05246 0.52574 0.92189
 C503 C -0.03534 0.53195 0.89452
 C504 C -0.04965 0.53297 0.86899
 C505 C -0.08146 0.50064 0.88902
 C506 C -0.06724 0.49963 0.91443
 C507 C -0.09499 0.52749 0.84605
 C508 C -0.10789 0.52513 0.82381
 C509 C -0.03711 0.52286 0.94903
 C510 C -0.02483 0.51648 0.97058
 H511 H -0.10458 0.56212 0.89351
 H512 H -0.07789 0.56019 0.94109
 H513 H -0.01393 0.53541 0.89516
 H514 H -0.04052 0.53730 0.84771
 H515 H -0.09308 0.48374 0.88088
 H516 H -0.06669 0.48185 0.92807
 C517 C 0.07563 -0.02455 0.85234
 C518 C 0.09309 -0.03878 0.87516
 C519 C 0.08163 -0.04063 0.90249
 C520 C 0.05392 -0.02808 0.90410
 C521 C 0.03756 -0.04187 0.87968
 C522 C 0.04902 -0.04002 0.85236
 C523 C 0.06938 0.00255 0.86624
 C524 C 0.05799 0.00071 0.89340
 C525 C 0.08813 -0.02171 0.82333
 C526 C 0.09949 -0.01824 0.80021
 C527 C 0.04131 -0.02841 0.93318
 C528 C 0.02997 -0.02466 0.95619
 H529 H 0.11265 -0.04678 0.87024
 H530 H 0.09130 -0.05021 0.92101
 H531 H 0.01875 -0.05227 0.88353
 H532 H 0.04005 -0.04879 0.83274
 H533 H 0.07353 0.02157 0.85567
 H534 H 0.05240 0.01820 0.90613
 C535 C 0.57814 0.47576 0.35508
 C536 C 0.59509 0.46077 0.37778
 C537 C 0.58342 0.45887 0.40501
 C538 C 0.55605 0.47214 0.40663
 C539 C 0.53948 0.45909 0.38188
 C540 C 0.55115 0.46100 0.35468
 C541 C 0.57254 0.50284 0.36936
 C542 C 0.56095 0.50095 0.39642
 C543 C 0.59082 0.47864 0.32617
 C544 C 0.60219 0.48213 0.30307
 C545 C 0.54320 0.47177 0.43557
 C546 C 0.53165 0.47553 0.45845
 H547 H 0.61445 0.45232 0.37287
 H548 H 0.59271 0.44879 0.42344
 H549 H 0.52039 0.44914 0.38543
 H550 H 0.54207 0.45271 0.33486
 H551 H 0.57727 0.52188 0.35913
 H552 H 0.55575 0.51842 0.40939
 C553 C 0.58504 0.52621 0.14689
 C554 C 0.56069 0.54443 0.14957
 C555 C 0.54894 0.54983 0.12311
 C556 C 0.56274 0.53649 0.09668
 C557 C 0.56318 0.50669 0.10435
 C558 C 0.57484 0.50132 0.13062
 C559 C 0.60379 0.54030 0.12477
 C560 C 0.59203 0.54571 0.09827
 C561 C 0.59722 0.51924 0.17517
 C562 C 0.60657 0.51182 0.19817
 C563 C 0.54957 0.54016 0.06819
 C564 C 0.53785 0.53782 0.04515
 H565 H 0.55343 0.55247 0.17037
 H566 H 0.53163 0.56252 0.12120
 H567 H 0.55500 0.49105 0.09024
 H568 H 0.57664 0.48115 0.13898
 H569 H 0.62438 0.54565 0.12956
 H570 H 0.60249 0.55573 0.08036
 C571 C 0.08504 1.02469 0.64554
 C572 C 0.07487 0.99983 0.62922
 C573 C 0.06331 1.00522 0.60290
 C574 C 0.06294 1.03502 0.59524
 C575 C 0.09223 1.04421 0.59697
 C576 C 0.10389 1.03877 0.62352
 C577 C 0.06071 1.04294 0.64812
 C578 C 0.04906 1.04836 0.62162
 C579 C 0.09711 1.01772 0.67389
 C580 C 0.10637 1.01034 0.69695
 C581 C 0.04985 1.03873 0.56671
 C582 C 0.03813 1.03645 0.54366
 H583 H 0.07663 0.97965 0.63758
 H584 H 0.05517 0.98959 0.58874
 H585 H 0.10276 1.05422 0.57910
 H586 H 0.12447 1.04410 0.62839
 H587 H 0.05339 1.05098 0.66890
 H588 H 0.03177 1.06108 0.61964
 C589 C -0.09002 0.49041 0.66487
 C590 C -0.06206 0.47830 0.66674
 C591 C -0.05015 0.47479 0.63988
 C592 C -0.06740 0.48371 0.61383
 C593 C -0.07435 0.51282 0.62074
 C594 C -0.08619 0.51631 0.64748
 C595 C -0.10577 0.47172 0.64407
 C596 C -0.09383 0.46821 0.61713
 C597 C -0.10249 0.49517 0.69373
 C598 C -0.11218 0.50049 0.71741
 C599 C -0.05424 0.48172 0.58497
 C600 C -0.04296 0.48449 0.56164
 H601 H -0.05252 0.47286 0.68734
 H602 H -0.03043 0.46632 0.63744
 H603 H -0.07035 0.52932 0.60582
 H604 H -0.09232 0.53577 0.65543
 H605 H -0.12453 0.46208 0.65000
 H606 H -0.10232 0.45553 0.59999
 C607 C 0.41030 -0.00900 0.16580
 C608 C 0.41455 0.01695 0.14860
 C609 C 0.42650 0.01343 0.12193
 C610 C 0.43312 -0.01573 0.11488
 C611 C 0.40648 -0.03092 0.11791
 C612 C 0.39444 -0.02738 0.14478
 C613 C 0.43808 -0.02147 0.16780
 C614 C 0.45010 -0.02500 0.14100
 C615 C 0.39770 -0.00423 0.19460
 C616 C 0.38790 0.00110 0.21821
 C617 C 0.44638 -0.01775 0.08608
 C618 C 0.45770 -0.01502 0.06277
 H619 H 0.40863 0.03644 0.15664
 H620 H 0.43080 0.02996 0.10714
 H621 H 0.39793 -0.04340 0.10064
 H622 H 0.37553 -0.03682 0.15053
 H623 H 0.44743 -0.02714 0.18843
 H624 H 0.46972 -0.03371 0.13864
 C625 C 0.35191 0.45572 0.00134
 C626 C 0.36369 0.46235 -0.02914
 C627 C 0.38857 0.47336 -0.02793
 C628 C 0.39921 0.47664 0.00365
 C629 C 0.39742 0.44871 0.01724
 C630 C 0.37252 0.43770 0.01603
 C631 C 0.35309 0.48201 0.01882
 C632 C 0.37809 0.49307 0.02003
 C633 C 0.32561 0.44306 -0.00064
 C634 C 0.30512 0.43073 -0.00384
 C635 C 0.42619 0.48776 0.00421
 C636 C 0.44888 0.49556 0.00291
 H637 H 0.35336 0.45881 -0.04988
 H638 H 0.39957 0.47930 -0.04761
 H639 H 0.41420 0.43853 0.02706
 H640 H 0.36794 0.41805 0.02482
 H641 H 0.33589 0.49110 0.02925
 H642 H 0.38238 0.51167 0.03152
 C643 C -0.14843 0.95550 0.50203
 C644 C -0.13687 0.96168 0.47132
 C645 C -0.11189 0.97250 0.47209
 C646 C -0.10094 0.97606 0.50350
 C647 C -0.10284 0.94832 0.51752
 C648 C -0.12783 0.93750 0.51675
 C649 C -0.14688 0.98199 0.51910
 C650 C -0.12178 0.99287 0.51987
 C651 C -0.17482 0.94303 0.50046
 C652 C -0.19539 0.93079 0.49747
 C653 C -0.07388 0.98698 0.50359
 C654 C -0.05115 0.99461 0.50197
 H655 H -0.14742 0.95797 0.45075
 H656 H -0.10103 0.97810 0.45220
 H657 H -0.08605 0.93812 0.52731
 H658 H -0.13248 0.91799 0.52588
 H659 H -0.16391 0.99134 0.52959
 H660 H -0.11723 1.01156 0.53104
 C661 C -0.16108 0.03860 0.98403
 C662 C -0.15300 0.03044 1.01538
 C663 C -0.12704 0.02322 1.01761
 C664 C -0.11173 0.02487 0.98826
 C665 C -0.11525 0.05355 0.97758
 C666 C -0.14120 0.06077 0.97535
 C667 C -0.15400 0.01475 0.96428
 C668 C -0.12789 0.00748 0.96652
 C669 C -0.18855 0.04775 0.98264
 C670 C -0.20970 0.05869 0.98392
 C671 C -0.08379 0.01776 0.99132
 C672 C -0.06073 0.01262 0.99504
 H673 H -0.16654 0.03022 1.03418
 H674 H -0.11828 0.01681 1.03830
 H675 H -0.09882 0.06700 0.97216
 H676 H -0.14702 0.08044 0.96796
 H677 H -0.16814 0.00453 0.94992
 H678 H -0.11959 -0.00901 0.95405
 C679 C 0.34068 0.53963 0.48397
 C680 C 0.34779 0.51560 0.46451
 C681 C 0.37383 0.50819 0.46711
 C682 C 0.38991 0.52564 0.48887
 C683 C 0.37433 0.52428 0.51806
 C684 C 0.34843 0.53164 0.51549
 C685 C 0.36077 0.56162 0.47532
 C686 C 0.38665 0.55427 0.47790
 C687 C 0.31327 0.54889 0.48224
 C688 C 0.29211 0.55982 0.48330
 C689 C 0.41776 0.51836 0.49230
 C690 C 0.44075 0.51310 0.49632
 H691 H 0.33372 0.50536 0.45009
 H692 H 0.38214 0.49156 0.45488
 H693 H 0.38286 0.51797 0.53891
 H694 H 0.33473 0.53164 0.53414
 H695 H 0.35513 0.58128 0.46769
 H696 H 0.40321 0.56757 0.47254
 C697 C 0.14431 0.55746 0.50970
 C698 C 0.13389 0.54378 0.48155
 C699 C 0.10779 0.53619 0.48330
 C700 C 0.09466 0.54305 0.51302
 C701 C 0.09914 0.57318 0.51694
 C702 C 0.12530 0.58077 0.51520
 C703 C 0.13844 0.53762 0.53472
 C704 C 0.11227 0.53003 0.53647
 C705 C 0.17236 0.56559 0.50746
 C706 C 0.19534 0.57238 0.50483
 C707 C 0.06664 0.53479 0.51436
 C708 C 0.04366 0.52771 0.51401
 H709 H 0.14597 0.54034 0.46195
 H710 H 0.09748 0.52622 0.46522
 H711 H 0.08321 0.58728 0.52077
 H712 H 0.13180 0.60140 0.51753
 H713 H 0.15347 0.53023 0.54974
 H714 H 0.10486 0.51613 0.55300
 C715 C 0.64481 0.05846 0.01071
 C716 C 0.63450 0.04469 -0.01744
 C717 C 0.60842 0.03698 -0.01572
 C718 C 0.59522 0.04381 0.01398
 C719 C 0.59955 0.07395 0.01786
 C720 C 0.62567 0.08167 0.01615
 C721 C 0.63899 0.03862 0.03576
 C722 C 0.61286 0.03090 0.03748
 C723 C 0.67283 0.06671 0.00855
 C724 C 0.69581 0.07358 0.00610
 C725 C 0.56723 0.03541 0.01530
 C726 C 0.54427 0.02824 0.01499
 H727 H 0.64661 0.04129 -0.03701
 H728 H 0.59818 0.02693 -0.03380
 H729 H 0.58354 0.08798 0.02164
 H730 H 0.63207 0.10233 0.01845
 H731 H 0.65404 0.03131 0.05081
 H732 H 0.60550 0.01698 0.05401
 C733 C 0.65796 0.93637 0.48755
 C734 C 0.65231 0.96453 0.47619
 C735 C 0.62695 0.97268 0.48174
 C736 C 0.60980 0.95186 0.49809
 C737 C 0.62550 0.94530 0.52613
 C738 C 0.65084 0.93714 0.52059
 C739 C 0.63651 0.91842 0.47336
 C740 C 0.61113 0.92658 0.47891
 C741 C 0.68527 0.92762 0.48213
 C742 C 0.70789 0.92030 0.47915
 C743 C 0.58266 0.96066 0.50419
 C744 C 0.56037 0.96801 0.50927
 H745 H 0.66692 0.97694 0.46477
 H746 H 0.61979 0.99211 0.47509
 H747 H 0.61743 0.94690 0.54837
 H748 H 0.66450 0.93175 0.53810
 H749 H 0.64085 0.90090 0.46011
 H750 H 0.59369 0.91607 0.47041
 C751 C 0.15845 0.43613 0.98638
 C752 C 0.13702 0.41820 0.97211
 C753 C 0.11162 0.42631 0.97770
 C754 C 0.11026 0.45151 0.99698
 C755 C 0.12738 0.47242 0.98071
 C756 C 0.15275 0.46432 0.97513
 C757 C 0.15132 0.43679 1.01941
 C758 C 0.12597 0.44488 1.02499
 C759 C 0.18577 0.42744 0.98091
 C760 C 0.20840 0.42015 0.97790
 C761 C 0.08310 0.46027 1.00312
 C762 C 0.06082 0.46759 1.00825
 H763 H 0.14139 0.40073 0.95879
 H764 H 0.09421 0.41579 0.96917
 H765 H 0.12019 0.49185 0.97414
 H766 H 0.16734 0.47679 0.96376
 H767 H 0.16500 0.43135 1.03691
 H768 H 0.11790 0.44640 1.04723
 C769 C -0.01773 0.35476 0.44364
 C770 C -0.04669 0.36225 0.45094
 C771 C -0.04893 0.38559 0.46640
 C772 C -0.02199 0.39920 0.47308
 C773 C -0.00838 0.40230 0.44278
 C774 C -0.00616 0.37907 0.42739
 C775 C -0.00342 0.35463 0.47365
 C776 C -0.00565 0.37797 0.48911
 C777 C -0.01504 0.32990 0.42633
 C778 C -0.01258 0.31007 0.41123
 C779 C -0.02373 0.42505 0.48861
 C780 C -0.02344 0.44761 0.49818
 H781 H -0.06391 0.35023 0.44462
 H782 H -0.06803 0.39350 0.47332
 H783 H -0.00109 0.42121 0.43412
 H784 H 0.00303 0.37813 0.40564
 H785 H 0.00745 0.33767 0.48206
 H786 H 0.00328 0.38096 0.51072
 C787 C 0.48312 -0.14536 -0.05413
 C788 C 0.49515 -0.12126 -0.07037
 C789 C 0.49290 -0.09790 -0.05523
 C790 C 0.47881 -0.10067 -0.02515
 C791 C 0.49471 -0.12193 -0.00863
 C792 C 0.49697 -0.14540 -0.02385
 C793 C 0.45412 -0.13756 -0.04743
 C794 C 0.45186 -0.11409 -0.03222
 C795 C 0.48584 -0.17037 -0.07118
 C796 C 0.48835 -0.19032 -0.08606
 C797 C 0.47704 -0.07469 -0.00988
 C798 C 0.47731 -0.05207 -0.00048
 H799 H 0.50465 -0.12243 -0.09194
 H800 H 0.50049 -0.07911 -0.06391
 H801 H 0.50334 -0.11886 0.01312
 H802 H 0.50755 -0.16239 -0.01509
 H803 H 0.43689 -0.14948 -0.05397
 H804 H 0.43273 -0.10596 -0.02573
 C805 C 0.01604 -0.15791 1.06002
 C806 C 0.04312 -0.14822 1.04779
 C807 C 0.04242 -0.12330 1.03569
 C808 C 0.01472 -0.11054 1.03703
 C809 C 0.00681 -0.11133 1.06981
 C810 C 0.00750 -0.13611 1.08184
 C811 C -0.00338 -0.15565 1.03397
 C812 C -0.00407 -0.13076 1.02189
 C813 C 0.01630 -0.18436 1.07402
 C814 C 0.01573 -0.20514 1.08750
 C815 C 0.01327 -0.08337 1.02505
 C816 C 0.01056 -0.06046 1.01759
 H817 H 0.06119 -0.15993 1.04846
 H818 H 0.05987 -0.11369 1.02598
 H819 H 0.00118 -0.09386 1.08254
 H820 H 0.00245 -0.13981 1.10484
 H821 H -0.01542 -0.17216 1.02567
 H822 H -0.01671 -0.12598 1.00324
 C823 C 0.51665 0.34228 0.56196
 C824 C 0.49675 0.34482 0.53641
 C825 C 0.49617 0.36973 0.52436
 C826 C 0.51555 0.38967 0.53903
 C827 C 0.54303 0.37652 0.53700
 C828 C 0.54361 0.35157 0.54907
 C829 C 0.50887 0.36419 0.58400
 C830 C 0.50830 0.38898 0.57200
 C831 C 0.51679 0.31579 0.57592
 C832 C 0.51613 0.29499 0.58933
 C833 C 0.51422 0.41686 0.52708
 C834 C 0.51162 0.43977 0.51962
 H835 H 0.48431 0.32849 0.52840
 H836 H 0.48323 0.37469 0.50603
 H837 H 0.56041 0.38588 0.52687
 H838 H 0.56152 0.33960 0.54929
 H839 H 0.50423 0.36054 0.60712
 H840 H 0.50317 0.40653 0.58487
 C841 C 0.50200 1.14617 0.57645
 C842 C 0.50823 1.12429 0.59894
 C843 C 0.50617 1.09910 0.58769
 C844 C 0.49806 1.09807 0.55497
 C845 C 0.51882 1.11567 0.53905
 C846 C 0.52088 1.14089 0.55031
 C847 C 0.47403 1.13901 0.56474
 C848 C 0.47196 1.11375 0.55346
 C849 C 0.50455 1.17343 0.58871
 C850 C 0.50702 1.19580 0.59858
 C851 C 0.49641 1.07058 0.54329
 C852 C 0.49649 1.04756 0.53518
 H853 H 0.51376 1.12823 0.62175
 H854 H 0.50994 1.08152 0.60092
 H855 H 0.53081 1.10894 0.52050
 H856 H 0.53465 1.15569 0.54137
 H857 H 0.45733 1.15260 0.56524
 H858 H 0.45353 1.10576 0.54431
 C859 C 0.00209 0.64595 1.07525
 C860 C 0.02121 0.64061 1.04934
 C861 C 0.01928 0.61536 1.03817
 C862 C -0.00160 0.59778 1.05393
 C863 C -0.02770 0.61343 1.05207
 C864 C -0.02576 0.63873 1.06326
 C865 C 0.00814 0.62416 1.09791
 C866 C 0.00621 0.59893 1.08674
 C867 C 0.00450 0.67326 1.08742
 C868 C 0.00686 0.69568 1.09720
 C869 C -0.00312 0.57025 1.04232
 C870 C -0.00298 0.54722 1.03426
 H871 H 0.03505 0.65539 1.04050
 H872 H 0.03145 0.60858 1.01978
 H873 H -0.04604 0.60539 1.04273
 H874 H -0.04248 0.65230 1.06352
 H875 H 0.01345 0.62818 1.12076
 H876 H 0.00987 0.58139 1.10008
 C877 C 0.51091 0.66609 -0.06972
 C878 C 0.50264 0.66592 -0.03695
 C879 C 0.50574 0.64184 -0.02349
 C880 C 0.51683 0.62018 -0.04403
 C881 C 0.54294 0.63204 -0.05644
 C882 C 0.53983 0.65616 -0.06993
 C883 C 0.49455 0.64345 -0.08391
 C884 C 0.49765 0.61942 -0.07048
 C885 C 0.50708 0.69212 -0.08423
 C886 C 0.50332 0.71362 -0.09552
 C887 C 0.51928 0.59376 -0.03005
 C888 C 0.51900 0.57124 -0.02053
 H889 H 0.49507 0.68324 -0.02532
 H890 H 0.50085 0.63859 -0.00037
 H891 H 0.56215 0.62239 -0.05473
 H892 H 0.55640 0.66712 -0.07977
 H893 H 0.48166 0.64603 -0.10292
 H894 H 0.48738 0.60148 -0.07804
 C895 C 0.01082 1.16482 0.42898
 C896 C 0.00262 1.16463 0.46177
 C897 C 0.00580 1.14055 0.47521
 C898 C 0.01688 1.11892 0.45463
 C899 C 0.04294 1.13083 0.44215
 C900 C 0.03976 1.15495 0.42869
 C901 C -0.00553 1.14216 0.41482
 C902 C -0.00236 1.11814 0.42823
 C903 C 0.00689 1.19084 0.41450
 C904 C 0.00304 1.21235 0.40328
 C905 C 0.01939 1.09251 0.46859
 C906 C 0.01912 1.06999 0.47810
 H907 H -0.00496 1.18193 0.47343
 H908 H 0.00096 1.13729 0.49834
 H909 H 0.06217 1.12121 0.44381
 H910 H 0.05629 1.16594 0.41880
 H911 H -0.01846 1.14472 0.39585
 H912 H -0.01261 1.10018 0.42069
 C913 C 0.77827 0.67028 0.87645
 C914 C 0.78372 0.70021 0.88087
 C915 C 0.78270 0.71449 0.85534
 C916 C 0.77635 0.69739 0.82799
 C917 C 0.75018 0.68273 0.83553
 C918 C 0.75118 0.66854 0.86094
 C919 C 0.79866 0.66130 0.85307
 C920 C 0.79764 0.67563 0.82746
 C921 C 0.77807 0.65495 0.90385
 C922 C 0.77570 0.64210 0.92612
 C923 C 0.77346 0.71271 0.80085
 C924 C 0.76702 0.72497 0.77932
 H925 H 0.78813 0.70934 0.90213
 H926 H 0.78626 0.73588 0.85467
 H927 H 0.73237 0.68334 0.82193
 H928 H 0.73425 0.65701 0.86913
 H929 H 0.81260 0.64517 0.85633
 H930 H 0.81067 0.67180 0.80873
 C931 C 0.27797 0.17042 0.37571
 C932 C 0.28345 0.20032 0.38035
 C933 C 0.28248 0.21475 0.35491
 C934 C 0.27615 0.19780 0.32743
 C935 C 0.24995 0.18314 0.33483
 C936 C 0.25091 0.16880 0.36014
 C937 C 0.29839 0.16155 0.35231
 C938 C 0.29742 0.17602 0.32679
 C939 C 0.27772 0.15493 0.40301
 C940 C 0.27531 0.14197 0.42519
 C941 C 0.27333 0.21327 0.30038
 C942 C 0.26696 0.22559 0.27887
 H943 H 0.28784 0.20932 0.40167
 H944 H 0.28606 0.23614 0.35439
 H945 H 0.23216 0.18384 0.32121
 H946 H 0.23395 0.15724 0.36822
 H947 H 0.31230 0.14538 0.35548
 H948 H 0.31047 0.17228 0.30806
 C949 C 0.72595 0.32570 0.39714
 C950 C 0.71077 0.29894 0.39708
 C951 C 0.70898 0.28752 0.36973
 C952 C 0.72254 0.30407 0.34532
 C953 C 0.75132 0.30844 0.35596
 C954 C 0.75310 0.31979 0.38315
 C955 C 0.71146 0.34303 0.37440
 C956 C 0.70967 0.33161 0.34704
 C957 C 0.72873 0.33816 0.42618
 C958 C 0.73218 0.34947 0.44933
 C959 C 0.72228 0.29150 0.31622
 C960 C 0.72611 0.28018 0.29321
 H961 H 0.70213 0.28984 0.41670
 H962 H 0.69877 0.26862 0.36586
 H963 H 0.76886 0.30307 0.34318
 H964 H 0.77212 0.32414 0.39368
 H965 H 0.70324 0.36248 0.37939
 H966 H 0.69992 0.34119 0.32857
 C967 C 0.22592 0.82722 0.89621
 C968 C 0.21142 0.84450 0.87342
 C969 C 0.20950 0.83295 0.84615
 C970 C 0.22225 0.80534 0.84455
 C971 C 0.20870 0.78897 0.86912
 C972 C 0.21063 0.80053 0.89638
 C973 C 0.25300 0.82113 0.88216
 C974 C 0.25108 0.80965 0.85505
 C975 C 0.22882 0.83980 0.92517
 C976 C 0.23230 0.85115 0.94829
 C977 C 0.22185 0.79261 0.81554
 C978 C 0.22560 0.78115 0.79261
 H979 H 0.20331 0.86400 0.87833
 H980 H 0.19973 0.84247 0.82765
 H981 H 0.19840 0.77009 0.86540
 H982 H 0.20202 0.79156 0.91609
 H983 H 0.27206 0.82545 0.89259
 H984 H 0.26855 0.80414 0.84223
 C985 C 0.27464 0.83604 0.10305
 C986 C 0.28915 0.85459 0.12505
 C987 C 0.29454 0.84278 0.15152
 C988 C 0.28489 0.81366 0.15320
 C989 C 0.29788 0.79964 0.12670
 C990 C 0.29249 0.81144 0.10027
 C991 C 0.24969 0.82623 0.11950
 C992 C 0.25504 0.81452 0.14574
 C993 C 0.26773 0.84827 0.07477
 C994 C 0.26042 0.85764 0.05174
 C995 C 0.28858 0.80043 0.18165
 C996 C 0.28633 0.78865 0.20466
 H997 H 0.29478 0.87509 0.12021
 H998 H 0.30482 0.85311 0.16937
 H999 H 0.31033 0.78216 0.12853
 H1000 H 0.30031 0.80405 0.07942
 H1001 H 0.22949 0.82834 0.11127
 H1002 H 0.23936 0.80660 0.15997
 C1003 C 0.77520 0.33471 0.60397
 C1004 C 0.79331 0.31029 0.60136
 C1005 C 0.79872 0.29861 0.62785
 C1006 C 0.78549 0.31257 0.65425
 C1007 C 0.75566 0.31311 0.64665
 C1008 C 0.75029 0.32469 0.62034
 C1009 C 0.78943 0.35347 0.62598
 C1010 C 0.79485 0.34178 0.65252
 C1011 C 0.76825 0.34681 0.57564
 C1012 C 0.76089 0.35612 0.55259
 C1013 C 0.78919 0.29948 0.68278
 C1014 C 0.78693 0.28780 0.70585
 H1015 H 0.80128 0.30292 0.58057
 H1016 H 0.81134 0.28127 0.62981
 H1017 H 0.74000 0.30506 0.66083
 H1018 H 0.73009 0.32656 0.61201
 H1019 H 0.79487 0.37400 0.62110
 H1020 H 0.80496 0.35226 0.67037
 C1021 C 0.24029 0.15975 0.58405
 C1022 C 0.22783 0.18753 0.58223
 C1023 C 0.22430 0.19941 0.60911
 C1024 C 0.23358 0.18231 0.63512
 C1025 C 0.26275 0.17572 0.62803
 C1026 C 0.26626 0.16391 0.60129
 C1027 C 0.22190 0.14380 0.60497
 C1028 C 0.21837 0.15570 0.63191
 C1029 C 0.24507 0.14731 0.55517
 C1030 C 0.25041 0.13764 0.53149
 C1031 C 0.23156 0.19543 0.66399
 C1032 C 0.23430 0.20669 0.68734
 H1033 H 0.22215 0.19698 0.56167
 H1034 H 0.21559 0.21901 0.61159
 H1035 H 0.27930 0.17994 0.64286
 H1036 H 0.28577 0.15803 0.59322
 H1037 H 0.21245 0.12493 0.59910
 H1038 H 0.20588 0.14708 0.64913
 C1039 C 0.74095 0.66045 0.08498
 C1040 C 0.72812 0.68806 0.08306
 C1041 C 0.72458 0.70003 0.10989
 C1042 C 0.73421 0.68319 0.13594
 C1043 C 0.76343 0.67693 0.12872
 C1044 C 0.76696 0.66503 0.10203
 C1045 C 0.72286 0.64439 0.10610
 C1046 C 0.71932 0.65638 0.13300
 C1047 C 0.74574 0.64791 0.05616
 C1048 C 0.75108 0.63816 0.03252
 C1049 C 0.73218 0.69640 0.16476
 C1050 C 0.73491 0.70773 0.18807
 H1051 H 0.72223 0.69733 0.06247
 H1052 H 0.71564 0.71953 0.11231
 H1053 H 0.78000 0.68143 0.14342
 H1054 H 0.78650 0.65935 0.09388
 H1055 H 0.71362 0.62538 0.10041
 H1056 H 0.70702 0.64769 0.15034
 C1057 C 0.20556 0.60221 0.24793
 C1058 C 0.22656 0.60566 0.22341
 C1059 C 0.23745 0.63073 0.22235
 C1060 C 0.22616 0.64964 0.24593
 C1061 C 0.23060 0.63553 0.27552
 C1062 C 0.21975 0.61056 0.27658
 C1063 C 0.18504 0.62409 0.24236
 C1064 C 0.19588 0.64903 0.24132
 C1065 C 0.19307 0.57584 0.24976
 C1066 C 0.18084 0.55530 0.25288
 C1067 C 0.23711 0.67668 0.24553
 C1068 C 0.24478 0.69940 0.24690
 H1069 H 0.23236 0.58987 0.20830
 H1070 H 0.25261 0.63648 0.20632
 H1071 H 0.24136 0.64436 0.29399
 H1072 H 0.22119 0.59796 0.29597
 H1073 H 0.16383 0.62032 0.23947
 H1074 H 0.18397 0.66665 0.23760
 C1075 C 0.70592 0.10157 0.74882
 C1076 C 0.73232 0.10300 0.73155
 C1077 C 0.74324 0.12806 0.73058
 C1078 C 0.72658 0.14898 0.74700
 C1079 C 0.72319 0.13816 0.77847
 C1080 C 0.71232 0.11322 0.77944
 C1081 C 0.68785 0.12213 0.73415
 C1082 C 0.69872 0.14708 0.73320
 C1083 C 0.69339 0.07521 0.75056
 C1084 C 0.68111 0.05469 0.75363
 C1085 C 0.73754 0.17600 0.74669
 C1086 C 0.74521 0.19872 0.74814
 H1087 H 0.74157 0.08592 0.72105
 H1088 H 0.76188 0.13253 0.71925
 H1089 H 0.72895 0.14908 0.79827
 H1090 H 0.70873 0.10276 0.80008
 H1091 H 0.66825 0.11748 0.72519
 H1092 H 0.68848 0.16384 0.72342
 C1093 C 0.78910 0.08924 0.26566
 C1094 C 0.76530 0.09651 0.28540
 C1095 C 0.75820 0.12265 0.28309
 C1096 C 0.77568 0.13863 0.26129
 C1097 C 0.77390 0.12327 0.23199
 C1098 C 0.78096 0.09728 0.23428
 C1099 C 0.81142 0.10899 0.27426
 C1100 C 0.80436 0.13496 0.27196
 C1101 C 0.79808 0.06173 0.26711
 C1102 C 0.80888 0.04052 0.26588
 C1103 C 0.76871 0.16659 0.25816
 C1104 C 0.76364 0.18964 0.25440
 H1105 H 0.75500 0.08249 0.29981
 H1106 H 0.74176 0.13108 0.29554
 H1107 H 0.76752 0.13200 0.21128
 H1108 H 0.78064 0.08369 0.21553
 H1109 H 0.83107 0.10306 0.28165
 H1110 H 0.81792 0.15131 0.27732
 C1111 C 0.28914 0.59016 0.76652
 C1112 C 0.28129 0.59809 0.73502
 C1113 C 0.27407 0.62402 0.73257
 C1114 C 0.27543 0.63945 0.76186
 C1115 C 0.30403 0.63599 0.77291
 C1116 C 0.31124 0.61007 0.77537
 C1117 C 0.26509 0.59730 0.78593
 C1118 C 0.25783 0.62338 0.78346
 C1119 C 0.29827 0.56271 0.76812
 C1120 C 0.30914 0.54153 0.76699
 C1121 C 0.26831 0.66734 0.75855
 C1122 C 0.26315 0.69034 0.75461
 H1123 H 0.28126 0.58447 0.71629
 H1124 H 0.26786 0.63267 0.71175
 H1125 H 0.31742 0.65245 0.77842
 H1126 H 0.33085 0.60430 0.78304
 H1127 H 0.25472 0.58324 0.80023
 H1128 H 0.24120 0.63172 0.79568
 C1129 C 0.30692 0.39388 0.73993
 C1130 C 0.29322 0.38334 0.76801
 C1131 C 0.28570 0.35724 0.76612
 C1132 C 0.29263 0.34424 0.73635
 C1133 C 0.32277 0.34881 0.73251
 C1134 C 0.33030 0.37496 0.73438
 C1135 C 0.28711 0.38805 0.71485
 C1136 C 0.27958 0.36189 0.71296
 C1137 C 0.31498 0.42192 0.74231
 C1138 C 0.32173 0.44489 0.74506
 C1139 C 0.28443 0.31623 0.73489
 C1140 C 0.27738 0.29326 0.73516
 H1141 H 0.28973 0.39533 0.78766
 H1142 H 0.27572 0.34686 0.78414
 H1143 H 0.33692 0.33294 0.72863
 H1144 H 0.35092 0.38152 0.73212
 H1145 H 0.27969 0.40310 0.69988
 H1146 H 0.26571 0.35450 0.69638
 C1147 C 0.80802 0.89496 0.23955
 C1148 C 0.83126 0.87586 0.23400
 C1149 C 0.82357 0.84975 0.23239
 C1150 C 0.79343 0.84537 0.23649
 C1151 C 0.78035 0.86294 0.21304
 C1152 C 0.78803 0.88906 0.21465
 C1153 C 0.79443 0.88469 0.26781
 C1154 C 0.78675 0.85862 0.26620
 C1155 C 0.81627 0.92297 0.24159
 C1156 C 0.82320 0.94593 0.24395
 C1157 C 0.78508 0.81739 0.23528
 C1158 C 0.77797 0.79443 0.23567
 H1159 H 0.85191 0.88229 0.23154
 H1160 H 0.83761 0.83376 0.22856
 H1161 H 0.76633 0.85551 0.19662
 H1162 H 0.78061 0.90406 0.19961
 H1163 H 0.79111 0.89684 0.28738
 H1164 H 0.77681 0.84841 0.28437
 C1165 C 0.68641 0.90808 0.76350
 C1166 C 0.66832 0.88669 0.77757
 C1167 C 0.67643 0.86130 0.77203
 C1168 C 0.70179 0.85990 0.75299
 C1169 C 0.72262 0.87696 0.76948
 C1170 C 0.71452 0.90233 0.77501
 C1171 C 0.68731 0.90098 0.73046
 C1172 C 0.69540 0.87563 0.72493
 C1173 C 0.67773 0.93540 0.76891
 C1174 C 0.67045 0.95802 0.77188
 C1175 C 0.71055 0.83275 0.74690
 C1176 C 0.71787 0.81047 0.74180
 H1177 H 0.65075 0.89108 0.79073
 H1178 H 0.66582 0.84391 0.78045
 H1179 H 0.74200 0.86973 0.77623
 H1180 H 0.72694 0.91687 0.78651
 H1181 H 0.68202 0.91467 0.71293
 H1182 H 0.69707 0.86758 0.70270
 C1183 C 0.18647 0.40868 0.26270
 C1184 C 0.16842 0.38727 0.27682
 C1185 C 0.17654 0.36189 0.27127
 C1186 C 0.20186 0.36051 0.25216
 C1187 C 0.22271 0.37758 0.26859
 C1188 C 0.21461 0.40295 0.27414
 C1189 C 0.18730 0.40157 0.22966
 C1190 C 0.19540 0.37623 0.22412
 C1191 C 0.17777 0.43599 0.26814
 C1192 C 0.17046 0.45860 0.27113
 C1193 C 0.21063 0.33336 0.24606
 C1194 C 0.21796 0.31108 0.24098
 H1195 H 0.15087 0.39165 0.29002
 H1196 H 0.16595 0.34449 0.27971
 H1197 H 0.24211 0.37037 0.27529
 H1198 H 0.22704 0.41751 0.28561
 H1199 H 0.18197 0.41525 0.21214
 H1200 H 0.19703 0.36817 0.20188
 C1201 C 0.10402 0.23242 0.80443
 C1202 C 0.12821 0.24444 0.82054
 C1203 C 0.15153 0.24208 0.80533
 C1204 C 0.14863 0.22790 0.77532
 C1205 C 0.12735 0.24378 0.75881
 C1206 C 0.10391 0.24615 0.77409
 C1207 C 0.11173 0.20339 0.79782
 C1208 C 0.13516 0.20102 0.78254
 C1209 C 0.07907 0.23526 0.82155
 C1210 C 0.05916 0.23787 0.83649
 C1211 C 0.17457 0.22602 0.75999
 C1212 C 0.19720 0.22625 0.75057
 H1213 H 0.12714 0.25402 0.84207
 H1214 H 0.17038 0.24966 0.81392
 H1215 H 0.13037 0.25231 0.73701
 H1216 H 0.08691 0.25673 0.76535
 H1217 H 0.09978 0.18623 0.80447
 H1218 H 0.14323 0.18186 0.77610
 C1219 C 0.60491 0.73301 0.30565
 C1220 C 0.60456 0.74660 0.27524
 C1221 C 0.62795 0.74435 0.25985
 C1222 C 0.64942 0.72871 0.27634
 C1223 C 0.63619 0.70177 0.28377
 C1224 C 0.61281 0.70402 0.29916
 C1225 C 0.62908 0.74529 0.32157
 C1226 C 0.65235 0.74304 0.30625
 C1227 C 0.58001 0.73574 0.32288
 C1228 C 0.56013 0.73825 0.33790
 C1229 C 0.67531 0.72695 0.26088
 C1230 C 0.69791 0.72726 0.25138
 H1231 H 0.58743 0.75702 0.26654
 H1232 H 0.63081 0.75281 0.23799
 H1233 H 0.64438 0.68264 0.27739
 H1234 H 0.60102 0.68680 0.30596
 H1235 H 0.62802 0.75495 0.34306
 H1236 H 0.67117 0.75080 0.31470
 C1237 C 0.59291 0.26640 0.18911
 C1238 C 0.59522 0.24666 0.21484
 C1239 C 0.62012 0.24590 0.22694
 C1240 C 0.64030 0.26495 0.21216
 C1241 C 0.62742 0.29257 0.21394
 C1242 C 0.60248 0.29333 0.20181
 C1243 C 0.61478 0.25824 0.16719
 C1244 C 0.63957 0.25749 0.17924
 C1245 C 0.56642 0.26673 0.17510
 C1246 C 0.54561 0.26623 0.16165
 C1247 C 0.66749 0.26345 0.22417
 C1248 C 0.69040 0.26075 0.23168
 H1249 H 0.57874 0.23445 0.22292
 H1250 H 0.62494 0.23304 0.24539
 H1251 H 0.63695 0.30991 0.22394
 H1252 H 0.59069 0.31135 0.20142
 H1253 H 0.61111 0.25348 0.14410
 H1254 H 0.65708 0.25209 0.16644
 C1255 C 0.09240 0.76635 0.68863
 C1256 C 0.11434 0.75841 0.66668
 C1257 C 0.13914 0.75782 0.67873
 C1258 C 0.13980 0.76522 0.71167
 C1259 C 0.11978 0.74598 0.72640
 C1260 C 0.09487 0.74657 0.71430
 C1261 C 0.10177 0.79332 0.70141
 C1262 C 0.12672 0.79273 0.71353
 C1263 C 0.06591 0.76651 0.67463
 C1264 C 0.04510 0.76587 0.66119
 C1265 C 0.16700 0.76388 0.72369
 C1266 C 0.18992 0.76126 0.73122
 H1267 H 0.11070 0.75368 0.64358
 H1268 H 0.15669 0.75260 0.66592
 H1269 H 0.12469 0.73311 0.74481
 H1270 H 0.07848 0.73422 0.72234
 H1271 H 0.08985 0.81125 0.70107
 H1272 H 0.13612 0.81012 0.72359
 C1273 C 0.89613 0.75209 0.67401
 C1274 C 0.89099 0.77080 0.70033
 C1275 C 0.86576 0.76880 0.71161
 C1276 C 0.84801 0.74827 0.69554
 C1277 C 0.86356 0.72209 0.69677
 C1278 C 0.88883 0.72409 0.68547
 C1279 C 0.87423 0.75860 0.65161
 C1280 C 0.84903 0.75660 0.66289
 C1281 C 0.92341 0.75456 0.66173
 C1282 C 0.94581 0.75696 0.65186
 C1283 C 0.82050 0.74668 0.70726
 C1284 C 0.79748 0.74677 0.71544
 H1285 H 0.90589 0.78442 0.70936
 H1286 H 0.85912 0.78069 0.73029
 H1287 H 0.85547 0.70364 0.70577
 H1288 H 0.90233 0.70733 0.68479
 H1289 H 0.87817 0.76426 0.62885
 H1290 H 0.83144 0.76056 0.64973
 C1291 C 0.39655 0.25272 0.17416
 C1292 C 0.39123 0.27163 0.20027
 C1293 C 0.36597 0.26963 0.21145
 C1294 C 0.34835 0.24890 0.19550
 C1295 C 0.36399 0.22279 0.19707
 C1296 C 0.38929 0.22480 0.18587
 C1297 C 0.37471 0.25897 0.15159
 C1298 C 0.34947 0.25697 0.16277
 C1299 C 0.42387 0.25519 0.16197
 C1300 C 0.44629 0.25757 0.15217
 C1301 C 0.32080 0.24731 0.20710
 C1302 C 0.29775 0.24740 0.21517
 H1303 H 0.40605 0.28537 0.20924
 H1304 H 0.35922 0.28165 0.22997
 H1305 H 0.35593 0.20440 0.20622
 H1306 H 0.40286 0.20808 0.18543
 H1307 H 0.37872 0.26446 0.12879
 H1308 H 0.33192 0.26076 0.14948
 C1309 C 0.41496 0.76168 0.31944
 C1310 C 0.41485 0.75348 0.28666
 C1311 C 0.39079 0.75664 0.27313
 C1312 C 0.36910 0.76771 0.29364
 C1313 C 0.38097 0.79377 0.30616
 C1314 C 0.40507 0.79060 0.31971
 C1315 C 0.39226 0.74534 0.33353
 C1316 C 0.36826 0.74849 0.32004
 C1317 C 0.44095 0.75778 0.33402
 C1318 C 0.46242 0.75394 0.34536
 C1319 C 0.34270 0.77019 0.27963
 C1320 C 0.32016 0.76988 0.27012
 H1321 H 0.43220 0.74591 0.27505
 H1322 H 0.38758 0.75180 0.24999
 H1323 H 0.37134 0.81298 0.30447
 H1324 H 0.41604 0.80712 0.32963
 H1325 H 0.39479 0.73242 0.35251
 H1326 H 0.35027 0.73824 0.32752
 C1327 C 0.91562 0.26102 0.82044
 C1328 C 0.90570 0.28993 0.82069
 C1329 C 0.88155 0.29306 0.80724
 C1330 C 0.86966 0.26698 0.79481
 C1331 C 0.86892 0.24779 0.82124
 C1332 C 0.89297 0.24468 0.83464
 C1333 C 0.91540 0.25278 0.78766
 C1334 C 0.89130 0.25590 0.77423
 C1335 C 0.94166 0.25715 0.83491
 C1336 C 0.96318 0.25334 0.84617
 C1337 C 0.84321 0.26943 0.78088
 C1338 C 0.82065 0.26911 0.77141
 H1339 H 0.91669 0.30648 0.83054
 H1340 H 0.87190 0.31226 0.80556
 H1341 H 0.85096 0.23754 0.82881
 H1342 H 0.89557 0.23179 0.85363
 H1343 H 0.93272 0.24521 0.77600
 H1344 H 0.88801 0.25102 0.75111
 C1345 C 0.58572 0.97268 0.67009
 C1346 C 0.57406 0.99681 0.65434
 C1347 C 0.56012 0.99039 0.62969
 C1348 C 0.55905 0.96037 0.62294
 C1349 C 0.54766 0.94753 0.65112
 C1350 C 0.56175 0.95401 0.67603
 C1351 C 0.60240 0.95833 0.64643
 C1352 C 0.58834 0.95186 0.62156
 C1353 C 0.60084 0.98108 0.69623
 C1354 C 0.61354 0.99023 0.71648
 C1355 C 0.54381 0.95584 0.59583
 C1356 C 0.53123 0.95813 0.57341
 H1357 H 0.57650 1.01727 0.66192
 H1358 H 0.55064 1.00543 0.61618
 H1359 H 0.53027 0.93442 0.65147
 H1360 H 0.55643 0.94648 0.69775
 H1361 H 0.62332 0.95352 0.64907
 H1362 H 0.59716 0.94149 0.60290
 C1363 C 0.08593 0.47276 1.16931
 C1364 C 0.07389 0.49676 1.15367
 C1365 C 0.06005 0.49022 1.12898
 C1366 C 0.05945 0.46022 1.12209
 C1367 C 0.04825 0.44709 1.15021
 C1368 C 0.06225 0.45370 1.17515
 C1369 C 0.10283 0.45876 1.14558
 C1370 C 0.08887 0.45216 1.12068
 C1371 C 0.10093 0.48129 1.19547
 C1372 C 0.11354 0.49055 1.21574
 C1373 C 0.04429 0.45556 1.09494
 C1374 C 0.03175 0.45778 1.07248
 H1375 H 0.07601 0.51723 1.16134
 H1376 H 0.05033 0.50515 1.11554
 H1377 H 0.03107 0.43372 1.15050
 H1378 H 0.05704 0.44601 1.19684
 H1379 H 0.12382 0.45426 1.14819
 H1380 H 0.09786 0.44200 1.10198
 C1381 C -0.08928 0.01318 1.15813
 C1382 C -0.10578 0.02587 1.13338
 C1383 C -0.09172 0.03023 1.10798
 C1384 C -0.06258 0.02150 1.10991
 C1385 C -0.06395 -0.00794 1.11923
 C1386 C -0.07798 -0.01230 1.14455
 C1387 C -0.06510 0.03196 1.16221
 C1388 C -0.05102 0.03634 1.13678
 C1389 C -0.10468 0.00838 1.18515
 C1390 C -0.11844 0.00526 1.20673
 C1391 C -0.04732 0.02468 1.08254
 C1392 C -0.03437 0.02294 1.06023
 H1393 H -0.12667 0.03102 1.13565
 H1394 H -0.10048 0.03915 1.08851
 H1395 H -0.05467 -0.02403 1.10694
 H1396 H -0.08071 -0.03203 1.15397
 H1397 H -0.05957 0.04102 1.18318
 H1398 H -0.03344 0.04917 1.13591
 C1399 C 0.41082 0.51364 0.65912
 C1400 C 0.42209 0.48812 0.64558
 C1401 C 0.43633 0.49246 0.62040
 C1402 C 0.43794 0.52192 0.61118
 C1403 C 0.44936 0.53664 0.63819
 C1404 C 0.43505 0.53228 0.66348
 C1405 C 0.39457 0.52646 0.63424
 C1406 C 0.40886 0.53081 0.60899
 C1407 C 0.39520 0.50885 0.68599
 C1408 C 0.38133 0.50576 0.70749
 C1409 C 0.45343 0.52507 0.58397
 C1410 C 0.46657 0.52331 0.56180
 H1411 H 0.41917 0.46838 0.65492
 H1412 H 0.44562 0.47636 0.60816
 H1413 H 0.46701 0.54938 0.63752
 H1414 H 0.44047 0.54127 0.68452
 H1415 H 0.37369 0.53172 0.63633
 H1416 H 0.40030 0.53982 0.58946
 C1417 C 0.41380 0.47758 -0.14929
 C1418 C 0.44309 0.47341 -0.15803
 C1419 C 0.45998 0.47280 -0.13447
 C1420 C 0.44586 0.47642 -0.10457
 C1421 C 0.42417 0.45455 -0.10361
 C1422 C 0.40724 0.45516 -0.12723
 C1423 C 0.41383 0.50323 -0.13078
 C1424 C 0.43061 0.50261 -0.10737
 C1425 C 0.39552 0.47971 -0.17430
 C1426 C 0.38008 0.48415 -0.19394
 C1427 C 0.46380 0.47766 -0.07920
 C1428 C 0.47778 0.48290 -0.05839
 H1429 H 0.44992 0.47099 -0.18068
 H1430 H 0.48130 0.46985 -0.13689
 H1431 H 0.42226 0.43998 -0.08601
 H1432 H 0.39081 0.44107 -0.12991
 H1433 H 0.40160 0.52041 -0.13558
 H1434 H 0.43270 0.51928 -0.09209
 C1435 C -0.08674 0.97619 0.34961
 C1436 C -0.05753 0.97152 0.34088
 C1437 C -0.04060 0.97101 0.36443
 C1438 C -0.05462 0.97522 0.39429
 C1439 C -0.07660 0.95365 0.39565
 C1440 C -0.09355 0.95416 0.37205
 C1441 C -0.08633 1.00209 0.36768
 C1442 C -0.06953 1.00157 0.39108
 C1443 C -0.10505 0.97822 0.32461
 C1444 C -0.12052 0.98264 0.30498
 C1445 C -0.03664 0.97655 0.41963
 C1446 C -0.02260 0.98181 0.44039
 H1447 H -0.05077 0.96870 0.31827
 H1448 H -0.01933 0.96774 0.36202
 H1449 H -0.07866 0.93933 0.41349
 H1450 H -0.11016 0.94024 0.36963
 H1451 H -0.09834 1.01936 0.36261
 H1452 H -0.06719 1.01842 0.40606
 C1453 C 0.07540 0.52578 0.35908
 C1454 C 0.04854 0.53838 0.35118
 C1455 C 0.03220 0.54211 0.37501
 C1456 C 0.04442 0.53290 0.40424
 C1457 C 0.07115 0.54793 0.40671
 C1458 C 0.08746 0.54419 0.38292
 C1459 C 0.06818 0.49991 0.37521
 C1460 C 0.05193 0.50364 0.39892
 C1461 C 0.09317 0.52153 0.33381
 C1462 C 0.10853 0.51857 0.31359
 C1463 C 0.02711 0.53537 0.43014
 C1464 C 0.01361 0.53308 0.45200
 H1465 H 0.04289 0.54389 0.32889
 H1466 H 0.01257 0.55086 0.37318
 H1467 H 0.07672 0.56044 0.42539
 H1468 H 0.10708 0.55348 0.38124
 H1469 H 0.07520 0.48036 0.36862
 H1470 H 0.04504 0.48721 0.41267
 C1471 C 0.57570 0.02560 -0.14014
 C1472 C 0.54882 0.03816 -0.14801
 C1473 C 0.53256 0.04202 -0.12415
 C1474 C 0.54487 0.03294 -0.09490
 C1475 C 0.57160 0.04797 -0.09262
 C1476 C 0.58784 0.04411 -0.11645
 C1477 C 0.56852 -0.00020 -0.12383
 C1478 C 0.55235 0.00365 -0.10008
 C1479 C 0.59340 0.02123 -0.16544
 C1480 C 0.60872 0.01818 -0.18568
 C1481 C 0.52763 0.03552 -0.06896
 C1482 C 0.51418 0.03332 -0.04705
 H1483 H 0.54310 0.04357 -0.17031
 H1484 H 0.51292 0.05076 -0.12595
 H1485 H 0.57723 0.06057 -0.07403
 H1486 H 0.60746 0.05340 -0.11826
 H1487 H 0.57552 -0.01978 -0.13034
 H1488 H 0.54549 -0.01272 -0.08621
 C1489 C 0.66765 0.55805 -0.02124
 C1490 C 0.66226 0.53352 -0.04082
 C1491 C 0.63636 0.52491 -0.04009
 C1492 C 0.61850 0.54173 -0.01986
 C1493 C 0.62186 0.57043 -0.03092
 C1494 C 0.64770 0.57901 -0.03165
 C1495 C 0.65807 0.55001 0.00975
 C1496 C 0.63218 0.54140 0.01048
 C1497 C 0.69522 0.56791 -0.02230
 C1498 C 0.71724 0.57758 -0.02398
 C1499 C 0.59065 0.53287 -0.01887
 C1500 C 0.56759 0.52620 -0.01714
 H1501 H 0.67743 0.52375 -0.05403
 H1502 H 0.62930 0.50777 -0.05268
 H1503 H 0.60540 0.58293 -0.03758
 H1504 H 0.65338 0.59890 -0.03896
 H1505 H 0.67050 0.55092 0.02935
 H1506 H 0.62240 0.53492 0.03072
 C1507 C 0.16746 1.05718 0.47713
 C1508 C 0.16224 1.03260 0.45756
 C1509 C 0.13639 1.02384 0.45825
 C1510 C 0.11840 1.04056 0.47844
 C1511 C 0.12160 1.06927 0.46736
 C1512 C 0.14739 1.07801 0.46666
 C1513 C 0.15787 1.04909 0.50811
 C1514 C 0.13204 1.04034 0.50880
 C1515 C 0.19496 1.06721 0.47614
 C1516 C 0.21693 1.07702 0.47457
 C1517 C 0.09059 1.03156 0.47941
 C1518 C 0.06756 1.02483 0.48118
 H1519 H 0.17750 1.02292 0.44439
 H1520 H 0.12945 1.00665 0.44567
 H1521 H 0.10507 1.08166 0.46065
 H1522 H 0.15296 1.09792 0.45935
 H1523 H 0.17027 1.05009 0.52773
 H1524 H 0.12227 1.03381 0.52903
 C1525 C 0.15058 -0.05939 1.02658
 C1526 C 0.12785 -0.07584 1.04054
 C1527 C 0.10391 -0.06335 1.04015
 C1528 C 0.10508 -0.03567 1.02583
 C1529 C 0.11692 -0.04024 0.99500
 C1530 C 0.14081 -0.05268 0.99538
 C1531 C 0.15079 -0.03271 1.04337
 C1532 C 0.12671 -0.02016 1.04298
 C1533 C 0.17581 -0.07362 1.02542
 C1534 C 0.19513 -0.08696 1.02073
 C1535 C 0.07902 -0.02315 1.02433
 C1536 C 0.05690 -0.01473 1.02121
 H1537 H 0.13038 -0.09549 1.05006
 H1538 H 0.08587 -0.07229 1.04934
 H1539 H 0.10741 -0.03414 0.97460
 H1540 H 0.15177 -0.05725 0.97528
 H1541 H 0.16817 -0.02448 1.05457
 H1542 H 0.12341 -0.00114 1.05383
 C1543 C 0.65117 0.43946 0.52826
 C1544 C 0.62823 0.42311 0.54196
 C1545 C 0.60445 0.43591 0.54180
 C1546 C 0.60598 0.46378 0.52797
 C1547 C 0.61775 0.45949 0.49705
 C1548 C 0.64147 0.44673 0.49720
 C1549 C 0.65172 0.46590 0.54551
 C1550 C 0.62781 0.47877 0.54536
 C1551 C 0.67620 0.42492 0.52686
 C1552 C 0.69537 0.41140 0.52202
 C1553 C 0.58009 0.47665 0.52668
 C1554 C 0.55805 0.48529 0.52361
 H1555 H 0.63050 0.40329 0.55113
 H1556 H 0.58631 0.42709 0.55085
 H1557 H 0.60832 0.46600 0.47677
 H1558 H 0.65237 0.44230 0.47700
 H1559 H 0.66921 0.47374 0.55683
 H1560 H 0.62477 0.49768 0.55654
 C1561 C -0.16903 0.44613 0.49862
 C1562 C -0.14720 0.42873 0.48493
 C1563 C -0.12267 0.44057 0.48473
 C1564 C -0.12239 0.46865 0.49821
 C1565 C -0.13422 0.46529 0.52935
 C1566 C -0.15880 0.45342 0.52957
 C1567 C -0.16799 0.47228 0.48106
 C1568 C -0.14337 0.48417 0.48085
 C1569 C -0.19502 0.43271 0.49859
 C1570 C -0.21549 0.42005 0.49781
 C1571 C -0.09584 0.48080 0.49819
 C1572 C -0.07354 0.48972 0.49908
 H1573 H -0.15071 0.40882 0.47615
 H1574 H -0.10515 0.43086 0.47575
 H1575 H -0.12420 0.47175 0.54944
 H1576 H -0.16989 0.44967 0.54982
 H1577 H -0.18504 0.48071 0.46987
 H1578 H -0.13928 0.50280 0.46947
 C1579 C 0.33135 -0.05294 -0.00126
 C1580 C 0.35319 -0.07057 -0.01456
 C1581 C 0.37781 -0.05892 -0.01449
 C1582 C 0.37816 -0.03079 -0.00113
 C1583 C 0.36597 -0.03394 0.02987
 C1584 C 0.34130 -0.04561 0.02980
 C1585 C 0.33280 -0.02687 -0.01892
 C1586 C 0.35751 -0.01518 -0.01885
 C1587 C 0.30526 -0.06614 -0.00159
 C1588 C 0.28468 -0.07862 -0.00263
 C1589 C 0.40480 -0.01883 -0.00088
 C1590 C 0.42713 -0.00999 0.00014
 H1591 H 0.34962 -0.09048 -0.02330
 H1592 H 0.39535 -0.06881 -0.02317
 H1593 H 0.37582 -0.02749 0.05006
 H1594 H 0.32996 -0.04921 0.04992
 H1595 H 0.31594 -0.01834 -0.03039
 H1596 H 0.36188 0.00338 -0.03026
 C1597 C 0.35311 1.05179 0.51421
 C1598 C 0.35006 1.02917 0.53684
 C1599 C 0.37354 1.01680 0.54309
 C1600 C 0.39754 1.02839 0.52604
 C1601 C 0.39788 1.05828 0.53335
 C1602 C 0.37451 1.07059 0.52714
 C1603 C 0.36632 1.03894 0.48713
 C1604 C 0.38962 1.02665 0.49335
 C1605 C 0.32853 1.06552 0.50643
 C1606 C 0.30968 1.07786 0.49777
 C1607 C 0.42311 1.01563 0.53135
 C1608 C 0.44501 1.00619 0.53241
 H1609 H 0.33123 1.02343 0.54704
 H1610 H 0.37486 1.00045 0.55866
 H1611 H 0.41493 1.06882 0.54270
 H1612 H 0.37153 1.09171 0.53116
 H1613 H 0.35806 1.03940 0.46497
 H1614 H 0.40129 1.01652 0.47653
 C1615 C -0.14641 0.55176 1.01459
 C1616 C -0.13318 0.53945 0.98722
 C1617 C -0.10985 0.52708 0.99313
 C1618 C -0.10194 0.52822 1.02585
 C1619 C -0.12591 0.51627 1.04263
 C1620 C -0.14941 0.52871 1.03669
 C1621 C -0.12505 0.57035 1.02794
 C1622 C -0.10165 0.55797 1.03385
 C1623 C -0.17102 0.56557 1.00711
 C1624 C -0.18989 0.57799 0.99864
 C1625 C -0.07634 0.51539 1.03084
 C1626 C -0.05445 0.50591 1.03171
 H1627 H -0.14146 0.54030 0.96508
 H1628 H -0.09818 0.51729 0.97607
 H1629 H -0.12455 0.49962 1.05781
 H1630 H -0.16823 0.52274 1.04676
 H1631 H -0.12807 0.59138 1.03247
 H1632 H -0.08461 0.56835 1.04345
 C1633 C -0.00542 0.66825 0.55661
 C1634 C 0.02247 0.65591 0.55462
 C1635 C 0.02263 0.63106 0.54229
 C1636 C -0.00511 0.62087 0.53309
 C1637 C -0.01597 0.64244 0.51243
 C1638 C -0.01612 0.66738 0.52481
 C1639 C -0.02239 0.64770 0.57353
 C1640 C -0.02222 0.62290 0.56122
 C1641 C -0.00523 0.69473 0.57092
 C1642 C -0.00374 0.71550 0.58452
 C1643 C -0.00522 0.59358 0.52091
 C1644 C -0.00639 0.57039 0.51360
 H1645 H 0.04057 0.66589 0.56216
 H1646 H 0.04082 0.61980 0.53927
 H1647 H -0.02286 0.63850 0.49009
 H1648 H -0.02317 0.68476 0.51307
 H1649 H -0.03364 0.65225 0.59343
 H1650 H -0.03335 0.60625 0.57064
 C1651 C 0.49501 0.16881 0.05708
 C1652 C 0.48434 0.16784 0.02526
 C1653 C 0.48451 0.14286 0.01297
 C1654 C 0.49535 0.12135 0.03372
 C1655 C 0.47821 0.12347 0.06182
 C1656 C 0.47803 0.14830 0.07404
 C1657 C 0.52291 0.15646 0.05517
 C1658 C 0.52308 0.13158 0.04293
 C1659 C 0.49519 0.19532 0.07130
 C1660 C 0.49670 0.21612 0.08486
 C1661 C 0.49527 0.09402 0.02164
 C1662 C 0.49414 0.07081 0.01441
 H1663 H 0.47730 0.18518 0.01345
 H1664 H 0.47764 0.13885 -0.00935
 H1665 H 0.46707 0.10684 0.07129
 H1666 H 0.46675 0.15291 0.09392
 H1667 H 0.54099 0.16647 0.06270
 H1668 H 0.54127 0.12032 0.03997
 C1669 C -0.00890 0.15348 0.94437
 C1670 C -0.00138 0.15557 0.97724
 C1671 C -0.00364 0.13197 0.99215
 C1672 C -0.01322 0.10855 0.97278
 C1673 C 0.00654 0.10787 0.94680
 C1674 C 0.00880 0.13131 0.93198
 C1675 C -0.03729 0.14151 0.94423
 C1676 C -0.03956 0.11790 0.95916
 C1677 C -0.00547 0.17849 0.92747
 C1678 C -0.00063 0.19781 0.91225
 C1679 C -0.01463 0.08246 0.98782
 C1680 C -0.01350 0.05998 0.99738
 H1681 H 0.00503 0.17398 0.98789
 H1682 H 0.00083 0.13022 1.01553
 H1683 H 0.01785 0.09037 0.94054
 H1684 H 0.02201 0.13381 0.91309
 H1685 H -0.05413 0.15079 0.93349
 H1686 H -0.05833 0.10701 0.96117
 C1687 C 0.49243 0.65364 0.44582
 C1688 C 0.49995 0.65584 0.47869
 C1689 C 0.49775 0.63228 0.49368
 C1690 C 0.48824 0.60878 0.47438
 C1691 C 0.50801 0.60808 0.44841
 C1692 C 0.51020 0.63149 0.43351
 C1693 C 0.46408 0.64159 0.44573
 C1694 C 0.46188 0.61802 0.46073
 C1695 C 0.49579 0.67862 0.42885
 C1696 C 0.50052 0.69793 0.41359
 C1697 C 0.48689 0.58273 0.48951
 C1698 C 0.48801 0.56027 0.49914
 H1699 H 0.50632 0.67429 0.48928
 H1700 H 0.50223 0.63060 0.51706
 H1701 H 0.51936 0.59060 0.44221
 H1702 H 0.52341 0.63398 0.41462
 H1703 H 0.44722 0.65080 0.43495
 H1704 H 0.44314 0.60709 0.46277
 C1705 C 0.51252 0.83418 0.45043
 C1706 C 0.49921 0.85731 0.43426
 C1707 C 0.49876 0.88042 0.45013
 C1708 C 0.51167 0.87838 0.48079
 C1709 C 0.53990 0.86811 0.47473
 C1710 C 0.54036 0.84493 0.45882
 C1711 C 0.49740 0.83184 0.47996
 C1712 C 0.49695 0.85506 0.49590
 C1713 C 0.51313 0.80947 0.43254
 C1714 C 0.51424 0.78995 0.41674
 C1715 C 0.51093 0.90399 0.49698
 C1716 C 0.50959 0.92612 0.50763
 H1717 H 0.49080 0.85567 0.41222
 H1718 H 0.48997 0.89852 0.44161
 H1719 H 0.55795 0.87808 0.48240
 H1720 H 0.55882 0.83513 0.45286
 H1721 H 0.48793 0.81356 0.48768
 H1722 H 0.48711 0.85662 0.51725
 C1723 C 0.01211 0.33388 0.94929
 C1724 C -0.00162 0.35696 0.93348
 C1725 C -0.00187 0.38005 0.94941
 C1726 C 0.01164 0.37803 0.97975
 C1727 C 0.03980 0.36789 0.97301
 C1728 C 0.04005 0.34474 0.95704
 C1729 C -0.00243 0.33142 0.97916
 C1730 C -0.00268 0.35462 0.99516
 C1731 C 0.01252 0.30919 0.93133
 C1732 C 0.01349 0.28970 0.91546
 C1733 C 0.01112 0.40362 0.99600
 C1734 C 0.00991 0.42574 1.00669
 H1735 H -0.01044 0.35531 0.91165
 H1736 H -0.01091 0.39812 0.94114
 H1737 H 0.05795 0.37794 0.98026
 H1738 H 0.05845 0.33503 0.95063
 H1739 H -0.01167 0.31309 0.98706
 H1740 H -0.01212 0.35610 1.01673
 C1741 C 0.48902 0.35587 0.05490
 C1742 C 0.50871 0.35706 0.02880
 C1743 C 0.50964 0.38120 0.01497
 C1744 C 0.49081 0.40188 0.02852
 C1745 C 0.49836 0.40313 0.06134
 C1746 C 0.49743 0.37909 0.07513
 C1747 C 0.46211 0.36427 0.04187
 C1748 C 0.46305 0.38848 0.02798
 C1749 C 0.48906 0.33018 0.07074
 C1750 C 0.49139 0.31021 0.08543
 C1751 C 0.49266 0.42839 0.01458
 C1752 C 0.49572 0.45089 0.00554
 H1753 H 0.52075 0.34035 0.02170
 H1754 H 0.52248 0.38512 -0.00394
 H1755 H 0.50392 0.42141 0.07284
 H1756 H 0.50219 0.37685 0.09839
 H1757 H 0.44399 0.35226 0.04331
 H1758 H 0.44574 0.39716 0.01754
 C1759 C -0.01149 0.85495 0.55400
 C1760 C -0.00255 0.87816 0.57396
 C1761 C -0.00155 0.90213 0.56005
 C1762 C -0.00958 0.90083 0.52737
 C1763 C -0.03749 0.88774 0.52738
 C1764 C -0.03850 0.86359 0.54139
 C1765 C 0.00783 0.85582 0.52756
 C1766 C 0.00883 0.87989 0.51360
 C1767 C -0.01152 0.82934 0.56999
 C1768 C -0.00921 0.80945 0.58481
 C1769 C -0.00764 0.92727 0.51331
 C1770 C -0.00451 0.94974 0.50420
 H1771 H 0.00252 0.87596 0.59715
 H1772 H 0.00437 0.92039 0.57136
 H1773 H -0.05485 0.89657 0.51719
 H1774 H -0.05672 0.85178 0.54321
 H1775 H 0.01959 0.83895 0.52033
 H1776 H 0.02145 0.88360 0.49445
 C1777 C 0.22286 0.33582 0.07984
 C1778 C 0.20891 0.35273 0.10358
 C1779 C 0.20240 0.33882 0.12852
 C1780 C 0.21047 0.30943 0.12714
 C1781 C 0.24047 0.31003 0.12014
 C1782 C 0.24694 0.32383 0.09542
 C1783 C 0.20379 0.31213 0.07409
 C1784 C 0.19726 0.29818 0.09907
 C1785 C 0.23131 0.35078 0.05363
 C1786 C 0.24052 0.36337 0.03333
 C1787 C 0.20590 0.29433 0.15432
 C1788 C 0.20818 0.28186 0.17681
 H1789 H 0.20439 0.37371 0.10095
 H1790 H 0.19228 0.34783 0.14725
 H1791 H 0.25546 0.30035 0.13355
 H1792 H 0.26739 0.32595 0.08767
 H1793 H 0.19603 0.30688 0.05244
 H1794 H 0.18388 0.28100 0.09887
 C1795 C 0.72231 0.83569 0.58098
 C1796 C 0.74643 0.82394 0.59670
 C1797 C 0.73999 0.81004 0.62136
 C1798 C 0.70995 0.80910 0.62816
 C1799 C 0.69702 0.79776 0.59999
 C1800 C 0.70353 0.81181 0.57507
 C1801 C 0.70805 0.85242 0.60466
 C1802 C 0.70155 0.83840 0.62954
 C1803 C 0.73075 0.85076 0.55485
 C1804 C 0.73995 0.86341 0.53459
 C1805 C 0.70542 0.79389 0.65527
 C1806 C 0.70775 0.78134 0.67769
 H1807 H 0.76691 0.82630 0.58910
 H1808 H 0.75501 0.80052 0.63485
 H1809 H 0.68383 0.78044 0.59966
 H1810 H 0.69594 0.80651 0.55336
 H1811 H 0.70332 0.87335 0.60204
 H1812 H 0.69124 0.84727 0.64822
 C1813 C 0.26396 0.66100 0.59154
 C1814 C 0.23844 0.67233 0.60503
 C1815 C 0.24277 0.68643 0.63030
 C1816 C 0.27222 0.68786 0.63967
 C1817 C 0.28709 0.69932 0.61279
 C1818 C 0.28275 0.68516 0.58741
 C1819 C 0.27663 0.64460 0.61638
 C1820 C 0.28097 0.65875 0.64173
 C1821 C 0.25920 0.64553 0.56455
 C1822 C 0.25615 0.63178 0.54295
 C1823 C 0.27536 0.70321 0.66698
 C1824 C 0.27358 0.71626 0.68922
 H1825 H 0.21871 0.66956 0.59558
 H1826 H 0.22665 0.69575 0.64253
 H1827 H 0.29993 0.71690 0.61362
 H1828 H 0.29185 0.69062 0.56643
 H1829 H 0.28180 0.62372 0.61420
 H1830 H 0.28988 0.65006 0.66126
 C1831 C 0.76385 0.16095 0.09147
 C1832 C 0.73844 0.17246 0.10504
 C1833 C 0.74293 0.18652 0.13031
 C1834 C 0.77241 0.18774 0.13959
 C1835 C 0.78730 0.19910 0.11267
 C1836 C 0.78280 0.18497 0.08729
 C1837 C 0.77646 0.14445 0.11627
 C1838 C 0.78095 0.15856 0.14162
 C1839 C 0.75889 0.14549 0.06452
 C1840 C 0.75563 0.13170 0.04300
 C1841 C 0.77570 0.20303 0.16692
 C1842 C 0.77401 0.21600 0.18922
 H1843 H 0.71867 0.16983 0.09565
 H1844 H 0.72691 0.19596 0.14258
 H1845 H 0.80026 0.21658 0.11347
 H1846 H 0.79188 0.19037 0.06629
 H1847 H 0.78147 0.12353 0.11407
 H1848 H 0.78984 0.14980 0.16111
 C1849 C 0.72657 0.16343 0.90029
 C1850 C 0.70446 0.15678 0.87785
 C1851 C 0.70406 0.17375 0.85427
 C1852 C 0.72580 0.19555 0.85565
 C1853 C 0.75206 0.18047 0.85883
 C1854 C 0.75247 0.16366 0.88221
 C1855 C 0.72210 0.19265 0.90905
 C1856 C 0.72171 0.20958 0.88552
 C1857 C 0.72847 0.14509 0.92527
 C1858 C 0.73278 0.12959 0.94488
 C1859 C 0.72722 0.21353 0.83032
 C1860 C 0.73252 0.22752 0.80954
 H1861 H 0.69042 0.14028 0.88026
 H1862 H 0.68971 0.17180 0.83644
 H1863 H 0.76892 0.18270 0.84384
 H1864 H 0.76967 0.15153 0.88725
 H1865 H 0.71934 0.19941 0.93167
 H1866 H 0.71859 0.23086 0.88796
 C1867 C 0.22784 0.66434 0.39946
 C1868 C 0.25542 0.67176 0.38711
 C1869 C 0.25460 0.68848 0.36367
 C1870 C 0.22626 0.69629 0.35470
 C1871 C 0.21373 0.70795 0.38287
 C1872 C 0.21455 0.69109 0.40649
 C1873 C 0.21232 0.65288 0.37296
 C1874 C 0.21149 0.66973 0.34935
 C1875 C 0.23017 0.64612 0.42449
 C1876 C 0.23472 0.63075 0.44416
 C1877 C 0.22724 0.71417 0.32927
 C1878 C 0.23226 0.72813 0.30840
 H1879 H 0.27407 0.66448 0.39600
 H1880 H 0.27256 0.69549 0.35249
 H1881 H 0.20487 0.72758 0.38410
 H1882 H 0.20642 0.69626 0.42801
 H1883 H 0.20276 0.63334 0.37280
 H1884 H 0.20120 0.66467 0.32896
 C1885 C 0.77543 0.82567 0.39106
 C1886 C 0.78820 0.79888 0.39880
 C1887 C 0.79209 0.78271 0.37488
 C1888 C 0.78283 0.79501 0.34570
 C1889 C 0.79769 0.82182 0.34344
 C1890 C 0.79380 0.83798 0.36733
 C1891 C 0.74961 0.81837 0.37481
 C1892 C 0.75349 0.80228 0.35100
 C1893 C 0.77103 0.84328 0.41642
 C1894 C 0.76798 0.85853 0.43672
 C1895 C 0.78546 0.77786 0.31970
 C1896 C 0.78327 0.76444 0.29777
 H1897 H 0.79372 0.79316 0.42106
 H1898 H 0.80097 0.76314 0.37659
 H1899 H 0.81021 0.82757 0.32483
 H1900 H 0.80298 0.85763 0.36917
 H1901 H 0.72999 0.82521 0.38141
 H1902 H 0.73711 0.79535 0.33717
 C1903 C 0.27557 0.32516 0.89002
 C1904 C 0.29409 0.33707 0.86620
 C1905 C 0.29775 0.32072 0.84242
 C1906 C 0.28253 0.29412 0.84489
 C1907 C 0.25329 0.30182 0.85015
 C1908 C 0.24965 0.31811 0.87384
 C1909 C 0.28798 0.29824 0.89796
 C1910 C 0.29163 0.28187 0.87415
 C1911 C 0.27140 0.34297 0.91527
 C1912 C 0.26847 0.35834 0.93547
 C1913 C 0.28491 0.27677 0.81902
 C1914 C 0.28260 0.26325 0.79717
 H1915 H 0.30353 0.35662 0.86788
 H1916 H 0.31033 0.32618 0.82376
 H1917 H 0.23683 0.29503 0.83637
 H1918 H 0.23013 0.32526 0.88039
 H1919 H 0.29343 0.29258 0.92026
 H1920 H 0.30025 0.26219 0.87600
 C1921 C 0.80746 0.41743 0.77171
 C1922 C 0.78292 0.41220 0.79136
 C1923 C 0.77425 0.38633 0.79079
 C1924 C 0.79100 0.36835 0.77064
 C1925 C 0.81974 0.37169 0.78163
 C1926 C 0.82840 0.39749 0.78221
 C1927 C 0.79933 0.40772 0.74078
 C1928 C 0.79066 0.38187 0.74022
 C1929 C 0.81741 0.44495 0.77260
 C1930 C 0.82717 0.46693 0.77417
 C1931 C 0.78208 0.34052 0.76981
 C1932 C 0.77540 0.31748 0.76818
 H1933 H 0.77320 0.42746 0.80449
 H1934 H 0.75710 0.37938 0.80344
 H1935 H 0.83222 0.35524 0.78838
 H1936 H 0.84832 0.40315 0.78945
 H1937 H 0.80025 0.42004 0.72111
 H1938 H 0.78412 0.37201 0.72004
 C1939 C 0.30711 0.91805 0.27151
 C1940 C 0.29930 0.90849 0.24042
 C1941 C 0.29057 0.88266 0.23961
 C1942 C 0.29055 0.86901 0.26995
 C1943 C 0.27362 0.88695 0.28998
 C1944 C 0.28236 0.91279 0.29080
 C1945 C 0.32789 0.89801 0.28217
 C1946 C 0.31918 0.87223 0.28135
 C1947 C 0.31712 0.94554 0.27266
 C1948 C 0.32691 0.96750 0.27443
 C1949 C 0.28157 0.84121 0.26887
 C1950 C 0.27487 0.81818 0.26709
 H1951 H 0.30046 0.92090 0.22083
 H1952 H 0.28422 0.87291 0.21929
 H1953 H 0.25632 0.87998 0.30237
 H1954 H 0.27254 0.92801 0.30389
 H1955 H 0.34774 0.90359 0.28971
 H1956 H 0.33154 0.85572 0.28816
 C1957 C 0.18979 0.90070 0.72204
 C1958 C 0.21635 0.90116 0.70499
 C1959 C 0.22921 0.87727 0.70537
 C1960 C 0.21409 0.85554 0.72276
 C1961 C 0.18629 0.85397 0.70871
 C1962 C 0.17350 0.87773 0.70833
 C1963 C 0.19687 0.89115 0.75321
 C1964 C 0.20962 0.86744 0.75358
 C1965 C 0.17524 0.92573 0.72321
 C1966 C 0.16169 0.94490 0.72788
 C1967 C 0.22693 0.82965 0.72426
 C1968 C 0.23554 0.80763 0.72746
 H1969 H 0.22428 0.91858 0.69365
 H1970 H 0.24820 0.87416 0.69435
 H1971 H 0.17749 0.83580 0.69969
 H1972 H 0.15372 0.87997 0.69899
 H1973 H 0.19232 0.90213 0.77331
 H1974 H 0.21600 0.85809 0.77396
 C1975 C 0.69112 0.40065 0.22373
 C1976 C 0.69800 0.39072 0.25482
 C1977 C 0.71051 0.36688 0.25496
 C1978 C 0.71497 0.35523 0.22402
 C1979 C 0.73036 0.37698 0.20694
 C1980 C 0.71774 0.40101 0.20680
 C1981 C 0.67465 0.37797 0.20969
 C1982 C 0.68720 0.35407 0.20984
 C1983 C 0.67685 0.42582 0.22515
 C1984 C 0.66355 0.44512 0.23005
 C1985 C 0.72758 0.32923 0.22528
 C1986 C 0.73607 0.30713 0.22827
 H1987 H 0.69349 0.40156 0.27503
 H1988 H 0.71673 0.35728 0.27525
 H1989 H 0.74935 0.37379 0.19596
 H1990 H 0.72588 0.41846 0.19568
 H1991 H 0.65493 0.38050 0.20030
 H1992 H 0.67826 0.33608 0.20057
 C1993 C 0.69772 0.58134 0.25252
 C1994 C 0.70496 0.59122 0.22142
 C1995 C 0.71651 0.61594 0.22125
 C1996 C 0.71962 0.62823 0.25221
 C1997 C 0.73539 0.60773 0.26998
 C1998 C 0.72382 0.58298 0.27014
 C1999 C 0.67997 0.60310 0.26576
 C2000 C 0.69150 0.62776 0.26560
 C2001 C 0.68465 0.55519 0.25293
 C2002 C 0.67226 0.53458 0.25399
 C2003 C 0.73145 0.65491 0.25185
 C2004 C 0.74018 0.67726 0.25075
 H2005 H 0.70140 0.57981 0.20134
 H2006 H 0.72288 0.62575 0.20102
 H2007 H 0.75395 0.61223 0.28136
 H2008 H 0.73247 0.56621 0.28166
 H2009 H 0.66007 0.59945 0.27454
 H2010 H 0.68151 0.64526 0.27423
 C2011 C 0.19604 0.08059 0.75083
 C2012 C 0.17846 0.10243 0.76419
 C2013 C 0.19022 0.12698 0.76428
 C2014 C 0.21839 0.12727 0.75101
 C2015 C 0.21526 0.11523 0.71994
 C2016 C 0.20347 0.09062 0.71984
 C2017 C 0.22210 0.08185 0.76857
 C2018 C 0.23390 0.10649 0.76866
 C2019 C 0.18271 0.05457 0.75096
 C2020 C 0.17012 0.03407 0.75181
 C2021 C 0.23046 0.15385 0.75091
 C2022 C 0.23934 0.17615 0.74997
 H2023 H 0.15850 0.09891 0.77286
 H2024 H 0.18038 0.14452 0.77303
 H2025 H 0.22180 0.12513 0.69982
 H2026 H 0.19988 0.07939 0.69965
 H2027 H 0.23053 0.06492 0.77997
 H2028 H 0.25246 0.11074 0.78016
 C2029 C 0.30195 0.10388 0.23566
 C2030 C 0.28918 0.11704 0.26281
 C2031 C 0.27693 0.14038 0.25671
 C2032 C 0.27861 0.14837 0.22405
 C2033 C 0.26692 0.12446 0.20694
 C2034 C 0.27925 0.10096 0.21307
 C2035 C 0.32079 0.12525 0.22277
 C2036 C 0.30851 0.14866 0.21668
 C2037 C 0.31563 0.07925 0.24331
 C2038 C 0.32792 0.06034 0.25189
 C2039 C 0.26588 0.17398 0.21886
 C2040 C 0.25644 0.19586 0.21786
 H2041 H 0.28967 0.10871 0.28494
 H2042 H 0.26686 0.15201 0.27361
 H2043 H 0.25053 0.12587 0.19142
 H2044 H 0.27343 0.08218 0.20280
 H2045 H 0.34190 0.12223 0.21868
 H2046 H 0.31908 0.16570 0.20736
 C2047 C 0.80183 0.60324 0.73544
 C2048 C 0.82048 0.62453 0.72206
 C2049 C 0.80815 0.64794 0.71615
 C2050 C 0.77839 0.64776 0.72417
 C2051 C 0.77727 0.63988 0.75689
 C2052 C 0.78958 0.61653 0.76281
 C2053 C 0.77873 0.60030 0.71337
 C2054 C 0.76634 0.62382 0.70741
 C2055 C 0.81557 0.57861 0.74292
 C2056 C 0.82795 0.55971 0.75139
 C2057 C 0.76562 0.67337 0.71917
 C2058 C 0.75617 0.69526 0.71830
 H2059 H 0.84151 0.62143 0.71752
 H2060 H 0.81859 0.66493 0.70653
 H2061 H 0.76753 0.65159 0.77395
 H2062 H 0.79043 0.60828 0.78496
 H2063 H 0.77268 0.58150 0.70331
 H2064 H 0.74968 0.62521 0.69225
 C2065 C 0.91847 0.74500 0.19280
 C2066 C 0.91772 0.73447 0.22467
 C2067 C 0.89283 0.73475 0.23718
 C2068 C 0.87118 0.74556 0.21657
 C2069 C 0.87304 0.72830 0.18853
 C2070 C 0.89779 0.72801 0.17609
 C2071 C 0.90621 0.77292 0.19469
 C2072 C 0.88140 0.77320 0.20715
 C2073 C 0.94489 0.74505 0.17834
 C2074 C 0.96559 0.74641 0.16459
 C2075 C 0.84393 0.74557 0.22887
 C2076 C 0.82073 0.74445 0.23622
 H2077 H 0.93515 0.72744 0.23636
 H2078 H 0.88897 0.72799 0.25957
 H2079 H 0.85630 0.71718 0.17926
 H2080 H 0.90222 0.71665 0.15623
 H2081 H 0.91621 0.79093 0.18699
 H2082 H 0.87020 0.79142 0.21013
 C2083 C 0.41823 0.24439 0.69346
 C2084 C 0.40582 0.27224 0.69538
 C2085 C 0.38089 0.27235 0.70755
 C2086 C 0.37070 0.24461 0.71667
 C2087 C 0.39220 0.23380 0.73746
 C2088 C 0.41722 0.23369 0.72525
 C2089 C 0.39779 0.22740 0.67640
 C2090 C 0.37291 0.22751 0.68854
 C2091 C 0.44479 0.24464 0.67933
 C2092 C 0.46563 0.24617 0.66584
 C2093 C 0.34334 0.24445 0.72866
 C2094 C 0.32010 0.24325 0.73582
 H2095 H 0.41581 0.29034 0.68791
 H2096 H 0.36958 0.29051 0.71050
 H2097 H 0.38816 0.22690 0.75977
 H2098 H 0.43456 0.22668 0.73710
 H2099 H 0.40246 0.21616 0.65652
 H2100 H 0.35632 0.21636 0.67901
 C2101 C 0.40378 0.74197 0.80573
 C2102 C 0.40606 0.74944 0.77286
 C2103 C 0.38252 0.74724 0.75780
 C2104 C 0.35894 0.73779 0.77703
 C2105 C 0.35821 0.75758 0.80298
 C2106 C 0.38161 0.75976 0.81795
 C2107 C 0.39169 0.71365 0.80582
 C2108 C 0.36813 0.71145 0.79075
 C2109 C 0.42875 0.74532 0.82279
 C2110 C 0.44805 0.75005 0.83811
 C2111 C 0.33291 0.73644 0.76182
 C2112 C 0.31045 0.73756 0.75210
 H2113 H 0.42456 0.75576 0.76233
 H2114 H 0.38089 0.75169 0.73441
 H2115 H 0.34071 0.76895 0.80911
 H2116 H 0.38407 0.77299 0.83684
 H2117 H 0.40086 0.69680 0.81665
 H2118 H 0.35718 0.69273 0.78870
 C2119 C 0.90476 0.24192 0.30486
 C2120 C 0.90673 0.24925 0.27193
 C2121 C 0.88306 0.24689 0.25712
 C2122 C 0.85968 0.23744 0.27664
 C2123 C 0.85910 0.25734 0.30249
 C2124 C 0.88261 0.25968 0.31721
 C2125 C 0.89277 0.21355 0.30523
 C2126 C 0.86909 0.21120 0.29041
 C2127 C 0.92985 0.24546 0.32164
 C2128 C 0.94923 0.25039 0.33677
 C2129 C 0.83352 0.23593 0.26169
 C2130 C 0.81100 0.23697 0.25216
 H2131 H 0.92511 0.25559 0.26117
 H2132 H 0.88123 0.25123 0.23372
 H2133 H 0.84161 0.26867 0.30874
 H2134 H 0.88518 0.27300 0.33599
 H2135 H 0.90210 0.19679 0.31605
 H2136 H 0.85820 0.19243 0.28857
 C2137 C 0.08371 0.26262 0.29903
 C2138 C 0.10665 0.24892 0.31515
 C2139 C 0.12990 0.24859 0.29949
 C2140 C 0.12817 0.26199 0.26907
 C2141 C 0.11800 0.29017 0.27559
 C2142 C 0.09469 0.29050 0.29129
 C2143 C 0.08150 0.24799 0.26918
 C2144 C 0.10486 0.24766 0.25345
 C2145 C 0.05884 0.26313 0.31670
 C2146 C 0.03919 0.26422 0.33234
 C2147 C 0.15391 0.26140 0.25309
 C2148 C 0.17611 0.26016 0.24256
 H2149 H 0.10479 0.24018 0.33700
 H2150 H 0.14789 0.23957 0.30800
 H2151 H 0.12813 0.30827 0.26838
 H2152 H 0.08494 0.30892 0.29752
 H2153 H 0.06322 0.23876 0.26111
 H2154 H 0.10653 0.23815 0.23194
 C2155 C 0.58421 0.76203 0.80127
 C2156 C 0.58177 0.74711 0.77162
 C2157 C 0.60496 0.74678 0.75559
 C2158 C 0.62834 0.76141 0.77073
 C2159 C 0.63049 0.74832 0.80127
 C2160 C 0.60741 0.74864 0.81724
 C2161 C 0.59491 0.78991 0.79307
 C2162 C 0.61805 0.78958 0.77706
 C2163 C 0.55953 0.76253 0.81926
 C2164 C 0.54004 0.76359 0.83514
 C2165 C 0.65392 0.76082 0.75443
 C2166 C 0.67602 0.75958 0.74366
 H2167 H 0.56346 0.73768 0.76390
 H2168 H 0.60646 0.73709 0.73416
 H2169 H 0.64864 0.73949 0.80965
 H2170 H 0.60585 0.74010 0.83921
 H2171 H 0.58511 0.80832 0.79922
 H2172 H 0.62799 0.80768 0.76952
 C2173 C 0.60529 0.23829 0.69631
 C2174 C 0.62848 0.24702 0.67621
 C2175 C 0.65252 0.24802 0.69004
 C2176 C 0.65128 0.24020 0.72278
 C2177 C 0.63808 0.21236 0.72302
 C2178 C 0.61387 0.21135 0.70908
 C2179 C 0.60631 0.25777 0.72260
 C2180 C 0.63043 0.25877 0.73649
 C2181 C 0.57962 0.23828 0.68040
 C2182 C 0.55969 0.24061 0.66563
 C2183 C 0.67778 0.24215 0.73675
 C2184 C 0.70029 0.24530 0.74577
 H2185 H 0.62624 0.25194 0.65299
 H2186 H 0.67078 0.25379 0.67863
 H2187 H 0.64688 0.19505 0.73331
 H2188 H 0.60198 0.19318 0.70743
 H2189 H 0.58949 0.26963 0.72980
 H2190 H 0.63424 0.27148 0.75553
 C2191 C 0.10497 0.73871 0.19486
 C2192 C 0.12268 0.71457 0.18838
 C2193 C 0.14678 0.71563 0.20237
 C2194 C 0.15087 0.74073 0.22150
 C2195 C 0.12690 0.74094 0.24277
 C2196 C 0.10275 0.73988 0.22876
 C2197 C 0.12220 0.76305 0.18653
 C2198 C 0.14618 0.76410 0.20044
 C2199 C 0.07935 0.73860 0.17885
 C2200 C 0.05946 0.74084 0.16401
 C2201 C 0.17733 0.74272 0.23555
 C2202 C 0.19982 0.74592 0.24462
 H2203 H 0.11676 0.69805 0.17418
 H2204 H 0.16149 0.70003 0.20010
 H2205 H 0.12872 0.74173 0.26667
 H2206 H 0.08392 0.73977 0.24069
 H2207 H 0.11607 0.77824 0.17098
 H2208 H 0.16051 0.78018 0.19678
   
