data_POSCAR
  _audit_creation_date              2014-09-24
  _audit_creation_method            'ToBaCCo'
  _symmetry_space_group_name_H-M    'P1'
  _symmetry_Int_Tables_number       1
  _symmetry_cell_setting            triclinic
  loop_
  _symmetry_equiv_pos_as_xyz
 x,y,z
_cell_length_a 72.6548
_cell_length_b 72.6378
_cell_length_c 72.5205
_cell_angle_alpha 90.034700
_cell_angle_beta 90.007100
_cell_angle_gamma 90.004400
loop_
  _atom_site_label
  _atom_site_type_symbol
  _atom_site_fract_x
  _atom_site_fract_y
  _atom_site_fract_z
C1 C 0.36349 1.35082 0.33733
 C2 C 0.36313 1.33662 0.35041
 C3 C 0.35008 1.33677 0.36427
 C4 C 0.33712 1.35104 0.36514
 C5 C 0.33764 1.36516 0.35243
 C6 C 0.35097 1.36507 0.33842
 C7 C 0.37410 1.35378 0.32194
 N8 N 0.36847 1.36960 0.31350
 C9 C 0.35430 1.37657 0.32372
 C10 C 0.32312 1.37670 0.35630
 N11 N 0.31352 1.36984 0.37095
 C12 C 0.32223 1.35411 0.37640
 C13 C 0.35282 1.32124 0.37478
 N14 N 0.36724 1.31168 0.36764
 C15 C 0.37357 1.32097 0.35266
 H16 H 0.38526 1.34498 0.31754
 H17 H 0.34628 1.38867 0.32045
 H18 H 0.31945 1.38868 0.34825
 H19 H 0.31828 1.34537 0.38780
 H20 H 0.34475 1.31711 0.38662
 H21 H 0.38508 1.31681 0.34416
 C22 C 0.36441 0.85159 0.83802
 C23 C 0.36416 0.83748 0.85119
 C24 C 0.35088 0.83743 0.86485
 C25 C 0.33761 0.85144 0.86542
 C26 C 0.33798 0.86545 0.85259
 C27 C 0.35147 0.86553 0.83874
 C28 C 0.37520 0.85467 0.82275
 N29 N 0.36913 0.87015 0.81415
 C30 C 0.35464 0.87690 0.82390
 C31 C 0.32322 0.87676 0.85621
 N32 N 0.31363 0.86988 0.87085
 C33 C 0.32254 0.85433 0.87651
 C34 C 0.35375 0.82199 0.87545
 N35 N 0.36842 0.81265 0.86854
 C36 C 0.37482 0.82202 0.85364
 H37 H 0.38656 0.84617 0.81819
 H38 H 0.34659 0.88887 0.82014
 H39 H 0.31944 0.88862 0.84804
 H40 H 0.31866 0.84566 0.88798
 H41 H 0.34554 0.81771 0.88714
 H42 H 0.38649 0.81801 0.84529
 C43 C 0.86581 1.35280 0.83895
 C44 C 0.86592 1.33891 0.85238
 C45 C 0.85222 1.33833 0.86561
 C46 C 0.83818 1.35157 0.86552
 C47 C 0.83813 1.36527 0.85236
 C48 C 0.85195 1.36578 0.83886
 C49 C 0.87700 1.35640 0.82409
 N50 N 0.87020 1.37119 0.81469
 C51 C 0.85481 1.37694 0.82382
 C52 C 0.82284 1.37599 0.85547
 N53 N 0.81336 1.36909 0.87018
 C54 C 0.82280 1.35404 0.87630
 C55 C 0.85553 1.32318 0.87650
 N56 N 0.87084 1.31449 0.87014
 C57 C 0.87726 1.32404 0.85537
 H58 H 0.88873 1.34815 0.82012
 H59 H 0.84624 1.38854 0.82013
 H60 H 0.81873 1.38755 0.84704
 H61 H 0.81917 1.34555 0.88799
 H62 H 0.84711 1.31855 0.88791
 H63 H 0.88931 1.32044 0.84736
 C64 C 0.86602 0.85247 0.33860
 C65 C 0.86593 0.83869 0.35213
 C66 C 0.85264 0.83880 0.36578
 C67 C 0.83932 0.85277 0.36614
 C68 C 0.83948 0.86639 0.35282
 C69 C 0.85301 0.86629 0.33903
 C70 C 0.87673 0.85530 0.32323
 N71 N 0.87069 0.87066 0.31423
 C72 C 0.85614 0.87743 0.32402
 C73 C 0.82448 0.87751 0.35599
 N74 N 0.81524 0.87101 0.37092
 C75 C 0.82429 0.85589 0.37725
 C76 C 0.85544 0.82345 0.37652
 N77 N 0.87018 0.81407 0.36979
 C78 C 0.87667 0.82332 0.35487
 H79 H 0.88825 0.84677 0.31923
 H80 H 0.84775 0.88913 0.32025
 H81 H 0.82051 0.88938 0.34789
 H82 H 0.81989 0.84739 0.38869
 H83 H 0.84735 0.81943 0.38839
 H84 H 0.88809 0.81897 0.34632
 C85 C 0.63371 0.64695 0.33978
 C86 C 0.63344 0.66032 0.35375
 C87 C 0.64728 0.66070 0.36684
 C88 C 0.66149 0.64767 0.36624
 C89 C 0.66182 0.63460 0.35238
 C90 C 0.64786 0.63430 0.33902
 C91 C 0.62243 0.64363 0.32491
 N92 N 0.62942 0.62931 0.31491
 C93 C 0.64507 0.62361 0.32363
 C94 C 0.67743 0.62417 0.35487
 N95 N 0.68654 0.63053 0.36996
 C96 C 0.67686 0.64494 0.37697
 C97 C 0.64408 0.67564 0.37805
 N98 N 0.62865 0.68439 0.37208
 C99 C 0.62201 0.67503 0.35726
 H100 H 0.61044 0.65171 0.32141
 H101 H 0.65382 0.61232 0.31945
 H102 H 0.68175 0.61269 0.34638
 H103 H 0.68088 0.65309 0.38881
 H104 H 0.65253 0.67995 0.38956
 H105 H 0.61016 0.67903 0.34915
 C106 C 0.63451 0.14814 0.83859
 C107 C 0.63441 0.16152 0.85254
 C108 C 0.64759 0.16106 0.86630
 C109 C 0.66098 0.14715 0.86633
 C110 C 0.66109 0.13404 0.85257
 C111 C 0.64764 0.13442 0.83869
 C112 C 0.62384 0.14559 0.82314
 N113 N 0.62999 0.13047 0.81380
 C114 C 0.64460 0.12361 0.82342
 C115 C 0.67614 0.12294 0.85550
 N116 N 0.68527 0.12887 0.87085
 C117 C 0.67585 0.14369 0.87755
 C118 C 0.64465 0.17609 0.87746
 N119 N 0.62996 0.18563 0.87087
 C120 C 0.62360 0.17677 0.85564
 H121 H 0.61221 0.15408 0.81937
 H122 H 0.65305 0.11203 0.81940
 H123 H 0.67986 0.11129 0.84700
 H124 H 0.67983 0.15208 0.88921
 H125 H 0.65266 0.17983 0.88948
 H126 H 0.61227 0.18136 0.84710
 C127 C 1.13452 0.64712 0.83960
 C128 C 1.13486 0.66134 0.85269
 C129 C 1.14844 0.66167 0.86606
 C130 C 1.16193 0.64787 0.86644
 C131 C 1.16152 0.63382 0.85364
 C132 C 1.14779 0.63349 0.84004
 C133 C 1.12337 0.64365 0.82466
 N134 N 1.12962 0.62829 0.81595
 C135 C 1.14455 0.62199 0.82531
 C136 C 1.17639 0.62264 0.85708
 N137 N 1.18609 0.62959 0.87163
 C138 C 1.17717 0.64512 0.87735
 C139 C 1.14560 0.67716 0.87662
 N140 N 1.13067 0.68626 0.86995
 C141 C 1.12405 0.67667 0.85528
 H142 H 1.11192 0.65203 0.82013
 H143 H 1.15256 0.60997 0.82164
 H144 H 1.18012 0.61075 0.84892
 H145 H 1.18111 0.65381 0.88880
 H146 H 1.15402 0.68167 0.88808
 H147 H 1.11218 0.68050 0.84712
 C148 C 1.13400 0.14687 0.33871
 C149 C 1.13447 0.16112 0.35178
 C150 C 1.14879 0.16207 0.36431
 C151 C 1.16273 0.14872 0.36406
 C152 C 1.16216 0.13464 0.35131
 C153 C 1.14780 0.13384 0.33840
 C154 C 1.12227 0.14297 0.32434
 N155 N 1.12870 0.12796 0.31501
 C156 C 1.14437 0.12234 0.32373
 C157 C 1.17745 0.12385 0.35417
 N158 N 1.18750 0.13105 0.36835
 C159 C 1.17845 0.14640 0.37435
 C160 C 1.14610 0.17760 0.37483
 N161 N 1.13049 0.18611 0.36902
 C162 C 1.12327 0.17608 0.35493
 H163 H 1.11045 0.15120 0.32058
 H164 H 1.15279 0.11065 0.31997
 H165 H 1.18109 0.11197 0.34596
 H166 H 1.18256 0.15515 0.38569
 H167 H 1.15490 0.18232 0.38591
 H168 H 1.11105 0.17965 0.34718
 C169 C 0.63443 1.35207 0.66123
 C170 C 0.63480 1.33842 0.64755
 C171 C 0.64826 1.33877 0.63407
 C172 C 0.66146 1.35286 0.63402
 C173 C 0.66102 1.36635 0.64747
 C174 C 0.64733 1.36600 0.66110
 C175 C 0.62348 1.35469 0.67646
 N176 N 0.62927 1.37003 0.68568
 C177 C 0.64389 1.37700 0.67615
 C178 C 0.67591 1.37769 0.64457
 N179 N 0.68536 1.37144 0.62965
 C180 C 0.67656 1.35627 0.62308
 C181 C 0.64567 1.32352 0.62309
 N182 N 0.63091 1.31399 0.62952
 C183 C 0.62419 1.32303 0.64449
 H184 H 0.61197 1.34603 0.68021
 H185 H 0.65212 1.38875 0.68013
 H186 H 0.67965 1.38954 0.65281
 H187 H 0.68114 1.34796 0.61157
 H188 H 0.65391 1.31970 0.61126
 H189 H 0.61268 1.31852 0.65283
 C190 C 0.63383 0.85268 1.16067
 C191 C 0.63403 0.83911 1.14691
 C192 C 0.64690 0.83989 1.13289
 C193 C 0.65985 0.85421 1.13252
 C194 C 0.65963 0.86758 1.14611
 C195 C 0.64642 0.86688 1.16019
 C196 C 0.62334 0.85499 1.17627
 N197 N 0.62909 0.87041 1.18536
 C198 C 0.64326 0.87772 1.17542
 C199 C 0.67433 0.87907 1.14295
 N200 N 0.68350 0.87302 1.12777
 C201 C 0.67465 0.85786 1.12125
 C202 C 0.64417 0.82470 1.12186
 N203 N 0.62998 0.81470 1.12889
 C204 C 0.62373 0.82345 1.14424
 H205 H 0.61213 0.84608 1.18033
 H206 H 0.65135 0.88964 1.17917
 H207 H 0.67822 0.89081 1.15128
 H208 H 0.67910 0.84961 1.10964
 H209 H 0.65222 0.82097 1.10987
 H210 H 0.61247 0.81882 1.15283
 C211 C 1.13431 1.35220 1.16017
 C212 C 1.13404 1.33914 1.14591
 C213 C 1.14765 1.33932 1.13257
 C214 C 1.16164 1.35261 1.13324
 C215 C 1.16202 1.36531 1.14738
 C216 C 1.14824 1.36515 1.16092
 C217 C 1.12320 1.35503 1.17528
 N218 N 1.13008 1.36935 1.18520
 C219 C 1.14542 1.37559 1.17649
 C220 C 1.17750 1.37593 1.14500
 N221 N 1.18661 1.37016 1.12959
 C222 C 1.17681 1.35583 1.12236
 C223 C 1.14453 1.32456 1.12110
 N224 N 1.12936 1.31541 1.12714
 C225 C 1.12281 1.32432 1.14227
 H226 H 1.11124 1.34696 1.17899
 H227 H 1.15390 1.38696 1.18107
 H228 H 1.18143 1.38726 1.15383
 H229 H 1.18061 1.34771 1.11046
 H230 H 1.15286 1.32063 1.10937
 H231 H 1.11118 1.31992 1.15048
 C232 C 1.13327 0.85294 0.65964
 C233 C 1.13354 0.83945 0.64580
 C234 C 1.14714 0.83973 0.63246
 C235 C 1.16059 0.85359 0.63270
 C236 C 1.16032 0.86689 0.64635
 C237 C 1.14653 0.86660 0.65988
 C238 C 1.12221 0.85557 0.67481
 N239 N 1.12839 0.87053 0.68423
 C240 C 1.14326 0.87737 0.67514
 C241 C 1.17541 0.87801 0.64366
 N242 N 1.18480 0.87182 0.62867
 C243 C 1.17578 0.85689 0.62188
 C244 C 1.14451 0.82458 0.62138
 N245 N 1.12962 0.81514 0.62762
 C246 C 1.12281 0.82418 0.64255
 H247 H 1.11055 0.84716 0.67872
 H248 H 1.15146 0.88900 0.67961
 H249 H 1.17930 0.88971 0.65205
 H250 H 1.18025 0.84867 0.61025
 H251 H 1.15289 0.82070 0.60966
 H252 H 1.11124 0.81969 0.65080
 C253 C 0.36499 0.64803 0.66137
 C254 C 0.36451 0.66213 0.64821
 C255 C 0.35110 0.66210 0.63469
 C256 C 0.33791 0.64801 0.63423
 C257 C 0.33850 0.63400 0.64706
 C258 C 0.35212 0.63401 0.66078
 C259 C 0.37592 0.64504 0.67655
 N260 N 0.37002 0.62955 0.68524
 C261 C 0.35549 0.62268 0.67562
 C262 C 0.32377 0.62260 0.64360
 N263 N 0.31399 0.62941 0.62904
 C264 C 0.32275 0.64501 0.62329
 C265 C 0.35374 0.67760 0.62409
 N266 N 0.36841 0.68704 0.63089
 C267 C 0.37504 0.67767 0.64569
 H268 H 0.38726 0.65363 0.68101
 H269 H 0.34754 0.61069 0.67948
 H270 H 0.32015 0.61071 0.65180
 H271 H 0.31869 0.65366 0.61187
 H272 H 0.34537 0.68185 0.61251
 H273 H 0.38676 0.68175 0.65395
 C274 C 0.36604 0.14736 1.16028
 C275 C 0.36534 0.16162 1.14729
 C276 C 0.35135 0.16207 1.13439
 C277 C 0.33794 0.14818 1.13421
 C278 C 0.33879 0.13397 1.14680
 C279 C 0.35291 0.13358 1.16001
 C280 C 0.37736 0.14409 1.17512
 N281 N 0.37141 0.12868 1.18392
 C282 C 0.35650 0.12211 1.17469
 C283 C 0.32382 0.12280 1.14366
 N284 N 0.31367 0.12992 1.12952
 C285 C 0.32239 0.14553 1.12374
 C286 C 0.35374 0.17775 1.12402
 N287 N 0.36890 0.18678 1.13026
 C288 C 0.37606 0.17699 1.14453
 H289 H 0.38892 0.15250 1.17934
 H290 H 0.34838 0.11031 1.17878
 H291 H 0.32036 0.11080 1.15177
 H292 H 0.31810 0.15437 1.11255
 H293 H 0.34512 0.18219 1.11269
 H294 H 0.38797 0.18094 1.15259
 C295 C 0.86618 0.64763 1.16109
 C296 C 0.86632 0.66112 1.14728
 C297 C 0.85319 0.66080 1.13347
 C298 C 0.83965 0.64703 1.13336
 C299 C 0.83949 0.63377 1.14704
 C300 C 0.85290 0.63400 1.16094
 C301 C 0.87688 0.64491 1.17651
 N302 N 0.87046 0.62991 1.18568
 C303 C 0.85578 0.62316 1.17622
 C304 C 0.82436 0.62278 1.14406
 N305 N 0.81532 0.62902 1.12890
 C306 C 0.82463 0.64382 1.12223
 C307 C 0.85632 0.67586 1.12238
 N308 N 0.87098 0.68533 1.12917
 C309 C 0.87716 0.67637 1.14441
 H310 H 0.88850 0.65324 1.18071
 H311 H 0.84749 0.61150 1.18039
 H312 H 0.82018 0.61119 1.15244
 H313 H 0.82045 0.65206 1.11053
 H314 H 0.84818 0.67990 1.11056
 H315 H 0.88869 0.68063 1.15285
 C316 C 0.86636 0.14687 0.66101
 C317 C 0.86592 0.16094 0.64779
 C318 C 0.85236 0.16103 0.63442
 C319 C 0.83915 0.14697 0.63401
 C320 C 0.83973 0.13297 0.64690
 C321 C 0.85348 0.13292 0.66050
 C322 C 0.87727 0.14393 0.67620
 N323 N 0.87147 0.12841 0.68506
 C324 C 0.85690 0.12159 0.67531
 C325 C 0.82481 0.12173 0.64364
 N326 N 0.81517 0.12864 0.62914
 C327 C 0.82390 0.14407 0.62317
 C328 C 0.85486 0.17661 0.62394
 N329 N 0.86968 0.18593 0.63055
 C330 C 0.87651 0.17642 0.64517
 H331 H 0.88871 0.15257 0.68021
 H332 H 0.84865 0.10978 0.67903
 H333 H 0.82093 0.10978 0.65165
 H334 H 0.81942 0.15268 0.61184
 H335 H 0.84654 0.18078 0.61228
 H336 H 0.88809 0.18066 0.65355
 C337 C 1.35156 0.36456 0.66143
 C338 C 1.33827 0.36476 0.64741
 C339 C 1.33864 0.35150 0.63373
 C340 C 1.35237 0.33792 0.63382
 C341 C 1.36537 0.33766 0.64768
 C342 C 1.36505 0.35114 0.66153
 C343 C 1.35424 0.37536 0.67680
 N344 N 1.36909 0.36887 0.68618
 C345 C 1.37578 0.35404 0.67690
 C346 C 1.37639 0.32256 0.64475
 N347 N 1.37056 0.31356 0.62928
 C348 C 1.35582 0.32308 0.62255
 C349 C 1.32369 0.35455 0.62249
 N350 N 1.31428 0.36938 0.62899
 C351 C 1.32316 0.37573 0.64421
 H352 H 1.34601 0.38712 0.68081
 H353 H 1.38734 0.34570 0.68123
 H354 H 1.38800 0.31877 0.65326
 H355 H 1.34755 0.31925 0.61076
 H356 H 1.31988 0.34649 0.61052
 H357 H 1.31864 0.38713 0.65270
 C358 C 1.35186 0.86482 1.16139
 C359 C 1.33770 0.86430 1.14826
 C360 C 1.33801 0.85120 1.13444
 C361 C 1.35241 0.83838 1.13364
 C362 C 1.36648 0.83906 1.14640
 C363 C 1.36622 0.85243 1.16039
 C364 C 1.35463 0.87546 1.17681
 N365 N 1.37044 0.86996 1.18536
 C366 C 1.37760 0.85586 1.17517
 C367 C 1.37812 0.82459 1.14264
 N368 N 1.37136 0.81487 1.12801
 C369 C 1.35560 0.82345 1.12246
 C370 C 1.32245 0.85370 1.12392
 N371 N 1.31269 0.86800 1.13104
 C372 C 1.32192 0.87451 1.14599
 H373 H 1.34569 0.88652 1.18118
 H374 H 1.38974 0.84793 1.17852
 H375 H 1.39009 0.82103 1.15075
 H376 H 1.34691 0.81938 1.11106
 H377 H 1.31839 0.84551 1.11213
 H378 H 1.31759 0.88597 1.15450
 C379 C 0.85191 0.36561 1.16133
 C380 C 0.83911 0.36626 1.14685
 C381 C 0.83913 0.35266 1.13349
 C382 C 0.85202 0.33831 1.13435
 C383 C 0.86439 0.33754 1.14874
 C384 C 0.86432 0.35128 1.16234
 C385 C 0.85481 0.37664 1.17648
 N386 N 0.86866 0.36932 1.18689
 C387 C 0.87445 0.35371 1.17816
 C388 C 0.87466 0.32180 1.14647
 N389 N 0.86900 0.31293 1.13086
 C390 C 0.85506 0.32312 1.12344
 C391 C 0.82457 0.35610 1.12188
 N392 N 0.81565 0.37142 1.12787
 C393 C 0.82455 0.37779 1.14308
 H394 H 0.84679 0.38872 1.17984
 H395 H 0.88548 0.34476 1.18261
 H396 H 0.88573 0.31755 1.15547
 H397 H 0.84711 0.31962 1.11134
 H398 H 0.82055 0.34780 1.11015
 H399 H 0.82025 0.38945 1.15133
 C400 C 0.85384 0.86757 0.65950
 C401 C 0.83994 0.86731 0.64607
 C402 C 0.83955 0.85344 0.63301
 C403 C 0.85313 0.83972 0.63308
 C404 C 0.86689 0.84004 0.64625
 C405 C 0.86718 0.85399 0.65961
 C406 C 0.85706 0.87874 0.67450
 N407 N 0.87194 0.87219 0.68376
 C408 C 0.87823 0.85706 0.67469
 C409 C 0.87776 0.82479 0.64338
 N410 N 0.87091 0.81520 0.62882
 C411 C 0.85581 0.82425 0.62246
 C412 C 0.82412 0.85611 0.62235
 N413 N 0.81513 0.87129 0.62860
 C414 C 0.82475 0.87824 0.64310
 H415 H 0.84873 0.89035 0.67874
 H416 H 0.88987 0.84875 0.67887
 H417 H 0.88951 0.82073 0.65161
 H418 H 0.84737 0.81991 0.61095
 H419 H 0.81974 0.84756 0.61094
 H420 H 0.82070 0.89004 0.65127
 C421 C 0.64743 0.63373 0.66049
 C422 C 0.66127 0.63392 0.64701
 C423 C 0.66137 0.64748 0.63363
 C424 C 0.64771 0.66112 0.63362
 C425 C 0.63407 0.66094 0.64692
 C426 C 0.63396 0.64718 0.66048
 C427 C 0.64426 0.62259 0.67549
 N428 N 0.62924 0.62900 0.68465
 C429 C 0.62287 0.64406 0.67553
 C430 C 0.62309 0.67607 0.64393
 N431 N 0.62977 0.68549 0.62919
 C432 C 0.64485 0.67642 0.62281
 C433 C 0.67665 0.64460 0.62279
 N434 N 0.68587 0.62967 0.62932
 C435 C 0.67652 0.62307 0.64415
 H436 H 0.65260 0.61099 0.67973
 H437 H 0.61106 0.65219 0.67957
 H438 H 0.61141 0.68021 0.65222
 H439 H 0.65319 0.68064 0.61119
 H440 H 0.68103 0.65307 0.61133
 H441 H 0.68054 0.61127 0.65232
 C442 C 0.64689 1.13428 1.16098
 C443 C 0.66090 1.13469 1.14768
 C444 C 0.66135 1.14865 1.13474
 C445 C 0.64786 1.16246 1.13500
 C446 C 0.63405 1.16200 1.14804
 C447 C 0.63367 1.14790 1.16124
 C448 C 0.64338 1.12274 1.17559
 N449 N 0.62840 1.12909 1.18500
 C450 C 0.62244 1.14455 1.17613
 C451 C 0.62312 1.17719 1.14519
 N452 N 0.63000 1.18711 1.13077
 C453 C 0.64524 1.17803 1.12455
 C454 C 0.67668 1.14587 1.12394
 N455 N 0.68560 1.13061 1.13009
 C456 C 0.67603 1.12370 1.14462
 H457 H 0.65182 1.11108 1.17940
 H458 H 0.61067 1.15284 1.17991
 H459 H 0.61143 1.18093 1.15362
 H460 H 0.65378 1.18207 1.11303
 H461 H 0.68128 1.15461 1.11277
 H462 H 0.67978 1.11158 1.15244
 C463 C 0.14890 0.63600 1.16267
 C464 C 0.16323 0.63690 1.14976
 C465 C 0.16342 0.65075 1.13670
 C466 C 0.14920 0.66380 1.13631
 C467 C 0.13491 0.66269 1.14878
 C468 C 0.13477 0.64868 1.16211
 C469 C 0.14578 0.62471 1.17753
 N470 N 0.13000 0.63011 1.18620
 C471 C 0.12317 0.64476 1.17659
 C472 C 0.12339 0.67735 1.14541
 N473 N 0.13040 0.68757 1.13125
 C474 C 0.14626 0.67916 1.12567
 C475 C 0.17912 0.64852 1.12633
 N476 N 0.18840 0.63357 1.13269
 C477 C 0.17877 0.62642 1.14707
 H478 H 0.15451 0.61333 1.18148
 H479 H 0.11115 0.65276 1.18023
 H480 H 0.11124 0.68060 1.15338
 H481 H 0.15510 0.68357 1.11453
 H482 H 0.18333 0.65703 1.11483
 H483 H 0.18288 0.61460 1.15517
 C484 C 0.14797 1.13462 0.66173
 C485 C 0.16230 1.13547 0.64880
 C486 C 0.16251 1.14931 0.63574
 C487 C 0.14833 1.16239 0.63534
 C488 C 0.13404 1.16133 0.64782
 C489 C 0.13387 1.14733 0.66116
 C490 C 0.14487 1.12339 0.67664
 N491 N 0.12912 1.12886 0.68532
 C492 C 0.12229 1.14349 0.67568
 C493 C 0.12259 1.17605 0.64447
 N494 N 0.12965 1.18626 0.63033
 C495 C 0.14546 1.17778 0.62472
 C496 C 0.17822 1.14706 0.62539
 N497 N 0.18749 1.13212 0.63178
 C498 C 0.17784 1.12498 0.64616
 H499 H 0.15358 1.11201 0.68061
 H500 H 0.11032 1.15154 0.67933
 H501 H 0.11047 1.17936 0.65247
 H502 H 0.15432 1.18216 0.61359
 H503 H 0.18246 1.15557 0.61390
 H504 H 0.18195 1.11318 0.65428
 C505 C 1.35145 0.63562 0.33773
 C506 C 1.33712 0.63616 0.35066
 C507 C 1.33717 0.64936 0.36439
 C508 C 1.35147 0.66229 0.36527
 C509 C 1.36571 0.66159 0.35270
 C510 C 1.36572 0.64811 0.33882
 C511 C 1.35456 0.62478 0.32252
 N512 N 1.37050 0.63025 0.31419
 C513 C 1.37739 0.64454 0.32430
 C514 C 1.37728 0.67609 0.35657
 N515 N 1.37032 0.68586 0.37108
 C516 C 1.35449 0.67726 0.37644
 C517 C 1.32155 0.64674 0.37480
 N518 N 1.31203 0.63226 0.36771
 C519 C 1.32145 0.62577 0.35288
 H520 H 1.34580 0.61356 0.31818
 H521 H 1.38958 0.65245 0.32108
 H522 H 1.38936 0.67963 0.34862
 H523 H 1.34567 0.68134 0.38773
 H524 H 1.31733 0.65493 0.38654
 H525 H 1.31734 0.61416 0.34446
 C526 C 1.35185 1.13499 0.83857
 C527 C 1.33867 1.13451 0.85269
 C528 C 1.33862 1.14802 0.86615
 C529 C 1.35182 1.16211 0.86574
 C530 C 1.36464 1.16269 0.85173
 C531 C 1.36469 1.14903 0.83806
 C532 C 1.35491 1.12400 0.82340
 N533 N 1.36928 1.13106 0.81369
 C534 C 1.37531 1.14639 0.82258
 C535 C 1.37518 1.17819 0.85439
 N536 N 1.36924 1.18712 0.86986
 C537 C 1.35488 1.17718 0.87682
 C538 C 1.32382 1.14465 0.87748
 N539 N 1.31486 1.12944 0.87123
 C540 C 1.32393 1.12311 0.85611
 H541 H 1.34699 1.11199 0.81952
 H542 H 1.38666 1.15499 0.81818
 H543 H 1.38659 1.18225 0.84574
 H544 H 1.34665 1.18080 0.88870
 H545 H 1.31974 1.15284 0.88927
 H546 H 1.31972 1.11149 0.84777
 C547 C 0.85357 0.63313 0.84015
 C548 C 0.83958 0.63336 0.85346
 C549 C 0.83931 0.64698 0.86678
 C550 C 0.85311 0.66047 0.86707
 C551 C 0.86702 0.66014 0.85405
 C552 C 0.86723 0.64638 0.84047
 C553 C 0.85666 0.62219 0.82498
 N554 N 0.87188 0.62846 0.81607
 C555 C 0.87847 0.64323 0.82551
 C556 C 0.87807 0.67519 0.85728
 N557 N 0.87117 0.68467 0.87190
 C558 C 0.85589 0.67572 0.87795
 C559 C 0.82382 0.64426 0.87734
 N560 N 0.81471 0.62927 0.87081
 C561 C 0.82428 0.62253 0.85618
 H562 H 0.84831 0.61062 0.82066
 H563 H 0.89016 0.65151 0.82144
 H564 H 0.88995 0.67923 0.84924
 H565 H 0.84736 0.68000 0.88942
 H566 H 0.81953 0.65259 0.88896
 H567 H 0.82018 0.61087 0.84783
 C568 C 0.85378 1.13280 0.33986
 C569 C 0.84017 1.13266 0.35359
 C570 C 0.83989 1.14633 0.36688
 C571 C 0.85326 1.16025 0.36670
 C572 C 0.86661 1.16043 0.35313
 C573 C 0.86685 1.14663 0.33961
 C574 C 0.85700 1.12172 0.32480
 N575 N 0.87167 1.12855 0.31537
 C576 C 0.87776 1.14379 0.32438
 C577 C 0.87727 1.17583 0.35593
 N578 N 0.87077 1.18498 0.37093
 C579 C 0.85606 1.17552 0.37760
 C580 C 0.82473 1.14329 0.37781
 N581 N 0.81579 1.12810 0.37151
 C582 C 0.82520 1.12148 0.35673
 H583 H 0.84892 1.10988 0.32070
 H584 H 0.88928 1.15226 0.32016
 H585 H 0.88895 1.18001 0.34766
 H586 H 0.84773 1.17965 0.38925
 H587 H 0.82045 1.15165 0.38940
 H588 H 0.82111 1.10977 0.34844
 C589 C 0.64653 0.36667 0.34027
 C590 C 0.66011 0.36693 0.35401
 C591 C 0.66039 0.35341 0.36742
 C592 C 0.64713 0.33937 0.36721
 C593 C 0.63379 0.33910 0.35361
 C594 C 0.63358 0.35279 0.33998
 C595 C 0.64326 0.37772 0.32523
 N596 N 0.62868 0.37083 0.31556
 C597 C 0.62276 0.35549 0.32467
 C598 C 0.62311 0.32373 0.35651
 N599 N 0.62967 0.31462 0.37151
 C600 C 0.64441 0.32410 0.37810
 C601 C 0.67543 0.35671 0.37847
 N602 N 0.68436 0.37183 0.37202
 C603 C 0.67504 0.37817 0.35706
 H604 H 0.65156 0.38945 0.32136
 H605 H 0.61125 0.34689 0.32079
 H606 H 0.61167 0.31928 0.34805
 H607 H 0.65253 0.32023 0.38999
 H608 H 0.67991 0.34832 0.38997
 H609 H 0.67891 0.39001 0.34888
 C610 C 0.64612 0.86686 0.84016
 C611 C 0.65996 0.86674 0.85365
 C612 C 0.66048 0.85281 0.86662
 C613 C 0.64713 0.83887 0.86638
 C614 C 0.63344 0.83903 0.85314
 C615 C 0.63300 0.85306 0.83988
 C616 C 0.64276 0.87811 0.82527
 N617 N 0.62800 0.87142 0.81590
 C618 C 0.62193 0.85611 0.82480
 C619 C 0.62278 0.82361 0.85589
 N620 N 0.62971 0.81408 0.87044
 C621 C 0.64463 0.82333 0.87691
 C622 C 0.67577 0.85570 0.87743
 N623 N 0.68454 0.87108 0.87137
 C624 C 0.67492 0.87793 0.85683
 H625 H 0.65090 0.88990 0.82118
 H626 H 0.61041 0.84766 0.82053
 H627 H 0.61112 0.81942 0.84760
 H628 H 0.65307 0.81911 0.88847
 H629 H 0.68018 0.84718 0.88884
 H630 H 0.67880 0.88987 0.84880
 C631 C 0.14824 0.36501 0.83854
 C632 C 0.16224 0.36469 0.85184
 C633 C 0.16200 0.35156 0.86562
 C634 C 0.14783 0.33848 0.86620
 C635 C 0.13394 0.33888 0.85316
 C636 C 0.13412 0.35233 0.83927
 C637 C 0.14537 0.37578 0.82323
 N638 N 0.12970 0.37010 0.81453
 C639 C 0.12278 0.35571 0.82446
 C640 C 0.12256 0.32412 0.85663
 N641 N 0.12930 0.31471 0.87136
 C642 C 0.14472 0.32348 0.87732
 C643 C 0.17742 0.35429 0.87630
 N644 N 0.18702 0.36875 0.86932
 C645 C 0.17783 0.37515 0.85431
 H646 H 0.15408 0.38711 0.81911
 H647 H 0.11078 0.34763 0.82094
 H648 H 0.11069 0.32012 0.84855
 H649 H 0.15323 0.31914 0.88877
 H650 H 0.18151 0.34611 0.88808
 H651 H 0.18209 0.38667 0.84586
 C652 C 0.14791 0.86543 0.33861
 C653 C 0.16113 0.86603 0.35269
 C654 C 0.16135 0.85256 0.36617
 C655 C 0.14839 0.83825 0.36567
 C656 C 0.13552 0.83756 0.35164
 C657 C 0.13532 0.85124 0.33800
 C658 C 0.14472 0.87643 0.32352
 N659 N 0.13051 0.86923 0.31352
 C660 C 0.12479 0.85371 0.32245
 C661 C 0.12522 0.82189 0.35421
 N662 N 0.13147 0.81305 0.36949
 C663 C 0.14566 0.82299 0.37659
 C664 C 0.17613 0.85615 0.37749
 N665 N 0.18497 0.87136 0.37111
 C666 C 0.17582 0.87751 0.35597
 H667 H 0.15279 0.88839 0.31989
 H668 H 0.11355 0.84486 0.31832
 H669 H 0.11395 0.81730 0.34559
 H670 H 0.15371 0.81919 0.38855
 H671 H 0.18057 0.84783 0.38905
 H672 H 0.17970 0.88933 0.34776
 O673 O 1.06627 1.01782 1.09198
 O674 O 1.08761 1.01784 1.11360
 C675 C 1.07264 1.02408 1.10704
 C676 C 1.06274 1.03908 1.11669
 C677 C 1.06836 1.04500 1.13425
 H678 H 1.07972 1.03820 1.14113
 O679 O 0.93292 0.98271 1.09153
 O680 O 0.91155 0.98290 1.11312
 C681 C 0.92644 0.97648 1.10656
 C682 C 0.93618 0.96139 1.11626
 C683 C 0.92993 0.95502 1.13345
 H684 H 0.91793 0.96129 1.13967
 O685 O 1.01841 1.09179 1.06600
 O686 O 1.01854 1.11340 1.08737
 C687 C 1.02479 1.10676 1.07241
 C688 C 1.03988 1.11628 1.06251
 C689 C 1.04617 1.13361 1.06840
 H690 H 1.03976 1.14017 1.08017
 O691 O 0.98157 0.90879 1.06690
 O692 O 0.98144 0.88732 1.08839
 C693 C 0.97524 0.89381 1.07335
 C694 C 0.96024 0.88414 1.06347
 C695 C 0.95413 0.86676 1.06936
 H696 H 0.96072 0.86014 1.08101
 O697 O 1.09199 1.06575 1.01758
 O698 O 1.11361 1.08706 1.01750
 C699 C 1.10701 1.07215 1.02386
 C700 C 1.11656 1.06244 1.03906
 C701 C 1.13386 1.06846 1.04526
 H702 H 1.14069 1.07962 1.03811
 O703 O 0.90767 0.93402 1.01823
 O704 O 0.88611 0.91265 1.01834
 C705 C 0.89265 0.92765 1.02453
 C706 C 0.88295 0.93767 1.03943
 C707 C 0.86557 0.93184 1.04559
 H708 H 0.85911 0.92001 1.03921
 O709 O 0.98233 1.06684 1.09122
 O710 O 0.98241 1.08830 1.11274
 C711 C 0.97609 1.07332 1.10623
 C712 C 0.96105 1.06354 1.11596
 C713 C 0.95517 1.06939 1.13345
 H714 H 0.96225 1.08064 1.14023
 O715 O 1.01748 0.93399 1.09220
 O716 O 1.01732 0.91265 1.11382
 C717 C 1.02368 0.92757 1.10726
 C718 C 1.03881 0.93728 1.11691
 C719 C 1.04502 0.93117 1.13420
 H720 H 1.03792 0.91994 1.14096
 O721 O 1.09144 0.98196 1.06668
 O722 O 1.11297 0.98195 1.08811
 C723 C 1.10641 0.97565 1.07313
 C724 C 1.11594 0.96047 1.06338
 C725 C 1.13307 0.95402 1.06959
 H726 H 1.13980 0.96085 1.08103
 O727 O 0.90797 1.01878 1.06624
 O728 O 0.88652 1.01905 1.08775
 C729 C 0.89305 1.02520 1.07271
 C730 C 0.88347 1.04030 1.06288
 C731 C 0.86625 1.04663 1.06895
 H732 H 0.85951 1.03978 1.08036
 O733 O 0.93364 1.09219 1.01764
 O734 O 0.91243 1.11390 1.01760
 C735 C 0.92732 1.10724 1.02393
 C736 C 0.93720 1.11682 1.03902
 C737 C 0.93101 1.13394 1.04557
 H738 H 0.91899 1.14022 1.03939
 O739 O 1.06572 0.90825 1.01805
 O740 O 1.08698 0.88658 1.01810
 C741 C 1.07203 0.89321 1.02435
 C742 C 1.06217 0.88366 1.03946
 C743 C 1.06813 0.86637 1.04574
 H744 H 1.07935 0.85953 1.03870
 O745 O 0.93334 1.01865 1.09134
 O746 O 0.91202 1.01889 1.11298
 C747 C 0.92702 1.02502 1.10638
 C748 C 0.93705 1.03995 1.11602
 C749 C 0.93128 1.04608 1.13346
 H750 H 0.91952 1.03966 1.14000
 O751 O 1.06641 0.98195 1.09205
 O752 O 1.08783 0.98191 1.11361
 C753 C 1.07286 0.97564 1.10706
 C754 C 1.06301 0.96063 1.11674
 C755 C 1.06923 0.95413 1.13388
 H756 H 1.08132 0.96026 1.14010
 O757 O 1.01749 0.90880 1.06691
 O758 O 1.01738 0.88736 1.08843
 C759 C 1.02372 0.89382 1.07343
 C760 C 1.03870 0.88404 1.06360
 C761 C 1.04506 0.86689 1.06988
 H762 H 1.03883 0.86073 1.08196
 O763 O 0.98250 1.09208 1.06597
 O764 O 0.98259 1.11365 1.08737
 C765 C 0.97630 1.10713 1.07238
 C766 C 0.96126 1.11683 1.06258
 C767 C 0.95507 1.13409 1.06873
 H768 H 0.96211 1.14079 1.08005
 O769 O 0.90824 1.06724 1.01770
 O770 O 0.88689 1.08882 1.01764
 C771 C 0.89331 1.07383 1.02398
 C772 C 0.88361 1.06413 1.03910
 C773 C 0.86646 1.07039 1.04549
 H774 H 0.86016 1.08231 1.03912
 O775 O 1.09114 0.93327 1.01824
 O776 O 1.11250 0.91170 1.01834
 C777 C 1.10605 0.92671 1.02461
 C778 C 1.11572 0.93648 1.03972
 C779 C 1.13280 0.93014 1.04622
 H780 H 1.13907 0.91815 1.03994
 O781 O 0.98159 0.93428 1.09191
 O782 O 0.98140 0.91293 1.11352
 C783 C 0.97523 0.92792 1.10692
 C784 C 0.96016 0.93780 1.11650
 C785 C 0.95394 0.93185 1.13383
 H786 H 0.96098 0.92062 1.14065
 O787 O 1.01823 1.06677 1.09141
 O788 O 1.01833 1.08826 1.11290
 C789 C 1.02450 1.07322 1.10644
 C790 C 1.03935 1.06328 1.11626
 C791 C 1.04534 1.06918 1.13371
 H792 H 1.03873 1.08082 1.14032
 O793 O 0.90774 0.98290 1.06628
 O794 O 0.88624 0.98312 1.08775
 C795 C 0.89270 0.97677 1.07275
 C796 C 0.88294 0.96176 1.06296
 C797 C 0.86550 0.95585 1.06884
 H798 H 0.85874 0.96295 1.08009
 O799 O 1.09156 1.01788 1.06681
 O800 O 1.11306 1.01794 1.08828
 C801 C 1.10654 1.02419 1.07327
 C802 C 1.11625 1.03915 1.06336
 C803 C 1.13342 1.04557 1.06956
 H804 H 1.13961 1.03943 1.08167
 O805 O 0.93292 0.90885 1.01837
 O806 O 0.91148 0.88735 1.01847
 C807 C 0.92647 0.89389 1.02471
 C808 C 0.93632 0.88425 1.03975
 C809 C 0.93036 0.86691 1.04589
 H810 H 0.91887 0.86022 1.03912
 O811 O 1.06692 1.09113 1.01748
 O812 O 1.08844 1.11254 1.01739
 C813 C 1.07342 1.10614 1.02368
 C814 C 1.06362 1.11598 1.03864
 C815 C 1.06962 1.13337 1.04461
 H816 H 1.08099 1.14001 1.03761
 Cu817 Cu 1.07678 0.99991 1.07723
 Cu818 Cu 1.10254 0.99993 1.10305
 Cu819 Cu 0.92263 1.00074 1.07670
 Cu820 Cu 0.89694 1.00102 1.10257
 Cu821 Cu 1.00036 1.07722 1.07650
 Cu822 Cu 1.00047 1.10308 1.10224
 Cu823 Cu 0.99954 0.92360 1.07732
 Cu824 Cu 0.99936 0.89792 1.10321
 C825 C 1.04807 1.04815 1.10793
 H826 H 1.04375 1.04375 1.09433
 C827 C 1.05974 1.06005 1.14281
 C828 C 0.95135 0.95273 1.10795
 H829 H 0.95601 0.95731 1.09453
 C830 C 0.93875 0.94028 1.14242
 C831 C 1.04862 1.10766 1.04755
 H832 H 1.04404 1.09416 1.04313
 C833 C 1.06101 1.14230 1.05951
 C834 C 0.95136 0.89267 1.04853
 H835 H 0.95585 0.90617 1.04405
 C836 C 0.93920 0.85805 1.06065
 C837 C 1.10800 1.04763 1.04805
 H838 H 1.09459 1.04300 1.04342
 C839 C 1.14240 1.06019 1.06057
 C840 C 0.89144 0.95272 1.04812
 H841 H 0.90497 0.95709 1.04364
 C842 C 0.85669 0.94088 1.06026
 C843 C 0.95203 1.04869 1.10745
 H844 H 0.95638 1.04422 1.09388
 C845 C 0.94029 1.06075 1.14233
 C846 C 1.04773 0.95217 1.10843
 H847 H 1.04309 0.95686 1.09503
 C848 C 1.06030 0.93942 1.14279
 C849 C 1.10748 0.95173 1.04831
 H850 H 1.09417 0.95650 1.04358
 C851 C 1.14161 0.93884 1.06113
 C852 C 0.89193 1.04900 1.04781
 H853 H 0.90530 1.04430 1.04318
 C854 C 0.85763 1.06171 1.06039
 C855 C 0.95239 1.10843 1.04756
 H856 H 0.95700 1.09505 1.04284
 C857 C 0.93988 1.14275 1.06040
 C858 C 1.04730 0.89226 1.04833
 H859 H 1.04272 0.90566 1.04366
 C860 C 1.05974 0.85787 1.06101
 O861 O 1.06626 0.98117 0.90787
 O862 O 1.08762 0.98093 0.88626
 C863 C 1.07264 0.97478 0.89286
 C864 C 1.06266 0.95979 0.88326
 C865 C 1.06860 0.95341 0.86596
 H866 H 1.08048 0.95968 0.85949
 O867 O 0.93299 1.01813 0.90848
 O868 O 0.91159 1.01819 0.88692
 C869 C 0.92658 1.02442 0.89346
 C870 C 0.93654 1.03934 0.88372
 C871 C 0.93050 1.04559 0.86642
 H872 H 0.91847 1.03938 0.86017
 O873 O 0.98242 1.09140 0.93313
 O874 O 0.98249 1.11284 0.91161
 C875 C 0.97623 1.10642 0.92665
 C876 C 0.96130 1.11626 0.93650
 C877 C 0.95541 1.13368 0.93054
 H878 H 0.96246 1.14034 0.91920
 O879 O 1.01721 0.90831 0.93363
 O880 O 1.01705 0.88670 0.91226
 C881 C 1.02341 0.89327 0.92720
 C882 C 1.03851 0.88363 0.93697
 C883 C 1.04477 0.86640 0.93081
 H884 H 1.03786 0.85970 0.91941
 O885 O 1.09130 0.93336 0.98226
 O886 O 1.11270 0.91184 0.98234
 C887 C 1.10629 0.92685 0.97605
 C888 C 1.11605 0.93659 0.96100
 C889 C 1.13345 0.93063 0.95503
 H890 H 1.14021 0.91948 0.96227
 O891 O 0.90820 1.06713 0.98174
 O892 O 0.88687 1.08873 0.98161
 C893 C 0.89326 1.07366 0.97541
 C894 C 0.88349 1.06376 0.96046
 C895 C 0.86625 1.06986 0.95415
 H896 H 0.86003 1.08191 0.96037
 O897 O 1.01817 1.06593 0.90785
 O898 O 1.01824 1.08726 0.88623
 C899 C 1.02446 1.07229 0.89280
 C900 C 1.03938 1.06232 0.88309
 C901 C 1.04563 1.06829 0.86576
 H902 H 1.03936 1.08025 0.85944
 O903 O 0.98139 0.93363 0.90838
 O904 O 0.98116 0.91212 0.88690
 C905 C 0.97504 0.92719 0.89339
 C906 C 0.96009 0.93711 0.88369
 C907 C 0.95404 0.93125 0.86626
 H908 H 0.96097 0.91991 0.85949
 O909 O 1.09161 1.01715 0.93286
 O910 O 1.11310 1.01699 0.91139
 C911 C 1.10662 1.02336 0.92637
 C912 C 1.11636 1.03838 0.93618
 C913 C 1.13361 1.04463 0.93005
 H914 H 1.13995 1.03824 0.91814
 O915 O 0.90772 0.98224 0.93365
 O916 O 0.88620 0.98222 0.91220
 C917 C 0.89273 0.97596 0.92720
 C918 C 0.88306 0.96096 0.93707
 C919 C 0.86572 0.95479 0.93112
 H920 H 0.85925 0.96123 0.91931
 O921 O 1.06690 1.09097 0.98154
 O922 O 1.08841 1.11239 0.98143
 C923 C 1.07339 1.10594 0.97522
 C924 C 1.06355 1.11565 0.96021
 C925 C 1.06950 1.13300 0.95411
 H926 H 1.08088 1.13971 0.96104
 O927 O 0.93290 0.90865 0.98241
 O928 O 0.91148 0.88713 0.98248
 C929 C 0.92646 0.89362 0.97619
 C930 C 0.93630 0.88387 0.96119
 C931 C 0.93044 0.86642 0.95526
 H932 H 0.91916 0.85968 0.96231
 O933 O 0.93292 0.98221 0.90843
 O934 O 0.91153 0.98223 0.88684
 C935 C 0.92649 0.97594 0.89339
 C936 C 0.93632 0.96092 0.88370
 C937 C 0.93036 0.95477 0.86632
 H938 H 0.91859 0.96126 0.85986
 O939 O 1.06626 1.01704 0.90775
 O940 O 1.08760 1.01687 0.88613
 C941 C 1.07265 1.02319 0.89267
 C942 C 1.06283 1.03820 0.88295
 C943 C 1.06867 1.04415 0.86548
 H944 H 1.07982 1.03698 0.85866
 O945 O 0.98129 0.90838 0.93361
 O946 O 0.98110 0.88675 0.91226
 C947 C 0.97492 0.89338 0.92725
 C948 C 0.95995 0.88377 0.93723
 C949 C 0.95381 0.86637 0.93141
 H950 H 0.96025 0.85984 0.91963
 O951 O 1.01833 1.09117 0.93306
 O952 O 1.01842 1.11262 0.91156
 C953 C 1.02468 1.10610 0.92656
 C954 C 1.03975 1.11573 0.93638
 C955 C 1.04598 1.13303 0.93040
 H956 H 1.03952 1.13950 0.91860
 O957 O 0.90774 0.93390 0.98230
 O958 O 0.88618 0.91252 0.98236
 C959 C 0.89272 0.92747 0.97604
 C960 C 0.88305 0.93727 0.96099
 C961 C 0.86566 0.93138 0.95494
 H962 H 0.85891 0.92007 0.96192
 O963 O 1.09195 1.06559 0.98158
 O964 O 1.11358 1.08689 0.98148
 C965 C 1.10697 1.07193 0.97525
 C966 C 1.11654 1.06205 0.96016
 C967 C 1.13385 1.06800 0.95393
 H968 H 1.14063 1.07933 0.96087
 O969 O 1.01728 0.93324 0.90814
 O970 O 1.01706 0.91174 0.88665
 C971 C 1.02346 0.92669 0.89311
 C972 C 1.03855 0.93634 0.88336
 C973 C 1.04457 0.93024 0.86600
 H974 H 1.03751 0.91894 0.85930
 O975 O 0.98225 1.06599 0.90803
 O976 O 0.98230 1.08730 0.88638
 C977 C 0.97597 1.07238 0.89299
 C978 C 0.96082 1.06262 0.88341
 C979 C 0.95479 1.06846 0.86597
 H980 H 0.96201 1.07954 0.85908
 O981 O 0.90777 1.01813 0.93372
 O982 O 0.88623 1.01816 0.91228
 C983 C 0.89277 1.02442 0.92728
 C984 C 0.88317 1.03952 0.93709
 C985 C 0.86579 1.04559 0.93120
 H986 H 0.85893 1.03839 0.92007
 O987 O 1.09142 0.98125 0.93314
 O988 O 1.11292 0.98101 0.91168
 C989 C 1.10638 0.97486 0.92672
 C990 C 1.11602 0.95992 0.93672
 C991 C 1.13327 0.95355 0.93074
 H992 H 1.13959 0.95972 0.91873
 O993 O 1.06594 0.90828 0.98206
 O994 O 1.08723 0.88664 0.98208
 C995 C 1.07232 0.89327 0.97574
 C996 C 1.06249 0.88367 0.96062
 C997 C 1.06865 0.86650 0.95416
 H998 H 1.08059 0.86015 0.96045
 O999 O 0.93371 1.09201 0.98165
 O1000 O 0.91253 1.11376 0.98154
 C1001 C 0.92743 1.10704 0.97529
 C1002 C 0.93740 1.11655 0.96022
 C1003 C 0.93160 1.13390 0.95396
 H1004 H 0.91984 1.14046 0.96036
 Cu1005 Cu 1.07676 0.99917 0.92256
 Cu1006 Cu 1.10247 0.99893 0.89670
 Cu1007 Cu 0.92249 1.00018 0.92322
 Cu1008 Cu 0.89673 1.00022 0.89740
 Cu1009 Cu 1.07729 1.07622 0.99955
 Cu1010 Cu 1.10319 1.10185 0.99944
 Cu1011 Cu 1.07639 0.92295 1.00014
 Cu1012 Cu 1.10199 0.89702 1.00022
 Cu1013 Cu 0.92307 1.07748 0.99968
 Cu1014 Cu 0.89755 1.10349 0.99958
 Cu1015 Cu 0.92246 0.92350 1.00032
 Cu1016 Cu 0.89666 0.89775 1.00042
 Cu1017 Cu 1.00028 1.07648 0.92267
 Cu1018 Cu 1.00036 1.10215 0.89677
 Cu1019 Cu 0.99930 0.92304 0.92308
 Cu1020 Cu 0.99906 0.89716 0.89737
 C1021 C 1.04755 0.95124 0.89177
 H1022 H 1.04308 0.95589 0.90524
 C1023 C 1.05961 0.93867 0.85718
 C1024 C 0.95176 1.04789 0.89205
 H1025 H 0.95626 1.04339 0.90555
 C1026 C 0.93958 1.06011 0.85735
 C1027 C 0.95235 1.10791 0.95148
 H1028 H 0.95671 1.09439 0.95604
 C1029 C 0.94055 1.14262 0.93915
 C1030 C 1.04734 0.89205 0.95201
 H1031 H 1.04270 0.90542 0.95671
 C1032 C 1.05987 0.85772 0.93928
 C1033 C 1.10758 0.95140 0.95192
 H1034 H 1.09411 0.95599 0.95637
 C1035 C 1.14218 0.93895 0.93985
 C1036 C 0.89177 1.04853 0.95189
 H1037 H 0.90524 1.04399 0.95642
 C1038 C 0.85721 1.06082 0.93956
 C1039 C 1.04802 1.04721 0.89151
 H1040 H 1.04352 1.04277 0.90503
 C1041 C 1.06022 1.05926 0.85676
 C1042 C 0.95128 0.95209 0.89219
 H1043 H 0.95576 0.95655 0.90572
 C1044 C 0.93916 0.93997 0.85746
 C1045 C 1.10801 1.04711 0.95132
 H1046 H 1.09458 1.04257 0.95593
 C1047 C 1.14249 1.05943 0.93885
 C1048 C 0.89153 0.95220 0.95210
 H1049 H 0.90503 0.95669 0.95658
 C1050 C 0.85688 0.94003 0.93999
 C1051 C 1.04854 1.10723 0.95138
 H1052 H 1.04400 1.09376 0.95589
 C1053 C 1.06082 1.14182 0.93920
 C1054 C 0.95119 0.89233 0.95221
 H1055 H 0.95566 0.90587 0.95659
 C1056 C 0.93910 0.85754 0.94037
 O1057 O 1.06657 0.51778 0.59235
 O1058 O 1.08800 0.51773 0.61389
 C1059 C 1.07306 0.52406 0.60735
 C1060 C 1.06332 0.53917 0.61699
 C1061 C 1.06914 0.54520 0.63445
 H1062 H 1.08064 0.53848 0.64117
 O1063 O 0.93408 0.48271 0.59228
 O1064 O 0.91270 0.48296 0.61386
 C1065 C 0.92763 0.47656 0.60735
 C1066 C 0.93731 0.46147 0.61707
 C1067 C 0.93130 0.45548 0.63447
 H1068 H 0.92017 0.46272 0.64124
 O1069 O 1.01894 0.59171 0.56639
 O1070 O 1.01920 0.61340 0.58767
 C1071 C 1.02539 0.60668 0.57272
 C1072 C 1.04050 0.61609 0.56275
 C1073 C 1.04690 0.63339 0.56859
 H1074 H 1.04057 0.63999 0.58039
 O1075 O 0.98174 0.40830 0.56714
 O1076 O 0.98163 0.38681 0.58861
 C1077 C 0.97538 0.39335 0.57362
 C1078 C 0.96028 0.38376 0.56379
 C1079 C 0.95386 0.36659 0.56994
 H1080 H 0.96020 0.36018 0.58184
 O1081 O 1.09217 0.56527 0.51754
 O1082 O 1.11390 0.58646 0.51741
 C1083 C 1.10724 0.57158 0.52377
 C1084 C 1.11680 0.56181 0.53894
 C1085 C 1.13417 0.56772 0.54504
 H1086 H 1.14105 0.57880 0.53782
 O1087 O 0.90826 0.43390 0.51867
 O1088 O 0.88657 0.41267 0.51884
 C1089 C 0.89326 0.42760 0.52506
 C1090 C 0.88375 0.43757 0.54013
 C1091 C 0.86646 0.43169 0.54648
 H1092 H 0.85994 0.41986 0.54015
 O1093 O 0.98285 0.56705 0.59182
 O1094 O 0.98301 0.58858 0.61326
 C1095 C 0.97663 0.57362 0.60680
 C1096 C 0.96157 0.56389 0.61654
 C1097 C 0.95537 0.57003 0.63383
 H1098 H 0.96182 0.58187 0.64021
 O1099 O 1.01777 0.43339 0.59234
 O1100 O 1.01768 0.41203 0.61393
 C1101 C 1.02403 0.42695 0.60736
 C1102 C 1.03910 0.43673 0.61703
 C1103 C 1.04535 0.43063 0.63430
 H1104 H 1.03875 0.41900 0.64092
 O1105 O 1.09139 0.48157 0.56716
 O1106 O 1.11299 0.48149 0.58853
 C1107 C 1.10636 0.47520 0.57357
 C1108 C 1.11589 0.46008 0.56371
 C1109 C 1.13312 0.45369 0.56975
 H1110 H 1.13957 0.46002 0.58163
 O1111 O 0.90906 0.51864 0.56685
 O1112 O 0.88757 0.51889 0.58832
 C1113 C 0.89411 0.52503 0.57328
 C1114 C 0.88451 0.54008 0.56340
 C1115 C 0.86723 0.54632 0.56940
 H1116 H 0.86048 0.53945 0.58080
 O1117 O 0.93454 0.59222 0.51797
 O1118 O 0.91323 0.61383 0.51798
 C1119 C 0.92819 0.60727 0.52422
 C1120 C 0.93808 0.61695 0.53922
 C1121 C 0.93205 0.63423 0.54545
 H1122 H 0.92064 0.64093 0.53858
 O1123 O 1.06584 0.40788 0.51828
 O1124 O 1.08719 0.38630 0.51830
 C1125 C 1.07222 0.39286 0.52456
 C1126 C 1.06238 0.38323 0.53964
 C1127 C 1.06832 0.36589 0.54579
 H1128 H 1.07955 0.35908 0.53872
 O1129 O 0.93429 0.51863 0.59210
 O1130 O 0.91291 0.51889 0.61368
 C1131 C 0.92791 0.52503 0.60710
 C1132 C 0.93781 0.54007 0.61669
 C1133 C 0.93189 0.54630 0.63404
 H1134 H 0.92054 0.53943 0.64084
 O1135 O 1.06627 0.48190 0.59248
 O1136 O 1.08772 0.48180 0.61400
 C1137 C 1.07268 0.47563 0.60752
 C1138 C 1.06276 0.46069 0.61723
 C1139 C 1.06865 0.45455 0.63463
 H1140 H 1.08023 0.46114 0.64134
 O1141 O 1.01765 0.40816 0.56713
 O1142 O 1.01759 0.38668 0.58860
 C1143 C 1.02389 0.39317 0.57360
 C1144 C 1.03887 0.38344 0.56373
 C1145 C 1.04520 0.36624 0.56989
 H1146 H 1.03894 0.36001 0.58191
 O1147 O 0.98303 0.59220 0.56656
 O1148 O 0.98322 0.61387 0.58787
 C1149 C 0.97686 0.60728 0.57294
 C1150 C 0.96184 0.61696 0.56308
 C1151 C 0.95552 0.63419 0.56921
 H1152 H 0.96190 0.64060 0.58110
 O1153 O 0.90921 0.56712 0.51818
 O1154 O 0.88778 0.58862 0.51819
 C1155 C 0.89427 0.57365 0.52451
 C1156 C 0.88461 0.56390 0.53961
 C1157 C 0.86739 0.57005 0.54591
 H1158 H 0.86102 0.58192 0.53950
 O1159 O 1.09109 0.43310 0.51834
 O1160 O 1.11254 0.41162 0.51839
 C1161 C 1.10606 0.42662 0.52465
 C1162 C 1.11576 0.43640 0.53973
 C1163 C 1.13305 0.43032 0.54587
 H1164 H 1.13972 0.41895 0.53888
 O1165 O 0.98187 0.43356 0.59233
 O1166 O 0.98172 0.41220 0.61393
 C1167 C 0.97553 0.42719 0.60735
 C1168 C 0.96058 0.43718 0.61700
 C1169 C 0.95416 0.43117 0.63425
 H1170 H 0.96029 0.41913 0.64055
 O1171 O 1.01872 0.56684 0.59193
 O1172 O 1.01894 0.58839 0.61337
 C1173 C 1.02505 0.57331 0.60693
 C1174 C 1.03991 0.56335 0.61672
 C1175 C 1.04598 0.56925 0.63413
 H1176 H 1.03932 0.58082 0.64078
 O1177 O 0.90882 0.48272 0.56704
 O1178 O 0.88733 0.48296 0.58851
 C1179 C 0.89379 0.47658 0.57353
 C1180 C 0.88399 0.46157 0.56378
 C1181 C 0.86663 0.45559 0.56983
 H1182 H 0.85998 0.46263 0.58119
 O1183 O 1.09163 0.51749 0.56698
 O1184 O 1.11321 0.51749 0.58836
 C1185 C 1.10668 0.52373 0.57335
 C1186 C 1.11645 0.53859 0.56333
 C1187 C 1.13369 0.54492 0.56943
 H1188 H 1.13989 0.53878 0.58153
 O1189 O 0.93324 0.40848 0.51854
 O1190 O 0.91167 0.38711 0.51870
 C1191 C 0.92673 0.39354 0.52488
 C1192 C 0.93653 0.38384 0.53992
 C1193 C 0.93040 0.36660 0.54617
 H1194 H 0.91896 0.35995 0.53929
 O1195 O 1.06724 0.59081 0.51756
 O1196 O 1.08887 0.61211 0.51743
 C1197 C 1.07384 0.60578 0.52376
 C1198 C 1.06414 0.61566 0.53878
 C1199 C 1.07025 0.63302 0.54472
 H1200 H 1.08162 0.63960 0.53766
 Cu1201 Cu 1.07682 0.49969 0.57760
 Cu1202 Cu 1.10265 0.49963 0.60334
 Cu1203 Cu 0.92371 0.50065 0.57742
 Cu1204 Cu 0.89798 0.50095 0.60326
 Cu1205 Cu 1.00086 0.57730 0.57703
 Cu1206 Cu 1.00112 0.60325 0.60269
 Cu1207 Cu 0.99977 0.42299 0.57758
 Cu1208 Cu 0.99964 0.39727 0.60343
 C1209 C 1.04856 0.54821 0.60834
 H1210 H 1.04413 0.54376 0.59479
 C1211 C 1.06055 0.56023 0.64311
 C1212 C 0.95212 0.45239 0.60859
 H1213 H 0.95674 0.45687 0.59511
 C1214 C 0.93956 0.44027 0.64318
 C1215 C 1.04913 0.60741 0.54775
 H1216 H 1.04447 0.59394 0.54335
 C1217 C 1.06174 0.64201 0.55963
 C1218 C 0.95161 0.39220 0.54869
 H1219 H 0.95628 0.40559 0.54407
 C1220 C 0.93894 0.35787 0.56120
 C1221 C 1.10818 0.54707 0.54802
 H1222 H 1.09472 0.54253 0.54347
 C1223 C 1.14273 0.55945 0.56035
 C1224 C 0.89233 0.45260 0.54879
 H1225 H 0.90580 0.45702 0.54416
 C1226 C 0.85774 0.44063 0.56131
 C1227 C 0.95278 0.54883 0.60816
 H1228 H 0.95729 0.54421 0.59469
 C1229 C 0.94055 0.56130 0.64272
 C1230 C 1.04782 0.45184 0.60867
 H1231 H 1.04330 0.45640 0.59519
 C1232 C 1.06004 0.43951 0.64320
 C1233 C 1.10739 0.45142 0.54861
 H1234 H 1.09397 0.45606 0.54406
 C1235 C 1.14185 0.43883 0.56090
 C1236 C 0.89299 0.54883 0.54837
 H1237 H 0.90640 0.54421 0.54379
 C1238 C 0.85855 0.56133 0.56079
 C1239 C 0.95312 0.60853 0.54800
 H1240 H 0.95770 0.59510 0.54339
 C1241 C 0.94064 0.64296 0.56048
 C1242 C 1.04750 0.39177 0.54854
 H1243 H 1.04294 0.40520 0.54395
 C1244 C 1.05989 0.35728 0.56098
 O1245 O 1.06594 0.48087 0.40766
 O1246 O 1.08731 0.48060 0.38607
 C1247 C 1.07230 0.47448 0.39265
 C1248 C 1.06234 0.45948 0.38306
 C1249 C 1.06821 0.45317 0.36571
 H1250 H 1.07991 0.45961 0.35906
 O1251 O 0.93358 0.51769 0.40853
 O1252 O 0.91209 0.51780 0.38706
 C1253 C 0.92713 0.52398 0.39352
 C1254 C 0.93703 0.53892 0.38376
 C1255 C 0.93086 0.54527 0.36654
 H1256 H 0.91891 0.53898 0.36021
 O1257 O 0.98254 0.59147 0.43312
 O1258 O 0.98260 0.61289 0.41159
 C1259 C 0.97631 0.60646 0.42661
 C1260 C 0.96131 0.61623 0.43642
 C1261 C 0.95493 0.63337 0.43014
 H1262 H 0.96120 0.63962 0.41813
 O1263 O 1.01738 0.40776 0.43372
 O1264 O 1.01719 0.38610 0.41240
 C1265 C 1.02359 0.39272 0.42731
 C1266 C 1.03870 0.38312 0.43710
 C1267 C 1.04511 0.36594 0.43090
 H1268 H 1.03874 0.35953 0.41902
 O1269 O 1.09117 0.43303 0.48234
 O1270 O 1.11266 0.41159 0.48239
 C1271 C 1.10617 0.42656 0.47608
 C1272 C 1.11585 0.43628 0.46097
 C1273 C 1.13328 0.43039 0.45503
 H1274 H 1.14010 0.41931 0.46230
 O1275 O 0.90904 0.56700 0.48219
 O1276 O 0.88762 0.58851 0.48217
 C1277 C 0.89406 0.57349 0.47591
 C1278 C 0.88431 0.56366 0.46090
 C1279 C 0.86712 0.56987 0.45456
 H1280 H 0.86082 0.58181 0.46089
 O1281 O 1.01834 0.56598 0.40796
 O1282 O 1.01842 0.58730 0.38633
 C1283 C 1.02462 0.57233 0.39291
 C1284 C 1.03952 0.56234 0.38317
 C1285 C 1.04584 0.56838 0.36590
 H1286 H 1.03968 0.58042 0.35965
 O1287 O 0.98147 0.43301 0.40857
 O1288 O 0.98116 0.41146 0.38714
 C1289 C 0.97505 0.42653 0.39362
 C1290 C 0.96000 0.43639 0.38401
 C1291 C 0.95364 0.43032 0.36676
 H1292 H 0.96053 0.41895 0.36001
 O1293 O 1.09137 0.51670 0.43281
 O1294 O 1.11284 0.51650 0.41132
 C1295 C 1.10639 0.52287 0.42631
 C1296 C 1.11616 0.53790 0.43606
 C1297 C 1.13331 0.54420 0.42972
 H1298 H 1.13984 0.53739 0.41815
 O1299 O 0.90812 0.48220 0.43410
 O1300 O 0.88650 0.48228 0.41275
 C1301 C 0.89303 0.47605 0.42776
 C1302 C 0.88327 0.46116 0.43771
 C1303 C 0.86588 0.45513 0.43180
 H1304 H 0.85915 0.46208 0.42045
 O1305 O 1.06714 0.59074 0.48159
 O1306 O 1.08877 0.61204 0.48146
 C1307 C 1.07371 0.60565 0.47525
 C1308 C 1.06392 0.61539 0.46022
 C1309 C 1.07018 0.63255 0.45384
 H1310 H 1.08213 0.63884 0.46017
 O1311 O 0.93306 0.40846 0.48259
 O1312 O 0.91150 0.38708 0.48272
 C1313 C 0.92649 0.39349 0.47636
 C1314 C 0.93621 0.38369 0.46132
 C1315 C 0.93011 0.36637 0.45526
 H1316 H 0.91858 0.35980 0.46206
 O1317 O 0.93319 0.48173 0.40872
 O1318 O 0.91168 0.48180 0.38727
 C1319 C 0.92659 0.47539 0.39379
 C1320 C 0.93620 0.46017 0.38416
 C1321 C 0.92985 0.45371 0.36704
 H1322 H 0.91787 0.46003 0.36081
 O1323 O 1.06607 0.51676 0.40764
 O1324 O 1.08742 0.51654 0.38603
 C1325 C 1.07250 0.52293 0.39258
 C1326 C 1.06279 0.53805 0.38293
 C1327 C 1.06872 0.54408 0.36552
 H1328 H 1.07983 0.53688 0.35867
 O1329 O 0.98147 0.40784 0.43385
 O1330 O 0.98122 0.38615 0.41256
 C1331 C 0.97508 0.39282 0.42755
 C1332 C 0.96006 0.38330 0.43754
 C1333 C 0.95383 0.36594 0.43174
 H1334 H 0.96033 0.35922 0.42010
 O1335 O 1.01845 0.59113 0.43328
 O1336 O 1.01856 0.61258 0.41177
 C1337 C 1.02481 0.60606 0.42678
 C1338 C 1.03997 0.61562 0.43654
 C1339 C 1.04635 0.63281 0.43043
 H1340 H 1.03951 0.63956 0.41901
 O1341 O 0.90798 0.43377 0.48269
 O1342 O 0.88629 0.41252 0.48282
 C1343 C 0.89290 0.42743 0.47648
 C1344 C 0.88323 0.43732 0.46148
 C1345 C 0.86590 0.43137 0.45527
 H1346 H 0.85945 0.41956 0.46170
 O1347 O 1.09204 0.56525 0.48150
 O1348 O 1.11376 0.58645 0.48136
 C1349 C 1.10703 0.57156 0.47509
 C1350 C 1.11647 0.56172 0.45989
 C1351 C 1.13354 0.56791 0.45326
 H1352 H 1.13999 0.57981 0.45953
 O1353 O 1.01734 0.43264 0.40820
 O1354 O 1.01709 0.41110 0.38676
 C1355 C 1.02349 0.42607 0.39318
 C1356 C 1.03851 0.43574 0.38336
 C1357 C 1.04461 0.42957 0.36605
 H1358 H 1.03779 0.41805 0.35946
 O1359 O 0.98244 0.56592 0.40821
 O1360 O 0.98248 0.58722 0.38655
 C1361 C 0.97617 0.57230 0.39317
 C1362 C 0.96104 0.56251 0.38359
 C1363 C 0.95477 0.56856 0.36631
 H1364 H 0.96167 0.57991 0.35955
 O1365 O 0.90851 0.51809 0.43390
 O1366 O 0.88690 0.51819 0.41254
 C1367 C 0.89355 0.52447 0.42748
 C1368 C 0.88406 0.53966 0.43726
 C1369 C 0.86683 0.54598 0.43120
 H1370 H 0.86005 0.53909 0.41983
 O1371 O 1.09107 0.48081 0.43299
 O1372 O 1.11258 0.48055 0.41153
 C1373 C 1.10603 0.47442 0.42657
 C1374 C 1.11569 0.45951 0.43661
 C1375 C 1.13298 0.45321 0.43066
 H1376 H 1.13929 0.45939 0.41863
 O1377 O 1.06589 0.40787 0.48230
 O1378 O 1.08727 0.38632 0.48231
 C1379 C 1.07231 0.39286 0.47601
 C1380 C 1.06251 0.38319 0.46092
 C1381 C 1.06866 0.36598 0.45460
 H1382 H 1.08014 0.35933 0.46140
 O1383 O 0.93440 0.59203 0.48201
 O1384 O 0.91310 0.61365 0.48199
 C1385 C 0.92801 0.60702 0.47568
 C1386 C 0.93776 0.61652 0.46048
 C1387 C 0.93167 0.63372 0.45410
 H1388 H 0.92032 0.64050 0.46100
 Cu1389 Cu 1.07647 0.49880 0.42242
 Cu1390 Cu 1.10219 0.49852 0.39657
 Cu1391 Cu 0.92302 0.49992 0.42344
 Cu1392 Cu 0.89713 0.50003 0.39774
 Cu1393 Cu 1.07749 0.57588 0.49956
 Cu1394 Cu 1.10352 0.60138 0.49942
 Cu1395 Cu 1.07636 0.42262 0.50031
 Cu1396 Cu 1.10206 0.39680 0.50036
 Cu1397 Cu 0.92393 0.57743 0.50009
 Cu1398 Cu 0.89828 0.60332 0.50009
 Cu1399 Cu 0.92279 0.42329 0.50060
 Cu1400 Cu 0.89683 0.39770 0.50079
 Cu1401 Cu 1.00044 0.57650 0.42281
 Cu1402 Cu 1.00052 0.60215 0.39689
 Cu1403 Cu 0.99944 0.42247 0.42322
 Cu1404 Cu 0.99913 0.39652 0.39757
 C1405 C 1.04737 0.45080 0.39166
 H1406 H 1.04291 0.45545 0.40513
 C1407 C 1.05942 0.43823 0.35711
 C1408 C 0.95222 0.54754 0.39209
 H1409 H 0.95686 0.54293 0.40551
 C1410 C 0.93965 0.56008 0.35769
 C1411 C 0.95272 0.60799 0.45168
 H1412 H 0.95736 0.59463 0.45641
 C1413 C 0.94011 0.64225 0.43890
 C1414 C 1.04741 0.39155 0.45220
 H1415 H 1.04273 0.40492 0.45687
 C1416 C 1.06008 0.35725 0.43957
 C1417 C 1.10730 0.45101 0.45183
 H1418 H 1.09380 0.45555 0.45626
 C1419 C 1.14197 0.43870 0.43982
 C1420 C 0.89259 0.54846 0.45224
 H1421 H 0.90597 0.54378 0.45686
 C1422 C 0.85825 0.56111 0.43972
 C1423 C 1.04803 0.54711 0.39152
 H1424 H 1.04347 0.54261 0.40500
 C1425 C 1.06040 0.55930 0.35688
 C1426 C 0.95134 0.45148 0.39247
 H1427 H 0.95608 0.45615 0.40584
 C1428 C 0.93851 0.43882 0.35816
 C1429 C 1.10796 0.54662 0.45127
 H1430 H 1.09464 0.54198 0.45611
 C1431 C 1.14210 0.55924 0.43819
 C1432 C 0.89172 0.45230 0.45269
 H1433 H 0.90523 0.45676 0.45719
 C1434 C 0.85708 0.44021 0.44046
 C1435 C 1.04872 0.60713 0.45157
 H1436 H 1.04401 0.59377 0.45622
 C1437 C 1.06147 0.64139 0.43896
 C1438 C 0.95129 0.39197 0.45247
 H1439 H 0.95589 0.40545 0.45689
 C1440 C 0.93887 0.35738 0.44052
 O1441 O 0.48172 0.93303 0.40808
 O1442 O 0.48167 0.91148 0.38665
 C1443 C 0.47542 0.92649 0.39311
 C1444 C 0.46043 0.93630 0.38336
 C1445 C 0.45412 0.93013 0.36612
 H1446 H 0.46039 0.91812 0.35988
 O1447 O 0.51839 1.06546 0.40740
 O1448 O 0.51855 1.08676 0.38574
 C1449 C 0.52469 1.07176 0.39233
 C1450 C 0.53962 1.06175 0.38269
 C1451 C 0.54564 1.06741 0.36518
 H1452 H 0.53898 1.07887 0.35835
 O1453 O 0.40853 0.98206 0.43309
 O1454 O 0.38697 0.98196 0.41168
 C1455 C 0.39350 0.97579 0.42672
 C1456 C 0.38381 0.96085 0.43669
 C1457 C 0.36644 0.95476 0.43079
 H1458 H 0.35970 0.96167 0.41941
 O1459 O 0.59209 1.01715 0.43317
 O1460 O 0.61364 1.01693 0.41175
 C1461 C 0.60711 1.02334 0.42669
 C1462 C 0.61679 1.03842 0.43646
 C1463 C 0.63407 1.04462 0.43038
 H1464 H 0.64049 1.03815 0.41856
 O1465 O 0.43347 0.90840 0.48238
 O1466 O 0.41200 0.88693 0.48246
 C1467 C 0.42703 0.89335 0.47621
 C1468 C 0.43687 0.88353 0.46126
 C1469 C 0.43097 0.86608 0.45534
 H1470 H 0.41978 0.85935 0.46251
 O1471 O 0.56694 1.09105 0.48139
 O1472 O 0.58837 1.11256 0.48128
 C1473 C 0.57339 1.10601 0.47504
 C1474 C 0.56357 1.11561 0.45994
 C1475 C 0.56948 1.13297 0.45380
 H1476 H 0.58108 1.13961 0.46042
 O1477 O 0.43375 1.01770 0.40752
 O1478 O 0.41234 1.01763 0.38596
 C1479 C 0.42733 1.02389 0.39246
 C1480 C 0.43725 1.03880 0.38269
 C1481 C 0.43125 1.04498 0.36536
 H1482 H 0.41939 1.03861 0.35895
 O1483 O 0.56676 0.98111 0.40823
 O1484 O 0.58818 0.98082 0.38669
 C1485 C 0.57318 0.97467 0.39327
 C1486 C 0.56324 0.95965 0.38365
 C1487 C 0.56929 0.95322 0.36642
 H1488 H 0.58131 0.95939 0.36011
 O1489 O 0.51758 0.90798 0.43353
 O1490 O 0.51758 0.88631 0.41221
 C1491 C 0.52384 0.89292 0.42718
 C1492 C 0.53879 0.88325 0.43714
 C1493 C 0.54497 0.86590 0.43121
 H1494 H 0.53856 0.85944 0.41937
 O1495 O 0.48264 1.09094 0.43258
 O1496 O 0.48275 1.11238 0.41106
 C1497 C 0.47643 1.10593 0.42607
 C1498 C 0.46136 1.11566 0.43581
 C1499 C 0.45508 1.13284 0.42954
 H1500 H 0.46193 1.13943 0.41804
 O1501 O 0.40850 1.06643 0.48134
 O1502 O 0.38712 1.08799 0.48118
 C1503 C 0.39354 1.07293 0.47500
 C1504 C 0.38387 1.06311 0.45995
 C1505 C 0.36667 1.06926 0.45358
 H1506 H 0.36007 1.08094 0.46011
 O1507 O 0.59151 0.93293 0.48217
 O1508 O 0.61289 0.91138 0.48229
 C1509 C 0.60647 0.92636 0.47593
 C1510 C 0.61624 0.93606 0.46086
 C1511 C 0.63349 0.92988 0.45465
 H1512 H 0.63981 0.91802 0.46110
 O1513 O 0.48253 1.06575 0.40731
 O1514 O 0.48266 1.08707 0.38567
 C1515 C 0.47631 1.07215 0.39225
 C1516 C 0.46125 1.06237 0.38258
 C1517 C 0.45515 1.06829 0.36519
 H1518 H 0.46213 1.07958 0.35840
 O1519 O 0.51762 0.93313 0.40822
 O1520 O 0.51762 0.91159 0.38677
 C1521 C 0.52390 0.92660 0.39324
 C1522 C 0.53901 0.93630 0.38356
 C1523 C 0.54507 0.93027 0.36619
 H1524 H 0.53789 0.91909 0.35941
 O1525 O 0.59195 0.98126 0.43349
 O1526 O 0.61350 0.98099 0.41208
 C1527 C 0.60693 0.97488 0.42712
 C1528 C 0.61649 0.95987 0.43707
 C1529 C 0.63379 0.95361 0.43115
 H1530 H 0.64060 0.96048 0.41979
 O1531 O 0.40854 1.01799 0.43272
 O1532 O 0.38702 1.01793 0.41127
 C1533 C 0.39359 1.02430 0.42621
 C1534 C 0.38401 1.03947 0.43592
 C1535 C 0.36695 1.04599 0.42959
 H1536 H 0.36040 1.03952 0.41782
 O1537 O 0.43395 1.09140 0.48114
 O1538 O 0.41269 1.11307 0.48097
 C1539 C 0.42760 1.10638 0.47472
 C1540 C 0.43746 1.11585 0.45955
 C1541 C 0.43131 1.13297 0.45299
 H1542 H 0.41941 1.13940 0.45927
 O1543 O 0.56598 0.90803 0.48233
 O1544 O 0.58724 0.88637 0.48246
 C1545 C 0.57231 0.89295 0.47614
 C1546 C 0.56244 0.88325 0.46112
 C1547 C 0.56833 0.86585 0.45508
 H1548 H 0.57963 0.85909 0.46208
 O1549 O 0.56693 1.01703 0.40791
 O1550 O 0.58835 1.01680 0.38636
 C1551 C 0.57340 1.02318 0.39285
 C1552 C 0.56361 1.03813 0.38305
 C1553 C 0.56962 1.04417 0.36567
 H1554 H 0.58123 1.03752 0.35907
 O1555 O 0.43361 0.98182 0.40769
 O1556 O 0.41219 0.98172 0.38615
 C1557 C 0.42716 0.97548 0.39270
 C1558 C 0.43694 0.96037 0.38310
 C1559 C 0.43101 0.95420 0.36573
 H1560 H 0.41981 0.96127 0.35889
 O1561 O 0.51857 1.09082 0.43253
 O1562 O 0.51873 1.11226 0.41101
 C1563 C 0.52494 1.10576 0.42604
 C1564 C 0.53997 1.11543 0.43590
 C1565 C 0.54615 1.13273 0.42988
 H1566 H 0.53946 1.13939 0.41832
 O1567 O 0.48168 0.90809 0.43355
 O1568 O 0.48163 0.88641 0.41225
 C1569 C 0.47537 0.89306 0.42720
 C1570 C 0.46038 0.88346 0.43716
 C1571 C 0.45409 0.86615 0.43123
 H1572 H 0.46036 0.85976 0.41929
 O1573 O 0.59214 1.06583 0.48154
 O1574 O 0.61369 1.08721 0.48141
 C1575 C 0.60715 1.07220 0.47523
 C1576 C 0.61682 1.06227 0.46024
 C1577 C 0.63415 1.06819 0.45407
 H1578 H 0.64089 1.07959 0.46095
 O1579 O 0.40838 0.93375 0.48201
 O1580 O 0.38679 0.91242 0.48206
 C1581 C 0.39339 0.92732 0.47569
 C1582 C 0.38378 0.93710 0.46056
 C1583 C 0.36647 0.93110 0.45435
 H1584 H 0.36002 0.91932 0.46084
 Cu1585 Cu 0.49965 0.92272 0.42298
 Cu1586 Cu 0.49963 0.89678 0.39732
 Cu1587 Cu 0.50053 1.07611 0.42211
 Cu1588 Cu 0.50069 1.10178 0.39621
 Cu1589 Cu 0.42325 0.99990 0.42241
 Cu1590 Cu 0.39746 0.99978 0.39661
 Cu1591 Cu 0.57729 0.99917 0.42284
 Cu1592 Cu 0.60308 0.99885 0.39706
 C1593 C 0.45181 0.95149 0.39167
 H1594 H 0.45637 0.95609 0.40513
 C1595 C 0.43945 0.93903 0.35711
 C1596 C 0.54853 1.04695 0.39138
 H1597 H 0.54404 1.04260 0.40494
 C1598 C 0.56064 1.05871 0.35662
 C1599 C 0.39227 0.95206 0.45171
 H1600 H 0.40575 0.95657 0.45623
 C1601 C 0.35765 0.93986 0.43950
 C1602 C 0.60836 1.04725 0.45148
 H1603 H 0.59490 1.04273 0.45605
 C1604 C 0.64289 1.05949 0.43912
 C1605 C 0.45174 0.89197 0.45225
 H1606 H 0.45628 0.90548 0.45666
 C1607 C 0.43943 0.85727 0.44026
 C1608 C 0.54867 1.10705 0.45102
 H1609 H 0.54416 1.09358 0.45556
 C1610 C 0.56085 1.14162 0.43879
 C1611 C 0.45234 1.04749 0.39111
 H1612 H 0.45684 1.04298 0.40461
 C1613 C 0.44014 1.05971 0.35646
 C1614 C 0.54803 0.95116 0.39206
 H1615 H 0.54351 0.95580 0.40551
 C1616 C 0.56026 0.93858 0.35750
 C1617 C 0.54753 0.89174 0.45219
 H1618 H 0.54304 0.90525 0.45665
 C1619 C 0.55971 0.85706 0.44011
 C1620 C 0.45258 1.10738 0.45095
 H1621 H 0.45721 1.09404 0.45573
 C1622 C 0.44004 1.14160 0.43801
 C1623 C 0.39230 1.04805 0.45118
 H1624 H 0.40563 1.04333 0.45591
 C1625 C 0.35818 1.06080 0.43839
 C1626 C 0.60794 0.95114 0.45206
 H1627 H 0.59450 0.95578 0.45657
 C1628 C 0.64241 0.93859 0.43981
 O1629 O 0.51770 0.93416 0.59216
 O1630 O 0.51762 0.91289 0.61385
 C1631 C 0.52393 0.92782 0.60724
 C1632 C 0.53897 0.93767 0.61690
 C1633 C 0.54507 0.93176 0.63428
 H1634 H 0.53811 0.92046 0.64107
 O1635 O 0.48232 1.06696 0.59129
 O1636 O 0.48232 1.08854 0.61269
 C1637 C 0.47602 1.07354 0.60624
 C1638 C 0.46094 1.06384 0.61596
 C1639 C 0.45480 1.06994 0.63328
 H1640 H 0.46172 1.08134 0.63996
 O1641 O 0.40834 1.01874 0.56631
 O1642 O 0.38680 1.01896 0.58774
 C1643 C 0.39339 1.02514 0.57274
 C1644 C 0.38383 1.04020 0.56284
 C1645 C 0.36675 1.04681 0.56905
 H1646 H 0.36039 1.04063 0.58105
 O1647 O 0.59164 0.98202 0.56665
 O1648 O 0.61319 0.98200 0.58807
 C1649 C 0.60659 0.97568 0.57311
 C1650 C 0.61616 0.96055 0.56330
 C1651 C 0.63342 0.95426 0.56934
 H1652 H 0.63989 0.96070 0.58115
 O1653 O 0.56608 0.90821 0.51831
 O1654 O 0.58735 0.88656 0.51846
 C1655 C 0.57243 0.89322 0.52470
 C1656 C 0.56261 0.88373 0.53987
 C1657 C 0.56863 0.86649 0.54622
 H1658 H 0.57998 0.85970 0.53933
 O1659 O 0.43393 1.09166 0.51716
 O1660 O 0.41269 1.11334 0.51702
 C1661 C 0.42759 1.10673 0.52337
 C1662 C 0.43744 1.11642 0.53841
 C1663 C 0.43135 1.13368 0.54466
 H1664 H 0.41968 1.14027 0.53809
 O1665 O 0.43333 0.98278 0.59169
 O1666 O 0.41188 0.98294 0.61321
 C1667 C 0.42683 0.97658 0.60672
 C1668 C 0.43658 0.96154 0.61647
 C1669 C 0.43035 0.95526 0.63370
 H1670 H 0.41846 0.96167 0.64002
 O1671 O 0.56674 1.01830 0.59168
 O1672 O 0.58816 1.01836 0.61323
 C1673 C 0.57324 1.02468 0.60664
 C1674 C 0.56347 1.03984 0.61621
 C1675 C 0.56964 1.04635 0.63338
 H1676 H 0.58163 1.04013 0.63968
 O1677 O 0.48181 0.90883 0.56700
 O1678 O 0.48169 0.88743 0.58855
 C1679 C 0.47546 0.89389 0.57351
 C1680 C 0.46037 0.88426 0.56372
 C1681 C 0.45397 0.86709 0.56990
 H1682 H 0.46040 0.86057 0.58169
 O1683 O 0.51852 1.09177 0.56606
 O1684 O 0.51858 1.11345 0.58735
 C1685 C 0.52488 1.10677 0.57244
 C1686 C 0.54002 1.11626 0.56259
 C1687 C 0.54650 1.13345 0.56869
 H1688 H 0.54020 1.13991 0.58058
 O1689 O 0.40815 0.93402 0.51800
 O1690 O 0.38654 0.91269 0.51809
 C1691 C 0.39311 0.92768 0.52429
 C1692 C 0.38344 0.93767 0.53925
 C1693 C 0.36614 0.93171 0.54554
 H1694 H 0.35970 0.91985 0.53919
 O1695 O 0.59211 1.06601 0.51749
 O1696 O 0.61368 1.08736 0.51739
 C1697 C 0.60713 1.07243 0.52373
 C1698 C 0.61677 1.06265 0.53883
 C1699 C 0.63413 1.06860 0.54495
 H1700 H 0.64089 1.07992 0.53798
 O1701 O 0.51821 1.06668 0.59140
 O1702 O 0.51825 1.08825 0.61282
 C1703 C 0.52446 1.07319 0.60641
 C1704 C 0.53946 1.06340 0.61618
 C1705 C 0.54560 1.06950 0.63350
 H1706 H 0.53853 1.08078 0.64021
 O1707 O 0.48181 0.93422 0.59208
 O1708 O 0.48168 0.91294 0.61376
 C1709 C 0.47547 0.92788 0.60712
 C1710 C 0.46039 0.93777 0.61668
 C1711 C 0.45406 0.93177 0.63395
 H1712 H 0.46086 0.92037 0.64073
 O1713 O 0.59191 1.01793 0.56643
 O1714 O 0.61347 1.01796 0.58785
 C1715 C 0.60695 1.02416 0.57282
 C1716 C 0.61668 1.03906 0.56285
 C1717 C 0.63399 1.04527 0.56885
 H1718 H 0.64040 1.03891 0.58073
 O1719 O 0.40824 0.98284 0.56630
 O1720 O 0.38668 0.98302 0.58770
 C1721 C 0.39320 0.97668 0.57272
 C1722 C 0.38348 0.96166 0.56290
 C1723 C 0.36613 0.95561 0.56889
 H1724 H 0.35941 0.96261 0.58024
 O1725 O 0.56696 1.09129 0.51738
 O1726 O 0.58843 1.11275 0.51729
 C1727 C 0.57344 1.10630 0.52360
 C1728 C 0.56370 1.11605 0.53865
 C1729 C 0.56987 1.13331 0.54484
 H1730 H 0.58129 1.13992 0.53790
 O1731 O 0.43333 0.90881 0.51834
 O1732 O 0.41183 0.88737 0.51845
 C1733 C 0.42679 0.89391 0.52475
 C1734 C 0.43650 0.88434 0.53994
 C1735 C 0.43023 0.86723 0.54639
 H1736 H 0.41862 0.86062 0.53974
 O1737 O 0.56650 0.98238 0.59195
 O1738 O 0.58791 0.98238 0.61350
 C1739 C 0.57290 0.97616 0.60700
 C1740 C 0.56295 0.96126 0.61677
 C1741 C 0.56896 0.95507 0.63411
 H1742 H 0.58082 0.96144 0.64052
 O1743 O 0.43357 1.01871 0.59150
 O1744 O 0.41216 1.01891 0.61304
 C1745 C 0.42715 1.02510 0.60648
 C1746 C 0.43704 1.04015 0.61608
 C1747 C 0.43102 1.04652 0.63335
 H1748 H 0.41918 1.04016 0.63982
 O1749 O 0.48261 1.09193 0.56577
 O1750 O 0.48262 1.11364 0.58704
 C1751 C 0.47640 1.10703 0.57205
 C1752 C 0.46145 1.11668 0.56206
 C1753 C 0.45532 1.13407 0.56793
 H1754 H 0.46193 1.14081 0.57950
 O1755 O 0.51772 0.90874 0.56710
 O1756 O 0.51766 0.88735 0.58867
 C1757 C 0.52397 0.89377 0.57365
 C1758 C 0.53898 0.88401 0.56386
 C1759 C 0.54530 0.86682 0.57011
 H1760 H 0.53896 0.86053 0.58206
 O1761 O 0.59137 0.93334 0.51814
 O1762 O 0.61276 0.91180 0.51829
 C1763 C 0.60633 0.92686 0.52447
 C1764 C 0.61604 0.93673 0.53948
 C1765 C 0.63336 0.93072 0.54562
 H1766 H 0.64004 0.91930 0.53872
 O1767 O 0.40853 1.06667 0.51729
 O1768 O 0.38718 1.08825 0.51716
 C1769 C 0.39360 1.07328 0.52355
 C1770 C 0.38392 1.06370 0.53874
 C1771 C 0.36678 1.07004 0.54506
 H1772 H 0.36017 1.08148 0.53815
 Cu1773 Cu 0.49977 0.92361 0.57742
 Cu1774 Cu 0.49966 0.89801 0.60338
 Cu1775 Cu 0.50041 1.07718 0.57649
 Cu1776 Cu 0.50043 1.10315 0.60212
 Cu1777 Cu 0.42298 0.92339 0.50017
 Cu1778 Cu 0.39712 0.89771 0.50026
 Cu1779 Cu 0.57660 0.92279 0.50021
 Cu1780 Cu 0.60220 0.89685 0.50039
 Cu1781 Cu 0.42336 1.07688 0.49924
 Cu1782 Cu 0.39779 1.10285 0.49906
 Cu1783 Cu 0.57738 1.07640 0.49946
 Cu1784 Cu 0.60320 1.10213 0.49933
 Cu1785 Cu 0.42302 1.00074 0.57681
 Cu1786 Cu 0.39722 1.00097 0.60259
 Cu1787 Cu 0.57705 1.00016 0.57703
 Cu1788 Cu 0.60284 1.00017 0.60282
 C1789 C 0.54786 0.95256 0.60836
 H1790 H 0.54335 0.95706 0.59486
 C1791 C 0.56009 0.94034 0.64300
 C1792 C 0.45209 1.04881 0.60758
 H1793 H 0.45663 1.04416 0.59413
 C1794 C 0.43983 1.06138 0.64210
 C1795 C 0.39222 1.04865 0.54759
 H1796 H 0.40554 1.04383 0.54291
 C1797 C 0.35809 1.06171 0.56024
 C1798 C 0.60766 0.95178 0.54828
 H1799 H 0.59422 0.95636 0.54373
 C1800 C 0.64216 0.93937 0.56057
 C1801 C 0.54765 0.89228 0.54866
 H1802 H 0.54307 0.90566 0.54396
 C1803 C 0.56012 0.85793 0.56136
 C1804 C 0.45257 1.10809 0.54713
 H1805 H 0.45712 1.09462 0.54263
 C1806 C 0.44025 1.14260 0.55933
 C1807 C 0.45169 0.95279 0.60815
 H1808 H 0.45637 0.95735 0.59473
 C1809 C 0.43901 0.94040 0.64257
 C1810 C 0.54832 1.04841 0.60778
 H1811 H 0.54373 1.04372 0.59436
 C1812 C 0.56075 1.06114 0.64222
 C1813 C 0.45166 0.89267 0.54861
 H1814 H 0.45639 0.90600 0.54389
 C1815 C 0.43889 0.85850 0.56134
 C1816 C 0.54864 1.10775 0.54749
 H1817 H 0.54392 1.09436 0.54291
 C1818 C 0.56141 1.14211 0.55988
 C1819 C 0.39191 0.95274 0.54794
 H1820 H 0.40539 0.95721 0.54338
 C1821 C 0.35735 0.94061 0.56034
 C1822 C 0.60827 1.04775 0.54774
 H1823 H 0.59480 1.04322 0.54323
 C1824 C 0.64285 1.06002 0.55997
 O1825 O 0.48188 0.43310 0.90856
 O1826 O 0.48176 0.41150 0.88718
 C1827 C 0.47551 0.42652 0.89363
 C1828 C 0.46045 0.43630 0.88393
 C1829 C 0.45397 0.42999 0.86680
 H1830 H 0.46020 0.41798 0.86052
 O1831 O 0.51873 0.56562 0.90781
 O1832 O 0.51894 0.58696 0.88618
 C1833 C 0.52508 0.57196 0.89277
 C1834 C 0.54005 0.56201 0.88315
 C1835 C 0.54620 0.56786 0.86576
 H1836 H 0.53929 0.57919 0.85896
 O1837 O 0.40862 0.48235 0.93348
 O1838 O 0.38710 0.48229 0.91204
 C1839 C 0.39360 0.47610 0.92708
 C1840 C 0.38389 0.46114 0.93698
 C1841 C 0.36670 0.45481 0.93081
 H1842 H 0.36007 0.46156 0.91927
 O1843 O 0.59204 0.51701 0.93353
 O1844 O 0.61365 0.51684 0.91219
 C1845 C 0.60708 0.52322 0.92713
 C1846 C 0.61674 0.53827 0.93697
 C1847 C 0.63394 0.54462 0.93081
 H1848 H 0.64031 0.53826 0.91890
 O1849 O 0.43340 0.40879 0.98251
 O1850 O 0.41190 0.38735 0.98258
 C1851 C 0.42689 0.39379 0.97627
 C1852 C 0.43666 0.38400 0.96125
 C1853 C 0.43039 0.36681 0.95497
 H1854 H 0.41864 0.36035 0.96150
 O1855 O 0.56707 0.59094 0.98200
 O1856 O 0.58858 0.61237 0.98192
 C1857 C 0.57359 0.60587 0.97564
 C1858 C 0.56388 0.61548 0.96048
 C1859 C 0.56997 0.63276 0.95428
 H1860 H 0.58131 0.63948 0.96125
 O1861 O 0.43400 0.51790 0.90793
 O1862 O 0.41258 0.51790 0.88637
 C1863 C 0.42759 0.52412 0.89287
 C1864 C 0.43752 0.53902 0.88311
 C1865 C 0.43146 0.54529 0.86583
 H1866 H 0.41955 0.53897 0.85945
 O1867 O 0.56679 0.48112 0.90832
 O1868 O 0.58826 0.48085 0.88683
 C1869 C 0.57323 0.47471 0.89336
 C1870 C 0.56326 0.45973 0.88371
 C1871 C 0.56928 0.45332 0.86645
 H1872 H 0.58129 0.45948 0.86013
 O1873 O 0.51794 0.40819 0.93386
 O1874 O 0.51793 0.38650 0.91257
 C1875 C 0.52424 0.39316 0.92751
 C1876 C 0.53928 0.38358 0.93742
 C1877 C 0.54568 0.36636 0.93135
 H1878 H 0.53940 0.35995 0.91941
 O1879 O 0.48293 0.59120 0.93287
 O1880 O 0.48314 0.61264 0.91136
 C1881 C 0.47677 0.60621 0.92635
 C1882 C 0.46170 0.61597 0.93605
 C1883 C 0.45554 0.63322 0.92984
 H1884 H 0.46248 0.63983 0.91840
 O1885 O 0.40883 0.56677 0.98177
 O1886 O 0.38742 0.58830 0.98159
 C1887 C 0.39384 0.57321 0.97547
 C1888 C 0.38409 0.56327 0.96054
 C1889 C 0.36669 0.56913 0.95448
 H1890 H 0.36000 0.58069 0.96115
 O1891 O 0.59160 0.43336 0.98282
 O1892 O 0.61297 0.41180 0.98303
 C1893 C 0.60659 0.42678 0.97664
 C1894 C 0.61636 0.43639 0.96152
 C1895 C 0.63367 0.43023 0.95548
 H1896 H 0.64035 0.41903 0.96271
 O1897 O 0.48285 0.56590 0.90770
 O1898 O 0.48303 0.58723 0.88607
 C1899 C 0.47665 0.57232 0.89264
 C1900 C 0.46155 0.56257 0.88298
 C1901 C 0.45536 0.56859 0.86565
 H1902 H 0.46230 0.57992 0.85889
 O1903 O 0.51777 0.43321 0.90843
 O1904 O 0.51771 0.41164 0.88701
 C1905 C 0.52399 0.42667 0.89342
 C1906 C 0.53903 0.43640 0.88366
 C1907 C 0.54502 0.43039 0.86626
 H1908 H 0.53781 0.41922 0.85950
 O1909 O 0.59195 0.48110 0.93358
 O1910 O 0.61356 0.48084 0.91223
 C1911 C 0.60692 0.47468 0.92722
 C1912 C 0.61645 0.45966 0.93721
 C1913 C 0.63360 0.45309 0.93115
 H1914 H 0.63991 0.45917 0.91908
 O1915 O 0.40880 0.51826 0.93317
 O1916 O 0.38726 0.51824 0.91173
 C1917 C 0.39383 0.52457 0.92669
 C1918 C 0.38422 0.53965 0.93650
 C1919 C 0.36694 0.54589 0.93046
 H1920 H 0.36029 0.53931 0.91882
 O1921 O 0.43424 0.59178 0.98133
 O1922 O 0.41296 0.61343 0.98109
 C1923 C 0.42787 0.60673 0.97486
 C1924 C 0.43774 0.61618 0.95970
 C1925 C 0.43169 0.63336 0.95321
 H1926 H 0.41981 0.63982 0.95949
 O1927 O 0.56618 0.40834 0.98282
 O1928 O 0.58745 0.38669 0.98303
 C1929 C 0.57256 0.39327 0.97663
 C1930 C 0.56282 0.38360 0.96151
 C1931 C 0.56890 0.36631 0.95535
 H1932 H 0.58022 0.35960 0.96236
 O1933 O 0.56708 0.51702 0.90807
 O1934 O 0.58855 0.51682 0.88657
 C1935 C 0.57360 0.52320 0.89304
 C1936 C 0.56384 0.53822 0.88328
 C1937 C 0.56992 0.54438 0.86595
 H1938 H 0.58173 0.53790 0.85955
 O1939 O 0.43378 0.48199 0.90820
 O1940 O 0.41237 0.48195 0.88664
 C1941 C 0.42729 0.47562 0.89324
 C1942 C 0.43695 0.46037 0.88371
 C1943 C 0.43076 0.45397 0.86652
 H1944 H 0.41939 0.46087 0.85977
 O1945 O 0.51885 0.59091 0.93300
 O1946 O 0.51909 0.61236 0.91150
 C1947 C 0.52526 0.60584 0.92653
 C1948 C 0.54030 0.61545 0.93643
 C1949 C 0.54667 0.63266 0.93034
 H1950 H 0.54037 0.63905 0.91842
 O1951 O 0.48204 0.40812 0.93402
 O1952 O 0.48198 0.38639 0.91277
 C1953 C 0.47576 0.39305 0.92773
 C1954 C 0.46072 0.38351 0.93767
 C1955 C 0.45442 0.36620 0.93176
 H1956 H 0.46098 0.35942 0.92019
 O1957 O 0.59214 0.56558 0.98224
 O1958 O 0.61375 0.58690 0.98215
 C1959 C 0.60717 0.57191 0.97593
 C1960 C 0.61679 0.56202 0.96089
 C1961 C 0.63405 0.56806 0.95462
 H1962 H 0.64077 0.57947 0.96150
 O1963 O 0.40836 0.43414 0.98237
 O1964 O 0.38676 0.41281 0.98245
 C1965 C 0.39337 0.42771 0.97607
 C1966 C 0.38379 0.43744 0.96090
 C1967 C 0.36666 0.43121 0.95443
 H1968 H 0.36027 0.41935 0.96082
 Cu1969 Cu 0.49991 0.42282 0.92335
 Cu1970 Cu 0.49984 0.39683 0.89774
 Cu1971 Cu 0.50082 0.57627 0.92250
 Cu1972 Cu 0.50108 0.60195 0.89661
 Cu1973 Cu 0.42345 0.50014 0.92284
 Cu1974 Cu 0.39767 0.50009 0.89703
 Cu1975 Cu 0.57731 0.49909 0.92301
 Cu1976 Cu 0.60318 0.49882 0.89731
 C1977 C 0.45193 0.45157 0.89220
 H1978 H 0.45665 0.45632 0.90555
 C1979 C 0.43914 0.43875 0.85796
 C1980 C 0.54882 0.54705 0.89168
 H1981 H 0.54426 0.54258 0.90518
 C1982 C 0.56116 0.55918 0.85705
 C1983 C 0.39222 0.45250 0.95216
 H1984 H 0.40558 0.45717 0.95686
 C1985 C 0.35798 0.43981 0.93940
 C1986 C 0.60835 0.54698 0.95210
 H1987 H 0.59495 0.54238 0.95673
 C1988 C 0.64273 0.55950 0.93956
 C1989 C 0.45190 0.39217 0.95259
 H1990 H 0.45658 0.40559 0.95712
 C1991 C 0.43923 0.35781 0.94030
 C1992 C 0.54891 0.60705 0.95159
 H1993 H 0.54427 0.59364 0.95618
 C1994 C 0.56148 0.64146 0.93920
 C1995 C 0.45266 0.54766 0.89149
 H1996 H 0.45723 0.54309 0.90495
 C1997 C 0.44030 0.56006 0.85696
 C1998 C 0.54808 0.45124 0.89214
 H1999 H 0.54360 0.45586 0.90562
 C2000 C 0.56020 0.43869 0.85753
 C2001 C 0.54787 0.39202 0.95258
 H2002 H 0.54323 0.40544 0.95715
 C2003 C 0.56047 0.35758 0.94024
 C2004 C 0.45284 0.60767 0.95112
 H2005 H 0.45739 0.59428 0.95586
 C2006 C 0.44052 0.64203 0.93830
 C2007 C 0.39262 0.54836 0.95161
 H2008 H 0.40610 0.54386 0.95612
 C2009 C 0.35807 0.56054 0.93944
 C2010 C 0.60800 0.45127 0.95246
 H2011 H 0.59460 0.45601 0.95697
 C2012 C 0.64241 0.43842 0.94023
 O2013 O 0.51751 0.43433 1.09297
 O2014 O 0.51734 0.41297 1.11457
 C2015 C 0.52367 0.42792 1.10804
 C2016 C 0.53874 0.43767 1.11775
 C2017 C 0.54480 0.43170 1.13513
 H2018 H 0.53762 0.42055 1.14193
 O2019 O 0.48229 0.56712 1.09182
 O2020 O 0.48233 0.58868 1.11324
 C2021 C 0.47603 0.57368 1.10680
 C2022 C 0.46104 0.56388 1.11657
 C2023 C 0.45494 0.56989 1.13395
 H2024 H 0.46136 0.58178 1.14026
 O2025 O 0.40859 0.51917 1.06679
 O2026 O 0.38700 0.51947 1.08817
 C2027 C 0.39367 0.52567 1.07322
 C2028 C 0.38426 0.54087 1.06338
 C2029 C 0.36725 0.54760 1.06965
 H2030 H 0.36086 0.54146 1.08166
 O2031 O 0.59155 0.48200 1.06748
 O2032 O 0.61308 0.48204 1.08891
 C2033 C 0.60653 0.47572 1.07393
 C2034 C 0.61617 0.46069 1.06406
 C2035 C 0.63352 0.45452 1.06998
 H2036 H 0.64001 0.46097 1.08177
 O2037 O 0.56600 0.40856 1.01883
 O2038 O 0.58728 0.38691 1.01904
 C2039 C 0.57232 0.39356 1.02523
 C2040 C 0.56247 0.38407 1.04038
 C2041 C 0.56848 0.36681 1.04669
 H2042 H 0.57971 0.35998 1.03966
 O2043 O 0.43438 0.59225 1.01730
 O2044 O 0.41316 0.61395 1.01709
 C2045 C 0.42809 0.60738 1.02342
 C2046 C 0.43796 0.61711 1.03841
 C2047 C 0.43216 0.63458 1.04433
 H2048 H 0.42106 0.64141 1.03709
 O2049 O 0.43312 0.48283 1.09209
 O2050 O 0.41160 0.48304 1.11352
 C2051 C 0.42652 0.47659 1.10705
 C2052 C 0.43614 0.46147 1.11680
 C2053 C 0.42975 0.45507 1.13392
 H2054 H 0.41770 0.46134 1.14006
 O2055 O 0.56639 0.51808 1.09248
 O2056 O 0.58774 0.51818 1.11411
 C2057 C 0.57279 0.52443 1.10749
 C2058 C 0.56294 0.53954 1.11704
 C2059 C 0.56874 0.54572 1.13445
 H2060 H 0.58021 0.53905 1.14128
 O2061 O 0.48172 0.40914 1.06751
 O2062 O 0.48153 0.38766 1.08898
 C2063 C 0.47535 0.39418 1.07395
 C2064 C 0.46032 0.38455 1.06405
 C2065 C 0.45385 0.36740 1.07023
 H2066 H 0.46011 0.36103 1.08218
 O2067 O 0.51828 0.59195 1.06636
 O2068 O 0.51837 0.61366 1.08763
 C2069 C 0.52461 0.60697 1.07269
 C2070 C 0.53971 0.61647 1.06280
 C2071 C 0.54595 0.63380 1.06867
 H2072 H 0.53905 0.64067 1.07999
 O2073 O 0.40828 0.43428 1.01837
 O2074 O 0.38668 0.41295 1.01847
 C2075 C 0.39326 0.42793 1.02469
 C2076 C 0.38358 0.43790 1.03965
 C2077 C 0.36637 0.43182 1.04605
 H2078 H 0.36012 0.41977 1.03987
 O2079 O 0.59207 0.56591 1.01825
 O2080 O 0.61370 0.58722 1.01817
 C2081 C 0.60707 0.57234 1.02455
 C2082 C 0.61664 0.56260 1.03972
 C2083 C 0.63394 0.56860 1.04594
 H2084 H 0.64044 0.58033 1.03941
 O2085 O 0.51821 0.56698 1.09182
 O2086 O 0.51830 0.58857 1.11322
 C2087 C 0.52452 0.57353 1.10679
 C2088 C 0.53948 0.56370 1.11657
 C2089 C 0.54565 0.56983 1.13387
 H2090 H 0.53909 0.58153 1.14041
 O2091 O 0.48164 0.43444 1.09269
 O2092 O 0.48143 0.41307 1.11428
 C2093 C 0.47524 0.42805 1.10767
 C2094 C 0.46011 0.43788 1.11718
 C2095 C 0.45373 0.43187 1.13444
 H2096 H 0.46067 0.42059 1.14128
 O2097 O 0.59171 0.51787 1.06733
 O2098 O 0.61321 0.51798 1.08880
 C2099 C 0.60673 0.52414 1.07373
 C2100 C 0.61648 0.53902 1.06375
 C2101 C 0.63385 0.54512 1.06969
 H2102 H 0.64052 0.53829 1.08115
 O2103 O 0.40822 0.48324 1.06655
 O2104 O 0.38657 0.48349 1.08787
 C2105 C 0.39312 0.47714 1.07291
 C2106 C 0.38342 0.46211 1.06307
 C2107 C 0.36607 0.45604 1.06906
 H2108 H 0.35929 0.46318 1.08027
 O2109 O 0.56700 0.59124 1.01798
 O2110 O 0.58851 0.61266 1.01791
 C2111 C 0.57349 0.60625 1.02418
 C2112 C 0.56365 0.61610 1.03912
 C2113 C 0.56977 0.63340 1.04526
 H2114 H 0.58165 0.63971 1.03883
 O2115 O 0.43349 0.40906 1.01849
 O2116 O 0.41200 0.38762 1.01859
 C2117 C 0.42699 0.39413 1.02485
 C2118 C 0.43672 0.38452 1.04001
 C2119 C 0.43053 0.36733 1.04631
 H2120 H 0.41912 0.36064 1.03941
 O2121 O 0.56646 0.48218 1.09280
 O2122 O 0.58785 0.48220 1.11437
 C2123 C 0.57288 0.47594 1.10784
 C2124 C 0.56296 0.46100 1.11757
 C2125 C 0.56905 0.45463 1.13482
 H2126 H 0.58109 0.46080 1.14107
 O2127 O 0.43379 0.51872 1.09205
 O2128 O 0.41233 0.51897 1.11355
 C2129 C 0.42741 0.52504 1.10708
 C2130 C 0.43740 0.53995 1.11678
 C2131 C 0.43169 0.54594 1.13429
 H2132 H 0.42053 0.53884 1.14115
 O2133 O 0.48239 0.59214 1.06639
 O2134 O 0.48243 0.61383 1.08767
 C2135 C 0.47617 0.60722 1.07270
 C2136 C 0.46130 0.61693 1.06268
 C2137 C 0.45510 0.63427 1.06861
 H2138 H 0.46134 0.64059 1.08061
 O2139 O 0.51765 0.40910 1.06772
 O2140 O 0.51752 0.38763 1.08920
 C2141 C 0.52390 0.39413 1.07424
 C2142 C 0.53896 0.38441 1.06448
 C2143 C 0.54539 0.36730 1.07081
 H2144 H 0.53918 0.36116 1.08290
 O2145 O 0.59144 0.43358 1.01879
 O2146 O 0.61282 0.41203 1.01899
 C2147 C 0.60638 0.42710 1.02515
 C2148 C 0.61610 0.43696 1.04015
 C2149 C 0.63351 0.43108 1.04616
 H2150 H 0.64025 0.41977 1.03914
 O2151 O 0.40899 0.56723 1.01773
 O2152 O 0.38766 0.58882 1.01758
 C2153 C 0.39409 0.57389 1.02402
 C2154 C 0.38444 0.56439 1.03929
 C2155 C 0.36737 0.57085 1.04568
 H2156 H 0.36082 0.58233 1.03879
 Cu2157 Cu 0.49965 0.42389 1.07806
 Cu2158 Cu 0.49943 0.39817 1.10392
 Cu2159 Cu 0.50027 0.57738 1.07697
 Cu2160 Cu 0.50036 0.60336 1.10259
 Cu2161 Cu 0.42303 0.42371 1.00043
 Cu2162 Cu 0.39717 0.39804 1.00054
 Cu2163 Cu 0.57667 0.42312 1.00080
 Cu2164 Cu 0.60226 0.39718 1.00105
 Cu2165 Cu 0.42374 0.57734 0.99955
 Cu2166 Cu 0.39816 0.60330 0.99931
 Cu2167 Cu 0.57742 0.57628 1.00013
 Cu2168 Cu 0.60331 0.60192 1.00002
 Cu2169 Cu 0.42308 0.50096 1.07723
 Cu2170 Cu 0.39720 0.50127 1.10292
 Cu2171 Cu 0.57688 0.50002 1.07788
 Cu2172 Cu 0.60262 0.50012 1.10372
 C2173 C 0.54774 0.45249 1.10922
 H2174 H 0.54321 0.45707 1.09575
 C2175 C 0.56003 0.44001 1.14378
 C2176 C 0.45224 0.54885 1.10817
 H2177 H 0.45663 0.54438 1.09461
 C2178 C 0.44032 0.56096 1.14300
 C2179 C 0.39267 0.54928 1.04812
 H2180 H 0.40593 0.54435 1.04338
 C2181 C 0.35867 0.56258 1.06088
 C2182 C 0.60765 0.45190 1.04906
 H2183 H 0.59414 0.45638 1.04461
 C2184 C 0.64234 0.43975 1.06108
 C2185 C 0.54755 0.39263 1.04920
 H2186 H 0.54293 0.40600 1.04448
 C2187 C 0.56013 0.35833 1.06199
 C2188 C 0.45270 0.60852 1.04751
 H2189 H 0.45715 0.59499 1.04310
 C2190 C 0.44057 0.64328 1.05949
 C2191 C 0.45138 0.45284 1.10860
 H2192 H 0.45615 0.45746 1.09523
 C2193 C 0.43848 0.44030 1.14292
 C2194 C 0.54814 0.54848 1.10833
 H2195 H 0.54368 0.54389 1.09484
 C2196 C 0.56019 0.56086 1.14292
 C2197 C 0.45174 0.39292 1.04884
 H2198 H 0.45645 0.40628 1.04419
 C2199 C 0.43897 0.35866 1.06144
 C2200 C 0.54853 0.60783 1.04788
 H2201 H 0.54392 0.59436 1.04341
 C2202 C 0.56099 0.64239 1.06002
 C2203 C 0.39193 0.45312 1.04820
 H2204 H 0.40537 0.45765 1.04360
 C2205 C 0.35743 0.44082 1.06072
 C2206 C 0.60810 0.54771 1.04864
 H2207 H 0.59463 0.54320 1.04410
 C2208 C 0.64270 0.55993 1.06089
 C2209 C 1.10615 1.10575 1.26620
 C2210 C 1.09566 1.11739 1.27756
 C2211 C 1.10308 1.12470 1.29377
 C2212 C 1.12120 1.12040 1.29933
 C2213 C 1.13148 1.10832 1.28806
 C2214 C 1.12413 1.10128 1.27172
 C2215 C 1.09854 1.09863 1.24849
 C2216 C 1.10331 1.08100 1.24201
 C2217 C 1.09676 1.07464 1.22504
 C2218 C 1.08506 1.08562 1.21419
 C2219 C 1.08000 1.10309 1.22085
 C2220 C 1.08675 1.10956 1.23769
 C2221 C 1.07839 1.07902 1.19591
 C2222 C 1.07608 1.09141 1.18117
 C2223 C 1.06987 1.08526 1.16401
 C2224 C 1.06609 1.06654 1.16109
 C2225 C 1.06849 1.05409 1.17568
 C2226 C 1.07443 1.06027 1.19294
 H2227 H 1.08158 1.12077 1.27403
 H2228 H 1.09429 1.13338 1.30207
 H2229 H 1.14556 1.10479 1.29127
 H2230 H 1.13279 1.09268 1.26315
 H2231 H 1.11211 1.07206 1.25005
 H2232 H 1.10115 1.06121 1.22030
 H2233 H 1.07077 1.11183 1.21306
 H2234 H 1.08296 1.12329 1.24206
 H2235 H 1.07937 1.10586 1.18277
 H2236 H 1.06835 1.09509 1.15288
 H2237 H 1.06548 1.03961 1.17378
 H2238 H 1.07571 1.05037 1.20402
 C2239 C 1.10771 0.60614 0.76603
 C2240 C 1.12660 0.60468 0.77002
 C2241 C 1.13373 0.61174 0.78646
 C2242 C 1.12217 0.62054 0.79925
 C2243 C 1.10328 0.62192 0.79535
 C2244 C 1.09612 0.61475 0.77895
 C2245 C 1.10022 0.59899 0.74833
 C2246 C 1.08645 0.60873 0.73881
 C2247 C 1.07970 0.60225 0.72198
 C2248 C 1.08660 0.58592 0.71418
 C2249 C 1.10026 0.57611 0.72376
 C2250 C 1.10696 0.58255 0.74064
 C2251 C 1.07975 0.57929 0.69602
 C2252 C 1.07724 0.56038 0.69268
 C2253 C 1.07102 0.55419 0.67552
 C2254 C 1.06706 0.56677 0.66136
 C2255 C 1.06948 0.58566 0.66470
 C2256 C 1.07580 0.59185 0.68181
 H2257 H 1.13597 0.59844 0.76024
 H2258 H 1.14838 0.61073 0.78895
 H2259 H 1.09401 0.62838 0.80507
 H2260 H 1.08147 0.61582 0.77648
 H2261 H 1.08110 0.62155 0.74422
 H2262 H 1.06900 0.61001 0.71509
 H2263 H 1.10603 0.56359 0.71807
 H2264 H 1.11739 0.57458 0.74772
 H2265 H 1.07986 0.55036 0.70341
 H2266 H 1.06907 0.53956 0.67338
 H2267 H 1.06680 0.59565 0.65394
 H2268 H 1.07791 0.60647 0.68378
 C2269 C 0.60889 1.10960 0.76391
 C2270 C 0.62027 1.09870 0.77503
 C2271 C 0.62737 1.10563 0.79155
 C2272 C 0.62298 1.12361 0.79759
 C2273 C 0.61124 1.13433 0.78637
 C2274 C 0.60447 1.12747 0.76969
 C2275 C 0.60176 1.10242 0.74620
 C2276 C 0.60354 1.11282 0.73001
 C2277 C 0.59697 1.10601 0.71323
 C2278 C 0.58817 1.08877 0.71232
 C2279 C 0.58632 1.07844 0.72864
 C2280 C 0.59318 1.08513 0.74536
 C2281 C 0.58097 1.08163 0.69444
 C2282 C 0.58144 1.06268 0.69039
 C2283 C 0.57471 1.05603 0.67360
 C2284 C 0.56758 1.06816 0.66028
 C2285 C 0.56719 1.08710 0.66430
 C2286 C 0.57365 1.09372 0.68119
 H2287 H 0.62387 1.08485 0.77081
 H2288 H 0.63591 1.09658 0.79969
 H2289 H 0.60764 1.14830 0.79000
 H2290 H 0.59565 1.13612 0.76132
 H2291 H 0.61033 1.12610 0.73029
 H2292 H 0.59905 1.11419 0.70093
 H2293 H 0.57932 1.06529 0.72858
 H2294 H 0.59150 1.07695 0.75773
 H2295 H 0.58721 1.05296 0.70010
 H2296 H 0.57502 1.04134 0.67112
 H2297 H 0.56210 1.09691 0.65430
 H2298 H 0.57276 1.10835 0.68388
 C2299 C 0.60762 0.60795 1.26538
 C2300 C 0.62572 0.60385 1.27080
 C2301 C 0.63288 0.61072 1.28730
 C2302 C 0.62225 0.62221 1.29886
 C2303 C 0.60407 0.62627 1.29331
 C2304 C 0.59686 0.61915 1.27693
 C2305 C 0.60010 0.60076 1.24767
 C2306 C 0.58800 0.61146 1.23699
 C2307 C 0.58116 0.60483 1.22024
 C2308 C 0.58642 0.58742 1.21359
 C2309 C 0.59849 0.57670 1.22429
 C2310 C 0.60514 0.58323 1.24115
 C2311 C 0.57953 0.58057 1.19549
 C2312 C 0.57573 0.56176 1.19279
 C2313 C 0.56954 0.55534 1.17570
 C2314 C 0.56676 0.56762 1.16103
 C2315 C 0.57039 0.58640 1.16369
 C2316 C 0.57682 0.59280 1.18069
 H2317 H 0.63458 0.59562 1.26207
 H2318 H 0.64702 0.60744 1.29048
 H2319 H 0.59504 0.63453 1.30178
 H2320 H 0.58271 0.62225 1.27344
 H2321 H 0.58399 0.62512 1.24141
 H2322 H 0.57167 0.61337 1.21255
 H2323 H 0.60304 0.56333 1.21953
 H2324 H 0.61420 0.57447 1.24911
 H2325 H 0.57732 0.55199 1.20393
 H2326 H 0.56666 0.54081 1.17400
 H2327 H 0.56857 0.59610 1.15250
 H2328 H 0.57996 0.60730 1.18210
 C2329 C 0.89132 0.89200 1.26437
 C2330 C 0.88014 0.90284 1.27577
 C2331 C 0.87323 0.89577 1.29231
 C2332 C 0.87762 0.87771 1.29808
 C2333 C 0.88922 0.86708 1.28661
 C2334 C 0.89579 0.87409 1.26993
 C2335 C 0.89815 0.89928 1.24659
 C2336 C 0.89616 0.88890 1.23039
 C2337 C 0.90253 0.89572 1.21356
 C2338 C 0.91134 0.91296 1.21259
 C2339 C 0.91335 0.92329 1.22890
 C2340 C 0.90669 0.91658 1.24569
 C2341 C 0.91846 0.92004 1.19467
 C2342 C 0.91801 0.93897 1.19057
 C2343 C 0.92472 0.94555 1.17375
 C2344 C 0.93184 0.93336 1.16047
 C2345 C 0.93219 0.91443 1.16453
 C2346 C 0.92574 0.90789 1.18144
 H2347 H 0.87650 0.91673 1.27174
 H2348 H 0.86481 0.90476 1.30065
 H2349 H 0.89283 0.85307 1.29004
 H2350 H 0.90448 0.86549 1.26137
 H2351 H 0.88939 0.87562 1.23072
 H2352 H 0.90033 0.88755 1.20127
 H2353 H 0.92034 0.93645 1.22879
 H2354 H 0.90852 0.92474 1.25806
 H2355 H 0.91228 0.94873 1.20028
 H2356 H 0.92444 0.96023 1.17122
 H2357 H 0.93726 0.90457 1.15456
 H2358 H 0.92662 0.89327 1.18417
 C2359 C 0.89139 0.39289 0.76521
 C2360 C 0.87350 0.39727 0.77095
 C2361 C 0.86656 0.39036 0.78753
 C2362 C 0.87723 0.37852 0.79871
 C2363 C 0.89527 0.37428 0.79278
 C2364 C 0.90227 0.38150 0.77635
 C2365 C 0.89855 0.39996 0.74748
 C2366 C 0.91590 0.40841 0.74657
 C2367 C 0.92257 0.41519 0.72980
 C2368 C 0.91215 0.41338 0.71353
 C2369 C 0.89485 0.40471 0.71452
 C2370 C 0.88808 0.39822 0.73133
 C2371 C 0.91925 0.42048 0.69560
 C2372 C 0.90715 0.42789 0.68242
 C2373 C 0.91371 0.43421 0.66546
 C2374 C 0.93261 0.43360 0.66132
 C2375 C 0.94476 0.42640 0.67458
 C2376 C 0.93815 0.41981 0.69145
 H2377 H 0.86487 0.40611 0.76259
 H2378 H 0.85257 0.39390 0.79108
 H2379 H 0.90430 0.36570 0.80091
 H2380 H 0.91614 0.37793 0.77218
 H2381 H 0.92415 0.41006 0.75890
 H2382 H 0.93578 0.42208 0.72968
 H2383 H 0.88660 0.40266 0.70226
 H2384 H 0.87476 0.39152 0.73166
 H2385 H 0.89255 0.42893 0.68520
 H2386 H 0.90388 0.43937 0.65551
 H2387 H 0.95942 0.42593 0.67201
 H2388 H 0.94788 0.41398 0.70112
 C2389 C 0.38985 0.89203 0.76367
 C2390 C 0.38244 0.90377 0.77717
 C2391 C 0.37564 0.89661 0.79372
 C2392 C 0.37628 0.87759 0.79718
 C2393 C 0.38384 0.86588 0.78373
 C2394 C 0.39050 0.87302 0.76715
 C2395 C 0.39683 0.89951 0.74597
 C2396 C 0.39280 0.89056 0.72928
 C2397 C 0.39957 0.89739 0.71261
 C2398 C 0.41062 0.91328 0.71224
 C2399 C 0.41454 0.92231 0.72895
 C2400 C 0.40768 0.91552 0.74563
 C2401 C 0.41809 0.92030 0.69450
 C2402 C 0.41907 0.93932 0.69100
 C2403 C 0.42596 0.94585 0.67423
 C2404 C 0.43199 0.93352 0.66055
 C2405 C 0.43105 0.91452 0.66408
 C2406 C 0.42424 0.90799 0.68086
 H2407 H 0.38165 0.91847 0.77480
 H2408 H 0.37004 0.90597 0.80389
 H2409 H 0.38433 0.85116 0.78590
 H2410 H 0.39630 0.86366 0.75708
 H2411 H 0.38422 0.87837 0.72909
 H2412 H 0.39597 0.89032 0.69996
 H2413 H 0.42322 0.93442 0.72919
 H2414 H 0.41117 0.92258 0.75831
 H2415 H 0.41427 0.94916 0.70112
 H2416 H 0.42667 0.96057 0.67201
 H2417 H 0.43535 0.90463 0.65376
 H2418 H 0.42391 0.89328 0.68319
 C2419 C 0.38921 0.39155 1.26393
 C2420 C 0.39324 0.37340 1.26904
 C2421 C 0.38660 0.36618 1.28560
 C2422 C 0.37541 0.37685 1.29744
 C2423 C 0.37146 0.39515 1.29212
 C2424 C 0.37841 0.40242 1.27568
 C2425 C 0.39615 0.39902 1.24626
 C2426 C 0.40499 0.41619 1.24565
 C2427 C 0.41192 0.42299 1.22900
 C2428 C 0.40992 0.41287 1.21256
 C2429 C 0.40077 0.39580 1.21323
 C2430 C 0.39410 0.38890 1.22991
 C2431 C 0.41740 0.41998 1.19481
 C2432 C 0.42474 0.40783 1.18162
 C2433 C 0.43150 0.41440 1.16484
 C2434 C 0.43137 0.43335 1.16088
 C2435 C 0.42422 0.44554 1.17414
 C2436 C 0.41723 0.43894 1.19084
 H2437 H 0.40163 0.36477 1.26022
 H2438 H 0.38986 0.35200 1.28864
 H2439 H 0.36335 0.40417 1.30074
 H2440 H 0.37511 0.41648 1.27199
 H2441 H 0.40688 0.42416 1.25814
 H2442 H 0.41915 0.43602 1.22911
 H2443 H 0.39857 0.38781 1.20082
 H2444 H 0.38710 0.37574 1.23000
 H2445 H 0.42540 0.39318 1.18427
 H2446 H 0.43661 0.40455 1.15487
 H2447 H 0.42411 0.46024 1.17169
 H2448 H 0.41148 0.44870 1.20054
 C2449 C 0.89234 1.10717 0.73488
 C2450 C 0.88122 1.09625 0.72349
 C2451 C 0.87426 1.10327 0.70694
 C2452 C 0.87853 1.12135 0.70116
 C2453 C 0.89009 1.13205 0.71261
 C2454 C 0.89672 1.12510 0.72928
 C2455 C 0.89917 1.10003 0.75271
 C2456 C 0.89720 1.11054 0.76883
 C2457 C 0.90364 1.10389 0.78570
 C2458 C 0.91249 1.08669 0.78680
 C2459 C 0.91446 1.07620 0.77058
 C2460 C 0.90773 1.08275 0.75374
 C2461 C 0.91965 1.07979 0.80476
 C2462 C 0.91913 1.06092 0.80907
 C2463 C 0.92577 1.05452 0.82599
 C2464 C 0.93289 1.06684 0.83915
 C2465 C 0.93338 1.08571 0.83485
 C2466 C 0.92699 1.09207 0.81784
 H2467 H 0.87765 1.08235 0.72755
 H2468 H 0.86587 1.09423 0.69861
 H2469 H 0.89362 1.14608 0.70920
 H2470 H 0.90537 1.13375 0.73783
 H2471 H 0.89040 1.12380 0.76840
 H2472 H 0.90147 1.11217 0.79792
 H2473 H 0.92147 1.06306 0.77080
 H2474 H 0.90955 1.07448 0.74144
 H2475 H 0.91337 1.05106 0.79948
 H2476 H 0.92540 1.03987 0.82870
 H2477 H 0.93849 1.09566 0.84471
 H2478 H 0.92793 1.10665 0.81494
 C2479 C 0.89133 0.60862 0.23632
 C2480 C 0.88356 0.59677 0.22313
 C2481 C 0.87672 0.60375 0.20653
 C2482 C 0.87764 0.62269 0.20272
 C2483 C 0.88555 0.63451 0.21586
 C2484 C 0.89225 0.62756 0.23251
 C2485 C 0.89834 0.60129 0.25407
 C2486 C 0.89449 0.61046 0.27068
 C2487 C 0.90112 0.60363 0.28741
 C2488 C 0.91187 0.58753 0.28790
 C2489 C 0.91569 0.57835 0.27125
 C2490 C 0.90894 0.58513 0.25453
 C2491 C 0.91913 0.58044 0.30571
 C2492 C 0.91980 0.56141 0.30923
 C2493 C 0.92654 0.55480 0.32603
 C2494 C 0.93270 0.56705 0.33971
 C2495 C 0.93203 0.58606 0.33618
 C2496 C 0.92538 0.59267 0.31937
 H2497 H 0.88255 0.58213 0.22576
 H2498 H 0.87085 0.59430 0.19659
 H2499 H 0.88628 0.64918 0.21339
 H2500 H 0.89831 0.63699 0.24237
 H2501 H 0.88610 0.62278 0.27076
 H2502 H 0.89762 0.61084 0.30000
 H2503 H 0.92416 0.56609 0.27110
 H2504 H 0.91231 0.57791 0.24190
 H2505 H 0.91491 0.55162 0.29910
 H2506 H 0.92705 0.54007 0.32824
 H2507 H 0.93642 0.59589 0.34651
 H2508 H 0.92528 0.60739 0.31702
 C2509 C 0.39251 1.10714 0.23437
 C2510 C 0.38487 1.09531 0.22107
 C2511 C 0.37802 1.10235 0.20449
 C2512 C 0.37884 1.12133 0.20080
 C2513 C 0.38669 1.13310 0.21402
 C2514 C 0.39340 1.12609 0.23064
 C2515 C 0.39936 1.09982 0.25219
 C2516 C 0.39535 1.10903 0.26874
 C2517 C 0.40194 1.10234 0.28554
 C2518 C 0.41280 1.08633 0.28618
 C2519 C 0.41671 1.07705 0.26960
 C2520 C 0.41002 1.08370 0.25279
 C2521 C 0.42004 1.07943 0.30406
 C2522 C 0.42078 1.06045 0.30779
 C2523 C 0.42741 1.05404 0.32471
 C2524 C 0.43341 1.06646 0.33832
 C2525 C 0.43272 1.08543 0.33456
 C2526 C 0.42617 1.09183 0.31763
 H2527 H 0.38390 1.08066 0.22364
 H2528 H 0.37218 1.09295 0.19449
 H2529 H 0.38732 1.14779 0.21168
 H2530 H 0.39938 1.13550 0.24056
 H2531 H 0.38690 1.12132 0.26872
 H2532 H 0.39833 1.10961 0.29807
 H2533 H 0.42525 1.06484 0.26957
 H2534 H 0.41348 1.07644 0.24022
 H2535 H 0.41599 1.05054 0.29772
 H2536 H 0.42794 1.03934 0.32709
 H2537 H 0.43700 1.09538 0.34482
 H2538 H 0.42603 1.10652 0.31514
 C2539 C 0.39120 0.60800 0.73567
 C2540 C 0.38373 0.59616 0.72229
 C2541 C 0.37680 0.60321 0.70575
 C2542 C 0.37733 0.62222 0.70218
 C2543 C 0.38495 0.63402 0.71552
 C2544 C 0.39176 0.62700 0.73209
 C2545 C 0.39831 0.60064 0.75338
 C2546 C 0.39436 0.60969 0.77004
 C2547 C 0.40121 0.60294 0.78672
 C2548 C 0.41224 0.58705 0.78712
 C2549 C 0.41610 0.57795 0.77044
 C2550 C 0.40917 0.58465 0.75375
 C2551 C 0.41971 0.58007 0.80488
 C2552 C 0.42059 0.56107 0.80845
 C2553 C 0.42740 0.55456 0.82526
 C2554 C 0.43345 0.56691 0.83891
 C2555 C 0.43265 0.58591 0.83530
 C2556 C 0.42591 0.59240 0.81848
 H2557 H 0.38301 0.58148 0.72474
 H2558 H 0.37115 0.59378 0.69567
 H2559 H 0.38537 0.64874 0.71328
 H2560 H 0.39760 0.63643 0.74207
 H2561 H 0.38578 0.62187 0.77020
 H2562 H 0.39766 0.61007 0.79934
 H2563 H 0.42477 0.56583 0.77023
 H2564 H 0.41260 0.57753 0.74109
 H2565 H 0.41576 0.55120 0.79835
 H2566 H 0.42802 0.53985 0.82753
 H2567 H 0.43697 0.59580 0.84560
 H2568 H 0.42565 0.60711 0.81609
 C2569 C 1.10693 0.89112 0.73495
 C2570 C 1.10603 0.87224 0.73083
 C2571 C 1.11290 0.86552 0.71413
 C2572 C 1.12094 0.87752 0.70125
 C2573 C 1.12180 0.89642 0.70536
 C2574 C 1.11479 0.90316 0.72199
 C2575 C 1.09985 0.89818 0.75278
 C2576 C 1.08928 0.91436 0.75347
 C2577 C 1.08257 0.92095 0.77029
 C2578 C 1.08639 0.91157 0.78682
 C2579 C 1.09706 0.89543 0.78609
 C2580 C 1.10365 0.88878 0.76926
 C2581 C 1.07931 0.91856 0.80474
 C2582 C 1.07312 0.90626 0.81837
 C2583 C 1.06672 0.91278 0.83532
 C2584 C 1.06623 0.93177 0.83904
 C2585 C 1.07228 0.94408 0.82538
 C2586 C 1.07878 0.93756 0.80845
 H2587 H 1.09990 0.86267 0.74049
 H2588 H 1.11221 0.85088 0.71144
 H2589 H 1.12776 0.90600 0.69562
 H2590 H 1.11578 0.91775 0.72487
 H2591 H 1.08595 0.92176 0.74094
 H2592 H 1.07416 0.93325 0.77031
 H2593 H 1.10056 0.88806 0.79858
 H2594 H 1.11200 0.87643 0.76917
 H2595 H 1.07311 0.89156 0.81590
 H2596 H 1.06239 0.90290 0.84562
 H2597 H 1.07190 0.95880 0.82772
 H2598 H 1.08363 0.94740 0.79835
 C2599 C 1.10800 0.39047 0.23550
 C2600 C 1.12702 0.39119 0.23201
 C2601 C 1.13423 0.38431 0.21553
 C2602 C 1.12261 0.37648 0.20217
 C2603 C 1.10360 0.37571 0.20565
 C2604 C 1.09637 0.38267 0.22211
 C2605 C 1.10037 0.39775 0.25307
 C2606 C 1.08601 0.38851 0.26218
 C2607 C 1.07903 0.39521 0.27884
 C2608 C 1.08628 0.41129 0.28683
 C2609 C 1.10056 0.42060 0.27767
 C2610 C 1.10751 0.41393 0.26098
 C2611 C 1.07912 0.41822 0.30474
 C2612 C 1.07705 0.43721 0.30788
 C2613 C 1.07062 0.44371 0.32485
 C2614 C 1.06603 0.43135 0.33901
 C2615 C 1.06798 0.41237 0.33585
 C2616 C 1.07448 0.40588 0.31893
 H2617 H 1.13640 0.39679 0.24217
 H2618 H 1.14896 0.38482 0.21339
 H2619 H 1.09428 0.37001 0.19551
 H2620 H 1.08163 0.38217 0.22423
 H2621 H 1.08033 0.37591 0.25657
 H2622 H 1.06787 0.38783 0.28542
 H2623 H 1.10660 0.43291 0.28353
 H2624 H 1.11841 0.42151 0.25422
 H2625 H 1.08022 0.44707 0.29715
 H2626 H 1.06903 0.45840 0.32683
 H2627 H 1.06482 0.40254 0.34662
 H2628 H 1.07622 0.39119 0.31709
 C2629 C 0.60809 0.89093 0.23545
 C2630 C 0.61900 0.90209 0.22411
 C2631 C 0.62606 0.89529 0.20753
 C2632 C 0.62212 0.87716 0.20164
 C2633 C 0.61086 0.86615 0.21309
 C2634 C 0.60411 0.87291 0.22981
 C2635 C 0.60098 0.89799 0.25321
 C2636 C 0.60300 0.88760 0.26938
 C2637 C 0.59642 0.89428 0.28620
 C2638 C 0.58739 0.91140 0.28717
 C2639 C 0.58530 0.92173 0.27089
 C2640 C 0.59215 0.91515 0.25412
 C2641 C 0.58022 0.91842 0.30509
 C2642 C 0.58064 0.93735 0.30922
 C2643 C 0.57399 0.94389 0.32608
 C2644 C 0.56696 0.93167 0.33936
 C2645 C 0.56658 0.91275 0.33525
 C2646 C 0.57298 0.90624 0.31830
 H2647 H 0.62227 0.91606 0.22821
 H2648 H 0.63422 0.90455 0.19923
 H2649 H 0.60762 0.85207 0.20959
 H2650 H 0.59565 0.86405 0.23833
 H2651 H 0.60997 0.87442 0.26905
 H2652 H 0.59865 0.88612 0.29847
 H2653 H 0.57814 0.93479 0.27101
 H2654 H 0.59028 0.92333 0.24177
 H2655 H 0.58633 0.94713 0.29952
 H2656 H 0.57428 0.95857 0.32864
 H2657 H 0.56154 0.90289 0.34522
 H2658 H 0.57215 0.89162 0.31553
 C2659 C 0.60772 0.39086 0.73539
 C2660 C 0.61899 0.40186 0.72425
 C2661 C 0.62619 0.39497 0.70776
 C2662 C 0.62204 0.37691 0.70178
 C2663 C 0.61035 0.36611 0.71298
 C2664 C 0.60347 0.37294 0.72962
 C2665 C 0.60061 0.39795 0.75314
 C2666 C 0.60245 0.38748 0.76928
 C2667 C 0.59592 0.39420 0.78611
 C2668 C 0.58711 0.41143 0.78712
 C2669 C 0.58520 0.42183 0.77086
 C2670 C 0.59201 0.41522 0.75408
 C2671 C 0.57999 0.41849 0.80506
 C2672 C 0.58056 0.43740 0.80922
 C2673 C 0.57397 0.44396 0.82610
 C2674 C 0.56686 0.43177 0.83937
 C2675 C 0.56634 0.41286 0.83522
 C2676 C 0.57267 0.40633 0.81825
 H2677 H 0.62246 0.41575 0.72845
 H2678 H 0.63466 0.40409 0.69962
 H2679 H 0.60691 0.35210 0.70939
 H2680 H 0.59473 0.36422 0.73799
 H2681 H 0.60925 0.37421 0.76892
 H2682 H 0.59803 0.38596 0.79836
 H2683 H 0.57820 0.43499 0.77100
 H2684 H 0.59029 0.42346 0.74176
 H2685 H 0.58632 0.44716 0.79955
 H2686 H 0.57437 0.45863 0.82869
 H2687 H 0.56125 0.40301 0.84518
 H2688 H 0.57171 0.39173 0.81546
 C2689 C 1.26382 1.10861 1.10887
 C2690 C 1.27538 1.09764 1.11976
 C2691 C 1.29189 1.10470 1.12669
 C2692 C 1.29749 1.12290 1.12264
 C2693 C 1.28582 1.13369 1.11140
 C2694 C 1.26918 1.12668 1.10478
 C2695 C 1.24612 1.10131 1.10190
 C2696 C 1.22990 1.11160 1.10387
 C2697 C 1.21316 1.10478 1.09729
 C2698 C 1.21230 1.08761 1.08832
 C2699 C 1.22862 1.07734 1.08635
 C2700 C 1.24532 1.08407 1.09319
 C2701 C 1.19449 1.08051 1.08103
 C2702 C 1.19041 1.06158 1.08147
 C2703 C 1.17365 1.05498 1.07467
 C2704 C 1.16043 1.06714 1.06747
 C2705 C 1.16449 1.08607 1.06707
 C2706 C 1.18133 1.09264 1.07363
 H2707 H 1.27150 1.08364 1.12312
 H2708 H 1.30036 1.09559 1.13484
 H2709 H 1.28908 1.14781 1.10807
 H2710 H 1.26051 1.13539 1.09632
 H2711 H 1.23013 1.12484 1.11076
 H2712 H 1.20086 1.11290 1.09945
 H2713 H 1.22859 1.06424 1.07925
 H2714 H 1.25770 1.07596 1.09136
 H2715 H 1.20007 1.05184 1.08728
 H2716 H 1.17112 1.04029 1.07498
 H2717 H 1.15456 1.09590 1.06190
 H2718 H 1.18407 1.10726 1.07277
 C2719 C 1.26448 0.60776 0.60796
 C2720 C 1.26992 0.62575 0.60363
 C2721 C 1.28650 0.63284 0.61033
 C2722 C 1.29799 0.62223 0.62191
 C2723 C 1.29236 0.60408 0.62612
 C2724 C 1.27592 0.59693 0.61910
 C2725 C 1.24675 0.60044 0.60107
 C2726 C 1.24587 0.58311 0.59255
 C2727 C 1.22913 0.57639 0.58581
 C2728 C 1.21285 0.58674 0.58771
 C2729 C 1.21380 0.60399 0.59650
 C2730 C 1.23057 0.61082 0.60297
 C2731 C 1.19498 0.57965 0.58052
 C2732 C 1.18186 0.59179 0.57307
 C2733 C 1.16496 0.58526 0.56663
 C2734 C 1.16081 0.56635 0.56715
 C2735 C 1.17400 0.55417 0.57440
 C2736 C 1.19082 0.56075 0.58109
 H2737 H 1.26134 0.63434 0.59497
 H2738 H 1.28979 0.64691 0.60684
 H2739 H 1.30073 0.59509 0.63451
 H2740 H 1.27198 0.58298 0.62263
 H2741 H 1.25821 0.57494 0.59079
 H2742 H 1.22903 0.56320 0.57885
 H2743 H 1.20153 0.61218 0.59862
 H2744 H 1.23088 0.62412 0.60972
 H2745 H 1.18465 0.60639 0.57210
 H2746 H 1.15506 0.59511 0.56144
 H2747 H 1.17140 0.53951 0.57481
 H2748 H 1.20045 0.55100 0.58694
 C2749 C 0.76453 1.10737 0.60830
 C2750 C 0.77788 1.09546 0.61567
 C2751 C 0.79449 1.10241 0.62250
 C2752 C 0.79815 1.12140 0.62195
 C2753 C 0.78485 1.13328 0.61444
 C2754 C 0.76821 1.12635 0.60774
 C2755 C 0.74677 1.10011 0.60132
 C2756 C 0.73021 1.10922 0.60542
 C2757 C 0.71348 1.10256 0.59869
 C2758 C 0.71290 1.08668 0.58762
 C2759 C 0.72947 1.07750 0.58359
 C2760 C 0.74622 1.08412 0.59042
 C2761 C 0.69508 1.07978 0.58027
 C2762 C 0.69142 1.06080 0.57937
 C2763 C 0.67455 1.05438 0.57267
 C2764 C 0.66094 1.06679 0.56674
 C2765 C 0.66464 1.08577 0.56755
 C2766 C 0.68151 1.09218 0.57419
 H2767 H 0.77535 1.08078 0.61640
 H2768 H 0.80454 1.09293 0.62806
 H2769 H 0.78718 1.14799 0.61402
 H2770 H 0.75826 1.13584 0.60198
 H2771 H 0.73019 1.12140 0.61405
 H2772 H 0.70094 1.10974 0.60237
 H2773 H 0.72954 1.06539 0.57489
 H2774 H 0.75879 1.07695 0.58686
 H2775 H 0.70148 1.05089 0.58412
 H2776 H 0.67221 1.03967 0.57203
 H2777 H 0.65438 1.09571 0.56332
 H2778 H 0.68397 1.10688 0.57445
 C2779 C 0.76464 0.60811 1.10784
 C2780 C 0.77779 0.61573 1.09587
 C2781 C 0.79442 0.62259 1.10276
 C2782 C 0.79830 0.62178 1.12173
 C2783 C 0.78519 0.61400 1.13366
 C2784 C 0.76852 0.60730 1.12680
 C2785 C 0.74684 0.60113 1.10066
 C2786 C 0.73034 0.60516 1.10992
 C2787 C 0.71357 0.59846 1.10332
 C2788 C 0.71290 0.58746 1.08737
 C2789 C 0.72943 0.58349 1.07807
 C2790 C 0.74620 0.59031 1.08461
 C2791 C 0.69504 0.58014 1.08053
 C2792 C 0.69134 0.57915 1.06152
 C2793 C 0.67445 0.57246 1.05515
 C2794 C 0.66082 0.56667 1.06763
 C2795 C 0.66455 0.56761 1.08662
 C2796 C 0.68146 0.57420 1.09299
 H2797 H 0.77510 0.61664 1.08121
 H2798 H 0.80432 0.62837 1.09324
 H2799 H 0.78769 0.61338 1.14835
 H2800 H 0.75871 0.60135 1.13632
 H2801 H 0.73040 0.61372 1.12215
 H2802 H 0.70108 0.60211 1.11060
 H2803 H 0.72945 0.57484 1.06591
 H2804 H 0.75874 0.58682 1.07733
 H2805 H 0.70140 0.58380 1.05154
 H2806 H 0.67210 0.57173 1.04042
 H2807 H 0.65428 0.56349 1.09663
 H2808 H 0.68393 0.57452 1.10771
 C2809 C 1.26415 0.89115 0.89236
 C2810 C 1.26975 0.87319 0.89662
 C2811 C 1.28632 0.86623 0.88978
 C2812 C 1.29765 0.87694 0.87813
 C2813 C 1.29187 0.89506 0.87401
 C2814 C 1.27544 0.90209 0.88117
 C2815 C 1.24642 0.89833 0.89938
 C2816 C 1.24550 0.91561 0.90800
 C2817 C 1.22875 0.92223 0.91480
 C2818 C 1.21250 0.91184 0.91286
 C2819 C 1.21350 0.89461 0.90400
 C2820 C 1.23029 0.88788 0.89748
 C2821 C 1.19460 0.91886 0.92002
 C2822 C 1.18145 0.90669 0.92735
 C2823 C 1.16451 0.91318 0.93371
 C2824 C 1.16033 0.93208 0.93321
 C2825 C 1.17357 0.94430 0.92611
 C2826 C 1.19043 0.93777 0.91950
 H2827 H 1.26128 0.86452 0.90532
 H2828 H 1.28973 0.85217 0.89321
 H2829 H 1.30012 0.90412 0.86557
 H2830 H 1.27138 0.91601 0.87769
 H2831 H 1.25781 0.92382 0.90976
 H2832 H 1.22861 0.93538 0.92182
 H2833 H 1.20126 0.88639 0.90186
 H2834 H 1.23063 0.87462 0.89066
 H2835 H 1.18425 0.89208 0.92829
 H2836 H 1.15458 0.90330 0.93880
 H2837 H 1.17097 0.95897 0.92573
 H2838 H 1.20008 0.94755 0.91374
 C2839 C 1.26418 0.39131 0.39256
 C2840 C 1.27555 0.40225 0.38145
 C2841 C 1.29196 0.39518 0.37429
 C2842 C 1.29763 0.37700 0.37832
 C2843 C 1.28623 0.36630 0.38992
 C2844 C 1.26969 0.37332 0.39677
 C2845 C 1.24641 0.39849 0.39950
 C2846 C 1.23030 0.38803 0.39754
 C2847 C 1.21349 0.39471 0.40403
 C2848 C 1.21244 0.41191 0.41292
 C2849 C 1.22865 0.42234 0.41490
 C2850 C 1.24543 0.41576 0.40813
 C2851 C 1.19451 0.41886 0.42008
 C2852 C 1.19025 0.43775 0.41954
 C2853 C 1.17335 0.44420 0.42613
 C2854 C 1.16017 0.43192 0.43321
 C2855 C 1.16443 0.41304 0.43375
 C2856 C 1.18141 0.40663 0.42741
 H2857 H 1.27155 0.41620 0.37802
 H2858 H 1.30026 0.40422 0.36589
 H2859 H 1.28955 0.35222 0.39331
 H2860 H 1.26117 0.36465 0.40541
 H2861 H 1.23068 0.37477 0.39070
 H2862 H 1.20127 0.38647 0.40185
 H2863 H 1.22847 0.43549 0.42194
 H2864 H 1.25773 0.42400 0.40994
 H2865 H 1.19986 0.44757 0.41379
 H2866 H 1.17067 0.45885 0.42573
 H2867 H 1.15455 0.40312 0.43883
 H2868 H 1.18429 0.39204 0.42836
 C2869 C 0.76457 0.89160 0.39227
 C2870 C 0.77766 0.88367 0.40410
 C2871 C 0.79431 0.87697 0.39712
 C2872 C 0.79827 0.87824 0.37820
 C2873 C 0.78527 0.88640 0.36641
 C2874 C 0.76857 0.89293 0.37336
 C2875 C 0.74671 0.89830 0.39954
 C2876 C 0.73028 0.89437 0.39013
 C2877 C 0.71343 0.90075 0.39686
 C2878 C 0.71263 0.91134 0.41308
 C2879 C 0.72910 0.91520 0.42253
 C2880 C 0.74595 0.90869 0.41586
 C2881 C 0.69469 0.91841 0.42001
 C2882 C 0.69093 0.91903 0.43902
 C2883 C 0.67403 0.92563 0.44546
 C2884 C 0.66047 0.93171 0.43304
 C2885 C 0.66424 0.93106 0.41403
 C2886 C 0.68115 0.92457 0.40761
 H2887 H 0.77489 0.88236 0.41872
 H2888 H 0.80414 0.87090 0.40653
 H2889 H 0.78785 0.88739 0.35175
 H2890 H 0.75879 0.89914 0.36395
 H2891 H 0.73043 0.88614 0.37768
 H2892 H 0.70099 0.89719 0.38944
 H2893 H 0.72902 0.92354 0.43490
 H2894 H 0.75843 0.91209 0.42328
 H2895 H 0.70096 0.91420 0.44894
 H2896 H 0.67164 0.92612 0.46019
 H2897 H 0.65402 0.93539 0.40407
 H2898 H 0.68367 0.92452 0.39290
 C2899 C 0.76367 0.38979 0.89173
 C2900 C 0.76955 0.37196 0.89613
 C2901 C 0.78615 0.36514 0.88920
 C2902 C 0.79720 0.37589 0.87731
 C2903 C 0.79106 0.39382 0.87293
 C2904 C 0.77462 0.40071 0.88019
 C2905 C 0.74605 0.39694 0.89905
 C2906 C 0.74527 0.41428 0.90756
 C2907 C 0.72863 0.42097 0.91455
 C2908 C 0.71234 0.41060 0.91290
 C2909 C 0.71320 0.39328 0.90420
 C2910 C 0.72990 0.38647 0.89751
 C2911 C 0.69453 0.41778 0.92015
 C2912 C 0.68134 0.40575 0.92765
 C2913 C 0.66449 0.41242 0.93409
 C2914 C 0.66046 0.43135 0.93350
 C2915 C 0.67374 0.44342 0.92623
 C2916 C 0.69048 0.43672 0.91952
 H2917 H 0.76132 0.36330 0.90507
 H2918 H 0.78986 0.35121 0.89280
 H2919 H 0.79907 0.40289 0.86428
 H2920 H 0.77033 0.41452 0.87659
 H2921 H 0.75761 0.42251 0.90907
 H2922 H 0.72861 0.43418 0.92146
 H2923 H 0.70093 0.38505 0.90229
 H2924 H 0.73015 0.37315 0.89079
 H2925 H 0.68403 0.39114 0.92867
 H2926 H 0.65452 0.40265 0.93931
 H2927 H 0.67126 0.45810 0.92578
 H2928 H 0.70015 0.44640 0.91362
 C2929 C 0.73404 0.89433 1.10684
 C2930 C 0.72104 0.88645 1.09485
 C2931 C 0.70442 0.87955 1.10169
 C2932 C 0.70039 0.88056 1.12062
 C2933 C 0.71330 0.88868 1.13255
 C2934 C 0.72996 0.89543 1.12574
 C2935 C 0.75192 0.90116 1.09975
 C2936 C 0.76830 0.89724 1.10925
 C2937 C 0.78517 0.90372 1.10270
 C2938 C 0.78606 0.91438 1.08654
 C2939 C 0.76965 0.91825 1.07701
 C2940 C 0.75277 0.91166 1.08351
 C2941 C 0.80403 0.92143 1.07974
 C2942 C 0.80793 0.92196 1.06076
 C2943 C 0.82493 0.92839 1.05443
 C2944 C 0.83847 0.93437 1.06693
 C2945 C 0.83454 0.93389 1.08590
 C2946 C 0.81752 0.92756 1.09222
 H2947 H 0.72388 0.88532 1.08024
 H2948 H 0.69466 0.87350 1.09218
 H2949 H 0.71069 0.88947 1.14721
 H2950 H 0.73965 0.90160 1.13527
 H2951 H 0.76809 0.88893 1.12164
 H2952 H 0.79757 0.90015 1.11018
 H2953 H 0.76980 0.92664 1.06468
 H2954 H 0.74032 0.91505 1.07602
 H2955 H 0.79794 0.91716 1.05078
 H2956 H 0.82744 0.92877 1.03972
 H2957 H 0.84473 0.93817 1.09593
 H2958 H 0.81489 0.92758 1.10692
 C2959 C 0.73579 0.39314 0.60884
 C2960 C 0.73167 0.39419 0.62774
 C2961 C 0.71506 0.38728 0.63452
 C2962 C 0.70226 0.37901 0.62257
 C2963 C 0.70635 0.37800 0.60365
 C2964 C 0.72291 0.38508 0.59684
 C2965 C 0.75356 0.40024 0.60174
 C2966 C 0.75422 0.41075 0.58551
 C2967 C 0.77099 0.41752 0.57891
 C2968 C 0.78750 0.41379 0.58834
 C2969 C 0.78680 0.40314 0.60452
 C2970 C 0.77002 0.39651 0.61117
 C2971 C 0.80538 0.42093 0.58136
 C2972 C 0.81898 0.42710 0.59370
 C2973 C 0.83590 0.43352 0.58720
 C2974 C 0.83962 0.43405 0.56818
 C2975 C 0.82597 0.42803 0.55582
 C2976 C 0.80907 0.42151 0.56233
 H2977 H 0.74128 0.40048 0.63727
 H2978 H 0.71237 0.38808 0.64917
 H2979 H 0.69668 0.37185 0.59412
 H2980 H 0.72579 0.38397 0.58223
 H2981 H 0.74170 0.41401 0.57808
 H2982 H 0.77098 0.42591 0.56658
 H2983 H 0.79927 0.39969 0.61192
 H2984 H 0.76995 0.38819 0.62356
 H2985 H 0.81651 0.42709 0.60842
 H2986 H 0.84618 0.43781 0.59711
 H2987 H 0.82830 0.42845 0.54109
 H2988 H 0.79900 0.41667 0.55245
 C2989 C 0.23536 0.89328 0.60793
 C2990 C 0.22239 0.88541 0.59590
 C2991 C 0.20580 0.87842 0.60270
 C2992 C 0.20176 0.87930 0.62163
 C2993 C 0.21465 0.88737 0.63361
 C2994 C 0.23130 0.89422 0.62685
 C2995 C 0.25316 0.90031 0.60082
 C2996 C 0.26962 0.89645 0.61020
 C2997 C 0.28642 0.90300 0.60352
 C2998 C 0.28714 0.91369 0.58737
 C2999 C 0.27064 0.91754 0.57799
 C3000 C 0.25384 0.91087 0.58461
 C3001 C 0.30503 0.92078 0.58038
 C3002 C 0.30872 0.92137 0.56136
 C3003 C 0.32561 0.92790 0.55484
 C3004 C 0.33925 0.93393 0.56721
 C3005 C 0.33555 0.93336 0.58622
 C3006 C 0.31864 0.92693 0.59272
 H3007 H 0.22522 0.88439 0.58128
 H3008 H 0.19606 0.87243 0.59313
 H3009 H 0.21200 0.88808 0.64828
 H3010 H 0.24097 0.90035 0.63640
 H3011 H 0.26954 0.88809 0.62256
 H3012 H 0.29889 0.89947 0.61088
 H3013 H 0.27065 0.92597 0.56568
 H3014 H 0.24133 0.91423 0.57723
 H3015 H 0.29864 0.91655 0.55148
 H3016 H 0.32795 0.92834 0.54011
 H3017 H 0.34583 0.93765 0.59614
 H3018 H 0.31618 0.92690 0.60745
 C3019 C 0.23629 0.39165 1.10882
 C3020 C 0.23068 0.39564 1.12686
 C3021 C 0.21409 0.38872 1.13371
 C3022 C 0.20277 0.37726 1.12277
 C3023 C 0.20864 0.37329 1.10461
 C3024 C 0.22508 0.38053 1.09772
 C3025 C 0.25391 0.39896 1.10166
 C3026 C 0.25464 0.40775 1.08445
 C3027 C 0.27126 0.41481 1.07780
 C3028 C 0.28758 0.41298 1.08811
 C3029 C 0.28678 0.40398 1.10528
 C3030 C 0.27011 0.39719 1.11203
 C3031 C 0.30535 0.42038 1.08102
 C3032 C 0.31849 0.42778 1.09319
 C3033 C 0.33532 0.43437 1.08662
 C3034 C 0.33938 0.43400 1.06766
 C3035 C 0.32615 0.42683 1.05546
 C3036 C 0.30941 0.42001 1.06206
 H3037 H 0.23910 0.40426 1.13567
 H3038 H 0.21060 0.39200 1.14781
 H3039 H 0.20043 0.36497 1.09540
 H3040 H 0.22917 0.37724 1.08374
 H3041 H 0.24226 0.40944 1.07629
 H3042 H 0.27124 0.42195 1.06470
 H3043 H 0.29909 0.40193 1.11343
 H3044 H 0.26992 0.39025 1.12525
 H3045 H 0.31577 0.42861 1.10784
 H3046 H 0.34526 0.43950 1.09649
 H3047 H 0.32867 0.42655 1.04075
 H3048 H 0.29977 0.41420 1.05228
 C3049 C 0.73490 1.10768 0.89203
 C3050 C 0.72913 1.10312 0.87417
 C3051 C 0.71249 1.10984 0.86724
 C3052 C 0.70129 1.12168 0.87789
 C3053 C 0.70725 1.12610 0.89592
 C3054 C 0.72373 1.11905 0.90291
 C3055 C 0.75270 1.10081 0.89917
 C3056 C 0.75377 1.09241 0.91655
 C3057 C 0.77059 1.08577 0.92315
 C3058 C 0.78677 1.08767 0.91262
 C3059 C 0.78562 1.09632 0.89530
 C3060 C 0.76875 1.10267 0.88859
 C3061 C 0.80474 1.08064 0.91961
 C3062 C 0.81783 1.07327 0.90738
 C3063 C 0.83481 1.06697 0.91382
 C3064 C 0.83907 1.06755 0.93273
 C3065 C 0.82591 1.07473 0.94500
 C3066 C 0.80902 1.08130 0.93852
 H3067 H 0.73751 1.09428 0.86555
 H3068 H 0.70892 1.10617 0.85326
 H3069 H 0.69910 1.13469 0.90493
 H3070 H 0.72793 1.12275 0.91676
 H3071 H 0.74152 1.09069 0.92488
 H3072 H 0.77084 1.07890 0.93639
 H3073 H 0.79779 1.09844 0.88697
 H3074 H 0.76829 1.10933 0.87524
 H3075 H 0.81495 1.07223 0.89277
 H3076 H 0.84468 1.06183 0.90390
 H3077 H 0.82859 1.07519 0.95968
 H3078 H 0.79942 1.08711 0.94834
 C3079 C 0.73701 0.60936 0.39134
 C3080 C 0.73327 0.60866 0.37232
 C3081 C 0.71671 0.61553 0.36533
 C3082 C 0.70357 0.62337 0.37717
 C3083 C 0.70731 0.62413 0.39617
 C3084 C 0.72381 0.61716 0.40318
 C3085 C 0.75463 0.60205 0.39876
 C3086 C 0.76382 0.61115 0.41320
 C3087 C 0.78046 0.60434 0.42005
 C3088 C 0.78835 0.58835 0.41255
 C3089 C 0.77916 0.57921 0.39817
 C3090 C 0.76247 0.58594 0.39138
 C3091 C 0.80619 0.58132 0.41956
 C3092 C 0.81978 0.57519 0.40723
 C3093 C 0.83665 0.56868 0.41377
 C3094 C 0.84028 0.56803 0.43280
 C3095 C 0.82665 0.57414 0.44514
 C3096 C 0.80981 0.58076 0.43858
 H3097 H 0.74326 0.60307 0.36278
 H3098 H 0.71434 0.61502 0.35061
 H3099 H 0.69732 0.62983 0.40565
 H3100 H 0.72611 0.61763 0.41792
 H3101 H 0.75832 0.62374 0.41899
 H3102 H 0.78737 0.61181 0.43098
 H3103 H 0.78479 0.56670 0.39231
 H3104 H 0.75560 0.57841 0.38050
 H3105 H 0.81748 0.57574 0.39248
 H3106 H 0.84697 0.56443 0.40388
 H3107 H 0.82890 0.57357 0.45989
 H3108 H 0.79949 0.58519 0.44840
 C3109 C 0.23732 1.10991 0.38947
 C3110 C 0.23173 1.12797 0.39357
 C3111 C 0.21517 1.13494 0.38671
 C3112 C 0.20372 1.12416 0.37525
 C3113 C 0.20950 1.10606 0.37111
 C3114 C 0.22593 1.09904 0.37823
 C3115 C 0.25498 1.10249 0.39681
 C3116 C 0.26571 1.09032 0.38623
 C3117 C 0.28228 1.08336 0.39309
 C3118 C 0.28870 1.08856 0.41063
 C3119 C 0.27800 1.10077 0.42120
 C3120 C 0.26131 1.10755 0.41443
 C3121 C 0.30653 1.08138 0.41780
 C3122 C 0.30883 1.07755 0.43669
 C3123 C 0.32562 1.07097 0.44340
 C3124 C 0.34039 1.06781 0.43134
 C3125 C 0.33814 1.07150 0.41248
 C3126 C 0.32145 1.07833 0.40580
 H3127 H 0.24034 1.13692 0.40183
 H3128 H 0.21181 1.14904 0.39002
 H3129 H 0.20115 1.09692 0.36286
 H3130 H 0.22954 1.08491 0.37512
 H3131 H 0.26145 1.08630 0.37250
 H3132 H 0.28997 1.07377 0.38466
 H3133 H 0.28259 1.10530 0.43466
 H3134 H 0.25331 1.11666 0.42311
 H3135 H 0.29757 1.07939 0.44630
 H3136 H 0.32701 1.06806 0.45798
 H3137 H 0.34943 1.06941 0.40296
 H3138 H 0.32036 1.08148 0.39126
 C3139 C 0.23559 0.60808 0.89311
 C3140 C 0.23000 0.62610 0.89735
 C3141 C 0.21347 0.63316 0.89049
 C3142 C 0.20208 0.62250 0.87885
 C3143 C 0.20776 0.60437 0.87473
 C3144 C 0.22415 0.59726 0.88186
 C3145 C 0.25337 0.60069 0.90018
 C3146 C 0.26404 0.58868 0.88934
 C3147 C 0.28081 0.58188 0.89587
 C3148 C 0.28750 0.58708 0.91330
 C3149 C 0.27684 0.59908 0.92415
 C3150 C 0.25995 0.60570 0.91772
 C3151 C 0.30559 0.58016 0.92005
 C3152 C 0.30837 0.57631 0.93887
 C3153 C 0.32543 0.57003 0.94518
 C3154 C 0.33999 0.56719 0.93279
 C3155 C 0.33726 0.57088 0.91400
 C3156 C 0.32030 0.57742 0.90771
 H3157 H 0.23862 0.63500 0.90566
 H3158 H 0.21015 0.64726 0.89385
 H3159 H 0.19941 0.59530 0.86640
 H3160 H 0.22774 0.58315 0.87868
 H3161 H 0.25959 0.58471 0.87567
 H3162 H 0.28846 0.57244 0.88723
 H3163 H 0.28163 0.60361 0.93753
 H3164 H 0.25201 0.61469 0.92658
 H3165 H 0.29730 0.57791 0.94872
 H3166 H 0.32719 0.56711 0.95972
 H3167 H 0.34838 0.56903 0.90422
 H3168 H 0.31884 0.58060 0.89321
 C3169 C 1.10831 1.26488 1.10582
 C3170 C 1.09638 1.27797 1.11361
 C3171 C 1.10326 1.29459 1.12051
 C3172 C 1.12218 1.29853 1.11958
 C3173 C 1.13405 1.28554 1.11153
 C3174 C 1.12720 1.26887 1.10479
 C3175 C 1.10116 1.24700 1.09901
 C3176 C 1.11052 1.23058 1.10306
 C3177 C 1.10387 1.21371 1.09665
 C3178 C 1.08776 1.21286 1.08592
 C3179 C 1.07838 1.22932 1.08191
 C3180 C 1.08498 1.24620 1.08844
 C3181 C 1.08084 1.19488 1.07895
 C3182 C 1.06186 1.19115 1.07831
 C3183 C 1.05542 1.17417 1.07190
 C3184 C 1.06781 1.16048 1.06606
 C3185 C 1.08678 1.16424 1.06667
 C3186 C 1.09321 1.18124 1.07297
 H3187 H 1.08177 1.27520 1.11469
 H3188 H 1.09378 1.30441 1.12650
 H3189 H 1.14870 1.28809 1.11080
 H3190 H 1.13668 1.25911 1.09869
 H3191 H 1.12286 1.23076 1.11143
 H3192 H 1.11123 1.20128 1.10033
 H3193 H 1.06610 1.22921 1.07345
 H3194 H 1.07760 1.25868 1.08494
 H3195 H 1.05197 1.20126 1.08299
 H3196 H 1.04072 1.17180 1.07142
 H3197 H 1.09671 1.15393 1.06251
 H3198 H 1.10790 1.18373 1.07304
 C3199 C 1.10915 0.76440 0.60626
 C3200 C 1.09708 0.77734 0.61408
 C3201 C 1.10378 0.79399 0.62105
 C3202 C 1.12266 0.79811 0.62018
 C3203 C 1.13469 0.78525 0.61216
 C3204 C 1.12801 0.76854 0.60535
 C3205 C 1.10212 0.74655 0.59925
 C3206 C 1.11152 0.73012 0.60321
 C3207 C 1.10489 0.71327 0.59671
 C3208 C 1.08879 0.71247 0.58597
 C3209 C 1.07942 0.72894 0.58199
 C3210 C 1.08598 0.74578 0.58862
 C3211 C 1.08182 0.69451 0.57900
 C3212 C 1.06282 0.69084 0.57840
 C3213 C 1.05631 0.67389 0.57201
 C3214 C 1.06863 0.66017 0.56614
 C3215 C 1.08762 0.66385 0.56670
 C3216 C 1.09412 0.68083 0.57299
 H3217 H 1.08249 0.77445 0.61509
 H3218 H 1.09419 0.80372 0.62700
 H3219 H 1.14932 0.78796 0.61147
 H3220 H 1.13760 0.75888 0.59925
 H3221 H 1.12384 0.73028 0.61162
 H3222 H 1.11225 0.70083 0.60034
 H3223 H 1.06715 0.72886 0.57352
 H3224 H 1.07859 0.75827 0.58518
 H3225 H 1.05297 0.70098 0.58312
 H3226 H 1.04159 0.67158 0.57156
 H3227 H 1.09750 0.65351 0.56252
 H3228 H 1.10882 0.68327 0.57303
 C3229 C 0.61004 1.26350 0.60794
 C3230 C 0.62893 1.26754 0.60694
 C3231 C 0.63575 1.28416 0.61386
 C3232 C 0.62384 1.29702 0.62206
 C3233 C 0.60495 1.29298 0.62304
 C3234 C 0.59811 1.27643 0.61597
 C3235 C 0.60285 1.24578 0.60077
 C3236 C 0.58664 1.24526 0.59022
 C3237 C 0.57989 1.22855 0.58345
 C3238 C 0.58914 1.21195 0.58720
 C3239 C 0.60532 1.21251 0.59785
 C3240 C 0.61212 1.22923 0.60449
 C3241 C 0.58199 1.19414 0.58004
 C3242 C 0.59416 1.18043 0.57382
 C3243 C 0.58748 1.16360 0.56730
 C3244 C 0.56846 1.16010 0.56670
 C3245 C 0.55628 1.17384 0.57280
 C3246 C 0.56296 1.19064 0.57943
 H3247 H 0.63842 1.25788 0.60069
 H3248 H 0.65038 1.28682 0.61307
 H3249 H 0.59544 1.30271 0.62912
 H3250 H 0.58351 1.27362 0.61704
 H3251 H 0.57934 1.25785 0.58696
 H3252 H 0.56758 1.22867 0.57504
 H3253 H 0.61259 1.19997 0.60130
 H3254 H 0.62449 1.22920 0.61282
 H3255 H 0.60888 1.18273 0.57386
 H3256 H 0.59727 1.15324 0.56295
 H3257 H 0.54154 1.17167 0.57235
 H3258 H 0.55320 1.20080 0.58431
 C3259 C 0.60905 0.76417 1.10733
 C3260 C 0.60862 0.76775 1.12638
 C3261 C 0.61546 0.78429 1.13342
 C3262 C 0.62299 0.79763 1.12160
 C3263 C 0.62356 0.79403 1.10256
 C3264 C 0.61663 0.77751 1.09550
 C3265 C 0.60166 0.74658 1.09989
 C3266 C 0.61062 0.73743 1.08534
 C3267 C 0.60382 0.72072 1.07860
 C3268 C 0.58797 0.71276 1.08632
 C3269 C 0.57893 0.72197 1.10075
 C3270 C 0.58567 0.73870 1.10743
 C3271 C 0.58100 0.69480 1.07952
 C3272 C 0.57504 0.68129 1.09202
 C3273 C 0.56857 0.66432 1.08569
 C3274 C 0.56781 0.66049 1.06670
 C3275 C 0.57375 0.67403 1.05419
 C3276 C 0.58031 0.69099 1.06054
 H3277 H 0.60322 0.75764 1.13591
 H3278 H 0.61513 0.78652 1.14817
 H3279 H 0.62906 0.80414 1.09310
 H3280 H 0.61693 0.77531 1.08074
 H3281 H 0.62312 0.74298 1.07941
 H3282 H 0.61119 0.71382 1.06762
 H3283 H 0.56652 0.71630 1.10676
 H3284 H 0.57824 0.74556 1.11840
 H3285 H 0.57569 0.68374 1.10674
 H3286 H 0.56446 0.65407 1.09571
 H3287 H 0.57309 0.67162 1.03947
 H3288 H 0.58461 0.70123 1.05058
 C3289 C 0.89319 1.26460 0.89170
 C3290 C 0.89437 1.26860 0.87276
 C3291 C 0.88720 1.28501 0.86574
 C3292 C 0.87855 1.29775 0.87745
 C3293 C 0.87737 1.29381 0.89637
 C3294 C 0.88467 1.27746 0.90343
 C3295 C 0.90063 1.24702 0.89912
 C3296 C 0.89135 1.23755 0.91325
 C3297 C 0.89817 1.22088 0.92001
 C3298 C 0.91435 1.21321 0.91269
 C3299 C 0.92369 1.22267 0.89864
 C3300 C 0.91695 1.23942 0.89198
 C3301 C 0.92131 1.19528 0.91951
 C3302 C 0.92740 1.18178 0.90705
 C3303 C 0.93364 1.16474 0.91341
 C3304 C 0.93408 1.16085 0.93241
 C3305 C 0.92811 1.17444 0.94487
 C3306 C 0.92172 1.19143 0.93849
 H3307 H 0.90052 1.25887 0.86327
 H3308 H 0.88806 1.28754 0.85106
 H3309 H 0.87102 1.30350 0.90575
 H3310 H 0.88382 1.27500 0.91813
 H3311 H 0.87858 1.24282 0.91885
 H3312 H 0.89057 1.21375 0.93068
 H3313 H 0.93633 1.21720 0.89293
 H3314 H 0.92464 1.24650 0.88134
 H3315 H 0.92697 1.18428 0.89234
 H3316 H 0.93779 1.15448 0.90341
 H3317 H 0.92855 1.17201 0.95959
 H3318 H 0.91732 1.20168 0.94840
 C3319 C 0.89146 0.76344 0.39055
 C3320 C 0.87257 0.76740 0.39181
 C3321 C 0.86562 0.78406 0.38515
 C3322 C 0.87739 0.79704 0.37694
 C3323 C 0.89628 0.79306 0.37568
 C3324 C 0.90325 0.77647 0.38249
 C3325 C 0.89879 0.74571 0.39754
 C3326 C 0.91510 0.74520 0.40793
 C3327 C 0.92188 0.72849 0.41464
 C3328 C 0.91257 0.71190 0.41101
 C3329 C 0.89633 0.71244 0.40046
 C3330 C 0.88948 0.72916 0.39387
 C3331 C 0.91969 0.69411 0.41824
 C3332 C 0.90749 0.68052 0.42464
 C3333 C 0.91411 0.66374 0.43130
 C3334 C 0.93312 0.66017 0.43187
 C3335 C 0.94534 0.67378 0.42554
 C3336 C 0.93871 0.69053 0.41878
 H3337 H 0.86319 0.75767 0.39810
 H3338 H 0.85099 0.78666 0.38615
 H3339 H 0.90568 0.80288 0.36957
 H3340 H 0.91785 0.77372 0.38122
 H3341 H 0.92242 0.75778 0.41114
 H3342 H 0.93426 0.72861 0.42296
 H3343 H 0.88901 0.69990 0.39709
 H3344 H 0.87704 0.72912 0.38565
 H3345 H 0.89278 0.68289 0.42466
 H3346 H 0.90429 0.65347 0.43582
 H3347 H 0.96007 0.67154 0.42596
 H3348 H 0.94848 0.70060 0.41376
 C3349 C 0.38928 1.26149 0.38881
 C3350 C 0.38135 1.27456 0.40071
 C3351 C 0.37405 1.29095 0.39376
 C3352 C 0.37460 1.29470 0.37477
 C3353 C 0.38255 1.28168 0.36286
 C3354 C 0.38975 1.26524 0.36979
 C3355 C 0.39703 1.24404 0.39620
 C3356 C 0.41320 1.23648 0.38870
 C3357 C 0.42040 1.22000 0.39554
 C3358 C 0.41165 1.21076 0.41012
 C3359 C 0.39555 1.21834 0.41771
 C3360 C 0.38829 1.23476 0.41079
 C3361 C 0.41919 1.19320 0.41729
 C3362 C 0.42003 1.18989 0.43635
 C3363 C 0.42695 1.17324 0.44308
 C3364 C 0.43309 1.15949 0.43089
 C3365 C 0.43227 1.16285 0.41181
 C3366 C 0.42546 1.17954 0.40509
 H3367 H 0.38105 1.27228 0.41546
 H3368 H 0.36827 1.30085 0.40329
 H3369 H 0.38292 1.28407 0.34814
 H3370 H 0.39545 1.25533 0.36020
 H3371 H 0.42047 1.24343 0.37768
 H3372 H 0.43296 1.21460 0.38960
 H3373 H 0.38837 1.21137 0.42877
 H3374 H 0.37564 1.24001 0.41667
 H3375 H 0.41552 1.20027 0.44607
 H3376 H 0.42767 1.17121 0.45786
 H3377 H 0.43656 1.15243 0.40203
 H3378 H 0.42473 1.18162 0.39032
 C3379 C 0.39053 0.76250 0.88974
 C3380 C 0.38240 0.77548 0.90161
 C3381 C 0.37509 0.79186 0.89465
 C3382 C 0.37584 0.79571 0.87569
 C3383 C 0.38400 0.78278 0.86381
 C3384 C 0.39120 0.76634 0.87074
 C3385 C 0.39823 0.74501 0.89710
 C3386 C 0.41447 0.73750 0.88970
 C3387 C 0.42157 0.72095 0.89647
 C3388 C 0.41268 0.71160 0.91088
 C3389 C 0.39653 0.71914 0.91839
 C3390 C 0.38935 0.73563 0.91155
 C3391 C 0.42010 0.69393 0.91793
 C3392 C 0.42080 0.69044 0.93696
 C3393 C 0.42760 0.67370 0.94358
 C3394 C 0.43373 0.66002 0.93130
 C3395 C 0.43306 0.66357 0.91225
 C3396 C 0.42638 0.68036 0.90564
 H3397 H 0.38194 0.77311 0.91634
 H3398 H 0.36913 0.80168 0.90416
 H3399 H 0.38452 0.78524 0.84911
 H3400 H 0.39704 0.75651 0.86116
 H3401 H 0.42184 0.74453 0.87880
 H3402 H 0.43418 0.71558 0.89059
 H3403 H 0.38925 0.71209 0.92934
 H3404 H 0.37666 0.74085 0.91736
 H3405 H 0.41629 0.70076 0.94675
 H3406 H 0.42821 0.67153 0.95834
 H3407 H 0.43734 0.65322 0.90240
 H3408 H 0.42576 0.68258 0.89089
 C3409 C 1.10917 0.73678 0.89082
 C3410 C 1.10812 0.73269 0.87192
 C3411 C 1.11505 0.71608 0.86510
 C3412 C 1.12334 0.70329 0.87702
 C3413 C 1.12442 0.70740 0.89592
 C3414 C 1.11734 0.72393 0.90277
 C3415 C 1.10186 0.75444 0.89803
 C3416 C 1.09136 0.75486 0.91428
 C3417 C 1.08438 0.77150 0.92100
 C3418 C 1.08787 0.78811 0.91167
 C3419 C 1.09849 0.78765 0.89546
 C3420 C 1.10534 0.77100 0.88869
 C3421 C 1.08048 0.80585 0.91879
 C3422 C 1.07409 0.81943 0.90657
 C3423 C 1.06739 0.83620 0.91321
 C3424 C 1.06679 0.83977 0.93225
 C3425 C 1.07306 0.82614 0.94450
 C3426 C 1.07986 0.80940 0.93785
 H3427 H 1.10176 0.74227 0.86242
 H3428 H 1.11418 0.71337 0.85045
 H3429 H 1.13058 0.69772 0.90544
 H3430 H 1.11846 0.72680 0.91738
 H3431 H 1.08827 0.74226 0.92164
 H3432 H 1.07600 0.77131 0.93334
 H3433 H 1.10175 0.80021 0.88813
 H3434 H 1.11363 0.77111 0.87627
 H3435 H 1.07413 0.81707 0.89182
 H3436 H 1.06291 0.84648 0.90338
 H3437 H 1.07260 0.82836 0.95925
 H3438 H 1.08487 0.79934 0.94764
 C3439 C 1.10889 0.23656 0.39005
 C3440 C 1.09705 0.22302 0.38292
 C3441 C 1.10412 0.20649 0.37600
 C3442 C 1.12316 0.20311 0.37620
 C3443 C 1.13498 0.21662 0.38344
 C3444 C 1.12793 0.23318 0.39023
 C3445 C 1.10146 0.25420 0.39722
 C3446 C 1.11024 0.27092 0.39307
 C3447 C 1.10339 0.28753 0.39994
 C3448 C 1.08764 0.28781 0.41120
 C3449 C 1.07882 0.27107 0.41529
 C3450 C 1.08563 0.25445 0.40834
 C3451 C 1.08053 0.30549 0.41869
 C3452 C 1.06149 0.30882 0.41980
 C3453 C 1.05485 0.32553 0.42668
 C3454 C 1.06709 0.33933 0.43258
 C3455 C 1.08611 0.33597 0.43152
 C3456 C 1.09275 0.31925 0.42471
 H3457 H 1.08233 0.22531 0.38247
 H3458 H 1.09467 0.19627 0.37067
 H3459 H 1.14972 0.21451 0.38360
 H3460 H 1.13737 0.24329 0.39580
 H3461 H 1.12229 0.27118 0.38428
 H3462 H 1.11031 0.30020 0.39622
 H3463 H 1.06683 0.27077 0.42415
 H3464 H 1.07871 0.24175 0.41196
 H3465 H 1.05171 0.29860 0.41510
 H3466 H 1.04012 0.32762 0.42748
 H3467 H 1.09592 0.34639 0.43573
 H3468 H 1.10748 0.31705 0.42427
 C3469 C 0.60714 0.73491 0.39294
 C3470 C 0.59530 0.72157 0.38541
 C3471 C 0.60234 0.70497 0.37863
 C3472 C 0.62131 0.70130 0.37941
 C3473 C 0.63309 0.71456 0.38716
 C3474 C 0.62609 0.73119 0.39380
 C3475 C 0.59983 0.75274 0.39972
 C3476 C 0.60901 0.76924 0.39559
 C3477 C 0.60231 0.78605 0.40210
 C3478 C 0.58632 0.78675 0.41300
 C3479 C 0.57707 0.77022 0.41704
 C3480 C 0.58373 0.75341 0.41042
 C3481 C 0.57943 0.80465 0.42017
 C3482 C 0.56045 0.80837 0.42094
 C3483 C 0.55404 0.82529 0.42751
 C3484 C 0.56646 0.83892 0.43342
 C3485 C 0.58542 0.83518 0.43270
 C3486 C 0.59182 0.81824 0.42622
 H3487 H 0.58065 0.72413 0.38446
 H3488 H 0.59293 0.69495 0.37287
 H3489 H 0.64779 0.71223 0.38777
 H3490 H 0.63551 0.74114 0.39970
 H3491 H 0.62127 0.76917 0.38710
 H3492 H 0.60956 0.79854 0.39840
 H3493 H 0.56488 0.77024 0.42561
 H3494 H 0.57649 0.74087 0.41399
 H3495 H 0.55054 0.79829 0.41621
 H3496 H 0.53934 0.82767 0.42807
 H3497 H 0.59538 0.84544 0.43692
 H3498 H 0.60651 0.81575 0.42605
 C3499 C 0.60882 0.23606 0.89230
 C3500 C 0.62768 0.23196 0.89362
 C3501 C 0.63457 0.21535 0.88678
 C3502 C 0.62278 0.20255 0.87832
 C3503 C 0.60392 0.20663 0.87702
 C3504 C 0.59699 0.22317 0.88402
 C3505 C 0.60158 0.25379 0.89936
 C3506 C 0.58524 0.25436 0.90970
 C3507 C 0.57852 0.27109 0.91645
 C3508 C 0.58791 0.28764 0.91289
 C3509 C 0.60419 0.28704 0.90241
 C3510 C 0.61098 0.27030 0.89579
 C3511 C 0.58082 0.30547 0.92008
 C3512 C 0.59303 0.31907 0.92645
 C3513 C 0.58644 0.33592 0.93298
 C3514 C 0.56744 0.33956 0.93344
 C3515 C 0.55520 0.32592 0.92719
 C3516 C 0.56181 0.30910 0.92055
 H3517 H 0.63708 0.24158 0.90007
 H3518 H 0.64918 0.21267 0.88781
 H3519 H 0.59450 0.19694 0.87072
 H3520 H 0.58242 0.22603 0.88271
 H3521 H 0.57784 0.24180 0.91284
 H3522 H 0.56611 0.27101 0.92472
 H3523 H 0.61157 0.29955 0.89908
 H3524 H 0.62345 0.27029 0.88761
 H3525 H 0.60774 0.31666 0.92653
 H3526 H 0.59627 0.34620 0.93744
 H3527 H 0.54047 0.32819 0.92754
 H3528 H 0.55202 0.29903 0.91555
 C3529 C 0.89247 0.73561 1.10762
 C3530 C 0.89333 0.73183 1.12661
 C3531 C 0.88638 0.71534 1.13364
 C3532 C 0.87831 0.70225 1.12187
 C3533 C 0.87743 0.70601 1.10288
 C3534 C 0.88446 0.72248 1.09583
 C3535 C 0.89970 0.75327 1.10021
 C3536 C 0.89034 0.76261 1.08607
 C3537 C 0.89693 0.77940 1.07938
 C3538 C 0.91302 0.78730 1.08670
 C3539 C 0.92247 0.77789 1.10075
 C3540 C 0.91591 0.76107 1.10740
 C3541 C 0.91978 0.80538 1.07990
 C3542 C 0.93873 0.80871 1.07779
 C3543 C 0.94505 0.82580 1.07157
 C3544 C 0.93255 0.83990 1.06724
 C3545 C 0.91361 0.83658 1.06930
 C3546 C 0.90730 0.81954 1.07559
 H3547 H 0.89908 0.74179 1.13612
 H3548 H 0.88699 0.71298 1.14836
 H3549 H 0.87152 0.69608 1.09345
 H3550 H 0.88384 0.72483 1.08110
 H3551 H 0.87771 0.75710 1.08037
 H3552 H 0.88945 0.78617 1.06839
 H3553 H 0.93479 0.78367 1.10683
 H3554 H 0.92359 0.75412 1.11813
 H3555 H 0.94869 0.79802 1.08071
 H3556 H 0.95971 0.82791 1.06990
 H3557 H 0.90368 0.84730 1.06634
 H3558 H 0.89264 0.81757 1.07739
 C3559 C 0.89060 0.23668 0.60976
 C3560 C 0.87169 0.23277 0.60888
 C3561 C 0.86484 0.21609 0.61560
 C3562 C 0.87675 0.20305 0.62348
 C3563 C 0.89567 0.20698 0.62440
 C3564 C 0.90254 0.22359 0.61753
 C3565 C 0.89784 0.25439 0.60264
 C3566 C 0.91393 0.25486 0.59192
 C3567 C 0.92065 0.27155 0.58510
 C3568 C 0.91148 0.28817 0.58895
 C3569 C 0.89544 0.28767 0.59980
 C3570 C 0.88866 0.27097 0.60651
 C3571 C 0.91856 0.30594 0.58167
 C3572 C 0.90633 0.31962 0.57551
 C3573 C 0.91294 0.33641 0.56887
 C3574 C 0.93195 0.33991 0.56810
 C3575 C 0.94420 0.32620 0.57415
 C3576 C 0.93758 0.30943 0.58089
 H3577 H 0.86220 0.24254 0.60282
 H3578 H 0.85019 0.21352 0.61487
 H3579 H 0.90518 0.19711 0.63023
 H3580 H 0.91716 0.22632 0.61851
 H3581 H 0.92115 0.24225 0.58854
 H3582 H 0.93286 0.27140 0.57654
 H3583 H 0.88823 0.30023 0.60333
 H3584 H 0.87638 0.27104 0.61497
 H3585 H 0.89161 0.31730 0.57568
 H3586 H 0.90311 0.34675 0.56455
 H3587 H 0.95893 0.32838 0.57357
 H3588 H 0.94738 0.29929 0.58572
 C3589 C 0.38987 0.73748 0.60971
 C3590 C 0.39090 0.73349 0.62865
 C3591 C 0.38391 0.71696 0.63557
 C3592 C 0.37562 0.70408 0.62374
 C3593 C 0.37453 0.70806 0.60482
 C3594 C 0.38162 0.72455 0.59787
 C3595 C 0.39729 0.75509 0.60236
 C3596 C 0.38801 0.76459 0.58827
 C3597 C 0.39489 0.78122 0.58147
 C3598 C 0.41119 0.78881 0.58864
 C3599 C 0.42052 0.77928 0.60269
 C3600 C 0.41367 0.76261 0.60944
 C3601 C 0.41835 0.80665 0.58160
 C3602 C 0.43737 0.80951 0.57937
 C3603 C 0.44405 0.82634 0.57284
 C3604 C 0.43186 0.84063 0.56829
 C3605 C 0.41286 0.83780 0.57049
 C3606 C 0.40618 0.82102 0.57711
 H3607 H 0.39685 0.74329 0.63820
 H3608 H 0.38469 0.71440 0.65025
 H3609 H 0.36847 0.69828 0.59533
 H3610 H 0.38087 0.72704 0.58317
 H3611 H 0.37525 0.75930 0.58264
 H3612 H 0.38749 0.78807 0.57048
 H3613 H 0.43299 0.78483 0.60867
 H3614 H 0.42130 0.75554 0.62013
 H3615 H 0.44709 0.79864 0.58243
 H3616 H 0.45875 0.82808 0.57108
 H3617 H 0.40316 0.84869 0.56738
 H3618 H 0.39149 0.81942 0.57900
 C3619 C 0.39001 0.23751 1.10953
 C3620 C 0.37103 0.23380 1.10894
 C3621 C 0.36413 0.21714 1.11563
 C3622 C 0.37603 0.20388 1.12317
 C3623 C 0.39501 0.20761 1.12376
 C3624 C 0.40193 0.22422 1.11695
 C3625 C 0.39732 0.25524 1.10249
 C3626 C 0.41336 0.25568 1.09168
 C3627 C 0.42017 0.27239 1.08499
 C3628 C 0.41115 0.28904 1.08903
 C3629 C 0.39515 0.28856 1.09993
 C3630 C 0.38829 0.27185 1.10654
 C3631 C 0.41833 0.30682 1.08186
 C3632 C 0.40617 0.32057 1.07574
 C3633 C 0.41286 0.33734 1.06913
 C3634 C 0.43189 0.34075 1.06838
 C3635 C 0.44407 0.32698 1.07443
 C3636 C 0.43737 0.31022 1.08111
 H3637 H 0.36154 0.24373 1.10315
 H3638 H 0.34944 0.21473 1.11516
 H3639 H 0.40453 0.19758 1.12932
 H3640 H 0.41659 0.22677 1.11771
 H3641 H 0.42046 0.24306 1.08815
 H3642 H 0.43235 0.27223 1.07638
 H3643 H 0.38806 0.30115 1.10360
 H3644 H 0.37606 0.27195 1.11507
 H3645 H 0.39143 0.31832 1.07590
 H3646 H 0.40309 0.34774 1.06481
 H3647 H 0.45881 0.32910 1.07387
 H3648 H 0.44710 0.30001 1.08591
 C3649 C 1.10754 1.10725 0.73467
 C3650 C 1.12555 1.10308 0.72920
 C3651 C 1.13261 1.10993 0.71267
 C3652 C 1.12193 1.12151 0.70123
 C3653 C 1.10373 1.12552 0.70685
 C3654 C 1.09662 1.11834 0.72326
 C3655 C 1.10033 1.10025 0.75242
 C3656 C 1.08312 1.09152 0.75330
 C3657 C 1.07654 1.08463 0.77005
 C3658 C 1.08691 1.08660 0.78634
 C3659 C 1.10403 1.09562 0.78539
 C3660 C 1.11071 1.10223 0.76860
 C3661 C 1.07998 1.07929 0.80424
 C3662 C 1.09225 1.07202 0.81735
 C3663 C 1.08586 1.06556 0.83432
 C3664 C 1.06697 1.06593 0.83856
 C3665 C 1.05466 1.07294 0.82534
 C3666 C 1.06108 1.07964 0.80846
 H3667 H 1.13421 1.09445 0.73775
 H3668 H 1.14671 1.10658 0.70938
 H3669 H 1.09471 1.13390 0.69851
 H3670 H 1.08265 1.12173 0.72722
 H3671 H 1.07495 1.08970 0.74094
 H3672 H 1.06346 1.07750 0.77016
 H3673 H 1.11222 1.09780 0.79767
 H3674 H 1.12392 1.10915 0.76830
 H3675 H 1.10685 1.07120 0.81450
 H3676 H 1.09580 1.06054 0.84422
 H3677 H 1.04000 1.07321 0.82800
 H3678 H 1.05123 1.08534 0.79884
 C3679 C 1.10828 0.60815 0.23534
 C3680 C 1.09740 0.61934 0.22399
 C3681 C 1.10456 0.62664 0.20765
 C3682 C 1.12277 0.62266 0.20204
 C3683 C 1.13342 0.61100 0.21343
 C3684 C 1.12631 0.60402 0.22989
 C3685 C 1.10100 0.60100 0.25300
 C3686 C 1.11136 0.60276 0.26923
 C3687 C 1.10460 0.59601 0.28594
 C3688 C 1.08743 0.58707 0.28676
 C3689 C 1.07709 0.58532 0.27042
 C3690 C 1.08375 0.59234 0.25375
 C3691 C 1.08041 0.57963 0.30456
 C3692 C 1.06151 0.58006 0.30874
 C3693 C 1.05500 0.57326 0.32555
 C3694 C 1.06724 0.56606 0.33873
 C3695 C 1.08613 0.56561 0.33454
 C3696 C 1.09260 0.57217 0.31764
 H3697 H 1.08342 0.62271 0.22793
 H3698 H 1.09556 0.63508 0.19935
 H3699 H 1.14752 0.60767 0.21016
 H3700 H 1.13493 0.59532 0.23840
 H3701 H 1.12459 0.60962 0.26903
 H3702 H 1.11277 0.59803 0.29825
 H3703 H 1.06398 0.57825 0.27043
 H3704 H 1.07559 0.59068 0.24136
 H3705 H 1.05172 0.58591 0.29914
 H3706 H 1.04034 0.57359 0.32817
 H3707 H 1.09602 0.56044 0.34442
 H3708 H 1.10721 0.57129 0.31483
 C3709 C 0.60670 1.10650 0.23398
 C3710 C 0.60206 1.12444 0.22847
 C3711 C 0.60897 1.13183 0.21208
 C3712 C 0.62107 1.12161 0.20078
 C3713 C 0.62559 1.10355 0.20637
 C3714 C 0.61841 1.09610 0.22261
 C3715 C 0.59962 1.09880 0.25166
 C3716 C 0.61060 1.08700 0.26240
 C3717 C 0.60411 1.08004 0.27914
 C3718 C 0.58657 1.08489 0.28575
 C3719 C 0.57557 1.09665 0.27498
 C3720 C 0.58195 1.10340 0.25811
 C3721 C 0.57990 1.07793 0.30388
 C3722 C 0.56115 1.07386 0.30666
 C3723 C 0.55489 1.06768 0.32380
 C3724 C 0.56726 1.06516 0.33844
 C3725 C 0.58598 1.06901 0.33570
 C3726 C 0.59221 1.07546 0.31867
 H3727 H 0.59341 1.13304 0.23704
 H3728 H 0.60529 1.14586 0.20883
 H3729 H 0.63430 1.09481 0.19806
 H3730 H 0.62191 1.08205 0.22613
 H3731 H 0.62437 1.08333 0.25806
 H3732 H 0.61287 1.07078 0.28686
 H3733 H 0.56209 1.10090 0.27969
 H3734 H 0.57297 1.11220 0.25011
 H3735 H 0.55132 1.07524 0.29554
 H3736 H 0.54040 1.06463 0.32557
 H3737 H 0.59573 1.06739 0.34688
 H3738 H 0.60665 1.07882 0.31722
 C3739 C 0.60769 0.60693 0.73472
 C3740 C 0.61587 0.59533 0.72152
 C3741 C 0.62290 0.60255 0.70511
 C3742 C 0.62180 0.62151 0.70145
 C3743 C 0.61351 0.63309 0.71456
 C3744 C 0.60660 0.62590 0.73103
 C3745 C 0.60049 0.59934 0.75235
 C3746 C 0.58431 0.60645 0.76025
 C3747 C 0.57781 0.59969 0.77707
 C3748 C 0.58727 0.58558 0.78632
 C3749 C 0.60329 0.57826 0.77832
 C3750 C 0.60986 0.58511 0.76156
 C3751 C 0.58059 0.57875 0.80438
 C3752 C 0.58018 0.55980 0.80823
 C3753 C 0.57383 0.55343 0.82527
 C3754 C 0.56788 0.56588 0.83888
 C3755 C 0.56844 0.58485 0.83503
 C3756 C 0.57465 0.59120 0.81795
 H3757 H 0.61666 0.58062 0.72378
 H3758 H 0.62898 0.59328 0.69514
 H3759 H 0.61274 0.64779 0.71227
 H3760 H 0.60072 0.63528 0.74103
 H3761 H 0.57655 0.61715 0.75337
 H3762 H 0.56528 0.60539 0.78279
 H3763 H 0.61097 0.56753 0.78526
 H3764 H 0.62252 0.57951 0.75602
 H3765 H 0.58449 0.54990 0.79793
 H3766 H 0.57333 0.53873 0.82769
 H3767 H 0.56433 0.59484 0.84532
 H3768 H 0.57510 0.60589 0.81547
 C3769 C 0.89245 0.89325 0.73468
 C3770 C 0.89349 0.87435 0.73071
 C3771 C 0.88696 0.86749 0.71395
 C3772 C 0.87912 0.87937 0.70083
 C3773 C 0.87814 0.89829 0.70476
 C3774 C 0.88482 0.90518 0.72148
 C3775 C 0.89916 0.90042 0.75261
 C3776 C 0.90980 0.91655 0.75343
 C3777 C 0.91634 0.92309 0.77035
 C3778 C 0.91229 0.91370 0.78681
 C3779 C 0.90147 0.89767 0.78595
 C3780 C 0.89504 0.89108 0.76904
 C3781 C 0.91937 0.92050 0.80482
 C3782 C 0.92534 0.90803 0.81838
 C3783 C 0.93176 0.91435 0.83540
 C3784 C 0.93250 0.93330 0.83925
 C3785 C 0.92666 0.94579 0.82565
 C3786 C 0.92014 0.93946 0.80865
 H3787 H 0.89946 0.86487 0.74056
 H3788 H 0.88772 0.85284 0.71140
 H3789 H 0.87231 0.90777 0.69484
 H3790 H 0.88374 0.91980 0.72423
 H3791 H 0.91335 0.92391 0.74095
 H3792 H 0.92487 0.93532 0.77048
 H3793 H 0.89776 0.89031 0.79839
 H3794 H 0.88662 0.87878 0.76884
 H3795 H 0.92517 0.89335 0.81581
 H3796 H 0.93591 0.90434 0.84564
 H3797 H 0.92724 0.96048 0.82809
 H3798 H 0.91547 0.94944 0.79859
 C3799 C 0.88908 0.39044 0.23698
 C3800 C 0.89291 0.37228 0.23171
 C3801 C 0.88631 0.36531 0.21502
 C3802 C 0.87536 0.37625 0.20320
 C3803 C 0.87151 0.39451 0.20874
 C3804 C 0.87843 0.40152 0.22531
 C3805 C 0.89615 0.39776 0.25467
 C3806 C 0.90519 0.41482 0.25533
 C3807 C 0.91219 0.42152 0.27199
 C3808 C 0.91006 0.41142 0.28842
 C3809 C 0.90075 0.39444 0.28770
 C3810 C 0.89401 0.38763 0.27099
 C3811 C 0.91752 0.41851 0.30620
 C3812 C 0.92470 0.40633 0.31944
 C3813 C 0.93144 0.41290 0.33624
 C3814 C 0.93145 0.43186 0.34017
 C3815 C 0.92447 0.44407 0.32684
 C3816 C 0.91750 0.43747 0.31013
 H3817 H 0.90117 0.36349 0.24049
 H3818 H 0.88945 0.35114 0.21182
 H3819 H 0.86358 0.40371 0.20017
 H3820 H 0.87527 0.41559 0.22912
 H3821 H 0.90717 0.42279 0.24287
 H3822 H 0.91955 0.43448 0.27191
 H3823 H 0.89846 0.38646 0.30009
 H3824 H 0.88688 0.37453 0.27086
 H3825 H 0.92524 0.39167 0.31682
 H3826 H 0.93642 0.40304 0.34626
 H3827 H 0.92448 0.45878 0.32926
 H3828 H 0.91187 0.44726 0.30040
 C3829 C 0.39182 0.89075 0.23519
 C3830 C 0.40286 0.88006 0.22350
 C3831 C 0.39580 0.87311 0.20697
 C3832 C 0.37752 0.87694 0.20149
 C3833 C 0.36667 0.88803 0.21327
 C3834 C 0.37369 0.89468 0.22991
 C3835 C 0.39908 0.89767 0.25296
 C3836 C 0.38881 0.89551 0.26920
 C3837 C 0.39554 0.90210 0.28600
 C3838 C 0.41258 0.91128 0.28690
 C3839 C 0.42283 0.91342 0.27056
 C3840 C 0.41621 0.90657 0.25380
 C3841 C 0.41954 0.91860 0.30478
 C3842 C 0.43846 0.91837 0.30891
 C3843 C 0.44493 0.92516 0.32575
 C3844 C 0.43264 0.93217 0.33899
 C3845 C 0.41373 0.93239 0.33486
 C3846 C 0.40729 0.92582 0.31794
 H3847 H 0.41692 0.87685 0.22731
 H3848 H 0.40494 0.86509 0.19841
 H3849 H 0.35250 0.89121 0.21011
 H3850 H 0.36493 0.90299 0.23868
 H3851 H 0.37568 0.88847 0.26893
 H3852 H 0.38745 0.89980 0.29831
 H3853 H 0.43585 0.92067 0.27064
 H3854 H 0.42429 0.90855 0.24141
 H3855 H 0.44830 0.91271 0.29924
 H3856 H 0.45960 0.92500 0.32834
 H3857 H 0.40381 0.93740 0.34480
 H3858 H 0.39267 0.92653 0.31516
 C3859 C 0.39026 0.39006 0.73677
 C3860 C 0.37135 0.39110 0.73284
 C3861 C 0.36444 0.38429 0.71619
 C3862 C 0.37626 0.37616 0.70320
 C3863 C 0.39517 0.37512 0.70714
 C3864 C 0.40211 0.38207 0.72372
 C3865 C 0.39757 0.39718 0.75449
 C3866 C 0.41381 0.40766 0.75494
 C3867 C 0.42061 0.41446 0.77164
 C3868 C 0.41137 0.41082 0.78829
 C3869 C 0.39518 0.40022 0.78781
 C3870 C 0.38833 0.39354 0.77110
 C3871 C 0.41854 0.41809 0.80608
 C3872 C 0.40638 0.42448 0.81973
 C3873 C 0.41306 0.43116 0.83651
 C3874 C 0.43208 0.43173 0.84003
 C3875 C 0.44426 0.42542 0.82636
 C3876 C 0.43757 0.41865 0.80960
 H3877 H 0.36193 0.39733 0.74258
 H3878 H 0.34979 0.38512 0.71362
 H3879 H 0.40462 0.36909 0.69731
 H3880 H 0.41672 0.38096 0.72645
 H3881 H 0.42109 0.41087 0.74231
 H3882 H 0.43294 0.42282 0.77147
 H3883 H 0.38791 0.39686 0.80040
 H3884 H 0.37593 0.38526 0.77119
 H3885 H 0.39166 0.42448 0.81740
 H3886 H 0.40328 0.43567 0.84683
 H3887 H 0.45899 0.42585 0.82855
 H3888 H 0.44731 0.41364 0.79948
 C3889 C 1.10927 0.89039 1.26382
 C3890 C 1.10530 0.87231 1.26924
 C3891 C 1.11213 0.86533 1.28583
 C3892 C 1.12347 0.87618 1.29736
 C3893 C 1.12741 0.89437 1.29169
 C3894 C 1.12027 0.90139 1.27524
 C3895 C 1.10206 0.89769 1.24619
 C3896 C 1.09330 0.91490 1.24556
 C3897 C 1.08634 0.92169 1.22893
 C3898 C 1.08824 0.91153 1.21250
 C3899 C 1.09722 0.89437 1.21319
 C3900 C 1.10392 0.88747 1.22987
 C3901 C 1.08090 0.91875 1.19473
 C3902 C 1.07349 0.90670 1.18148
 C3903 C 1.06689 0.91339 1.16468
 C3904 C 1.06724 0.93235 1.16077
 C3905 C 1.07446 0.94443 1.17410
 C3906 C 1.08130 0.93771 1.19081
 H3907 H 1.09677 0.86357 1.26065
 H3908 H 1.10888 0.85122 1.28916
 H3909 H 1.13563 0.90352 1.30007
 H3910 H 1.12355 0.91540 1.27131
 H3911 H 1.09155 0.92294 1.25802
 H3912 H 1.07922 0.93478 1.22903
 H3913 H 1.09932 0.88633 1.20080
 H3914 H 1.11084 0.87427 1.22999
 H3915 H 1.07266 0.89206 1.18409
 H3916 H 1.06172 0.90362 1.15466
 H3917 H 1.07474 0.95913 1.17168
 H3918 H 1.08712 0.94739 1.20054
 C3919 C 1.10771 0.39179 0.76526
 C3920 C 1.09699 0.38052 0.77676
 C3921 C 1.10427 0.37327 0.79306
 C3922 C 1.12248 0.37728 0.79856
 C3923 C 1.13306 0.38884 0.78704
 C3924 C 1.12584 0.39582 0.77062
 C3925 C 1.10013 0.39912 0.74764
 C3926 C 1.10522 0.41667 0.74122
 C3927 C 1.09855 0.42331 0.72441
 C3928 C 1.08642 0.41268 0.71368
 C3929 C 1.08109 0.39526 0.72025
 C3930 C 1.08794 0.38853 0.73694
 C3931 C 1.07954 0.41962 0.69562
 C3932 C 1.07671 0.40744 0.68078
 C3933 C 1.07025 0.41390 0.66383
 C3934 C 1.06672 0.43271 0.66124
 C3935 C 1.06965 0.44495 0.67592
 C3936 C 1.07586 0.43846 0.69297
 H3937 H 1.08282 0.37745 0.77332
 H3938 H 1.09527 0.36495 0.80150
 H3939 H 1.14723 0.39207 0.79017
 H3940 H 1.13468 0.40409 0.76193
 H3941 H 1.11433 0.42536 0.74920
 H3942 H 1.10316 0.43668 0.71972
 H3943 H 1.07153 0.38680 0.71254
 H3944 H 1.08389 0.37486 0.74128
 H3945 H 1.07977 0.39292 0.68213
 H3946 H 1.06833 0.40423 0.65262
 H3947 H 1.06684 0.45950 0.67428
 H3948 H 1.07754 0.44821 0.70415
 C3949 C 0.60721 0.89278 0.76524
 C3950 C 0.60631 0.87383 0.76902
 C3951 C 0.61293 0.86688 0.78570
 C3952 C 0.62071 0.87869 0.79893
 C3953 C 0.62154 0.89765 0.79518
 C3954 C 0.61478 0.90464 0.77854
 C3955 C 0.60043 0.90006 0.74738
 C3956 C 0.58979 0.91620 0.74672
 C3957 C 0.58321 0.92286 0.72988
 C3958 C 0.58722 0.91359 0.71332
 C3959 C 0.59803 0.89755 0.71402
 C3960 C 0.60451 0.89084 0.73086
 C3961 C 0.58009 0.92052 0.69540
 C3962 C 0.57400 0.90814 0.68179
 C3963 C 0.56751 0.91458 0.66485
 C3964 C 0.56684 0.93355 0.66112
 C3965 C 0.57282 0.94595 0.67477
 C3966 C 0.57939 0.93950 0.69169
 H3967 H 0.60038 0.86439 0.75910
 H3968 H 0.61228 0.85219 0.78810
 H3969 H 0.62731 0.90709 0.80518
 H3970 H 0.61576 0.91929 0.77593
 H3971 H 0.58627 0.92347 0.75927
 H3972 H 0.57470 0.93510 0.72986
 H3973 H 0.60169 0.89028 0.70151
 H3974 H 0.61293 0.87854 0.73093
 H3975 H 0.57412 0.89345 0.68426
 H3976 H 0.56325 0.90464 0.65456
 H3977 H 0.57230 0.96065 0.67240
 H3978 H 0.58416 0.94940 0.70179
 C3979 C 0.60755 0.39191 1.26578
 C3980 C 0.61881 0.40282 1.27704
 C3981 C 0.62588 0.39584 1.29354
 C3982 C 0.62159 0.37779 1.29943
 C3983 C 0.60993 0.36708 1.28810
 C3984 C 0.60318 0.37400 1.27145
 C3985 C 0.60055 0.39909 1.24802
 C3986 C 0.60239 0.38865 1.23185
 C3987 C 0.59592 0.39542 1.21504
 C3988 C 0.58717 0.41269 1.21406
 C3989 C 0.58529 0.42308 1.23035
 C3990 C 0.59204 0.41641 1.24712
 C3991 C 0.58004 0.41976 1.19614
 C3992 C 0.58063 0.43868 1.19200
 C3993 C 0.57398 0.44526 1.17515
 C3994 C 0.56679 0.43308 1.16189
 C3995 C 0.56627 0.41417 1.16602
 C3996 C 0.57266 0.40763 1.18295
 H3997 H 0.62238 0.41670 1.27291
 H3998 H 0.63434 0.40490 1.30177
 H3999 H 0.60639 0.35307 1.29161
 H4000 H 0.59445 0.36534 1.26299
 H4001 H 0.60913 0.37535 1.23219
 H4002 H 0.59801 0.38720 1.20277
 H4003 H 0.57835 0.43626 1.23023
 H4004 H 0.59033 0.42463 1.25946
 H4005 H 0.58644 0.44843 1.20167
 H4006 H 0.57439 0.45993 1.17258
 H4007 H 0.56112 0.40432 1.15607
 H4008 H 0.57168 0.39302 1.18572
 C4009 C 0.89340 1.10715 1.26506
 C4010 C 0.89401 1.12614 1.26881
 C4011 C 0.88699 1.13311 1.28532
 C4012 C 0.87907 1.12129 1.29844
 C4013 C 0.87840 1.10233 1.29471
 C4014 C 0.88553 1.09532 1.27823
 C4015 C 0.90079 1.09980 1.24741
 C4016 C 0.89171 1.08545 1.23809
 C4017 C 0.89845 1.07884 1.22129
 C4018 C 0.91436 1.08649 1.21339
 C4019 C 0.92352 1.10073 1.22275
 C4020 C 0.91685 1.10727 1.23959
 C4021 C 0.92122 1.07985 1.19531
 C4022 C 0.92709 1.09243 1.18184
 C4023 C 0.93330 1.08624 1.16469
 C4024 C 0.93388 1.06731 1.16066
 C4025 C 0.92810 1.05473 1.17421
 C4026 C 0.92178 1.06093 1.19132
 H4027 H 0.89964 1.13568 1.25883
 H4028 H 0.88741 1.14782 1.28766
 H4029 H 0.87260 1.09287 1.30466
 H4030 H 0.88509 1.08060 1.27590
 H4031 H 0.87915 1.07959 1.24356
 H4032 H 0.89098 1.06801 1.21426
 H4033 H 0.93597 1.10669 1.21712
 H4034 H 0.92438 1.11809 1.24657
 H4035 H 0.92654 1.10710 1.18444
 H4036 H 0.93731 1.09631 1.15446
 H4037 H 0.92865 1.04005 1.17165
 H4038 H 0.91756 1.05092 1.20154
 C4039 C 0.89322 0.60816 0.76519
 C4040 C 0.87430 0.60716 0.76900
 C4041 C 0.86734 0.61362 0.78575
 C4042 C 0.87915 0.62135 0.79901
 C4043 C 0.89809 0.62230 0.79523
 C4044 C 0.90508 0.61570 0.77852
 C4045 C 0.90050 0.60151 0.74728
 C4046 C 0.91664 0.59089 0.74652
 C4047 C 0.92327 0.58438 0.72963
 C4048 C 0.91398 0.58847 0.71312
 C4049 C 0.89795 0.59930 0.71391
 C4050 C 0.89126 0.60568 0.73079
 C4051 C 0.92086 0.58140 0.69515
 C4052 C 0.90845 0.57538 0.68154
 C4053 C 0.91484 0.56889 0.66458
 C4054 C 0.93381 0.56812 0.66084
 C4055 C 0.94623 0.57405 0.67447
 C4056 C 0.93983 0.58064 0.69141
 H4057 H 0.86487 0.60126 0.75905
 H4058 H 0.85267 0.61288 0.78818
 H4059 H 0.90752 0.62805 0.80525
 H4060 H 0.91971 0.61675 0.77588
 H4061 H 0.92391 0.58729 0.75905
 H4062 H 0.93550 0.57586 0.72955
 H4063 H 0.89066 0.60302 0.70143
 H4064 H 0.87896 0.61411 0.73094
 H4065 H 0.89376 0.57555 0.68404
 H4066 H 0.90488 0.56467 0.65431
 H4067 H 0.96093 0.57347 0.67209
 H4068 H 0.94975 0.58535 0.70151
 C4069 C 0.39108 1.10948 0.76347
 C4070 C 0.39144 1.12851 0.76703
 C4071 C 0.38434 1.13556 0.78349
 C4072 C 0.37663 1.12376 0.79674
 C4073 C 0.37620 1.10475 0.79319
 C4074 C 0.38339 1.09768 0.77677
 C4075 C 0.39864 1.10203 0.74594
 C4076 C 0.38982 1.08742 0.73677
 C4077 C 0.39679 1.08060 0.72015
 C4078 C 0.41268 1.08831 0.71227
 C4079 C 0.42156 1.10284 0.72145
 C4080 C 0.41466 1.10959 0.73811
 C4081 C 0.41984 1.08137 0.69441
 C4082 C 0.42582 1.09373 0.68077
 C4083 C 0.43233 1.08725 0.66385
 C4084 C 0.43311 1.06825 0.66020
 C4085 C 0.42722 1.05589 0.67390
 C4086 C 0.42061 1.06238 0.69080
 H4087 H 0.39693 1.13803 0.75694
 H4088 H 0.38459 1.15029 0.78569
 H4089 H 0.37058 1.09531 0.80326
 H4090 H 0.38317 1.08294 0.77460
 H4091 H 0.37730 1.08148 0.74226
 H4092 H 0.38952 1.06955 0.71325
 H4093 H 0.43399 1.10886 0.71583
 H4094 H 0.42199 1.12061 0.74497
 H4095 H 0.42512 1.10844 0.68307
 H4096 H 0.43643 1.09715 0.65347
 H4097 H 0.42791 1.04117 0.67164
 H4098 H 0.41631 1.05254 0.70115
 C4099 C 0.39314 0.60836 1.26528
 C4100 C 0.40379 0.61948 1.27700
 C4101 C 0.39631 0.62679 1.29319
 C4102 C 0.37795 0.62300 1.29834
 C4103 C 0.36743 0.61162 1.28658
 C4104 C 0.37486 0.60458 1.27028
 C4105 C 0.40092 0.60092 1.24778
 C4106 C 0.39557 0.58348 1.24122
 C4107 C 0.40224 0.57681 1.22443
 C4108 C 0.41464 0.58728 1.21395
 C4109 C 0.42035 0.60451 1.22061
 C4110 C 0.41347 0.61131 1.23728
 C4111 C 0.42129 0.58041 1.19592
 C4112 C 0.44010 0.58088 1.19154
 C4113 C 0.44631 0.57440 1.17448
 C4114 C 0.43379 0.56757 1.16132
 C4115 C 0.41494 0.56726 1.16576
 C4116 C 0.40878 0.57347 1.18291
 H4117 H 0.41806 0.62237 1.27382
 H4118 H 0.40524 0.63498 1.30183
 H4119 H 0.35316 0.60857 1.28941
 H4120 H 0.36606 0.59646 1.26139
 H4121 H 0.38628 0.57489 1.24909
 H4122 H 0.39783 0.56338 1.21967
 H4123 H 0.42977 0.61291 1.21267
 H4124 H 0.41767 0.62492 1.24170
 H4125 H 0.45002 0.58602 1.20144
 H4126 H 0.46094 0.57455 1.17170
 H4127 H 0.40485 0.56250 1.15586
 H4128 H 0.39418 0.57320 1.18589
 C4129 C 1.10800 1.26407 0.89211
 C4130 C 1.09610 1.27740 0.88469
 C4131 C 1.10306 1.29404 0.87794
 C4132 C 1.12203 1.29774 0.87863
 C4133 C 1.13388 1.28448 0.88625
 C4134 C 1.12695 1.26781 0.89286
 C4135 C 1.10075 1.24622 0.89889
 C4136 C 1.10993 1.22973 0.89466
 C4137 C 1.10328 1.21290 0.90117
 C4138 C 1.08735 1.21217 0.91216
 C4139 C 1.07812 1.22868 0.91630
 C4140 C 1.08472 1.24552 0.90969
 C4141 C 1.08049 1.19425 0.91930
 C4142 C 1.06151 1.19054 0.92016
 C4143 C 1.05513 1.17361 0.92672
 C4144 C 1.06756 1.15996 0.93251
 C4145 C 1.08653 1.16369 0.93169
 C4146 C 1.09291 1.18063 0.92522
 H4147 H 1.08144 1.27482 0.88383
 H4148 H 1.09360 1.30406 0.87229
 H4149 H 1.14858 1.28684 0.88678
 H4150 H 1.13642 1.25787 0.89866
 H4151 H 1.12214 1.22982 0.88610
 H4152 H 1.11051 1.20042 0.89739
 H4153 H 1.06597 1.22864 0.92495
 H4154 H 1.07749 1.25804 0.91333
 H4155 H 1.05158 1.20064 0.91553
 H4156 H 1.04042 1.17125 0.92736
 H4157 H 1.09649 1.15340 0.93582
 H4158 H 1.10760 1.18311 0.92498
 C4159 C 1.11088 0.76230 0.39072
 C4160 C 1.11826 0.77564 0.40266
 C4161 C 1.12507 0.79225 0.39570
 C4162 C 1.12450 0.79592 0.37668
 C4163 C 1.11705 0.78260 0.36477
 C4164 C 1.11037 0.76595 0.37171
 C4165 C 1.10375 0.74461 0.39805
 C4166 C 1.10769 0.72797 0.38899
 C4167 C 1.10086 0.71132 0.39576
 C4168 C 1.08983 0.71092 0.41169
 C4169 C 1.08594 0.72758 0.42078
 C4170 C 1.09287 0.74424 0.41405
 C4171 C 1.08238 0.69320 0.41872
 C4172 C 1.08147 0.68970 0.43777
 C4173 C 1.07459 0.67297 0.44434
 C4174 C 1.06849 0.65932 0.43202
 C4175 C 1.06936 0.66284 0.41298
 C4176 C 1.07618 0.67958 0.40642
 H4177 H 1.11897 0.77314 0.41736
 H4178 H 1.13057 0.80232 0.40522
 H4179 H 1.11660 0.78494 0.35005
 H4180 H 1.10461 0.75599 0.36220
 H4181 H 1.11628 0.72782 0.37679
 H4182 H 1.10441 0.69871 0.38863
 H4183 H 1.07727 0.72780 0.43291
 H4184 H 1.08941 0.75688 0.42118
 H4185 H 1.08632 0.69981 0.44762
 H4186 H 1.07393 0.67077 0.45909
 H4187 H 1.06501 0.65253 0.40311
 H4188 H 1.07646 0.68190 0.39168
 C4189 C 0.60844 1.26410 0.39271
 C4190 C 0.59668 1.27703 0.38440
 C4191 C 0.60363 1.29359 0.37749
 C4192 C 0.62248 1.29766 0.37884
 C4193 C 0.63423 1.28483 0.38730
 C4194 C 0.62731 1.26822 0.39411
 C4195 C 0.60111 1.24631 0.39972
 C4196 C 0.60798 1.23855 0.41609
 C4197 C 0.60127 1.22169 0.42251
 C4198 C 0.58748 1.21221 0.41276
 C4199 C 0.58052 1.22005 0.39646
 C4200 C 0.58728 1.23686 0.39000
 C4201 C 0.58050 1.19417 0.41946
 C4202 C 0.57631 1.17999 0.40693
 C4203 C 0.56983 1.16300 0.41320
 C4204 C 0.56749 1.15976 0.43215
 C4205 C 0.57167 1.17389 0.44469
 C4206 C 0.57805 1.19092 0.43842
 H4207 H 0.58203 1.27445 0.38340
 H4208 H 0.59421 1.30333 0.37130
 H4209 H 0.64886 1.28747 0.38829
 H4210 H 0.63680 1.25844 0.40013
 H4211 H 0.61847 1.24556 0.42404
 H4212 H 0.60709 1.21596 0.43499
 H4213 H 0.56973 1.21324 0.38874
 H4214 H 0.58184 1.24232 0.37723
 H4215 H 0.57836 1.18189 0.39227
 H4216 H 0.56698 1.15225 0.40324
 H4217 H 0.56978 1.17183 0.45936
 H4218 H 0.58085 1.20164 0.44842
 C4219 C 0.60903 0.76316 0.89113
 C4220 C 0.62794 0.76715 0.89196
 C4221 C 0.63469 0.78388 0.88529
 C4222 C 0.62271 0.79692 0.87750
 C4223 C 0.60380 0.79291 0.87665
 C4224 C 0.59702 0.77624 0.88346
 C4225 C 0.60190 0.74538 0.89818
 C4226 C 0.58581 0.74476 0.90889
 C4227 C 0.57920 0.72800 0.91566
 C4228 C 0.58850 0.71146 0.91177
 C4229 C 0.60454 0.71211 0.90094
 C4230 C 0.61120 0.72887 0.89428
 C4231 C 0.58153 0.69361 0.91899
 C4232 C 0.59385 0.68002 0.92516
 C4233 C 0.58735 0.66316 0.93173
 C4234 C 0.56836 0.65950 0.93240
 C4235 C 0.55603 0.67313 0.92635
 C4236 C 0.56254 0.68997 0.91969
 H4237 H 0.63749 0.75739 0.89795
 H4238 H 0.64934 0.78650 0.88596
 H4239 H 0.59423 0.80277 0.87088
 H4240 H 0.58241 0.77347 0.88252
 H4241 H 0.57850 0.75730 0.91230
 H4242 H 0.56698 0.72804 0.92420
 H4243 H 0.61184 0.69960 0.89739
 H4244 H 0.62348 0.72891 0.88582
 H4245 H 0.60855 0.68245 0.92504
 H4246 H 0.59723 0.65288 0.93606
 H4247 H 0.54131 0.67083 0.92686
 H4248 H 0.55268 0.70005 0.91485
 C4249 C 0.89020 1.26322 1.10979
 C4250 C 0.89392 1.26854 1.12798
 C4251 C 0.88706 1.28511 1.13495
 C4252 C 0.87594 1.29673 1.12398
 C4253 C 0.87220 1.29112 1.10568
 C4254 C 0.87938 1.27470 1.09868
 C4255 C 0.89754 1.24568 1.10245
 C4256 C 0.90652 1.24518 1.08532
 C4257 C 0.91362 1.22864 1.07850
 C4258 C 0.91165 1.21217 1.08854
 C4259 C 0.90246 1.21274 1.10562
 C4260 C 0.89562 1.22933 1.11255
 C4261 C 0.91911 1.19450 1.08126
 C4262 C 0.92643 1.18121 1.09331
 C4263 C 0.93311 1.16449 1.08656
 C4264 C 0.93293 1.16068 1.06754
 C4265 C 0.92583 1.17405 1.05546
 C4266 C 0.91891 1.19069 1.06224
 H4267 H 0.90231 1.25992 1.13681
 H4268 H 0.89013 1.28838 1.14915
 H4269 H 0.86415 1.29955 1.09644
 H4270 H 0.87628 1.27084 1.08458
 H4271 H 0.90833 1.25767 1.07737
 H4272 H 0.92090 1.22883 1.06548
 H4273 H 0.90031 1.20032 1.11356
 H4274 H 0.88854 1.22935 1.12569
 H4275 H 0.92711 1.18374 1.10800
 H4276 H 0.93820 1.15443 1.09632
 H4277 H 0.92568 1.17172 1.04072
 H4278 H 0.91317 1.20046 1.05255
 C4279 C 0.89218 0.76448 0.60820
 C4280 C 0.87322 0.76824 0.60738
 C4281 C 0.86628 0.78491 0.61400
 C4282 C 0.87811 0.79814 0.62171
 C4283 C 0.89707 0.79439 0.62251
 C4284 C 0.90404 0.77776 0.61576
 C4285 C 0.89950 0.74671 0.60130
 C4286 C 0.91559 0.74617 0.59058
 C4287 C 0.92236 0.72942 0.58394
 C4288 C 0.91325 0.71282 0.58797
 C4289 C 0.89723 0.71339 0.59884
 C4290 C 0.89041 0.73014 0.60538
 C4291 C 0.92033 0.69498 0.58082
 C4292 C 0.90809 0.68127 0.57475
 C4293 C 0.91468 0.66445 0.56817
 C4294 C 0.93369 0.66094 0.56738
 C4295 C 0.94595 0.67467 0.57336
 C4296 C 0.93935 0.69148 0.58003
 H4297 H 0.86378 0.75831 0.60148
 H4298 H 0.85160 0.78734 0.61336
 H4299 H 0.90653 0.80439 0.62822
 H4300 H 0.91869 0.77518 0.61669
 H4301 H 0.92275 0.75876 0.58704
 H4302 H 0.93456 0.72950 0.57537
 H4303 H 0.89007 0.70084 0.60252
 H4304 H 0.87814 0.73012 0.61386
 H4305 H 0.89337 0.68359 0.57493
 H4306 H 0.90484 0.65409 0.56391
 H4307 H 0.96068 0.67247 0.57276
 H4308 H 0.94916 0.70166 0.58478
 C4309 C 0.39251 1.26443 0.60734
 C4310 C 0.39684 1.27004 0.62536
 C4311 C 0.38980 1.28644 0.63255
 C4312 C 0.37789 1.29767 0.62206
 C4313 C 0.37363 1.29194 0.60394
 C4314 C 0.38094 1.27569 0.59668
 C4315 C 0.39982 1.24679 0.59979
 C4316 C 0.38910 1.23596 0.58783
 C4317 C 0.39584 1.21930 0.58094
 C4318 C 0.41338 1.21287 0.58603
 C4319 C 0.42411 1.22372 0.59797
 C4320 C 0.41748 1.24050 0.60466
 C4321 C 0.42033 1.19486 0.57907
 C4322 C 0.43914 1.19231 0.57515
 C4323 C 0.44564 1.17531 0.56885
 C4324 C 0.43344 1.16059 0.56606
 C4325 C 0.41467 1.16310 0.56982
 C4326 C 0.40820 1.17998 0.57639
 H4327 H 0.40537 1.26155 0.63415
 H4328 H 0.39326 1.28979 0.64665
 H4329 H 0.36506 1.30018 0.59500
 H4330 H 0.37766 1.27207 0.58258
 H4331 H 0.37535 1.24018 0.58395
 H4332 H 0.38728 1.21151 0.57153
 H4333 H 0.43758 1.21914 0.60241
 H4334 H 0.42626 1.24858 0.61361
 H4335 H 0.44884 1.20350 0.57672
 H4336 H 0.46016 1.17373 0.56588
 H4337 H 0.40504 1.15185 0.56801
 H4338 H 0.39371 1.18125 0.57963
 C4339 C 0.39312 0.76548 1.10675
 C4340 C 0.40399 0.77698 1.11782
 C4341 C 0.39682 0.79341 1.12487
 C4342 C 0.37862 0.79896 1.12075
 C4343 C 0.36801 0.78743 1.10919
 C4344 C 0.37512 0.77089 1.10246
 C4345 C 0.40038 0.74771 1.09993
 C4346 C 0.38999 0.73156 1.10198
 C4347 C 0.39671 0.71475 1.09552
 C4348 C 0.41387 0.71373 1.08656
 C4349 C 0.42425 0.72997 1.08453
 C4350 C 0.41763 0.74676 1.09127
 C4351 C 0.42081 0.69581 1.07936
 C4352 C 0.43969 0.69157 1.07981
 C4353 C 0.44613 0.67468 1.07318
 C4354 C 0.43382 0.66148 1.06613
 C4355 C 0.41494 0.66573 1.06569
 C4356 C 0.40855 0.68270 1.07208
 H4357 H 0.41795 0.77308 1.12131
 H4358 H 0.40580 0.80182 1.13324
 H4359 H 0.35392 0.79066 1.10575
 H4360 H 0.36651 0.76226 1.09384
 H4361 H 0.37676 0.73192 1.10885
 H4362 H 0.38851 0.70250 1.09775
 H4363 H 0.43736 0.72981 1.07745
 H4364 H 0.42581 0.75908 1.08939
 H4365 H 0.44954 0.70120 1.08553
 H4366 H 0.46078 0.67200 1.07351
 H4367 H 0.40500 0.65583 1.06065
 H4368 H 0.39396 0.68556 1.07119
 C4369 C 0.89252 0.73499 0.89354
 C4370 C 0.90437 0.72179 0.88576
 C4371 C 0.89738 0.70531 0.87867
 C4372 C 0.87841 0.70161 0.87929
 C4373 C 0.86658 0.71475 0.88713
 C4374 C 0.87354 0.73127 0.89412
 C4375 C 0.89987 0.75265 0.90088
 C4376 C 0.89237 0.76055 0.91692
 C4377 C 0.89893 0.77737 0.92355
 C4378 C 0.91321 0.78664 0.91438
 C4379 C 0.92089 0.77866 0.89849
 C4380 C 0.91426 0.76188 0.89179
 C4381 C 0.91989 0.80469 0.92121
 C4382 C 0.93882 0.80862 0.92181
 C4383 C 0.94506 0.82570 0.92814
 C4384 C 0.93250 0.83927 0.93390
 C4385 C 0.91357 0.83531 0.93327
 C4386 C 0.90734 0.81820 0.92705
 H4387 H 0.91908 0.72408 0.88536
 H4388 H 0.90684 0.69532 0.87294
 H4389 H 0.85187 0.71244 0.88752
 H4390 H 0.86399 0.74128 0.89968
 H4391 H 0.88152 0.75364 0.92446
 H4392 H 0.89295 0.78307 0.93599
 H4393 H 0.93175 0.78561 0.89101
 H4394 H 0.92014 0.75633 0.87924
 H4395 H 0.94880 0.79837 0.91761
 H4396 H 0.95974 0.82820 0.92872
 H4397 H 0.90352 0.84556 0.93726
 H4398 H 0.89267 0.81565 0.92647
 C4399 C 0.89188 0.23537 0.39261
 C4400 C 0.88375 0.22227 0.40432
 C4401 C 0.87683 0.20577 0.39722
 C4402 C 0.87797 0.20195 0.37826
 C4403 C 0.88618 0.21498 0.36656
 C4404 C 0.89301 0.23152 0.37364
 C4405 C 0.89904 0.25303 0.40010
 C4406 C 0.91534 0.26080 0.39314
 C4407 C 0.92190 0.27756 0.39996
 C4408 C 0.91235 0.28693 0.41396
 C4409 C 0.89613 0.27909 0.42104
 C4410 C 0.88953 0.26237 0.41417
 C4411 C 0.91916 0.30491 0.42102
 C4412 C 0.90676 0.31913 0.42534
 C4413 C 0.91315 0.33609 0.43179
 C4414 C 0.93209 0.33926 0.43397
 C4415 C 0.94452 0.32507 0.42968
 C4416 C 0.93812 0.30807 0.42332
 H4417 H 0.88294 0.22466 0.41904
 H4418 H 0.87083 0.19587 0.40660
 H4419 H 0.88699 0.21256 0.35186
 H4420 H 0.89887 0.24145 0.36418
 H4421 H 0.92312 0.25386 0.38247
 H4422 H 0.93431 0.28330 0.39405
 H4423 H 0.88856 0.28583 0.43199
 H4424 H 0.87683 0.25689 0.41970
 H4425 H 0.89210 0.31727 0.42340
 H4426 H 0.90328 0.34687 0.43472
 H4427 H 0.95918 0.32708 0.43146
 H4428 H 0.94803 0.29732 0.42042
 C4429 C 0.39186 0.73521 0.39266
 C4430 C 0.40284 0.72371 0.38171
 C4431 C 0.39574 0.70730 0.37455
 C4432 C 0.37749 0.70177 0.37842
 C4433 C 0.36674 0.71330 0.38985
 C4434 C 0.37379 0.72983 0.39670
 C4435 C 0.39908 0.75295 0.39963
 C4436 C 0.38875 0.76913 0.39752
 C4437 C 0.39546 0.78592 0.40407
 C4438 C 0.41255 0.78688 0.41317
 C4439 C 0.42286 0.77060 0.41528
 C4440 C 0.41625 0.75384 0.40845
 C4441 C 0.41953 0.80478 0.42040
 C4442 C 0.43844 0.80892 0.42008
 C4443 C 0.44491 0.82580 0.42672
 C4444 C 0.43262 0.83908 0.43364
 C4445 C 0.41372 0.83492 0.43396
 C4446 C 0.40729 0.81796 0.42757
 H4447 H 0.41685 0.72760 0.37841
 H4448 H 0.40482 0.69890 0.36628
 H4449 H 0.35260 0.71008 0.39310
 H4450 H 0.36508 0.73845 0.40522
 H4451 H 0.37558 0.76882 0.39053
 H4452 H 0.38733 0.79819 0.40178
 H4453 H 0.43591 0.77071 0.42247
 H4454 H 0.42438 0.74149 0.41038
 H4455 H 0.44827 0.79924 0.41446
 H4456 H 0.45958 0.82840 0.42649
 H4457 H 0.40380 0.84488 0.43891
 H4458 H 0.39267 0.81518 0.42835
 C4459 C 0.39064 0.23657 0.89163
 C4460 C 0.39484 0.23106 0.87354
 C4461 C 0.38791 0.21460 0.86638
 C4462 C 0.37627 0.20319 0.87698
 C4463 C 0.37206 0.20887 0.89512
 C4464 C 0.37925 0.22520 0.90234
 C4465 C 0.39800 0.25417 0.89921
 C4466 C 0.38739 0.26494 0.91132
 C4467 C 0.39421 0.28152 0.91831
 C4468 C 0.41175 0.28793 0.91319
 C4469 C 0.42238 0.27716 0.90108
 C4470 C 0.41564 0.26046 0.89428
 C4471 C 0.41884 0.30583 0.92029
 C4472 C 0.43768 0.30821 0.92419
 C4473 C 0.44432 0.32511 0.93060
 C4474 C 0.43225 0.33990 0.93352
 C4475 C 0.41344 0.33756 0.92980
 C4476 C 0.40682 0.32076 0.92314
 H4477 H 0.40322 0.23966 0.86470
 H4478 H 0.39129 0.21132 0.85225
 H4479 H 0.36367 0.20052 0.90413
 H4480 H 0.37606 0.22875 0.91648
 H4481 H 0.37365 0.26071 0.91525
 H4482 H 0.38574 0.28926 0.92783
 H4483 H 0.43584 0.28173 0.89661
 H4484 H 0.42435 0.25243 0.88522
 H4485 H 0.44729 0.29696 0.92251
 H4486 H 0.45886 0.32656 0.93354
 H4487 H 0.40390 0.34886 0.93172
 H4488 H 0.39232 0.31961 0.91993
 C4489 C 1.10845 0.73702 1.11035
 C4490 C 1.12662 0.73192 1.10638
 C4491 C 1.13383 0.71541 1.11307
 C4492 C 1.12315 0.70359 1.12426
 C4493 C 1.10483 0.70890 1.12815
 C4494 C 1.09757 0.72530 1.12115
 C4495 C 1.10098 0.75465 1.10336
 C4496 C 1.08382 0.75525 1.09449
 C4497 C 1.07702 0.77186 1.08752
 C4498 C 1.08714 0.78828 1.08950
 C4499 C 1.10421 0.78762 1.09866
 C4500 C 1.11110 0.77098 1.10538
 C4501 C 1.08003 0.80599 1.08198
 C4502 C 1.09218 0.81914 1.07460
 C4503 C 1.08561 0.83591 1.06786
 C4504 C 1.06668 0.83990 1.06804
 C4505 C 1.05449 0.82667 1.07521
 C4506 C 1.06109 0.80998 1.08219
 H4507 H 1.13526 0.74072 1.09799
 H4508 H 1.14802 0.71239 1.10985
 H4509 H 1.09581 0.70029 1.13626
 H4510 H 1.08349 0.72897 1.12441
 H4511 H 1.07585 0.74279 1.09262
 H4512 H 1.06399 0.77175 1.08028
 H4513 H 1.11220 0.80001 1.10085
 H4514 H 1.12426 0.77089 1.11240
 H4515 H 1.10682 0.81647 1.07391
 H4516 H 1.09546 0.84584 1.06273
 H4517 H 1.03980 0.82915 1.07536
 H4518 H 1.05132 0.80032 1.08796
 C4519 C 1.10800 0.23590 0.60959
 C4520 C 1.12613 0.23071 0.60560
 C4521 C 1.13325 0.21413 0.61223
 C4522 C 1.12249 0.20234 0.62338
 C4523 C 1.10421 0.20774 0.62729
 C4524 C 1.09704 0.22421 0.62035
 C4525 C 1.10064 0.25360 0.60266
 C4526 C 1.08350 0.25433 0.59377
 C4527 C 1.07680 0.27101 0.58687
 C4528 C 1.08699 0.28737 0.58896
 C4529 C 1.10404 0.28658 0.59814
 C4530 C 1.11084 0.26986 0.60479
 C4531 C 1.07996 0.30516 0.58155
 C4532 C 1.09217 0.31832 0.57429
 C4533 C 1.08568 0.33516 0.56767
 C4534 C 1.06676 0.33922 0.56786
 C4535 C 1.05451 0.32598 0.57490
 C4536 C 1.06103 0.30922 0.58176
 H4537 H 1.13482 0.23949 0.59724
 H4538 H 1.14742 0.21104 0.60900
 H4539 H 1.09513 0.19916 0.63537
 H4540 H 1.08299 0.22795 0.62362
 H4541 H 1.07547 0.24192 0.59182
 H4542 H 1.06378 0.27100 0.57961
 H4543 H 1.11208 0.29891 0.60041
 H4544 H 1.12398 0.26967 0.61182
 H4545 H 1.10680 0.31559 0.57360
 H4546 H 1.09557 0.34510 0.56263
 H4547 H 1.03982 0.32851 0.57505
 H4548 H 1.05122 0.29955 0.58745
 C4549 C 0.60843 0.73620 0.60865
 C4550 C 0.62735 0.73237 0.60762
 C4551 C 0.63432 0.71568 0.61417
 C4552 C 0.62253 0.70251 0.62203
 C4553 C 0.60359 0.70632 0.62302
 C4554 C 0.59660 0.72296 0.61632
 C4555 C 0.60110 0.75401 0.60187
 C4556 C 0.58488 0.75465 0.59134
 C4557 C 0.57812 0.77145 0.58482
 C4558 C 0.58736 0.78800 0.58878
 C4559 C 0.60350 0.78733 0.59947
 C4560 C 0.61032 0.77053 0.60589
 C4561 C 0.58031 0.80587 0.58171
 C4562 C 0.59258 0.81951 0.57553
 C4563 C 0.58603 0.83635 0.56898
 C4564 C 0.56703 0.83996 0.56832
 C4565 C 0.55474 0.82632 0.57444
 C4566 C 0.56131 0.80948 0.58108
 H4567 H 0.63677 0.74225 0.60162
 H4568 H 0.64899 0.71322 0.61339
 H4569 H 0.59416 0.69637 0.62884
 H4570 H 0.58197 0.72560 0.61741
 H4571 H 0.57762 0.74210 0.58786
 H4572 H 0.56582 0.77143 0.57638
 H4573 H 0.61077 0.79984 0.60309
 H4574 H 0.62268 0.77048 0.61423
 H4575 H 0.60729 0.81711 0.57559
 H4576 H 0.59588 0.84665 0.56462
 H4577 H 0.54002 0.82859 0.57395
 H4578 H 0.55149 0.79937 0.58592
 C4579 C 0.60880 0.23703 1.11029
 C4580 C 0.62672 0.23148 1.10585
 C4581 C 0.63370 0.21480 1.11242
 C4582 C 0.62303 0.20333 1.12397
 C4583 C 0.60499 0.20914 1.12838
 C4584 C 0.59795 0.22567 1.12149
 C4585 C 0.60149 0.25473 1.10334
 C4586 C 0.58419 0.25553 1.09477
 C4587 C 0.57743 0.27223 1.08799
 C4588 C 0.58771 0.28856 1.08990
 C4589 C 0.60495 0.28769 1.09873
 C4590 C 0.61181 0.27094 1.10523
 C4591 C 0.58057 0.30638 1.08266
 C4592 C 0.59267 0.31956 1.07526
 C4593 C 0.58606 0.33637 1.06868
 C4594 C 0.56712 0.34037 1.06902
 C4595 C 0.55499 0.32713 1.07626
 C4596 C 0.56164 0.31041 1.08310
 H4597 H 0.63533 0.24002 1.09716
 H4598 H 0.64771 0.21136 1.10882
 H4599 H 0.59597 0.20082 1.13678
 H4600 H 0.58406 0.22971 1.12511
 H4601 H 0.57607 0.24315 1.09301
 H4602 H 0.56428 0.27226 1.08097
 H4603 H 0.61308 0.29999 1.10085
 H4604 H 0.62510 0.27069 1.11202
 H4605 H 0.60730 0.31687 1.07439
 H4606 H 0.59587 0.34632 1.06351
 H4607 H 0.54030 0.32961 1.07654
 H4608 H 0.55191 0.30074 1.08892
 C4609 C 1.26446 1.10765 0.89205
 C4610 C 1.26825 1.12658 0.89330
 C4611 C 1.28487 1.13367 0.88672
 C4612 C 1.29802 1.12201 0.87861
 C4613 C 1.29428 1.10306 0.87746
 C4614 C 1.27771 1.09593 0.88420
 C4615 C 1.24664 1.10025 0.89871
 C4616 C 1.24596 1.08395 0.90911
 C4617 C 1.22914 1.07717 0.91559
 C4618 C 1.21262 1.08648 0.91169
 C4619 C 1.21333 1.10268 0.90109
 C4620 C 1.23014 1.10950 0.89474
 C4621 C 1.19472 1.07947 0.91875
 C4622 C 1.18111 1.09177 0.92493
 C4623 C 1.16422 1.08527 0.93141
 C4624 C 1.16053 1.06628 0.93200
 C4625 C 1.17415 1.05395 0.92590
 C4626 C 1.19104 1.06047 0.91932
 H4627 H 1.25837 1.13590 0.89945
 H4628 H 1.28726 1.14834 0.88762
 H4629 H 1.30422 1.09374 0.87143
 H4630 H 1.27510 1.08131 0.88295
 H4631 H 1.25850 1.07664 0.91254
 H4632 H 1.22913 1.06482 0.92394
 H4633 H 1.20085 1.10999 0.89750
 H4634 H 1.23022 1.12193 0.88649
 H4635 H 1.18356 1.10647 0.92492
 H4636 H 1.15395 1.09516 0.93575
 H4637 H 1.17183 1.03924 0.92634
 H4638 H 1.20112 1.05062 0.91448
 C4639 C 1.26173 0.61042 0.38867
 C4640 C 1.26552 0.60989 0.36968
 C4641 C 1.28202 0.61702 0.36281
 C4642 C 1.29500 0.62497 0.37478
 C4643 C 1.29114 0.62560 0.39375
 C4644 C 1.27472 0.61833 0.40064
 C4645 C 1.24428 0.60273 0.39596
 C4646 C 1.24425 0.59183 0.41196
 C4647 C 1.22781 0.58453 0.41878
 C4648 C 1.21100 0.58806 0.40983
 C4649 C 1.21106 0.59904 0.39385
 C4650 C 1.22752 0.60624 0.38697
 C4651 C 1.19348 0.58039 0.41712
 C4652 C 1.17973 0.57407 0.40503
 C4653 C 1.16314 0.56714 0.41186
 C4654 C 1.15992 0.56626 0.43095
 C4655 C 1.17373 0.57242 0.44305
 C4656 C 1.19029 0.57944 0.43622
 H4657 H 1.25582 0.60374 0.36015
 H4658 H 1.28454 0.61650 0.34812
 H4659 H 1.30096 0.63148 0.40331
 H4660 H 1.27208 0.61905 0.41532
 H4661 H 1.25700 0.58871 0.41902
 H4662 H 1.22830 0.57588 0.43092
 H4663 H 1.19834 0.60233 0.38681
 H4664 H 1.22711 0.61481 0.37476
 H4665 H 1.18182 0.57437 0.39026
 H4666 H 1.15271 0.56274 0.40215
 H4667 H 1.17177 0.57175 0.45784
 H4668 H 1.20049 0.58438 0.44592
 C4669 C 0.76503 1.10682 0.39197
 C4670 C 0.77830 1.09495 0.38440
 C4671 C 0.79496 1.10191 0.37773
 C4672 C 0.79876 1.12086 0.37865
 C4673 C 0.78556 1.13269 0.38640
 C4674 C 0.76885 1.12576 0.39293
 C4675 C 0.74718 1.09956 0.39871
 C4676 C 0.73071 1.10879 0.39455
 C4677 C 0.71388 1.10211 0.40102
 C4678 C 0.71313 1.08610 0.41190
 C4679 C 0.72964 1.07683 0.41598
 C4680 C 0.74647 1.08346 0.40940
 C4681 C 0.69522 1.07922 0.41902
 C4682 C 0.69152 1.06023 0.41984
 C4683 C 0.67461 1.05382 0.42644
 C4684 C 0.66098 1.06625 0.43233
 C4685 C 0.66470 1.08522 0.43152
 C4686 C 0.68162 1.09162 0.42502
 H4687 H 0.77566 1.08031 0.38338
 H4688 H 0.80495 1.09246 0.37197
 H4689 H 0.78800 1.14737 0.38711
 H4690 H 0.75895 1.13520 0.39884
 H4691 H 0.73082 1.12106 0.38609
 H4692 H 0.70141 1.10937 0.39730
 H4693 H 0.72959 1.06463 0.42454
 H4694 H 0.75899 1.07619 0.41298
 H4695 H 0.70160 1.05031 0.41515
 H4696 H 0.67227 1.03912 0.42706
 H4697 H 0.65442 1.09518 0.43571
 H4698 H 0.68409 1.10632 0.42482
 C4699 C 0.76401 0.60798 0.89136
 C4700 C 0.77722 0.59613 0.88367
 C4701 C 0.79383 0.60311 0.87690
 C4702 C 0.79764 0.62206 0.87785
 C4703 C 0.78446 0.63388 0.88567
 C4704 C 0.76780 0.62692 0.89229
 C4705 C 0.74627 0.60064 0.89832
 C4706 C 0.72970 0.60977 0.89438
 C4707 C 0.71298 0.60295 0.90099
 C4708 C 0.71246 0.58690 0.91181
 C4709 C 0.72907 0.57775 0.91571
 C4710 C 0.74578 0.58451 0.90899
 C4711 C 0.69467 0.57982 0.91906
 C4712 C 0.69115 0.56080 0.91982
 C4713 C 0.67438 0.55419 0.92655
 C4714 C 0.66069 0.56646 0.93262
 C4715 C 0.66421 0.58547 0.93186
 C4716 C 0.68100 0.59206 0.92522
 H4717 H 0.77460 0.58149 0.88265
 H4718 H 0.80379 0.59367 0.87110
 H4719 H 0.78693 0.64855 0.88642
 H4720 H 0.75793 0.63635 0.89830
 H4721 H 0.72964 0.62207 0.88595
 H4722 H 0.70042 0.61014 0.89742
 H4723 H 0.72919 0.56552 0.92424
 H4724 H 0.75838 0.57732 0.91242
 H4725 H 0.70129 0.55099 0.91499
 H4726 H 0.67217 0.53946 0.92713
 H4727 H 0.65388 0.59531 0.93619
 H4728 H 0.68333 0.60678 0.92506
 C4729 C 1.26201 0.88894 1.11005
 C4730 C 1.27515 0.88127 1.09808
 C4731 C 1.29172 0.87433 1.10498
 C4732 C 1.29556 0.87504 1.12396
 C4733 C 1.28244 0.88277 1.13591
 C4734 C 1.26581 0.88959 1.12903
 C4735 C 1.24440 0.89625 1.10275
 C4736 C 1.22774 0.89251 1.11183
 C4737 C 1.21114 0.89941 1.10499
 C4738 C 1.21083 0.91030 1.08897
 C4739 C 1.22752 0.91403 1.07990
 C4740 C 1.24411 0.90704 1.08668
 C4741 C 1.19317 0.91776 1.08179
 C4742 C 1.18978 0.91857 1.06272
 C4743 C 1.17313 0.92550 1.05601
 C4744 C 1.15944 0.93173 1.06822
 C4745 C 1.16285 0.93093 1.08729
 C4746 C 1.17952 0.92409 1.09399
 H4747 H 1.27252 0.88046 1.08341
 H4748 H 1.30164 0.86862 1.09543
 H4749 H 1.28494 0.88335 1.15060
 H4750 H 1.25600 0.89557 1.13855
 H4751 H 1.22753 0.88401 1.12409
 H4752 H 1.19851 0.89598 1.11212
 H4753 H 1.22782 0.92262 1.06770
 H4754 H 1.25678 0.91034 1.07954
 H4755 H 1.19991 0.91362 1.05296
 H4756 H 1.17101 0.92609 1.04125
 H4757 H 1.15251 0.93539 1.09708
 H4758 H 1.18177 0.92388 1.10874
 C4759 C 1.26379 0.39059 0.60783
 C4760 C 1.27676 0.40242 0.61595
 C4761 C 1.29335 0.39548 0.62284
 C4762 C 1.29737 0.37660 0.62157
 C4763 C 1.28448 0.36481 0.61323
 C4764 C 1.26783 0.37172 0.60651
 C4765 C 1.24598 0.39784 0.60095
 C4766 C 1.22951 0.38845 0.60472
 C4767 C 1.21271 0.39523 0.59828
 C4768 C 1.21199 0.41150 0.58778
 C4769 C 1.22851 0.42089 0.58403
 C4770 C 1.24531 0.41417 0.59061
 C4771 C 1.19409 0.41856 0.58075
 C4772 C 1.19045 0.43757 0.58026
 C4773 C 1.17358 0.44416 0.57374
 C4774 C 1.15990 0.43189 0.56764
 C4775 C 1.16355 0.41289 0.56814
 C4776 C 1.18045 0.40632 0.57454
 H4777 H 1.27394 0.41701 0.61727
 H4778 H 1.30309 0.40489 0.62905
 H4779 H 1.28711 0.35019 0.61223
 H4780 H 1.25814 0.36232 0.60017
 H4781 H 1.22960 0.37599 0.61291
 H4782 H 1.20024 0.38785 0.60175
 H4783 H 1.22850 0.43328 0.57575
 H4784 H 1.25783 0.42156 0.58732
 H4785 H 1.20056 0.44739 0.58514
 H4786 H 1.17130 0.45888 0.57336
 H4787 H 1.15324 0.40303 0.56379
 H4788 H 1.18286 0.39161 0.57448
 C4789 C 0.76421 0.89214 0.60808
 C4790 C 0.77745 0.90414 0.61549
 C4791 C 0.79415 0.89731 0.62222
 C4792 C 0.79800 0.87837 0.62153
 C4793 C 0.78480 0.86640 0.61398
 C4794 C 0.76807 0.87320 0.60738
 C4795 C 0.74637 0.89929 0.60118
 C4796 C 0.72989 0.89009 0.60535
 C4797 C 0.71307 0.89672 0.59877
 C4798 C 0.71236 0.91265 0.58778
 C4799 C 0.72888 0.92187 0.58366
 C4800 C 0.74569 0.91529 0.59033
 C4801 C 0.69447 0.91954 0.58062
 C4802 C 0.69082 0.93854 0.57974
 C4803 C 0.67393 0.94497 0.57314
 C4804 C 0.66025 0.93257 0.56731
 C4805 C 0.66392 0.91359 0.56815
 C4806 C 0.68082 0.90716 0.57467
 H4807 H 0.77479 0.91879 0.61632
 H4808 H 0.80412 0.90687 0.62782
 H4809 H 0.78729 0.85172 0.61344
 H4810 H 0.75818 0.86365 0.60159
 H4811 H 0.72997 0.87789 0.61392
 H4812 H 0.70059 0.88949 0.60252
 H4813 H 0.72886 0.93400 0.57500
 H4814 H 0.75822 0.92253 0.58673
 H4815 H 0.70094 0.94845 0.58440
 H4816 H 0.67162 0.95968 0.57248
 H4817 H 0.65361 0.90365 0.56400
 H4818 H 0.68326 0.89246 0.57493
 C4819 C 0.76516 0.39280 1.10690
 C4820 C 0.76906 0.37390 1.10574
 C4821 C 0.78573 0.36696 1.11234
 C4822 C 0.79882 0.37874 1.12037
 C4823 C 0.79498 0.39768 1.12139
 C4824 C 0.77835 0.40466 1.11464
 C4825 C 0.74723 0.40002 1.10030
 C4826 C 0.74636 0.41623 1.08979
 C4827 C 0.72943 0.42282 1.08338
 C4828 C 0.71301 0.41339 1.08746
 C4829 C 0.71393 0.39729 1.09817
 C4830 C 0.73084 0.39065 1.10446
 C4831 C 0.69500 0.42022 1.08052
 C4832 C 0.68143 0.40778 1.07454
 C4833 C 0.66440 0.41411 1.06826
 C4834 C 0.66054 0.43306 1.06766
 C4835 C 0.67415 0.44553 1.07351
 C4836 C 0.69116 0.43919 1.07990
 H4837 H 0.75922 0.36448 1.09968
 H4838 H 0.78818 0.35229 1.11155
 H4839 H 0.80487 0.40709 1.12738
 H4840 H 0.77564 0.41927 1.11581
 H4841 H 0.75880 0.42362 1.08623
 H4842 H 0.72926 0.43511 1.07494
 H4843 H 0.70154 0.38990 1.10190
 H4844 H 0.73108 0.37829 1.11280
 H4845 H 0.68400 0.39310 1.07459
 H4846 H 0.65415 0.40411 1.06409
 H4847 H 0.67170 0.46023 1.07304
 H4848 H 0.70122 0.44914 1.08458
 C4849 C 0.73618 1.10978 1.10877
 C4850 C 0.72330 1.11811 1.09699
 C4851 C 0.70671 1.12495 1.10398
 C4852 C 0.70260 1.12340 1.12285
 C4853 C 0.71541 1.11489 1.13458
 C4854 C 0.73206 1.10822 1.12764
 C4855 C 0.75394 1.10283 1.10147
 C4856 C 0.77043 1.10639 1.11092
 C4857 C 0.78718 1.09983 1.10411
 C4858 C 0.78781 1.08942 1.08776
 C4859 C 0.77127 1.08589 1.07830
 C4860 C 0.75453 1.09259 1.08504
 C4861 C 0.80564 1.08221 1.08068
 C4862 C 0.80929 1.08168 1.06164
 C4863 C 0.82607 1.07496 1.05505
 C4864 C 0.83966 1.06868 1.06734
 C4865 C 0.83601 1.06924 1.08637
 C4866 C 0.81920 1.07584 1.09295
 H4867 H 0.72618 1.11960 1.08242
 H4868 H 0.69702 1.13130 1.09461
 H4869 H 0.71269 1.11367 1.14920
 H4870 H 0.74168 1.10172 1.13700
 H4871 H 0.77040 1.11449 1.12346
 H4872 H 0.79967 1.10313 1.11154
 H4873 H 0.77120 1.07767 1.06584
 H4874 H 0.74199 1.08948 1.07760
 H4875 H 0.79925 1.08668 1.05181
 H4876 H 0.82835 1.07454 1.04031
 H4877 H 0.84626 1.06477 1.09625
 H4878 H 0.81677 1.07580 1.10768
 C4879 C 0.73666 0.60901 0.60834
 C4880 C 0.73261 0.60785 0.62724
 C4881 C 0.71590 0.61446 0.63409
 C4882 C 0.70294 0.62253 0.62220
 C4883 C 0.70698 0.62369 0.60328
 C4884 C 0.72363 0.61691 0.59641
 C4885 C 0.75448 0.60211 0.60114
 C4886 C 0.75516 0.59160 0.58490
 C4887 C 0.77196 0.58493 0.57827
 C4888 C 0.78846 0.58874 0.58768
 C4889 C 0.78774 0.59942 0.60385
 C4890 C 0.77094 0.60596 0.61053
 C4891 C 0.80635 0.58158 0.58073
 C4892 C 0.81991 0.57542 0.59310
 C4893 C 0.83679 0.56887 0.58663
 C4894 C 0.84050 0.56819 0.56762
 C4895 C 0.82691 0.57424 0.55523
 C4896 C 0.81005 0.58090 0.56171
 H4897 H 0.74233 0.60168 0.63672
 H4898 H 0.71325 0.61356 0.64874
 H4899 H 0.69718 0.62969 0.59379
 H4900 H 0.72645 0.61810 0.58179
 H4901 H 0.74265 0.58824 0.57750
 H4902 H 0.77197 0.57651 0.56595
 H4903 H 0.80020 0.60294 0.61123
 H4904 H 0.77084 0.61428 0.62293
 H4905 H 0.81744 0.57552 0.60782
 H4906 H 0.84704 0.56456 0.59657
 H4907 H 0.82924 0.57371 0.54049
 H4908 H 0.80000 0.58572 0.55180
 C4909 C 0.23796 1.11114 0.61031
 C4910 C 0.23419 1.13010 0.60977
 C4911 C 0.21763 1.13697 0.61675
 C4912 C 0.20455 1.12504 0.62456
 C4913 C 0.20837 1.10609 0.62517
 C4914 C 0.22486 1.09920 0.61805
 C4915 C 0.25550 1.10384 0.60284
 C4916 C 0.25568 1.08781 0.59199
 C4917 C 0.27221 1.08098 0.58490
 C4918 C 0.28896 1.08997 0.58859
 C4919 C 0.28875 1.10597 0.59952
 C4920 C 0.27221 1.11286 0.60651
 C4921 C 0.30657 1.08269 0.58111
 C4922 C 0.32030 1.09477 0.57478
 C4923 C 0.33695 1.08797 0.56797
 C4924 C 0.34025 1.06891 0.56723
 C4925 C 0.32648 1.05682 0.57345
 C4926 C 0.30985 1.06363 0.58033
 H4927 H 0.24397 1.13960 0.60374
 H4928 H 0.21515 1.15165 0.61625
 H4929 H 0.19848 1.09655 0.63093
 H4930 H 0.22747 1.08454 0.61879
 H4931 H 0.24297 1.08072 0.58873
 H4932 H 0.27184 1.06881 0.57629
 H4933 H 0.30143 1.11304 0.60291
 H4934 H 0.27251 1.12509 0.61505
 H4935 H 0.31814 1.10952 0.57496
 H4936 H 0.34736 1.09767 0.56353
 H4937 H 0.32851 1.04207 0.57289
 H4938 H 0.29966 1.05395 0.58529
 C4939 C 0.23878 0.61253 1.11106
 C4940 C 0.22568 0.60060 1.11883
 C4941 C 0.20922 0.60751 1.12600
 C4942 C 0.20543 0.62648 1.12542
 C4943 C 0.21851 0.63839 1.11758
 C4944 C 0.23504 0.63150 1.11055
 C4945 C 0.25629 0.60520 1.10354
 C4946 C 0.27303 0.61417 1.10718
 C4947 C 0.28955 0.60722 1.10018
 C4948 C 0.28969 0.59121 1.08927
 C4949 C 0.27291 0.58228 1.08559
 C4950 C 0.25641 0.58917 1.09269
 C4951 C 0.30728 0.58384 1.08180
 C4952 C 0.31046 0.56476 1.08103
 C4953 C 0.32705 0.55787 1.07414
 C4954 C 0.34088 0.56988 1.06791
 C4955 C 0.33768 0.58895 1.06865
 C4956 C 0.32107 0.59585 1.07546
 H4957 H 0.22826 0.58594 1.11955
 H4958 H 0.19933 0.59799 1.13177
 H4959 H 0.21605 0.65308 1.11710
 H4960 H 0.24482 0.64099 1.10451
 H4961 H 0.27338 0.62640 1.11572
 H4962 H 0.30225 0.61425 1.10356
 H4963 H 0.27249 0.57010 1.07699
 H4964 H 0.24367 0.58212 1.08946
 H4965 H 0.30022 0.55514 1.08599
 H4966 H 0.32900 0.54310 1.07358
 H4967 H 0.34813 0.59860 1.06419
 H4968 H 0.31898 0.61060 1.07563
 C4969 C 0.73472 0.89284 0.89289
 C4970 C 0.72141 0.90458 0.88516
 C4971 C 0.70497 0.89746 0.87810
 C4972 C 0.70143 0.87846 0.87870
 C4973 C 0.71470 0.86672 0.88646
 C4974 C 0.73116 0.87382 0.89343
 C4975 C 0.75230 0.90032 0.90025
 C4976 C 0.76023 0.89286 0.91628
 C4977 C 0.77701 0.89953 0.92292
 C4978 C 0.78619 0.91387 0.91376
 C4979 C 0.77817 0.92152 0.89789
 C4980 C 0.76143 0.91478 0.89117
 C4981 C 0.80421 0.92063 0.92059
 C4982 C 0.80806 0.93957 0.92121
 C4983 C 0.82509 0.94588 0.92760
 C4984 C 0.83868 0.93337 0.93339
 C4985 C 0.83481 0.91442 0.93271
 C4986 C 0.81775 0.90813 0.92643
 H4987 H 0.72358 0.91933 0.88480
 H4988 H 0.69490 0.90685 0.87242
 H4989 H 0.71252 0.85199 0.88682
 H4990 H 0.74126 0.86434 0.89894
 H4991 H 0.75340 0.88196 0.92380
 H4992 H 0.78273 0.89357 0.93535
 H4993 H 0.78506 0.93243 0.89042
 H4994 H 0.75585 0.92064 0.87864
 H4995 H 0.79778 0.94952 0.91701
 H4996 H 0.82753 0.96058 0.92821
 H4997 H 0.84509 0.90440 0.93672
 H4998 H 0.81528 0.89344 0.92583
 C4999 C 0.73492 0.39299 0.39310
 C5000 C 0.73086 0.39417 0.37419
 C5001 C 0.71420 0.38744 0.36733
 C5002 C 0.70130 0.37924 0.37920
 C5003 C 0.70533 0.37812 0.39812
 C5004 C 0.72193 0.38501 0.40502
 C5005 C 0.75274 0.39988 0.40028
 C5006 C 0.75347 0.41036 0.41655
 C5007 C 0.77029 0.41700 0.42316
 C5008 C 0.78677 0.41319 0.41372
 C5009 C 0.78600 0.40255 0.39753
 C5010 C 0.76918 0.39603 0.39086
 C5011 C 0.80468 0.42032 0.42064
 C5012 C 0.81823 0.42646 0.40824
 C5013 C 0.83517 0.43290 0.41467
 C5014 C 0.83895 0.43352 0.43367
 C5015 C 0.82536 0.42752 0.44609
 C5016 C 0.80844 0.42096 0.43965
 H5017 H 0.74055 0.40040 0.36472
 H5018 H 0.71157 0.38832 0.35267
 H5019 H 0.69557 0.37202 0.40759
 H5020 H 0.72476 0.38382 0.41963
 H5021 H 0.74097 0.41370 0.42397
 H5022 H 0.77034 0.42539 0.43551
 H5023 H 0.79845 0.39903 0.39012
 H5024 H 0.76906 0.38774 0.37844
 H5025 H 0.81571 0.42640 0.39353
 H5026 H 0.84540 0.43718 0.40471
 H5027 H 0.82774 0.42799 0.46082
 H5028 H 0.79840 0.41615 0.44957
 C5029 C 0.23540 0.89265 0.39237
 C5030 C 0.23141 0.89378 0.37345
 C5031 C 0.21478 0.88704 0.36654
 C5032 C 0.20183 0.87888 0.37837
 C5033 C 0.20577 0.87783 0.39732
 C5034 C 0.22235 0.88473 0.40426
 C5035 C 0.25324 0.89949 0.39957
 C5036 C 0.25398 0.91002 0.41580
 C5037 C 0.27081 0.91666 0.42239
 C5038 C 0.28728 0.91279 0.41296
 C5039 C 0.28650 0.90207 0.39683
 C5040 C 0.26968 0.89556 0.39018
 C5041 C 0.30521 0.91994 0.41983
 C5042 C 0.31876 0.92600 0.40739
 C5043 C 0.33571 0.93246 0.41377
 C5044 C 0.33951 0.93316 0.43276
 C5045 C 0.32592 0.92723 0.44522
 C5046 C 0.30899 0.92066 0.43883
 H5047 H 0.24115 0.89997 0.36399
 H5048 H 0.21223 0.88786 0.35186
 H5049 H 0.19598 0.87174 0.40676
 H5050 H 0.22513 0.88357 0.41889
 H5051 H 0.24149 0.91342 0.42320
 H5052 H 0.27087 0.92511 0.43470
 H5053 H 0.29894 0.89849 0.38943
 H5054 H 0.26954 0.88721 0.37780
 H5055 H 0.31622 0.92588 0.39268
 H5056 H 0.34594 0.93667 0.40377
 H5057 H 0.32833 0.92778 0.45995
 H5058 H 0.29896 0.91591 0.44879
 C5059 C 0.23753 0.38996 0.89049
 C5060 C 0.23378 0.39056 0.87149
 C5061 C 0.21720 0.38369 0.86457
 C5062 C 0.20407 0.37592 0.87647
 C5063 C 0.20785 0.37526 0.89547
 C5064 C 0.22437 0.38228 0.90241
 C5065 C 0.25512 0.39727 0.89781
 C5066 C 0.25538 0.40815 0.91383
 C5067 C 0.27196 0.41518 0.92062
 C5068 C 0.28868 0.41137 0.91161
 C5069 C 0.28839 0.40036 0.89565
 C5070 C 0.27180 0.39345 0.88880
 C5071 C 0.30634 0.41885 0.91878
 C5072 C 0.32005 0.42501 0.90657
 C5073 C 0.33674 0.43183 0.91326
 C5074 C 0.34010 0.43278 0.93233
 C5075 C 0.32635 0.42675 0.94455
 C5076 C 0.30968 0.41983 0.93785
 H5077 H 0.24361 0.39654 0.86200
 H5078 H 0.21475 0.38422 0.84986
 H5079 H 0.19791 0.36952 0.90498
 H5080 H 0.22696 0.38150 0.91710
 H5081 H 0.24270 0.41151 0.92092
 H5082 H 0.27165 0.42384 0.93277
 H5083 H 0.30103 0.39687 0.88857
 H5084 H 0.27204 0.38487 0.87658
 H5085 H 0.31785 0.42468 0.89181
 H5086 H 0.34713 0.43612 0.90346
 H5087 H 0.32842 0.42747 0.95932
 H5088 H 0.29950 0.41502 0.94763
   
