data_POSCAR
  _audit_creation_date              2014-09-24
  _audit_creation_method            'ToBaCCo'
  _symmetry_space_group_name_H-M    'P1'
  _symmetry_Int_Tables_number       1
  _symmetry_cell_setting            triclinic
  loop_
  _symmetry_equiv_pos_as_xyz
 x,y,z
_cell_length_a 111.0015
_cell_length_b 110.6113
_cell_length_c 109.8954
_cell_angle_alpha 90.001600
_cell_angle_beta 89.993000
_cell_angle_gamma 90.034600
loop_
  _atom_site_label
  _atom_site_type_symbol
  _atom_site_fract_x
  _atom_site_fract_y
  _atom_site_fract_z
C1 C 0.30844 0.43343 0.92493
 C2 C 0.30839 0.42444 0.93393
 C3 C 0.31718 0.42441 0.94284
 C4 C 0.32613 0.43337 0.94289
 C5 C 0.32617 0.44221 0.93406
 C6 C 0.31728 0.44224 0.92499
 C7 C 0.30130 0.43545 0.91490
 N8 N 0.30559 0.44527 0.90884
 C9 C 0.31537 0.44947 0.91499
 C10 C 0.33607 0.44939 0.93610
 N11 N 0.34221 0.44517 0.94600
 C12 C 0.33602 0.43531 0.95016
 C13 C 0.31519 0.41444 0.95005
 N14 N 0.30540 0.40840 0.94574
 C15 C 0.30119 0.41450 0.93588
 H16 H 0.29375 0.42994 0.91206
 H17 H 0.32075 0.45722 0.91239
 H18 H 0.33861 0.45693 0.93041
 H19 H 0.33838 0.42974 0.95787
 H20 H 0.32052 0.41179 0.95785
 H21 H 0.29365 0.41174 0.93028
 C22 C 0.43321 0.82608 0.44285
 C23 C 0.42423 0.81715 0.44282
 C24 C 0.42419 0.80834 0.43389
 C25 C 0.43311 0.80836 0.42486
 C26 C 0.44194 0.81718 0.42490
 C27 C 0.44199 0.82609 0.43399
 C28 C 0.43522 0.83597 0.45014
 N29 N 0.44507 0.84214 0.44597
 C30 C 0.44920 0.83598 0.43603
 C31 C 0.44911 0.81524 0.41488
 N32 N 0.44487 0.80545 0.40874
 C33 C 0.43507 0.80119 0.41482
 C34 C 0.41426 0.80115 0.43587
 N35 N 0.40824 0.80539 0.44577
 C36 C 0.41432 0.81518 0.45007
 H37 H 0.42971 0.83834 0.45788
 H38 H 0.45672 0.83850 0.43033
 H39 H 0.45686 0.82059 0.41228
 H40 H 0.42954 0.79364 0.41198
 H41 H 0.41145 0.79361 0.43028
 H42 H 0.41174 0.82052 0.45790
 C43 C 0.93421 0.92575 0.80493
 C44 C 0.92535 0.93479 0.80507
 C45 C 0.92569 0.94374 0.81385
 C46 C 0.93491 0.94379 0.82257
 C47 C 0.94360 0.93490 0.82242
 C48 C 0.94324 0.92581 0.81352
 C49 C 0.93587 0.91567 0.79780
 N50 N 0.94575 0.90946 0.80181
 C51 C 0.95025 0.91577 0.81149
 C52 C 0.95104 0.93690 0.83221
 N53 N 0.94714 0.94685 0.83845
 C54 C 0.93721 0.95107 0.83244
 C55 C 0.91576 0.95096 0.81212
 N56 N 0.90937 0.94663 0.80251
 C57 C 0.91520 0.93673 0.79814
 H58 H 0.93000 0.91312 0.79039
 H59 H 0.95800 0.91338 0.81692
 H60 H 0.95869 0.93131 0.83448
 H61 H 0.93167 0.95865 0.83507
 H62 H 0.91338 0.95879 0.81752
 H63 H 0.91213 0.93111 0.79070
 C64 C 0.43271 -0.07613 0.30713
 C65 C 0.42372 -0.06722 0.30729
 C66 C 0.42376 -0.05844 0.31624
 C67 C 0.43278 -0.05846 0.32517
 C68 C 0.44162 -0.06726 0.32501
 C69 C 0.44158 -0.07614 0.31590
 C70 C 0.43464 -0.08600 0.29979
 N71 N 0.44454 -0.09216 0.30383
 C72 C 0.44878 -0.08602 0.31375
 C73 C 0.44889 -0.06533 0.33496
 N74 N 0.44469 -0.05557 0.34118
 C75 C 0.43483 -0.05132 0.33521
 C76 C 0.41380 -0.05127 0.31440
 N77 N 0.40768 -0.05550 0.30456
 C78 C 0.41372 -0.06526 0.30016
 H79 H 0.42905 -0.08836 0.29211
 H80 H 0.45636 -0.08853 0.31935
 H81 H 0.45667 -0.07067 0.33747
 H82 H 0.42932 -0.04379 0.33813
 H83 H 0.41104 -0.04375 0.32005
 H84 H 0.41106 -0.07059 0.29235
 C85 C 0.80721 0.31517 0.32282
 C86 C 0.80745 0.32422 0.31389
 C87 C 0.81649 0.32430 0.30523
 C88 C 0.82541 0.31532 0.30537
 C89 C 0.82517 0.30641 0.31418
 C90 C 0.81601 0.30633 0.32297
 C91 C 0.79982 0.31314 0.33267
 N92 N 0.80393 0.30330 0.33882
 C93 C 0.81385 0.29909 0.33291
 C94 C 0.83517 0.29927 0.31245
 N95 N 0.84148 0.30361 0.30279
 C96 C 0.83554 0.31344 0.29840
 C97 C 0.81476 0.33435 0.29806
 N98 N 0.80488 0.34038 0.30214
 C99 C 0.80036 0.33421 0.31183
 H100 H 0.79224 0.31867 0.33536
 H101 H 0.81916 0.29135 0.33564
 H102 H 0.83765 0.29150 0.31788
 H103 H 0.83854 0.31906 0.29094
 H104 H 0.82033 0.33705 0.29045
 H105 H 0.79269 0.33696 0.31724
 C106 C -0.18470 0.82463 0.80501
 C107 C -0.17571 0.81573 0.80501
 C108 C -0.17577 0.80677 0.81377
 C109 C -0.18482 0.80661 0.82269
 C110 C -0.19363 0.81538 0.82270
 C111 C -0.19357 0.82447 0.81378
 C112 C -0.18661 0.83468 0.79792
 N113 N -0.19647 0.84079 0.80213
 C114 C -0.20073 0.83443 0.81189
 C115 C -0.20087 0.81330 0.83262
 N116 N -0.19672 0.80341 0.83880
 C117 C -0.18685 0.79932 0.83261
 C118 C -0.16578 0.79967 0.81184
 N119 N -0.15962 0.80411 0.80212
 C120 C -0.16567 0.81394 0.79789
 H121 H -0.18087 0.83735 0.79045
 H122 H -0.20842 0.83672 0.81744
 H123 H -0.20853 0.81880 0.83503
 H124 H -0.18118 0.79179 0.83513
 H125 H -0.16302 0.79206 0.81736
 H126 H -0.16298 0.81945 0.79021
 C127 C 0.94331 0.32443 0.43546
 C128 C 0.94350 0.31549 0.42641
 C129 C 0.93491 0.30645 0.42639
 C130 C 0.92598 0.30623 0.43541
 C131 C 0.92580 0.31505 0.44433
 C132 C 0.93453 0.32423 0.44432
 C133 C 0.95024 0.33453 0.43744
 N134 N 0.94594 0.34063 0.44734
 C135 C 0.93626 0.33423 0.45155
 C136 C 0.91591 0.31286 0.45156
 N137 N 0.91006 0.30294 0.44724
 C138 C 0.91620 0.29884 0.43736
 C139 C 0.93700 0.29935 0.41633
 N140 N 0.94666 0.30388 0.41021
 C141 C 0.95068 0.31376 0.41635
 H142 H 0.95767 0.33724 0.43170
 H143 H 0.93070 0.33649 0.45928
 H144 H 0.91300 0.31834 0.45917
 H145 H 0.91373 0.29106 0.43192
 H146 H 0.93164 0.29168 0.41348
 H147 H 0.95825 0.31934 0.41371
 C148 C 0.44155 0.43319 0.82529
 C149 C 0.44144 0.42429 0.81618
 C150 C 0.43260 0.42445 0.80731
 C151 C 0.42378 0.43352 0.80740
 C152 C 0.42391 0.44227 0.81638
 C153 C 0.43286 0.44208 0.82539
 C154 C 0.44877 0.43503 0.83528
 N155 N 0.44473 0.44487 0.84160
 C156 C 0.43493 0.44918 0.83543
 C157 C 0.41408 0.44960 0.81450
 N158 N 0.40797 0.44552 0.80459
 C159 C 0.41388 0.43568 0.80019
 C160 C 0.43446 0.41455 0.79997
 N161 N 0.44420 0.40837 0.80415
 C162 C 0.44852 0.41431 0.81408
 H163 H 0.45625 0.42928 0.83773
 H164 H 0.42949 0.45688 0.83791
 H165 H 0.41158 0.45732 0.81999
 H166 H 0.41102 0.43025 0.79253
 H167 H 0.42907 0.41205 0.79215
 H168 H 0.45606 0.41141 0.81960
 C169 C 0.80652 0.92657 0.93622
 C170 C 0.80658 0.93530 0.92696
 C171 C 0.81537 0.94415 0.92680
 C172 C 0.82425 0.94437 0.93589
 C173 C 0.82418 0.93579 0.94497
 C174 C 0.81525 0.92680 0.94513
 C175 C 0.79937 0.91665 0.93838
 N176 N 0.80351 0.91068 0.94844
 C177 C 0.81328 0.91700 0.95257
 C178 C 0.83406 0.93791 0.95220
 N179 N 0.84028 0.94764 0.94778
 C180 C 0.83417 0.95158 0.93774
 C181 C 0.81349 0.95107 0.91657
 N182 N 0.80378 0.94662 0.91049
 C183 C 0.79950 0.93697 0.91683
 H184 H 0.79193 0.91396 0.93266
 H185 H 0.81877 0.91479 0.96037
 H186 H 0.83650 0.93243 0.95994
 H187 H 0.83662 0.95908 0.93195
 H188 H 0.81904 0.95856 0.91359
 H189 H 0.79182 0.93151 0.91426
 C190 C 0.30755 0.82495 0.31539
 C191 C 0.30765 0.81597 0.32440
 C192 C 0.31649 0.80717 0.32431
 C193 C 0.32533 0.80722 0.31520
 C194 C 0.32523 0.81609 0.30634
 C195 C 0.31626 0.82502 0.30645
 C196 C 0.30034 0.83488 0.31349
 N197 N 0.30442 0.84112 0.30357
 C198 C 0.31422 0.83498 0.29927
 C199 C 0.33511 0.81421 0.29903
 N200 N 0.34123 0.80441 0.30323
 C201 C 0.33527 0.80008 0.31313
 C202 C 0.31466 0.79996 0.33434
 N203 N 0.30491 0.80416 0.34053
 C204 C 0.30057 0.81395 0.33447
 H205 H 0.29287 0.83734 0.31927
 H206 H 0.31969 0.83742 0.29152
 H207 H 0.33766 0.81963 0.29124
 H208 H 0.33814 0.79253 0.31867
 H209 H 0.32006 0.79224 0.33692
 H210 H 0.29304 0.81946 0.33736
 C211 C 0.80627 0.42728 0.43592
 C212 C 0.80641 0.43607 0.42673
 C213 C 0.81533 0.44480 0.42660
 C214 C 0.82421 0.44488 0.43568
 C215 C 0.82408 0.43624 0.44470
 C216 C 0.81505 0.42736 0.44484
 C217 C 0.79903 0.41739 0.43803
 N218 N 0.80322 0.41144 0.44800
 C219 C 0.81302 0.41752 0.45221
 C220 C 0.83402 0.43818 0.45190
 N221 N 0.84034 0.44785 0.44751
 C222 C 0.83423 0.45196 0.43753
 C223 C 0.81354 0.45179 0.41641
 N224 N 0.80375 0.44752 0.41032
 C225 C 0.79934 0.43790 0.41661
 H226 H 0.79151 0.41454 0.43245
 H227 H 0.81835 0.41496 0.46004
 H228 H 0.83633 0.43272 0.45970
 H229 H 0.83687 0.45933 0.43167
 H230 H 0.81901 0.45941 0.41363
 H231 H 0.79176 0.43238 0.41386
 C232 C 0.93699 0.82189 -0.05429
 C233 C 0.92805 0.81294 -0.05430
 C234 C 0.92783 0.80433 -0.06342
 C235 C 0.93654 0.80459 -0.07267
 C236 C 0.94532 0.81340 -0.07266
 C237 C 0.94558 0.82212 -0.06339
 C238 C 0.93904 0.83174 -0.04693
 N239 N 0.94867 0.83796 -0.05134
 C240 C 0.95272 0.83209 -0.06141
 C241 C 0.95217 0.81176 -0.08295
 N242 N 0.94781 0.80211 -0.08936
 C243 C 0.93819 0.79772 -0.08296
 C244 C 0.91787 0.79717 -0.06146
 N245 N 0.91202 0.80123 -0.05139
 C246 C 0.91822 0.81088 -0.04696
 H247 H 0.93382 0.83422 -0.03899
 H248 H 0.96006 0.83508 -0.06716
 H249 H 0.95973 0.81739 -0.08542
 H250 H 0.93244 0.79028 -0.08558
 H251 H 0.91490 0.78981 -0.06722
 H252 H 0.91576 0.81610 -0.03901
 C253 C 0.30745 0.32554 0.81512
 C254 C 0.30739 0.31658 0.82415
 C255 C 0.31620 0.30775 0.82421
 C256 C 0.32517 0.30773 0.81523
 C257 C 0.32524 0.31658 0.80635
 C258 C 0.31632 0.32555 0.80629
 C259 C 0.30030 0.33550 0.81309
 N260 N 0.30463 0.34158 0.80325
 C261 C 0.31444 0.33551 0.79905
 C262 C 0.33523 0.31463 0.79919
 N263 N 0.34124 0.30482 0.80351
 C264 C 0.33511 0.30055 0.81333
 C265 C 0.31419 0.30057 0.83423
 N266 N 0.30436 0.30481 0.84027
 C267 C 0.30015 0.31461 0.83413
 H268 H 0.29273 0.33830 0.81861
 H269 H 0.31986 0.33814 0.79130
 H270 H 0.33791 0.32002 0.79143
 H271 H 0.33786 0.29299 0.81893
 H272 H 0.31952 0.29282 0.83690
 H273 H 0.29260 0.32015 0.83689
 C274 C 0.17799 0.56230 0.55225
 C275 C 0.18693 0.57126 0.55238
 C276 C 0.19567 0.57121 0.56135
 C277 C 0.19557 0.56220 0.57033
 C278 C 0.18674 0.55338 0.57021
 C279 C 0.17791 0.55341 0.56110
 C280 C 0.16803 0.56049 0.54503
 N281 N 0.16188 0.55072 0.54927
 C282 C 0.16790 0.54634 0.55910
 C283 C 0.18850 0.54623 0.58030
 N284 N 0.19818 0.55049 0.58656
 C285 C 0.20256 0.56026 0.58049
 C286 C 0.20277 0.58125 0.55957
 N287 N 0.19856 0.58742 0.54975
 C288 C 0.18886 0.58133 0.54531
 H289 H 0.16542 0.56598 0.53732
 H290 H 0.16500 0.53883 0.56469
 H291 H 0.18305 0.53853 0.58290
 H292 H 0.21002 0.56583 0.58344
 H293 H 0.21020 0.58406 0.56528
 H294 H 0.18352 0.58405 0.53754
 C295 C 0.57408 0.68608 0.05376
 C296 C 0.56498 0.67727 0.05370
 C297 C 0.55604 0.67751 0.06244
 C298 C 0.55607 0.68655 0.07140
 C299 C 0.56505 0.69522 0.07146
 C300 C 0.57410 0.69500 0.06257
 C301 C 0.58420 0.68772 0.04673
 N302 N 0.59039 0.69743 0.05105
 C303 C 0.58424 0.70193 0.06074
 C304 C 0.56314 0.70247 0.08145
 N305 N 0.55322 0.69842 0.08747
 C306 C 0.54884 0.68868 0.08134
 C307 C 0.54877 0.66762 0.06049
 N308 N 0.55310 0.66135 0.05078
 C309 C 0.56303 0.66723 0.04658
 H310 H 0.58688 0.68219 0.03907
 H311 H 0.58711 0.70945 0.06634
 H312 H 0.56863 0.71010 0.08414
 H313 H 0.54119 0.68327 0.08411
 H314 H 0.54113 0.66497 0.06601
 H315 H 0.56849 0.66441 0.03894
 C316 C 0.68550 0.19538 0.67787
 C317 C 0.67682 0.19526 0.68714
 C318 C 0.67721 0.18645 0.69606
 C319 C 0.68632 0.17767 0.69586
 C320 C 0.69487 0.17779 0.68672
 C321 C 0.69448 0.18673 0.67768
 C322 C 0.68701 0.20251 0.66772
 N323 N 0.69668 0.19840 0.66136
 C324 C 0.70130 0.18874 0.66742
 C325 C 0.70222 0.16793 0.68848
 N326 N 0.69833 0.16180 0.69846
 C327 C 0.68860 0.16773 0.70303
 C328 C 0.66740 0.18820 0.70351
 N329 N 0.66104 0.19785 0.69933
 C330 C 0.66678 0.20222 0.68932
 H331 H 0.68141 0.21010 0.66516
 H332 H 0.70884 0.18330 0.66441
 H333 H 0.70980 0.16540 0.68283
 H334 H 0.68330 0.16483 0.71076
 H335 H 0.66506 0.18278 0.71136
 H336 H 0.66368 0.20967 0.68376
 C337 C 1.07260 0.06363 0.19539
 C338 C 1.06355 0.07247 0.19524
 C339 C 1.05501 0.07246 0.18610
 C340 C 1.05537 0.06359 0.17698
 C341 C 1.06425 0.05489 0.17712
 C342 C 1.07293 0.05488 0.18640
 C343 C 1.08239 0.06177 0.20282
 N344 N 1.08869 0.05211 0.19858
 C345 C 1.08293 0.04785 0.18853
 C346 C 1.06269 0.04785 0.16693
 N347 N 1.05303 0.05202 0.16046
 C348 C 1.04855 0.06171 0.16672
 C349 C 1.04775 0.08237 0.18789
 N350 N 1.05167 0.08843 0.19791
 C351 C 1.06134 0.08239 0.20246
 H352 H 1.08475 0.06713 0.21071
 H353 H 1.08599 0.04041 0.18292
 H354 H 1.06842 0.04033 0.16454
 H355 H 1.04105 0.06733 0.16407
 H356 H 1.04020 0.08500 0.18224
 H357 H 1.06666 0.08521 0.21021
 C358 C 0.06323 0.17693 1.05393
 C359 C 0.07211 0.18594 1.05358
 C360 C 0.07216 0.19501 1.06224
 C361 C 0.06334 0.19517 1.07138
 C362 C 0.05461 0.18632 1.07172
 C363 C 0.05455 0.17710 1.06295
 C364 C 0.06129 0.16672 1.04704
 N365 N 0.05165 0.16067 1.05166
 C366 C 0.04748 0.16700 1.06140
 C367 C 0.04762 0.18845 1.08182
 N368 N 0.05185 0.19843 1.08778
 C369 C 0.06153 0.20254 1.08129
 C370 C 0.08206 0.20216 1.06001
 N371 N 0.08806 0.19764 1.05022
 C372 C 0.08200 0.18771 1.04624
 H373 H 0.06677 0.16373 1.03947
 H374 H 0.03989 0.16444 1.06702
 H375 H 0.04022 0.18275 1.08463
 H376 H 0.06706 0.21028 1.08345
 H377 H 0.08490 0.20984 1.06539
 H378 H 0.08459 0.18211 1.03860
 C379 C 0.17815 0.69699 0.68892
 C380 C 0.18705 0.69710 0.67986
 C381 C 0.19594 0.68836 0.67979
 C382 C 0.19604 0.67935 0.68878
 C383 C 0.18725 0.67921 0.69768
 C384 C 0.17824 0.68810 0.69776
 C385 C 0.16808 0.70397 0.69086
 N386 N 0.16203 0.69953 0.70065
 C387 C 0.16822 0.68981 0.70492
 C388 C 0.18920 0.66914 0.70476
 N389 N 0.19897 0.66314 0.70037
 C390 C 0.20321 0.66936 0.69059
 C391 C 0.20298 0.69036 0.66969
 N392 N 0.19857 0.70009 0.66358
 C393 C 0.18881 0.70427 0.66978
 H394 H 0.16516 0.71147 0.68526
 H395 H 0.16561 0.68430 0.71262
 H396 H 0.18382 0.66637 0.71248
 H397 H 0.21070 0.66662 0.68493
 H398 H 0.21051 0.68485 0.66679
 H399 H 0.18333 0.71191 0.66714
 C400 C 1.18784 0.17825 0.19692
 C401 C 1.17881 0.18711 0.19704
 C402 C 1.17866 0.19599 0.18819
 C403 C 1.18751 0.19612 0.17908
 C404 C 1.19637 0.18740 0.17895
 C405 C 1.19655 0.17838 0.18793
 C406 C 1.18987 0.16819 0.20399
 N407 N 1.19959 0.16218 0.19950
 C408 C 1.20373 0.16840 0.18967
 C409 C 1.20333 0.18939 0.16881
 N410 N 1.19896 0.19917 0.16261
 C411 C 1.18923 0.20328 0.16901
 C412 C 1.16861 0.20300 0.19021
 N413 N 1.16264 0.19857 0.20006
 C414 C 1.16885 0.18884 0.20428
 H415 H 1.18438 0.16524 0.21157
 H416 H 1.21135 0.16583 0.18410
 H417 H 1.21090 0.18383 0.16623
 H418 H 1.18348 0.21076 0.16656
 H419 H 1.16567 0.21051 0.18465
 H420 H 1.16631 0.18335 0.21202
 C421 C 0.67705 1.05589 0.56256
 C422 C 0.68587 1.05570 0.57169
 C423 C 0.69460 1.06461 0.57205
 C424 C 0.69460 1.07385 0.56331
 C425 C 0.68594 1.07404 0.55434
 C426 C 0.67707 1.06500 0.55396
 C427 C 0.66716 1.04872 0.56030
 N428 N 0.66115 1.05327 0.55054
 C429 C 0.66718 1.06324 0.54661
 C430 C 0.68786 1.08425 0.54748
 N431 N 0.69753 1.09043 0.55202
 C432 C 0.70166 1.08396 0.56177
 C433 C 0.70162 1.06245 0.58214
 N434 N 0.69736 1.05245 0.58793
 C435 C 0.68771 1.04828 0.58155
 H436 H 0.66435 1.04101 0.56565
 H437 H 0.66456 1.06887 0.53900
 H438 H 0.68224 1.08697 0.53993
 H439 H 0.70920 1.08627 0.56752
 H440 H 0.70904 1.06800 0.58523
 H441 H 0.68236 1.04044 0.58392
 C442 C 0.56287 0.55316 0.17994
 C443 C 0.57174 0.55324 0.18902
 C444 C 0.57167 0.56216 0.19784
 C445 C 0.56271 0.57110 0.19771
 C446 C 0.55395 0.57100 0.18877
 C447 C 0.55403 0.56196 0.17982
 C448 C 0.56109 0.54597 0.16988
 N449 N 0.55138 0.55019 0.16363
 C450 C 0.54701 0.55997 0.16969
 C451 C 0.54684 0.58103 0.19054
 N452 N 0.55109 0.58726 0.20031
 C453 C 0.56081 0.58120 0.20475
 C454 C 0.58166 0.56041 0.20503
 N455 N 0.58781 0.55065 0.20080
 C456 C 0.58176 0.54621 0.19101
 H457 H 0.56654 0.53828 0.16728
 H458 H 0.53953 0.56551 0.16674
 H459 H 0.53939 0.58381 0.18484
 H460 H 0.56618 0.58396 0.21248
 H461 H 0.58428 0.56593 0.21271
 H462 H 0.58466 0.53868 0.18544
 C463 C 0.67717 0.68629 0.19562
 C464 C 0.68612 0.67735 0.19548
 C465 C 0.69475 0.67733 0.18641
 C466 C 0.69454 0.68624 0.17733
 C467 C 0.68570 0.69505 0.17746
 C468 C 0.67697 0.69508 0.18669
 C469 C 0.66732 0.68817 0.20298
 N470 N 0.66112 0.69789 0.19874
 C471 C 0.66700 0.70218 0.18877
 C472 C 0.68738 0.70213 0.16732
 N473 N 0.69702 0.69786 0.16101
 C474 C 0.70145 0.68814 0.16712
 C475 C 0.70191 0.66734 0.18824
 N476 N 0.69782 0.66127 0.19818
 C477 C 0.68816 0.66738 0.20266
 H478 H 0.66484 0.68277 0.21080
 H479 H 0.66403 0.70965 0.18316
 H480 H 0.68192 0.70982 0.16472
 H481 H 0.70893 0.68258 0.16416
 H482 H 0.70930 0.66450 0.18249
 H483 H 0.68291 0.66475 0.21053
 C484 C 0.17725 0.06338 1.05401
 C485 C 0.18641 0.07213 1.05411
 C486 C 0.19523 0.07179 1.06298
 C487 C 0.19506 0.06267 1.07185
 C488 C 0.18604 0.05405 1.07174
 C489 C 0.17708 0.05440 1.06275
 C490 C 0.16720 0.06183 1.04685
 N491 N 0.16092 0.05211 1.05102
 C492 C 0.16694 0.04752 1.06076
 C493 C 0.18778 0.04673 1.08171
 N494 N 0.19764 0.05069 1.08788
 C495 C 0.20215 0.06045 1.08187
 C496 C 0.20256 0.08167 1.06121
 N497 N 0.19840 0.08802 1.05148
 C498 C 0.18852 0.08221 1.04708
 H499 H 0.16465 0.06742 1.03919
 H500 H 0.16398 0.03997 1.06626
 H501 H 0.18221 0.03912 1.08428
 H502 H 0.20978 0.06582 1.08478
 H503 H 0.21031 0.08407 1.06667
 H504 H 0.18300 0.08528 1.03958
 C505 C 0.57294 0.19596 0.56241
 C506 C 0.56399 0.19613 0.57141
 C507 C 0.55503 0.18744 0.57142
 C508 C 0.55492 0.17843 0.56243
 C509 C 0.56376 0.17825 0.55358
 C510 C 0.57284 0.18708 0.55357
 C511 C 0.58305 0.20291 0.56051
 N512 N 0.58912 0.19846 0.55074
 C513 C 0.58289 0.18876 0.54644
 C514 C 0.56176 0.16822 0.54646
 N515 N 0.55191 0.16229 0.55076
 C516 C 0.54767 0.16851 0.56053
 C517 C 0.54793 0.18951 0.58146
 N518 N 0.55236 0.19923 0.58758
 C519 C 0.56219 0.20333 0.58146
 H520 H 0.58598 0.21041 0.56611
 H521 H 0.58550 0.18325 0.53874
 H522 H 0.56716 0.16544 0.53875
 H523 H 0.54011 0.16582 0.56614
 H524 H 0.54033 0.18406 0.58431
 H525 H 0.56770 0.21096 0.58411
 C526 C 0.07152 0.56276 0.69768
 C527 C 0.06244 0.57158 0.69748
 C528 C 0.05368 0.57127 0.68855
 C529 C 0.05385 0.56213 0.67971
 C530 C 0.06280 0.55345 0.67990
 C531 C 0.07168 0.55375 0.68896
 C532 C 0.08153 0.56119 0.70489
 N533 N 0.08778 0.55144 0.70077
 C534 C 0.08178 0.54684 0.69102
 C535 C 0.06109 0.54615 0.66991
 N536 N 0.05133 0.55018 0.66364
 C537 C 0.04685 0.55996 0.66961
 C538 C 0.04645 0.58123 0.69020
 N539 N 0.05060 0.58760 0.69992
 C540 C 0.06039 0.58172 0.70443
 H541 H 0.08409 0.56681 0.71253
 H542 H 0.08475 0.53928 0.68554
 H543 H 0.06664 0.53851 0.66737
 H544 H 0.03930 0.56540 0.66662
 H545 H 0.03878 0.58367 0.68465
 H546 H 0.06589 0.58480 0.71194
 C547 C 0.67787 0.55473 0.06186
 C548 C 0.68685 0.55467 0.07084
 C549 C 0.69559 0.56359 0.07091
 C550 C 0.69549 0.57267 0.06201
 C551 C 0.68662 0.57273 0.05318
 C552 C 0.67775 0.56369 0.05310
 C553 C 0.66792 0.54755 0.05991
 N554 N 0.66174 0.55196 0.05019
 C555 C 0.66773 0.56185 0.04598
 C556 C 0.68837 0.58288 0.04616
 N557 N 0.69809 0.58900 0.05051
 C558 C 0.70249 0.58278 0.06021
 C559 C 0.70275 0.56162 0.08093
 N560 N 0.69858 0.55173 0.08696
 C561 C 0.68886 0.54742 0.08081
 H562 H 0.66518 0.53994 0.06543
 H563 H 0.66499 0.56736 0.03833
 H564 H 0.68290 0.58562 0.03850
 H565 H 0.70999 0.58559 0.06584
 H566 H 0.71040 0.56707 0.08365
 H567 H 0.68336 0.53982 0.08358
 C568 C 0.06295 0.69639 0.57026
 C569 C 0.07184 0.69629 0.56119
 C570 C 0.07178 0.68737 0.55238
 C571 C 0.06281 0.67844 0.55250
 C572 C 0.05402 0.67855 0.56141
 C573 C 0.05409 0.68759 0.57036
 C574 C 0.06115 0.70359 0.58030
 N575 N 0.05142 0.69939 0.58653
 C576 C 0.04705 0.68960 0.58047
 C577 C 0.04690 0.66852 0.55963
 N578 N 0.05115 0.66230 0.54986
 C579 C 0.06089 0.66834 0.54545
 C580 C 0.08178 0.68912 0.54520
 N581 N 0.08793 0.69889 0.54943
 C582 C 0.08187 0.70333 0.55921
 H583 H 0.06661 0.71128 0.58290
 H584 H 0.03955 0.68407 0.58340
 H585 H 0.03942 0.66576 0.56530
 H586 H 0.06628 0.66558 0.53772
 H587 H 0.08441 0.68360 0.53752
 H588 H 0.08477 0.71087 0.56478
 C589 C 0.56354 1.05430 0.67891
 C590 C 0.57241 1.05444 0.68801
 C591 C 0.57225 1.06333 0.69685
 C592 C 0.56319 1.07217 0.69674
 C593 C 0.55449 1.07201 0.68781
 C594 C 0.55465 1.06299 0.67883
 C595 C 0.56179 1.04711 0.66887
 N596 N 0.55199 1.05117 0.66254
 C597 C 0.54762 1.06094 0.66874
 C598 C 0.54725 1.08193 0.68961
 N599 N 0.55131 1.08827 0.69947
 C600 C 0.56112 1.08219 0.70384
 C601 C 0.58220 1.06161 0.70410
 N602 N 0.58843 1.05189 0.69989
 C603 C 0.58246 1.04745 0.69004
 H604 H 0.56744 1.03952 0.66650
 H605 H 0.54011 1.06655 0.66610
 H606 H 0.53966 1.08423 0.68393
 H607 H 0.56673 1.08486 0.71141
 H608 H 0.58473 1.06710 0.71184
 H609 H 0.58541 1.03994 0.68448
 C610 C 0.44198 0.32520 0.93503
 C611 C 0.44201 0.31629 0.92595
 C612 C 0.43317 0.30748 0.92582
 C613 C 0.42415 0.30749 0.93476
 C614 C 0.42413 0.31629 0.94369
 C615 C 0.43314 0.32520 0.94382
 C616 C 0.44917 0.33510 0.93710
 N617 N 0.44496 0.34127 0.94701
 C618 C 0.43509 0.33510 0.95112
 C619 C 0.41414 0.31436 0.95084
 N620 N 0.40808 0.30459 0.94647
 C621 C 0.41418 0.30033 0.93663
 C622 C 0.43519 0.30034 0.91578
 N623 N 0.44503 0.30460 0.90978
 C624 C 0.44925 0.31436 0.91598
 H625 H 0.45686 0.33749 0.93158
 H626 H 0.42939 0.33762 0.95866
 H627 H 0.41149 0.31971 0.95864
 H628 H 0.41140 0.29280 0.93101
 H629 H 0.42966 0.29281 0.91287
 H630 H 0.45702 0.31972 0.91344
 C631 C 0.94205 0.43352 0.32491
 C632 C 0.94218 0.42461 0.31581
 C633 C 0.93343 0.42461 0.30686
 C634 C 0.92445 0.43352 0.30686
 C635 C 0.92435 0.44229 0.31581
 C636 C 0.93321 0.44226 0.32491
 C637 C 0.94913 0.43547 0.33497
 N638 N 0.94485 0.44524 0.34125
 C639 C 0.93505 0.44939 0.33499
 C640 C 0.91439 0.44943 0.31382
 N641 N 0.90843 0.44519 0.30389
 C642 C 0.91456 0.43544 0.29958
 C643 C 0.93548 0.41471 0.29958
 N644 N 0.94526 0.40868 0.30388
 C645 C 0.94942 0.41471 0.31382
 H646 H 0.95667 0.42984 0.33752
 H647 H 0.92947 0.45701 0.33740
 H648 H 0.91152 0.45693 0.31944
 H649 H 0.91201 0.43010 0.29174
 H650 H 0.93018 0.41210 0.29174
 H651 H 0.95693 0.41193 0.31943
 C652 C 0.30797 0.93375 0.42587
 C653 C 0.30809 0.92482 0.43493
 C654 C 0.31699 0.92490 0.44373
 C655 C 0.32586 0.93393 0.44359
 C656 C 0.32572 0.94271 0.43470
 C657 C 0.31670 0.94261 0.42575
 C658 C 0.30068 0.93565 0.41594
 N659 N 0.30472 0.94551 0.40963
 C660 C 0.31459 0.94976 0.41575
 C661 C 0.33559 0.94998 0.43657
 N662 N 0.34189 0.94588 0.44643
 C663 C 0.33583 0.93600 0.45072
 C664 C 0.31516 0.91497 0.45103
 N665 N 0.30537 0.90883 0.44688
 C666 C 0.30099 0.91484 0.43703
 H667 H 0.29313 0.92997 0.41356
 H668 H 0.32008 0.95742 0.41323
 H669 H 0.33799 0.95752 0.43081
 H670 H 0.33832 0.93049 0.45844
 H671 H 0.32061 0.91241 0.45877
 H672 H 0.29340 0.91198 0.43155
 O673 O 0.21793 0.51668 0.74934
 O674 O 0.22200 0.51502 0.77003
 O675 O 0.24944 0.53311 0.73431
 O676 O 0.26920 0.52939 0.73335
 O677 O 0.23382 0.50141 0.71741
 O678 O 0.23536 0.48089 0.72128
 O679 O 0.28153 0.50012 0.76534
 O680 O 0.27822 0.52067 0.76310
 O681 O 0.25108 0.48503 0.78131
 O682 O 0.23015 0.48526 0.77802
 O683 O 0.26550 0.46923 0.75032
 O684 O 0.26481 0.47334 0.72862
 O685 O 0.28143 0.48561 0.75068
 O686 O 0.27678 0.48703 0.72802
 O687 O 0.25097 0.46903 0.76486
 O688 O 0.22811 0.47460 0.76292
 O689 O 0.26582 0.49928 0.78116
 O690 O 0.26185 0.52125 0.77745
 O691 O 0.21760 0.50196 0.73486
 O692 O 0.22231 0.48007 0.73731
 O693 O 0.24852 0.51576 0.71713
 O694 O 0.27049 0.51397 0.72187
 O695 O 0.23489 0.53313 0.74886
 O696 O 0.23780 0.52825 0.77078
 Zr697 Zr 0.23550 0.51563 0.75641
 O698 O 0.24600 0.50467 0.76791
 Zr699 Zr 0.25630 0.51539 0.73466
 O700 O 0.26795 0.50493 0.74551
 Zr701 Zr 0.23501 0.49425 0.73507
 O702 O 0.24595 0.48259 0.74547
 Zr703 Zr 0.26425 0.50765 0.76404
 O704 O 0.25381 0.51953 0.75322
 Zr705 Zr 0.24315 0.48633 0.76398
 O706 O 0.23138 0.49725 0.75360
 Zr707 Zr 0.26424 0.48655 0.74254
 O708 O 0.25331 0.49703 0.73080
 O709 O 0.23816 0.51253 0.73797
 O710 O 0.26142 0.48928 0.76102
 C711 C 0.21258 0.51051 0.74101
 C712 C 0.24106 0.53833 0.74046
 C713 C 0.23996 0.50972 0.71205
 C714 C 0.28653 0.49145 0.75940
 C715 C 0.25992 0.49067 0.78629
 C716 C 0.25964 0.46406 0.75896
 H717 H 0.24416 0.50658 0.77651
 H718 H 0.24400 0.47410 0.74344
 H719 H 0.23301 0.51775 0.73284
 H720 H 0.27642 0.50700 0.74363
 H721 H 0.27441 0.52836 0.76056
 H722 H 0.27510 0.52800 0.73993
 H723 H 0.23023 0.46788 0.75737
 H724 H 0.21596 0.48093 0.73102
 H725 H 0.26874 0.52079 0.78317
 H726 H 0.23148 0.53456 0.77010
 H727 H 0.25718 0.46872 0.72898
 H728 H 0.24362 0.48088 0.71789
 H729 H 0.21851 0.50678 0.76982
 H730 H 0.22955 0.49337 0.78175
 H731 H 0.26891 0.50662 0.71697
 H732 H 0.28263 0.49356 0.72972
 O733 O 0.24862 0.03207 0.23460
 O734 O 0.26914 0.02817 0.23609
 O735 O 0.23392 0.00036 0.21805
 O736 O 0.23314 -0.01949 0.22174
 O737 O 0.21726 0.01579 0.25009
 O738 O 0.22124 0.01414 0.27075
 O739 O 0.26512 -0.03168 0.25086
 O740 O 0.26275 -0.02827 0.23023
 O741 O 0.28079 -0.00103 0.26609
 O742 O 0.27735 0.01994 0.26595
 O743 O 0.25037 -0.01587 0.28216
 O744 O 0.22887 -0.01537 0.27822
 O745 O 0.25071 -0.03179 0.26558
 O746 O 0.22823 -0.02728 0.26437
 O747 O 0.26462 -0.00114 0.28230
 O748 O 0.26246 0.02180 0.27680
 O749 O 0.28066 -0.01577 0.25169
 O750 O 0.27681 -0.01172 0.22962
 O751 O 0.23439 0.03221 0.24952
 O752 O 0.23699 0.02739 0.27151
 O753 O 0.21702 0.00109 0.23561
 O754 O 0.22190 -0.02094 0.23734
 O755 O 0.24817 0.01512 0.21797
 O756 O 0.26993 0.01239 0.22271
 Zr757 Zr 0.25578 0.01451 0.23552
 O758 O 0.26734 0.00403 0.24643
 Zr759 Zr 0.23443 -0.00658 0.23585
 O760 O 0.24535 -0.01821 0.24626
 Zr761 Zr 0.23480 0.01470 0.25720
 O762 O 0.24528 0.00377 0.26882
 Zr763 Zr 0.26364 -0.01431 0.24339
 O764 O 0.25275 -0.00389 0.23156
 Zr765 Zr 0.26356 0.00677 0.26493
 O766 O 0.25309 0.01852 0.25406
 Zr767 Zr 0.24252 -0.01460 0.26479
 O768 O 0.23072 -0.00369 0.25437
 O769 O 0.23757 0.01164 0.23877
 O770 O 0.26077 -0.01158 0.26191
 C771 C 0.24037 0.03733 0.24090
 C772 C 0.23987 0.00885 0.21278
 C773 C 0.21197 0.00963 0.24173
 C774 C 0.25934 -0.03680 0.25960
 C775 C 0.28575 -0.00985 0.26034
 C776 C 0.25890 -0.00993 0.28732
 H777 H 0.27582 0.00596 0.24445
 H778 H 0.24332 0.00567 0.27738
 H779 H 0.23241 0.01678 0.23357
 H780 H 0.24355 -0.02671 0.24415
 H781 H 0.26015 -0.02443 0.22252
 H782 H 0.23973 -0.02534 0.22306
 H783 H 0.25703 0.01960 0.28359
 H784 H 0.23069 0.03371 0.27072
 H785 H 0.28254 -0.01858 0.23001
 H786 H 0.26915 0.01874 0.21639
 H787 H 0.22914 -0.00769 0.28283
 H788 H 0.21792 0.00583 0.27070
 H789 H 0.26897 0.03162 0.24440
 H790 H 0.28098 0.02060 0.25776
 H791 H 0.21706 -0.01940 0.24475
 H792 H 0.22991 -0.03311 0.25776
 O793 O 0.50073 0.71743 0.23366
 O794 O 0.48017 0.72133 0.23514
 O795 O 0.51540 0.74912 0.21700
 O796 O 0.51596 0.76903 0.22058
 O797 O 0.53204 0.73392 0.24900
 O798 O 0.52782 0.73624 0.26997
 O799 O 0.48402 0.78122 0.24965
 O800 O 0.48660 0.77779 0.22898
 O801 O 0.46828 0.75063 0.26474
 O802 O 0.47270 0.72859 0.26356
 O803 O 0.49855 0.76538 0.28101
 O804 O 0.52009 0.76483 0.27724
 O805 O 0.49836 0.78134 0.26444
 O806 O 0.52078 0.77690 0.26347
 O807 O 0.48410 0.75083 0.28101
 O808 O 0.48633 0.72987 0.27789
 O809 O 0.46847 0.76530 0.25027
 O810 O 0.47254 0.76124 0.22827
 O811 O 0.51490 0.71739 0.24864
 O812 O 0.51336 0.72212 0.27049
 O813 O 0.53226 0.74861 0.23452
 O814 O 0.52734 0.77053 0.23622
 O815 O 0.50123 0.73428 0.21698
 O816 O 0.47949 0.73696 0.22157
 Zr817 Zr 0.49355 0.73498 0.23451
 O818 O 0.48188 0.74553 0.24523
 Zr819 Zr 0.51481 0.75617 0.23476
 O820 O 0.50384 0.76778 0.24515
 Zr821 Zr 0.51452 0.73496 0.25619
 O822 O 0.50378 0.74576 0.26766
 Zr823 Zr 0.48558 0.76386 0.24215
 O824 O 0.49652 0.75337 0.23044
 Zr825 Zr 0.48552 0.74280 0.26375
 O826 O 0.49623 0.73102 0.25310
 Zr827 Zr 0.50655 0.76415 0.26370
 O828 O 0.51848 0.75336 0.25329
 O829 O 0.51176 0.73794 0.23775
 O830 O 0.48832 0.76114 0.26069
 C831 C 0.50895 0.71221 0.24002
 C832 C 0.50951 0.74056 0.21177
 C833 C 0.53733 0.74010 0.24065
 C834 C 0.48975 0.78634 0.25842
 C835 C 0.46333 0.75939 0.25891
 C836 C 0.48987 0.75956 0.28608
 H837 H 0.47342 0.74361 0.24314
 H838 H 0.50557 0.74379 0.27626
 H839 H 0.51693 0.73277 0.23258
 H840 H 0.50565 0.77628 0.24306
 H841 H 0.48924 0.77393 0.22130
 H842 H 0.50964 0.77512 0.22216
 H843 H 0.49141 0.72317 0.27486
 H844 H 0.51993 0.71610 0.26949
 H845 H 0.46682 0.76812 0.22858
 H846 H 0.48029 0.73051 0.21534
 H847 H 0.51974 0.75715 0.28184
 H848 H 0.53159 0.74431 0.26920
 H849 H 0.48033 0.71791 0.24346
 H850 H 0.46737 0.72978 0.25644
 H851 H 0.53205 0.76911 0.24374
 H852 H 0.51926 0.78261 0.25673
 O853 O 0.00059 0.71771 0.73367
 O854 O -0.01997 0.72154 0.73514
 O855 O 0.01513 0.74940 0.71685
 O856 O 0.01566 0.76931 0.72037
 O857 O 0.03185 0.73437 0.74893
 O858 O 0.02763 0.73675 0.76987
 O859 O -0.01631 0.78152 0.74936
 O860 O -0.01376 0.77800 0.72873
 O861 O -0.03195 0.75094 0.76464
 O862 O -0.02748 0.72892 0.76352
 O863 O -0.00169 0.76581 0.78084
 O864 O 0.01982 0.76537 0.77702
 O865 O -0.00199 0.78174 0.76417
 O866 O 0.02044 0.77738 0.76322
 O867 O -0.01607 0.75119 0.78091
 O868 O -0.01385 0.73026 0.77782
 O869 O -0.03182 0.76554 0.75009
 O870 O -0.02775 0.76139 0.72810
 O871 O 0.01477 0.71778 0.74863
 O872 O 0.01321 0.72259 0.77046
 O873 O 0.03203 0.74899 0.73438
 O874 O 0.02703 0.77091 0.73600
 O875 O 0.00100 0.73451 0.71691
 O876 O -0.02073 0.73711 0.72151
 Zr877 Zr -0.00665 0.73524 0.73444
 O878 O -0.01835 0.74580 0.74512
 Zr879 Zr 0.01455 0.75649 0.73459
 O880 O 0.00354 0.76811 0.74494
 Zr881 Zr 0.01433 0.73537 0.75611
 O882 O 0.00356 0.74619 0.76754
 Zr883 Zr -0.01471 0.76412 0.74197
 O884 O -0.00373 0.75362 0.73029
 Zr885 Zr -0.01469 0.74316 0.76365
 O886 O -0.00395 0.73137 0.75305
 Zr887 Zr 0.00626 0.76458 0.76351
 O888 O 0.01823 0.75378 0.75314
 O889 O 0.01156 0.73827 0.73766
 O890 O -0.01196 0.76150 0.76053
 C891 C 0.00884 0.71255 0.74004
 C892 C 0.00925 0.74080 0.71166
 C893 C 0.03713 0.74053 0.74056
 C894 C -0.01060 0.78670 0.75811
 C895 C -0.03693 0.75966 0.75876
 C896 C -0.01030 0.75993 0.78596
 H897 H -0.02680 0.74384 0.74305
 H898 H 0.00537 0.74425 0.77613
 H899 H 0.01674 0.73310 0.73250
 H900 H 0.00532 0.77661 0.74281
 H901 H -0.01109 0.77412 0.72107
 H902 H 0.00930 0.77537 0.72190
 H903 H -0.00875 0.72356 0.77481
 H904 H 0.01979 0.71659 0.76948
 H905 H -0.03350 0.76824 0.72840
 H906 H -0.01991 0.73064 0.71531
 H907 H 0.01954 0.75769 0.78162
 H908 H 0.03139 0.74483 0.76907
 H909 H -0.01981 0.71817 0.74347
 H910 H -0.03282 0.73007 0.75641
 H911 H 0.03175 0.76953 0.74352
 H912 H 0.01890 0.78306 0.75644
 O913 O -0.01493 -0.03267 -0.00126
 O914 O -0.01316 -0.02876 0.01948
 O915 O -0.03166 -0.00099 -0.01580
 O916 O -0.02812 0.01892 -0.01641
 O917 O -0.00025 -0.01618 -0.03312
 O918 O 0.02057 -0.01384 -0.02920
 O919 O 0.00112 0.03114 0.01537
 O920 O -0.01934 0.02768 0.01316
 O921 O 0.01634 0.00051 0.03103
 O922 O 0.01512 -0.02149 0.02656
 O923 O 0.03199 0.01529 0.00018
 O924 O 0.02791 0.01478 -0.02148
 O925 O 0.01554 0.03128 0.00065
 O926 O 0.01425 0.02680 -0.02197
 O927 O 0.03223 0.00073 0.01474
 O928 O 0.02907 -0.02022 0.01256
 O929 O 0.00203 0.01518 0.03110
 O930 O -0.01982 0.01112 0.02732
 O931 O -0.00034 -0.03270 -0.01583
 O932 O 0.02132 -0.02796 -0.01461
 O933 O -0.01459 -0.00150 -0.03311
 O934 O -0.01281 0.02044 -0.02815
 O935 O -0.03145 -0.01583 -0.00150
 O936 O -0.02657 -0.01314 0.02038
 Zr937 Zr -0.01398 -0.01512 0.00598
 O938 O -0.00318 -0.00457 0.01760
 Zr939 Zr -0.01407 0.00607 -0.01549
 O940 O -0.00361 0.01768 -0.00455
 Zr941 Zr 0.00715 -0.01513 -0.01555
 O942 O 0.01867 -0.00432 -0.00488
 Zr943 Zr -0.00628 0.01376 0.01394
 O944 O -0.01805 0.00327 0.00306
 Zr945 Zr 0.01510 -0.00728 0.01362
 O946 O 0.00438 -0.01907 0.00297
 Zr947 Zr 0.01471 0.01407 -0.00759
 O948 O 0.00422 0.00327 -0.01949
 O949 O -0.01106 -0.01216 -0.01246
 O950 O 0.01204 0.01106 0.01087
 C951 C -0.00878 -0.03788 -0.00968
 C952 C -0.03674 -0.00956 -0.00978
 C953 C -0.00860 -0.01002 -0.03833
 C954 C 0.00968 0.03629 0.00942
 C955 C 0.01063 0.00924 0.03615
 C956 C 0.03716 0.00944 0.00883
 H957 H -0.00511 -0.00650 0.02617
 H958 H 0.02715 -0.00629 -0.00684
 H959 H -0.01626 -0.01733 -0.01760
 H960 H -0.00571 0.02618 -0.00635
 H961 H -0.02698 0.02383 0.01058
 H962 H -0.02647 0.02500 -0.01003
 H963 H 0.02599 -0.02692 0.00748
 H964 H 0.02023 -0.03398 -0.02123
 H965 H -0.01941 0.01798 0.03312
 H966 H -0.03275 -0.01960 0.01967
 H967 H 0.03241 0.00708 -0.02126
 H968 H 0.01974 -0.00577 -0.03301
 H969 H -0.00493 -0.03219 0.01918
 H970 H 0.00814 -0.02034 0.03203
 H971 H -0.00546 0.01900 -0.03304
 H972 H 0.00759 0.03251 -0.02033
 O973 O 0.03186 0.51554 0.50097
 O974 O 0.02777 0.51385 0.48027
 O975 O 0.00046 0.53232 0.51591
 O976 O -0.01936 0.52879 0.51675
 O977 O 0.01572 0.50066 0.53293
 O978 O 0.01336 0.47981 0.52893
 O979 O -0.03191 0.49962 0.48493
 O980 O -0.02840 0.52014 0.48722
 O981 O -0.00160 0.48434 0.46889
 O982 O 0.02038 0.48553 0.47311
 O983 O -0.01604 0.46855 0.49980
 O984 O -0.01528 0.47254 0.52148
 O985 O -0.03192 0.48507 0.49957
 O986 O -0.02723 0.48627 0.52216
 O987 O -0.00167 0.46835 0.48509
 O988 O 0.01924 0.47146 0.48707
 O989 O -0.01619 0.49874 0.46905
 O990 O -0.01204 0.52064 0.47287
 O991 O 0.03202 0.50084 0.51546
 O992 O 0.02726 0.47911 0.51418
 O993 O 0.00112 0.51508 0.53315
 O994 O -0.02078 0.51338 0.52840
 O995 O 0.01510 0.53215 0.50144
 O996 O 0.01222 0.52734 0.47957
 Zr997 Zr 0.01430 0.51465 0.49391
 O998 O 0.00365 0.50388 0.48234
 Zr999 Zr -0.00658 0.51467 0.51560
 O1000 O -0.01828 0.50426 0.50474
 Zr1001 Zr 0.01450 0.49335 0.51533
 O1002 O 0.00360 0.48185 0.50473
 Zr1003 Zr -0.01456 0.50701 0.48622
 O1004 O -0.00398 0.51875 0.49705
 Zr1005 Zr 0.00637 0.48551 0.48622
 O1006 O 0.01824 0.49620 0.49678
 Zr1007 Zr -0.01469 0.48584 0.50765
 O1008 O -0.00378 0.49630 0.51948
 O1009 O 0.01154 0.51164 0.51237
 O1010 O -0.01187 0.48861 0.48918
 C1011 C 0.03714 0.50932 0.50930
 C1012 C 0.00893 0.53744 0.50979
 C1013 C 0.00963 0.50902 0.53826
 C1014 C -0.03698 0.49099 0.49087
 C1015 C -0.01037 0.49009 0.46391
 C1016 C -0.01031 0.46339 0.49106
 H1017 H 0.00549 0.50585 0.47376
 H1018 H 0.00556 0.47333 0.50662
 H1019 H 0.01675 0.51683 0.51748
 H1020 H -0.02673 0.50637 0.50663
 H1021 H -0.02451 0.52779 0.48978
 H1022 H -0.02546 0.52720 0.51040
 H1023 H 0.02599 0.47453 0.49207
 H1024 H 0.03333 0.48017 0.52073
 H1025 H -0.01894 0.52027 0.46714
 H1026 H 0.01866 0.53353 0.48024
 H1027 H -0.00763 0.46798 0.52114
 H1028 H 0.00534 0.48060 0.53280
 H1029 H 0.03115 0.50558 0.48048
 H1030 H 0.01917 0.49255 0.46768
 H1031 H -0.01933 0.50598 0.53324
 H1032 H -0.03294 0.49296 0.52060
 O1033 O 0.53214 0.01647 0.50060
 O1034 O 0.52809 0.01483 0.47991
 O1035 O 0.50066 0.03285 0.51566
 O1036 O 0.48090 0.02913 0.51662
 O1037 O 0.51626 0.00113 0.53250
 O1038 O 0.51469 -0.01940 0.52858
 O1039 O 0.46853 -0.00005 0.48457
 O1040 O 0.47189 0.02048 0.48683
 O1041 O 0.49898 -0.01515 0.46857
 O1042 O 0.51990 -0.01493 0.47186
 O1043 O 0.48452 -0.03099 0.49952
 O1044 O 0.48520 -0.02694 0.52121
 O1045 O 0.46860 -0.01459 0.49920
 O1046 O 0.47329 -0.01322 0.52187
 O1047 O 0.49905 -0.03117 0.48499
 O1048 O 0.52193 -0.02561 0.48695
 O1049 O 0.48424 -0.00091 0.46874
 O1050 O 0.48825 0.02107 0.47248
 O1051 O 0.53247 0.00173 0.51507
 O1052 O 0.52774 -0.02017 0.51255
 O1053 O 0.50158 0.01547 0.53281
 O1054 O 0.47958 0.01368 0.52806
 O1055 O 0.51522 0.03291 0.50111
 O1056 O 0.51230 0.02806 0.47917
 Zr1057 Zr 0.51459 0.01542 0.49352
 O1058 O 0.50408 0.00448 0.48200
 Zr1059 Zr 0.49378 0.01513 0.51528
 O1060 O 0.48212 0.00470 0.50440
 Zr1061 Zr 0.51506 -0.00600 0.51482
 O1062 O 0.50409 -0.01764 0.50441
 Zr1063 Zr 0.48583 0.00745 0.48587
 O1064 O 0.49628 0.01931 0.49672
 Zr1065 Zr 0.50691 -0.01387 0.48590
 O1066 O 0.51868 -0.00296 0.49630
 Zr1067 Zr 0.48580 -0.01369 0.50733
 O1068 O 0.49676 -0.00323 0.51910
 O1069 O 0.51191 0.01228 0.51196
 O1070 O 0.48864 -0.01092 0.48886
 C1071 C 0.53748 0.01030 0.50893
 C1072 C 0.50905 0.03808 0.50953
 C1073 C 0.51013 0.00943 0.53787
 C1074 C 0.46351 -0.00872 0.49049
 C1075 C 0.49013 -0.00951 0.46360
 C1076 C 0.49036 -0.03615 0.49088
 H1077 H 0.50593 0.00640 0.47340
 H1078 H 0.50602 -0.02613 0.50642
 H1079 H 0.51707 0.01750 0.51710
 H1080 H 0.47366 0.00677 0.50628
 H1081 H 0.47572 0.02816 0.48938
 H1082 H 0.47502 0.02777 0.51001
 H1083 H 0.51979 -0.03234 0.49248
 H1084 H 0.53410 -0.01931 0.51883
 H1085 H 0.48137 0.02061 0.46675
 H1086 H 0.51862 0.03437 0.47987
 H1087 H 0.49284 -0.03152 0.52088
 H1088 H 0.50644 -0.01941 0.53198
 H1089 H 0.53157 0.00660 0.48011
 H1090 H 0.52053 -0.00680 0.46817
 H1091 H 0.48117 0.00635 0.53297
 H1092 H 0.46743 -0.00670 0.52017
 O1093 O 0.50111 0.53215 0.01621
 O1094 O 0.48054 0.52831 0.01465
 O1095 O 0.51557 0.50049 0.03306
 O1096 O 0.51613 0.48058 0.02955
 O1097 O 0.53239 0.51553 0.00102
 O1098 O 0.52823 0.51314 -0.01994
 O1099 O 0.48424 0.46832 0.00047
 O1100 O 0.48673 0.47186 0.02112
 O1101 O 0.46864 0.49888 -0.01485
 O1102 O 0.47312 0.52090 -0.01375
 O1103 O 0.49891 0.48398 -0.03094
 O1104 O 0.52044 0.48450 -0.02710
 O1105 O 0.49861 0.46810 -0.01428
 O1106 O 0.52105 0.47251 -0.01326
 O1107 O 0.48453 0.49857 -0.03106
 O1108 O 0.48680 0.51954 -0.02803
 O1109 O 0.46874 0.48427 -0.00031
 O1110 O 0.47273 0.48844 0.02169
 O1111 O 0.51532 0.53209 0.00128
 O1112 O 0.51381 0.52728 -0.02056
 O1113 O 0.53253 0.50092 0.01559
 O1114 O 0.52754 0.47899 0.01396
 O1115 O 0.50144 0.51536 0.03296
 O1116 O 0.47973 0.51275 0.02829
 Zr1117 Zr 0.49385 0.51462 0.01540
 O1118 O 0.48218 0.50404 0.00469
 Zr1119 Zr 0.51505 0.49339 0.01532
 O1120 O 0.50407 0.48175 0.00496
 Zr1121 Zr 0.51489 0.51450 -0.00621
 O1122 O 0.50416 0.50366 -0.01767
 Zr1123 Zr 0.48581 0.48572 0.00787
 O1124 O 0.49676 0.49625 0.01957
 Zr1125 Zr 0.48590 0.50667 -0.01383
 O1126 O 0.49661 0.51849 -0.00320
 Zr1127 Zr 0.50685 0.48528 -0.01361
 O1128 O 0.51879 0.49610 -0.00322
 O1129 O 0.51206 0.51161 0.01223
 O1130 O 0.48863 0.48834 -0.01067
 C1131 C 0.50938 0.53732 0.00987
 C1132 C 0.50967 0.50907 0.03824
 C1133 C 0.53764 0.50939 0.00942
 C1134 C 0.48998 0.46314 -0.00825
 C1135 C 0.46365 0.49014 -0.00900
 C1136 C 0.49028 0.48980 -0.03607
 H1137 H 0.47373 0.50599 0.00674
 H1138 H 0.50599 0.50558 -0.02626
 H1139 H 0.51723 0.51678 0.01741
 H1140 H 0.50585 0.47325 0.00709
 H1141 H 0.48937 0.47575 0.02879
 H1142 H 0.50977 0.47452 0.02802
 H1143 H 0.49187 0.52625 -0.02500
 H1144 H 0.52039 0.53329 -0.01957
 H1145 H 0.46697 0.48159 0.02138
 H1146 H 0.48052 0.51923 0.03448
 H1147 H 0.52014 0.49216 -0.03173
 H1148 H 0.53197 0.50505 -0.01914
 H1149 H 0.48075 0.53169 0.00631
 H1150 H 0.46777 0.51976 -0.00664
 H1151 H 0.53229 0.48038 0.00646
 H1152 H 0.51948 0.46683 -0.00650
 O1153 O 0.76552 0.28293 0.49941
 O1154 O 0.76377 0.27906 0.52015
 O1155 O 0.78203 0.25124 0.48480
 O1156 O 0.77840 0.23137 0.48405
 O1157 O 0.75052 0.26663 0.46761
 O1158 O 0.73002 0.26498 0.47139
 O1159 O 0.74916 0.21919 0.51601
 O1160 O 0.76960 0.22261 0.51387
 O1161 O 0.73393 0.24990 0.53161
 O1162 O 0.73408 0.27082 0.52811
 O1163 O 0.71835 0.23504 0.50067
 O1164 O 0.72253 0.23546 0.47905
 O1165 O 0.73477 0.21908 0.50127
 O1166 O 0.73625 0.22357 0.47858
 O1167 O 0.71804 0.24978 0.51504
 O1168 O 0.72358 0.27272 0.51291
 O1169 O 0.74818 0.23516 0.53170
 O1170 O 0.77007 0.23918 0.52803
 O1171 O 0.75092 0.28305 0.48486
 O1172 O 0.72911 0.27827 0.48727
 O1173 O 0.76485 0.25192 0.46755
 O1174 O 0.76308 0.22989 0.47250
 O1175 O 0.78196 0.26601 0.49918
 O1176 O 0.77701 0.26327 0.52112
 Zr1177 Zr 0.76449 0.26538 0.50668
 O1178 O 0.75354 0.25492 0.51824
 Zr1179 Zr 0.76441 0.24427 0.48515
 O1180 O 0.75396 0.23265 0.49608
 Zr1181 Zr 0.74328 0.26556 0.48523
 O1182 O 0.73165 0.25464 0.49570
 Zr1183 Zr 0.75658 0.23657 0.51459
 O1184 O 0.76843 0.24698 0.50370
 Zr1185 Zr 0.73528 0.25766 0.51420
 O1186 O 0.74618 0.26940 0.50373
 Zr1187 Zr 0.73565 0.23626 0.49299
 O1188 O 0.74612 0.24716 0.48118
 O1189 O 0.76149 0.26249 0.48826
 O1190 O 0.73827 0.23930 0.51146
 C1191 C 0.75941 0.28817 0.49098
 C1192 C 0.78718 0.25975 0.49085
 C1193 C 0.75886 0.26046 0.46236
 C1194 C 0.74060 0.21406 0.51005
 C1195 C 0.73957 0.24112 0.53673
 C1196 C 0.71312 0.24101 0.50919
 H1197 H 0.75540 0.25687 0.52682
 H1198 H 0.72320 0.25654 0.49360
 H1199 H 0.76670 0.26763 0.48309
 H1200 H 0.75607 0.22415 0.49430
 H1201 H 0.77726 0.22644 0.51131
 H1202 H 0.77699 0.22551 0.49068
 H1203 H 0.71692 0.27052 0.50735
 H1204 H 0.72998 0.28457 0.48089
 H1205 H 0.76960 0.23233 0.53383
 H1206 H 0.78328 0.26963 0.52039
 H1207 H 0.71801 0.24316 0.47919
 H1208 H 0.73013 0.25668 0.46803
 H1209 H 0.75557 0.28255 0.51983
 H1210 H 0.74217 0.27157 0.53179
 H1211 H 0.75581 0.23142 0.46752
 H1212 H 0.74277 0.21774 0.48036
 O1213 O 0.75183 0.76606 -0.03240
 O1214 O 0.73126 0.76458 -0.02864
 O1215 O 0.76634 0.78224 -0.00030
 O1216 O 0.76692 0.77846 0.01966
 O1217 O 0.78300 0.75045 -0.01590
 O1218 O 0.77893 0.72994 -0.01442
 O1219 O 0.73479 0.74950 0.03154
 O1220 O 0.73723 0.77001 0.02825
 O1221 O 0.71930 0.73462 0.00046
 O1222 O 0.72288 0.73485 -0.02058
 O1223 O 0.74961 0.71846 0.01547
 O1224 O 0.77109 0.72237 0.01520
 O1225 O 0.74916 0.73485 0.03165
 O1226 O 0.77167 0.73604 0.02727
 O1227 O 0.73548 0.71843 0.00055
 O1228 O 0.73778 0.72411 -0.02248
 O1229 O 0.71934 0.74883 0.01539
 O1230 O 0.72331 0.77076 0.01150
 O1231 O 0.76602 0.75121 -0.03254
 O1232 O 0.76329 0.72934 -0.02789
 O1233 O 0.78318 0.76475 -0.00101
 O1234 O 0.77812 0.76293 0.02112
 O1235 O 0.75218 0.78245 -0.01524
 O1236 O 0.73038 0.77777 -0.01266
 Zr1237 Zr 0.74452 0.76502 -0.01479
 O1238 O 0.73285 0.75414 -0.00440
 Zr1239 Zr 0.76570 0.76451 0.00658
 O1240 O 0.75466 0.75412 0.01814
 Zr1241 Zr 0.76543 0.74345 -0.01498
 O1242 O 0.75485 0.73185 -0.00413
 Zr1243 Zr 0.73641 0.75703 0.01412
 O1244 O 0.74741 0.76883 0.00378
 Zr1245 Zr 0.73660 0.73577 -0.00725
 O1246 O 0.74719 0.74663 -0.01894
 Zr1247 Zr 0.75747 0.73572 0.01440
 O1248 O 0.76938 0.74613 0.00358
 O1249 O 0.76269 0.76174 -0.01179
 O1250 O 0.73925 0.73863 0.01126
 C1251 C 0.76012 0.75984 -0.03767
 C1252 C 0.76046 0.78755 -0.00886
 C1253 C 0.78828 0.75870 -0.00960
 C1254 C 0.74052 0.74079 0.03668
 C1255 C 0.71427 0.74030 0.00930
 C1256 C 0.74115 0.71336 0.00937
 H1257 H 0.72439 0.75613 -0.00639
 H1258 H 0.75681 0.72336 -0.00609
 H1259 H 0.76791 0.76693 -0.01690
 H1260 H 0.75641 0.75616 0.02672
 H1261 H 0.73989 0.77768 0.02446
 H1262 H 0.76030 0.77711 0.02552
 H1263 H 0.74320 0.71735 -0.02029
 H1264 H 0.76965 0.73015 -0.03419
 H1265 H 0.71752 0.77034 0.01837
 H1266 H 0.73123 0.78409 -0.01901
 H1267 H 0.77090 0.71785 0.00743
 H1268 H 0.78220 0.72993 -0.00604
 H1269 H 0.73147 0.75636 -0.03221
 H1270 H 0.71936 0.74302 -0.02131
 H1271 H 0.78294 0.75556 0.01957
 H1272 H 0.76997 0.74257 0.03317
 O1273 O 1.00165 0.21780 0.23406
 O1274 O 0.98111 0.22179 0.23558
 O1275 O 1.01644 0.24950 0.21752
 O1276 O 1.01710 0.26938 0.22120
 O1277 O 1.03304 0.23408 0.24946
 O1278 O 1.02883 0.23631 0.27044
 O1279 O 0.98525 0.28159 0.25035
 O1280 O 0.98778 0.27825 0.22967
 O1281 O 0.96937 0.25100 0.26531
 O1282 O 0.97369 0.22895 0.26402
 O1283 O 0.99973 0.26553 0.28164
 O1284 O 1.02127 0.26491 0.27782
 O1285 O 0.99958 0.28158 0.26514
 O1286 O 1.02198 0.27705 0.26413
 O1287 O 0.98523 0.25104 0.28158
 O1288 O 0.98732 0.23011 0.27836
 O1289 O 0.96961 0.26573 0.25091
 O1290 O 0.97366 0.26176 0.22888
 O1291 O 1.01584 0.21763 0.24901
 O1292 O 1.01432 0.22224 0.27088
 O1293 O 1.03333 0.24883 0.23504
 O1294 O 1.02850 0.27076 0.23684
 O1295 O 1.00218 0.23474 0.21745
 O1296 O 0.98048 0.23747 0.22209
 Zr1297 Zr 0.99454 0.23538 0.23500
 O1298 O 0.98293 0.24594 0.24577
 Zr1299 Zr 1.01591 0.25646 0.23532
 O1300 O 1.00500 0.26807 0.24577
 Zr1301 Zr 1.01553 0.23516 0.25665
 O1302 O 1.00485 0.24595 0.26819
 Zr1303 Zr 0.98671 0.26426 0.24278
 O1304 O 0.99760 0.25377 0.23101
 Zr1305 Zr 0.98657 0.24311 0.26428
 O1306 O 0.99722 0.23132 0.25357
 Zr1307 Zr 1.00770 0.26435 0.26431
 O1308 O 1.01957 0.25355 0.25384
 O1309 O 1.01277 0.23823 0.23823
 O1310 O 0.98945 0.26144 0.26131
 C1311 C 1.00986 0.21252 0.24037
 C1312 C 1.01049 0.24100 0.21226
 C1313 C 1.03836 0.24027 0.24113
 C1314 C 0.99100 0.28665 0.25914
 C1315 C 0.96445 0.25980 0.25951
 C1316 C 0.99104 0.25971 0.28670
 H1317 H 0.97446 0.24406 0.24368
 H1318 H 1.00664 0.24394 0.27677
 H1319 H 1.01792 0.23307 0.23303
 H1320 H 1.00684 0.27658 0.24373
 H1321 H 0.99042 0.27442 0.22198
 H1322 H 1.01082 0.27550 0.22282
 H1323 H 0.99238 0.22340 0.27530
 H1324 H 1.02086 0.21622 0.26985
 H1325 H 0.96796 0.26866 0.22924
 H1326 H 0.98124 0.23105 0.21583
 H1327 H 1.02089 0.25721 0.28239
 H1328 H 1.03266 0.24437 0.26970
 H1329 H 0.98126 0.21832 0.24388
 H1330 H 0.96836 0.23020 0.25692
 H1331 H 1.03321 0.26929 0.24435
 H1332 H 1.02048 0.28279 0.25740
 O1333 O 0.71790 1.01624 0.74960
 O1334 O 0.72197 1.01454 0.77030
 O1335 O 0.74937 1.03275 0.73462
 O1336 O 0.76915 1.02908 0.73367
 O1337 O 0.73381 1.00108 0.71766
 O1338 O 0.73542 0.98052 0.72150
 O1339 O 0.78155 0.99979 0.76557
 O1340 O 0.77818 1.02032 0.76338
 O1341 O 0.75110 0.98461 0.78154
 O1342 O 0.73020 0.98478 0.77826
 O1343 O 0.76555 0.96888 0.75049
 O1344 O 0.76487 0.97302 0.72883
 O1345 O 0.78147 0.98531 0.75087
 O1346 O 0.77678 0.98675 0.72823
 O1347 O 0.75102 0.96862 0.76503
 O1348 O 0.72815 0.97416 0.76313
 O1349 O 0.76581 0.99890 0.78142
 O1350 O 0.76182 1.02085 0.77773
 O1351 O 0.71760 1.00155 0.73509
 O1352 O 0.72235 0.97967 0.73751
 O1353 O 0.74849 1.01545 0.71741
 O1354 O 0.77047 1.01369 0.72214
 O1355 O 0.73481 1.03273 0.74916
 O1356 O 0.73773 1.02781 0.77108
 Zr1357 Zr 0.73546 1.01521 0.75669
 O1358 O 0.74599 1.00426 0.76817
 Zr1359 Zr 0.75628 1.01506 0.73494
 O1360 O 0.76795 1.00459 0.74577
 Zr1361 Zr 0.73502 0.99388 0.73530
 O1362 O 0.74598 0.98222 0.74568
 Zr1363 Zr 0.76424 1.00728 0.76430
 O1364 O 0.75377 1.01915 0.75351
 Zr1365 Zr 0.74318 0.98592 0.76421
 O1366 O 0.73139 0.99683 0.75384
 Zr1367 Zr 0.76427 0.98621 0.74277
 O1368 O 0.75332 0.99670 0.73104
 O1369 O 0.73815 1.01215 0.73824
 O1370 O 0.76145 0.98890 0.76125
 C1371 C 0.71257 1.01008 0.74125
 C1372 C 0.74097 1.03795 0.74076
 C1373 C 0.73993 1.00942 0.71233
 C1374 C 0.78657 0.99116 0.75960
 C1375 C 0.75992 0.99028 0.78654
 C1376 C 0.75969 0.96367 0.75910
 H1377 H 0.74414 1.00615 0.77677
 H1378 H 0.74405 0.97373 0.74363
 H1379 H 0.73299 1.01737 0.73312
 H1380 H 0.77640 1.00669 0.74389
 H1381 H 0.77435 1.02801 0.76086
 H1382 H 0.77507 1.02767 0.74023
 H1383 H 0.73027 0.96748 0.75755
 H1384 H 0.71600 0.98053 0.73120
 H1385 H 0.76871 1.02040 0.78346
 H1386 H 0.73140 1.03410 0.77040
 H1387 H 0.75723 0.96843 0.72914
 H1388 H 0.74367 0.98059 0.71806
 H1389 H 0.71848 1.00630 0.77004
 H1390 H 0.72954 0.99290 0.78195
 H1391 H 0.76889 1.00636 0.71721
 H1392 H 0.78262 0.99329 0.72993
 O1393 O 0.74920 0.53204 0.23341
 O1394 O 0.76975 0.52820 0.23489
 O1395 O 0.73453 0.50033 0.21690
 O1396 O 0.73386 0.48047 0.22056
 O1397 O 0.71793 0.51564 0.24903
 O1398 O 0.72198 0.51405 0.26965
 O1399 O 0.76592 0.46833 0.24962
 O1400 O 0.76350 0.47175 0.22900
 O1401 O 0.78153 0.49901 0.26485
 O1402 O 0.77806 0.51995 0.26473
 O1403 O 0.75116 0.48411 0.28097
 O1404 O 0.72965 0.48453 0.27703
 O1405 O 0.75155 0.46818 0.26438
 O1406 O 0.72907 0.47260 0.26321
 O1407 O 0.76536 0.49888 0.28110
 O1408 O 0.76316 0.52182 0.27558
 O1409 O 0.78142 0.48428 0.25043
 O1410 O 0.77751 0.48834 0.22837
 O1411 O 0.73499 0.53213 0.24836
 O1412 O 0.73770 0.52734 0.27035
 O1413 O 0.71768 0.50096 0.23453
 O1414 O 0.72264 0.47896 0.23618
 O1415 O 0.74878 0.51510 0.21680
 O1416 O 0.77056 0.51243 0.22149
 Zr1417 Zr 0.75642 0.51450 0.23433
 O1418 O 0.76803 0.50405 0.24521
 Zr1419 Zr 0.73513 0.49336 0.23469
 O1420 O 0.74610 0.48175 0.24507
 Zr1421 Zr 0.73549 0.51463 0.25606
 O1422 O 0.74602 0.50372 0.26765
 Zr1423 Zr 0.76438 0.48570 0.24217
 O1424 O 0.75343 0.49610 0.23036
 Zr1425 Zr 0.76428 0.50677 0.26372
 O1426 O 0.75376 0.51851 0.25288
 Zr1427 Zr 0.74330 0.48534 0.26361
 O1428 O 0.73145 0.49623 0.25322
 O1429 O 0.73822 0.51158 0.23762
 O1430 O 0.76153 0.48842 0.26070
 C1431 C 0.74094 0.53727 0.23972
 C1432 C 0.74047 0.50884 0.21162
 C1433 C 0.71261 0.50946 0.24070
 C1434 C 0.76018 0.46319 0.25837
 C1435 C 0.78650 0.49022 0.25908
 C1436 C 0.75966 0.49009 0.28614
 H1437 H 0.77650 0.50601 0.24322
 H1438 H 0.74406 0.50561 0.27621
 H1439 H 0.73303 0.51671 0.23243
 H1440 H 0.74432 0.47325 0.24295
 H1441 H 0.76087 0.47559 0.22130
 H1442 H 0.74046 0.47462 0.22187
 H1443 H 0.75774 0.51961 0.28237
 H1444 H 0.73139 0.53364 0.26957
 H1445 H 0.78326 0.48150 0.22876
 H1446 H 0.76975 0.51879 0.21518
 H1447 H 0.72993 0.49218 0.28168
 H1448 H 0.71870 0.50573 0.26964
 H1449 H 0.76956 0.53168 0.24319
 H1450 H 0.78162 0.52068 0.25652
 H1451 H 0.71784 0.48045 0.24362
 H1452 H 0.73074 0.46678 0.25659
 O1453 O 0.50075 0.21743 0.73428
 O1454 O 0.48020 0.22130 0.73567
 O1455 O 0.51549 0.24913 0.71777
 O1456 O 0.51624 0.26899 0.72144
 O1457 O 0.53198 0.23377 0.74996
 O1458 O 0.52787 0.23545 0.77058
 O1459 O 0.48404 0.28118 0.75038
 O1460 O 0.48657 0.27775 0.72975
 O1461 O 0.46834 0.25055 0.76554
 O1462 O 0.47180 0.22958 0.76546
 O1463 O 0.49867 0.26543 0.78177
 O1464 O 0.52018 0.26497 0.77793
 O1465 O 0.49835 0.28133 0.76518
 O1466 O 0.52086 0.27687 0.76407
 O1467 O 0.48442 0.25069 0.78186
 O1468 O 0.48663 0.22774 0.77640
 O1469 O 0.46853 0.26525 0.75111
 O1470 O 0.47253 0.26117 0.72907
 O1471 O 0.51489 0.21734 0.74929
 O1472 O 0.51213 0.22218 0.77126
 O1473 O 0.53229 0.24844 0.73544
 O1474 O 0.52738 0.27048 0.73711
 O1475 O 0.50126 0.23435 0.71764
 O1476 O 0.47947 0.23706 0.72225
 Zr1477 Zr 0.49355 0.23498 0.73515
 O1478 O 0.48191 0.24546 0.74597
 Zr1479 Zr 0.51487 0.25610 0.73557
 O1480 O 0.50387 0.26774 0.74589
 Zr1481 Zr 0.51440 0.23485 0.75695
 O1482 O 0.50384 0.24579 0.76849
 Zr1483 Zr 0.48560 0.26381 0.74292
 O1484 O 0.49658 0.25338 0.73117
 Zr1485 Zr 0.48558 0.24276 0.76449
 O1486 O 0.49613 0.23100 0.75371
 Zr1487 Zr 0.50659 0.26416 0.76444
 O1488 O 0.51847 0.25325 0.75411
 O1489 O 0.51173 0.23788 0.73850
 O1490 O 0.48837 0.26111 0.76146
 C1491 C 0.50897 0.21219 0.74063
 C1492 C 0.50958 0.24062 0.71248
 C1493 C 0.53732 0.23993 0.74161
 C1494 C 0.48974 0.28631 0.75915
 C1495 C 0.46340 0.25934 0.75975
 C1496 C 0.49011 0.25948 0.78690
 H1497 H 0.47344 0.24352 0.74395
 H1498 H 0.50575 0.24391 0.77706
 H1499 H 0.51693 0.23274 0.73333
 H1500 H 0.50567 0.27624 0.74377
 H1501 H 0.48921 0.27390 0.72206
 H1502 H 0.50963 0.27483 0.72270
 H1503 H 0.49202 0.22996 0.78321
 H1504 H 0.51844 0.21587 0.77052
 H1505 H 0.46679 0.26803 0.72942
 H1506 H 0.48029 0.23069 0.71595
 H1507 H 0.51990 0.25731 0.78255
 H1508 H 0.53118 0.24376 0.77054
 H1509 H 0.48034 0.21785 0.74398
 H1510 H 0.46823 0.22889 0.75725
 H1511 H 0.53217 0.26896 0.74455
 H1512 H 0.51919 0.28271 0.75746
 O1513 O 0.24924 0.71749 0.51622
 O1514 O 0.26980 0.72137 0.51471
 O1515 O 0.23467 0.74924 0.53287
 O1516 O 0.23410 0.76912 0.52925
 O1517 O 0.21795 0.73400 0.50088
 O1518 O 0.22216 0.73627 0.47992
 O1519 O 0.26604 0.78127 0.50018
 O1520 O 0.26351 0.77783 0.52084
 O1521 O 0.28171 0.75066 0.48504
 O1522 O 0.27728 0.72863 0.48628
 O1523 O 0.25146 0.76540 0.46882
 O1524 O 0.22993 0.76488 0.47262
 O1525 O 0.25171 0.78138 0.48538
 O1526 O 0.22928 0.77695 0.48638
 O1527 O 0.26585 0.75082 0.46880
 O1528 O 0.26362 0.72987 0.47197
 O1529 O 0.28156 0.76535 0.49949
 O1530 O 0.27754 0.76128 0.52152
 O1531 O 0.23506 0.71746 0.50126
 O1532 O 0.23660 0.72216 0.47940
 O1533 O 0.21776 0.74870 0.51536
 O1534 O 0.22273 0.77062 0.51362
 O1535 O 0.24882 0.73438 0.53289
 O1536 O 0.27054 0.73701 0.52826
 Zr1537 Zr 0.25645 0.73504 0.51534
 O1538 O 0.26814 0.74557 0.50460
 Zr1539 Zr 0.23523 0.75624 0.51509
 O1540 O 0.24622 0.76783 0.50469
 Zr1541 Zr 0.23547 0.73501 0.49369
 O1542 O 0.24621 0.74579 0.48219
 Zr1543 Zr 0.26448 0.76391 0.50767
 O1544 O 0.25352 0.75343 0.51940
 Zr1545 Zr 0.26447 0.74283 0.48609
 O1546 O 0.25375 0.73106 0.49676
 Zr1547 Zr 0.24349 0.76419 0.48614
 O1548 O 0.23154 0.75342 0.49657
 O1549 O 0.23825 0.73800 0.51212
 O1550 O 0.26171 0.76117 0.48913
 C1551 C 0.24100 0.71228 0.50988
 C1552 C 0.24057 0.74069 0.53811
 C1553 C 0.21267 0.74019 0.50922
 C1554 C 0.26032 0.78639 0.49141
 C1555 C 0.28668 0.75944 0.49085
 C1556 C 0.26010 0.75955 0.46373
 H1557 H 0.27659 0.74365 0.50668
 H1558 H 0.24440 0.74382 0.47361
 H1559 H 0.23307 0.73285 0.51730
 H1560 H 0.24443 0.77634 0.50677
 H1561 H 0.26086 0.77398 0.52852
 H1562 H 0.24046 0.77517 0.52770
 H1563 H 0.25855 0.72316 0.47504
 H1564 H 0.23003 0.71614 0.48041
 H1565 H 0.28328 0.76814 0.52118
 H1566 H 0.26974 0.73057 0.53449
 H1567 H 0.23025 0.75720 0.46803
 H1568 H 0.21841 0.74436 0.48066
 H1569 H 0.26963 0.71795 0.50639
 H1570 H 0.28262 0.72983 0.49338
 H1571 H 0.21801 0.76918 0.50612
 H1572 H 0.23082 0.78268 0.49312
 O1573 O 0.23327 0.24905 1.03209
 O1574 O 0.23481 0.26966 1.02821
 O1575 O 0.21705 0.23438 1.00005
 O1576 O 0.22082 0.23365 0.98010
 O1577 O 0.24865 0.21759 1.01574
 O1578 O 0.26910 0.22155 1.01424
 O1579 O 0.24983 0.26574 0.96806
 O1580 O 0.22936 0.26338 0.97136
 O1581 O 0.26474 0.28134 0.99903
 O1582 O 0.26447 0.27785 1.02013
 O1583 O 0.28066 0.25082 0.98415
 O1584 O 0.27669 0.22926 0.98457
 O1585 O 0.26436 0.25125 0.96802
 O1586 O 0.26305 0.22868 0.97250
 O1587 O 0.28075 0.26508 0.99900
 O1588 O 0.27514 0.26287 1.02206
 O1589 O 0.25058 0.28129 0.98410
 O1590 O 0.22870 0.27746 0.98804
 O1591 O 0.24801 0.23475 1.03230
 O1592 O 0.26982 0.23733 1.02759
 O1593 O 0.23440 0.21740 1.00086
 O1594 O 0.23625 0.22236 0.97870
 O1595 O 0.21691 0.24865 1.01494
 O1596 O 0.22167 0.27049 1.01223
 Zr1597 Zr 0.23431 0.25627 1.01443
 O1598 O 0.24520 0.26788 1.00398
 Zr1599 Zr 0.23472 0.23489 0.99317
 O1600 O 0.24512 0.24587 0.98155
 Zr1601 Zr 0.25572 0.23518 1.01473
 O1602 O 0.26732 0.24570 1.00381
 Zr1603 Zr 0.24230 0.26422 0.98549
 O1604 O 0.23050 0.25328 0.99589
 Zr1605 Zr 0.26349 0.26404 1.00685
 O1606 O 0.25263 0.25353 1.01859
 Zr1607 Zr 0.26344 0.24298 0.98529
 O1608 O 0.25303 0.23113 0.99619
 O1609 O 0.23750 0.23800 1.01154
 O1610 O 0.26062 0.26129 0.98836
 C1611 C 0.23945 0.24076 1.03741
 C1612 C 0.21179 0.24034 1.00859
 C1613 C 0.24041 0.21230 1.00947
 C1614 C 0.25850 0.25994 0.96295
 C1615 C 0.25913 0.28636 0.99013
 C1616 C 0.28576 0.25935 0.99017
 H1617 H 0.24326 0.27639 1.00593
 H1618 H 0.27578 0.24371 1.00577
 H1619 H 0.23231 0.23282 1.01667
 H1620 H 0.24308 0.24408 0.97298
 H1621 H 0.22170 0.26078 0.97518
 H1622 H 0.22217 0.24029 0.97424
 H1623 H 0.28187 0.25743 1.01986
 H1624 H 0.26898 0.23101 1.03394
 H1625 H 0.22915 0.28322 0.98114
 H1626 H 0.21536 0.26971 1.01858
 H1627 H 0.28122 0.22950 0.99232
 H1628 H 0.26913 0.21826 1.00586
 H1629 H 0.24301 0.26946 1.03173
 H1630 H 0.25636 0.28150 1.02076
 H1631 H 0.24356 0.21748 0.98028
 H1632 H 0.25656 0.23040 0.96658
 C1633 C 0.30299 0.37189 0.78793
 C1634 C 0.29079 0.37471 0.78935
 C1635 C 0.28311 0.36655 0.79523
 C1636 C 0.28763 0.35563 0.79974
 C1637 C 0.29991 0.35273 0.79841
 C1638 C 0.30753 0.36098 0.79241
 C1639 C 0.28622 0.38607 0.78495
 C1640 C 0.28250 0.39566 0.78134
 C1641 C 0.27827 0.40696 0.77721
 C1642 C 0.27475 0.41669 0.77377
 C1643 C 0.27069 0.42839 0.76977
 C1644 C 0.26107 0.43406 0.77568
 C1645 C 0.25736 0.44559 0.77207
 C1646 C 0.26325 0.45163 0.76247
 C1647 C 0.27285 0.44578 0.75651
 C1648 C 0.27653 0.43425 0.76015
 H1649 H 0.30903 0.37816 0.78343
 H1650 H 0.27364 0.36864 0.79637
 H1651 H 0.28150 0.34942 0.80417
 H1652 H 0.31704 0.35912 0.79139
 H1653 H 0.25650 0.42962 0.78316
 H1654 H 0.24996 0.44982 0.77689
 H1655 H 0.27761 0.45015 0.74912
 H1656 H 0.28401 0.42994 0.75553
 C1657 C 0.28458 -0.13218 0.29942
 C1658 C 0.29040 -0.12621 0.28990
 C1659 C 0.30077 -0.13123 0.28479
 C1660 C 0.30538 -0.14212 0.28923
 C1661 C 0.29973 -0.14828 0.29898
 C1662 C 0.28915 -0.14308 0.30392
 C1663 C 0.28587 -0.11482 0.28552
 C1664 C 0.28218 -0.10522 0.28193
 C1665 C 0.27797 -0.09390 0.27783
 C1666 C 0.27448 -0.08416 0.27440
 C1667 C 0.27043 -0.07245 0.27043
 C1668 C 0.27629 -0.06657 0.26084
 C1669 C 0.27260 -0.05504 0.25720
 C1670 C 0.26297 -0.04922 0.26313
 C1671 C 0.25707 -0.05527 0.27271
 C1672 C 0.26078 -0.06680 0.27632
 H1673 H 0.27651 -0.12838 0.30344
 H1674 H 0.30536 -0.12666 0.27740
 H1675 H 0.31349 -0.14545 0.28499
 H1676 H 0.28421 -0.14728 0.31124
 H1677 H 0.28379 -0.07086 0.25623
 H1678 H 0.27738 -0.05066 0.24983
 H1679 H 0.24964 -0.05106 0.27750
 H1680 H 0.25619 -0.07126 0.28377
 C1681 C 0.79935 0.86786 0.78261
 C1682 C 0.78993 0.87370 0.78862
 C1683 C 0.78489 0.86847 0.79900
 C1684 C 0.78930 0.85749 0.80344
 C1685 C 0.79895 0.85146 0.79760
 C1686 C 0.80381 0.85688 0.78700
 C1687 C 0.78558 0.88518 0.78429
 C1688 C 0.78203 0.89486 0.78076
 C1689 C 0.77795 0.90626 0.77675
 C1690 C 0.77455 0.91607 0.77343
 C1691 C 0.77058 0.92785 0.76959
 C1692 C 0.76100 0.93353 0.77557
 C1693 C 0.75736 0.94511 0.77208
 C1694 C 0.76327 0.95121 0.76254
 C1695 C 0.77284 0.94537 0.75652
 C1696 C 0.77646 0.93378 0.76003
 H1697 H 0.80330 0.87183 0.77452
 H1698 H 0.77758 0.87294 0.80374
 H1699 H 0.78513 0.85400 0.81158
 H1700 H 0.81105 0.85278 0.78192
 H1701 H 0.75641 0.92903 0.78300
 H1702 H 0.74998 0.94933 0.77694
 H1703 H 0.77762 0.94978 0.74916
 H1704 H 0.78391 0.92948 0.75536
 C1705 C 0.44789 0.88037 0.28472
 C1706 C 0.45842 0.87539 0.28951
 C1707 C 0.46445 0.88133 0.29892
 C1708 C 0.45992 0.89215 0.30363
 C1709 C 0.44918 0.89732 0.29903
 C1710 C 0.44331 0.89119 0.28938
 C1711 C 0.46292 0.86407 0.28492
 C1712 C 0.46660 0.85452 0.28119
 C1713 C 0.47083 0.84325 0.27693
 C1714 C 0.47436 0.83356 0.27341
 C1715 C 0.47849 0.82190 0.26936
 C1716 C 0.48816 0.81628 0.27523
 C1717 C 0.49194 0.80478 0.27157
 C1718 C 0.48607 0.79874 0.26197
 C1719 C 0.47641 0.80454 0.25606
 C1720 C 0.47266 0.81603 0.25974
 H1721 H 0.44313 0.87582 0.27742
 H1722 H 0.47265 0.87755 0.30269
 H1723 H 0.46502 0.89634 0.31084
 H1724 H 0.43507 0.89449 0.28540
 H1725 H 0.49272 0.82073 0.28271
 H1726 H 0.49937 0.80060 0.27635
 H1727 H 0.47166 0.80016 0.24867
 H1728 H 0.46514 0.82030 0.25515
 C1729 C -0.03559 0.88187 0.79801
 C1730 C -0.04112 0.87648 0.78797
 C1731 C -0.05089 0.88217 0.78241
 C1732 C -0.05522 0.89316 0.78692
 C1733 C -0.04986 0.89875 0.79718
 C1734 C -0.03986 0.89285 0.80256
 C1735 C -0.03687 0.86501 0.78352
 C1736 C -0.03334 0.85534 0.77992
 C1737 C -0.02926 0.84395 0.77586
 C1738 C -0.02583 0.83417 0.77250
 C1739 C -0.02178 0.82241 0.76864
 C1740 C -0.02763 0.81644 0.75910
 C1741 C -0.02392 0.80489 0.75556
 C1742 C -0.01428 0.79913 0.76155
 C1743 C -0.00841 0.80526 0.77109
 C1744 C -0.01214 0.81682 0.77460
 H1745 H -0.02799 0.87752 0.80239
 H1746 H -0.05524 0.87807 0.77460
 H1747 H -0.06278 0.89711 0.78222
 H1748 H -0.03526 0.89650 0.81038
 H1749 H -0.03513 0.82068 0.75444
 H1750 H -0.02867 0.80043 0.74822
 H1751 H -0.00098 0.80111 0.77592
 H1752 H -0.00757 0.82135 0.78202
 C1753 C -0.04965 -0.13179 -0.03589
 C1754 C -0.03756 -0.12873 -0.03775
 C1755 C -0.02995 -0.13675 -0.04391
 C1756 C -0.03443 -0.14774 -0.04828
 C1757 C -0.04661 -0.15086 -0.04654
 C1758 C -0.05415 -0.14277 -0.04024
 C1759 C -0.03307 -0.11725 -0.03358
 C1760 C -0.02947 -0.10754 -0.03018
 C1761 C -0.02544 -0.09606 -0.02631
 C1762 C -0.02216 -0.08617 -0.02311
 C1763 C -0.01845 -0.07426 -0.01940
 C1764 C -0.00906 -0.06839 -0.02551
 C1765 C -0.00578 -0.05663 -0.02224
 C1766 C -0.01187 -0.05056 -0.01280
 C1767 C -0.02121 -0.05662 -0.00662
 C1768 C -0.02446 -0.06838 -0.00991
 H1769 H -0.05564 -0.12563 -0.03119
 H1770 H -0.02057 -0.13447 -0.04539
 H1771 H -0.02836 -0.15382 -0.05295
 H1772 H -0.06359 -0.14480 -0.03890
 H1773 H -0.00436 -0.07286 -0.03289
 H1774 H 0.00143 -0.05225 -0.02720
 H1775 H -0.02610 -0.05224 0.00067
 H1776 H -0.03177 -0.07284 -0.00514
 C1777 C -0.03477 0.36769 0.45182
 C1778 C -0.04093 0.37363 0.46114
 C1779 C -0.05134 0.36848 0.46602
 C1780 C -0.05568 0.35747 0.46154
 C1781 C -0.04967 0.35134 0.45198
 C1782 C -0.03904 0.35669 0.44729
 C1783 C -0.03666 0.38512 0.46555
 C1784 C -0.03313 0.39480 0.46911
 C1785 C -0.02904 0.40619 0.47316
 C1786 C -0.02560 0.41598 0.47650
 C1787 C -0.02156 0.42774 0.48037
 C1788 C -0.02726 0.43358 0.49008
 C1789 C -0.02353 0.44513 0.49365
 C1790 C -0.01403 0.45099 0.48754
 C1791 C -0.00831 0.44499 0.47783
 C1792 C -0.01206 0.43344 0.47428
 H1793 H -0.02665 0.37160 0.44800
 H1794 H -0.05620 0.37302 0.47324
 H1795 H -0.06386 0.35404 0.46555
 H1796 H -0.03384 0.35250 0.44016
 H1797 H -0.03464 0.42925 0.49484
 H1798 H -0.02816 0.44948 0.50114
 H1799 H -0.00100 0.44923 0.47289
 H1800 H -0.00760 0.42901 0.46673
 C1801 C 0.46502 -0.13130 0.45060
 C1802 C 0.45909 -0.12535 0.46006
 C1803 C 0.44861 -0.13033 0.46497
 C1804 C 0.44398 -0.14117 0.46040
 C1805 C 0.44975 -0.14732 0.45070
 C1806 C 0.46045 -0.14214 0.44597
 C1807 C 0.46363 -0.11401 0.46457
 C1808 C 0.46734 -0.10444 0.46825
 C1809 C 0.47159 -0.09316 0.47245
 C1810 C 0.47512 -0.08345 0.47593
 C1811 C 0.47922 -0.07177 0.47997
 C1812 C 0.47340 -0.06594 0.48961
 C1813 C 0.47712 -0.05442 0.49328
 C1814 C 0.48673 -0.04857 0.48733
 C1815 C 0.49259 -0.05458 0.47771
 C1816 C 0.48885 -0.06609 0.47406
 H1817 H 0.47318 -0.12753 0.44674
 H1818 H 0.44392 -0.12577 0.47231
 H1819 H 0.43578 -0.14448 0.46447
 H1820 H 0.46547 -0.14635 0.43871
 H1821 H 0.46591 -0.07024 0.49422
 H1822 H 0.47238 -0.05007 0.50069
 H1823 H 0.50000 -0.05035 0.47290
 H1824 H 0.49340 -0.07052 0.46656
 C1825 C 0.46377 0.36880 -0.04930
 C1826 C 0.45876 0.37384 -0.03882
 C1827 C 0.44930 0.36794 -0.03293
 C1828 C 0.44476 0.35707 -0.03755
 C1829 C 0.44959 0.35183 -0.04826
 C1830 C 0.45929 0.35794 -0.05397
 C1831 C 0.46319 0.38520 -0.03426
 C1832 C 0.46684 0.39479 -0.03056
 C1833 C 0.47104 0.40609 -0.02637
 C1834 C 0.47456 0.41582 -0.02293
 C1835 C 0.47869 0.42751 -0.01896
 C1836 C 0.47284 0.43345 -0.00940
 C1837 C 0.47660 0.44497 -0.00580
 C1838 C 0.48628 0.45073 -0.01173
 C1839 C 0.49216 0.44462 -0.02128
 C1840 C 0.48838 0.43309 -0.02486
 H1841 H 0.47112 0.37332 -0.05395
 H1842 H 0.44536 0.37177 -0.02477
 H1843 H 0.43749 0.35291 -0.03256
 H1844 H 0.46345 0.35458 -0.06217
 H1845 H 0.46530 0.42922 -0.00479
 H1846 H 0.47184 0.44941 0.00155
 H1847 H 0.49961 0.44876 -0.02608
 H1848 H 0.49295 0.42859 -0.03229
 C1849 C 0.78158 0.38653 0.45596
 C1850 C 0.78918 0.37841 0.46197
 C1851 C 0.80136 0.38125 0.46354
 C1852 C 0.80595 0.39214 0.45905
 C1853 C 0.79841 0.40035 0.45290
 C1854 C 0.78615 0.39743 0.45145
 C1855 C 0.78458 0.36702 0.46631
 C1856 C 0.78088 0.35740 0.46984
 C1857 C 0.77673 0.34602 0.47387
 C1858 C 0.77334 0.33621 0.47720
 C1859 C 0.76947 0.32439 0.48102
 C1860 C 0.77545 0.31849 0.49052
 C1861 C 0.77206 0.30679 0.49390
 C1862 C 0.76262 0.30081 0.48780
 C1863 C 0.75656 0.30690 0.47837
 C1864 C 0.75997 0.31860 0.47501
 H1865 H 0.77212 0.38442 0.45470
 H1866 H 0.80734 0.37500 0.46813
 H1867 H 0.81546 0.39401 0.46017
 H1868 H 0.78008 0.40360 0.44690
 H1869 H 0.78284 0.32287 0.49522
 H1870 H 0.77694 0.30238 0.50119
 H1871 H 0.74927 0.30259 0.47346
 H1872 H 0.75530 0.32308 0.46762
 C1873 C 0.78384 0.88395 -0.04675
 C1874 C 0.78985 0.87810 -0.03728
 C1875 C 0.80026 0.88324 -0.03238
 C1876 C 0.80475 0.89412 -0.03700
 C1877 C 0.79892 0.90014 -0.04674
 C1878 C 0.78827 0.89483 -0.05142
 C1879 C 0.78550 0.86667 -0.03281
 C1880 C 0.78195 0.85700 -0.02922
 C1881 C 0.77790 0.84558 -0.02521
 C1882 C 0.77453 0.83574 -0.02195
 C1883 C 0.77064 0.82387 -0.01828
 C1884 C 0.77648 0.81789 -0.00874
 C1885 C 0.77305 0.80615 -0.00553
 C1886 C 0.76371 0.80022 -0.01184
 C1887 C 0.75779 0.80640 -0.02131
 C1888 C 0.76124 0.81814 -0.02450
 H1889 H 0.77573 0.88006 -0.05060
 H1890 H 0.80501 0.87876 -0.02504
 H1891 H 0.81292 0.89754 -0.03296
 H1892 H 0.78319 0.89895 -0.05868
 H1893 H 0.78378 0.82224 -0.00388
 H1894 H 0.77782 0.80168 0.00179
 H1895 H 0.75058 0.80213 -0.02637
 H1896 H 0.75668 0.82268 -0.03191
 C1897 C 0.80161 0.28804 0.36927
 C1898 C 0.78938 0.28957 0.37191
 C1899 C 0.78190 0.29548 0.36356
 C1900 C 0.78665 0.29992 0.35265
 C1901 C 0.79896 0.29850 0.34994
 C1902 C 0.80638 0.29246 0.35837
 C1903 C 0.78460 0.28528 0.38329
 C1904 C 0.78077 0.28177 0.39293
 C1905 C 0.77648 0.27775 0.40432
 C1906 C 0.77299 0.27441 0.41415
 C1907 C 0.76904 0.27054 0.42600
 C1908 C 0.75970 0.27667 0.43192
 C1909 C 0.75623 0.27326 0.44366
 C1910 C 0.76209 0.26368 0.44967
 C1911 C 0.77136 0.25747 0.44355
 C1912 C 0.77481 0.26089 0.43181
 H1913 H 0.80750 0.28354 0.37569
 H1914 H 0.77241 0.29670 0.36551
 H1915 H 0.78067 0.30438 0.34631
 H1916 H 0.81591 0.29137 0.35666
 H1917 H 0.75519 0.28417 0.42752
 H1918 H 0.74908 0.27826 0.44809
 H1919 H 0.77608 0.25006 0.44788
 H1920 H 0.78207 0.25611 0.42732
 C1921 C 0.78443 0.79973 -0.13353
 C1922 C 0.78943 0.78932 -0.12845
 C1923 C 0.79887 0.78345 -0.13439
 C1924 C 0.80341 0.78803 -0.14533
 C1925 C 0.79861 0.79868 -0.15060
 C1926 C 0.78891 0.80436 -0.14447
 C1927 C 0.78506 0.78483 -0.11697
 C1928 C 0.78149 0.78121 -0.10727
 C1929 C 0.77744 0.77712 -0.09582
 C1930 C 0.77409 0.77377 -0.08594
 C1931 C 0.77024 0.76993 -0.07405
 C1932 C 0.77604 0.76030 -0.06824
 C1933 C 0.77263 0.75688 -0.05649
 C1934 C 0.76336 0.76308 -0.05036
 C1935 C 0.75748 0.77266 -0.05635
 C1936 C 0.76091 0.77605 -0.06811
 H1937 H 0.77710 0.80436 -0.12898
 H1938 H 0.80280 0.77534 -0.13054
 H1939 H 0.81067 0.78306 -0.14952
 H1940 H 0.78477 0.81251 -0.14784
 H1941 H 0.78329 0.75551 -0.07275
 H1942 H 0.77737 0.74948 -0.05216
 H1943 H 0.75033 0.77765 -0.05192
 H1944 H 0.75638 0.78354 -0.07251
 C1945 C 0.28403 0.45326 0.88375
 C1946 C 0.29168 0.45920 0.87557
 C1947 C 0.30387 0.46066 0.87843
 C1948 C 0.30843 0.45617 0.88938
 C1949 C 0.30085 0.45012 0.89765
 C1950 C 0.28858 0.44875 0.89471
 C1951 C 0.28707 0.46363 0.86418
 C1952 C 0.28331 0.46729 0.85457
 C1953 C 0.27903 0.47150 0.84325
 C1954 C 0.27548 0.47504 0.83352
 C1955 C 0.27135 0.47918 0.82183
 C1956 C 0.27728 0.48871 0.81597
 C1957 C 0.27349 0.49254 0.80448
 C1958 C 0.26369 0.48688 0.79866
 C1959 C 0.25773 0.47736 0.80468
 C1960 C 0.26155 0.47355 0.81618
 H1961 H 0.27457 0.45210 0.88164
 H1962 H 0.30988 0.46520 0.87214
 H1963 H 0.31794 0.45722 0.89126
 H1964 H 0.28247 0.44428 0.90094
 H1965 H 0.28490 0.49312 0.82026
 H1966 H 0.27831 0.49987 0.80011
 H1967 H 0.25018 0.47277 0.80047
 H1968 H 0.25690 0.46614 0.82062
 C1969 C 0.28493 -0.05058 0.38268
 C1970 C 0.29042 -0.04077 0.37692
 C1971 C 0.30055 -0.03540 0.38216
 C1972 C 0.30526 -0.03986 0.39306
 C1973 C 0.29994 -0.04990 0.39902
 C1974 C 0.28959 -0.05509 0.39359
 C1975 C 0.28579 -0.03635 0.36552
 C1976 C 0.28201 -0.03273 0.35591
 C1977 C 0.27771 -0.02858 0.34457
 C1978 C 0.27414 -0.02510 0.33482
 C1979 C 0.27003 -0.02103 0.32309
 C1980 C 0.27571 -0.01127 0.31737
 C1981 C 0.27200 -0.00755 0.30581
 C1982 C 0.26252 -0.01356 0.29979
 C1983 C 0.25679 -0.02330 0.30569
 C1984 C 0.26054 -0.02700 0.31725
 H1985 H 0.27705 -0.05480 0.37870
 H1986 H 0.30488 -0.02778 0.37776
 H1987 H 0.31314 -0.03537 0.39660
 H1988 H 0.28494 -0.06268 0.39758
 H1989 H 0.28310 -0.00661 0.32180
 H1990 H 0.27664 -0.00005 0.30155
 H1991 H 0.24950 -0.02815 0.30133
 H1992 H 0.25609 -0.03458 0.32159
 C1993 C -0.03368 -0.04981 -0.13408
 C1994 C -0.03837 -0.03925 -0.12901
 C1995 C -0.04770 -0.03316 -0.13491
 C1996 C -0.05244 -0.03767 -0.14579
 C1997 C -0.04796 -0.04848 -0.15103
 C1998 C -0.03837 -0.05438 -0.14496
 C1999 C -0.03383 -0.03483 -0.11757
 C2000 C -0.03017 -0.03125 -0.10790
 C2001 C -0.02603 -0.02719 -0.09647
 C2002 C -0.02263 -0.02384 -0.08661
 C2003 C -0.01874 -0.02001 -0.07472
 C2004 C -0.02460 -0.01045 -0.06885
 C2005 C -0.02119 -0.00706 -0.05709
 C2006 C -0.01185 -0.01321 -0.05102
 C2007 C -0.00591 -0.02271 -0.05709
 C2008 C -0.00935 -0.02608 -0.06885
 H2009 H -0.02645 -0.05462 -0.12956
 H2010 H -0.05139 -0.02494 -0.13107
 H2011 H -0.05958 -0.03253 -0.14996
 H2012 H -0.03448 -0.06266 -0.14832
 H2013 H -0.03191 -0.00571 -0.07331
 H2014 H -0.02597 0.00028 -0.05272
 H2015 H 0.00131 -0.02766 -0.05270
 H2016 H -0.00477 -0.03351 -0.07330
 C2017 C -0.05200 0.46388 0.36917
 C2018 C -0.04154 0.45902 0.37424
 C2019 C -0.03550 0.44970 0.36823
 C2020 C -0.03994 0.44517 0.35723
 C2021 C -0.05061 0.44986 0.35196
 C2022 C -0.05649 0.45940 0.35818
 C2023 C -0.03711 0.46347 0.38570
 C2024 C -0.03347 0.46712 0.39537
 C2025 C -0.02931 0.47130 0.40674
 C2026 C -0.02582 0.47479 0.41652
 C2027 C -0.02174 0.47885 0.42826
 C2028 C -0.01202 0.47311 0.43394
 C2029 C -0.00823 0.47684 0.44548
 C2030 C -0.01413 0.48639 0.45151
 C2031 C -0.02385 0.49215 0.44566
 C2032 C -0.02761 0.48840 0.43413
 H2033 H -0.05676 0.47111 0.37377
 H2034 H -0.02736 0.44589 0.37206
 H2035 H -0.03484 0.43803 0.35299
 H2036 H -0.06468 0.46342 0.35481
 H2037 H -0.00742 0.46568 0.42949
 H2038 H -0.00075 0.47217 0.44970
 H2039 H -0.02862 0.49950 0.45003
 H2040 H -0.03516 0.49289 0.42982
 C2041 C 0.46025 -0.05381 0.37148
 C2042 C 0.45872 -0.04159 0.37439
 C2043 C 0.45269 -0.03394 0.36628
 C2044 C 0.44815 -0.03851 0.35533
 C2045 C 0.44958 -0.05080 0.35235
 C2046 C 0.45572 -0.05839 0.36055
 C2047 C 0.46317 -0.03696 0.38577
 C2048 C 0.46683 -0.03318 0.39537
 C2049 C 0.47103 -0.02885 0.40668
 C2050 C 0.47456 -0.02524 0.41640
 C2051 C 0.47869 -0.02105 0.42808
 C2052 C 0.47273 -0.01155 0.43394
 C2053 C 0.47653 -0.00769 0.44543
 C2054 C 0.48636 -0.01330 0.45123
 C2055 C 0.49234 -0.02280 0.44521
 C2056 C 0.48852 -0.02664 0.43372
 H2057 H 0.46485 -0.05982 0.37772
 H2058 H 0.45148 -0.02446 0.36843
 H2059 H 0.44361 -0.03240 0.34917
 H2060 H 0.45683 -0.06792 0.35862
 H2061 H 0.46509 -0.00718 0.42966
 H2062 H 0.47169 -0.00038 0.44980
 H2063 H 0.49991 -0.02736 0.44940
 H2064 H 0.49317 -0.03403 0.42927
 C2065 C 0.44854 0.46357 -0.13061
 C2066 C 0.45889 0.45845 -0.12556
 C2067 C 0.46462 0.44892 -0.13154
 C2068 C 0.46000 0.44445 -0.14249
 C2069 C 0.44945 0.44941 -0.14774
 C2070 C 0.44387 0.45915 -0.14155
 C2071 C 0.46348 0.46285 -0.11414
 C2072 C 0.46722 0.46649 -0.10451
 C2073 C 0.47147 0.47069 -0.09317
 C2074 C 0.47499 0.47422 -0.08342
 C2075 C 0.47907 0.47836 -0.07171
 C2076 C 0.48870 0.47259 -0.06592
 C2077 C 0.49245 0.47639 -0.05439
 C2078 C 0.48660 0.48604 -0.04848
 C2079 C 0.47698 0.49185 -0.05444
 C2080 C 0.47325 0.48802 -0.06597
 H2081 H 0.44401 0.47096 -0.12603
 H2082 H 0.47267 0.44490 -0.12771
 H2083 H 0.46487 0.43713 -0.14670
 H2084 H 0.43579 0.46341 -0.14491
 H2085 H 0.49325 0.46508 -0.07027
 H2086 H 0.49986 0.47169 -0.05007
 H2087 H 0.47224 0.49928 -0.05017
 H2088 H 0.46576 0.49254 -0.07036
 C2089 C 0.46019 0.80364 0.37831
 C2090 C 0.45867 0.79141 0.37546
 C2091 C 0.45271 0.78377 0.38363
 C2092 C 0.44823 0.78836 0.39459
 C2093 C 0.44966 0.80066 0.39753
 C2094 C 0.45573 0.80825 0.38926
 C2095 C 0.46308 0.78676 0.36406
 C2096 C 0.46672 0.78297 0.35446
 C2097 C 0.47091 0.77866 0.34314
 C2098 C 0.47442 0.77508 0.33340
 C2099 C 0.47854 0.77093 0.32170
 C2100 C 0.47268 0.76132 0.31590
 C2101 C 0.47645 0.75751 0.30438
 C2102 C 0.48615 0.76329 0.29849
 C2103 C 0.49203 0.77288 0.30447
 C2104 C 0.48824 0.77667 0.31599
 H2105 H 0.46475 0.80965 0.37202
 H2106 H 0.45150 0.77428 0.38153
 H2107 H 0.44375 0.78225 0.40081
 H2108 H 0.45683 0.81778 0.39114
 H2109 H 0.46514 0.75683 0.32024
 H2110 H 0.47169 0.75013 0.30005
 H2111 H 0.49950 0.77756 0.30021
 H2112 H 0.49282 0.78413 0.32039
 C2113 C -0.04860 0.78312 0.88302
 C2114 C -0.03944 0.78929 0.87693
 C2115 C -0.03438 0.79961 0.88215
 C2116 C -0.03852 0.80384 0.89338
 C2117 C -0.04790 0.79782 0.89969
 C2118 C -0.05279 0.78729 0.89425
 C2119 C -0.03534 0.78513 0.86522
 C2120 C -0.03197 0.78173 0.85537
 C2121 C -0.02810 0.77784 0.84379
 C2122 C -0.02486 0.77457 0.83385
 C2123 C -0.02106 0.77075 0.82194
 C2124 C -0.01153 0.77667 0.81610
 C2125 C -0.00796 0.77310 0.80444
 C2126 C -0.01389 0.76355 0.79844
 C2127 C -0.02344 0.75763 0.80443
 C2128 C -0.02698 0.76122 0.81609
 H2129 H -0.05256 0.77507 0.87906
 H2130 H -0.02727 0.80448 0.87749
 H2131 H -0.03436 0.81194 0.89686
 H2132 H -0.05983 0.78209 0.89855
 H2133 H -0.00689 0.78408 0.82054
 H2134 H -0.00060 0.77788 0.80011
 H2135 H -0.02824 0.75027 0.80009
 H2136 H -0.03439 0.75659 0.82052
 C2137 C 0.37140 0.80286 0.28781
 C2138 C 0.37429 0.79064 0.28931
 C2139 C 0.36621 0.78292 0.29524
 C2140 C 0.35531 0.78741 0.29973
 C2141 C 0.35234 0.79971 0.29835
 C2142 C 0.36050 0.80737 0.29229
 C2143 C 0.38564 0.78610 0.28495
 C2144 C 0.39522 0.78239 0.28137
 C2145 C 0.40651 0.77816 0.27728
 C2146 C 0.41621 0.77465 0.27386
 C2147 C 0.42787 0.77058 0.26987
 C2148 C 0.43350 0.76087 0.27573
 C2149 C 0.44497 0.75713 0.27208
 C2150 C 0.45099 0.76306 0.26250
 C2151 C 0.44519 0.77276 0.25662
 C2152 C 0.43372 0.77648 0.26029
 H2153 H 0.37761 0.80893 0.28328
 H2154 H 0.36835 0.77344 0.29643
 H2155 H 0.34917 0.78125 0.30420
 H2156 H 0.35859 0.81690 0.29122
 H2157 H 0.42906 0.75626 0.28318
 H2158 H 0.44916 0.74966 0.27684
 H2159 H 0.44955 0.77756 0.24924
 H2160 H 0.42946 0.78402 0.25571
 C2161 C -0.12917 0.80275 0.78726
 C2162 C -0.12630 0.79052 0.78867
 C2163 C -0.13447 0.78273 0.79437
 C2164 C -0.14545 0.78717 0.79872
 C2165 C -0.14841 0.79947 0.79741
 C2166 C -0.14015 0.80720 0.79159
 C2167 C -0.11488 0.78602 0.78442
 C2168 C -0.10525 0.78236 0.78094
 C2169 C -0.09391 0.77818 0.77693
 C2170 C -0.08417 0.77472 0.77357
 C2171 C -0.07247 0.77071 0.76964
 C2172 C -0.06680 0.76106 0.77554
 C2173 C -0.05530 0.75737 0.77193
 C2174 C -0.04930 0.76330 0.76234
 C2175 C -0.05513 0.77294 0.75641
 C2176 C -0.06663 0.77661 0.76004
 H2177 H -0.12289 0.80887 0.78290
 H2178 H -0.13235 0.77323 0.79550
 H2179 H -0.15167 0.78095 0.80302
 H2180 H -0.14205 0.81674 0.79058
 H2181 H -0.07123 0.75645 0.78300
 H2182 H -0.05108 0.74994 0.77672
 H2183 H -0.05078 0.77774 0.74902
 H2184 H -0.07093 0.78411 0.75543
 C2185 C 0.88009 0.28723 0.44891
 C2186 C 0.87718 0.28872 0.46120
 C2187 C 0.88520 0.29474 0.46894
 C2188 C 0.89604 0.29933 0.46439
 C2189 C 0.89902 0.29796 0.45202
 C2190 C 0.89092 0.29180 0.44434
 C2191 C 0.86585 0.28432 0.46578
 C2192 C 0.85626 0.28074 0.46947
 C2193 C 0.84493 0.27668 0.47363
 C2194 C 0.83515 0.27335 0.47704
 C2195 C 0.82336 0.26954 0.48092
 C2196 C 0.81749 0.27566 0.49034
 C2197 C 0.80581 0.27235 0.49374
 C2198 C 0.79981 0.26284 0.48772
 C2199 C 0.80589 0.25662 0.47837
 C2200 C 0.81757 0.25996 0.47500
 H2201 H 0.87392 0.28264 0.44282
 H2202 H 0.88304 0.29593 0.47849
 H2203 H 0.90213 0.30387 0.47057
 H2204 H 0.89284 0.29074 0.43474
 H2205 H 0.82188 0.28311 0.49497
 H2206 H 0.80142 0.27735 0.50096
 H2207 H 0.80157 0.24928 0.47353
 H2208 H 0.82203 0.25517 0.46767
 C2209 C 0.88680 0.77977 -0.04397
 C2210 C 0.87883 0.78741 -0.03779
 C2211 C 0.88189 0.79954 -0.03592
 C2212 C 0.89283 0.80406 -0.04028
 C2213 C 0.90088 0.79649 -0.04660
 C2214 C 0.89776 0.78428 -0.04835
 C2215 C 0.86740 0.78290 -0.03359
 C2216 C 0.85772 0.77930 -0.03017
 C2217 C 0.84629 0.77526 -0.02627
 C2218 C 0.83644 0.77198 -0.02304
 C2219 C 0.82457 0.76827 -0.01932
 C2220 C 0.81883 0.77415 -0.00966
 C2221 C 0.80710 0.77092 -0.00636
 C2222 C 0.80093 0.76174 -0.01271
 C2223 C 0.80687 0.75578 -0.02231
 C2224 C 0.81860 0.75903 -0.02559
 H2225 H 0.88453 0.77036 -0.04546
 H2226 H 0.87576 0.80554 -0.03120
 H2227 H 0.89485 0.81353 -0.03893
 H2228 H 0.90381 0.77819 -0.05303
 H2229 H 0.82336 0.78133 -0.00476
 H2230 H 0.80282 0.77571 0.00106
 H2231 H 0.80241 0.74869 -0.02741
 H2232 H 0.82296 0.75444 -0.03310
 C2233 C -0.13299 -0.04776 -0.03243
 C2234 C -0.12710 -0.03841 -0.03853
 C2235 C -0.13219 -0.03353 -0.04906
 C2236 C -0.14307 -0.03805 -0.05356
 C2237 C -0.14915 -0.04766 -0.04763
 C2238 C -0.14388 -0.05233 -0.03687
 C2239 C -0.11567 -0.03402 -0.03417
 C2240 C -0.10602 -0.03046 -0.03063
 C2241 C -0.09462 -0.02645 -0.02661
 C2242 C -0.08480 -0.02315 -0.02331
 C2243 C -0.07297 -0.01937 -0.01953
 C2244 C -0.06723 -0.00976 -0.02545
 C2245 C -0.05552 -0.00643 -0.02215
 C2246 C -0.04938 -0.01268 -0.01287
 C2247 C -0.05532 -0.02223 -0.00686
 C2248 C -0.06702 -0.02554 -0.01018
 H2249 H -0.12913 -0.05160 -0.02424
 H2250 H -0.12768 -0.02628 -0.05387
 H2251 H -0.14647 -0.03399 -0.06179
 H2252 H -0.14801 -0.05953 -0.03173
 H2253 H -0.07174 -0.00494 -0.03272
 H2254 H -0.05124 0.00095 -0.02698
 H2255 H -0.05088 -0.02726 0.00031
 H2256 H -0.07137 -0.03301 -0.00556
 C2257 C -0.13264 0.46726 0.45149
 C2258 C -0.12680 0.46137 0.46104
 C2259 C -0.13201 0.45111 0.46624
 C2260 C -0.14297 0.44667 0.46186
 C2261 C -0.14901 0.45239 0.45206
 C2262 C -0.14360 0.46287 0.44705
 C2263 C -0.11534 0.46570 0.46535
 C2264 C -0.10567 0.46922 0.46888
 C2265 C -0.09428 0.47323 0.47292
 C2266 C -0.08449 0.47655 0.47628
 C2267 C -0.07273 0.48042 0.48018
 C2268 C -0.06700 0.47455 0.48986
 C2269 C -0.05543 0.47807 0.49344
 C2270 C -0.04942 0.48753 0.48737
 C2271 C -0.05531 0.49342 0.47769
 C2272 C -0.06688 0.48988 0.47414
 H2273 H -0.12868 0.47525 0.44740
 H2274 H -0.12755 0.44646 0.47366
 H2275 H -0.14646 0.43863 0.46616
 H2276 H -0.14770 0.46785 0.43970
 H2277 H -0.07144 0.46720 0.49459
 H2278 H -0.05117 0.47331 0.50090
 H2279 H -0.05096 0.50070 0.47278
 H2280 H -0.07122 0.49446 0.46661
 C2281 C 0.36951 -0.05038 0.46511
 C2282 C 0.37444 -0.03993 0.46002
 C2283 C 0.36844 -0.03409 0.45054
 C2284 C 0.35758 -0.03872 0.44607
 C2285 C 0.35245 -0.04938 0.45099
 C2286 C 0.35866 -0.05506 0.46070
 C2287 C 0.38578 -0.03534 0.46439
 C2288 C 0.39535 -0.03161 0.46798
 C2289 C 0.40663 -0.02736 0.47210
 C2290 C 0.41632 -0.02384 0.47555
 C2291 C 0.42798 -0.01977 0.47956
 C2292 C 0.43375 -0.01024 0.47354
 C2293 C 0.44524 -0.00653 0.47719
 C2294 C 0.45113 -0.01232 0.48693
 C2295 C 0.44519 -0.02183 0.49299
 C2296 C 0.43370 -0.02552 0.48932
 H2297 H 0.37411 -0.05500 0.47247
 H2298 H 0.37218 -0.02596 0.44654
 H2299 H 0.35334 -0.03377 0.43879
 H2300 H 0.35539 -0.06323 0.46492
 H2301 H 0.42942 -0.00575 0.46595
 H2302 H 0.44954 0.00079 0.47229
 H2303 H 0.44945 -0.02651 0.50049
 H2304 H 0.42933 -0.03292 0.49402
 C2305 C 0.36879 0.46504 -0.04937
 C2306 C 0.37473 0.45900 -0.03998
 C2307 C 0.36975 0.44848 -0.03511
 C2308 C 0.35890 0.44391 -0.03966
 C2309 C 0.35276 0.44979 -0.04929
 C2310 C 0.35794 0.46053 -0.05398
 C2311 C 0.38607 0.46349 -0.03549
 C2312 C 0.39563 0.46716 -0.03183
 C2313 C 0.40689 0.47137 -0.02764
 C2314 C 0.41658 0.47487 -0.02416
 C2315 C 0.42822 0.47895 -0.02010
 C2316 C 0.43401 0.47307 -0.01047
 C2317 C 0.44547 0.47679 -0.00675
 C2318 C 0.45131 0.48647 -0.01264
 C2319 C 0.44535 0.49239 -0.02226
 C2320 C 0.43389 0.48864 -0.02595
 H2321 H 0.37256 0.47324 -0.05320
 H2322 H 0.37430 0.44371 -0.02783
 H2323 H 0.35560 0.43567 -0.03563
 H2324 H 0.35373 0.46564 -0.06117
 H2325 H 0.42971 0.46554 -0.00590
 H2326 H 0.44979 0.47201 0.00066
 H2327 H 0.44958 0.49984 -0.02702
 H2328 H 0.42950 0.49324 -0.03344
 C2329 C 0.38319 0.45389 0.78287
 C2330 C 0.37515 0.45985 0.79064
 C2331 C 0.37800 0.46121 0.80296
 C2332 C 0.38880 0.45657 0.80754
 C2333 C 0.39692 0.45050 0.79983
 C2334 C 0.39400 0.44924 0.78743
 C2335 C 0.36390 0.46441 0.78603
 C2336 C 0.35440 0.46816 0.78229
 C2337 C 0.34320 0.47246 0.77803
 C2338 C 0.33356 0.47604 0.77451
 C2339 C 0.32196 0.48020 0.77043
 C2340 C 0.31623 0.48976 0.77644
 C2341 C 0.30478 0.49354 0.77276
 C2342 C 0.29889 0.48780 0.76299
 C2343 C 0.30479 0.47828 0.75693
 C2344 C 0.31624 0.47451 0.76064
 H2345 H 0.38108 0.45281 0.77331
 H2346 H 0.37182 0.46576 0.80907
 H2347 H 0.39068 0.45755 0.81715
 H2348 H 0.40011 0.44476 0.78123
 H2349 H 0.32057 0.49421 0.78406
 H2350 H 0.30051 0.50087 0.77766
 H2351 H 0.30053 0.47363 0.74940
 H2352 H 0.32058 0.46709 0.75594
 C2353 C 0.37737 -0.05368 0.28946
 C2354 C 0.37456 -0.04146 0.29108
 C2355 C 0.38271 -0.03383 0.29702
 C2356 C 0.39363 -0.03841 0.30139
 C2357 C 0.39653 -0.05071 0.29987
 C2358 C 0.38828 -0.05828 0.29381
 C2359 C 0.36322 -0.03681 0.28678
 C2360 C 0.35366 -0.03304 0.28324
 C2361 C 0.34240 -0.02875 0.27914
 C2362 C 0.33272 -0.02520 0.27568
 C2363 C 0.32109 -0.02111 0.27161
 C2364 C 0.31546 -0.01136 0.27740
 C2365 C 0.30402 -0.00760 0.27365
 C2366 C 0.29805 -0.01355 0.26405
 C2367 C 0.30386 -0.02328 0.25824
 C2368 C 0.31529 -0.02703 0.26201
 H2369 H 0.37110 -0.05968 0.28492
 H2370 H 0.38063 -0.02434 0.29830
 H2371 H 0.39983 -0.03231 0.30586
 H2372 H 0.39014 -0.06781 0.29264
 H2373 H 0.31986 -0.00674 0.28486
 H2374 H 0.29982 -0.00010 0.27835
 H2375 H 0.29954 -0.02810 0.25085
 H2376 H 0.31957 -0.03460 0.25748
 C2377 C 0.11342 0.53067 0.70854
 C2378 C 0.12145 0.53867 0.71416
 C2379 C 0.11828 0.55083 0.71557
 C2380 C 0.10718 0.55501 0.71129
 C2381 C 0.09908 0.54707 0.70551
 C2382 C 0.10231 0.53483 0.70424
 C2383 C 0.13304 0.53448 0.71823
 C2384 C 0.14283 0.53108 0.72151
 C2385 C 0.15437 0.52721 0.72522
 C2386 C 0.16431 0.52401 0.72827
 C2387 C 0.17625 0.52033 0.73177
 C2388 C 0.18231 0.52645 0.74108
 C2389 C 0.19407 0.52316 0.74421
 C2390 C 0.19994 0.51369 0.73804
 C2391 C 0.19371 0.50751 0.72877
 C2392 C 0.18195 0.51082 0.72566
 H2393 H 0.11577 0.52123 0.70741
 H2394 H 0.12445 0.55711 0.71986
 H2395 H 0.10507 0.56450 0.71227
 H2396 H 0.09623 0.52846 0.69999
 H2397 H 0.17798 0.53384 0.74585
 H2398 H 0.19858 0.52813 0.75137
 H2399 H 0.19794 0.50019 0.72381
 H2400 H 0.17734 0.50604 0.71842
 C2401 C 0.11392 0.03092 0.20661
 C2402 C 0.12179 0.03869 0.21276
 C2403 C 0.11867 0.05083 0.21439
 C2404 C 0.10776 0.05523 0.20983
 C2405 C 0.09981 0.04752 0.20354
 C2406 C 0.10300 0.03529 0.20203
 C2407 C 0.13318 0.03430 0.21717
 C2408 C 0.14282 0.03075 0.22076
 C2409 C 0.15420 0.02674 0.22481
 C2410 C 0.16400 0.02343 0.22814
 C2411 C 0.17582 0.01962 0.23194
 C2412 C 0.18180 0.02578 0.24127
 C2413 C 0.19348 0.02242 0.24461
 C2414 C 0.19936 0.01283 0.23862
 C2415 C 0.19318 0.00660 0.22935
 C2416 C 0.18150 0.00998 0.22603
 H2417 H 0.11624 0.02150 0.20531
 H2418 H 0.12472 0.05694 0.21909
 H2419 H 0.10569 0.06471 0.21100
 H2420 H 0.09703 0.02910 0.19738
 H2421 H 0.17748 0.03328 0.24588
 H2422 H 0.19795 0.02743 0.25177
 H2423 H 0.19741 -0.00081 0.22453
 H2424 H 0.17696 0.00517 0.21877
 C2425 C 0.63094 0.69919 0.21415
 C2426 C 0.62788 0.71135 0.21253
 C2427 C 0.63586 0.71913 0.20654
 C2428 C 0.64683 0.71475 0.20210
 C2429 C 0.64996 0.70250 0.20359
 C2430 C 0.64190 0.69479 0.20972
 C2431 C 0.61643 0.71574 0.21679
 C2432 C 0.60674 0.71928 0.22024
 C2433 C 0.59530 0.72326 0.22416
 C2434 C 0.58545 0.72653 0.22738
 C2435 C 0.57358 0.73027 0.23107
 C2436 C 0.56785 0.73982 0.22506
 C2437 C 0.55613 0.74315 0.22829
 C2438 C 0.54996 0.73694 0.23759
 C2439 C 0.55588 0.72743 0.24367
 C2440 C 0.56760 0.72413 0.24041
 H2441 H 0.62480 0.69307 0.21872
 H2442 H 0.63358 0.72857 0.20525
 H2443 H 0.65289 0.72095 0.19756
 H2444 H 0.64393 0.68529 0.21087
 H2445 H 0.57240 0.74462 0.21779
 H2446 H 0.55187 0.75049 0.22341
 H2447 H 0.55141 0.72244 0.25085
 H2448 H 0.57194 0.71670 0.24510
 C2449 C 0.13640 0.72046 0.70805
 C2450 C 0.12834 0.71255 0.71376
 C2451 C 0.13148 0.70040 0.71533
 C2452 C 0.14258 0.69615 0.71115
 C2453 C 0.15072 0.70400 0.70529
 C2454 C 0.14751 0.71622 0.70385
 C2455 C 0.11675 0.71681 0.71776
 C2456 C 0.10696 0.72024 0.72101
 C2457 C 0.09541 0.72411 0.72470
 C2458 C 0.08547 0.72729 0.72775
 C2459 C 0.07352 0.73092 0.73126
 C2460 C 0.06752 0.72481 0.74063
 C2461 C 0.05575 0.72803 0.74377
 C2462 C 0.04979 0.73742 0.73756
 C2463 C 0.05596 0.74360 0.72824
 C2464 C 0.06773 0.74035 0.72512
 H2465 H 0.13407 0.72989 0.70680
 H2466 H 0.12528 0.69419 0.71969
 H2467 H 0.14467 0.68666 0.71225
 H2468 H 0.15363 0.72253 0.69953
 H2469 H 0.07191 0.71747 0.74543
 H2470 H 0.05129 0.72307 0.75097
 H2471 H 0.05166 0.75086 0.72326
 H2472 H 0.07228 0.74513 0.71784
 C2473 C 0.61966 0.19931 0.53604
 C2474 C 0.62280 0.21147 0.53758
 C2475 C 0.61476 0.21938 0.54330
 C2476 C 0.60366 0.21514 0.54754
 C2477 C 0.60044 0.20291 0.54611
 C2478 C 0.60856 0.19505 0.54026
 C2479 C 0.63436 0.21575 0.53350
 C2480 C 0.64410 0.21923 0.53015
 C2481 C 0.65558 0.22321 0.52634
 C2482 C 0.66544 0.22651 0.52315
 C2483 C 0.67727 0.23035 0.51944
 C2484 C 0.68293 0.23998 0.52540
 C2485 C 0.69454 0.24353 0.52200
 C2486 C 0.70067 0.23748 0.51257
 C2487 C 0.69485 0.22785 0.50659
 C2488 C 0.68324 0.22432 0.51001
 H2489 H 0.62584 0.19310 0.53167
 H2490 H 0.61709 0.22881 0.54453
 H2491 H 0.59755 0.22144 0.55186
 H2492 H 0.60646 0.18557 0.53916
 H2493 H 0.67840 0.24469 0.53273
 H2494 H 0.69874 0.25096 0.52682
 H2495 H 0.69929 0.22297 0.49932
 H2496 H 0.67895 0.21684 0.50535
 C2497 C 0.61607 0.71835 0.04372
 C2498 C 0.62416 0.71042 0.03808
 C2499 C 0.62104 0.69826 0.03657
 C2500 C 0.60992 0.69400 0.04073
 C2501 C 0.60175 0.70187 0.04650
 C2502 C 0.60495 0.71411 0.04790
 C2503 C 0.63572 0.71471 0.03401
 C2504 C 0.64546 0.71821 0.03067
 C2505 C 0.65693 0.72221 0.02684
 C2506 C 0.66677 0.72554 0.02363
 C2507 C 0.67857 0.72942 0.01986
 C2508 C 0.68432 0.72372 0.01010
 C2509 C 0.69589 0.72731 0.00659
 C2510 C 0.70188 0.73668 0.01282
 C2511 C 0.69597 0.74240 0.02260
 C2512 C 0.68441 0.73878 0.02608
 H2513 H 0.61839 0.72779 0.04492
 H2514 H 0.62725 0.69203 0.03226
 H2515 H 0.60784 0.68451 0.03966
 H2516 H 0.59881 0.72043 0.05215
 H2517 H 0.67989 0.71645 0.00524
 H2518 H 0.70016 0.72269 -0.00095
 H2519 H 0.70031 0.74961 0.02762
 H2520 H 0.68004 0.74324 0.03367
 C2521 C 0.13527 0.03133 0.04328
 C2522 C 0.12726 0.03931 0.03763
 C2523 C 0.13043 0.05147 0.03621
 C2524 C 0.14152 0.05567 0.04051
 C2525 C 0.14961 0.04774 0.04630
 C2526 C 0.14637 0.03550 0.04759
 C2527 C 0.11570 0.03509 0.03347
 C2528 C 0.10597 0.03161 0.03009
 C2529 C 0.09451 0.02763 0.02623
 C2530 C 0.08467 0.02429 0.02301
 C2531 C 0.07287 0.02038 0.01927
 C2532 C 0.06699 0.02623 0.00968
 C2533 C 0.05542 0.02262 0.00620
 C2534 C 0.04956 0.01307 0.01229
 C2535 C 0.05560 0.00720 0.02188
 C2536 C 0.06717 0.01084 0.02534
 H2537 H 0.13291 0.02188 0.04440
 H2538 H 0.12427 0.05775 0.03189
 H2539 H 0.14365 0.06516 0.03952
 H2540 H 0.15244 0.02914 0.05186
 H2541 H 0.07131 0.03365 0.00493
 H2542 H 0.05105 0.02736 -0.00120
 H2543 H 0.05137 -0.00015 0.02679
 H2544 H 0.07164 0.00626 0.03279
 C2545 C 0.13641 0.52959 0.54180
 C2546 C 0.12832 0.53744 0.53606
 C2547 C 0.13139 0.54961 0.53448
 C2548 C 0.14245 0.55395 0.53870
 C2549 C 0.15062 0.54617 0.54458
 C2550 C 0.14749 0.53392 0.54603
 C2551 C 0.11676 0.53310 0.53205
 C2552 C 0.10699 0.52961 0.52880
 C2553 C 0.09545 0.52569 0.52512
 C2554 C 0.08552 0.52248 0.52207
 C2555 C 0.07356 0.51885 0.51855
 C2556 C 0.06759 0.52495 0.50917
 C2557 C 0.05581 0.52175 0.50604
 C2558 C 0.04981 0.51239 0.51227
 C2559 C 0.05597 0.50621 0.52160
 C2560 C 0.06775 0.50944 0.52471
 H2561 H 0.13414 0.52015 0.54306
 H2562 H 0.12517 0.55577 0.53011
 H2563 H 0.14449 0.56345 0.53759
 H2564 H 0.15362 0.52766 0.55037
 H2565 H 0.07200 0.53227 0.50436
 H2566 H 0.05137 0.52671 0.49883
 H2567 H 0.05164 0.49897 0.52660
 H2568 H 0.07229 0.50467 0.53200
 C2569 C 0.63615 0.03189 0.54225
 C2570 C 0.62796 0.03973 0.53666
 C2571 C 0.63082 0.05200 0.53543
 C2572 C 0.64177 0.05643 0.53986
 C2573 C 0.65002 0.04864 0.54562
 C2574 C 0.64710 0.03630 0.54670
 C2575 C 0.61651 0.03529 0.53245
 C2576 C 0.60683 0.03168 0.52904
 C2577 C 0.59540 0.02759 0.52520
 C2578 C 0.58556 0.02423 0.52204
 C2579 C 0.57370 0.02039 0.51841
 C2580 C 0.56768 0.02642 0.50902
 C2581 C 0.55597 0.02303 0.50580
 C2582 C 0.55010 0.01354 0.51196
 C2583 C 0.55631 0.00743 0.52129
 C2584 C 0.56802 0.01085 0.52449
 H2585 H 0.63403 0.02238 0.54324
 H2586 H 0.62452 0.05816 0.53116
 H2587 H 0.64364 0.06599 0.53902
 H2588 H 0.65331 0.03005 0.55093
 H2589 H 0.57199 0.03384 0.50427
 H2590 H 0.55148 0.02794 0.49859
 H2591 H 0.55208 0.00010 0.52624
 H2592 H 0.57259 0.00613 0.53179
 C2593 C 0.63120 0.55057 0.03553
 C2594 C 0.62833 0.53834 0.03696
 C2595 C 0.63655 0.53055 0.04258
 C2596 C 0.64757 0.53499 0.04684
 C2597 C 0.65051 0.54730 0.04553
 C2598 C 0.64221 0.55503 0.03977
 C2599 C 0.61684 0.53387 0.03287
 C2600 C 0.60714 0.53028 0.02954
 C2601 C 0.59567 0.52625 0.02574
 C2602 C 0.58580 0.52296 0.02259
 C2603 C 0.57391 0.51921 0.01896
 C2604 C 0.56813 0.50975 0.02507
 C2605 C 0.55640 0.50642 0.02186
 C2606 C 0.55027 0.51255 0.01248
 C2607 C 0.55624 0.52196 0.00630
 C2608 C 0.56797 0.52526 0.00953
 H2609 H 0.62488 0.55670 0.03124
 H2610 H 0.63442 0.52105 0.04372
 H2611 H 0.65381 0.52878 0.05109
 H2612 H 0.64410 0.56457 0.03877
 H2613 H 0.57264 0.50503 0.03241
 H2614 H 0.55209 0.49915 0.02683
 H2615 H 0.55182 0.52688 -0.00095
 H2616 H 0.57236 0.53262 0.00475
 C2617 C 0.05048 0.03350 0.13238
 C2618 C 0.04039 0.03867 0.12689
 C2619 C 0.03438 0.04814 0.13268
 C2620 C 0.03848 0.05252 0.14386
 C2621 C 0.04879 0.04753 0.14956
 C2622 C 0.05465 0.03783 0.14357
 C2623 C 0.03629 0.03440 0.11523
 C2624 C 0.03289 0.03095 0.10541
 C2625 C 0.02895 0.02702 0.09386
 C2626 C 0.02562 0.02375 0.08395
 C2627 C 0.02170 0.01995 0.07207
 C2628 C 0.01222 0.02597 0.06627
 C2629 C 0.00855 0.02244 0.05463
 C2630 C 0.01432 0.01281 0.04861
 C2631 C 0.02382 0.00678 0.05456
 C2632 C 0.02747 0.01033 0.06620
 H2633 H 0.05522 0.02614 0.12796
 H2634 H 0.02651 0.05221 0.12851
 H2635 H 0.03343 0.05983 0.14788
 H2636 H 0.06254 0.03353 0.14729
 H2637 H 0.00771 0.03345 0.07072
 H2638 H 0.00124 0.02731 0.05033
 H2639 H 0.02849 -0.00064 0.05021
 H2640 H 0.03483 0.00562 0.07060
 C2641 C 0.03038 0.54224 0.63801
 C2642 C 0.03826 0.53655 0.62989
 C2643 C 0.05040 0.53515 0.63300
 C2644 C 0.05468 0.53950 0.64414
 C2645 C 0.04685 0.54535 0.65232
 C2646 C 0.03463 0.54661 0.64915
 C2647 C 0.03398 0.53241 0.61825
 C2648 C 0.03051 0.52907 0.60842
 C2649 C 0.02658 0.52529 0.59682
 C2650 C 0.02333 0.52217 0.58683
 C2651 C 0.01960 0.51858 0.57482
 C2652 C 0.02565 0.50925 0.56878
 C2653 C 0.02232 0.50602 0.55695
 C2654 C 0.01288 0.51212 0.55098
 C2655 C 0.00677 0.52141 0.55720
 C2656 C 0.01013 0.52461 0.56903
 H2657 H 0.02095 0.54336 0.63570
 H2658 H 0.05660 0.53081 0.62676
 H2659 H 0.06415 0.53853 0.64620
 H2660 H 0.02835 0.55091 0.65530
 H2661 H 0.03302 0.50453 0.57317
 H2662 H 0.02722 0.49884 0.55245
 H2663 H -0.00052 0.52630 0.55290
 H2664 H 0.00540 0.53186 0.57362
 C2665 C 0.54937 0.03279 0.63439
 C2666 C 0.53883 0.03748 0.62933
 C2667 C 0.53254 0.04655 0.63546
 C2668 C 0.53681 0.05103 0.64654
 C2669 C 0.54758 0.04654 0.65178
 C2670 C 0.55370 0.03721 0.64548
 C2671 C 0.53462 0.03320 0.61772
 C2672 C 0.53118 0.02974 0.60791
 C2673 C 0.52725 0.02586 0.59634
 C2674 C 0.52399 0.02267 0.58638
 C2675 C 0.52021 0.01903 0.57440
 C2676 C 0.51064 0.02496 0.56867
 C2677 C 0.50724 0.02174 0.55686
 C2678 C 0.51340 0.01252 0.55059
 C2679 C 0.52293 0.00651 0.55650
 C2680 C 0.52631 0.00976 0.56831
 H2681 H 0.55434 0.02576 0.62970
 H2682 H 0.52432 0.05023 0.63163
 H2683 H 0.53151 0.05796 0.65088
 H2684 H 0.56198 0.03336 0.64882
 H2685 H 0.50587 0.03217 0.57329
 H2686 H 0.49987 0.02657 0.55261
 H2687 H 0.52789 -0.00062 0.55196
 H2688 H 0.53375 0.00512 0.57265
 C2689 C 0.55026 0.53525 0.13295
 C2690 C 0.53814 0.53678 0.12986
 C2691 C 0.53033 0.54257 0.13798
 C2692 C 0.53464 0.54689 0.14912
 C2693 C 0.54685 0.54547 0.15228
 C2694 C 0.55460 0.53955 0.14408
 C2695 C 0.53380 0.53265 0.11824
 C2696 C 0.53030 0.52928 0.10842
 C2697 C 0.52636 0.52546 0.09683
 C2698 C 0.52312 0.52230 0.08686
 C2699 C 0.51941 0.51867 0.07485
 C2700 C 0.51019 0.52491 0.06888
 C2701 C 0.50689 0.52169 0.05704
 C2702 C 0.51280 0.51216 0.05099
 C2703 C 0.52198 0.50585 0.05714
 C2704 C 0.52526 0.50910 0.06899
 H2705 H 0.55640 0.53084 0.12671
 H2706 H 0.52091 0.54379 0.13568
 H2707 H 0.52842 0.55126 0.15528
 H2708 H 0.56406 0.53846 0.14614
 H2709 H 0.50563 0.53236 0.07333
 H2710 H 0.49980 0.52676 0.05259
 H2711 H 0.52674 0.49849 0.05278
 H2712 H 0.53243 0.50422 0.07352
 C2713 C 0.19921 0.53566 0.61730
 C2714 C 0.21133 0.53723 0.62042
 C2715 C 0.21916 0.54300 0.61230
 C2716 C 0.21488 0.54727 0.60114
 C2717 C 0.20268 0.54582 0.59794
 C2718 C 0.19491 0.53992 0.60614
 C2719 C 0.21564 0.53313 0.63206
 C2720 C 0.21912 0.52979 0.64189
 C2721 C 0.22306 0.52601 0.65349
 C2722 C 0.22630 0.52287 0.66347
 C2723 C 0.23002 0.51927 0.67548
 C2724 C 0.23956 0.52523 0.68124
 C2725 C 0.24291 0.52203 0.69307
 C2726 C 0.23673 0.51280 0.69933
 C2727 C 0.22722 0.50678 0.69339
 C2728 C 0.22389 0.51000 0.68156
 H2729 H 0.19306 0.53126 0.62354
 H2730 H 0.22857 0.54424 0.61462
 H2731 H 0.22112 0.55163 0.59498
 H2732 H 0.18545 0.53881 0.60406
 H2733 H 0.24435 0.53243 0.67662
 H2734 H 0.25026 0.52687 0.69734
 H2735 H 0.22225 0.49965 0.69792
 H2736 H 0.21647 0.50534 0.67719
 C2737 C 0.21883 0.04246 0.11322
 C2738 C 0.21099 0.03676 0.12139
 C2739 C 0.19880 0.03547 0.11841
 C2740 C 0.19444 0.03994 0.10736
 C2741 C 0.20221 0.04578 0.09912
 C2742 C 0.21448 0.04694 0.10216
 C2743 C 0.21537 0.03250 0.13294
 C2744 C 0.21891 0.02905 0.14271
 C2745 C 0.22291 0.02516 0.15425
 C2746 C 0.22621 0.02197 0.16419
 C2747 C 0.22999 0.01832 0.17617
 C2748 C 0.22409 0.00884 0.18213
 C2749 C 0.22742 0.00562 0.19396
 C2750 C 0.23671 0.01187 0.20002
 C2751 C 0.24268 0.02131 0.19387
 C2752 C 0.23933 0.02450 0.18204
 H2753 H 0.22828 0.04350 0.11543
 H2754 H 0.19265 0.03113 0.12470
 H2755 H 0.18493 0.03904 0.10540
 H2756 H 0.22072 0.05124 0.09597
 H2757 H 0.21683 0.00401 0.17768
 H2758 H 0.22261 -0.00167 0.19841
 H2759 H 0.24986 0.02633 0.19824
 H2760 H 0.24394 0.03188 0.17752
 C2761 C 0.69725 0.21318 0.63058
 C2762 C 0.70938 0.21183 0.62738
 C2763 C 0.71736 0.20622 0.63545
 C2764 C 0.71322 0.20189 0.64665
 C2765 C 0.70102 0.20312 0.64993
 C2766 C 0.69309 0.20887 0.64178
 C2767 C 0.71358 0.21602 0.61572
 C2768 C 0.71704 0.21944 0.60591
 C2769 C 0.72104 0.22334 0.59437
 C2770 C 0.72440 0.22660 0.58447
 C2771 C 0.72836 0.23040 0.57260
 C2772 C 0.73781 0.22432 0.56680
 C2773 C 0.74152 0.22785 0.55518
 C2774 C 0.73583 0.23754 0.54918
 C2775 C 0.72637 0.24363 0.55512
 C2776 C 0.72267 0.24007 0.56675
 H2777 H 0.69099 0.21747 0.62438
 H2778 H 0.72677 0.20515 0.63307
 H2779 H 0.71958 0.19767 0.65278
 H2780 H 0.68363 0.20982 0.64394
 H2781 H 0.74226 0.21680 0.57124
 H2782 H 0.74881 0.22294 0.55087
 H2783 H 0.72176 0.25110 0.55078
 H2784 H 0.71534 0.24482 0.57115
 C2785 C 0.69801 0.71274 0.13030
 C2786 C 0.71013 0.71124 0.12717
 C2787 C 0.71797 0.70545 0.13526
 C2788 C 0.71369 0.70113 0.14641
 C2789 C 0.70150 0.70253 0.14962
 C2790 C 0.69371 0.70843 0.14144
 C2791 C 0.71447 0.71546 0.11558
 C2792 C 0.71801 0.71893 0.10581
 C2793 C 0.72207 0.72290 0.09432
 C2794 C 0.72547 0.72621 0.08444
 C2795 C 0.72944 0.73008 0.07260
 C2796 C 0.73906 0.72420 0.06689
 C2797 C 0.74275 0.72775 0.05526
 C2798 C 0.73685 0.73725 0.04917
 C2799 C 0.72723 0.74315 0.05503
 C2800 C 0.72356 0.73958 0.06666
 H2801 H 0.69185 0.71716 0.12408
 H2802 H 0.72738 0.70426 0.13294
 H2803 H 0.71995 0.69677 0.15255
 H2804 H 0.68425 0.70951 0.14354
 H2805 H 0.74366 0.71681 0.07139
 H2806 H 0.75017 0.72298 0.05103
 H2807 H 0.72245 0.75047 0.05062
 H2808 H 0.71608 0.74417 0.07099
 C2809 C 0.53163 0.70649 0.11252
 C2810 C 0.53932 0.71221 0.12081
 C2811 C 0.55155 0.71355 0.11803
 C2812 C 0.55610 0.70912 0.10704
 C2813 C 0.54847 0.70327 0.09867
 C2814 C 0.53617 0.70205 0.10153
 C2815 C 0.53476 0.71648 0.13230
 C2816 C 0.53107 0.71994 0.14201
 C2817 C 0.52692 0.72388 0.15348
 C2818 C 0.52352 0.72712 0.16337
 C2819 C 0.51963 0.73085 0.17529
 C2820 C 0.52542 0.74044 0.18119
 C2821 C 0.52200 0.74374 0.19297
 C2822 C 0.51274 0.73746 0.19904
 C2823 C 0.50687 0.72793 0.19295
 C2824 C 0.51030 0.72466 0.18116
 H2825 H 0.52215 0.70542 0.11459
 H2826 H 0.55760 0.71791 0.12440
 H2827 H 0.56563 0.71006 0.10522
 H2828 H 0.53003 0.69773 0.09523
 H2829 H 0.53267 0.74528 0.17673
 H2830 H 0.52673 0.75111 0.19737
 H2831 H 0.49971 0.72289 0.19733
 H2832 H 0.50578 0.71720 0.17669
 C2833 C 0.05022 0.71440 0.61716
 C2834 C 0.03807 0.71289 0.62022
 C2835 C 0.03028 0.70709 0.61208
 C2836 C 0.03463 0.70273 0.60097
 C2837 C 0.04686 0.70413 0.59785
 C2838 C 0.05459 0.71006 0.60606
 C2839 C 0.03370 0.71707 0.63181
 C2840 C 0.03017 0.72047 0.64160
 C2841 C 0.02618 0.72432 0.65316
 C2842 C 0.02291 0.72751 0.66311
 C2843 C 0.01915 0.73117 0.67509
 C2844 C 0.00988 0.72494 0.68103
 C2845 C 0.00653 0.72818 0.69285
 C2846 C 0.01243 0.73770 0.69892
 C2847 C 0.02165 0.74400 0.69280
 C2848 C 0.02498 0.74074 0.68098
 H2849 H 0.05634 0.71883 0.62342
 H2850 H 0.02086 0.70588 0.61435
 H2851 H 0.02842 0.69835 0.59480
 H2852 H 0.06406 0.71114 0.60404
 H2853 H 0.00532 0.71749 0.67657
 H2854 H -0.00059 0.72312 0.69727
 H2855 H 0.02640 0.75136 0.69718
 H2856 H 0.03219 0.74560 0.67647
 C2857 C 0.54969 0.61798 0.21479
 C2858 C 0.53755 0.62096 0.21310
 C2859 C 0.52983 0.61274 0.20734
 C2860 C 0.53425 0.60163 0.20323
 C2861 C 0.54646 0.59858 0.20481
 C2862 C 0.55411 0.60688 0.21070
 C2863 C 0.53312 0.63254 0.21705
 C2864 C 0.52957 0.64232 0.22028
 C2865 C 0.52558 0.65386 0.22397
 C2866 C 0.52233 0.66380 0.22704
 C2867 C 0.51864 0.67576 0.23060
 C2868 C 0.50945 0.68167 0.22425
 C2869 C 0.50617 0.69347 0.22741
 C2870 C 0.51207 0.69952 0.23698
 C2871 C 0.52122 0.69343 0.24340
 C2872 C 0.52447 0.68164 0.24022
 H2873 H 0.55575 0.62430 0.21918
 H2874 H 0.52042 0.61495 0.20600
 H2875 H 0.52809 0.59539 0.19888
 H2876 H 0.56358 0.60492 0.21191
 H2877 H 0.50489 0.67721 0.21677
 H2878 H 0.49910 0.69787 0.22226
 H2879 H 0.52596 0.69780 0.25080
 H2880 H 0.53162 0.67715 0.24518
 C2881 C 0.03553 0.61799 0.70056
 C2882 C 0.03704 0.62127 0.71276
 C2883 C 0.04285 0.61337 0.72078
 C2884 C 0.04722 0.60226 0.71660
 C2885 C 0.04583 0.59891 0.70432
 C2886 C 0.03988 0.60690 0.69636
 C2887 C 0.03285 0.63285 0.71696
 C2888 C 0.02943 0.64264 0.72033
 C2889 C 0.02554 0.65419 0.72411
 C2890 C 0.02233 0.66413 0.72721
 C2891 C 0.01862 0.67609 0.73074
 C2892 C 0.02448 0.68204 0.74029
 C2893 C 0.02120 0.69383 0.74344
 C2894 C 0.01199 0.69986 0.73705
 C2895 C 0.00606 0.69373 0.72754
 C2896 C 0.00937 0.68194 0.72442
 H2897 H 0.03109 0.62407 0.69426
 H2898 H 0.04406 0.61581 0.73025
 H2899 H 0.05162 0.59627 0.72298
 H2900 H 0.03882 0.60470 0.68683
 H2901 H 0.03168 0.67760 0.74523
 H2902 H 0.02597 0.69826 0.75079
 H2903 H -0.00105 0.69808 0.72241
 H2904 H 0.00479 0.67742 0.71699
 C2905 C 0.03701 0.13005 0.05112
 C2906 C 0.03843 0.12683 0.03889
 C2907 C 0.04405 0.13483 0.03083
 C2908 C 0.04831 0.14599 0.03500
 C2909 C 0.04701 0.14929 0.04730
 C2910 C 0.04125 0.14120 0.05530
 C2911 C 0.03430 0.11522 0.03468
 C2912 C 0.03092 0.10544 0.03124
 C2913 C 0.02707 0.09393 0.02730
 C2914 C 0.02385 0.08405 0.02401
 C2915 C 0.02010 0.07219 0.02016
 C2916 C 0.02593 0.06648 0.01044
 C2917 C 0.02248 0.05486 0.00687
 C2918 C 0.01313 0.04876 0.01298
 C2919 C 0.00728 0.05461 0.02271
 C2920 C 0.01075 0.06624 0.02626
 H2921 H 0.03271 0.12390 0.05745
 H2922 H 0.04518 0.13244 0.02134
 H2923 H 0.05255 0.15206 0.02857
 H2924 H 0.04025 0.14337 0.06485
 H2925 H 0.03320 0.07100 0.00567
 H2926 H 0.02720 0.05063 -0.00063
 H2927 H 0.00007 0.05019 0.02765
 H2928 H 0.00619 0.07057 0.03381
 C2929 C 0.02984 0.63685 0.54274
 C2930 C 0.03755 0.62864 0.53698
 C2931 C 0.04969 0.63160 0.53532
 C2932 C 0.05414 0.64268 0.53945
 C2933 C 0.04650 0.65098 0.54534
 C2934 C 0.03427 0.64795 0.54689
 C2935 C 0.03309 0.61708 0.53298
 C2936 C 0.02953 0.60732 0.52970
 C2937 C 0.02553 0.59578 0.52596
 C2938 C 0.02229 0.58585 0.52285
 C2939 C 0.01860 0.57390 0.51925
 C2940 C 0.02466 0.56793 0.50985
 C2941 C 0.02141 0.55613 0.50664
 C2942 C 0.01204 0.55014 0.51283
 C2943 C 0.00590 0.55629 0.52218
 C2944 C 0.00918 0.56809 0.52536
 H2945 H 0.02041 0.63466 0.54406
 H2946 H 0.05575 0.62528 0.53092
 H2947 H 0.06362 0.64463 0.53827
 H2948 H 0.02813 0.65419 0.55124
 H2949 H 0.03199 0.57233 0.50507
 H2950 H 0.02634 0.55169 0.49942
 H2951 H -0.00134 0.55197 0.52715
 H2952 H 0.00444 0.57262 0.53267
 C2953 C 0.53029 0.13720 0.54331
 C2954 C 0.53792 0.12892 0.53755
 C2955 C 0.55012 0.13171 0.53600
 C2956 C 0.55470 0.14270 0.54025
 C2957 C 0.54713 0.15107 0.54613
 C2958 C 0.53485 0.14820 0.54757
 C2959 C 0.53334 0.11745 0.53344
 C2960 C 0.52968 0.10775 0.53007
 C2961 C 0.52561 0.09628 0.52621
 C2962 C 0.52231 0.08640 0.52300
 C2963 C 0.51859 0.07450 0.51926
 C2964 C 0.52459 0.06866 0.50974
 C2965 C 0.52136 0.05689 0.50643
 C2966 C 0.51207 0.05078 0.51264
 C2967 C 0.50599 0.05681 0.52211
 C2968 C 0.50924 0.06858 0.52539
 H2969 H 0.52083 0.13513 0.54454
 H2970 H 0.55613 0.12534 0.53161
 H2971 H 0.56421 0.14452 0.53915
 H2972 H 0.52876 0.15450 0.55191
 H2973 H 0.53186 0.07315 0.50495
 H2974 H 0.52625 0.05254 0.49911
 H2975 H 0.49882 0.05239 0.52709
 H2976 H 0.50456 0.07301 0.53280
 C2977 C 0.55133 0.63074 0.03609
 C2978 C 0.53910 0.62801 0.03751
 C2979 C 0.53144 0.63635 0.04315
 C2980 C 0.53601 0.64734 0.04743
 C2981 C 0.54832 0.65014 0.04612
 C2982 C 0.55591 0.64172 0.04035
 C2983 C 0.53450 0.61655 0.03339
 C2984 C 0.53080 0.60686 0.03004
 C2985 C 0.52665 0.59541 0.02622
 C2986 C 0.52326 0.58554 0.02305
 C2987 C 0.51941 0.57366 0.01940
 C2988 C 0.51011 0.56782 0.02569
 C2989 C 0.50671 0.55608 0.02247
 C2990 C 0.51259 0.54998 0.01291
 C2991 C 0.52182 0.55601 0.00654
 C2992 C 0.52520 0.56775 0.00978
 H2993 H 0.55735 0.62432 0.03179
 H2994 H 0.52195 0.63434 0.04428
 H2995 H 0.52990 0.65368 0.05168
 H2996 H 0.56544 0.64349 0.03935
 H2997 H 0.50558 0.57230 0.03317
 H2998 H 0.49958 0.55173 0.02759
 H2999 H 0.52655 0.55161 -0.00085
 H3000 H 0.53243 0.57218 0.00487
 C3001 C 0.71581 0.11847 0.54981
 C3002 C 0.71100 0.12374 0.53934
 C3003 C 0.70185 0.11782 0.53299
 C3004 C 0.69742 0.10672 0.53711
 C3005 C 0.70206 0.10124 0.54778
 C3006 C 0.71144 0.10736 0.55399
 C3007 C 0.71531 0.13532 0.53524
 C3008 C 0.71883 0.14507 0.53186
 C3009 C 0.72283 0.15655 0.52797
 C3010 C 0.72614 0.16641 0.52469
 C3011 C 0.72998 0.17823 0.52083
 C3012 C 0.72424 0.18393 0.51106
 C3013 C 0.72776 0.19553 0.50747
 C3014 C 0.73710 0.20161 0.51363
 C3015 C 0.74286 0.19576 0.52341
 C3016 C 0.73932 0.18416 0.52697
 H3017 H 0.72291 0.12299 0.55482
 H3018 H 0.69807 0.12182 0.52483
 H3019 H 0.69041 0.10255 0.53176
 H3020 H 0.71542 0.10383 0.56220
 H3021 H 0.71699 0.17943 0.50625
 H3022 H 0.72311 0.19975 0.49993
 H3023 H 0.75005 0.20017 0.52838
 H3024 H 0.74381 0.17984 0.53457
 C3025 C 0.69917 0.61979 0.03612
 C3026 C 0.71131 0.62283 0.03768
 C3027 C 0.71913 0.61464 0.04332
 C3028 C 0.71482 0.60350 0.04745
 C3029 C 0.70261 0.60038 0.04600
 C3030 C 0.69484 0.60865 0.04024
 C3031 C 0.71566 0.63442 0.03367
 C3032 C 0.71920 0.64419 0.03038
 C3033 C 0.72323 0.65570 0.02661
 C3034 C 0.72656 0.66558 0.02344
 C3035 C 0.73043 0.67745 0.01972
 C3036 C 0.73978 0.68327 0.02593
 C3037 C 0.74336 0.69491 0.02250
 C3038 C 0.73760 0.70089 0.01280
 C3039 C 0.72824 0.69491 0.00658
 C3040 C 0.72469 0.68328 0.01003
 H3041 H 0.69302 0.62608 0.03181
 H3042 H 0.72855 0.61690 0.04455
 H3043 H 0.72106 0.59728 0.05170
 H3044 H 0.68537 0.60662 0.03913
 H3045 H 0.74427 0.67884 0.03346
 H3046 H 0.75057 0.69923 0.02752
 H3047 H 0.72359 0.69924 -0.00090
 H3048 H 0.71742 0.67886 0.00518
 C3049 C 0.20054 0.63246 0.71493
 C3050 C 0.21270 0.62956 0.71326
 C3051 C 0.22038 0.63780 0.70750
 C3052 C 0.21590 0.64888 0.70336
 C3053 C 0.20367 0.65186 0.70492
 C3054 C 0.19605 0.64352 0.71080
 C3055 C 0.21719 0.61801 0.71723
 C3056 C 0.22078 0.60824 0.72049
 C3057 C 0.22478 0.59672 0.72421
 C3058 C 0.22802 0.58679 0.72732
 C3059 C 0.23166 0.57483 0.73094
 C3060 C 0.24096 0.56891 0.72475
 C3061 C 0.24416 0.55710 0.72795
 C3062 C 0.23807 0.55104 0.73740
 C3063 C 0.22882 0.55715 0.74366
 C3064 C 0.22565 0.56895 0.74044
 H3065 H 0.19451 0.62611 0.71932
 H3066 H 0.22981 0.63565 0.70617
 H3067 H 0.22203 0.65515 0.69901
 H3068 H 0.18657 0.64543 0.71199
 H3069 H 0.24565 0.57337 0.71736
 H3070 H 0.25130 0.55269 0.72293
 H3071 H 0.22393 0.55278 0.75097
 H3072 H 0.21842 0.57344 0.74528
 C3073 C 0.21440 0.13167 0.20043
 C3074 C 0.21292 0.12855 0.21268
 C3075 C 0.20723 0.13661 0.22064
 C3076 C 0.20295 0.14771 0.21634
 C3077 C 0.20430 0.15089 0.20402
 C3078 C 0.21014 0.14276 0.19612
 C3079 C 0.21701 0.11697 0.21699
 C3080 C 0.22033 0.10719 0.22046
 C3081 C 0.22411 0.09564 0.22436
 C3082 C 0.22723 0.08571 0.22756
 C3083 C 0.23083 0.07375 0.23122
 C3084 C 0.22488 0.06792 0.24079
 C3085 C 0.22808 0.05614 0.24406
 C3086 C 0.23729 0.05000 0.23777
 C3087 C 0.24331 0.05601 0.22823
 C3088 C 0.24008 0.06779 0.22499
 H3089 H 0.21875 0.12548 0.19418
 H3090 H 0.20605 0.13429 0.23014
 H3091 H 0.19864 0.15382 0.22268
 H3092 H 0.21118 0.14483 0.18656
 H3093 H 0.21769 0.07244 0.24565
 H3094 H 0.22325 0.05181 0.25142
 H3095 H 0.25042 0.05158 0.22318
 H3096 H 0.24473 0.07221 0.21755
 C3097 C 0.71368 1.13156 0.69963
 C3098 C 0.71247 1.12862 0.71195
 C3099 C 0.70677 1.13671 0.71987
 C3100 C 0.70222 1.14765 0.71547
 C3101 C 0.70330 1.15066 0.70307
 C3102 C 0.70914 1.14250 0.69521
 C3103 C 0.71682 1.11718 0.71638
 C3104 C 0.72035 1.10750 0.71994
 C3105 C 0.72433 1.09607 0.72396
 C3106 C 0.72761 1.08621 0.72726
 C3107 C 0.73134 1.07433 0.73103
 C3108 C 0.72531 1.06844 0.74051
 C3109 C 0.72857 1.05669 0.74382
 C3110 C 0.73792 1.05064 0.73767
 C3111 C 0.74405 1.05672 0.72826
 C3112 C 0.74076 1.06847 0.72497
 H3113 H 0.71802 1.12534 0.69341
 H3114 H 0.70579 1.13453 0.72943
 H3115 H 0.69792 1.15379 0.72179
 H3116 H 0.70998 1.14443 0.68560
 H3117 H 0.71798 1.07288 0.74524
 H3118 H 0.72364 1.05230 0.75109
 H3119 H 0.75127 1.05235 0.72331
 H3120 H 0.74548 1.07294 0.71759
 C3121 C 0.71929 0.63602 0.20543
 C3122 C 0.71169 0.62790 0.21146
 C3123 C 0.69957 0.63085 0.21326
 C3124 C 0.69503 0.64184 0.20899
 C3125 C 0.70257 0.65005 0.20283
 C3126 C 0.71477 0.64702 0.20113
 C3127 C 0.71622 0.61643 0.21561
 C3128 C 0.71986 0.60674 0.21901
 C3129 C 0.72393 0.59529 0.22290
 C3130 C 0.72726 0.58542 0.22613
 C3131 C 0.73104 0.57355 0.22987
 C3132 C 0.72522 0.56774 0.23953
 C3133 C 0.72855 0.55601 0.24286
 C3134 C 0.73776 0.54991 0.23655
 C3135 C 0.74366 0.55590 0.22693
 C3136 C 0.74030 0.56763 0.22362
 H3137 H 0.72870 0.63383 0.20399
 H3138 H 0.69359 0.62460 0.21787
 H3139 H 0.68557 0.64379 0.21029
 H3140 H 0.72084 0.65320 0.19657
 H3141 H 0.71801 0.57223 0.24441
 H3142 H 0.72380 0.55169 0.25030
 H3143 H 0.75077 0.55150 0.22186
 H3144 H 0.74485 0.57204 0.21611
 C3145 C 0.54678 0.11533 0.71894
 C3146 C 0.53753 0.12122 0.71271
 C3147 C 0.53268 0.11601 0.70223
 C3148 C 0.53714 0.10501 0.69789
 C3149 C 0.54665 0.09894 0.70393
 C3150 C 0.55129 0.10433 0.71465
 C3151 C 0.53321 0.13276 0.71691
 C3152 C 0.52971 0.14250 0.72031
 C3153 C 0.52576 0.15401 0.72415
 C3154 C 0.52251 0.16392 0.72733
 C3155 C 0.51878 0.17584 0.73098
 C3156 C 0.50956 0.18176 0.72467
 C3157 C 0.50624 0.19352 0.72791
 C3158 C 0.51212 0.19954 0.73752
 C3159 C 0.52130 0.19343 0.74389
 C3160 C 0.52459 0.18167 0.74063
 H3161 H 0.55059 0.11928 0.72710
 H3162 H 0.52551 0.12051 0.69732
 H3163 H 0.53313 0.10153 0.68966
 H3164 H 0.55839 0.10019 0.71989
 H3165 H 0.50501 0.17733 0.71717
 H3166 H 0.49915 0.19793 0.72280
 H3167 H 0.52603 0.19777 0.75132
 H3168 H 0.53176 0.17718 0.74555
 C3169 C 1.03666 0.11883 0.19917
 C3170 C 1.03789 0.12171 0.21150
 C3171 C 1.04348 0.11354 0.21940
 C3172 C 1.04791 0.10255 0.21497
 C3173 C 1.04681 0.09960 0.20256
 C3174 C 1.04107 0.10785 0.19472
 C3175 C 1.03367 0.13319 0.21595
 C3176 C 1.03024 0.14290 0.21953
 C3177 C 1.02636 0.15436 0.22355
 C3178 C 1.02315 0.16425 0.22684
 C3179 C 1.01947 0.17615 0.23059
 C3180 C 1.02538 0.18195 0.24020
 C3181 C 1.02214 0.19371 0.24352
 C3182 C 1.01294 0.19985 0.23723
 C3183 C 1.00695 0.19387 0.22767
 C3184 C 1.01021 0.18211 0.22438
 H3185 H 1.03240 0.12512 0.19296
 H3186 H 1.04448 0.11568 0.22897
 H3187 H 1.05214 0.09635 0.22126
 H3188 H 1.04022 0.10596 0.18510
 H3189 H 1.03258 0.17742 0.24505
 H3190 H 1.02695 0.19802 0.25091
 H3191 H 0.99984 0.19831 0.22262
 H3192 H 1.00560 0.17771 0.21690
 C3193 C 0.21985 0.61291 0.54271
 C3194 C 0.21215 0.62109 0.53690
 C3195 C 0.20003 0.61810 0.53516
 C3196 C 0.19558 0.60701 0.53928
 C3197 C 0.20321 0.59874 0.54522
 C3198 C 0.21542 0.60180 0.54684
 C3199 C 0.21660 0.63267 0.53293
 C3200 C 0.22018 0.64244 0.52969
 C3201 C 0.22419 0.65398 0.52599
 C3202 C 0.22747 0.66391 0.52292
 C3203 C 0.23120 0.67586 0.51934
 C3204 C 0.22539 0.68173 0.50972
 C3205 C 0.22868 0.69351 0.50652
 C3206 C 0.23785 0.69960 0.51293
 C3207 C 0.24373 0.69355 0.52251
 C3208 C 0.24041 0.68176 0.52569
 H3209 H 0.22926 0.61513 0.54409
 H3210 H 0.19397 0.62440 0.53073
 H3211 H 0.18611 0.60503 0.53804
 H3212 H 0.22156 0.59559 0.55123
 H3213 H 0.21823 0.67725 0.50476
 H3214 H 0.22395 0.69788 0.49911
 H3215 H 0.25080 0.69795 0.52766
 H3216 H 0.24495 0.67731 0.53318
 C3217 C 0.20630 0.11350 1.03031
 C3218 C 0.21226 0.12142 1.03821
 C3219 C 0.21383 0.11824 1.05043
 C3220 C 0.20939 0.10723 1.05477
 C3221 C 0.20328 0.09923 1.04693
 C3222 C 0.20184 0.10248 1.03463
 C3223 C 0.21652 0.13293 1.03387
 C3224 C 0.21997 0.14266 1.03035
 C3225 C 0.22388 0.15414 1.02638
 C3226 C 0.22710 0.16403 1.02311
 C3227 C 0.23079 0.17594 1.01935
 C3228 C 0.24003 0.18193 1.02556
 C3229 C 0.24329 0.19368 1.02224
 C3230 C 0.23733 0.19963 1.01265
 C3231 C 0.22814 0.19345 1.00636
 C3232 C 0.22490 0.18170 1.00970
 H3233 H 0.20504 0.11587 1.02083
 H3234 H 0.21838 0.12433 1.05663
 H3235 H 0.21051 0.10510 1.06431
 H3236 H 0.19733 0.09647 1.02834
 H3237 H 0.24463 0.17756 1.03307
 H3238 H 0.25039 0.19815 1.02730
 H3239 H 0.22335 0.19774 0.99894
 H3240 H 0.21771 0.17715 1.00485
 C3241 C 0.19971 0.71491 0.63285
 C3242 C 0.21186 0.71343 0.62980
 C3243 C 0.21968 0.70773 0.63797
 C3244 C 0.21535 0.70344 0.64912
 C3245 C 0.20312 0.70480 0.65224
 C3246 C 0.19537 0.71064 0.64398
 C3247 C 0.21622 0.71753 0.61817
 C3248 C 0.21974 0.72085 0.60835
 C3249 C 0.22371 0.72461 0.59675
 C3250 C 0.22698 0.72771 0.58677
 C3251 C 0.23072 0.73128 0.57475
 C3252 C 0.23996 0.72501 0.56884
 C3253 C 0.24329 0.72817 0.55699
 C3254 C 0.23740 0.73766 0.55087
 C3255 C 0.22820 0.74400 0.55696
 C3256 C 0.22489 0.74082 0.56881
 H3257 H 0.19357 0.71926 0.62656
 H3258 H 0.22910 0.70655 0.63571
 H3259 H 0.22158 0.69913 0.65532
 H3260 H 0.18588 0.71168 0.64600
 H3261 H 0.24451 0.71759 0.57334
 H3262 H 0.25040 0.72308 0.55259
 H3263 H 0.22345 0.75134 0.55255
 H3264 H 0.21770 0.74572 0.57330
 C3265 C 0.20219 0.21840 1.13510
 C3266 C 0.21182 0.21276 1.12922
 C3267 C 0.21733 0.20276 1.13459
 C3268 C 0.21318 0.19830 1.14573
 C3269 C 0.20331 0.20375 1.15180
 C3270 C 0.19799 0.21400 1.14624
 C3271 C 0.21586 0.21704 1.11755
 C3272 C 0.21916 0.22049 1.10769
 C3273 C 0.22294 0.22436 1.09606
 C3274 C 0.22607 0.22753 1.08606
 C3275 C 0.22971 0.23115 1.07403
 C3276 C 0.23923 0.22522 1.06821
 C3277 C 0.24251 0.22844 1.05637
 C3278 C 0.23628 0.23765 1.05015
 C3279 C 0.22679 0.24365 1.05614
 C3280 C 0.22354 0.24040 1.06799
 H3281 H 0.19786 0.22618 1.13101
 H3282 H 0.22481 0.19831 1.13011
 H3283 H 0.21777 0.19051 1.14936
 H3284 H 0.19052 0.21875 1.15032
 H3285 H 0.24406 0.21803 1.07280
 H3286 H 0.24985 0.22362 1.05205
 H3287 H 0.22179 0.25076 1.05165
 H3288 H 0.21613 0.24504 1.07240
 C3289 C 0.71348 0.55002 0.11760
 C3290 C 0.71200 0.53778 0.12044
 C3291 C 0.70625 0.53009 0.11216
 C3292 C 0.70193 0.53464 0.10111
 C3293 C 0.70330 0.54696 0.09821
 C3294 C 0.70918 0.55458 0.10657
 C3295 C 0.71616 0.53320 0.13195
 C3296 C 0.71957 0.52954 0.14169
 C3297 C 0.72347 0.52546 0.15320
 C3298 C 0.72672 0.52215 0.16312
 C3299 C 0.73052 0.51843 0.17507
 C3300 C 0.72456 0.50898 0.18103
 C3301 C 0.72792 0.50571 0.19285
 C3302 C 0.73728 0.51188 0.19888
 C3303 C 0.74330 0.52128 0.19272
 C3304 C 0.73993 0.52452 0.18091
 H3305 H 0.71787 0.55606 0.12397
 H3306 H 0.70506 0.52059 0.11425
 H3307 H 0.69758 0.52850 0.09482
 H3308 H 0.71023 0.56413 0.10472
 H3309 H 0.71724 0.50422 0.17660
 H3310 H 0.72307 0.49846 0.19730
 H3311 H 0.75053 0.52624 0.19706
 H3312 H 0.74458 0.53187 0.17638
 C3313 C 0.69863 1.03671 0.61818
 C3314 C 0.71073 1.03832 0.62134
 C3315 C 0.71848 1.04442 0.61338
 C3316 C 0.71412 1.04898 0.60236
 C3317 C 0.70194 1.04749 0.59914
 C3318 C 0.69425 1.04125 0.60717
 C3319 C 0.71511 1.03395 0.63285
 C3320 C 0.71865 1.03040 0.64258
 C3321 C 0.72266 1.02638 0.65407
 C3322 C 0.72598 1.02307 0.66397
 C3323 C 0.72980 1.01929 0.67590
 C3324 C 0.73942 1.02516 0.68163
 C3325 C 0.74284 1.02183 0.69341
 C3326 C 0.73666 1.01258 0.69963
 C3327 C 0.72709 1.00664 0.69371
 C3328 C 0.72369 1.00999 0.68193
 H3329 H 0.69253 1.03205 0.62430
 H3330 H 0.72787 1.04571 0.61573
 H3331 H 0.72030 1.05359 0.59633
 H3332 H 0.68480 1.04009 0.60507
 H3333 H 0.74419 1.03239 0.67705
 H3334 H 0.75023 1.02661 0.69767
 H3335 H 0.72212 0.99950 0.69821
 H3336 H 0.71621 1.00541 0.67758
 C3337 C 0.53108 0.20714 0.61295
 C3338 C 0.53886 0.21283 0.62117
 C3339 C 0.55105 0.21420 0.61823
 C3340 C 0.55547 0.20984 0.60716
 C3341 C 0.54774 0.20401 0.59887
 C3342 C 0.53548 0.20275 0.60187
 C3343 C 0.53443 0.21704 0.63273
 C3344 C 0.53085 0.22045 0.64249
 C3345 C 0.52680 0.22432 0.65403
 C3346 C 0.52346 0.22750 0.66396
 C3347 C 0.51964 0.23113 0.67593
 C3348 C 0.52550 0.24063 0.68191
 C3349 C 0.52212 0.24385 0.69373
 C3350 C 0.51281 0.23759 0.69974
 C3351 C 0.50687 0.22815 0.69357
 C3352 C 0.51027 0.22495 0.68176
 H3353 H 0.52162 0.20604 0.61513
 H3354 H 0.55717 0.21855 0.62455
 H3355 H 0.56497 0.21080 0.60523
 H3356 H 0.52927 0.19846 0.59563
 H3357 H 0.53278 0.24545 0.67748
 H3358 H 0.52690 0.25114 0.69818
 H3359 H 0.49968 0.22313 0.69791
 H3360 H 0.50569 0.21757 0.67722
 C3361 C 1.03261 0.20316 0.11500
 C3362 C 1.03872 0.21256 0.12081
 C3363 C 1.04906 0.21743 0.11549
 C3364 C 1.05337 0.21286 0.10446
 C3365 C 1.04743 0.20320 0.09847
 C3366 C 1.03686 0.19853 0.10397
 C3367 C 1.03456 0.21698 0.13238
 C3368 C 1.03116 0.22054 0.14217
 C3369 C 1.02728 0.22453 0.15372
 C3370 C 1.02406 0.22778 0.16367
 C3371 C 1.02033 0.23146 0.17565
 C3372 C 1.02629 0.24090 0.18161
 C3373 C 1.02298 0.24414 0.19345
 C3374 C 1.01365 0.23795 0.19950
 C3375 C 1.00761 0.22856 0.19335
 C3376 C 1.01094 0.22535 0.18152
 H3377 H 1.02455 0.19933 0.11903
 H3378 H 1.05388 0.22472 0.11993
 H3379 H 1.06149 0.21689 0.10090
 H3380 H 1.03171 0.19133 0.09989
 H3381 H 1.03359 0.24567 0.17716
 H3382 H 1.02784 0.25140 0.19789
 H3383 H 1.00040 0.22359 0.19772
 H3384 H 1.00628 0.21800 0.17700
 C3385 C 0.63569 0.21887 0.70741
 C3386 C 0.62782 0.21103 0.71347
 C3387 C 0.63100 0.19889 0.71506
 C3388 C 0.64196 0.19458 0.71053
 C3389 C 0.64989 0.20237 0.70432
 C3390 C 0.64665 0.21458 0.70286
 C3391 C 0.61637 0.21534 0.71780
 C3392 C 0.60669 0.21885 0.72130
 C3393 C 0.59526 0.22283 0.72524
 C3394 C 0.58541 0.22613 0.72846
 C3395 C 0.57356 0.22994 0.73213
 C3396 C 0.56752 0.22383 0.74147
 C3397 C 0.55581 0.22719 0.74470
 C3398 C 0.54995 0.23672 0.73860
 C3399 C 0.55618 0.24291 0.72933
 C3400 C 0.56789 0.23953 0.72613
 H3401 H 0.63332 0.22829 0.70614
 H3402 H 0.62495 0.19272 0.71968
 H3403 H 0.64408 0.18511 0.71166
 H3404 H 0.65261 0.22084 0.69827
 H3405 H 0.57181 0.21637 0.74616
 H3406 H 0.55130 0.22221 0.75186
 H3407 H 0.55197 0.25028 0.72444
 H3408 H 0.57248 0.24430 0.71887
 C3409 C 1.13226 0.19957 0.21510
 C3410 C 1.12916 0.21173 0.21357
 C3411 C 1.13718 0.21960 0.20776
 C3412 C 1.14823 0.21532 0.20342
 C3413 C 1.15140 0.20308 0.20483
 C3414 C 1.14330 0.19526 0.21078
 C3415 C 1.11764 0.21604 0.21771
 C3416 C 1.10791 0.21952 0.22108
 C3417 C 1.09642 0.22345 0.22489
 C3418 C 1.08653 0.22669 0.22803
 C3419 C 1.07463 0.23041 0.23165
 C3420 C 1.06893 0.23997 0.22563
 C3421 C 1.05720 0.24330 0.22882
 C3422 C 1.05099 0.23708 0.23808
 C3423 C 1.05687 0.22756 0.24417
 C3424 C 1.06860 0.22426 0.24096
 H3425 H 1.12610 0.19338 0.21953
 H3426 H 1.13488 0.22904 0.20653
 H3427 H 1.15431 0.22159 0.19902
 H3428 H 1.14536 0.18577 0.21186
 H3429 H 1.07350 0.24478 0.21839
 H3430 H 1.05296 0.25066 0.22393
 H3431 H 1.05238 0.22256 0.25133
 H3432 H 1.07293 0.21682 0.24566
 C3433 C 0.11847 0.69987 0.53471
 C3434 C 0.12155 0.71204 0.53624
 C3435 C 0.11347 0.71993 0.54192
 C3436 C 0.10238 0.71565 0.54616
 C3437 C 0.09922 0.70340 0.54476
 C3438 C 0.10738 0.69557 0.53893
 C3439 C 0.13312 0.71633 0.53220
 C3440 C 0.14290 0.71980 0.52893
 C3441 C 0.15443 0.72369 0.52521
 C3442 C 0.16436 0.72688 0.52213
 C3443 C 0.17630 0.73053 0.51859
 C3444 C 0.18208 0.74001 0.52468
 C3445 C 0.19385 0.74327 0.52154
 C3446 C 0.20002 0.73706 0.51224
 C3447 C 0.19407 0.72763 0.50608
 C3448 C 0.18230 0.72439 0.50925
 H3449 H 0.12468 0.69366 0.53038
 H3450 H 0.11576 0.72937 0.54314
 H3451 H 0.09625 0.72193 0.55046
 H3452 H 0.10533 0.68607 0.53786
 H3453 H 0.17753 0.74480 0.53194
 H3454 H 0.19814 0.75056 0.52648
 H3455 H 0.19853 0.72265 0.49890
 H3456 H 0.17792 0.71702 0.50449
 C3457 C 0.11834 0.19890 1.03500
 C3458 C 0.12124 0.21115 1.03628
 C3459 C 0.11310 0.21899 1.04196
 C3460 C 0.10215 0.21459 1.04643
 C3461 C 0.09919 0.20226 1.04529
 C3462 C 0.10740 0.19448 1.03946
 C3463 C 0.13268 0.21558 1.03203
 C3464 C 0.14236 0.21917 1.02859
 C3465 C 0.15379 0.22323 1.02472
 C3466 C 0.16364 0.22656 1.02155
 C3467 C 0.17551 0.23039 1.01793
 C3468 C 0.18129 0.23975 1.02419
 C3469 C 0.19302 0.24313 1.02103
 C3470 C 0.19915 0.23716 1.01155
 C3471 C 0.19317 0.22786 1.00521
 C3472 C 0.18144 0.22450 1.00839
 H3473 H 0.12460 0.19274 1.03067
 H3474 H 0.11525 0.22849 1.04298
 H3475 H 0.09598 0.22084 1.05073
 H3476 H 0.10550 0.18493 1.03859
 H3477 H 0.17678 0.24435 1.03161
 H3478 H 0.19732 0.25032 1.02612
 H3479 H 0.19760 0.22306 0.99788
 H3480 H 0.17706 0.21722 1.00350
 C3481 C 0.61334 0.52963 0.20830
 C3482 C 0.62142 0.53753 0.21398
 C3483 C 0.61834 0.54969 0.21552
 C3484 C 0.60726 0.55398 0.21131
 C3485 C 0.59910 0.54615 0.20547
 C3486 C 0.60225 0.53390 0.20407
 C3487 C 0.63300 0.53324 0.21800
 C3488 C 0.64278 0.52979 0.22125
 C3489 C 0.65432 0.52590 0.22494
 C3490 C 0.66426 0.52272 0.22799
 C3491 C 0.67621 0.51908 0.23149
 C3492 C 0.68224 0.52522 0.24080
 C3493 C 0.69402 0.52200 0.24391
 C3494 C 0.69995 0.51257 0.23773
 C3495 C 0.69374 0.50636 0.22846
 C3496 C 0.68196 0.50961 0.22537
 H3497 H 0.61563 0.52019 0.20707
 H3498 H 0.62456 0.55590 0.21986
 H3499 H 0.60521 0.56348 0.21238
 H3500 H 0.59612 0.52761 0.19976
 H3501 H 0.67788 0.53259 0.24558
 H3502 H 0.69851 0.52699 0.25108
 H3503 H 0.69801 0.49907 0.22350
 H3504 H 0.67738 0.50481 0.21812
 C3505 C 0.61387 1.03086 0.70766
 C3506 C 0.62186 1.03874 0.71350
 C3507 C 0.61876 1.05090 0.71501
 C3508 C 0.60774 1.05520 0.71065
 C3509 C 0.59966 1.04739 0.70467
 C3510 C 0.60284 1.03514 0.70327
 C3511 C 0.63337 1.03443 0.71769
 C3512 C 0.64309 1.03094 0.72110
 C3513 C 0.65456 1.02699 0.72496
 C3514 C 0.66443 1.02374 0.72814
 C3515 C 0.67632 1.01999 0.73177
 C3516 C 0.68233 1.02610 0.74111
 C3517 C 0.69406 1.02278 0.74433
 C3518 C 0.69994 1.01328 0.73822
 C3519 C 0.69374 1.00709 0.72892
 C3520 C 0.68202 1.01044 0.72573
 H3521 H 0.61617 1.02142 0.70644
 H3522 H 0.62491 1.05709 0.71947
 H3523 H 0.60567 1.06470 0.71172
 H3524 H 0.59677 1.02887 0.69886
 H3525 H 0.67801 1.03353 0.74583
 H3526 H 0.69854 1.02775 0.75151
 H3527 H 0.69798 0.99975 0.72401
 H3528 H 0.67745 1.00567 0.71846
 C3529 C 0.88343 0.46672 0.29607
 C3530 C 0.87538 0.45904 0.29004
 C3531 C 0.87828 0.44684 0.28845
 C3532 C 0.88917 0.44230 0.29292
 C3533 C 0.89730 0.44992 0.29906
 C3534 C 0.89432 0.46220 0.30055
 C3535 C 0.86405 0.46362 0.28565
 C3536 C 0.85449 0.46733 0.28203
 C3537 C 0.84323 0.47155 0.27787
 C3538 C 0.83354 0.47505 0.27439
 C3539 C 0.82190 0.47909 0.27031
 C3540 C 0.81610 0.47312 0.26074
 C3541 C 0.80464 0.47682 0.25699
 C3542 C 0.79883 0.48656 0.26277
 C3543 C 0.80480 0.49256 0.27234
 C3544 C 0.81625 0.48884 0.27607
 H3545 H 0.88128 0.47619 0.29733
 H3546 H 0.87209 0.44080 0.28385
 H3547 H 0.89109 0.43278 0.29177
 H3548 H 0.90045 0.46833 0.30509
 H3549 H 0.82038 0.46554 0.25624
 H3550 H 0.80032 0.47196 0.24963
 H3551 H 0.80059 0.50007 0.27702
 H3552 H 0.82066 0.49351 0.28351
 C3553 C 0.87926 0.96209 0.80154
 C3554 C 0.87603 0.96047 0.78935
 C3555 C 0.88384 0.95439 0.78145
 C3556 C 0.89482 0.94989 0.78574
 C3557 C 0.89814 0.95143 0.79801
 C3558 C 0.89023 0.95762 0.80585
 C3559 C 0.86461 0.96489 0.78501
 C3560 C 0.85499 0.96852 0.78149
 C3561 C 0.84365 0.97269 0.77749
 C3562 C 0.83390 0.97616 0.77415
 C3563 C 0.82219 0.98018 0.77026
 C3564 C 0.81644 0.97449 0.76049
 C3565 C 0.80491 0.97815 0.75692
 C3566 C 0.79897 0.98757 0.76310
 C3567 C 0.80489 0.99331 0.77286
 C3568 C 0.81641 0.98962 0.77640
 H3569 H 0.87325 0.96674 0.80775
 H3570 H 0.88143 0.95309 0.77199
 H3571 H 0.90076 0.94531 0.77944
 H3572 H 0.89240 0.95881 0.81537
 H3573 H 0.82082 0.96715 0.75569
 H3574 H 0.80064 0.97351 0.74940
 H3575 H 0.80058 1.00056 0.77784
 H3576 H 0.82077 0.99408 0.78400
 C3577 C 0.37158 0.30307 0.78847
 C3578 C 0.37439 0.29083 0.79002
 C3579 C 0.36620 0.28317 0.79589
 C3580 C 0.35528 0.28774 0.80025
 C3581 C 0.35239 0.30005 0.79880
 C3582 C 0.36066 0.30765 0.79281
 C3583 C 0.38574 0.28621 0.78576
 C3584 C 0.39532 0.28245 0.78224
 C3585 C 0.40661 0.27818 0.77819
 C3586 C 0.41631 0.27465 0.77479
 C3587 C 0.42797 0.27057 0.77079
 C3588 C 0.43358 0.26083 0.77661
 C3589 C 0.44504 0.25708 0.77294
 C3590 C 0.45107 0.26303 0.76338
 C3591 C 0.44529 0.27276 0.75753
 C3592 C 0.43382 0.27649 0.76122
 H3593 H 0.37787 0.30909 0.78399
 H3594 H 0.36827 0.27368 0.79712
 H3595 H 0.34905 0.28162 0.80467
 H3596 H 0.35882 0.31718 0.79170
 H3597 H 0.42913 0.25620 0.78405
 H3598 H 0.44922 0.24959 0.77768
 H3599 H 0.44965 0.27757 0.75016
 H3600 H 0.42957 0.28405 0.75667
 C3601 C 0.86704 0.29609 0.28168
 C3602 C 0.87495 0.29014 0.28958
 C3603 C 0.87178 0.28852 0.30179
 C3604 C 0.86076 0.29286 0.30612
 C3605 C 0.85275 0.29892 0.29828
 C3606 C 0.85601 0.30045 0.28599
 C3607 C 0.88641 0.28586 0.28522
 C3608 C 0.89607 0.28233 0.28168
 C3609 C 0.90743 0.27828 0.27764
 C3610 C 0.91720 0.27487 0.27428
 C3611 C 0.92892 0.27089 0.27037
 C3612 C 0.93453 0.26117 0.27620
 C3613 C 0.94604 0.25747 0.27260
 C3614 C 0.95210 0.26347 0.26310
 C3615 C 0.94633 0.27321 0.25724
 C3616 C 0.93482 0.27688 0.26086
 H3617 H 0.86940 0.29738 0.27221
 H3618 H 0.87786 0.28397 0.30800
 H3619 H 0.85862 0.29169 0.31565
 H3620 H 0.85000 0.30493 0.27969
 H3621 H 0.93005 0.25649 0.28358
 H3622 H 0.95020 0.24997 0.27733
 H3623 H 0.95072 0.27806 0.24992
 H3624 H 0.93057 0.28444 0.25630
 C3625 C 0.38340 0.78367 0.45368
 C3626 C 0.37530 0.79129 0.45970
 C3627 C 0.37812 0.80352 0.46125
 C3628 C 0.38896 0.80814 0.45675
 C3629 C 0.39715 0.80058 0.45061
 C3630 C 0.39425 0.78827 0.44916
 C3631 C 0.36402 0.78662 0.46414
 C3632 C 0.35450 0.78282 0.46779
 C3633 C 0.34328 0.77850 0.47199
 C3634 C 0.33363 0.77491 0.47551
 C3635 C 0.32203 0.77077 0.47962
 C3636 C 0.31623 0.77665 0.48925
 C3637 C 0.30480 0.77287 0.49301
 C3638 C 0.29900 0.76314 0.48718
 C3639 C 0.30497 0.75722 0.47757
 C3640 C 0.31640 0.76102 0.47382
 H3641 H 0.38132 0.77417 0.45244
 H3642 H 0.37189 0.80951 0.46586
 H3643 H 0.39082 0.81768 0.45787
 H3644 H 0.40041 0.78218 0.44462
 H3645 H 0.32050 0.78422 0.49378
 H3646 H 0.30048 0.77767 0.50041
 H3647 H 0.30077 0.74973 0.47284
 H3648 H 0.32080 0.75642 0.46634
 C3649 C 0.38306 0.28296 0.95408
 C3650 C 0.37492 0.29062 0.96000
 C3651 C 0.37777 0.30284 0.96158
 C3652 C 0.38868 0.30742 0.95722
 C3653 C 0.39691 0.29982 0.95118
 C3654 C 0.39399 0.28752 0.94970
 C3655 C 0.36356 0.28600 0.96429
 C3656 C 0.35398 0.28224 0.96782
 C3657 C 0.34269 0.27798 0.97189
 C3658 C 0.33298 0.27445 0.97529
 C3659 C 0.32131 0.27039 0.97928
 C3660 C 0.31560 0.27611 0.98905
 C3661 C 0.30410 0.27243 0.99271
 C3662 C 0.29815 0.26295 0.98661
 C3663 C 0.30403 0.25719 0.97685
 C3664 C 0.31553 0.26089 0.97322
 H3665 H 0.38096 0.27348 0.95282
 H3666 H 0.37150 0.30886 0.96611
 H3667 H 0.39056 0.31695 0.95836
 H3668 H 0.40018 0.28141 0.94524
 H3669 H 0.31998 0.28349 0.99379
 H3670 H 0.29985 0.27709 1.00023
 H3671 H 0.29972 0.24989 0.97193
 H3672 H 0.31986 0.25642 0.96562
 C3673 C 0.80238 0.46206 0.37946
 C3674 C 0.79019 0.46062 0.37656
 C3675 C 0.78244 0.45499 0.38485
 C3676 C 0.78686 0.45075 0.39597
 C3677 C 0.79912 0.45210 0.39896
 C3678 C 0.80682 0.45784 0.39058
 C3679 C 0.78571 0.46477 0.36500
 C3680 C 0.78207 0.46818 0.35526
 C3681 C 0.77793 0.47211 0.34378
 C3682 C 0.77450 0.47542 0.33392
 C3683 C 0.77054 0.47931 0.32208
 C3684 C 0.76112 0.47325 0.31621
 C3685 C 0.75748 0.47683 0.30457
 C3686 C 0.76324 0.48653 0.29864
 C3687 C 0.77265 0.49261 0.30468
 C3688 C 0.77627 0.48901 0.31631
 H3689 H 0.80848 0.46636 0.37309
 H3690 H 0.77298 0.45385 0.38271
 H3691 H 0.78067 0.44652 0.40228
 H3692 H 0.81633 0.45887 0.39250
 H3693 H 0.75664 0.46571 0.32058
 H3694 H 0.75023 0.47192 0.30020
 H3695 H 0.77731 0.50009 0.30039
 H3696 H 0.78359 0.49374 0.32077
 C3697 C 0.79618 0.96760 0.88471
 C3698 C 0.79036 0.95972 0.87667
 C3699 C 0.78885 0.94756 0.87983
 C3700 C 0.79318 0.94327 0.89096
 C3701 C 0.79911 0.95109 0.89910
 C3702 C 0.80053 0.96332 0.89585
 C3703 C 0.78608 0.96405 0.86510
 C3704 C 0.78255 0.96760 0.85535
 C3705 C 0.77850 0.97166 0.84389
 C3706 C 0.77509 0.97506 0.83405
 C3707 C 0.77111 0.97905 0.82225
 C3708 C 0.76138 0.97334 0.81655
 C3709 C 0.75766 0.97704 0.80498
 C3710 C 0.76365 0.98654 0.79894
 C3711 C 0.77339 0.99226 0.80480
 C3712 C 0.77709 0.98853 0.81636
 H3713 H 0.79739 0.97703 0.88237
 H3714 H 0.78440 0.94137 0.87364
 H3715 H 0.79208 0.93378 0.89308
 H3716 H 0.80491 0.96961 0.90197
 H3717 H 0.75671 0.96597 0.82102
 H3718 H 0.75015 0.97241 0.80075
 H3719 H 0.77823 0.99957 0.80042
 H3720 H 0.78465 0.99300 0.82069
 C3721 C 0.30341 0.78888 0.37102
 C3722 C 0.29123 0.79033 0.37396
 C3723 C 0.28353 0.79622 0.36581
 C3724 C 0.28799 0.80070 0.35480
 C3725 C 0.30024 0.79934 0.35178
 C3726 C 0.30789 0.79334 0.36002
 C3727 C 0.28671 0.78595 0.38542
 C3728 C 0.28303 0.78235 0.39508
 C3729 C 0.27883 0.77821 0.40646
 C3730 C 0.27534 0.77474 0.41624
 C3731 C 0.27128 0.77070 0.42800
 C3732 C 0.26164 0.77650 0.43374
 C3733 C 0.25790 0.77280 0.44530
 C3734 C 0.26378 0.76321 0.45129
 C3735 C 0.27342 0.75738 0.44538
 C3736 C 0.27713 0.76111 0.43382
 H3737 H 0.30947 0.78438 0.37729
 H3738 H 0.27408 0.79737 0.36799
 H3739 H 0.28184 0.80512 0.34860
 H3740 H 0.31739 0.79230 0.35807
 H3741 H 0.25706 0.78396 0.42932
 H3742 H 0.25048 0.77752 0.44958
 H3743 H 0.27818 0.75000 0.44972
 H3744 H 0.28463 0.75657 0.42946
 C3745 C 0.28257 0.29696 0.86522
 C3746 C 0.29013 0.29103 0.87348
 C3747 C 0.30235 0.28953 0.87073
 C3748 C 0.30701 0.29398 0.85979
 C3749 C 0.29951 0.30002 0.85145
 C3750 C 0.28722 0.30143 0.85428
 C3751 C 0.28543 0.28664 0.88486
 C3752 C 0.28161 0.28301 0.89446
 C3753 C 0.27729 0.27883 0.90578
 C3754 C 0.27372 0.27532 0.91552
 C3755 C 0.26962 0.27121 0.92723
 C3756 C 0.27531 0.26144 0.93291
 C3757 C 0.27160 0.25767 0.94446
 C3758 C 0.26212 0.26363 0.95050
 C3759 C 0.25638 0.27337 0.94464
 C3760 C 0.26011 0.27713 0.93309
 H3761 H 0.27310 0.29815 0.86725
 H3762 H 0.30829 0.28500 0.87708
 H3763 H 0.31653 0.29290 0.85799
 H3764 H 0.28118 0.30588 0.84800
 H3765 H 0.28270 0.25681 0.92847
 H3766 H 0.27625 0.25016 0.94869
 H3767 H 0.24908 0.27820 0.94902
 H3768 H 0.25566 0.28472 0.92878
 C3769 C 0.46050 0.30291 0.87942
 C3770 C 0.45898 0.29070 0.87650
 C3771 C 0.45297 0.28303 0.88461
 C3772 C 0.44845 0.28756 0.89557
 C3773 C 0.44988 0.29985 0.89858
 C3774 C 0.45599 0.30747 0.89038
 C3775 C 0.46343 0.28611 0.86510
 C3776 C 0.46709 0.28238 0.85548
 C3777 C 0.47129 0.27815 0.84414
 C3778 C 0.47481 0.27464 0.83438
 C3779 C 0.47891 0.27058 0.82265
 C3780 C 0.47320 0.26085 0.81690
 C3781 C 0.47694 0.25713 0.80534
 C3782 C 0.48645 0.26312 0.79935
 C3783 C 0.49220 0.27283 0.80528
 C3784 C 0.48844 0.27652 0.81684
 H3785 H 0.46509 0.30895 0.87319
 H3786 H 0.45176 0.27355 0.88245
 H3787 H 0.44393 0.28143 0.90174
 H3788 H 0.45710 0.31699 0.89231
 H3789 H 0.46580 0.25621 0.82130
 H3790 H 0.47228 0.24965 0.80105
 H3791 H 0.49952 0.27766 0.80095
 H3792 H 0.49291 0.28408 0.82120
 C3793 C 0.95480 0.28256 0.38489
 C3794 C 0.96046 0.29040 0.37670
 C3795 C 0.96170 0.30265 0.37962
 C3796 C 0.95726 0.30706 0.39065
 C3797 C 0.95147 0.29928 0.39893
 C3798 C 0.95033 0.28696 0.39594
 C3799 C 0.96482 0.28594 0.36521
 C3800 C 0.96841 0.28231 0.35552
 C3801 C 0.97252 0.27818 0.34410
 C3802 C 0.97595 0.27474 0.33429
 C3803 C 0.97996 0.27074 0.32251
 C3804 C 0.98963 0.27654 0.31677
 C3805 C 0.99333 0.27287 0.30519
 C3806 C 0.98739 0.26334 0.29916
 C3807 C 0.97773 0.25752 0.30505
 C3808 C 0.97405 0.26121 0.31664
 H3809 H 0.95380 0.27305 0.38273
 H3810 H 0.96603 0.30881 0.37331
 H3811 H 0.95813 0.31661 0.39258
 H3812 H 0.94607 0.28070 0.40217
 H3813 H 0.99425 0.28395 0.32122
 H3814 H 1.00077 0.27758 0.30092
 H3815 H 0.97293 0.25018 0.30069
 H3816 H 0.96654 0.25667 0.32099
 C3817 C 0.46567 0.38341 0.79596
 C3818 C 0.45801 0.37535 0.78993
 C3819 C 0.44582 0.37824 0.78845
 C3820 C 0.44130 0.38912 0.79304
 C3821 C 0.44891 0.39726 0.79919
 C3822 C 0.46117 0.39429 0.80056
 C3823 C 0.46257 0.36401 0.78544
 C3824 C 0.46632 0.35446 0.78177
 C3825 C 0.47061 0.34319 0.77758
 C3826 C 0.47419 0.33350 0.77410
 C3827 C 0.47836 0.32185 0.77006
 C3828 C 0.47258 0.31597 0.76042
 C3829 C 0.47637 0.30448 0.75675
 C3830 C 0.48603 0.29871 0.76269
 C3831 C 0.49185 0.30476 0.77231
 C3832 C 0.48803 0.31625 0.77596
 H3833 H 0.47512 0.38127 0.79714
 H3834 H 0.43980 0.37204 0.78384
 H3835 H 0.43180 0.39103 0.79197
 H3836 H 0.46729 0.40042 0.80510
 H3837 H 0.46506 0.32021 0.75581
 H3838 H 0.47166 0.30009 0.74935
 H3839 H 0.49928 0.30059 0.77712
 H3840 H 0.49256 0.32071 0.78346
 C3841 C 0.94727 0.37847 0.28840
 C3842 C 0.95947 0.37570 0.28997
 C3843 C 0.96702 0.38387 0.29601
 C3844 C 0.96238 0.39473 0.30052
 C3845 C 0.95011 0.39758 0.29904
 C3846 C 0.94262 0.38933 0.29289
 C3847 C 0.96415 0.36439 0.28555
 C3848 C 0.96795 0.35485 0.28192
 C3849 C 0.97225 0.34358 0.27774
 C3850 C 0.97580 0.33389 0.27425
 C3851 C 0.97990 0.32223 0.27018
 C3852 C 0.98950 0.31652 0.27608
 C3853 C 0.99323 0.30502 0.27240
 C3854 C 0.98738 0.29905 0.26273
 C3855 C 0.97780 0.30493 0.25679
 C3856 C 0.97409 0.31644 0.26050
 H3857 H 0.94133 0.37219 0.28378
 H3858 H 0.97648 0.38182 0.29727
 H3859 H 0.96842 0.40094 0.30507
 H3860 H 0.93311 0.39114 0.29175
 H3861 H 0.99404 0.32091 0.28361
 H3862 H 1.00061 0.30076 0.27720
 H3863 H 0.97306 0.30062 0.24935
 H3864 H 0.96662 0.32076 0.25588
 C3865 C 0.28395 0.88380 0.45506
 C3866 C 0.29166 0.87569 0.46095
 C3867 C 0.30386 0.87858 0.46235
 C3868 C 0.30835 0.88950 0.45781
 C3869 C 0.30069 0.89768 0.45179
 C3870 C 0.28842 0.89472 0.45051
 C3871 C 0.28713 0.86432 0.46538
 C3872 C 0.28343 0.85472 0.46900
 C3873 C 0.27919 0.84341 0.47313
 C3874 C 0.27567 0.83369 0.47657
 C3875 C 0.27156 0.82200 0.48056
 C3876 C 0.27738 0.81612 0.49018
 C3877 C 0.27364 0.80460 0.49382
 C3878 C 0.26400 0.79879 0.48787
 C3879 C 0.25814 0.80484 0.47828
 C3880 C 0.26191 0.81636 0.47466
 H3881 H 0.27448 0.88166 0.45394
 H3882 H 0.30992 0.87234 0.46685
 H3883 H 0.31785 0.89140 0.45881
 H3884 H 0.28226 0.90088 0.44607
 H3885 H 0.28489 0.82039 0.49479
 H3886 H 0.27838 0.80021 0.50121
 H3887 H 0.25072 0.80065 0.47347
 H3888 H 0.25736 0.82082 0.46718
 C3889 C 0.30344 0.37808 0.96102
 C3890 C 0.29124 0.37531 0.95946
 C3891 C 0.28367 0.38352 0.95352
 C3892 C 0.28829 0.39442 0.94908
 C3893 C 0.30057 0.39727 0.95053
 C3894 C 0.30808 0.38898 0.95659
 C3895 C 0.28656 0.36397 0.96381
 C3896 C 0.28274 0.35441 0.96738
 C3897 C 0.27838 0.34314 0.97149
 C3898 C 0.27477 0.33345 0.97494
 C3899 C 0.27059 0.32180 0.97898
 C3900 C 0.26116 0.31601 0.97286
 C3901 C 0.25732 0.30455 0.97657
 C3902 C 0.26289 0.29870 0.98647
 C3903 C 0.27231 0.30466 0.99262
 C3904 C 0.27612 0.31612 0.98889
 H3905 H 0.30940 0.37178 0.96556
 H3906 H 0.27420 0.38147 0.95228
 H3907 H 0.28224 0.40066 0.94460
 H3908 H 0.31760 0.39080 0.95771
 H3909 H 0.25683 0.32032 0.96517
 H3910 H 0.25007 0.30023 0.97160
 H3911 H 0.27682 0.30043 1.00025
 H3912 H 0.28345 0.32051 0.99367
 C3913 C 0.78352 0.36546 0.29403
 C3914 C 0.79131 0.37369 0.28839
 C3915 C 0.80353 0.37087 0.28714
 C3916 C 0.80798 0.35990 0.29157
 C3917 C 0.80025 0.35159 0.29734
 C3918 C 0.78795 0.35449 0.29848
 C3919 C 0.78681 0.38511 0.28405
 C3920 C 0.78313 0.39473 0.28050
 C3921 C 0.77893 0.40608 0.27644
 C3922 C 0.77543 0.41583 0.27306
 C3923 C 0.77136 0.42754 0.26912
 C3924 C 0.77721 0.43346 0.25954
 C3925 C 0.77348 0.44499 0.25593
 C3926 C 0.76385 0.45078 0.26189
 C3927 C 0.75797 0.44470 0.27146
 C3928 C 0.76172 0.43317 0.27504
 H3929 H 0.77404 0.36754 0.29503
 H3930 H 0.80964 0.37719 0.28283
 H3931 H 0.81751 0.35804 0.29069
 H3932 H 0.78174 0.34823 0.30272
 H3933 H 0.78470 0.42919 0.25491
 H3934 H 0.77824 0.44939 0.24856
 H3935 H 0.75055 0.44888 0.27627
 H3936 H 0.75715 0.42868 0.28249
   
