data_POSCAR
  _audit_creation_date              2014-09-24
  _audit_creation_method            'ToBaCCo'
  _symmetry_space_group_name_H-M    'P1'
  _symmetry_Int_Tables_number       1
  _symmetry_cell_setting            triclinic
  loop_
  _symmetry_equiv_pos_as_xyz
 x,y,z
_cell_length_a 53.1499
_cell_length_b 53.0365
_cell_length_c 46.6340
_cell_angle_alpha 90.839300
_cell_angle_beta 89.595100
_cell_angle_gamma 90.345000
loop_
  _atom_site_label
  _atom_site_type_symbol
  _atom_site_fract_x
  _atom_site_fract_y
  _atom_site_fract_z
C1 C 0.38550 0.02905 0.27657
 H2 H 0.38729 0.03766 0.25576
 C3 C 0.40030 0.03775 0.29941
 H4 H 0.41367 0.05297 0.29624
 C5 C 0.36602 -0.00142 0.30625
 H6 H 0.35243 -0.01640 0.30904
 C7 C 0.38030 0.00673 0.32958
 H8 H 0.37794 -0.00233 0.35011
 N9 N 0.36920 0.00941 0.28022
 C10 C 0.36020 -0.02271 0.19427
 H11 H 0.33988 -0.02306 0.19293
 C12 C 0.37476 -0.03108 0.17103
 H13 H 0.36565 -0.03748 0.15150
 C14 C 0.39693 -0.01335 0.22108
 H15 H 0.40551 -0.00671 0.24071
 C16 C 0.41220 -0.02153 0.19829
 H17 H 0.43249 -0.02051 0.20018
 Zn18 Zn 0.35002 -0.00228 0.24857
 N19 N 0.37142 -0.01353 0.21841
 C20 C 0.33325 0.03579 0.21079
 N21 N 0.32999 0.02498 0.23688
 C22 C 0.31413 0.03508 0.25691
 C23 C 0.30121 0.05727 0.25133
 C24 C 0.32073 0.05811 0.20438
 C25 C 0.34278 -0.05109 0.26704
 C26 C 0.32997 -0.07339 0.27309
 C27 C 0.29079 -0.05260 0.26253
 C28 C 0.30441 -0.03052 0.25686
 N29 N 0.32996 -0.03026 0.25906
 H30 H 0.34644 0.02786 0.19548
 H31 H 0.31231 0.02638 0.27767
 H32 H 0.28944 0.06573 0.26787
 H33 H 0.32428 0.06726 0.18412
 H34 H 0.36310 -0.05044 0.26811
 H35 H 0.34059 -0.08999 0.27869
 H36 H 0.27056 -0.05290 0.25977
 H37 H 0.29465 -0.01394 0.24979
 C38 C 0.40100 -0.03024 0.17295
 C39 C 0.39776 0.02629 0.32609
 C40 C 0.30376 -0.07430 0.27052
 C41 C 0.30487 0.06913 0.22503
 C42 C 0.11819 0.03325 0.71772
 H43 H 0.11665 0.04234 0.73858
 C44 C 0.10298 0.04108 0.69519
 H45 H 0.08955 0.05612 0.69864
 C46 C 0.13725 0.00220 0.68772
 H47 H 0.15076 -0.01274 0.68474
 C48 C 0.12257 0.00950 0.66469
 H49 H 0.12456 -0.00016 0.64417
 N50 N 0.13440 0.01366 0.71380
 C51 C 0.14264 -0.01655 0.79959
 H52 H 0.16293 -0.01649 0.80137
 C53 C 0.12775 -0.02500 0.82233
 H54 H 0.13656 -0.03101 0.84194
 C55 C 0.10631 -0.00845 0.77203
 H56 H 0.09800 -0.00241 0.75225
 C57 C 0.09072 -0.01674 0.79428
 H58 H 0.07047 -0.01634 0.79187
 Zn59 Zn 0.15344 0.00260 0.74535
 N60 N 0.13176 -0.00800 0.77529
 C61 C 0.17076 0.04157 0.78321
 N62 N 0.17397 0.03001 0.75719
 C63 C 0.19018 0.03943 0.73729
 C64 C 0.20349 0.06169 0.74292
 C65 C 0.18366 0.06398 0.78968
 C66 C 0.15956 -0.04666 0.72681
 C67 C 0.17178 -0.06937 0.72117
 C68 C 0.21142 -0.04893 0.73208
 C69 C 0.19841 -0.02642 0.73736
 N70 N 0.17291 -0.02581 0.73482
 H71 H 0.15730 0.03415 0.79843
 H72 H 0.19197 0.03014 0.71657
 H73 H 0.21555 0.06959 0.72647
 H74 H 0.18015 0.07371 0.80988
 H75 H 0.13927 -0.04574 0.72552
 H76 H 0.16085 -0.08603 0.71561
 H77 H 0.23158 -0.04961 0.73512
 H78 H 0.20858 -0.00980 0.74447
 C79 C 0.10155 -0.02492 0.81972
 C80 C 0.10505 0.02884 0.66853
 C81 C 0.19788 -0.07063 0.72416
 C82 C 0.19988 0.07432 0.76915
 C83 C 0.61800 0.53253 0.22649
 H84 H 0.61656 0.54180 0.24725
 C85 C 0.60272 0.54022 0.20391
 H86 H 0.58937 0.55535 0.20726
 C87 C 0.63701 0.50136 0.19664
 H88 H 0.65060 0.48649 0.19365
 C89 C 0.62224 0.50850 0.17359
 H90 H 0.62427 0.49878 0.15311
 N91 N 0.63432 0.51301 0.22265
 C92 C 0.64460 0.48383 0.30913
 H93 H 0.66489 0.48428 0.31068
 C94 C 0.63005 0.47522 0.33214
 H95 H 0.63910 0.46941 0.35169
 C96 C 0.60789 0.49093 0.28183
 H97 H 0.59931 0.49659 0.26205
 C98 C 0.59270 0.48240 0.30425
 H99 H 0.57243 0.48214 0.30188
 Zn100 Zn 0.65415 0.50239 0.25397
 N101 N 0.63334 0.49188 0.28479
 C102 C 0.67208 0.54164 0.29097
 N103 N 0.67476 0.52999 0.26492
 C104 C 0.69044 0.53941 0.24448
 C105 C 0.70376 0.56175 0.24962
 C106 C 0.68502 0.56412 0.29695
 C107 C 0.66003 0.45310 0.23576
 C108 C 0.67219 0.43055 0.22920
 C109 C 0.71210 0.45128 0.23789
 C110 C 0.69914 0.47364 0.24414
 N111 N 0.67354 0.47405 0.24305
 H112 H 0.65901 0.53423 0.30662
 H113 H 0.69178 0.53006 0.22376
 H114 H 0.71537 0.56966 0.23276
 H115 H 0.68192 0.57392 0.31720
 H116 H 0.63970 0.45388 0.23557
 H117 H 0.66118 0.41384 0.22408
 H118 H 0.73240 0.45078 0.23962
 H119 H 0.70947 0.49034 0.25066
 C120 C 0.60385 0.47459 0.32967
 C121 C 0.60476 0.52789 0.17728
 C122 C 0.69841 0.42954 0.23052
 C123 C 0.70070 0.57444 0.27589
 C124 C 0.88718 0.52449 0.78754
 H125 H 0.88810 0.53305 0.76664
 C126 C 0.90219 0.53388 0.80985
 H127 H 0.91484 0.54961 0.80612
 C128 C 0.86959 0.49347 0.81799
 H129 H 0.85664 0.47801 0.82126
 C130 C 0.88413 0.50228 0.84081
 H131 H 0.88254 0.49323 0.86145
 N132 N 0.87168 0.50430 0.79183
 C133 C 0.86156 0.47111 0.70658
 H134 H 0.84123 0.47011 0.70587
 C135 C 0.87582 0.46310 0.68293
 H136 H 0.86645 0.45630 0.66374
 C137 C 0.89861 0.48189 0.73213
 H138 H 0.90745 0.48900 0.75141
 C139 C 0.91359 0.47410 0.70892
 H140 H 0.93387 0.47586 0.71014
 Zn141 Zn 0.85207 0.49196 0.76086
 N142 N 0.87306 0.48086 0.73026
 C143 C 0.83339 0.52899 0.72290
 N144 N 0.83128 0.51869 0.74940
 C145 C 0.81581 0.52881 0.76981
 C146 C 0.80207 0.55048 0.76418
 C147 C 0.82001 0.55077 0.71641
 C148 C 0.84548 0.44304 0.77986
 C149 C 0.83276 0.42066 0.78584
 C150 C 0.79347 0.44136 0.77576
 C151 C 0.80695 0.46349 0.77011
 N152 N 0.83252 0.46384 0.77205
 H153 H 0.84626 0.52105 0.70723
 H154 H 0.81489 0.52051 0.79085
 H155 H 0.79061 0.55898 0.78097
 H156 H 0.82263 0.55954 0.69575
 H157 H 0.86581 0.44372 0.78065
 H158 H 0.84335 0.40398 0.79113
 H159 H 0.77325 0.44087 0.77309
 H160 H 0.79706 0.48001 0.76312
 C161 C 0.90206 0.46489 0.68399
 C162 C 0.90074 0.52251 0.83669
 C163 C 0.80657 0.41970 0.78343
 C164 C 0.80450 0.56179 0.73740
 C165 C 0.22387 0.43802 0.97532
 H166 H 0.24101 0.44025 0.96293
 C167 C 0.20233 0.45170 0.96818
 H168 H 0.20284 0.46459 0.95038
 C169 C 0.20172 0.41790 1.01299
 H170 H 0.20108 0.40430 1.02992
 C171 C 0.18001 0.43111 1.00668
 H172 H 0.16302 0.42778 1.01909
 N173 N 0.22322 0.42165 0.99760
 C174 C 0.29878 0.40936 1.03043
 H175 H 0.29745 0.38918 1.03321
 C176 C 0.32099 0.42208 1.03732
 H177 H 0.33690 0.41163 1.04522
 C178 C 0.28013 0.44740 1.01524
 H179 H 0.26424 0.45711 1.00638
 C180 C 0.30215 0.46086 1.02171
 H181 H 0.30330 0.48086 1.01742
 Zn182 Zn 0.25158 0.40181 1.00695
 N183 N 0.27918 0.42197 1.01889
 C184 C 0.28488 0.38294 0.96370
 N185 N 0.26090 0.38234 0.97422
 C186 C 0.24277 0.36802 0.96138
 C187 C 0.24856 0.35317 0.93731
 C188 C 0.29147 0.36838 0.93960
 C189 C 0.23865 0.39150 1.06371
 C190 C 0.23147 0.37703 1.08716
 C191 C 0.23389 0.33968 1.05698
 C192 C 0.24098 0.35486 1.03402
 N193 N 0.24295 0.38033 1.03770
 H194 H 0.29893 0.39479 0.97382
 H195 H 0.22379 0.36815 0.96993
 H196 H 0.23396 0.34193 0.92714
 H197 H 0.31051 0.36910 0.93120
 H198 H 0.24060 0.41174 1.06609
 H199 H 0.22824 0.38608 1.10783
 H200 H 0.23260 0.31941 1.05401
 H201 H 0.24497 0.34624 1.01340
 C202 C 0.32290 0.44795 1.03237
 C203 C 0.18022 0.44813 0.98414
 C204 C 0.22896 0.35091 1.08372
 C205 C 0.27314 0.35330 0.92637
 C206 C 0.77766 0.06304 0.96717
 H207 H 0.76091 0.06168 0.95417
 C208 C 0.79935 0.04968 0.95905
 H209 H 0.79929 0.03795 0.93984
 C210 C 0.79874 0.08082 1.00735
 H211 H 0.79893 0.09340 1.02569
 C212 C 0.82056 0.06783 1.00018
 H213 H 0.83717 0.07042 1.01331
 N214 N 0.77776 0.07821 0.99103
 C215 C 0.70204 0.09024 1.02503
 H216 H 0.70353 0.11024 1.02967
 C217 C 0.67949 0.07753 1.03032
 H218 H 0.66354 0.08775 1.03910
 C219 C 0.72052 0.05282 1.00622
 H220 H 0.73640 0.04341 0.99637
 C221 C 0.69821 0.03939 1.01110
 H222 H 0.69693 0.01967 1.00485
 Zn223 Zn 0.74938 0.09810 1.00123
 N224 N 0.72172 0.07795 1.01246
 C225 C 0.71605 0.11624 0.95913
 N226 N 0.74008 0.11719 0.96909
 C227 C 0.75809 0.13129 0.95591
 C228 C 0.75209 0.14554 0.93202
 C229 C 0.70926 0.13019 0.93526
 C230 C 0.76130 0.10891 1.05833
 C231 C 0.76890 0.12346 1.08190
 C232 C 0.76860 0.16035 1.05208
 C233 C 0.76103 0.14508 1.02899
 N234 N 0.75789 0.11979 1.03241
 H235 H 0.70211 0.10453 0.96943
 H236 H 0.77713 0.13137 0.96397
 H237 H 0.76657 0.15660 0.92152
 H238 H 0.69018 0.12917 0.92729
 H239 H 0.75846 0.08881 1.06050
 H240 H 0.77156 0.11463 1.10245
 H241 H 0.77096 0.18047 1.04929
 H242 H 0.75779 0.15349 1.00843
 C243 C 0.67739 0.05203 1.02270
 C244 C 0.82101 0.05223 0.97580
 C245 C 0.77277 0.14937 1.07868
 C246 C 0.72745 0.14500 0.92166
 C247 C 0.27152 0.56663 0.46396
 H248 H 0.25456 0.56433 0.45147
 C249 C 0.29303 0.55259 0.45684
 H250 H 0.29270 0.53939 0.43890
 C251 C 0.29316 0.58706 0.50212
 H252 H 0.29362 0.60088 0.51927
 C253 C 0.31484 0.57352 0.49582
 H254 H 0.33162 0.57683 0.50844
 N255 N 0.27188 0.58321 0.48660
 C256 C 0.19506 0.59405 0.51815
 H257 H 0.19554 0.61430 0.52131
 C258 C 0.17303 0.58059 0.52390
 H259 H 0.15643 0.59048 0.53145
 C260 C 0.21583 0.55653 0.50336
 H261 H 0.23250 0.54725 0.49526
 C262 C 0.19411 0.54233 0.50879
 H263 H 0.19403 0.52219 0.50456
 Zn264 Zn 0.24321 0.60270 0.49684
 N265 N 0.21565 0.58202 0.50731
 C266 C 0.21066 0.62151 0.45407
 N267 N 0.23430 0.62263 0.46517
 C268 C 0.25236 0.63771 0.45357
 C269 C 0.24680 0.65285 0.43026
 C270 C 0.20432 0.63633 0.43071
 C271 C 0.25551 0.61165 0.55408
 C272 C 0.26332 0.62539 0.57818
 C273 C 0.26131 0.66349 0.55050
 C274 C 0.25357 0.64902 0.52684
 N275 N 0.25126 0.62351 0.52891
 H276 H 0.19672 0.60897 0.46305
 H277 H 0.27110 0.63792 0.46248
 H278 H 0.26135 0.66467 0.42102
 H279 H 0.18558 0.63515 0.42180
 H280 H 0.25333 0.59139 0.55518
 H281 H 0.26677 0.61576 0.59809
 H282 H 0.26312 0.68377 0.54875
 H283 H 0.24962 0.65819 0.50688
 C284 C 0.17242 0.55458 0.51867
 C285 C 0.31482 0.55607 0.47314
 C286 C 0.26649 0.65149 0.57628
 C287 C 0.22255 0.65220 0.41880
 C288 C 0.71987 0.93744 0.47861
 H289 H 0.73656 0.93718 0.46519
 C290 C 0.69863 0.95089 0.47010
 H291 H 0.69889 0.96107 0.45014
 C292 C 0.69844 0.92343 0.52027
 H293 H 0.69800 0.91227 0.53939
 C294 C 0.67703 0.93666 0.51272
 H295 H 0.66037 0.93566 0.52621
 N296 N 0.71932 0.92395 0.50327
 C297 C 0.79386 0.91018 0.53735
 H298 H 0.79160 0.89036 0.54193
 C299 C 0.81659 0.92233 0.54326
 H300 H 0.83197 0.91179 0.55228
 C301 C 0.77714 0.94771 0.51819
 H302 H 0.76185 0.95734 0.50796
 C303 C 0.79969 0.96057 0.52362
 H304 H 0.80185 0.98004 0.51728
 Zn305 Zn 0.74684 0.90329 0.51310
 N306 N 0.77497 0.92277 0.52435
 C307 C 0.77979 0.88279 0.47052
 N308 N 0.75563 0.88324 0.48052
 C309 C 0.73707 0.87000 0.46702
 C310 C 0.74254 0.85531 0.44270
 C311 C 0.78606 0.86835 0.44621
 C312 C 0.73490 0.89344 0.57067
 C313 C 0.72833 0.87887 0.59433
 C314 C 0.72779 0.84197 0.56332
 C315 C 0.73439 0.85718 0.54026
 N316 N 0.73765 0.88246 0.54425
 H317 H 0.79422 0.89377 0.48117
 H318 H 0.71797 0.87097 0.47513
 H319 H 0.72759 0.84498 0.43197
 H320 H 0.80525 0.86828 0.43824
 H321 H 0.73792 0.91353 0.57331
 H322 H 0.72654 0.88767 0.61536
 H323 H 0.72560 0.82181 0.56004
 H324 H 0.73712 0.84869 0.51932
 C325 C 0.81973 0.94757 0.53575
 C326 C 0.67698 0.95029 0.48733
 C327 C 0.72473 0.85291 0.59057
 C328 C 0.76726 0.85448 0.43220
 C329 C 0.01686 0.28188 0.41435
 H330 H 0.03361 0.27048 0.41560
 C331 C 0.01440 0.30348 0.43173
 H332 H 0.02936 0.30886 0.44628
 C333 C -0.02299 0.28918 0.39357
 H334 H -0.03742 0.28385 0.37845
 C335 C -0.02619 0.31083 0.41052
 H336 H -0.04306 0.32200 0.40836
 N337 N -0.00187 0.27499 0.39600
 C338 C 0.00244 0.19345 0.38435
 H339 H 0.00216 0.19209 0.36118
 C340 C 0.00309 0.17158 0.40061
 H341 H 0.00340 0.15332 0.38986
 C342 C 0.00227 0.21888 0.42660
 H343 H 0.00162 0.23731 0.43669
 C344 C 0.00292 0.19744 0.44372
 H345 H 0.00304 0.19952 0.46687
 Zn346 Zn 0.00170 0.24512 0.37339
 N347 N 0.00244 0.21652 0.39745
 C348 C 0.05003 0.22945 0.35425
 N349 N 0.03204 0.24743 0.35160
 C350 C 0.03574 0.26759 0.33427
 C351 C 0.05810 0.27002 0.31845
 C352 C 0.07257 0.23114 0.33883
 C353 C -0.04882 0.23599 0.36234
 C354 C -0.07101 0.23439 0.34664
 C355 C -0.04712 0.24285 0.30352
 C356 C -0.02525 0.24424 0.32009
 N357 N -0.02660 0.24133 0.34905
 H358 H 0.04714 0.21390 0.36860
 H359 H 0.02137 0.28187 0.33290
 H360 H 0.06099 0.28622 0.30491
 H361 H 0.08682 0.21683 0.34133
 H362 H -0.04933 0.23359 0.38534
 H363 H -0.08868 0.23071 0.35759
 H364 H -0.04607 0.24576 0.28060
 H365 H -0.00739 0.24808 0.30984
 C366 C 0.00348 0.17357 0.43057
 C367 C -0.00742 0.31798 0.42988
 C368 C -0.07024 0.23816 0.31704
 C369 C 0.07668 0.25159 0.32076
 C370 C 0.01358 0.72095 0.08709
 H371 H 0.02977 0.73341 0.08678
 C372 C 0.01364 0.69876 0.07053
 H373 H 0.02996 0.69401 0.05754
 C374 C -0.02716 0.71143 0.10513
 H375 H -0.04283 0.71613 0.11900
 C376 C -0.02787 0.68909 0.08890
 H377 H -0.04410 0.67671 0.09035
 N378 N -0.00668 0.72692 0.10383
 C379 C -0.00388 0.80880 0.11456
 H380 H -0.00459 0.81060 0.13769
 C381 C -0.00268 0.83036 0.09774
 H382 H -0.00238 0.84883 0.10796
 C383 C -0.00344 0.78260 0.07293
 H384 H -0.00403 0.76399 0.06327
 C385 C -0.00224 0.80370 0.05530
 H386 H -0.00163 0.80124 0.03220
 Zn387 Zn -0.00496 0.75699 0.12637
 N388 N -0.00383 0.78547 0.10203
 C389 C 0.04269 0.77352 0.14748
 N390 N 0.02462 0.75526 0.14886
 C391 C 0.02759 0.73466 0.16557
 C392 C 0.04931 0.73194 0.18196
 C393 C 0.06466 0.77153 0.16353
 C394 C -0.05644 0.76294 0.13786
 C395 C -0.07836 0.76479 0.15441
 C396 C -0.05322 0.76128 0.19716
 C397 C -0.03173 0.75949 0.17974
 N398 N -0.03374 0.75995 0.15063
 H399 H 0.04032 0.78944 0.13363
 H400 H 0.01312 0.72023 0.16595
 H401 H 0.05165 0.71534 0.19491
 H402 H 0.07909 0.78598 0.16200
 H403 H -0.05748 0.76362 0.11472
 H404 H -0.09633 0.76688 0.14386
 H405 H -0.05138 0.76066 0.22028
 H406 H -0.01351 0.75770 0.18957
 C407 C -0.00169 0.82780 0.06784
 C408 C -0.00729 0.68269 0.07146
 C409 C -0.07681 0.76380 0.18436
 C410 C 0.06803 0.75055 0.18090
 C411 C 0.51810 0.21751 0.58309
 H412 H 0.53484 0.22921 0.58295
 C413 C 0.51700 0.19572 0.56587
 H414 H 0.53298 0.19051 0.55255
 C415 C 0.47707 0.20951 0.60122
 H416 H 0.46171 0.21462 0.61536
 C417 C 0.47519 0.18762 0.58435
 H418 H 0.45839 0.17601 0.58558
 N419 N 0.49823 0.22406 0.60016
 C420 C 0.50388 0.30555 0.61249
 H421 H 0.50330 0.30695 0.63565
 C422 C 0.50509 0.32739 0.59616
 H423 H 0.50546 0.34568 0.60680
 C424 C 0.50355 0.28009 0.57027
 H425 H 0.50251 0.26166 0.56020
 C426 C 0.50473 0.30150 0.55311
 H427 H 0.50476 0.29947 0.52996
 Zn428 Zn 0.50108 0.25370 0.62324
 N429 N 0.50339 0.28245 0.59943
 C430 C 0.54892 0.26837 0.64534
 N431 N 0.53033 0.25061 0.64608
 C432 C 0.53244 0.22975 0.66256
 C433 C 0.55373 0.22631 0.67948
 C434 C 0.57048 0.26567 0.66195
 C435 C 0.44984 0.26178 0.63404
 C436 C 0.42771 0.26392 0.65018
 C437 C 0.45184 0.25796 0.69323
 C438 C 0.47359 0.25593 0.67625
 N439 N 0.47214 0.25742 0.64715
 H440 H 0.54724 0.28451 0.63167
 H441 H 0.51758 0.21572 0.66242
 H442 H 0.55535 0.20955 0.69232
 H443 H 0.58528 0.27978 0.66101
 H444 H 0.44923 0.26322 0.61093
 H445 H 0.40999 0.26700 0.63946
 H446 H 0.45308 0.25640 0.71631
 H447 H 0.49151 0.25303 0.68639
 C448 C 0.50555 0.32537 0.56620
 C449 C 0.49531 0.18068 0.56650
 C450 C 0.42867 0.26178 0.68002
 C451 C 0.57292 0.24447 0.67919
 C452 C 0.51794 0.78395 0.90866
 H453 H 0.53470 0.77255 0.90993
 C454 C 0.51597 0.80615 0.92509
 H455 H 0.53129 0.81197 0.93894
 C456 C 0.47764 0.79067 0.88875
 H457 H 0.46286 0.78486 0.87432
 C458 C 0.47492 0.81293 0.90477
 H459 H 0.45805 0.82409 0.90261
 N460 N 0.49879 0.77650 0.89118
 C461 C 0.50310 0.69455 0.88327
 H462 H 0.50269 0.69221 0.86019
 C463 C 0.50398 0.67340 0.90073
 H464 H 0.50436 0.65470 0.89105
 C465 C 0.50302 0.72168 0.92413
 H466 H 0.50233 0.74049 0.93325
 C467 C 0.50391 0.70100 0.94239
 H468 H 0.50419 0.70398 0.96542
 Zn469 Zn 0.50201 0.74595 0.86972
 N470 N 0.50304 0.71815 0.89511
 C471 C 0.55027 0.72995 0.85048
 N472 N 0.53218 0.74776 0.84745
 C473 C 0.53579 0.76767 0.82970
 C474 C 0.55824 0.77010 0.81401
 C475 C 0.57290 0.73165 0.83519
 C476 C 0.45127 0.73663 0.85962
 C477 C 0.42890 0.73483 0.84424
 C478 C 0.45239 0.74224 0.80059
 C479 C 0.47444 0.74386 0.81684
 N480 N 0.47339 0.74156 0.84590
 H481 H 0.54745 0.71461 0.86513
 H482 H 0.52133 0.78184 0.82803
 H483 H 0.56108 0.78617 0.80026
 H484 H 0.58728 0.71754 0.83810
 H485 H 0.45097 0.73475 0.88268
 H486 H 0.41133 0.73150 0.85552
 H487 H 0.45324 0.74468 0.77759
 H488 H 0.49222 0.74743 0.80627
 C489 C 0.50454 0.67663 0.93056
 C490 C 0.49418 0.82069 0.92319
 C491 C 0.42937 0.73797 0.81452
 C492 C 0.57700 0.75192 0.81685
 C493 C -0.21332 0.63565 0.97738
 H494 H -0.20490 0.63712 0.99840
 C495 C -0.20420 0.65057 0.95501
 H496 H -0.18884 0.66369 0.95874
 C497 C -0.24382 0.61694 0.94674
 H498 H -0.25901 0.60365 0.94340
 C499 C -0.23525 0.63133 0.92388
 H500 H -0.24418 0.62931 0.90314
 N501 N -0.23319 0.61970 0.97304
 C502 C -0.26667 0.61136 1.05802
 H503 H -0.26748 0.59102 1.05928
 C504 C -0.27508 0.62622 1.08107
 H505 H -0.28199 0.61727 1.10036
 C506 C -0.25621 0.64785 1.03155
 H507 H -0.24918 0.65622 1.01210
 C508 C -0.26442 0.66343 1.05411
 H509 H -0.26301 0.68373 1.05219
 Zn510 Zn -0.24581 0.60063 1.00411
 N511 N -0.25693 0.62231 1.03416
 C512 C -0.20898 0.58260 1.04280
 N513 N -0.21939 0.57974 1.01634
 C514 C -0.20950 0.56353 0.99647
 C515 C -0.18794 0.54981 1.00262
 C516 C -0.18729 0.56929 1.04979
 C517 C -0.29451 0.59470 0.98443
 C518 C -0.31704 0.58243 0.97790
 C519 C -0.29743 0.54266 0.98849
 C520 C -0.27509 0.55571 0.99468
 N521 N -0.27414 0.58131 0.99269
 H522 H -0.21672 0.59607 1.05801
 H523 H -0.21786 0.56202 0.97542
 H524 H -0.17960 0.53776 0.98621
 H525 H -0.17841 0.57253 1.07036
 H526 H -0.29335 0.61505 0.98358
 H527 H -0.33335 0.59337 0.97213
 H528 H -0.29839 0.52241 0.99106
 H529 H -0.25890 0.54549 1.00201
 C530 C -0.27371 0.65251 1.07921
 C531 C -0.21549 0.64850 0.92808
 C532 C -0.31862 0.55623 0.98023
 C533 C -0.17648 0.55303 1.02933
 C534 C -0.22639 0.36399 0.53242
 H535 H -0.21664 0.36445 0.51199
 C536 C -0.21814 0.34905 0.55324
 H537 H -0.20172 0.33738 0.54966
 C538 C -0.26019 0.37979 0.56148
 H539 H -0.27626 0.39187 0.56475
 C540 C -0.25180 0.36363 0.58496
 H541 H -0.26221 0.36384 0.60505
 N542 N -0.24837 0.37936 0.53694
 C543 C -0.27723 0.39075 0.45121
 H544 H -0.27793 0.41113 0.45085
 C545 C -0.28474 0.37664 0.42725
 H546 H -0.29078 0.38614 0.40810
 C547 C -0.26801 0.35340 0.47639
 H548 H -0.26178 0.34442 0.49569
 C549 C -0.27533 0.33857 0.45288
 H550 H -0.27405 0.31823 0.45384
 Zn551 Zn -0.25903 0.39960 0.50632
 N552 N -0.26857 0.37901 0.47489
 C553 C -0.21990 0.41864 0.47059
 N554 N -0.23161 0.42069 0.49658
 C555 C -0.22236 0.43599 0.51771
 C556 C -0.20011 0.44954 0.51339
 C557 C -0.19752 0.43184 0.46540
 C558 C -0.30911 0.40539 0.52207
 C559 C -0.33201 0.41777 0.52560
 C560 C -0.31058 0.45743 0.51759
 C561 C -0.28799 0.44427 0.51428
 N562 N -0.28775 0.41869 0.51629
 H563 H -0.22718 0.40588 0.45436
 H564 H -0.23179 0.43684 0.53834
 H565 H -0.19233 0.46084 0.53076
 H566 H -0.18768 0.42925 0.44516
 H567 H -0.30845 0.38503 0.52286
 H568 H -0.34902 0.40688 0.52933
 H569 H -0.31078 0.47770 0.51498
 H570 H -0.27096 0.45439 0.50886
 C571 C -0.28356 0.35033 0.42803
 C572 C -0.23172 0.34873 0.58097
 C573 C -0.33284 0.44398 0.52290
 C574 C -0.18736 0.44711 0.48718
 C575 C 0.27876 -0.13136 0.02738
 H576 H 0.28731 -0.13247 0.00627
 C577 C 0.28682 -0.14632 0.04830
 H578 H 0.30186 -0.15959 0.04414
 C579 C 0.24833 -0.11150 0.05805
 H580 H 0.23357 -0.09797 0.06190
 C581 C 0.25661 -0.12749 0.08166
 H582 H 0.24725 -0.12580 0.10234
 N583 N 0.25834 -0.11409 0.03264
 C584 C 0.22627 -0.10490 -0.05220
 H585 H 0.22600 -0.08455 -0.05342
 C586 C 0.21812 -0.11963 -0.07542
 H587 H 0.21198 -0.11062 -0.09485
 C588 C 0.23519 -0.14158 -0.02568
 H589 H 0.24152 -0.15008 -0.00614
 C590 C 0.22721 -0.15700 -0.04842
 H591 H 0.22813 -0.17732 -0.04663
 Zn592 Zn 0.24636 -0.09468 0.00194
 N593 N 0.23521 -0.11603 -0.02826
 C594 C 0.28407 -0.07669 -0.03643
 N595 N 0.27322 -0.07387 -0.01005
 C596 C 0.28299 -0.05780 0.01001
 C597 C 0.30492 -0.04421 0.00415
 C598 C 0.30613 -0.06348 -0.04313
 C599 C 0.19771 -0.08864 0.02200
 C600 C 0.17518 -0.07636 0.02809
 C601 C 0.19535 -0.03669 0.01678
 C602 C 0.21766 -0.04976 0.01108
 N603 N 0.21831 -0.07531 0.01353
 H604 H 0.27640 -0.09006 -0.05177
 H605 H 0.27425 -0.05635 0.03099
 H606 H 0.31317 -0.03231 0.02071
 H607 H 0.31537 -0.06672 -0.06362
 H608 H 0.19865 -0.10897 0.02317
 H609 H 0.15868 -0.08734 0.03387
 H610 H 0.19465 -0.01650 0.01364
 H611 H 0.23406 -0.03963 0.00356
 C612 C 0.21888 -0.14591 -0.07362
 C613 C 0.27478 -0.14452 0.07691
 C614 C 0.17385 -0.05021 0.02506
 C615 C 0.31683 -0.04742 -0.02246
 C616 C 0.28176 1.13387 0.47101
 H617 H 0.29023 1.13531 0.49200
 C618 C 0.29120 1.14838 0.44848
 H619 H 0.30684 1.16120 0.45209
 C620 C 0.25093 1.11551 0.44053
 H621 H 0.23550 1.10246 0.43733
 C622 C 0.25981 1.12953 0.41751
 H623 H 0.25087 1.12753 0.39678
 N624 N 0.26162 1.11826 0.46681
 C625 C 0.22895 1.11055 0.55236
 H626 H 0.22812 1.09022 0.55386
 C627 C 0.22110 1.12564 0.57548
 H628 H 0.21457 1.11694 0.59507
 C629 C 0.23909 1.14678 0.52530
 H630 H 0.24585 1.15498 0.50562
 C631 C 0.23143 1.16257 0.54794
 H632 H 0.23294 1.18284 0.54587
 Zn633 Zn 0.24919 1.09940 0.49810
 N634 N 0.23830 1.12127 0.52815
 C635 C 0.28659 1.08173 0.53636
 N636 N 0.27586 1.07877 0.51009
 C637 C 0.28568 1.06272 0.49000
 C638 C 0.30750 1.04927 0.49572
 C639 C 0.30856 1.06869 0.54292
 C640 C 0.20045 1.09275 0.47854
 C641 C 0.17822 1.08006 0.47170
 C642 C 0.19851 1.04065 0.48235
 C643 C 0.22052 1.05412 0.48885
 N644 N 0.22102 1.07973 0.48692
 H645 H 0.27890 1.09509 0.55172
 H646 H 0.27707 1.06117 0.46909
 H647 H 0.31575 1.03736 0.47914
 H648 H 0.31769 1.07201 0.56334
 H649 H 0.20125 1.11312 0.47770
 H650 H 0.16175 1.09069 0.46577
 H651 H 0.19793 1.02038 0.48482
 H652 H 0.23686 1.04418 0.49626
 C653 C 0.22261 1.15189 0.57336
 C654 C 0.27993 1.14628 0.42155
 C655 C 0.17714 1.05381 0.47386
 C656 C 0.31929 1.05261 0.52222
 C657 C 0.19041 0.46964 0.28465
 H658 H 0.19239 0.48691 0.29708
 C659 C 0.20458 0.44838 0.29165
 H660 H 0.21759 0.44924 0.30942
 C661 C 0.17031 0.44682 0.24709
 H662 H 0.15650 0.44581 0.23030
 C663 C 0.18406 0.42539 0.25323
 H664 H 0.18090 0.40821 0.24085
 N665 N 0.17372 0.46848 0.26258
 C666 C 0.15761 0.54361 0.23105
 H667 H 0.13741 0.54153 0.22945
 C668 C 0.16916 0.56604 0.22288
 H669 H 0.15779 0.58140 0.21520
 C670 C 0.19696 0.52645 0.24409
 H671 H 0.20765 0.51099 0.25250
 C672 C 0.20931 0.54876 0.23629
 H673 H 0.22945 0.55059 0.23909
 Zn674 Zn 0.15273 0.49623 0.25410
 N675 N 0.17147 0.52459 0.24196
 C676 C 0.13445 0.52875 0.29865
 N677 N 0.13393 0.50484 0.28752
 C678 C 0.12018 0.48633 0.30018
 C679 C 0.10559 0.49172 0.32450
 C680 C 0.12009 0.53495 0.32297
 C681 C 0.14202 0.48349 0.19735
 C682 C 0.12756 0.47706 0.17347
 C683 C 0.09030 0.47871 0.20350
 C684 C 0.10555 0.48505 0.22691
 N685 N 0.13094 0.48717 0.22345
 H686 H 0.14587 0.54311 0.28866
 H687 H 0.12035 0.46743 0.29114
 H688 H 0.09439 0.47693 0.33417
 H689 H 0.12030 0.55407 0.33145
 H690 H 0.16220 0.48561 0.19514
 H691 H 0.13669 0.47447 0.15277
 H692 H 0.07007 0.47749 0.20639
 H693 H 0.09703 0.48855 0.24766
 C694 C 0.19517 0.56881 0.22590
 C695 C 0.20124 0.42604 0.27573
 C696 C 0.10143 0.47465 0.17651
 C697 C 0.10540 0.51628 0.33587
 C698 C -0.18230 1.03075 0.28113
 H699 H -0.18488 1.01325 0.29244
 C700 C -0.19602 1.05218 0.28952
 H701 H -0.20928 1.05124 0.30721
 C702 C -0.16154 1.05379 0.24464
 H703 H -0.14775 1.05475 0.22763
 C704 C -0.17472 1.07542 0.25226
 H705 H -0.17120 1.09272 0.24075
 N706 N -0.16579 1.03185 0.25866
 C707 C -0.15655 0.95644 0.22184
 H708 H -0.13641 0.95700 0.21841
 C709 C -0.17012 0.93465 0.21498
 H710 H -0.16036 0.91826 0.20649
 C711 C -0.19363 0.97660 0.23876
 H712 H -0.20268 0.99291 0.24822
 C713 C -0.20793 0.95504 0.23235
 H714 H -0.22785 0.95463 0.23742
 Zn715 Zn -0.14701 1.00326 0.24650
 N716 N -0.16827 0.97653 0.23437
 C717 C -0.12893 0.96867 0.28752
 N718 N -0.12699 0.99261 0.27750
 C719 C -0.11134 1.00984 0.29003
 C720 C -0.09664 1.00315 0.31338
 C721 C -0.11457 0.96121 0.31089
 C722 C -0.13888 1.01754 0.19005
 C723 C -0.12545 1.02490 0.16575
 C724 C -0.08683 1.02033 0.19224
 C725 C -0.10103 1.01309 0.21613
 N726 N -0.12660 1.01208 0.21468
 H727 H -0.14188 0.95539 0.27777
 H728 H -0.11046 1.02885 0.28197
 H729 H -0.08446 1.01708 0.32344
 H730 H -0.11649 0.94225 0.31900
 H731 H -0.15920 1.01634 0.18944
 H732 H -0.13546 1.02905 0.14622
 H733 H -0.06648 1.02083 0.19346
 H734 H -0.09159 1.00822 0.23569
 C735 C -0.19591 0.93372 0.22092
 C736 C -0.19220 1.07465 0.27470
 C737 C -0.09920 1.02641 0.16688
 C738 C -0.09829 0.97862 0.32392
 C739 C 0.31711 0.53080 -0.21599
 H740 H 0.31414 0.51329 -0.20481
 C741 C 0.30301 0.55220 -0.20833
 H742 H 0.28905 0.55121 -0.19135
 C743 C 0.33920 0.55391 -0.25139
 H744 H 0.35366 0.55496 -0.26765
 C745 C 0.32570 0.57551 -0.24445
 H746 H 0.32962 0.59281 -0.25579
 N747 N 0.33446 0.53193 -0.23764
 C748 C 0.34665 0.45512 -0.27416
 H749 H 0.36682 0.45630 -0.27724
 C750 C 0.33423 0.43411 -0.28166
 H751 H 0.34440 0.41819 -0.29070
 C752 C 0.30903 0.47575 -0.25850
 H753 H 0.29935 0.49182 -0.24937
 C754 C 0.29455 0.45269 -0.26601
 H755 H 0.27457 0.45189 -0.26124
 Zn756 Zn 0.35392 0.50350 -0.24918
 N757 N 0.33345 0.47610 -0.26143
 C758 C 0.37312 0.46970 -0.20785
 N759 N 0.37409 0.49368 -0.21794
 C760 C 0.38918 0.51150 -0.20561
 C761 C 0.40439 0.50541 -0.18247
 C762 C 0.38801 0.46283 -0.18466
 C763 C 0.36221 0.51784 -0.30553
 C764 C 0.37561 0.52576 -0.32960
 C765 C 0.41415 0.52207 -0.30281
 C766 C 0.39998 0.51427 -0.27912
 N767 N 0.37445 0.51260 -0.28082
 H768 H 0.36064 0.45592 -0.21752
 H769 H 0.38933 0.53049 -0.21378
 H770 H 0.41618 0.51980 -0.17263
 H771 H 0.38692 0.44382 -0.17652
 H772 H 0.34193 0.51614 -0.30634
 H773 H 0.36569 0.52977 -0.34922
 H774 H 0.43447 0.52313 -0.30147
 H775 H 0.40942 0.50957 -0.25951
 C776 C 0.30679 0.43254 -0.27663
 C777 C 0.30733 0.57469 -0.22296
 C778 C 0.40178 0.52803 -0.32819
 C779 C 0.40381 0.48085 -0.17191
 C780 C 0.69100 -0.03619 -0.22385
 H781 H 0.69473 -0.01885 -0.21208
 C782 C 0.70390 -0.05714 -0.21789
 H783 H 0.71819 -0.05669 -0.20145
 C784 C 0.66649 -0.05756 -0.25951
 H785 H 0.65152 -0.05814 -0.27497
 C786 C 0.68022 -0.08090 -0.25380
 H787 H 0.67548 -0.09789 -0.26588
 N788 N 0.67196 -0.03671 -0.24573
 C789 C 0.65945 0.03928 -0.27725
 H790 H 0.63922 0.03786 -0.27913
 C791 C 0.67171 0.06157 -0.28464
 H792 H 0.66080 0.07736 -0.29208
 C793 C 0.69808 0.02087 -0.26375
 H794 H 0.70819 0.00504 -0.25532
 C795 C 0.71114 0.04301 -0.27071
 H796 H 0.73125 0.04424 -0.26725
 Zn797 Zn 0.65256 -0.00765 -0.25364
 N798 N 0.67258 0.01974 -0.26634
 C799 C 0.63744 0.02605 -0.20879
 N800 N 0.63505 0.00218 -0.21972
 C801 C 0.62030 -0.01528 -0.20657
 C802 C 0.60659 -0.00877 -0.18193
 C803 C 0.62402 0.03335 -0.18417
 C804 C 0.64001 -0.02046 -0.30977
 C805 C 0.62475 -0.02664 -0.33305
 C806 C 0.58826 -0.02213 -0.30222
 C807 C 0.60426 -0.01610 -0.27939
 N808 N 0.62965 -0.01555 -0.28353
 H809 H 0.64962 0.03954 -0.21917
 H810 H 0.61898 -0.03419 -0.21547
 H811 H 0.59457 -0.02269 -0.17186
 H812 H 0.62572 0.05246 -0.17586
 H813 H 0.66023 -0.01961 -0.31252
 H814 H 0.63319 -0.03027 -0.35391
 H815 H 0.56806 -0.02218 -0.29895
 H816 H 0.59635 -0.01167 -0.25854
 C817 C 0.69771 0.06371 -0.28078
 C818 C 0.69821 -0.08080 -0.23388
 C819 C 0.59865 -0.02752 -0.32926
 C820 C 0.60832 0.01582 -0.17075
 C821 C 0.03484 0.27182 0.83167
 H822 H 0.02260 0.28804 0.83137
 C823 C 0.05658 0.27131 0.81455
 H824 H 0.06122 0.28722 0.80117
 C825 C 0.04419 0.23149 0.84995
 H826 H 0.03962 0.21616 0.86407
 C827 C 0.06603 0.23021 0.83321
 H828 H 0.07811 0.21389 0.83452
 N829 N 0.02895 0.25198 0.84873
 C830 C -0.05251 0.25297 0.86060
 H831 H -0.05368 0.25227 0.88374
 C832 C -0.07447 0.25268 0.84435
 H833 H -0.09262 0.25192 0.85504
 C834 C -0.02749 0.25442 0.81834
 H835 H -0.00916 0.25468 0.80824
 C836 C -0.04905 0.25416 0.80125
 H837 H -0.04724 0.25453 0.77811
 Zn838 Zn -0.00085 0.25346 0.87149
 N839 N -0.02960 0.25411 0.84749
 C840 C -0.01779 0.30043 0.89473
 N841 N 0.00075 0.28285 0.89535
 C842 C 0.02110 0.28599 0.91265
 C843 C 0.02318 0.30730 0.93056
 C844 C -0.01646 0.32198 0.91229
 C845 C -0.00739 0.20187 0.88022
 C846 C -0.00944 0.17947 0.89541
 C847 C -0.00467 0.20333 0.93958
 C848 C -0.00271 0.22536 0.92353
 N849 N -0.00371 0.22419 0.89434
 H850 H -0.03355 0.29795 0.88046
 H851 H 0.03575 0.27192 0.91248
 H852 H 0.03953 0.30973 0.94407
 H853 H -0.03120 0.33596 0.91143
 H854 H -0.00849 0.20150 0.85706
 H855 H -0.01206 0.16176 0.88390
 H856 H -0.00358 0.20435 0.96276
 H857 H -0.00035 0.24330 0.93445
 C858 C -0.07275 0.25332 0.81442
 C859 C 0.07227 0.25024 0.81529
 C860 C -0.00792 0.18016 0.92533
 C861 C 0.00418 0.32544 0.93042
 C862 C 0.46906 0.26820 0.15993
 H863 H 0.48100 0.28480 0.16000
 C864 C 0.44763 0.26747 0.17749
 H865 H 0.44291 0.28360 0.19096
 C866 C 0.46030 0.22706 0.14194
 H867 H 0.46508 0.21145 0.12785
 C868 C 0.43873 0.22555 0.15914
 H869 H 0.42698 0.20880 0.15817
 N870 N 0.47513 0.24807 0.14283
 C871 C 0.55657 0.25140 0.13173
 H872 H 0.55811 0.25066 0.10859
 C873 C 0.57826 0.25229 0.14844
 H874 H 0.59660 0.25236 0.13813
 C875 C 0.53087 0.25200 0.17351
 H876 H 0.51241 0.25150 0.18327
 C877 C 0.55212 0.25291 0.19103
 H878 H 0.54993 0.25343 0.21414
 Zn879 Zn 0.50489 0.25019 0.12009
 N880 N 0.53344 0.25163 0.14440
 C881 C 0.52099 0.29801 0.09980
 N882 N 0.50295 0.27976 0.09762
 C883 C 0.48272 0.28262 0.08022
 C884 C 0.48020 0.30441 0.06393
 C885 C 0.51920 0.32003 0.08389
 C886 C 0.51240 0.19883 0.10935
 C887 C 0.51494 0.17656 0.09331
 C888 C 0.50978 0.20039 0.05002
 C889 C 0.50738 0.22232 0.06691
 N890 N 0.50830 0.22108 0.09607
 H891 H 0.53661 0.29576 0.11419
 H892 H 0.46843 0.26803 0.07920
 H893 H 0.46391 0.30666 0.05040
 H894 H 0.53350 0.33457 0.08607
 H895 H 0.51344 0.19841 0.13250
 H896 H 0.51777 0.15889 0.10418
 H897 H 0.50859 0.20143 0.02689
 H898 H 0.50466 0.24021 0.05667
 C899 C 0.57603 0.25318 0.17835
 C900 C 0.43238 0.24588 0.17718
 C901 C 0.51346 0.17727 0.06339
 C902 C 0.49863 0.32330 0.06580
 C903 C -0.03306 0.76488 0.66120
 H904 H -0.02176 0.78192 0.66188
 C905 C -0.05370 0.76297 0.67773
 H906 H -0.05912 0.77852 0.69173
 C907 C -0.03917 0.72372 0.64085
 H908 H -0.03373 0.70861 0.62641
 C909 C -0.06209 0.72083 0.65858
 H910 H -0.07311 0.70362 0.65671
 N911 N -0.02567 0.74428 0.64258
 C912 C 0.05583 0.75040 0.63232
 H913 H 0.05751 0.74970 0.60919
 C914 C 0.07741 0.75187 0.64918
 H915 H 0.09579 0.75242 0.63899
 C916 C 0.02990 0.75033 0.67390
 H917 H 0.01140 0.74937 0.68351
 C918 C 0.05105 0.75180 0.69158
 H919 H 0.04872 0.75224 0.71468
 Zn920 Zn 0.00424 0.74773 0.62023
 N921 N 0.03262 0.75000 0.64481
 C922 C 0.01917 0.79594 0.59999
 N923 N 0.00151 0.77732 0.59784
 C924 C -0.01876 0.77975 0.58039
 C925 C -0.02163 0.80140 0.56393
 C926 C 0.01703 0.81784 0.58392
 C927 C 0.01382 0.69684 0.60961
 C928 C 0.01616 0.67441 0.59385
 C929 C 0.00870 0.69750 0.55048
 C930 C 0.00656 0.71962 0.56711
 N931 N 0.00862 0.71878 0.59620
 H932 H 0.03482 0.79404 0.61441
 H933 H -0.03276 0.76488 0.57938
 H934 H -0.03791 0.80327 0.55031
 H935 H 0.03109 0.83262 0.58602
 H936 H 0.01562 0.69672 0.63270
 H937 H 0.01968 0.65695 0.60487
 H938 H 0.00641 0.69816 0.52744
 H939 H 0.00288 0.73728 0.55675
 C940 C 0.07502 0.75268 0.67908
 C941 C -0.06903 0.73961 0.67644
 C942 C 0.01329 0.67465 0.56406
 C943 C -0.00352 0.82062 0.56570
 C944 C 0.53138 0.76944 0.32961
 H945 H 0.51950 0.78592 0.32931
 C946 C 0.55354 0.76879 0.31326
 H947 H 0.55887 0.78487 0.30046
 C948 C 0.53943 0.72858 0.34725
 H949 H 0.53417 0.71310 0.36087
 C950 C 0.56167 0.72716 0.33125
 H951 H 0.57341 0.71059 0.33261
 N952 N 0.52467 0.74942 0.34601
 C953 C 0.44323 0.75189 0.35599
 H954 H 0.44169 0.75066 0.37908
 C955 C 0.42155 0.75264 0.33936
 H956 H 0.40323 0.75213 0.34967
 C957 C 0.46895 0.75386 0.31429
 H958 H 0.48744 0.75398 0.30457
 C959 C 0.44767 0.75467 0.29682
 H960 H 0.44984 0.75570 0.27375
 Zn961 Zn 0.49452 0.75132 0.36798
 N962 N 0.46634 0.75284 0.34336
 C963 C 0.47812 0.79857 0.39058
 N964 N 0.49622 0.78057 0.39197
 C965 C 0.51624 0.78342 0.40982
 C966 C 0.51846 0.80490 0.42744
 C967 C 0.47960 0.82026 0.40784
 C968 C 0.48654 0.69987 0.37591
 C969 C 0.48373 0.67738 0.39078
 C970 C 0.48839 0.70074 0.43532
 C971 C 0.49111 0.72287 0.41959
 N972 N 0.49054 0.72197 0.39038
 H973 H 0.46267 0.79634 0.37585
 H974 H 0.53058 0.76903 0.41021
 H975 H 0.53459 0.80714 0.44133
 H976 H 0.46525 0.83460 0.40631
 H977 H 0.48581 0.69974 0.35273
 H978 H 0.48093 0.65983 0.37902
 H979 H 0.48920 0.70152 0.45852
 H980 H 0.49374 0.74066 0.43075
 C981 C 0.42378 0.75414 0.30953
 C982 C 0.56879 0.74741 0.31408
 C983 C 0.48484 0.67778 0.42073
 C984 C 0.49993 0.82348 0.42644
 B985 B -0.01916 0.01589 1.01544
 B986 B -0.02993 0.00931 0.98237
 B987 B -0.00729 0.03126 0.98694
 B988 B 0.01207 0.02190 1.01328
 B989 B 0.00116 -0.00649 1.02480
 B990 B -0.02505 -0.01432 1.00556
 B991 B 0.01467 -0.01163 0.96825
 B992 B 0.02537 -0.00504 1.00132
 B993 B 0.00277 -0.02701 0.99680
 B994 B -0.01658 -0.01767 0.97038
 B995 B -0.00570 0.01077 0.95886
 B996 B 0.02051 0.01860 0.97814
 B997 B 0.47675 0.51638 0.51616
 B998 B 0.46390 0.50788 0.48465
 B999 B 0.48671 0.52999 0.48569
 B1000 B 0.50782 0.52226 0.51082
 B1001 B 0.49777 0.49475 0.52539
 B1002 B 0.47039 0.48568 0.50907
 B1003 B 0.50752 0.48592 0.46841
 B1004 B 0.52043 0.49482 0.49995
 B1005 B 0.49774 0.47247 0.49901
 B1006 B 0.47657 0.48013 0.47369
 B1007 B 0.48637 0.50793 0.45926
 B1008 B 0.51385 0.51673 0.47524
 B1009 B 0.51500 0.98828 0.52115
 B1010 B 0.52653 0.99398 0.48823
 B1011 B 0.50349 0.97245 0.49240
 B1012 B 0.48374 0.98267 0.51862
 B1013 B 0.49481 1.01118 0.53041
 B1014 B 0.52150 1.01820 0.51147
 B1015 B 0.48255 1.01525 0.47372
 B1016 B 0.47106 1.00957 0.50666
 B1017 B 0.49408 1.03106 0.50242
 B1018 B 0.51384 1.02086 0.47621
 B1019 B 0.50277 0.99236 0.46443
 B1020 B 0.47605 0.98534 0.48339
 B1021 B 0.01950 0.48906 1.02861
 B1022 B 0.03061 0.49500 0.99556
 B1023 B 0.00777 0.47329 0.99992
 B1024 B -0.01176 0.48325 1.02651
 B1025 B -0.00074 0.51178 1.03829
 B1026 B 0.02570 0.51909 1.01900
 B1027 B -0.01371 0.51604 0.98183
 B1028 B -0.02476 0.51015 1.01492
 B1029 B -0.00192 0.53181 1.01045
 B1030 B 0.01759 0.52186 0.98389
 B1031 B 0.00657 0.49334 0.97212
 B1032 B -0.01988 0.48605 0.99143
 B1033 B 0.01024 0.50691 0.47796
 B1034 B 0.02397 0.50008 0.50938
 B1035 B 0.00215 0.52294 0.50796
 B1036 B -0.02024 0.51400 0.48423
 B1037 B -0.01208 0.48493 0.47127
 B1038 B 0.01562 0.47657 0.48657
 B1039 B -0.01991 0.48108 0.52896
 B1040 B -0.03358 0.48758 0.49762
 B1041 B -0.01162 0.46493 0.49904
 B1042 B 0.01071 0.47395 0.52267
 B1043 B 0.00226 0.50277 0.53582
 B1044 B -0.02529 0.51139 0.52015
 B1045 B 0.51470 0.01140 -0.02808
 B1046 B 0.52732 0.00386 0.00378
 B1047 B 0.50555 0.02674 0.00202
 B1048 B 0.48403 0.01830 -0.02295
 B1049 B 0.49270 -0.01048 -0.03640
 B1050 B 0.51983 -0.01914 -0.02012
 B1051 B 0.48283 -0.01565 0.02074
 B1052 B 0.47029 -0.00846 -0.01102
 B1053 B 0.49221 -0.03112 -0.00923
 B1054 B 0.51364 -0.02262 0.01564
 B1055 B 0.50472 0.00589 0.02924
 B1056 B 0.47772 0.01482 0.01259
 B1057 B 0.48541 0.48961 -0.01989
 B1058 B 0.47391 0.49502 0.01326
 B1059 B 0.49631 0.47316 0.00806
 B1060 B 0.51651 0.48339 -0.01747
 B1061 B 0.50635 0.51222 -0.02783
 B1062 B 0.47976 0.51946 -0.00869
 B1063 B 0.51841 0.51531 0.02915
 B1064 B 0.52994 0.50985 -0.00397
 B1065 B 0.50754 0.53173 0.00110
 B1066 B 0.48734 0.52153 0.02672
 B1067 B 0.49748 0.49264 0.03710
 B1068 B 0.52406 0.48540 0.01795
 B1069 B -0.01818 0.98530 0.47628
 B1070 B -0.02907 0.99128 0.50959
 B1071 B -0.00671 0.96940 0.50435
 B1072 B 0.01301 0.97926 0.47810
 B1073 B 0.00250 1.00787 0.46733
 B1074 B -0.02378 1.01532 0.48694
 B1075 B 0.01560 1.01198 0.52389
 B1076 B 0.02653 1.00603 0.49065
 B1077 B 0.00409 1.02785 0.49580
 B1078 B -0.01551 1.01803 0.52211
 B1079 B -0.00504 0.98939 0.53289
 B1080 B 0.02120 0.98192 0.51326
 B1081 B 0.76470 0.23388 0.22961
 B1082 B 0.75836 0.22288 0.26251
 B1083 B 0.78003 0.24577 0.25837
 B1084 B 0.77049 0.26525 0.23232
 B1085 B 0.74220 0.25417 0.22046
 B1086 B 0.73466 0.22767 0.23923
 B1087 B 0.73707 0.26720 0.27719
 B1088 B 0.74352 0.27831 0.24443
 B1089 B 0.72181 0.25539 0.24836
 B1090 B 0.73134 0.23589 0.27448
 B1091 B 0.75962 0.24700 0.28638
 B1092 B 0.76719 0.27344 0.26764
 B1093 B 0.74333 0.75856 0.72949
 B1094 B 0.75139 0.77249 0.76085
 B1095 B 0.72868 0.75014 0.75993
 B1096 B 0.73680 0.72788 0.73526
 B1097 B 0.76513 0.73667 0.72115
 B1098 B 0.77392 0.76456 0.73676
 B1099 B 0.77152 0.72888 0.77839
 B1100 B 0.76383 0.71507 0.74699
 B1101 B 0.78630 0.73753 0.74794
 B1102 B 0.77814 0.75971 0.77258
 B1103 B 0.74996 0.75071 0.78684
 B1104 B 0.74097 0.72288 0.77086
 B1105 B 0.26349 0.27175 0.77258
 B1106 B 0.25836 0.28310 0.73971
 B1107 B 0.27993 0.26049 0.74410
 B1108 B 0.26945 0.24053 0.76958
 B1109 B 0.24068 0.25105 0.78063
 B1110 B 0.23380 0.27763 0.76200
 B1111 B 0.23780 0.23853 0.72355
 B1112 B 0.24295 0.22721 0.75642
 B1113 B 0.22138 0.24984 0.75198
 B1114 B 0.23188 0.26979 0.72651
 B1115 B 0.26062 0.25924 0.71546
 B1116 B 0.26752 0.23269 0.73410
 B1117 B 0.23381 0.73318 0.26746
 B1118 B 0.23878 0.72157 0.23421
 B1119 B 0.21737 0.74439 0.23966
 B1120 B 0.22812 0.76443 0.26540
 B1121 B 0.25679 0.75374 0.27561
 B1122 B 0.26343 0.72702 0.25617
 B1123 B 0.25958 0.76587 0.21878
 B1124 B 0.25463 0.77744 0.25204
 B1125 B 0.27601 0.75464 0.24661
 B1126 B 0.26531 0.73463 0.22082
 B1127 B 0.23658 0.74528 0.21060
 B1128 B 0.22996 0.77202 0.23008
 B1129 B 0.26309 0.73362 0.72907
 B1130 B 0.25717 0.72281 0.76215
 B1131 B 0.27909 0.74537 0.75744
 B1132 B 0.26935 0.76490 0.73152
 B1133 B 0.24071 0.75419 0.72037
 B1134 B 0.23314 0.72787 0.73943
 B1135 B 0.23677 0.76753 0.77712
 B1136 B 0.24278 0.77839 0.74414
 B1137 B 0.22082 0.75582 0.74871
 B1138 B 0.23055 0.73627 0.77472
 B1139 B 0.25919 0.74701 0.78590
 B1140 B 0.26680 0.77327 0.76683
 B1141 B 0.24196 0.26584 0.23095
 B1142 B 0.24846 0.27653 0.26418
 B1143 B 0.22701 0.25341 0.25951
 B1144 B 0.23661 0.23440 0.23223
 B1145 B 0.26464 0.24598 0.22018
 B1146 B 0.27203 0.27228 0.24008
 B1147 B 0.27037 0.23221 0.27612
 B1148 B 0.26383 0.22152 0.24289
 B1149 B 0.28529 0.24461 0.24749
 B1150 B 0.27573 0.26365 0.27484
 B1151 B 0.24764 0.25208 0.28689
 B1152 B 0.24027 0.22577 0.26700
 B1153 B 0.76058 0.77290 0.27757
 B1154 B 0.75562 0.78390 0.24451
 B1155 B 0.77776 0.76196 0.24949
 B1156 B 0.76744 0.74186 0.27492
 B1157 B 0.73820 0.75162 0.28530
 B1158 B 0.73089 0.77788 0.26632
 B1159 B 0.73659 0.73871 0.22826
 B1160 B 0.74152 0.72773 0.26132
 B1161 B 0.71942 0.74972 0.25623
 B1162 B 0.72976 0.76978 0.23085
 B1163 B 0.75893 0.75999 0.22048
 B1164 B 0.76627 0.73375 0.23946
 B1165 B 0.73660 0.22519 0.77043
 B1166 B 0.74222 0.21446 0.73696
 B1167 B 0.72052 0.23697 0.74269
 B1168 B 0.73066 0.25643 0.76930
 B1169 B 0.75926 0.24570 0.77973
 B1170 B 0.76648 0.21956 0.75957
 B1171 B 0.76283 0.25941 0.72343
 B1172 B 0.75727 0.27001 0.75699
 B1173 B 0.77895 0.24756 0.75120
 B1174 B 0.76885 0.22812 0.72454
 B1175 B 0.74017 0.23878 0.71413
 B1176 B 0.73300 0.26496 0.73434
 C1177 C 0.43847 1.03637 0.39842
 C1178 C 0.42738 1.02273 0.42054
 C1179 C 0.44091 1.01750 0.44507
 C1180 C 0.41344 1.03327 0.34995
 C1181 C 0.47638 1.04139 0.42680
 C1182 C 0.46283 1.04620 0.40173
 C1183 C 0.42563 1.03643 0.37141
 C1184 C 0.46579 1.02636 0.44853
 H1185 H 0.40870 1.01469 0.41807
 H1186 H 0.43213 1.00522 0.46055
 H1187 H 0.49558 1.04815 0.42835
 H1188 H 0.47174 1.05651 0.38450
 C1189 C -0.05883 0.53542 0.90677
 C1190 C -0.06974 0.52275 0.92971
 C1191 C -0.05589 0.51819 0.95419
 C1192 C -0.08431 0.53004 0.85883
 C1193 C -0.02049 0.54111 0.93427
 C1194 C -0.03435 0.54516 0.90922
 C1195 C -0.07191 0.53427 0.87991
 C1196 C -0.03088 0.52691 0.95683
 H1197 H -0.08849 0.51474 0.92791
 H1198 H -0.06452 0.50634 0.97018
 H1199 H -0.00118 0.54767 0.93513
 H1200 H -0.02556 0.55468 0.89134
 C1201 C 0.06043 -0.03257 0.89281
 C1202 C 0.07084 -0.01837 0.91517
 C1203 C 0.05685 -0.01329 0.93980
 C1204 C 0.08599 -0.03042 0.84423
 C1205 C 0.02232 -0.03843 0.92113
 C1206 C 0.03634 -0.04314 0.89598
 C1207 C 0.07370 -0.03291 0.86583
 C1208 C 0.03217 -0.02280 0.94308
 H1209 H 0.08932 -0.00986 0.91286
 H1210 H 0.06511 -0.00062 0.95555
 H1211 H 0.00332 -0.04579 0.92260
 H1212 H 0.02799 -0.05399 0.87861
 C1213 C 0.55544 0.46260 0.39605
 C1214 C 0.53145 0.47206 0.39112
 C1215 C 0.51513 0.47681 0.41401
 C1216 C 0.58811 0.46788 0.35365
 C1217 C 0.54543 0.45967 0.44675
 C1218 C 0.56204 0.45530 0.42373
 C1219 C 0.57381 0.46412 0.37333
 C1220 C 0.52264 0.47249 0.44248
 H1221 H 0.52594 0.47743 0.36973
 H1222 H 0.49730 0.48549 0.40927
 H1223 H 0.55114 0.45424 0.46794
 H1224 H 0.58044 0.44748 0.42776
 C1225 C 0.56305 0.53553 0.10548
 C1226 C 0.57333 0.52072 0.08348
 C1227 C 0.55966 0.51562 0.05878
 C1228 C 0.58868 0.53391 0.15365
 C1229 C 0.52564 0.54173 0.07672
 C1230 C 0.53934 0.54648 0.10195
 C1231 C 0.57620 0.53632 0.13237
 C1232 C 0.53543 0.52570 0.05505
 H1233 H 0.59152 0.51192 0.08603
 H1234 H 0.56788 0.50276 0.04318
 H1235 H 0.50697 0.54956 0.07487
 H1236 H 0.53106 0.55780 0.11903
 C1237 C 0.06191 1.03486 0.59786
 C1238 C 0.03800 1.04544 0.59474
 C1239 C 0.02367 1.03972 0.57026
 C1240 C 0.08859 1.03455 0.64520
 C1241 C 0.05746 1.01330 0.55227
 C1242 C 0.07175 1.01938 0.57620
 C1243 C 0.07566 1.03649 0.62425
 C1244 C 0.03306 1.02308 0.54895
 H1245 H 0.03006 1.05722 0.61164
 H1246 H 0.00487 1.04729 0.56876
 H1247 H 0.06538 1.00000 0.53694
 H1248 H 0.09008 1.01081 0.57851
 C1249 C -0.06031 0.46037 0.60806
 C1250 C -0.03698 0.44927 0.60189
 C1251 C -0.02464 0.45430 0.57582
 C1252 C -0.08333 0.46045 0.65834
 C1253 C -0.05926 0.48102 0.56232
 C1254 C -0.07159 0.47568 0.58788
 C1255 C -0.07207 0.45892 0.63586
 C1256 C -0.03545 0.47068 0.55589
 H1257 H -0.02794 0.43756 0.61757
 H1258 H -0.00620 0.44637 0.57196
 H1259 H -0.06814 0.49423 0.54819
 H1260 H -0.08950 0.48459 0.59250
 C1261 C 0.44014 -0.03648 0.09816
 C1262 C 0.46386 -0.04718 0.09316
 C1263 C 0.47688 -0.04234 0.06748
 C1264 C 0.41608 -0.03528 0.14780
 C1265 C 0.44216 -0.01666 0.05197
 C1266 C 0.42915 -0.02186 0.07713
 C1267 C 0.42779 -0.03733 0.12566
 C1268 C 0.46639 -0.02650 0.04675
 H1269 H 0.47270 -0.05832 0.10952
 H1270 H 0.49564 -0.04982 0.06462
 H1271 H 0.43352 -0.00372 0.03735
 H1272 H 0.41096 -0.01321 0.08086
 C1273 C 0.39458 0.47468 0.03128
 C1274 C 0.40447 0.49727 0.04248
 C1275 C 0.42983 0.50354 0.03757
 C1276 C 0.34717 0.45996 0.03444
 C1277 C 0.43513 0.46454 0.01065
 C1278 C 0.41008 0.45833 0.01566
 C1279 C 0.36845 0.46794 0.03421
 C1280 C 0.44550 0.48730 0.02132
 H1281 H 0.39256 0.51015 0.05455
 H1282 H 0.43695 0.52129 0.04601
 H1283 H 0.44600 0.45171 -0.00260
 H1284 H 0.40261 0.44088 0.00669
 C1285 C -0.10788 0.97193 0.53107
 C1286 C -0.09745 0.99453 0.54146
 C1287 C -0.07224 1.00047 0.53540
 C1288 C -0.15548 0.95850 0.53649
 C1289 C -0.06811 0.96108 0.50892
 C1290 C -0.09306 0.95519 0.51508
 C1291 C -0.13400 0.96573 0.53517
 C1292 C -0.05725 0.98388 0.51877
 H1293 H -0.10885 1.00769 0.55379
 H1294 H -0.06474 1.01825 0.54328
 H1295 H -0.05770 0.94797 0.49554
 H1296 H -0.10100 0.93772 0.50674
 C1297 C -0.10920 0.02804 0.96493
 C1298 C -0.09327 0.04564 0.97804
 C1299 C -0.06816 0.04000 0.98255
 C1300 C -0.15677 0.04119 0.96845
 C1301 C -0.07409 -0.00075 0.95947
 C1302 C -0.09959 0.00487 0.95529
 C1303 C -0.13562 0.03366 0.96493
 C1304 C -0.05808 0.01664 0.97366
 H1305 H -0.10058 0.06345 0.98609
 H1306 H -0.05720 0.05361 0.99460
 H1307 H -0.06722 -0.01904 0.95256
 H1308 H -0.11187 -0.00907 0.94542
 C1309 C 0.38489 0.52772 0.46676
 C1310 C 0.40111 0.54517 0.47964
 C1311 C 0.42599 0.53896 0.48477
 C1312 C 0.33788 0.54296 0.46705
 C1313 C 0.41914 0.49771 0.46323
 C1314 C 0.39389 0.50395 0.45834
 C1315 C 0.35879 0.53442 0.46515
 C1316 C 0.43550 0.51511 0.47685
 H1317 H 0.39427 0.56347 0.48671
 H1318 H 0.43731 0.55271 0.49618
 H1319 H 0.42562 0.47912 0.45695
 H1320 H 0.38137 0.49015 0.44862
 C1321 C 0.10377 0.52023 0.52153
 C1322 C 0.08574 0.52849 0.54144
 C1323 C 0.06063 0.52102 0.53854
 C1324 C 0.14895 0.54116 0.52103
 C1325 C 0.07176 0.49594 0.49661
 C1326 C 0.09685 0.50346 0.49952
 C1327 C 0.12865 0.53098 0.52187
 C1328 C 0.05309 0.50560 0.51530
 H1329 H 0.09092 0.54136 0.55869
 H1330 H 0.04716 0.52787 0.55416
 H1331 H 0.06688 0.48366 0.47873
 H1332 H 0.11067 0.49695 0.48395
 C1333 C 0.60693 0.02155 0.02140
 C1334 C 0.58802 0.03208 0.03868
 C1335 C 0.56284 0.02563 0.03399
 C1336 C 0.65315 0.03991 0.02380
 C1337 C 0.57555 -0.00274 -0.00453
 C1338 C 0.60070 0.00373 0.00020
 C1339 C 0.63229 0.03092 0.02340
 C1340 C 0.55617 0.00891 0.01156
 H1341 H 0.59264 0.04585 0.05523
 H1342 H 0.54870 0.03417 0.04762
 H1343 H 0.57134 -0.01599 -0.02173
 H1344 H 0.61521 -0.00449 -0.01338
 C1345 C 0.60626 0.97442 0.47339
 C1346 C 0.59720 0.99753 0.46376
 C1347 C 0.57157 1.00331 0.46691
 C1348 C 0.65372 0.96158 0.47882
 C1349 C 0.56439 0.96281 0.48887
 C1350 C 0.58966 0.95699 0.48534
 C1351 C 0.63265 0.96882 0.47459
 C1352 C 0.55485 0.98616 0.48006
 H1353 H 0.61000 1.01133 0.45477
 H1354 H 0.56514 1.02160 0.46015
 H1355 H 0.55285 0.94940 0.50023
 H1356 H 0.59651 0.93923 0.49336
 C1357 C 0.10969 0.47485 0.97675
 C1358 C 0.10031 0.49783 0.96714
 C1359 C 0.07492 0.50396 0.97196
 C1360 C 0.15701 0.46057 0.97770
 C1361 C 0.06867 0.46409 0.99566
 C1362 C 0.09367 0.45796 0.99058
 C1363 C 0.13596 0.46858 0.97546
 C1364 C 0.05880 0.48724 0.98669
 H1365 H 0.11266 0.51120 0.95666
 H1366 H 0.06821 0.52206 0.96494
 H1367 H 0.05753 0.45094 1.00791
 H1368 H 0.10078 0.44028 0.99852
 C1369 C -0.01610 0.38528 0.47214
 C1370 C -0.00412 0.39180 0.49786
 C1371 C -0.00443 0.41682 0.50792
 C1372 C -0.01022 0.34088 0.44652
 C1373 C -0.02968 0.42844 0.46720
 C1374 C -0.02949 0.40350 0.45736
 C1375 C -0.01290 0.36071 0.45914
 C1376 C -0.01655 0.43566 0.49220
 H1377 H 0.00635 0.37782 0.50946
 H1378 H 0.00600 0.42155 0.52712
 H1379 H -0.03919 0.44225 0.45436
 H1380 H -0.03884 0.39868 0.43743
 C1381 C 0.48728 -0.11069 -0.03690
 C1382 C 0.49786 -0.10451 -0.01028
 C1383 C 0.49789 -0.07946 -0.00031
 C1384 C 0.49192 -0.15583 -0.06114
 C1385 C 0.47587 -0.06703 -0.04312
 C1386 C 0.47574 -0.09199 -0.05288
 C1387 C 0.48979 -0.13561 -0.04923
 C1388 C 0.48749 -0.06024 -0.01701
 H1389 H 0.50687 -0.11887 0.00228
 H1390 H 0.50709 -0.07506 0.01978
 H1391 H 0.46763 -0.05293 -0.05666
 H1392 H 0.46747 -0.09654 -0.07350
 C1393 C 0.00512 -0.10606 1.02478
 C1394 C 0.01711 -0.08705 1.04062
 C1395 C 0.01754 -0.06241 1.03081
 C1396 C 0.00033 -0.15000 1.05046
 C1397 C -0.00487 -0.07562 0.98808
 C1398 C -0.00550 -0.10045 0.99819
 C1399 C 0.00235 -0.13053 1.03752
 C1400 C 0.00622 -0.05613 1.00460
 H1401 H 0.02533 -0.09109 1.06124
 H1402 H 0.02611 -0.04813 1.04445
 H1403 H -0.01398 -0.07156 0.96800
 H1404 H -0.01494 -0.11503 0.98575
 C1405 C 0.50515 0.39337 0.52680
 C1406 C 0.50180 0.41292 0.54670
 C1407 C 0.49985 0.43766 0.53768
 C1408 C 0.50604 0.34799 0.54943
 C1409 C 0.50483 0.42387 0.48828
 C1410 C 0.50669 0.39879 0.49748
 C1411 C 0.50597 0.36804 0.53752
 C1412 C 0.50165 0.44374 0.50835
 H1413 H 0.50029 0.40899 0.56940
 H1414 H 0.49662 0.45194 0.55406
 H1415 H 0.50533 0.42753 0.46554
 H1416 H 0.50895 0.38371 0.48178
 C1417 C 0.49094 1.11143 0.52776
 C1418 C 0.47986 1.09307 0.54494
 C1419 C 0.47989 1.06788 0.53618
 C1420 C 0.49420 1.15720 0.55066
 C1421 C 0.50114 1.07920 0.49203
 C1422 C 0.50126 1.10457 0.50105
 C1423 C 0.49289 1.13677 0.53903
 C1424 C 0.49083 1.06044 0.50976
 H1425 H 0.47185 1.09813 0.56566
 H1426 H 0.47178 1.05419 0.55058
 H1427 H 0.50991 1.07425 0.47173
 H1428 H 0.50998 1.11867 0.48759
 C1429 C -0.00751 0.61232 1.03507
 C1430 C 0.00191 0.60560 1.00787
 C1431 C 0.00287 0.58012 0.99933
 C1432 C -0.00705 0.65876 1.05645
 C1433 C -0.01537 0.56837 1.04502
 C1434 C -0.01645 0.59364 1.05333
 C1435 C -0.00711 0.63800 1.04551
 C1436 C -0.00546 0.56113 1.01801
 H1437 H 0.00895 0.61995 0.99356
 H1438 H 0.01072 0.57532 0.97850
 H1439 H -0.02212 0.55451 1.06009
 H1440 H -0.02379 0.59858 1.07441
 C1441 C 0.51082 0.61120 -0.02524
 C1442 C 0.52405 0.59271 -0.04052
 C1443 C 0.52428 0.56798 -0.03102
 C1444 C 0.50625 0.65482 -0.05145
 C1445 C 0.49927 0.58011 0.01048
 C1446 C 0.49883 0.60503 0.00064
 C1447 C 0.50809 0.63556 -0.03815
 C1448 C 0.51154 0.56108 -0.00564
 H1449 H 0.53331 0.59717 -0.06062
 H1450 H 0.53368 0.55408 -0.04443
 H1451 H 0.48901 0.57556 0.02988
 H1452 H 0.48839 0.61921 0.01262
 C1453 C 0.00813 1.10760 0.47051
 C1454 C 0.01963 1.08889 0.45378
 C1455 C 0.01938 1.06397 0.46264
 C1456 C 0.00473 1.15223 0.44642
 C1457 C -0.00282 1.07627 0.50612
 C1458 C -0.00276 1.10139 0.49697
 C1459 C 0.00611 1.13245 0.45875
 C1460 C 0.00787 1.05712 0.48877
 H1461 H 0.02803 1.09341 0.43322
 H1462 H 0.02769 1.04997 0.44843
 H1463 H -0.01210 1.07177 0.52615
 H1464 H -0.01186 1.11575 0.51006
 C1465 C 0.79407 0.68815 0.85558
 C1466 C 0.80430 0.71215 0.85061
 C1467 C 0.79893 0.72462 0.82496
 C1468 C 0.79180 0.66428 0.90458
 C1469 C 0.77352 0.68890 0.80970
 C1470 C 0.77936 0.67640 0.83465
 C1471 C 0.79483 0.67623 0.88304
 C1472 C 0.78295 0.71331 0.80439
 H1473 H 0.81542 0.72161 0.86694
 H1474 H 0.80609 0.74355 0.82201
 H1475 H 0.76038 0.67966 0.79535
 H1476 H 0.77097 0.65805 0.83842
 C1477 C 0.29207 0.18686 0.34989
 C1478 C 0.30176 0.21137 0.34737
 C1479 C 0.29702 0.22526 0.32258
 C1480 C 0.28771 0.16176 0.39799
 C1481 C 0.27360 0.18979 0.30297
 C1482 C 0.27882 0.17590 0.32719
 C1483 C 0.29149 0.17391 0.37675
 C1484 C 0.28214 0.21488 0.30040
 H1485 H 0.31176 0.22018 0.36506
 H1486 H 0.30357 0.24460 0.32170
 H1487 H 0.26138 0.18114 0.28717
 H1488 H 0.27088 0.15712 0.32905
 C1489 C 0.71290 0.31156 0.35262
 C1490 C 0.70241 0.28759 0.34782
 C1491 C 0.70845 0.27399 0.32271
 C1492 C 0.71229 0.33576 0.40231
 C1493 C 0.73478 0.30874 0.30722
 C1494 C 0.72844 0.32231 0.33187
 C1495 C 0.71105 0.32419 0.37997
 C1496 C 0.72529 0.28417 0.30241
 H1497 H 0.69056 0.27898 0.36398
 H1498 H 0.70103 0.25507 0.32002
 H1499 H 0.74816 0.31723 0.29262
 H1500 H 0.73687 0.34074 0.33550
 C1501 C 0.21439 0.81331 0.85234
 C1502 C 0.20347 0.78943 0.84817
 C1503 C 0.20900 0.77534 0.82322
 C1504 C 0.21434 0.83879 0.90126
 C1505 C 0.23578 0.80937 0.80673
 C1506 C 0.22994 0.82342 0.83119
 C1507 C 0.21283 0.82661 0.87934
 C1508 C 0.22576 0.78493 0.80247
 H1509 H 0.19159 0.78131 0.86463
 H1510 H 0.20118 0.75653 0.82094
 H1511 H 0.24910 0.81744 0.79175
 H1512 H 0.23870 0.84176 0.83431
 C1513 C 0.28150 0.81179 0.14463
 C1514 C 0.29181 0.78768 0.14737
 C1515 C 0.28630 0.77337 0.17180
 C1516 C 0.28055 0.83921 0.09813
 C1517 C 0.26055 0.80753 0.19031
 C1518 C 0.26644 0.82178 0.16650
 C1519 C 0.28290 0.82576 0.11851
 C1520 C 0.27016 0.78300 0.19338
 H1521 H 0.30323 0.77961 0.13028
 H1522 H 0.29370 0.75447 0.17312
 H1523 H 0.24760 0.81565 0.20583
 H1524 H 0.25807 0.84026 0.16446
 C1525 C 0.78077 0.30645 0.64908
 C1526 C 0.79101 0.28219 0.65047
 C1527 C 0.78738 0.26772 0.67521
 C1528 C 0.77543 0.33321 0.60240
 C1529 C 0.76384 0.30210 0.69684
 C1530 C 0.76796 0.31653 0.67269
 C1531 C 0.77956 0.32023 0.62282
 C1532 C 0.77310 0.27729 0.69848
 H1533 H 0.80070 0.27405 0.63208
 H1534 H 0.79439 0.24860 0.67536
 H1535 H 0.75200 0.31014 0.71350
 H1536 H 0.75962 0.33511 0.67174
 C1537 C 0.21738 0.19328 0.64716
 C1538 C 0.23186 0.18295 0.66879
 C1539 C 0.23701 0.19683 0.69356
 C1540 C 0.21806 0.16754 0.59831
 C1541 C 0.21169 0.23120 0.67637
 C1542 C 0.20685 0.21727 0.65113
 C1543 C 0.21633 0.17991 0.62013
 C1544 C 0.22734 0.22134 0.69769
 H1545 H 0.24033 0.16453 0.66588
 H1546 H 0.24960 0.18856 0.70887
 H1547 H 0.20424 0.25008 0.67848
 H1548 H 0.19579 0.22557 0.63433
 C1549 C 0.71883 0.69280 0.15158
 C1550 C 0.70771 0.71655 0.15511
 C1551 C 0.71166 0.73064 0.18043
 C1552 C 0.72131 0.66713 0.10279
 C1553 C 0.73728 0.69687 0.19856
 C1554 C 0.73300 0.68282 0.17369
 C1555 C 0.71877 0.67942 0.12455
 C1556 C 0.72701 0.72117 0.20227
 H1557 H 0.69690 0.72458 0.13793
 H1558 H 0.70381 0.74938 0.18220
 H1559 H 0.74970 0.68894 0.21428
 H1560 H 0.74192 0.66459 0.17110
 C1561 C 0.21932 0.64128 0.21992
 C1562 C 0.20222 0.65758 0.23322
 C1563 C 0.20794 0.68304 0.23656
 C1564 C 0.20628 0.59326 0.22155
 C1565 C 0.24776 0.67656 0.21212
 C1566 C 0.24202 0.65080 0.20898
 C1567 C 0.21347 0.61477 0.21963
 C1568 C 0.23092 0.69302 0.22641
 H1569 H 0.18471 0.65040 0.24204
 H1570 H 0.19476 0.69445 0.24864
 H1571 H 0.26574 0.68334 0.20426
 H1572 H 0.25549 0.63828 0.19874
 C1573 C 0.72273 0.13466 0.71853
 C1574 C 0.70575 0.15042 0.73286
 C1575 C 0.71159 0.17569 0.73769
 C1576 C 0.70877 0.08683 0.71676
 C1577 C 0.75137 0.17016 0.71290
 C1578 C 0.74550 0.14456 0.70823
 C1579 C 0.71649 0.10826 0.71634
 C1580 C 0.73457 0.18606 0.72805
 H1581 H 0.68818 0.14296 0.74119
 H1582 H 0.69838 0.18666 0.75028
 H1583 H 0.76935 0.17724 0.70538
 H1584 H 0.75889 0.13247 0.69720
 C1585 C 0.77937 0.14456 0.28241
 C1586 C 0.79609 0.16037 0.26802
 C1587 C 0.78959 0.18508 0.26239
 C1588 C 0.79466 0.09754 0.28171
 C1589 C 0.74964 0.17902 0.28666
 C1590 C 0.75613 0.15388 0.29199
 C1591 C 0.78609 0.11844 0.28404
 C1592 C 0.76622 0.19491 0.27140
 H1593 H 0.81393 0.15326 0.26003
 H1594 H 0.80262 0.19593 0.24964
 H1595 H 0.73140 0.18571 0.29375
 H1596 H 0.74288 0.14165 0.30286
 C1597 C 0.27804 0.64443 0.78230
 C1598 C 0.29430 0.65983 0.76672
 C1599 C 0.28782 0.68452 0.76094
 C1600 C 0.29377 0.59754 0.78319
 C1601 C 0.24873 0.67922 0.78717
 C1602 C 0.25523 0.65411 0.79275
 C1603 C 0.28495 0.61839 0.78478
 C1604 C 0.26490 0.69473 0.77088
 H1605 H 0.31183 0.65247 0.75813
 H1606 H 0.30056 0.69513 0.74756
 H1607 H 0.23086 0.68623 0.79505
 H1608 H 0.24234 0.64223 0.80462
 C1609 C 0.27975 0.36235 0.72318
 C1610 C 0.29567 0.34668 0.73835
 C1611 C 0.28911 0.32167 0.74288
 C1612 C 0.29525 0.40962 0.72107
 C1613 C 0.25062 0.32733 0.71637
 C1614 C 0.25723 0.35268 0.71195
 C1615 C 0.28689 0.38844 0.72079
 C1616 C 0.26643 0.31149 0.73216
 H1617 H 0.31305 0.35398 0.74734
 H1618 H 0.30165 0.31068 0.75576
 H1619 H 0.23294 0.32036 0.70793
 H1620 H 0.24468 0.36473 0.70023
 C1621 C 0.77576 0.86285 0.22513
 C1622 C 0.79115 0.84837 0.24240
 C1623 C 0.78485 0.82351 0.24813
 C1624 C 0.79138 0.90975 0.21966
 C1625 C 0.74760 0.82702 0.21892
 C1626 C 0.75397 0.85220 0.21323
 C1627 C 0.78290 0.88869 0.22083
 C1628 C 0.76296 0.81235 0.23661
 H1629 H 0.80803 0.85644 0.25181
 H1630 H 0.79717 0.81327 0.26207
 H1631 H 0.73056 0.81922 0.20970
 H1632 H 0.74187 0.86332 0.19983
 C1633 C 0.73196 0.85261 0.77382
 C1634 C 0.74882 0.84546 0.75210
 C1635 C 0.75604 0.82031 0.74900
 C1636 C 0.71093 0.89749 0.77105
 C1637 C 0.73061 0.80948 0.79033
 C1638 C 0.72334 0.83470 0.79336
 C1639 C 0.72113 0.87740 0.77348
 C1640 C 0.74614 0.80173 0.76732
 H1641 H 0.75551 0.85913 0.73673
 H1642 H 0.76831 0.81535 0.73122
 H1643 H 0.72347 0.79607 0.80557
 H1644 H 0.71028 0.84002 0.81030
 C1645 C 0.22820 0.35560 0.28424
 C1646 C 0.21072 0.33913 0.27186
 C1647 C 0.21683 0.31406 0.26663
 C1648 C 0.21387 0.40297 0.28241
 C1649 C 0.25783 0.32109 0.28761
 C1650 C 0.25173 0.34655 0.29249
 C1651 C 0.22196 0.38195 0.28501
 C1652 C 0.24056 0.30455 0.27408
 H1653 H 0.19262 0.34598 0.26487
 H1654 H 0.20329 0.30278 0.25496
 H1655 H 0.27639 0.31469 0.29337
 H1656 H 0.26557 0.35925 0.30180
 C1657 C 0.14109 0.24637 0.77629
 C1658 C 0.15918 0.23453 0.79284
 C1659 C 0.18430 0.23451 0.78421
 C1660 C 0.09558 0.24957 0.79933
 C1661 C 0.17343 0.25714 0.74135
 C1662 C 0.14813 0.25731 0.75023
 C1663 C 0.11587 0.24838 0.78762
 C1664 C 0.19196 0.24613 0.75854
 H1665 H 0.15401 0.22602 0.81305
 H1666 H 0.19782 0.22595 0.79828
 H1667 H 0.17854 0.26649 0.72166
 H1668 H 0.13425 0.26662 0.73725
 C1669 C 0.63874 0.74414 0.27789
 C1670 C 0.64612 0.75481 0.25182
 C1671 C 0.67162 0.75530 0.24384
 C1672 C 0.59258 0.74672 0.29914
 C1673 C 0.68205 0.73382 0.28764
 C1674 C 0.65672 0.73320 0.29539
 C1675 C 0.61322 0.74570 0.28828
 C1676 C 0.69001 0.74523 0.26197
 H1677 H 0.63232 0.76343 0.23814
 H1678 H 0.67695 0.76444 0.22410
 H1679 H 0.69546 0.72595 0.30235
 H1680 H 0.65126 0.72491 0.31562
 C1681 C 0.64265 0.25843 0.22084
 C1682 C 0.64849 0.24726 0.24702
 C1683 C 0.67340 0.24748 0.25689
 C1684 C 0.59839 0.25467 0.19558
 C1685 C 0.68624 0.27048 0.21471
 C1686 C 0.66152 0.27045 0.20513
 C1687 C 0.61802 0.25621 0.20835
 C1688 C 0.69271 0.25875 0.24057
 H1689 H 0.63401 0.23774 0.25931
 H1690 H 0.67762 0.23797 0.27664
 H1691 H 0.70040 0.27919 0.20125
 H1692 H 0.65728 0.27907 0.18481
 C1693 C 0.14146 0.75900 0.72192
 C1694 C 0.16020 0.77128 0.70625
 C1695 C 0.18496 0.77141 0.71572
 C1696 C 0.09729 0.75460 0.69648
 C1697 C 0.17243 0.74810 0.75779
 C1698 C 0.14748 0.74777 0.74801
 C1699 C 0.11686 0.75646 0.70934
 C1700 C 0.19163 0.75952 0.74143
 H1701 H 0.15585 0.77994 0.68598
 H1702 H 0.19902 0.78018 0.70218
 H1703 H 0.17679 0.73848 0.77743
 H1704 H 0.13311 0.73806 0.76027
 C1705 C 0.86502 0.73319 0.71802
 C1706 C 0.84599 0.72060 0.70297
 C1707 C 0.82138 0.72060 0.71348
 C1708 C 0.90926 0.73766 0.69206
 C1709 C 0.83481 0.74462 0.75527
 C1710 C 0.85953 0.74473 0.74452
 C1711 C 0.88950 0.73568 0.70479
 C1712 C 0.81524 0.73311 0.73947
 H1713 H 0.84999 0.71156 0.68245
 H1714 H 0.80701 0.71150 0.70058
 H1715 H 0.83091 0.75452 0.77524
 H1716 H 0.87413 0.75457 0.75638
 C1717 C 0.36456 0.24202 0.21854
 C1718 C 0.35878 0.25189 0.24586
 C1719 C 0.33381 0.25164 0.25598
 C1720 C 0.40943 0.24500 0.19383
 C1721 C 0.32076 0.23119 0.21171
 C1722 C 0.34552 0.23129 0.20184
 C1723 C 0.38946 0.24386 0.20627
 C1724 C 0.31437 0.24163 0.23879
 H1725 H 0.37340 0.26032 0.25898
 H1726 H 0.32967 0.26001 0.27678
 H1727 H 0.30654 0.22331 0.19764
 H1728 H 0.34971 0.22359 0.18070
 C1729 C 0.35632 0.75884 0.26936
 C1730 C 0.33819 0.77064 0.28655
 C1731 C 0.31305 0.77025 0.27851
 C1732 C 0.40132 0.75547 0.29257
 C1733 C 0.32396 0.74731 0.23492
 C1734 C 0.34930 0.74749 0.24326
 C1735 C 0.38140 0.75684 0.28049
 C1736 C 0.30541 0.75833 0.25275
 H1737 H 0.34334 0.77936 0.30686
 H1738 H 0.29954 0.77881 0.29307
 H1739 H 0.31884 0.73770 0.21516
 H1740 H 0.36321 0.73811 0.22987
 C1741 C 0.85906 0.25398 0.77510
 C1742 C 0.85267 0.24383 0.74815
 C1743 C 0.82735 0.24274 0.73967
 C1744 C 0.90449 0.25325 0.79779
 C1745 C 0.81518 0.26227 0.78491
 C1746 C 0.84025 0.26354 0.79311
 C1747 C 0.88437 0.25340 0.78595
 C1748 C 0.80820 0.25163 0.75819
 H1749 H 0.86712 0.23624 0.73405
 H1750 H 0.82275 0.23428 0.71909
 H1751 H 0.80123 0.26935 0.79995
 H1752 H 0.84490 0.27138 0.81402
 C1753 C 0.55814 0.96763 0.59730
 C1754 C 0.56942 0.98148 0.57548
 C1755 C 0.55628 0.98646 0.55056
 C1756 C 0.58285 0.96845 0.64616
 C1757 C 0.52084 0.96205 0.56799
 C1758 C 0.53402 0.95738 0.59334
 C1759 C 0.57080 0.96680 0.62441
 C1760 C 0.53160 0.97725 0.54653
 H1761 H 0.58798 0.98968 0.57836
 H1762 H 0.56520 0.99879 0.53521
 H1763 H 0.50179 0.95496 0.56598
 H1764 H 0.52503 0.94675 0.61026
 C1765 C 0.06318 0.46917 1.10462
 C1766 C 0.03915 0.45867 1.10084
 C1767 C 0.02586 0.46298 1.07547
 C1768 C 0.08763 0.47087 1.15372
 C1769 C 0.06107 0.48747 1.05759
 C1770 C 0.07432 0.48284 1.08255
 C1771 C 0.07580 0.46883 1.13182
 C1772 C 0.03640 0.47810 1.05381
 H1773 H 0.03026 0.44815 1.11792
 H1774 H 0.00686 0.45573 1.07362
 H1775 H 0.06984 0.49970 1.04204
 H1776 H 0.09282 0.49121 1.08527
 C1777 C -0.06280 0.03540 1.09262
 C1778 C -0.03875 0.04585 1.08897
 C1779 C -0.02557 0.04190 1.06315
 C1780 C -0.08589 0.03158 1.14261
 C1781 C -0.06100 0.01802 1.04453
 C1782 C -0.07417 0.02232 1.06997
 C1783 C -0.07484 0.03462 1.12027
 C1784 C -0.03622 0.02715 1.04090
 H1785 H -0.02969 0.05585 1.10653
 H1786 H -0.00647 0.04892 1.06147
 H1787 H -0.06981 0.00598 1.02857
 H1788 H -0.09267 0.01394 1.07265
 C1789 C 0.43716 0.53793 0.59540
 C1790 C 0.42438 0.52528 0.57348
 C1791 C 0.43627 0.52043 0.54740
 C1792 C 0.41574 0.53406 0.64628
 C1793 C 0.47325 0.54314 0.56378
 C1794 C 0.46137 0.54755 0.59034
 C1795 C 0.42628 0.53726 0.62367
 C1796 C 0.46114 0.52871 0.54224
 H1797 H 0.40577 0.51747 0.57726
 H1798 H 0.42643 0.50840 0.53225
 H1799 H 0.49252 0.54939 0.56098
 H1800 H 0.47155 0.55718 0.60735
 C1801 C 0.44169 0.47159 -0.09734
 C1802 C 0.46551 0.46083 -0.09405
 C1803 C 0.47880 0.46459 -0.06839
 C1804 C 0.41802 0.47506 -0.14669
 C1805 C 0.44405 0.48912 -0.04938
 C1806 C 0.43079 0.48502 -0.07460
 C1807 C 0.42932 0.47212 -0.12468
 C1808 C 0.46849 0.47942 -0.04595
 H1809 H 0.47426 0.45058 -0.11169
 H1810 H 0.49766 0.45716 -0.06686
 H1811 H 0.43548 0.50119 -0.03322
 H1812 H 0.41251 0.49368 -0.07697
 C1813 C -0.06197 0.96739 0.39913
 C1814 C -0.03813 0.95669 0.40229
 C1815 C -0.02493 0.96012 0.42804
 C1816 C -0.08474 0.97225 0.34941
 C1817 C -0.05993 0.98401 0.44754
 C1818 C -0.07311 0.98023 0.42218
 C1819 C -0.07394 0.96870 0.37162
 C1820 C -0.03534 0.97461 0.45070
 H1821 H -0.02922 0.94687 0.38444
 H1822 H -0.00599 0.95289 0.42939
 H1823 H -0.06857 0.99584 0.46387
 H1824 H -0.09143 0.98882 0.41991
 C1825 C 0.05723 0.52618 0.40334
 C1826 C 0.06325 0.53657 0.43024
 C1827 C 0.04702 0.53291 0.45370
 C1828 C 0.08951 0.52206 0.36021
 C1829 C 0.01829 0.50986 0.42288
 C1830 C 0.03422 0.51384 0.39955
 C1831 C 0.07530 0.52520 0.38021
 C1832 C 0.02515 0.51795 0.45073
 H1833 H 0.08092 0.54647 0.43338
 H1834 H 0.05239 0.54060 0.47437
 H1835 H 0.00126 0.49911 0.41904
 H1836 H 0.02918 0.50599 0.37877
 C1837 C 0.56220 0.02982 -0.10231
 C1838 C 0.56999 0.03760 -0.07493
 C1839 C 0.55378 0.03477 -0.05130
 C1840 C 0.59332 0.02287 -0.14610
 C1841 C 0.52161 0.01814 -0.08282
 C1842 C 0.53756 0.02133 -0.10631
 C1843 C 0.57974 0.02723 -0.12581
 C1844 C 0.53011 0.02302 -0.05466
 H1845 H 0.58890 0.04473 -0.07162
 H1846 H 0.56035 0.04068 -0.03040
 H1847 H 0.50313 0.01026 -0.08687
 H1848 H 0.53113 0.01565 -0.12746
 C1849 C 0.60964 0.52971 -0.02038
 C1850 C 0.59396 0.54622 -0.00525
 C1851 C 0.56878 0.54018 -0.00085
 C1852 C 0.65714 0.54423 -0.02232
 C1853 C 0.57433 0.50106 -0.02747
 C1854 C 0.59982 0.50715 -0.03175
 C1855 C 0.63585 0.53630 -0.02263
 C1856 C 0.55847 0.51745 -0.01167
 H1857 H 0.60136 0.56365 0.00383
 H1858 H 0.55774 0.55315 0.01202
 H1859 H 0.56725 0.48331 -0.03597
 H1860 H 0.61188 0.49416 -0.04346
 C1861 C 0.10586 1.02633 0.47268
 C1862 C 0.09005 1.04312 0.48718
 C1863 C 0.06499 1.03694 0.49198
 C1864 C 0.15318 1.04134 0.47095
 C1865 C 0.07081 0.99711 0.46689
 C1866 C 0.09624 1.00334 0.46224
 C1867 C 0.13202 1.03308 0.47045
 C1868 C 0.05485 1.01379 0.48216
 H1869 H 0.09731 1.06087 0.49560
 H1870 H 0.05399 1.05010 0.50463
 H1871 H 0.06390 0.97903 0.45920
 H1872 H 0.10841 0.99010 0.45107
 C1873 C 0.10382 -0.02456 1.02194
 C1874 C 0.09390 -0.00163 1.03190
 C1875 C 0.06878 0.00440 1.02619
 C1876 C 0.15093 -0.03900 1.02630
 C1877 C 0.06378 -0.03551 1.00094
 C1878 C 0.08860 -0.04149 1.00676
 C1879 C 0.12977 -0.03106 1.02555
 C1880 C 0.05341 -0.01242 1.01033
 H1881 H 0.10563 0.01169 1.04361
 H1882 H 0.06164 0.02242 1.03367
 H1883 H 0.05311 -0.04882 0.98810
 H1884 H 0.09613 -0.05921 0.99874
 C1885 C 0.59910 0.47533 0.51873
 C1886 C 0.59375 0.49170 0.49638
 C1887 C 0.56895 0.49883 0.49122
 C1888 C 0.64450 0.45579 0.52279
 C1889 C 0.55488 0.47404 0.53154
 C1890 C 0.57969 0.46695 0.53666
 C1891 C 0.62401 0.46529 0.52156
 C1892 C 0.54902 0.48924 0.50804
 H1893 H 0.60864 0.49827 0.48232
 H1894 H 0.56537 0.51088 0.47319
 H1895 H 0.54034 0.46715 0.54571
 H1896 H 0.58364 0.45436 0.55414
 C1897 C -0.11420 0.46979 0.48521
 C1898 C -0.10426 0.49238 0.47472
 C1899 C -0.07858 0.49791 0.47802
 C1900 C -0.16229 0.45716 0.48441
 C1901 C -0.07303 0.45816 0.50200
 C1902 C -0.09846 0.45270 0.49862
 C1903 C -0.14062 0.46394 0.48377
 C1904 C -0.06261 0.48090 0.49194
 H1905 H -0.11634 0.50583 0.46440
 H1906 H -0.07141 0.51565 0.47009
 H1907 H -0.06182 0.44472 0.51338
 H1908 H -0.10598 0.43524 0.50704
 C1909 C 0.39005 -0.02570 -0.02649
 C1910 C 0.40021 -0.00277 -0.03570
 C1911 C 0.42585 0.00252 -0.03169
 C1912 C 0.34184 -0.03759 -0.02645
 C1913 C 0.43092 -0.03817 -0.00965
 C1914 C 0.40556 -0.04342 -0.01382
 C1915 C 0.36356 -0.03108 -0.02771
 C1916 C 0.44153 -0.01505 -0.01824
 H1917 H 0.38827 0.01119 -0.04538
 H1918 H 0.43317 0.02057 -0.03849
 H1919 H 0.44182 -0.05200 0.00152
 H1920 H 0.39785 -0.06111 -0.00628
 C1921 C 0.39201 1.02989 0.52534
 C1922 C 0.40799 1.04680 0.51150
 C1923 C 0.43305 1.04069 0.50649
 C1924 C 0.34413 1.04269 0.52607
 C1925 C 0.42677 1.00081 0.53016
 C1926 C 0.40143 1.00694 0.53499
 C1927 C 0.36569 1.03589 0.52707
 C1928 C 0.44289 1.01749 0.51542
 H1929 H 0.40085 1.06447 0.50359
 H1930 H 0.44423 1.05383 0.49428
 H1931 H 0.43345 0.98270 0.53721
 H1932 H 0.38912 0.99358 0.54555
 C1933 C -0.10390 0.53009 1.03383
 C1934 C -0.08784 0.54730 1.02058
 C1935 C -0.06276 0.54132 1.01563
 C1936 C -0.15179 0.54286 1.03368
 C1937 C -0.06905 0.50102 1.03836
 C1938 C -0.09446 0.50701 1.04309
 C1939 C -0.13027 0.53597 1.03512
 C1940 C -0.05289 0.51799 1.02409
 H1941 H -0.09499 0.56506 1.01292
 H1942 H -0.05167 0.55462 1.00357
 H1943 H -0.06237 0.48279 1.04500
 H1944 H -0.10683 0.49341 1.05317
 C1945 C 0.01258 0.60399 0.52895
 C1946 C 0.01064 0.59626 0.50015
 C1947 C 0.00807 0.57050 0.49309
 C1948 C 0.01371 0.65106 0.54831
 C1949 C 0.00940 0.56057 0.54353
 C1950 C 0.01213 0.58601 0.55043
 C1951 C 0.01351 0.63016 0.53771
 C1952 C 0.00758 0.55223 0.51475
 H1953 H 0.01057 0.61009 0.48329
 H1954 H 0.00578 0.56502 0.47082
 H1955 H 0.00811 0.54763 0.56118
 H1956 H 0.01322 0.59173 0.57281
 C1957 C 0.51446 0.10732 0.02633
 C1958 C 0.51121 0.08894 0.04708
 C1959 C 0.50901 0.06368 0.03917
 C1960 C 0.51463 0.15395 0.04713
 C1961 C 0.51382 0.07455 -0.01080
 C1962 C 0.51588 0.10016 -0.00273
 C1963 C 0.51498 0.13329 0.03592
 C1964 C 0.51046 0.05589 0.01013
 H1965 H 0.50980 0.09420 0.06959
 H1966 H 0.50571 0.05037 0.05616
 H1967 H 0.51416 0.06953 -0.03336
 H1968 H 0.51807 0.11431 -0.01909
 C1969 C -0.01209 0.11127 0.96282
 C1970 C -0.02175 0.09233 0.94489
 C1971 C -0.02107 0.06724 0.95315
 C1972 C -0.00943 0.15692 0.94090
 C1973 C -0.00193 0.07976 0.99819
 C1974 C -0.00247 0.10503 0.98969
 C1975 C -0.01065 0.13659 0.95212
 C1976 C -0.01088 0.06045 0.97978
 H1977 H -0.02919 0.09689 0.92403
 H1978 H -0.02820 0.05311 0.93827
 H1979 H 0.00621 0.07532 1.01869
 H1980 H 0.00519 0.11957 1.00372
 C1981 C 0.48041 0.60908 0.45866
 C1982 C 0.48997 0.60373 0.48581
 C1983 C 0.49099 0.57874 0.49511
 C1984 C 0.48292 0.65445 0.43602
 C1985 C 0.47232 0.56464 0.45037
 C1986 C 0.47120 0.58951 0.44127
 C1987 C 0.48160 0.63417 0.44733
 C1988 C 0.48262 0.55880 0.47724
 H1989 H 0.49724 0.61876 0.49943
 H1990 H 0.49905 0.57505 0.51585
 H1991 H 0.46550 0.54997 0.43599
 H1992 H 0.46378 0.59340 0.42021
 C1993 C 0.50673 0.89214 0.46635
 C1994 C 0.51799 0.91062 0.44949
 C1995 C 0.51790 0.93576 0.45848
 C1996 C 0.50250 0.84669 0.44268
 C1997 C 0.49622 0.92418 0.50225
 C1998 C 0.49616 0.89886 0.49300
 C1999 C 0.50447 0.86693 0.45464
 C2000 C 0.50672 0.94306 0.48483
 H2001 H 0.52615 0.90571 0.42880
 H2002 H 0.52616 0.94954 0.44430
 H2003 H 0.48726 0.92901 0.52248
 H2004 H 0.48723 0.88470 0.50619
 C2005 C 0.01085 0.39340 0.97208
 C2006 C 0.02239 0.41212 0.95581
 C2007 C 0.02243 0.43708 0.96544
 C2008 C 0.00654 0.34841 0.94716
 C2009 C 0.00042 0.42483 1.00874
 C2010 C 0.00020 0.39968 0.99883
 C2011 C 0.00848 0.36843 0.95967
 C2012 C 0.01115 0.44398 0.99188
 H2013 H 0.03063 0.40756 0.93506
 H2014 H 0.03081 0.45107 0.95161
 H2015 H -0.00863 0.42936 1.02901
 H2016 H -0.00892 0.38533 1.01159
 C2017 C 0.49146 0.39251 0.02964
 C2018 C 0.50217 0.39962 0.00340
 C2019 C 0.50246 0.42506 -0.00452
 C2020 C 0.49579 0.34677 0.05096
 C2021 C 0.48071 0.43601 0.03970
 C2022 C 0.48027 0.41073 0.04738
 C2023 C 0.49369 0.36718 0.04012
 C2024 C 0.49218 0.44370 0.01386
 H2025 H 0.51103 0.38566 -0.01047
 H2026 H 0.51161 0.43017 -0.02442
 H2027 H 0.47263 0.44962 0.05458
 H2028 H 0.47200 0.40553 0.06777
 C2029 C -0.01121 0.88920 0.52808
 C2030 C -0.02215 0.90777 0.54554
 C2031 C -0.02184 0.93289 0.53720
 C2032 C -0.00660 0.84386 0.55043
 C2033 C -0.00073 0.92106 0.49287
 C2034 C -0.00088 0.89579 0.50145
 C2035 C -0.00884 0.86407 0.53915
 C2036 C -0.01074 0.94006 0.51096
 H2037 H -0.03013 0.90298 0.56622
 H2038 H -0.02970 0.94677 0.55189
 H2039 H 0.00812 0.92579 0.47266
 H2040 H 0.00779 0.88157 0.48778
 C2041 C 0.22088 0.31082 0.15675
 C2042 C 0.21129 0.28628 0.15926
 C2043 C 0.21583 0.27252 0.18415
 C2044 C 0.22367 0.33570 0.10831
 C2045 C 0.23872 0.30824 0.20402
 C2046 C 0.23379 0.32197 0.17958
 C2047 C 0.22104 0.32376 0.12990
 C2048 C 0.23031 0.28309 0.20656
 H2049 H 0.20148 0.27736 0.14150
 H2050 H 0.20947 0.25312 0.18492
 H2051 H 0.25066 0.31703 0.21999
 H2052 H 0.24157 0.34083 0.17774
 C2053 C 0.71923 0.80480 0.65738
 C2054 C 0.71047 0.81077 0.68502
 C2055 C 0.71583 0.79480 0.70784
 C2056 C 0.72040 0.83701 0.61484
 C2057 C 0.73736 0.76641 0.67497
 C2058 C 0.73169 0.78210 0.65228
 C2059 C 0.71858 0.82280 0.63466
 C2060 C 0.73083 0.77325 0.70339
 H2061 H 0.70054 0.82823 0.68917
 H2062 H 0.70930 0.80009 0.72907
 H2063 H 0.74810 0.74962 0.67009
 H2064 H 0.73835 0.77715 0.63092
 C2065 C 0.27940 0.68945 0.65108
 C2066 C 0.28988 0.71363 0.65421
 C2067 C 0.28707 0.72699 0.68022
 C2068 C 0.27323 0.66590 0.60144
 C2069 C 0.26429 0.69150 0.69995
 C2070 C 0.26749 0.67815 0.67434
 C2071 C 0.27733 0.67719 0.62353
 C2072 C 0.27344 0.71639 0.70316
 H2073 H 0.29897 0.72265 0.63617
 H2074 H 0.29400 0.74620 0.68156
 H2075 H 0.25297 0.68273 0.71641
 H2076 H 0.25908 0.65956 0.67208
 C2077 C 0.78349 0.18936 0.15250
 C2078 C 0.77132 0.17806 0.17559
 C2079 C 0.76722 0.19162 0.20086
 C2080 C 0.77893 0.16467 0.10336
 C2081 C 0.78954 0.22745 0.18123
 C2082 C 0.79324 0.21385 0.15551
 C2083 C 0.78236 0.17659 0.12517
 C2084 C 0.77575 0.21674 0.20400
 H2085 H 0.76342 0.15925 0.17340
 H2086 H 0.75571 0.18276 0.21709
 H2087 H 0.79596 0.24683 0.18247
 H2088 H 0.80248 0.22288 0.13757
 C2089 C 0.71760 0.18099 0.84635
 C2090 C 0.70668 0.20473 0.84305
 C2091 C 0.71062 0.21808 0.81766
 C2092 C 0.72156 0.15833 0.89601
 C2093 C 0.73548 0.18340 0.79878
 C2094 C 0.73119 0.17006 0.82378
 C2095 C 0.71840 0.16903 0.87375
 C2096 C 0.72584 0.20790 0.79555
 H2097 H 0.69628 0.21346 0.86058
 H2098 H 0.70314 0.23694 0.81620
 H2099 H 0.74774 0.17493 0.78278
 H2100 H 0.73994 0.15181 0.82620
 C2101 C 0.21459 0.68981 0.34419
 C2102 C 0.22825 0.67870 0.32179
 C2103 C 0.23280 0.69188 0.29676
 C2104 C 0.21726 0.66633 0.39350
 C2105 C 0.20827 0.72693 0.31528
 C2106 C 0.20406 0.71372 0.34075
 C2107 C 0.21469 0.67756 0.37146
 C2108 C 0.22332 0.71642 0.29322
 H2109 H 0.23671 0.66032 0.32432
 H2110 H 0.24499 0.68316 0.28088
 H2111 H 0.20099 0.74586 0.31363
 H2112 H 0.19364 0.72261 0.35815
 C2113 C 0.77647 0.81720 0.35590
 C2114 C 0.78820 0.79382 0.35169
 C2115 C 0.78509 0.78044 0.32573
 C2116 C 0.77270 0.84062 0.40612
 C2117 C 0.75932 0.81431 0.30814
 C2118 C 0.76272 0.82766 0.33372
 C2119 C 0.77563 0.82953 0.38359
 C2120 C 0.76995 0.79022 0.30389
 H2121 H 0.79878 0.78545 0.36884
 H2122 H 0.79333 0.76190 0.32349
 H2123 H 0.74716 0.82249 0.29232
 H2124 H 0.75339 0.84563 0.33676
 C2125 C 0.28193 0.31565 0.85041
 C2126 C 0.29265 0.29178 0.84622
 C2127 C 0.28872 0.27842 0.82040
 C2128 C 0.27875 0.33926 0.90050
 C2129 C 0.26411 0.31323 0.80300
 C2130 C 0.26837 0.32656 0.82838
 C2131 C 0.28156 0.32802 0.87806
 C2132 C 0.27376 0.28873 0.79871
 H2133 H 0.30299 0.28303 0.86332
 H2134 H 0.29615 0.25954 0.81817
 H2135 H 0.25201 0.32180 0.78740
 H2136 H 0.25977 0.34489 0.83146
 C2137 C 0.77859 0.34852 0.77958
 C2138 C 0.79473 0.33331 0.76337
 C2139 C 0.78816 0.30852 0.75689
 C2140 C 0.79410 0.39562 0.78479
 C2141 C 0.74922 0.31346 0.78355
 C2142 C 0.75584 0.33860 0.78992
 C2143 C 0.78570 0.37449 0.78377
 C2144 C 0.76526 0.29810 0.76666
 H2145 H 0.81228 0.34083 0.75502
 H2146 H 0.80085 0.29797 0.74316
 H2147 H 0.73137 0.30630 0.79135
 H2148 H 0.74311 0.35032 0.80242
 C2149 C 0.27633 0.85680 0.26969
 C2150 C 0.29236 0.84078 0.25436
 C2151 C 0.28574 0.81573 0.24957
 C2152 C 0.29229 0.90391 0.27230
 C2153 C 0.24696 0.82203 0.27617
 C2154 C 0.25365 0.84743 0.28086
 C2155 C 0.28361 0.88287 0.27235
 C2156 C 0.26288 0.80584 0.26017
 H2157 H 0.30987 0.84784 0.24542
 H2158 H 0.29835 0.80451 0.23647
 H2159 H 0.22914 0.81531 0.28452
 H2160 H 0.24102 0.85975 0.29272
 C2161 C 0.22378 0.85764 0.72609
 C2162 C 0.24637 0.84757 0.71551
 C2163 C 0.25220 0.82221 0.72037
 C2164 C 0.20971 0.90508 0.72263
 C2165 C 0.21274 0.81724 0.74596
 C2166 C 0.20697 0.84230 0.74101
 C2167 C 0.21744 0.88378 0.72310
 C2168 C 0.23550 0.80671 0.73594
 H2169 H 0.25959 0.85935 0.70396
 H2170 H 0.26997 0.81497 0.71244
 H2171 H 0.19951 0.80647 0.75858
 H2172 H 0.18950 0.84991 0.74946
 C2173 C 0.72437 0.35782 0.22839
 C2174 C 0.74735 0.34825 0.21836
 C2175 C 0.75315 0.32275 0.22230
 C2176 C 0.71038 0.40539 0.22757
 C2177 C 0.71288 0.31667 0.24583
 C2178 C 0.70712 0.34186 0.24174
 C2179 C 0.71813 0.38410 0.22681
 C2180 C 0.73606 0.30663 0.23646
 H2181 H 0.76092 0.36053 0.20807
 H2182 H 0.77127 0.31591 0.21499
 H2183 H 0.69939 0.30550 0.25760
 H2184 H 0.68936 0.34910 0.24982
 C2185 C 0.72282 0.64789 0.27811
 C2186 C 0.74494 0.65842 0.28935
 C2187 C 0.75060 0.68397 0.28496
 C2188 C 0.71051 0.59964 0.27924
 C2189 C 0.71189 0.68823 0.25849
 C2190 C 0.70626 0.66297 0.26301
 C2191 C 0.71713 0.62142 0.27999
 C2192 C 0.73424 0.69920 0.26913
 H2193 H 0.75801 0.64683 0.30096
 H2194 H 0.76806 0.69155 0.29335
 H2195 H 0.69900 0.69874 0.24553
 H2196 H 0.68921 0.65500 0.25394
 C2197 C 0.22273 0.14759 0.77259
 C2198 C 0.24528 0.15751 0.78343
 C2199 C 0.25141 0.18299 0.77930
 C2200 C 0.20980 0.09945 0.77292
 C2201 C 0.21230 0.18844 0.75392
 C2202 C 0.20620 0.16324 0.75820
 C2203 C 0.21664 0.12116 0.77402
 C2204 C 0.23509 0.19879 0.76412
 H2205 H 0.25833 0.14548 0.79447
 H2206 H 0.26919 0.19006 0.78734
 H2207 H 0.19941 0.19941 0.74146
 H2208 H 0.18882 0.15575 0.74943
 C2209 C 0.28336 0.14242 0.22207
 C2210 C 0.26015 0.15196 0.21344
 C2211 C 0.25431 0.17740 0.21871
 C2212 C 0.29541 0.09422 0.22130
 C2213 C 0.29506 0.18355 0.24066
 C2214 C 0.30088 0.15841 0.23518
 C2215 C 0.28898 0.11594 0.22034
 C2216 C 0.27157 0.19349 0.23290
 H2217 H 0.24632 0.13965 0.20347
 H2218 H 0.23596 0.18413 0.21259
 H2219 H 0.30863 0.19466 0.25254
 H2220 H 0.31877 0.15117 0.24234
 C2221 C 0.78170 0.63452 0.73278
 C2222 C 0.75844 0.64380 0.72394
 C2223 C 0.75293 0.66951 0.72752
 C2224 C 0.79428 0.58651 0.73336
 C2225 C 0.79401 0.67637 0.74841
 C2226 C 0.79948 0.65094 0.74466
 C2227 C 0.78744 0.60806 0.73192
 C2228 C 0.77059 0.68614 0.74016
 H2229 H 0.74443 0.63115 0.71488
 H2230 H 0.73464 0.67615 0.72105
 H2231 H 0.80793 0.68799 0.75907
 H2232 H 0.81743 0.64394 0.75193
 C2233 C 0.85784 0.76818 0.22483
 C2234 C 0.85126 0.75638 0.25057
 C2235 C 0.82601 0.75577 0.25974
 C2236 C 0.90260 0.76514 0.19989
 C2237 C 0.81432 0.77923 0.21778
 C2238 C 0.83935 0.78007 0.20894
 C2239 C 0.88278 0.76643 0.21264
 C2240 C 0.80709 0.76676 0.24309
 H2241 H 0.86544 0.74694 0.26299
 H2242 H 0.82123 0.74575 0.27910
 H2243 H 0.80053 0.78768 0.20398
 H2244 H 0.84413 0.78912 0.18892
 C2245 C 0.36027 0.26583 0.71997
 C2246 C 0.34189 0.27703 0.70328
 C2247 C 0.31674 0.27627 0.71174
 C2248 C 0.40567 0.26316 0.69655
 C2249 C 0.32809 0.25409 0.75475
 C2250 C 0.35344 0.25467 0.74599
 C2251 C 0.38550 0.26431 0.70855
 C2252 C 0.30931 0.26451 0.73742
 H2253 H 0.34687 0.28563 0.68306
 H2254 H 0.30306 0.28444 0.69758
 H2255 H 0.32315 0.24468 0.77446
 H2256 H 0.36753 0.24578 0.75905
 C2257 C 0.35958 0.73770 0.77886
 C2258 C 0.35282 0.74701 0.75201
 C2259 C 0.32733 0.74872 0.74454
 C2260 C 0.40594 0.73773 0.79912
 C2261 C 0.31560 0.73149 0.79059
 C2262 C 0.34087 0.72966 0.79784
 C2263 C 0.38531 0.73770 0.78846
 C2264 C 0.30835 0.74127 0.76394
 H2265 H 0.36717 0.75344 0.73717
 H2266 H 0.32254 0.75642 0.72394
 H2267 H 0.30176 0.72541 0.80619
 H2268 H 0.34581 0.72249 0.81869
 C2269 C 0.86028 0.23847 0.28083
 C2270 C 0.85377 0.24737 0.25373
 C2271 C 0.82835 0.24909 0.24602
 C2272 C 0.90650 0.23815 0.30138
 C2273 C 0.81622 0.23277 0.29239
 C2274 C 0.84143 0.23093 0.29988
 C2275 C 0.88595 0.23829 0.29055
 C2276 C 0.80921 0.24205 0.26543
 H2277 H 0.86824 0.25341 0.23884
 H2278 H 0.82372 0.25642 0.22519
 H2279 H 0.80226 0.22698 0.30799
 H2280 H 0.84620 0.22407 0.32093
 C2281 C 0.14680 0.25735 0.28494
 C2282 C 0.15336 0.24871 0.25736
 C2283 C 0.17870 0.24827 0.24866
 C2284 C 0.10058 0.25413 0.30620
 C2285 C 0.19072 0.26552 0.29498
 C2286 C 0.16554 0.26608 0.30347
 C2287 C 0.12127 0.25579 0.29549
 C2288 C 0.19778 0.25636 0.26754
 H2289 H 0.13900 0.24176 0.24284
 H2290 H 0.18332 0.24097 0.22751
 H2291 H 0.20467 0.27205 0.31021
 H2292 H 0.16075 0.27276 0.32489
 C2293 C 0.64813 0.75710 0.78365
 C2294 C 0.66672 0.75786 0.80461
 C2295 C 0.69204 0.75647 0.79691
 C2296 C 0.60114 0.75462 0.80278
 C2297 C 0.68067 0.75420 0.74679
 C2298 C 0.65512 0.75545 0.75464
 C2299 C 0.62214 0.75616 0.79282
 C2300 C 0.69957 0.75475 0.76786
 H2301 H 0.66162 0.75875 0.82715
 H2302 H 0.70560 0.75600 0.81407
 H2303 H 0.68552 0.75196 0.72433
 H2304 H 0.64087 0.75446 0.73817
 C2305 C 0.64058 0.23448 0.71809
 C2306 C 0.65877 0.22261 0.70101
 C2307 C 0.68377 0.22216 0.70971
 C2308 C 0.59582 0.24072 0.69488
 C2309 C 0.67250 0.24430 0.75370
 C2310 C 0.64736 0.24492 0.74475
 C2311 C 0.61576 0.23777 0.70655
 C2312 C 0.69118 0.23340 0.73596
 H2313 H 0.65381 0.21456 0.68030
 H2314 H 0.69742 0.21370 0.69525
 H2315 H 0.67742 0.25334 0.77386
 H2316 H 0.63343 0.25432 0.75810
 C2317 C 0.13688 0.74182 0.21748
 C2318 C 0.15464 0.72967 0.20006
 C2319 C 0.17985 0.72932 0.20800
 C2320 C 0.09143 0.74738 0.19580
 C2321 C 0.16965 0.75218 0.25186
 C2322 C 0.14430 0.75269 0.24368
 C2323 C 0.11173 0.74479 0.20677
 C2324 C 0.18788 0.74094 0.23378
 H2325 H 0.14917 0.72127 0.17970
 H2326 H 0.19315 0.72056 0.19333
 H2327 H 0.17505 0.76153 0.27167
 H2328 H 0.13070 0.76229 0.25729
   
