data_POSCAR
  _audit_creation_date              2014-09-24
  _audit_creation_method            'ToBaCCo'
  _symmetry_space_group_name_H-M    'P1'
  _symmetry_Int_Tables_number       1
  _symmetry_cell_setting            triclinic
  loop_
  _symmetry_equiv_pos_as_xyz
 x,y,z
_cell_length_a 59.5604
_cell_length_b 59.3694
_cell_length_c 59.5478
_cell_angle_alpha 87.650500
_cell_angle_beta 87.543700
_cell_angle_gamma 88.514600
loop_
  _atom_site_label
  _atom_site_type_symbol
  _atom_site_fract_x
  _atom_site_fract_y
  _atom_site_fract_z
C1 C 0.78440 0.64097 1.00491
 C2 C 0.79041 0.62930 0.98291
 C3 C 0.77383 0.61656 0.97544
 C4 C 0.75264 0.61621 0.99102
 C5 C 0.76238 0.65430 0.99998
 C6 C 0.74583 0.64129 0.99251
 C7 C 0.77712 0.62204 1.02159
 C8 C 0.76056 0.60909 1.01454
 H9 H 0.80580 0.63260 0.97309
 H10 H 0.73927 0.60542 0.98523
 H11 H 0.76062 0.67245 0.99986
 H12 H 0.78335 0.62035 1.03842
 C13 C 0.79236 0.35331 0.47861
 C14 C 0.79709 0.37000 0.49671
 C15 C 0.77915 0.38334 0.50293
 C16 C 0.75783 0.37883 0.49036
 C17 C 0.77206 0.34014 0.48852
 C18 C 0.75404 0.35344 0.49480
 C19 C 0.78280 0.36785 0.45929
 C20 C 0.76501 0.38150 0.46525
 H21 H 0.81302 0.37018 0.50482
 H22 H 0.74336 0.38984 0.49549
 H23 H 0.77173 0.32204 0.49086
 H24 H 0.78954 0.36697 0.44216
 C25 C 0.28583 -0.14161 -0.02397
 C26 C 0.29166 -0.12870 -0.00494
 C27 C 0.27350 -0.11550 0.00461
 C28 C 0.25251 -0.11798 -0.00699
 C29 C 0.26688 -0.15522 -0.01573
 C30 C 0.24830 -0.14236 -0.00612
 C31 C 0.27589 -0.12535 -0.03994
 C32 C 0.25763 -0.11179 -0.03080
 H33 H 0.30874 -0.12810 0.00054
 H34 H 0.23879 -0.10819 0.00103
 H35 H 0.26495 -0.17251 -0.02013
 H36 H 0.28002 -0.12591 -0.05777
 C37 C 0.29386 0.13641 0.50285
 C38 C 0.29855 0.11866 0.48515
 C39 C 0.28055 0.10609 0.48090
 C40 C 0.25930 0.11227 0.49508
 C41 C 0.27361 0.15030 0.49392
 C42 C 0.25549 0.13767 0.48959
 C43 C 0.28421 0.12335 0.52355
 C44 C 0.26625 0.11061 0.51974
 H45 H 0.31412 0.11797 0.47508
 H46 H 0.24512 0.10138 0.49176
 H47 H 0.27363 0.16828 0.49064
 H48 H 0.29039 0.12536 0.54017
 C49 C 0.13151 0.52081 0.28488
 C50 C 0.11717 0.49990 0.28920
 C51 C 0.10541 0.49411 0.27134
 C52 C 0.10880 0.50999 0.25056
 C53 C 0.14633 0.51516 0.26386
 C54 C 0.13448 0.50925 0.24592
 C55 C 0.11519 0.53930 0.27654
 C56 C 0.10317 0.53386 0.25872
 H57 H 0.11758 0.48969 0.30469
 H58 H 0.09888 0.50505 0.23630
 H59 H 0.16445 0.51453 0.26338
 H60 H 0.11437 0.55588 0.28350
 C61 C -0.14105 -0.01292 0.30049
 C62 C -0.12459 0.00578 0.30498
 C63 C -0.11101 0.01182 0.28692
 C64 C -0.11519 -0.00132 0.26579
 C65 C -0.15384 -0.00378 0.28006
 C66 C -0.14047 0.00220 0.26169
 C67 C -0.12665 -0.03115 0.29208
 C68 C -0.11248 -0.02515 0.27277
 H69 H -0.12295 0.01330 0.32097
 H70 H -0.10390 0.00427 0.25161
 H71 H -0.17199 -0.00209 0.28043
 H72 H -0.12785 -0.04818 0.29912
 C73 C 0.35137 0.47671 0.78535
 C74 C 0.36830 0.49440 0.79087
 C75 C 0.38266 0.50068 0.77348
 C76 C 0.37851 0.48876 0.75158
 C77 C 0.33938 0.48709 0.76487
 C78 C 0.35347 0.49320 0.74715
 C79 C 0.36570 0.45729 0.77569
 C80 C 0.37987 0.46341 0.75806
 H81 H 0.36841 0.50170 0.80724
 H82 H 0.38999 0.49372 0.73716
 H83 H 0.32141 0.48892 0.76376
 H84 H 0.36442 0.44004 0.78220
 C85 C 0.64585 1.00076 0.79151
 C86 C 0.62852 0.98233 0.79638
 C87 C 0.61633 0.97746 0.77845
 C88 C 0.62235 0.99198 0.75717
 C89 C 0.66016 0.99207 0.77124
 C90 C 0.64777 0.98733 0.75331
 C91 C 0.63323 1.01998 0.78245
 C92 C 0.62032 1.01559 0.76343
 H93 H 0.62747 0.97263 0.81218
 H94 H 0.61280 0.98770 0.74248
 H95 H 0.67791 0.98793 0.77145
 H96 H 0.63314 1.03613 0.79023
 C97 C -0.03548 0.28848 -0.14097
 C98 C -0.01901 0.29575 -0.12379
 C99 C -0.01207 0.27899 -0.10927
 C100 C -0.02242 0.25612 -0.11314
 C101 C -0.02346 0.26849 -0.15251
 C102 C -0.01659 0.25158 -0.13798
 C103 C -0.05469 0.27749 -0.12687
 C104 C -0.04801 0.26059 -0.11229
 H105 H -0.01234 0.31257 -0.12412
 H106 H -0.01677 0.24249 -0.10123
 H107 H -0.02233 0.26657 -0.17047
 H108 H -0.07215 0.28256 -0.12862
 C109 C 0.50304 0.28439 0.13008
 C110 C 0.48260 0.29191 0.11664
 C111 C 0.47400 0.27553 0.10445
 C112 C 0.48719 0.25302 0.10614
 C113 C 0.49531 0.26333 0.14398
 C114 C 0.48678 0.24707 0.13148
 C115 C 0.52001 0.27496 0.11248
 C116 C 0.51182 0.25858 0.10001
 H117 H 0.47471 0.30847 0.11799
 H118 H 0.48058 0.23967 0.09590
 H119 H 0.49541 0.26203 0.16217
 H120 H 0.53778 0.27815 0.11193
 C121 C 1.00773 0.79773 0.64039
 C122 C 0.99071 0.80264 0.62395
 C123 C 0.98679 0.78455 0.60959
 C124 C 1.00130 0.76474 0.61431
 C125 C 1.00041 0.77700 0.65252
 C126 C 0.99656 0.75858 0.63819
 C127 C 1.02776 0.79072 0.62742
 C128 C 1.02460 0.77261 0.61274
 H129 H 0.97976 0.81748 0.62481
 H130 H 0.99843 0.75158 0.60248
 H131 H 1.00119 0.77418 0.67044
 H132 H 1.04416 0.79682 0.63098
 C133 C 0.49074 0.77923 0.35410
 C134 C 0.50869 0.78352 0.37098
 C135 C 0.51367 0.76551 0.38485
 C136 C 0.50056 0.74436 0.38035
 C137 C 0.50005 0.75856 0.34150
 C138 C 0.50533 0.74027 0.35517
 C139 C 0.47074 0.77024 0.36848
 C140 C 0.47578 0.75210 0.38211
 H141 H 0.51680 0.79958 0.37182
 H142 H 0.50460 0.72996 0.39204
 H143 H 0.50184 0.75803 0.32346
 H144 H 0.45382 0.77723 0.36737
 C145 C 0.39276 -0.01807 0.25928
 H146 H 0.39056 -0.00385 0.27002
 C147 C 0.40568 -0.03685 0.26619
 H148 H 0.41322 -0.03698 0.28241
 C149 C 0.38443 -0.03557 0.22566
 H150 H 0.37593 -0.03510 0.20998
 C151 C 0.39730 -0.05461 0.23183
 H152 H 0.39882 -0.06849 0.22058
 N153 N 0.38229 -0.01785 0.23943
 C154 C 0.36903 0.05000 0.21225
 H155 H 0.35118 0.04921 0.20975
 C156 C 0.38071 0.06926 0.20516
 H157 H 0.37171 0.08312 0.19691
 C158 C 0.40239 0.03251 0.22554
 H159 H 0.41077 0.01815 0.23351
 C160 C 0.41471 0.05152 0.21886
 H161 H 0.43245 0.05163 0.22208
 Zn162 Zn 0.36294 0.00680 0.23200
 N163 N 0.37993 0.03219 0.22235
 C164 C 0.34395 0.03493 0.26540
 N165 N 0.34525 0.01346 0.25822
 C166 C 0.33612 -0.00389 0.27084
 C167 C 0.32554 -0.00002 0.29178
 C168 C 0.33346 0.03955 0.28616
 C169 C 0.35374 0.00122 0.18697
 C170 C 0.34267 -0.00718 0.16903
 C171 C 0.31336 -0.02033 0.19528
 C172 C 0.32492 -0.01153 0.21273
 N173 N 0.34492 -0.00135 0.20834
 H174 H 0.35171 0.04843 0.25544
 H175 H 0.33782 -0.02089 0.26501
 H176 H 0.31871 -0.01409 0.30175
 H177 H 0.33337 0.05663 0.29189
 H178 H 0.36988 0.00898 0.18397
 H179 H 0.35044 -0.00579 0.15227
 H180 H 0.29773 -0.02888 0.19909
 H181 H 0.31826 -0.01351 0.22982
 C182 C 0.40386 0.07030 0.20858
 C183 C 0.40789 -0.05558 0.25249
 C184 C 0.32245 -0.01856 0.17314
 C185 C 0.32441 0.02190 0.29982
 C186 C 0.08927 1.04377 0.78397
 H187 H 0.08678 1.02730 0.79201
 C188 C 0.07772 1.06265 0.79238
 H189 H 0.06631 1.06057 0.80692
 C190 C 0.10829 1.06668 0.75612
 H191 H 0.12065 1.06834 0.74240
 C192 C 0.09714 1.08593 0.76396
 H193 H 0.10067 1.10213 0.75573
 N194 N 0.10433 1.04613 0.76625
 C195 C 0.11752 0.97975 0.73946
 H196 H 0.13564 0.97963 0.74026
 C197 C 0.10712 0.96212 0.72967
 H198 H 0.11737 0.94826 0.72330
 C199 C 0.08235 0.99826 0.74663
 H200 H 0.07290 1.01267 0.75283
 C201 C 0.07118 0.98087 0.73688
 H202 H 0.05311 0.98202 0.73563
 Zn203 Zn 0.12232 1.02092 0.75774
 N204 N 0.10514 0.99737 0.74761
 C205 C 0.13564 0.98952 0.79196
 N206 N 0.13836 1.01080 0.78311
 C207 C 0.15179 1.02552 0.79275
 C208 C 0.16360 1.01882 0.81177
 C209 C 0.14712 0.98212 0.81091
 C210 C 0.13226 1.03489 0.71358
 C211 C 0.14535 1.04029 0.69425
 C212 C 0.17865 1.03325 0.71550
 C213 C 0.16487 1.02799 0.73451
 N214 N 0.14212 1.02910 0.73324
 H215 H 0.12447 0.97823 0.78445
 H216 H 0.15328 1.04251 0.78564
 H217 H 0.17416 1.03078 0.81926
 H218 H 0.14508 0.96495 0.81735
 H219 H 0.11413 1.03516 0.71296
 H220 H 0.13712 1.04461 0.67873
 H221 H 0.19673 1.03257 0.71684
 H222 H 0.17239 1.02285 0.75015
 C223 C 0.08369 0.96268 0.72792
 C224 C 0.08192 1.08414 0.78257
 C225 C 0.16888 1.03956 0.69504
 C226 C 0.16138 0.99681 0.82105
 C227 C 0.59608 0.52734 0.27384
 H228 H 0.59376 0.51135 0.28291
 C229 C 0.58569 0.54695 0.28202
 H230 H 0.57532 0.54589 0.29739
 C231 C 0.61374 0.54839 0.24370
 H232 H 0.62517 0.54911 0.22915
 C233 C 0.60368 0.56831 0.25121
 H234 H 0.60706 0.58399 0.24192
 N235 N 0.60999 0.52844 0.25512
 C236 C 0.62105 0.46194 0.22801
 H237 H 0.63912 0.46292 0.22572
 C238 C 0.61021 0.44304 0.22131
 H239 H 0.62009 0.42973 0.21345
 C240 C 0.58641 0.47853 0.24070
 H241 H 0.57731 0.49244 0.24833
 C242 C 0.57480 0.45977 0.23424
 H243 H 0.55675 0.45929 0.23709
 Zn244 Zn 0.62714 0.50253 0.24686
 N245 N 0.60918 0.47905 0.23778
 C246 C 0.63982 0.47077 0.28072
 N247 N 0.64307 0.49213 0.27231
 C248 C 0.65602 0.50659 0.28293
 C249 C 0.66620 0.49971 0.30292
 C250 C 0.64971 0.46319 0.30050
 C251 C 0.63675 0.51478 0.20218
 C252 C 0.64965 0.52020 0.18273
 C253 C 0.68310 0.51501 0.20411
 C254 C 0.66950 0.50968 0.22323
 N255 N 0.64675 0.50992 0.22195
 H256 H 0.62916 0.45959 0.27241
 H257 H 0.65800 0.52364 0.27613
 H258 H 0.67601 0.51159 0.31141
 H259 H 0.64699 0.44604 0.30672
 H260 H 0.61862 0.51462 0.20162
 H261 H 0.64124 0.52457 0.16733
 H262 H 0.70118 0.51468 0.20537
 H263 H 0.67712 0.50533 0.23903
 C264 C 0.58683 0.44157 0.22468
 C265 C 0.58982 0.56786 0.27088
 C266 C 0.67316 0.52044 0.18350
 C267 C 0.66287 0.47778 0.31208
 C268 C 0.88304 0.50379 0.75914
 H269 H 0.88091 0.52013 0.76644
 C270 C 0.89415 0.48628 0.77082
 H271 H 0.90098 0.48945 0.78692
 C272 C 0.87605 0.47972 0.72956
 H273 H 0.86842 0.47706 0.71379
 C274 C 0.88699 0.46172 0.74070
 H275 H 0.88762 0.44535 0.73330
 N276 N 0.87415 0.50021 0.73897
 C277 C 0.86363 0.56566 0.70445
 H278 H 0.84650 0.56389 0.69956
 C279 C 0.87508 0.58535 0.69842
 H280 H 0.86670 0.59861 0.68868
 C281 C 0.89538 0.55033 0.72287
 H282 H 0.90325 0.53666 0.73238
 C283 C 0.90749 0.56973 0.71713
 H284 H 0.92451 0.57087 0.72261
 Zn285 Zn 0.85615 0.52358 0.72595
 N286 N 0.87367 0.54888 0.71694
 C287 C 0.83016 0.55391 0.75250
 N288 N 0.83426 0.53181 0.74835
 C289 C 0.82551 0.51518 0.76223
 C290 C 0.81336 0.52054 0.78199
 C291 C 0.81784 0.56001 0.77181
 C292 C 0.85648 0.51070 0.68172
 C293 C 0.84802 0.50296 0.66207
 C294 C 0.81135 0.50064 0.68094
 C295 C 0.82050 0.50864 0.70026
 N296 N 0.84274 0.51328 0.70030
 H297 H 0.83728 0.56694 0.74145
 H298 H 0.82923 0.49771 0.75870
 H299 H 0.80786 0.50705 0.79356
 H300 H 0.81527 0.57772 0.77503
 H301 H 0.87410 0.51452 0.68229
 H302 H 0.85934 0.50062 0.64758
 H303 H 0.79365 0.49690 0.68111
 H304 H 0.80992 0.51094 0.71524
 C305 C 0.89721 0.58771 0.70506
 C306 C 0.89592 0.46478 0.76179
 C307 C 0.82521 0.49773 0.66153
 C308 C 0.81010 0.54324 0.78737
 C309 C 0.25104 0.38707 -0.00070
 H310 H 0.25738 0.38595 0.01607
 C311 C 0.26297 0.39879 -0.01793
 H312 H 0.27830 0.40702 -0.01417
 C313 C 0.22348 0.37735 -0.02594
 H314 H 0.20837 0.36854 -0.02912
 C315 C 0.23489 0.38888 -0.04368
 H316 H 0.22840 0.38877 -0.06038
 N317 N 0.23167 0.37669 -0.00495
 C318 C 0.19335 0.36861 0.05877
 H319 H 0.18975 0.35084 0.05869
 C320 C 0.18511 0.38151 0.07655
 H321 H 0.17530 0.37350 0.09022
 C322 C 0.21089 0.40048 0.04119
 H323 H 0.22073 0.40791 0.02730
 C324 C 0.20311 0.41397 0.05869
 H325 H 0.20703 0.43170 0.05803
 Zn326 Zn 0.21782 0.35924 0.01883
 N327 N 0.20629 0.37813 0.04175
 C328 C 0.24518 0.33997 0.05241
 N329 N 0.24059 0.33968 0.03026
 C330 C 0.25463 0.32892 0.01533
 C331 C 0.27501 0.31928 0.02226
 C332 C 0.26520 0.33041 0.06006
 C333 C 0.17520 0.35633 0.00283
 C334 C 0.15665 0.34660 -0.00601
 C335 C 0.17606 0.31038 -0.00369
 C336 C 0.19431 0.32086 0.00524
 N337 N 0.19362 0.34351 0.00798
 H338 H 0.23405 0.34881 0.06400
 H339 H 0.25080 0.32931 -0.00228
 H340 H 0.28670 0.31220 0.00987
 H341 H 0.26891 0.33159 0.07761
 H342 H 0.17505 0.37427 0.00540
 H343 H 0.14215 0.35719 -0.00990
 H344 H 0.17707 0.29245 -0.00636
 H345 H 0.20912 0.31100 0.00959
 C346 C 0.19021 0.40445 0.07677
 C347 C 0.25501 0.39966 -0.03982
 C348 C 0.15700 0.32338 -0.00971
 C349 C 0.28088 0.32082 0.04473
 C350 C 0.76181 0.07225 1.04876
 H351 H 0.76128 0.06276 1.03369
 C352 C 0.76976 0.06184 1.06848
 H353 H 0.77524 0.04431 1.06848
 C354 C 0.75506 0.10652 1.06728
 H355 H 0.74935 0.12397 1.06659
 C356 C 0.76262 0.09674 1.08736
 H357 H 0.76287 0.10683 1.10209
 N358 N 0.75482 0.09425 1.04851
 C359 C 0.71740 0.08510 0.99370
 H360 H 0.70333 0.09297 1.00259
 C361 C 0.71345 0.07208 0.97540
 H362 H 0.69633 0.07010 0.97050
 C363 C 0.75674 0.07930 0.98825
 H364 H 0.77359 0.08262 0.99315
 C365 C 0.75355 0.06635 0.96958
 H366 H 0.76801 0.05946 0.96032
 Zn367 Zn 0.74391 0.10917 1.02236
 N368 N 0.73877 0.08856 0.99973
 C369 C 0.76159 0.14017 0.98995
 N370 N 0.76543 0.12974 1.01022
 C371 C 0.78495 0.13257 1.02072
 C372 C 0.80153 0.14641 1.01080
 C373 C 0.77768 0.15421 0.97947
 C374 C 0.70076 0.11211 1.04261
 C375 C 0.67981 0.12183 1.04836
 C376 C 0.69180 0.15671 1.02986
 C377 C 0.71258 0.14634 1.02453
 N378 N 0.71650 0.12429 1.03058
 H379 H 0.74615 0.13721 0.98171
 H380 H 0.78788 0.12382 1.03662
 H381 H 0.81694 0.14849 1.01942
 H382 H 0.77448 0.16199 0.96312
 H383 H 0.70437 0.09465 1.04736
 H384 H 0.66732 0.11165 1.05744
 H385 H 0.68894 0.17425 1.02485
 H386 H 0.72542 0.15589 1.01537
 C387 C 0.73165 0.06280 0.96286
 C388 C 0.77015 0.07414 1.08812
 C389 C 0.67502 0.14435 1.04177
 C390 C 0.79805 0.15735 0.98984
 C391 C 0.28123 0.59247 0.53114
 H392 H 0.28785 0.59108 0.51404
 C393 C 0.29125 0.58004 0.54864
 H394 H 0.30533 0.56874 0.54478
 C395 C 0.25511 0.60929 0.55692
 H396 H 0.24153 0.62125 0.56021
 C397 C 0.26463 0.59725 0.57489
 H398 H 0.25811 0.60008 0.59182
 N399 N 0.26347 0.60669 0.53555
 C400 C 0.23338 0.62069 0.47102
 H401 H 0.23292 0.63888 0.47165
 C402 C 0.22497 0.61040 0.45268
 H403 H 0.21831 0.62086 0.43909
 C404 C 0.24305 0.58515 0.48803
 H405 H 0.24985 0.57544 0.50202
 C406 C 0.23476 0.57409 0.46989
 H407 H 0.23521 0.55584 0.47007
 Zn408 Zn 0.25232 0.62510 0.51167
 N409 N 0.24230 0.60807 0.48814
 C410 C 0.28564 0.63948 0.47984
 N411 N 0.27611 0.64342 0.50050
 C412 C 0.28445 0.65907 0.51375
 C413 C 0.30270 0.67201 0.50600
 C414 C 0.30402 0.65178 0.47157
 C415 C 0.20902 0.63066 0.52975
 C416 C 0.18911 0.64181 0.53641
 C417 C 0.20639 0.67727 0.52581
 C418 C 0.22608 0.66539 0.51945
 N419 N 0.22705 0.64250 0.52167
 H420 H 0.27940 0.62636 0.46991
 H421 H 0.27691 0.66148 0.53035
 H422 H 0.30876 0.68471 0.51661
 H423 H 0.31162 0.64785 0.45532
 H424 H 0.21015 0.61243 0.53097
 H425 H 0.17514 0.63200 0.54319
 H426 H 0.20578 0.69546 0.52355
 H427 H 0.24032 0.67447 0.51227
 C428 C 0.22546 0.58680 0.45197
 C429 C 0.28305 0.58247 0.57091
 C430 C 0.18753 0.66545 0.53437
 C431 C 0.31276 0.66842 0.48461
 C432 C 0.76286 0.87287 0.49789
 H433 H 0.77275 0.87118 0.51271
 C434 C 0.77072 0.88567 0.47912
 H435 H 0.78679 0.89372 0.47960
 C436 C 0.73042 0.86340 0.47893
 H437 H 0.71477 0.85461 0.47891
 C438 C 0.73766 0.87599 0.45979
 H439 H 0.72736 0.87690 0.44522
 N440 N 0.74318 0.86184 0.49737
 C441 C 0.71651 0.84823 0.56588
 H442 H 0.71568 0.83004 0.56622
 C443 C 0.70852 0.86004 0.58448
 H444 H 0.70182 0.85077 0.59921
 C445 C 0.72613 0.88235 0.54617
 H446 H 0.73274 0.89099 0.53110
 C447 C 0.71845 0.89483 0.56450
 H448 H 0.71914 0.91305 0.56331
 Zn449 Zn 0.73475 0.84237 0.52205
 N450 N 0.72505 0.85945 0.54718
 C451 C 0.76731 0.82209 0.55063
 N452 N 0.76046 0.82428 0.52912
 C453 C 0.77314 0.81566 0.51180
 C454 C 0.79370 0.80465 0.51573
 C455 C 0.78765 0.81108 0.55533
 C456 C 0.68967 0.82886 0.52188
 C457 C 0.67136 0.81789 0.51392
 C458 C 0.69681 0.79750 0.48899
 C459 C 0.71470 0.80875 0.49757
 N460 N 0.71084 0.82435 0.51349
 H461 H 0.75748 0.82953 0.56415
 H462 H 0.76781 0.81824 0.49474
 H463 H 0.80376 0.79831 0.50167
 H464 H 0.79312 0.81023 0.57245
 H465 H 0.68674 0.84168 0.53407
 H466 H 0.65465 0.82200 0.52066
 H467 H 0.70016 0.78593 0.47560
 H468 H 0.73154 0.80568 0.49079
 C469 C 0.70936 0.88366 0.58391
 C470 C 0.75821 0.88707 0.45960
 C471 C 0.67472 0.80238 0.49685
 C472 C 0.80131 0.80252 0.53771
 C473 C 0.00784 0.27052 0.38116
 H474 H 0.02402 0.27837 0.37891
 C475 C -0.00922 0.28058 0.39439
 H476 H -0.00586 0.29597 0.40264
 C477 C -0.01615 0.24105 0.37279
 H478 H -0.01897 0.22595 0.36391
 C479 C -0.03372 0.25059 0.38577
 H480 H -0.04992 0.24267 0.38665
 N481 N 0.00414 0.25110 0.37072
 C482 C 0.06973 0.21936 0.35582
 H483 H 0.06817 0.21625 0.33819
 C484 C 0.08928 0.21251 0.36659
 H485 H 0.10280 0.20426 0.35707
 C486 C 0.05408 0.23423 0.38951
 H487 H 0.04026 0.24247 0.39847
 C488 C 0.07338 0.22778 0.40091
 H489 H 0.07416 0.23107 0.41861
 Zn490 Zn 0.02719 0.23975 0.35112
 N491 N 0.05277 0.23029 0.36726
 C492 C 0.05630 0.27035 0.32762
 N493 N 0.03471 0.26352 0.33025
 C494 C 0.01774 0.27489 0.31976
 C495 C 0.02215 0.29424 0.30631
 C496 C 0.06148 0.28947 0.31422
 C497 C 0.01388 0.19532 0.34904
 C498 C 0.00554 0.17631 0.33956
 C499 C 0.00371 0.19732 0.30402
 C500 C 0.01231 0.21590 0.31415
 N501 N 0.01683 0.21467 0.33638
 H502 H 0.06949 0.26150 0.33650
 H503 H 0.00065 0.26930 0.32245
 H504 H 0.00841 0.30335 0.29842
 H505 H 0.07866 0.29507 0.31302
 H506 H 0.01769 0.19482 0.36666
 H507 H 0.00276 0.16123 0.35005
 H508 H -0.00007 0.19860 0.28638
 H509 H 0.01507 0.23135 0.30432
 C510 C 0.09134 0.21689 0.38939
 C511 C -0.03045 0.27074 0.39665
 C512 C 0.00010 0.17726 0.31683
 C513 C 0.04425 0.30189 0.30364
 C514 C 1.02818 0.79211 0.08671
 H515 H 1.01228 0.80126 0.08577
 C516 C 1.04695 0.79974 0.07399
 H517 H 1.04532 0.81489 0.06338
 C518 C 1.04980 0.76204 0.10280
 H519 H 1.05104 0.74764 0.11438
 C520 C 1.06892 0.76896 0.09029
 H521 H 1.08450 0.75938 0.09206
 N522 N 1.02994 0.77363 0.10084
 C523 C 0.96329 0.74692 0.11525
 H524 H 0.96363 0.74634 0.13342
 C525 C 0.94483 0.73884 0.10481
 H526 H 0.93088 0.73227 0.11510
 C527 C 0.98111 0.75658 0.07993
 H528 H 0.99541 0.76333 0.07038
 C529 C 0.96287 0.74866 0.06873
 H530 H 0.96333 0.74925 0.05052
 Zn531 Zn 1.00467 0.76558 0.11959
 N532 N 0.98087 0.75568 0.10281
 C533 C 0.97369 0.79982 0.13272
 N534 N 0.99489 0.79136 0.13540
 C535 C 1.00946 0.80169 0.14839
 C536 C 1.00268 0.82108 0.15970
 C537 C 0.96624 0.81908 0.14368
 C538 C 1.01698 0.72109 0.13018
 C539 C 1.02215 0.70204 0.14363
 C540 C 1.01716 0.72464 0.17639
 C541 C 1.01203 0.74330 0.16228
 N542 N 1.01229 0.74124 0.13960
 H543 H 0.96249 0.79179 0.12193
 H544 H 1.02638 0.79490 0.14988
 H545 H 1.01452 0.82918 0.16985
 H546 H 0.94916 0.82523 0.14158
 H547 H 1.01674 0.71987 0.11212
 H548 H 1.02628 0.68628 0.13573
 H549 H 1.01677 0.72652 0.19442
 H550 H 1.00769 0.75931 0.16949
 C551 C 0.94446 0.73956 0.08124
 C552 C 1.06777 0.78823 0.07585
 C553 C 1.02234 0.70366 0.16708
 C554 C 0.98078 0.83002 0.15738
 C555 C 0.53679 0.27521 0.58862
 H556 H 0.51989 0.27987 0.58410
 C557 C 0.55500 0.28496 0.57665
 H558 H 0.55185 0.29715 0.56305
 C559 C 0.56139 0.25450 0.61242
 H560 H 0.56384 0.24297 0.62666
 C561 C 0.58007 0.26382 0.60090
 H562 H 0.59673 0.25885 0.60610
 N563 N 0.54024 0.26023 0.60611
 C564 C 0.48875 0.21784 0.60021
 H565 H 0.49901 0.20474 0.60797
 C566 C 0.47112 0.21184 0.58715
 H567 H 0.46808 0.19415 0.58507
 C568 C 0.47931 0.25658 0.59444
 H569 H 0.48226 0.27399 0.59780
 C570 C 0.46135 0.25131 0.58140
 H571 H 0.45087 0.26479 0.57441
 Zn572 Zn 0.51520 0.24825 0.62303
 N573 N 0.49260 0.23992 0.60356
 C574 C 0.48222 0.26720 0.65220
 N575 N 0.50253 0.27085 0.64156
 C576 C 0.51309 0.29075 0.64303
 C577 C 0.50307 0.30806 0.65544
 C578 C 0.47164 0.28402 0.66484
 C579 C 0.53642 0.20571 0.63052
 C580 C 0.54361 0.18656 0.64287
 C581 C 0.52693 0.20262 0.67644
 C582 C 0.52012 0.22151 0.66345
 N583 N 0.52476 0.22266 0.64087
 H584 H 0.47407 0.25132 0.65050
 H585 H 0.52923 0.29330 0.63443
 H586 H 0.51173 0.32378 0.65645
 H587 H 0.45525 0.28097 0.67278
 H588 H 0.54022 0.20715 0.61260
 H589 H 0.55313 0.17346 0.63429
 H590 H 0.52271 0.20191 0.69432
 H591 H 0.51104 0.23519 0.67146
 C592 C 0.45703 0.22866 0.57770
 C593 C 0.57702 0.27936 0.58279
 C594 C 0.53885 0.18477 0.66618
 C595 C 0.48200 0.30486 0.66644
 C596 C 0.49192 0.75711 0.88265
 H597 H 0.50815 0.76493 0.88194
 C598 C 0.47412 0.76633 0.89557
 H599 H 0.47691 0.78111 0.90504
 C600 C 0.46865 0.72836 0.87103
 H601 H 0.46645 0.71381 0.86112
 C602 C 0.45039 0.73705 0.88368
 H603 H 0.43427 0.72909 0.88324
 N604 N 0.48893 0.73840 0.87079
 C605 C 0.55435 0.70511 0.86001
 H606 H 0.55425 0.70304 0.84205
 C607 C 0.57245 0.69663 0.87216
 H608 H 0.58635 0.68824 0.86334
 C609 C 0.53643 0.71890 0.89316
 H610 H 0.52225 0.72734 0.90135
 C611 C 0.55424 0.71074 0.90597
 H612 H 0.55352 0.71295 0.92395
 Zn613 Zn 0.51330 0.72750 0.85252
 N614 N 0.53695 0.71625 0.87055
 C615 C 0.54549 0.75763 0.83340
 N616 N 0.52351 0.75196 0.83355
 C617 C 0.50829 0.76477 0.82193
 C618 C 0.51497 0.78435 0.80981
 C619 C 0.55290 0.77685 0.82137
 C620 C 0.50025 0.68354 0.84742
 C621 C 0.49274 0.66490 0.83665
 C622 C 0.49260 0.68729 0.80184
 C623 C 0.50037 0.70551 0.81327
 N624 N 0.50374 0.70337 0.83572
 H625 H 0.55727 0.74769 0.84315
 H626 H 0.49082 0.76012 0.82263
 H627 H 0.50262 0.79456 0.80094
 H628 H 0.57035 0.78137 0.82206
 H629 H 0.50308 0.68231 0.86526
 H630 H 0.48962 0.64941 0.84639
 H631 H 0.48979 0.68926 0.78401
 H632 H 0.50343 0.72138 0.80426
 C633 C 0.57261 0.69950 0.89545
 C634 C 0.45295 0.75636 0.89611
 C635 C 0.48865 0.66667 0.81360
 C636 C 0.53755 0.79066 0.80957
 C637 C 0.47732 -0.18019 0.35241
 C638 C 0.47072 -0.16026 0.34108
 C639 C 0.47039 -0.15903 0.31758
 C640 C 0.47744 -0.17801 0.30552
 C641 C 0.48426 -0.19798 0.31687
 C642 C 0.48425 -0.19939 0.34056
 C643 C 0.46258 -0.13772 0.30637
 C644 C 0.45240 -0.13690 0.28670
 C645 C 0.44219 -0.11586 0.27706
 C646 C 0.42320 -0.11727 0.26413
 C647 C 0.41226 -0.09775 0.25591
 C648 C 0.42030 -0.07633 0.26017
 C649 C 0.43986 -0.07496 0.27240
 C650 C 0.45072 -0.09451 0.28075
 H651 H 0.47690 -0.18068 0.37063
 H652 H 0.46542 -0.14586 0.35077
 H653 H 0.47789 -0.17746 0.28733
 H654 H 0.48922 -0.21206 0.30678
 H655 H 0.46341 -0.12251 0.31571
 H656 H 0.44946 -0.15241 0.27845
 H657 H 0.41638 -0.13353 0.26097
 H658 H 0.39710 -0.09944 0.24678
 H659 H 0.44681 -0.05876 0.27550
 H660 H 0.46579 -0.09284 0.29000
 C661 C 0.96317 0.31128 0.82124
 C662 C 0.95618 0.33039 0.80865
 C663 C 0.94301 0.34744 0.81869
 C664 C 0.93650 0.34476 0.84160
 C665 C 0.94343 0.32567 0.85417
 C666 C 0.95671 0.30851 0.84422
 C667 C 0.93595 0.36738 0.80466
 C668 C 0.93061 0.38751 0.81314
 C669 C 0.92262 0.40733 0.79946
 C670 C 0.90992 0.42421 0.81033
 C671 C 0.90152 0.44295 0.79816
 C672 C 0.90584 0.44538 0.77481
 C673 C 0.91907 0.42878 0.76398
 C674 C 0.92744 0.40997 0.77616
 H675 H 0.97395 0.29916 0.81278
 H676 H 0.96142 0.33205 0.79102
 H677 H 0.92579 0.35713 0.84989
 H678 H 0.93841 0.32429 0.87187
 H679 H 0.93533 0.36519 0.78676
 H680 H 0.93143 0.38963 0.83104
 H681 H 0.90607 0.42267 0.82827
 H682 H 0.89116 0.45526 0.80699
 H683 H 0.92307 0.43040 0.74609
 H684 H 0.93785 0.39779 0.76726
 C685 C -0.01062 1.20964 0.86590
 C686 C -0.00107 1.18943 0.85827
 C687 C 0.01341 1.18935 0.83904
 C688 C 0.01785 1.20996 0.82734
 C689 C 0.00833 1.23013 0.83498
 C690 C -0.00604 1.23020 0.85431
 C691 C 0.02285 1.16751 0.83123
 C692 C 0.04184 1.16584 0.81837
 C693 C 0.05154 1.14431 0.81006
 C694 C 0.07420 1.14372 0.80259
 C695 C 0.08401 1.12419 0.79385
 C696 C 0.07134 1.10473 0.79219
 C697 C 0.04865 1.10521 0.79971
 C698 C 0.03879 1.12482 0.80846
 H699 H -0.02200 1.20905 0.88057
 H700 H -0.00502 1.17379 0.86742
 H701 H 0.02829 1.21063 0.81203
 H702 H 0.01226 1.24571 0.82573
 H703 H 0.01430 1.15240 0.83710
 H704 H 0.05141 1.18082 0.81434
 H705 H 0.08440 1.15847 0.80355
 H706 H 0.10163 1.12426 0.78855
 H707 H 0.03840 1.09057 0.79835
 H708 H 0.02111 1.12472 0.81339
 C709 C 0.51110 0.69809 0.35885
 C710 C 0.51908 0.67763 0.35044
 C711 C 0.53094 0.67700 0.32962
 C712 C 0.53450 0.69739 0.31723
 C713 C 0.52651 0.71786 0.32564
 C714 C 0.51448 0.71852 0.34649
 C715 C 0.53869 0.65481 0.32118
 C716 C 0.55579 0.65235 0.30601
 C717 C 0.56393 0.63026 0.29767
 C718 C 0.58583 0.62865 0.28814
 C719 C 0.59419 0.60841 0.27962
 C720 C 0.58075 0.58926 0.28019
 C721 C 0.55878 0.59080 0.28968
 C722 C 0.55039 0.61111 0.29825
 H723 H 0.50201 0.69763 0.37492
 H724 H 0.51600 0.66219 0.36029
 H725 H 0.54306 0.69767 0.30085
 H726 H 0.52996 0.73316 0.31575
 H727 H 0.53066 0.64001 0.32866
 H728 H 0.56515 0.66698 0.30014
 H729 H 0.59660 0.64312 0.28741
 H730 H 0.61132 0.60771 0.27278
 H731 H 0.54791 0.57643 0.29006
 H732 H 0.53318 0.61180 0.30481
 C733 C 0.49593 0.31137 0.16157
 C734 C 0.50175 0.32940 0.17438
 C735 C 0.52262 0.33952 0.17062
 C736 C 0.53733 0.33170 0.15343
 C737 C 0.53143 0.31393 0.14042
 C738 C 0.51070 0.30324 0.14443
 C739 C 0.52841 0.35891 0.18392
 C740 C 0.54958 0.36227 0.18948
 C741 C 0.55682 0.38235 0.20088
 C742 C 0.57673 0.38067 0.21259
 C743 C 0.58583 0.39974 0.22121
 C744 C 0.57541 0.42108 0.21799
 C745 C 0.55496 0.42269 0.20703
 C746 C 0.54572 0.40350 0.19852
 H747 H 0.47965 0.30390 0.16481
 H748 H 0.48998 0.33538 0.18731
 H749 H 0.55320 0.33977 0.14953
 H750 H 0.54311 0.30930 0.12699
 H751 H 0.51496 0.37020 0.18958
 H752 H 0.56241 0.34956 0.18561
 H753 H 0.58557 0.36458 0.21465
 H754 H 0.60135 0.39785 0.23001
 H755 H 0.54666 0.43893 0.20410
 H756 H 0.53058 0.40549 0.18915
 C757 C 0.00798 0.81853 0.67687
 C758 C 0.01334 0.83780 0.68816
 C759 C 0.02235 0.85664 0.67639
 C760 C 0.02474 0.85633 0.65284
 C761 C 0.01970 0.83711 0.64157
 C762 C 0.01176 0.81749 0.65329
 C763 C 0.02917 0.87619 0.68909
 C764 C 0.04488 0.89055 0.68098
 C765 C 0.05364 0.90936 0.69344
 C766 C 0.07360 0.91922 0.68500
 C767 C 0.08306 0.93665 0.69606
 C768 C 0.07279 0.94476 0.71590
 C769 C 0.05246 0.93542 0.72412
 C770 C 0.04293 0.91787 0.71300
 H771 H 0.00096 0.80480 0.68703
 H772 H 0.01077 0.83782 0.70628
 H773 H 0.03045 0.87089 0.64289
 H774 H 0.02219 0.83748 0.62342
 H775 H 0.02223 0.87765 0.70606
 H776 H 0.05301 0.88766 0.66473
 H777 H 0.08208 0.91326 0.66983
 H778 H 0.09845 0.94385 0.68900
 H779 H 0.04415 0.94140 0.73935
 H780 H 0.02723 0.91120 0.71978
 C781 C 0.98997 0.71814 0.63300
 C782 C 0.98116 0.69758 0.64081
 C783 C 0.97033 0.69540 0.66206
 C784 C 0.96926 0.71406 0.67584
 C785 C 0.97822 0.73466 0.66814
 C786 C 0.98852 0.73729 0.64638
 C787 C 0.96055 0.67341 0.66918
 C788 C 0.94291 0.67136 0.68383
 C789 C 0.93187 0.64963 0.68942
 C790 C 0.90919 0.65000 0.69683
 C791 C 0.89797 0.62992 0.70183
 C792 C 0.90926 0.60898 0.69977
 C793 C 0.93212 0.60858 0.69284
 C794 C 0.94334 0.62868 0.68775
 H795 H 0.99827 0.71839 0.61660
 H796 H 0.98256 0.68333 0.62998
 H797 H 0.96157 0.71287 0.69262
 H798 H 0.97612 0.74862 0.67919
 H799 H 0.96700 0.65873 0.66058
 H800 H 0.93508 0.68636 0.69074
 H801 H 0.90004 0.66589 0.69851
 H802 H 0.88048 0.63080 0.70756
 H803 H 0.94127 0.59271 0.69111
 H804 H 0.96100 0.62770 0.68276
 C805 C 0.45571 0.21972 0.13287
 C806 C 0.44497 0.20074 0.14224
 C807 C 0.45435 0.18813 0.16009
 C808 C 0.47451 0.19517 0.16877
 C809 C 0.48511 0.21440 0.15957
 C810 C 0.47585 0.22674 0.14144
 C811 C 0.44220 0.16830 0.16962
 C812 C 0.45251 0.15012 0.17895
 C813 C 0.44002 0.12997 0.18718
 C814 C 0.45041 0.10859 0.18571
 C815 C 0.43874 0.08921 0.19265
 C816 C 0.41651 0.09086 0.20155
 C817 C 0.40640 0.11239 0.20364
 C818 C 0.41799 0.13172 0.19652
 H819 H 0.44799 0.22917 0.11917
 H820 H 0.42934 0.19579 0.13543
 H821 H 0.48188 0.18612 0.18290
 H822 H 0.50062 0.21954 0.16648
 H823 H 0.42425 0.16808 0.16740
 H824 H 0.47069 0.14924 0.17908
 H825 H 0.46742 0.10685 0.17869
 H826 H 0.44698 0.07292 0.19061
 H827 H 0.38956 0.11434 0.21101
 H828 H 0.40977 0.14802 0.19861
 C829 C 0.31347 0.47178 -0.19232
 C830 C 0.30129 0.46403 -0.17308
 C831 C 0.31223 0.45367 -0.15486
 C832 C 0.33577 0.45102 -0.15634
 C833 C 0.34796 0.45876 -0.17556
 C834 C 0.33707 0.46910 -0.19396
 C835 C 0.29840 0.44503 -0.13521
 C836 C 0.30642 0.44077 -0.11471
 C837 C 0.29274 0.43105 -0.09548
 C838 C 0.30379 0.41899 -0.07829
 C839 C 0.29158 0.40898 -0.06015
 C840 C 0.26801 0.41102 -0.05868
 C841 C 0.25696 0.42362 -0.07558
 C842 C 0.26917 0.43360 -0.09376
 H843 H 0.30403 0.47975 -0.20560
 H844 H 0.28316 0.46620 -0.17241
 H845 H 0.34492 0.44253 -0.14305
 H846 H 0.36607 0.45640 -0.17621
 H847 H 0.28093 0.44198 -0.13802
 H848 H 0.32388 0.44373 -0.11183
 H849 H 0.32193 0.41689 -0.07913
 H850 H 0.30060 0.39920 -0.04753
 H851 H 0.23885 0.42592 -0.07465
 H852 H 0.26007 0.44350 -0.10619
 C853 C 0.84139 0.98985 0.34085
 C854 C 0.82765 0.98122 0.35858
 C855 C 0.81513 0.96189 0.35613
 C856 C 0.81558 0.95205 0.33503
 C857 C 0.82926 0.96073 0.31723
 C858 C 0.84303 0.97929 0.32002
 C859 C 0.80208 0.95260 0.37602
 C860 C 0.79663 0.93084 0.37868
 C861 C 0.78571 0.92093 0.39953
 C862 C 0.77449 0.90055 0.39834
 C863 C 0.76516 0.88983 0.41775
 C864 C 0.76704 0.89917 0.43888
 C865 C 0.77816 0.91963 0.44011
 C866 C 0.78745 0.93039 0.42068
 H867 H 0.85050 1.00475 0.34393
 H868 H 0.82718 0.98946 0.37450
 H869 H 0.80539 0.93774 0.33209
 H870 H 0.82941 0.95264 0.30124
 H871 H 0.79798 0.96400 0.38939
 H872 H 0.80068 0.91944 0.36529
 H873 H 0.77314 0.89274 0.38234
 H874 H 0.75704 0.87389 0.41628
 H875 H 0.77982 0.92727 0.45614
 H876 H 0.79653 0.94569 0.42251
 C877 C 0.86318 0.02386 1.22448
 C878 C 0.85479 0.03096 1.20373
 C879 C 0.83337 0.02472 1.19775
 C880 C 0.82069 0.01067 1.21274
 C881 C 0.82915 0.00342 1.23343
 C882 C 0.85046 0.01007 1.23969
 C883 C 0.82508 0.03267 1.17561
 C884 C 0.80319 0.03597 1.17177
 C885 C 0.79496 0.04512 1.15002
 C886 C 0.77473 0.05776 1.14998
 C887 C 0.76664 0.06707 1.12988
 C888 C 0.77842 0.06360 1.10932
 C889 C 0.79833 0.05038 1.10924
 C890 C 0.80658 0.04127 1.12940
 H891 H 0.87954 0.02950 1.22854
 H892 H 0.86496 0.04165 1.19241
 H893 H 0.80444 0.00484 1.20837
 H894 H 0.81910 -0.00780 1.24425
 H895 H 0.83752 0.03738 1.16258
 H896 H 0.79084 0.03346 1.18547
 H897 H 0.76534 0.06074 1.16560
 H898 H 0.75107 0.07692 1.13038
 H899 H 0.80775 0.04745 1.09362
 H900 H 0.82190 0.03107 1.12875
 C901 C 0.32557 0.49208 0.71695
 C902 C 0.31702 0.50011 0.69661
 C903 C 0.32769 0.51741 0.68381
 C904 C 0.34741 0.52637 0.69178
 C905 C 0.35604 0.51819 0.71213
 C906 C 0.34503 0.50123 0.72509
 C907 C 0.31688 0.52624 0.66310
 C908 C 0.32678 0.53989 0.64733
 C909 C 0.31505 0.54956 0.62750
 C910 C 0.32794 0.55778 0.60879
 C911 C 0.31758 0.56802 0.59022
 C912 C 0.29405 0.57040 0.59001
 C913 C 0.28112 0.56203 0.60866
 C914 C 0.29146 0.55187 0.62724
 H915 H 0.31694 0.47862 0.72629
 H916 H 0.30185 0.49286 0.69095
 H917 H 0.35596 0.54006 0.68284
 H918 H 0.37093 0.52566 0.71801
 H919 H 0.29998 0.52079 0.66075
 H920 H 0.34428 0.54391 0.64849
 H921 H 0.34612 0.55648 0.60862
 H922 H 0.32806 0.57464 0.57630
 H923 H 0.26295 0.56347 0.60898
 H924 H 0.28083 0.54647 0.64151
 C925 C 0.12891 0.53136 0.32540
 C926 C 0.13798 0.53783 0.34526
 C927 C 0.16117 0.54057 0.34654
 C928 C 0.17516 0.53683 0.32732
 C929 C 0.16605 0.53032 0.30734
 C930 C 0.14273 0.52743 0.30611
 C931 C 0.16964 0.54874 0.36772
 C932 C 0.19117 0.54709 0.37348
 C933 C 0.19910 0.55671 0.39426
 C934 C 0.21883 0.54789 0.40371
 C935 C 0.22719 0.55724 0.42279
 C936 C 0.21608 0.57579 0.43262
 C937 C 0.19626 0.58449 0.42324
 C938 C 0.18795 0.57520 0.40423
 H939 H 0.11088 0.52955 0.32501
 H940 H 0.12676 0.54085 0.35968
 H941 H 0.19305 0.53949 0.32737
 H942 H 0.17746 0.52806 0.29303
 H943 H 0.15723 0.55596 0.37931
 H944 H 0.20336 0.53798 0.36311
 H945 H 0.22788 0.53382 0.39622
 H946 H 0.24266 0.55036 0.42948
 H947 H 0.18721 0.59865 0.43052
 H948 H 0.17313 0.58303 0.39712
 C949 C 0.64431 0.01267 0.83170
 C950 C 0.65395 0.01754 0.85178
 C951 C 0.67732 0.01641 0.85372
 C952 C 0.69091 0.01017 0.83494
 C953 C 0.68122 0.00529 0.81470
 C954 C 0.65769 0.00631 0.81282
 C955 C 0.68635 0.02166 0.87572
 C956 C 0.70797 0.02577 0.87921
 C957 C 0.71542 0.03290 0.90125
 C958 C 0.73399 0.04692 0.90180
 C959 C 0.73998 0.05586 0.92203
 C960 C 0.72753 0.05084 0.94211
 C961 C 0.70985 0.03567 0.94179
 C962 C 0.70395 0.02666 0.92164
 H963 H 0.62618 0.01376 0.83088
 H964 H 0.64301 0.02228 0.86590
 H965 H 0.70899 0.00873 0.83574
 H966 H 0.69239 0.00079 0.80079
 H967 H 0.67408 0.02353 0.88950
 H968 H 0.72024 0.02589 0.86530
 H969 H 0.74329 0.05175 0.88640
 H970 H 0.75366 0.06755 0.92177
 H971 H 0.70032 0.03110 0.95713
 H972 H 0.69023 0.01504 0.92209
 C973 C 0.67843 0.98212 0.72351
 C974 C 0.68720 0.97149 0.70438
 C975 C 0.67513 0.95472 0.69451
 C976 C 0.65428 0.94842 0.70459
 C977 C 0.64550 0.95912 0.72359
 C978 C 0.65738 0.97616 0.73316
 C979 C 0.68517 0.94368 0.67435
 C980 C 0.67311 0.93241 0.66013
 C981 C 0.68305 0.92040 0.64060
 C982 C 0.67128 0.90241 0.63258
 C983 C 0.67986 0.89050 0.61426
 C984 C 0.70032 0.89650 0.60331
 C985 C 0.71194 0.91479 0.61100
 C986 C 0.70343 0.92663 0.62949
 H987 H 0.68795 0.99520 0.73059
 H988 H 0.70340 0.97650 0.69717
 H989 H 0.64481 0.93491 0.69830
 H990 H 0.62958 0.95363 0.73109
 H991 H 0.70314 0.94495 0.67131
 H992 H 0.65514 0.93118 0.66306
 H993 H 0.65543 0.89742 0.64067
 H994 H 0.67033 0.87673 0.60848
 H995 H 0.72775 0.91978 0.60286
 H996 H 0.71268 0.94080 0.63474
 C997 C 0.16536 0.48691 0.22606
 C998 C 0.17424 0.47634 0.20695
 C999 C 0.16298 0.47802 0.18672
 C1000 C 0.14323 0.49143 0.18564
 C1001 C 0.13444 0.50206 0.20467
 C1002 C 0.14515 0.49970 0.22523
 C1003 C 0.17212 0.46562 0.16713
 C1004 C 0.15891 0.45766 0.15173
 C1005 C 0.16748 0.44424 0.13262
 C1006 C 0.15299 0.42925 0.12324
 C1007 C 0.16036 0.41630 0.10516
 C1008 C 0.18232 0.41832 0.09585
 C1009 C 0.19673 0.43360 0.10497
 C1010 C 0.18941 0.44644 0.12317
 H1011 H 0.17396 0.48432 0.24162
 H1012 H 0.18958 0.46623 0.20816
 H1013 H 0.13455 0.49380 0.17009
 H1014 H 0.11919 0.51207 0.20316
 H1015 H 0.18996 0.46159 0.16638
 H1016 H 0.14084 0.45978 0.15390
 H1017 H 0.13595 0.42743 0.13005
 H1018 H 0.14879 0.40490 0.09828
 H1019 H 0.21377 0.43545 0.09818
 H1020 H 0.20086 0.45827 0.12954
 C1021 C -0.18431 0.31653 0.47239
 C1022 C -0.16453 0.30563 0.46463
 C1023 C -0.14634 0.31800 0.45546
 C1024 C -0.14842 0.34167 0.45407
 C1025 C -0.16810 0.35255 0.46187
 C1026 C -0.18643 0.34024 0.47105
 C1027 C -0.12613 0.30560 0.44651
 C1028 C -0.10602 0.31501 0.44251
 C1029 C -0.08648 0.30312 0.43174
 C1030 C -0.07038 0.31595 0.41946
 C1031 C -0.05211 0.30548 0.40830
 C1032 C -0.04934 0.28188 0.40941
 C1033 C -0.06511 0.26905 0.42228
 C1034 C -0.08348 0.27953 0.43336
 H1035 H -0.19768 0.30608 0.47919
 H1036 H -0.16348 0.28737 0.46573
 H1037 H -0.13525 0.35197 0.44645
 H1038 H -0.16918 0.37079 0.46042
 H1039 H -0.12822 0.28813 0.44270
 H1040 H -0.10378 0.33246 0.44622
 H1041 H -0.07225 0.33415 0.41805
 H1042 H -0.04047 0.31588 0.39831
 H1043 H -0.06318 0.25088 0.42391
 H1044 H -0.09509 0.26912 0.44334
 C1045 C 0.32214 0.85909 0.95418
 C1046 C 0.34132 0.84862 0.94480
 C1047 C 0.34512 0.82537 0.94794
 C1048 C 0.32925 0.81273 0.96091
 C1049 C 0.30989 0.82320 0.97029
 C1050 C 0.30555 0.84657 0.96652
 C1051 C 0.36555 0.81524 0.93689
 C1052 C 0.37480 0.79517 0.94295
 C1053 C 0.39530 0.78570 0.93139
 C1054 C 0.39881 0.76223 0.93176
 C1055 C 0.41762 0.75268 0.92054
 C1056 C 0.43345 0.76644 0.90886
 C1057 C 0.43027 0.78996 0.90905
 C1058 C 0.41150 0.79950 0.92026
 H1059 H 0.32022 0.87721 0.95166
 H1060 H 0.35338 0.85885 0.93512
 H1061 H 0.33144 0.79472 0.96368
 H1062 H 0.29870 0.81276 0.98069
 H1063 H 0.37332 0.82510 0.92313
 H1064 H 0.36703 0.78494 0.95641
 H1065 H 0.38679 0.75123 0.94048
 H1066 H 0.41980 0.73450 0.92106
 H1067 H 0.44208 0.80105 0.90016
 H1068 H 0.40992 0.81769 0.92028
 C1069 C 1.22799 0.82447 0.00935
 C1070 C 1.20851 0.81460 0.01875
 C1071 C 1.18850 0.82731 0.02137
 C1072 C 1.18840 0.85023 0.01462
 C1073 C 1.20789 0.86020 0.00543
 C1074 C 1.22819 0.84758 0.00267
 C1075 C 1.16849 0.81653 0.03238
 C1076 C 1.14733 0.82362 0.02873
 C1077 C 1.12741 0.81361 0.04070
 C1078 C 1.10660 0.81499 0.03048
 C1079 C 1.08729 0.80651 0.04168
 C1080 C 1.08834 0.79671 0.06353
 C1081 C 1.10919 0.79551 0.07381
 C1082 C 1.12849 0.80385 0.06256
 H1083 H 1.24308 0.81397 0.00833
 H1084 H 1.20913 0.79695 0.02413
 H1085 H 1.17341 0.86073 0.01682
 H1086 H 1.20645 0.87770 0.00007
 H1087 H 1.17139 0.80185 0.04337
 H1088 H 1.14429 0.83680 0.01604
 H1089 H 1.10529 0.82259 0.01372
 H1090 H 1.07157 0.80752 0.03317
 H1091 H 1.11053 0.78865 0.09084
 H1092 H 1.14405 0.80322 0.07131
 C1093 C 0.73522 0.32592 0.52208
 C1094 C 0.71604 0.31749 0.53346
 C1095 C 0.69473 0.32706 0.52946
 C1096 C 0.69305 0.34565 0.51412
 C1097 C 0.71230 0.35417 0.50283
 C1098 C 0.73357 0.34431 0.50656
 C1099 C 0.67493 0.31768 0.54219
 C1100 C 0.65390 0.31945 0.53498
 C1101 C 0.63439 0.30936 0.54764
 C1102 C 0.61565 0.30346 0.53585
 C1103 C 0.59704 0.29372 0.54720
 C1104 C 0.59668 0.28987 0.57067
 C1105 C 0.61526 0.29624 0.58252
 C1106 C 0.63387 0.30593 0.57118
 H1107 H 0.75141 0.31827 0.52579
 H1108 H 0.71785 0.30337 0.54541
 H1109 H 0.67702 0.35393 0.51107
 H1110 H 0.71046 0.36834 0.49104
 H1111 H 0.67815 0.30783 0.55747
 H1112 H 0.65091 0.32735 0.51864
 H1113 H 0.61554 0.30610 0.51775
 H1114 H 0.58307 0.28888 0.53754
 H1115 H 0.61528 0.29407 0.60066
 H1116 H 0.64761 0.31104 0.58097
 C1117 C 0.33363 0.13539 0.51555
 C1118 C 0.35333 0.14537 0.52148
 C1119 C 0.35517 0.16887 0.52056
 C1120 C 0.33694 0.18222 0.51292
 C1121 C 0.31712 0.17219 0.50692
 C1122 C 0.31514 0.14856 0.50826
 C1123 C 0.37638 0.17842 0.52774
 C1124 C 0.37836 0.19970 0.53406
 C1125 C 0.39915 0.20791 0.54358
 C1126 C 0.39744 0.22601 0.55807
 C1127 C 0.41634 0.23317 0.56869
 C1128 C 0.43739 0.22243 0.56496
 C1129 C 0.43932 0.20499 0.54971
 C1130 C 0.42046 0.19790 0.53899
 H1131 H 0.33271 0.11718 0.51686
 H1132 H 0.36710 0.13462 0.52718
 H1133 H 0.33785 0.20038 0.51138
 H1134 H 0.30358 0.18322 0.50149
 H1135 H 0.39046 0.16670 0.52954
 H1136 H 0.36383 0.21100 0.53421
 H1137 H 0.38130 0.23417 0.56173
 H1138 H 0.41431 0.24660 0.58044
 H1139 H 0.45544 0.19677 0.54611
 H1140 H 0.42273 0.18458 0.52719
 C1141 C 0.82435 0.64083 0.01682
 C1142 C 0.84307 0.65087 0.02498
 C1143 C 0.84248 0.67378 0.02968
 C1144 C 0.82259 0.68653 0.02616
 C1145 C 0.80369 0.67642 0.01804
 C1146 C 0.80434 0.65336 0.01323
 C1147 C 0.86250 0.68313 0.03953
 C1148 C 0.86720 0.70510 0.03911
 C1149 C 0.88725 0.71352 0.04977
 C1150 C 0.89708 0.73354 0.04131
 C1151 C 0.91591 0.74188 0.05122
 C1152 C 0.92504 0.73049 0.07001
 C1153 C 0.91509 0.71054 0.07853
 C1154 C 0.89636 0.70222 0.06864
 H1155 H 0.82540 0.62302 0.01349
 H1156 H 0.85807 0.64059 0.02773
 H1157 H 0.82128 0.70411 0.03025
 H1158 H 0.78871 0.68676 0.01602
 H1159 H 0.87433 0.67103 0.04677
 H1160 H 0.85676 0.71721 0.03000
 H1161 H 0.89022 0.74269 0.02694
 H1162 H 0.92304 0.75746 0.04449
 H1163 H 0.92181 0.70130 0.09290
 H1164 H 0.88885 0.68716 0.07614
 C1165 C 0.71326 0.66923 0.99276
 C1166 C 0.69332 0.67782 0.98368
 C1167 C 0.68441 0.66802 0.96503
 C1168 C 0.69623 0.64984 0.95521
 C1169 C 0.71606 0.64128 0.96426
 C1170 C 0.72472 0.65072 0.98322
 C1171 C 0.66346 0.67768 0.95551
 C1172 C 0.64960 0.66545 0.94392
 C1173 C 0.62949 0.67466 0.93245
 C1174 C 0.62042 0.66173 0.91597
 C1175 C 0.60191 0.66971 0.90413
 C1176 C 0.59186 0.69079 0.90860
 C1177 C 0.60054 0.70357 0.92546
 C1178 C 0.61915 0.69561 0.93728
 H1179 H 0.71958 0.67687 1.00735
 H1180 H 0.68472 0.69205 0.99136
 H1181 H 0.69059 0.64248 0.94019
 H1182 H 0.72489 0.62757 0.95597
 H1183 H 0.65969 0.69530 0.95814
 H1184 H 0.65345 0.64770 0.94201
 H1185 H 0.62788 0.64545 0.91202
 H1186 H 0.59539 0.65928 0.89153
 H1187 H 0.59317 0.71992 0.92923
 H1188 H 0.62516 0.70592 0.95020
 C1189 C 0.21462 0.13571 0.48092
 C1190 C 0.19586 0.14341 0.46936
 C1191 C 0.19687 0.16279 0.45520
 C1192 C 0.21718 0.17436 0.45271
 C1193 C 0.23608 0.16653 0.46415
 C1194 C 0.23510 0.14700 0.47842
 C1195 C 0.17680 0.16962 0.44251
 C1196 C 0.17208 0.19094 0.43572
 C1197 C 0.15151 0.19728 0.42359
 C1198 C 0.14131 0.21854 0.42670
 C1199 C 0.12169 0.22486 0.41573
 C1200 C 0.11212 0.21017 0.40109
 C1201 C 0.12263 0.18907 0.39760
 C1202 C 0.14211 0.18267 0.40874
 H1203 H 0.21286 0.12080 0.49169
 H1204 H 0.18043 0.13414 0.47151
 H1205 H 0.21876 0.18900 0.44137
 H1206 H 0.25161 0.17541 0.46113
 H1207 H 0.16485 0.15665 0.43979
 H1208 H 0.18273 0.20436 0.44037
 H1209 H 0.14837 0.23017 0.43789
 H1210 H 0.11414 0.24136 0.41849
 H1211 H 0.11564 0.17739 0.38643
 H1212 H 0.14991 0.16640 0.40547
 C1213 C 0.59124 0.02804 0.73670
 C1214 C 0.58005 0.04536 0.72461
 C1215 C 0.58552 0.06799 0.72676
 C1216 C 0.60275 0.07291 0.74103
 C1217 C 0.61384 0.05574 0.75318
 C1218 C 0.60841 0.03288 0.75132
 C1219 C 0.57387 0.08592 0.71312
 C1220 C 0.57252 0.10759 0.71891
 C1221 C 0.56275 0.12659 0.70511
 C1222 C 0.56256 0.14824 0.71381
 C1223 C 0.55466 0.16701 0.70131
 C1224 C 0.54663 0.16464 0.67972
 C1225 C 0.54650 0.14295 0.67105
 C1226 C 0.55449 0.12414 0.68353
 H1227 H 0.58573 0.01105 0.73492
 H1228 H 0.56691 0.04105 0.71363
 H1229 H 0.60835 0.08996 0.74239
 H1230 H 0.62750 0.06069 0.76312
 H1231 H 0.56616 0.08076 0.69813
 H1232 H 0.57905 0.11195 0.73479
 H1233 H 0.56890 0.15076 0.73028
 H1234 H 0.55534 0.18347 0.70840
 H1235 H 0.54014 0.14048 0.65459
 H1236 H 0.55429 0.10794 0.67596
 C1237 C 1.08503 0.55048 0.22426
 C1238 C 1.07256 0.56767 0.21346
 C1239 C 1.06246 0.58518 0.22572
 C1240 C 1.06375 0.58430 0.24927
 C1241 C 1.07620 0.56710 0.26005
 C1242 C 1.08760 0.55037 0.24759
 C1243 C 1.05133 0.60425 0.21335
 C1244 C 1.04979 0.62519 0.22106
 C1245 C 1.04147 0.64503 0.20761
 C1246 C 1.04855 0.66652 0.21275
 C1247 C 1.04207 0.68560 0.19986
 C1248 C 1.02820 0.68360 0.18158
 C1249 C 1.02045 0.66219 0.17691
 C1250 C 1.02693 0.64311 0.18982
 H1251 H 1.09337 0.53792 0.21411
 H1252 H 1.07155 0.56775 0.19534
 H1253 H 1.05533 0.59692 0.25942
 H1254 H 1.07709 0.56709 0.27817
 H1255 H 1.04636 0.60130 0.19647
 H1256 H 1.05677 0.62847 0.23706
 H1257 H 1.05962 0.66851 0.22647
 H1258 H 1.04843 0.70182 0.20381
 H1259 H 1.00928 0.66020 0.16328
 H1260 H 1.02039 0.62699 0.18584
 C1261 C 0.90788 0.93817 0.27197
 C1262 C 0.92107 0.92216 0.26056
 C1263 C 0.92852 0.92627 0.23817
 C1264 C 0.92312 0.94723 0.22765
 C1265 C 0.90982 0.96324 0.23897
 C1266 C 0.90169 0.95900 0.26136
 C1267 C 0.94158 0.90817 0.22656
 C1268 C 0.94414 0.90727 0.20409
 C1269 C 0.95504 0.88799 0.19239
 C1270 C 0.95019 0.88517 0.16984
 C1271 C 0.95895 0.86667 0.15837
 C1272 C 0.97289 0.85052 0.16915
 C1273 C 0.97855 0.85378 0.19144
 C1274 C 0.96979 0.87236 0.20295
 H1275 H 0.90311 0.93411 0.28934
 H1276 H 0.92527 0.90633 0.26927
 H1277 H 0.92899 0.95148 0.21062
 H1278 H 0.90533 0.97842 0.22945
 H1279 H 0.94778 0.89428 0.23705
 H1280 H 0.93640 0.92024 0.19353
 H1281 H 0.93917 0.89710 0.16117
 H1282 H 0.95470 0.86494 0.14103
 H1283 H 0.98928 0.84166 0.20020
 H1284 H 0.97464 0.87427 0.22003
 C1285 C 0.41552 0.45227 0.73685
 C1286 C 0.42892 0.43624 0.72553
 C1287 C 0.42110 0.41442 0.72287
 C1288 C 0.39927 0.40921 0.73107
 C1289 C 0.38596 0.42516 0.74238
 C1290 C 0.39401 0.44677 0.74562
 C1291 C 0.43571 0.39775 0.71088
 C1292 C 0.43372 0.37538 0.71439
 C1293 C 0.44736 0.35809 0.70222
 C1294 C 0.44736 0.33577 0.71099
 C1295 C 0.45885 0.31858 0.69959
 C1296 C 0.47060 0.32330 0.67906
 C1297 C 0.47082 0.34566 0.67033
 C1298 C 0.45925 0.36287 0.68170
 H1299 H 0.42218 0.46878 0.73912
 H1300 H 0.44555 0.44079 0.71912
 H1301 H 0.39218 0.39297 0.72848
 H1302 H 0.36917 0.42063 0.74829
 H1303 H 0.44890 0.40428 0.69959
 H1304 H 0.42182 0.36918 0.72729
 H1305 H 0.43828 0.33155 0.72669
 H1306 H 0.45856 0.30157 0.70687
 H1307 H 0.47938 0.34975 0.65433
 H1308 H 0.45920 0.37966 0.67396
 C1309 C 0.41100 0.51850 0.79658
 C1310 C 0.42631 0.53533 0.79986
 C1311 C 0.43137 0.55158 0.78276
 C1312 C 0.42168 0.54986 0.76176
 C1313 C 0.40640 0.53286 0.75844
 C1314 C 0.40043 0.51738 0.77601
 C1315 C 0.44647 0.57003 0.78788
 C1316 C 0.44662 0.59028 0.77696
 C1317 C 0.45921 0.60962 0.78471
 C1318 C 0.45159 0.63164 0.77912
 C1319 C 0.46165 0.65027 0.78783
 C1320 C 0.47959 0.64723 0.80230
 C1321 C 0.48800 0.62528 0.80693
 C1322 C 0.47806 0.60668 0.79811
 H1323 H 0.40732 0.50644 0.81029
 H1324 H 0.43378 0.53599 0.81609
 H1325 H 0.42573 0.56158 0.74789
 H1326 H 0.39880 0.53233 0.74234
 H1327 H 0.45617 0.56741 0.80276
 H1328 H 0.43544 0.59365 0.76331
 H1329 H 0.43728 0.63443 0.76864
 H1330 H 0.45479 0.66699 0.78400
 H1331 H 0.50218 0.62249 0.81758
 H1332 H 0.48514 0.59010 0.80202
 C1333 C -0.08082 0.02940 0.30779
 C1334 C -0.06503 0.04607 0.30982
 C1335 C -0.06125 0.06241 0.29248
 C1336 C -0.07288 0.06103 0.27248
 C1337 C -0.08870 0.04428 0.27046
 C1338 C -0.09316 0.02860 0.28827
 C1339 C -0.04546 0.08065 0.29632
 C1340 C -0.04573 0.10078 0.28520
 C1341 C -0.03230 0.12001 0.29173
 C1342 C -0.03987 0.14202 0.28606
 C1343 C -0.02893 0.16066 0.29360
 C1344 C -0.01011 0.15765 0.30693
 C1345 C -0.00184 0.13568 0.31168
 C1346 C -0.01268 0.11705 0.30402
 H1347 H -0.08344 0.01718 0.32159
 H1348 H -0.05610 0.04649 0.32526
 H1349 H -0.06995 0.07282 0.25841
 H1350 H -0.09788 0.04405 0.25522
 H1351 H -0.03474 0.07799 0.31045
 H1352 H -0.05779 0.10420 0.27235
 H1353 H -0.05479 0.14481 0.27644
 H1354 H -0.03572 0.17741 0.28974
 H1355 H 0.01297 0.13292 0.32147
 H1356 H -0.00567 0.10044 0.30791
 C1357 C 0.07323 0.47082 0.26074
 C1358 C 0.06263 0.45003 0.26047
 C1359 C 0.07293 0.43044 0.26971
 C1360 C 0.09376 0.43208 0.27969
 C1361 C 0.10416 0.45277 0.28020
 C1362 C 0.09398 0.47235 0.27083
 C1363 C 0.06122 0.40872 0.27029
 C1364 C 0.07261 0.38896 0.26948
 C1365 C 0.06269 0.36664 0.27482
 C1366 C 0.07572 0.34728 0.26992
 C1367 C 0.06909 0.32603 0.27819
 C1368 C 0.04927 0.32368 0.29163
 C1369 C 0.03551 0.34285 0.29543
 C1370 C 0.04216 0.36415 0.28718
 H1371 H 0.06506 0.48574 0.25348
 H1372 H 0.04643 0.44922 0.25298
 H1373 H 0.10186 0.41747 0.28762
 H1374 H 0.12032 0.45341 0.28781
 H1375 H 0.04305 0.40919 0.27183
 H1376 H 0.09058 0.38910 0.26574
 H1377 H 0.09160 0.34870 0.26045
 H1378 H 0.07987 0.31150 0.27474
 H1379 H 0.02028 0.34159 0.30596
 H1380 H 0.03181 0.37861 0.29175
 C1381 C 0.58262 0.95666 0.76710
 C1382 C 0.57023 0.93687 0.76705
 C1383 C 0.57828 0.91683 0.77759
 C1384 C 0.59867 0.91708 0.78861
 C1385 C 0.61083 0.93677 0.78886
 C1386 C 0.60291 0.95681 0.77824
 C1387 C 0.56483 0.89612 0.77817
 C1388 C 0.57467 0.87551 0.77839
 C1389 C 0.56283 0.85404 0.78311
 C1390 C 0.57476 0.83378 0.77916
 C1391 C 0.56601 0.81311 0.78670
 C1392 C 0.54508 0.81217 0.79845
 C1393 C 0.53251 0.83229 0.80134
 C1394 C 0.54131 0.85306 0.79383
 H1395 H 0.57619 0.97191 0.75877
 H1396 H 0.55443 0.93716 0.75867
 H1397 H 0.60508 0.90215 0.79749
 H1398 H 0.62663 0.93621 0.79724
 H1399 H 0.54671 0.89805 0.77864
 H1400 H 0.59277 0.87421 0.77572
 H1401 H 0.59135 0.83400 0.77096
 H1402 H 0.57594 0.79785 0.78395
 H1403 H 0.51644 0.83211 0.81056
 H1404 H 0.53171 0.86824 0.79760
 C1405 C 0.72594 0.59033 0.03065
 C1406 C 0.71520 0.57689 0.04750
 C1407 C 0.72772 0.56512 0.06386
 C1408 C 0.75132 0.56566 0.06202
 C1409 C 0.76202 0.57909 0.04523
 C1410 C 0.74941 0.59211 0.02982
 C1411 C 0.71569 0.55326 0.08302
 C1412 C 0.72427 0.55075 0.10349
 C1413 C 0.71153 0.54168 0.12367
 C1414 C 0.71783 0.54789 0.14496
 C1415 C 0.70568 0.54066 0.16441
 C1416 C 0.68703 0.52686 0.16300
 C1417 C 0.68123 0.51993 0.14174
 C1418 C 0.69335 0.52721 0.12227
 H1419 H 0.71578 0.60025 0.01906
 H1420 H 0.69701 0.57652 0.04838
 H1421 H 0.76158 0.55603 0.07371
 H1422 H 0.78020 0.57972 0.04461
 H1423 H 0.69852 0.54865 0.08068
 H1424 H 0.74063 0.55745 0.10620
 H1425 H 0.73187 0.55888 0.14653
 H1426 H 0.71050 0.54644 0.18049
 H1427 H 0.66729 0.50884 0.14014
 H1428 H 0.68848 0.52137 0.10626
 C1429 C 0.23043 1.09564 0.53778
 C1430 C 0.21834 1.08623 0.55632
 C1431 C 0.22925 1.07893 0.57584
 C1432 C 0.25277 1.08057 0.57609
 C1433 C 0.26485 1.08992 0.55749
 C1434 C 0.25376 1.09813 0.53831
 C1435 C 0.21525 1.07147 0.59588
 C1436 C 0.22332 1.06108 0.61440
 C1437 C 0.20902 1.05571 0.63483
 C1438 C 0.21566 1.03803 0.64965
 C1439 C 0.20274 1.03279 0.66926
 C1440 C 0.18298 1.04530 0.67453
 C1441 C 0.17660 1.06329 0.65992
 C1442 C 0.18948 1.06851 0.64035
 H1443 H 0.22123 1.10180 0.52352
 H1444 H 0.20025 1.08522 0.55562
 H1445 H 0.26197 1.07548 0.59078
 H1446 H 0.28289 1.09110 0.55837
 H1447 H 0.19733 1.07483 0.59521
 H1448 H 0.24080 1.05575 0.61469
 H1449 H 0.23077 1.02808 0.64593
 H1450 H 0.20802 1.01873 0.68011
 H1451 H 0.16178 1.07359 0.66379
 H1452 H 0.18430 1.08287 0.62989
 C1453 C 0.22475 0.91415 0.96344
 C1454 C 0.21251 0.92897 0.94946
 C1455 C 0.22081 0.93519 0.92779
 C1456 C 0.24194 0.92661 0.92052
 C1457 C 0.25420 0.91184 0.93442
 C1458 C 0.24564 0.90466 0.95598
 C1459 C 0.20624 0.94903 0.91271
 C1460 C 0.21400 0.96019 0.89402
 C1461 C 0.19938 0.97112 0.87696
 C1462 C 0.20909 0.98600 0.86060
 C1463 C 0.19661 0.99487 0.84281
 C1464 C 0.17411 0.98895 0.84092
 C1465 C 0.16418 0.97455 0.85761
 C1466 C 0.17665 0.96563 0.87535
 H1467 H 0.21699 0.90984 0.97963
 H1468 H 0.19622 0.93529 0.95551
 H1469 H 0.24894 0.93058 0.90383
 H1470 H 0.27053 0.90633 0.92789
 H1471 H 0.18847 0.94969 0.91724
 H1472 H 0.23194 0.96127 0.89068
 H1473 H 0.22660 0.99035 0.86127
 H1474 H 0.20484 1.00570 0.83009
 H1475 H 0.14679 0.96988 0.85677
 H1476 H 0.16854 0.95384 0.88718
 C1477 C 0.76711 0.40703 0.43058
 C1478 C 0.75699 0.42112 0.41442
 C1479 C 0.73389 0.42633 0.41611
 C1480 C 0.72129 0.41788 0.43505
 C1481 C 0.73144 0.40365 0.45120
 C1482 C 0.75436 0.39765 0.44892
 C1483 C 0.72388 0.44009 0.39747
 C1484 C 0.70176 0.44155 0.39395
 C1485 C 0.69201 0.45261 0.37359
 C1486 C 0.66992 0.44749 0.36874
 C1487 C 0.66035 0.45607 0.34909
 C1488 C 0.67265 0.47004 0.33371
 C1489 C 0.69444 0.47600 0.33895
 C1490 C 0.70402 0.46748 0.35872
 H1491 H 0.78498 0.40349 0.42861
 H1492 H 0.76725 0.42765 0.40028
 H1493 H 0.70363 0.42203 0.43759
 H1494 H 0.72112 0.39700 0.46514
 H1495 H 0.73558 0.44772 0.38524
 H1496 H 0.69017 0.43271 0.40541
 H1497 H 0.66011 0.43639 0.37999
 H1498 H 0.64330 0.45164 0.34589
 H1499 H 0.70434 0.48679 0.32749
 H1500 H 0.72079 0.47257 0.36205
 C1501 C 0.76146 0.40219 0.53644
 C1502 C 0.76286 0.41610 0.55471
 C1503 C 0.78265 0.42762 0.55808
 C1504 C 0.80106 0.42497 0.54270
 C1505 C 0.79966 0.41108 0.52449
 C1506 C 0.77996 0.39935 0.52130
 C1507 C 0.78417 0.44074 0.57863
 C1508 C 0.79900 0.45715 0.58038
 C1509 C 0.80311 0.46853 0.60152
 C1510 C 0.81639 0.48777 0.60017
 C1511 C 0.82292 0.49770 0.61964
 C1512 C 0.81632 0.48860 0.64096
 C1513 C 0.80237 0.46984 0.64242
 C1514 C 0.79592 0.45979 0.62293
 H1515 H 0.74619 0.39305 0.53466
 H1516 H 0.74855 0.41759 0.56645
 H1517 H 0.81689 0.43291 0.54501
 H1518 H 0.81415 0.40932 0.51302
 H1519 H 0.77263 0.43656 0.59260
 H1520 H 0.80899 0.46254 0.56562
 H1521 H 0.82222 0.49485 0.58397
 H1522 H 0.83346 0.51232 0.61801
 H1523 H 0.79729 0.46231 0.65865
 H1524 H 0.78614 0.44472 0.62489
 C1525 C 0.26157 -0.08296 0.02728
 C1526 C 0.26437 -0.06957 0.04571
 C1527 C 0.28123 -0.07486 0.06089
 C1528 C 0.29572 -0.09343 0.05695
 C1529 C 0.29319 -0.10663 0.03843
 C1530 C 0.27596 -0.10180 0.02327
 C1531 C 0.28419 -0.06025 0.08005
 C1532 C 0.29169 -0.06846 0.09973
 C1533 C 0.29696 -0.05429 0.11861
 C1534 C 0.29754 -0.06436 0.14031
 C1535 C 0.30486 -0.05238 0.15821
 C1536 C 0.31207 -0.03013 0.15472
 C1537 C 0.31097 -0.01980 0.13312
 C1538 C 0.30346 -0.03173 0.11522
 H1539 H 0.24873 -0.07769 0.01576
 H1540 H 0.25330 -0.05503 0.04815
 H1541 H 0.30931 -0.09763 0.06799
 H1542 H 0.30443 -0.12109 0.03662
 H1543 H 0.27958 -0.04255 0.07797
 H1544 H 0.29404 -0.08652 0.10230
 H1545 H 0.29282 -0.08176 0.14332
 H1546 H 0.30585 -0.06090 0.17459
 H1547 H 0.31639 -0.00265 0.12998
 H1548 H 0.30375 -0.02356 0.09864
 C1549 C 0.26173 0.09141 0.44787
 C1550 C 0.26267 0.07998 0.42778
 C1551 C 0.28231 0.06821 0.42078
 C1552 C 0.30088 0.06761 0.43468
 C1553 C 0.29994 0.07906 0.45476
 C1554 C 0.28053 0.09146 0.46133
 C1555 C 0.28357 0.05895 0.39797
 C1556 C 0.29894 0.04343 0.39132
 C1557 C 0.30268 0.03701 0.36760
 C1558 C 0.31468 0.01692 0.36314
 C1559 C 0.32090 0.01152 0.34107
 C1560 C 0.31542 0.02625 0.32293
 C1561 C 0.30281 0.04603 0.32731
 C1562 C 0.29656 0.05142 0.34937
 H1563 H 0.24666 0.10113 0.45221
 H1564 H 0.24821 0.08094 0.41731
 H1565 H 0.31656 0.05928 0.42973
 H1566 H 0.31465 0.07874 0.46485
 H1567 H 0.27149 0.06560 0.38619
 H1568 H 0.30959 0.03517 0.40358
 H1569 H 0.31980 0.00563 0.37685
 H1570 H 0.33089 -0.00368 0.33830
 H1571 H 0.29823 0.05765 0.31367
 H1572 H 0.28786 0.06736 0.35199
 C1573 C 0.78276 0.62280 0.93446
 C1574 C 0.78344 0.61578 0.91244
 C1575 C 0.77588 0.59445 0.90749
 C1576 C 0.76679 0.58047 0.92513
 C1577 C 0.76590 0.58767 0.94732
 C1578 C 0.77433 0.60871 0.95218
 C1579 C 0.77864 0.58773 0.88382
 C1580 C 0.77818 0.56653 0.87693
 C1581 C 0.78566 0.56100 0.85370
 C1582 C 0.77609 0.54311 0.84308
 C1583 C 0.78360 0.53746 0.82133
 C1584 C 0.80101 0.54949 0.80997
 C1585 C 0.81079 0.56709 0.82089
 C1586 C 0.80327 0.57274 0.84243
 H1587 H 0.78870 0.63943 0.93760
 H1588 H 0.79032 0.62700 0.89922
 H1589 H 0.76035 0.56409 0.92199
 H1590 H 0.75903 0.57667 0.96070
 H1591 H 0.78289 0.60104 0.87149
 H1592 H 0.77317 0.55282 0.88841
 H1593 H 0.76273 0.53359 0.85158
 H1594 H 0.77577 0.52376 0.81340
 H1595 H 0.82481 0.57614 0.81306
 H1596 H 0.81180 0.58592 0.85047
 C1597 C 0.06310 0.77433 0.59589
 C1598 C 0.08162 0.76425 0.58477
 C1599 C 0.08053 0.74240 0.57698
 C1600 C 0.05998 0.73126 0.57952
 C1601 C 0.04140 0.74130 0.59069
 C1602 C 0.04271 0.76283 0.59975
 C1603 C 0.10129 0.73203 0.56670
 C1604 C 0.10426 0.70987 0.56364
 C1605 C 0.12579 0.69965 0.55518
 C1606 C 0.12537 0.67922 0.54423
 C1607 C 0.14535 0.66837 0.53708
 C1608 C 0.16628 0.67756 0.54106
 C1609 C 0.16671 0.69808 0.55199
 C1610 C 0.14670 0.70900 0.55902
 H1611 H 0.06502 0.79137 0.60107
 H1612 H 0.09704 0.77353 0.58257
 H1613 H 0.05799 0.71472 0.57308
 H1614 H 0.02654 0.73138 0.59271
 H1615 H 0.11502 0.74319 0.56227
 H1616 H 0.09068 0.69845 0.56754
 H1617 H 0.10950 0.67161 0.54118
 H1618 H 0.14438 0.65278 0.52841
 H1619 H 0.18253 0.70537 0.55572
 H1620 H 0.14775 0.72431 0.56811
 C1621 C 0.54389 0.25511 1.07187
 C1622 C 0.56063 0.24210 1.06109
 C1623 C 0.56101 0.21853 1.06399
 C1624 C 0.54323 0.20809 1.07644
 C1625 C 0.52631 0.22114 1.08706
 C1626 C 0.52696 0.24477 1.08548
 C1627 C 0.58071 0.20569 1.05468
 C1628 C 0.58850 0.18642 1.06442
 C1629 C 0.61027 0.17535 1.05770
 C1630 C 0.62078 0.16078 1.07342
 C1631 C 0.64173 0.15070 1.06827
 C1632 C 0.65263 0.15486 1.04717
 C1633 C 0.64192 0.16902 1.03122
 C1634 C 0.62093 0.17907 1.03634
 H1635 H 0.54459 0.27332 1.07021
 H1636 H 0.57394 0.25055 1.05135
 H1637 H 0.54258 0.18992 1.07839
 H1638 H 0.51344 0.21277 1.09748
 H1639 H 0.59045 0.21384 1.04107
 H1640 H 0.57972 0.17951 1.07934
 H1641 H 0.61295 0.15752 1.08995
 H1642 H 0.64959 0.13997 1.08097
 H1643 H 0.64967 0.17211 1.01463
 H1644 H 0.61310 0.18951 1.02344
 C1645 C 0.94125 0.23898 0.92351
 C1646 C 0.92571 0.22656 0.93692
 C1647 C 0.90447 0.22206 0.92900
 C1648 C 0.89936 0.22961 0.90706
 C1649 C 0.91483 0.24202 0.89372
 C1650 C 0.93584 0.24705 0.90187
 C1651 C 0.88834 0.20890 0.94362
 C1652 C 0.86599 0.21064 0.94152
 C1653 C 0.84932 0.19720 0.95520
 C1654 C 0.82666 0.20436 0.95533
 C1655 C 0.81009 0.19166 0.96686
 C1656 C 0.81579 0.17140 0.97849
 C1657 C 0.83848 0.16429 0.97858
 C1658 C 0.85508 0.17697 0.96699
 H1659 H 0.95728 0.24264 0.93027
 H1660 H 0.93018 0.22070 0.95365
 H1661 H 0.88362 0.22563 0.89991
 H1662 H 0.91043 0.24736 0.87684
 H1663 H 0.89518 0.19824 0.95695
 H1664 H 0.85930 0.22296 0.92950
 H1665 H 0.82171 0.21980 0.94633
 H1666 H 0.79278 0.19770 0.96666
 H1667 H 0.84334 0.14853 0.98703
 H1668 H 0.87219 0.17044 0.96681
 C1669 C 0.45473 0.71762 0.39385
 C1670 C 0.43675 0.70718 0.40551
 C1671 C 0.42239 0.71941 0.42010
 C1672 C 0.42646 0.74233 0.42299
 C1673 C 0.44429 0.75283 0.41106
 C1674 C 0.45844 0.74056 0.39632
 C1675 C 0.40227 0.70837 0.43033
 C1676 C 0.39221 0.71430 0.44983
 C1677 C 0.37146 0.70345 0.45875
 C1678 C 0.36832 0.69885 0.48193
 C1679 C 0.34916 0.68773 0.49046
 C1680 C 0.33255 0.68144 0.47595
 C1681 C 0.33533 0.68707 0.45284
 C1682 C 0.35461 0.69783 0.44432
 H1683 H 0.46502 0.70806 0.38208
 H1684 H 0.43375 0.68959 0.40279
 H1685 H 0.41537 0.75240 0.43365
 H1686 H 0.44679 0.77065 0.41298
 H1687 H 0.39576 0.69443 0.42160
 H1688 H 0.39978 0.72656 0.45996
 H1689 H 0.38103 0.70326 0.49335
 H1690 H 0.34769 0.68353 0.50831
 H1691 H 0.32259 0.68317 0.44126
 H1692 H 0.35624 0.70190 0.42644
 C1693 C 0.52925 0.78607 0.41608
 C1694 C 0.54506 0.78828 0.43237
 C1695 C 0.56180 0.77160 0.43575
 C1696 C 0.56170 0.75196 0.42328
 C1697 C 0.54558 0.74959 0.40712
 C1698 C 0.52959 0.76689 0.40305
 C1699 C 0.57924 0.77598 0.45189
 C1700 C 0.60040 0.76774 0.45016
 C1701 C 0.61863 0.77621 0.46353
 C1702 C 0.63764 0.76242 0.46758
 C1703 C 0.65572 0.77062 0.47885
 C1704 C 0.65519 0.79290 0.48608
 C1705 C 0.63617 0.80667 0.48192
 C1706 C 0.61816 0.79849 0.47076
 H1707 H 0.51679 0.79945 0.41355
 H1708 H 0.54462 0.80347 0.44190
 H1709 H 0.57400 0.73848 0.42588
 H1710 H 0.54604 0.73459 0.39732
 H1711 H 0.57487 0.78816 0.46450
 H1712 H 0.60496 0.75527 0.43791
 H1713 H 0.63855 0.74530 0.46191
 H1714 H 0.67012 0.75957 0.48184
 H1715 H 0.63549 0.82413 0.48658
 H1716 H 0.60434 0.81004 0.46707
 C1717 C 0.00598 0.30298 -0.08200
 C1718 C 0.02403 0.30775 -0.06897
 C1719 C 0.04202 0.29222 -0.06652
 C1720 C 0.04106 0.27126 -0.07669
 C1721 C 0.02285 0.26644 -0.08970
 C1722 C 0.00546 0.28253 -0.09296
 C1723 C 0.06208 0.29965 -0.05514
 C1724 C 0.07908 0.28611 -0.04837
 C1725 C 0.09944 0.29534 -0.03900
 C1726 C 0.11099 0.28292 -0.02236
 C1727 C 0.12988 0.29180 -0.01293
 C1728 C 0.13768 0.31316 -0.02022
 C1729 C 0.12661 0.32507 -0.03756
 C1730 C 0.10777 0.31629 -0.04684
 H1731 H -0.00736 0.31556 -0.08396
 H1732 H 0.02426 0.32398 -0.06132
 H1733 H 0.05471 0.25896 -0.07558
 H1734 H 0.02299 0.25065 -0.09819
 H1735 H 0.06284 0.31752 -0.05228
 H1736 H 0.07798 0.26799 -0.04902
 H1737 H 0.10508 0.26659 -0.01627
 H1738 H 0.13802 0.28220 0.00040
 H1739 H 0.13261 0.34121 -0.04409
 H1740 H 0.09989 0.32588 -0.06034
 C1741 C 0.44701 0.26789 0.07449
 C1742 C 0.42552 0.27005 0.06576
 C1743 C 0.40829 0.28223 0.07710
 C1744 C 0.41276 0.29146 0.09779
 C1745 C 0.43413 0.28945 0.10637
 C1746 C 0.45157 0.27791 0.09470
 C1747 C 0.38570 0.28470 0.06751
 C1748 C 0.37217 0.30263 0.07163
 C1749 C 0.34885 0.30614 0.06409
 C1750 C 0.33691 0.32532 0.07149
 C1751 C 0.31488 0.32976 0.06539
 C1752 C 0.30407 0.31512 0.05167
 C1753 C 0.31593 0.29592 0.04404
 C1754 C 0.33810 0.29138 0.05026
 H1755 H 0.46010 0.25867 0.06531
 H1756 H 0.42241 0.26245 0.04999
 H1757 H 0.39969 0.29991 0.10770
 H1758 H 0.43684 0.29652 0.12248
 H1759 H 0.38061 0.27172 0.05674
 H1760 H 0.37851 0.31592 0.08136
 H1761 H 0.34468 0.33706 0.08207
 H1762 H 0.30645 0.34499 0.07110
 H1763 H 0.30800 0.28437 0.03341
 H1764 H 0.34659 0.27642 0.04411
 C1765 C 0.95985 0.80601 0.58656
 C1766 C 0.94072 0.80704 0.57382
 C1767 C 0.92947 0.78739 0.56940
 C1768 C 0.93857 0.76644 0.57676
 C1769 C 0.95793 0.76532 0.58930
 C1770 C 0.96860 0.78517 0.59498
 C1771 C 0.90801 0.78960 0.55777
 C1772 C 0.89107 0.77533 0.56180
 C1773 C 0.86819 0.78023 0.55375
 C1774 C 0.84962 0.77278 0.56706
 C1775 C 0.82779 0.77932 0.56143
 C1776 C 0.82411 0.79318 0.54218
 C1777 C 0.84263 0.79947 0.52811
 C1778 C 0.86446 0.79304 0.53380
 H1779 H 0.96786 0.82170 0.58957
 H1780 H 0.93426 0.82338 0.56798
 H1781 H 0.93060 0.75090 0.57315
 H1782 H 0.96342 0.74885 0.59559
 H1783 H 0.90515 0.80499 0.54779
 H1784 H 0.89313 0.76116 0.57363
 H1785 H 0.85204 0.76267 0.58236
 H1786 H 0.81380 0.77392 0.57239
 H1787 H 0.84034 0.81017 0.51318
 H1788 H 0.87837 0.79846 0.52277
   
