data_POSCAR
  _audit_creation_date              2014-09-24
  _audit_creation_method            'ToBaCCo'
  _symmetry_space_group_name_H-M    'P1'
  _symmetry_Int_Tables_number       1
  _symmetry_cell_setting            triclinic
  loop_
  _symmetry_equiv_pos_as_xyz
 x,y,z
_cell_length_a 57.4469
_cell_length_b 55.5159
_cell_length_c 55.6821
_cell_angle_alpha 88.730600
_cell_angle_beta 89.563900
_cell_angle_gamma 91.195300
loop_
  _atom_site_label
  _atom_site_type_symbol
  _atom_site_fract_x
  _atom_site_fract_y
  _atom_site_fract_z
N1 N 0.16380 0.22753 0.22460
 N2 N 0.17219 0.20897 0.23649
 C3 C 0.15818 0.20384 0.25561
 C4 C 0.14012 0.22003 0.25551
 C5 C 0.14433 0.23476 0.23554
 H6 H 0.16098 0.18961 0.26879
 H7 H 0.13434 0.24998 0.22953
 Cu8 Cu 0.20085 0.19392 0.22566
 Cu9 Cu 0.17884 0.24204 0.19638
 Cu10 Cu 0.23071 0.21787 0.17807
 N11 N 0.23058 0.18091 0.21517
 N12 N 0.24204 0.19068 0.19673
 C13 C 0.26181 0.17871 0.19322
 C14 C 0.26292 0.16038 0.21019
 C15 C 0.24283 0.16221 0.22396
 H16 H 0.27450 0.18291 0.17922
 H17 H 0.23760 0.15092 0.23922
 N18 N 0.21647 0.24536 0.16139
 N19 N 0.19651 0.25443 0.16824
 C20 C 0.19118 0.27279 0.15320
 C21 C 0.20862 0.27542 0.13614
 C22 C 0.22440 0.25773 0.14181
 H23 H 0.17577 0.28355 0.15448
 H24 H 0.24035 0.25400 0.13232
 H25 H 0.19590 0.21158 0.18551
 H26 H 0.21211 0.23212 0.20602
 N27 N 0.67564 0.73452 0.73397
 N28 N 0.67875 0.71630 0.74899
 C29 C 0.66184 0.71617 0.76592
 C30 C 0.64744 0.73537 0.76113
 C31 C 0.65668 0.74654 0.74074
 H32 H 0.66003 0.70298 0.78041
 H33 H 0.65004 0.76229 0.73154
 Cu34 Cu 0.70427 0.69422 0.74462
 Cu35 Cu 0.69648 0.74155 0.70700
 Cu36 Cu 0.74126 0.70200 0.69751
 N37 N 0.72892 0.67162 0.73832
 N38 N 0.74320 0.67460 0.71987
 C39 C 0.75828 0.65634 0.71976
 C40 C 0.75313 0.64113 0.73922
 C41 C 0.73445 0.65137 0.75056
 H42 H 0.77192 0.65438 0.70652
 H43 H 0.72554 0.64444 0.76652
 N44 N 0.73637 0.73084 0.67692
 N45 N 0.71926 0.74583 0.68067
 C46 C 0.72061 0.76390 0.66420
 C47 C 0.73951 0.76017 0.64931
 C48 C 0.74907 0.73903 0.65784
 H49 H 0.70876 0.77873 0.66327
 H50 H 0.76430 0.73044 0.65075
 H51 H 0.70592 0.70609 0.70221
 H52 H 0.72562 0.72504 0.72094
 N53 N 0.32418 0.76158 0.73419
 N54 N 0.31499 0.77662 0.74931
 C55 C 0.32972 0.78045 0.76746
 C56 C 0.34917 0.76691 0.76389
 C57 C 0.34520 0.75499 0.74257
 H58 H 0.32635 0.79197 0.78246
 H59 H 0.35651 0.74239 0.73397
 Cu60 Cu 0.28437 0.78946 0.74484
 Cu61 Cu 0.30689 0.75168 0.70559
 Cu62 Cu 0.26001 0.78796 0.69063
 N63 N 0.25991 0.81112 0.73617
 N64 N 0.25053 0.81106 0.71472
 C65 C 0.23483 0.82877 0.71329
 C66 C 0.23467 0.84048 0.73509
 C67 C 0.25074 0.82877 0.74910
 H68 H 0.22471 0.83297 0.69751
 H69 H 0.25583 0.83315 0.76718
 N70 N 0.27226 0.76316 0.66915
 N71 N 0.29006 0.74940 0.67466
 C72 C 0.29324 0.73366 0.65685
 C73 C 0.27651 0.73764 0.63948
 C74 C 0.26359 0.75639 0.64788
 H75 H 0.30625 0.71987 0.65691
 H76 H 0.24853 0.76405 0.63933
 H77 H 0.29406 0.78563 0.70265
 H78 H 0.27293 0.76174 0.71316
 N79 N 0.82910 0.26187 0.22400
 N80 N 0.82686 0.28296 0.23397
 C81 C 0.84382 0.28587 0.25036
 C82 C 0.85727 0.26536 0.25057
 C83 C 0.84734 0.25056 0.23371
 H84 H 0.84602 0.30159 0.26131
 H85 H 0.85301 0.23286 0.22878
 Cu86 Cu 0.80141 0.30400 0.22479
 Cu87 Cu 0.80812 0.25027 0.19934
 Cu88 Cu 0.77726 0.29532 0.17098
 N89 N 0.77550 0.32346 0.21360
 N90 N 0.76633 0.31980 0.19239
 C91 C 0.74928 0.33553 0.18848
 C92 C 0.74745 0.34981 0.20828
 C93 C 0.76440 0.34176 0.22400
 H94 H 0.73891 0.33650 0.17235
 H95 H 0.76839 0.34867 0.24153
 N96 N 0.78186 0.26367 0.15697
 N97 N 0.79313 0.24622 0.16799
 C98 C 0.79289 0.22671 0.15405
 C99 C 0.78067 0.23222 0.13338
 C100 C 0.77385 0.25570 0.13589
 H101 H 0.80096 0.20982 0.15866
 H102 H 0.76376 0.26619 0.12329
 H103 H 0.80867 0.28451 0.18660
 H104 H 0.78049 0.27436 0.20083
 N105 N 0.83219 0.73643 0.28094
 N106 N 0.82532 0.71985 0.26589
 C107 C 0.84206 0.71701 0.24919
 C108 C 0.86037 0.73272 0.25411
 C109 C 0.85351 0.74472 0.27433
 H110 H 0.84110 0.70415 0.23492
 H111 H 0.86345 0.75830 0.28368
 Cu112 Cu 0.79570 0.70272 0.27008
 Cu113 Cu 0.81326 0.74573 0.30821
 Cu114 Cu 0.76094 0.71449 0.31686
 N115 N 0.77101 0.68033 0.28058
 N116 N 0.75767 0.68503 0.29909
 C117 C 0.74182 0.66710 0.30235
 C118 C 0.74541 0.65022 0.28500
 C119 C 0.76410 0.65913 0.27138
 H120 H 0.72849 0.66650 0.31619
 H121 H 0.77195 0.65102 0.25591
 N122 N 0.77161 0.74024 0.33791
 N123 N 0.79142 0.75237 0.33460
 C124 C 0.79383 0.76843 0.35225
 C125 C 0.77470 0.76601 0.36739
 C126 C 0.76105 0.74796 0.35788
 H127 H 0.80867 0.78048 0.35431
 H128 H 0.74476 0.74080 0.36516
 H129 H 0.79635 0.71253 0.31238
 H130 H 0.78186 0.73633 0.29403
 N131 N 0.32920 0.22531 -0.22422
 N132 N 0.31983 0.21125 -0.24040
 C133 C 0.33519 0.20729 -0.25819
 C134 C 0.35785 0.22014 -0.25340
 C135 C 0.35139 0.23116 -0.23019
 H136 H 0.33154 0.19632 -0.27357
 H137 H 0.36255 0.24289 -0.21990
 Cu138 Cu 0.28812 0.19865 -0.23678
 Cu139 Cu 0.31126 0.23736 -0.19728
 Cu140 Cu 0.25381 0.21737 -0.19240
 N141 N 0.26019 0.18046 -0.22679
 N142 N 0.24672 0.18824 -0.20957
 C143 C 0.22824 0.17321 -0.20667
 C144 C 0.23029 0.15485 -0.22275
 C145 C 0.25079 0.15993 -0.23535
 H146 H 0.21433 0.17547 -0.19376
 H147 H 0.25815 0.14974 -0.24978
 N148 N 0.26796 0.24018 -0.17021
 N149 N 0.28989 0.24769 -0.17172
 C150 C 0.29414 0.26299 -0.15372
 C151 C 0.27393 0.26486 -0.14026
 C152 C 0.25779 0.25010 -0.15111
 H153 H 0.31070 0.27188 -0.15047
 H154 H 0.23995 0.24678 -0.14542
 H155 H 0.28821 0.20824 -0.19445
 H156 H 0.27989 0.23469 -0.21350
 N157 N 0.64992 0.27139 -0.22661
 N158 N 0.65984 0.28241 -0.24528
 C159 C 0.64516 0.28187 -0.26399
 C160 C 0.62481 0.27001 -0.25648
 C161 C 0.62842 0.26371 -0.23265
 H162 H 0.64883 0.29017 -0.28139
 H163 H 0.61633 0.25425 -0.22060
 Cu164 Cu 0.69016 0.29810 -0.24279
 Cu165 Cu 0.66563 0.26827 -0.19586
 Cu166 Cu 0.72417 0.28496 -0.19593
 N167 N 0.71647 0.31875 -0.23455
 N168 N 0.73000 0.31360 -0.21628
 C169 C 0.74691 0.33070 -0.21495
 C170 C 0.74357 0.34749 -0.23335
 C171 C 0.72417 0.33930 -0.24541
 H172 H 0.76047 0.33083 -0.20159
 H173 H 0.71622 0.34772 -0.26092
 N174 N 0.70991 0.26357 -0.17102
 N175 N 0.68743 0.25810 -0.17055
 C176 C 0.68283 0.24329 -0.15158
 C177 C 0.70335 0.23917 -0.13960
 C178 C 0.72024 0.25237 -0.15234
 H179 H 0.66590 0.23544 -0.14719
 H180 H 0.73864 0.25365 -0.14850
 H181 H 0.69122 0.29536 -0.19900
 H182 H 0.69702 0.26593 -0.21321
 N183 N 0.16940 0.78392 0.26971
 N184 N 0.17353 0.80517 0.25946
 C185 C 0.15776 0.80907 0.24218
 C186 C 0.14285 0.78934 0.24155
 C187 C 0.15067 0.77361 0.25928
 H188 H 0.15703 0.82520 0.23098
 H189 H 0.14323 0.75618 0.26439
 Cu190 Cu 0.19861 0.82636 0.26961
 Cu191 Cu 0.18839 0.77195 0.29623
 Cu192 Cu 0.23827 0.80552 0.30834
 N193 N 0.22852 0.84254 0.27345
 N194 N 0.24438 0.83398 0.28803
 C195 C 0.26311 0.84900 0.28757
 C196 C 0.25851 0.86811 0.27200
 C197 C 0.23647 0.86338 0.26334
 H198 H 0.27838 0.84667 0.29853
 H199 H 0.22678 0.87453 0.25095
 N200 N 0.22893 0.77632 0.32697
 N201 N 0.21006 0.76329 0.32234
 C202 C 0.20786 0.74541 0.33906
 C203 C 0.22614 0.74754 0.35499
 C204 C 0.23907 0.76727 0.34681
 H205 H 0.19348 0.73254 0.34022
 H206 H 0.25435 0.77489 0.35524
 H207 H 0.20205 0.80444 0.30774
 H208 H 0.21756 0.78972 0.28242
 N209 N 0.46905 0.42060 0.47752
 N210 N 0.44954 0.42798 0.48711
 C211 C 0.44250 0.41201 0.50439
 C212 C 0.45849 0.39381 0.50572
 C213 C 0.47511 0.39979 0.48838
 H214 H 0.42694 0.41343 0.51528
 H215 H 0.49031 0.38967 0.48374
 Cu216 Cu 0.43530 0.45777 0.47613
 Cu217 Cu 0.48488 0.43810 0.45133
 Cu218 Cu 0.46035 0.49148 0.43182
 N219 N 0.42225 0.48832 0.46552
 N220 N 0.43209 0.50135 0.44809
 C221 C 0.42002 0.52151 0.44390
 C222 C 0.39979 0.52230 0.46030
 C223 C 0.40319 0.49933 0.47377
 H224 H 0.42466 0.53512 0.43042
 H225 H 0.39205 0.49230 0.48811
 N226 N 0.48891 0.47867 0.41754
 N227 N 0.49826 0.45834 0.42500
 C228 C 0.51741 0.45437 0.41169
 C229 C 0.52027 0.47305 0.39512
 C230 C 0.50192 0.48818 0.39931
 H231 H 0.52851 0.43898 0.41377
 H232 H 0.49824 0.50481 0.38978
 H233 H 0.47310 0.47159 0.46048
 H234 H 0.45581 0.45473 0.43781
 N235 N -0.02287 -0.08365 0.99054
 N236 N -0.04190 -0.07501 1.00000
 C237 C -0.04736 -0.08778 1.02018
 C238 C -0.03089 -0.10526 1.02354
 C239 C -0.01556 -0.10216 1.00437
 H240 H -0.06235 -0.08486 1.03153
 H241 H -0.00037 -0.11263 1.00058
 Cu242 Cu -0.05823 -0.04839 0.98482
 Cu243 Cu -0.00916 -0.07044 0.96093
 Cu244 Cu -0.03800 -0.02358 0.93282
 N245 N -0.07492 -0.02313 0.96778
 N246 N -0.06699 -0.01345 0.94750
 C247 C -0.08182 0.00314 0.93909
 C248 C -0.10206 0.00483 0.95548
 C249 C -0.09539 -0.01341 0.97376
 H250 H -0.07928 0.01352 0.92259
 H251 H -0.10551 -0.01855 0.98955
 N252 N -0.00850 -0.03632 0.92058
 N253 N 0.00209 -0.05464 0.93093
 C254 C 0.02099 -0.05995 0.91775
 C255 C 0.02249 -0.04409 0.89837
 C256 C 0.00353 -0.02934 0.90065
 H257 H 0.03281 -0.07435 0.92182
 H258 H -0.00146 -0.01505 0.88837
 H259 H -0.02231 -0.03621 0.96378
 H260 H -0.04018 -0.05842 0.94668
 N261 N 1.02869 0.57778 0.98243
 N262 N 1.04752 0.56880 0.99211
 C263 C 1.05439 0.58283 1.01027
 C264 C 1.03900 0.60147 1.01211
 C265 C 1.02290 0.59776 0.99413
 H266 H 1.06938 0.57974 1.02147
 H267 H 1.00803 0.60864 0.98988
 Cu268 Cu 1.06122 0.53980 0.97982
 Cu269 Cu 1.01266 0.56259 0.95589
 Cu270 Cu 1.03355 0.50746 0.93815
 N271 N 1.07451 0.51075 0.96716
 N272 N 1.06376 0.49824 0.95064
 C273 C 1.07672 0.47916 0.94510
 C274 C 1.09661 0.47977 0.95890
 C275 C 1.09466 0.50010 0.97267
 H276 H 1.07203 0.46581 0.93204
 H277 H 1.10700 0.50677 0.98560
 N278 N 1.00646 0.52285 0.92319
 N279 N 0.99883 0.54404 0.92965
 C280 C 0.98038 0.54977 0.91605
 C281 C 0.97621 0.53137 0.90032
 C282 C 0.99309 0.51457 0.90526
 H283 H 0.97050 0.56604 0.91755
 H284 H 0.99553 0.49763 0.89650
 H285 H 1.02218 0.52876 0.96623
 H286 H 1.04050 0.54372 0.94214
 N287 N 0.52664 0.07937 0.47257
 N288 N 0.54483 0.07214 0.48477
 C289 C 0.54959 0.08806 0.50202
 C290 C 0.53351 0.10610 0.50070
 C291 C 0.51915 0.10012 0.48177
 H292 H 0.56361 0.08663 0.51479
 H293 H 0.50457 0.11016 0.47501
 Cu294 Cu 0.56029 0.04234 0.47748
 Cu295 Cu 0.51483 0.06171 0.44508
 Cu296 Cu 0.53816 0.00547 0.43619
 N297 N 0.57529 0.01240 0.46971
 N298 N 0.56612 -0.00216 0.45390
 C299 C 0.57946 -0.02165 0.45201
 C300 C 0.59793 -0.01925 0.46748
 C301 C 0.59481 0.00257 0.47851
 H302 H 0.57611 -0.03644 0.44012
 H303 H 0.60584 0.01068 0.49187
 N304 N 0.51020 0.01673 0.41967
 N305 N 0.50169 0.03845 0.42216
 C306 C 0.48392 0.04123 0.40665
 C307 C 0.48131 0.02017 0.39396
 C308 C 0.49811 0.00511 0.40275
 H309 H 0.47404 0.05748 0.40441
 H310 H 0.50182 -0.01268 0.39642
 H311 H 0.52356 0.02931 0.46026
 H312 H 0.54422 0.04204 0.43697
 N313 N -0.02565 0.09063 0.53091
 N314 N -0.04087 0.08315 0.51505
 C315 C -0.04149 0.09929 0.49664
 C316 C -0.02584 0.11790 0.50142
 C317 C -0.01627 0.11188 0.52334
 H318 H -0.05220 0.09737 0.48089
 H319 H -0.00279 0.12176 0.53265
 Cu320 Cu -0.05786 0.05271 0.52000
 Cu321 Cu -0.01770 0.07128 0.55918
 Cu322 Cu -0.03125 0.01088 0.55345
 N323 N -0.07365 0.02248 0.52926
 N324 N -0.06291 0.00600 0.54210
 C325 C -0.07758 -0.01277 0.54659
 C326 C -0.09865 -0.00778 0.53611
 C327 C -0.09562 0.01475 0.52517
 H328 H -0.07337 -0.02864 0.55718
 H329 H -0.10852 0.02503 0.51559
 N330 N -0.00634 0.02260 0.57435
 N331 N -0.00240 0.04573 0.57796
 C332 C 0.01460 0.04861 0.59420
 C333 C 0.02323 0.02481 0.60223
 C334 C 0.00799 0.00915 0.58780
 H335 H 0.02135 0.06591 0.59980
 H336 H 0.00793 -0.01034 0.58811
 H337 H -0.01980 0.04335 0.53661
 H338 H -0.04306 0.04377 0.56016
 N339 N 0.49287 0.57486 0.03364
 N340 N 0.47514 0.56952 0.01979
 C341 C 0.47271 0.58722 0.00314
 C342 C 0.48992 0.60456 0.00674
 C343 C 0.50237 0.59614 0.02623
 H344 H 0.45955 0.58722 -0.01063
 H345 H 0.51754 0.60465 0.03407
 Cu346 Cu 0.45688 0.53992 0.02451
 Cu347 Cu 0.50320 0.55271 0.05882
 Cu348 Cu 0.46802 0.50252 0.07105
 N349 N 0.43389 0.51630 0.03638
 N350 N 0.43823 0.50208 0.05491
 C351 C 0.41957 0.48765 0.05947
 C352 C 0.40265 0.49306 0.04288
 C353 C 0.41225 0.51137 0.02844
 H354 H 0.41847 0.47403 0.07365
 H355 H 0.40417 0.52050 0.01341
 N356 N 0.49553 0.51079 0.09017
 N357 N 0.50872 0.53024 0.08609
 C358 C 0.52554 0.53108 0.10283
 C359 C 0.52271 0.51112 0.11805
 C360 C 0.50359 0.49874 0.10949
 H361 H 0.53883 0.54508 0.10380
 H362 H 0.49596 0.48224 0.11701
 H363 H 0.48920 0.52120 0.04643
 H364 H 0.47000 0.53931 0.06583
 N365 N 0.52185 -0.08141 0.00809
 N366 N 0.54003 -0.07201 -0.00346
 C367 C 0.54605 -0.08658 -0.02137
 C368 C 0.53074 -0.10607 -0.02122
 C369 C 0.51556 -0.10227 -0.00225
 H370 H 0.56055 -0.08330 -0.03360
 H371 H 0.50116 -0.11381 0.00369
 Cu372 Cu 0.55440 -0.04179 0.00600
 Cu373 Cu 0.50770 -0.06551 0.03543
 Cu374 Cu 0.53488 -0.01257 0.05376
 N375 N 0.57360 -0.01768 0.02163
 N376 N 0.56606 -0.00651 0.04065
 C377 C 0.58253 0.00940 0.04764
 C378 C 0.60135 0.00816 0.03212
 C379 C 0.59512 -0.00929 0.01584
 H380 H 0.58083 0.02126 0.06268
 H381 H 0.60536 -0.01546 0.00090
 N382 N 0.50637 -0.02613 0.06921
 N383 N 0.49614 -0.04640 0.06250
 C384 C 0.47711 -0.05063 0.07641
 C385 C 0.47531 -0.03222 0.09258
 C386 C 0.49419 -0.01700 0.08753
 H387 H 0.46519 -0.06584 0.07478
 H388 H 0.49875 -0.00048 0.09642
 H389 H 0.51807 -0.03099 0.02636
 H390 H 0.53815 -0.04819 0.04609
 N391 N 1.01518 0.42212 0.52386
 N392 N 1.03390 0.42757 0.51093
 C393 C 1.03532 0.41193 0.49274
 C394 C 1.01650 0.39590 0.49466
 C395 C 1.00421 0.40293 0.51454
 H396 H 1.04909 0.41205 0.47939
 H397 H 0.98844 0.39451 0.52177
 Cu398 Cu 1.05498 0.45418 0.51949
 Cu399 Cu 1.00609 0.43975 0.55199
 Cu400 Cu 1.04577 0.48147 0.57228
 N401 N 1.07796 0.47656 0.53309
 N402 N 1.07446 0.48594 0.55426
 C403 C 1.09249 0.50055 0.55960
 C404 C 1.10810 0.50075 0.54078
 C405 C 1.09848 0.48528 0.52410
 H406 H 1.09381 0.51111 0.57564
 H407 H 1.10568 0.48090 0.50677
 N408 N 1.01576 0.47501 0.58824
 N409 N 1.00023 0.45938 0.58025
 C410 C 0.98109 0.45974 0.59441
 C411 C 0.98492 0.47650 0.61206
 C412 C 1.00698 0.48579 0.60761
 H413 H 0.96554 0.44882 0.59192
 H414 H 1.01580 0.49966 0.61765
 H415 H 1.02442 0.47117 0.54413
 H416 H 1.04042 0.44642 0.56007
 C417 C 0.37228 0.01294 0.24224
 C418 C 0.13351 -0.00560 0.75021
 C419 C 0.64488 0.49677 0.25980
 C420 C 0.86590 0.49226 0.75504
 C421 C 0.25621 0.39400 -0.00752
 C422 C 0.75244 0.11336 -0.00567
 C423 C 0.24616 0.62229 0.49678
 C424 C 0.75202 0.88765 0.50598
 C425 C -0.00130 0.25573 0.36912
 C426 C 0.00183 0.74019 0.13184
 C427 C 0.49260 0.24392 0.61833
 C428 C 0.49758 0.74181 0.87144
 C429 C 0.12113 0.22184 0.27343
 C430 C 0.10373 0.23893 0.27063
 C431 C 0.08500 0.24367 0.28826
 C432 C 0.07224 0.26477 0.28497
 C433 C 0.05443 0.27043 0.30088
 C434 C 0.04865 0.25500 0.32037
 C435 C 0.06131 0.23375 0.32378
 C436 C 0.07932 0.22811 0.30784
 C437 C 0.02994 0.26233 0.33695
 C438 C 0.01794 0.24670 0.35293
 H439 H 0.10421 0.25046 0.25473
 H440 H 0.07619 0.27711 0.27008
 H441 H 0.04506 0.28695 0.29790
 H442 H 0.05770 0.22164 0.33889
 H443 H 0.08855 0.21158 0.31091
 H444 H 0.02476 0.28100 0.33611
 H445 H 0.12143 0.21005 0.28913
 H446 H 0.02144 0.22762 0.35288
 C447 C 0.62641 0.74277 0.77407
 C448 C 0.61904 0.73185 0.79572
 C449 C 0.59760 0.73831 0.80898
 C450 C 0.59045 0.72372 0.82870
 C451 C 0.57011 0.72859 0.84147
 C452 C 0.55628 0.74817 0.83464
 C453 C 0.56378 0.76323 0.81544
 C454 C 0.58418 0.75843 0.80272
 C455 C 0.53411 0.75354 0.84702
 C456 C 0.52156 0.73668 0.86126
 H457 H 0.62921 0.71733 0.80316
 H458 H 0.60060 0.70835 0.83422
 H459 H 0.56552 0.71704 0.85672
 H460 H 0.55366 0.77866 0.81004
 H461 H 0.58916 0.77065 0.78815
 H462 H 0.52657 0.77103 0.84374
 H463 H 0.61668 0.75716 0.76589
 H464 H 0.52775 0.71846 0.86296
 C465 C 0.36859 0.76565 0.78090
 C466 C 0.38724 0.75012 0.77902
 C467 C 0.40500 0.74833 0.79817
 C468 C 0.42771 0.74147 0.79242
 C469 C 0.44478 0.74011 0.81022
 C470 C 0.43937 0.74548 0.83423
 C471 C 0.41648 0.75160 0.84001
 C472 C 0.39949 0.75295 0.82228
 C473 C 0.45659 0.74421 0.85394
 C474 C 0.48069 0.74319 0.85052
 H475 H 0.38918 0.73956 0.76303
 H476 H 0.43229 0.73738 0.77407
 H477 H 0.46198 0.73454 0.80504
 H478 H 0.41168 0.75536 0.85838
 H479 H 0.38197 0.75728 0.82768
 H480 H 0.45002 0.74450 0.87223
 H481 H 0.36774 0.77753 0.79601
 H482 H 0.48772 0.74460 0.83245
 C483 C -0.12334 0.25971 0.26441
 C484 C -0.11333 0.27524 0.28104
 C485 C -0.09287 0.26856 0.29569
 C486 C -0.07825 0.28681 0.30458
 C487 C -0.05873 0.28109 0.31832
 C488 C -0.05361 0.25688 0.32371
 C489 C -0.06835 0.23867 0.31495
 C490 C -0.08784 0.24439 0.30127
 C491 C -0.03319 0.24967 0.33813
 C492 C -0.02091 0.26497 0.35340
 H493 H -0.11991 0.29326 0.28268
 H494 H -0.08177 0.30557 0.30059
 H495 H -0.04761 0.29568 0.32427
 H496 H -0.06493 0.21989 0.31894
 H497 H -0.09906 0.22978 0.29550
 H498 H -0.02830 0.23093 0.33784
 H499 H -0.11560 0.24240 0.26151
 H500 H -0.02582 0.28359 0.35469
 C501 C -0.11707 0.73592 0.24160
 C502 C -0.11159 0.72369 0.22075
 C503 C -0.08884 0.72648 0.20819
 C504 C -0.08741 0.72083 0.18380
 C505 C -0.06625 0.72313 0.17133
 C506 C -0.04600 0.73107 0.18309
 C507 C -0.04729 0.73605 0.20764
 C508 C -0.06847 0.73386 0.22010
 C509 C -0.02322 0.73356 0.17060
 C510 C -0.02109 0.73828 0.14586
 H511 H -0.12478 0.71233 0.21268
 H512 H -0.10275 0.71468 0.17433
 H513 H -0.06579 0.71818 0.15266
 H514 H -0.03185 0.74176 0.21721
 H515 H -0.06865 0.73752 0.23909
 H516 H -0.00779 0.73235 0.18154
 H517 H -0.10474 0.74870 0.24895
 H518 H -0.03680 0.74007 0.13540
 C519 C 0.38154 0.22235 0.73196
 C520 C 0.38361 0.21413 0.70869
 C521 C 0.40558 0.21712 0.69494
 C522 C 0.40488 0.21838 0.66977
 C523 C 0.42539 0.22169 0.65633
 C524 C 0.44701 0.22330 0.66787
 C525 C 0.44780 0.22136 0.69300
 C526 C 0.42724 0.21863 0.70648
 C527 C 0.46889 0.22633 0.65401
 C528 C 0.47073 0.24175 0.63387
 H529 H 0.36834 0.20699 0.69973
 H530 H 0.38840 0.21710 0.66051
 H531 H 0.42437 0.22259 0.63692
 H532 H 0.46433 0.22234 0.70220
 H533 H 0.42830 0.21742 0.72588
 H534 H 0.48417 0.21726 0.66055
 H535 H 0.36895 0.22077 0.73904
 H536 H 0.45539 0.25131 0.62821
 C537 C 0.60443 0.26570 0.73066
 C538 C 0.60247 0.27113 0.70615
 C539 C 0.58053 0.26748 0.69289
 C540 C 0.58150 0.26199 0.66844
 C541 C 0.56104 0.25896 0.65530
 C542 C 0.53921 0.26180 0.66635
 C543 C 0.53825 0.26784 0.69066
 C544 C 0.55870 0.27045 0.70390
 C545 C 0.51735 0.25984 0.65267
 C546 C 0.51442 0.24408 0.63365
 H547 H 0.61771 0.27713 0.69595
 H548 H 0.59815 0.26002 0.65950
 H549 H 0.56238 0.25505 0.63639
 H550 H 0.52163 0.27049 0.69942
 H551 H 0.55739 0.27540 0.72255
 H552 H 0.50280 0.27058 0.65818
 H553 H 0.58977 0.25733 0.74018
 H554 H 0.52857 0.23241 0.62901
 C555 C 0.12273 0.78706 0.22552
 C556 C 0.10788 0.76687 0.22540
 C557 C 0.08736 0.76532 0.20948
 C558 C 0.07864 0.74261 0.20301
 C559 C 0.05952 0.74059 0.18770
 C560 C 0.04867 0.76136 0.17863
 C561 C 0.05692 0.78403 0.18578
 C562 C 0.07603 0.78604 0.20101
 C563 C 0.02849 0.76028 0.16225
 C564 C 0.02286 0.74042 0.14826
 H565 H 0.11192 0.75131 0.23655
 H566 H 0.08677 0.72637 0.20966
 H567 H 0.05319 0.72274 0.18339
 H568 H 0.04862 0.80029 0.17943
 H569 H 0.08159 0.80385 0.20635
 H570 H 0.01798 0.77619 0.16043
 H571 H 0.11985 0.80195 0.21311
 H572 H 0.03332 0.72447 0.14947
 C573 C 0.28208 0.14327 0.21221
 C574 C 0.28159 0.12327 0.22779
 C575 C 0.30089 0.10596 0.22901
 C576 C 0.29615 0.08222 0.23700
 C577 C 0.31392 0.06542 0.23832
 C578 C 0.33693 0.07208 0.23173
 C579 C 0.34176 0.09596 0.22428
 C580 C 0.32397 0.11275 0.22289
 C581 C 0.35640 0.05511 0.23407
 C582 C 0.35312 0.03011 0.23509
 H583 H 0.26604 0.11937 0.23841
 H584 H 0.27861 0.07664 0.24221
 H585 H 0.30960 0.04746 0.24510
 H586 H 0.35940 0.10170 0.21965
 H587 H 0.32852 0.13109 0.21750
 H588 H 0.37389 0.06251 0.23592
 H589 H 0.29670 0.14620 0.20006
 H590 H 0.33627 0.02257 0.23039
 C591 C 0.76455 0.61874 0.74693
 C592 C 0.78315 0.60918 0.73425
 C593 C 0.79519 0.58665 0.74120
 C594 C 0.81459 0.58003 0.72754
 C595 C 0.82648 0.55894 0.73305
 C596 C 0.81936 0.54398 0.75260
 C597 C 0.79981 0.55039 0.76609
 C598 C 0.78786 0.57147 0.76054
 C599 C 0.83115 0.52116 0.75871
 C600 C 0.85380 0.51619 0.75111
 H601 H 0.78944 0.61879 0.71829
 H602 H 0.82050 0.59115 0.71237
 H603 H 0.84089 0.55429 0.72157
 H604 H 0.79374 0.53902 0.78100
 H605 H 0.77286 0.57544 0.77144
 H606 H 0.82174 0.50812 0.77002
 H607 H 0.75789 0.60994 0.76311
 H608 H 0.86395 0.53054 0.74242
 C609 C 0.75721 0.36950 0.76041
 C610 C 0.77565 0.37791 0.77430
 C611 C 0.78933 0.40013 0.76809
 C612 C 0.80164 0.41189 0.78625
 C613 C 0.81492 0.43278 0.78103
 C614 C 0.81640 0.44215 0.75736
 C615 C 0.80400 0.43048 0.73925
 C616 C 0.79076 0.40960 0.74445
 C617 C 0.83069 0.46383 0.75074
 C618 C 0.84962 0.47203 0.76417
 H619 H 0.77962 0.36846 0.79093
 H620 H 0.80081 0.40499 0.80460
 H621 H 0.82370 0.44158 0.79564
 H622 H 0.80490 0.43728 0.72087
 H623 H 0.78213 0.40075 0.72978
 H624 H 0.82736 0.47276 0.73364
 H625 H 0.75187 0.37966 0.74468
 H626 H 0.85408 0.46245 0.78058
 C627 C 0.27187 -0.11112 0.26700
 C628 C 0.29439 -0.10746 0.27561
 C629 C 0.30690 -0.08413 0.27209
 C630 C 0.33107 -0.08357 0.26821
 C631 C 0.34308 -0.06155 0.26478
 C632 C 0.33110 -0.03976 0.26572
 C633 C 0.30709 -0.04035 0.27040
 C634 C 0.29503 -0.06231 0.27334
 C635 C 0.34309 -0.01616 0.26247
 C636 C 0.36174 -0.01214 0.24653
 H637 H 0.30344 -0.12211 0.28435
 H638 H 0.34058 -0.10018 0.26757
 H639 H 0.36173 -0.06158 0.26183
 H640 H 0.29758 -0.02375 0.27151
 H641 H 0.27650 -0.06219 0.27701
 H642 H 0.33569 -0.00083 0.27127
 H643 H 0.26420 -0.09717 0.25587
 H644 H 0.36870 -0.02719 0.23693
 C645 C 0.22223 -0.13955 0.74216
 C646 C 0.20610 -0.12786 0.72765
 C647 C 0.19428 -0.10585 0.73538
 C648 C 0.17222 -0.10066 0.72627
 C649 C 0.16068 -0.07998 0.73325
 C650 C 0.17124 -0.06383 0.74923
 C651 C 0.19332 -0.06903 0.75828
 C652 C 0.20482 -0.08969 0.75133
 C653 C 0.15996 -0.04147 0.75681
 C654 C 0.14301 -0.02985 0.74328
 H655 H 0.20125 -0.13544 0.71060
 H656 H 0.16376 -0.11281 0.71395
 H657 H 0.14342 -0.07698 0.72633
 H658 H 0.20190 -0.05682 0.77047
 H659 H 0.22214 -0.09265 0.75814
 H660 H 0.16640 -0.03275 0.77274
 H661 H 0.22539 -0.13306 0.76005
 H662 H 0.13719 -0.03774 0.72672
 C663 C 0.73070 0.36928 0.21076
 C664 C 0.72952 0.38392 0.23074
 C665 C 0.71263 0.40366 0.23256
 C666 C 0.70625 0.41174 0.25532
 C667 C 0.69015 0.43013 0.25767
 C668 C 0.68035 0.44109 0.23716
 C669 C 0.68686 0.43307 0.21442
 C670 C 0.70294 0.41474 0.21208
 C671 C 0.66331 0.46071 0.23853
 C672 C 0.66069 0.47518 0.25859
 H673 H 0.74066 0.38024 0.24593
 H674 H 0.71350 0.40356 0.27137
 H675 H 0.68525 0.43530 0.27558
 H676 H 0.67968 0.44124 0.19833
 H677 H 0.70793 0.40969 0.19416
 H678 H 0.65346 0.46466 0.22249
 H679 H 0.71859 0.37171 0.19618
 H680 H 0.67132 0.47188 0.27423
 C681 C 0.73126 0.62817 0.28202
 C682 C 0.73512 0.61197 0.26371
 C683 C 0.72020 0.59024 0.26044
 C684 C 0.72916 0.57069 0.24807
 C685 C 0.71554 0.54985 0.24489
 C686 C 0.69273 0.54817 0.25405
 C687 C 0.68349 0.56804 0.26575
 C688 C 0.69705 0.58885 0.26888
 C689 C 0.67875 0.52595 0.25029
 C690 C 0.65999 0.51872 0.26511
 H691 H 0.75001 0.61478 0.25187
 H692 H 0.74681 0.57145 0.24106
 H693 H 0.72291 0.53492 0.23543
 H694 H 0.66562 0.56786 0.27202
 H695 H 0.68910 0.60394 0.27746
 H696 H 0.68366 0.51452 0.23564
 H697 H 0.71745 0.62469 0.29502
 H698 H 0.65601 0.52920 0.28074
 C699 C 0.21331 0.13494 0.77458
 C700 C 0.21698 0.11538 0.75985
 C701 C 0.19953 0.09554 0.75789
 C702 C 0.20692 0.07225 0.75291
 C703 C 0.19081 0.05304 0.75183
 C704 C 0.16688 0.05689 0.75544
 C705 C 0.15953 0.08036 0.75974
 C706 C 0.17560 0.09949 0.76088
 C707 C 0.14890 0.03732 0.75507
 C708 C 0.15317 0.01313 0.75050
 H709 H 0.23358 0.11379 0.75074
 H710 H 0.22525 0.06882 0.75032
 H711 H 0.19741 0.03538 0.74836
 H712 H 0.14122 0.08397 0.76229
 H713 H 0.16916 0.11735 0.76388
 H714 H 0.13102 0.04219 0.75856
 H715 H 0.19764 0.13548 0.78544
 H716 H 0.17065 0.00748 0.74662
 C717 C 0.20944 0.29333 0.11626
 C718 C 0.22859 0.29600 0.10081
 C719 C 0.22980 0.31382 0.08066
 C720 C 0.25172 0.32101 0.07147
 C721 C 0.25366 0.33753 0.05223
 C722 C 0.23359 0.34717 0.04173
 C723 C 0.21166 0.33959 0.05057
 C724 C 0.20972 0.32313 0.06987
 C725 C 0.23486 0.36409 0.02086
 C726 C 0.25428 0.37891 0.01556
 H727 H 0.24381 0.28530 0.10414
 H728 H 0.26743 0.31378 0.07918
 H729 H 0.27085 0.34218 0.04534
 H730 H 0.19594 0.34641 0.04248
 H731 H 0.19249 0.31741 0.07586
 H732 H 0.21988 0.36496 0.00921
 H733 H 0.19476 0.30507 0.11436
 H734 H 0.26906 0.37858 0.02749
 C735 C 0.74810 0.77536 0.62888
 C736 C 0.73750 0.79700 0.62249
 C737 C 0.74479 0.81311 0.60207
 C738 C 0.72993 0.83179 0.59530
 C739 C 0.73575 0.84753 0.57619
 C740 C 0.75663 0.84490 0.56330
 C741 C 0.77185 0.82667 0.57042
 C742 C 0.76600 0.81084 0.58956
 C743 C 0.76304 0.86106 0.54268
 C744 C 0.74633 0.87214 0.52827
 H745 H 0.72245 0.80235 0.63269
 H746 H 0.71366 0.83423 0.60482
 H747 H 0.72396 0.86190 0.57184
 H748 H 0.78820 0.82452 0.56097
 H749 H 0.77826 0.79714 0.59450
 H750 H 0.78127 0.86300 0.53776
 H751 H 0.76281 0.76905 0.61880
 H752 H 0.72819 0.86769 0.53180
 C753 C 0.76999 0.77866 0.38972
 C754 C 0.78109 0.80040 0.39506
 C755 C 0.77635 0.81305 0.41753
 C756 C 0.77704 0.83830 0.41740
 C757 C 0.77263 0.85070 0.43846
 C758 C 0.76786 0.83796 0.46010
 C759 C 0.76782 0.81271 0.46036
 C760 C 0.77180 0.80032 0.43921
 C761 C 0.76414 0.85058 0.48277
 C762 C 0.75258 0.87241 0.48372
 H763 H 0.79239 0.80918 0.38174
 H764 H 0.78084 0.84844 0.40093
 H765 H 0.77351 0.87020 0.43789
 H766 H 0.76458 0.80259 0.47695
 H767 H 0.77180 0.78081 0.43996
 H768 H 0.77028 0.84209 0.49913
 H769 H 0.75668 0.77115 0.40174
 H770 H 0.74596 0.88014 0.46713
 C771 C 0.26985 0.27879 -0.11859
 C772 C 0.28440 0.29783 -0.11195
 C773 C 0.27951 0.31211 -0.09051
 C774 C 0.28541 0.33675 -0.09070
 C775 C 0.28047 0.35072 -0.07078
 C776 C 0.26987 0.34011 -0.05018
 C777 C 0.26469 0.31532 -0.04973
 C778 C 0.26929 0.30145 -0.06975
 C779 C 0.26511 0.35409 -0.02853
 C780 C 0.25941 0.37848 -0.02950
 H781 H 0.29866 0.30358 -0.12370
 H782 H 0.29362 0.34524 -0.10638
 H783 H 0.28541 0.36965 -0.07136
 H784 H 0.25690 0.30671 -0.03387
 H785 H 0.26519 0.28233 -0.06880
 H786 H 0.26567 0.34446 -0.01145
 H787 H 0.25411 0.27471 -0.10833
 H788 H 0.25820 0.38745 -0.04691
 C789 C 0.70580 0.22327 -0.11830
 C790 C 0.72733 0.21710 -0.10875
 C791 C 0.72962 0.20005 -0.08806
 C792 C 0.75032 0.18733 -0.08529
 C793 C 0.75278 0.17057 -0.06637
 C794 C 0.73453 0.16632 -0.04969
 C795 C 0.71415 0.17966 -0.05206
 C796 C 0.71169 0.19635 -0.07096
 C797 C 0.73586 0.14856 -0.02947
 C798 C 0.75300 0.13114 -0.02685
 H799 H 0.74309 0.22372 -0.11765
 H800 H 0.76453 0.19014 -0.09801
 H801 H 0.76904 0.16124 -0.06495
 H802 H 0.69997 0.17709 -0.03926
 H803 H 0.69582 0.20646 -0.07187
 H804 H 0.72205 0.14858 -0.01608
 H805 H 0.68997 0.21526 -0.11077
 H806 H 0.76693 0.13024 -0.03993
 C807 C 0.23034 0.73383 0.37741
 C808 C 0.21922 0.71187 0.38302
 C809 C 0.22334 0.69873 0.40595
 C810 C 0.22259 0.67346 0.40653
 C811 C 0.22649 0.66065 0.42799
 C812 C 0.23083 0.67295 0.44937
 C813 C 0.23087 0.69821 0.44893
 C814 C 0.22737 0.71102 0.42740
 C815 C 0.23431 0.65988 0.47245
 C816 C 0.24546 0.63776 0.47391
 H817 H 0.20828 0.70339 0.36975
 H818 H 0.21918 0.66363 0.39030
 H819 H 0.22557 0.64116 0.42789
 H820 H 0.23378 0.70805 0.46526
 H821 H 0.22738 0.73051 0.42766
 H822 H 0.22847 0.66824 0.48876
 H823 H 0.24320 0.74107 0.38957
 H824 H 0.25157 0.62989 0.45744
 C825 C 0.27163 0.72423 0.61744
 C826 C 0.28624 0.70663 0.60867
 C827 C 0.28104 0.69301 0.58665
 C828 C 0.29952 0.68399 0.57318
 C829 C 0.29524 0.67094 0.55241
 C830 C 0.27236 0.66609 0.54497
 C831 C 0.25378 0.67503 0.55847
 C832 C 0.25807 0.68834 0.57911
 C833 C 0.26864 0.65211 0.52291
 C834 C 0.24887 0.63760 0.51901
 H835 H 0.30266 0.70352 0.61753
 H836 H 0.31736 0.68725 0.57862
 H837 H 0.30987 0.66435 0.54226
 H838 H 0.23593 0.67209 0.55300
 H839 H 0.24336 0.69460 0.58929
 H840 H 0.28266 0.65217 0.50984
 H841 H 0.25618 0.72894 0.60753
 H842 H 0.23514 0.63688 0.53245
 C843 C 0.77557 0.21693 0.11278
 C844 C 0.78743 0.19576 0.10866
 C845 C 0.78340 0.18134 0.08705
 C846 C 0.80206 0.16914 0.07692
 C847 C 0.79894 0.15593 0.05609
 C848 C 0.77696 0.15410 0.04542
 C849 C 0.75813 0.16599 0.05576
 C850 C 0.76133 0.17953 0.07639
 C851 C 0.77445 0.14029 0.02322
 C852 C 0.75404 0.12772 0.01720
 H853 H 0.80149 0.19072 0.12047
 H854 H 0.81919 0.17024 0.08488
 H855 H 0.81371 0.14696 0.04837
 H856 H 0.74106 0.16530 0.04769
 H857 H 0.74650 0.18840 0.08406
 H858 H 0.78971 0.13863 0.01187
 H859 H 0.76316 0.22340 0.09974
 H860 H 0.73886 0.12869 0.02876
 C861 C 0.45733 0.37255 0.52201
 C862 C 0.47592 0.35694 0.52456
 C863 C 0.47527 0.33543 0.54074
 C864 C 0.49634 0.32639 0.54931
 C865 C 0.49652 0.30591 0.56434
 C866 C 0.47556 0.29394 0.57097
 C867 C 0.45453 0.30261 0.56194
 C868 C 0.45432 0.32324 0.54707
 C869 C 0.47523 0.27188 0.58637
 C870 C 0.49226 0.26724 0.60357
 H871 H 0.49212 0.36126 0.51523
 H872 H 0.51273 0.33522 0.54436
 H873 H 0.51313 0.29924 0.57026
 H874 H 0.43820 0.29343 0.56647
 H875 H 0.43782 0.32923 0.54018
 H876 H 0.46088 0.25910 0.58454
 H877 H 0.44172 0.36973 0.53280
 H878 H 0.50567 0.28083 0.60657
 C879 C -0.03077 0.87656 0.04321
 C880 C -0.01341 0.85944 0.04545
 C881 C -0.01327 0.84030 0.06447
 C882 C 0.00745 0.82799 0.06869
 C883 C 0.00823 0.80926 0.08585
 C884 C -0.01188 0.80225 0.09901
 C885 C -0.03250 0.81481 0.09510
 C886 C -0.03330 0.83349 0.07790
 C887 C -0.01215 0.78198 0.11675
 C888 C 0.00298 0.76257 0.11544
 H889 H 0.00110 0.86027 0.03292
 H890 H 0.02315 0.83291 0.05869
 H891 H 0.02465 0.80057 0.08885
 H892 H -0.04822 0.80976 0.10500
 H893 H -0.04979 0.84202 0.07491
 H894 H -0.02575 0.78174 0.13031
 H895 H -0.04475 0.87707 0.05626
 H896 H 0.01635 0.76307 0.10164
 C897 C 0.04000 0.62076 0.02981
 C898 C 0.02239 0.63751 0.03196
 C899 C 0.02267 0.65676 0.04990
 C900 C 0.00149 0.66688 0.05662
 C901 C 0.00092 0.68516 0.07343
 C902 C 0.02162 0.69375 0.08385
 C903 C 0.04288 0.68410 0.07667
 C904 C 0.04344 0.66574 0.05989
 C905 C 0.02170 0.71344 0.10130
 C906 C 0.00254 0.71836 0.11592
 H907 H 0.00708 0.63575 0.02087
 H908 H -0.01471 0.66060 0.04885
 H909 H -0.01571 0.69283 0.07774
 H910 H 0.05910 0.69077 0.08408
 H911 H 0.06019 0.65902 0.05451
 H912 H 0.03749 0.72426 0.10302
 H913 H 0.05462 0.62104 0.04194
 H914 H -0.01270 0.70657 0.11525
 C915 C 0.53282 0.12706 0.51637
 C916 C 0.51379 0.14217 0.51754
 C917 C 0.51301 0.16252 0.53423
 C918 C 0.49148 0.16952 0.54352
 C919 C 0.49030 0.18829 0.55980
 C920 C 0.51068 0.20061 0.56686
 C921 C 0.53210 0.19418 0.55688
 C922 C 0.53332 0.17525 0.54083
 C923 C 0.51015 0.22070 0.58383
 C924 C 0.49300 0.22274 0.60157
 H925 H 0.49835 0.13791 0.50730
 H926 H 0.47557 0.16024 0.53838
 H927 H 0.47339 0.19334 0.56647
 H928 H 0.54798 0.20372 0.56170
 H929 H 0.55012 0.17085 0.53338
 H930 H 0.52423 0.23400 0.58297
 H931 H 0.54737 0.12979 0.52832
 H932 H 0.47983 0.20859 0.60375
 C933 C -0.01894 0.13901 0.48635
 C934 C -0.02749 0.14305 0.46326
 C935 C -0.01934 0.16342 0.44746
 C936 C -0.03339 0.17085 0.42830
 C937 C -0.02621 0.18987 0.41290
 C938 C -0.00469 0.20186 0.41636
 C939 C 0.00960 0.19402 0.43515
 C940 C 0.00243 0.17502 0.45053
 C941 C 0.00383 0.22190 0.40036
 C942 C -0.01063 0.23542 0.38545
 H943 H -0.04102 0.13116 0.45660
 H944 H -0.05001 0.16191 0.42523
 H945 H -0.03739 0.19470 0.39811
 H946 H 0.02645 0.20261 0.43793
 H947 H 0.01424 0.16924 0.46443
 H948 H 0.02222 0.22664 0.40064
 H949 H -0.00648 0.15154 0.49388
 H950 H -0.02929 0.23246 0.38661
 C951 C 0.49514 0.62678 0.99257
 C952 C 0.48198 0.63365 0.97266
 C953 C 0.48740 0.65514 0.95716
 C954 C 0.47018 0.66365 0.94157
 C955 C 0.47469 0.68339 0.92608
 C956 C 0.49675 0.69489 0.92565
 C957 C 0.51389 0.68656 0.94142
 C958 C 0.50939 0.66683 0.95690
 C959 C 0.50249 0.71567 0.90939
 C960 C 0.49028 0.72108 0.88837
 H961 H 0.46668 0.62298 0.96829
 H962 H 0.45308 0.65503 0.94142
 H963 H 0.46076 0.68966 0.91476
 H964 H 0.53101 0.69514 0.94149
 H965 H 0.52337 0.66061 0.96816
 H966 H 0.51784 0.72642 0.91342
 H967 H 0.50972 0.63781 0.99821
 H968 H 0.47635 0.70901 0.88294
 C969 C 0.53141 0.87368 0.96211
 C970 C 0.51393 0.85587 0.96134
 C971 C 0.51463 0.83536 0.94472
 C972 C 0.49372 0.82356 0.93862
 C973 C 0.49373 0.80388 0.92333
 C974 C 0.51479 0.79549 0.91390
 C975 C 0.53572 0.80702 0.92036
 C976 C 0.53570 0.82675 0.93553
 C977 C 0.51582 0.77409 0.89848
 C978 C 0.49706 0.76535 0.88504
 H979 H 0.49863 0.85750 0.97261
 H980 H 0.47729 0.82958 0.94576
 H981 H 0.47729 0.79502 0.91952
 H982 H 0.55222 0.80064 0.91372
 H983 H 0.55225 0.83479 0.94043
 H984 H 0.53228 0.76500 0.89748
 H985 H 0.54586 0.87344 0.94956
 H986 H 0.48080 0.77482 0.88553
 C987 C 0.00993 0.37531 0.47974
 C988 C 0.02198 0.36898 0.45903
 C989 C 0.01469 0.34837 0.44402
 C990 C 0.03079 0.33874 0.42796
 C991 C 0.02454 0.31933 0.41353
 C992 C 0.00188 0.30910 0.41486
 C993 C -0.01427 0.31901 0.43065
 C994 C -0.00806 0.33842 0.44496
 C995 C -0.00606 0.28880 0.39980
 C996 C 0.00829 0.27582 0.38461
 H997 H 0.03769 0.37903 0.45399
 H998 H 0.04833 0.34624 0.42660
 H999 H 0.03750 0.31275 0.40131
 H1000 H -0.03192 0.31179 0.43183
 H1001 H -0.02138 0.34572 0.45631
 H1002 H -0.02439 0.28376 0.40054
 H1003 H -0.00503 0.36468 0.48582
 H1004 H 0.02688 0.27924 0.38453
 C1005 C 0.37946 0.54313 0.46236
 C1006 C 0.36211 0.54162 0.47983
 C1007 C 0.34359 0.55964 0.48137
 C1008 C 0.32680 0.55719 0.49973
 C1009 C 0.30876 0.57359 0.50140
 C1010 C 0.30701 0.59268 0.48451
 C1011 C 0.32413 0.59547 0.46649
 C1012 C 0.34220 0.57909 0.46484
 C1013 C 0.28786 0.61011 0.48528
 C1014 C 0.26607 0.60459 0.49564
 H1015 H 0.36198 0.52661 0.49265
 H1016 H 0.32764 0.54253 0.51284
 H1017 H 0.29648 0.57134 0.51613
 H1018 H 0.32332 0.61017 0.45342
 H1019 H 0.35493 0.58159 0.45052
 H1020 H 0.29065 0.62741 0.47623
 H1021 H 0.38966 0.53211 0.46174
 H1022 H 0.26332 0.58692 0.50387
 C1023 C 0.87455 0.02204 -0.04627
 C1024 C 0.85828 0.02184 -0.02773
 C1025 C 0.83748 0.03706 -0.02822
 C1026 C 0.82375 0.03845 -0.00737
 C1027 C 0.80437 0.05322 -0.00692
 C1028 C 0.79829 0.06685 -0.02742
 C1029 C 0.81151 0.06483 -0.04854
 C1030 C 0.83106 0.05022 -0.04891
 C1031 C 0.77838 0.08330 -0.02713
 C1032 C 0.77267 0.09620 -0.00674
 H1033 H 0.86124 0.01060 -0.01193
 H1034 H 0.82815 0.02825 0.00872
 H1035 H 0.79409 0.05380 0.00943
 H1036 H 0.80702 0.07501 -0.06461
 H1037 H 0.84115 0.04932 -0.06535
 H1038 H 0.76912 0.08666 -0.04370
 H1039 H 0.88660 0.01321 -0.04542
 H1040 H 0.78257 0.09313 0.00949
 C1041 C 0.62296 0.02291 0.03296
 C1042 C 0.63930 0.02350 0.01426
 C1043 C 0.66077 0.03875 0.01429
 C1044 C 0.67115 0.04569 -0.00776
 C1045 C 0.69147 0.05999 -0.00852
 C1046 C 0.70197 0.06750 0.01287
 C1047 C 0.69195 0.06003 0.03493
 C1048 C 0.67150 0.04589 0.03569
 C1049 C 0.72364 0.08242 0.01281
 C1050 C 0.72997 0.09847 -0.00594
 H1051 H 0.63562 0.01345 -0.00176
 H1052 H 0.66343 0.04010 -0.02449
 H1053 H 0.69912 0.06469 -0.02585
 H1054 H 0.69992 0.06526 0.05165
 H1055 H 0.66444 0.04026 0.05303
 H1056 H 0.73452 0.08166 0.02862
 H1057 H 0.62536 0.03440 0.04823
 H1058 H 0.71876 0.10007 -0.02141
 C1059 C 0.12944 0.51584 0.53979
 C1060 C 0.14252 0.52057 0.51898
 C1061 C 0.16232 0.53823 0.51846
 C1062 C 0.16865 0.54988 0.49669
 C1063 C 0.18667 0.56727 0.49583
 C1064 C 0.19874 0.57340 0.51684
 C1065 C 0.19281 0.56125 0.53844
 C1066 C 0.17493 0.54381 0.53928
 C1067 C 0.21844 0.59112 0.51684
 C1068 C 0.22341 0.60773 0.49813
 H1069 H 0.13691 0.51277 0.50228
 H1070 H 0.15949 0.54567 0.48033
 H1071 H 0.19124 0.57544 0.47860
 H1072 H 0.20212 0.56520 0.55479
 H1073 H 0.17131 0.53459 0.55624
 H1074 H 0.23005 0.59071 0.53209
 H1075 H 0.13371 0.52523 0.55604
 H1076 H 0.21127 0.60940 0.48344
 C1077 C 0.11570 0.46245 -0.04151
 C1078 C 0.13399 0.46356 -0.02517
 C1079 C 0.15407 0.44725 -0.02498
 C1080 C 0.16809 0.44652 -0.00447
 C1081 C 0.18780 0.43227 -0.00365
 C1082 C 0.19414 0.41863 -0.02355
 C1083 C 0.17990 0.41891 -0.04390
 C1084 C 0.16012 0.43321 -0.04474
 C1085 C 0.21522 0.40376 -0.02338
 C1086 C 0.23484 0.40959 -0.00975
 H1087 H 0.13342 0.47682 -0.01125
 H1088 H 0.16375 0.45701 0.01106
 H1089 H 0.19782 0.43182 0.01272
 H1090 H 0.18436 0.40843 -0.05939
 H1091 H 0.15006 0.43355 -0.06106
 H1092 H 0.21539 0.38818 -0.03473
 H1093 H 0.11488 0.44841 -0.05464
 H1094 H 0.23448 0.42565 0.00089
 C1095 C 0.61659 0.96328 0.47071
 C1096 C 0.63477 0.96658 0.48685
 C1097 C 0.65377 0.94918 0.49003
 C1098 C 0.67465 0.95702 0.50049
 C1099 C 0.69308 0.94124 0.50363
 C1100 C 0.69096 0.91719 0.49631
 C1101 C 0.66985 0.90920 0.48645
 C1102 C 0.65142 0.92495 0.48336
 C1103 C 0.70991 0.89973 0.49925
 C1104 C 0.73322 0.90629 0.50292
 H1105 H 0.63570 0.98303 0.49691
 H1106 H 0.67676 0.97547 0.50617
 H1107 H 0.70869 0.94796 0.51212
 H1108 H 0.66760 0.89067 0.48108
 H1109 H 0.63535 0.91786 0.47611
 H1110 H 0.70550 0.88076 0.49765
 H1111 H 0.61601 0.94765 0.45948
 H1112 H 0.73822 0.92519 0.50287
 C1113 C 0.88026 0.97683 0.53787
 C1114 C 0.86104 0.98032 0.52323
 C1115 C 0.84039 0.96404 0.52446
 C1116 C 0.82808 0.95938 0.50339
 C1117 C 0.80883 0.94359 0.50388
 C1118 C 0.80135 0.93244 0.52560
 C1119 C 0.81312 0.93778 0.54684
 C1120 C 0.83263 0.95329 0.54628
 C1121 C 0.78077 0.91607 0.52652
 C1122 C 0.77529 0.90091 0.50763
 H1123 H 0.86192 0.99407 0.50913
 H1124 H 0.83355 0.96774 0.48645
 H1125 H 0.79959 0.94047 0.48733
 H1126 H 0.80736 0.92973 0.56382
 H1127 H 0.84139 0.95710 0.56296
 H1128 H 0.76969 0.91587 0.54236
 H1129 H 0.88043 0.96158 0.55032
 H1130 H 0.78725 0.90032 0.49251
 C1131 C 0.37968 0.48108 0.04138
 C1132 C 0.36511 0.48412 0.02170
 C1133 C 0.34297 0.47036 0.01949
 C1134 C 0.33501 0.46442 -0.00342
 C1135 C 0.31479 0.45031 -0.00601
 C1136 C 0.30208 0.44205 0.01435
 C1137 C 0.30943 0.44900 0.03717
 C1138 C 0.32973 0.46295 0.03977
 C1139 C 0.28106 0.42645 0.01247
 C1140 C 0.27750 0.41058 -0.00637
 H1141 H 0.37103 0.49521 0.00653
 H1142 H 0.34471 0.47031 -0.01932
 H1143 H 0.30913 0.44607 -0.02395
 H1144 H 0.29965 0.44326 0.05308
 H1145 H 0.33492 0.46796 0.05765
 H1146 H 0.26866 0.42616 0.02724
 H1147 H 0.37486 0.46832 0.05563
 H1148 H 0.29065 0.40971 -0.02037
 C1149 C 0.53906 0.47553 0.37703
 C1150 C 0.54080 0.49508 0.36086
 C1151 C 0.55937 0.49807 0.34233
 C1152 C 0.58025 0.48526 0.34329
 C1153 C 0.59728 0.48874 0.32540
 C1154 C 0.59382 0.50511 0.30619
 C1155 C 0.57327 0.51830 0.30557
 C1156 C 0.55623 0.51479 0.32341
 C1157 C 0.61140 0.50933 0.28692
 C1158 C 0.62785 0.49233 0.28054
 H1159 H 0.52749 0.50858 0.36121
 H1160 H 0.58385 0.47289 0.35798
 H1161 H 0.61328 0.47894 0.32702
 H1162 H 0.57030 0.53121 0.29110
 H1163 H 0.54045 0.52510 0.32234
 H1164 H 0.61062 0.52590 0.27632
 H1165 H 0.55144 0.46116 0.37638
 H1166 H 0.62765 0.47492 0.28973
 C1167 C 0.04000 -0.04425 0.87895
 C1168 C 0.04320 -0.02494 0.86275
 C1169 C 0.05986 -0.02536 0.84239
 C1170 C 0.06964 -0.00358 0.83344
 C1171 C 0.08469 -0.00328 0.81358
 C1172 C 0.08999 -0.02482 0.80208
 C1173 C 0.07996 -0.04656 0.81084
 C1174 C 0.06518 -0.04690 0.83091
 C1175 C 0.10442 -0.02491 0.77999
 C1176 C 0.12192 -0.00768 0.77480
 H1177 H 0.03381 -0.00851 0.86558
 H1178 H 0.06551 0.01328 0.84177
 H1179 H 0.09149 0.01391 0.80682
 H1180 H 0.08346 -0.06331 0.80200
 H1181 H 0.05739 -0.06392 0.83691
 H1182 H 0.10108 -0.03898 0.76721
 H1183 H 0.05105 -0.05975 0.87788
 H1184 H 0.12619 0.00560 0.78812
 C1185 C 0.04402 0.01736 0.62146
 C1186 C 0.05166 0.03312 0.63880
 C1187 C 0.06984 0.02623 0.65600
 C1188 C 0.07101 0.03758 0.67821
 C1189 C 0.08755 0.03068 0.69515
 C1190 C 0.10343 0.01259 0.68990
 C1191 C 0.10285 0.00188 0.66736
 C1192 C 0.08602 0.00842 0.65062
 C1193 C 0.12083 0.00475 0.70752
 C1194 C 0.11562 0.00245 0.73199
 H1195 H 0.04311 0.05022 0.64073
 H1196 H 0.05886 0.05151 0.68261
 H1197 H 0.08806 0.03965 0.71221
 H1198 H 0.11512 -0.01192 0.66292
 H1199 H 0.08574 -0.00037 0.63345
 H1200 H 0.13760 -0.00099 0.70099
 H1201 H 0.03340 0.02163 0.61167
 H1202 H 0.09839 0.00710 0.73823
 C1203 C 0.53644 0.50376 0.13907
 C1204 C 0.55498 0.51759 0.14774
 C1205 C 0.56892 0.51058 0.16903
 C1206 C 0.58999 0.52300 0.17310
 C1207 C 0.60360 0.51732 0.19306
 C1208 C 0.59646 0.49888 0.20945
 C1209 C 0.57526 0.48665 0.20551
 C1210 C 0.56158 0.49243 0.18564
 C1211 C 0.60983 0.49253 0.23134
 C1212 C 0.63212 0.50169 0.23631
 H1213 H 0.55991 0.53414 0.13820
 H1214 H 0.59594 0.53727 0.16081
 H1215 H 0.61940 0.52780 0.19556
 H1216 H 0.56909 0.47267 0.21803
 H1217 H 0.54516 0.48285 0.18380
 H1218 H 0.60156 0.48024 0.24431
 H1219 H 0.53165 0.48670 0.14760
 H1220 H 0.64152 0.51188 0.22248
 C1221 C 0.45674 -0.02969 0.11077
 C1222 C 0.45593 -0.01006 0.12604
 C1223 C 0.43754 -0.00670 0.14450
 C1224 C 0.44155 0.01026 0.16243
 C1225 C 0.42482 0.01410 0.18025
 C1226 C 0.40359 0.00099 0.18054
 C1227 C 0.39929 -0.01546 0.16223
 C1228 C 0.41604 -0.01933 0.14441
 C1229 C 0.38559 0.00398 0.19945
 C1230 C 0.39050 0.01263 0.22232
 H1231 H 0.46987 0.00334 0.12496
 H1232 H 0.45777 0.02056 0.16272
 H1233 H 0.42856 0.02757 0.19348
 H1234 H 0.38295 -0.02555 0.16182
 H1235 H 0.41184 -0.03198 0.13055
 H1236 H 0.36808 -0.00264 0.19599
 H1237 H 0.44367 -0.04395 0.11215
 H1238 H 0.40809 0.01842 0.22642
 C1239 C 0.96941 0.48391 0.63153
 C1240 C 0.94765 0.47313 0.63613
 C1241 C 0.93289 0.48019 0.65658
 C1242 C 0.91763 0.46306 0.66739
 C1243 C 0.90450 0.46880 0.68765
 C1244 C 0.90616 0.49203 0.69727
 C1245 C 0.92085 0.50934 0.68590
 C1246 C 0.93398 0.50358 0.66572
 C1247 C 0.89390 0.49884 0.71954
 C1248 C 0.87656 0.48485 0.73126
 H1249 H 0.94199 0.45797 0.62559
 H1250 H 0.91639 0.44496 0.66055
 H1251 H 0.89367 0.45475 0.69589
 H1252 H 0.92235 0.52741 0.69278
 H1253 H 0.94490 0.51753 0.65734
 H1254 H 0.89917 0.51571 0.72751
 H1255 H 0.97595 0.49782 0.64315
 H1256 H 0.87046 0.46834 0.72328
 C1257 C 0.95738 0.53050 0.88255
 C1258 C 0.95395 0.51101 0.86751
 C1259 C 0.93515 0.50960 0.84948
 C1260 C 0.93715 0.49303 0.83097
 C1261 C 0.91986 0.49093 0.81360
 C1262 C 0.90011 0.50546 0.81436
 C1263 C 0.89777 0.52160 0.83321
 C1264 C 0.91510 0.52372 0.85059
 C1265 C 0.88142 0.50368 0.79627
 C1266 C 0.88532 0.49551 0.77307
 H1267 H 0.96606 0.49635 0.86833
 H1268 H 0.95220 0.48163 0.82991
 H1269 H 0.92192 0.47757 0.79995
 H1270 H 0.88252 0.53268 0.83443
 H1271 H 0.91244 0.53614 0.86498
 H1272 H 0.86418 0.50961 0.80105
 H1273 H 0.94627 0.54595 0.88125
 H1274 H 0.90277 0.49066 0.76789
 C1275 C 0.46604 0.01450 0.37371
 C1276 C 0.45148 0.03108 0.36262
 C1277 C 0.43874 0.02532 0.34035
 C1278 C 0.41777 0.03679 0.33520
 C1279 C 0.40539 0.03140 0.31435
 C1280 C 0.41402 0.01462 0.29805
 C1281 C 0.43515 0.00348 0.30311
 C1282 C 0.44747 0.00884 0.32388
 C1283 C 0.40164 0.00782 0.27587
 C1284 C 0.38360 0.02085 0.26548
 H1285 H 0.44907 0.04849 0.37055
 H1286 H 0.41077 0.04966 0.34754
 H1287 H 0.38899 0.04013 0.31142
 H1288 H 0.44231 -0.00935 0.29081
 H1289 H 0.46400 0.00029 0.32671
 H1290 H 0.40757 -0.00791 0.26659
 H1291 H 0.46702 -0.00353 0.36683
 H1292 H 0.37767 0.03699 0.27390
   
